443813
  -OEChem-07051213033D

 75 80  0     1  0  0  0  0  0999 V2000
   -2.3751   -2.2479    0.7370 O   0  0  0  0  0  0  0  0  0  0  0  0
   -5.3969    0.2470   -0.5646 O   0  0  0  0  0  0  0  0  0  0  0  0
   -7.1890    1.2089    0.6586 O   0  0  0  0  0  0  0  0  0  0  0  0
   -6.0307   -2.4025    0.3279 O   0  0  0  0  0  0  0  0  0  0  0  0
   -8.9880    3.0456   -0.7131 O   0  0  0  0  0  0  0  0  0  0  0  0
    7.7591    2.1595   -1.2410 O   0  0  0  0  0  0  0  0  0  0  0  0
   -0.5112   -1.8941   -0.8094 O   0  0  0  0  0  0  0  0  0  0  0  0
    5.7560    0.8785    2.3164 O   0  0  0  0  0  0  0  0  0  0  0  0
    3.5853    1.8438    1.3342 O   0  0  0  0  0  0  0  0  0  0  0  0
    1.7625   -1.7935   -1.9798 O   0  0  0  0  0  0  0  0  0  0  0  0
   -4.6104   -0.4766    0.3787 C   0  0  1  0  0  0  0  0  0  0  0  0
   -4.6997   -1.9701    0.0585 C   0  0  1  0  0  0  0  0  0  0  0  0
   -3.1645    0.0069    0.3080 C   0  0  0  0  0  0  0  0  0  0  0  0
   -2.2580   -0.8842    1.1589 C   0  0  2  0  0  0  0  0  0  0  0  0
   -3.6982   -2.7677    0.9047 C   0  0  1  0  0  0  0  0  0  0  0  0
   -5.9358    1.4338    0.0103 C   0  0  2  0  0  0  0  0  0  0  0  0
   -6.0637    2.5122   -1.0632 C   0  0  0  0  0  0  0  0  0  0  0  0
   -0.8092   -0.4619    1.0525 C   0  0  0  0  0  0  0  0  0  0  0  0
   -7.1816    2.1817   -2.0512 C   0  0  0  0  0  0  0  0  0  0  0  0
   -8.4787    1.8556   -1.3139 C   0  0  1  0  0  0  0  0  0  0  0  0
   -8.2344    0.7975   -0.2308 C   0  0  2  0  0  0  0  0  0  0  0  0
   -3.6549   -4.2404    0.5089 C   0  0  0  0  0  0  0  0  0  0  0  0
    8.2933    1.1703   -0.3546 C   0  0  2  0  0  0  0  0  0  0  0  0
    0.0189   -0.9845    0.0586 C   0  0  0  0  0  0  0  0  0  0  0  0
    7.9487   -0.2291   -0.8743 C   0  0  0  0  0  0  0  0  0  0  0  0
    5.6190    0.1590    0.0690 C   0  0  0  0  0  0  0  0  0  0  0  0
    6.4559   -0.4427   -0.8888 C   0  0  0  0  0  0  0  0  0  0  0  0
    1.3566   -0.5812   -0.0164 C   0  0  0  0  0  0  0  0  0  0  0  0
    7.6941    1.3927    1.0323 C   0  0  0  0  0  0  0  0  0  0  0  0
   -0.3071    0.4639    1.9659 C   0  0  0  0  0  0  0  0  0  0  0  0
    4.2179    0.0071   -0.0249 C   0  0  0  0  0  0  0  0  0  0  0  0
    1.8591    0.3425    0.8972 C   0  0  0  0  0  0  0  0  0  0  0  0
    3.6865   -0.8519   -0.9991 C   0  0  0  0  0  0  0  0  0  0  0  0
   -9.4749    0.5388    0.6173 C   0  0  0  0  0  0  0  0  0  0  0  0
    6.2940    0.8367    1.2121 C   0  0  0  0  0  0  0  0  0  0  0  0
    1.0251    0.8709    1.8890 C   0  0  0  0  0  0  0  0  0  0  0  0
    3.2593    0.7933    0.7964 C   0  0  0  0  0  0  0  0  0  0  0  0
    2.2326   -1.1198   -1.0714 C   0  0  0  0  0  0  0  0  0  0  0  0
    9.8110    1.3707   -0.3149 C   0  0  0  0  0  0  0  0  0  0  0  0
    5.9001   -1.2747   -1.8678 C   0  0  0  0  0  0  0  0  0  0  0  0
    4.5270   -1.4941   -1.9132 C   0  0  0  0  0  0  0  0  0  0  0  0
   -5.0115   -0.3257    1.3915 H   0  0  0  0  0  0  0  0  0  0  0  0
   -4.5098   -2.1166   -1.0125 H   0  0  0  0  0  0  0  0  0  0  0  0
   -3.0913    1.0530    0.6284 H   0  0  0  0  0  0  0  0  0  0  0  0
   -2.8431   -0.0027   -0.7426 H   0  0  0  0  0  0  0  0  0  0  0  0
   -2.5599   -0.8366    2.2141 H   0  0  0  0  0  0  0  0  0  0  0  0
   -3.9710   -2.7177    1.9671 H   0  0  0  0  0  0  0  0  0  0  0  0
   -5.2537    1.8298    0.7725 H   0  0  0  0  0  0  0  0  0  0  0  0
   -5.1198    2.6255   -1.6081 H   0  0  0  0  0  0  0  0  0  0  0  0
   -6.2938    3.4717   -0.5842 H   0  0  0  0  0  0  0  0  0  0  0  0
   -7.3294    3.0367   -2.7209 H   0  0  0  0  0  0  0  0  0  0  0  0
   -6.8837    1.3248   -2.6672 H   0  0  0  0  0  0  0  0  0  0  0  0
   -9.2263    1.5040   -2.0343 H   0  0  0  0  0  0  0  0  0  0  0  0
   -7.9400   -0.1485   -0.7023 H   0  0  0  0  0  0  0  0  0  0  0  0
   -4.6129   -4.7378    0.6838 H   0  0  0  0  0  0  0  0  0  0  0  0
   -3.3864   -4.3532   -0.5472 H   0  0  0  0  0  0  0  0  0  0  0  0
   -2.8852   -4.7658    1.0851 H   0  0  0  0  0  0  0  0  0  0  0  0
    8.4106   -1.0062   -0.2530 H   0  0  0  0  0  0  0  0  0  0  0  0
    8.3346   -0.3354   -1.8964 H   0  0  0  0  0  0  0  0  0  0  0  0
    7.6502    2.4637    1.2631 H   0  0  0  0  0  0  0  0  0  0  0  0
    8.3153    0.8955    1.7882 H   0  0  0  0  0  0  0  0  0  0  0  0
   -6.1313   -3.2977   -0.0362 H   0  0  0  0  0  0  0  0  0  0  0  0
   -0.9443    0.8807    2.7416 H   0  0  0  0  0  0  0  0  0  0  0  0
   -9.7333    1.4068    1.2334 H   0  0  0  0  0  0  0  0  0  0  0  0
  -10.3347    0.2708   -0.0040 H   0  0  0  0  0  0  0  0  0  0  0  0
   -9.2843   -0.2836    1.3160 H   0  0  0  0  0  0  0  0  0  0  0  0
    1.3946    1.5953    2.6097 H   0  0  0  0  0  0  0  0  0  0  0  0
   10.0606    2.3789    0.0353 H   0  0  0  0  0  0  0  0  0  0  0  0
   10.2998    0.6436    0.3418 H   0  0  0  0  0  0  0  0  0  0  0  0
   10.2414    1.2755   -1.3184 H   0  0  0  0  0  0  0  0  0  0  0  0
    6.5378   -1.7662   -2.5985 H   0  0  0  0  0  0  0  0  0  0  0  0
    4.1323   -2.1612   -2.6748 H   0  0  0  0  0  0  0  0  0  0  0  0
   -9.9146    2.8816   -0.4693 H   0  0  0  0  0  0  0  0  0  0  0  0
    6.7907    2.1643   -1.1700 H   0  0  0  0  0  0  0  0  0  0  0  0
   -1.4794   -1.8517   -0.8165 H   0  0  0  0  0  0  0  0  0  0  0  0
  1 14  1  0  0  0  0
  1 15  1  0  0  0  0
  2 11  1  0  0  0  0
  2 16  1  0  0  0  0
  3 16  1  0  0  0  0
  3 21  1  0  0  0  0
  4 12  1  0  0  0  0
  4 62  1  0  0  0  0
  5 20  1  0  0  0  0
  5 73  1  0  0  0  0
  6 23  1  0  0  0  0
  6 74  1  0  0  0  0
  7 24  1  0  0  0  0
  7 75  1  0  0  0  0
  8 35  2  0  0  0  0
  9 37  2  0  0  0  0
 10 38  2  0  0  0  0
 11 12  1  0  0  0  0
 11 13  1  0  0  0  0
 11 42  1  0  0  0  0
 12 15  1  0  0  0  0
 12 43  1  0  0  0  0
 13 14  1  0  0  0  0
 13 44  1  0  0  0  0
 13 45  1  0  0  0  0
 14 18  1  0  0  0  0
 14 46  1  0  0  0  0
 15 22  1  0  0  0  0
 15 47  1  0  0  0  0
 16 17  1  0  0  0  0
 16 48  1  0  0  0  0
 17 19  1  0  0  0  0
 17 49  1  0  0  0  0
 17 50  1  0  0  0  0
 18 24  2  0  0  0  0
 18 30  1  0  0  0  0
 19 20  1  0  0  0  0
 19 51  1  0  0  0  0
 19 52  1  0  0  0  0
 20 21  1  0  0  0  0
 20 53  1  0  0  0  0
 21 34  1  0  0  0  0
 21 54  1  0  0  0  0
 22 55  1  0  0  0  0
 22 56  1  0  0  0  0
 22 57  1  0  0  0  0
 23 25  1  0  0  0  0
 23 29  1  0  0  0  0
 23 39  1  0  0  0  0
 24 28  1  0  0  0  0
 25 27  1  0  0  0  0
 25 58  1  0  0  0  0
 25 59  1  0  0  0  0
 26 27  2  0  0  0  0
 26 31  1  0  0  0  0
 26 35  1  0  0  0  0
 27 40  1  0  0  0  0
 28 32  2  0  0  0  0
 28 38  1  0  0  0  0
 29 35  1  0  0  0  0
 29 60  1  0  0  0  0
 29 61  1  0  0  0  0
 30 36  2  0  0  0  0
 30 63  1  0  0  0  0
 31 33  2  0  0  0  0
 31 37  1  0  0  0  0
 32 36  1  0  0  0  0
 32 37  1  0  0  0  0
 33 38  1  0  0  0  0
 33 41  1  0  0  0  0
 34 64  1  0  0  0  0
 34 65  1  0  0  0  0
 34 66  1  0  0  0  0
 36 67  1  0  0  0  0
 39 68  1  0  0  0  0
 39 69  1  0  0  0  0
 39 70  1  0  0  0  0
 40 41  2  0  0  0  0
 40 71  1  0  0  0  0
 41 72  1  0  0  0  0
M  END
> <PUBCHEM_COMPOUND_CID>
443813

> <PUBCHEM_CONFORMER_RMSD>
1

> <PUBCHEM_CONFORMER_DIVERSEORDER>
2
39
69
58
43
56
22
3
8
51
41
27
65
67
63
28
7
49
55
44
29
53
38
26
40
14
30
19
68
25
23
36
48
35
47
9
37
64
31
46
16
34
13
32
59
62
50
6
4
24
61
12
54
42
20
33
11
45
10
17
5
52
15
66
57
21
18
60
1

> <PUBCHEM_MMFF94_PARTIAL_CHARGES>
43
1 -0.56
10 -0.57
11 0.28
12 0.28
14 0.42
15 0.28
16 0.56
18 -0.14
2 -0.56
20 0.28
21 0.28
23 0.28
24 0.08
25 0.14
26 0.09
27 -0.14
28 0.09
29 0.06
3 -0.56
30 -0.15
31 0.09
32 0.09
33 0.09
35 0.42
36 -0.15
37 0.4
38 0.4
4 -0.68
40 -0.15
41 -0.15
5 -0.68
6 -0.68
62 0.4
63 0.15
67 0.15
7 -0.53
71 0.15
72 0.15
73 0.4
74 0.4
75 0.45
8 -0.57
9 -0.57

> <PUBCHEM_EFFECTIVE_ROTOR_COUNT>
6

> <PUBCHEM_PHARMACOPHORE_FEATURES>
19
1 1 acceptor
1 10 acceptor
1 2 acceptor
1 3 acceptor
1 4 acceptor
1 4 donor
1 5 acceptor
1 5 donor
1 6 acceptor
1 6 donor
1 7 donor
1 8 acceptor
1 9 acceptor
6 1 11 12 13 14 15 rings
6 18 24 28 30 32 36 rings
6 23 25 26 27 29 35 rings
6 26 27 31 33 40 41 rings
6 28 31 32 33 37 38 rings
6 3 16 17 19 20 21 rings

> <PUBCHEM_HEAVY_ATOM_COUNT>
41

> <PUBCHEM_ATOM_DEF_STEREO_COUNT>
8

> <PUBCHEM_ATOM_UDEF_STEREO_COUNT>
0

> <PUBCHEM_BOND_DEF_STEREO_COUNT>
0

> <PUBCHEM_BOND_UDEF_STEREO_COUNT>
0

> <PUBCHEM_ISOTOPIC_ATOM_COUNT>
0

> <PUBCHEM_COMPONENT_COUNT>
1

> <PUBCHEM_CACTVS_TAUTO_COUNT>
10

> <PUBCHEM_CONFORMER_ID>
0006C5A500000002

> <PUBCHEM_MMFF94_ENERGY>
131.4272

> <PUBCHEM_FEATURE_SELFOVERLAP>
96.532

> <PUBCHEM_SHAPE_FINGERPRINT>
10190206 1 18188206611195536905
10835480 77 18260263057690725298
11135926 11 16950555563182417271
11181472 205 18060701719578779616
11409948 41 16009022947791857580
11456790 92 14405179581991581956
11475781 23 18413105082736566574
11607047 141 17845944039479986098
11607047 74 5905175180611014306
12758862 11 18408879650929284331
12838862 33 17530972367835094714
13811026 1 18040436559746161099
14117953 113 17967247582088710368
14294032 229 17632304497348440719
150020 25 18187359931180058014
15064986 266 17677038144972598649
15183329 4 17530971328163007881
15198563 99 17385990807141193192
15247644 1 6699810873962847012
15320295 198 18261673679860179112
15328829 1 16558752342718840284
15419008 91 18189349991255205976
1577012 14 17561089102540230451
16728433 281 18338513161779288673
20505436 4 17703515462948545403
20737093 207 5833723319133690708
21033648 29 18335992981947675178
21756936 100 17203605983141278731
21792934 111 18040722485685655474
21792938 703 14418130677894397156
23559900 14 18186801361571266963
23569943 247 5759725074002946988
23576562 1 17532107003020277693
249057 3 18412261723227446457
3633792 109 17530962496987476794
4073 2 18408878521153035882
4403749 210 18188773830014205534
44802255 64 18413671319057751075
44880568 143 18342453690839868124
4516262 110 17346049956513816483
4625314 4 18412259503114021788
474113 269 18190461761337153910
4874694 18 18259424130983818870
504579 68 15140681375468984956
54039377 194 14057010391337095069
6009941 240 18410009918512294939
6081469 158 18334009528360924052
6201320 215 17917440885664767173
6691757 9 16845576384012968355

> <PUBCHEM_SHAPE_MULTIPOLES>
785.07
31.31
2.95
1.76
10
1.62
-0.07
-22.31
-7.85
5.94
-0.42
-1.29
-0.25
4.07

> <PUBCHEM_SHAPE_SELFOVERLAP>
1733.129

> <PUBCHEM_SHAPE_VOLUME>
415.4

> <PUBCHEM_COORDINATE_TYPE>
2
5
10

$$$$

