10313
  -OEChem-06261204273D

 17 17  0     0  0  0  0  0  0999 V2000
    1.8282    1.4130   -0.4289 O   0  0  0  0  0  0  0  0  0  0  0  0
    3.5320   -0.5705    0.2020 O   0  0  0  0  0  0  0  0  0  0  0  0
    2.1442   -0.7633    0.2620 N   0  0  0  0  0  0  0  0  0  0  0  0
   -0.0938    0.1224   -0.0363 C   0  0  0  0  0  0  0  0  0  0  0  0
   -0.9391    1.2081    0.1924 C   0  0  0  0  0  0  0  0  0  0  0  0
   -0.6298   -1.1520   -0.2209 C   0  0  0  0  0  0  0  0  0  0  0  0
   -2.3205    1.0194    0.2367 C   0  0  0  0  0  0  0  0  0  0  0  0
   -2.0112   -1.3408   -0.1768 C   0  0  0  0  0  0  0  0  0  0  0  0
   -2.8565   -0.2550    0.0520 C   0  0  0  0  0  0  0  0  0  0  0  0
    1.3464    0.3188   -0.0821 C   0  0  0  0  0  0  0  0  0  0  0  0
   -0.5407    2.2081    0.3429 H   0  0  0  0  0  0  0  0  0  0  0  0
   -0.0052   -2.0176   -0.4231 H   0  0  0  0  0  0  0  0  0  0  0  0
   -2.9788    1.8645    0.4156 H   0  0  0  0  0  0  0  0  0  0  0  0
   -2.4294   -2.3321   -0.3255 H   0  0  0  0  0  0  0  0  0  0  0  0
   -3.9321   -0.4018    0.0853 H   0  0  0  0  0  0  0  0  0  0  0  0
    1.8320   -1.6395    0.6644 H   0  0  0  0  0  0  0  0  0  0  0  0
    3.7130   -0.9078   -0.6917 H   0  0  0  0  0  0  0  0  0  0  0  0
  1 10  2  0  0  0  0
  2  3  1  0  0  0  0
  2 17  1  0  0  0  0
  3 10  1  0  0  0  0
  3 16  1  0  0  0  0
  4  5  2  0  0  0  0
  4  6  1  0  0  0  0
  4 10  1  0  0  0  0
  5  7  1  0  0  0  0
  5 11  1  0  0  0  0
  6  8  2  0  0  0  0
  6 12  1  0  0  0  0
  7  9  2  0  0  0  0
  7 13  1  0  0  0  0
  8  9  1  0  0  0  0
  8 14  1  0  0  0  0
  9 15  1  0  0  0  0
M  END
> <PUBCHEM_COMPOUND_CID>
10313

> <PUBCHEM_CONFORMER_RMSD>
0.4

> <PUBCHEM_CONFORMER_DIVERSEORDER>
1
3
2

> <PUBCHEM_MMFF94_PARTIAL_CHARGES>
17
1 -0.57
10 0.54
11 0.15
12 0.15
13 0.15
14 0.15
15 0.15
16 0.37
17 0.4
2 -0.44
3 -0.39
4 0.09
5 -0.15
6 -0.15
7 -0.15
8 -0.15
9 -0.15

> <PUBCHEM_EFFECTIVE_ROTOR_COUNT>
2

> <PUBCHEM_PHARMACOPHORE_FEATURES>
3
1 1 acceptor
1 3 donor
6 4 5 6 7 8 9 rings

> <PUBCHEM_HEAVY_ATOM_COUNT>
10

> <PUBCHEM_ATOM_DEF_STEREO_COUNT>
0

> <PUBCHEM_ATOM_UDEF_STEREO_COUNT>
0

> <PUBCHEM_BOND_DEF_STEREO_COUNT>
0

> <PUBCHEM_BOND_UDEF_STEREO_COUNT>
0

> <PUBCHEM_ISOTOPIC_ATOM_COUNT>
0

> <PUBCHEM_COMPONENT_COUNT>
1

> <PUBCHEM_CACTVS_TAUTO_COUNT>
3

> <PUBCHEM_CONFORMER_ID>
0000284900000001

> <PUBCHEM_MMFF94_ENERGY>
27.0121

> <PUBCHEM_FEATURE_SELFOVERLAP>
15.223

> <PUBCHEM_SHAPE_FINGERPRINT>
12932764 1 17823132328638201105
13024252 1 15410892985540924773
14325111 11 18410292510190766129
16945 1 18337383941655893343
20645464 45 17240484710325778978
20653085 51 17131843062034475093
20871998 184 18040715818757403391
21040471 1 18262513805580197385
23402539 116 18041009474741172957
23552423 10 18271807865320823655
29004967 10 16056603127397519397
369184 2 18261114049841916305
5084963 1 18410013247280390657

> <PUBCHEM_SHAPE_MULTIPOLES>
189.08
4.4
1.45
0.63
2.4
0.06
-0.01
-0.55
0.3
-0.32
-0.06
-0.02
0.02
-0.3

> <PUBCHEM_SHAPE_SELFOVERLAP>
392.612

> <PUBCHEM_SHAPE_VOLUME>
107.7

> <PUBCHEM_COORDINATE_TYPE>
2
5
10

$$$$

