10378981
  -OEChem-07051213093D

 36 40  0     1  0  0  0  0  0999 V2000
    1.1949   -1.8924    1.8331 O   0  0  0  0  0  0  0  0  0  0  0  0
   -0.5934    2.8869    0.1998 O   0  0  0  0  0  0  0  0  0  0  0  0
   -2.9769    2.6190    0.2512 O   0  0  0  0  0  0  0  0  0  0  0  0
   -0.5279   -3.2659   -0.0135 N   0  0  0  0  0  0  0  0  0  0  0  0
    0.1526   -2.0149   -0.3833 C   0  0  1  0  0  0  0  0  0  0  0  0
   -0.7183   -0.7778   -0.2089 C   0  0  0  0  0  0  0  0  0  0  0  0
    1.4552   -1.8787    0.4307 C   0  0  1  0  0  0  0  0  0  0  0  0
   -0.0921    0.4957   -0.1292 C   0  0  0  0  0  0  0  0  0  0  0  0
   -2.1305   -0.9190   -0.1778 C   0  0  0  0  0  0  0  0  0  0  0  0
   -2.7641   -2.2867   -0.2241 C   0  0  0  0  0  0  0  0  0  0  0  0
    2.1540   -0.5782    0.1027 C   0  0  0  0  0  0  0  0  0  0  0  0
   -1.8073   -3.3733   -0.7110 C   0  0  0  0  0  0  0  0  0  0  0  0
    1.3886    0.5795   -0.1818 C   0  0  0  0  0  0  0  0  0  0  0  0
   -0.9514    1.5799    0.0326 C   0  0  0  0  0  0  0  0  0  0  0  0
   -2.9416    0.2087   -0.0281 C   0  0  0  0  0  0  0  0  0  0  0  0
   -2.3245    1.4358    0.0770 C   0  0  0  0  0  0  0  0  0  0  0  0
    3.5573   -0.5325    0.0968 C   0  0  0  0  0  0  0  0  0  0  0  0
    2.0891    1.7488   -0.5252 C   0  0  0  0  0  0  0  0  0  0  0  0
   -1.8716    3.5344    0.3234 C   0  0  0  0  0  0  0  0  0  0  0  0
    4.2205    0.6472   -0.2227 C   0  0  0  0  0  0  0  0  0  0  0  0
    3.4872    1.7835   -0.5415 C   0  0  0  0  0  0  0  0  0  0  0  0
    0.4175   -2.0707   -1.4495 H   0  0  0  0  0  0  0  0  0  0  0  0
    2.1104   -2.7296    0.2067 H   0  0  0  0  0  0  0  0  0  0  0  0
   -3.1123   -2.5333    0.7872 H   0  0  0  0  0  0  0  0  0  0  0  0
   -3.6406   -2.2671   -0.8829 H   0  0  0  0  0  0  0  0  0  0  0  0
   -0.6819   -3.2871    0.9947 H   0  0  0  0  0  0  0  0  0  0  0  0
   -2.2450   -4.3594   -0.5209 H   0  0  0  0  0  0  0  0  0  0  0  0
   -1.6545   -3.3016   -1.7953 H   0  0  0  0  0  0  0  0  0  0  0  0
   -4.0219    0.1222    0.0211 H   0  0  0  0  0  0  0  0  0  0  0  0
    4.1375   -1.4207    0.3335 H   0  0  0  0  0  0  0  0  0  0  0  0
    1.5693    2.6599   -0.8063 H   0  0  0  0  0  0  0  0  0  0  0  0
    0.8780   -1.0160    2.1093 H   0  0  0  0  0  0  0  0  0  0  0  0
   -1.9714    4.2724   -0.4808 H   0  0  0  0  0  0  0  0  0  0  0  0
   -1.9090    4.0572    1.2858 H   0  0  0  0  0  0  0  0  0  0  0  0
    5.3059    0.6773   -0.2329 H   0  0  0  0  0  0  0  0  0  0  0  0
    4.0009    2.7030   -0.8077 H   0  0  0  0  0  0  0  0  0  0  0  0
  1  7  1  0  0  0  0
  1 32  1  0  0  0  0
  2 14  1  0  0  0  0
  2 19  1  0  0  0  0
  3 16  1  0  0  0  0
  3 19  1  0  0  0  0
  4  5  1  0  0  0  0
  4 12  1  0  0  0  0
  4 26  1  0  0  0  0
  5  6  1  0  0  0  0
  5  7  1  0  0  0  0
  5 22  1  0  0  0  0
  6  8  2  0  0  0  0
  6  9  1  0  0  0  0
  7 11  1  0  0  0  0
  7 23  1  0  0  0  0
  8 13  1  0  0  0  0
  8 14  1  0  0  0  0
  9 10  1  0  0  0  0
  9 15  2  0  0  0  0
 10 12  1  0  0  0  0
 10 24  1  0  0  0  0
 10 25  1  0  0  0  0
 11 13  1  0  0  0  0
 11 17  2  0  0  0  0
 12 27  1  0  0  0  0
 12 28  1  0  0  0  0
 13 18  2  0  0  0  0
 14 16  2  0  0  0  0
 15 16  1  0  0  0  0
 15 29  1  0  0  0  0
 17 20  1  0  0  0  0
 17 30  1  0  0  0  0
 18 21  1  0  0  0  0
 18 31  1  0  0  0  0
 19 33  1  0  0  0  0
 19 34  1  0  0  0  0
 20 21  2  0  0  0  0
 20 35  1  0  0  0  0
 21 36  1  0  0  0  0
M  END
> <PUBCHEM_COMPOUND_CID>
10378981

> <PUBCHEM_CONFORMER_RMSD>
0.6

> <PUBCHEM_CONFORMER_DIVERSEORDER>
1

> <PUBCHEM_MMFF94_PARTIAL_CHARGES>
26
1 -0.68
10 0.14
11 -0.14
12 0.27
14 0.08
15 -0.15
16 0.08
17 -0.15
18 -0.15
19 0.56
2 -0.36
20 -0.15
21 -0.15
26 0.36
29 0.15
3 -0.36
30 0.15
31 0.15
32 0.4
35 0.15
36 0.15
4 -0.9
5 0.41
6 -0.14
7 0.42
9 -0.14

> <PUBCHEM_EFFECTIVE_ROTOR_COUNT>
1.4

> <PUBCHEM_PHARMACOPHORE_FEATURES>
11
1 1 acceptor
1 1 donor
1 2 acceptor
1 3 acceptor
1 4 cation
1 4 donor
5 2 3 14 16 19 rings
6 11 13 17 18 20 21 rings
6 4 5 6 9 10 12 rings
6 5 6 7 8 11 13 rings
6 6 8 9 14 15 16 rings

> <PUBCHEM_HEAVY_ATOM_COUNT>
21

> <PUBCHEM_ATOM_DEF_STEREO_COUNT>
2

> <PUBCHEM_ATOM_UDEF_STEREO_COUNT>
0

> <PUBCHEM_BOND_DEF_STEREO_COUNT>
0

> <PUBCHEM_BOND_UDEF_STEREO_COUNT>
0

> <PUBCHEM_ISOTOPIC_ATOM_COUNT>
0

> <PUBCHEM_COMPONENT_COUNT>
1

> <PUBCHEM_CACTVS_TAUTO_COUNT>
1

> <PUBCHEM_CONFORMER_ID>
009E5EE500000001

> <PUBCHEM_MMFF94_ENERGY>
60.0905

> <PUBCHEM_FEATURE_SELFOVERLAP>
56.066

> <PUBCHEM_SHAPE_FINGERPRINT>
10319926 262 18189640297480794672
10411042 1 17905045850740772150
10616163 171 18410570703822836798
10967382 1 18410574032485853221
1100329 8 18194115214588665177
11578080 2 17196058818641973100
12173636 292 18336831990876821244
12553582 1 18049161068643567479
12788726 201 18269271253899923730
13027679 85 18050285869381348999
13140716 1 18267586810164454618
13583140 156 17202482393309818409
138480 1 16824740977309041909
14081887 123 18190195494137382032
14178342 30 17977963597619879888
14787075 74 17555728815872696947
14790565 3 18336536188628007505
15042514 8 18338792317114216003
15442244 35 18412548738801639694
15490181 8 18049449433053646135
16752209 62 18335996319300573679
16945 1 18409727352893225590
19591789 44 17761768872882495798
19930381 70 16248286164829811918
20510252 161 18333728000826572168
20775438 99 16311380630578990231
20905425 154 18335417911828536406
21029758 11 17905330624019659967
21041028 32 17981311310169287043
21267235 1 18195800774367116246
21524375 3 18271801393111187064
21634736 98 18124593090032258116
2334 1 18123189000297539039
23402539 116 18117281358860851750
23419403 2 16539950432075488708
23557571 272 18115014196365782516
23558518 356 18342451526587670950
238 59 17122862456937994421
2748010 2 15745583585990470918
3091708 16 9560288251155993137
335352 9 18122624118036070380
34934 24 18192437363902217655
350125 39 18266170815234019652
352729 6 18337111284278741855
6438718 38 17895186658844038255
7097593 13 17913224323297202250
7364860 26 17688587577570226716
7832392 63 18266459987293317214
81228 2 18124590886461119816
90525 40 18337110180181970503
9709674 26 18261385625314726998

> <PUBCHEM_SHAPE_MULTIPOLES>
409.58
5.54
4.21
0.81
4.21
0.97
0.19
0.54
-0.61
-3.38
0.22
0.16
-0.3
-0.93

> <PUBCHEM_SHAPE_SELFOVERLAP>
936.25

> <PUBCHEM_SHAPE_VOLUME>
210.1

> <PUBCHEM_COORDINATE_TYPE>
2
5
10

$$$$

