442408
  -OEChem-07051212583D

 41 44  0     1  0  0  0  0  0999 V2000
    1.5075   -1.4361    1.8078 O   0  0  0  0  0  0  0  0  0  0  0  0
    0.6860    1.3897    1.1215 O   0  0  0  0  0  0  0  0  0  0  0  0
    2.4837    2.6679   -0.6352 O   0  0  0  0  0  0  0  0  0  0  0  0
   -1.2088   -2.4452   -0.2377 O   0  0  0  0  0  0  0  0  0  0  0  0
   -2.0483    0.2982   -1.9730 O   0  0  0  0  0  0  0  0  0  0  0  0
   -3.4949   -1.2595    0.3808 O   0  0  0  0  0  0  0  0  0  0  0  0
    1.3742   -0.7351   -0.6424 C   0  0  1  0  0  0  0  0  0  0  0  0
    1.9363   -0.5870    0.7542 C   0  0  1  0  0  0  0  0  0  0  0  0
   -0.1492   -0.2261   -0.6217 C   0  0  2  0  0  0  0  0  0  0  0  0
    2.0159    0.8754    0.9962 C   0  0  1  0  0  0  0  0  0  0  0  0
    2.2912    0.3265   -1.3745 C   0  0  0  0  0  0  0  0  0  0  0  0
    2.8901   -1.5488    1.4286 C   0  0  0  0  0  0  0  0  0  0  0  0
    2.7446    1.3263   -0.2805 C   0  0  1  0  0  0  0  0  0  0  0  0
   -0.1783    1.2224   -0.0154 C   0  0  1  0  0  0  0  0  0  0  0  0
    1.5890   -2.1174   -1.2629 C   0  0  0  0  0  0  0  0  0  0  0  0
   -1.0883   -1.1193    0.2479 C   0  0  1  0  0  0  0  0  0  0  0  0
   -0.7267   -0.1708   -2.0686 C   0  0  0  0  0  0  0  0  0  0  0  0
   -1.5390    1.6933    0.4223 C   0  0  0  0  0  0  0  0  0  0  0  0
   -2.4941   -0.5440    0.3866 C   0  0  0  0  0  0  0  0  0  0  0  0
   -2.6248    0.9262    0.5903 C   0  0  0  0  0  0  0  0  0  0  0  0
   -3.9660    1.4637    0.9756 C   0  0  0  0  0  0  0  0  0  0  0  0
    2.5712    1.1527    1.8974 H   0  0  0  0  0  0  0  0  0  0  0  0
    1.8151    0.8193   -2.2241 H   0  0  0  0  0  0  0  0  0  0  0  0
    3.1900   -0.1657   -1.7690 H   0  0  0  0  0  0  0  0  0  0  0  0
    3.1912   -2.4594    0.9308 H   0  0  0  0  0  0  0  0  0  0  0  0
    3.6263   -1.1528    2.1169 H   0  0  0  0  0  0  0  0  0  0  0  0
    3.8275    1.2179   -0.1384 H   0  0  0  0  0  0  0  0  0  0  0  0
    0.1417    1.9352   -0.7844 H   0  0  0  0  0  0  0  0  0  0  0  0
    2.6560   -2.3589   -1.3353 H   0  0  0  0  0  0  0  0  0  0  0  0
    1.1379   -2.9118   -0.6625 H   0  0  0  0  0  0  0  0  0  0  0  0
    1.1889   -2.1765   -2.2786 H   0  0  0  0  0  0  0  0  0  0  0  0
   -0.7197   -1.1872    1.2746 H   0  0  0  0  0  0  0  0  0  0  0  0
   -0.7494   -1.1594   -2.5352 H   0  0  0  0  0  0  0  0  0  0  0  0
   -0.1739    0.5093   -2.7197 H   0  0  0  0  0  0  0  0  0  0  0  0
   -1.6285    2.7647    0.5927 H   0  0  0  0  0  0  0  0  0  0  0  0
    2.9319    2.8399   -1.4807 H   0  0  0  0  0  0  0  0  0  0  0  0
   -1.6859   -2.9640    0.4324 H   0  0  0  0  0  0  0  0  0  0  0  0
   -2.4127    0.3277   -2.8739 H   0  0  0  0  0  0  0  0  0  0  0  0
   -4.7028    1.2492    0.1947 H   0  0  0  0  0  0  0  0  0  0  0  0
   -3.9453    2.5485    1.1239 H   0  0  0  0  0  0  0  0  0  0  0  0
   -4.3064    1.0073    1.9108 H   0  0  0  0  0  0  0  0  0  0  0  0
  1  8  1  0  0  0  0
  1 12  1  0  0  0  0
  2 10  1  0  0  0  0
  2 14  1  0  0  0  0
  3 13  1  0  0  0  0
  3 36  1  0  0  0  0
  4 16  1  0  0  0  0
  4 37  1  0  0  0  0
  5 17  1  0  0  0  0
  5 38  1  0  0  0  0
  6 19  2  0  0  0  0
  7  8  1  0  0  0  0
  7  9  1  0  0  0  0
  7 11  1  0  0  0  0
  7 15  1  0  0  0  0
  8 10  1  0  0  0  0
  8 12  1  0  0  0  0
  9 14  1  0  0  0  0
  9 16  1  0  0  0  0
  9 17  1  0  0  0  0
 10 13  1  0  0  0  0
 10 22  1  0  0  0  0
 11 13  1  0  0  0  0
 11 23  1  0  0  0  0
 11 24  1  0  0  0  0
 12 25  1  0  0  0  0
 12 26  1  0  0  0  0
 13 27  1  0  0  0  0
 14 18  1  0  0  0  0
 14 28  1  0  0  0  0
 15 29  1  0  0  0  0
 15 30  1  0  0  0  0
 15 31  1  0  0  0  0
 16 19  1  0  0  0  0
 16 32  1  0  0  0  0
 17 33  1  0  0  0  0
 17 34  1  0  0  0  0
 18 20  2  0  0  0  0
 18 35  1  0  0  0  0
 19 20  1  0  0  0  0
 20 21  1  0  0  0  0
 21 39  1  0  0  0  0
 21 40  1  0  0  0  0
 21 41  1  0  0  0  0
M  END
> <PUBCHEM_COMPOUND_CID>
442408

> <PUBCHEM_CONFORMER_RMSD>
0.6

> <PUBCHEM_CONFORMER_DIVERSEORDER>
1

> <PUBCHEM_MMFF94_PARTIAL_CHARGES>
24
1 -0.3
10 0.38
12 -0.05
13 0.28
14 0.42
16 0.34
17 0.28
18 -0.29
19 0.49
2 -0.56
20 -0.12
21 0.14
25 0.1
26 0.1
3 -0.68
35 0.15
36 0.4
37 0.4
38 0.4
4 -0.68
5 -0.68
6 -0.57
7 0.09
8 -0.04

> <PUBCHEM_EFFECTIVE_ROTOR_COUNT>
2.2

> <PUBCHEM_PHARMACOPHORE_FEATURES>
11
1 1 acceptor
1 2 acceptor
1 3 acceptor
1 3 donor
1 4 acceptor
1 4 donor
1 5 acceptor
1 5 donor
1 6 acceptor
6 9 14 16 18 19 20 rings
8 2 7 8 9 10 11 13 14 rings

> <PUBCHEM_HEAVY_ATOM_COUNT>
21

> <PUBCHEM_ATOM_DEF_STEREO_COUNT>
7

> <PUBCHEM_ATOM_UDEF_STEREO_COUNT>
0

> <PUBCHEM_BOND_DEF_STEREO_COUNT>
0

> <PUBCHEM_BOND_UDEF_STEREO_COUNT>
0

> <PUBCHEM_ISOTOPIC_ATOM_COUNT>
0

> <PUBCHEM_COMPONENT_COUNT>
1

> <PUBCHEM_CACTVS_TAUTO_COUNT>
8

> <PUBCHEM_CONFORMER_ID>
0006C02800000001

> <PUBCHEM_MMFF94_ENERGY>
90.5005

> <PUBCHEM_FEATURE_SELFOVERLAP>
55.839

> <PUBCHEM_SHAPE_FINGERPRINT>
10863032 1 18337941337958099113
10948715 1 18266447716366219028
11578080 2 17489314125930174021
12423570 1 7742901564473484598
12633257 1 18338510971418749121
12808571 1 18339918200067893348
13140716 1 18337106869200074593
13172582 1 18261965161772377619
13538477 17 18412260648926232473
13583140 156 17703497879362945569
14223421 5 18201436930878624411
144361 1 17458892795352409932
14817 1 16970275618006689854
15881359 60 17973465452675061861
16945 1 18334565863057153748
1813 80 17128729404314464866
18981168 100 14707216474065838415
20511035 2 17461437219783025821
21501502 16 18409448072618195617
21524375 3 18125152737219658292
2334 1 18408037399358125009
23419403 2 15734964141986134152
23493267 7 18261095362244188480
23557571 272 14780705606784472949
23559900 14 18189604106978568999
2748010 2 17398109842579999245
296302 2 15985104059491442853
31174 14 17988923413535287201
528886 8 17823407202608835134
7364860 26 18335129938734936332
81228 2 15794007766237315823
9999458 23 18123727993456276045

> <PUBCHEM_SHAPE_MULTIPOLES>
396.95
5.03
2.28
1.64
3.05
0.06
0.35
0.81
-1.27
-0.56
0
-0.5
-0.32
-0.62

> <PUBCHEM_SHAPE_SELFOVERLAP>
871.496

> <PUBCHEM_SHAPE_VOLUME>
208

> <PUBCHEM_COORDINATE_TYPE>
2
5
10

$$$$

