9526
  -OEChem-06261203463D

 12 11  0     0  0  0  0  0  0999 V2000
   -0.4662   -0.5571   -0.0014 S   0  0  0  0  0  0  0  0  0  0  0  0
    1.3560    0.8602    1.1621 F   0  0  0  0  0  0  0  0  0  0  0  0
    1.2464    1.1090   -1.0024 F   0  0  0  0  0  0  0  0  0  0  0  0
    2.1156   -0.7048   -0.1546 F   0  0  0  0  0  0  0  0  0  0  0  0
   -1.3393    0.8236    0.0006 O   0  0  0  0  0  0  0  0  0  0  0  0
   -0.6407   -1.2341   -1.2701 O   0  0  0  0  0  0  0  0  0  0  0  0
   -0.6398   -1.2375    1.2656 O   0  0  0  0  0  0  0  0  0  0  0  0
    1.1238    0.2050   -0.0008 C   0  0  0  0  0  0  0  0  0  0  0  0
   -2.7557    0.7357    0.0009 C   0  0  0  0  0  0  0  0  0  0  0  0
   -3.1017    0.2138   -0.8957 H   0  0  0  0  0  0  0  0  0  0  0  0
   -3.1674    1.7481    0.0024 H   0  0  0  0  0  0  0  0  0  0  0  0
   -3.1013    0.2113    0.8961 H   0  0  0  0  0  0  0  0  0  0  0  0
  1  5  1  0  0  0  0
  1  6  2  0  0  0  0
  1  7  2  0  0  0  0
  1  8  1  0  0  0  0
  2  8  1  0  0  0  0
  3  8  1  0  0  0  0
  4  8  1  0  0  0  0
  5  9  1  0  0  0  0
  9 10  1  0  0  0  0
  9 11  1  0  0  0  0
  9 12  1  0  0  0  0
M  END
> <PUBCHEM_COMPOUND_CID>
9526

> <PUBCHEM_CONFORMER_RMSD>
0.4

> <PUBCHEM_CONFORMER_DIVERSEORDER>
1
3
2

> <PUBCHEM_MMFF94_PARTIAL_CHARGES>
9
1 1.38
2 -0.34
3 -0.34
4 -0.34
5 -0.46
6 -0.65
7 -0.65
8 1.13
9 0.28

> <PUBCHEM_EFFECTIVE_ROTOR_COUNT>
2

> <PUBCHEM_PHARMACOPHORE_FEATURES>
2
1 6 acceptor
1 7 acceptor

> <PUBCHEM_HEAVY_ATOM_COUNT>
9

> <PUBCHEM_ATOM_DEF_STEREO_COUNT>
0

> <PUBCHEM_ATOM_UDEF_STEREO_COUNT>
0

> <PUBCHEM_BOND_DEF_STEREO_COUNT>
0

> <PUBCHEM_BOND_UDEF_STEREO_COUNT>
0

> <PUBCHEM_ISOTOPIC_ATOM_COUNT>
0

> <PUBCHEM_COMPONENT_COUNT>
1

> <PUBCHEM_CACTVS_TAUTO_COUNT>
1

> <PUBCHEM_CONFORMER_ID>
0000253600000001

> <PUBCHEM_MMFF94_ENERGY>
1.9718

> <PUBCHEM_FEATURE_SELFOVERLAP>
10.165

> <PUBCHEM_SHAPE_FINGERPRINT>
137420 1 14569923777147019191
20096714 4 18272930526917277101
21040471 1 18334577927746830253
24536 1 17986681363428953358
29004967 10 5833698093814131911
5084963 1 18341048613943081577
5943 1 16238403810322552679

> <PUBCHEM_SHAPE_MULTIPOLES>
149.64
2.74
1.26
1.08
1.09
0.15
0.05
-0.81
-0.01
0.06
-0.04
-0.11
0.18
0.02

> <PUBCHEM_SHAPE_SELFOVERLAP>
274.62

> <PUBCHEM_SHAPE_VOLUME>
95.7

> <PUBCHEM_COORDINATE_TYPE>
2
5
10

$$$$

