23724763
  -OEChem-07051213083D

 19 19  0     1  0  0  0  0  0999 V2000
    2.8236   -1.5822   -0.1854 F   0  0  0  0  0  0  0  0  0  0  0  0
   -0.9044    0.2654   -1.6756 O   0  0  0  0  0  0  0  0  0  0  0  0
   -0.9386    2.3676   -0.0562 O   0  0  0  0  0  0  0  0  0  0  0  0
   -1.4540   -1.1827    1.5191 O   0  0  0  0  0  0  0  0  0  0  0  0
   -2.8177   -0.9048   -0.2862 O   0  0  0  0  0  0  0  0  0  0  0  0
   -0.5591   -0.0341   -0.3287 C   0  0  2  0  0  0  0  0  0  0  0  0
   -0.2284    1.2513    0.4762 C   0  0  1  0  0  0  0  0  0  0  0  0
    0.5680   -1.0319   -0.3758 C   0  0  0  0  0  0  0  0  0  0  0  0
    1.2393    1.5922    0.5023 C   0  0  0  0  0  0  0  0  0  0  0  0
   -1.7413   -0.7436    0.2694 C   0  0  0  0  0  0  0  0  0  0  0  0
    1.8291   -0.6751   -0.0978 C   0  0  0  0  0  0  0  0  0  0  0  0
    2.1836    0.6779    0.2388 C   0  0  0  0  0  0  0  0  0  0  0  0
   -0.5482    1.1508    1.5209 H   0  0  0  0  0  0  0  0  0  0  0  0
    0.3633   -2.0562   -0.6763 H   0  0  0  0  0  0  0  0  0  0  0  0
    1.5376    2.5972    0.7868 H   0  0  0  0  0  0  0  0  0  0  0  0
    3.2358    0.9343    0.2879 H   0  0  0  0  0  0  0  0  0  0  0  0
   -1.0172   -0.5675   -2.1654 H   0  0  0  0  0  0  0  0  0  0  0  0
   -0.7657    3.1343    0.5168 H   0  0  0  0  0  0  0  0  0  0  0  0
   -2.2146   -1.6481    1.9279 H   0  0  0  0  0  0  0  0  0  0  0  0
  1 11  1  0  0  0  0
  2  6  1  0  0  0  0
  2 17  1  0  0  0  0
  3  7  1  0  0  0  0
  3 18  1  0  0  0  0
  4 10  1  0  0  0  0
  4 19  1  0  0  0  0
  5 10  2  0  0  0  0
  6  7  1  0  0  0  0
  6  8  1  0  0  0  0
  6 10  1  0  0  0  0
  7  9  1  0  0  0  0
  7 13  1  0  0  0  0
  8 11  2  0  0  0  0
  8 14  1  0  0  0  0
  9 12  2  0  0  0  0
  9 15  1  0  0  0  0
 11 12  1  0  0  0  0
 12 16  1  0  0  0  0
M  END
> <PUBCHEM_COMPOUND_CID>
23724763

> <PUBCHEM_CONFORMER_RMSD>
0.4

> <PUBCHEM_CONFORMER_DIVERSEORDER>
1
4
6
3
2
5

> <PUBCHEM_MMFF94_PARTIAL_CHARGES>
18
1 -0.15
10 0.66
11 0.15
12 -0.15
14 0.15
15 0.15
16 0.15
17 0.4
18 0.4
19 0.5
2 -0.68
3 -0.68
4 -0.65
5 -0.57
6 0.48
7 0.42
8 -0.29
9 -0.29

> <PUBCHEM_EFFECTIVE_ROTOR_COUNT>
1.4

> <PUBCHEM_PHARMACOPHORE_FEATURES>
8
1 2 acceptor
1 2 donor
1 3 acceptor
1 3 donor
1 4 acceptor
1 5 acceptor
3 4 5 10 anion
6 6 7 8 9 11 12 rings

> <PUBCHEM_HEAVY_ATOM_COUNT>
12

> <PUBCHEM_ATOM_DEF_STEREO_COUNT>
2

> <PUBCHEM_ATOM_UDEF_STEREO_COUNT>
0

> <PUBCHEM_BOND_DEF_STEREO_COUNT>
0

> <PUBCHEM_BOND_UDEF_STEREO_COUNT>
0

> <PUBCHEM_ISOTOPIC_ATOM_COUNT>
0

> <PUBCHEM_COMPONENT_COUNT>
1

> <PUBCHEM_CACTVS_TAUTO_COUNT>
1

> <PUBCHEM_CONFORMER_ID>
016A02DB00000001

> <PUBCHEM_MMFF94_ENERGY>
18.9392

> <PUBCHEM_FEATURE_SELFOVERLAP>
40.678

> <PUBCHEM_SHAPE_FINGERPRINT>
10702982 57 17622448658882816961
13024252 1 17985254420648077758
161256 15 18260827068854529012
16945 1 18194394490035451744
20201158 50 18270688571152933578
21040471 1 17326337623528668672
21501502 16 18409162250950250840
23552423 10 18342735256242688548
241688 4 18338237188359440624
2748010 2 18261680384477694612
29004967 10 18267584606835682136
5084963 1 17846218899094016070

> <PUBCHEM_SHAPE_MULTIPOLES>
216.2
3.14
1.89
1.01
0.03
0.77
-0.05
-1.26
0.16
0.42
0.11
-0.44
-0.09
0.37

> <PUBCHEM_SHAPE_SELFOVERLAP>
453.534

> <PUBCHEM_SHAPE_VOLUME>
121.7

> <PUBCHEM_COORDINATE_TYPE>
2
5
10

$$$$

