47205229
  -OEChem-06241222582D

 32 34  0     0  0  0  0  0  0999 V2000
    4.9483    0.4468    0.0000 O   0  0  0  0  0  0  0  0  0  0  0  0
    3.5471    1.4648    0.0000 N   0  0  0  0  0  0  0  0  0  0  0  0
    2.8660   -1.7966    0.0000 N   0  0  0  0  0  0  0  0  0  0  0  0
    2.7500    3.3953    0.0000 N   0  0  0  0  0  0  0  0  0  0  0  0
    3.6750   -1.2088    0.0000 N   0  0  0  0  0  0  0  0  0  0  0  0
    2.0570   -1.2088    0.0000 N   0  0  0  0  0  0  0  0  0  0  0  0
    2.6454    4.3898    0.0000 N   0  0  0  0  0  0  0  0  0  0  0  0
    4.1349    2.2738    0.0000 C   0  0  0  0  0  0  0  0  0  0  0  0
    3.7281    3.1874    0.0000 C   0  0  0  0  0  0  0  0  0  0  0  0
    3.3660   -0.2577    0.0000 C   0  0  0  0  0  0  0  0  0  0  0  0
    2.8660   -2.7966    0.0000 C   0  0  0  0  0  0  0  0  0  0  0  0
    3.9538    0.5513    0.0000 C   0  0  0  0  0  0  0  0  0  0  0  0
    4.2281    4.0534    0.0000 C   0  0  0  0  0  0  0  0  0  0  0  0
    2.3660   -0.2577    0.0000 C   0  0  0  0  0  0  0  0  0  0  0  0
    2.0000   -3.2966    0.0000 C   0  0  0  0  0  0  0  0  0  0  0  0
    3.7320   -3.2966    0.0000 C   0  0  0  0  0  0  0  0  0  0  0  0
    3.5590    4.7966    0.0000 C   0  0  0  0  0  0  0  0  0  0  0  0
    2.0000   -4.2966    0.0000 C   0  0  0  0  0  0  0  0  0  0  0  0
    3.7320   -4.2966    0.0000 C   0  0  0  0  0  0  0  0  0  0  0  0
    2.8660   -4.7966    0.0000 C   0  0  0  0  0  0  0  0  0  0  0  0
    4.5656    1.8279    0.0000 H   0  0  0  0  0  0  0  0  0  0  0  0
    4.6489    2.6206    0.0000 H   0  0  0  0  0  0  0  0  0  0  0  0
    2.9305    1.5296    0.0000 H   0  0  0  0  0  0  0  0  0  0  0  0
    4.8447    4.1182    0.0000 H   0  0  0  0  0  0  0  0  0  0  0  0
    2.2892    2.9804    0.0000 H   0  0  0  0  0  0  0  0  0  0  0  0
    2.0016    0.2439    0.0000 H   0  0  0  0  0  0  0  0  0  0  0  0
    1.4631   -2.9866    0.0000 H   0  0  0  0  0  0  0  0  0  0  0  0
    4.2690   -2.9866    0.0000 H   0  0  0  0  0  0  0  0  0  0  0  0
    3.6879    5.4030    0.0000 H   0  0  0  0  0  0  0  0  0  0  0  0
    1.4631   -4.6066    0.0000 H   0  0  0  0  0  0  0  0  0  0  0  0
    4.2690   -4.6066    0.0000 H   0  0  0  0  0  0  0  0  0  0  0  0
    2.8660   -5.4166    0.0000 H   0  0  0  0  0  0  0  0  0  0  0  0
  1 12  2  0  0  0  0
  2  8  1  0  0  0  0
  2 12  1  0  0  0  0
  2 23  1  0  0  0  0
  3  5  1  0  0  0  0
  3  6  1  0  0  0  0
  3 11  1  0  0  0  0
  4  7  1  0  0  0  0
  4  9  1  0  0  0  0
  4 25  1  0  0  0  0
  5 10  2  0  0  0  0
  6 14  2  0  0  0  0
  7 17  2  0  0  0  0
  8  9  1  0  0  0  0
  8 21  1  0  0  0  0
  8 22  1  0  0  0  0
  9 13  2  0  0  0  0
 10 12  1  0  0  0  0
 10 14  1  0  0  0  0
 11 15  2  0  0  0  0
 11 16  1  0  0  0  0
 13 17  1  0  0  0  0
 13 24  1  0  0  0  0
 14 26  1  0  0  0  0
 15 18  1  0  0  0  0
 15 27  1  0  0  0  0
 16 19  2  0  0  0  0
 16 28  1  0  0  0  0
 17 29  1  0  0  0  0
 18 20  2  0  0  0  0
 18 30  1  0  0  0  0
 19 20  1  0  0  0  0
 19 31  1  0  0  0  0
 20 32  1  0  0  0  0
M  END
> <PUBCHEM_COMPOUND_CID>
47205229

> <PUBCHEM_COMPOUND_CANONICALIZED>
1

> <PUBCHEM_CACTVS_COMPLEXITY>
333

> <PUBCHEM_CACTVS_HBOND_ACCEPTOR>
4

> <PUBCHEM_CACTVS_HBOND_DONOR>
2

> <PUBCHEM_CACTVS_ROTATABLE_BOND>
4

> <PUBCHEM_CACTVS_SUBSKEYS>
AAADccBzoAAAAAAAAAAAAAAAAAAAAWLAAAAwAAAAAAAAAAAB8AAAHgAYAAAACAjBlgQ8wJLjAACqATV3UACSBAQmkgAYuaG4dNgIYKqA0dGUpIhgngCIyMcQAAAAAAAAAAAAAAAAAAAAAAAAAAAAAAAAAA==

> <PUBCHEM_IUPAC_OPENEYE_NAME>
2-phenyl-N-(1H-pyrazol-5-ylmethyl)triazole-4-carboxamide

> <PUBCHEM_IUPAC_CAS_NAME>
2-phenyl-N-(1H-pyrazol-5-ylmethyl)-4-triazolecarboxamide

> <PUBCHEM_IUPAC_NAME>
2-phenyl-N-(1H-pyrazol-5-ylmethyl)triazole-4-carboxamide

> <PUBCHEM_IUPAC_SYSTEMATIC_NAME>
2-phenyl-N-(1H-pyrazol-5-ylmethyl)-1,2,3-triazole-4-carboxamide

> <PUBCHEM_IUPAC_TRADITIONAL_NAME>
2-phenyl-N-(1H-pyrazol-5-ylmethyl)triazole-4-carboxamide

> <PUBCHEM_IUPAC_INCHI>
InChI=1S/C13H12N6O/c20-13(14-8-10-6-7-15-17-10)12-9-16-19(18-12)11-4-2-1-3-5-11/h1-7,9H,8H2,(H,14,20)(H,15,17)

> <PUBCHEM_IUPAC_INCHIKEY>
HPGIASBVRFIDER-UHFFFAOYSA-N

> <PUBCHEM_XLOGP3_AA>
1.3

> <PUBCHEM_EXACT_MASS>
268.107259

> <PUBCHEM_MOLECULAR_FORMULA>
C13H12N6O

> <PUBCHEM_MOLECULAR_WEIGHT>
268.27398

> <PUBCHEM_OPENEYE_CAN_SMILES>
C1=CC=C(C=C1)N2N=CC(=N2)C(=O)NCC3=CC=NN3

> <PUBCHEM_OPENEYE_ISO_SMILES>
C1=CC=C(C=C1)N2N=CC(=N2)C(=O)NCC3=CC=NN3

> <PUBCHEM_CACTVS_TPSA>
88.5

> <PUBCHEM_MONOISOTOPIC_WEIGHT>
268.107259

> <PUBCHEM_TOTAL_CHARGE>
0

> <PUBCHEM_HEAVY_ATOM_COUNT>
20

> <PUBCHEM_ATOM_DEF_STEREO_COUNT>
0

> <PUBCHEM_ATOM_UDEF_STEREO_COUNT>
0

> <PUBCHEM_BOND_DEF_STEREO_COUNT>
0

> <PUBCHEM_BOND_UDEF_STEREO_COUNT>
0

> <PUBCHEM_ISOTOPIC_ATOM_COUNT>
0

> <PUBCHEM_COMPONENT_COUNT>
1

> <PUBCHEM_CACTVS_TAUTO_COUNT>
4

> <PUBCHEM_COORDINATE_TYPE>
1
5
255

> <PUBCHEM_BONDANNOTATIONS>
10  14  8
11  15  8
11  16  8
13  17  8
15  18  8
16  19  8
18  20  8
19  20  8
3  5  8
3  6  8
4  7  8
4  9  8
5  10  8
6  14  8
7  17  8
9  13  8

$$$$

