12211
  -OEChem-06261206403D

 16 15  0     1  0  0  0  0  0999 V2000
   -1.6155   -0.7475    1.3066 O   0  0  0  0  0  0  0  0  0  0  0  0
    0.7793    0.2436    0.2440 O   0  0  0  0  0  0  0  0  0  0  0  0
   -3.3726    0.7477   -0.2747 O   0  0  0  0  0  0  0  0  0  0  0  0
    2.5042   -0.7378   -0.7335 O   0  5  0  0  0  0  0  0  0  0  0  0
    2.8841    1.0498    0.5439 O   0  0  0  0  0  0  0  0  0  0  0  0
    2.1799    0.1924    0.0056 N   0  3  0  0  0  0  0  0  0  0  0  0
   -1.4330   -0.6540   -0.1081 C   0  0  2  0  0  0  0  0  0  0  0  0
    0.0535   -0.7863   -0.4192 C   0  0  0  0  0  0  0  0  0  0  0  0
   -1.9799    0.6922   -0.5646 C   0  0  0  0  0  0  0  0  0  0  0  0
   -1.9914   -1.4772   -0.5670 H   0  0  0  0  0  0  0  0  0  0  0  0
    0.1988   -0.7245   -1.5050 H   0  0  0  0  0  0  0  0  0  0  0  0
    0.3943   -1.7619   -0.0495 H   0  0  0  0  0  0  0  0  0  0  0  0
   -1.8402    0.8445   -1.6393 H   0  0  0  0  0  0  0  0  0  0  0  0
   -1.5120    1.5218   -0.0255 H   0  0  0  0  0  0  0  0  0  0  0  0
   -2.5673   -0.6544    1.4837 H   0  0  0  0  0  0  0  0  0  0  0  0
   -3.8038    0.0317   -0.7718 H   0  0  0  0  0  0  0  0  0  0  0  0
  1  7  1  0  0  0  0
  1 15  1  0  0  0  0
  2  6  1  0  0  0  0
  2  8  1  0  0  0  0
  3  9  1  0  0  0  0
  3 16  1  0  0  0  0
  4  6  1  0  0  0  0
  5  6  2  0  0  0  0
  7  8  1  0  0  0  0
  7  9  1  0  0  0  0
  7 10  1  0  0  0  0
  8 11  1  0  0  0  0
  8 12  1  0  0  0  0
  9 13  1  0  0  0  0
  9 14  1  0  0  0  0
M  CHG  2   4  -1   6   1
M  END
> <PUBCHEM_COMPOUND_CID>
12211

> <PUBCHEM_CONFORMER_RMSD>
0.6

> <PUBCHEM_CONFORMER_DIVERSEORDER>
1
36
29
9
4
17
30
2
35
25
8
37
32
31
26
18
7
23
6
12
14
20
33
5
28
16
21
27
13
15
22
34
3
11
24
10
19

> <PUBCHEM_MMFF94_PARTIAL_CHARGES>
11
1 -0.68
15 0.4
16 0.4
2 -0.27
3 -0.68
4 -0.52
5 -0.52
6 1.03
7 0.28
8 0.28
9 0.28

> <PUBCHEM_EFFECTIVE_ROTOR_COUNT>
4

> <PUBCHEM_PHARMACOPHORE_FEATURES>
6
1 1 acceptor
1 1 donor
1 3 acceptor
1 3 donor
1 4 acceptor
1 5 acceptor

> <PUBCHEM_HEAVY_ATOM_COUNT>
9

> <PUBCHEM_ATOM_DEF_STEREO_COUNT>
0

> <PUBCHEM_ATOM_UDEF_STEREO_COUNT>
1

> <PUBCHEM_BOND_DEF_STEREO_COUNT>
0

> <PUBCHEM_BOND_UDEF_STEREO_COUNT>
0

> <PUBCHEM_ISOTOPIC_ATOM_COUNT>
0

> <PUBCHEM_COMPONENT_COUNT>
1

> <PUBCHEM_CACTVS_TAUTO_COUNT>
1

> <PUBCHEM_CONFORMER_ID>
00002FB300000001

> <PUBCHEM_MMFF94_ENERGY>
18.8163

> <PUBCHEM_FEATURE_SELFOVERLAP>
30.524

> <PUBCHEM_SHAPE_FINGERPRINT>
12897270 3 13912327867112025413
12932741 1 18410564085415572158
12932764 1 18336818719628147990
14325111 11 18261115170807294695
14390081 3 18410860970734869381
20645464 45 18272374156874787402
20651381 32 18114178665991011078
20653085 51 18041274482480896169
29004967 10 18339917130668275674
3248919 1 17418376857126456654

> <PUBCHEM_SHAPE_MULTIPOLES>
150.89
4.68
1.03
0.87
0.67
0.02
0.16
1.45
-0.14
0
0.01
-0.16
-0.13
0.6

> <PUBCHEM_SHAPE_SELFOVERLAP>
278.333

> <PUBCHEM_SHAPE_VOLUME>
95.6

> <PUBCHEM_COORDINATE_TYPE>
2
5
10

$$$$

