66426
  -OEChem-07051213063D

 44 47  0     1  0  0  0  0  0999 V2000
    4.9143    1.4091    0.2112 O   0  0  0  0  0  0  0  0  0  0  0  0
   -4.9256    2.0687   -0.0493 O   0  0  0  0  0  0  0  0  0  0  0  0
    2.5658    0.6611    0.1334 C   0  0  1  0  0  0  0  0  0  0  0  0
    1.9753   -0.6631   -0.3912 C   0  0  2  0  0  0  0  0  0  0  0  0
    0.5258   -0.8636    0.0505 C   0  0  1  0  0  0  0  0  0  0  0  0
   -0.3385    0.2946   -0.5343 C   0  0  2  0  0  0  0  0  0  0  0  0
    4.0007    0.5267   -0.4111 C   0  0  2  0  0  0  0  0  0  0  0  0
    1.7540    1.8160   -0.4659 C   0  0  0  0  0  0  0  0  0  0  0  0
    3.0258   -1.6993   -0.0019 C   0  0  0  0  0  0  0  0  0  0  0  0
    0.2505    1.6807   -0.1573 C   0  0  0  0  0  0  0  0  0  0  0  0
    4.3620   -0.9486   -0.1492 C   0  0  0  0  0  0  0  0  0  0  0  0
   -0.0518   -2.2004   -0.4180 C   0  0  0  0  0  0  0  0  0  0  0  0
    2.5861    0.7973    1.6775 C   0  0  0  0  0  0  0  0  0  0  0  0
   -1.8155    0.1063   -0.1989 C   0  0  0  0  0  0  0  0  0  0  0  0
   -1.4436   -2.3989    0.1746 C   0  0  0  0  0  0  0  0  0  0  0  0
   -2.3268   -1.1778    0.0915 C   0  0  0  0  0  0  0  0  0  0  0  0
   -2.7180    1.1830   -0.2575 C   0  0  0  0  0  0  0  0  0  0  0  0
   -3.6963   -1.3411    0.3650 C   0  0  0  0  0  0  0  0  0  0  0  0
   -4.0776    1.0051    0.0073 C   0  0  0  0  0  0  0  0  0  0  0  0
   -4.5665   -0.2558    0.3234 C   0  0  0  0  0  0  0  0  0  0  0  0
    1.9719   -0.6336   -1.4939 H   0  0  0  0  0  0  0  0  0  0  0  0
    0.4707   -0.8470    1.1466 H   0  0  0  0  0  0  0  0  0  0  0  0
   -0.2862    0.2262   -1.6321 H   0  0  0  0  0  0  0  0  0  0  0  0
    4.0234    0.7233   -1.4905 H   0  0  0  0  0  0  0  0  0  0  0  0
    1.8818    1.8362   -1.5562 H   0  0  0  0  0  0  0  0  0  0  0  0
    2.1208    2.7810   -0.0960 H   0  0  0  0  0  0  0  0  0  0  0  0
    2.9924   -2.5810   -0.6499 H   0  0  0  0  0  0  0  0  0  0  0  0
    2.8907   -2.0410    1.0303 H   0  0  0  0  0  0  0  0  0  0  0  0
    0.0662    1.8857    0.9042 H   0  0  0  0  0  0  0  0  0  0  0  0
   -0.2614    2.4742   -0.7138 H   0  0  0  0  0  0  0  0  0  0  0  0
    4.9774   -1.0695    0.7494 H   0  0  0  0  0  0  0  0  0  0  0  0
    4.9427   -1.3472   -0.9886 H   0  0  0  0  0  0  0  0  0  0  0  0
    0.5851   -3.0378   -0.1119 H   0  0  0  0  0  0  0  0  0  0  0  0
   -0.1053   -2.2239   -1.5141 H   0  0  0  0  0  0  0  0  0  0  0  0
    3.0216    1.7589    1.9738 H   0  0  0  0  0  0  0  0  0  0  0  0
    1.5871    0.7553    2.1192 H   0  0  0  0  0  0  0  0  0  0  0  0
    3.1801    0.0143    2.1590 H   0  0  0  0  0  0  0  0  0  0  0  0
   -1.3453   -2.6707    1.2335 H   0  0  0  0  0  0  0  0  0  0  0  0
   -1.9250   -3.2410   -0.3373 H   0  0  0  0  0  0  0  0  0  0  0  0
    5.8010    1.1972   -0.1268 H   0  0  0  0  0  0  0  0  0  0  0  0
   -2.3705    2.1780   -0.5204 H   0  0  0  0  0  0  0  0  0  0  0  0
   -4.0905   -2.3245    0.6108 H   0  0  0  0  0  0  0  0  0  0  0  0
   -5.6222   -0.4020    0.5332 H   0  0  0  0  0  0  0  0  0  0  0  0
   -4.4190    2.8659   -0.2817 H   0  0  0  0  0  0  0  0  0  0  0  0
  1  7  1  0  0  0  0
  1 40  1  0  0  0  0
  2 19  1  0  0  0  0
  2 44  1  0  0  0  0
  3  4  1  0  0  0  0
  3  7  1  0  0  0  0
  3  8  1  0  0  0  0
  3 13  1  0  0  0  0
  4  5  1  0  0  0  0
  4  9  1  0  0  0  0
  4 21  1  0  0  0  0
  5  6  1  0  0  0  0
  5 12  1  0  0  0  0
  5 22  1  0  0  0  0
  6 10  1  0  0  0  0
  6 14  1  0  0  0  0
  6 23  1  0  0  0  0
  7 11  1  0  0  0  0
  7 24  1  0  0  0  0
  8 10  1  0  0  0  0
  8 25  1  0  0  0  0
  8 26  1  0  0  0  0
  9 11  1  0  0  0  0
  9 27  1  0  0  0  0
  9 28  1  0  0  0  0
 10 29  1  0  0  0  0
 10 30  1  0  0  0  0
 11 31  1  0  0  0  0
 11 32  1  0  0  0  0
 12 15  1  0  0  0  0
 12 33  1  0  0  0  0
 12 34  1  0  0  0  0
 13 35  1  0  0  0  0
 13 36  1  0  0  0  0
 13 37  1  0  0  0  0
 14 16  2  0  0  0  0
 14 17  1  0  0  0  0
 15 16  1  0  0  0  0
 15 38  1  0  0  0  0
 15 39  1  0  0  0  0
 16 18  1  0  0  0  0
 17 19  2  0  0  0  0
 17 41  1  0  0  0  0
 18 20  2  0  0  0  0
 18 42  1  0  0  0  0
 19 20  1  0  0  0  0
 20 43  1  0  0  0  0
M  END
> <PUBCHEM_COMPOUND_CID>
66426

> <PUBCHEM_CONFORMER_RMSD>
0.6

> <PUBCHEM_CONFORMER_DIVERSEORDER>
1

> <PUBCHEM_MMFF94_PARTIAL_CHARGES>
16
1 -0.68
14 -0.14
15 0.14
16 -0.14
17 -0.15
18 -0.15
19 0.08
2 -0.53
20 -0.15
40 0.4
41 0.15
42 0.15
43 0.15
44 0.45
6 0.14
7 0.28

> <PUBCHEM_EFFECTIVE_ROTOR_COUNT>
1.4

> <PUBCHEM_PHARMACOPHORE_FEATURES>
7
1 1 acceptor
1 1 donor
1 2 donor
5 3 4 7 9 11 rings
6 14 16 17 18 19 20 rings
6 3 4 5 6 8 10 rings
6 5 6 12 14 15 16 rings

> <PUBCHEM_HEAVY_ATOM_COUNT>
20

> <PUBCHEM_ATOM_DEF_STEREO_COUNT>
5

> <PUBCHEM_ATOM_UDEF_STEREO_COUNT>
0

> <PUBCHEM_BOND_DEF_STEREO_COUNT>
0

> <PUBCHEM_BOND_UDEF_STEREO_COUNT>
0

> <PUBCHEM_ISOTOPIC_ATOM_COUNT>
0

> <PUBCHEM_COMPONENT_COUNT>
1

> <PUBCHEM_CACTVS_TAUTO_COUNT>
9

> <PUBCHEM_CONFORMER_ID>
0001037A00000001

> <PUBCHEM_MMFF94_ENERGY>
68.4784

> <PUBCHEM_FEATURE_SELFOVERLAP>
35.618

> <PUBCHEM_SHAPE_FINGERPRINT>
10411042 1 17618500982912345163
10608611 8 18409168770657572761
10616163 171 18267299833324510294
10646746 165 18410009948777097271
10967382 1 18339360876263102110
11132069 177 18413392033717211157
11578080 2 16953104106354697602
12011746 2 18409727399953080942
12236239 1 17704070681918108780
12251169 10 18341894043673878463
12403259 226 18263648355894007193
12403259 415 18187647977235341537
12403814 3 17489594441434058269
12500047 106 18334580100915885994
12507560 40 18409166593135572931
12788726 201 17749944574497843512
128620 24 10159695798177569691
13140716 1 18340492273691400811
13544592 145 18261100903290213822
13675066 3 18334295340268016953
14178342 30 18049178682700282378
14341114 176 18411972572927568881
14790565 3 17980756044313609732
14866123 147 17108177435535263098
15042514 8 18124588692371635211
15196674 1 18411417319186406671
15256400 18 18411134766357579517
15375358 24 18335138687261688438
15442244 35 18411981351550766326
15536298 74 18407758140315585126
1601671 61 18413668011231163892
16945 1 18194407684206861022
17804303 29 18411133628075032693
1813 80 16917065564191653668
18186145 218 18040989640133683483
192875 21 13840263667435567186
19591789 44 18267867357481340374
200 152 18041003929996162711
20510252 161 18335136505502821681
20645477 70 18041276655755609846
21033648 29 18114472188282558817
21267235 1 18340476807514135223
21279426 13 18265047127330410414
21421861 104 17845385495530079138
22892500 29 17313394404896327848
23402539 116 18333739026023276471
23558518 356 17841712902690096112
23559900 14 18336264634787776150
2748010 2 18411139172814722887
296302 2 18334855008818931860
3004659 81 18271799190563539630
335352 9 18339359798242187406
34934 24 18411985737165854742
350125 39 18339073792691988529
3545911 37 18409163298853426373
4214541 1 18411980269429939325
495365 180 17386020463488476570
5104073 3 18412544322873367491
633830 44 17989207035974507887
69090 78 18335986393678995631
77779 3 18411979156716879054
7832392 63 18409733924145702694
9709674 26 18338509755521588935
9981440 41 16975889161358531968

> <PUBCHEM_SHAPE_MULTIPOLES>
399.85
9.3
2.32
0.83
1.69
0.42
0.23
-2.4
0.67
0.57
-0.09
-0.39
-0.11
0.39

> <PUBCHEM_SHAPE_SELFOVERLAP>
871.425

> <PUBCHEM_SHAPE_VOLUME>
216.8

> <PUBCHEM_COORDINATE_TYPE>
2
5
10

$$$$

