582763
  -OEChem-06241222443D

 33 35  0     0  0  0  0  0  0999 V2000
    2.8326    0.6965   -1.5447 O   0  0  0  0  0  0  0  0  0  0  0  0
    3.4934    0.1116    0.6040 N   0  0  0  0  0  0  0  0  0  0  0  0
   -3.1141    1.7601    0.6483 N   0  0  0  0  0  0  0  0  0  0  0  0
    4.9067   -0.0099    0.3316 C   0  0  0  0  0  0  0  0  0  0  0  0
    5.4639   -1.2772   -0.2185 C   0  0  0  0  0  0  0  0  0  0  0  0
    5.7694   -0.8668    1.1922 C   0  0  0  0  0  0  0  0  0  0  0  0
    2.5678    0.4585   -0.3694 C   0  0  0  0  0  0  0  0  0  0  0  0
    1.1589    0.5149    0.1946 C   0  0  0  0  0  0  0  0  0  0  0  0
    0.1003    0.8965   -0.8533 C   0  0  0  0  0  0  0  0  0  0  0  0
   -1.2650    0.9739   -0.2952 C   0  0  0  0  0  0  0  0  0  0  0  0
   -2.2093   -0.0876   -0.2146 C   0  0  0  0  0  0  0  0  0  0  0  0
   -3.3605    0.4323    0.3811 C   0  0  0  0  0  0  0  0  0  0  0  0
   -1.8504    2.0968    0.2431 C   0  0  0  0  0  0  0  0  0  0  0  0
   -2.1951   -1.4449   -0.5925 C   0  0  0  0  0  0  0  0  0  0  0  0
   -4.5028   -0.3405    0.6187 C   0  0  0  0  0  0  0  0  0  0  0  0
   -3.3305   -2.2300   -0.3609 C   0  0  0  0  0  0  0  0  0  0  0  0
   -4.4654   -1.6843    0.2355 C   0  0  0  0  0  0  0  0  0  0  0  0
    5.3424    0.9201   -0.0186 H   0  0  0  0  0  0  0  0  0  0  0  0
    6.2601   -1.2050   -0.9490 H   0  0  0  0  0  0  0  0  0  0  0  0
    4.7973   -2.1184   -0.3640 H   0  0  0  0  0  0  0  0  0  0  0  0
    5.3085   -1.4343    1.9914 H   0  0  0  0  0  0  0  0  0  0  0  0
    6.7720   -0.5198    1.4102 H   0  0  0  0  0  0  0  0  0  0  0  0
    3.1826   -0.0602    1.5566 H   0  0  0  0  0  0  0  0  0  0  0  0
    0.9222   -0.4672    0.6230 H   0  0  0  0  0  0  0  0  0  0  0  0
    1.1496    1.2422    1.0162 H   0  0  0  0  0  0  0  0  0  0  0  0
    0.1285    0.1742   -1.6792 H   0  0  0  0  0  0  0  0  0  0  0  0
    0.3687    1.8630   -1.3005 H   0  0  0  0  0  0  0  0  0  0  0  0
   -1.4826    3.1048    0.3755 H   0  0  0  0  0  0  0  0  0  0  0  0
   -3.7714    2.3941    1.0811 H   0  0  0  0  0  0  0  0  0  0  0  0
   -1.3184   -1.8868   -1.0573 H   0  0  0  0  0  0  0  0  0  0  0  0
   -5.3868    0.0834    1.0830 H   0  0  0  0  0  0  0  0  0  0  0  0
   -3.3251   -3.2776   -0.6499 H   0  0  0  0  0  0  0  0  0  0  0  0
   -5.3362   -2.3123    0.4062 H   0  0  0  0  0  0  0  0  0  0  0  0
  1  7  2  0  0  0  0
  2  4  1  0  0  0  0
  2  7  1  0  0  0  0
  2 23  1  0  0  0  0
  3 12  1  0  0  0  0
  3 13  1  0  0  0  0
  3 29  1  0  0  0  0
  4  5  1  0  0  0  0
  4  6  1  0  0  0  0
  4 18  1  0  0  0  0
  5  6  1  0  0  0  0
  5 19  1  0  0  0  0
  5 20  1  0  0  0  0
  6 21  1  0  0  0  0
  6 22  1  0  0  0  0
  7  8  1  0  0  0  0
  8  9  1  0  0  0  0
  8 24  1  0  0  0  0
  8 25  1  0  0  0  0
  9 10  1  0  0  0  0
  9 26  1  0  0  0  0
  9 27  1  0  0  0  0
 10 11  1  0  0  0  0
 10 13  2  0  0  0  0
 11 12  1  0  0  0  0
 11 14  2  0  0  0  0
 12 15  2  0  0  0  0
 13 28  1  0  0  0  0
 14 16  1  0  0  0  0
 14 30  1  0  0  0  0
 15 17  1  0  0  0  0
 15 31  1  0  0  0  0
 16 17  2  0  0  0  0
 16 32  1  0  0  0  0
 17 33  1  0  0  0  0
M  END
> <PUBCHEM_COMPOUND_CID>
582763

> <PUBCHEM_CONFORMER_RMSD>
0.8

> <PUBCHEM_CONFORMER_DIVERSEORDER>
1
27
9
3
21
26
16
14
7
33
4
13
11
12
25
29
2
6
18
32
8
10
5
31
30
28
20
24
17
23
15
19
22

> <PUBCHEM_MMFF94_PARTIAL_CHARGES>
28
1 -0.57
10 -0.18
12 -0.15
13 -0.3
14 -0.15
15 -0.15
16 -0.15
17 -0.15
18 0.1
19 0.1
2 -0.58
20 0.1
21 0.1
22 0.1
23 0.37
28 0.15
29 0.27
3 0.03
30 0.15
31 0.15
32 0.15
33 0.15
4 0.05
5 -0.2
6 -0.2
7 0.57
8 0.06
9 0.18

> <PUBCHEM_EFFECTIVE_ROTOR_COUNT>
5.6

> <PUBCHEM_PHARMACOPHORE_FEATURES>
6
1 1 acceptor
1 2 donor
1 3 cation
1 3 donor
5 3 10 11 12 13 rings
6 11 12 14 15 16 17 rings

> <PUBCHEM_HEAVY_ATOM_COUNT>
17

> <PUBCHEM_ATOM_DEF_STEREO_COUNT>
0

> <PUBCHEM_ATOM_UDEF_STEREO_COUNT>
0

> <PUBCHEM_BOND_DEF_STEREO_COUNT>
0

> <PUBCHEM_BOND_UDEF_STEREO_COUNT>
0

> <PUBCHEM_ISOTOPIC_ATOM_COUNT>
0

> <PUBCHEM_COMPONENT_COUNT>
1

> <PUBCHEM_CACTVS_TAUTO_COUNT>
2

> <PUBCHEM_CONFORMER_ID>
0008E46B00000001

> <PUBCHEM_MMFF94_ENERGY>
27.3487

> <PUBCHEM_FEATURE_SELFOVERLAP>
30.537

> <PUBCHEM_SHAPE_FINGERPRINT>
10912923 1 18272645758333906444
11046707 91 18343304760005142621
11315181 36 18413672417941319584
12236239 1 18059853960946910893
12596602 18 18336554889104739616
12633257 1 17096078078860035435
12916754 54 18059857242270465244
13167823 11 18413390947438703466
13288520 33 18342458153437248628
13551218 46 18409447020156737262
13583140 156 17822870761378408252
13675066 3 17676492769924962780
13862211 1 18263362504609840255
14178342 30 18263071261917162420
1420 369 18343302548434770650
14251752 14 17703801335860412061
14341114 176 18186801375047044736
14420673 8 18119242020570575550
15183329 4 9727365662427565008
15188451 53 18339092526917522466
15209289 33 18343302565429913498
17780758 139 18336273435159850624
17834072 33 18272366456700195196
17844677 252 18333726932113204904
17857418 61 18272093798964295482
17862501 102 18343865515546663368
17870717 6 12967129444935488001
17977361 122 18341614789375010527
1813 80 17632569487860828822
18186145 218 13902190356987705517
18222031 100 17489874843265134396
18927931 339 18333166163438446847
193927 3 18202272594181188394
19784866 240 17632293450154582143
200 152 17203892959053333556
20645477 70 16056878014363876848
20681677 274 18189621540150791553
20871999 31 11167940255713768973
21650355 55 18334011679686222329
21673915 165 18411703205648853546
22646028 1 18131071532786373948
22646028 28 18201719535516064830
2297311 6 18187353342584454220
23402539 116 18343869917555812949
23402655 69 8935002577362680192
23559900 14 18336838497720658624
23590187 198 18342739641478332746
23596394 208 13614250316957671848
2838139 119 4965677533019363203
312423 11 18200582619065983748
351380 3 17989209252578520650
42 15 18409167723176110980
4214541 1 18408886269463500160
4259306 186 16343428396883105618
49783359 22 18333454235474413206
5104073 3 18262230024069152905
559249 180 18201443622622209763
573450 72 18412263956251588376
5924683 9 17458638761075105159
7970288 3 18196372507618913515

> <PUBCHEM_SHAPE_MULTIPOLES>
334.02
12.6
1.95
0.97
16.26
0.23
0.09
6.05
-3.17
-2.14
0.03
0.59
-0.04
-0.74

> <PUBCHEM_SHAPE_SELFOVERLAP>
713.389

> <PUBCHEM_SHAPE_VOLUME>
186.6

> <PUBCHEM_COORDINATE_TYPE>
2
5
10

$$$$

