25150859
  -OEChem-07051213023D

 62 64  0     1  0  0  0  0  0999 V2000
    2.4255   -1.6550    1.4902 P   0  0  1  0  0  0  0  0  0  0  0  0
    0.2088   -3.5122    0.9478 P   0  0  2  0  0  0  0  0  0  0  0  0
   -3.3476   -1.4357   -0.3348 O   0  0  0  0  0  0  0  0  0  0  0  0
    1.4984    0.7940   -1.0131 O   0  0  0  0  0  0  0  0  0  0  0  0
    2.6952   -0.2483    0.7459 O   0  0  0  0  0  0  0  0  0  0  0  0
   -4.0561   -1.7669   -3.2946 O   0  0  0  0  0  0  0  0  0  0  0  0
    3.4461    3.9031   -0.6812 O   0  0  0  0  0  0  0  0  0  0  0  0
    4.8236   -0.7188   -0.9683 O   0  0  0  0  0  0  0  0  0  0  0  0
   -1.2256   -3.1606    0.2876 O   0  0  0  0  0  0  0  0  0  0  0  0
    0.9233   -2.0664    1.0569 O   0  0  0  0  0  0  0  0  0  0  0  0
    3.3460   -2.7206    0.6938 O   0  0  0  0  0  0  0  0  0  0  0  0
   -4.7727    2.4410   -0.4213 O   0  0  0  0  0  0  0  0  0  0  0  0
    1.0231   -4.2307   -0.2512 O   0  0  0  0  0  0  0  0  0  0  0  0
    2.6524   -1.6278    2.9740 O   0  0  0  0  0  0  0  0  0  0  0  0
    0.1621   -4.2843    2.2338 O   0  0  0  0  0  0  0  0  0  0  0  0
   -1.7493    3.4754    2.8860 O   0  0  0  0  0  0  0  0  0  0  0  0
   -3.1490    0.8518    0.1159 N   0  0  0  0  0  0  0  0  0  0  0  0
    5.4363    2.0708   -1.7278 N   0  0  0  0  0  0  0  0  0  0  0  0
   -3.2579    2.9443    1.2256 N   0  0  0  0  0  0  0  0  0  0  0  0
    4.2552    1.6529   -0.9634 C   0  0  1  0  0  0  0  0  0  0  0  0
   -2.8286   -1.4370   -2.6482 C   0  0  2  0  0  0  0  0  0  0  0  0
   -2.6985   -2.2237   -1.3514 C   0  0  1  0  0  0  0  0  0  0  0  0
    3.1003    2.6329   -1.2282 C   0  0  1  0  0  0  0  0  0  0  0  0
   -2.8717   -0.0024   -2.1753 C   0  0  0  0  0  0  0  0  0  0  0  0
   -3.5940   -0.1168   -0.8429 C   0  0  1  0  0  0  0  0  0  0  0  0
    3.8310    0.2288   -1.3462 C   0  0  2  0  0  0  0  0  0  0  0  0
    1.7948    2.1300   -0.5915 C   0  0  1  0  0  0  0  0  0  0  0  0
    2.5135   -0.1481   -0.6655 C   0  0  2  0  0  0  0  0  0  0  0  0
   -1.2503   -2.4330   -0.9279 C   0  0  0  0  0  0  0  0  0  0  0  0
    0.5976    2.9942   -0.9789 C   0  0  0  0  0  0  0  0  0  0  0  0
   -2.0562    0.5395    0.9145 C   0  0  0  0  0  0  0  0  0  0  0  0
   -3.7989    2.0972    0.2521 C   0  0  0  0  0  0  0  0  0  0  0  0
   -1.5411    1.3524    1.8452 C   0  0  0  0  0  0  0  0  0  0  0  0
   -2.1725    2.6834    2.0482 C   0  0  0  0  0  0  0  0  0  0  0  0
   -0.3633    0.9964    2.6944 C   0  0  0  0  0  0  0  0  0  0  0  0
    4.5418    1.6831    0.0959 H   0  0  0  0  0  0  0  0  0  0  0  0
   -2.0199   -1.6237   -3.3609 H   0  0  0  0  0  0  0  0  0  0  0  0
   -3.2208   -3.1860   -1.3897 H   0  0  0  0  0  0  0  0  0  0  0  0
    2.9589    2.7535   -2.3099 H   0  0  0  0  0  0  0  0  0  0  0  0
   -1.8504    0.3741   -2.0399 H   0  0  0  0  0  0  0  0  0  0  0  0
   -3.3937    0.6750   -2.8585 H   0  0  0  0  0  0  0  0  0  0  0  0
   -4.6763   -0.0215   -0.9909 H   0  0  0  0  0  0  0  0  0  0  0  0
    3.7012    0.1744   -2.4352 H   0  0  0  0  0  0  0  0  0  0  0  0
    1.8729    2.1534    0.5026 H   0  0  0  0  0  0  0  0  0  0  0  0
    2.1851   -1.1190   -1.0521 H   0  0  0  0  0  0  0  0  0  0  0  0
   -0.7118   -1.4898   -0.8105 H   0  0  0  0  0  0  0  0  0  0  0  0
   -0.7412   -3.0165   -1.7014 H   0  0  0  0  0  0  0  0  0  0  0  0
    0.4658    3.0105   -2.0665 H   0  0  0  0  0  0  0  0  0  0  0  0
    0.7146    4.0229   -0.6257 H   0  0  0  0  0  0  0  0  0  0  0  0
   -0.3267    2.5857   -0.5624 H   0  0  0  0  0  0  0  0  0  0  0  0
    6.2127    1.4429   -1.5237 H   0  0  0  0  0  0  0  0  0  0  0  0
    5.7267    2.9997   -1.4250 H   0  0  0  0  0  0  0  0  0  0  0  0
   -4.0110   -2.7066   -3.5409 H   0  0  0  0  0  0  0  0  0  0  0  0
    3.5512    3.7974    0.2797 H   0  0  0  0  0  0  0  0  0  0  0  0
    4.5076   -1.5986   -1.2358 H   0  0  0  0  0  0  0  0  0  0  0  0
   -1.5956   -0.4256    0.7787 H   0  0  0  0  0  0  0  0  0  0  0  0
   -3.7100    3.8470    1.3415 H   0  0  0  0  0  0  0  0  0  0  0  0
   -0.6265    1.0546    3.7556 H   0  0  0  0  0  0  0  0  0  0  0  0
    0.4677    1.6828    2.5055 H   0  0  0  0  0  0  0  0  0  0  0  0
   -0.0113   -0.0201    2.5009 H   0  0  0  0  0  0  0  0  0  0  0  0
    3.4436   -3.6269    1.0561 H   0  0  0  0  0  0  0  0  0  0  0  0
    1.2027   -3.7382   -1.0798 H   0  0  0  0  0  0  0  0  0  0  0  0
  1  5  1  0  0  0  0
  1 10  1  0  0  0  0
  1 11  1  0  0  0  0
  1 14  2  0  0  0  0
  2  9  1  0  0  0  0
  2 10  1  0  0  0  0
  2 13  1  0  0  0  0
  2 15  2  0  0  0  0
  3 22  1  0  0  0  0
  3 25  1  0  0  0  0
  4 27  1  0  0  0  0
  4 28  1  0  0  0  0
  5 28  1  0  0  0  0
  6 21  1  0  0  0  0
  6 53  1  0  0  0  0
  7 23  1  0  0  0  0
  7 54  1  0  0  0  0
  8 26  1  0  0  0  0
  8 55  1  0  0  0  0
  9 29  1  0  0  0  0
 11 61  1  0  0  0  0
 12 32  2  0  0  0  0
 13 62  1  0  0  0  0
 16 34  2  0  0  0  0
 17 25  1  0  0  0  0
 17 31  1  0  0  0  0
 17 32  1  0  0  0  0
 18 20  1  0  0  0  0
 18 51  1  0  0  0  0
 18 52  1  0  0  0  0
 19 32  1  0  0  0  0
 19 34  1  0  0  0  0
 19 57  1  0  0  0  0
 20 23  1  0  0  0  0
 20 26  1  0  0  0  0
 20 36  1  0  0  0  0
 21 22  1  0  0  0  0
 21 24  1  0  0  0  0
 21 37  1  0  0  0  0
 22 29  1  0  0  0  0
 22 38  1  0  0  0  0
 23 27  1  0  0  0  0
 23 39  1  0  0  0  0
 24 25  1  0  0  0  0
 24 40  1  0  0  0  0
 24 41  1  0  0  0  0
 25 42  1  0  0  0  0
 26 28  1  0  0  0  0
 26 43  1  0  0  0  0
 27 30  1  0  0  0  0
 27 44  1  0  0  0  0
 28 45  1  0  0  0  0
 29 46  1  0  0  0  0
 29 47  1  0  0  0  0
 30 48  1  0  0  0  0
 30 49  1  0  0  0  0
 30 50  1  0  0  0  0
 31 33  2  0  0  0  0
 31 56  1  0  0  0  0
 33 34  1  0  0  0  0
 33 35  1  0  0  0  0
 35 58  1  0  0  0  0
 35 59  1  0  0  0  0
 35 60  1  0  0  0  0
M  END
> <PUBCHEM_COMPOUND_CID>
25150859

> <PUBCHEM_CONFORMER_RMSD>
1.4

> <PUBCHEM_CONFORMER_DIVERSEORDER>
2
12
11
122
110
130
28
52
4
31
32
99
76
75
92
44
112
87
71
135
77
119
43
1
115
133
50
103
91
48
53
70
74
22
46
100
78
124
94
64
25
114
126
98
41
58
73
63
51
54
123
120
140
20
30
23
141
113
10
111
26
116
132
83
102
69
3
118
106
95
101
89
97
81
80
29
128
125
55
66
5
138
27
105
61
65
121
86
42
84
134
88
45
47
139
131
67
24
62
40
79
15
107
72
127
38
117
96
19
49
6
39
36
34
57
16
136
17
33
60
85
14
137
82
13
59
68
93
37
104
18
90
129
35
21
108
56
109
7
9
8

> <PUBCHEM_MMFF94_PARTIAL_CHARGES>
42
1 1.51
10 -0.54
11 -0.77
12 -0.57
13 -0.77
14 -0.7
15 -0.7
16 -0.57
17 -0.47
18 -0.99
19 -0.49
2 1.51
20 0.27
21 0.28
22 0.28
23 0.28
25 0.58
26 0.28
27 0.28
28 0.56
29 0.28
3 -0.56
31 -0.04
32 0.69
33 -0.12
34 0.62
35 0.14
4 -0.56
5 -0.55
51 0.36
52 0.36
53 0.4
54 0.4
55 0.4
56 0.15
57 0.37
6 -0.68
61 0.5
62 0.5
7 -0.68
8 -0.68
9 -0.55

> <PUBCHEM_EFFECTIVE_ROTOR_COUNT>
10.2

> <PUBCHEM_PHARMACOPHORE_FEATURES>
20
1 11 acceptor
1 12 acceptor
1 13 acceptor
1 14 acceptor
1 15 acceptor
1 16 acceptor
1 18 cation
1 18 donor
1 19 donor
1 3 acceptor
1 4 acceptor
1 6 acceptor
1 6 donor
1 7 acceptor
1 7 donor
1 8 acceptor
1 8 donor
5 3 21 22 24 25 rings
6 17 19 31 32 33 34 rings
6 4 20 23 26 27 28 rings

> <PUBCHEM_HEAVY_ATOM_COUNT>
35

> <PUBCHEM_ATOM_DEF_STEREO_COUNT>
8

> <PUBCHEM_ATOM_UDEF_STEREO_COUNT>
0

> <PUBCHEM_BOND_DEF_STEREO_COUNT>
0

> <PUBCHEM_BOND_UDEF_STEREO_COUNT>
0

> <PUBCHEM_ISOTOPIC_ATOM_COUNT>
0

> <PUBCHEM_COMPONENT_COUNT>
1

> <PUBCHEM_CACTVS_TAUTO_COUNT>
3

> <PUBCHEM_CONFORMER_ID>
017FC58B00000002

> <PUBCHEM_MMFF94_ENERGY>
37.2015

> <PUBCHEM_FEATURE_SELFOVERLAP>
101.517

> <PUBCHEM_SHAPE_FINGERPRINT>
10032420 55 17900279510757766241
11513181 2 16520772088928735303
12166972 35 17982491249159826139
12788726 201 18114175316180511049
14114206 34 18260839146334311885
14117953 113 17762343908599367405
14279260 333 18335688431108345820
14289585 56 17621305171559625166
15420108 30 17395002597140212552
15463212 79 18409442600767258617
19311894 1 18341039753726503486
19319366 153 18409165528579958323
20511986 3 18336829783511979312
20775438 99 16166125214152843102
21796203 349 17768506628903374562
21860390 5 17625240284545833193
238 59 17703804591002497556
3493558 16 16689638984542698876
35225 105 16881343672624483093
469060 322 16555925304950274699
474144 1 18267592479811383625
5895379 119 18333454261692726790
6609424 69 16175621206751200921

> <PUBCHEM_SHAPE_MULTIPOLES>
630.87
8.63
5.49
2.9
4.04
1.95
-0.64
-4.37
5.11
0.14
-2.01
-1.37
0.18
-4.45

> <PUBCHEM_SHAPE_SELFOVERLAP>
1282.54

> <PUBCHEM_SHAPE_VOLUME>
367.7

> <PUBCHEM_COORDINATE_TYPE>
2
5
10

$$$$

