20054813
  -OEChem-07051213152D

 76 81  0     1  0  0  0  0  0999 V2000
    3.6035   -0.7929    0.0000 O   0  0  0  0  0  0  0  0  0  0  0  0
    5.1210   -1.9617    0.0000 O   0  0  0  0  0  0  0  0  0  0  0  0
    6.9437    1.8001    0.0000 O   0  0  0  0  0  0  0  0  0  0  0  0
    4.8185    3.1120    0.0000 O   0  0  0  0  0  0  0  0  0  0  0  0
    3.2269    1.3743    0.0000 O   0  0  0  0  0  0  0  0  0  0  0  0
    2.8144   -0.3516    0.0000 O   0  0  0  0  0  0  0  0  0  0  0  0
    2.8260    2.2581    0.0000 O   0  0  0  0  0  0  0  0  0  0  0  0
    8.6946   -0.4700    0.0000 O   0  0  0  0  0  0  0  0  0  0  0  0
    7.8097   -2.4350    0.0000 O   0  0  0  0  0  0  0  0  0  0  0  0
    8.1390   -0.0289    0.0000 N   0  0  3  0  0  0  0  0  0  0  0  0
    6.1924    0.3663    0.0000 C   0  0  1  0  0  0  0  0  0  0  0  0
    6.1924   -0.5013    0.0000 C   0  0  2  0  0  0  0  0  0  0  0  0
    5.5141    0.9073    0.0000 C   0  0  1  0  0  0  0  0  0  0  0  0
    7.1944    0.2603    0.0000 C   0  0  3  0  0  0  0  0  0  0  0  0
    4.6682   -0.8491    0.0000 C   0  0  1  0  0  0  0  0  0  0  0  0
    4.6682    0.7142    0.0000 C   0  0  1  0  0  0  0  0  0  0  0  0
    4.2918   -0.0675    0.0000 C   0  0  1  0  0  0  0  0  0  0  0  0
    5.5141   -1.0422    0.0000 C   0  0  2  0  0  0  0  0  0  0  0  0
    6.9437   -0.9350    0.0000 C   0  0  2  0  0  0  0  0  0  0  0  0
    6.9437    0.8001    0.0000 C   0  0  2  0  0  0  0  0  0  0  0  0
    5.5918    1.7713    0.0000 C   0  0  0  0  0  0  0  0  0  0  0  0
    4.7941    2.1123    0.0000 C   0  0  2  0  0  0  0  0  0  0  0  0
    4.2233    1.4590    0.0000 C   0  0  2  0  0  0  0  0  0  0  0  0
    3.6469    0.2025    0.0000 C   0  0  2  0  0  0  0  0  0  0  0  0
    8.1390   -0.7808    0.0000 C   0  0  0  0  0  0  0  0  0  0  0  0
    7.6951   -0.5013    0.0000 C   0  0  1  0  0  0  0  0  0  0  0  0
    3.6469    1.6870    0.0000 C   0  0  2  0  0  0  0  0  0  0  0  0
    7.6951    0.3663    0.0000 C   0  0  0  0  0  0  0  0  0  0  0  0
    6.9437   -1.9350    0.0000 C   0  0  0  0  0  0  0  0  0  0  0  0
    8.9430    0.5658    0.0000 C   0  0  0  0  0  0  0  0  0  0  0  0
    5.7209   -2.7618    0.0000 C   0  0  0  0  0  0  0  0  0  0  0  0
    9.8600    0.1669    0.0000 C   0  0  0  0  0  0  0  0  0  0  0  0
    7.8098    2.3001    0.0000 C   0  0  0  0  0  0  0  0  0  0  0  0
    2.9102    3.2545    0.0000 C   0  0  0  0  0  0  0  0  0  0  0  0
    7.8097   -3.4350    0.0000 C   0  0  0  0  0  0  0  0  0  0  0  0
    6.2559   -1.3489    0.0000 H   0  0  0  0  0  0  0  0  0  0  0  0
    6.2957    1.2413    0.0000 H   0  0  0  0  0  0  0  0  0  0  0  0
    7.3183    0.8678    0.0000 H   0  0  0  0  0  0  0  0  0  0  0  0
    4.1383   -1.5137    0.0000 H   0  0  0  0  0  0  0  0  0  0  0  0
    3.8191    0.6761    0.0000 H   0  0  0  0  0  0  0  0  0  0  0  0
    5.7145   -1.6289    0.0000 H   0  0  0  0  0  0  0  0  0  0  0  0
    6.4068    1.1101    0.0000 H   0  0  0  0  0  0  0  0  0  0  0  0
    5.7746    2.3638    0.0000 H   0  0  0  0  0  0  0  0  0  0  0  0
    6.2002    1.6515    0.0000 H   0  0  0  0  0  0  0  0  0  0  0  0
    3.9432    2.0121    0.0000 H   0  0  0  0  0  0  0  0  0  0  0  0
    3.1004    0.4952    0.0000 H   0  0  0  0  0  0  0  0  0  0  0  0
    8.7585   -0.7543    0.0000 H   0  0  0  0  0  0  0  0  0  0  0  0
    8.1920   -1.3985    0.0000 H   0  0  0  0  0  0  0  0  0  0  0  0
    7.8648   -1.0976    0.0000 H   0  0  0  0  0  0  0  0  0  0  0  0
    3.7251    2.3020    0.0000 H   0  0  0  0  0  0  0  0  0  0  0  0
    7.9071    0.9489    0.0000 H   0  0  0  0  0  0  0  0  0  0  0  0
    8.3056    0.2587    0.0000 H   0  0  0  0  0  0  0  0  0  0  0  0
    6.7317   -2.5176    0.0000 H   0  0  0  0  0  0  0  0  0  0  0  0
    6.3331   -1.8274    0.0000 H   0  0  0  0  0  0  0  0  0  0  0  0
    3.4587   -1.3957    0.0000 H   0  0  0  0  0  0  0  0  0  0  0  0
    8.4934    0.9926    0.0000 H   0  0  0  0  0  0  0  0  0  0  0  0
    9.2853    1.0827    0.0000 H   0  0  0  0  0  0  0  0  0  0  0  0
    4.2893    3.4350    0.0000 H   0  0  0  0  0  0  0  0  0  0  0  0
    2.9634    0.8130    0.0000 H   0  0  0  0  0  0  0  0  0  0  0  0
    2.2589   -0.0763    0.0000 H   0  0  0  0  0  0  0  0  0  0  0  0
    9.0212   -0.9970    0.0000 H   0  0  0  0  0  0  0  0  0  0  0  0
    6.2170   -2.3899    0.0000 H   0  0  0  0  0  0  0  0  0  0  0  0
    6.0928   -3.2579    0.0000 H   0  0  0  0  0  0  0  0  0  0  0  0
    5.2248   -3.1337    0.0000 H   0  0  0  0  0  0  0  0  0  0  0  0
   10.1073    0.7354    0.0000 H   0  0  0  0  0  0  0  0  0  0  0  0
   10.4285   -0.0805    0.0000 H   0  0  0  0  0  0  0  0  0  0  0  0
    9.6127   -0.4017    0.0000 H   0  0  0  0  0  0  0  0  0  0  0  0
    7.4998    2.8370    0.0000 H   0  0  0  0  0  0  0  0  0  0  0  0
    8.3467    2.6101    0.0000 H   0  0  0  0  0  0  0  0  0  0  0  0
    8.1198    1.7632    0.0000 H   0  0  0  0  0  0  0  0  0  0  0  0
    2.2924    3.3067    0.0000 H   0  0  0  0  0  0  0  0  0  0  0  0
    2.9624    3.8723    0.0000 H   0  0  0  0  0  0  0  0  0  0  0  0
    3.5280    3.2024    0.0000 H   0  0  0  0  0  0  0  0  0  0  0  0
    8.4297   -3.4350    0.0000 H   0  0  0  0  0  0  0  0  0  0  0  0
    7.8097   -4.0550    0.0000 H   0  0  0  0  0  0  0  0  0  0  0  0
    7.1897   -3.4350    0.0000 H   0  0  0  0  0  0  0  0  0  0  0  0
 17  1  1  6  0  0  0
  1 55  1  0  0  0  0
 18  2  1  1  0  0  0
  2 31  1  0  0  0  0
 20  3  1  1  0  0  0
  3 33  1  0  0  0  0
 22  4  1  6  0  0  0
  4 58  1  0  0  0  0
 23  5  1  1  0  0  0
  5 59  1  0  0  0  0
 24  6  1  1  0  0  0
  6 60  1  0  0  0  0
 27  7  1  6  0  0  0
  7 34  1  0  0  0  0
 26  8  1  1  0  0  0
  8 61  1  0  0  0  0
  9 29  1  0  0  0  0
  9 35  1  0  0  0  0
 10 14  1  0  0  0  0
 10 25  1  0  0  0  0
 10 30  1  0  0  0  0
 11 12  1  0  0  0  0
 11 13  1  0  0  0  0
 11 14  1  0  0  0  0
 11 20  1  6  0  0  0
 12 18  1  0  0  0  0
 12 19  1  0  0  0  0
 12 36  1  6  0  0  0
 13 16  1  0  0  0  0
 13 21  1  0  0  0  0
 13 37  1  6  0  0  0
 14 15  1  0  0  0  0
 14 38  1  0  0  0  0
 15 17  1  0  0  0  0
 15 18  1  0  0  0  0
 15 39  1  1  0  0  0
 16 17  1  0  0  0  0
 16 23  1  0  0  0  0
 16 40  1  6  0  0  0
 17 24  1  0  0  0  0
 18 41  1  0  0  0  0
 19 25  1  0  0  0  0
 19 26  1  0  0  0  0
 19 29  1  6  0  0  0
 20 28  1  0  0  0  0
 20 42  1  0  0  0  0
 21 22  1  0  0  0  0
 21 43  1  0  0  0  0
 21 44  1  0  0  0  0
 22 23  1  0  0  0  0
 22 27  1  0  0  0  0
 23 45  1  0  0  0  0
 24 27  1  0  0  0  0
 24 46  1  0  0  0  0
 25 47  1  0  0  0  0
 25 48  1  0  0  0  0
 26 28  1  0  0  0  0
 26 49  1  0  0  0  0
 27 50  1  0  0  0  0
 28 51  1  0  0  0  0
 28 52  1  0  0  0  0
 29 53  1  0  0  0  0
 29 54  1  0  0  0  0
 30 32  1  0  0  0  0
 30 56  1  0  0  0  0
 30 57  1  0  0  0  0
 31 62  1  0  0  0  0
 31 63  1  0  0  0  0
 31 64  1  0  0  0  0
 32 65  1  0  0  0  0
 32 66  1  0  0  0  0
 32 67  1  0  0  0  0
 33 68  1  0  0  0  0
 33 69  1  0  0  0  0
 33 70  1  0  0  0  0
 34 71  1  0  0  0  0
 34 72  1  0  0  0  0
 34 73  1  0  0  0  0
 35 74  1  0  0  0  0
 35 75  1  0  0  0  0
 35 76  1  0  0  0  0
M  END
> <PUBCHEM_COMPOUND_CID>
20054813

> <PUBCHEM_COMPOUND_CANONICALIZED>
1

> <PUBCHEM_CACTVS_COMPLEXITY>
878

> <PUBCHEM_CACTVS_HBOND_ACCEPTOR>
10

> <PUBCHEM_CACTVS_HBOND_DONOR>
5

> <PUBCHEM_CACTVS_ROTATABLE_BOND>
6

> <PUBCHEM_CACTVS_SUBSKEYS>
AAADcfB6PAAAAAAAAAAAAAAAAAAAAYMAAAA8YMEAB4gWAGAAAAAAHgAACAAAD3zhgAYCAAMABgAAAAAAAAAAAAAAAAAAAAAIAAABEAIAgAAEQAAHAACDAAHw8P8PgAAAAAAAAADSAAaUADSAAaEADSAAAA==

> <PUBCHEM_IUPAC_INCHI>
InChI=1S/C25H41NO9/c1-6-26-9-22(10-32-2)12(27)7-13(33-3)24-11-8-23(30)19(28)14(11)25(31,20(29)21(23)35-5)15(18(24)26)16(34-4)17(22)24/h11-21,27-31H,6-10H2,1-5H3/t11-,12-,13+,14-,15+,16+,17-,18?,19-,20+,21+,22+,23-,24+,25-/m1/s1

> <PUBCHEM_IUPAC_INCHIKEY>
SQMGCPHFHQGPIF-JIOYIOPFSA-N

> <PUBCHEM_XLOGP3_AA>
-2.5

> <PUBCHEM_EXACT_MASS>
499.278132

> <PUBCHEM_MOLECULAR_FORMULA>
C25H41NO9

> <PUBCHEM_MOLECULAR_WEIGHT>
499.59434

> <PUBCHEM_OPENEYE_CAN_SMILES>
CCN1CC2(C(CC(C34C2C(C(C31)C5(C6C4CC(C6O)(C(C5O)OC)O)O)OC)OC)O)COC

> <PUBCHEM_OPENEYE_ISO_SMILES>
CCN1C[C@@]2([C@@H](C[C@@H]([C@@]34[C@@H]2[C@H]([C@@H](C31)[C@@]5([C@@H]6[C@H]4C[C@@]([C@@H]6O)([C@H]([C@@H]5O)OC)O)O)OC)OC)O)COC

> <PUBCHEM_CACTVS_TPSA>
141

> <PUBCHEM_MONOISOTOPIC_WEIGHT>
499.278132

> <PUBCHEM_TOTAL_CHARGE>
0

> <PUBCHEM_HEAVY_ATOM_COUNT>
35

> <PUBCHEM_ATOM_DEF_STEREO_COUNT>
14

> <PUBCHEM_ATOM_UDEF_STEREO_COUNT>
1

> <PUBCHEM_BOND_DEF_STEREO_COUNT>
0

> <PUBCHEM_BOND_UDEF_STEREO_COUNT>
0

> <PUBCHEM_ISOTOPIC_ATOM_COUNT>
0

> <PUBCHEM_COMPONENT_COUNT>
1

> <PUBCHEM_CACTVS_TAUTO_COUNT>
1

> <PUBCHEM_COORDINATE_TYPE>
1
5
255

> <PUBCHEM_BONDANNOTATIONS>
17  1  6
14  10  3
11  20  6
12  36  6
13  37  6
15  39  5
16  40  6
19  29  6
18  2  5
20  3  5
22  4  6
23  5  5
24  6  5
27  7  6
26  8  5

$$$$

