33775
  -OEChem-07051213133D

 29 30  0     0  0  0  0  0  0999 V2000
   -3.4386   -2.6530    0.5267 Cl  0  0  0  0  0  0  0  0  0  0  0  0
    5.1854   -0.3110   -0.3101 F   0  0  0  0  0  0  0  0  0  0  0  0
    3.9026   -1.8896    0.4428 F   0  0  0  0  0  0  0  0  0  0  0  0
    3.7856   -1.3015   -1.6474 F   0  0  0  0  0  0  0  0  0  0  0  0
   -0.6871   -1.8256    0.8282 O   0  0  0  0  0  0  0  0  0  0  0  0
   -0.8598    0.4190    0.1774 N   0  0  0  0  0  0  0  0  0  0  0  0
   -1.6898    1.4645   -0.1324 N   0  0  0  0  0  0  0  0  0  0  0  0
   -4.9838   -0.0700   -0.2471 N   0  0  0  0  0  0  0  0  0  0  0  0
    0.5343    0.7897    0.2142 C   0  0  0  0  0  0  0  0  0  0  0  0
    1.5159   -0.1534   -0.0910 C   0  0  0  0  0  0  0  0  0  0  0  0
    2.8632    0.2059   -0.0566 C   0  0  0  0  0  0  0  0  0  0  0  0
    0.9008    2.0922    0.5537 C   0  0  0  0  0  0  0  0  0  0  0  0
   -1.3530   -0.8637    0.4458 C   0  0  0  0  0  0  0  0  0  0  0  0
   -3.6374   -0.0498   -0.0599 C   0  0  0  0  0  0  0  0  0  0  0  0
    3.2295    1.5081    0.2830 C   0  0  0  0  0  0  0  0  0  0  0  0
   -2.8242   -1.0550    0.2703 C   0  0  0  0  0  0  0  0  0  0  0  0
    2.2482    2.4514    0.5881 C   0  0  0  0  0  0  0  0  0  0  0  0
   -2.9538    1.2379   -0.2333 C   0  0  0  0  0  0  0  0  0  0  0  0
    3.9129   -0.8023   -0.3836 C   0  0  0  0  0  0  0  0  0  0  0  0
   -5.6510    0.8061   -1.1688 C   0  0  0  0  0  0  0  0  0  0  0  0
    1.2596   -1.1639   -0.3949 H   0  0  0  0  0  0  0  0  0  0  0  0
    0.1629    2.8474    0.8113 H   0  0  0  0  0  0  0  0  0  0  0  0
    4.2736    1.8068    0.3160 H   0  0  0  0  0  0  0  0  0  0  0  0
    2.5337    3.4645    0.8558 H   0  0  0  0  0  0  0  0  0  0  0  0
   -3.5844    2.1105   -0.4614 H   0  0  0  0  0  0  0  0  0  0  0  0
   -5.4488   -0.9462   -0.0275 H   0  0  0  0  0  0  0  0  0  0  0  0
   -6.6519    0.4166   -1.3823 H   0  0  0  0  0  0  0  0  0  0  0  0
   -5.1180    0.8790   -2.1230 H   0  0  0  0  0  0  0  0  0  0  0  0
   -5.7800    1.8067   -0.7442 H   0  0  0  0  0  0  0  0  0  0  0  0
  1 16  1  0  0  0  0
  2 19  1  0  0  0  0
  3 19  1  0  0  0  0
  4 19  1  0  0  0  0
  5 13  2  0  0  0  0
  6  7  1  0  0  0  0
  6  9  1  0  0  0  0
  6 13  1  0  0  0  0
  7 18  2  0  0  0  0
  8 14  1  0  0  0  0
  8 20  1  0  0  0  0
  8 26  1  0  0  0  0
  9 10  1  0  0  0  0
  9 12  2  0  0  0  0
 10 11  2  0  0  0  0
 10 21  1  0  0  0  0
 11 15  1  0  0  0  0
 11 19  1  0  0  0  0
 12 17  1  0  0  0  0
 12 22  1  0  0  0  0
 13 16  1  0  0  0  0
 14 16  2  0  0  0  0
 14 18  1  0  0  0  0
 15 17  2  0  0  0  0
 15 23  1  0  0  0  0
 17 24  1  0  0  0  0
 18 25  1  0  0  0  0
 20 27  1  0  0  0  0
 20 28  1  0  0  0  0
 20 29  1  0  0  0  0
M  END
> <PUBCHEM_COMPOUND_CID>
33775

> <PUBCHEM_CONFORMER_RMSD>
0.6

> <PUBCHEM_CONFORMER_DIVERSEORDER>
1
4
5
7
2
3
6

> <PUBCHEM_MMFF94_PARTIAL_CHARGES>
26
1 -0.14
10 -0.15
11 -0.14
12 -0.15
13 0.62
14 0.11
15 -0.15
16 0.15
17 -0.15
18 0.38
19 1.16
2 -0.34
20 0.37
21 0.15
22 0.15
23 0.15
24 0.15
25 0.06
26 0.4
3 -0.34
4 -0.34
5 -0.57
6 -0.11
7 -0.51
8 -0.87
9 0.12

> <PUBCHEM_EFFECTIVE_ROTOR_COUNT>
3

> <PUBCHEM_PHARMACOPHORE_FEATURES>
6
1 5 acceptor
1 7 acceptor
1 8 cation
1 8 donor
6 6 7 13 14 16 18 rings
6 9 10 11 12 15 17 rings

> <PUBCHEM_HEAVY_ATOM_COUNT>
20

> <PUBCHEM_ATOM_DEF_STEREO_COUNT>
0

> <PUBCHEM_ATOM_UDEF_STEREO_COUNT>
0

> <PUBCHEM_BOND_DEF_STEREO_COUNT>
0

> <PUBCHEM_BOND_UDEF_STEREO_COUNT>
0

> <PUBCHEM_ISOTOPIC_ATOM_COUNT>
0

> <PUBCHEM_COMPONENT_COUNT>
1

> <PUBCHEM_CACTVS_TAUTO_COUNT>
2

> <PUBCHEM_CONFORMER_ID>
000083EF00000001

> <PUBCHEM_MMFF94_ENERGY>
59.6812

> <PUBCHEM_FEATURE_SELFOVERLAP>
30.446

> <PUBCHEM_SHAPE_FINGERPRINT>
10608611 8 18267026059408790753
11405975 8 18408884006126245457
11471102 20 18334860493587471632
116883 192 18335134332344626924
12403259 415 18202008729087486069
12555020 224 18410581703909594719
12592029 89 17385721413647989919
13134695 92 17603309223813422240
13296908 3 18339641135690039619
13544592 145 18412829079579845757
13583140 156 17533505530117876057
14115302 16 18202273693449956900
14790565 3 17472694101676110217
14866123 147 17613145686784202656
14911166 2 18412829105375834853
15099037 51 18410857681106262871
15196674 1 18339643330692588923
15219456 202 18264770969539094633
15242439 84 18413390934274265661
15536298 74 18336549326204361697
15848700 24 18186799223136300612
17349148 13 16153422835826558437
17804303 29 18412821378650476569
17834072 8 18412829096843831783
18186145 218 18130517348713523749
18222031 100 17676766552541289534
200 152 17530966886713208105
20369508 70 18408327691929094008
20374829 77 18413673504309368226
20645477 70 18187364307240029814
20832881 197 18339363066669893689
20871999 31 18341038709901542980
21029758 11 18334576853936713992
21065198 57 18338237064069152393
21065201 7 18059583429947563569
21267235 1 18408877447299772882
21279426 13 18196094563114817381
21521239 73 18188511081632449903
221357 26 18336272318542693837
221490 88 18338793395261407000
2215653 11 18335423482395721269
22943178 12 18267026059582487353
23402539 116 18040438828164379773
23559900 14 18410296865509371360
3004659 81 18059574763078658482
314173 41 18409441497234248900
32948 21 18202004356230270197
335352 9 18411420635265013375
351380 180 18335707143516092557
4214541 1 18411136926863259953
495365 180 17822867367921773664
5104073 3 18337390435577926017
633830 44 16845293796090653017
69090 78 18261398819248460127
7364860 26 18188771631159482120
8809292 202 18341326721385714675
9709674 26 18196651791760493027

> <PUBCHEM_SHAPE_MULTIPOLES>
370.83
10.42
2.42
0.88
2.77
0.33
-0.19
1.6
-2.89
-0.2
0.46
-0.05
0.12
1.49

> <PUBCHEM_SHAPE_SELFOVERLAP>
787.939

> <PUBCHEM_SHAPE_VOLUME>
208.5

> <PUBCHEM_COORDINATE_TYPE>
2
5
10

$$$$

