51090914
  -OEChem-06241223003D

 41 41  0     1  0  0  0  0  0999 V2000
   -3.3467   -0.6172    0.6788 O   0  0  0  0  0  0  0  0  0  0  0  0
   -3.5526    2.0490   -0.1472 O   0  0  0  0  0  0  0  0  0  0  0  0
   -1.6669   -1.2971   -1.3783 O   0  0  0  0  0  0  0  0  0  0  0  0
   -0.4825   -2.6607    0.0807 N   0  0  0  0  0  0  0  0  0  0  0  0
   -2.6648   -1.8583    0.7491 C   0  0  1  0  0  0  0  0  0  0  0  0
   -2.6253    0.4165    1.3381 C   0  0  0  0  0  0  0  0  0  0  0  0
   -3.4051    1.7124    1.2269 C   0  0  0  0  0  0  0  0  0  0  0  0
   -3.6762   -2.9698    0.5184 C   0  0  0  0  0  0  0  0  0  0  0  0
   -1.5669   -1.8877   -0.3050 C   0  0  0  0  0  0  0  0  0  0  0  0
   -4.2970    3.2476   -0.3126 C   0  0  0  0  0  0  0  0  0  0  0  0
    0.6748   -2.8586   -0.7608 C   0  0  0  0  0  0  0  0  0  0  0  0
   -4.4196    3.5521   -1.7904 C   0  0  0  0  0  0  0  0  0  0  0  0
    1.6849   -1.8301   -0.5165 C   0  0  0  0  0  0  0  0  0  0  0  0
    3.5065    0.0181   -0.0774 C   0  0  0  0  0  0  0  0  0  0  0  0
    4.8490   -0.2467   -0.3474 C   0  0  0  0  0  0  0  0  0  0  0  0
    3.1285    1.2629    0.4259 C   0  0  0  0  0  0  0  0  0  0  0  0
    2.5166   -0.9865   -0.3171 C   0  0  0  0  0  0  0  0  0  0  0  0
    5.8140    0.7333   -0.1139 C   0  0  0  0  0  0  0  0  0  0  0  0
    4.0933    2.2428    0.6593 C   0  0  0  0  0  0  0  0  0  0  0  0
    5.4360    1.9780    0.3894 C   0  0  0  0  0  0  0  0  0  0  0  0
   -2.2335   -1.9920    1.7495 H   0  0  0  0  0  0  0  0  0  0  0  0
   -2.4886    0.1618    2.3950 H   0  0  0  0  0  0  0  0  0  0  0  0
   -1.6442    0.5392    0.8654 H   0  0  0  0  0  0  0  0  0  0  0  0
   -2.8742    2.5143    1.7516 H   0  0  0  0  0  0  0  0  0  0  0  0
   -4.3995    1.5840    1.6701 H   0  0  0  0  0  0  0  0  0  0  0  0
   -3.2033   -3.9557    0.5660 H   0  0  0  0  0  0  0  0  0  0  0  0
   -4.4755   -2.9245    1.2656 H   0  0  0  0  0  0  0  0  0  0  0  0
   -4.1517   -2.8680   -0.4638 H   0  0  0  0  0  0  0  0  0  0  0  0
   -0.4864   -3.1081    0.9928 H   0  0  0  0  0  0  0  0  0  0  0  0
   -3.7858    4.0744    0.1931 H   0  0  0  0  0  0  0  0  0  0  0  0
   -5.2955    3.1275    0.1225 H   0  0  0  0  0  0  0  0  0  0  0  0
    0.3636   -2.8498   -1.8105 H   0  0  0  0  0  0  0  0  0  0  0  0
    1.0742   -3.8519   -0.5335 H   0  0  0  0  0  0  0  0  0  0  0  0
   -3.4295    3.6638   -2.2445 H   0  0  0  0  0  0  0  0  0  0  0  0
   -4.9184    2.7294   -2.3135 H   0  0  0  0  0  0  0  0  0  0  0  0
   -4.9889    4.4713   -1.9545 H   0  0  0  0  0  0  0  0  0  0  0  0
    5.1593   -1.2121   -0.7401 H   0  0  0  0  0  0  0  0  0  0  0  0
    2.0859    1.4844    0.6412 H   0  0  0  0  0  0  0  0  0  0  0  0
    6.8594    0.5272   -0.3240 H   0  0  0  0  0  0  0  0  0  0  0  0
    3.7992    3.2121    1.0511 H   0  0  0  0  0  0  0  0  0  0  0  0
    6.1872    2.7411    0.5713 H   0  0  0  0  0  0  0  0  0  0  0  0
  1  5  1  0  0  0  0
  1  6  1  0  0  0  0
  2  7  1  0  0  0  0
  2 10  1  0  0  0  0
  3  9  2  0  0  0  0
  4  9  1  0  0  0  0
  4 11  1  0  0  0  0
  4 29  1  0  0  0  0
  5  8  1  0  0  0  0
  5  9  1  0  0  0  0
  5 21  1  0  0  0  0
  6  7  1  0  0  0  0
  6 22  1  0  0  0  0
  6 23  1  0  0  0  0
  7 24  1  0  0  0  0
  7 25  1  0  0  0  0
  8 26  1  0  0  0  0
  8 27  1  0  0  0  0
  8 28  1  0  0  0  0
 10 12  1  0  0  0  0
 10 30  1  0  0  0  0
 10 31  1  0  0  0  0
 11 13  1  0  0  0  0
 11 32  1  0  0  0  0
 11 33  1  0  0  0  0
 12 34  1  0  0  0  0
 12 35  1  0  0  0  0
 12 36  1  0  0  0  0
 13 17  3  0  0  0  0
 14 15  2  0  0  0  0
 14 16  1  0  0  0  0
 14 17  1  0  0  0  0
 15 18  1  0  0  0  0
 15 37  1  0  0  0  0
 16 19  2  0  0  0  0
 16 38  1  0  0  0  0
 18 20  2  0  0  0  0
 18 39  1  0  0  0  0
 19 20  1  0  0  0  0
 19 40  1  0  0  0  0
 20 41  1  0  0  0  0
M  END
> <PUBCHEM_COMPOUND_CID>
51090914

> <PUBCHEM_CONFORMER_RMSD>
1

> <PUBCHEM_CONFORMER_DIVERSEORDER>
1
26
69
65
7
5
52
85
42
81
15
60
16
22
35
45
68
29
41
61
49
25
80
33
8
55
4
77
64
23
54
10
57
46
62
27
63
70
83
48
59
17
56
34
47
84
78
38
18
50
14
24
11
32
3
9
6
66
74
51
13
82
28
71
39
21
86
40
37
67
2
53
79
20
75
30
44
19
12
36
72
58
76
43
31
73

> <PUBCHEM_MMFF94_PARTIAL_CHARGES>
24
1 -0.56
10 0.28
11 0.5
13 -0.2
14 0.07
15 -0.15
16 -0.15
17 -0.07
18 -0.15
19 -0.15
2 -0.56
20 -0.15
29 0.37
3 -0.57
37 0.15
38 0.15
39 0.15
4 -0.73
40 0.15
41 0.15
5 0.34
6 0.28
7 0.28
9 0.57

> <PUBCHEM_EFFECTIVE_ROTOR_COUNT>
8

> <PUBCHEM_PHARMACOPHORE_FEATURES>
5
1 1 acceptor
1 2 acceptor
1 3 acceptor
1 4 donor
6 14 15 16 18 19 20 rings

> <PUBCHEM_HEAVY_ATOM_COUNT>
20

> <PUBCHEM_ATOM_DEF_STEREO_COUNT>
0

> <PUBCHEM_ATOM_UDEF_STEREO_COUNT>
1

> <PUBCHEM_BOND_DEF_STEREO_COUNT>
0

> <PUBCHEM_BOND_UDEF_STEREO_COUNT>
0

> <PUBCHEM_ISOTOPIC_ATOM_COUNT>
0

> <PUBCHEM_COMPONENT_COUNT>
1

> <PUBCHEM_CACTVS_TAUTO_COUNT>
2

> <PUBCHEM_CONFORMER_ID>
030B95E200000001

> <PUBCHEM_MMFF94_ENERGY>
30.4157

> <PUBCHEM_FEATURE_SELFOVERLAP>
25.381

> <PUBCHEM_SHAPE_FINGERPRINT>
10670039 82 18194100946839346196
11045515 52 17682978599807129031
12107183 9 18198351852145224786
12596602 18 17558838282501490674
12769317 202 18190185761525178704
133061 13 17843696683713370821
14251751 93 18335136462415739050
14251764 75 18117265059587129401
14957384 54 18340211885494176098
17834072 32 18335416906669013064
17868525 174 18267588103778272938
20621476 13 18192149523562428000
21095088 737 18260558822540458261
21279426 13 18188477078360575430
21315764 268 18189334576691062888
21388113 180 18126007297951096013
21864079 5 18334014973762523514
2838139 119 18267027330792463295
4371632 12 17025185980212086633

> <PUBCHEM_SHAPE_MULTIPOLES>
389
12.96
4.6
1.18
9.84
1.09
-0.16
11.14
0.23
-6.46
-1.14
-1.36
0.54
2.51

> <PUBCHEM_SHAPE_SELFOVERLAP>
774.851

> <PUBCHEM_SHAPE_VOLUME>
229.5

> <PUBCHEM_COORDINATE_TYPE>
2
5
10

$$$$

