6430770
  -OEChem-07051213023D

 52 52  0     1  0  0  0  0  0999 V2000
   -2.1112    1.3223   -0.3894 C   0  0  1  0  0  0  0  0  0  0  0  0
   -3.2334    1.5719    0.6235 C   0  0  0  0  0  0  0  0  0  0  0  0
   -0.7914    1.9457    0.1205 C   0  0  0  0  0  0  0  0  0  0  0  0
    0.3131    1.9814   -0.9517 C   0  0  0  0  0  0  0  0  0  0  0  0
   -2.0842   -0.1545   -0.7302 C   0  0  0  0  0  0  0  0  0  0  0  0
   -4.5843    1.1954    0.0237 C   0  0  0  0  0  0  0  0  0  0  0  0
   -2.9744    0.7902    1.9074 C   0  0  0  0  0  0  0  0  0  0  0  0
    1.6395    2.5020   -0.4328 C   0  0  0  0  0  0  0  0  0  0  0  0
   -1.2489   -1.0765   -0.2227 C   0  0  0  0  0  0  0  0  0  0  0  0
    2.8170    1.8507   -0.5204 C   0  0  0  0  0  0  0  0  0  0  0  0
    3.1163    0.5206   -1.1551 C   0  0  0  0  0  0  0  0  0  0  0  0
    1.6038    3.8767    0.1886 C   0  0  0  0  0  0  0  0  0  0  0  0
    3.6482   -0.5250   -0.1642 C   0  0  0  0  0  0  0  0  0  0  0  0
   -1.2074   -2.4965   -0.5621 C   0  0  0  0  0  0  0  0  0  0  0  0
    2.5623   -1.1575    0.6849 C   0  0  0  0  0  0  0  0  0  0  0  0
    0.8268   -3.0255    0.9170 C   0  0  0  0  0  0  0  0  0  0  0  0
   -0.2821   -3.3394   -0.0553 C   0  0  0  0  0  0  0  0  0  0  0  0
    1.9593   -2.2864    0.2605 C   0  0  0  0  0  0  0  0  0  0  0  0
   -2.2353   -3.0281   -1.5296 C   0  0  0  0  0  0  0  0  0  0  0  0
    2.2663   -0.4675    1.9874 C   0  0  0  0  0  0  0  0  0  0  0  0
   -2.3622    1.8539   -1.3186 H   0  0  0  0  0  0  0  0  0  0  0  0
   -3.2657    2.6417    0.8672 H   0  0  0  0  0  0  0  0  0  0  0  0
   -0.4106    1.4208    1.0025 H   0  0  0  0  0  0  0  0  0  0  0  0
   -0.9991    2.9749    0.4405 H   0  0  0  0  0  0  0  0  0  0  0  0
   -0.0107    2.6308   -1.7752 H   0  0  0  0  0  0  0  0  0  0  0  0
    0.4255    0.9853   -1.3838 H   0  0  0  0  0  0  0  0  0  0  0  0
   -2.8158   -0.4547   -1.4774 H   0  0  0  0  0  0  0  0  0  0  0  0
   -4.7000    0.1166   -0.1223 H   0  0  0  0  0  0  0  0  0  0  0  0
   -5.3920    1.5125    0.6935 H   0  0  0  0  0  0  0  0  0  0  0  0
   -4.7450    1.6942   -0.9380 H   0  0  0  0  0  0  0  0  0  0  0  0
   -3.0368   -0.2938    1.7739 H   0  0  0  0  0  0  0  0  0  0  0  0
   -3.7418    1.0484    2.6477 H   0  0  0  0  0  0  0  0  0  0  0  0
   -2.0139    1.0335    2.3683 H   0  0  0  0  0  0  0  0  0  0  0  0
    3.6989    2.3434   -0.1109 H   0  0  0  0  0  0  0  0  0  0  0  0
   -0.5309   -0.7484    0.5212 H   0  0  0  0  0  0  0  0  0  0  0  0
    2.2656    0.1154   -1.7099 H   0  0  0  0  0  0  0  0  0  0  0  0
    3.8964    0.6998   -1.9067 H   0  0  0  0  0  0  0  0  0  0  0  0
    1.0999    4.5826   -0.4799 H   0  0  0  0  0  0  0  0  0  0  0  0
    2.6067    4.2730    0.3815 H   0  0  0  0  0  0  0  0  0  0  0  0
    1.0709    3.8550    1.1442 H   0  0  0  0  0  0  0  0  0  0  0  0
    4.4284   -0.0958    0.4772 H   0  0  0  0  0  0  0  0  0  0  0  0
    4.1538   -1.3103   -0.7429 H   0  0  0  0  0  0  0  0  0  0  0  0
    0.4089   -2.4989    1.7794 H   0  0  0  0  0  0  0  0  0  0  0  0
    1.2178   -3.9737    1.3064 H   0  0  0  0  0  0  0  0  0  0  0  0
   -0.3129   -4.3829   -0.3680 H   0  0  0  0  0  0  0  0  0  0  0  0
    2.2982   -2.7170   -0.6820 H   0  0  0  0  0  0  0  0  0  0  0  0
   -2.1389   -2.5401   -2.5055 H   0  0  0  0  0  0  0  0  0  0  0  0
   -3.2487   -2.8630   -1.1476 H   0  0  0  0  0  0  0  0  0  0  0  0
   -2.1286   -4.1056   -1.6977 H   0  0  0  0  0  0  0  0  0  0  0  0
    1.7219    0.4644    1.8186 H   0  0  0  0  0  0  0  0  0  0  0  0
    3.1992   -0.2307    2.5105 H   0  0  0  0  0  0  0  0  0  0  0  0
    1.6773   -1.0792    2.6744 H   0  0  0  0  0  0  0  0  0  0  0  0
  1  2  1  0  0  0  0
  1  3  1  0  0  0  0
  1  5  1  0  0  0  0
  1 21  1  0  0  0  0
  2  6  1  0  0  0  0
  2  7  1  0  0  0  0
  2 22  1  0  0  0  0
  3  4  1  0  0  0  0
  3 23  1  0  0  0  0
  3 24  1  0  0  0  0
  4  8  1  0  0  0  0
  4 25  1  0  0  0  0
  4 26  1  0  0  0  0
  5  9  2  0  0  0  0
  5 27  1  0  0  0  0
  6 28  1  0  0  0  0
  6 29  1  0  0  0  0
  6 30  1  0  0  0  0
  7 31  1  0  0  0  0
  7 32  1  0  0  0  0
  7 33  1  0  0  0  0
  8 10  2  0  0  0  0
  8 12  1  0  0  0  0
  9 14  1  0  0  0  0
  9 35  1  0  0  0  0
 10 11  1  0  0  0  0
 10 34  1  0  0  0  0
 11 13  1  0  0  0  0
 11 36  1  0  0  0  0
 11 37  1  0  0  0  0
 12 38  1  0  0  0  0
 12 39  1  0  0  0  0
 12 40  1  0  0  0  0
 13 15  1  0  0  0  0
 13 41  1  0  0  0  0
 13 42  1  0  0  0  0
 14 17  2  0  0  0  0
 14 19  1  0  0  0  0
 15 18  2  0  0  0  0
 15 20  1  0  0  0  0
 16 17  1  0  0  0  0
 16 18  1  0  0  0  0
 16 43  1  0  0  0  0
 16 44  1  0  0  0  0
 17 45  1  0  0  0  0
 18 46  1  0  0  0  0
 19 47  1  0  0  0  0
 19 48  1  0  0  0  0
 19 49  1  0  0  0  0
 20 50  1  0  0  0  0
 20 51  1  0  0  0  0
 20 52  1  0  0  0  0
M  END
> <PUBCHEM_COMPOUND_CID>
6430770

> <PUBCHEM_CONFORMER_RMSD>
0.6

> <PUBCHEM_CONFORMER_DIVERSEORDER>
3
4
2
6
1
5

> <PUBCHEM_MMFF94_PARTIAL_CHARGES>
21
1 0.14
10 -0.29
11 0.14
12 0.14
13 0.14
14 -0.14
15 -0.28
16 0.28
17 -0.29
18 -0.29
19 0.14
20 0.14
27 0.15
34 0.15
35 0.15
4 0.14
45 0.15
46 0.15
5 -0.29
8 -0.28
9 -0.15

> <PUBCHEM_EFFECTIVE_ROTOR_COUNT>
2.2

> <PUBCHEM_PHARMACOPHORE_FEATURES>
1
3 2 6 7 hydrophobe

> <PUBCHEM_HEAVY_ATOM_COUNT>
20

> <PUBCHEM_ATOM_DEF_STEREO_COUNT>
0

> <PUBCHEM_ATOM_UDEF_STEREO_COUNT>
1

> <PUBCHEM_BOND_DEF_STEREO_COUNT>
4

> <PUBCHEM_BOND_UDEF_STEREO_COUNT>
0

> <PUBCHEM_ISOTOPIC_ATOM_COUNT>
0

> <PUBCHEM_COMPONENT_COUNT>
1

> <PUBCHEM_CACTVS_TAUTO_COUNT>
1

> <PUBCHEM_CONFORMER_ID>
0062203200000003

> <PUBCHEM_MMFF94_ENERGY>
34.5235

> <PUBCHEM_FEATURE_SELFOVERLAP>
5.074

> <PUBCHEM_SHAPE_FINGERPRINT>
1100329 8 18411138022211821700
12035759 4 18337123254706309975
12156800 1 14672974469504990846
12553582 1 18340214097587060156
12592029 89 18339353167414062265
12788726 201 17759808048433675201
13140716 1 18340493278723940272
14178342 30 18049729507523553620
1420 336 18340207367389086022
14251705 54 17838333339011881368
14251745 187 17255684093112660504
19591789 44 18339354155113849023
19930381 70 18196373838925801813
20465049 17 18268404954337525366
20645477 70 18130504223267600085
20905425 154 17760931736432432142
22113638 7 18339088184584078676
23557571 272 17751094517404748778
23558518 356 17836076780369638412
2748010 2 17475249362366378550
2803657 2 18271260317531744982
35225 105 17184975706963125401
3797600 57 17343746474604414286
44154327 71 18267303312258348687
5048184 11 18268701723598253596
5312544 6 18411703145645366367
539174 4 17320125838140310369
6287921 2 17608644248021663247
6438718 38 18187643553482544622
7832392 63 18410291389647322726
81228 2 17470983914797445709

> <PUBCHEM_SHAPE_MULTIPOLES>
411.59
6.14
4.76
1.39
2.2
0.97
0.47
-2.15
0.41
-0.65
-0.53
0.13
0.29
-1.63

> <PUBCHEM_SHAPE_SELFOVERLAP>
803.443

> <PUBCHEM_SHAPE_VOLUME>
245.5

> <PUBCHEM_COORDINATE_TYPE>
2
5
10

$$$$

