31515
  -OEChem-07051212543D

 31 30  0     1  0  0  0  0  0999 V2000
    1.1973   -3.9000   -0.2118 Cl  0  0  0  0  0  0  0  0  0  0  0  0
    5.1347    0.4204    0.0153 Cl  0  0  0  0  0  0  0  0  0  0  0  0
    0.3888    1.4200   -0.3322 P   0  0  2  0  0  0  0  0  0  0  0  0
   -1.2197    1.1718   -0.2046 O   0  0  0  0  0  0  0  0  0  0  0  0
    0.7464    1.6342   -1.7848 O   0  0  0  0  0  0  0  0  0  0  0  0
   -4.7456   -0.2369   -0.7819 O   0  0  0  0  0  0  0  0  0  0  0  0
   -2.9201   -1.4432   -0.1667 O   0  0  0  0  0  0  0  0  0  0  0  0
    1.1321    0.0892    0.3656 N   0  0  0  0  0  0  0  0  0  0  0  0
    0.7142    2.7298    0.6397 N   0  0  0  0  0  0  0  0  0  0  0  0
    0.9838   -1.1981   -0.3204 C   0  0  0  0  0  0  0  0  0  0  0  0
    2.5337    0.2496    0.7658 C   0  0  0  0  0  0  0  0  0  0  0  0
    1.3560   -2.3343    0.6195 C   0  0  0  0  0  0  0  0  0  0  0  0
    3.4294    0.2455   -0.4633 C   0  0  0  0  0  0  0  0  0  0  0  0
   -1.8116    0.8866    1.0525 C   0  0  0  0  0  0  0  0  0  0  0  0
   -3.3081    0.7034    0.8732 C   0  0  0  0  0  0  0  0  0  0  0  0
   -3.6113   -0.4380   -0.0659 C   0  0  0  0  0  0  0  0  0  0  0  0
    1.5010   -1.2477   -1.2832 H   0  0  0  0  0  0  0  0  0  0  0  0
   -0.0775   -1.3187   -0.5730 H   0  0  0  0  0  0  0  0  0  0  0  0
    2.8499   -0.4883    1.5087 H   0  0  0  0  0  0  0  0  0  0  0  0
    2.6584    1.1979    1.3002 H   0  0  0  0  0  0  0  0  0  0  0  0
    2.3962   -2.3203    0.9445 H   0  0  0  0  0  0  0  0  0  0  0  0
    0.7090   -2.3574    1.5022 H   0  0  0  0  0  0  0  0  0  0  0  0
    3.4066   -0.6879   -1.0262 H   0  0  0  0  0  0  0  0  0  0  0  0
    3.2079    1.0737   -1.1407 H   0  0  0  0  0  0  0  0  0  0  0  0
   -1.3608   -0.0180    1.4726 H   0  0  0  0  0  0  0  0  0  0  0  0
   -1.6232    1.7184    1.7382 H   0  0  0  0  0  0  0  0  0  0  0  0
    1.6780    3.0603    0.6613 H   0  0  0  0  0  0  0  0  0  0  0  0
    0.1473    3.5620    0.4813 H   0  0  0  0  0  0  0  0  0  0  0  0
   -3.7976    0.5054    1.8313 H   0  0  0  0  0  0  0  0  0  0  0  0
   -3.7287    1.6189    0.4410 H   0  0  0  0  0  0  0  0  0  0  0  0
   -4.9360   -0.9872   -1.3845 H   0  0  0  0  0  0  0  0  0  0  0  0
  1 12  1  0  0  0  0
  2 13  1  0  0  0  0
  3  4  1  0  0  0  0
  3  5  2  0  0  0  0
  3  8  1  0  0  0  0
  3  9  1  0  0  0  0
  4 14  1  0  0  0  0
  6 16  1  0  0  0  0
  6 31  1  0  0  0  0
  7 16  2  0  0  0  0
  8 10  1  0  0  0  0
  8 11  1  0  0  0  0
  9 27  1  0  0  0  0
  9 28  1  0  0  0  0
 10 12  1  0  0  0  0
 10 17  1  0  0  0  0
 10 18  1  0  0  0  0
 11 13  1  0  0  0  0
 11 19  1  0  0  0  0
 11 20  1  0  0  0  0
 12 21  1  0  0  0  0
 12 22  1  0  0  0  0
 13 23  1  0  0  0  0
 13 24  1  0  0  0  0
 14 15  1  0  0  0  0
 14 25  1  0  0  0  0
 14 26  1  0  0  0  0
 15 16  1  0  0  0  0
 15 29  1  0  0  0  0
 15 30  1  0  0  0  0
M  END
> <PUBCHEM_COMPOUND_CID>
31515

> <PUBCHEM_CONFORMER_RMSD>
0.8

> <PUBCHEM_CONFORMER_DIVERSEORDER>
7
111
164
33
110
210
206
190
142
131
19
249
207
103
85
68
2
58
41
238
223
61
1
260
149
173
243
67
143
128
80
15
197
159
245
116
118
18
171
138
21
265
72
99
52
28
65
101
73
264
64
70
124
89
145
267
77
46
261
205
259
107
26
253
155
194
202
221
105
185
218
79
270
215
247
125
241
148
6
139
10
100
71
228
176
83
93
224
226
178
187
54
213
248
53
244
163
45
40
220
201
195
47
51
30
81
115
175
233
60
250
193
140
90
153
160
179
237
92
36
192
121
42
5
63
22
112
186
44
169
50
239
230
144
84
229
17
113
134
180
136
13
232
161
188
57
94
98
31
39
129
104
266
177
191
166
168
56
96
257
255
86
11
174
204
55
59
23
109
130
217
234
9
108
211
119
219
182
75
97
66
27
20
16
74
200
29
135
38
170
114
198
25
167
184
181
231
78
235
199
158
242
126
269
91
236
127
14
209
251
214
252
95
152
203
123
24
8
133
254
263
3
258
37
132
156
48
165
212
82
240
12
268
147
137
172
141
150
106
222
225
32
4
34
117
216
43
62
35
154
196
256
87
146
162
102
76
189
246
262
157
122
151
183
69
88
49
208
120
227

> <PUBCHEM_MMFF94_PARTIAL_CHARGES>
19
1 -0.29
10 0.27
11 0.27
12 0.29
13 0.29
14 0.28
15 0.06
16 0.66
2 -0.29
27 0.36
28 0.36
3 1.51
31 0.5
4 -0.55
5 -0.7
6 -0.65
7 -0.57
8 -0.81
9 -0.99

> <PUBCHEM_EFFECTIVE_ROTOR_COUNT>
9

> <PUBCHEM_PHARMACOPHORE_FEATURES>
3
1 6 acceptor
1 7 acceptor
3 6 7 16 anion

> <PUBCHEM_HEAVY_ATOM_COUNT>
16

> <PUBCHEM_ATOM_DEF_STEREO_COUNT>
0

> <PUBCHEM_ATOM_UDEF_STEREO_COUNT>
1

> <PUBCHEM_BOND_DEF_STEREO_COUNT>
0

> <PUBCHEM_BOND_UDEF_STEREO_COUNT>
0

> <PUBCHEM_ISOTOPIC_ATOM_COUNT>
0

> <PUBCHEM_COMPONENT_COUNT>
1

> <PUBCHEM_CACTVS_TAUTO_COUNT>
2

> <PUBCHEM_CONFORMER_ID>
00007B1B00000007

> <PUBCHEM_MMFF94_ENERGY>
12.3602

> <PUBCHEM_FEATURE_SELFOVERLAP>
15.281

> <PUBCHEM_SHAPE_FINGERPRINT>
11132069 177 18412827975773062368
11806522 49 18335701607050150709
12839892 36 18267039412942285794
13083527 12 17985002624191327794
14251717 144 18411982446672299305
14787075 74 18114181883169897040
14863182 85 18339348725790358166
14993402 34 18271239435405929012
15207287 21 17989208135454208401
20201158 50 18343865515657504795
20645477 70 18269843184625023735
23402539 116 18407760344245750716
23598291 2 18043525234407165331
2871803 45 18409450318627739014
3060560 45 18412548678181370398
3250762 1 17694507344359422356
474229 33 18412545401548578402

> <PUBCHEM_SHAPE_MULTIPOLES>
303.42
7.61
3.14
1.03
1.64
3.27
-0.16
-0.44
-0.3
-1.55
-0.06
0.13
-0.34
-0.43

> <PUBCHEM_SHAPE_SELFOVERLAP>
542.082

> <PUBCHEM_SHAPE_VOLUME>
198.4

> <PUBCHEM_COORDINATE_TYPE>
2
5
10

$$$$

