439543
  -OEChem-07051212463D

 44 44  0     1  0  0  0  0  0999 V2000
   -0.7792    2.9621    0.3030 O   0  0  0  0  0  0  0  0  0  0  0  0
    0.8365    3.6661   -1.1742 O   0  0  0  0  0  0  0  0  0  0  0  0
   -1.1289   -0.9205   -2.2932 O   0  0  0  0  0  0  0  0  0  0  0  0
   -0.7614    0.4955   -0.4935 N   0  0  0  0  0  0  0  0  0  0  0  0
    3.4798   -1.2591    0.2327 N   0  0  0  0  0  0  0  0  0  0  0  0
    5.7918   -1.4773    0.8467 N   0  0  0  0  0  0  0  0  0  0  0  0
    4.6535   -3.2378   -0.0476 N   0  0  0  0  0  0  0  0  0  0  0  0
    1.6366    0.7579   -0.9383 C   0  0  0  0  0  0  0  0  0  0  0  0
    0.2262    1.3282   -1.1314 C   0  0  2  0  0  0  0  0  0  0  0  0
    2.1078    0.7461    0.5242 C   0  0  0  0  0  0  0  0  0  0  0  0
    3.4970    0.1348    0.6795 C   0  0  0  0  0  0  0  0  0  0  0  0
    0.1418    2.7814   -0.6848 C   0  0  0  0  0  0  0  0  0  0  0  0
   -1.3650   -0.5755   -1.1384 C   0  0  0  0  0  0  0  0  0  0  0  0
   -2.3827   -1.3195   -0.3524 C   0  0  0  0  0  0  0  0  0  0  0  0
   -0.9204    4.3030    0.7834 C   0  0  0  0  0  0  0  0  0  0  0  0
   -3.4123   -1.9956   -1.0071 C   0  0  0  0  0  0  0  0  0  0  0  0
   -2.3085   -1.3426    1.0404 C   0  0  0  0  0  0  0  0  0  0  0  0
    4.5874   -1.9231    0.3496 C   0  0  0  0  0  0  0  0  0  0  0  0
   -1.9749    4.3292    1.8692 C   0  0  0  0  0  0  0  0  0  0  0  0
   -4.3677   -2.6943   -0.2693 C   0  0  0  0  0  0  0  0  0  0  0  0
   -3.2639   -2.0416    1.7782 C   0  0  0  0  0  0  0  0  0  0  0  0
   -4.2936   -2.7174    1.1233 C   0  0  0  0  0  0  0  0  0  0  0  0
    1.6632   -0.2607   -1.3444 H   0  0  0  0  0  0  0  0  0  0  0  0
    2.3478    1.3497   -1.5288 H   0  0  0  0  0  0  0  0  0  0  0  0
   -0.0027    1.3363   -2.2048 H   0  0  0  0  0  0  0  0  0  0  0  0
    1.3977    0.1772    1.1363 H   0  0  0  0  0  0  0  0  0  0  0  0
    2.1287    1.7683    0.9189 H   0  0  0  0  0  0  0  0  0  0  0  0
    4.2165    0.7176    0.0917 H   0  0  0  0  0  0  0  0  0  0  0  0
    3.7820    0.1930    1.7369 H   0  0  0  0  0  0  0  0  0  0  0  0
   -1.0428    0.7569    0.4453 H   0  0  0  0  0  0  0  0  0  0  0  0
    0.0372    4.6479    1.1892 H   0  0  0  0  0  0  0  0  0  0  0  0
   -1.2229    4.9568   -0.0422 H   0  0  0  0  0  0  0  0  0  0  0  0
   -3.4899   -1.9861   -2.0911 H   0  0  0  0  0  0  0  0  0  0  0  0
   -1.5062   -0.8578    1.5885 H   0  0  0  0  0  0  0  0  0  0  0  0
   -2.9342    3.9691    1.4832 H   0  0  0  0  0  0  0  0  0  0  0  0
   -1.6951    3.6653    2.6939 H   0  0  0  0  0  0  0  0  0  0  0  0
   -2.1088    5.3415    2.2604 H   0  0  0  0  0  0  0  0  0  0  0  0
   -5.1699   -3.2201   -0.7789 H   0  0  0  0  0  0  0  0  0  0  0  0
   -3.2024   -2.0661    2.8624 H   0  0  0  0  0  0  0  0  0  0  0  0
   -5.0366   -3.2628    1.6977 H   0  0  0  0  0  0  0  0  0  0  0  0
    6.5981   -2.0911    0.8909 H   0  0  0  0  0  0  0  0  0  0  0  0
    5.9212   -0.5296    1.1825 H   0  0  0  0  0  0  0  0  0  0  0  0
    5.5102   -3.7743    0.0345 H   0  0  0  0  0  0  0  0  0  0  0  0
    3.8437   -3.7087   -0.4366 H   0  0  0  0  0  0  0  0  0  0  0  0
  1 12  1  0  0  0  0
  1 15  1  0  0  0  0
  2 12  2  0  0  0  0
  3 13  2  0  0  0  0
  4  9  1  0  0  0  0
  4 13  1  0  0  0  0
  4 30  1  0  0  0  0
  5 11  1  0  0  0  0
  5 18  2  0  0  0  0
  6 18  1  0  0  0  0
  6 41  1  0  0  0  0
  6 42  1  0  0  0  0
  7 18  1  0  0  0  0
  7 43  1  0  0  0  0
  7 44  1  0  0  0  0
  8  9  1  0  0  0  0
  8 10  1  0  0  0  0
  8 23  1  0  0  0  0
  8 24  1  0  0  0  0
  9 12  1  0  0  0  0
  9 25  1  0  0  0  0
 10 11  1  0  0  0  0
 10 26  1  0  0  0  0
 10 27  1  0  0  0  0
 11 28  1  0  0  0  0
 11 29  1  0  0  0  0
 13 14  1  0  0  0  0
 14 16  2  0  0  0  0
 14 17  1  0  0  0  0
 15 19  1  0  0  0  0
 15 31  1  0  0  0  0
 15 32  1  0  0  0  0
 16 20  1  0  0  0  0
 16 33  1  0  0  0  0
 17 21  2  0  0  0  0
 17 34  1  0  0  0  0
 19 35  1  0  0  0  0
 19 36  1  0  0  0  0
 19 37  1  0  0  0  0
 20 22  2  0  0  0  0
 20 38  1  0  0  0  0
 21 22  1  0  0  0  0
 21 39  1  0  0  0  0
 22 40  1  0  0  0  0
M  END
> <PUBCHEM_COMPOUND_CID>
439543

> <PUBCHEM_CONFORMER_RMSD>
1

> <PUBCHEM_CONFORMER_DIVERSEORDER>
1
31
89
51
52
103
85
65
81
46
42
79
33
98
37
47
69
109
108
32
58
70
6
49
26
106
99
67
3
61
48
72
19
22
101
62
25
74
55
38
76
35
40
82
10
21
93
92
36
104
64
20
53
30
96
94
43
23
24
2
7
68
95
59
100
84
41
105
50
12
91
107
11
71
13
8
57
88
17
34
29
28
44
56
80
63
77
73
60
14
66
45
16
90
86
102
18
78
39
97
27
83
4
15
9
87
54
5
75

> <PUBCHEM_MMFF94_PARTIAL_CHARGES>
29
1 -0.43
11 0.25
12 0.66
13 0.54
14 0.09
15 0.28
16 -0.15
17 -0.15
18 0.55
2 -0.57
20 -0.15
21 -0.15
22 -0.15
3 -0.57
30 0.37
33 0.15
34 0.15
38 0.15
39 0.15
4 -0.73
40 0.15
41 0.4
42 0.4
43 0.4
44 0.4
5 -0.7
6 -0.85
7 -0.85
9 0.36

> <PUBCHEM_EFFECTIVE_ROTOR_COUNT>
10

> <PUBCHEM_PHARMACOPHORE_FEATURES>
7
1 2 acceptor
1 3 acceptor
1 4 donor
1 6 donor
1 7 donor
4 5 6 7 18 cation
6 14 16 17 20 21 22 rings

> <PUBCHEM_HEAVY_ATOM_COUNT>
22

> <PUBCHEM_ATOM_DEF_STEREO_COUNT>
1

> <PUBCHEM_ATOM_UDEF_STEREO_COUNT>
0

> <PUBCHEM_BOND_DEF_STEREO_COUNT>
0

> <PUBCHEM_BOND_UDEF_STEREO_COUNT>
0

> <PUBCHEM_ISOTOPIC_ATOM_COUNT>
0

> <PUBCHEM_COMPONENT_COUNT>
1

> <PUBCHEM_CACTVS_TAUTO_COUNT>
4

> <PUBCHEM_CONFORMER_ID>
0006B4F700000001

> <PUBCHEM_MMFF94_ENERGY>
47.6983

> <PUBCHEM_FEATURE_SELFOVERLAP>
35.576

> <PUBCHEM_SHAPE_FINGERPRINT>
10074138 170 18194127536322453608
10670039 82 8715110216612870322
12107183 9 18411408523937559675
12363563 72 18272651234042935342
12549972 3 17462599357035833866
12633257 1 16371009555455218034
13134695 92 18191592947704458125
13135754 10 18264198283200710110
13533116 47 17910108015724418411
13583140 156 17544749033398180247
13955234 65 17688306786015763811
14866123 147 18051132793661122739
15422964 175 18341622468897510846
17868525 174 18265893558786028137
1813 80 18262225638965520166
20645477 70 17769952181387809279
20832881 197 18201439138887830203
21041028 32 18410011018229176854
21120745 212 18338782490751665868
21304304 249 18194670699963071593
21344244 78 18116997680745045793
23559900 14 17485659152401572823
3421961 26 18269558230434432098
474 4 16673583915980616921
484985 159 18057611068990746082
495365 180 17624160217005451159
5104073 3 18121237613211511770
5309563 4 18413110541540526162
5912855 24 18339913939945346596
6786 2 17469882650606410785
7097593 13 18119808002327367399
81228 2 18194709139588178164

> <PUBCHEM_SHAPE_MULTIPOLES>
415.22
9.08
5.8
1.64
5.97
7.74
-0.08
-14.43
3.1
0.11
2.11
-1.12
0.38
-1.11

> <PUBCHEM_SHAPE_SELFOVERLAP>
837.414

> <PUBCHEM_SHAPE_VOLUME>
240

> <PUBCHEM_COORDINATE_TYPE>
2
5
10

$$$$

