14066
  -OEChem-06241222413D

 17 16  0     0  0  0  0  0  0999 V2000
   -3.3230    0.3231    0.0143 O   0  0  0  0  0  0  0  0  0  0  0  0
    1.6605    1.3236    0.0002 O   0  0  0  0  0  0  0  0  0  0  0  0
   -0.9151    0.2334   -0.0144 C   0  0  0  0  0  0  0  0  0  0  0  0
    0.3059   -0.6793   -0.0271 C   0  0  0  0  0  0  0  0  0  0  0  0
   -2.2123   -0.5636    0.0074 C   0  0  0  0  0  0  0  0  0  0  0  0
    1.6122    0.0946   -0.0018 C   0  0  0  0  0  0  0  0  0  0  0  0
    2.8719   -0.7318    0.0214 C   0  0  0  0  0  0  0  0  0  0  0  0
   -0.9066    0.8955   -0.8896 H   0  0  0  0  0  0  0  0  0  0  0  0
   -0.8821    0.9007    0.8564 H   0  0  0  0  0  0  0  0  0  0  0  0
    0.2989   -1.3011   -0.9290 H   0  0  0  0  0  0  0  0  0  0  0  0
    0.2888   -1.3358    0.8500 H   0  0  0  0  0  0  0  0  0  0  0  0
   -2.2735   -1.2022    0.8945 H   0  0  0  0  0  0  0  0  0  0  0  0
   -2.2936   -1.1995   -0.8796 H   0  0  0  0  0  0  0  0  0  0  0  0
    2.8860   -1.3530    0.9203 H   0  0  0  0  0  0  0  0  0  0  0  0
    2.9147   -1.3594   -0.8722 H   0  0  0  0  0  0  0  0  0  0  0  0
    3.7450   -0.0736    0.0328 H   0  0  0  0  0  0  0  0  0  0  0  0
   -3.2543    0.8726    0.8136 H   0  0  0  0  0  0  0  0  0  0  0  0
  1  5  1  0  0  0  0
  1 17  1  0  0  0  0
  2  6  2  0  0  0  0
  3  4  1  0  0  0  0
  3  5  1  0  0  0  0
  3  8  1  0  0  0  0
  3  9  1  0  0  0  0
  4  6  1  0  0  0  0
  4 10  1  0  0  0  0
  4 11  1  0  0  0  0
  5 12  1  0  0  0  0
  5 13  1  0  0  0  0
  6  7  1  0  0  0  0
  7 14  1  0  0  0  0
  7 15  1  0  0  0  0
  7 16  1  0  0  0  0
M  END
> <PUBCHEM_COMPOUND_CID>
14066

> <PUBCHEM_CONFORMER_RMSD>
0.4

> <PUBCHEM_CONFORMER_DIVERSEORDER>
1
20
12
30
19
36
18
14
38
31
13
6
37
32
5
17
24
23
35
33
34
15
10
28
21
29
11
25
2
7
27
22
4
9
3
8
16
26

> <PUBCHEM_MMFF94_PARTIAL_CHARGES>
7
1 -0.68
17 0.4
2 -0.57
4 0.06
5 0.28
6 0.45
7 0.06

> <PUBCHEM_EFFECTIVE_ROTOR_COUNT>
3

> <PUBCHEM_PHARMACOPHORE_FEATURES>
3
1 1 acceptor
1 1 donor
1 2 acceptor

> <PUBCHEM_HEAVY_ATOM_COUNT>
7

> <PUBCHEM_ATOM_DEF_STEREO_COUNT>
0

> <PUBCHEM_ATOM_UDEF_STEREO_COUNT>
0

> <PUBCHEM_BOND_DEF_STEREO_COUNT>
0

> <PUBCHEM_BOND_UDEF_STEREO_COUNT>
0

> <PUBCHEM_ISOTOPIC_ATOM_COUNT>
0

> <PUBCHEM_COMPONENT_COUNT>
1

> <PUBCHEM_CACTVS_TAUTO_COUNT>
3

> <PUBCHEM_CONFORMER_ID>
000036F200000001

> <PUBCHEM_MMFF94_ENERGY>
3.4307

> <PUBCHEM_FEATURE_SELFOVERLAP>
15.223

> <PUBCHEM_SHAPE_FINGERPRINT>
11062470 55 13984666961880708499
12932764 1 17203338796834972011
14325111 11 18410575050519722311
14390081 3 18409732833398043817
20096714 4 18337673001518468396
21040471 1 18194402195459988302
29004967 10 18408602587000121938
3248919 1 16950554472270883487
5460574 1 9295289438902248199

> <PUBCHEM_SHAPE_MULTIPOLES>
132.32
4.71
1
0.59
1.86
0.16
0
-0.26
-0.05
-0.41
0
-0.03
-0.02
0

> <PUBCHEM_SHAPE_SELFOVERLAP>
235.036

> <PUBCHEM_SHAPE_VOLUME>
86.4

> <PUBCHEM_COORDINATE_TYPE>
2
5
10

$$$$

