102287
  -OEChem-07051212473D

 21 20  0     1  0  0  0  0  0999 V2000
   -0.2757   -1.0168    1.6046 O   0  0  0  0  0  0  0  0  0  0  0  0
   -0.1465   -1.6184   -1.1631 O   0  0  0  0  0  0  0  0  0  0  0  0
   -2.8146   -0.7804    0.9077 O   0  0  0  0  0  0  0  0  0  0  0  0
   -3.9502    1.0035   -0.7242 O   0  0  0  0  0  0  0  0  0  0  0  0
    2.4479   -1.3870   -0.5270 O   0  0  0  0  0  0  0  0  0  0  0  0
    3.7065    0.7043    0.2658 O   0  0  0  0  0  0  0  0  0  0  0  0
    1.7664    1.9174    0.2492 O   0  0  0  0  0  0  0  0  0  0  0  0
   -0.5384   -0.0381    0.6075 C   0  0  1  0  0  0  0  0  0  0  0  0
    0.2538   -0.3499   -0.6626 C   0  0  1  0  0  0  0  0  0  0  0  0
   -2.0426    0.0013    0.3518 C   0  0  0  0  0  0  0  0  0  0  0  0
    1.7453   -0.3960   -0.3863 C   0  0  0  0  0  0  0  0  0  0  0  0
   -2.5440    1.0694   -0.6019 C   0  0  0  0  0  0  0  0  0  0  0  0
    2.3920    0.8907    0.0784 C   0  0  0  0  0  0  0  0  0  0  0  0
   -0.2657    0.9314    1.0331 H   0  0  0  0  0  0  0  0  0  0  0  0
    0.0743    0.3915   -1.4476 H   0  0  0  0  0  0  0  0  0  0  0  0
   -2.2613    2.0587   -0.2320 H   0  0  0  0  0  0  0  0  0  0  0  0
   -2.1179    0.9082   -1.5939 H   0  0  0  0  0  0  0  0  0  0  0  0
   -0.7075   -0.7230    2.4249 H   0  0  0  0  0  0  0  0  0  0  0  0
    0.2933   -1.7466   -2.0210 H   0  0  0  0  0  0  0  0  0  0  0  0
   -4.3298    1.2318    0.1415 H   0  0  0  0  0  0  0  0  0  0  0  0
    4.1573    1.5201    0.5714 H   0  0  0  0  0  0  0  0  0  0  0  0
  1  8  1  0  0  0  0
  1 18  1  0  0  0  0
  2  9  1  0  0  0  0
  2 19  1  0  0  0  0
  3 10  2  0  0  0  0
  4 12  1  0  0  0  0
  4 20  1  0  0  0  0
  5 11  2  0  0  0  0
  6 13  1  0  0  0  0
  6 21  1  0  0  0  0
  7 13  2  0  0  0  0
  8  9  1  0  0  0  0
  8 10  1  0  0  0  0
  8 14  1  0  0  0  0
  9 11  1  0  0  0  0
  9 15  1  0  0  0  0
 10 12  1  0  0  0  0
 11 13  1  0  0  0  0
 12 16  1  0  0  0  0
 12 17  1  0  0  0  0
M  END
> <PUBCHEM_COMPOUND_CID>
102287

> <PUBCHEM_CONFORMER_RMSD>
0.6

> <PUBCHEM_CONFORMER_DIVERSEORDER>
1
55
37
17
10
28
58
83
44
2
71
52
39
18
79
68
13
56
15
65
69
75
77
40
31
66
16
8
27
46
4
11
73
19
70
78
53
84
62
24
43
47
5
81
64
50
22
3
20
80
6
21
9
61
72
29
41
51
34
38
49
76
48
14
12
63
25
45
7
67
74
30
23
59
60
57
26
42
32
35
33
36
82
54

> <PUBCHEM_MMFF94_PARTIAL_CHARGES>
17
1 -0.68
10 0.45
11 0.51
12 0.34
13 0.72
18 0.4
19 0.4
2 -0.68
20 0.4
21 0.5
3 -0.57
4 -0.68
5 -0.57
6 -0.65
7 -0.57
8 0.34
9 0.34

> <PUBCHEM_EFFECTIVE_ROTOR_COUNT>
5

> <PUBCHEM_PHARMACOPHORE_FEATURES>
11
1 1 acceptor
1 1 donor
1 2 acceptor
1 2 donor
1 3 acceptor
1 4 acceptor
1 4 donor
1 5 acceptor
1 6 acceptor
1 7 acceptor
3 6 7 13 anion

> <PUBCHEM_HEAVY_ATOM_COUNT>
13

> <PUBCHEM_ATOM_DEF_STEREO_COUNT>
2

> <PUBCHEM_ATOM_UDEF_STEREO_COUNT>
0

> <PUBCHEM_BOND_DEF_STEREO_COUNT>
0

> <PUBCHEM_BOND_UDEF_STEREO_COUNT>
0

> <PUBCHEM_ISOTOPIC_ATOM_COUNT>
0

> <PUBCHEM_COMPONENT_COUNT>
1

> <PUBCHEM_CACTVS_TAUTO_COUNT>
63

> <PUBCHEM_CONFORMER_ID>
00018F8F00000001

> <PUBCHEM_MMFF94_ENERGY>
8.8253

> <PUBCHEM_FEATURE_SELFOVERLAP>
55.917

> <PUBCHEM_SHAPE_FINGERPRINT>
12119455 92 18337966656911667508
124424 183 18272656766007778768
12716758 59 18059567023098808579
12932764 1 18342161276639548115
14993402 34 17895188935350570550
15219456 202 18411975875609713291
15775835 57 18041000622096196604
16945 1 18259697895981880446
18186145 218 17894900845670582167
19973954 147 18411691106256332777
20201158 50 18410292523149638016
20606313 2 18335144227648486261
20715346 28 18341321240991724503
21947302 44 18410011065368497380
22096605 113 18260839163345330037
23211744 41 18342166761412940515
23402539 116 18130796599340527191
23402655 69 18188218709907237365
305870 269 17561092444135556515
3248919 1 17095517426687691623
4047638 21 18340484573305369897
5084963 1 18130207320588448983
7364860 26 17843133751160747219

> <PUBCHEM_SHAPE_MULTIPOLES>
226.45
5.38
1.5
1.06
1.19
0.13
-0.15
1.91
0.37
-0.4
0.14
0.34
-0.33
0.75

> <PUBCHEM_SHAPE_SELFOVERLAP>
447.231

> <PUBCHEM_SHAPE_VOLUME>
132.7

> <PUBCHEM_COORDINATE_TYPE>
2
5
10

$$$$

