5491176
  -OEChem-07051213113D

 77 82  0     1  0  0  0  0  0999 V2000
    3.4986    4.2871   -1.0911 O   0  0  0  0  0  0  0  0  0  0  0  0
    4.9339    2.2366   -2.7435 O   0  0  0  0  0  0  0  0  0  0  0  0
    3.3698    0.6082   -3.0568 O   0  0  0  0  0  0  0  0  0  0  0  0
    6.1559   -2.4597    3.7192 O   0  0  0  0  0  0  0  0  0  0  0  0
    4.3748   -1.0905    4.0540 O   0  0  0  0  0  0  0  0  0  0  0  0
    0.9748   -1.0803   -0.6561 N   0  0  0  0  0  0  0  0  0  0  0  0
   -0.0904    1.6135    0.0780 N   0  0  0  0  0  0  0  0  0  0  0  0
   -1.7497   -2.0903    0.1201 N   0  0  0  0  0  0  0  0  0  0  0  0
   -2.6961    0.8314    0.3692 N   0  0  0  0  0  0  0  0  0  0  0  0
    3.2764   -1.3015   -0.1019 C   0  0  1  0  0  0  0  0  0  0  0  0
    2.7080   -2.6952   -0.4028 C   0  0  1  0  0  0  0  0  0  0  0  0
    2.0963   -0.4436   -0.4952 C   0  0  0  0  0  0  0  0  0  0  0  0
    2.2233    1.0169   -0.6101 C   0  0  0  0  0  0  0  0  0  0  0  0
    3.5934   -1.1147    1.3787 C   0  0  0  0  0  0  0  0  0  0  0  0
    1.2211   -2.4150   -0.4598 C   0  0  0  0  0  0  0  0  0  0  0  0
    3.4511    1.8240   -0.9765 C   0  0  2  0  0  0  0  0  0  0  0  0
    1.1858    1.7953   -0.3168 C   0  0  0  0  0  0  0  0  0  0  0  0
    3.2222   -3.2324   -1.7390 C   0  0  0  0  0  0  0  0  0  0  0  0
    1.4828    3.1756   -0.4373 C   0  0  0  0  0  0  0  0  0  0  0  0
    2.8958    3.2542   -0.8577 C   0  0  0  0  0  0  0  0  0  0  0  0
    4.7677   -1.9672    1.8389 C   0  0  0  0  0  0  0  0  0  0  0  0
    0.2919   -3.3772   -0.3322 C   0  0  0  0  0  0  0  0  0  0  0  0
    0.4163    3.9160   -0.1452 C   0  0  0  0  0  0  0  0  0  0  0  0
   -0.5619    2.8308    0.1690 C   0  0  0  0  0  0  0  0  0  0  0  0
    3.8838    1.4701   -2.3596 C   0  0  0  0  0  0  0  0  0  0  0  0
   -1.1147   -3.1967   -0.4096 C   0  0  0  0  0  0  0  0  0  0  0  0
    0.1975    5.3728   -0.1271 C   0  0  0  0  0  0  0  0  0  0  0  0
   -1.9484    3.1569    0.5765 C   0  0  0  0  0  0  0  0  0  0  0  0
   -2.1016   -4.0292   -0.9005 C   0  0  0  0  0  0  0  0  0  0  0  0
    5.0620   -1.7739    3.3057 C   0  0  0  0  0  0  0  0  0  0  0  0
   -2.8532    2.1664    0.6638 C   0  0  0  0  0  0  0  0  0  0  0  0
   -3.1173   -2.1948   -0.0460 C   0  0  0  0  0  0  0  0  0  0  0  0
   -3.3485   -3.4037   -0.6775 C   0  0  0  0  0  0  0  0  0  0  0  0
   -4.2435    2.2928    1.1156 C   0  0  0  0  0  0  0  0  0  0  0  0
   -3.8177    0.0858    0.6084 C   0  0  0  0  0  0  0  0  0  0  0  0
   -4.8148    1.0635    1.0899 C   0  0  0  0  0  0  0  0  0  0  0  0
   -4.0406   -1.2289    0.4442 C   0  0  0  0  0  0  0  0  0  0  0  0
   -1.8872   -5.3468   -1.5419 C   0  0  0  0  0  0  0  0  0  0  0  0
   -4.8389    3.5968    1.5220 C   0  0  0  0  0  0  0  0  0  0  0  0
   -6.2062    0.6807    1.4649 C   0  0  0  0  0  0  0  0  0  0  0  0
   -4.6218   -3.9156   -1.0254 C   0  0  0  0  0  0  0  0  0  0  0  0
   -5.4854    4.3178    0.3508 C   0  0  0  0  0  0  0  0  0  0  0  0
   -5.7458   -3.2358   -1.3595 C   0  0  0  0  0  0  0  0  0  0  0  0
    4.1507   -1.0629   -0.7167 H   0  0  0  0  0  0  0  0  0  0  0  0
    2.9298   -3.4260    0.3808 H   0  0  0  0  0  0  0  0  0  0  0  0
    3.8203   -0.0592    1.5769 H   0  0  0  0  0  0  0  0  0  0  0  0
    2.7078   -1.3403    1.9886 H   0  0  0  0  0  0  0  0  0  0  0  0
    4.2530    1.6618   -0.2512 H   0  0  0  0  0  0  0  0  0  0  0  0
    2.7713   -4.2034   -1.9708 H   0  0  0  0  0  0  0  0  0  0  0  0
    2.9956   -2.5522   -2.5679 H   0  0  0  0  0  0  0  0  0  0  0  0
    4.3083   -3.3690   -1.7027 H   0  0  0  0  0  0  0  0  0  0  0  0
    5.6651   -1.6899    1.2744 H   0  0  0  0  0  0  0  0  0  0  0  0
    4.5732   -3.0327    1.6886 H   0  0  0  0  0  0  0  0  0  0  0  0
    0.6400   -4.4018   -0.2162 H   0  0  0  0  0  0  0  0  0  0  0  0
    1.0993    5.9148   -0.4291 H   0  0  0  0  0  0  0  0  0  0  0  0
   -0.6060    5.6508   -0.8161 H   0  0  0  0  0  0  0  0  0  0  0  0
   -0.0742    5.7095    0.8780 H   0  0  0  0  0  0  0  0  0  0  0  0
   -2.1808    4.1865    0.8170 H   0  0  0  0  0  0  0  0  0  0  0  0
   -1.2783   -1.3383    0.6032 H   0  0  0  0  0  0  0  0  0  0  0  0
   -1.8433    0.4594   -0.0168 H   0  0  0  0  0  0  0  0  0  0  0  0
   -5.0241   -1.6078    0.7099 H   0  0  0  0  0  0  0  0  0  0  0  0
   -2.5660   -5.4896   -2.3893 H   0  0  0  0  0  0  0  0  0  0  0  0
   -0.8687   -5.4533   -1.9286 H   0  0  0  0  0  0  0  0  0  0  0  0
   -2.0628   -6.1523   -0.8215 H   0  0  0  0  0  0  0  0  0  0  0  0
   -5.6039    3.4289    2.2898 H   0  0  0  0  0  0  0  0  0  0  0  0
   -4.0980    4.2447    2.0030 H   0  0  0  0  0  0  0  0  0  0  0  0
    5.2343    2.0181   -3.6514 H   0  0  0  0  0  0  0  0  0  0  0  0
   -6.2002   -0.0257    2.3015 H   0  0  0  0  0  0  0  0  0  0  0  0
   -6.8032    1.5452    1.7695 H   0  0  0  0  0  0  0  0  0  0  0  0
   -6.7207    0.2161    0.6173 H   0  0  0  0  0  0  0  0  0  0  0  0
   -4.7123   -5.0009   -1.0513 H   0  0  0  0  0  0  0  0  0  0  0  0
    6.3269   -2.3336    4.6769 H   0  0  0  0  0  0  0  0  0  0  0  0
   -5.9328    5.2585    0.6877 H   0  0  0  0  0  0  0  0  0  0  0  0
   -6.2780    3.7124   -0.1020 H   0  0  0  0  0  0  0  0  0  0  0  0
   -4.7511    4.5546   -0.4264 H   0  0  0  0  0  0  0  0  0  0  0  0
   -6.6491   -3.7830   -1.6109 H   0  0  0  0  0  0  0  0  0  0  0  0
   -5.7875   -2.1557   -1.4277 H   0  0  0  0  0  0  0  0  0  0  0  0
  1 20  2  0  0  0  0
  2 25  1  0  0  0  0
  2 67  1  0  0  0  0
  3 25  2  0  0  0  0
  4 30  1  0  0  0  0
  4 72  1  0  0  0  0
  5 30  2  0  0  0  0
  6 12  2  0  0  0  0
  6 15  1  0  0  0  0
  7 17  1  0  0  0  0
  7 24  2  0  0  0  0
  8 26  1  0  0  0  0
  8 32  1  0  0  0  0
  8 59  1  0  0  0  0
  9 31  1  0  0  0  0
  9 35  1  0  0  0  0
  9 60  1  0  0  0  0
 10 11  1  0  0  0  0
 10 12  1  0  0  0  0
 10 14  1  0  0  0  0
 10 44  1  0  0  0  0
 11 15  1  0  0  0  0
 11 18  1  0  0  0  0
 11 45  1  0  0  0  0
 12 13  1  0  0  0  0
 13 16  1  0  0  0  0
 13 17  2  0  0  0  0
 14 21  1  0  0  0  0
 14 46  1  0  0  0  0
 14 47  1  0  0  0  0
 15 22  2  0  0  0  0
 16 20  1  0  0  0  0
 16 25  1  0  0  0  0
 16 48  1  0  0  0  0
 17 19  1  0  0  0  0
 18 49  1  0  0  0  0
 18 50  1  0  0  0  0
 18 51  1  0  0  0  0
 19 20  1  0  0  0  0
 19 23  2  0  0  0  0
 21 30  1  0  0  0  0
 21 52  1  0  0  0  0
 21 53  1  0  0  0  0
 22 26  1  0  0  0  0
 22 54  1  0  0  0  0
 23 24  1  0  0  0  0
 23 27  1  0  0  0  0
 24 28  1  0  0  0  0
 26 29  2  0  0  0  0
 27 55  1  0  0  0  0
 27 56  1  0  0  0  0
 27 57  1  0  0  0  0
 28 31  2  0  0  0  0
 28 58  1  0  0  0  0
 29 33  1  0  0  0  0
 29 38  1  0  0  0  0
 31 34  1  0  0  0  0
 32 33  2  0  0  0  0
 32 37  1  0  0  0  0
 33 41  1  0  0  0  0
 34 36  2  0  0  0  0
 34 39  1  0  0  0  0
 35 36  1  0  0  0  0
 35 37  2  0  0  0  0
 36 40  1  0  0  0  0
 37 61  1  0  0  0  0
 38 62  1  0  0  0  0
 38 63  1  0  0  0  0
 38 64  1  0  0  0  0
 39 42  1  0  0  0  0
 39 65  1  0  0  0  0
 39 66  1  0  0  0  0
 40 68  1  0  0  0  0
 40 69  1  0  0  0  0
 40 70  1  0  0  0  0
 41 43  2  0  0  0  0
 41 71  1  0  0  0  0
 42 73  1  0  0  0  0
 42 74  1  0  0  0  0
 42 75  1  0  0  0  0
 43 76  1  0  0  0  0
 43 77  1  0  0  0  0
M  END
> <PUBCHEM_COMPOUND_CID>
5491176

> <PUBCHEM_CONFORMER_RMSD>
1

> <PUBCHEM_CONFORMER_DIVERSEORDER>
1

> <PUBCHEM_MMFF94_PARTIAL_CHARGES>
50
1 -0.57
10 0.06
11 0.14
12 0.37
13 -0.12
15 0.03
16 0.26
17 0.17
19 0.01
2 -0.65
20 0.49
21 0.06
22 -0.11
23 -0.12
24 0.42
25 0.66
26 -0.2
27 0.14
28 -0.14
29 -0.18
3 -0.57
30 0.66
31 0.1
32 -0.2
33 -0.05
34 -0.14
35 0.1
36 -0.14
37 -0.11
38 0.18
39 0.14
4 -0.65
40 0.14
41 -0.1
43 -0.3
5 -0.57
54 0.15
58 0.15
59 0.27
6 -0.62
60 0.4
61 0.15
67 0.5
7 -0.62
71 0.15
72 0.5
76 0.15
77 0.15
8 0.03
9 -0.6

> <PUBCHEM_EFFECTIVE_ROTOR_COUNT>
6.6

> <PUBCHEM_PHARMACOPHORE_FEATURES>
21
1 1 acceptor
1 16 anion
1 2 acceptor
1 3 acceptor
1 4 acceptor
1 42 hydrophobe
1 43 hydrophobe
1 5 acceptor
1 6 acceptor
1 7 acceptor
1 8 cation
1 8 donor
1 9 cation
1 9 donor
3 2 3 25 anion
3 4 5 30 anion
5 13 16 17 19 20 rings
5 6 10 11 12 15 rings
5 7 17 19 23 24 rings
5 8 26 29 32 33 rings
5 9 31 34 35 36 rings

> <PUBCHEM_HEAVY_ATOM_COUNT>
43

> <PUBCHEM_ATOM_DEF_STEREO_COUNT>
3

> <PUBCHEM_ATOM_UDEF_STEREO_COUNT>
0

> <PUBCHEM_BOND_DEF_STEREO_COUNT>
0

> <PUBCHEM_BOND_UDEF_STEREO_COUNT>
0

> <PUBCHEM_ISOTOPIC_ATOM_COUNT>
0

> <PUBCHEM_COMPONENT_COUNT>
1

> <PUBCHEM_CACTVS_TAUTO_COUNT>
109

> <PUBCHEM_CONFORMER_ID>
0053C9E800000001

> <PUBCHEM_MMFF94_ENERGY>
125.1307

> <PUBCHEM_FEATURE_SELFOVERLAP>
107.255

> <PUBCHEM_SHAPE_FINGERPRINT>
10190206 1 18050271588351963500
10439779 11 18334860532168409177
10653451 467 17395020193938683902
11093857 51 17904465643344745687
11513181 2 18114445817379021255
12788726 201 18264764351332491191
1361 2 17975692016115341177
14028597 1 17837510552834128488
14117953 113 17977938317743367869
14395042 24 18409175411880208555
15001296 14 18266167353881087529
15297060 5 17898266532605193658
15320467 1 18191574256175389573
15351339 4 17183069038258326947
15444296 121 18342175566428973754
16628084 112 18411135793867690983
18681886 176 18124013883938838334
19319366 153 17845352393884727744
20764821 26 18338509841599763527
21033648 29 17969794157506424170
21133410 171 17468523275930146239
22113638 7 18337103596619519983
22393880 68 18189881037774580381
24941158 1 15554441869473509534
3882209 13 18119841082429147199
44344687 77 16097706952765347047
474144 1 18198912413743082698
4756261 7 17830485811567053496
6371009 1 18336840753343269359

> <PUBCHEM_SHAPE_MULTIPOLES>
835.65
12.51
8.2
2.51
4.12
0.76
-2.11
-1
-5.66
5.46
2.75
-6.12
-1.13
-6.71

> <PUBCHEM_SHAPE_SELFOVERLAP>
1858.276

> <PUBCHEM_SHAPE_VOLUME>
450.4

> <PUBCHEM_COORDINATE_TYPE>
2
5
10

$$$$

