23724663
  -OEChem-07051213082D

 61 64  0     1  0  0  0  0  0999 V2000
   12.4583   -0.3973    0.0000 O   0  0  0  0  0  0  0  0  0  0  0  0
   14.1981   -2.3906    0.0000 O   0  0  0  0  0  0  0  0  0  0  0  0
   12.4699   -3.3973    0.0000 O   0  0  0  0  0  0  0  0  0  0  0  0
   10.7263   -0.4040    0.0000 O   0  0  0  0  0  0  0  0  0  0  0  0
   10.7340   -2.4039    0.0000 O   0  0  0  0  0  0  0  0  0  0  0  0
   14.1865    0.6094    0.0000 O   0  0  0  0  0  0  0  0  0  0  0  0
    7.1962   -0.4281    0.0000 O   0  0  0  0  0  0  0  0  0  0  0  0
   15.9185    0.6161    0.0000 O   0  0  0  0  0  0  0  0  0  0  0  0
    7.1962   -3.4281    0.0000 O   0  0  0  0  0  0  0  0  0  0  0  0
   15.9070    3.6160    0.0000 O   0  0  0  0  0  0  0  0  0  0  0  0
   16.7788    2.1194    0.0000 O   0  0  0  0  0  0  0  0  0  0  0  0
    2.8660   -3.9281    0.0000 O   0  0  0  0  0  0  0  0  0  0  0  0
   13.3301   -1.8939    0.0000 C   0  0  1  0  0  0  0  0  0  0  0  0
   12.4660   -2.3973    0.0000 C   0  0  1  0  0  0  0  0  0  0  0  0
   13.3263   -0.8939    0.0000 C   0  0  1  0  0  0  0  0  0  0  0  0
   11.5981   -1.9006    0.0000 C   0  0  2  0  0  0  0  0  0  0  0  0
   11.5942   -0.9006    0.0000 C   0  0  1  0  0  0  0  0  0  0  0  0
   14.1904   -0.3906    0.0000 C   0  0  0  0  0  0  0  0  0  0  0  0
    9.8622   -0.9073    0.0000 C   0  0  0  0  0  0  0  0  0  0  0  0
    8.9561   -0.3934    0.0000 C   0  0  0  0  0  0  0  0  0  0  0  0
    9.8622   -1.9489    0.0000 C   0  0  0  0  0  0  0  0  0  0  0  0
   15.0506    1.1127    0.0000 C   0  0  0  0  0  0  0  0  0  0  0  0
    8.0622   -0.9281    0.0000 C   0  0  0  0  0  0  0  0  0  0  0  0
    8.0622   -1.9281    0.0000 C   0  0  0  0  0  0  0  0  0  0  0  0
    8.9561   -2.4628    0.0000 C   0  0  0  0  0  0  0  0  0  0  0  0
   15.0467    2.1127    0.0000 C   0  0  0  0  0  0  0  0  0  0  0  0
    7.1962   -2.4281    0.0000 C   0  0  0  0  0  0  0  0  0  0  0  0
    6.3301   -1.9281    0.0000 C   0  0  0  0  0  0  0  0  0  0  0  0
    6.3301   -0.9281    0.0000 C   0  0  0  0  0  0  0  0  0  0  0  0
    5.4641   -2.4281    0.0000 C   0  0  0  0  0  0  0  0  0  0  0  0
   15.9108    2.6160    0.0000 C   0  0  0  0  0  0  0  0  0  0  0  0
    4.5981   -1.9281    0.0000 C   0  0  0  0  0  0  0  0  0  0  0  0
    5.4641   -3.4281    0.0000 C   0  0  0  0  0  0  0  0  0  0  0  0
    3.7320   -2.4281    0.0000 C   0  0  0  0  0  0  0  0  0  0  0  0
    4.5981   -3.9281    0.0000 C   0  0  0  0  0  0  0  0  0  0  0  0
    3.7320   -3.4281    0.0000 C   0  0  0  0  0  0  0  0  0  0  0  0
    2.0000   -3.4281    0.0000 C   0  0  0  0  0  0  0  0  0  0  0  0
   13.8659   -1.5819    0.0000 H   0  0  0  0  0  0  0  0  0  0  0  0
   11.9303   -2.7093    0.0000 H   0  0  0  0  0  0  0  0  0  0  0  0
   13.3239   -0.2739    0.0000 H   0  0  0  0  0  0  0  0  0  0  0  0
   11.0600   -1.5927    0.0000 H   0  0  0  0  0  0  0  0  0  0  0  0
   11.5918   -0.2806    0.0000 H   0  0  0  0  0  0  0  0  0  0  0  0
   14.4047   -0.9724    0.0000 H   0  0  0  0  0  0  0  0  0  0  0  0
   14.8005   -0.2806    0.0000 H   0  0  0  0  0  0  0  0  0  0  0  0
   14.7338   -2.0785    0.0000 H   0  0  0  0  0  0  0  0  0  0  0  0
   13.0080   -3.7052    0.0000 H   0  0  0  0  0  0  0  0  0  0  0  0
   10.7364   -3.0239    0.0000 H   0  0  0  0  0  0  0  0  0  0  0  0
    8.9490    0.2265    0.0000 H   0  0  0  0  0  0  0  0  0  0  0  0
   10.3979   -2.2610    0.0000 H   0  0  0  0  0  0  0  0  0  0  0  0
    8.9490   -3.0827    0.0000 H   0  0  0  0  0  0  0  0  0  0  0  0
   14.8324    2.6945    0.0000 H   0  0  0  0  0  0  0  0  0  0  0  0
   14.4366    2.0027    0.0000 H   0  0  0  0  0  0  0  0  0  0  0  0
    5.7932   -0.6181    0.0000 H   0  0  0  0  0  0  0  0  0  0  0  0
    4.5981   -1.3081    0.0000 H   0  0  0  0  0  0  0  0  0  0  0  0
    6.0010   -3.7381    0.0000 H   0  0  0  0  0  0  0  0  0  0  0  0
    3.1951   -2.1181    0.0000 H   0  0  0  0  0  0  0  0  0  0  0  0
    4.5981   -4.5481    0.0000 H   0  0  0  0  0  0  0  0  0  0  0  0
   16.4427    3.9281    0.0000 H   0  0  0  0  0  0  0  0  0  0  0  0
    2.3100   -2.8912    0.0000 H   0  0  0  0  0  0  0  0  0  0  0  0
    1.4631   -3.1181    0.0000 H   0  0  0  0  0  0  0  0  0  0  0  0
    1.6900   -3.9650    0.0000 H   0  0  0  0  0  0  0  0  0  0  0  0
  1 15  1  0  0  0  0
  1 17  1  0  0  0  0
 13  2  1  1  0  0  0
  2 45  1  0  0  0  0
 14  3  1  6  0  0  0
  3 46  1  0  0  0  0
 17  4  1  6  0  0  0
  4 19  1  0  0  0  0
 16  5  1  1  0  0  0
  5 47  1  0  0  0  0
  6 18  1  0  0  0  0
  6 22  1  0  0  0  0
  7 23  1  0  0  0  0
  7 29  1  0  0  0  0
  8 22  2  0  0  0  0
  9 27  2  0  0  0  0
 10 31  1  0  0  0  0
 10 58  1  0  0  0  0
 11 31  2  0  0  0  0
 12 36  1  0  0  0  0
 12 37  1  0  0  0  0
 13 14  1  0  0  0  0
 13 15  1  0  0  0  0
 13 38  1  0  0  0  0
 14 16  1  0  0  0  0
 14 39  1  0  0  0  0
 15 18  1  6  0  0  0
 15 40  1  0  0  0  0
 16 17  1  0  0  0  0
 16 41  1  0  0  0  0
 17 42  1  0  0  0  0
 18 43  1  0  0  0  0
 18 44  1  0  0  0  0
 19 20  2  0  0  0  0
 19 21  1  0  0  0  0
 20 23  1  0  0  0  0
 20 48  1  0  0  0  0
 21 25  2  0  0  0  0
 21 49  1  0  0  0  0
 22 26  1  0  0  0  0
 23 24  2  0  0  0  0
 24 25  1  0  0  0  0
 24 27  1  0  0  0  0
 25 50  1  0  0  0  0
 26 31  1  0  0  0  0
 26 51  1  0  0  0  0
 26 52  1  0  0  0  0
 27 28  1  0  0  0  0
 28 29  2  0  0  0  0
 28 30  1  0  0  0  0
 29 53  1  0  0  0  0
 30 32  2  0  0  0  0
 30 33  1  0  0  0  0
 32 34  1  0  0  0  0
 32 54  1  0  0  0  0
 33 35  2  0  0  0  0
 33 55  1  0  0  0  0
 34 36  2  0  0  0  0
 34 56  1  0  0  0  0
 35 36  1  0  0  0  0
 35 57  1  0  0  0  0
 37 59  1  0  0  0  0
 37 60  1  0  0  0  0
 37 61  1  0  0  0  0
M  END
> <PUBCHEM_COMPOUND_CID>
23724663

> <PUBCHEM_COMPOUND_CANONICALIZED>
1

> <PUBCHEM_CACTVS_COMPLEXITY>
866

> <PUBCHEM_CACTVS_HBOND_ACCEPTOR>
12

> <PUBCHEM_CACTVS_HBOND_DONOR>
4

> <PUBCHEM_CACTVS_ROTATABLE_BOND>
9

> <PUBCHEM_CACTVS_SUBSKEYS>
AAADceB4PAAAAAAAAAAAAAAAAAAAAAAAAAA0YIEAAAAAAACBQAAAGgAACAAADBSwmAMyDoAABgCIAqDSCAACCAAkIAAIiAEGCMgdNzaMNRqieWCl4BUPqYfI7PzOIAAACAAIAABAAAAQABAAAAAAAAAAAA==

> <PUBCHEM_IUPAC_OPENEYE_NAME>
3-oxo-3-[[(2R,3S,4S,5R,6S)-3,4,5-trihydroxy-6-[3-(4-methoxyphenyl)-4-oxo-chromen-7-yl]oxy-tetrahydropyran-2-yl]methoxy]propanoic acid

> <PUBCHEM_IUPAC_CAS_NAME>
3-oxo-3-[[(2R,3S,4S,5R,6S)-3,4,5-trihydroxy-6-[[3-(4-methoxyphenyl)-4-oxo-1-benzopyran-7-yl]oxy]-2-oxanyl]methoxy]propanoic acid

> <PUBCHEM_IUPAC_NAME>
3-oxo-3-[[(2R,3S,4S,5R,6S)-3,4,5-trihydroxy-6-[3-(4-methoxyphenyl)-4-oxochromen-7-yl]oxyoxan-2-yl]methoxy]propanoic acid

> <PUBCHEM_IUPAC_SYSTEMATIC_NAME>
3-[[(2R,3S,4S,5R,6S)-6-[3-(4-methoxyphenyl)-4-oxidanylidene-chromen-7-yl]oxy-3,4,5-tris(oxidanyl)oxan-2-yl]methoxy]-3-oxidanylidene-propanoic acid

> <PUBCHEM_IUPAC_TRADITIONAL_NAME>
3-keto-3-[[(2R,3S,4S,5R,6S)-3,4,5-trihydroxy-6-[4-keto-3-(4-methoxyphenyl)chromen-7-yl]oxy-tetrahydropyran-2-yl]methoxy]propionic acid

> <PUBCHEM_IUPAC_INCHI>
InChI=1S/C25H24O12/c1-33-13-4-2-12(3-5-13)16-10-34-17-8-14(6-7-15(17)21(16)29)36-25-24(32)23(31)22(30)18(37-25)11-35-20(28)9-19(26)27/h2-8,10,18,22-25,30-32H,9,11H2,1H3,(H,26,27)/t18-,22-,23+,24-,25-/m1/s1

> <PUBCHEM_IUPAC_INCHIKEY>
RDTAGQKYPGLCBK-GOZZSVHWSA-N

> <PUBCHEM_XLOGP3_AA>
0.7

> <PUBCHEM_EXACT_MASS>
516.126776

> <PUBCHEM_MOLECULAR_FORMULA>
C25H24O12

> <PUBCHEM_MOLECULAR_WEIGHT>
516.45086

> <PUBCHEM_OPENEYE_CAN_SMILES>
COC1=CC=C(C=C1)C2=COC3=C(C2=O)C=CC(=C3)OC4C(C(C(C(O4)COC(=O)CC(=O)O)O)O)O

> <PUBCHEM_OPENEYE_ISO_SMILES>
COC1=CC=C(C=C1)C2=COC3=C(C2=O)C=CC(=C3)O[C@H]4[C@@H]([C@H]([C@@H]([C@H](O4)COC(=O)CC(=O)O)O)O)O

> <PUBCHEM_CACTVS_TPSA>
178

> <PUBCHEM_MONOISOTOPIC_WEIGHT>
516.126776

> <PUBCHEM_TOTAL_CHARGE>
0

> <PUBCHEM_HEAVY_ATOM_COUNT>
37

> <PUBCHEM_ATOM_DEF_STEREO_COUNT>
5

> <PUBCHEM_ATOM_UDEF_STEREO_COUNT>
0

> <PUBCHEM_BOND_DEF_STEREO_COUNT>
0

> <PUBCHEM_BOND_UDEF_STEREO_COUNT>
0

> <PUBCHEM_ISOTOPIC_ATOM_COUNT>
0

> <PUBCHEM_COMPONENT_COUNT>
1

> <PUBCHEM_CACTVS_TAUTO_COUNT>
1

> <PUBCHEM_COORDINATE_TYPE>
1
5
255

> <PUBCHEM_BONDANNOTATIONS>
15  18  6
19  20  8
19  21  8
13  2  5
20  23  8
21  25  8
23  24  8
24  25  8
24  27  8
27  28  8
28  29  8
14  3  6
30  32  8
30  33  8
32  34  8
33  35  8
34  36  8
35  36  8
17  4  6
16  5  5
7  23  8
7  29  8

$$$$

