174880
  -OEChem-07051212573D

 52 55  0     1  0  0  0  0  0999 V2000
   -3.7077   -1.7424    0.0375 O   0  0  0  0  0  0  0  0  0  0  0  0
    0.9589   -1.1983   -0.1057 O   0  0  0  0  0  0  0  0  0  0  0  0
   -3.2802    3.8362    1.1312 O   0  0  0  0  0  0  0  0  0  0  0  0
   -3.6462   -4.0204    0.3840 O   0  0  0  0  0  0  0  0  0  0  0  0
   -5.5025    0.0075   -2.2908 O   0  0  0  0  0  0  0  0  0  0  0  0
    2.3802    0.0920    1.1732 O   0  0  0  0  0  0  0  0  0  0  0  0
    8.3069    1.0965    0.1530 O   0  0  0  0  0  0  0  0  0  0  0  0
   -2.7825   -0.6685    0.2948 C   0  0  1  0  0  0  0  0  0  0  0  0
   -1.4376   -1.2675   -0.1154 C   0  0  1  0  0  0  0  0  0  0  0  0
   -3.1510    0.6150   -0.4703 C   0  0  2  0  0  0  0  0  0  0  0  0
   -0.2019   -0.4764    0.3219 C   0  0  2  0  0  0  0  0  0  0  0  0
   -2.4015    1.8012    0.1092 C   0  0  0  0  0  0  0  0  0  0  0  0
   -0.1264    0.9045   -0.3472 C   0  0  0  0  0  0  0  0  0  0  0  0
   -1.0675    1.9480    0.2127 C   0  0  0  0  0  0  0  0  0  0  0  0
   -4.5997    1.0304   -0.3354 C   0  0  0  0  0  0  0  0  0  0  0  0
   -1.6532   -2.6426    0.4370 C   0  0  0  0  0  0  0  0  0  0  0  0
   -3.4425    2.7640    0.5800 C   0  0  0  0  0  0  0  0  0  0  0  0
   -3.0992   -2.9364    0.3041 C   0  0  0  0  0  0  0  0  0  0  0  0
   -4.7671    2.2195    0.2531 C   0  0  0  0  0  0  0  0  0  0  0  0
   -5.7174    0.2243   -0.9060 C   0  0  0  0  0  0  0  0  0  0  0  0
   -0.3534    3.1172    0.8381 C   0  0  0  0  0  0  0  0  0  0  0  0
   -0.8263   -3.5162    1.0154 C   0  0  0  0  0  0  0  0  0  0  0  0
    2.1575   -0.6198    0.2031 C   0  0  0  0  0  0  0  0  0  0  0  0
    3.1673   -1.0018   -0.8528 C   0  0  0  0  0  0  0  0  0  0  0  0
    4.5401   -0.4414   -0.5839 C   0  0  0  0  0  0  0  0  0  0  0  0
    4.8790    0.8042   -1.0911 C   0  0  0  0  0  0  0  0  0  0  0  0
    5.4429   -1.1802    0.1664 C   0  0  0  0  0  0  0  0  0  0  0  0
    6.1498    1.3228   -0.8424 C   0  0  0  0  0  0  0  0  0  0  0  0
    6.7137   -0.6615    0.4153 C   0  0  0  0  0  0  0  0  0  0  0  0
    7.0672    0.5901   -0.0891 C   0  0  0  0  0  0  0  0  0  0  0  0
   -2.8196   -0.4733    1.3784 H   0  0  0  0  0  0  0  0  0  0  0  0
   -1.4021   -1.3919   -1.2088 H   0  0  0  0  0  0  0  0  0  0  0  0
   -2.9220    0.5135   -1.5387 H   0  0  0  0  0  0  0  0  0  0  0  0
   -0.1791   -0.3882    1.4163 H   0  0  0  0  0  0  0  0  0  0  0  0
   -0.3229    0.7942   -1.4241 H   0  0  0  0  0  0  0  0  0  0  0  0
    0.8844    1.3253   -0.3335 H   0  0  0  0  0  0  0  0  0  0  0  0
   -5.6939    2.7376    0.4366 H   0  0  0  0  0  0  0  0  0  0  0  0
   -6.6691    0.7582   -0.8088 H   0  0  0  0  0  0  0  0  0  0  0  0
   -5.8469   -0.7352   -0.3999 H   0  0  0  0  0  0  0  0  0  0  0  0
    0.3630    2.7579    1.5858 H   0  0  0  0  0  0  0  0  0  0  0  0
   -1.0047    3.8234    1.3512 H   0  0  0  0  0  0  0  0  0  0  0  0
    0.1991    3.6717    0.0723 H   0  0  0  0  0  0  0  0  0  0  0  0
    0.2277   -3.3028    1.1457 H   0  0  0  0  0  0  0  0  0  0  0  0
   -1.1793   -4.4746    1.3824 H   0  0  0  0  0  0  0  0  0  0  0  0
   -4.7913   -0.6498   -2.3797 H   0  0  0  0  0  0  0  0  0  0  0  0
    2.8069   -0.6438   -1.8248 H   0  0  0  0  0  0  0  0  0  0  0  0
    3.2216   -2.0960   -0.9050 H   0  0  0  0  0  0  0  0  0  0  0  0
    4.1709    1.3837   -1.6766 H   0  0  0  0  0  0  0  0  0  0  0  0
    5.1764   -2.1548    0.5654 H   0  0  0  0  0  0  0  0  0  0  0  0
    6.4191    2.2986   -1.2376 H   0  0  0  0  0  0  0  0  0  0  0  0
    7.4190   -1.2421    1.0039 H   0  0  0  0  0  0  0  0  0  0  0  0
    8.8090    0.4580    0.6882 H   0  0  0  0  0  0  0  0  0  0  0  0
  1  8  1  0  0  0  0
  1 18  1  0  0  0  0
  2 11  1  0  0  0  0
  2 23  1  0  0  0  0
  3 17  2  0  0  0  0
  4 18  2  0  0  0  0
  5 20  1  0  0  0  0
  5 45  1  0  0  0  0
  6 23  2  0  0  0  0
  7 30  1  0  0  0  0
  7 52  1  0  0  0  0
  8  9  1  0  0  0  0
  8 10  1  0  0  0  0
  8 31  1  0  0  0  0
  9 11  1  0  0  0  0
  9 16  1  0  0  0  0
  9 32  1  0  0  0  0
 10 12  1  0  0  0  0
 10 15  1  0  0  0  0
 10 33  1  0  0  0  0
 11 13  1  0  0  0  0
 11 34  1  0  0  0  0
 12 14  2  0  0  0  0
 12 17  1  0  0  0  0
 13 14  1  0  0  0  0
 13 35  1  0  0  0  0
 13 36  1  0  0  0  0
 14 21  1  0  0  0  0
 15 19  2  0  0  0  0
 15 20  1  0  0  0  0
 16 18  1  0  0  0  0
 16 22  2  0  0  0  0
 17 19  1  0  0  0  0
 19 37  1  0  0  0  0
 20 38  1  0  0  0  0
 20 39  1  0  0  0  0
 21 40  1  0  0  0  0
 21 41  1  0  0  0  0
 21 42  1  0  0  0  0
 22 43  1  0  0  0  0
 22 44  1  0  0  0  0
 23 24  1  0  0  0  0
 24 25  1  0  0  0  0
 24 46  1  0  0  0  0
 24 47  1  0  0  0  0
 25 26  2  0  0  0  0
 25 27  1  0  0  0  0
 26 28  1  0  0  0  0
 26 48  1  0  0  0  0
 27 29  2  0  0  0  0
 27 49  1  0  0  0  0
 28 30  2  0  0  0  0
 28 50  1  0  0  0  0
 29 30  1  0  0  0  0
 29 51  1  0  0  0  0
M  END
> <PUBCHEM_COMPOUND_CID>
174880

> <PUBCHEM_CONFORMER_RMSD>
0.8

> <PUBCHEM_CONFORMER_DIVERSEORDER>
1
31
39
5
28
30
6
21
10
42
37
17
49
47
40
38
46
45
11
56
44
7
36
35
27
52
22
50
41
61
62
57
25
34
54
12
9
19
58
20
33
48
43
55
59
26
23
16
13
18
3
51
4
15
32
14
24
60
53
2
29
8

> <PUBCHEM_MMFF94_PARTIAL_CHARGES>
39
1 -0.43
10 0.28
11 0.28
12 -0.12
13 0.14
14 -0.28
15 -0.28
16 -0.12
17 0.54
18 0.71
19 -0.14
2 -0.43
20 0.42
21 0.14
22 -0.3
23 0.66
24 0.2
25 -0.14
26 -0.15
27 -0.15
28 -0.15
29 -0.15
3 -0.57
30 0.08
37 0.15
4 -0.57
43 0.15
44 0.15
45 0.4
48 0.15
49 0.15
5 -0.68
50 0.15
51 0.15
52 0.45
6 -0.57
7 -0.53
8 0.28
9 0.14

> <PUBCHEM_EFFECTIVE_ROTOR_COUNT>
5.6

> <PUBCHEM_PHARMACOPHORE_FEATURES>
10
1 3 acceptor
1 4 acceptor
1 5 acceptor
1 5 donor
1 6 acceptor
1 7 donor
5 1 8 9 16 18 rings
5 10 12 15 17 19 rings
6 25 26 27 28 29 30 rings
7 8 9 10 11 12 13 14 rings

> <PUBCHEM_HEAVY_ATOM_COUNT>
30

> <PUBCHEM_ATOM_DEF_STEREO_COUNT>
4

> <PUBCHEM_ATOM_UDEF_STEREO_COUNT>
0

> <PUBCHEM_BOND_DEF_STEREO_COUNT>
0

> <PUBCHEM_BOND_UDEF_STEREO_COUNT>
0

> <PUBCHEM_ISOTOPIC_ATOM_COUNT>
0

> <PUBCHEM_COMPONENT_COUNT>
1

> <PUBCHEM_CACTVS_TAUTO_COUNT>
34

> <PUBCHEM_CONFORMER_ID>
0002AB2000000001

> <PUBCHEM_MMFF94_ENERGY>
77.1323

> <PUBCHEM_FEATURE_SELFOVERLAP>
50.794

> <PUBCHEM_SHAPE_FINGERPRINT>
10076449 9 18338795616493163587
10411042 1 18050565137030699963
10835480 77 18410014317497276654
10906281 52 18188474869792505341
1100329 8 18411413995456914529
11135609 187 18199194056772209181
11227688 84 17187275769488449950
11315181 36 18272930505922436676
12107183 9 18055076712644103938
12236239 1 17703791414354368466
12616971 3 16702013163500441142
12788726 201 18263088858587942025
13140716 1 18338796694592895043
13911987 19 18271259308715421909
14674994 50 15864929607687252343
14765038 42 18042670884076735569
14790565 3 17977939408533211465
14840074 17 17561073744011655564
14844126 61 18340763741626641491
15131766 46 15264488485154204086
15183329 4 18272652368383124486
15289351 153 18336548193858418636
15876981 60 18269551646334263063
16087824 20 18410571796242884403
17844677 252 18268702832395459396
18608769 82 18340763759413081011
19958102 18 18270962478724654574
20511986 3 17917722283727042310
21033648 29 17895490150640467642
21236236 1 18411135818508671830
23559900 14 18336835186464273704
3178227 256 18269255977250157777
335352 9 18410017616232678839
3383291 50 18411698760336675011
3633792 109 18058462065383877911
397830 11 11095592331552934430
4073 2 18272364257951551586
4258327 124 17560220449836816572
484989 97 18198911306475320967
5104073 3 18202281420956108746
5171179 24 17898017832296968601
5283173 99 18409446982044655800
563151 74 15553887827134697001
563151 97 18125167284585210861
5969126 39 18189620453650926199
6700243 42 17610862800277252894
6823239 73 18261120625801214504
7226269 152 18411419518431227723
9981440 41 18342166821400396147

> <PUBCHEM_SHAPE_MULTIPOLES>
576.3
16.76
3.95
1.06
32.24
1.28
0.29
-4.83
3.31
-6.01
-1.59
-0.62
-0.14
-0.59

> <PUBCHEM_SHAPE_SELFOVERLAP>
1258.027

> <PUBCHEM_SHAPE_VOLUME>
312.1

> <PUBCHEM_COORDINATE_TYPE>
2
5
10

$$$$

