5524
  -OEChem-06261200432D

 33 35  0     0  0  0  0  0  0999 V2000
    4.4487   -0.5626    0.0000 N   0  0  0  0  0  0  0  0  0  0  0  0
    3.4782   -2.0572    0.0000 N   0  0  0  0  0  0  0  0  0  0  0  0
    2.6691   -0.6559    0.0000 N   0  0  0  0  0  0  0  0  0  0  0  0
    6.2087    0.4027    0.0000 C   0  0  0  0  0  0  0  0  0  0  0  0
    7.1147    0.9165    0.0000 C   0  0  0  0  0  0  0  0  0  0  0  0
    5.3147    0.9374    0.0000 C   0  0  0  0  0  0  0  0  0  0  0  0
    7.1147    1.9582    0.0000 C   0  0  0  0  0  0  0  0  0  0  0  0
    6.2087    2.4720    0.0000 C   0  0  0  0  0  0  0  0  0  0  0  0
    5.3147    1.9374    0.0000 C   0  0  0  0  0  0  0  0  0  0  0  0
    4.4487    0.4374    0.0000 C   0  0  0  0  0  0  0  0  0  0  0  0
    4.4487    2.4374    0.0000 C   0  0  0  0  0  0  0  0  0  0  0  0
    3.5827    0.9374    0.0000 C   0  0  0  0  0  0  0  0  0  0  0  0
    3.5827    1.9374    0.0000 C   0  0  0  0  0  0  0  0  0  0  0  0
    3.5827   -1.0626    0.0000 C   0  0  0  0  0  0  0  0  0  0  0  0
    2.5000   -2.2651    0.0000 C   0  0  0  0  0  0  0  0  0  0  0  0
    2.0000   -1.3990    0.0000 C   0  0  0  0  0  0  0  0  0  0  0  0
    5.8041   -0.0671    0.0000 H   0  0  0  0  0  0  0  0  0  0  0  0
    6.6023   -0.0763    0.0000 H   0  0  0  0  0  0  0  0  0  0  0  0
    7.3238    0.3329    0.0000 H   0  0  0  0  0  0  0  0  0  0  0  0
    7.7256    1.0226    0.0000 H   0  0  0  0  0  0  0  0  0  0  0  0
    7.7256    1.8521    0.0000 H   0  0  0  0  0  0  0  0  0  0  0  0
    7.3238    2.5419    0.0000 H   0  0  0  0  0  0  0  0  0  0  0  0
    6.6023    2.9510    0.0000 H   0  0  0  0  0  0  0  0  0  0  0  0
    5.8041    2.9418    0.0000 H   0  0  0  0  0  0  0  0  0  0  0  0
    4.4487    3.0574    0.0000 H   0  0  0  0  0  0  0  0  0  0  0  0
    3.0457    0.6274    0.0000 H   0  0  0  0  0  0  0  0  0  0  0  0
    4.9856   -0.8726    0.0000 H   0  0  0  0  0  0  0  0  0  0  0  0
    3.0457    2.2474    0.0000 H   0  0  0  0  0  0  0  0  0  0  0  0
    1.9336   -2.5173    0.0000 H   0  0  0  0  0  0  0  0  0  0  0  0
    2.6916   -2.8547    0.0000 H   0  0  0  0  0  0  0  0  0  0  0  0
    1.5851   -0.9383    0.0000 H   0  0  0  0  0  0  0  0  0  0  0  0
    1.4984   -1.7635    0.0000 H   0  0  0  0  0  0  0  0  0  0  0  0
    3.9389   -2.4720    0.0000 H   0  0  0  0  0  0  0  0  0  0  0  0
  1 10  1  0  0  0  0
  1 14  1  0  0  0  0
  1 27  1  0  0  0  0
  2 14  1  0  0  0  0
  2 15  1  0  0  0  0
  2 33  1  0  0  0  0
  3 14  2  0  0  0  0
  3 16  1  0  0  0  0
  4  5  1  0  0  0  0
  4  6  1  0  0  0  0
  4 17  1  0  0  0  0
  4 18  1  0  0  0  0
  5  7  1  0  0  0  0
  5 19  1  0  0  0  0
  5 20  1  0  0  0  0
  6  9  2  0  0  0  0
  6 10  1  0  0  0  0
  7  8  1  0  0  0  0
  7 21  1  0  0  0  0
  7 22  1  0  0  0  0
  8  9  1  0  0  0  0
  8 23  1  0  0  0  0
  8 24  1  0  0  0  0
  9 11  1  0  0  0  0
 10 12  2  0  0  0  0
 11 13  2  0  0  0  0
 11 25  1  0  0  0  0
 12 13  1  0  0  0  0
 12 26  1  0  0  0  0
 13 28  1  0  0  0  0
 15 16  1  0  0  0  0
 15 29  1  0  0  0  0
 15 30  1  0  0  0  0
 16 31  1  0  0  0  0
 16 32  1  0  0  0  0
M  END
> <PUBCHEM_COMPOUND_CID>
5524

> <PUBCHEM_COMPOUND_CANONICALIZED>
1

> <PUBCHEM_CACTVS_COMPLEXITY>
274

> <PUBCHEM_CACTVS_HBOND_ACCEPTOR>
1

> <PUBCHEM_CACTVS_HBOND_DONOR>
2

> <PUBCHEM_CACTVS_ROTATABLE_BOND>
2

> <PUBCHEM_CACTVS_SUBSKEYS>
AAADceBzAAAAAAAAAAAAAAAAAAAAAQAAAAAwYAAAAAAAAADBAAAAHAAQAAAADAjBGAQxwILAAACgAiRCZACCAAEhAgAJiIAIZIiIYCLAmZGUIAhokAJIyCcQgIAOgAAAQAASAAAAAACAACQAAAAAAAAAAA==

> <PUBCHEM_IUPAC_OPENEYE_NAME>
N-tetralin-5-yl-4,5-dihydro-1H-imidazol-2-amine

> <PUBCHEM_IUPAC_CAS_NAME>
N-(5,6,7,8-tetrahydronaphthalen-1-yl)-4,5-dihydro-1H-imidazol-2-amine

> <PUBCHEM_IUPAC_NAME>
N-(5,6,7,8-tetrahydronaphthalen-1-yl)-4,5-dihydro-1H-imidazol-2-amine

> <PUBCHEM_IUPAC_SYSTEMATIC_NAME>
N-(5,6,7,8-tetrahydronaphthalen-1-yl)-4,5-dihydro-1H-imidazol-2-amine

> <PUBCHEM_IUPAC_TRADITIONAL_NAME>
2-imidazolin-2-yl(tetralin-5-yl)amine

> <PUBCHEM_IUPAC_INCHI>
InChI=1S/C13H17N3/c1-2-6-11-10(4-1)5-3-7-12(11)16-13-14-8-9-15-13/h3,5,7H,1-2,4,6,8-9H2,(H2,14,15,16)

> <PUBCHEM_IUPAC_INCHIKEY>
QQJLHRRUATVHED-UHFFFAOYSA-N

> <PUBCHEM_XLOGP3_AA>
2

> <PUBCHEM_EXACT_MASS>
215.142248

> <PUBCHEM_MOLECULAR_FORMULA>
C13H17N3

> <PUBCHEM_MOLECULAR_WEIGHT>
215.29418

> <PUBCHEM_OPENEYE_CAN_SMILES>
C1CCC2=C(C1)C=CC=C2NC3=NCCN3

> <PUBCHEM_OPENEYE_ISO_SMILES>
C1CCC2=C(C1)C=CC=C2NC3=NCCN3

> <PUBCHEM_CACTVS_TPSA>
36.4

> <PUBCHEM_MONOISOTOPIC_WEIGHT>
215.142248

> <PUBCHEM_TOTAL_CHARGE>
0

> <PUBCHEM_HEAVY_ATOM_COUNT>
16

> <PUBCHEM_ATOM_DEF_STEREO_COUNT>
0

> <PUBCHEM_ATOM_UDEF_STEREO_COUNT>
0

> <PUBCHEM_BOND_DEF_STEREO_COUNT>
0

> <PUBCHEM_BOND_UDEF_STEREO_COUNT>
0

> <PUBCHEM_ISOTOPIC_ATOM_COUNT>
0

> <PUBCHEM_COMPONENT_COUNT>
1

> <PUBCHEM_CACTVS_TAUTO_COUNT>
2

> <PUBCHEM_COORDINATE_TYPE>
1
5
255

> <PUBCHEM_BONDANNOTATIONS>
10  12  8
11  13  8
12  13  8
6  10  8
6  9  8
9  11  8

$$$$

