5280910
  -OEChem-07051212513D

 23 22  0     1  0  0  0  0  0999 V2000
   -0.5416   -2.8052    0.6963 O   0  0  0  0  0  0  0  0  0  0  0  0
   -1.8810    2.3469   -0.3170 O   0  0  0  0  0  0  0  0  0  0  0  0
    1.0016    0.6607    1.5021 O   0  0  0  0  0  0  0  0  0  0  0  0
   -3.0135    0.7607    0.8520 O   0  0  0  0  0  0  0  0  0  0  0  0
    3.3019    1.3287    0.4267 O   0  0  0  0  0  0  0  0  0  0  0  0
    3.1596   -0.1740   -1.2762 O   0  0  0  0  0  0  0  0  0  0  0  0
   -1.7680   -1.2867   -0.7492 C   0  0  0  0  0  0  0  0  0  0  0  0
   -0.6845   -1.4348    0.3296 C   0  0  2  0  0  0  0  0  0  0  0  0
   -1.9673    0.1483   -1.2370 C   0  0  0  0  0  0  0  0  0  0  0  0
    0.6485   -0.9696   -0.1945 C   0  0  0  0  0  0  0  0  0  0  0  0
   -2.3496    1.0893   -0.1225 C   0  0  0  0  0  0  0  0  0  0  0  0
    1.3995   -0.0057    0.3621 C   0  0  0  0  0  0  0  0  0  0  0  0
    2.6944    0.3414   -0.2724 C   0  0  0  0  0  0  0  0  0  0  0  0
   -1.5309   -1.9308   -1.6064 H   0  0  0  0  0  0  0  0  0  0  0  0
   -2.7136   -1.6769   -0.3503 H   0  0  0  0  0  0  0  0  0  0  0  0
   -0.9693   -0.8940    1.2374 H   0  0  0  0  0  0  0  0  0  0  0  0
   -2.7687    0.1782   -1.9835 H   0  0  0  0  0  0  0  0  0  0  0  0
   -1.0556    0.5140   -1.7217 H   0  0  0  0  0  0  0  0  0  0  0  0
    1.0026   -1.4796   -1.0887 H   0  0  0  0  0  0  0  0  0  0  0  0
   -1.4074   -3.1149    1.0128 H   0  0  0  0  0  0  0  0  0  0  0  0
   -2.1363    2.9498    0.4134 H   0  0  0  0  0  0  0  0  0  0  0  0
    1.6955    1.3067    1.7194 H   0  0  0  0  0  0  0  0  0  0  0  0
    4.1632    1.5824    0.0314 H   0  0  0  0  0  0  0  0  0  0  0  0
  1  8  1  0  0  0  0
  1 20  1  0  0  0  0
  2 11  1  0  0  0  0
  2 21  1  0  0  0  0
  3 12  1  0  0  0  0
  3 22  1  0  0  0  0
  4 11  2  0  0  0  0
  5 13  1  0  0  0  0
  5 23  1  0  0  0  0
  6 13  2  0  0  0  0
  7  8  1  0  0  0  0
  7  9  1  0  0  0  0
  7 14  1  0  0  0  0
  7 15  1  0  0  0  0
  8 10  1  0  0  0  0
  8 16  1  0  0  0  0
  9 11  1  0  0  0  0
  9 17  1  0  0  0  0
  9 18  1  0  0  0  0
 10 12  2  0  0  0  0
 10 19  1  0  0  0  0
 12 13  1  0  0  0  0
M  END
> <PUBCHEM_COMPOUND_CID>
5280910

> <PUBCHEM_CONFORMER_RMSD>
0.6

> <PUBCHEM_CONFORMER_DIVERSEORDER>
1
84
88
119
125
18
5
140
141
83
117
74
112
89
44
111
79
108
139
78
121
45
29
113
87
19
92
66
101
116
91
142
67
26
122
123
145
114
10
107
4
71
144
133
136
20
138
51
13
120
31
14
17
43
54
38
69
50
59
52
57
131
15
77
129
8
128
46
6
134
40
73
47
143
90
32
36
110
33
96
23
115
2
118
55
49
132
53
62
98
82
60
137
93
68
56
106
24
135
39
109
27
75
41
130
21
42
86
127
37
63
7
85
72
64
22
9
35
80
99
81
100
25
94
70
95
105
65
11
103
97
30
12
76
61
58
124
3
16
126
34
48
28
104
102

> <PUBCHEM_MMFF94_PARTIAL_CHARGES>
17
1 -0.68
10 -0.29
11 0.66
12 0.09
13 0.71
19 0.15
2 -0.65
20 0.4
21 0.5
22 0.45
23 0.5
3 -0.53
4 -0.57
5 -0.65
6 -0.57
8 0.42
9 0.06

> <PUBCHEM_EFFECTIVE_ROTOR_COUNT>
5

> <PUBCHEM_PHARMACOPHORE_FEATURES>
9
1 1 acceptor
1 1 donor
1 2 acceptor
1 3 donor
1 4 acceptor
1 5 acceptor
1 6 acceptor
3 2 4 11 anion
3 5 6 13 anion

> <PUBCHEM_HEAVY_ATOM_COUNT>
13

> <PUBCHEM_ATOM_DEF_STEREO_COUNT>
0

> <PUBCHEM_ATOM_UDEF_STEREO_COUNT>
1

> <PUBCHEM_BOND_DEF_STEREO_COUNT>
1

> <PUBCHEM_BOND_UDEF_STEREO_COUNT>
0

> <PUBCHEM_ISOTOPIC_ATOM_COUNT>
0

> <PUBCHEM_COMPONENT_COUNT>
1

> <PUBCHEM_CACTVS_TAUTO_COUNT>
2

> <PUBCHEM_CONFORMER_ID>
0050948E00000001

> <PUBCHEM_MMFF94_ENERGY>
15.461

> <PUBCHEM_FEATURE_SELFOVERLAP>
45.784

> <PUBCHEM_SHAPE_FINGERPRINT>
100427 49 17260747344021496871
12716758 59 18410572864550342626
13132413 78 17617113828802678802
13764800 53 18272927194149197683
15775835 57 18261675977714648273
18186145 218 18260264187594074356
19837323 101 18341612585803443675
20653085 51 17967245407948509127
20828058 34 18411147917536721679
21524375 3 18337394953962817215
22802520 49 18261101968104239550
23402539 116 18119828922886310487
23557571 272 17836078979761632814
25 1 18187918551300075070
305870 269 18128546048729198842
430814 3 18272091664128010111
549884 4 17822303425830828729
81228 2 18053382102425483211

> <PUBCHEM_SHAPE_MULTIPOLES>
232.32
4.78
2.12
1.12
2.42
0.58
0.03
-2.3
0.65
-1.14
-0.35
0.06
0
0.15

> <PUBCHEM_SHAPE_SELFOVERLAP>
453.588

> <PUBCHEM_SHAPE_VOLUME>
138.4

> <PUBCHEM_COORDINATE_TYPE>
2
5
10

$$$$

