12428
  -OEChem-06261206552D

 46 46  0     0  0  0  0  0  0999 V2000
    3.7320    0.0000    0.0000 O   0  0  0  0  0  0  0  0  0  0  0  0
    2.0000    0.0000    0.0000 O   0  0  0  0  0  0  0  0  0  0  0  0
    4.5981    2.5000    0.0000 N   0  0  0  0  0  0  0  0  0  0  0  0
    5.2320    0.1340    0.0000 N   0  0  0  0  0  0  0  0  0  0  0  0
    3.7320    1.0000    0.0000 C   0  0  0  0  0  0  0  0  0  0  0  0
    3.7320    2.0000    0.0000 C   0  0  0  0  0  0  0  0  0  0  0  0
    4.7320    1.0000    0.0000 C   0  0  0  0  0  0  0  0  0  0  0  0
    2.7320    1.0000    0.0000 C   0  0  0  0  0  0  0  0  0  0  0  0
    2.2320    1.8660    0.0000 C   0  0  0  0  0  0  0  0  0  0  0  0
    6.2320    0.1340    0.0000 C   0  0  0  0  0  0  0  0  0  0  0  0
    4.7320   -0.7321    0.0000 C   0  0  0  0  0  0  0  0  0  0  0  0
    4.5981    3.5000    0.0000 C   0  0  0  0  0  0  0  0  0  0  0  0
    5.4641    2.0000    0.0000 C   0  0  0  0  0  0  0  0  0  0  0  0
    2.8660   -0.5000    0.0000 C   0  0  0  0  0  0  0  0  0  0  0  0
    2.8660   -1.5000    0.0000 C   0  0  0  0  0  0  0  0  0  0  0  0
    2.0000   -2.0000    0.0000 C   0  0  0  0  0  0  0  0  0  0  0  0
    3.7320   -2.0000    0.0000 C   0  0  0  0  0  0  0  0  0  0  0  0
    2.0000   -3.0000    0.0000 C   0  0  0  0  0  0  0  0  0  0  0  0
    3.7320   -3.0000    0.0000 C   0  0  0  0  0  0  0  0  0  0  0  0
    2.8660   -3.5000    0.0000 C   0  0  0  0  0  0  0  0  0  0  0  0
    3.5200    2.5826    0.0000 H   0  0  0  0  0  0  0  0  0  0  0  0
    3.1215    1.8923    0.0000 H   0  0  0  0  0  0  0  0  0  0  0  0
    5.3147    1.2120    0.0000 H   0  0  0  0  0  0  0  0  0  0  0  0
    4.6244    1.6106    0.0000 H   0  0  0  0  0  0  0  0  0  0  0  0
    2.1494    0.7879    0.0000 H   0  0  0  0  0  0  0  0  0  0  0  0
    2.8397    0.3894    0.0000 H   0  0  0  0  0  0  0  0  0  0  0  0
    2.7690    2.1760    0.0000 H   0  0  0  0  0  0  0  0  0  0  0  0
    1.9220    2.4030    0.0000 H   0  0  0  0  0  0  0  0  0  0  0  0
    1.6951    1.5560    0.0000 H   0  0  0  0  0  0  0  0  0  0  0  0
    6.2320   -0.4860    0.0000 H   0  0  0  0  0  0  0  0  0  0  0  0
    6.8520    0.1340    0.0000 H   0  0  0  0  0  0  0  0  0  0  0  0
    6.2320    0.7540    0.0000 H   0  0  0  0  0  0  0  0  0  0  0  0
    4.1951   -0.4221    0.0000 H   0  0  0  0  0  0  0  0  0  0  0  0
    4.4220   -1.2690    0.0000 H   0  0  0  0  0  0  0  0  0  0  0  0
    5.2690   -1.0420    0.0000 H   0  0  0  0  0  0  0  0  0  0  0  0
    5.2181    3.5000    0.0000 H   0  0  0  0  0  0  0  0  0  0  0  0
    4.5981    4.1200    0.0000 H   0  0  0  0  0  0  0  0  0  0  0  0
    3.9781    3.5000    0.0000 H   0  0  0  0  0  0  0  0  0  0  0  0
    5.1541    1.4631    0.0000 H   0  0  0  0  0  0  0  0  0  0  0  0
    6.0010    1.6900    0.0000 H   0  0  0  0  0  0  0  0  0  0  0  0
    5.7741    2.5369    0.0000 H   0  0  0  0  0  0  0  0  0  0  0  0
    1.4631   -1.6900    0.0000 H   0  0  0  0  0  0  0  0  0  0  0  0
    4.2690   -1.6900    0.0000 H   0  0  0  0  0  0  0  0  0  0  0  0
    1.4631   -3.3100    0.0000 H   0  0  0  0  0  0  0  0  0  0  0  0
    4.2690   -3.3100    0.0000 H   0  0  0  0  0  0  0  0  0  0  0  0
    2.8660   -4.1200    0.0000 H   0  0  0  0  0  0  0  0  0  0  0  0
  1  5  1  0  0  0  0
  1 14  1  0  0  0  0
  2 14  2  0  0  0  0
  3  6  1  0  0  0  0
  3 12  1  0  0  0  0
  3 13  1  0  0  0  0
  4  7  1  0  0  0  0
  4 10  1  0  0  0  0
  4 11  1  0  0  0  0
  5  6  1  0  0  0  0
  5  7  1  0  0  0  0
  5  8  1  0  0  0  0
  6 21  1  0  0  0  0
  6 22  1  0  0  0  0
  7 23  1  0  0  0  0
  7 24  1  0  0  0  0
  8  9  1  0  0  0  0
  8 25  1  0  0  0  0
  8 26  1  0  0  0  0
  9 27  1  0  0  0  0
  9 28  1  0  0  0  0
  9 29  1  0  0  0  0
 10 30  1  0  0  0  0
 10 31  1  0  0  0  0
 10 32  1  0  0  0  0
 11 33  1  0  0  0  0
 11 34  1  0  0  0  0
 11 35  1  0  0  0  0
 12 36  1  0  0  0  0
 12 37  1  0  0  0  0
 12 38  1  0  0  0  0
 13 39  1  0  0  0  0
 13 40  1  0  0  0  0
 13 41  1  0  0  0  0
 14 15  1  0  0  0  0
 15 16  2  0  0  0  0
 15 17  1  0  0  0  0
 16 18  1  0  0  0  0
 16 42  1  0  0  0  0
 17 19  2  0  0  0  0
 17 43  1  0  0  0  0
 18 20  2  0  0  0  0
 18 44  1  0  0  0  0
 19 20  1  0  0  0  0
 19 45  1  0  0  0  0
 20 46  1  0  0  0  0
M  END
> <PUBCHEM_COMPOUND_CID>
12428

> <PUBCHEM_COMPOUND_CANONICALIZED>
1

> <PUBCHEM_CACTVS_COMPLEXITY>
287

> <PUBCHEM_CACTVS_HBOND_ACCEPTOR>
4

> <PUBCHEM_CACTVS_HBOND_DONOR>
0

> <PUBCHEM_CACTVS_ROTATABLE_BOND>
8

> <PUBCHEM_CACTVS_SUBSKEYS>
AAADceB7MAAAAAAAAAAAAAAAAAAAAAAAAAAwAAAAAAAAAAABAAAAHgAAAAAADETBmAQyCIMABACIAiDSCAACAAAkAAAIiAEICMgKJjKA9RiHMQAkwAEYqYeIyCCOAAAAAAAAAAAAAAAAAAAAAAAAAAAAAA==

> <PUBCHEM_IUPAC_OPENEYE_NAME>
1,1-bis[(dimethylamino)methyl]propyl benzoate

> <PUBCHEM_IUPAC_CAS_NAME>
benzoic acid [1-(dimethylamino)-2-[(dimethylamino)methyl]butan-2-yl] ester

> <PUBCHEM_IUPAC_NAME>
[1-(dimethylamino)-2-[(dimethylamino)methyl]butan-2-yl] benzoate

> <PUBCHEM_IUPAC_SYSTEMATIC_NAME>
[1-(dimethylamino)-2-[(dimethylamino)methyl]butan-2-yl] benzoate

> <PUBCHEM_IUPAC_TRADITIONAL_NAME>
benzoic acid 1,1-bis[(dimethylamino)methyl]propyl ester

> <PUBCHEM_IUPAC_INCHI>
InChI=1S/C16H26N2O2/c1-6-16(12-17(2)3,13-18(4)5)20-15(19)14-10-8-7-9-11-14/h7-11H,6,12-13H2,1-5H3

> <PUBCHEM_IUPAC_INCHIKEY>
VEXNFKCQMGMBBJ-UHFFFAOYSA-N

> <PUBCHEM_XLOGP3_AA>
2.6

> <PUBCHEM_EXACT_MASS>
278.199428

> <PUBCHEM_MOLECULAR_FORMULA>
C16H26N2O2

> <PUBCHEM_MOLECULAR_WEIGHT>
278.38984

> <PUBCHEM_OPENEYE_CAN_SMILES>
CCC(CN(C)C)(CN(C)C)OC(=O)C1=CC=CC=C1

> <PUBCHEM_OPENEYE_ISO_SMILES>
CCC(CN(C)C)(CN(C)C)OC(=O)C1=CC=CC=C1

> <PUBCHEM_CACTVS_TPSA>
32.8

> <PUBCHEM_MONOISOTOPIC_WEIGHT>
278.199428

> <PUBCHEM_TOTAL_CHARGE>
0

> <PUBCHEM_HEAVY_ATOM_COUNT>
20

> <PUBCHEM_ATOM_DEF_STEREO_COUNT>
0

> <PUBCHEM_ATOM_UDEF_STEREO_COUNT>
0

> <PUBCHEM_BOND_DEF_STEREO_COUNT>
0

> <PUBCHEM_BOND_UDEF_STEREO_COUNT>
0

> <PUBCHEM_ISOTOPIC_ATOM_COUNT>
0

> <PUBCHEM_COMPONENT_COUNT>
1

> <PUBCHEM_CACTVS_TAUTO_COUNT>
1

> <PUBCHEM_COORDINATE_TYPE>
1
5
255

> <PUBCHEM_BONDANNOTATIONS>
15  16  8
15  17  8
16  18  8
17  19  8
18  20  8
19  20  8

$$$$

