132680
  -OEChem-07051212483D

 50 49  0     0  0  0  0  0  0999 V2000
   -8.0324    1.6253    0.9682 O   0  0  0  0  0  0  0  0  0  0  0  0
    8.0354    1.6083   -0.9738 O   0  0  0  0  0  0  0  0  0  0  0  0
   -3.0597   -0.9670    0.6546 N   0  0  0  0  0  0  0  0  0  0  0  0
    3.0629   -0.9827   -0.6486 N   0  0  0  0  0  0  0  0  0  0  0  0
   -7.0767    0.2307   -0.6337 N   0  0  0  0  0  0  0  0  0  0  0  0
    7.0676    0.2460    0.6484 N   0  0  0  0  0  0  0  0  0  0  0  0
   -0.5858   -0.9847    0.4456 C   0  0  0  0  0  0  0  0  0  0  0  0
    0.6151   -0.9996   -0.5058 C   0  0  0  0  0  0  0  0  0  0  0  0
   -1.9361   -0.9788   -0.2743 C   0  0  0  0  0  0  0  0  0  0  0  0
    1.9313   -0.9768    0.2711 C   0  0  0  0  0  0  0  0  0  0  0  0
   -4.3267   -0.9515   -0.0631 C   0  0  0  0  0  0  0  0  0  0  0  0
    4.3237   -0.9509    0.0792 C   0  0  0  0  0  0  0  0  0  0  0  0
   -5.5244   -0.9302    0.8910 C   0  0  0  0  0  0  0  0  0  0  0  0
    5.5294   -0.9480   -0.8649 C   0  0  0  0  0  0  0  0  0  0  0  0
   -6.8846   -0.9270    0.1960 C   0  0  0  0  0  0  0  0  0  0  0  0
    6.8837   -0.9288   -0.1587 C   0  0  0  0  0  0  0  0  0  0  0  0
   -7.6373    1.4158   -0.1758 C   0  0  0  0  0  0  0  0  0  0  0  0
    7.6309    1.4221    0.1709 C   0  0  0  0  0  0  0  0  0  0  0  0
   -7.6987    2.4749   -1.2436 C   0  0  0  0  0  0  0  0  0  0  0  0
    7.6823    2.5030    1.2171 C   0  0  0  0  0  0  0  0  0  0  0  0
   -0.5308   -1.8614    1.1040 H   0  0  0  0  0  0  0  0  0  0  0  0
   -0.5207   -0.1001    1.0924 H   0  0  0  0  0  0  0  0  0  0  0  0
    0.5667   -1.8957   -1.1371 H   0  0  0  0  0  0  0  0  0  0  0  0
    0.5613   -0.1302   -1.1730 H   0  0  0  0  0  0  0  0  0  0  0  0
   -1.9946   -1.8631   -0.9211 H   0  0  0  0  0  0  0  0  0  0  0  0
   -1.9812   -0.0938   -0.9210 H   0  0  0  0  0  0  0  0  0  0  0  0
    1.9624   -0.0766    0.8969 H   0  0  0  0  0  0  0  0  0  0  0  0
    1.9770   -1.8494    0.9342 H   0  0  0  0  0  0  0  0  0  0  0  0
   -4.4050   -1.8352   -0.7085 H   0  0  0  0  0  0  0  0  0  0  0  0
   -4.3683   -0.0659   -0.7081 H   0  0  0  0  0  0  0  0  0  0  0  0
    4.3972   -1.8209    0.7435 H   0  0  0  0  0  0  0  0  0  0  0  0
    4.3588   -0.0520    0.7061 H   0  0  0  0  0  0  0  0  0  0  0  0
   -3.0150   -1.7851    1.2612 H   0  0  0  0  0  0  0  0  0  0  0  0
    3.0253   -1.8134   -1.2385 H   0  0  0  0  0  0  0  0  0  0  0  0
   -5.4502   -0.0471    1.5391 H   0  0  0  0  0  0  0  0  0  0  0  0
   -5.4773   -1.8080    1.5480 H   0  0  0  0  0  0  0  0  0  0  0  0
    5.4599   -0.0786   -1.5318 H   0  0  0  0  0  0  0  0  0  0  0  0
    5.4887   -1.8392   -1.5040 H   0  0  0  0  0  0  0  0  0  0  0  0
   -7.6806   -0.9629    0.9478 H   0  0  0  0  0  0  0  0  0  0  0  0
   -6.9860   -1.8091   -0.4449 H   0  0  0  0  0  0  0  0  0  0  0  0
    7.6861   -0.9794   -0.9029 H   0  0  0  0  0  0  0  0  0  0  0  0
    6.9806   -1.7974    0.5011 H   0  0  0  0  0  0  0  0  0  0  0  0
   -6.7718    0.1731   -1.6011 H   0  0  0  0  0  0  0  0  0  0  0  0
    6.7545    0.2080    1.6142 H   0  0  0  0  0  0  0  0  0  0  0  0
   -8.1083    2.0588   -2.1685 H   0  0  0  0  0  0  0  0  0  0  0  0
   -8.3435    3.2940   -0.9133 H   0  0  0  0  0  0  0  0  0  0  0  0
   -6.6930    2.8604   -1.4315 H   0  0  0  0  0  0  0  0  0  0  0  0
    8.0754    2.1048    2.1569 H   0  0  0  0  0  0  0  0  0  0  0  0
    8.3367    3.3114    0.8795 H   0  0  0  0  0  0  0  0  0  0  0  0
    6.6760    2.8978    1.3812 H   0  0  0  0  0  0  0  0  0  0  0  0
  1 17  2  0  0  0  0
  2 18  2  0  0  0  0
  3  9  1  0  0  0  0
  3 11  1  0  0  0  0
  3 33  1  0  0  0  0
  4 10  1  0  0  0  0
  4 12  1  0  0  0  0
  4 34  1  0  0  0  0
  5 15  1  0  0  0  0
  5 17  1  0  0  0  0
  5 43  1  0  0  0  0
  6 16  1  0  0  0  0
  6 18  1  0  0  0  0
  6 44  1  0  0  0  0
  7  8  1  0  0  0  0
  7  9  1  0  0  0  0
  7 21  1  0  0  0  0
  7 22  1  0  0  0  0
  8 10  1  0  0  0  0
  8 23  1  0  0  0  0
  8 24  1  0  0  0  0
  9 25  1  0  0  0  0
  9 26  1  0  0  0  0
 10 27  1  0  0  0  0
 10 28  1  0  0  0  0
 11 13  1  0  0  0  0
 11 29  1  0  0  0  0
 11 30  1  0  0  0  0
 12 14  1  0  0  0  0
 12 31  1  0  0  0  0
 12 32  1  0  0  0  0
 13 15  1  0  0  0  0
 13 35  1  0  0  0  0
 13 36  1  0  0  0  0
 14 16  1  0  0  0  0
 14 37  1  0  0  0  0
 14 38  1  0  0  0  0
 15 39  1  0  0  0  0
 15 40  1  0  0  0  0
 16 41  1  0  0  0  0
 16 42  1  0  0  0  0
 17 19  1  0  0  0  0
 18 20  1  0  0  0  0
 19 45  1  0  0  0  0
 19 46  1  0  0  0  0
 19 47  1  0  0  0  0
 20 48  1  0  0  0  0
 20 49  1  0  0  0  0
 20 50  1  0  0  0  0
M  END
> <PUBCHEM_COMPOUND_CID>
132680

> <PUBCHEM_CONFORMER_RMSD>
1.4

> <PUBCHEM_CONFORMER_DIVERSEORDER>
2
35
43
8
40
44
48
46
39
37
10
45
4
7
32
42
16
17
25
1
28
9
12
20
38
11
21
33
31
41
47
19
27
22
26
13
5
30
14
34
36
23
29
24
6
3
18
15

> <PUBCHEM_MMFF94_PARTIAL_CHARGES>
20
1 -0.57
10 0.27
11 0.27
12 0.27
15 0.3
16 0.3
17 0.57
18 0.57
19 0.06
2 -0.57
20 0.06
3 -0.9
33 0.36
34 0.36
4 -0.9
43 0.37
44 0.37
5 -0.73
6 -0.73
9 0.27

> <PUBCHEM_EFFECTIVE_ROTOR_COUNT>
15

> <PUBCHEM_PHARMACOPHORE_FEATURES>
8
1 1 acceptor
1 2 acceptor
1 3 cation
1 3 donor
1 4 cation
1 4 donor
1 5 donor
1 6 donor

> <PUBCHEM_HEAVY_ATOM_COUNT>
20

> <PUBCHEM_ATOM_DEF_STEREO_COUNT>
0

> <PUBCHEM_ATOM_UDEF_STEREO_COUNT>
0

> <PUBCHEM_BOND_DEF_STEREO_COUNT>
0

> <PUBCHEM_BOND_UDEF_STEREO_COUNT>
0

> <PUBCHEM_ISOTOPIC_ATOM_COUNT>
0

> <PUBCHEM_COMPONENT_COUNT>
1

> <PUBCHEM_CACTVS_TAUTO_COUNT>
3

> <PUBCHEM_CONFORMER_ID>
0002064800000002

> <PUBCHEM_MMFF94_ENERGY>
-1.3875

> <PUBCHEM_FEATURE_SELFOVERLAP>
40.594

> <PUBCHEM_SHAPE_FINGERPRINT>
10066227 49 9655306938259583920
11315181 36 17822005407563474587
11386260 185 14779558855006912626
11578821 258 18260546697400434961
12091667 2 18342453747687604491
125118 31 18272929414995650820
13668630 136 8142087554588312946
14251757 52 18412267233533012778
14729087 3 18341895212538096031
15461852 350 17168147819635058975
17093844 174 18202560675593119019
1754908 1 14836118836392474244
1754911 235 17676203559664828780
195137 175 18040710381497202489
21095086 128 9799688191106116179
22224240 67 17988926647962685738
328311 84 10015866479083429162
444735 82 18341610370360344764
5047190 69 18201725093547391397
636775 72 18341051921886194381

> <PUBCHEM_SHAPE_MULTIPOLES>
379.93
34.1
2.26
1.02
0.24
1.88
0
24.02
-0.06
-0.06
0
0.04
0.37
2.47

> <PUBCHEM_SHAPE_SELFOVERLAP>
700.684

> <PUBCHEM_SHAPE_VOLUME>
238.8

> <PUBCHEM_COORDINATE_TYPE>
2
5
10

$$$$

