15432633
  -OEChem-07051213152D

 80 83  0     1  0  0  0  0  0999 V2000
    5.6591   -1.6735    0.0000 C   0  0  1  0  0  0  0  0  0  0  0  0
    6.5251   -1.1735    0.0000 C   0  0  1  0  0  0  0  0  0  0  0  0
    4.7931   -1.1735    0.0000 C   0  0  1  0  0  0  0  0  0  0  0  0
    3.8831   -1.6803    0.0000 C   0  0  2  0  0  0  0  0  0  0  0  0
    6.5251   -0.1735    0.0000 C   0  0  2  0  0  0  0  0  0  0  0  0
    3.8751   -2.7219    0.0000 C   0  0  1  0  0  0  0  0  0  0  0  0
    5.6752   -2.7150    0.0000 C   0  0  0  0  0  0  0  0  0  0  0  0
    4.7931   -0.1735    0.0000 C   0  0  0  0  0  0  0  0  0  0  0  0
    7.4714   -1.4782    0.0000 C   0  0  0  0  0  0  0  0  0  0  0  0
    5.6591    0.3265    0.0000 C   0  0  0  0  0  0  0  0  0  0  0  0
    4.7771   -3.2427    0.0000 C   0  0  0  0  0  0  0  0  0  0  0  0
    7.4714    0.1313    0.0000 C   0  0  2  0  0  0  0  0  0  0  0  0
    2.9396   -3.2716    0.0000 C   0  0  0  0  0  0  0  0  0  0  0  0
    2.9562   -1.1162    0.0000 C   0  0  0  0  0  0  0  0  0  0  0  0
    8.0550   -0.6735    0.0000 C   0  0  0  0  0  0  0  0  0  0  0  0
    6.3019   -2.4395    0.0000 C   0  0  0  0  0  0  0  0  0  0  0  0
    6.8672   -2.1131    0.0000 C   0  0  0  0  0  0  0  0  0  0  0  0
    3.8908   -0.6803    0.0000 C   0  0  0  0  0  0  0  0  0  0  0  0
    2.0000   -2.7291    0.0000 C   0  0  0  0  0  0  0  0  0  0  0  0
    2.0084   -1.6442    0.0000 C   0  0  0  0  0  0  0  0  0  0  0  0
    7.7820    1.0818    0.0000 C   0  0  0  0  0  0  0  0  0  0  0  0
    2.4430   -4.1396    0.0000 C   0  0  0  0  0  0  0  0  0  0  0  0
    3.4430   -4.1357    0.0000 C   0  0  0  0  0  0  0  0  0  0  0  0
    8.7605    1.2880    0.0000 C   0  0  0  0  0  0  0  0  0  0  0  0
    7.1142    1.8261    0.0000 C   0  0  0  0  0  0  0  0  0  0  0  0
    9.0712    2.2385    0.0000 C   0  0  0  0  0  0  0  0  0  0  0  0
   10.0497    2.4448    0.0000 C   0  0  0  0  0  0  0  0  0  0  0  0
   10.3604    3.3953    0.0000 C   0  0  0  0  0  0  0  0  0  0  0  0
   11.3389    3.6015    0.0000 C   0  0  0  0  0  0  0  0  0  0  0  0
    9.6925    4.1396    0.0000 C   0  0  0  0  0  0  0  0  0  0  0  0
    5.5292   -0.7485    0.0000 H   0  0  0  0  0  0  0  0  0  0  0  0
    6.6151    0.6718    0.0000 H   0  0  0  0  0  0  0  0  0  0  0  0
    3.8783   -3.5719    0.0000 H   0  0  0  0  0  0  0  0  0  0  0  0
    5.8932   -3.2954    0.0000 H   0  0  0  0  0  0  0  0  0  0  0  0
    6.2843   -2.5995    0.0000 H   0  0  0  0  0  0  0  0  0  0  0  0
    4.5810    0.4092    0.0000 H   0  0  0  0  0  0  0  0  0  0  0  0
    4.1825   -0.2811    0.0000 H   0  0  0  0  0  0  0  0  0  0  0  0
    7.2203   -2.0451    0.0000 H   0  0  0  0  0  0  0  0  0  0  0  0
    8.0087   -1.7874    0.0000 H   0  0  0  0  0  0  0  0  0  0  0  0
    6.0576    0.8015    0.0000 H   0  0  0  0  0  0  0  0  0  0  0  0
    5.2606    0.8015    0.0000 H   0  0  0  0  0  0  0  0  0  0  0  0
    4.3798   -3.7187    0.0000 H   0  0  0  0  0  0  0  0  0  0  0  0
    5.1781   -3.7156    0.0000 H   0  0  0  0  0  0  0  0  0  0  0  0
    8.0838    0.2275    0.0000 H   0  0  0  0  0  0  0  0  0  0  0  0
    3.3645   -0.6496    0.0000 H   0  0  0  0  0  0  0  0  0  0  0  0
    2.5663   -0.6342    0.0000 H   0  0  0  0  0  0  0  0  0  0  0  0
    8.5158   -1.0882    0.0000 H   0  0  0  0  0  0  0  0  0  0  0  0
    8.5158   -0.2587    0.0000 H   0  0  0  0  0  0  0  0  0  0  0  0
    5.8270   -2.8380    0.0000 H   0  0  0  0  0  0  0  0  0  0  0  0
    6.7004   -2.9144    0.0000 H   0  0  0  0  0  0  0  0  0  0  0  0
    6.7768   -2.0410    0.0000 H   0  0  0  0  0  0  0  0  0  0  0  0
    6.2847   -2.3252    0.0000 H   0  0  0  0  0  0  0  0  0  0  0  0
    7.0794   -2.6957    0.0000 H   0  0  0  0  0  0  0  0  0  0  0  0
    7.4498   -1.9010    0.0000 H   0  0  0  0  0  0  0  0  0  0  0  0
    4.5108   -0.6851    0.0000 H   0  0  0  0  0  0  0  0  0  0  0  0
    3.8956   -0.0604    0.0000 H   0  0  0  0  0  0  0  0  0  0  0  0
    3.2708   -0.6756    0.0000 H   0  0  0  0  0  0  0  0  0  0  0  0
    1.3900   -2.6183    0.0000 H   0  0  0  0  0  0  0  0  0  0  0  0
    1.7864   -3.3112    0.0000 H   0  0  0  0  0  0  0  0  0  0  0  0
    1.8038   -1.0589    0.0000 H   0  0  0  0  0  0  0  0  0  0  0  0
    1.3967   -1.7456    0.0000 H   0  0  0  0  0  0  0  0  0  0  0  0
    2.9072   -4.4478    0.0000 H   0  0  0  0  0  0  0  0  0  0  0  0
    3.7550   -4.6715    0.0000 H   0  0  0  0  0  0  0  0  0  0  0  0
    3.9787   -3.8236    0.0000 H   0  0  0  0  0  0  0  0  0  0  0  0
    1.9048   -3.8316    0.0000 H   0  0  0  0  0  0  0  0  0  0  0  0
    2.1350   -4.6777    0.0000 H   0  0  0  0  0  0  0  0  0  0  0  0
    2.9811   -4.4475    0.0000 H   0  0  0  0  0  0  0  0  0  0  0  0
    8.7811    0.6684    0.0000 H   0  0  0  0  0  0  0  0  0  0  0  0
    9.3743    1.2007    0.0000 H   0  0  0  0  0  0  0  0  0  0  0  0
    7.3068    2.4154    0.0000 H   0  0  0  0  0  0  0  0  0  0  0  0
    6.5075    1.6982    0.0000 H   0  0  0  0  0  0  0  0  0  0  0  0
    9.0506    2.8582    0.0000 H   0  0  0  0  0  0  0  0  0  0  0  0
    8.4574    2.3259    0.0000 H   0  0  0  0  0  0  0  0  0  0  0  0
   10.4638    1.9833    0.0000 H   0  0  0  0  0  0  0  0  0  0  0  0
   11.4667    2.9948    0.0000 H   0  0  0  0  0  0  0  0  0  0  0  0
   11.9455    3.7294    0.0000 H   0  0  0  0  0  0  0  0  0  0  0  0
   11.2110    4.2082    0.0000 H   0  0  0  0  0  0  0  0  0  0  0  0
   10.1540    4.5536    0.0000 H   0  0  0  0  0  0  0  0  0  0  0  0
    9.2784    4.6010    0.0000 H   0  0  0  0  0  0  0  0  0  0  0  0
    9.2310    3.7255    0.0000 H   0  0  0  0  0  0  0  0  0  0  0  0
  1  2  1  0  0  0  0
  1  3  1  0  0  0  0
  1  7  1  0  0  0  0
  1 16  1  1  0  0  0
  2  5  1  0  0  0  0
  2  9  1  0  0  0  0
  2 17  1  6  0  0  0
  3  4  1  0  0  0  0
  3  8  1  0  0  0  0
  3 31  1  6  0  0  0
  4  6  1  0  0  0  0
  4 14  1  0  0  0  0
  4 18  1  1  0  0  0
  5 10  1  0  0  0  0
  5 12  1  0  0  0  0
  5 32  1  1  0  0  0
  6 11  1  0  0  0  0
  6 13  1  0  0  0  0
  6 33  1  6  0  0  0
  7 11  1  0  0  0  0
  7 34  1  0  0  0  0
  7 35  1  0  0  0  0
  8 10  1  0  0  0  0
  8 36  1  0  0  0  0
  8 37  1  0  0  0  0
  9 15  1  0  0  0  0
  9 38  1  0  0  0  0
  9 39  1  0  0  0  0
 10 40  1  0  0  0  0
 10 41  1  0  0  0  0
 11 42  1  0  0  0  0
 11 43  1  0  0  0  0
 12 15  1  0  0  0  0
 12 21  1  1  0  0  0
 12 44  1  0  0  0  0
 13 19  1  0  0  0  0
 13 22  1  0  0  0  0
 13 23  1  0  0  0  0
 14 20  1  0  0  0  0
 14 45  1  0  0  0  0
 14 46  1  0  0  0  0
 15 47  1  0  0  0  0
 15 48  1  0  0  0  0
 16 49  1  0  0  0  0
 16 50  1  0  0  0  0
 16 51  1  0  0  0  0
 17 52  1  0  0  0  0
 17 53  1  0  0  0  0
 17 54  1  0  0  0  0
 18 55  1  0  0  0  0
 18 56  1  0  0  0  0
 18 57  1  0  0  0  0
 19 20  1  0  0  0  0
 19 58  1  0  0  0  0
 19 59  1  0  0  0  0
 20 60  1  0  0  0  0
 20 61  1  0  0  0  0
 21 24  1  0  0  0  0
 21 25  2  0  0  0  0
 22 65  1  0  0  0  0
 22 66  1  0  0  0  0
 22 67  1  0  0  0  0
 23 62  1  0  0  0  0
 23 63  1  0  0  0  0
 23 64  1  0  0  0  0
 24 26  1  0  0  0  0
 24 68  1  0  0  0  0
 24 69  1  0  0  0  0
 25 70  1  0  0  0  0
 25 71  1  0  0  0  0
 26 27  1  0  0  0  0
 26 72  1  0  0  0  0
 26 73  1  0  0  0  0
 27 28  2  0  0  0  0
 27 74  1  0  0  0  0
 28 29  1  0  0  0  0
 28 30  1  0  0  0  0
 29 75  1  0  0  0  0
 29 76  1  0  0  0  0
 29 77  1  0  0  0  0
 30 78  1  0  0  0  0
 30 79  1  0  0  0  0
 30 80  1  0  0  0  0
M  END
> <PUBCHEM_COMPOUND_CID>
15432633

> <PUBCHEM_COMPOUND_CANONICALIZED>
1

> <PUBCHEM_CACTVS_COMPLEXITY>
706

> <PUBCHEM_CACTVS_HBOND_ACCEPTOR>
0

> <PUBCHEM_CACTVS_HBOND_DONOR>
0

> <PUBCHEM_CACTVS_ROTATABLE_BOND>
4

> <PUBCHEM_CACTVS_SUBSKEYS>
AAADcfB4AAAAAAAAAAAAAAAAAAAAAYAAAAAwYMAAAAAAAGDAAAAAGAAAAAAADwCAAAACAAAAAACAAiBCAAAAAAAgAAAACAAAAAgAAAIAAQAAAAAAgAAIAAMAgMAPgAAAAAAAAACAAAQAACAAAQAACAAAAA==

> <PUBCHEM_IUPAC_OPENEYE_NAME>
(5S,8R,9R,10S,13R,14R,17S)-4,4,8,10,14-pentamethyl-17-(5-methyl-1-methylene-hex-4-enyl)-2,3,5,6,7,9,11,12,13,15,16,17-dodecahydro-1H-cyclopenta[a]phenanthrene

> <PUBCHEM_IUPAC_CAS_NAME>
(5S,8R,9R,10S,13R,14R,17S)-4,4,8,10,14-pentamethyl-17-(6-methylhepta-1,5-dien-2-yl)-2,3,5,6,7,9,11,12,13,15,16,17-dodecahydro-1H-cyclopenta[a]phenanthrene

> <PUBCHEM_IUPAC_NAME>
(5S,8R,9R,10S,13R,14R,17S)-4,4,8,10,14-pentamethyl-17-(6-methylhepta-1,5-dien-2-yl)-2,3,5,6,7,9,11,12,13,15,16,17-dodecahydro-1H-cyclopenta[a]phenanthrene

> <PUBCHEM_IUPAC_SYSTEMATIC_NAME>
(5S,8R,9R,10S,13R,14R,17S)-4,4,8,10,14-pentamethyl-17-(6-methylhepta-1,5-dien-2-yl)-2,3,5,6,7,9,11,12,13,15,16,17-dodecahydro-1H-cyclopenta[a]phenanthrene

> <PUBCHEM_IUPAC_TRADITIONAL_NAME>
(5S,8R,9R,10S,13R,14R,17S)-4,4,8,10,14-pentamethyl-17-(5-methyl-1-methylene-hex-4-enyl)-2,3,5,6,7,9,11,12,13,15,16,17-dodecahydro-1H-cyclopenta[a]phenanthrene

> <PUBCHEM_IUPAC_INCHI>
InChI=1S/C30H50/c1-21(2)11-9-12-22(3)23-15-19-29(7)24(23)13-14-26-28(6)18-10-17-27(4,5)25(28)16-20-30(26,29)8/h11,23-26H,3,9-10,12-20H2,1-2,4-8H3/t23-,24-,25+,26-,28+,29-,30-/m1/s1

> <PUBCHEM_IUPAC_INCHIKEY>
SEXOMBPXHYAKHY-YCJSVCQFSA-N

> <PUBCHEM_XLOGP3_AA>
11.5

> <PUBCHEM_EXACT_MASS>
410.391252

> <PUBCHEM_MOLECULAR_FORMULA>
C30H50

> <PUBCHEM_MOLECULAR_WEIGHT>
410.718

> <PUBCHEM_OPENEYE_CAN_SMILES>
CC(=CCCC(=C)C1CCC2(C1CCC3C2(CCC4C3(CCCC4(C)C)C)C)C)C

> <PUBCHEM_OPENEYE_ISO_SMILES>
CC(=CCCC(=C)[C@H]1CC[C@@]2([C@@H]1CC[C@H]3[C@]2(CC[C@@H]4[C@@]3(CCCC4(C)C)C)C)C)C

> <PUBCHEM_CACTVS_TPSA>
0

> <PUBCHEM_MONOISOTOPIC_WEIGHT>
410.391252

> <PUBCHEM_TOTAL_CHARGE>
0

> <PUBCHEM_HEAVY_ATOM_COUNT>
30

> <PUBCHEM_ATOM_DEF_STEREO_COUNT>
7

> <PUBCHEM_ATOM_UDEF_STEREO_COUNT>
0

> <PUBCHEM_BOND_DEF_STEREO_COUNT>
0

> <PUBCHEM_BOND_UDEF_STEREO_COUNT>
0

> <PUBCHEM_ISOTOPIC_ATOM_COUNT>
0

> <PUBCHEM_COMPONENT_COUNT>
1

> <PUBCHEM_CACTVS_TAUTO_COUNT>
1

> <PUBCHEM_COORDINATE_TYPE>
1
5
255

> <PUBCHEM_BONDANNOTATIONS>
1  16  5
12  21  5
2  17  6
3  31  6
4  18  5
5  32  5
6  33  6

$$$$

