160502
  -OEChem-07051212572D

 40 44  0     1  0  0  0  0  0999 V2000
    6.9742    1.4497    0.0000 O   0  0  0  0  0  0  0  0  0  0  0  0
    6.9742    3.0591    0.0000 O   0  0  0  0  0  0  0  0  0  0  0  0
    7.0184   -1.8826    0.0000 O   0  0  0  0  0  0  0  0  0  0  0  0
    5.2151   -2.9423    0.0000 O   0  0  0  0  0  0  0  0  0  0  0  0
    2.5466    1.7758    0.0000 N   0  0  0  0  0  0  0  0  0  0  0  0
    3.3859    1.2475    0.0000 C   0  0  2  0  0  0  0  0  0  0  0  0
    4.2959    1.7544    0.0000 C   0  0  0  0  0  0  0  0  0  0  0  0
    3.3779    0.2059    0.0000 C   0  0  0  0  0  0  0  0  0  0  0  0
    5.1619    1.2544    0.0000 C   0  0  0  0  0  0  0  0  0  0  0  0
    4.2959    2.7544    0.0000 C   0  0  0  0  0  0  0  0  0  0  0  0
    3.4377    3.2513    0.0000 C   0  0  0  0  0  0  0  0  0  0  0  0
    4.2799   -0.3149    0.0000 C   0  0  0  0  0  0  0  0  0  0  0  0
    2.5722    2.7672    0.0000 C   0  0  0  0  0  0  0  0  0  0  0  0
    5.1780    0.2129    0.0000 C   0  0  0  0  0  0  0  0  0  0  0  0
    6.0279    1.7544    0.0000 C   0  0  0  0  0  0  0  0  0  0  0  0
    5.1619    3.2544    0.0000 C   0  0  0  0  0  0  0  0  0  0  0  0
    6.0279    2.7544    0.0000 C   0  0  0  0  0  0  0  0  0  0  0  0
    4.2716   -1.3998    0.0000 C   0  0  0  0  0  0  0  0  0  0  0  0
    6.1299   -0.3077    0.0000 C   0  0  0  0  0  0  0  0  0  0  0  0
    6.1466   -1.3926    0.0000 C   0  0  0  0  0  0  0  0  0  0  0  0
    5.2112   -1.9423    0.0000 C   0  0  0  0  0  0  0  0  0  0  0  0
    7.5578    2.2544    0.0000 C   0  0  0  0  0  0  0  0  0  0  0  0
    7.0299   -2.8825    0.0000 C   0  0  0  0  0  0  0  0  0  0  0  0
    2.6402    0.8395    0.0000 H   0  0  0  0  0  0  0  0  0  0  0  0
    2.7678    0.3167    0.0000 H   0  0  0  0  0  0  0  0  0  0  0  0
    3.1643   -0.3761    0.0000 H   0  0  0  0  0  0  0  0  0  0  0  0
    3.8387    3.7241    0.0000 H   0  0  0  0  0  0  0  0  0  0  0  0
    3.0436    3.7300    0.0000 H   0  0  0  0  0  0  0  0  0  0  0  0
    2.0000    1.4831    0.0000 H   0  0  0  0  0  0  0  0  0  0  0  0
    2.3704    3.3534    0.0000 H   0  0  0  0  0  0  0  0  0  0  0  0
    1.9594    2.6728    0.0000 H   0  0  0  0  0  0  0  0  0  0  0  0
    5.1619    3.8744    0.0000 H   0  0  0  0  0  0  0  0  0  0  0  0
    3.7334   -1.7078    0.0000 H   0  0  0  0  0  0  0  0  0  0  0  0
    6.6608    0.0126    0.0000 H   0  0  0  0  0  0  0  0  0  0  0  0
    8.0186    1.8397    0.0000 H   0  0  0  0  0  0  0  0  0  0  0  0
    8.0186    2.6691    0.0000 H   0  0  0  0  0  0  0  0  0  0  0  0
    4.6793   -3.2544    0.0000 H   0  0  0  0  0  0  0  0  0  0  0  0
    6.4100   -2.8897    0.0000 H   0  0  0  0  0  0  0  0  0  0  0  0
    7.0371   -3.5024    0.0000 H   0  0  0  0  0  0  0  0  0  0  0  0
    7.6499   -2.8753    0.0000 H   0  0  0  0  0  0  0  0  0  0  0  0
  1 15  1  0  0  0  0
  1 22  1  0  0  0  0
  2 17  1  0  0  0  0
  2 22  1  0  0  0  0
  3 20  1  0  0  0  0
  3 23  1  0  0  0  0
  4 21  1  0  0  0  0
  4 37  1  0  0  0  0
  5  6  1  0  0  0  0
  5 13  1  0  0  0  0
  5 29  1  0  0  0  0
  6  7  1  0  0  0  0
  6  8  1  0  0  0  0
  6 24  1  1  0  0  0
  7  9  2  0  0  0  0
  7 10  1  0  0  0  0
  8 12  1  0  0  0  0
  8 25  1  0  0  0  0
  8 26  1  0  0  0  0
  9 14  1  0  0  0  0
  9 15  1  0  0  0  0
 10 11  1  0  0  0  0
 10 16  2  0  0  0  0
 11 13  1  0  0  0  0
 11 27  1  0  0  0  0
 11 28  1  0  0  0  0
 12 14  1  0  0  0  0
 12 18  2  0  0  0  0
 13 30  1  0  0  0  0
 13 31  1  0  0  0  0
 14 19  2  0  0  0  0
 15 17  2  0  0  0  0
 16 17  1  0  0  0  0
 16 32  1  0  0  0  0
 18 21  1  0  0  0  0
 18 33  1  0  0  0  0
 19 20  1  0  0  0  0
 19 34  1  0  0  0  0
 20 21  2  0  0  0  0
 22 35  1  0  0  0  0
 22 36  1  0  0  0  0
 23 38  1  0  0  0  0
 23 39  1  0  0  0  0
 23 40  1  0  0  0  0
M  END
> <PUBCHEM_COMPOUND_CID>
160502

> <PUBCHEM_COMPOUND_CANONICALIZED>
1

> <PUBCHEM_CACTVS_COMPLEXITY>
460

> <PUBCHEM_CACTVS_HBOND_ACCEPTOR>
5

> <PUBCHEM_CACTVS_HBOND_DONOR>
2

> <PUBCHEM_CACTVS_ROTATABLE_BOND>
1

> <PUBCHEM_CACTVS_SUBSKEYS>
AAADceB6OAAAAAAAAAAAAAAAAAAAASAAAAA8YMEAAAAAAEjxQAAAHgAQCAAADCzBmAcyDoLABgCAAiBCAACCCAAgIAAAiIAOjIgdJiKGsRukcCtk0BGPuAew8P8OoAADAAAYQADQAAaAADSAAAAAAAAAAA==

> <PUBCHEM_IUPAC_INCHI>
InChI=1S/C18H17NO4/c1-21-14-7-11-10(5-13(14)20)4-12-16-9(2-3-19-12)6-15-18(17(11)16)23-8-22-15/h5-7,12,19-20H,2-4,8H2,1H3/t12-/m0/s1

> <PUBCHEM_IUPAC_INCHIKEY>
VYJUHRAQPIBWNV-LBPRGKRZSA-N

> <PUBCHEM_XLOGP3_AA>
2.4

> <PUBCHEM_EXACT_MASS>
311.115758

> <PUBCHEM_MOLECULAR_FORMULA>
C18H17NO4

> <PUBCHEM_MOLECULAR_WEIGHT>
311.33188

> <PUBCHEM_OPENEYE_CAN_SMILES>
COC1=C(C=C2CC3C4=C(C2=C1)C5=C(C=C4CCN3)OCO5)O

> <PUBCHEM_OPENEYE_ISO_SMILES>
COC1=C(C=C2C[C@H]3C4=C(C2=C1)C5=C(C=C4CCN3)OCO5)O

> <PUBCHEM_CACTVS_TPSA>
60

> <PUBCHEM_MONOISOTOPIC_WEIGHT>
311.115758

> <PUBCHEM_TOTAL_CHARGE>
0

> <PUBCHEM_HEAVY_ATOM_COUNT>
23

> <PUBCHEM_ATOM_DEF_STEREO_COUNT>
1

> <PUBCHEM_ATOM_UDEF_STEREO_COUNT>
0

> <PUBCHEM_BOND_DEF_STEREO_COUNT>
0

> <PUBCHEM_BOND_UDEF_STEREO_COUNT>
0

> <PUBCHEM_ISOTOPIC_ATOM_COUNT>
0

> <PUBCHEM_COMPONENT_COUNT>
1

> <PUBCHEM_CACTVS_TAUTO_COUNT>
9

> <PUBCHEM_COORDINATE_TYPE>
1
5
255

> <PUBCHEM_BONDANNOTATIONS>
10  16  8
12  14  8
12  18  8
14  19  8
15  17  8
16  17  8
18  21  8
19  20  8
20  21  8
6  24  5
7  10  8
7  9  8
9  15  8

$$$$

