6857415
  -OEChem-07051212453D

 28 27  0     1  0  0  0  0  0999 V2000
   -3.8339    0.0961    0.0855 P   0  0  0  0  0  0  0  0  0  0  0  0
    2.5663   -1.8769    0.2881 O   0  0  0  0  0  0  0  0  0  0  0  0
    1.3430    1.4936   -0.5333 O   0  0  0  0  0  0  0  0  0  0  0  0
    4.0406    1.3226   -0.7188 O   0  0  0  0  0  0  0  0  0  0  0  0
   -2.3617   -0.5121   -0.2146 O   0  0  0  0  0  0  0  0  0  0  0  0
    0.0173   -1.5930   -0.7600 O   0  0  0  0  0  0  0  0  0  0  0  0
   -3.7976    1.5513   -0.6191 O   0  0  0  0  0  0  0  0  0  0  0  0
   -3.7696    0.4450    1.6632 O   0  0  0  0  0  0  0  0  0  0  0  0
   -4.9775   -0.7858   -0.3225 O   0  0  0  0  0  0  0  0  0  0  0  0
    2.5906   -0.5964   -0.3454 C   0  0  1  0  0  0  0  0  0  0  0  0
    1.3640    0.2198    0.0928 C   0  0  2  0  0  0  0  0  0  0  0  0
    3.9278    0.0904   -0.0120 C   0  0  2  0  0  0  0  0  0  0  0  0
    0.0464   -0.4857   -0.2220 C   0  0  0  0  0  0  0  0  0  0  0  0
    4.0723    0.3770    1.4794 C   0  0  0  0  0  0  0  0  0  0  0  0
   -1.2281    0.2540    0.1387 C   0  0  0  0  0  0  0  0  0  0  0  0
    2.5506   -0.7519   -1.4313 H   0  0  0  0  0  0  0  0  0  0  0  0
    1.3736    0.3524    1.1810 H   0  0  0  0  0  0  0  0  0  0  0  0
    4.7575   -0.5574   -0.3187 H   0  0  0  0  0  0  0  0  0  0  0  0
    3.3800    1.1557    1.8151 H   0  0  0  0  0  0  0  0  0  0  0  0
    5.0766    0.7662    1.6826 H   0  0  0  0  0  0  0  0  0  0  0  0
    3.9290   -0.5209    2.0872 H   0  0  0  0  0  0  0  0  0  0  0  0
   -1.2251    0.4375    1.2167 H   0  0  0  0  0  0  0  0  0  0  0  0
   -1.2543    1.2001   -0.4073 H   0  0  0  0  0  0  0  0  0  0  0  0
    1.8081   -2.3709   -0.0659 H   0  0  0  0  0  0  0  0  0  0  0  0
    0.7585    2.0718   -0.0145 H   0  0  0  0  0  0  0  0  0  0  0  0
    3.9612    1.1239   -1.6672 H   0  0  0  0  0  0  0  0  0  0  0  0
   -4.6161    2.0917   -0.6344 H   0  0  0  0  0  0  0  0  0  0  0  0
   -4.5850    0.7492    2.1156 H   0  0  0  0  0  0  0  0  0  0  0  0
  1  5  1  0  0  0  0
  1  7  1  0  0  0  0
  1  8  1  0  0  0  0
  1  9  2  0  0  0  0
  2 10  1  0  0  0  0
  2 24  1  0  0  0  0
  3 11  1  0  0  0  0
  3 25  1  0  0  0  0
  4 12  1  0  0  0  0
  4 26  1  0  0  0  0
  5 15  1  0  0  0  0
  6 13  2  0  0  0  0
  7 27  1  0  0  0  0
  8 28  1  0  0  0  0
 10 11  1  0  0  0  0
 10 12  1  0  0  0  0
 10 16  1  0  0  0  0
 11 13  1  0  0  0  0
 11 17  1  0  0  0  0
 12 14  1  0  0  0  0
 12 18  1  0  0  0  0
 13 15  1  0  0  0  0
 14 19  1  0  0  0  0
 14 20  1  0  0  0  0
 14 21  1  0  0  0  0
 15 22  1  0  0  0  0
 15 23  1  0  0  0  0
M  END
> <PUBCHEM_COMPOUND_CID>
6857415

> <PUBCHEM_CONFORMER_RMSD>
0.8

> <PUBCHEM_CONFORMER_DIVERSEORDER>
2
19
62
84
65
112
6
109
55
39
96
8
121
116
48
3
70
76
67
30
103
11
49
61
91
40
45
115
101
24
120
111
99
38
82
63
69
114
52
88
17
59
102
86
13
71
66
25
15
44
119
23
53
90
50
56
98
42
26
18
106
75
57
10
122
21
32
100
29
118
97
108
78
20
1
60
14
9
47
87
5
117
74
113
79
110
58
16
28
94
7
54
36
95
4
33
92
93
12
72
31
43
73
27
35
107
89
104
41
37
81
83
64
34
68
80
51
22
85
46
105
77

> <PUBCHEM_MMFF94_PARTIAL_CHARGES>
19
1 1.51
10 0.28
11 0.34
12 0.28
13 0.45
15 0.34
2 -0.68
24 0.4
25 0.4
26 0.4
27 0.5
28 0.5
3 -0.68
4 -0.68
5 -0.55
6 -0.57
7 -0.77
8 -0.77
9 -0.7

> <PUBCHEM_EFFECTIVE_ROTOR_COUNT>
6

> <PUBCHEM_PHARMACOPHORE_FEATURES>
11
1 2 acceptor
1 2 donor
1 3 acceptor
1 3 donor
1 4 acceptor
1 4 donor
1 6 acceptor
1 7 acceptor
1 8 acceptor
1 9 acceptor
4 1 7 8 9 anion

> <PUBCHEM_HEAVY_ATOM_COUNT>
15

> <PUBCHEM_ATOM_DEF_STEREO_COUNT>
3

> <PUBCHEM_ATOM_UDEF_STEREO_COUNT>
0

> <PUBCHEM_BOND_DEF_STEREO_COUNT>
0

> <PUBCHEM_BOND_UDEF_STEREO_COUNT>
0

> <PUBCHEM_ISOTOPIC_ATOM_COUNT>
0

> <PUBCHEM_COMPONENT_COUNT>
1

> <PUBCHEM_CACTVS_TAUTO_COUNT>
9

> <PUBCHEM_CONFORMER_ID>
0068A2C700000002

> <PUBCHEM_MMFF94_ENERGY>
-10.0411

> <PUBCHEM_FEATURE_SELFOVERLAP>
55.872

> <PUBCHEM_SHAPE_FINGERPRINT>
10219947 1 18410570716697306174
10980938 120 18410012156501265086
124424 183 17418377995535311701
14123238 8 18408041792993494223
14252887 29 18272368706877975466
17834072 33 18339925913770966007
18186145 218 17530964687336524832
200 152 18041005042619480711
20279233 1 17704067400167637771
20645477 70 18340209707819539630
23402539 116 18131359588022370943
23402655 69 18261678155437050069
4047638 21 17385443190019511522
42 15 15698006249167594936
449060 62 18334853927041158646
4990 188 16588014719584435164
5104073 3 18336827601852515067
522135 26 6916264044272529530
542803 24 14129054799107791195
90127 26 18131342046584720941

> <PUBCHEM_SHAPE_MULTIPOLES>
265.59
9.81
1.39
1.01
5.28
0.16
0.39
-1.55
1.27
-0.35
-0.25
-0.14
-0.21
-0.2

> <PUBCHEM_SHAPE_SELFOVERLAP>
498.193

> <PUBCHEM_SHAPE_VOLUME>
165.8

> <PUBCHEM_COORDINATE_TYPE>
2
5
10

$$$$

