23724658
  -OEChem-07051213082D

 28 29  0     0  0  0  0  0  0999 V2000
    3.7320    2.5000    0.0000 O   0  0  0  0  0  0  0  0  0  0  0  0
    2.0000   -0.5000    0.0000 O   0  0  0  0  0  0  0  0  0  0  0  0
    2.0000   -2.5000    0.0000 O   0  0  0  0  0  0  0  0  0  0  0  0
    3.7320   -2.5000    0.0000 O   0  0  0  0  0  0  0  0  0  0  0  0
    6.3301    1.0000    0.0000 C   0  0  0  0  0  0  0  0  0  0  0  0
    6.3301    2.0000    0.0000 C   0  0  0  0  0  0  0  0  0  0  0  0
    4.5981    1.0000    0.0000 C   0  0  0  0  0  0  0  0  0  0  0  0
    5.4641    0.5000    0.0000 C   0  0  0  0  0  0  0  0  0  0  0  0
    5.4641    2.5000    0.0000 C   0  0  0  0  0  0  0  0  0  0  0  0
    4.5981    2.0000    0.0000 C   0  0  0  0  0  0  0  0  0  0  0  0
    7.2241    0.4653    0.0000 C   0  0  0  0  0  0  0  0  0  0  0  0
    7.2241    2.5347    0.0000 C   0  0  0  0  0  0  0  0  0  0  0  0
    8.1301    0.9792    0.0000 C   0  0  0  0  0  0  0  0  0  0  0  0
    8.1301    2.0208    0.0000 C   0  0  0  0  0  0  0  0  0  0  0  0
    3.7320    0.5000    0.0000 C   0  0  0  0  0  0  0  0  0  0  0  0
    3.7320   -0.5000    0.0000 C   0  0  0  0  0  0  0  0  0  0  0  0
    2.8660   -1.0000    0.0000 C   0  0  0  0  0  0  0  0  0  0  0  0
    2.8660   -2.0000    0.0000 C   0  0  0  0  0  0  0  0  0  0  0  0
    5.4641   -0.1200    0.0000 H   0  0  0  0  0  0  0  0  0  0  0  0
    5.4641    3.1200    0.0000 H   0  0  0  0  0  0  0  0  0  0  0  0
    7.2169   -0.1546    0.0000 H   0  0  0  0  0  0  0  0  0  0  0  0
    7.2169    3.1546    0.0000 H   0  0  0  0  0  0  0  0  0  0  0  0
    8.6659    0.6671    0.0000 H   0  0  0  0  0  0  0  0  0  0  0  0
    8.6659    2.3329    0.0000 H   0  0  0  0  0  0  0  0  0  0  0  0
    3.1951    0.8100    0.0000 H   0  0  0  0  0  0  0  0  0  0  0  0
    4.2690   -0.8100    0.0000 H   0  0  0  0  0  0  0  0  0  0  0  0
    3.7320    3.1200    0.0000 H   0  0  0  0  0  0  0  0  0  0  0  0
    2.0000   -3.1200    0.0000 H   0  0  0  0  0  0  0  0  0  0  0  0
  1 10  1  0  0  0  0
  1 27  1  0  0  0  0
  2 17  2  0  0  0  0
  3 18  1  0  0  0  0
  3 28  1  0  0  0  0
  4 18  2  0  0  0  0
  5  6  1  0  0  0  0
  5  8  1  0  0  0  0
  5 11  2  0  0  0  0
  6  9  1  0  0  0  0
  6 12  2  0  0  0  0
  7  8  2  0  0  0  0
  7 10  1  0  0  0  0
  7 15  1  0  0  0  0
  8 19  1  0  0  0  0
  9 10  2  0  0  0  0
  9 20  1  0  0  0  0
 11 13  1  0  0  0  0
 11 21  1  0  0  0  0
 12 14  1  0  0  0  0
 12 22  1  0  0  0  0
 13 14  2  0  0  0  0
 13 23  1  0  0  0  0
 14 24  1  0  0  0  0
 15 16  2  0  0  0  0
 15 25  1  0  0  0  0
 16 17  1  0  0  0  0
 16 26  1  0  0  0  0
 17 18  1  0  0  0  0
M  END
> <PUBCHEM_COMPOUND_CID>
23724658

> <PUBCHEM_COMPOUND_CANONICALIZED>
1

> <PUBCHEM_CACTVS_COMPLEXITY>
361

> <PUBCHEM_CACTVS_HBOND_ACCEPTOR>
4

> <PUBCHEM_CACTVS_HBOND_DONOR>
2

> <PUBCHEM_CACTVS_ROTATABLE_BOND>
3

> <PUBCHEM_CACTVS_SUBSKEYS>
AAADccBwOAAAAAAAAAAAAAAAAAAAAAAAAAAwYAAAAAAAAADBUAAAGgAACAAADASAmAAwDsAAAgCIAqDSCAICAAAgIAAIiAFGCMgIJiKCERKAcAAkwBEImYeAwPAO4AADAAAYAADAAAYAADAAAAAAAAAAAA==

> <PUBCHEM_IUPAC_OPENEYE_NAME>
(E)-4-(3-hydroxy-2-naphthyl)-2-oxo-but-3-enoic acid

> <PUBCHEM_IUPAC_CAS_NAME>
(E)-4-(3-hydroxy-2-naphthalenyl)-2-oxo-3-butenoic acid

> <PUBCHEM_IUPAC_NAME>
(E)-4-(3-hydroxynaphthalen-2-yl)-2-oxobut-3-enoic acid

> <PUBCHEM_IUPAC_SYSTEMATIC_NAME>
(E)-2-oxidanylidene-4-(3-oxidanylnaphthalen-2-yl)but-3-enoic acid

> <PUBCHEM_IUPAC_TRADITIONAL_NAME>
(E)-4-(3-hydroxy-2-naphthyl)-2-keto-but-3-enoic acid

> <PUBCHEM_IUPAC_INCHI>
InChI=1S/C14H10O4/c15-12(14(17)18)6-5-11-7-9-3-1-2-4-10(9)8-13(11)16/h1-8,16H,(H,17,18)/b6-5+

> <PUBCHEM_IUPAC_INCHIKEY>
LVEQUEJWJRJCST-AATRIKPKSA-N

> <PUBCHEM_XLOGP3_AA>
2.7

> <PUBCHEM_EXACT_MASS>
242.057909

> <PUBCHEM_MOLECULAR_FORMULA>
C14H10O4

> <PUBCHEM_MOLECULAR_WEIGHT>
242.2268

> <PUBCHEM_OPENEYE_CAN_SMILES>
C1=CC=C2C=C(C(=CC2=C1)C=CC(=O)C(=O)O)O

> <PUBCHEM_OPENEYE_ISO_SMILES>
C1=CC=C2C=C(C(=CC2=C1)/C=C/C(=O)C(=O)O)O

> <PUBCHEM_CACTVS_TPSA>
74.6

> <PUBCHEM_MONOISOTOPIC_WEIGHT>
242.057909

> <PUBCHEM_TOTAL_CHARGE>
0

> <PUBCHEM_HEAVY_ATOM_COUNT>
18

> <PUBCHEM_ATOM_DEF_STEREO_COUNT>
0

> <PUBCHEM_ATOM_UDEF_STEREO_COUNT>
0

> <PUBCHEM_BOND_DEF_STEREO_COUNT>
1

> <PUBCHEM_BOND_UDEF_STEREO_COUNT>
0

> <PUBCHEM_ISOTOPIC_ATOM_COUNT>
0

> <PUBCHEM_COMPONENT_COUNT>
1

> <PUBCHEM_CACTVS_TAUTO_COUNT>
6

> <PUBCHEM_COORDINATE_TYPE>
1
5
255

> <PUBCHEM_BONDANNOTATIONS>
11  13  8
12  14  8
13  14  8
5  11  8
5  6  8
5  8  8
6  12  8
6  9  8
7  10  8
7  8  8
9  10  8

$$$$

