174862
  -OEChem-07051213003D

 53 53  0     0  0  0  0  0  0999 V2000
    7.3562    2.3148   -0.8420 O   0  0  0  0  0  0  0  0  0  0  0  0
    7.3470   -2.4556   -0.6690 O   0  0  0  0  0  0  0  0  0  0  0  0
   -2.6437    0.1710   -0.2008 C   0  0  0  0  0  0  0  0  0  0  0  0
   -3.9851    0.2055    0.5348 C   0  0  0  0  0  0  0  0  0  0  0  0
   -1.4725    0.1469    0.7840 C   0  0  0  0  0  0  0  0  0  0  0  0
   -5.1952    0.1582   -0.4025 C   0  0  0  0  0  0  0  0  0  0  0  0
   -0.1315    0.0743    0.0516 C   0  0  0  0  0  0  0  0  0  0  0  0
   -6.5354    0.1183    0.3350 C   0  0  0  0  0  0  0  0  0  0  0  0
    1.0409    0.0841    1.0350 C   0  0  0  0  0  0  0  0  0  0  0  0
   -7.7046   -0.0015   -0.6464 C   0  0  0  0  0  0  0  0  0  0  0  0
    2.3813   -0.0226    0.3009 C   0  0  0  0  0  0  0  0  0  0  0  0
   -9.0427   -0.0793    0.0923 C   0  0  0  0  0  0  0  0  0  0  0  0
    3.5872    0.0094    1.2466 C   0  0  0  0  0  0  0  0  0  0  0  0
  -10.2480   -0.1757   -0.8452 C   0  0  0  0  0  0  0  0  0  0  0  0
    4.9184   -0.0189    0.5387 C   0  0  0  0  0  0  0  0  0  0  0  0
  -11.5785   -0.2796   -0.1156 C   0  0  0  0  0  0  0  0  0  0  0  0
    5.5170   -1.2388    0.2627 C   0  0  0  0  0  0  0  0  0  0  0  0
    5.5217    1.1756    0.1752 C   0  0  0  0  0  0  0  0  0  0  0  0
    6.7531    1.1495   -0.4796 C   0  0  0  0  0  0  0  0  0  0  0  0
    6.7483   -1.2649   -0.3923 C   0  0  0  0  0  0  0  0  0  0  0  0
    7.3663   -0.0706   -0.7634 C   0  0  0  0  0  0  0  0  0  0  0  0
   -2.6018   -0.7181   -0.8415 H   0  0  0  0  0  0  0  0  0  0  0  0
   -2.5617    1.0465   -0.8559 H   0  0  0  0  0  0  0  0  0  0  0  0
   -4.0407    1.1129    1.1488 H   0  0  0  0  0  0  0  0  0  0  0  0
   -4.0382   -0.6464    1.2243 H   0  0  0  0  0  0  0  0  0  0  0  0
   -1.5704   -0.7165    1.4533 H   0  0  0  0  0  0  0  0  0  0  0  0
   -1.5027    1.0469    1.4102 H   0  0  0  0  0  0  0  0  0  0  0  0
   -5.1705    1.0313   -1.0663 H   0  0  0  0  0  0  0  0  0  0  0  0
   -5.1120   -0.7285   -1.0434 H   0  0  0  0  0  0  0  0  0  0  0  0
   -0.0403    0.9244   -0.6354 H   0  0  0  0  0  0  0  0  0  0  0  0
   -0.0952   -0.8381   -0.5561 H   0  0  0  0  0  0  0  0  0  0  0  0
   -6.6484    1.0259    0.9401 H   0  0  0  0  0  0  0  0  0  0  0  0
   -6.5470   -0.7345    1.0246 H   0  0  0  0  0  0  0  0  0  0  0  0
    0.9428   -0.7526    1.7371 H   0  0  0  0  0  0  0  0  0  0  0  0
    1.0183    1.0077    1.6256 H   0  0  0  0  0  0  0  0  0  0  0  0
   -7.5783   -0.8974   -1.2660 H   0  0  0  0  0  0  0  0  0  0  0  0
   -7.7077    0.8622   -1.3223 H   0  0  0  0  0  0  0  0  0  0  0  0
    2.4627    0.8021   -0.4188 H   0  0  0  0  0  0  0  0  0  0  0  0
    2.4035   -0.9496   -0.2861 H   0  0  0  0  0  0  0  0  0  0  0  0
   -9.0367   -0.9507    0.7589 H   0  0  0  0  0  0  0  0  0  0  0  0
   -9.1568    0.8060    0.7302 H   0  0  0  0  0  0  0  0  0  0  0  0
    3.5360    0.9072    1.8767 H   0  0  0  0  0  0  0  0  0  0  0  0
    3.5288   -0.8365    1.9442 H   0  0  0  0  0  0  0  0  0  0  0  0
  -10.2702    0.7040   -1.4993 H   0  0  0  0  0  0  0  0  0  0  0  0
  -10.1330   -1.0516   -1.4950 H   0  0  0  0  0  0  0  0  0  0  0  0
  -11.6069   -1.1711    0.5188 H   0  0  0  0  0  0  0  0  0  0  0  0
  -11.7458    0.5978    0.5170 H   0  0  0  0  0  0  0  0  0  0  0  0
  -12.4021   -0.3452   -0.8334 H   0  0  0  0  0  0  0  0  0  0  0  0
    5.0375   -2.1712    0.5486 H   0  0  0  0  0  0  0  0  0  0  0  0
    5.0403    2.1248    0.3958 H   0  0  0  0  0  0  0  0  0  0  0  0
    8.3260   -0.0838   -1.2741 H   0  0  0  0  0  0  0  0  0  0  0  0
    6.7934    3.0594   -0.5684 H   0  0  0  0  0  0  0  0  0  0  0  0
    8.1898   -2.2865   -1.1240 H   0  0  0  0  0  0  0  0  0  0  0  0
  1 19  1  0  0  0  0
  1 52  1  0  0  0  0
  2 20  1  0  0  0  0
  2 53  1  0  0  0  0
  3  4  1  0  0  0  0
  3  5  1  0  0  0  0
  3 22  1  0  0  0  0
  3 23  1  0  0  0  0
  4  6  1  0  0  0  0
  4 24  1  0  0  0  0
  4 25  1  0  0  0  0
  5  7  1  0  0  0  0
  5 26  1  0  0  0  0
  5 27  1  0  0  0  0
  6  8  1  0  0  0  0
  6 28  1  0  0  0  0
  6 29  1  0  0  0  0
  7  9  1  0  0  0  0
  7 30  1  0  0  0  0
  7 31  1  0  0  0  0
  8 10  1  0  0  0  0
  8 32  1  0  0  0  0
  8 33  1  0  0  0  0
  9 11  1  0  0  0  0
  9 34  1  0  0  0  0
  9 35  1  0  0  0  0
 10 12  1  0  0  0  0
 10 36  1  0  0  0  0
 10 37  1  0  0  0  0
 11 13  1  0  0  0  0
 11 38  1  0  0  0  0
 11 39  1  0  0  0  0
 12 14  1  0  0  0  0
 12 40  1  0  0  0  0
 12 41  1  0  0  0  0
 13 15  1  0  0  0  0
 13 42  1  0  0  0  0
 13 43  1  0  0  0  0
 14 16  1  0  0  0  0
 14 44  1  0  0  0  0
 14 45  1  0  0  0  0
 15 17  2  0  0  0  0
 15 18  1  0  0  0  0
 16 46  1  0  0  0  0
 16 47  1  0  0  0  0
 16 48  1  0  0  0  0
 17 20  1  0  0  0  0
 17 49  1  0  0  0  0
 18 19  2  0  0  0  0
 18 50  1  0  0  0  0
 19 21  1  0  0  0  0
 20 21  2  0  0  0  0
 21 51  1  0  0  0  0
M  END
> <PUBCHEM_COMPOUND_CID>
174862

> <PUBCHEM_CONFORMER_RMSD>
1.2

> <PUBCHEM_CONFORMER_DIVERSEORDER>
1
181
23
114
43
193
119
95
38
88
8
86
117
199
22
105
195
9
162
35
55
7
27
111
70
101
19
200
51
87
102
10
198
127
137
83
89
149
2
32
160
65
106
96
140
79
91
26
194
175
20
57
196
197
63
13
94
30
62
191
82
48
71
78
58
40
31
17
34
124
190
18
100
182
107
53
36
47
21
141
11
33
178
64
37
143
109
16
46
44
120
4
98
49
121
6
131
80
135
67
104
56
15
52
3
28
110
69
154
61
75
41
5
113
116
165
130
166
72
66
42
97
169
74
132
90
108
68
184
201
59
118
12
84
29
25
129
99
171
39
126
155
144
76
60
93
192
174
77
142
163
179
24
147
180
146
183
14
168
85
73
128
159
177
139
54
50
167
122
187
172
157
176
186
81
145
152
158
148
103
150
45
112
136
153
156
92
134
164
125
161
133
173
138
185
189
123
115
151
188
170

> <PUBCHEM_MMFF94_PARTIAL_CHARGES>
14
1 -0.53
13 0.14
15 -0.14
17 -0.15
18 -0.15
19 0.08
2 -0.53
20 0.08
21 -0.15
49 0.15
50 0.15
51 0.15
52 0.45
53 0.45

> <PUBCHEM_EFFECTIVE_ROTOR_COUNT>
12

> <PUBCHEM_PHARMACOPHORE_FEATURES>
4
1 1 donor
1 16 hydrophobe
1 2 donor
6 15 17 18 19 20 21 rings

> <PUBCHEM_HEAVY_ATOM_COUNT>
21

> <PUBCHEM_ATOM_DEF_STEREO_COUNT>
0

> <PUBCHEM_ATOM_UDEF_STEREO_COUNT>
0

> <PUBCHEM_BOND_DEF_STEREO_COUNT>
0

> <PUBCHEM_BOND_UDEF_STEREO_COUNT>
0

> <PUBCHEM_ISOTOPIC_ATOM_COUNT>
0

> <PUBCHEM_COMPONENT_COUNT>
1

> <PUBCHEM_CACTVS_TAUTO_COUNT>
10

> <PUBCHEM_CONFORMER_ID>
0002AB0E00000001

> <PUBCHEM_MMFF94_ENERGY>
18.1714

> <PUBCHEM_FEATURE_SELFOVERLAP>
20.297

> <PUBCHEM_SHAPE_FINGERPRINT>
10299344 5 18040154024176181255
11315181 36 18060136541017379937
11638347 137 7637407327898240933
12089408 11 18186801388211365521
12559415 90 9943533995208749155
14216079 64 14779262016562755272
14251764 18 17603583037132264419
14251764 46 4895552987490921393
14344974 52 17060337385064999985
14428016 248 18413103962520625089
15510794 2 18131347496850987770
155225 1 13614233785544478110
1754911 235 18060423513140571279
1818759 1 17967533455190741783
20812841 46 9583516512556795742
21095086 128 18113339717677041775
21150785 3 18411419505340610641
21360442 33 17986959738263262330
21360442 67 18273494576773639370
21362267 2 17489038050381917957
21362267 313 12031248233613303797
21792934 111 6771867368314443347
22224240 67 15410897353496395697
22956985 138 16229117778308327430
232437 2 17894632544577276415
246663 6 16515402959064989113
249057 3 16988559079417165975
33684 2 14562530675027974729
5283156 175 17894912936351699417
5758199 1 15985106332014556361
67123 10 18131634474672009185
8209 1 17131835370175192001

> <PUBCHEM_SHAPE_MULTIPOLES>
420.43
39.84
1.31
0.96
85.35
0.14
0.08
3.35
-10.99
-4.67
-0.35
-0.46
-0.04
-0.25

> <PUBCHEM_SHAPE_SELFOVERLAP>
815.698

> <PUBCHEM_SHAPE_VOLUME>
255.1

> <PUBCHEM_COORDINATE_TYPE>
2
5
10

$$$$

