161276
  -OEChem-07051212463D

 51 52  0     1  0  0  0  0  0999 V2000
    2.5631    0.8913    0.0884 O   0  0  0  0  0  0  0  0  0  0  0  0
    0.4913    0.0989   -0.6352 O   0  0  0  0  0  0  0  0  0  0  0  0
   -0.3375    0.3514    1.5610 O   0  0  0  0  0  0  0  0  0  0  0  0
    1.6766   -2.4038   -1.2177 O   0  0  0  0  0  0  0  0  0  0  0  0
    4.5440   -2.1439   -1.8430 O   0  0  0  0  0  0  0  0  0  0  0  0
    5.8946   -0.6251    0.2124 O   0  0  0  0  0  0  0  0  0  0  0  0
    3.7550    2.6429    1.8399 O   0  0  0  0  0  0  0  0  0  0  0  0
   -3.3346   -2.6627    0.1168 O   0  0  0  0  0  0  0  0  0  0  0  0
   -4.0226   -1.7611    2.1351 O   0  0  0  0  0  0  0  0  0  0  0  0
   -4.4110    2.4972   -2.1483 O   0  0  0  0  0  0  0  0  0  0  0  0
    2.4352   -1.1969   -1.1446 C   0  0  2  0  0  0  0  0  0  0  0  0
    3.8736   -1.5251   -0.7440 C   0  0  2  0  0  0  0  0  0  0  0  0
    1.7701   -0.2744   -0.1231 C   0  0  1  0  0  0  0  0  0  0  0  0
    4.6463   -0.2601   -0.3703 C   0  0  1  0  0  0  0  0  0  0  0  0
    3.8515    0.5875    0.6259 C   0  0  1  0  0  0  0  0  0  0  0  0
   -1.5483    1.3664   -0.3572 C   0  0  1  0  0  0  0  0  0  0  0  0
   -0.1985    0.9637    0.2697 C   0  0  2  0  0  0  0  0  0  0  0  0
   -2.4870    0.1296   -0.4508 C   0  0  1  0  0  0  0  0  0  0  0  0
    4.5491    1.9109    0.9241 C   0  0  0  0  0  0  0  0  0  0  0  0
   -2.3758   -0.6950    0.8043 C   0  0  0  0  0  0  0  0  0  0  0  0
   -3.9230    0.5265   -0.8177 C   0  0  0  0  0  0  0  0  0  0  0  0
   -2.1371    2.5295    0.3944 C   0  0  0  0  0  0  0  0  0  0  0  0
   -1.3813   -0.5276    1.6857 C   0  0  0  0  0  0  0  0  0  0  0  0
   -3.3425   -1.7492    1.1208 C   0  0  0  0  0  0  0  0  0  0  0  0
   -3.9765    1.3531   -2.0700 C   0  0  0  0  0  0  0  0  0  0  0  0
   -2.3400    3.7391   -0.1382 C   0  0  0  0  0  0  0  0  0  0  0  0
   -4.2349   -3.7631    0.2815 C   0  0  0  0  0  0  0  0  0  0  0  0
    2.4080   -0.7455   -2.1435 H   0  0  0  0  0  0  0  0  0  0  0  0
    3.8956   -2.2528    0.0757 H   0  0  0  0  0  0  0  0  0  0  0  0
    1.6352   -0.8130    0.8239 H   0  0  0  0  0  0  0  0  0  0  0  0
    4.8650    0.3190   -1.2758 H   0  0  0  0  0  0  0  0  0  0  0  0
    3.7152    0.0545    1.5768 H   0  0  0  0  0  0  0  0  0  0  0  0
   -1.3402    1.6869   -1.3888 H   0  0  0  0  0  0  0  0  0  0  0  0
    0.4001    1.8728    0.4086 H   0  0  0  0  0  0  0  0  0  0  0  0
   -2.1061   -0.4994   -1.2696 H   0  0  0  0  0  0  0  0  0  0  0  0
    5.5383    1.7534    1.3645 H   0  0  0  0  0  0  0  0  0  0  0  0
    4.6490    2.5127    0.0146 H   0  0  0  0  0  0  0  0  0  0  0  0
   -4.4137    1.0771   -0.0068 H   0  0  0  0  0  0  0  0  0  0  0  0
   -4.5328   -0.3648   -1.0066 H   0  0  0  0  0  0  0  0  0  0  0  0
   -2.4178    2.3755    1.4335 H   0  0  0  0  0  0  0  0  0  0  0  0
   -1.2873   -1.0775    2.6131 H   0  0  0  0  0  0  0  0  0  0  0  0
    1.6865   -2.8202   -0.3389 H   0  0  0  0  0  0  0  0  0  0  0  0
    4.5256   -1.5272   -2.5946 H   0  0  0  0  0  0  0  0  0  0  0  0
    5.7115   -1.1279    1.0243 H   0  0  0  0  0  0  0  0  0  0  0  0
   -3.5910    0.8509   -2.9748 H   0  0  0  0  0  0  0  0  0  0  0  0
    4.2150    3.4821    2.0119 H   0  0  0  0  0  0  0  0  0  0  0  0
   -2.7718    4.5356    0.4579 H   0  0  0  0  0  0  0  0  0  0  0  0
   -2.0783    3.9594   -1.1671 H   0  0  0  0  0  0  0  0  0  0  0  0
   -4.1300   -4.4208   -0.5855 H   0  0  0  0  0  0  0  0  0  0  0  0
   -5.2673   -3.4033    0.3269 H   0  0  0  0  0  0  0  0  0  0  0  0
   -3.9819   -4.3277    1.1840 H   0  0  0  0  0  0  0  0  0  0  0  0
  1 13  1  0  0  0  0
  1 15  1  0  0  0  0
  2 13  1  0  0  0  0
  2 17  1  0  0  0  0
  3 17  1  0  0  0  0
  3 23  1  0  0  0  0
  4 11  1  0  0  0  0
  4 42  1  0  0  0  0
  5 12  1  0  0  0  0
  5 43  1  0  0  0  0
  6 14  1  0  0  0  0
  6 44  1  0  0  0  0
  7 19  1  0  0  0  0
  7 46  1  0  0  0  0
  8 24  1  0  0  0  0
  8 27  1  0  0  0  0
  9 24  2  0  0  0  0
 10 25  2  0  0  0  0
 11 12  1  0  0  0  0
 11 13  1  0  0  0  0
 11 28  1  0  0  0  0
 12 14  1  0  0  0  0
 12 29  1  0  0  0  0
 13 30  1  0  0  0  0
 14 15  1  0  0  0  0
 14 31  1  0  0  0  0
 15 19  1  0  0  0  0
 15 32  1  0  0  0  0
 16 17  1  0  0  0  0
 16 18  1  0  0  0  0
 16 22  1  0  0  0  0
 16 33  1  0  0  0  0
 17 34  1  0  0  0  0
 18 20  1  0  0  0  0
 18 21  1  0  0  0  0
 18 35  1  0  0  0  0
 19 36  1  0  0  0  0
 19 37  1  0  0  0  0
 20 23  2  0  0  0  0
 20 24  1  0  0  0  0
 21 25  1  0  0  0  0
 21 38  1  0  0  0  0
 21 39  1  0  0  0  0
 22 26  2  0  0  0  0
 22 40  1  0  0  0  0
 23 41  1  0  0  0  0
 25 45  1  0  0  0  0
 26 47  1  0  0  0  0
 26 48  1  0  0  0  0
 27 49  1  0  0  0  0
 27 50  1  0  0  0  0
 27 51  1  0  0  0  0
M  END
> <PUBCHEM_COMPOUND_CID>
161276

> <PUBCHEM_CONFORMER_RMSD>
1

> <PUBCHEM_CONFORMER_DIVERSEORDER>
1
18
35
8
9
41
40
3
29
23
33
5
34
21
30
32
10
27
36
20
11
39
7
12
24
13
14
16
6
25
26
38
31
22
28
15
2
17
37
19
4

> <PUBCHEM_MMFF94_PARTIAL_CHARGES>
36
1 -0.56
10 -0.57
11 0.28
12 0.28
13 0.56
14 0.28
15 0.28
16 0.14
17 0.56
18 0.14
19 0.28
2 -0.56
20 -0.12
21 0.06
22 -0.29
23 -0.07
24 0.71
25 0.45
26 -0.3
27 0.28
3 -0.36
4 -0.68
40 0.15
41 0.15
42 0.4
43 0.4
44 0.4
45 0.06
46 0.4
47 0.15
48 0.15
5 -0.68
6 -0.68
7 -0.68
8 -0.43
9 -0.57

> <PUBCHEM_EFFECTIVE_ROTOR_COUNT>
10

> <PUBCHEM_PHARMACOPHORE_FEATURES>
16
1 1 acceptor
1 10 acceptor
1 2 acceptor
1 26 hydrophobe
1 3 acceptor
1 4 acceptor
1 4 donor
1 5 acceptor
1 5 donor
1 6 acceptor
1 6 donor
1 7 acceptor
1 7 donor
1 9 acceptor
6 1 11 12 13 14 15 rings
6 3 16 17 18 20 23 rings

> <PUBCHEM_HEAVY_ATOM_COUNT>
27

> <PUBCHEM_ATOM_DEF_STEREO_COUNT>
8

> <PUBCHEM_ATOM_UDEF_STEREO_COUNT>
0

> <PUBCHEM_BOND_DEF_STEREO_COUNT>
0

> <PUBCHEM_BOND_UDEF_STEREO_COUNT>
0

> <PUBCHEM_ISOTOPIC_ATOM_COUNT>
0

> <PUBCHEM_COMPONENT_COUNT>
1

> <PUBCHEM_CACTVS_TAUTO_COUNT>
2

> <PUBCHEM_CONFORMER_ID>
000275FC00000001

> <PUBCHEM_MMFF94_ENERGY>
69.67

> <PUBCHEM_FEATURE_SELFOVERLAP>
81.29

> <PUBCHEM_SHAPE_FINGERPRINT>
10366900 7 18337112388328268100
105312 117 17631176462531485813
11545043 162 18343863325392943490
11796584 16 17917150628197172498
12403259 226 18335415751697395856
12403259 415 18410570652800304416
13034934 17 18045238058484835816
13583140 156 18260830427597887718
14294032 229 16773247309518668189
1813 80 18056462964651395003
200 152 17313672649567001772
20645477 70 18041285443231966302
20681677 76 18408324376219674784
21065201 7 17917992784803777522
221490 88 18259978302071007646
22182313 1 18411698764135139565
22393880 68 18342459265908228958
23557571 272 18272650121429582297
23559900 14 18412267263656117496
23598288 3 16081909559936539009
3380486 145 18264486179443489985
4015057 19 18041856089582704553
469060 322 17755039500515869215
508706 21 18338233902999693884
5104073 3 18262234534322481138
5283173 99 18272380784231202741
6913067 236 18116445742892592202
7399639 24 18189621544915289864
9709674 26 18262236741355480436

> <PUBCHEM_SHAPE_MULTIPOLES>
496.95
11.25
3.74
1.75
9.43
0.02
-0.09
-2.11
-1.29
-4.07
-0.05
-0.84
0.09
4.15

> <PUBCHEM_SHAPE_SELFOVERLAP>
1023.712

> <PUBCHEM_SHAPE_VOLUME>
278.5

> <PUBCHEM_COORDINATE_TYPE>
2
5
10

$$$$

