245877
  -OEChem-07051213063D

 29 30  0     1  0  0  0  0  0999 V2000
   -2.4946    0.7595   -2.3558 Cl  0  0  0  0  0  0  0  0  0  0  0  0
    4.9940   -1.5648   -0.1367 Cl  0  0  0  0  0  0  0  0  0  0  0  0
    0.4483    3.3069    0.4672 O   0  0  0  0  0  0  0  0  0  0  0  0
   -0.3911    1.0862   -0.1260 C   0  0  1  0  0  0  0  0  0  0  0  0
    0.9475    0.4282   -0.1291 C   0  0  0  0  0  0  0  0  0  0  0  0
   -1.5394    0.0926    0.1092 C   0  0  0  0  0  0  0  0  0  0  0  0
   -0.5096    2.3132    0.8204 C   0  0  0  0  0  0  0  0  0  0  0  0
    1.4064   -0.2139   -1.2790 C   0  0  0  0  0  0  0  0  0  0  0  0
    1.7399    0.4542    1.0187 C   0  0  0  0  0  0  0  0  0  0  0  0
   -2.5021   -0.0896   -0.8533 C   0  0  0  0  0  0  0  0  0  0  0  0
   -1.5408   -0.5816    1.3080 C   0  0  0  0  0  0  0  0  0  0  0  0
    2.6577   -0.8301   -1.2814 C   0  0  0  0  0  0  0  0  0  0  0  0
    2.9913   -0.1619    1.0163 C   0  0  0  0  0  0  0  0  0  0  0  0
   -3.5288   -1.0005   -0.6038 C   0  0  0  0  0  0  0  0  0  0  0  0
   -2.5675   -1.4924    1.5574 C   0  0  0  0  0  0  0  0  0  0  0  0
    3.4504   -0.8041   -0.1338 C   0  0  0  0  0  0  0  0  0  0  0  0
   -3.5615   -1.7017    0.6016 C   0  0  0  0  0  0  0  0  0  0  0  0
   -0.4643    1.5339   -1.1230 H   0  0  0  0  0  0  0  0  0  0  0  0
   -1.5035    2.7669    0.7252 H   0  0  0  0  0  0  0  0  0  0  0  0
   -0.3823    2.0644    1.8783 H   0  0  0  0  0  0  0  0  0  0  0  0
    0.8003   -0.2437   -2.1805 H   0  0  0  0  0  0  0  0  0  0  0  0
    1.4186    0.9278    1.9399 H   0  0  0  0  0  0  0  0  0  0  0  0
   -0.7852   -0.4276    2.0705 H   0  0  0  0  0  0  0  0  0  0  0  0
    3.0023   -1.3272   -2.1846 H   0  0  0  0  0  0  0  0  0  0  0  0
    3.5970   -0.1370    1.9187 H   0  0  0  0  0  0  0  0  0  0  0  0
   -4.3110   -1.1752   -1.3382 H   0  0  0  0  0  0  0  0  0  0  0  0
   -2.5945   -2.0367    2.4969 H   0  0  0  0  0  0  0  0  0  0  0  0
   -4.3612   -2.4104    0.7962 H   0  0  0  0  0  0  0  0  0  0  0  0
    0.2785    3.5641   -0.4550 H   0  0  0  0  0  0  0  0  0  0  0  0
  1 10  1  0  0  0  0
  2 16  1  0  0  0  0
  3  7  1  0  0  0  0
  3 29  1  0  0  0  0
  4  5  1  0  0  0  0
  4  6  1  0  0  0  0
  4  7  1  0  0  0  0
  4 18  1  0  0  0  0
  5  8  2  0  0  0  0
  5  9  1  0  0  0  0
  6 10  1  0  0  0  0
  6 11  2  0  0  0  0
  7 19  1  0  0  0  0
  7 20  1  0  0  0  0
  8 12  1  0  0  0  0
  8 21  1  0  0  0  0
  9 13  2  0  0  0  0
  9 22  1  0  0  0  0
 10 14  2  0  0  0  0
 11 15  1  0  0  0  0
 11 23  1  0  0  0  0
 12 16  2  0  0  0  0
 12 24  1  0  0  0  0
 13 16  1  0  0  0  0
 13 25  1  0  0  0  0
 14 17  1  0  0  0  0
 14 26  1  0  0  0  0
 15 17  2  0  0  0  0
 15 27  1  0  0  0  0
 17 28  1  0  0  0  0
M  END
> <PUBCHEM_COMPOUND_CID>
245877

> <PUBCHEM_CONFORMER_RMSD>
0.6

> <PUBCHEM_CONFORMER_DIVERSEORDER>
2
12
4
8
9
11
5
1
6
3
7
10

> <PUBCHEM_MMFF94_PARTIAL_CHARGES>
26
1 -0.18
10 0.18
11 -0.15
12 -0.15
13 -0.15
14 -0.15
15 -0.15
16 0.18
17 -0.15
2 -0.18
21 0.15
22 0.15
23 0.15
24 0.15
25 0.15
26 0.15
27 0.15
28 0.15
29 0.4
3 -0.68
4 0.29
5 -0.14
6 -0.14
7 0.28
8 -0.15
9 -0.15

> <PUBCHEM_EFFECTIVE_ROTOR_COUNT>
3

> <PUBCHEM_PHARMACOPHORE_FEATURES>
4
1 3 acceptor
1 3 donor
6 5 8 9 12 13 16 rings
6 6 10 11 14 15 17 rings

> <PUBCHEM_HEAVY_ATOM_COUNT>
17

> <PUBCHEM_ATOM_DEF_STEREO_COUNT>
0

> <PUBCHEM_ATOM_UDEF_STEREO_COUNT>
1

> <PUBCHEM_BOND_DEF_STEREO_COUNT>
0

> <PUBCHEM_BOND_UDEF_STEREO_COUNT>
0

> <PUBCHEM_ISOTOPIC_ATOM_COUNT>
0

> <PUBCHEM_COMPONENT_COUNT>
1

> <PUBCHEM_CACTVS_TAUTO_COUNT>
1

> <PUBCHEM_CONFORMER_ID>
0003C07500000002

> <PUBCHEM_MMFF94_ENERGY>
49.9414

> <PUBCHEM_FEATURE_SELFOVERLAP>
20.297

> <PUBCHEM_SHAPE_FINGERPRINT>
11132069 177 6483356659668121483
11543360 7 17275377699481274126
11578080 2 17989210308703275532
11582403 64 16032764547419876325
12202030 40 18056476154247813563
12251169 10 15213014951215411011
12363563 72 18408882932126205066
12507560 40 5617266887881836182
12532896 13 17615120418158025840
12553582 1 18190155980127158558
12707595 3 18340767044181671923
12714826 92 17917988378230667779
12759256 9 17970358017908502321
13296908 3 18409733941114399850
13296909 8 15430035482774854819
13693222 15 17749112205450824142
14115302 16 17775002384201298183
14341114 328 14562817594979309794
14863182 85 16253045968136707947
15422964 175 18188194472958321607
16752209 62 17632590344042923003
16945 1 17418382397639302969
17870717 6 17846211211055609614
1813 80 17822837732979753548
18927931 339 18189608509874247270
19765921 60 12750678362163545653
200 152 18272929436322819926
20361792 2 18260261928209116109
20645477 70 18121511159108712135
20671657 53 18411695456963004960
20871999 31 17560803255271078919
21061003 4 18335416842392112115
21304303 282 17549568617621665716
23175994 123 18410293614224045693
23402539 116 18261959643135138462
23402655 69 14908190771410619542
23419403 2 18197518258463171404
23526113 38 18269571467412953289
23557571 272 18263080080054889148
23559900 14 18201733881265963976
25 1 12535351216070844440
27216 239 7853563608958696103
298252 57 16198759131892648589
3082319 5 16056882416035591655
31174 14 18122902023947783257
3286 77 18266736888298844567
3729539 64 17694193614311182244
463206 1 18342742879684273203
7097593 13 14996273760482182430
81228 2 18190739936729000305

> <PUBCHEM_SHAPE_MULTIPOLES>
347.72
7.19
2.15
1.67
5.18
1.55
-0.54
-5.22
-1.05
-0.56
0.77
-0.84
0.14
1.1

> <PUBCHEM_SHAPE_SELFOVERLAP>
726.287

> <PUBCHEM_SHAPE_VOLUME>
199.1

> <PUBCHEM_COORDINATE_TYPE>
2
5
10

$$$$

