17395971
  -OEChem-06241222532D

 49 53  0     0  0  0  0  0  0999 V2000
    6.4952   -4.5765    0.0000 O   0  0  0  0  0  0  0  0  0  0  0  0
    4.7250   -4.5660    0.0000 O   0  0  0  0  0  0  0  0  0  0  0  0
    4.9797    3.6583    0.0000 O   0  0  0  0  0  0  0  0  0  0  0  0
    2.9933    3.8904    0.0000 O   0  0  0  0  0  0  0  0  0  0  0  0
    5.6465   -0.9973    0.0000 N   0  0  0  0  0  0  0  0  0  0  0  0
    5.5535   -0.0016    0.0000 N   0  0  0  0  0  0  0  0  0  0  0  0
    4.7283   -1.3934    0.0000 N   0  0  0  0  0  0  0  0  0  0  0  0
    4.0678   -0.6426    0.0000 N   0  0  0  0  0  0  0  0  0  0  0  0
    7.3891   -3.0418    0.0000 C   0  0  0  0  0  0  0  0  0  0  0  0
    6.4952   -2.5072    0.0000 C   0  0  0  0  0  0  0  0  0  0  0  0
    8.2551   -2.5418    0.0000 C   0  0  0  0  0  0  0  0  0  0  0  0
    7.3891   -4.0418    0.0000 C   0  0  0  0  0  0  0  0  0  0  0  0
    6.5067   -1.5072    0.0000 C   0  0  0  0  0  0  0  0  0  0  0  0
    9.1212   -3.0418    0.0000 C   0  0  0  0  0  0  0  0  0  0  0  0
    8.2551   -4.5418    0.0000 C   0  0  0  0  0  0  0  0  0  0  0  0
    9.1212   -4.0418    0.0000 C   0  0  0  0  0  0  0  0  0  0  0  0
    5.5891   -3.0210    0.0000 C   0  0  0  0  0  0  0  0  0  0  0  0
    8.2391   -1.5003    0.0000 C   0  0  0  0  0  0  0  0  0  0  0  0
   10.0311   -2.5350    0.0000 C   0  0  0  0  0  0  0  0  0  0  0  0
    5.5891   -4.0627    0.0000 C   0  0  0  0  0  0  0  0  0  0  0  0
    9.1371   -0.9726    0.0000 C   0  0  0  0  0  0  0  0  0  0  0  0
   10.0392   -1.4934    0.0000 C   0  0  0  0  0  0  0  0  0  0  0  0
    4.5778    0.2176    0.0000 C   0  0  0  0  0  0  0  0  0  0  0  0
    4.1817    1.1358    0.0000 C   0  0  0  0  0  0  0  0  0  0  0  0
    4.7788    1.9380    0.0000 C   0  0  0  0  0  0  0  0  0  0  0  0
    3.1884    1.2518    0.0000 C   0  0  0  0  0  0  0  0  0  0  0  0
    4.3826    2.8562    0.0000 C   0  0  0  0  0  0  0  0  0  0  0  0
    3.3894    2.9722    0.0000 C   0  0  0  0  0  0  0  0  0  0  0  0
    2.7923    2.1700    0.0000 C   0  0  0  0  0  0  0  0  0  0  0  0
    4.5836    4.5765    0.0000 C   0  0  0  0  0  0  0  0  0  0  0  0
    2.0000    4.0064    0.0000 C   0  0  0  0  0  0  0  0  0  0  0  0
    7.1160   -1.6220    0.0000 H   0  0  0  0  0  0  0  0  0  0  0  0
    6.7255   -0.9271    0.0000 H   0  0  0  0  0  0  0  0  0  0  0  0
    8.2551   -5.1618    0.0000 H   0  0  0  0  0  0  0  0  0  0  0  0
    9.6581   -4.3518    0.0000 H   0  0  0  0  0  0  0  0  0  0  0  0
    5.0534   -2.7090    0.0000 H   0  0  0  0  0  0  0  0  0  0  0  0
    7.6986   -1.1966    0.0000 H   0  0  0  0  0  0  0  0  0  0  0  0
   10.5645   -2.8512    0.0000 H   0  0  0  0  0  0  0  0  0  0  0  0
    9.1347   -0.3526    0.0000 H   0  0  0  0  0  0  0  0  0  0  0  0
   10.5773   -1.1855    0.0000 H   0  0  0  0  0  0  0  0  0  0  0  0
    5.3946    1.8660    0.0000 H   0  0  0  0  0  0  0  0  0  0  0  0
    2.8182    0.7545    0.0000 H   0  0  0  0  0  0  0  0  0  0  0  0
    2.1765    2.2419    0.0000 H   0  0  0  0  0  0  0  0  0  0  0  0
    5.1529    4.8221    0.0000 H   0  0  0  0  0  0  0  0  0  0  0  0
    4.3380    5.1458    0.0000 H   0  0  0  0  0  0  0  0  0  0  0  0
    4.0143    4.3309    0.0000 H   0  0  0  0  0  0  0  0  0  0  0  0
    2.0719    4.6222    0.0000 H   0  0  0  0  0  0  0  0  0  0  0  0
    1.3842    4.0783    0.0000 H   0  0  0  0  0  0  0  0  0  0  0  0
    1.9281    3.3906    0.0000 H   0  0  0  0  0  0  0  0  0  0  0  0
  1 12  1  0  0  0  0
  1 20  1  0  0  0  0
  2 20  2  0  0  0  0
  3 27  1  0  0  0  0
  3 30  1  0  0  0  0
  4 28  1  0  0  0  0
  4 31  1  0  0  0  0
  5  6  1  0  0  0  0
  5  7  1  0  0  0  0
  5 13  1  0  0  0  0
  6 23  2  0  0  0  0
  7  8  2  0  0  0  0
  8 23  1  0  0  0  0
  9 10  1  0  0  0  0
  9 11  1  0  0  0  0
  9 12  2  0  0  0  0
 10 13  1  0  0  0  0
 10 17  2  0  0  0  0
 11 14  1  0  0  0  0
 11 18  2  0  0  0  0
 12 15  1  0  0  0  0
 13 32  1  0  0  0  0
 13 33  1  0  0  0  0
 14 16  1  0  0  0  0
 14 19  2  0  0  0  0
 15 16  2  0  0  0  0
 15 34  1  0  0  0  0
 16 35  1  0  0  0  0
 17 20  1  0  0  0  0
 17 36  1  0  0  0  0
 18 21  1  0  0  0  0
 18 37  1  0  0  0  0
 19 22  1  0  0  0  0
 19 38  1  0  0  0  0
 21 22  2  0  0  0  0
 21 39  1  0  0  0  0
 22 40  1  0  0  0  0
 23 24  1  0  0  0  0
 24 25  2  0  0  0  0
 24 26  1  0  0  0  0
 25 27  1  0  0  0  0
 25 41  1  0  0  0  0
 26 29  2  0  0  0  0
 26 42  1  0  0  0  0
 27 28  2  0  0  0  0
 28 29  1  0  0  0  0
 29 43  1  0  0  0  0
 30 44  1  0  0  0  0
 30 45  1  0  0  0  0
 30 46  1  0  0  0  0
 31 47  1  0  0  0  0
 31 48  1  0  0  0  0
 31 49  1  0  0  0  0
M  END
> <PUBCHEM_COMPOUND_CID>
17395971

> <PUBCHEM_COMPOUND_CANONICALIZED>
1

> <PUBCHEM_CACTVS_COMPLEXITY>
689

> <PUBCHEM_CACTVS_HBOND_ACCEPTOR>
7

> <PUBCHEM_CACTVS_HBOND_DONOR>
0

> <PUBCHEM_CACTVS_ROTATABLE_BOND>
5

> <PUBCHEM_CACTVS_SUBSKEYS>
AAADceB7uAAAAAAAAAAAAAAAAAAAAWAAAAAwYMEAAAAAAADB1AAAHgAIAAAADATBmwYzHsQABACqAiLyKACSCAIgoAAciCAmjNgNJqKEsRuCOiLkyBEKqQew0PAOoAADAAAYQABAAAYAADCAAAAAAAAAAA==

> <PUBCHEM_IUPAC_OPENEYE_NAME>
1-[[5-(3,4-dimethoxyphenyl)tetrazol-2-yl]methyl]benzo[f]chromen-3-one

> <PUBCHEM_IUPAC_CAS_NAME>
1-[[5-(3,4-dimethoxyphenyl)-2-tetrazolyl]methyl]-3-benzo[f][1]benzopyranone

> <PUBCHEM_IUPAC_NAME>
1-[[5-(3,4-dimethoxyphenyl)tetrazol-2-yl]methyl]benzo[f]chromen-3-one

> <PUBCHEM_IUPAC_SYSTEMATIC_NAME>
1-[[5-(3,4-dimethoxyphenyl)-1,2,3,4-tetrazol-2-yl]methyl]benzo[f]chromen-3-one

> <PUBCHEM_IUPAC_TRADITIONAL_NAME>
1-[[5-(3,4-dimethoxyphenyl)tetrazol-2-yl]methyl]benzo[f]chromen-3-one

> <PUBCHEM_IUPAC_INCHI>
InChI=1S/C23H18N4O4/c1-29-18-9-8-15(11-20(18)30-2)23-24-26-27(25-23)13-16-12-21(28)31-19-10-7-14-5-3-4-6-17(14)22(16)19/h3-12H,13H2,1-2H3

> <PUBCHEM_IUPAC_INCHIKEY>
MZJNJNQXHNGUKV-UHFFFAOYSA-N

> <PUBCHEM_XLOGP3_AA>
4.1

> <PUBCHEM_EXACT_MASS>
414.132805

> <PUBCHEM_MOLECULAR_FORMULA>
C23H18N4O4

> <PUBCHEM_MOLECULAR_WEIGHT>
414.41342

> <PUBCHEM_OPENEYE_CAN_SMILES>
COC1=C(C=C(C=C1)C2=NN(N=N2)CC3=CC(=O)OC4=C3C5=CC=CC=C5C=C4)OC

> <PUBCHEM_OPENEYE_ISO_SMILES>
COC1=C(C=C(C=C1)C2=NN(N=N2)CC3=CC(=O)OC4=C3C5=CC=CC=C5C=C4)OC

> <PUBCHEM_CACTVS_TPSA>
88.4

> <PUBCHEM_MONOISOTOPIC_WEIGHT>
414.132805

> <PUBCHEM_TOTAL_CHARGE>
0

> <PUBCHEM_HEAVY_ATOM_COUNT>
31

> <PUBCHEM_ATOM_DEF_STEREO_COUNT>
0

> <PUBCHEM_ATOM_UDEF_STEREO_COUNT>
0

> <PUBCHEM_BOND_DEF_STEREO_COUNT>
0

> <PUBCHEM_BOND_UDEF_STEREO_COUNT>
0

> <PUBCHEM_ISOTOPIC_ATOM_COUNT>
0

> <PUBCHEM_COMPONENT_COUNT>
1

> <PUBCHEM_CACTVS_TAUTO_COUNT>
1

> <PUBCHEM_COORDINATE_TYPE>
1
5
255

> <PUBCHEM_BONDANNOTATIONS>
1  12  8
1  20  8
10  17  8
11  14  8
11  18  8
12  15  8
14  16  8
14  19  8
15  16  8
17  20  8
18  21  8
19  22  8
21  22  8
24  25  8
24  26  8
25  27  8
26  29  8
27  28  8
28  29  8
5  6  8
5  7  8
6  23  8
7  8  8
8  23  8
9  10  8
9  11  8
9  12  8

$$$$

