25246329
  -OEChem-07051213153D

 44 48  0     0  0  0  0  0  0999 V2000
    4.3511    3.8379    0.9263 Cl  0  0  0  0  0  0  0  0  0  0  0  0
   -4.3794    3.8095    0.9261 Cl  0  0  0  0  0  0  0  0  0  0  0  0
    2.5084   -4.4376   -0.6284 O   0  0  0  0  0  0  0  0  0  0  0  0
   -2.4752   -4.4549   -0.6337 O   0  0  0  0  0  0  0  0  0  0  0  0
    3.5176   -2.4971   -0.0095 O   0  0  0  0  0  0  0  0  0  0  0  0
   -3.4991   -2.5231   -0.0123 O   0  0  0  0  0  0  0  0  0  0  0  0
    0.0125   -3.3924   -0.2921 N   0  0  0  0  0  0  0  0  0  0  0  0
    2.7717    1.1911    1.8614 N   0  0  0  0  0  0  0  0  0  0  0  0
   -2.7838    1.1721    1.8605 N   0  0  0  0  0  0  0  0  0  0  0  0
    0.7134   -1.3856    0.3511 C   0  0  0  0  0  0  0  0  0  0  0  0
   -0.7035   -1.3906    0.3497 C   0  0  0  0  0  0  0  0  0  0  0  0
    1.5479   -0.2599    0.7107 C   0  0  0  0  0  0  0  0  0  0  0  0
   -1.5482   -0.2690    0.7100 C   0  0  0  0  0  0  0  0  0  0  0  0
    1.1294   -2.6358   -0.0502 C   0  0  0  0  0  0  0  0  0  0  0  0
   -1.1100   -2.6438   -0.0521 C   0  0  0  0  0  0  0  0  0  0  0  0
    2.0229    0.7343   -0.1899 C   0  0  0  0  0  0  0  0  0  0  0  0
   -2.0283    0.7232   -0.1900 C   0  0  0  0  0  0  0  0  0  0  0  0
    2.7879    1.6323    0.5574 C   0  0  0  0  0  0  0  0  0  0  0  0
   -2.8008    1.6150    0.5571 C   0  0  0  0  0  0  0  0  0  0  0  0
    2.0248    0.0482    1.9639 C   0  0  0  0  0  0  0  0  0  0  0  0
   -2.0295    0.0341    1.9628 C   0  0  0  0  0  0  0  0  0  0  0  0
    1.8749    0.9569   -1.5733 C   0  0  0  0  0  0  0  0  0  0  0  0
   -1.8794    0.9486   -1.5730 C   0  0  0  0  0  0  0  0  0  0  0  0
    3.4149    2.7463   -0.0118 C   0  0  0  0  0  0  0  0  0  0  0  0
   -3.4342    2.7256   -0.0118 C   0  0  0  0  0  0  0  0  0  0  0  0
    2.4612   -3.1328   -0.2116 C   0  0  0  0  0  0  0  0  0  0  0  0
   -2.4379   -3.1508   -0.2141 C   0  0  0  0  0  0  0  0  0  0  0  0
    2.4963    2.0672   -2.1564 C   0  0  0  0  0  0  0  0  0  0  0  0
   -2.5073    2.0555   -2.1557 C   0  0  0  0  0  0  0  0  0  0  0  0
    3.2541    2.9469   -1.3857 C   0  0  0  0  0  0  0  0  0  0  0  0
   -3.2723    2.9290   -1.3852 C   0  0  0  0  0  0  0  0  0  0  0  0
    0.0163   -4.3552   -0.6011 H   0  0  0  0  0  0  0  0  0  0  0  0
    1.9014   -0.4406    2.9206 H   0  0  0  0  0  0  0  0  0  0  0  0
   -1.9046   -0.4552    2.9191 H   0  0  0  0  0  0  0  0  0  0  0  0
    3.2430    1.6459    2.6311 H   0  0  0  0  0  0  0  0  0  0  0  0
   -3.2595    1.6227    2.6299 H   0  0  0  0  0  0  0  0  0  0  0  0
    1.2936    0.2786   -2.1910 H   0  0  0  0  0  0  0  0  0  0  0  0
   -1.2923    0.2752   -2.1905 H   0  0  0  0  0  0  0  0  0  0  0  0
    2.3864    2.2431   -3.2232 H   0  0  0  0  0  0  0  0  0  0  0  0
   -2.3966    2.2335   -3.2220 H   0  0  0  0  0  0  0  0  0  0  0  0
    3.7228    3.7992   -1.8731 H   0  0  0  0  0  0  0  0  0  0  0  0
   -3.7459    3.7787   -1.8723 H   0  0  0  0  0  0  0  0  0  0  0  0
    3.4323   -4.7516   -0.7301 H   0  0  0  0  0  0  0  0  0  0  0  0
   -3.3967   -4.7756   -0.7366 H   0  0  0  0  0  0  0  0  0  0  0  0
  1 24  1  0  0  0  0
  2 25  1  0  0  0  0
  3 26  1  0  0  0  0
  3 43  1  0  0  0  0
  4 27  1  0  0  0  0
  4 44  1  0  0  0  0
  5 26  2  0  0  0  0
  6 27  2  0  0  0  0
  7 14  1  0  0  0  0
  7 15  1  0  0  0  0
  7 32  1  0  0  0  0
  8 18  1  0  0  0  0
  8 20  1  0  0  0  0
  8 35  1  0  0  0  0
  9 19  1  0  0  0  0
  9 21  1  0  0  0  0
  9 36  1  0  0  0  0
 10 11  1  0  0  0  0
 10 12  1  0  0  0  0
 10 14  2  0  0  0  0
 11 13  1  0  0  0  0
 11 15  2  0  0  0  0
 12 16  1  0  0  0  0
 12 20  2  0  0  0  0
 13 17  1  0  0  0  0
 13 21  2  0  0  0  0
 14 26  1  0  0  0  0
 15 27  1  0  0  0  0
 16 18  2  0  0  0  0
 16 22  1  0  0  0  0
 17 19  2  0  0  0  0
 17 23  1  0  0  0  0
 18 24  1  0  0  0  0
 19 25  1  0  0  0  0
 20 33  1  0  0  0  0
 21 34  1  0  0  0  0
 22 28  2  0  0  0  0
 22 37  1  0  0  0  0
 23 29  2  0  0  0  0
 23 38  1  0  0  0  0
 24 30  2  0  0  0  0
 25 31  2  0  0  0  0
 28 30  1  0  0  0  0
 28 39  1  0  0  0  0
 29 31  1  0  0  0  0
 29 40  1  0  0  0  0
 30 41  1  0  0  0  0
 31 42  1  0  0  0  0
M  END
> <PUBCHEM_COMPOUND_CID>
25246329

> <PUBCHEM_CONFORMER_RMSD>
0.8

> <PUBCHEM_CONFORMER_DIVERSEORDER>
1
3
2
5
6
7
8
4

> <PUBCHEM_MMFF94_PARTIAL_CHARGES>
38
1 -0.18
14 -0.24
15 -0.24
18 -0.15
19 -0.15
2 -0.18
20 -0.3
21 -0.3
22 -0.15
23 -0.15
24 0.18
25 0.18
26 0.81
27 0.81
28 -0.15
29 -0.15
3 -0.65
30 -0.15
31 -0.15
32 0.27
33 0.15
34 0.15
35 0.27
36 0.27
37 0.15
38 0.15
39 0.15
4 -0.65
40 0.15
41 0.15
42 0.15
43 0.5
44 0.5
5 -0.57
6 -0.57
7 0.03
8 0.03
9 0.03

> <PUBCHEM_EFFECTIVE_ROTOR_COUNT>
4

> <PUBCHEM_PHARMACOPHORE_FEATURES>
17
1 3 acceptor
1 4 acceptor
1 5 acceptor
1 6 acceptor
1 7 cation
1 7 donor
1 8 cation
1 8 donor
1 9 cation
1 9 donor
3 3 5 26 anion
3 4 6 27 anion
5 7 10 11 14 15 rings
5 8 12 16 18 20 rings
5 9 13 17 19 21 rings
6 16 18 22 24 28 30 rings
6 17 19 23 25 29 31 rings

> <PUBCHEM_HEAVY_ATOM_COUNT>
31

> <PUBCHEM_ATOM_DEF_STEREO_COUNT>
0

> <PUBCHEM_ATOM_UDEF_STEREO_COUNT>
0

> <PUBCHEM_BOND_DEF_STEREO_COUNT>
0

> <PUBCHEM_BOND_UDEF_STEREO_COUNT>
0

> <PUBCHEM_ISOTOPIC_ATOM_COUNT>
0

> <PUBCHEM_COMPONENT_COUNT>
1

> <PUBCHEM_CACTVS_TAUTO_COUNT>
30

> <PUBCHEM_CONFORMER_ID>
01813A7900000001

> <PUBCHEM_MMFF94_ENERGY>
58.1722

> <PUBCHEM_FEATURE_SELFOVERLAP>
86.563

> <PUBCHEM_SHAPE_FINGERPRINT>
10165383 225 18049684569227643936
10871710 139 17912351031744037533
10930396 42 17109065334351407728
11445158 3 17832101229996663963
12035758 1 17982181311666323970
12156800 1 15756342861430427893
12788726 201 18052535474408951125
13134695 92 17903922502033213228
13149001 5 18191578864074626119
13911987 19 17762598990907767830
13965767 371 18201444692033000660
14840074 17 17984121688049745089
14910302 57 17827617181414145044
14955137 171 17761197109603253431
151778 21 18268410503398841833
15439362 3 18265061408524534840
20715895 44 17771101317383988103
22149856 69 18263643035142489889
22907989 373 18122643672864244477
23558518 356 18341900683778435491
238 59 18126862713955148429
283562 15 18121786019181594314
3493558 16 17554936192611726983
350125 39 18410004438160477027
35225 105 18044952181018680820
469060 322 17908694039027192835
5252454 2 18194092231723136432
6287921 2 18268148850175893245

> <PUBCHEM_SHAPE_MULTIPOLES>
603.28
7.3
6.25
1.81
0.06
3.89
-0.1
-6.88
0.56
-0.04
-1.16
0
-1.39
0

> <PUBCHEM_SHAPE_SELFOVERLAP>
1359.913

> <PUBCHEM_SHAPE_VOLUME>
322.9

> <PUBCHEM_COORDINATE_TYPE>
2
5
10

$$$$

