11191402
  -OEChem-07051212542D

 67 70  0     0  0  0  0  0  0999 V2000
    8.9282   -5.4827    0.0000 S   0  0  0  0  0  0  0  0  0  0  0  0
   13.3224   -2.9552    0.0000 F   0  0  0  0  0  0  0  0  0  0  0  0
   12.9617   -4.3226    0.0000 F   0  0  0  0  0  0  0  0  0  0  0  0
   11.9550   -2.5944    0.0000 F   0  0  0  0  0  0  0  0  0  0  0  0
    3.7320    2.5173    0.0000 O   0  0  0  0  0  0  0  0  0  0  0  0
    4.5981    4.0173    0.0000 O   0  0  0  0  0  0  0  0  0  0  0  0
    7.1962   -0.4827    0.0000 N   0  0  0  0  0  0  0  0  0  0  0  0
    5.4641    0.5173    0.0000 N   0  0  0  0  0  0  0  0  0  0  0  0
    8.9282   -3.4827    0.0000 N   0  0  0  0  0  0  0  0  0  0  0  0
    7.1962    0.5173    0.0000 C   0  0  0  0  0  0  0  0  0  0  0  0
    6.3301   -0.9827    0.0000 C   0  0  0  0  0  0  0  0  0  0  0  0
    6.3301    1.0173    0.0000 C   0  0  0  0  0  0  0  0  0  0  0  0
    5.4641   -0.4827    0.0000 C   0  0  0  0  0  0  0  0  0  0  0  0
    8.0622   -0.9827    0.0000 C   0  0  0  0  0  0  0  0  0  0  0  0
    8.0622   -1.9827    0.0000 C   0  0  0  0  0  0  0  0  0  0  0  0
    4.5981    1.0173    0.0000 C   0  0  0  0  0  0  0  0  0  0  0  0
    8.9282   -2.4827    0.0000 C   0  0  0  0  0  0  0  0  0  0  0  0
    4.5981    2.0173    0.0000 C   0  0  0  0  0  0  0  0  0  0  0  0
    9.7942   -3.9827    0.0000 C   0  0  0  0  0  0  0  0  0  0  0  0
    8.0622   -3.9827    0.0000 C   0  0  0  0  0  0  0  0  0  0  0  0
    9.7942   -4.9827    0.0000 C   0  0  0  0  0  0  0  0  0  0  0  0
    8.0622   -4.9827    0.0000 C   0  0  0  0  0  0  0  0  0  0  0  0
   10.6882   -3.4480    0.0000 C   0  0  0  0  0  0  0  0  0  0  0  0
    7.1682   -3.4480    0.0000 C   0  0  0  0  0  0  0  0  0  0  0  0
   11.5942   -3.9618    0.0000 C   0  0  0  0  0  0  0  0  0  0  0  0
   10.6882   -5.5173    0.0000 C   0  0  0  0  0  0  0  0  0  0  0  0
    7.1682   -5.5173    0.0000 C   0  0  0  0  0  0  0  0  0  0  0  0
   11.5942   -5.0035    0.0000 C   0  0  0  0  0  0  0  0  0  0  0  0
    6.2622   -3.9618    0.0000 C   0  0  0  0  0  0  0  0  0  0  0  0
    3.7320    3.5173    0.0000 C   0  0  0  0  0  0  0  0  0  0  0  0
    6.2622   -5.0035    0.0000 C   0  0  0  0  0  0  0  0  0  0  0  0
   12.4583   -3.4585    0.0000 C   0  0  0  0  0  0  0  0  0  0  0  0
    2.8660    4.0173    0.0000 C   0  0  0  0  0  0  0  0  0  0  0  0
    2.8660    5.0173    0.0000 C   0  0  0  0  0  0  0  0  0  0  0  0
    2.0000    5.5173    0.0000 C   0  0  0  0  0  0  0  0  0  0  0  0
    7.8067    0.4097    0.0000 H   0  0  0  0  0  0  0  0  0  0  0  0
    7.4082    1.0999    0.0000 H   0  0  0  0  0  0  0  0  0  0  0  0
    5.9316   -1.4576    0.0000 H   0  0  0  0  0  0  0  0  0  0  0  0
    6.7287   -1.4576    0.0000 H   0  0  0  0  0  0  0  0  0  0  0  0
    6.7287    1.4923    0.0000 H   0  0  0  0  0  0  0  0  0  0  0  0
    5.9316    1.4923    0.0000 H   0  0  0  0  0  0  0  0  0  0  0  0
    4.8535   -0.3750    0.0000 H   0  0  0  0  0  0  0  0  0  0  0  0
    5.2520   -1.0653    0.0000 H   0  0  0  0  0  0  0  0  0  0  0  0
    8.6728   -1.0903    0.0000 H   0  0  0  0  0  0  0  0  0  0  0  0
    8.2742   -0.4001    0.0000 H   0  0  0  0  0  0  0  0  0  0  0  0
    7.4516   -1.8750    0.0000 H   0  0  0  0  0  0  0  0  0  0  0  0
    7.8501   -2.5653    0.0000 H   0  0  0  0  0  0  0  0  0  0  0  0
    3.9875    1.1250    0.0000 H   0  0  0  0  0  0  0  0  0  0  0  0
    4.3860    0.4347    0.0000 H   0  0  0  0  0  0  0  0  0  0  0  0
    9.5388   -2.5903    0.0000 H   0  0  0  0  0  0  0  0  0  0  0  0
    9.1403   -1.9001    0.0000 H   0  0  0  0  0  0  0  0  0  0  0  0
    5.2087    1.9097    0.0000 H   0  0  0  0  0  0  0  0  0  0  0  0
    4.8101    2.5999    0.0000 H   0  0  0  0  0  0  0  0  0  0  0  0
   10.6810   -2.8280    0.0000 H   0  0  0  0  0  0  0  0  0  0  0  0
    7.1754   -2.8280    0.0000 H   0  0  0  0  0  0  0  0  0  0  0  0
   10.6810   -6.1373    0.0000 H   0  0  0  0  0  0  0  0  0  0  0  0
    7.1754   -6.1373    0.0000 H   0  0  0  0  0  0  0  0  0  0  0  0
   12.1300   -5.3156    0.0000 H   0  0  0  0  0  0  0  0  0  0  0  0
    5.7264   -3.6498    0.0000 H   0  0  0  0  0  0  0  0  0  0  0  0
    5.7264   -5.3156    0.0000 H   0  0  0  0  0  0  0  0  0  0  0  0
    2.2554    4.1250    0.0000 H   0  0  0  0  0  0  0  0  0  0  0  0
    2.6540    3.4347    0.0000 H   0  0  0  0  0  0  0  0  0  0  0  0
    3.4766    4.9097    0.0000 H   0  0  0  0  0  0  0  0  0  0  0  0
    3.0781    5.5999    0.0000 H   0  0  0  0  0  0  0  0  0  0  0  0
    2.3100    6.0543    0.0000 H   0  0  0  0  0  0  0  0  0  0  0  0
    1.4631    5.8273    0.0000 H   0  0  0  0  0  0  0  0  0  0  0  0
    1.6900    4.9804    0.0000 H   0  0  0  0  0  0  0  0  0  0  0  0
  1 21  1  0  0  0  0
  1 22  1  0  0  0  0
  2 32  1  0  0  0  0
  3 32  1  0  0  0  0
  4 32  1  0  0  0  0
  5 18  1  0  0  0  0
  5 30  1  0  0  0  0
  6 30  2  0  0  0  0
  7 10  1  0  0  0  0
  7 11  1  0  0  0  0
  7 14  1  0  0  0  0
  8 12  1  0  0  0  0
  8 13  1  0  0  0  0
  8 16  1  0  0  0  0
  9 17  1  0  0  0  0
  9 19  1  0  0  0  0
  9 20  1  0  0  0  0
 10 12  1  0  0  0  0
 10 36  1  0  0  0  0
 10 37  1  0  0  0  0
 11 13  1  0  0  0  0
 11 38  1  0  0  0  0
 11 39  1  0  0  0  0
 12 40  1  0  0  0  0
 12 41  1  0  0  0  0
 13 42  1  0  0  0  0
 13 43  1  0  0  0  0
 14 15  1  0  0  0  0
 14 44  1  0  0  0  0
 14 45  1  0  0  0  0
 15 17  1  0  0  0  0
 15 46  1  0  0  0  0
 15 47  1  0  0  0  0
 16 18  1  0  0  0  0
 16 48  1  0  0  0  0
 16 49  1  0  0  0  0
 17 50  1  0  0  0  0
 17 51  1  0  0  0  0
 18 52  1  0  0  0  0
 18 53  1  0  0  0  0
 19 21  2  0  0  0  0
 19 23  1  0  0  0  0
 20 22  1  0  0  0  0
 20 24  2  0  0  0  0
 21 26  1  0  0  0  0
 22 27  2  0  0  0  0
 23 25  2  0  0  0  0
 23 54  1  0  0  0  0
 24 29  1  0  0  0  0
 24 55  1  0  0  0  0
 25 28  1  0  0  0  0
 25 32  1  0  0  0  0
 26 28  2  0  0  0  0
 26 56  1  0  0  0  0
 27 31  1  0  0  0  0
 27 57  1  0  0  0  0
 28 58  1  0  0  0  0
 29 31  2  0  0  0  0
 29 59  1  0  0  0  0
 30 33  1  0  0  0  0
 31 60  1  0  0  0  0
 33 34  1  0  0  0  0
 33 61  1  0  0  0  0
 33 62  1  0  0  0  0
 34 35  1  0  0  0  0
 34 63  1  0  0  0  0
 34 64  1  0  0  0  0
 35 65  1  0  0  0  0
 35 66  1  0  0  0  0
 35 67  1  0  0  0  0
M  END
> <PUBCHEM_COMPOUND_CID>
11191402

> <PUBCHEM_COMPOUND_CANONICALIZED>
1

> <PUBCHEM_CACTVS_COMPLEXITY>
675

> <PUBCHEM_CACTVS_HBOND_ACCEPTOR>
9

> <PUBCHEM_CACTVS_HBOND_DONOR>
0

> <PUBCHEM_CACTVS_ROTATABLE_BOND>
10

> <PUBCHEM_CACTVS_SUBSKEYS>
AAADcfB7MYBAAAAAAAAAAAAAAAAAAAAAAAA8eIEAAAAAAACxQAAAHwQAAAAADAjh2BYyyYMABAiIAiTSSACCAAAhChAIiB0IZIgKYHLg0ZGXIAhkgAD4yAcQgAAOEAAAQAAAAQAgAACAAAACAAAAAAAAAA==

> <PUBCHEM_IUPAC_OPENEYE_NAME>
2-[4-[3-[2-(trifluoromethyl)phenothiazin-10-yl]propyl]piperazin-1-yl]ethyl butanoate

> <PUBCHEM_IUPAC_CAS_NAME>
butanoic acid 2-[4-[3-[2-(trifluoromethyl)-10-phenothiazinyl]propyl]-1-piperazinyl]ethyl ester

> <PUBCHEM_IUPAC_NAME>
2-[4-[3-[2-(trifluoromethyl)phenothiazin-10-yl]propyl]piperazin-1-yl]ethyl butanoate

> <PUBCHEM_IUPAC_SYSTEMATIC_NAME>
2-[4-[3-[2-(trifluoromethyl)phenothiazin-10-yl]propyl]piperazin-1-yl]ethyl butanoate

> <PUBCHEM_IUPAC_TRADITIONAL_NAME>
butyric acid 2-[4-[3-[2-(trifluoromethyl)phenothiazin-10-yl]propyl]piperazino]ethyl ester

> <PUBCHEM_IUPAC_INCHI>
InChI=1S/C26H32F3N3O2S/c1-2-6-25(33)34-18-17-31-15-13-30(14-16-31)11-5-12-32-21-7-3-4-8-23(21)35-24-10-9-20(19-22(24)32)26(27,28)29/h3-4,7-10,19H,2,5-6,11-18H2,1H3

> <PUBCHEM_IUPAC_INCHIKEY>
TVNNNXQCQPFFFB-UHFFFAOYSA-N

> <PUBCHEM_XLOGP3>
5.8

> <PUBCHEM_EXACT_MASS>
507.216733

> <PUBCHEM_MOLECULAR_FORMULA>
C26H32F3N3O2S

> <PUBCHEM_MOLECULAR_WEIGHT>
507.61139

> <PUBCHEM_OPENEYE_CAN_SMILES>
CCCC(=O)OCCN1CCN(CC1)CCCN2C3=CC=CC=C3SC4=C2C=C(C=C4)C(F)(F)F

> <PUBCHEM_OPENEYE_ISO_SMILES>
CCCC(=O)OCCN1CCN(CC1)CCCN2C3=CC=CC=C3SC4=C2C=C(C=C4)C(F)(F)F

> <PUBCHEM_CACTVS_TPSA>
61.3

> <PUBCHEM_MONOISOTOPIC_WEIGHT>
507.216733

> <PUBCHEM_TOTAL_CHARGE>
0

> <PUBCHEM_HEAVY_ATOM_COUNT>
35

> <PUBCHEM_ATOM_DEF_STEREO_COUNT>
0

> <PUBCHEM_ATOM_UDEF_STEREO_COUNT>
0

> <PUBCHEM_BOND_DEF_STEREO_COUNT>
0

> <PUBCHEM_BOND_UDEF_STEREO_COUNT>
0

> <PUBCHEM_ISOTOPIC_ATOM_COUNT>
0

> <PUBCHEM_COMPONENT_COUNT>
1

> <PUBCHEM_CACTVS_TAUTO_COUNT>
1

> <PUBCHEM_COORDINATE_TYPE>
1
5
255

> <PUBCHEM_BONDANNOTATIONS>
19  21  8
19  23  8
20  22  8
20  24  8
21  26  8
22  27  8
23  25  8
24  29  8
25  28  8
26  28  8
27  31  8
29  31  8

$$$$

