47205121
  -OEChem-06241222583D

 27 28  0     0  0  0  0  0  0999 V2000
    1.0114   -1.2610    2.0610 Br  0  0  0  0  0  0  0  0  0  0  0  0
    0.2165    1.3761    0.1456 S   0  0  0  0  0  0  0  0  0  0  0  0
    5.6086   -0.9580   -0.3352 F   0  0  0  0  0  0  0  0  0  0  0  0
   -0.7822    0.2586   -0.5147 O   0  0  0  0  0  0  0  0  0  0  0  0
   -0.0637    1.4896    1.5639 O   0  0  0  0  0  0  0  0  0  0  0  0
    0.2327    2.5368   -0.7250 O   0  0  0  0  0  0  0  0  0  0  0  0
   -1.6380   -3.2185   -0.7781 N   0  0  0  0  0  0  0  0  0  0  0  0
    1.8203    0.6419    0.0369 C   0  0  0  0  0  0  0  0  0  0  0  0
    2.1936   -0.4549    0.8137 C   0  0  0  0  0  0  0  0  0  0  0  0
    2.7266    1.1982   -0.8657 C   0  0  0  0  0  0  0  0  0  0  0  0
   -2.1267    0.2298   -0.2881 C   0  0  0  0  0  0  0  0  0  0  0  0
    3.4731   -0.9953    0.6880 C   0  0  0  0  0  0  0  0  0  0  0  0
    4.0063    0.6576   -0.9915 C   0  0  0  0  0  0  0  0  0  0  0  0
   -2.8377   -0.9700   -0.3079 C   0  0  0  0  0  0  0  0  0  0  0  0
    4.3795   -0.4391   -0.2146 C   0  0  0  0  0  0  0  0  0  0  0  0
   -2.7906    1.4298   -0.0330 C   0  0  0  0  0  0  0  0  0  0  0  0
   -4.2124   -0.9699   -0.0726 C   0  0  0  0  0  0  0  0  0  0  0  0
   -4.1655    1.4299    0.2023 C   0  0  0  0  0  0  0  0  0  0  0  0
   -4.8765    0.2300    0.1825 C   0  0  0  0  0  0  0  0  0  0  0  0
   -2.1752   -2.2115   -0.5675 C   0  0  0  0  0  0  0  0  0  0  0  0
    2.4734    2.0495   -1.4900 H   0  0  0  0  0  0  0  0  0  0  0  0
    3.7836   -1.8497    1.2840 H   0  0  0  0  0  0  0  0  0  0  0  0
    4.7125    1.0896   -1.6944 H   0  0  0  0  0  0  0  0  0  0  0  0
   -2.2840    2.3889   -0.0280 H   0  0  0  0  0  0  0  0  0  0  0  0
   -4.7815   -1.8966   -0.0847 H   0  0  0  0  0  0  0  0  0  0  0  0
   -4.6838    2.3644    0.3964 H   0  0  0  0  0  0  0  0  0  0  0  0
   -5.9472    0.2303    0.3647 H   0  0  0  0  0  0  0  0  0  0  0  0
  1  9  1  0  0  0  0
  2  4  1  0  0  0  0
  2  5  2  0  0  0  0
  2  6  2  0  0  0  0
  2  8  1  0  0  0  0
  3 15  1  0  0  0  0
  4 11  1  0  0  0  0
  7 20  3  0  0  0  0
  8  9  2  0  0  0  0
  8 10  1  0  0  0  0
  9 12  1  0  0  0  0
 10 13  2  0  0  0  0
 10 21  1  0  0  0  0
 11 14  1  0  0  0  0
 11 16  2  0  0  0  0
 12 15  2  0  0  0  0
 12 22  1  0  0  0  0
 13 15  1  0  0  0  0
 13 23  1  0  0  0  0
 14 17  2  0  0  0  0
 14 20  1  0  0  0  0
 16 18  1  0  0  0  0
 16 24  1  0  0  0  0
 17 19  1  0  0  0  0
 17 25  1  0  0  0  0
 18 19  2  0  0  0  0
 18 26  1  0  0  0  0
 19 27  1  0  0  0  0
M  END
> <PUBCHEM_COMPOUND_CID>
47205121

> <PUBCHEM_CONFORMER_RMSD>
0.6

> <PUBCHEM_CONFORMER_DIVERSEORDER>
1
25
40
8
16
10
20
35
39
26
33
29
34
36
6
15
28
22
30
37
32
11
18
9
38
17
23
12
24
19
31
7
13
5
21
3
27
14
4
2

> <PUBCHEM_MMFF94_PARTIAL_CHARGES>
27
1 -0.11
10 -0.15
11 0.08
12 -0.15
13 -0.15
14 0.07
15 0.19
16 -0.15
17 -0.15
18 -0.15
19 -0.15
2 1.49
20 0.48
21 0.15
22 0.15
23 0.15
24 0.15
25 0.15
26 0.15
27 0.15
3 -0.19
4 -0.27
5 -0.65
6 -0.65
7 -0.56
8 -0.01
9 0.11

> <PUBCHEM_EFFECTIVE_ROTOR_COUNT>
3

> <PUBCHEM_PHARMACOPHORE_FEATURES>
6
1 1 hydrophobe
1 5 acceptor
1 6 acceptor
1 7 acceptor
6 11 14 16 17 18 19 rings
6 8 9 10 12 13 15 rings

> <PUBCHEM_HEAVY_ATOM_COUNT>
20

> <PUBCHEM_ATOM_DEF_STEREO_COUNT>
0

> <PUBCHEM_ATOM_UDEF_STEREO_COUNT>
0

> <PUBCHEM_BOND_DEF_STEREO_COUNT>
0

> <PUBCHEM_BOND_UDEF_STEREO_COUNT>
0

> <PUBCHEM_ISOTOPIC_ATOM_COUNT>
0

> <PUBCHEM_COMPONENT_COUNT>
1

> <PUBCHEM_CACTVS_TAUTO_COUNT>
1

> <PUBCHEM_CONFORMER_ID>
02D04B0100000001

> <PUBCHEM_MMFF94_ENERGY>
41.9272

> <PUBCHEM_FEATURE_SELFOVERLAP>
30.462

> <PUBCHEM_SHAPE_FINGERPRINT>
10366900 7 16660644068016102362
10616163 171 18410291376325136167
12011746 2 18410019849156834215
12166972 35 6627455324867665923
12236239 1 18343017817888524468
12346177 29 17676780781694231343
12553582 1 18270696323515940833
12633257 1 17967802809352790883
12788726 201 17677039248172753136
13167823 11 18342736308272429276
14115302 16 18335417963241647052
14251751 93 18272938257974331207
14386348 63 17167859772830786574
15042514 8 18264767659027079919
15375462 189 18131078159556908689
15415430 112 18410857642056145579
16752209 62 18263662756861256879
17093844 170 18115017628013309134
17804303 29 18260268517037198665
17859628 97 18412263960599803347
18186145 218 17131836439078918044
19422 9 18343582940852680993
200 152 18059852900506837168
20600515 1 18187918486807559357
20681677 155 18409731763608159530
21267235 1 18341604923681838987
21618674 57 16877939464455631123
21634736 98 18271526390781871972
23175994 123 16732698346413241625
23402539 116 18334580165451126524
23559900 14 18114465583129473640
23598291 2 17844540000398534162
3004659 81 18341611538453662510
465052 167 18339914906292337355
474 4 17273689858664330276
5104073 3 18336261250158407713
5385378 56 17899120883906126681
559249 180 18341334504024827270
633830 44 17632576011757752262
90525 40 18411142463218574719

> <PUBCHEM_SHAPE_MULTIPOLES>
391.52
9.59
2.38
1.22
2.06
0.76
-0.55
0.95
1.51
-1.17
0.39
0.57
0.33
-1.12

> <PUBCHEM_SHAPE_SELFOVERLAP>
818.104

> <PUBCHEM_SHAPE_VOLUME>
224.1

> <PUBCHEM_COORDINATE_TYPE>
2
5
10

$$$$

