247856
  -OEChem-07051213063D

 54 57  0     1  0  0  0  0  0999 V2000
   -0.9838    3.2448    2.1769 Cl  0  0  0  0  0  0  0  0  0  0  0  0
    4.1005   -2.8395    0.5293 O   0  0  0  0  0  0  0  0  0  0  0  0
   -4.0247   -0.7100    0.6059 O   0  0  0  0  0  0  0  0  0  0  0  0
   -3.3559   -2.9025    0.3186 O   0  0  0  0  0  0  0  0  0  0  0  0
    2.3114    0.1453    0.5336 C   0  0  1  0  0  0  0  0  0  0  0  0
    1.6721    1.2906   -0.2715 C   0  0  1  0  0  0  0  0  0  0  0  0
    3.1280   -0.8034   -0.3791 C   0  0  2  0  0  0  0  0  0  0  0  0
   -1.3056    1.8421   -0.2352 C   0  0  2  0  0  0  0  0  0  0  0  0
    0.6931    0.6180   -1.2501 C   0  0  0  0  0  0  0  0  0  0  0  0
    1.0386    2.3641    0.6217 C   0  0  0  0  0  0  0  0  0  0  0  0
   -0.6391    0.8699   -1.2375 C   0  0  0  0  0  0  0  0  0  0  0  0
    2.1588   -1.4730   -1.3504 C   0  0  0  0  0  0  0  0  0  0  0  0
    3.2607    0.4395    1.6920 C   0  0  0  0  0  0  0  0  0  0  0  0
   -0.3905    2.0058    1.0180 C   0  0  1  0  0  0  0  0  0  0  0  0
    1.3617   -0.4209   -2.1484 C   0  0  0  0  0  0  0  0  0  0  0  0
    3.7280   -1.6862    0.6991 C   0  0  0  0  0  0  0  0  0  0  0  0
   -2.7007    1.2780    0.1951 C   0  0  0  0  0  0  0  0  0  0  0  0
    3.8446   -0.9436    2.0184 C   0  0  0  0  0  0  0  0  0  0  0  0
   -1.6521    0.1571   -2.1092 C   0  0  0  0  0  0  0  0  0  0  0  0
    4.3132   -0.1656   -1.1286 C   0  0  0  0  0  0  0  0  0  0  0  0
   -2.7522   -0.2523    0.1612 C   0  0  2  0  0  0  0  0  0  0  0  0
   -2.5071   -0.7838   -1.2569 C   0  0  0  0  0  0  0  0  0  0  0  0
   -1.5385    3.1918   -0.9602 C   0  0  0  0  0  0  0  0  0  0  0  0
   -4.1913   -2.0667    0.6357 C   0  0  0  0  0  0  0  0  0  0  0  0
   -5.5694   -2.3998    1.1216 C   0  0  0  0  0  0  0  0  0  0  0  0
    1.4826   -0.4325    0.9806 H   0  0  0  0  0  0  0  0  0  0  0  0
    2.4465    1.8029   -0.8547 H   0  0  0  0  0  0  0  0  0  0  0  0
    1.6542    2.5398    1.5108 H   0  0  0  0  0  0  0  0  0  0  0  0
    1.0495    3.3197    0.0821 H   0  0  0  0  0  0  0  0  0  0  0  0
    1.4601   -2.1192   -0.8019 H   0  0  0  0  0  0  0  0  0  0  0  0
    2.6975   -2.1310   -2.0432 H   0  0  0  0  0  0  0  0  0  0  0  0
    2.7477    0.8541    2.5652 H   0  0  0  0  0  0  0  0  0  0  0  0
    4.0483    1.1430    1.4015 H   0  0  0  0  0  0  0  0  0  0  0  0
   -0.3768    1.0695    1.5885 H   0  0  0  0  0  0  0  0  0  0  0  0
    0.6558   -0.9656   -2.7769 H   0  0  0  0  0  0  0  0  0  0  0  0
    2.0268    0.1055   -2.8436 H   0  0  0  0  0  0  0  0  0  0  0  0
   -3.4923    1.6593   -0.4662 H   0  0  0  0  0  0  0  0  0  0  0  0
   -2.9943    1.6280    1.1912 H   0  0  0  0  0  0  0  0  0  0  0  0
    3.2383   -1.4594    2.7685 H   0  0  0  0  0  0  0  0  0  0  0  0
    4.8862   -0.8747    2.3393 H   0  0  0  0  0  0  0  0  0  0  0  0
   -2.2995    0.9038   -2.5861 H   0  0  0  0  0  0  0  0  0  0  0  0
   -1.2213   -0.3950   -2.9462 H   0  0  0  0  0  0  0  0  0  0  0  0
    4.8526   -0.9295   -1.7020 H   0  0  0  0  0  0  0  0  0  0  0  0
    4.0041    0.6095   -1.8343 H   0  0  0  0  0  0  0  0  0  0  0  0
    5.0462    0.2823   -0.4492 H   0  0  0  0  0  0  0  0  0  0  0  0
   -1.9897   -0.6426    0.8486 H   0  0  0  0  0  0  0  0  0  0  0  0
   -3.4485   -0.9791   -1.7857 H   0  0  0  0  0  0  0  0  0  0  0  0
   -1.9787   -1.7436   -1.2016 H   0  0  0  0  0  0  0  0  0  0  0  0
   -2.0409    3.9199   -0.3154 H   0  0  0  0  0  0  0  0  0  0  0  0
   -0.6041    3.6401   -1.3123 H   0  0  0  0  0  0  0  0  0  0  0  0
   -2.1760    3.0688   -1.8435 H   0  0  0  0  0  0  0  0  0  0  0  0
   -6.3137   -1.9761    0.4427 H   0  0  0  0  0  0  0  0  0  0  0  0
   -5.7081   -2.0143    2.1348 H   0  0  0  0  0  0  0  0  0  0  0  0
   -5.6942   -3.4862    1.1417 H   0  0  0  0  0  0  0  0  0  0  0  0
  1 14  1  0  0  0  0
  2 16  2  0  0  0  0
  3 21  1  0  0  0  0
  3 24  1  0  0  0  0
  4 24  2  0  0  0  0
  5  6  1  0  0  0  0
  5  7  1  0  0  0  0
  5 13  1  0  0  0  0
  5 26  1  0  0  0  0
  6  9  1  0  0  0  0
  6 10  1  0  0  0  0
  6 27  1  0  0  0  0
  7 12  1  0  0  0  0
  7 16  1  0  0  0  0
  7 20  1  0  0  0  0
  8 11  1  0  0  0  0
  8 14  1  0  0  0  0
  8 17  1  0  0  0  0
  8 23  1  0  0  0  0
  9 11  2  0  0  0  0
  9 15  1  0  0  0  0
 10 14  1  0  0  0  0
 10 28  1  0  0  0  0
 10 29  1  0  0  0  0
 11 19  1  0  0  0  0
 12 15  1  0  0  0  0
 12 30  1  0  0  0  0
 12 31  1  0  0  0  0
 13 18  1  0  0  0  0
 13 32  1  0  0  0  0
 13 33  1  0  0  0  0
 14 34  1  0  0  0  0
 15 35  1  0  0  0  0
 15 36  1  0  0  0  0
 16 18  1  0  0  0  0
 17 21  1  0  0  0  0
 17 37  1  0  0  0  0
 17 38  1  0  0  0  0
 18 39  1  0  0  0  0
 18 40  1  0  0  0  0
 19 22  1  0  0  0  0
 19 41  1  0  0  0  0
 19 42  1  0  0  0  0
 20 43  1  0  0  0  0
 20 44  1  0  0  0  0
 20 45  1  0  0  0  0
 21 22  1  0  0  0  0
 21 46  1  0  0  0  0
 22 47  1  0  0  0  0
 22 48  1  0  0  0  0
 23 49  1  0  0  0  0
 23 50  1  0  0  0  0
 23 51  1  0  0  0  0
 24 25  1  0  0  0  0
 25 52  1  0  0  0  0
 25 53  1  0  0  0  0
 25 54  1  0  0  0  0
M  END
> <PUBCHEM_COMPOUND_CID>
247856

> <PUBCHEM_CONFORMER_RMSD>
0.8

> <PUBCHEM_CONFORMER_DIVERSEORDER>
4
6
1
3
2
5
7

> <PUBCHEM_MMFF94_PARTIAL_CHARGES>
17
1 -0.29
11 -0.28
14 0.29
15 0.14
16 0.45
18 0.06
19 0.14
2 -0.57
21 0.28
24 0.66
25 0.06
3 -0.43
4 -0.57
6 0.14
7 0.06
8 0.14
9 -0.28

> <PUBCHEM_EFFECTIVE_ROTOR_COUNT>
4

> <PUBCHEM_PHARMACOPHORE_FEATURES>
6
1 2 acceptor
1 4 acceptor
5 5 7 13 16 18 rings
6 5 6 7 9 12 15 rings
6 6 8 9 10 11 14 rings
6 8 11 17 19 21 22 rings

> <PUBCHEM_HEAVY_ATOM_COUNT>
25

> <PUBCHEM_ATOM_DEF_STEREO_COUNT>
6

> <PUBCHEM_ATOM_UDEF_STEREO_COUNT>
0

> <PUBCHEM_BOND_DEF_STEREO_COUNT>
0

> <PUBCHEM_BOND_UDEF_STEREO_COUNT>
0

> <PUBCHEM_ISOTOPIC_ATOM_COUNT>
0

> <PUBCHEM_COMPONENT_COUNT>
1

> <PUBCHEM_CACTVS_TAUTO_COUNT>
2

> <PUBCHEM_CONFORMER_ID>
0003C83000000004

> <PUBCHEM_MMFF94_ENERGY>
75.3547

> <PUBCHEM_FEATURE_SELFOVERLAP>
30.575

> <PUBCHEM_SHAPE_FINGERPRINT>
10366900 7 17895481452382373916
11578080 2 17703527526905245804
11796584 16 17774454861786572639
12363563 72 18342738486068826659
12506688 2 18338511933238163417
12553582 1 18186803539045624988
12633257 1 18042395842834484943
12714826 92 18410014372509445173
12824470 246 18060138755985978375
13103583 49 18261655022806672891
13140716 1 18260832643363630160
13583140 156 18191045571439530552
13631057 29 18341604915619425270
13965767 371 16153972626074141479
14178342 30 18045775943071972504
14223421 5 17459758214425771060
14251757 17 14476678555719308779
14787075 74 18194678173190121436
14957384 54 6915981430855523214
15422964 175 18187640340451017285
15475509 35 17982439409616577747
15664445 248 16628839457527798965
16945 1 18337410257094979404
1813 80 17703225118694997589
18186145 218 11599440377452205980
20600515 1 18339077202622378077
20626108 58 17989487394523355495
20775438 99 14834421062001282699
20775530 9 18131355163631699387
21033648 29 16226315010967199699
21304303 94 14476692845296834795
21421861 104 18192697965590921537
21452121 199 18129943364883936125
21756936 100 4894407369600460162
21864079 5 6843623734715428090
23503958 8 18199752612319835322
23559900 14 18191295190485376444
2748010 2 17170949542112774788
2838139 119 7996240670971799506
3380486 145 17823441351947105453
35225 105 17687703488796529953
3797600 57 18410571743853931556
392239 28 18043836203150871922
463206 1 17917148278428309171
474 4 7204231624408266867
484985 159 17768822200950928986
633830 44 5039660479133108564
7097593 13 17900258607467642231
8509985 295 17750217133633552739
9981440 41 16810140407753326726

> <PUBCHEM_SHAPE_MULTIPOLES>
498.75
8.6
3.45
2.03
2.86
0.97
0.09
-8.89
-3.54
2.48
-1.44
-0.58
0.26
0.7

> <PUBCHEM_SHAPE_SELFOVERLAP>
1056.75

> <PUBCHEM_SHAPE_VOLUME>
279.5

> <PUBCHEM_COORDINATE_TYPE>
2
5
10

$$$$

