43234
  -OEChem-07051213013D

 39 41  0     1  0  0  0  0  0999 V2000
    1.2260   -1.4973   -1.8895 Cl  0  0  0  0  0  0  0  0  0  0  0  0
    6.0990    0.0060   -0.1679 Cl  0  0  0  0  0  0  0  0  0  0  0  0
   -0.5655   -0.7597   -0.1488 O   0  0  0  0  0  0  0  0  0  0  0  0
   -0.2742    0.8043    1.5707 O   0  0  0  0  0  0  0  0  0  0  0  0
   -1.8589    1.7470   -0.6163 N   0  0  0  0  0  0  0  0  0  0  0  0
   -2.3729    2.6064    0.2637 N   0  0  0  0  0  0  0  0  0  0  0  0
   -3.9918    1.5529   -0.9620 N   0  0  0  0  0  0  0  0  0  0  0  0
    0.0944    0.4694    0.2174 C   0  0  2  0  0  0  0  0  0  0  0  0
   -1.0227   -1.3151    1.0860 C   0  0  1  0  0  0  0  0  0  0  0  0
   -1.3355   -0.0901    1.9055 C   0  0  0  0  0  0  0  0  0  0  0  0
   -2.2126   -2.2212    0.8539 C   0  0  0  0  0  0  0  0  0  0  0  0
   -0.4155    1.5699   -0.7124 C   0  0  0  0  0  0  0  0  0  0  0  0
    1.6046    0.3302    0.0960 C   0  0  0  0  0  0  0  0  0  0  0  0
   -1.8288   -3.4652    0.0506 C   0  0  0  0  0  0  0  0  0  0  0  0
    2.1909   -0.5357   -0.8297 C   0  0  0  0  0  0  0  0  0  0  0  0
    2.4130    1.0953    0.9391 C   0  0  0  0  0  0  0  0  0  0  0  0
   -3.0300   -4.3604   -0.2082 C   0  0  0  0  0  0  0  0  0  0  0  0
    3.5799   -0.6361   -0.9113 C   0  0  0  0  0  0  0  0  0  0  0  0
    3.8017    0.9948    0.8574 C   0  0  0  0  0  0  0  0  0  0  0  0
   -2.8111    1.1228   -1.3418 C   0  0  0  0  0  0  0  0  0  0  0  0
    4.3853    0.1292   -0.0678 C   0  0  0  0  0  0  0  0  0  0  0  0
   -3.6753    2.4525    0.0154 C   0  0  0  0  0  0  0  0  0  0  0  0
   -0.1874   -1.8698    1.5322 H   0  0  0  0  0  0  0  0  0  0  0  0
   -2.2994    0.3571    1.6563 H   0  0  0  0  0  0  0  0  0  0  0  0
   -1.3237   -0.2924    2.9804 H   0  0  0  0  0  0  0  0  0  0  0  0
   -2.9926   -1.6784    0.3055 H   0  0  0  0  0  0  0  0  0  0  0  0
   -2.6387   -2.5264    1.8171 H   0  0  0  0  0  0  0  0  0  0  0  0
   -0.2014    1.3456   -1.7644 H   0  0  0  0  0  0  0  0  0  0  0  0
    0.0352    2.5418   -0.4753 H   0  0  0  0  0  0  0  0  0  0  0  0
   -1.0641   -4.0352    0.5910 H   0  0  0  0  0  0  0  0  0  0  0  0
   -1.3954   -3.1740   -0.9126 H   0  0  0  0  0  0  0  0  0  0  0  0
    1.9873    1.7876    1.6602 H   0  0  0  0  0  0  0  0  0  0  0  0
   -3.4745   -4.7014    0.7323 H   0  0  0  0  0  0  0  0  0  0  0  0
   -3.7985   -3.8301   -0.7795 H   0  0  0  0  0  0  0  0  0  0  0  0
   -2.7289   -5.2429   -0.7813 H   0  0  0  0  0  0  0  0  0  0  0  0
    4.0367   -1.3107   -1.6324 H   0  0  0  0  0  0  0  0  0  0  0  0
    4.4171    1.5992    1.5189 H   0  0  0  0  0  0  0  0  0  0  0  0
   -2.6097    0.3874   -2.1079 H   0  0  0  0  0  0  0  0  0  0  0  0
   -4.4170    3.0131    0.5645 H   0  0  0  0  0  0  0  0  0  0  0  0
  1 15  1  0  0  0  0
  2 21  1  0  0  0  0
  3  8  1  0  0  0  0
  3  9  1  0  0  0  0
  4  8  1  0  0  0  0
  4 10  1  0  0  0  0
  5  6  1  0  0  0  0
  5 12  1  0  0  0  0
  5 20  1  0  0  0  0
  6 22  2  0  0  0  0
  7 20  2  0  0  0  0
  7 22  1  0  0  0  0
  8 12  1  0  0  0  0
  8 13  1  0  0  0  0
  9 10  1  0  0  0  0
  9 11  1  0  0  0  0
  9 23  1  0  0  0  0
 10 24  1  0  0  0  0
 10 25  1  0  0  0  0
 11 14  1  0  0  0  0
 11 26  1  0  0  0  0
 11 27  1  0  0  0  0
 12 28  1  0  0  0  0
 12 29  1  0  0  0  0
 13 15  2  0  0  0  0
 13 16  1  0  0  0  0
 14 17  1  0  0  0  0
 14 30  1  0  0  0  0
 14 31  1  0  0  0  0
 15 18  1  0  0  0  0
 16 19  2  0  0  0  0
 16 32  1  0  0  0  0
 17 33  1  0  0  0  0
 17 34  1  0  0  0  0
 17 35  1  0  0  0  0
 18 21  2  0  0  0  0
 18 36  1  0  0  0  0
 19 21  1  0  0  0  0
 19 37  1  0  0  0  0
 20 38  1  0  0  0  0
 22 39  1  0  0  0  0
M  END
> <PUBCHEM_COMPOUND_CID>
43234

> <PUBCHEM_CONFORMER_RMSD>
0.8

> <PUBCHEM_CONFORMER_DIVERSEORDER>
2
26
85
37
23
92
8
19
7
89
108
20
100
51
9
30
40
109
32
86
79
42
87
93
98
101
69
74
67
41
17
68
95
72
106
16
52
83
94
55
60
49
88
27
105
12
22
50
97
61
15
53
54
47
11
43
35
102
31
58
45
64
111
1
14
70
66
24
62
107
90
104
28
44
48
59
63
10
80
18
21
34
29
3
99
65
46
13
25
4
91
84
81
78
82
71
6
33
77
36
5
96
103
56
76
73
110
57
38
39
75

> <PUBCHEM_MMFF94_PARTIAL_CHARGES>
24
1 -0.18
10 0.28
12 0.26
13 -0.14
15 0.18
16 -0.15
18 -0.15
19 -0.15
2 -0.18
20 0.04
21 0.18
22 0.37
3 -0.56
32 0.15
36 0.15
37 0.15
38 0.15
39 0.15
4 -0.56
5 0.31
6 -0.71
7 -0.57
8 0.7
9 0.28

> <PUBCHEM_EFFECTIVE_ROTOR_COUNT>
6

> <PUBCHEM_PHARMACOPHORE_FEATURES>
8
1 17 hydrophobe
1 3 acceptor
1 4 acceptor
3 5 7 20 cation
3 6 7 22 cation
5 3 4 8 9 10 rings
5 5 6 7 20 22 rings
6 13 15 16 18 19 21 rings

> <PUBCHEM_HEAVY_ATOM_COUNT>
22

> <PUBCHEM_ATOM_DEF_STEREO_COUNT>
0

> <PUBCHEM_ATOM_UDEF_STEREO_COUNT>
2

> <PUBCHEM_BOND_DEF_STEREO_COUNT>
0

> <PUBCHEM_BOND_UDEF_STEREO_COUNT>
0

> <PUBCHEM_ISOTOPIC_ATOM_COUNT>
0

> <PUBCHEM_COMPONENT_COUNT>
1

> <PUBCHEM_CACTVS_TAUTO_COUNT>
1

> <PUBCHEM_CONFORMER_ID>
0000A8E200000002

> <PUBCHEM_MMFF94_ENERGY>
46.3785

> <PUBCHEM_FEATURE_SELFOVERLAP>
43.402

> <PUBCHEM_SHAPE_FINGERPRINT>
11578080 2 17970911046835714841
116883 192 18196092140727063815
12236239 1 15984814969907260544
12293681 25 17968924392327430494
12293681 4 18334858363579436632
12500047 106 18341331175694055338
12788726 201 18056767515854371402
13004483 165 18122067494200899122
13083527 12 17836650725623654672
13134695 92 17476084523395145887
13583140 156 18261683610414859018
13681431 1 17337022694923341355
13899415 180 17834691395982631623
13931106 250 18411131407725055823
15852999 172 18335419131572855158
16945 1 18413394236861607681
17357779 13 18118981186931999759
17539 30 18339366245336368407
1813 80 17907839727014234571
18186145 218 18265902547277073733
200 152 16515974752066318692
20602899 9 18262517116936660131
20681677 76 18336551495843640080
21033648 144 18342470209907185388
21344244 181 18261393403611841671
22182313 1 18196911461504837339
22620623 9 18340485569247269691
22907989 373 18264474118558508620
229495 10 17318180415302366457
23402539 116 18270126832596918620
23419403 2 17533508828684259027
23493267 7 18410017645616922370
23557571 272 18410571743257773918
23559900 14 18339077203223173254
23598288 3 17201891826415737179
69090 78 18059294378253195832
81228 2 18058446513301907097
9709674 26 18334295374944331694

> <PUBCHEM_SHAPE_MULTIPOLES>
429.81
8.39
3.62
1.45
10.47
3.37
-0.05
-0.72
0.88
-6.83
0.32
-0.23
0.06
1.28

> <PUBCHEM_SHAPE_SELFOVERLAP>
899.836

> <PUBCHEM_SHAPE_VOLUME>
246.8

> <PUBCHEM_COORDINATE_TYPE>
2
5
10

$$$$

