9053
  -OEChem-06261203213D

 56 59  0     1  0  0  0  0  0999 V2000
    3.3580   -2.9671   -0.4343 F   0  0  0  0  0  0  0  0  0  0  0  0
   -0.0330    2.1717   -1.4771 O   0  0  0  0  0  0  0  0  0  0  0  0
   -5.4771   -0.2608   -0.2442 O   0  0  0  0  0  0  0  0  0  0  0  0
   -5.8814    2.2509    0.8178 O   0  0  0  0  0  0  0  0  0  0  0  0
    5.9631    0.5546    1.7684 O   0  0  0  0  0  0  0  0  0  0  0  0
   -2.0114    0.1628   -0.1835 C   0  0  1  0  0  0  0  0  0  0  0  0
   -1.0406   -0.9986    0.1075 C   0  0  2  0  0  0  0  0  0  0  0  0
    0.3344   -0.8227   -0.5511 C   0  0  1  0  0  0  0  0  0  0  0  0
    0.9907    0.4912    0.0032 C   0  0  2  0  0  0  0  0  0  0  0  0
   -3.2482   -0.3538    0.5916 C   0  0  2  0  0  0  0  0  0  0  0  0
   -1.8656   -2.2440   -0.2074 C   0  0  0  0  0  0  0  0  0  0  0  0
   -1.3916    1.4480    0.3939 C   0  0  0  0  0  0  0  0  0  0  0  0
   -3.2941   -1.8709    0.2599 C   0  0  1  0  0  0  0  0  0  0  0  0
    0.0355    1.7200   -0.1318 C   0  0  2  0  0  0  0  0  0  0  0  0
    2.4640    0.6950   -0.5328 C   0  0  1  0  0  0  0  0  0  0  0  0
    1.2241   -2.0452   -0.2759 C   0  0  0  0  0  0  0  0  0  0  0  0
   -2.3460    0.3386   -1.6878 C   0  0  0  0  0  0  0  0  0  0  0  0
    2.6434   -1.8602   -0.7925 C   0  0  1  0  0  0  0  0  0  0  0  0
    3.2431   -0.5935   -0.2351 C   0  0  0  0  0  0  0  0  0  0  0  0
   -4.5242    0.3489    0.2390 C   0  0  0  0  0  0  0  0  0  0  0  0
   -3.7372   -2.6956    1.4646 C   0  0  0  0  0  0  0  0  0  0  0  0
    2.5483    0.9674   -2.0518 C   0  0  0  0  0  0  0  0  0  0  0  0
    3.1031    1.8961    0.1488 C   0  0  0  0  0  0  0  0  0  0  0  0
    4.3622   -0.6292    0.5056 C   0  0  0  0  0  0  0  0  0  0  0  0
   -4.5669    1.8377    0.5104 C   0  0  0  0  0  0  0  0  0  0  0  0
    4.2157    1.8641    0.8885 C   0  0  0  0  0  0  0  0  0  0  0  0
    4.9317    0.5946    1.1061 C   0  0  0  0  0  0  0  0  0  0  0  0
   -0.8589   -1.0295    1.1956 H   0  0  0  0  0  0  0  0  0  0  0  0
    0.2156   -0.7436   -1.6363 H   0  0  0  0  0  0  0  0  0  0  0  0
    1.0863    0.3359    1.0919 H   0  0  0  0  0  0  0  0  0  0  0  0
   -3.1001   -0.2243    1.6729 H   0  0  0  0  0  0  0  0  0  0  0  0
   -1.8615   -2.4535   -1.2834 H   0  0  0  0  0  0  0  0  0  0  0  0
   -1.4755   -3.1316    0.3016 H   0  0  0  0  0  0  0  0  0  0  0  0
   -1.3443    1.3738    1.4880 H   0  0  0  0  0  0  0  0  0  0  0  0
   -2.0111    2.3175    0.1574 H   0  0  0  0  0  0  0  0  0  0  0  0
   -3.9826   -2.0944   -0.5641 H   0  0  0  0  0  0  0  0  0  0  0  0
    0.4405    2.5516    0.4555 H   0  0  0  0  0  0  0  0  0  0  0  0
    0.7972   -2.9412   -0.7426 H   0  0  0  0  0  0  0  0  0  0  0  0
    1.2564   -2.2580    0.8012 H   0  0  0  0  0  0  0  0  0  0  0  0
   -2.9535   -0.4836   -2.0799 H   0  0  0  0  0  0  0  0  0  0  0  0
   -2.9071    1.2613   -1.8662 H   0  0  0  0  0  0  0  0  0  0  0  0
   -1.4566    0.3857   -2.3194 H   0  0  0  0  0  0  0  0  0  0  0  0
    2.6513   -1.8300   -1.8868 H   0  0  0  0  0  0  0  0  0  0  0  0
   -3.7632   -3.7610    1.2132 H   0  0  0  0  0  0  0  0  0  0  0  0
   -3.0537   -2.5667    2.3108 H   0  0  0  0  0  0  0  0  0  0  0  0
   -4.7405   -2.4014    1.7893 H   0  0  0  0  0  0  0  0  0  0  0  0
    1.9329    0.2786   -2.6381 H   0  0  0  0  0  0  0  0  0  0  0  0
    2.2368    1.9850   -2.3113 H   0  0  0  0  0  0  0  0  0  0  0  0
    3.5797    0.8640   -2.4146 H   0  0  0  0  0  0  0  0  0  0  0  0
    2.6343    2.8666    0.0018 H   0  0  0  0  0  0  0  0  0  0  0  0
   -0.5925    2.9666   -1.4959 H   0  0  0  0  0  0  0  0  0  0  0  0
    4.8875   -1.5564    0.7080 H   0  0  0  0  0  0  0  0  0  0  0  0
   -4.2241    2.3840   -0.3701 H   0  0  0  0  0  0  0  0  0  0  0  0
   -3.9460    2.0719    1.3785 H   0  0  0  0  0  0  0  0  0  0  0  0
    4.6232    2.7642    1.3338 H   0  0  0  0  0  0  0  0  0  0  0  0
   -5.8518    3.2091    0.9808 H   0  0  0  0  0  0  0  0  0  0  0  0
  1 18  1  0  0  0  0
  2 14  1  0  0  0  0
  2 51  1  0  0  0  0
  3 20  2  0  0  0  0
  4 25  1  0  0  0  0
  4 56  1  0  0  0  0
  5 27  2  0  0  0  0
  6  7  1  0  0  0  0
  6 10  1  0  0  0  0
  6 12  1  0  0  0  0
  6 17  1  0  0  0  0
  7  8  1  0  0  0  0
  7 11  1  0  0  0  0
  7 28  1  0  0  0  0
  8  9  1  0  0  0  0
  8 16  1  0  0  0  0
  8 29  1  0  0  0  0
  9 14  1  0  0  0  0
  9 15  1  0  0  0  0
  9 30  1  0  0  0  0
 10 13  1  0  0  0  0
 10 20  1  0  0  0  0
 10 31  1  0  0  0  0
 11 13  1  0  0  0  0
 11 32  1  0  0  0  0
 11 33  1  0  0  0  0
 12 14  1  0  0  0  0
 12 34  1  0  0  0  0
 12 35  1  0  0  0  0
 13 21  1  0  0  0  0
 13 36  1  0  0  0  0
 14 37  1  0  0  0  0
 15 19  1  0  0  0  0
 15 22  1  0  0  0  0
 15 23  1  0  0  0  0
 16 18  1  0  0  0  0
 16 38  1  0  0  0  0
 16 39  1  0  0  0  0
 17 40  1  0  0  0  0
 17 41  1  0  0  0  0
 17 42  1  0  0  0  0
 18 19  1  0  0  0  0
 18 43  1  0  0  0  0
 19 24  2  0  0  0  0
 20 25  1  0  0  0  0
 21 44  1  0  0  0  0
 21 45  1  0  0  0  0
 21 46  1  0  0  0  0
 22 47  1  0  0  0  0
 22 48  1  0  0  0  0
 22 49  1  0  0  0  0
 23 26  2  0  0  0  0
 23 50  1  0  0  0  0
 24 27  1  0  0  0  0
 24 52  1  0  0  0  0
 25 53  1  0  0  0  0
 25 54  1  0  0  0  0
 26 27  1  0  0  0  0
 26 55  1  0  0  0  0
M  END
> <PUBCHEM_COMPOUND_CID>
9053

> <PUBCHEM_CONFORMER_RMSD>
0.8

> <PUBCHEM_CONFORMER_DIVERSEORDER>
1
2

> <PUBCHEM_MMFF94_PARTIAL_CHARGES>
21
1 -0.34
10 0.06
14 0.28
15 0.28
18 0.48
19 -0.28
2 -0.68
20 0.45
23 -0.29
24 -0.14
25 0.34
26 -0.14
27 0.54
3 -0.57
4 -0.68
5 -0.57
50 0.15
51 0.4
52 0.15
55 0.15
56 0.4

> <PUBCHEM_EFFECTIVE_ROTOR_COUNT>
3.4

> <PUBCHEM_PHARMACOPHORE_FEATURES>
10
1 2 acceptor
1 2 donor
1 3 acceptor
1 4 acceptor
1 4 donor
1 5 acceptor
5 6 7 10 11 13 rings
6 15 19 23 24 26 27 rings
6 6 7 8 9 12 14 rings
6 8 9 15 16 18 19 rings

> <PUBCHEM_HEAVY_ATOM_COUNT>
27

> <PUBCHEM_ATOM_DEF_STEREO_COUNT>
9

> <PUBCHEM_ATOM_UDEF_STEREO_COUNT>
0

> <PUBCHEM_BOND_DEF_STEREO_COUNT>
0

> <PUBCHEM_BOND_UDEF_STEREO_COUNT>
0

> <PUBCHEM_ISOTOPIC_ATOM_COUNT>
0

> <PUBCHEM_COMPONENT_COUNT>
1

> <PUBCHEM_CACTVS_TAUTO_COUNT>
4

> <PUBCHEM_CONFORMER_ID>
0000235D00000001

> <PUBCHEM_MMFF94_ENERGY>
87.8487

> <PUBCHEM_FEATURE_SELFOVERLAP>
50.85

> <PUBCHEM_SHAPE_FINGERPRINT>
10906281 52 18129930209831462356
1100329 8 16755222164157011119
11112241 14 17387152895639812721
11405975 8 18201716236907296283
11961588 58 5472846091740206448
12035758 1 18201429303744681185
12236239 1 17385729105749754791
12403259 118 18338518538607759810
12403814 3 17704073980373864669
12422481 6 18341618130896152496
12633257 1 17632579318545102882
12788726 201 16805599325762015025
13140716 1 18412543244879325635
13224815 77 18339072701205948950
13583140 156 17677052335122356219
13675066 3 18412259523660638067
14178342 30 18340202999027238903
14223421 5 18409733997502927734
14341114 328 17988645164500677992
14790565 3 17979345362110176628
15196674 1 18410008806110211083
15238133 3 18411128164798069652
15375358 24 18333447629867271111
15788980 27 16773803571353323285
15840311 113 17970900288618052945
16945 1 18335697235105714076
17349148 13 18202003179609450548
17980427 23 18200599086287004164
1813 80 17132110255891485780
19141452 34 18342457036967245781
20511986 3 18041294243630511369
20691752 17 17346597460862832643
20715895 44 18338236097780852993
21033648 29 17967827015408631162
21304253 335 18337102462500558989
21421861 104 17987527064355074938
21452121 103 18334297595442462490
21756936 100 17535762798164076608
21859007 373 17629775718956806853
22182313 1 18057896928996872788
23503953 91 18272928323641388717
23559900 14 18339911727557823750
335352 9 18338229495993905351
34797466 226 16732979817379925205
34934 24 18261115175033820031
350125 39 18337950190613709516
3633792 109 18338529646422225429
3680242 22 18200313345874895186
392239 28 17822855243513719642
394222 165 17127876960648470220
4340502 62 18186521007538802568
460360 51 18265312019665062641
495365 180 17676492786450730126
5104073 3 18341611494897335211
7064713 232 18410293584096081524
9709674 26 18336540603215688103

> <PUBCHEM_SHAPE_MULTIPOLES>
524.9
11.39
2.82
1.31
1.62
0.9
-0.24
-2.62
4.81
1.03
0.19
-0.73
-0.22
0.67

> <PUBCHEM_SHAPE_SELFOVERLAP>
1131.509

> <PUBCHEM_SHAPE_VOLUME>
290.4

> <PUBCHEM_COORDINATE_TYPE>
2
5
10

$$$$

