442983
  -OEChem-07051213003D

 79 83  0     1  0  0  0  0  0999 V2000
   -2.5329    2.4366   -0.2294 O   0  0  0  0  0  0  0  0  0  0  0  0
   -5.4830   -0.9567    2.0951 O   0  0  0  0  0  0  0  0  0  0  0  0
   -4.2616    0.0170   -1.2720 N   0  0  0  0  0  0  0  0  0  0  0  0
    8.3138   -0.3476   -0.9999 N   0  0  0  0  0  0  0  0  0  0  0  0
   -0.3494   -0.3084    0.5905 C   0  0  1  0  0  0  0  0  0  0  0  0
    0.4446    0.9671    0.2307 C   0  0  2  0  0  0  0  0  0  0  0  0
    1.9336    0.8618    0.5802 C   0  0  1  0  0  0  0  0  0  0  0  0
    2.5465   -0.3406   -0.2093 C   0  0  1  0  0  0  0  0  0  0  0  0
    4.0920   -0.4886    0.0519 C   0  0  2  0  0  0  0  0  0  0  0  0
   -1.7628    0.1572    0.1651 C   0  0  2  0  0  0  0  0  0  0  0  0
    0.2219   -1.4669   -0.2395 C   0  0  0  0  0  0  0  0  0  0  0  0
    1.7328   -1.6456   -0.0041 C   0  0  0  0  0  0  0  0  0  0  0  0
    4.7598    0.8742   -0.3206 C   0  0  1  0  0  0  0  0  0  0  0  0
   -0.3831    2.0965    0.8433 C   0  0  0  0  0  0  0  0  0  0  0  0
    2.6776    2.1687    0.2708 C   0  0  0  0  0  0  0  0  0  0  0  0
   -1.8394    1.6110    0.6958 C   0  0  1  0  0  0  0  0  0  0  0  0
    4.1848    2.0462    0.4828 C   0  0  0  0  0  0  0  0  0  0  0  0
    4.7017   -1.5808   -0.8719 C   0  0  0  0  0  0  0  0  0  0  0  0
   -2.9285   -0.7032    0.6373 C   0  0  1  0  0  0  0  0  0  0  0  0
   -0.3090   -0.6771    2.0947 C   0  0  0  0  0  0  0  0  0  0  0  0
    6.2936    0.8346   -0.2343 C   0  0  0  0  0  0  0  0  0  0  0  0
    4.3644   -0.8873    1.5251 C   0  0  0  0  0  0  0  0  0  0  0  0
    6.2335   -1.6297   -0.8386 C   0  0  0  0  0  0  0  0  0  0  0  0
    6.8598   -0.2661   -1.1382 C   0  0  2  0  0  0  0  0  0  0  0  0
   -4.2626   -0.0991    0.1911 C   0  0  2  0  0  0  0  0  0  0  0  0
   -2.7895   -2.1335    0.1176 C   0  0  0  0  0  0  0  0  0  0  0  0
   -5.4474   -0.9537    0.6703 C   0  0  2  0  0  0  0  0  0  0  0  0
   -6.7739   -0.4028    0.1451 C   0  0  0  0  0  0  0  0  0  0  0  0
   -5.5009    0.6136   -1.7716 C   0  0  0  0  0  0  0  0  0  0  0  0
   -6.7250   -0.2217   -1.3743 C   0  0  2  0  0  0  0  0  0  0  0  0
   -8.0114    0.4249   -1.8838 C   0  0  0  0  0  0  0  0  0  0  0  0
    0.3902    1.1130   -0.8615 H   0  0  0  0  0  0  0  0  0  0  0  0
    2.0313    0.6852    1.6560 H   0  0  0  0  0  0  0  0  0  0  0  0
    2.4362   -0.0968   -1.2782 H   0  0  0  0  0  0  0  0  0  0  0  0
   -1.7765    0.1909   -0.9347 H   0  0  0  0  0  0  0  0  0  0  0  0
    0.0539   -1.2858   -1.3090 H   0  0  0  0  0  0  0  0  0  0  0  0
   -0.2382   -2.4274   -0.0089 H   0  0  0  0  0  0  0  0  0  0  0  0
    1.8927   -2.0410    1.0037 H   0  0  0  0  0  0  0  0  0  0  0  0
    2.0868   -2.4166   -0.6976 H   0  0  0  0  0  0  0  0  0  0  0  0
    4.5210    1.0773   -1.3766 H   0  0  0  0  0  0  0  0  0  0  0  0
   -0.1334    2.2196    1.9033 H   0  0  0  0  0  0  0  0  0  0  0  0
   -0.2025    3.0524    0.3410 H   0  0  0  0  0  0  0  0  0  0  0  0
   -2.3511    1.6821    1.6615 H   0  0  0  0  0  0  0  0  0  0  0  0
    2.2973    2.9781    0.9050 H   0  0  0  0  0  0  0  0  0  0  0  0
    2.4860    2.4670   -0.7681 H   0  0  0  0  0  0  0  0  0  0  0  0
    4.6601    2.9828    0.1662 H   0  0  0  0  0  0  0  0  0  0  0  0
    4.4058    1.9331    1.5502 H   0  0  0  0  0  0  0  0  0  0  0  0
    4.3830   -1.4023   -1.9074 H   0  0  0  0  0  0  0  0  0  0  0  0
    4.3248   -2.5730   -0.5972 H   0  0  0  0  0  0  0  0  0  0  0  0
   -2.9293   -0.7385    1.7330 H   0  0  0  0  0  0  0  0  0  0  0  0
    0.7103   -0.8090    2.4673 H   0  0  0  0  0  0  0  0  0  0  0  0
   -0.7757    0.0862    2.7252 H   0  0  0  0  0  0  0  0  0  0  0  0
   -0.8283   -1.6202    2.2915 H   0  0  0  0  0  0  0  0  0  0  0  0
    6.6999    1.8046   -0.5503 H   0  0  0  0  0  0  0  0  0  0  0  0
    6.6187    0.6921    0.8033 H   0  0  0  0  0  0  0  0  0  0  0  0
    5.4321   -0.9116    1.7602 H   0  0  0  0  0  0  0  0  0  0  0  0
    3.9060   -0.2006    2.2407 H   0  0  0  0  0  0  0  0  0  0  0  0
    3.9789   -1.8888    1.7426 H   0  0  0  0  0  0  0  0  0  0  0  0
    6.5696   -1.9985    0.1384 H   0  0  0  0  0  0  0  0  0  0  0  0
    6.5777   -2.3665   -1.5759 H   0  0  0  0  0  0  0  0  0  0  0  0
    6.6369   -0.0057   -2.1810 H   0  0  0  0  0  0  0  0  0  0  0  0
   -4.3698    0.8955    0.6410 H   0  0  0  0  0  0  0  0  0  0  0  0
   -2.4746   -2.1713   -0.9305 H   0  0  0  0  0  0  0  0  0  0  0  0
   -2.0636   -2.6835    0.7204 H   0  0  0  0  0  0  0  0  0  0  0  0
   -3.6828   -2.7496    0.2059 H   0  0  0  0  0  0  0  0  0  0  0  0
   -2.0494    2.4180   -1.0729 H   0  0  0  0  0  0  0  0  0  0  0  0
   -5.4135   -1.9916    0.3335 H   0  0  0  0  0  0  0  0  0  0  0  0
   -4.1590   -0.9071   -1.6905 H   0  0  0  0  0  0  0  0  0  0  0  0
    8.7332    0.5450   -1.2568 H   0  0  0  0  0  0  0  0  0  0  0  0
    8.6828   -1.0383   -1.6522 H   0  0  0  0  0  0  0  0  0  0  0  0
   -6.9934    0.5539    0.6385 H   0  0  0  0  0  0  0  0  0  0  0  0
   -7.5932   -1.0749    0.4298 H   0  0  0  0  0  0  0  0  0  0  0  0
   -5.4374    0.6824   -2.8637 H   0  0  0  0  0  0  0  0  0  0  0  0
   -5.5913    1.6418   -1.3997 H   0  0  0  0  0  0  0  0  0  0  0  0
   -6.6399   -1.2132   -1.8399 H   0  0  0  0  0  0  0  0  0  0  0  0
   -4.7979   -1.5711    2.4074 H   0  0  0  0  0  0  0  0  0  0  0  0
   -8.1533    1.4227   -1.4548 H   0  0  0  0  0  0  0  0  0  0  0  0
   -7.9894    0.5253   -2.9740 H   0  0  0  0  0  0  0  0  0  0  0  0
   -8.8825   -0.1841   -1.6204 H   0  0  0  0  0  0  0  0  0  0  0  0
  1 16  1  0  0  0  0
  1 66  1  0  0  0  0
  2 27  1  0  0  0  0
  2 76  1  0  0  0  0
  3 25  1  0  0  0  0
  3 29  1  0  0  0  0
  3 68  1  0  0  0  0
  4 24  1  0  0  0  0
  4 69  1  0  0  0  0
  4 70  1  0  0  0  0
  5  6  1  0  0  0  0
  5 10  1  0  0  0  0
  5 11  1  0  0  0  0
  5 20  1  0  0  0  0
  6  7  1  0  0  0  0
  6 14  1  0  0  0  0
  6 32  1  0  0  0  0
  7  8  1  0  0  0  0
  7 15  1  0  0  0  0
  7 33  1  0  0  0  0
  8  9  1  0  0  0  0
  8 12  1  0  0  0  0
  8 34  1  0  0  0  0
  9 13  1  0  0  0  0
  9 18  1  0  0  0  0
  9 22  1  0  0  0  0
 10 16  1  0  0  0  0
 10 19  1  0  0  0  0
 10 35  1  0  0  0  0
 11 12  1  0  0  0  0
 11 36  1  0  0  0  0
 11 37  1  0  0  0  0
 12 38  1  0  0  0  0
 12 39  1  0  0  0  0
 13 17  1  0  0  0  0
 13 21  1  0  0  0  0
 13 40  1  0  0  0  0
 14 16  1  0  0  0  0
 14 41  1  0  0  0  0
 14 42  1  0  0  0  0
 15 17  1  0  0  0  0
 15 44  1  0  0  0  0
 15 45  1  0  0  0  0
 16 43  1  0  0  0  0
 17 46  1  0  0  0  0
 17 47  1  0  0  0  0
 18 23  1  0  0  0  0
 18 48  1  0  0  0  0
 18 49  1  0  0  0  0
 19 25  1  0  0  0  0
 19 26  1  0  0  0  0
 19 50  1  0  0  0  0
 20 51  1  0  0  0  0
 20 52  1  0  0  0  0
 20 53  1  0  0  0  0
 21 24  1  0  0  0  0
 21 54  1  0  0  0  0
 21 55  1  0  0  0  0
 22 56  1  0  0  0  0
 22 57  1  0  0  0  0
 22 58  1  0  0  0  0
 23 24  1  0  0  0  0
 23 59  1  0  0  0  0
 23 60  1  0  0  0  0
 24 61  1  0  0  0  0
 25 27  1  0  0  0  0
 25 62  1  0  0  0  0
 26 63  1  0  0  0  0
 26 64  1  0  0  0  0
 26 65  1  0  0  0  0
 27 28  1  0  0  0  0
 27 67  1  0  0  0  0
 28 30  1  0  0  0  0
 28 71  1  0  0  0  0
 28 72  1  0  0  0  0
 29 30  1  0  0  0  0
 29 73  1  0  0  0  0
 29 74  1  0  0  0  0
 30 31  1  0  0  0  0
 30 75  1  0  0  0  0
 31 77  1  0  0  0  0
 31 78  1  0  0  0  0
 31 79  1  0  0  0  0
M  END
> <PUBCHEM_COMPOUND_CID>
442983

> <PUBCHEM_CONFORMER_RMSD>
0.8

> <PUBCHEM_CONFORMER_DIVERSEORDER>
1

> <PUBCHEM_MMFF94_PARTIAL_CHARGES>
14
1 -0.68
16 0.28
2 -0.68
24 0.27
25 0.27
27 0.28
29 0.27
3 -0.9
4 -0.99
66 0.4
68 0.36
69 0.36
70 0.36
76 0.4

> <PUBCHEM_EFFECTIVE_ROTOR_COUNT>
5.4

> <PUBCHEM_PHARMACOPHORE_FEATURES>
14
1 1 acceptor
1 1 donor
1 2 acceptor
1 2 donor
1 26 hydrophobe
1 3 cation
1 3 donor
1 4 cation
1 4 donor
5 5 6 10 14 16 rings
6 3 25 27 28 29 30 rings
6 5 6 7 8 11 12 rings
6 7 8 9 13 15 17 rings
6 9 13 18 21 23 24 rings

> <PUBCHEM_HEAVY_ATOM_COUNT>
31

> <PUBCHEM_ATOM_DEF_STEREO_COUNT>
13

> <PUBCHEM_ATOM_UDEF_STEREO_COUNT>
0

> <PUBCHEM_BOND_DEF_STEREO_COUNT>
0

> <PUBCHEM_BOND_UDEF_STEREO_COUNT>
0

> <PUBCHEM_ISOTOPIC_ATOM_COUNT>
0

> <PUBCHEM_COMPONENT_COUNT>
1

> <PUBCHEM_CACTVS_TAUTO_COUNT>
1

> <PUBCHEM_CONFORMER_ID>
0006C26700000001

> <PUBCHEM_MMFF94_ENERGY>
97.9973

> <PUBCHEM_FEATURE_SELFOVERLAP>
71.131

> <PUBCHEM_SHAPE_FINGERPRINT>
10299344 5 16732982028802734151
106641 1 10303808800864405349
11135609 187 17132114641374861314
11135926 11 18334851732165800967
11578080 2 13541595584525649108
12011746 2 18411700980285503758
12107698 1 18113897178346001100
12166972 35 17917986148963618308
12236239 1 17095521786443299043
12516196 113 17676207957173178937
12760667 363 18040994051144341281
12788726 201 18410294752269125545
12838862 33 18335995181872906928
13533116 47 17676204655060883040
13540713 5 18050288373009757362
13782708 43 17023182768557051958
14068700 675 16370442250267419601
14840074 17 17967533471721602503
14856354 85 15936127448420465893
14931854 50 18272926159637280458
150020 25 18201722851557826461
15131766 46 16699470964264026532
15183329 4 18409171021621355983
15198563 99 18341049730382411357
15419008 47 18059859458690322989
16728433 281 17630616828267515773
16994733 274 15554451833697474701
18603816 31 16009040483378338671
18681886 176 18260551121927931632
20028762 73 17749110006533564670
2026 5 17387398255355493886
21033648 29 17703516484469967112
21150785 3 17060333016028303070
21236236 1 18260823847750610561
21267235 1 18335411366055569746
21279426 13 18412825750906370899
21792961 116 18201717379258093443
221357 26 18335421279304682640
22956985 138 15721333578421061924
23081809 10 17022896835583363259
23522609 53 17097185308349325608
23559900 14 18337392630501704312
23569914 152 17400382520815397295
23569917 315 17313100822354881895
23569943 247 17532084084822170327
23576562 1 18198914613409501565
249057 3 18335701616030618654
255183 451 17752194248704072846
3004659 81 18413109446454877120
335352 9 18335417950198411966
350125 39 18335695061725856696
3633792 109 18260548926682841000
4098825 35 16486701358820236154
4325135 7 17821446867491290357
484989 97 18339354150439567554
5104073 3 18261109725321663512
5265222 85 17130973266347780570
5385378 56 11383842592311644576
6081469 158 17989488554702621918

> <PUBCHEM_SHAPE_MULTIPOLES>
616.26
20.41
2.03
1.49
4.33
0.62
-0.1
-3.23
10.03
-1.22
-0.18
1.72
-0.2
1.28

> <PUBCHEM_SHAPE_SELFOVERLAP>
1297.038

> <PUBCHEM_SHAPE_VOLUME>
345

> <PUBCHEM_COORDINATE_TYPE>
2
5
10

$$$$

