3428
  -OEChem-06251223242D

 50 49  0     1  0  0  0  0  0999 V2000
    6.0010   -0.1550    0.0000 N   0  0  0  0  0  0  0  0  0  0  0  0
    7.7331    0.8450    0.0000 N   0  0  0  0  0  0  0  0  0  0  0  0
    4.2690   -3.1550    0.0000 N   0  0  0  0  0  0  0  0  0  0  0  0
    8.5991    4.3450    0.0000 N   0  0  0  0  0  0  0  0  0  0  0  0
    2.5369   -6.1550    0.0000 N   0  0  0  0  0  0  0  0  0  0  0  0
    9.4651    5.8450    0.0000 N   0  0  0  0  0  0  0  0  0  0  0  0
    7.7331    5.8450    0.0000 N   0  0  0  0  0  0  0  0  0  0  0  0
    6.8671    1.3450    0.0000 C   0  0  3  0  0  0  0  0  0  0  0  0
    6.8671    2.3450    0.0000 C   0  0  0  0  0  0  0  0  0  0  0  0
    6.0010    0.8450    0.0000 C   0  0  0  0  0  0  0  0  0  0  0  0
    5.1350   -0.6550    0.0000 C   0  0  0  0  0  0  0  0  0  0  0  0
    7.7331    2.8450    0.0000 C   0  0  0  0  0  0  0  0  0  0  0  0
    5.1350   -1.6550    0.0000 C   0  0  0  0  0  0  0  0  0  0  0  0
    4.2690   -2.1550    0.0000 C   0  0  0  0  0  0  0  0  0  0  0  0
    7.7331    3.8450    0.0000 C   0  0  0  0  0  0  0  0  0  0  0  0
    3.4030   -3.6550    0.0000 C   0  0  0  0  0  0  0  0  0  0  0  0
    3.4030   -4.6550    0.0000 C   0  0  0  0  0  0  0  0  0  0  0  0
    2.5369   -5.1550    0.0000 C   0  0  0  0  0  0  0  0  0  0  0  0
    8.5991    5.3450    0.0000 C   0  0  0  0  0  0  0  0  0  0  0  0
    7.4040    1.6550    0.0000 H   0  0  0  0  0  0  0  0  0  0  0  0
    6.6550    2.9276    0.0000 H   0  0  0  0  0  0  0  0  0  0  0  0
    6.2565    2.2373    0.0000 H   0  0  0  0  0  0  0  0  0  0  0  0
    5.7890    1.4276    0.0000 H   0  0  0  0  0  0  0  0  0  0  0  0
    5.3905    0.7373    0.0000 H   0  0  0  0  0  0  0  0  0  0  0  0
    4.9230   -0.0724    0.0000 H   0  0  0  0  0  0  0  0  0  0  0  0
    4.5244   -0.7627    0.0000 H   0  0  0  0  0  0  0  0  0  0  0  0
    7.9451    2.2624    0.0000 H   0  0  0  0  0  0  0  0  0  0  0  0
    8.3437    2.9527    0.0000 H   0  0  0  0  0  0  0  0  0  0  0  0
    5.3471   -2.2376    0.0000 H   0  0  0  0  0  0  0  0  0  0  0  0
    5.7456   -1.5473    0.0000 H   0  0  0  0  0  0  0  0  0  0  0  0
    6.5380   -0.4650    0.0000 H   0  0  0  0  0  0  0  0  0  0  0  0
    4.0569   -1.5724    0.0000 H   0  0  0  0  0  0  0  0  0  0  0  0
    3.6584   -2.2627    0.0000 H   0  0  0  0  0  0  0  0  0  0  0  0
    7.7331    0.2250    0.0000 H   0  0  0  0  0  0  0  0  0  0  0  0
    8.2700    1.1550    0.0000 H   0  0  0  0  0  0  0  0  0  0  0  0
    7.5210    4.4276    0.0000 H   0  0  0  0  0  0  0  0  0  0  0  0
    7.1225    3.7373    0.0000 H   0  0  0  0  0  0  0  0  0  0  0  0
    4.8059   -3.4650    0.0000 H   0  0  0  0  0  0  0  0  0  0  0  0
    3.1909   -3.0724    0.0000 H   0  0  0  0  0  0  0  0  0  0  0  0
    2.7924   -3.7627    0.0000 H   0  0  0  0  0  0  0  0  0  0  0  0
    3.6150   -5.2376    0.0000 H   0  0  0  0  0  0  0  0  0  0  0  0
    4.0135   -4.5473    0.0000 H   0  0  0  0  0  0  0  0  0  0  0  0
    2.3249   -4.5724    0.0000 H   0  0  0  0  0  0  0  0  0  0  0  0
    1.9264   -5.2627    0.0000 H   0  0  0  0  0  0  0  0  0  0  0  0
    2.0000   -6.4650    0.0000 H   0  0  0  0  0  0  0  0  0  0  0  0
    3.0739   -6.4650    0.0000 H   0  0  0  0  0  0  0  0  0  0  0  0
    7.1962    5.5350    0.0000 H   0  0  0  0  0  0  0  0  0  0  0  0
    7.7331    6.4650    0.0000 H   0  0  0  0  0  0  0  0  0  0  0  0
   10.0021    5.5350    0.0000 H   0  0  0  0  0  0  0  0  0  0  0  0
    9.4651    6.4650    0.0000 H   0  0  0  0  0  0  0  0  0  0  0  0
  1 10  1  0  0  0  0
  1 11  1  0  0  0  0
  1 31  1  0  0  0  0
  2  8  1  0  0  0  0
  2 34  1  0  0  0  0
  2 35  1  0  0  0  0
  3 14  1  0  0  0  0
  3 16  1  0  0  0  0
  3 38  1  0  0  0  0
  4 15  1  0  0  0  0
  4 19  2  0  0  0  0
  5 18  1  0  0  0  0
  5 45  1  0  0  0  0
  5 46  1  0  0  0  0
  6 19  1  0  0  0  0
  6 49  1  0  0  0  0
  6 50  1  0  0  0  0
  7 19  1  0  0  0  0
  7 47  1  0  0  0  0
  7 48  1  0  0  0  0
  8  9  1  0  0  0  0
  8 10  1  0  0  0  0
  8 20  1  0  0  0  0
  9 12  1  0  0  0  0
  9 21  1  0  0  0  0
  9 22  1  0  0  0  0
 10 23  1  0  0  0  0
 10 24  1  0  0  0  0
 11 13  1  0  0  0  0
 11 25  1  0  0  0  0
 11 26  1  0  0  0  0
 12 15  1  0  0  0  0
 12 27  1  0  0  0  0
 12 28  1  0  0  0  0
 13 14  1  0  0  0  0
 13 29  1  0  0  0  0
 13 30  1  0  0  0  0
 14 32  1  0  0  0  0
 14 33  1  0  0  0  0
 15 36  1  0  0  0  0
 15 37  1  0  0  0  0
 16 17  1  0  0  0  0
 16 39  1  0  0  0  0
 16 40  1  0  0  0  0
 17 18  1  0  0  0  0
 17 41  1  0  0  0  0
 17 42  1  0  0  0  0
 18 43  1  0  0  0  0
 18 44  1  0  0  0  0
M  END
> <PUBCHEM_COMPOUND_CID>
3428

> <PUBCHEM_COMPOUND_CANONICALIZED>
1

> <PUBCHEM_CACTVS_COMPLEXITY>
216

> <PUBCHEM_CACTVS_HBOND_ACCEPTOR>
5

> <PUBCHEM_CACTVS_HBOND_DONOR>
6

> <PUBCHEM_CACTVS_ROTATABLE_BOND>
13

> <PUBCHEM_CACTVS_SUBSKEYS>
AAADceBzgAAAAAAAAAAAAAAAAAAAAAAAAAAAAAAAAAAAAAAAAAAAHAAQAAAACCjBAAQBAALAAAAgAAAAJAAAAAEAAAAAAIAIAAAAQAIAwAAUAAAAEACAAAAQAAAAAAAAAAAAAAAAAAAAAAAAAAAAAAAAAA==

> <PUBCHEM_IUPAC_OPENEYE_NAME>
2-[4-amino-5-[3-(3-aminopropylamino)propylamino]pentyl]guanidine

> <PUBCHEM_IUPAC_CAS_NAME>
2-[4-amino-5-[3-(3-aminopropylamino)propylamino]pentyl]guanidine

> <PUBCHEM_IUPAC_NAME>
2-[4-amino-5-[3-(3-aminopropylamino)propylamino]pentyl]guanidine

> <PUBCHEM_IUPAC_SYSTEMATIC_NAME>
2-[4-azanyl-5-[3-(3-azanylpropylamino)propylamino]pentyl]guanidine

> <PUBCHEM_IUPAC_TRADITIONAL_NAME>
2-[4-amino-5-[3-(3-aminopropylamino)propylamino]pentyl]guanidine

> <PUBCHEM_IUPAC_INCHI>
InChI=1S/C12H31N7/c13-5-2-6-17-7-3-8-18-10-11(14)4-1-9-19-12(15)16/h11,17-18H,1-10,13-14H2,(H4,15,16,19)

> <PUBCHEM_IUPAC_INCHIKEY>
NEFHYROACNTRNJ-UHFFFAOYSA-N

> <PUBCHEM_XLOGP3_AA>
-2.6

> <PUBCHEM_EXACT_MASS>
273.264094

> <PUBCHEM_MOLECULAR_FORMULA>
C12H31N7

> <PUBCHEM_MOLECULAR_WEIGHT>
273.42144

> <PUBCHEM_OPENEYE_CAN_SMILES>
C(CC(CNCCCNCCCN)N)CN=C(N)N

> <PUBCHEM_OPENEYE_ISO_SMILES>
C(CC(CNCCCNCCCN)N)CN=C(N)N

> <PUBCHEM_CACTVS_TPSA>
141

> <PUBCHEM_MONOISOTOPIC_WEIGHT>
273.264094

> <PUBCHEM_TOTAL_CHARGE>
0

> <PUBCHEM_HEAVY_ATOM_COUNT>
19

> <PUBCHEM_ATOM_DEF_STEREO_COUNT>
0

> <PUBCHEM_ATOM_UDEF_STEREO_COUNT>
1

> <PUBCHEM_BOND_DEF_STEREO_COUNT>
0

> <PUBCHEM_BOND_UDEF_STEREO_COUNT>
0

> <PUBCHEM_ISOTOPIC_ATOM_COUNT>
0

> <PUBCHEM_COMPONENT_COUNT>
1

> <PUBCHEM_CACTVS_TAUTO_COUNT>
2

> <PUBCHEM_COORDINATE_TYPE>
1
5
255

> <PUBCHEM_BONDANNOTATIONS>
8  2  3

$$$$

