443847
  -OEChem-07051213033D

 42 44  0     1  0  0  0  0  0999 V2000
    3.5339   -1.4446   -0.6555 O   0  0  0  0  0  0  0  0  0  0  0  0
    0.9500   -2.2725    0.6446 O   0  0  0  0  0  0  0  0  0  0  0  0
   -1.4789   -2.6121   -0.1193 O   0  0  0  0  0  0  0  0  0  0  0  0
   -2.5345    2.5906    0.4920 O   0  0  0  0  0  0  0  0  0  0  0  0
    6.1369    1.7314   -1.2248 O   0  0  0  0  0  0  0  0  0  0  0  0
    4.8903    0.3144   -2.4899 O   0  0  0  0  0  0  0  0  0  0  0  0
   -4.9759    2.2471   -0.2820 O   0  0  0  0  0  0  0  0  0  0  0  0
    4.0011   -0.5498    0.3578 C   0  0  2  0  0  0  0  0  0  0  0  0
    2.9836   -0.5618    1.5389 C   0  0  0  0  0  0  0  0  0  0  0  0
    1.6064   -0.0755    1.2246 C   0  0  0  0  0  0  0  0  0  0  0  0
    4.1355    0.8557   -0.2560 C   0  0  0  0  0  0  0  0  0  0  0  0
    5.3557   -1.0774    0.8548 C   0  0  0  0  0  0  0  0  0  0  0  0
   -0.6653   -0.4780    0.4923 C   0  0  0  0  0  0  0  0  0  0  0  0
    0.6186   -0.9556    0.7812 C   0  0  0  0  0  0  0  0  0  0  0  0
   -0.9552    0.8791    0.6484 C   0  0  0  0  0  0  0  0  0  0  0  0
    1.3172    1.2786    1.3805 C   0  0  0  0  0  0  0  0  0  0  0  0
    0.0390    1.7587    1.0939 C   0  0  0  0  0  0  0  0  0  0  0  0
   -1.7046   -1.4170    0.0233 C   0  0  0  0  0  0  0  0  0  0  0  0
   -3.0549   -0.8997   -0.2788 C   0  0  0  0  0  0  0  0  0  0  0  0
   -3.3447    0.4575   -0.1230 C   0  0  0  0  0  0  0  0  0  0  0  0
   -2.3052    1.3966    0.3459 C   0  0  0  0  0  0  0  0  0  0  0  0
    5.0711    0.9219   -1.4427 C   0  0  0  0  0  0  0  0  0  0  0  0
   -4.6285    0.9351   -0.4126 C   0  0  0  0  0  0  0  0  0  0  0  0
   -4.0489   -1.7792   -0.7245 C   0  0  0  0  0  0  0  0  0  0  0  0
   -5.6160    0.0552   -0.8566 C   0  0  0  0  0  0  0  0  0  0  0  0
   -5.3267   -1.2989   -1.0125 C   0  0  0  0  0  0  0  0  0  0  0  0
    3.3897    0.0407    2.3639 H   0  0  0  0  0  0  0  0  0  0  0  0
    2.9182   -1.5796    1.9470 H   0  0  0  0  0  0  0  0  0  0  0  0
    3.1770    1.2160   -0.6468 H   0  0  0  0  0  0  0  0  0  0  0  0
    4.4664    1.5741    0.5037 H   0  0  0  0  0  0  0  0  0  0  0  0
    5.7828   -0.4237    1.6221 H   0  0  0  0  0  0  0  0  0  0  0  0
    5.2470   -2.0832    1.2771 H   0  0  0  0  0  0  0  0  0  0  0  0
    6.0771   -1.1697    0.0356 H   0  0  0  0  0  0  0  0  0  0  0  0
    2.0757    1.9749    1.7291 H   0  0  0  0  0  0  0  0  0  0  0  0
   -0.1599    2.8190    1.2247 H   0  0  0  0  0  0  0  0  0  0  0  0
    4.2223   -1.5256   -1.3368 H   0  0  0  0  0  0  0  0  0  0  0  0
   -3.8506   -2.8396   -0.8546 H   0  0  0  0  0  0  0  0  0  0  0  0
    0.1975   -2.7897    0.3221 H   0  0  0  0  0  0  0  0  0  0  0  0
   -6.6148    0.4186   -1.0837 H   0  0  0  0  0  0  0  0  0  0  0  0
   -6.0974   -1.9818   -1.3584 H   0  0  0  0  0  0  0  0  0  0  0  0
    6.7354    1.7657   -2.0012 H   0  0  0  0  0  0  0  0  0  0  0  0
   -4.2239    2.7723    0.0300 H   0  0  0  0  0  0  0  0  0  0  0  0
  1  8  1  0  0  0  0
  1 36  1  0  0  0  0
  2 14  1  0  0  0  0
  2 38  1  0  0  0  0
  3 18  2  0  0  0  0
  4 21  2  0  0  0  0
  5 22  1  0  0  0  0
  5 41  1  0  0  0  0
  6 22  2  0  0  0  0
  7 23  1  0  0  0  0
  7 42  1  0  0  0  0
  8  9  1  0  0  0  0
  8 11  1  0  0  0  0
  8 12  1  0  0  0  0
  9 10  1  0  0  0  0
  9 27  1  0  0  0  0
  9 28  1  0  0  0  0
 10 14  2  0  0  0  0
 10 16  1  0  0  0  0
 11 22  1  0  0  0  0
 11 29  1  0  0  0  0
 11 30  1  0  0  0  0
 12 31  1  0  0  0  0
 12 32  1  0  0  0  0
 12 33  1  0  0  0  0
 13 14  1  0  0  0  0
 13 15  2  0  0  0  0
 13 18  1  0  0  0  0
 15 17  1  0  0  0  0
 15 21  1  0  0  0  0
 16 17  2  0  0  0  0
 16 34  1  0  0  0  0
 17 35  1  0  0  0  0
 18 19  1  0  0  0  0
 19 20  2  0  0  0  0
 19 24  1  0  0  0  0
 20 21  1  0  0  0  0
 20 23  1  0  0  0  0
 23 25  2  0  0  0  0
 24 26  2  0  0  0  0
 24 37  1  0  0  0  0
 25 26  1  0  0  0  0
 25 39  1  0  0  0  0
 26 40  1  0  0  0  0
M  END
> <PUBCHEM_COMPOUND_CID>
443847

> <PUBCHEM_CONFORMER_RMSD>
0.8

> <PUBCHEM_CONFORMER_DIVERSEORDER>
3
1
17
10
14
7
9
20
13
18
15
6
19
16
8
5
11
4
2
12

> <PUBCHEM_MMFF94_PARTIAL_CHARGES>
34
1 -0.68
10 -0.14
11 0.06
13 0.09
14 0.08
15 0.09
16 -0.15
17 -0.15
18 0.4
19 0.09
2 -0.53
20 0.09
21 0.4
22 0.66
23 0.08
24 -0.15
25 -0.15
26 -0.15
3 -0.57
34 0.15
35 0.15
36 0.4
37 0.15
38 0.45
39 0.15
4 -0.57
40 0.15
41 0.5
42 0.45
5 -0.65
6 -0.57
7 -0.53
8 0.28
9 0.14

> <PUBCHEM_EFFECTIVE_ROTOR_COUNT>
4

> <PUBCHEM_PHARMACOPHORE_FEATURES>
12
1 1 acceptor
1 1 donor
1 2 donor
1 3 acceptor
1 4 acceptor
1 5 acceptor
1 6 acceptor
1 7 donor
3 5 6 22 anion
6 10 13 14 15 16 17 rings
6 13 15 18 19 20 21 rings
6 19 20 23 24 25 26 rings

> <PUBCHEM_HEAVY_ATOM_COUNT>
26

> <PUBCHEM_ATOM_DEF_STEREO_COUNT>
1

> <PUBCHEM_ATOM_UDEF_STEREO_COUNT>
0

> <PUBCHEM_BOND_DEF_STEREO_COUNT>
0

> <PUBCHEM_BOND_UDEF_STEREO_COUNT>
0

> <PUBCHEM_ISOTOPIC_ATOM_COUNT>
0

> <PUBCHEM_COMPONENT_COUNT>
1

> <PUBCHEM_CACTVS_TAUTO_COUNT>
25

> <PUBCHEM_CONFORMER_ID>
0006C5C700000003

> <PUBCHEM_MMFF94_ENERGY>
79.346

> <PUBCHEM_FEATURE_SELFOVERLAP>
60.996

> <PUBCHEM_SHAPE_FINGERPRINT>
10759866 29 18201164342115669259
10906281 52 18336824312482292731
11112241 14 15554157056758376189
11128504 68 18131634482433840148
11796584 16 14851897953948781663
12236239 1 18130793381887607754
12390115 104 17750791241960164089
12616971 3 17989209286806195240
12670546 177 18410573994037005884
12788726 201 18261106396184159336
12954195 1 17895184554136152241
12969540 114 15410901755690167779
13690498 29 18118966888970443591
14251757 5 18335979762033238799
14528608 73 18272933812699172932
14790565 3 17972872850711086817
14840074 17 17632290190232207109
15183329 4 18407759231184537349
15196674 1 18334872592895141953
15475509 8 17604413198239071393
15575132 122 17917998316943552277
16752209 62 18335711549931154931
1813 80 4822945650672006328
19319366 153 18131362911599863834
20511986 3 18200605717885131860
20645477 70 16298390137151105570
20871999 31 18334008389260861976
21033648 144 17060339613182829558
21033650 10 18191000478657173464
21267235 1 18335147462734611259
21637258 2 14562803383380446038
2215653 11 17458067071021225253
22849339 104 18263355906706936039
22907989 373 18127712589241399573
23175994 123 16515691013852444065
23366157 5 17982452903865900571
23522609 53 18264749074149910473
23559900 14 18114473244707720688
2838139 119 17132115723786105060
3004659 81 18340210786573645306
3298306 158 17822294616758407902
335352 9 18262250975832005013
34797466 226 17676487194667353656
350125 39 18409733954954207361
4409770 3 15391207694493611402
465052 167 7204494446136003266
474 4 17132109101088621036
543368 44 17988923323488654493
6034566 193 16484976092100867262
6608658 132 18201710795221636852
7237137 82 18410578383641489909
9709674 26 18118138974057471331

> <PUBCHEM_SHAPE_MULTIPOLES>
493.98
13.35
2.31
1.43
4.7
0.09
-0.48
1.28
-6.98
-1.44
0.12
2.18
0.22
-1.41

> <PUBCHEM_SHAPE_SELFOVERLAP>
1093.682

> <PUBCHEM_SHAPE_VOLUME>
262.5

> <PUBCHEM_COORDINATE_TYPE>
2
5
10

$$$$

