7700
  -OEChem-06261202152D

 47 47  0     0  0  0  0  0  0999 V2000
    3.7320   -3.6900    0.0000 O   0  0  0  0  0  0  0  0  0  0  0  0
    2.0000   -5.6900    0.0000 O   0  0  0  0  0  0  0  0  0  0  0  0
    5.4641    2.3100    0.0000 C   0  0  0  0  0  0  0  0  0  0  0  0
    5.4641    3.3100    0.0000 C   0  0  0  0  0  0  0  0  0  0  0  0
    4.5981    1.8100    0.0000 C   0  0  0  0  0  0  0  0  0  0  0  0
    6.3301    3.8100    0.0000 C   0  0  0  0  0  0  0  0  0  0  0  0
    4.5981    0.8100    0.0000 C   0  0  0  0  0  0  0  0  0  0  0  0
    6.3301    4.8100    0.0000 C   0  0  0  0  0  0  0  0  0  0  0  0
    3.7320    0.3100    0.0000 C   0  0  0  0  0  0  0  0  0  0  0  0
    7.1962    5.3100    0.0000 C   0  0  0  0  0  0  0  0  0  0  0  0
    3.7320   -0.6900    0.0000 C   0  0  0  0  0  0  0  0  0  0  0  0
    7.1962    6.3100    0.0000 C   0  0  0  0  0  0  0  0  0  0  0  0
    2.8660   -1.1900    0.0000 C   0  0  0  0  0  0  0  0  0  0  0  0
    4.5981   -1.1900    0.0000 C   0  0  0  0  0  0  0  0  0  0  0  0
    2.8660   -2.1900    0.0000 C   0  0  0  0  0  0  0  0  0  0  0  0
    4.5981   -2.1900    0.0000 C   0  0  0  0  0  0  0  0  0  0  0  0
    3.7320   -2.6900    0.0000 C   0  0  0  0  0  0  0  0  0  0  0  0
    2.8660   -4.1900    0.0000 C   0  0  0  0  0  0  0  0  0  0  0  0
    2.8660   -5.1900    0.0000 C   0  0  0  0  0  0  0  0  0  0  0  0
    5.6762    1.7274    0.0000 H   0  0  0  0  0  0  0  0  0  0  0  0
    6.0747    2.4177    0.0000 H   0  0  0  0  0  0  0  0  0  0  0  0
    5.2520    3.8926    0.0000 H   0  0  0  0  0  0  0  0  0  0  0  0
    4.8535    3.2023    0.0000 H   0  0  0  0  0  0  0  0  0  0  0  0
    4.3860    2.3926    0.0000 H   0  0  0  0  0  0  0  0  0  0  0  0
    3.9875    1.7023    0.0000 H   0  0  0  0  0  0  0  0  0  0  0  0
    6.5422    3.2274    0.0000 H   0  0  0  0  0  0  0  0  0  0  0  0
    6.9407    3.9177    0.0000 H   0  0  0  0  0  0  0  0  0  0  0  0
    4.8101    0.2274    0.0000 H   0  0  0  0  0  0  0  0  0  0  0  0
    5.2087    0.9177    0.0000 H   0  0  0  0  0  0  0  0  0  0  0  0
    6.1181    5.3926    0.0000 H   0  0  0  0  0  0  0  0  0  0  0  0
    5.7196    4.7023    0.0000 H   0  0  0  0  0  0  0  0  0  0  0  0
    3.5200    0.8926    0.0000 H   0  0  0  0  0  0  0  0  0  0  0  0
    3.1215    0.2023    0.0000 H   0  0  0  0  0  0  0  0  0  0  0  0
    7.4082    4.7274    0.0000 H   0  0  0  0  0  0  0  0  0  0  0  0
    7.8067    5.4177    0.0000 H   0  0  0  0  0  0  0  0  0  0  0  0
    7.8162    6.3100    0.0000 H   0  0  0  0  0  0  0  0  0  0  0  0
    7.1962    6.9300    0.0000 H   0  0  0  0  0  0  0  0  0  0  0  0
    6.5762    6.3100    0.0000 H   0  0  0  0  0  0  0  0  0  0  0  0
    2.3291   -0.8800    0.0000 H   0  0  0  0  0  0  0  0  0  0  0  0
    5.1350   -0.8800    0.0000 H   0  0  0  0  0  0  0  0  0  0  0  0
    2.3291   -2.5000    0.0000 H   0  0  0  0  0  0  0  0  0  0  0  0
    5.1350   -2.5000    0.0000 H   0  0  0  0  0  0  0  0  0  0  0  0
    2.6540   -3.6074    0.0000 H   0  0  0  0  0  0  0  0  0  0  0  0
    2.2554   -4.2977    0.0000 H   0  0  0  0  0  0  0  0  0  0  0  0
    3.0781   -5.7726    0.0000 H   0  0  0  0  0  0  0  0  0  0  0  0
    3.4766   -5.0823    0.0000 H   0  0  0  0  0  0  0  0  0  0  0  0
    2.0000   -6.3100    0.0000 H   0  0  0  0  0  0  0  0  0  0  0  0
  1 17  1  0  0  0  0
  1 18  1  0  0  0  0
  2 19  1  0  0  0  0
  2 47  1  0  0  0  0
  3  4  1  0  0  0  0
  3  5  1  0  0  0  0
  3 20  1  0  0  0  0
  3 21  1  0  0  0  0
  4  6  1  0  0  0  0
  4 22  1  0  0  0  0
  4 23  1  0  0  0  0
  5  7  1  0  0  0  0
  5 24  1  0  0  0  0
  5 25  1  0  0  0  0
  6  8  1  0  0  0  0
  6 26  1  0  0  0  0
  6 27  1  0  0  0  0
  7  9  1  0  0  0  0
  7 28  1  0  0  0  0
  7 29  1  0  0  0  0
  8 10  1  0  0  0  0
  8 30  1  0  0  0  0
  8 31  1  0  0  0  0
  9 11  1  0  0  0  0
  9 32  1  0  0  0  0
  9 33  1  0  0  0  0
 10 12  1  0  0  0  0
 10 34  1  0  0  0  0
 10 35  1  0  0  0  0
 11 13  2  0  0  0  0
 11 14  1  0  0  0  0
 12 36  1  0  0  0  0
 12 37  1  0  0  0  0
 12 38  1  0  0  0  0
 13 15  1  0  0  0  0
 13 39  1  0  0  0  0
 14 16  2  0  0  0  0
 14 40  1  0  0  0  0
 15 17  2  0  0  0  0
 15 41  1  0  0  0  0
 16 17  1  0  0  0  0
 16 42  1  0  0  0  0
 18 19  1  0  0  0  0
 18 43  1  0  0  0  0
 18 44  1  0  0  0  0
 19 45  1  0  0  0  0
 19 46  1  0  0  0  0
M  END
> <PUBCHEM_COMPOUND_CID>
7700

> <PUBCHEM_COMPOUND_CANONICALIZED>
1

> <PUBCHEM_CACTVS_COMPLEXITY>
186

> <PUBCHEM_CACTVS_HBOND_ACCEPTOR>
2

> <PUBCHEM_CACTVS_HBOND_DONOR>
1

> <PUBCHEM_CACTVS_ROTATABLE_BOND>
11

> <PUBCHEM_CACTVS_SUBSKEYS>
AAADceB4MAAAAAAAAAAAAAAAAAAAAAAAAAAwAAAAAAAAAAABAAAAGgAACAAADASgmAIyBoAABgCAAiBCAAACCAAgIAAIiAAGCIgNNiKEMRqCOCCkwBELqAeAwOAOIAAAAAAAAABAAAAAAAAAAAAAAAAAAA==

> <PUBCHEM_IUPAC_OPENEYE_NAME>
2-(4-nonylphenoxy)ethanol

> <PUBCHEM_IUPAC_CAS_NAME>
2-(4-nonylphenoxy)ethanol

> <PUBCHEM_IUPAC_NAME>
2-(4-nonylphenoxy)ethanol

> <PUBCHEM_IUPAC_SYSTEMATIC_NAME>
2-(4-nonylphenoxy)ethanol

> <PUBCHEM_IUPAC_TRADITIONAL_NAME>
2-(4-nonylphenoxy)ethanol

> <PUBCHEM_IUPAC_INCHI>
InChI=1S/C17H28O2/c1-2-3-4-5-6-7-8-9-16-10-12-17(13-11-16)19-15-14-18/h10-13,18H,2-9,14-15H2,1H3

> <PUBCHEM_IUPAC_INCHIKEY>
KUXGUCNZFCVULO-UHFFFAOYSA-N

> <PUBCHEM_XLOGP3>
5.5

> <PUBCHEM_EXACT_MASS>
264.20893

> <PUBCHEM_MOLECULAR_FORMULA>
C17H28O2

> <PUBCHEM_MOLECULAR_WEIGHT>
264.40302

> <PUBCHEM_OPENEYE_CAN_SMILES>
CCCCCCCCCC1=CC=C(C=C1)OCCO

> <PUBCHEM_OPENEYE_ISO_SMILES>
CCCCCCCCCC1=CC=C(C=C1)OCCO

> <PUBCHEM_CACTVS_TPSA>
29.5

> <PUBCHEM_MONOISOTOPIC_WEIGHT>
264.20893

> <PUBCHEM_TOTAL_CHARGE>
0

> <PUBCHEM_HEAVY_ATOM_COUNT>
19

> <PUBCHEM_ATOM_DEF_STEREO_COUNT>
0

> <PUBCHEM_ATOM_UDEF_STEREO_COUNT>
0

> <PUBCHEM_BOND_DEF_STEREO_COUNT>
0

> <PUBCHEM_BOND_UDEF_STEREO_COUNT>
0

> <PUBCHEM_ISOTOPIC_ATOM_COUNT>
0

> <PUBCHEM_COMPONENT_COUNT>
1

> <PUBCHEM_CACTVS_TAUTO_COUNT>
1

> <PUBCHEM_COORDINATE_TYPE>
1
5
255

> <PUBCHEM_BONDANNOTATIONS>
11  13  8
11  14  8
13  15  8
14  16  8
15  17  8
16  17  8

$$$$

