16203171
  -OEChem-07051213112D

 67 72  0     1  0  0  0  0  0999 V2000
    6.2036   -2.5113    0.0000 O   0  0  0  0  0  0  0  0  0  0  0  0
    7.9998    0.3350    0.0000 O   0  0  0  0  0  0  0  0  0  0  0  0
   10.6679    0.8386    0.0000 O   0  0  0  0  0  0  0  0  0  0  0  0
    9.7479   -2.7065    0.0000 O   0  0  0  0  0  0  0  0  0  0  0  0
    2.6200   -1.7065    0.0000 O   0  0  0  0  0  0  0  0  0  0  0  0
    5.6200   -3.4386    0.0000 O   0  0  0  0  0  0  0  0  0  0  0  0
    6.9180    2.4878    0.0000 O   0  0  0  0  0  0  0  0  0  0  0  0
    4.9610    2.9003    0.0000 O   0  0  0  0  0  0  0  0  0  0  0  0
   10.6183    3.8694    0.0000 O   0  0  0  0  0  0  0  0  0  0  0  0
    2.6200   -5.1706    0.0000 O   0  0  0  0  0  0  0  0  0  0  0  0
    8.8824    4.8627    0.0000 O   0  0  0  0  0  0  0  0  0  0  0  0
    6.2036   -0.9018    0.0000 C   0  0  1  0  0  0  0  0  0  0  0  0
    5.6200   -1.7065    0.0000 C   0  0  2  0  0  0  0  0  0  0  0  0
    7.1498   -1.2065    0.0000 C   0  0  0  0  0  0  0  0  0  0  0  0
    8.0158   -0.7065    0.0000 C   0  0  0  0  0  0  0  0  0  0  0  0
    7.1498   -2.2065    0.0000 C   0  0  0  0  0  0  0  0  0  0  0  0
    8.8819   -1.2065    0.0000 C   0  0  0  0  0  0  0  0  0  0  0  0
    4.6200   -1.7065    0.0000 C   0  0  0  0  0  0  0  0  0  0  0  0
    9.7919   -0.6997    0.0000 C   0  0  0  0  0  0  0  0  0  0  0  0
    9.7999    0.3419    0.0000 C   0  0  1  0  0  0  0  0  0  0  0  0
    8.8978    0.8627    0.0000 C   0  0  2  0  0  0  0  0  0  0  0  0
    5.8930    0.0487    0.0000 C   0  0  0  0  0  0  0  0  0  0  0  0
    8.0158   -2.7065    0.0000 C   0  0  0  0  0  0  0  0  0  0  0  0
    8.8819   -2.2065    0.0000 C   0  0  0  0  0  0  0  0  0  0  0  0
    4.1200   -2.5726    0.0000 C   0  0  0  0  0  0  0  0  0  0  0  0
    8.8940    1.8627    0.0000 C   0  0  0  0  0  0  0  0  0  0  0  0
    6.5608    0.7930    0.0000 C   0  0  0  0  0  0  0  0  0  0  0  0
    4.9144    0.2549    0.0000 C   0  0  0  0  0  0  0  0  0  0  0  0
    3.1200   -2.5726    0.0000 C   0  0  0  0  0  0  0  0  0  0  0  0
    4.6200   -3.4386    0.0000 C   0  0  0  0  0  0  0  0  0  0  0  0
    6.2501    1.7436    0.0000 C   0  0  0  0  0  0  0  0  0  0  0  0
    4.6038    1.2055    0.0000 C   0  0  0  0  0  0  0  0  0  0  0  0
    9.7581    2.3661    0.0000 C   0  0  0  0  0  0  0  0  0  0  0  0
    8.0260    2.3594    0.0000 C   0  0  0  0  0  0  0  0  0  0  0  0
    5.2716    1.9498    0.0000 C   0  0  0  0  0  0  0  0  0  0  0  0
    2.6200   -3.4386    0.0000 C   0  0  0  0  0  0  0  0  0  0  0  0
    4.1200   -4.3046    0.0000 C   0  0  0  0  0  0  0  0  0  0  0  0
    9.7542    3.3660    0.0000 C   0  0  0  0  0  0  0  0  0  0  0  0
    8.0222    3.3594    0.0000 C   0  0  0  0  0  0  0  0  0  0  0  0
    3.1200   -4.3046    0.0000 C   0  0  0  0  0  0  0  0  0  0  0  0
    8.8863    3.8627    0.0000 C   0  0  0  0  0  0  0  0  0  0  0  0
    5.5911   -0.8056    0.0000 H   0  0  0  0  0  0  0  0  0  0  0  0
    5.3383   -2.2588    0.0000 H   0  0  0  0  0  0  0  0  0  0  0  0
    4.7277   -1.0960    0.0000 H   0  0  0  0  0  0  0  0  0  0  0  0
    4.0374   -1.4945    0.0000 H   0  0  0  0  0  0  0  0  0  0  0  0
    9.9964   -1.2850    0.0000 H   0  0  0  0  0  0  0  0  0  0  0  0
   10.4035   -0.5983    0.0000 H   0  0  0  0  0  0  0  0  0  0  0  0
    9.8011    0.9619    0.0000 H   0  0  0  0  0  0  0  0  0  0  0  0
    9.4342    1.1738    0.0000 H   0  0  0  0  0  0  0  0  0  0  0  0
    8.0158   -3.3265    0.0000 H   0  0  0  0  0  0  0  0  0  0  0  0
    7.1675    0.6652    0.0000 H   0  0  0  0  0  0  0  0  0  0  0  0
    4.5004   -0.2065    0.0000 H   0  0  0  0  0  0  0  0  0  0  0  0
   11.2036    0.5265    0.0000 H   0  0  0  0  0  0  0  0  0  0  0  0
    3.9971    1.3333    0.0000 H   0  0  0  0  0  0  0  0  0  0  0  0
   10.2962    2.0581    0.0000 H   0  0  0  0  0  0  0  0  0  0  0  0
    7.4903    2.0473    0.0000 H   0  0  0  0  0  0  0  0  0  0  0  0
    9.7479   -3.3265    0.0000 H   0  0  0  0  0  0  0  0  0  0  0  0
    2.0000   -3.4386    0.0000 H   0  0  0  0  0  0  0  0  0  0  0  0
    4.4300   -4.8415    0.0000 H   0  0  0  0  0  0  0  0  0  0  0  0
    7.4840    3.6673    0.0000 H   0  0  0  0  0  0  0  0  0  0  0  0
    2.0000   -1.7065    0.0000 H   0  0  0  0  0  0  0  0  0  0  0  0
    5.9300   -3.9755    0.0000 H   0  0  0  0  0  0  0  0  0  0  0  0
    6.7254    3.0772    0.0000 H   0  0  0  0  0  0  0  0  0  0  0  0
    4.3543    3.0281    0.0000 H   0  0  0  0  0  0  0  0  0  0  0  0
   10.6159    4.4894    0.0000 H   0  0  0  0  0  0  0  0  0  0  0  0
    2.0000   -5.1706    0.0000 H   0  0  0  0  0  0  0  0  0  0  0  0
    8.3443    5.1706    0.0000 H   0  0  0  0  0  0  0  0  0  0  0  0
  1 13  1  0  0  0  0
  1 16  1  0  0  0  0
  2 15  1  0  0  0  0
  2 21  1  0  0  0  0
 20  3  1  1  0  0  0
  3 53  1  0  0  0  0
  4 24  1  0  0  0  0
  4 57  1  0  0  0  0
  5 29  1  0  0  0  0
  5 61  1  0  0  0  0
  6 30  1  0  0  0  0
  6 62  1  0  0  0  0
  7 31  1  0  0  0  0
  7 63  1  0  0  0  0
  8 35  1  0  0  0  0
  8 64  1  0  0  0  0
  9 38  1  0  0  0  0
  9 65  1  0  0  0  0
 10 40  1  0  0  0  0
 10 66  1  0  0  0  0
 11 41  1  0  0  0  0
 11 67  1  0  0  0  0
 12 13  1  0  0  0  0
 12 14  1  0  0  0  0
 12 22  1  6  0  0  0
 12 42  1  0  0  0  0
 13 18  1  1  0  0  0
 13 43  1  0  0  0  0
 14 15  1  0  0  0  0
 14 16  2  0  0  0  0
 15 17  2  0  0  0  0
 16 23  1  0  0  0  0
 17 19  1  0  0  0  0
 17 24  1  0  0  0  0
 18 25  1  0  0  0  0
 18 44  1  0  0  0  0
 18 45  1  0  0  0  0
 19 20  1  0  0  0  0
 19 46  1  0  0  0  0
 19 47  1  0  0  0  0
 20 21  1  0  0  0  0
 20 48  1  0  0  0  0
 21 26  1  1  0  0  0
 21 49  1  0  0  0  0
 22 27  2  0  0  0  0
 22 28  1  0  0  0  0
 23 24  2  0  0  0  0
 23 50  1  0  0  0  0
 25 29  2  0  0  0  0
 25 30  1  0  0  0  0
 26 33  2  0  0  0  0
 26 34  1  0  0  0  0
 27 31  1  0  0  0  0
 27 51  1  0  0  0  0
 28 32  2  0  0  0  0
 28 52  1  0  0  0  0
 29 36  1  0  0  0  0
 30 37  2  0  0  0  0
 31 35  2  0  0  0  0
 32 35  1  0  0  0  0
 32 54  1  0  0  0  0
 33 38  1  0  0  0  0
 33 55  1  0  0  0  0
 34 39  2  0  0  0  0
 34 56  1  0  0  0  0
 36 40  2  0  0  0  0
 36 58  1  0  0  0  0
 37 40  1  0  0  0  0
 37 59  1  0  0  0  0
 38 41  2  0  0  0  0
 39 41  1  0  0  0  0
 39 60  1  0  0  0  0
M  END
> <PUBCHEM_COMPOUND_CID>
16203171

> <PUBCHEM_COMPOUND_CANONICALIZED>
1

> <PUBCHEM_CACTVS_COMPLEXITY>
881

> <PUBCHEM_CACTVS_HBOND_ACCEPTOR>
11

> <PUBCHEM_CACTVS_HBOND_DONOR>
9

> <PUBCHEM_CACTVS_ROTATABLE_BOND>
4

> <PUBCHEM_CACTVS_SUBSKEYS>
AAADceB4PAAAAAAAAAAAAAAAAAAAASAAAAA0YMGCAAAAAEiRVAAAGgAACAAADRSgmAIwBoAABgCAAiBCAAACCAAgIAAIiAAGiIgNNyKGMRqCeCGlwBULuAfA4PwOoAADCAAIQABAAAYQABCAAAAAAAAAAA==

> <PUBCHEM_IUPAC_OPENEYE_NAME>
2-[[(2S,3S,8S,9R)-2,9-bis(3,4-dihydroxyphenyl)-3,5-dihydroxy-3,4,8,9-tetrahydro-2H-furo[2,3-h]chromen-8-yl]methyl]benzene-1,3,5-triol

> <PUBCHEM_IUPAC_CAS_NAME>
2-[[(2S,3S,8S,9R)-2,9-bis(3,4-dihydroxyphenyl)-3,5-dihydroxy-3,4,8,9-tetrahydro-2H-furo[2,3-h][1]benzopyran-8-yl]methyl]benzene-1,3,5-triol

> <PUBCHEM_IUPAC_NAME>
2-[[(2S,3S,8S,9R)-2,9-bis(3,4-dihydroxyphenyl)-3,5-dihydroxy-3,4,8,9-tetrahydro-2H-furo[2,3-h]chromen-8-yl]methyl]benzene-1,3,5-triol

> <PUBCHEM_IUPAC_SYSTEMATIC_NAME>
2-[[(2S,3S,8S,9R)-2,9-bis[3,4-bis(oxidanyl)phenyl]-3,5-bis(oxidanyl)-3,4,8,9-tetrahydro-2H-furo[2,3-h]chromen-8-yl]methyl]benzene-1,3,5-triol

> <PUBCHEM_IUPAC_TRADITIONAL_NAME>
2-[[(2S,3S,8S,9R)-2,9-bis(3,4-dihydroxyphenyl)-3,5-dihydroxy-3,4,8,9-tetrahydro-2H-furo[2,3-h]chromen-8-yl]methyl]phloroglucinol

> <PUBCHEM_IUPAC_INCHI>
InChI=1S/C30H26O11/c31-14-7-19(34)15(20(35)8-14)10-25-27(12-1-3-17(32)22(37)5-12)28-26(40-25)11-21(36)16-9-24(39)29(41-30(16)28)13-2-4-18(33)23(38)6-13/h1-8,11,24-25,27,29,31-39H,9-10H2/t24-,25-,27-,29-/m0/s1

> <PUBCHEM_IUPAC_INCHIKEY>
HLOYODWMNGTCGH-JVGXHWGJSA-N

> <PUBCHEM_XLOGP3_AA>
3.5

> <PUBCHEM_EXACT_MASS>
562.147512

> <PUBCHEM_MOLECULAR_FORMULA>
C30H26O11

> <PUBCHEM_MOLECULAR_WEIGHT>
562.52084

> <PUBCHEM_OPENEYE_CAN_SMILES>
C1C(C(OC2=C3C(C(OC3=CC(=C21)O)CC4=C(C=C(C=C4O)O)O)C5=CC(=C(C=C5)O)O)C6=CC(=C(C=C6)O)O)O

> <PUBCHEM_OPENEYE_ISO_SMILES>
C1[C@@H]([C@@H](OC2=C3[C@H]([C@@H](OC3=CC(=C21)O)CC4=C(C=C(C=C4O)O)O)C5=CC(=C(C=C5)O)O)C6=CC(=C(C=C6)O)O)O

> <PUBCHEM_CACTVS_TPSA>
201

> <PUBCHEM_MONOISOTOPIC_WEIGHT>
562.147512

> <PUBCHEM_TOTAL_CHARGE>
0

> <PUBCHEM_HEAVY_ATOM_COUNT>
41

> <PUBCHEM_ATOM_DEF_STEREO_COUNT>
4

> <PUBCHEM_ATOM_UDEF_STEREO_COUNT>
0

> <PUBCHEM_BOND_DEF_STEREO_COUNT>
0

> <PUBCHEM_BOND_UDEF_STEREO_COUNT>
0

> <PUBCHEM_ISOTOPIC_ATOM_COUNT>
0

> <PUBCHEM_COMPONENT_COUNT>
1

> <PUBCHEM_CACTVS_TAUTO_COUNT>
994

> <PUBCHEM_COORDINATE_TYPE>
1
5
255

> <PUBCHEM_BONDANNOTATIONS>
12  22  6
13  18  5
14  15  8
14  16  8
15  17  8
16  23  8
17  24  8
21  26  5
22  27  8
22  28  8
23  24  8
25  29  8
25  30  8
26  33  8
26  34  8
27  31  8
28  32  8
29  36  8
20  3  5
30  37  8
31  35  8
32  35  8
33  38  8
34  39  8
36  40  8
37  40  8
38  41  8
39  41  8

$$$$

