46173920
  -OEChem-07051213102D

 36 38  0     1  0  0  0  0  0999 V2000
    4.9994   -1.1048    0.0000 O   0  0  0  0  0  0  0  0  0  0  0  0
    5.7812   -0.8605    0.0000 O   0  0  0  0  0  0  0  0  0  0  0  0
    5.1482    2.3480    0.0000 O   0  0  0  0  0  0  0  0  0  0  0  0
    4.0984   -0.6709    0.0000 C   0  0  2  0  0  0  0  0  0  0  0  0
    3.1974   -0.2370    0.0000 C   0  0  1  0  0  0  0  0  0  0  0  0
    3.9624   -1.6556    0.0000 C   0  0  2  0  0  0  0  0  0  0  0  0
    2.5124   -0.9573    0.0000 C   0  0  0  0  0  0  0  0  0  0  0  0
    2.9842   -1.8323    0.0000 C   0  0  0  0  0  0  0  0  0  0  0  0
    2.9749    0.7379    0.0000 C   0  0  0  0  0  0  0  0  0  0  0  0
    4.9994   -0.2370    0.0000 C   0  0  0  0  0  0  0  0  0  0  0  0
    4.6840   -2.3480    0.0000 C   0  0  0  0  0  0  0  0  0  0  0  0
    3.5984    1.5197    0.0000 C   0  0  0  0  0  0  0  0  0  0  0  0
    5.2219    0.7379    0.0000 C   0  0  0  0  0  0  0  0  0  0  0  0
    4.5984    1.5197    0.0000 C   0  0  0  0  0  0  0  0  0  0  0  0
    2.0000    0.9604    0.0000 C   0  0  0  0  0  0  0  0  0  0  0  0
    6.1517    1.0896    0.0000 C   0  0  0  0  0  0  0  0  0  0  0  0
    6.1062    2.0827    0.0000 C   0  0  0  0  0  0  0  0  0  0  0  0
    6.9872    0.5402    0.0000 C   0  0  0  0  0  0  0  0  0  0  0  0
    2.3778   -0.0120    0.0000 H   0  0  0  0  0  0  0  0  0  0  0  0
    3.7833   -2.2492    0.0000 H   0  0  0  0  0  0  0  0  0  0  0  0
    2.1105   -0.4852    0.0000 H   0  0  0  0  0  0  0  0  0  0  0  0
    2.0006   -1.3073    0.0000 H   0  0  0  0  0  0  0  0  0  0  0  0
    2.4105   -2.0676    0.0000 H   0  0  0  0  0  0  0  0  0  0  0  0
    3.1579   -2.4275    0.0000 H   0  0  0  0  0  0  0  0  0  0  0  0
    4.2548   -2.7953    0.0000 H   0  0  0  0  0  0  0  0  0  0  0  0
    5.1314   -2.7772    0.0000 H   0  0  0  0  0  0  0  0  0  0  0  0
    5.1132   -1.9006    0.0000 H   0  0  0  0  0  0  0  0  0  0  0  0
    3.7364    2.1242    0.0000 H   0  0  0  0  0  0  0  0  0  0  0  0
    3.0398    1.7888    0.0000 H   0  0  0  0  0  0  0  0  0  0  0  0
    5.0457   -1.7230    0.0000 H   0  0  0  0  0  0  0  0  0  0  0  0
    1.8172    1.5529    0.0000 H   0  0  0  0  0  0  0  0  0  0  0  0
    1.5783    0.5059    0.0000 H   0  0  0  0  0  0  0  0  0  0  0  0
    6.5910    2.4692    0.0000 H   0  0  0  0  0  0  0  0  0  0  0  0
    6.6466    0.0221    0.0000 H   0  0  0  0  0  0  0  0  0  0  0  0
    7.5052    0.1995    0.0000 H   0  0  0  0  0  0  0  0  0  0  0  0
    7.3279    1.0582    0.0000 H   0  0  0  0  0  0  0  0  0  0  0  0
  4  1  1  1  0  0  0
  1 30  1  0  0  0  0
  2 10  2  0  0  0  0
  3 14  1  0  0  0  0
  3 17  1  0  0  0  0
  4  5  1  0  0  0  0
  4  6  1  0  0  0  0
  4 10  1  0  0  0  0
  5  7  1  0  0  0  0
  5  9  1  0  0  0  0
  5 19  1  6  0  0  0
  6  8  1  0  0  0  0
  6 11  1  1  0  0  0
  6 20  1  0  0  0  0
  7  8  1  0  0  0  0
  7 21  1  0  0  0  0
  7 22  1  0  0  0  0
  8 23  1  0  0  0  0
  8 24  1  0  0  0  0
  9 12  1  0  0  0  0
  9 15  2  0  0  0  0
 10 13  1  0  0  0  0
 11 25  1  0  0  0  0
 11 26  1  0  0  0  0
 11 27  1  0  0  0  0
 12 14  1  0  0  0  0
 12 28  1  0  0  0  0
 12 29  1  0  0  0  0
 13 14  2  0  0  0  0
 13 16  1  0  0  0  0
 15 31  1  0  0  0  0
 15 32  1  0  0  0  0
 16 17  2  0  0  0  0
 16 18  1  0  0  0  0
 17 33  1  0  0  0  0
 18 34  1  0  0  0  0
 18 35  1  0  0  0  0
 18 36  1  0  0  0  0
M  END
> <PUBCHEM_COMPOUND_CID>
46173920

> <PUBCHEM_COMPOUND_CANONICALIZED>
1

> <PUBCHEM_CACTVS_COMPLEXITY>
403

> <PUBCHEM_CACTVS_HBOND_ACCEPTOR>
3

> <PUBCHEM_CACTVS_HBOND_DONOR>
1

> <PUBCHEM_CACTVS_ROTATABLE_BOND>
0

> <PUBCHEM_CACTVS_SUBSKEYS>
AAADceBwMAAAAAAAAAAAAAAAAAAAAaIAAAAAAAAABgAAAADRgAAAGgAACAAADUSgmAIiBIAABkCIAohSgAICCAAkIAAAiAFECMgMJjaMNRqCWWCk4BEIqQfL7PzOgAAAAAAAAAAAAAAAAAAAAQAADAAAAA==

> <PUBCHEM_IUPAC_OPENEYE_NAME>
(5aS,8S,8aS)-8a-hydroxy-1,8-dimethyl-5-methylene-5a,6,7,8-tetrahydro-4H-azuleno[6,5-b]furan-9-one

> <PUBCHEM_IUPAC_CAS_NAME>
(5aS,8S,8aS)-8a-hydroxy-1,8-dimethyl-5-methylene-5a,6,7,8-tetrahydro-4H-azuleno[6,5-b]furan-9-one

> <PUBCHEM_IUPAC_NAME>
(5aS,8S,8aS)-8a-hydroxy-1,8-dimethyl-5-methylidene-5a,6,7,8-tetrahydro-4H-azuleno[6,5-b]furan-9-one

> <PUBCHEM_IUPAC_SYSTEMATIC_NAME>
(5aS,8S,8aS)-1,8-dimethyl-5-methylidene-8a-oxidanyl-5a,6,7,8-tetrahydro-4H-azuleno[6,5-b]furan-9-one

> <PUBCHEM_IUPAC_TRADITIONAL_NAME>
(5aS,8S,8aS)-8a-hydroxy-1,8-dimethyl-5-methylene-5a,6,7,8-tetrahydro-4H-azuleno[6,5-b]furan-9-one

> <PUBCHEM_IUPAC_INCHI>
InChI=1S/C15H18O3/c1-8-6-12-13(9(2)7-18-12)14(16)15(17)10(3)4-5-11(8)15/h7,10-11,17H,1,4-6H2,2-3H3/t10-,11-,15-/m0/s1

> <PUBCHEM_IUPAC_INCHIKEY>
CKDRPCYJCDMPFO-PGUXBMHVSA-N

> <PUBCHEM_XLOGP3_AA>
2.2

> <PUBCHEM_EXACT_MASS>
246.125594

> <PUBCHEM_MOLECULAR_FORMULA>
C15H18O3

> <PUBCHEM_MOLECULAR_WEIGHT>
246.30162

> <PUBCHEM_OPENEYE_CAN_SMILES>
CC1CCC2C1(C(=O)C3=C(CC2=C)OC=C3C)O

> <PUBCHEM_OPENEYE_ISO_SMILES>
C[C@H]1CC[C@@H]2[C@@]1(C(=O)C3=C(CC2=C)OC=C3C)O

> <PUBCHEM_CACTVS_TPSA>
50.4

> <PUBCHEM_MONOISOTOPIC_WEIGHT>
246.125594

> <PUBCHEM_TOTAL_CHARGE>
0

> <PUBCHEM_HEAVY_ATOM_COUNT>
18

> <PUBCHEM_ATOM_DEF_STEREO_COUNT>
3

> <PUBCHEM_ATOM_UDEF_STEREO_COUNT>
0

> <PUBCHEM_BOND_DEF_STEREO_COUNT>
0

> <PUBCHEM_BOND_UDEF_STEREO_COUNT>
0

> <PUBCHEM_ISOTOPIC_ATOM_COUNT>
0

> <PUBCHEM_COMPONENT_COUNT>
1

> <PUBCHEM_CACTVS_TAUTO_COUNT>
1

> <PUBCHEM_COORDINATE_TYPE>
1
5
255

> <PUBCHEM_BONDANNOTATIONS>
4  1  5
13  14  8
13  16  8
16  17  8
3  14  8
3  17  8
5  19  6
6  11  5

$$$$

