5281231
  -OEChem-07051212552D

 97 99  0     1  0  0  0  0  0999 V2000
    4.5986   -4.6962    0.0000 O   0  0  0  0  0  0  0  0  0  0  0  0
    3.7320   -4.1962    0.0000 C   0  0  3  0  0  0  0  0  0  0  0  0
    3.7320   -5.1962    0.0000 C   0  0  3  0  0  0  0  0  0  0  0  0
    2.8660   -3.6962    0.0000 C   0  0  0  0  0  0  0  0  0  0  0  0
    2.8660   -5.6962    0.0000 C   0  0  0  0  0  0  0  0  0  0  0  0
    2.0000   -4.1962    0.0000 C   0  0  0  0  0  0  0  0  0  0  0  0
    2.0000   -5.1962    0.0000 C   0  0  0  0  0  0  0  0  0  0  0  0
    3.7320   -6.1962    0.0000 C   0  0  0  0  0  0  0  0  0  0  0  0
    4.2320   -3.3301    0.0000 C   0  0  0  0  0  0  0  0  0  0  0  0
    2.0000   -3.1962    0.0000 C   0  0  0  0  0  0  0  0  0  0  0  0
    2.8660   -2.6962    0.0000 C   0  0  0  0  0  0  0  0  0  0  0  0
    5.2320   -3.3301    0.0000 C   0  0  0  0  0  0  0  0  0  0  0  0
    5.7320   -2.4641    0.0000 C   0  0  0  0  0  0  0  0  0  0  0  0
    5.2320   -1.5981    0.0000 C   0  0  0  0  0  0  0  0  0  0  0  0
    6.7320   -2.4641    0.0000 C   0  0  0  0  0  0  0  0  0  0  0  0
    7.2320   -1.5981    0.0000 C   0  0  0  0  0  0  0  0  0  0  0  0
   18.7320    4.4641    0.0000 C   0  0  0  0  0  0  0  0  0  0  0  0
    8.2320   -1.5981    0.0000 C   0  0  0  0  0  0  0  0  0  0  0  0
   19.2320    5.3301    0.0000 C   0  0  0  0  0  0  0  0  0  0  0  0
   18.7320    6.1962    0.0000 C   0  0  0  0  0  0  0  0  0  0  0  0
   17.7320    4.4641    0.0000 C   0  0  0  0  0  0  0  0  0  0  0  0
   17.7320    6.1962    0.0000 C   0  0  0  0  0  0  0  0  0  0  0  0
   17.2320    5.3301    0.0000 C   0  0  0  0  0  0  0  0  0  0  0  0
   19.5981    3.9641    0.0000 C   0  0  0  0  0  0  0  0  0  0  0  0
   18.7320    3.4641    0.0000 C   0  0  0  0  0  0  0  0  0  0  0  0
    8.7320   -0.7321    0.0000 C   0  0  0  0  0  0  0  0  0  0  0  0
   17.2320    3.5981    0.0000 C   0  0  0  0  0  0  0  0  0  0  0  0
   16.2320    5.3301    0.0000 C   0  0  0  0  0  0  0  0  0  0  0  0
    8.2320    0.1340    0.0000 C   0  0  0  0  0  0  0  0  0  0  0  0
    9.7320   -0.7321    0.0000 C   0  0  0  0  0  0  0  0  0  0  0  0
   16.2320    3.5981    0.0000 C   0  0  0  0  0  0  0  0  0  0  0  0
   15.7321    2.7320    0.0000 C   0  0  0  0  0  0  0  0  0  0  0  0
   10.2321    0.1340    0.0000 C   0  0  0  0  0  0  0  0  0  0  0  0
   16.2320    1.8660    0.0000 C   0  0  0  0  0  0  0  0  0  0  0  0
   14.7321    2.7320    0.0000 C   0  0  0  0  0  0  0  0  0  0  0  0
   11.2321    0.1340    0.0000 C   0  0  0  0  0  0  0  0  0  0  0  0
   14.2321    1.8660    0.0000 C   0  0  0  0  0  0  0  0  0  0  0  0
   11.7321    1.0000    0.0000 C   0  0  0  0  0  0  0  0  0  0  0  0
   13.2321    1.8660    0.0000 C   0  0  0  0  0  0  0  0  0  0  0  0
   12.7321    1.0000    0.0000 C   0  0  0  0  0  0  0  0  0  0  0  0
   13.2321    0.1340    0.0000 C   0  0  0  0  0  0  0  0  0  0  0  0
    2.4675   -6.1711    0.0000 H   0  0  0  0  0  0  0  0  0  0  0  0
    3.2646   -6.1711    0.0000 H   0  0  0  0  0  0  0  0  0  0  0  0
    1.7880   -3.6135    0.0000 H   0  0  0  0  0  0  0  0  0  0  0  0
    1.3894   -4.3038    0.0000 H   0  0  0  0  0  0  0  0  0  0  0  0
    1.3894   -5.0885    0.0000 H   0  0  0  0  0  0  0  0  0  0  0  0
    1.7880   -5.7788    0.0000 H   0  0  0  0  0  0  0  0  0  0  0  0
    3.1120   -6.1962    0.0000 H   0  0  0  0  0  0  0  0  0  0  0  0
    3.7320   -6.8162    0.0000 H   0  0  0  0  0  0  0  0  0  0  0  0
    4.3520   -6.1962    0.0000 H   0  0  0  0  0  0  0  0  0  0  0  0
    3.9220   -2.7932    0.0000 H   0  0  0  0  0  0  0  0  0  0  0  0
    3.4860   -2.6962    0.0000 H   0  0  0  0  0  0  0  0  0  0  0  0
    2.3100   -2.6592    0.0000 H   0  0  0  0  0  0  0  0  0  0  0  0
    2.8660   -2.0762    0.0000 H   0  0  0  0  0  0  0  0  0  0  0  0
    2.2460   -2.6962    0.0000 H   0  0  0  0  0  0  0  0  0  0  0  0
    1.4631   -2.8862    0.0000 H   0  0  0  0  0  0  0  0  0  0  0  0
    1.6900   -3.7331    0.0000 H   0  0  0  0  0  0  0  0  0  0  0  0
    5.5420   -3.8671    0.0000 H   0  0  0  0  0  0  0  0  0  0  0  0
    5.7690   -1.2881    0.0000 H   0  0  0  0  0  0  0  0  0  0  0  0
    4.9220   -1.0611    0.0000 H   0  0  0  0  0  0  0  0  0  0  0  0
    4.6951   -1.9081    0.0000 H   0  0  0  0  0  0  0  0  0  0  0  0
    7.0420   -3.0010    0.0000 H   0  0  0  0  0  0  0  0  0  0  0  0
    6.9220   -1.0611    0.0000 H   0  0  0  0  0  0  0  0  0  0  0  0
    8.5420   -2.1350    0.0000 H   0  0  0  0  0  0  0  0  0  0  0  0
   19.7070    4.9316    0.0000 H   0  0  0  0  0  0  0  0  0  0  0  0
   19.7070    5.7287    0.0000 H   0  0  0  0  0  0  0  0  0  0  0  0
   19.3147    6.4082    0.0000 H   0  0  0  0  0  0  0  0  0  0  0  0
   18.6244    6.8067    0.0000 H   0  0  0  0  0  0  0  0  0  0  0  0
   17.8397    6.8067    0.0000 H   0  0  0  0  0  0  0  0  0  0  0  0
   17.1494    6.4082    0.0000 H   0  0  0  0  0  0  0  0  0  0  0  0
   19.2881    3.4272    0.0000 H   0  0  0  0  0  0  0  0  0  0  0  0
   20.1350    3.6541    0.0000 H   0  0  0  0  0  0  0  0  0  0  0  0
   19.9081    4.5010    0.0000 H   0  0  0  0  0  0  0  0  0  0  0  0
   18.1120    3.4641    0.0000 H   0  0  0  0  0  0  0  0  0  0  0  0
   18.7320    2.8441    0.0000 H   0  0  0  0  0  0  0  0  0  0  0  0
   19.3521    3.4641    0.0000 H   0  0  0  0  0  0  0  0  0  0  0  0
   17.5421    3.0611    0.0000 H   0  0  0  0  0  0  0  0  0  0  0  0
   16.2320    5.9501    0.0000 H   0  0  0  0  0  0  0  0  0  0  0  0
   15.6121    5.3301    0.0000 H   0  0  0  0  0  0  0  0  0  0  0  0
   16.2320    4.7101    0.0000 H   0  0  0  0  0  0  0  0  0  0  0  0
    8.7690    0.4440    0.0000 H   0  0  0  0  0  0  0  0  0  0  0  0
    7.9220    0.6709    0.0000 H   0  0  0  0  0  0  0  0  0  0  0  0
    7.6951   -0.1760    0.0000 H   0  0  0  0  0  0  0  0  0  0  0  0
   10.0421   -1.2690    0.0000 H   0  0  0  0  0  0  0  0  0  0  0  0
   15.9221    4.1350    0.0000 H   0  0  0  0  0  0  0  0  0  0  0  0
    9.9220    0.6709    0.0000 H   0  0  0  0  0  0  0  0  0  0  0  0
   15.6951    1.5560    0.0000 H   0  0  0  0  0  0  0  0  0  0  0  0
   16.5420    1.3291    0.0000 H   0  0  0  0  0  0  0  0  0  0  0  0
   16.7690    2.1760    0.0000 H   0  0  0  0  0  0  0  0  0  0  0  0
   14.4221    3.2690    0.0000 H   0  0  0  0  0  0  0  0  0  0  0  0
   11.5421   -0.4030    0.0000 H   0  0  0  0  0  0  0  0  0  0  0  0
   14.5421    1.3291    0.0000 H   0  0  0  0  0  0  0  0  0  0  0  0
   11.4221    1.5369    0.0000 H   0  0  0  0  0  0  0  0  0  0  0  0
   12.9221    2.4030    0.0000 H   0  0  0  0  0  0  0  0  0  0  0  0
   12.6951   -0.1760    0.0000 H   0  0  0  0  0  0  0  0  0  0  0  0
   13.5421   -0.4030    0.0000 H   0  0  0  0  0  0  0  0  0  0  0  0
   13.7690    0.4440    0.0000 H   0  0  0  0  0  0  0  0  0  0  0  0
  1  2  1  0  0  0  0
  1  3  1  0  0  0  0
  2  3  1  0  0  0  0
  2  4  1  0  0  0  0
  2  9  1  0  0  0  0
  3  5  1  0  0  0  0
  3  8  1  0  0  0  0
  4  6  1  0  0  0  0
  4 10  1  0  0  0  0
  4 11  1  0  0  0  0
  5  7  1  0  0  0  0
  5 42  1  0  0  0  0
  5 43  1  0  0  0  0
  6  7  1  0  0  0  0
  6 44  1  0  0  0  0
  6 45  1  0  0  0  0
  7 46  1  0  0  0  0
  7 47  1  0  0  0  0
  8 48  1  0  0  0  0
  8 49  1  0  0  0  0
  8 50  1  0  0  0  0
  9 12  2  0  0  0  0
  9 51  1  0  0  0  0
 10 53  1  0  0  0  0
 10 56  1  0  0  0  0
 10 57  1  0  0  0  0
 11 52  1  0  0  0  0
 11 54  1  0  0  0  0
 11 55  1  0  0  0  0
 12 13  1  0  0  0  0
 12 58  1  0  0  0  0
 13 14  1  0  0  0  0
 13 15  2  0  0  0  0
 14 59  1  0  0  0  0
 14 60  1  0  0  0  0
 14 61  1  0  0  0  0
 15 16  1  0  0  0  0
 15 62  1  0  0  0  0
 16 18  2  0  0  0  0
 16 63  1  0  0  0  0
 17 19  1  0  0  0  0
 17 21  1  0  0  0  0
 17 24  1  0  0  0  0
 17 25  1  0  0  0  0
 18 26  1  0  0  0  0
 18 64  1  0  0  0  0
 19 20  1  0  0  0  0
 19 65  1  0  0  0  0
 19 66  1  0  0  0  0
 20 22  1  0  0  0  0
 20 67  1  0  0  0  0
 20 68  1  0  0  0  0
 21 23  2  0  0  0  0
 21 27  1  0  0  0  0
 22 23  1  0  0  0  0
 22 69  1  0  0  0  0
 22 70  1  0  0  0  0
 23 28  1  0  0  0  0
 24 71  1  0  0  0  0
 24 72  1  0  0  0  0
 24 73  1  0  0  0  0
 25 74  1  0  0  0  0
 25 75  1  0  0  0  0
 25 76  1  0  0  0  0
 26 29  1  0  0  0  0
 26 30  2  0  0  0  0
 27 31  2  0  0  0  0
 27 77  1  0  0  0  0
 28 78  1  0  0  0  0
 28 79  1  0  0  0  0
 28 80  1  0  0  0  0
 29 81  1  0  0  0  0
 29 82  1  0  0  0  0
 29 83  1  0  0  0  0
 30 33  1  0  0  0  0
 30 84  1  0  0  0  0
 31 32  1  0  0  0  0
 31 85  1  0  0  0  0
 32 34  1  0  0  0  0
 32 35  2  0  0  0  0
 33 36  2  0  0  0  0
 33 86  1  0  0  0  0
 34 87  1  0  0  0  0
 34 88  1  0  0  0  0
 34 89  1  0  0  0  0
 35 37  1  0  0  0  0
 35 90  1  0  0  0  0
 36 38  1  0  0  0  0
 36 91  1  0  0  0  0
 37 39  2  0  0  0  0
 37 92  1  0  0  0  0
 38 40  2  0  0  0  0
 38 93  1  0  0  0  0
 39 40  1  0  0  0  0
 39 94  1  0  0  0  0
 40 41  1  0  0  0  0
 41 95  1  0  0  0  0
 41 96  1  0  0  0  0
 41 97  1  0  0  0  0
M  END
> <PUBCHEM_COMPOUND_CID>
5281231

> <PUBCHEM_COMPOUND_CANONICALIZED>
1

> <PUBCHEM_CACTVS_COMPLEXITY>
1260

> <PUBCHEM_CACTVS_HBOND_ACCEPTOR>
1

> <PUBCHEM_CACTVS_HBOND_DONOR>
0

> <PUBCHEM_CACTVS_ROTATABLE_BOND>
10

> <PUBCHEM_CACTVS_SUBSKEYS>
AAADcfB8IAAAAAAAAAAAAAAAEgAAAAAAAAAwQAAABIAAAAAAAAAAGgAAAAAADkSAgAACAAAABACAAiBCAAAAAAAgAAAICAAAAAgIBAIAIQACEAAEwAAIoAOAwPAPgAAAAAAAAAAAAAYAADAAAAAAAAAAAA==

> <PUBCHEM_IUPAC_OPENEYE_NAME>
1,5,5-trimethyl-6-[(1E,3E,5E,7E,9E,11E,13E,15E,17E)-3,7,12,16-tetramethyl-18-(2,6,6-trimethylcyclohexen-1-yl)octadeca-1,3,5,7,9,11,13,15,17-nonaenyl]-7-oxabicyclo[4.1.0]heptane

> <PUBCHEM_IUPAC_CAS_NAME>
1,5,5-trimethyl-6-[(1E,3E,5E,7E,9E,11E,13E,15E,17E)-3,7,12,16-tetramethyl-18-(2,6,6-trimethyl-1-cyclohexenyl)octadeca-1,3,5,7,9,11,13,15,17-nonaenyl]-7-oxabicyclo[4.1.0]heptane

> <PUBCHEM_IUPAC_NAME>
1,5,5-trimethyl-6-[(1E,3E,5E,7E,9E,11E,13E,15E,17E)-3,7,12,16-tetramethyl-18-(2,6,6-trimethylcyclohexen-1-yl)octadeca-1,3,5,7,9,11,13,15,17-nonaenyl]-7-oxabicyclo[4.1.0]heptane

> <PUBCHEM_IUPAC_SYSTEMATIC_NAME>
1,5,5-trimethyl-6-[(1E,3E,5E,7E,9E,11E,13E,15E,17E)-3,7,12,16-tetramethyl-18-(2,6,6-trimethylcyclohexen-1-yl)octadeca-1,3,5,7,9,11,13,15,17-nonaenyl]-7-oxabicyclo[4.1.0]heptane

> <PUBCHEM_IUPAC_TRADITIONAL_NAME>
1,5,5-trimethyl-6-[(1E,3E,5E,7E,9E,11E,13E,15E,17E)-3,7,12,16-tetramethyl-18-(2,6,6-trimethylcyclohexen-1-yl)octadeca-1,3,5,7,9,11,13,15,17-nonaenyl]-7-oxabicyclo[4.1.0]heptane

> <PUBCHEM_IUPAC_INCHI>
InChI=1S/C40H56O/c1-31(19-13-21-33(3)24-25-36-35(5)23-15-27-37(36,6)7)17-11-12-18-32(2)20-14-22-34(4)26-30-40-38(8,9)28-16-29-39(40,10)41-40/h11-14,17-22,24-26,30H,15-16,23,27-29H2,1-10H3/b12-11+,19-13+,20-14+,25-24+,30-26+,31-17+,32-18+,33-21+,34-22+

> <PUBCHEM_IUPAC_INCHIKEY>
RVCRIPILOFSMFG-WWSVUWEKSA-N

> <PUBCHEM_XLOGP3_AA>
12.7

> <PUBCHEM_EXACT_MASS>
552.433116

> <PUBCHEM_MOLECULAR_FORMULA>
C40H56O

> <PUBCHEM_MOLECULAR_WEIGHT>
552.87204

> <PUBCHEM_OPENEYE_CAN_SMILES>
CC1=C(C(CCC1)(C)C)C=CC(=CC=CC(=CC=CC=C(C)C=CC=C(C)C=CC23C(CCCC2(O3)C)(C)C)C)C

> <PUBCHEM_OPENEYE_ISO_SMILES>
CC1=C(C(CCC1)(C)C)/C=C/C(=C/C=C/C(=C/C=C/C=C(\C)/C=C/C=C(\C)/C=C/C23C(CCCC2(O3)C)(C)C)/C)/C

> <PUBCHEM_CACTVS_TPSA>
12.5

> <PUBCHEM_MONOISOTOPIC_WEIGHT>
552.433116

> <PUBCHEM_TOTAL_CHARGE>
0

> <PUBCHEM_HEAVY_ATOM_COUNT>
41

> <PUBCHEM_ATOM_DEF_STEREO_COUNT>
0

> <PUBCHEM_ATOM_UDEF_STEREO_COUNT>
2

> <PUBCHEM_BOND_DEF_STEREO_COUNT>
9

> <PUBCHEM_BOND_UDEF_STEREO_COUNT>
0

> <PUBCHEM_ISOTOPIC_ATOM_COUNT>
0

> <PUBCHEM_COMPONENT_COUNT>
1

> <PUBCHEM_CACTVS_TAUTO_COUNT>
1

> <PUBCHEM_COORDINATE_TYPE>
1
5
255

> <PUBCHEM_BONDANNOTATIONS>
2  9  3
3  8  3

$$$$

