5280665
  -OEChem-07051212493D

 74 76  0     1  0  0  0  0  0999 V2000
   -1.5192   -4.3905    0.0205 O   0  0  0  0  0  0  0  0  0  0  0  0
    1.4134   -2.2134   -0.0778 O   0  0  0  0  0  0  0  0  0  0  0  0
    2.4417   -4.7335    1.0502 O   0  0  0  0  0  0  0  0  0  0  0  0
    1.0525   -6.9956   -0.0938 O   0  0  0  0  0  0  0  0  0  0  0  0
   -1.4081   -2.0606    0.0765 O   0  0  0  0  0  0  0  0  0  0  0  0
   -3.0919   -6.4956   -0.7866 O   0  0  0  0  0  0  0  0  0  0  0  0
    2.4518   -2.0396    1.9787 O   0  0  0  0  0  0  0  0  0  0  0  0
   -2.7559   -2.1716   -1.7967 O   0  0  0  0  0  0  0  0  0  0  0  0
    4.6203    3.5694   -2.5183 O   0  0  0  0  0  0  0  0  0  0  0  0
    7.8647    2.9852    0.9558 O   0  0  0  0  0  0  0  0  0  0  0  0
   -3.9918    4.2310    1.9268 O   0  0  0  0  0  0  0  0  0  0  0  0
   -7.7675    3.2686   -0.8578 O   0  0  0  0  0  0  0  0  0  0  0  0
    6.9972    4.3198   -1.3106 O   0  0  0  0  0  0  0  0  0  0  0  0
   -6.5053    4.9096    0.9819 O   0  0  0  0  0  0  0  0  0  0  0  0
    1.3413   -4.6149    0.1471 C   0  0  1  0  0  0  0  0  0  0  0  0
    0.4142   -5.8095    0.3720 C   0  0  1  0  0  0  0  0  0  0  0  0
    0.6141   -3.2945    0.4015 C   0  0  2  0  0  0  0  0  0  0  0  0
   -0.9077   -5.6194   -0.3756 C   0  0  1  0  0  0  0  0  0  0  0  0
   -0.7317   -3.2525   -0.3222 C   0  0  1  0  0  0  0  0  0  0  0  0
   -1.8944   -6.7426   -0.0727 C   0  0  0  0  0  0  0  0  0  0  0  0
    2.2885   -1.6842    0.8222 C   0  0  0  0  0  0  0  0  0  0  0  0
   -2.3981   -1.6380   -0.7586 C   0  0  0  0  0  0  0  0  0  0  0  0
    3.0190   -0.5860    0.1497 C   0  0  0  0  0  0  0  0  0  0  0  0
   -2.9752   -0.4009   -0.1855 C   0  0  0  0  0  0  0  0  0  0  0  0
    3.9466    0.1036    0.8290 C   0  0  0  0  0  0  0  0  0  0  0  0
   -3.9763    0.2195   -0.8260 C   0  0  0  0  0  0  0  0  0  0  0  0
    4.7453    1.2079    0.2688 C   0  0  0  0  0  0  0  0  0  0  0  0
   -4.6384    1.4478   -0.3527 C   0  0  0  0  0  0  0  0  0  0  0  0
    5.9418    1.5832    0.8799 C   0  0  0  0  0  0  0  0  0  0  0  0
    4.3051    1.8781   -0.8725 C   0  0  0  0  0  0  0  0  0  0  0  0
   -5.9043    1.7865   -0.8309 C   0  0  0  0  0  0  0  0  0  0  0  0
   -3.9995    2.2720    0.5735 C   0  0  0  0  0  0  0  0  0  0  0  0
    5.0612    2.9234   -1.4029 C   0  0  0  0  0  0  0  0  0  0  0  0
    6.6980    2.6285    0.3496 C   0  0  0  0  0  0  0  0  0  0  0  0
   -4.6264    3.4349    1.0216 C   0  0  0  0  0  0  0  0  0  0  0  0
   -6.5311    2.9492   -0.3830 C   0  0  0  0  0  0  0  0  0  0  0  0
    6.2577    3.2986   -0.7918 C   0  0  0  0  0  0  0  0  0  0  0  0
   -5.8922    3.7733    0.5433 C   0  0  0  0  0  0  0  0  0  0  0  0
    3.3878    3.1239   -3.0807 C   0  0  0  0  0  0  0  0  0  0  0  0
    8.2427    2.2493    2.1176 C   0  0  0  0  0  0  0  0  0  0  0  0
   -2.7004    3.8129    2.3647 C   0  0  0  0  0  0  0  0  0  0  0  0
   -8.8893    2.7667   -0.1341 C   0  0  0  0  0  0  0  0  0  0  0  0
    1.7696   -4.6340   -0.8619 H   0  0  0  0  0  0  0  0  0  0  0  0
    0.2313   -5.9368    1.4461 H   0  0  0  0  0  0  0  0  0  0  0  0
    0.4228   -3.1734    1.4772 H   0  0  0  0  0  0  0  0  0  0  0  0
   -0.7463   -5.5940   -1.4619 H   0  0  0  0  0  0  0  0  0  0  0  0
   -0.5622   -3.2261   -1.4080 H   0  0  0  0  0  0  0  0  0  0  0  0
   -1.4993   -7.7169   -0.3756 H   0  0  0  0  0  0  0  0  0  0  0  0
   -2.1414   -6.7677    0.9940 H   0  0  0  0  0  0  0  0  0  0  0  0
    2.0942   -4.6924    1.9574 H   0  0  0  0  0  0  0  0  0  0  0  0
    1.2080   -6.8978   -1.0487 H   0  0  0  0  0  0  0  0  0  0  0  0
   -3.7061   -7.2195   -0.5762 H   0  0  0  0  0  0  0  0  0  0  0  0
    2.7805   -0.4055   -0.8919 H   0  0  0  0  0  0  0  0  0  0  0  0
   -2.5669   -0.0629    0.7596 H   0  0  0  0  0  0  0  0  0  0  0  0
    4.1604   -0.1447    1.8662 H   0  0  0  0  0  0  0  0  0  0  0  0
   -4.3632   -0.1853   -1.7584 H   0  0  0  0  0  0  0  0  0  0  0  0
    6.2386    1.0276    1.7637 H   0  0  0  0  0  0  0  0  0  0  0  0
    3.3592    1.5858   -1.3099 H   0  0  0  0  0  0  0  0  0  0  0  0
   -6.4118    1.1505   -1.5531 H   0  0  0  0  0  0  0  0  0  0  0  0
   -3.0060    2.0010    0.9065 H   0  0  0  0  0  0  0  0  0  0  0  0
    7.7892    4.4370   -0.7576 H   0  0  0  0  0  0  0  0  0  0  0  0
   -5.9155    5.3504    1.6180 H   0  0  0  0  0  0  0  0  0  0  0  0
    3.1957    3.7431   -3.9634 H   0  0  0  0  0  0  0  0  0  0  0  0
    2.5488    3.2843   -2.3950 H   0  0  0  0  0  0  0  0  0  0  0  0
    3.4526    2.0879   -3.4309 H   0  0  0  0  0  0  0  0  0  0  0  0
    7.5207    2.3793    2.9312 H   0  0  0  0  0  0  0  0  0  0  0  0
    8.4269    1.1947    1.8860 H   0  0  0  0  0  0  0  0  0  0  0  0
    9.1925    2.6670    2.4677 H   0  0  0  0  0  0  0  0  0  0  0  0
   -1.9771    3.8057    1.5421 H   0  0  0  0  0  0  0  0  0  0  0  0
   -2.7425    2.8560    2.8963 H   0  0  0  0  0  0  0  0  0  0  0  0
   -2.3496    4.5587    3.0859 H   0  0  0  0  0  0  0  0  0  0  0  0
   -9.8000    3.1134   -0.6300 H   0  0  0  0  0  0  0  0  0  0  0  0
   -8.8853    3.1433    0.8937 H   0  0  0  0  0  0  0  0  0  0  0  0
   -8.8862    1.6720   -0.1333 H   0  0  0  0  0  0  0  0  0  0  0  0
  1 18  1  0  0  0  0
  1 19  1  0  0  0  0
  2 17  1  0  0  0  0
  2 21  1  0  0  0  0
  3 15  1  0  0  0  0
  3 50  1  0  0  0  0
  4 16  1  0  0  0  0
  4 51  1  0  0  0  0
  5 19  1  0  0  0  0
  5 22  1  0  0  0  0
  6 20  1  0  0  0  0
  6 52  1  0  0  0  0
  7 21  2  0  0  0  0
  8 22  2  0  0  0  0
  9 33  1  0  0  0  0
  9 39  1  0  0  0  0
 10 34  1  0  0  0  0
 10 40  1  0  0  0  0
 11 35  1  0  0  0  0
 11 41  1  0  0  0  0
 12 36  1  0  0  0  0
 12 42  1  0  0  0  0
 13 37  1  0  0  0  0
 13 61  1  0  0  0  0
 14 38  1  0  0  0  0
 14 62  1  0  0  0  0
 15 16  1  0  0  0  0
 15 17  1  0  0  0  0
 15 43  1  0  0  0  0
 16 18  1  0  0  0  0
 16 44  1  0  0  0  0
 17 19  1  0  0  0  0
 17 45  1  0  0  0  0
 18 20  1  0  0  0  0
 18 46  1  0  0  0  0
 19 47  1  0  0  0  0
 20 48  1  0  0  0  0
 20 49  1  0  0  0  0
 21 23  1  0  0  0  0
 22 24  1  0  0  0  0
 23 25  2  0  0  0  0
 23 53  1  0  0  0  0
 24 26  2  0  0  0  0
 24 54  1  0  0  0  0
 25 27  1  0  0  0  0
 25 55  1  0  0  0  0
 26 28  1  0  0  0  0
 26 56  1  0  0  0  0
 27 29  2  0  0  0  0
 27 30  1  0  0  0  0
 28 31  2  0  0  0  0
 28 32  1  0  0  0  0
 29 34  1  0  0  0  0
 29 57  1  0  0  0  0
 30 33  2  0  0  0  0
 30 58  1  0  0  0  0
 31 36  1  0  0  0  0
 31 59  1  0  0  0  0
 32 35  2  0  0  0  0
 32 60  1  0  0  0  0
 33 37  1  0  0  0  0
 34 37  2  0  0  0  0
 35 38  1  0  0  0  0
 36 38  2  0  0  0  0
 39 63  1  0  0  0  0
 39 64  1  0  0  0  0
 39 65  1  0  0  0  0
 40 66  1  0  0  0  0
 40 67  1  0  0  0  0
 40 68  1  0  0  0  0
 41 69  1  0  0  0  0
 41 70  1  0  0  0  0
 41 71  1  0  0  0  0
 42 72  1  0  0  0  0
 42 73  1  0  0  0  0
 42 74  1  0  0  0  0
M  END
> <PUBCHEM_COMPOUND_CID>
5280665

> <PUBCHEM_CONFORMER_RMSD>
1.4

> <PUBCHEM_CONFORMER_DIVERSEORDER>
1
8
6
4
5
3
2
7

> <PUBCHEM_MMFF94_PARTIAL_CHARGES>
55
1 -0.56
10 -0.36
11 -0.36
12 -0.36
13 -0.53
14 -0.53
15 0.28
16 0.28
17 0.28
18 0.28
19 0.56
2 -0.43
20 0.28
21 0.71
22 0.71
23 -0.14
24 -0.14
25 -0.18
26 -0.18
27 0.03
28 0.03
29 -0.15
3 -0.68
30 -0.15
31 -0.15
32 -0.15
33 0.08
34 0.08
35 0.08
36 0.08
37 0.08
38 0.08
39 0.28
4 -0.68
40 0.28
41 0.28
42 0.28
5 -0.43
50 0.4
51 0.4
52 0.4
53 0.15
54 0.15
55 0.15
56 0.15
57 0.15
58 0.15
59 0.15
6 -0.68
60 0.15
61 0.45
62 0.45
7 -0.57
8 -0.57
9 -0.36

> <PUBCHEM_EFFECTIVE_ROTOR_COUNT>
14.2

> <PUBCHEM_PHARMACOPHORE_FEATURES>
18
1 1 acceptor
1 10 acceptor
1 11 acceptor
1 12 acceptor
1 13 donor
1 14 donor
1 3 acceptor
1 3 donor
1 4 acceptor
1 4 donor
1 6 acceptor
1 6 donor
1 7 acceptor
1 8 acceptor
1 9 acceptor
6 1 15 16 17 18 19 rings
6 27 29 30 33 34 37 rings
6 28 31 32 35 36 38 rings

> <PUBCHEM_HEAVY_ATOM_COUNT>
42

> <PUBCHEM_ATOM_DEF_STEREO_COUNT>
5

> <PUBCHEM_ATOM_UDEF_STEREO_COUNT>
0

> <PUBCHEM_BOND_DEF_STEREO_COUNT>
2

> <PUBCHEM_BOND_UDEF_STEREO_COUNT>
0

> <PUBCHEM_ISOTOPIC_ATOM_COUNT>
0

> <PUBCHEM_COMPONENT_COUNT>
1

> <PUBCHEM_CACTVS_TAUTO_COUNT>
4

> <PUBCHEM_CONFORMER_ID>
0050939900000001

> <PUBCHEM_MMFF94_ENERGY>
156.3421

> <PUBCHEM_FEATURE_SELFOVERLAP>
91.353

> <PUBCHEM_SHAPE_FINGERPRINT>
10937287 8 18410571799013597683
11059845 2 18340497656271710140
12107183 9 18200049382540445722
14849402 71 17977384168188868379
15150948 74 18410300224195772673
15198563 99 17903922149941770111
15400415 2 18410296933997233185
15439362 3 18408889568531692030
15513586 35 16913400711764298020
16067689 134 18339926022000463586
16990350 14 18265334091681871000
20691028 202 18411140229740706924
245318 6 18339913930997365781
44280116 191 18196075854343648132
4760202 70 18261969526983950637
6700243 42 17254799042609421486
9849439 229 18410294726383146487

> <PUBCHEM_SHAPE_MULTIPOLES>
782.17
21.52
12.42
1.81
0.92
24.17
0.4
-47.32
-1.29
-5.67
-0.06
2.09
-2.53
-4.71

> <PUBCHEM_SHAPE_SELFOVERLAP>
1655.408

> <PUBCHEM_SHAPE_VOLUME>
434.5

> <PUBCHEM_COORDINATE_TYPE>
2
5
10

$$$$

