1990
  -OEChem-07051212522D

 10  9  0     0  0  0  0  0  0999 V2000
    2.5369    0.0600    0.0000 O   0  0  0  0  0  0  0  0  0  0  0  0
    4.2690    1.0600    0.0000 O   0  0  0  0  0  0  0  0  0  0  0  0
    3.4030   -0.4400    0.0000 N   0  0  0  0  0  0  0  0  0  0  0  0
    4.2690    0.0600    0.0000 C   0  0  0  0  0  0  0  0  0  0  0  0
    5.1350   -0.4400    0.0000 C   0  0  0  0  0  0  0  0  0  0  0  0
    4.8250   -0.9769    0.0000 H   0  0  0  0  0  0  0  0  0  0  0  0
    5.6720   -0.7500    0.0000 H   0  0  0  0  0  0  0  0  0  0  0  0
    5.4450    0.0969    0.0000 H   0  0  0  0  0  0  0  0  0  0  0  0
    3.4030   -1.0600    0.0000 H   0  0  0  0  0  0  0  0  0  0  0  0
    2.0000   -0.2500    0.0000 H   0  0  0  0  0  0  0  0  0  0  0  0
  1  3  1  0  0  0  0
  1 10  1  0  0  0  0
  2  4  2  0  0  0  0
  3  4  1  0  0  0  0
  3  9  1  0  0  0  0
  4  5  1  0  0  0  0
  5  6  1  0  0  0  0
  5  7  1  0  0  0  0
  5  8  1  0  0  0  0
M  END
> <PUBCHEM_COMPOUND_CID>
1990

> <PUBCHEM_COMPOUND_CANONICALIZED>
1

> <PUBCHEM_CACTVS_COMPLEXITY>
42.9

> <PUBCHEM_CACTVS_HBOND_ACCEPTOR>
2

> <PUBCHEM_CACTVS_HBOND_DONOR>
2

> <PUBCHEM_CACTVS_ROTATABLE_BOND>
0

> <PUBCHEM_CACTVS_SUBSKEYS>
AAADcYBCMAAAAAAAAAAAAAAAAAAAAAAAAAAAAAAAAAAAAAAAAAAAHgAUCAAAAACBgAACAABQAAAIAAEQEAAAAAAAAAAgAAAAAAAAAAAAAAAAAAAAEAAAAAAAAAAAAAAAAAAAAAAAAAAAAAAAAAAAAAAAAA==

> <PUBCHEM_IUPAC_OPENEYE_NAME>
ethanehydroxamic acid

> <PUBCHEM_IUPAC_CAS_NAME>
N-hydroxyacetamide

> <PUBCHEM_IUPAC_NAME>
N-hydroxyacetamide

> <PUBCHEM_IUPAC_SYSTEMATIC_NAME>
N-oxidanylethanamide

> <PUBCHEM_IUPAC_TRADITIONAL_NAME>
ethanehydroxamic acid

> <PUBCHEM_IUPAC_INCHI>
InChI=1S/C2H5NO2/c1-2(4)3-5/h5H,1H3,(H,3,4)

> <PUBCHEM_IUPAC_INCHIKEY>
RRUDCFGSUDOHDG-UHFFFAOYSA-N

> <PUBCHEM_XLOGP3>
-1.6

> <PUBCHEM_EXACT_MASS>
75.032028

> <PUBCHEM_MOLECULAR_FORMULA>
C2H5NO2

> <PUBCHEM_MOLECULAR_WEIGHT>
75.0666

> <PUBCHEM_OPENEYE_CAN_SMILES>
CC(=O)NO

> <PUBCHEM_OPENEYE_ISO_SMILES>
CC(=O)NO

> <PUBCHEM_CACTVS_TPSA>
49.3

> <PUBCHEM_MONOISOTOPIC_WEIGHT>
75.032028

> <PUBCHEM_TOTAL_CHARGE>
0

> <PUBCHEM_HEAVY_ATOM_COUNT>
5

> <PUBCHEM_ATOM_DEF_STEREO_COUNT>
0

> <PUBCHEM_ATOM_UDEF_STEREO_COUNT>
0

> <PUBCHEM_BOND_DEF_STEREO_COUNT>
0

> <PUBCHEM_BOND_UDEF_STEREO_COUNT>
0

> <PUBCHEM_ISOTOPIC_ATOM_COUNT>
0

> <PUBCHEM_COMPONENT_COUNT>
1

> <PUBCHEM_CACTVS_TAUTO_COUNT>
4

> <PUBCHEM_COORDINATE_TYPE>
1
5
255

$$$$

