92265
  -OEChem-07051212572D

 44 46  0     1  0  0  0  0  0999 V2000
    3.7230   -1.2986    0.0000 O   0  0  0  0  0  0  0  0  0  0  0  0
    4.5447    1.8667    0.0000 O   0  0  0  0  0  0  0  0  0  0  0  0
    5.4378   -3.1939    0.0000 O   0  0  0  0  0  0  0  0  0  0  0  0
    2.0000   -0.8665    0.0000 O   0  0  0  0  0  0  0  0  0  0  0  0
    6.1053    2.6182    0.0000 O   0  0  0  0  0  0  0  0  0  0  0  0
    4.3551    0.1839    0.0000 C   0  0  1  0  0  0  0  0  0  0  0  0
    4.5777   -0.7910    0.0000 C   0  0  1  0  0  0  0  0  0  0  0  0
    5.4786   -1.2249    0.0000 C   0  0  1  0  0  0  0  0  0  0  0  0
    4.9786    0.9658    0.0000 C   0  0  2  0  0  0  0  0  0  0  0  0
    3.3648    0.2705    0.0000 C   0  0  1  0  0  0  0  0  0  0  0  0
    5.6146   -2.2096    0.0000 C   0  0  1  0  0  0  0  0  0  0  0  0
    6.3796   -0.7910    0.0000 C   0  0  0  0  0  0  0  0  0  0  0  0
    5.9786    0.9658    0.0000 C   0  0  0  0  0  0  0  0  0  0  0  0
    6.6021    0.1839    0.0000 C   0  0  0  0  0  0  0  0  0  0  0  0
    2.9749   -0.6440    0.0000 C   0  0  0  0  0  0  0  0  0  0  0  0
    6.5929   -2.3863    0.0000 C   0  0  0  0  0  0  0  0  0  0  0  0
    7.0647   -1.5113    0.0000 C   0  0  0  0  0  0  0  0  0  0  0  0
    2.8504    1.1280    0.0000 C   0  0  0  0  0  0  0  0  0  0  0  0
    4.6239   -2.3456    0.0000 C   0  0  0  0  0  0  0  0  0  0  0  0
    7.5770    0.4064    0.0000 C   0  0  0  0  0  0  0  0  0  0  0  0
    5.1081    2.6930    0.0000 C   0  0  0  0  0  0  0  0  0  0  0  0
    4.6742    3.5939    0.0000 C   0  0  0  0  0  0  0  0  0  0  0  0
    4.0200    0.9651    0.0000 H   0  0  0  0  0  0  0  0  0  0  0  0
    4.6147   -1.6402    0.0000 H   0  0  0  0  0  0  0  0  0  0  0  0
    4.7916   -1.7254    0.0000 H   0  0  0  0  0  0  0  0  0  0  0  0
    4.3625    1.0352    0.0000 H   0  0  0  0  0  0  0  0  0  0  0  0
    3.6936    0.7961    0.0000 H   0  0  0  0  0  0  0  0  0  0  0  0
    6.5372    1.2348    0.0000 H   0  0  0  0  0  0  0  0  0  0  0  0
    5.8407    1.5702    0.0000 H   0  0  0  0  0  0  0  0  0  0  0  0
    6.8619   -2.9449    0.0000 H   0  0  0  0  0  0  0  0  0  0  0  0
    7.6792   -1.4291    0.0000 H   0  0  0  0  0  0  0  0  0  0  0  0
    3.3821    1.4469    0.0000 H   0  0  0  0  0  0  0  0  0  0  0  0
    2.5315    1.6597    0.0000 H   0  0  0  0  0  0  0  0  0  0  0  0
    2.3188    0.8091    0.0000 H   0  0  0  0  0  0  0  0  0  0  0  0
    4.5396   -1.7313    0.0000 H   0  0  0  0  0  0  0  0  0  0  0  0
    4.0097   -2.4299    0.0000 H   0  0  0  0  0  0  0  0  0  0  0  0
    4.7082   -2.9598    0.0000 H   0  0  0  0  0  0  0  0  0  0  0  0
    7.7150   -0.1980    0.0000 H   0  0  0  0  0  0  0  0  0  0  0  0
    8.1815    0.5444    0.0000 H   0  0  0  0  0  0  0  0  0  0  0  0
    7.4391    1.0109    0.0000 H   0  0  0  0  0  0  0  0  0  0  0  0
    5.9114   -3.5939    0.0000 H   0  0  0  0  0  0  0  0  0  0  0  0
    5.2328    3.8629    0.0000 H   0  0  0  0  0  0  0  0  0  0  0  0
    4.4052    4.1525    0.0000 H   0  0  0  0  0  0  0  0  0  0  0  0
    4.1156    3.3249    0.0000 H   0  0  0  0  0  0  0  0  0  0  0  0
  1  7  1  0  0  0  0
  1 15  1  0  0  0  0
  9  2  1  1  0  0  0
  2 21  1  0  0  0  0
 11  3  1  1  0  0  0
  3 41  1  0  0  0  0
  4 15  2  0  0  0  0
  5 21  2  0  0  0  0
  6  7  1  0  0  0  0
  6  9  1  0  0  0  0
  6 10  1  0  0  0  0
  6 23  1  1  0  0  0
  7  8  1  0  0  0  0
  7 24  1  6  0  0  0
  8 11  1  0  0  0  0
  8 12  1  0  0  0  0
  8 25  1  1  0  0  0
  9 13  1  0  0  0  0
  9 26  1  0  0  0  0
 10 15  1  0  0  0  0
 10 18  1  1  0  0  0
 10 27  1  0  0  0  0
 11 16  1  0  0  0  0
 11 19  1  0  0  0  0
 12 14  2  0  0  0  0
 12 17  1  0  0  0  0
 13 14  1  0  0  0  0
 13 28  1  0  0  0  0
 13 29  1  0  0  0  0
 14 20  1  0  0  0  0
 16 17  2  0  0  0  0
 16 30  1  0  0  0  0
 17 31  1  0  0  0  0
 18 32  1  0  0  0  0
 18 33  1  0  0  0  0
 18 34  1  0  0  0  0
 19 35  1  0  0  0  0
 19 36  1  0  0  0  0
 19 37  1  0  0  0  0
 20 38  1  0  0  0  0
 20 39  1  0  0  0  0
 20 40  1  0  0  0  0
 21 22  1  0  0  0  0
 22 42  1  0  0  0  0
 22 43  1  0  0  0  0
 22 44  1  0  0  0  0
M  END
> <PUBCHEM_COMPOUND_CID>
92265

> <PUBCHEM_COMPOUND_CANONICALIZED>
1

> <PUBCHEM_CACTVS_COMPLEXITY>
590

> <PUBCHEM_CACTVS_HBOND_ACCEPTOR>
5

> <PUBCHEM_CACTVS_HBOND_DONOR>
1

> <PUBCHEM_CACTVS_ROTATABLE_BOND>
2

> <PUBCHEM_CACTVS_SUBSKEYS>
AAADceB4OAAAAAAAAAAAAAAAAAAAASIAAAAAAAAABAAAAACAAAAAGgAACAAADVSggAICCAAABgCIAiDSCAAAAAAgAAAICAEAAAgIBBIAAAACUAAFwAAIkAPK6PyOgAAAAAAAAAAAAAAAAAAAAAAAAAAAAA==

> <PUBCHEM_IUPAC_OPENEYE_NAME>
[(3S,3aR,4S,9R,9aS,9bS)-9-hydroxy-3,6,9-trimethyl-2-oxo-3,3a,4,5,9a,9b-hexahydroazuleno[4,5-b]furan-4-yl] acetate

> <PUBCHEM_IUPAC_CAS_NAME>
acetic acid [(3S,3aR,4S,9R,9aS,9bS)-9-hydroxy-3,6,9-trimethyl-2-oxo-3,3a,4,5,9a,9b-hexahydroazuleno[4,5-b]furan-4-yl] ester

> <PUBCHEM_IUPAC_NAME>
[(3S,3aR,4S,9R,9aS,9bS)-9-hydroxy-3,6,9-trimethyl-2-oxo-3,3a,4,5,9a,9b-hexahydroazuleno[4,5-b]furan-4-yl] acetate

> <PUBCHEM_IUPAC_SYSTEMATIC_NAME>
[(3S,3aR,4S,9R,9aS,9bS)-3,6,9-trimethyl-9-oxidanyl-2-oxidanylidene-3,3a,4,5,9a,9b-hexahydroazuleno[4,5-b]furan-4-yl] ethanoate

> <PUBCHEM_IUPAC_TRADITIONAL_NAME>
acetic acid [(3S,3aR,4S,9R,9aS,9bS)-9-hydroxy-2-keto-3,6,9-trimethyl-3,3a,4,5,9a,9b-hexahydroazuleno[4,5-b]furan-4-yl] ester

> <PUBCHEM_IUPAC_INCHI>
InChI=1S/C17H22O5/c1-8-7-12(21-10(3)18)13-9(2)16(19)22-15(13)14-11(8)5-6-17(14,4)20/h5-6,9,12-15,20H,7H2,1-4H3/t9-,12-,13+,14-,15-,17+/m0/s1

> <PUBCHEM_IUPAC_INCHIKEY>
SYTRJRUSWMMZLV-VQGWEXQJSA-N

> <PUBCHEM_XLOGP3_AA>
1

> <PUBCHEM_EXACT_MASS>
306.146724

> <PUBCHEM_MOLECULAR_FORMULA>
C17H22O5

> <PUBCHEM_MOLECULAR_WEIGHT>
306.35358

> <PUBCHEM_OPENEYE_CAN_SMILES>
CC1C2C(CC(=C3C=CC(C3C2OC1=O)(C)O)C)OC(=O)C

> <PUBCHEM_OPENEYE_ISO_SMILES>
C[C@H]1[C@@H]2[C@H](CC(=C3C=C[C@@]([C@@H]3[C@H]2OC1=O)(C)O)C)OC(=O)C

> <PUBCHEM_CACTVS_TPSA>
72.8

> <PUBCHEM_MONOISOTOPIC_WEIGHT>
306.146724

> <PUBCHEM_TOTAL_CHARGE>
0

> <PUBCHEM_HEAVY_ATOM_COUNT>
22

> <PUBCHEM_ATOM_DEF_STEREO_COUNT>
6

> <PUBCHEM_ATOM_UDEF_STEREO_COUNT>
0

> <PUBCHEM_BOND_DEF_STEREO_COUNT>
0

> <PUBCHEM_BOND_UDEF_STEREO_COUNT>
0

> <PUBCHEM_ISOTOPIC_ATOM_COUNT>
0

> <PUBCHEM_COMPONENT_COUNT>
1

> <PUBCHEM_CACTVS_TAUTO_COUNT>
2

> <PUBCHEM_COORDINATE_TYPE>
1
5
255

> <PUBCHEM_BONDANNOTATIONS>
10  18  5
9  2  5
11  3  5
6  23  5
7  24  6
8  25  5

$$$$

