5281953
  -OEChem-07051213022D

 39 41  0     0  0  0  0  0  0999 V2000
    6.3301    0.1754    0.0000 O   0  0  0  0  0  0  0  0  0  0  0  0
    4.5981   -1.8246    0.0000 O   0  0  0  0  0  0  0  0  0  0  0  0
    2.0000   -0.3246    0.0000 O   0  0  0  0  0  0  0  0  0  0  0  0
    3.7320    2.6754    0.0000 O   0  0  0  0  0  0  0  0  0  0  0  0
    8.0785   -2.8592    0.0000 O   0  0  0  0  0  0  0  0  0  0  0  0
    6.3301   -2.8246    0.0000 O   0  0  0  0  0  0  0  0  0  0  0  0
    2.0000    1.6754    0.0000 O   0  0  0  0  0  0  0  0  0  0  0  0
    9.8602    0.1995    0.0000 O   0  0  0  0  0  0  0  0  0  0  0  0
    5.4641   -0.3246    0.0000 C   0  0  0  0  0  0  0  0  0  0  0  0
    4.5981    0.1754    0.0000 C   0  0  0  0  0  0  0  0  0  0  0  0
    7.1962   -1.3246    0.0000 C   0  0  0  0  0  0  0  0  0  0  0  0
    7.1962   -0.3246    0.0000 C   0  0  0  0  0  0  0  0  0  0  0  0
    5.4641   -1.3246    0.0000 C   0  0  0  0  0  0  0  0  0  0  0  0
    6.3301   -1.8246    0.0000 C   0  0  0  0  0  0  0  0  0  0  0  0
    4.5981    1.1754    0.0000 C   0  0  0  0  0  0  0  0  0  0  0  0
    3.7320   -0.3246    0.0000 C   0  0  0  0  0  0  0  0  0  0  0  0
    8.0901   -1.8593    0.0000 C   0  0  0  0  0  0  0  0  0  0  0  0
    8.0901    0.2101    0.0000 C   0  0  0  0  0  0  0  0  0  0  0  0
    2.8660    0.1754    0.0000 C   0  0  0  0  0  0  0  0  0  0  0  0
    3.7320    1.6754    0.0000 C   0  0  0  0  0  0  0  0  0  0  0  0
    2.8660    1.1754    0.0000 C   0  0  0  0  0  0  0  0  0  0  0  0
    8.9962   -0.3038    0.0000 C   0  0  0  0  0  0  0  0  0  0  0  0
    8.9962   -1.3454    0.0000 C   0  0  0  0  0  0  0  0  0  0  0  0
    2.0000   -1.3246    0.0000 C   0  0  0  0  0  0  0  0  0  0  0  0
    4.5981    3.1754    0.0000 C   0  0  0  0  0  0  0  0  0  0  0  0
    5.1350    1.4854    0.0000 H   0  0  0  0  0  0  0  0  0  0  0  0
    3.7320   -0.9446    0.0000 H   0  0  0  0  0  0  0  0  0  0  0  0
    8.0829    0.8300    0.0000 H   0  0  0  0  0  0  0  0  0  0  0  0
    9.5319   -1.6575    0.0000 H   0  0  0  0  0  0  0  0  0  0  0  0
    4.5981   -2.4446    0.0000 H   0  0  0  0  0  0  0  0  0  0  0  0
    8.6118   -3.1754    0.0000 H   0  0  0  0  0  0  0  0  0  0  0  0
    2.0000    2.2954    0.0000 H   0  0  0  0  0  0  0  0  0  0  0  0
   10.3984   -0.1084    0.0000 H   0  0  0  0  0  0  0  0  0  0  0  0
    1.3800   -1.3246    0.0000 H   0  0  0  0  0  0  0  0  0  0  0  0
    2.0000   -1.9446    0.0000 H   0  0  0  0  0  0  0  0  0  0  0  0
    2.6200   -1.3246    0.0000 H   0  0  0  0  0  0  0  0  0  0  0  0
    4.9081    2.6385    0.0000 H   0  0  0  0  0  0  0  0  0  0  0  0
    5.1350    3.4854    0.0000 H   0  0  0  0  0  0  0  0  0  0  0  0
    4.2881    3.7123    0.0000 H   0  0  0  0  0  0  0  0  0  0  0  0
  1  9  1  0  0  0  0
  1 12  1  0  0  0  0
  2 13  1  0  0  0  0
  2 30  1  0  0  0  0
  3 19  1  0  0  0  0
  3 24  1  0  0  0  0
  4 20  1  0  0  0  0
  4 25  1  0  0  0  0
  5 17  1  0  0  0  0
  5 31  1  0  0  0  0
  6 14  2  0  0  0  0
  7 21  1  0  0  0  0
  7 32  1  0  0  0  0
  8 22  1  0  0  0  0
  8 33  1  0  0  0  0
  9 10  1  0  0  0  0
  9 13  2  0  0  0  0
 10 15  2  0  0  0  0
 10 16  1  0  0  0  0
 11 12  1  0  0  0  0
 11 14  1  0  0  0  0
 11 17  2  0  0  0  0
 12 18  2  0  0  0  0
 13 14  1  0  0  0  0
 15 20  1  0  0  0  0
 15 26  1  0  0  0  0
 16 19  2  0  0  0  0
 16 27  1  0  0  0  0
 17 23  1  0  0  0  0
 18 22  1  0  0  0  0
 18 28  1  0  0  0  0
 19 21  1  0  0  0  0
 20 21  2  0  0  0  0
 22 23  2  0  0  0  0
 23 29  1  0  0  0  0
 24 34  1  0  0  0  0
 24 35  1  0  0  0  0
 24 36  1  0  0  0  0
 25 37  1  0  0  0  0
 25 38  1  0  0  0  0
 25 39  1  0  0  0  0
M  END
> <PUBCHEM_COMPOUND_CID>
5281953

> <PUBCHEM_COMPOUND_CANONICALIZED>
1

> <PUBCHEM_CACTVS_COMPLEXITY>
533

> <PUBCHEM_CACTVS_HBOND_ACCEPTOR>
8

> <PUBCHEM_CACTVS_HBOND_DONOR>
4

> <PUBCHEM_CACTVS_ROTATABLE_BOND>
3

> <PUBCHEM_CACTVS_SUBSKEYS>
AAADccB4PAAAAAAAAAAAAAAAAAAAAAAAAAAwYIAAAAAAAACBQAAAGgAACAAADASAmAIyBoAABgCIAqBSAAICCAAkIAAAiAFGiMgNJzaGNRqCeWOl4BULuQfI7LzOIAABCAAIQABAAAIQABCAAAAAAAAAAA==

> <PUBCHEM_IUPAC_OPENEYE_NAME>
3,5,7-trihydroxy-2-(4-hydroxy-3,5-dimethoxy-phenyl)chromen-4-one

> <PUBCHEM_IUPAC_CAS_NAME>
3,5,7-trihydroxy-2-(4-hydroxy-3,5-dimethoxyphenyl)-1-benzopyran-4-one

> <PUBCHEM_IUPAC_NAME>
3,5,7-trihydroxy-2-(4-hydroxy-3,5-dimethoxyphenyl)chromen-4-one

> <PUBCHEM_IUPAC_SYSTEMATIC_NAME>
2-(3,5-dimethoxy-4-oxidanyl-phenyl)-3,5,7-tris(oxidanyl)chromen-4-one

> <PUBCHEM_IUPAC_TRADITIONAL_NAME>
3,5,7-trihydroxy-2-(4-hydroxy-3,5-dimethoxy-phenyl)chromone

> <PUBCHEM_IUPAC_INCHI>
InChI=1S/C17H14O8/c1-23-11-3-7(4-12(24-2)14(11)20)17-16(22)15(21)13-9(19)5-8(18)6-10(13)25-17/h3-6,18-20,22H,1-2H3

> <PUBCHEM_IUPAC_INCHIKEY>
UZMAPBJVXOGOFT-UHFFFAOYSA-N

> <PUBCHEM_XLOGP3>
1.8

> <PUBCHEM_EXACT_MASS>
346.068867

> <PUBCHEM_MOLECULAR_FORMULA>
C17H14O8

> <PUBCHEM_MOLECULAR_WEIGHT>
346.28826

> <PUBCHEM_OPENEYE_CAN_SMILES>
COC1=CC(=CC(=C1O)OC)C2=C(C(=O)C3=C(C=C(C=C3O2)O)O)O

> <PUBCHEM_OPENEYE_ISO_SMILES>
COC1=CC(=CC(=C1O)OC)C2=C(C(=O)C3=C(C=C(C=C3O2)O)O)O

> <PUBCHEM_CACTVS_TPSA>
126

> <PUBCHEM_MONOISOTOPIC_WEIGHT>
346.068867

> <PUBCHEM_TOTAL_CHARGE>
0

> <PUBCHEM_HEAVY_ATOM_COUNT>
25

> <PUBCHEM_ATOM_DEF_STEREO_COUNT>
0

> <PUBCHEM_ATOM_UDEF_STEREO_COUNT>
0

> <PUBCHEM_BOND_DEF_STEREO_COUNT>
0

> <PUBCHEM_BOND_UDEF_STEREO_COUNT>
0

> <PUBCHEM_ISOTOPIC_ATOM_COUNT>
0

> <PUBCHEM_COMPONENT_COUNT>
1

> <PUBCHEM_CACTVS_TAUTO_COUNT>
126

> <PUBCHEM_COORDINATE_TYPE>
1
5
255

> <PUBCHEM_BONDANNOTATIONS>
1  12  8
1  9  8
10  15  8
10  16  8
11  12  8
11  14  8
11  17  8
12  18  8
13  14  8
15  20  8
16  19  8
17  23  8
18  22  8
19  21  8
20  21  8
22  23  8
9  13  8

$$$$

