9543
  -OEChem-06261203483D

 32 31  0     0  0  0  0  0  0999 V2000
    7.1804   -0.6555    0.1774 Br  0  0  0  0  0  0  0  0  0  0  0  0
   -5.8911   -1.1649   -0.4791 F   0  0  0  0  0  0  0  0  0  0  0  0
    0.5120    0.5617   -0.1008 C   0  0  0  0  0  0  0  0  0  0  0  0
   -0.7994   -0.1683    0.2080 C   0  0  0  0  0  0  0  0  0  0  0  0
    1.7551   -0.3058    0.1102 C   0  0  0  0  0  0  0  0  0  0  0  0
   -2.0477    0.6709   -0.0737 C   0  0  0  0  0  0  0  0  0  0  0  0
    3.0670    0.4257   -0.1962 C   0  0  0  0  0  0  0  0  0  0  0  0
   -3.3228   -0.0975    0.2819 C   0  0  0  0  0  0  0  0  0  0  0  0
    4.3510   -0.3709    0.0531 C   0  0  0  0  0  0  0  0  0  0  0  0
   -4.5737    0.7262   -0.0290 C   0  0  0  0  0  0  0  0  0  0  0  0
    5.6124    0.4234   -0.2414 C   0  0  0  0  0  0  0  0  0  0  0  0
   -5.8431   -0.0449    0.2897 C   0  0  0  0  0  0  0  0  0  0  0  0
    0.4923    0.9098   -1.1409 H   0  0  0  0  0  0  0  0  0  0  0  0
    0.5818    1.4558    0.5308 H   0  0  0  0  0  0  0  0  0  0  0  0
   -0.8446   -1.0887   -0.3876 H   0  0  0  0  0  0  0  0  0  0  0  0
   -0.7963   -0.4738    1.2617 H   0  0  0  0  0  0  0  0  0  0  0  0
    1.7761   -0.6559    1.1495 H   0  0  0  0  0  0  0  0  0  0  0  0
    1.6880   -1.1986   -0.5234 H   0  0  0  0  0  0  0  0  0  0  0  0
   -2.0669    0.9512   -1.1337 H   0  0  0  0  0  0  0  0  0  0  0  0
   -2.0036    1.6003    0.5066 H   0  0  0  0  0  0  0  0  0  0  0  0
    3.0516    0.7490   -1.2449 H   0  0  0  0  0  0  0  0  0  0  0  0
    3.1038    1.3413    0.4081 H   0  0  0  0  0  0  0  0  0  0  0  0
   -3.3105   -0.3597    1.3468 H   0  0  0  0  0  0  0  0  0  0  0  0
   -3.3514   -1.0378   -0.2820 H   0  0  0  0  0  0  0  0  0  0  0  0
    4.3595   -0.7057    1.0983 H   0  0  0  0  0  0  0  0  0  0  0  0
    4.3319   -1.2797   -0.5617 H   0  0  0  0  0  0  0  0  0  0  0  0
   -4.5596    1.6597    0.5446 H   0  0  0  0  0  0  0  0  0  0  0  0
   -4.5755    0.9881   -1.0935 H   0  0  0  0  0  0  0  0  0  0  0  0
    5.6879    0.6942   -1.2978 H   0  0  0  0  0  0  0  0  0  0  0  0
    5.6813    1.3243    0.3741 H   0  0  0  0  0  0  0  0  0  0  0  0
   -5.8783   -0.3503    1.3396 H   0  0  0  0  0  0  0  0  0  0  0  0
   -6.7299    0.5547    0.0659 H   0  0  0  0  0  0  0  0  0  0  0  0
  1 11  1  0  0  0  0
  2 12  1  0  0  0  0
  3  4  1  0  0  0  0
  3  5  1  0  0  0  0
  3 13  1  0  0  0  0
  3 14  1  0  0  0  0
  4  6  1  0  0  0  0
  4 15  1  0  0  0  0
  4 16  1  0  0  0  0
  5  7  1  0  0  0  0
  5 17  1  0  0  0  0
  5 18  1  0  0  0  0
  6  8  1  0  0  0  0
  6 19  1  0  0  0  0
  6 20  1  0  0  0  0
  7  9  1  0  0  0  0
  7 21  1  0  0  0  0
  7 22  1  0  0  0  0
  8 10  1  0  0  0  0
  8 23  1  0  0  0  0
  8 24  1  0  0  0  0
  9 11  1  0  0  0  0
  9 25  1  0  0  0  0
  9 26  1  0  0  0  0
 10 12  1  0  0  0  0
 10 27  1  0  0  0  0
 10 28  1  0  0  0  0
 11 29  1  0  0  0  0
 11 30  1  0  0  0  0
 12 31  1  0  0  0  0
 12 32  1  0  0  0  0
M  END
> <PUBCHEM_COMPOUND_CID>
9543

> <PUBCHEM_CONFORMER_RMSD>
0.8

> <PUBCHEM_CONFORMER_DIVERSEORDER>
1
79
58
77
17
236
243
217
164
109
274
3
21
441
449
15
280
353
294
73
381
215
50
115
290
44
24
64
4
43
172
240
281
111
175
191
446
238
192
197
46
208
47
403
335
369
145
393
32
116
82
287
163
438
176
52
349
126
328
181
29
39
399
265
69
342
146
148
350
28
410
170
268
110
22
121
379
169
9
18
34
150
196
327
35
97
291
71
186
311
365
351
322
131
147
53
315
188
130
211
258
16
392
278
62
210
382
72
283
112
61
436
198
313
94
389
201
295
247
319
204
103
135
289
81
453
199
117
448
180
219
331
354
184
66
205
223
269
297
25
33
317
435
27
106
36
153
286
416
372
90
312
244
212
88
235
239
241
13
451
266
54
40
343
296
452
136
119
318
304
338
391
245
252
14
387
5
407
168
443
298
337
388
149
442
432
356
425
118
246
218
209
10
151
45
390
31
20
74
348
124
213
8
361
320
158
384
421
42
423
326
230
84
264
362
433
277
75
30
93
360
394
87
229
108
333
12
7
138
430
132
385
233
214
380
308
203
363
78
143
134
352
202
222
133
83
418
450
182
253
412
371
386
220
224
19
200
285
267
161
120
284
96
56
11
206
406
260
65
216
165
98
59
166
125
67
228
306
378
330
107
364
431
323
139
408
156
367
178
114
189
374
80
105
157
424
187
401
262
339
445
142
104
225
2
415
358
437
324
85
160
102
292
249
60
429
122
346
310
288
336
127
255
174
68
400
113
251
95
314
141
128
370
26
23
167
404
270
92
272
321
307
227
41
439
250
334
422
428
395
299
91
257
402
300
193
99
440
194
305
221
38
48
183
190
177
366
263
357
254
427
226
51
49
237
162
373
302
86
447
171
271
405
185
275
279
434
282
316
37
76
129
375
100
332
329
341
273
234
101
340
409
89
293
63
396
155
137
344
57
232
159
377
398
140
411
444
173
123
154
248
6
301
276
242
144
309
345
419
70
325
359
376
195
179
261
231
256
55
207
355
347
383
397
259
417
368
420
303
413
426
152
414

> <PUBCHEM_MMFF94_PARTIAL_CHARGES>
4
1 -0.23
11 0.23
12 0.34
2 -0.34

> <PUBCHEM_EFFECTIVE_ROTOR_COUNT>
9

> <PUBCHEM_PHARMACOPHORE_FEATURES>
1
1 1 hydrophobe

> <PUBCHEM_HEAVY_ATOM_COUNT>
12

> <PUBCHEM_ATOM_DEF_STEREO_COUNT>
0

> <PUBCHEM_ATOM_UDEF_STEREO_COUNT>
0

> <PUBCHEM_BOND_DEF_STEREO_COUNT>
0

> <PUBCHEM_BOND_UDEF_STEREO_COUNT>
0

> <PUBCHEM_ISOTOPIC_ATOM_COUNT>
0

> <PUBCHEM_COMPONENT_COUNT>
1

> <PUBCHEM_CACTVS_TAUTO_COUNT>
1

> <PUBCHEM_CONFORMER_ID>
0000254700000001

> <PUBCHEM_MMFF94_ENERGY>
-0.3396

> <PUBCHEM_FEATURE_SELFOVERLAP>
5.074

> <PUBCHEM_SHAPE_FINGERPRINT>
12091667 2 18059855078186975577
13533116 47 16916797326974166416
14123238 8 18202001031825239081
1420 363 16660359277277166460
14251718 22 18408040710424404257
14251764 18 18343865516084727056
14251764 46 18410012143310148198
14729087 3 10663822961813378646
17834072 33 18335701607087119581
17834072 8 15913326892431720914
17834076 25 18408885144350594240
20621476 38 18337109090363408542
20621476 8 17417813992977279973
20645477 70 18340486793962126726
20767249 13 18341892995664967304
20767249 213 8574709100845579986
21130983 4 6843918382768123250
23035841 295 18335420170860059994
23402539 116 18411984667629528925
23521765 1 18335420175054657616
33532 11 18337673126917285910
42788 4 18341894099735390924
8209 1 17989205949579637245

> <PUBCHEM_SHAPE_MULTIPOLES>
245.62
19.19
0.9
0.66
6.11
0.05
-0.01
3.77
0.17
-0.2
0.05
-0.01
0.02
-0.34

> <PUBCHEM_SHAPE_SELFOVERLAP>
423.929

> <PUBCHEM_SHAPE_VOLUME>
164.1

> <PUBCHEM_COORDINATE_TYPE>
2
5
10

$$$$

