10009567
  -OEChem-07051213032D

 83 87  0     1  0  0  0  0  0999 V2000
    5.5320    3.0000    0.0000 O   0  0  0  0  0  0  0  0  0  0  0  0
    5.5320    0.0000    0.0000 O   0  0  0  0  0  0  0  0  0  0  0  0
   12.6634   -1.0492    0.0000 O   0  0  0  0  0  0  0  0  0  0  0  0
    4.1482   -0.4064    0.0000 O   0  0  0  0  0  0  0  0  0  0  0  0
   11.8031    0.4542    0.0000 O   0  0  0  0  0  0  0  0  0  0  0  0
   10.0595   -2.5391    0.0000 O   0  0  0  0  0  0  0  0  0  0  0  0
   11.7877   -3.5458    0.0000 O   0  0  0  0  0  0  0  0  0  0  0  0
   10.0673   -0.5392    0.0000 O   0  0  0  0  0  0  0  0  0  0  0  0
    6.3981   -0.5000    0.0000 O   0  0  0  0  0  0  0  0  0  0  0  0
    2.8680    0.4758    0.0000 O   0  0  0  0  0  0  0  0  0  0  0  0
    6.3981    3.5000    0.0000 O   0  0  0  0  0  0  0  0  0  0  0  0
    4.0042    3.3081    0.0000 O   0  0  0  0  0  0  0  0  0  0  0  0
    8.1465    3.5346    0.0000 O   0  0  0  0  0  0  0  0  0  0  0  0
   11.7993    3.5458    0.0000 O   0  0  0  0  0  0  0  0  0  0  0  0
   12.6711    2.0492    0.0000 O   0  0  0  0  0  0  0  0  0  0  0  0
    5.5320    1.0000    0.0000 C   0  0  1  0  0  0  0  0  0  0  0  0
    5.5320    2.0000    0.0000 C   0  0  1  0  0  0  0  0  0  0  0  0
    4.6381    0.4653    0.0000 C   0  0  1  0  0  0  0  0  0  0  0  0
    6.3981    0.5000    0.0000 C   0  0  0  0  0  0  0  0  0  0  0  0
    6.3981    2.5000    0.0000 C   0  0  0  0  0  0  0  0  0  0  0  0
    7.2641    1.0000    0.0000 C   0  0  0  0  0  0  0  0  0  0  0  0
   10.9275   -2.0425    0.0000 C   0  0  2  0  0  0  0  0  0  0  0  0
    7.2641    2.0000    0.0000 C   0  0  0  0  0  0  0  0  0  0  0  0
   11.7916   -2.5458    0.0000 C   0  0  2  0  0  0  0  0  0  0  0  0
   10.9313   -1.0425    0.0000 C   0  0  2  0  0  0  0  0  0  0  0  0
    4.6381    2.5346    0.0000 C   0  0  0  0  0  0  0  0  0  0  0  0
   12.6595   -2.0492    0.0000 C   0  0  2  0  0  0  0  0  0  0  0  0
   11.7993   -0.5458    0.0000 C   0  0  1  0  0  0  0  0  0  0  0  0
    3.7320    0.9792    0.0000 C   0  0  0  0  0  0  0  0  0  0  0  0
    3.7320    2.0208    0.0000 C   0  0  0  0  0  0  0  0  0  0  0  0
    8.1580    2.5346    0.0000 C   0  0  0  0  0  0  0  0  0  0  0  0
    8.1580    0.4653    0.0000 C   0  0  0  0  0  0  0  0  0  0  0  0
    9.0641    2.0208    0.0000 C   0  0  0  0  0  0  0  0  0  0  0  0
    9.0641    0.9792    0.0000 C   0  0  0  0  0  0  0  0  0  0  0  0
   10.9391    0.9575    0.0000 C   0  0  0  0  0  0  0  0  0  0  0  0
   13.5236   -2.5525    0.0000 C   0  0  0  0  0  0  0  0  0  0  0  0
    9.9953    2.5777    0.0000 C   0  0  0  0  0  0  0  0  0  0  0  0
    9.9953    0.4223    0.0000 C   0  0  0  0  0  0  0  0  0  0  0  0
   10.9391    2.0425    0.0000 C   0  0  0  0  0  0  0  0  0  0  0  0
    5.1900    3.9397    0.0000 C   0  0  0  0  0  0  0  0  0  0  0  0
    9.9837    3.5777    0.0000 C   0  0  0  0  0  0  0  0  0  0  0  0
   10.0557   -3.5391    0.0000 C   0  0  0  0  0  0  0  0  0  0  0  0
   12.6518   -4.0492    0.0000 C   0  0  0  0  0  0  0  0  0  0  0  0
    9.1993   -1.0358    0.0000 C   0  0  0  0  0  0  0  0  0  0  0  0
   11.8031    2.5458    0.0000 C   0  0  0  0  0  0  0  0  0  0  0  0
    2.0000    0.9725    0.0000 C   0  0  0  0  0  0  0  0  0  0  0  0
   12.6634    4.0492    0.0000 C   0  0  0  0  0  0  0  0  0  0  0  0
    5.0824    0.0329    0.0000 H   0  0  0  0  0  0  0  0  0  0  0  0
   10.3918   -1.7304    0.0000 H   0  0  0  0  0  0  0  0  0  0  0  0
   12.3273   -2.8579    0.0000 H   0  0  0  0  0  0  0  0  0  0  0  0
   10.9337   -0.4225    0.0000 H   0  0  0  0  0  0  0  0  0  0  0  0
   13.1977   -1.7412    0.0000 H   0  0  0  0  0  0  0  0  0  0  0  0
   11.2636   -0.2338    0.0000 H   0  0  0  0  0  0  0  0  0  0  0  0
    3.1963    2.3329    0.0000 H   0  0  0  0  0  0  0  0  0  0  0  0
    8.1509   -0.1546    0.0000 H   0  0  0  0  0  0  0  0  0  0  0  0
    5.2220   -0.5369    0.0000 H   0  0  0  0  0  0  0  0  0  0  0  0
   13.2115   -3.0882    0.0000 H   0  0  0  0  0  0  0  0  0  0  0  0
   14.0594   -2.8646    0.0000 H   0  0  0  0  0  0  0  0  0  0  0  0
   13.8357   -2.0168    0.0000 H   0  0  0  0  0  0  0  0  0  0  0  0
    3.5282   -0.4136    0.0000 H   0  0  0  0  0  0  0  0  0  0  0  0
    9.9881   -0.1977    0.0000 H   0  0  0  0  0  0  0  0  0  0  0  0
    5.7726    4.1517    0.0000 H   0  0  0  0  0  0  0  0  0  0  0  0
    4.9780    4.5223    0.0000 H   0  0  0  0  0  0  0  0  0  0  0  0
    4.6074    3.7276    0.0000 H   0  0  0  0  0  0  0  0  0  0  0  0
   10.6037    3.5848    0.0000 H   0  0  0  0  0  0  0  0  0  0  0  0
    9.9765    4.1976    0.0000 H   0  0  0  0  0  0  0  0  0  0  0  0
    9.3637    3.5705    0.0000 H   0  0  0  0  0  0  0  0  0  0  0  0
    8.6798    3.8508    0.0000 H   0  0  0  0  0  0  0  0  0  0  0  0
    9.4357   -3.5368    0.0000 H   0  0  0  0  0  0  0  0  0  0  0  0
   10.0533   -4.1591    0.0000 H   0  0  0  0  0  0  0  0  0  0  0  0
   10.6757   -3.5415    0.0000 H   0  0  0  0  0  0  0  0  0  0  0  0
   12.3397   -4.5849    0.0000 H   0  0  0  0  0  0  0  0  0  0  0  0
   13.1876   -4.3612    0.0000 H   0  0  0  0  0  0  0  0  0  0  0  0
   12.9639   -3.5134    0.0000 H   0  0  0  0  0  0  0  0  0  0  0  0
    8.8914   -0.4977    0.0000 H   0  0  0  0  0  0  0  0  0  0  0  0
    8.6612   -1.3438    0.0000 H   0  0  0  0  0  0  0  0  0  0  0  0
    9.5072   -1.5739    0.0000 H   0  0  0  0  0  0  0  0  0  0  0  0
    2.3079    1.5106    0.0000 H   0  0  0  0  0  0  0  0  0  0  0  0
    1.4619    1.2804    0.0000 H   0  0  0  0  0  0  0  0  0  0  0  0
    1.6921    0.4344    0.0000 H   0  0  0  0  0  0  0  0  0  0  0  0
   12.9754    3.5134    0.0000 H   0  0  0  0  0  0  0  0  0  0  0  0
   13.1991    4.3612    0.0000 H   0  0  0  0  0  0  0  0  0  0  0  0
   12.3513    4.5849    0.0000 H   0  0  0  0  0  0  0  0  0  0  0  0
 17  1  1  6  0  0  0
  1 40  1  0  0  0  0
 16  2  1  6  0  0  0
  2 56  1  0  0  0  0
  3 27  1  0  0  0  0
  3 28  1  0  0  0  0
 18  4  1  6  0  0  0
  4 60  1  0  0  0  0
 28  5  1  6  0  0  0
  5 35  1  0  0  0  0
 22  6  1  1  0  0  0
  6 42  1  0  0  0  0
 24  7  1  6  0  0  0
  7 43  1  0  0  0  0
 25  8  1  1  0  0  0
  8 44  1  0  0  0  0
  9 19  2  0  0  0  0
 10 29  1  0  0  0  0
 10 46  1  0  0  0  0
 11 20  2  0  0  0  0
 12 26  2  0  0  0  0
 13 31  1  0  0  0  0
 13 68  1  0  0  0  0
 14 45  1  0  0  0  0
 14 47  1  0  0  0  0
 15 45  2  0  0  0  0
 16 17  1  0  0  0  0
 16 18  1  0  0  0  0
 16 19  1  0  0  0  0
 17 20  1  0  0  0  0
 17 26  1  0  0  0  0
 18 29  1  0  0  0  0
 18 48  1  0  0  0  0
 19 21  1  0  0  0  0
 20 23  1  0  0  0  0
 21 23  2  0  0  0  0
 21 32  1  0  0  0  0
 22 24  1  0  0  0  0
 22 25  1  0  0  0  0
 22 49  1  0  0  0  0
 23 31  1  0  0  0  0
 24 27  1  0  0  0  0
 24 50  1  0  0  0  0
 25 28  1  0  0  0  0
 25 51  1  0  0  0  0
 26 30  1  0  0  0  0
 27 36  1  1  0  0  0
 27 52  1  0  0  0  0
 28 53  1  0  0  0  0
 29 30  2  0  0  0  0
 30 54  1  0  0  0  0
 31 33  2  0  0  0  0
 32 34  2  0  0  0  0
 32 55  1  0  0  0  0
 33 34  1  0  0  0  0
 33 37  1  0  0  0  0
 34 38  1  0  0  0  0
 35 38  2  0  0  0  0
 35 39  1  0  0  0  0
 36 57  1  0  0  0  0
 36 58  1  0  0  0  0
 36 59  1  0  0  0  0
 37 39  2  0  0  0  0
 37 41  1  0  0  0  0
 38 61  1  0  0  0  0
 39 45  1  0  0  0  0
 40 62  1  0  0  0  0
 40 63  1  0  0  0  0
 40 64  1  0  0  0  0
 41 65  1  0  0  0  0
 41 66  1  0  0  0  0
 41 67  1  0  0  0  0
 42 69  1  0  0  0  0
 42 70  1  0  0  0  0
 42 71  1  0  0  0  0
 43 72  1  0  0  0  0
 43 73  1  0  0  0  0
 43 74  1  0  0  0  0
 44 75  1  0  0  0  0
 44 76  1  0  0  0  0
 44 77  1  0  0  0  0
 46 78  1  0  0  0  0
 46 79  1  0  0  0  0
 46 80  1  0  0  0  0
 47 81  1  0  0  0  0
 47 82  1  0  0  0  0
 47 83  1  0  0  0  0
M  END
> <PUBCHEM_COMPOUND_CID>
10009567

> <PUBCHEM_COMPOUND_CANONICALIZED>
1

> <PUBCHEM_CACTVS_COMPLEXITY>
1280

> <PUBCHEM_CACTVS_HBOND_ACCEPTOR>
15

> <PUBCHEM_CACTVS_HBOND_DONOR>
3

> <PUBCHEM_CACTVS_ROTATABLE_BOND>
9

> <PUBCHEM_CACTVS_SUBSKEYS>
AAADcfB8PAAAAAAAAAAAAAAAAAAAAAAAAAA0YMECAAAAAADBUAAAGgAACAAADFSwmAMyDsAABgCIAqDSCAICCAAkIAAAiAFGCMgdNzaONR6ieWCl4BEPuYfL7PzO4AADAAAYAADAAAYAADCAAAAAAAAAAA==

> <PUBCHEM_IUPAC_OPENEYE_NAME>
methyl (6aR,7S,10aR)-6a,7,12-trihydroxy-8,10a-dimethoxy-1-methyl-6,10,11-trioxo-3-[(2S,3R,4R,5S,6S)-3,4,5-trimethoxy-6-methyl-tetrahydropyran-2-yl]oxy-7H-tetracene-2-carboxylate

> <PUBCHEM_IUPAC_CAS_NAME>
(6aR,7S,10aR)-6a,7,12-trihydroxy-8,10a-dimethoxy-1-methyl-6,10,11-trioxo-3-[[(2S,3R,4R,5S,6S)-3,4,5-trimethoxy-6-methyl-2-oxanyl]oxy]-7H-tetracene-2-carboxylic acid methyl ester

> <PUBCHEM_IUPAC_NAME>
methyl (6aR,7S,10aR)-6a,7,12-trihydroxy-8,10a-dimethoxy-1-methyl-6,10,11-trioxo-3-[(2S,3R,4R,5S,6S)-3,4,5-trimethoxy-6-methyloxan-2-yl]oxy-7H-tetracene-2-carboxylate

> <PUBCHEM_IUPAC_SYSTEMATIC_NAME>
methyl (6aR,7S,10aR)-8,10a-dimethoxy-1-methyl-6a,7,12-tris(oxidanyl)-6,10,11-tris(oxidanylidene)-3-[(2S,3R,4R,5S,6S)-3,4,5-trimethoxy-6-methyl-oxan-2-yl]oxy-7H-tetracene-2-carboxylate

> <PUBCHEM_IUPAC_TRADITIONAL_NAME>
(6aR,7S,10aR)-6a,7,12-trihydroxy-6,10,11-triketo-8,10a-dimethoxy-1-methyl-3-[(2S,3R,4R,5S,6S)-3,4,5-trimethoxy-6-methyl-tetrahydropyran-2-yl]oxy-7H-tetracene-2-carboxylic acid methyl ester

> <PUBCHEM_IUPAC_INCHI>
InChI=1S/C32H36O15/c1-12-19-14(10-16(20(12)29(38)44-7)47-30-25(43-6)24(42-5)23(41-4)13(2)46-30)9-15-21(22(19)34)28(37)32(45-8)18(33)11-17(40-3)27(36)31(32,39)26(15)35/h9-11,13,23-25,27,30,34,36,39H,1-8H3/t13-,23-,24+,25+,27+,30-,31+,32+/m0/s1

> <PUBCHEM_IUPAC_INCHIKEY>
OYEXGNNKRQPUBW-FJYHMNRNSA-N

> <PUBCHEM_XLOGP3_AA>
1

> <PUBCHEM_EXACT_MASS>
660.20542

> <PUBCHEM_MOLECULAR_FORMULA>
C32H36O15

> <PUBCHEM_MOLECULAR_WEIGHT>
660.61924

> <PUBCHEM_OPENEYE_CAN_SMILES>
CC1C(C(C(C(O1)OC2=CC3=CC4=C(C(=C3C(=C2C(=O)OC)C)O)C(=O)C5(C(=O)C=C(C(C5(C4=O)O)O)OC)OC)OC)OC)OC

> <PUBCHEM_OPENEYE_ISO_SMILES>
C[C@H]1[C@@H]([C@H]([C@H]([C@@H](O1)OC2=CC3=CC4=C(C(=C3C(=C2C(=O)OC)C)O)C(=O)[C@@]5(C(=O)C=C([C@H]([C@@]5(C4=O)O)O)OC)OC)OC)OC)OC

> <PUBCHEM_CACTVS_TPSA>
203

> <PUBCHEM_MONOISOTOPIC_WEIGHT>
660.20542

> <PUBCHEM_TOTAL_CHARGE>
0

> <PUBCHEM_HEAVY_ATOM_COUNT>
47

> <PUBCHEM_ATOM_DEF_STEREO_COUNT>
8

> <PUBCHEM_ATOM_UDEF_STEREO_COUNT>
0

> <PUBCHEM_BOND_DEF_STEREO_COUNT>
0

> <PUBCHEM_BOND_UDEF_STEREO_COUNT>
0

> <PUBCHEM_ISOTOPIC_ATOM_COUNT>
0

> <PUBCHEM_COMPONENT_COUNT>
1

> <PUBCHEM_CACTVS_TAUTO_COUNT>
28

> <PUBCHEM_COORDINATE_TYPE>
1
5
255

> <PUBCHEM_BONDANNOTATIONS>
17  1  6
16  2  6
21  23  8
21  32  8
23  31  8
27  36  5
31  33  8
32  34  8
33  34  8
33  37  8
34  38  8
35  38  8
35  39  8
37  39  8
18  4  6
28  5  6
22  6  5
24  7  6
25  8  5

$$$$

