854055
  -OEChem-06241222473D

 30 30  0     1  0  0  0  0  0999 V2000
   -1.1684    0.5132   -0.1741 O   0  0  0  0  0  0  0  0  0  0  0  0
    3.4000    1.1830    1.0019 O   0  0  0  0  0  0  0  0  0  0  0  0
   -0.8395   -1.6835    0.3970 O   0  0  0  0  0  0  0  0  0  0  0  0
    0.9558   -0.3206   -0.1108 N   0  0  0  0  0  0  0  0  0  0  0  0
    3.0232    0.7973   -0.3157 C   0  0  1  0  0  0  0  0  0  0  0  0
    3.2453   -0.6997   -0.5148 C   0  0  0  0  0  0  0  0  0  0  0  0
    1.5207    0.9675   -0.5057 C   0  0  0  0  0  0  0  0  0  0  0  0
    1.9900   -1.3249    0.0800 C   0  0  0  0  0  0  0  0  0  0  0  0
   -2.5802    0.3297   -0.0186 C   0  0  0  0  0  0  0  0  0  0  0  0
   -0.3910   -0.5881    0.0663 C   0  0  0  0  0  0  0  0  0  0  0  0
   -2.8590   -0.0981    1.4215 C   0  0  0  0  0  0  0  0  0  0  0  0
   -3.2540    1.6660   -0.3224 C   0  0  0  0  0  0  0  0  0  0  0  0
   -3.0430   -0.7419   -1.0046 C   0  0  0  0  0  0  0  0  0  0  0  0
    3.6047    1.3998   -1.0197 H   0  0  0  0  0  0  0  0  0  0  0  0
    4.1508   -1.0763   -0.0309 H   0  0  0  0  0  0  0  0  0  0  0  0
    3.2929   -0.9264   -1.5865 H   0  0  0  0  0  0  0  0  0  0  0  0
    1.0850    1.7682    0.0991 H   0  0  0  0  0  0  0  0  0  0  0  0
    1.2635    1.1206   -1.5592 H   0  0  0  0  0  0  0  0  0  0  0  0
    1.7102   -2.2682   -0.3983 H   0  0  0  0  0  0  0  0  0  0  0  0
    2.0953   -1.4933    1.1574 H   0  0  0  0  0  0  0  0  0  0  0  0
    3.1931    2.1282    1.0988 H   0  0  0  0  0  0  0  0  0  0  0  0
   -2.2803    0.5061    2.1298 H   0  0  0  0  0  0  0  0  0  0  0  0
   -3.9215    0.0330    1.6596 H   0  0  0  0  0  0  0  0  0  0  0  0
   -2.6394   -1.1468    1.6365 H   0  0  0  0  0  0  0  0  0  0  0  0
   -3.0149    1.9990   -1.3389 H   0  0  0  0  0  0  0  0  0  0  0  0
   -2.8879    2.4477    0.3533 H   0  0  0  0  0  0  0  0  0  0  0  0
   -4.3428    1.6059   -0.2247 H   0  0  0  0  0  0  0  0  0  0  0  0
   -2.8002   -1.7664   -0.7120 H   0  0  0  0  0  0  0  0  0  0  0  0
   -4.1341   -0.7167   -1.1120 H   0  0  0  0  0  0  0  0  0  0  0  0
   -2.6047   -0.5774   -1.9959 H   0  0  0  0  0  0  0  0  0  0  0  0
  1  9  1  0  0  0  0
  1 10  1  0  0  0  0
  2  5  1  0  0  0  0
  2 21  1  0  0  0  0
  3 10  2  0  0  0  0
  4  7  1  0  0  0  0
  4  8  1  0  0  0  0
  4 10  1  0  0  0  0
  5  6  1  0  0  0  0
  5  7  1  0  0  0  0
  5 14  1  0  0  0  0
  6  8  1  0  0  0  0
  6 15  1  0  0  0  0
  6 16  1  0  0  0  0
  7 17  1  0  0  0  0
  7 18  1  0  0  0  0
  8 19  1  0  0  0  0
  8 20  1  0  0  0  0
  9 11  1  0  0  0  0
  9 12  1  0  0  0  0
  9 13  1  0  0  0  0
 11 22  1  0  0  0  0
 11 23  1  0  0  0  0
 11 24  1  0  0  0  0
 12 25  1  0  0  0  0
 12 26  1  0  0  0  0
 12 27  1  0  0  0  0
 13 28  1  0  0  0  0
 13 29  1  0  0  0  0
 13 30  1  0  0  0  0
M  END
> <PUBCHEM_COMPOUND_CID>
854055

> <PUBCHEM_CONFORMER_RMSD>
0.6

> <PUBCHEM_CONFORMER_DIVERSEORDER>
1
10
5
9
18
15
11
6
7
8
4
12
17
16
14
2
3
13

> <PUBCHEM_MMFF94_PARTIAL_CHARGES>
10
1 -0.43
10 0.78
2 -0.68
21 0.4
3 -0.57
4 -0.66
5 0.28
7 0.3
8 0.3
9 0.28

> <PUBCHEM_EFFECTIVE_ROTOR_COUNT>
4

> <PUBCHEM_PHARMACOPHORE_FEATURES>
5
1 2 acceptor
1 2 donor
1 3 acceptor
4 9 11 12 13 hydrophobe
5 4 5 6 7 8 rings

> <PUBCHEM_HEAVY_ATOM_COUNT>
13

> <PUBCHEM_ATOM_DEF_STEREO_COUNT>
1

> <PUBCHEM_ATOM_UDEF_STEREO_COUNT>
0

> <PUBCHEM_BOND_DEF_STEREO_COUNT>
0

> <PUBCHEM_BOND_UDEF_STEREO_COUNT>
0

> <PUBCHEM_ISOTOPIC_ATOM_COUNT>
0

> <PUBCHEM_COMPONENT_COUNT>
1

> <PUBCHEM_CACTVS_TAUTO_COUNT>
1

> <PUBCHEM_CONFORMER_ID>
000D082700000001

> <PUBCHEM_MMFF94_ENERGY>
31.7107

> <PUBCHEM_FEATURE_SELFOVERLAP>
25.371

> <PUBCHEM_SHAPE_FINGERPRINT>
10608611 8 18411419501146025940
10857977 72 17346587565484704739
10922523 26 18339637953124580741
124424 183 16845307024415832012
12932764 1 18333725831846774175
13296908 3 18131062753419663754
13380535 76 18341055125145430178
13922767 16 18337396057906289464
14144814 61 18342175565879385546
14325111 11 18412262852291830653
14897335 6 18409455752051551198
15775835 57 18334293188748013925
16945 1 18272083855655861422
17844478 74 17988346127249842945
18186145 218 17967807267069849536
20279233 1 17846499227135045523
20281407 28 7565345327228732855
20645477 70 18264210373133092158
20653085 51 18335978774522706195
20715346 28 18201992239932264683
21028194 46 18408598171414935047
230 275 18343582928241988260
23402539 116 18334304188243622732
23402655 69 18334295404640051988
2748010 2 18200029684691024917
305870 269 18129950086338806235
3248919 1 17632293471291574607
7364860 26 18263365953004387598
81228 2 17909824336569550931

> <PUBCHEM_SHAPE_MULTIPOLES>
244.94
6.57
1.5
0.97
0.56
0.04
0.18
1.49
0.01
-0.02
-0.01
-0.44
-0.01
0.26

> <PUBCHEM_SHAPE_SELFOVERLAP>
487.877

> <PUBCHEM_SHAPE_VOLUME>
148

> <PUBCHEM_COORDINATE_TYPE>
2
5
10

$$$$

