36304
  -OEChem-07051213053D

 22 23  0     0  0  0  0  0  0999 V2000
   -0.5361    2.3861   -0.0002 Cl  0  0  0  0  0  0  0  0  0  0  0  0
   -3.6816    2.0387    0.0010 Cl  0  0  0  0  0  0  0  0  0  0  0  0
   -4.9078   -0.9065   -0.0019 Cl  0  0  0  0  0  0  0  0  0  0  0  0
    5.5211    0.0932   -0.0005 Cl  0  0  0  0  0  0  0  0  0  0  0  0
   -0.4219   -0.3233    0.0003 C   0  0  0  0  0  0  0  0  0  0  0  0
    1.0214   -0.2211    0.0002 C   0  0  0  0  0  0  0  0  0  0  0  0
   -1.2539    0.7995    0.0007 C   0  0  0  0  0  0  0  0  0  0  0  0
   -0.9858   -1.6016    0.0001 C   0  0  0  0  0  0  0  0  0  0  0  0
    1.7168   -0.1715   -1.2079 C   0  0  0  0  0  0  0  0  0  0  0  0
    1.7174   -0.1731    1.2081 C   0  0  0  0  0  0  0  0  0  0  0  0
   -2.6401    0.6448    0.0005 C   0  0  0  0  0  0  0  0  0  0  0  0
   -2.3720   -1.7564   -0.0001 C   0  0  0  0  0  0  0  0  0  0  0  0
   -3.1991   -0.6332    0.0001 C   0  0  0  0  0  0  0  0  0  0  0  0
    3.1083   -0.0740   -1.2081 C   0  0  0  0  0  0  0  0  0  0  0  0
    3.1089   -0.0755    1.2078 C   0  0  0  0  0  0  0  0  0  0  0  0
    3.8043   -0.0260   -0.0003 C   0  0  0  0  0  0  0  0  0  0  0  0
   -0.3589   -2.4907   -0.0002 H   0  0  0  0  0  0  0  0  0  0  0  0
    1.1896   -0.2076   -2.1584 H   0  0  0  0  0  0  0  0  0  0  0  0
    1.1907   -0.2105    2.1588 H   0  0  0  0  0  0  0  0  0  0  0  0
   -2.7898   -2.7601   -0.0006 H   0  0  0  0  0  0  0  0  0  0  0  0
    3.6370   -0.0364   -2.1571 H   0  0  0  0  0  0  0  0  0  0  0  0
    3.6381   -0.0390    2.1565 H   0  0  0  0  0  0  0  0  0  0  0  0
  1  7  1  0  0  0  0
  2 11  1  0  0  0  0
  3 13  1  0  0  0  0
  4 16  1  0  0  0  0
  5  6  1  0  0  0  0
  5  7  2  0  0  0  0
  5  8  1  0  0  0  0
  6  9  2  0  0  0  0
  6 10  1  0  0  0  0
  7 11  1  0  0  0  0
  8 12  2  0  0  0  0
  8 17  1  0  0  0  0
  9 14  1  0  0  0  0
  9 18  1  0  0  0  0
 10 15  2  0  0  0  0
 10 19  1  0  0  0  0
 11 13  2  0  0  0  0
 12 13  1  0  0  0  0
 12 20  1  0  0  0  0
 14 16  2  0  0  0  0
 14 21  1  0  0  0  0
 15 16  1  0  0  0  0
 15 22  1  0  0  0  0
M  END
> <PUBCHEM_COMPOUND_CID>
36304

> <PUBCHEM_CONFORMER_RMSD>
0.6

> <PUBCHEM_CONFORMER_DIVERSEORDER>
1

> <PUBCHEM_MMFF94_PARTIAL_CHARGES>
20
1 -0.18
10 -0.15
11 0.18
12 -0.15
13 0.18
14 -0.15
15 -0.15
16 0.18
17 0.15
18 0.15
19 0.15
2 -0.18
20 0.15
21 0.15
22 0.15
3 -0.18
4 -0.18
7 0.18
8 -0.15
9 -0.15

> <PUBCHEM_EFFECTIVE_ROTOR_COUNT>
1

> <PUBCHEM_PHARMACOPHORE_FEATURES>
2
6 5 7 8 11 12 13 rings
6 6 9 10 14 15 16 rings

> <PUBCHEM_HEAVY_ATOM_COUNT>
16

> <PUBCHEM_ATOM_DEF_STEREO_COUNT>
0

> <PUBCHEM_ATOM_UDEF_STEREO_COUNT>
0

> <PUBCHEM_BOND_DEF_STEREO_COUNT>
0

> <PUBCHEM_BOND_UDEF_STEREO_COUNT>
0

> <PUBCHEM_ISOTOPIC_ATOM_COUNT>
0

> <PUBCHEM_COMPONENT_COUNT>
1

> <PUBCHEM_CACTVS_TAUTO_COUNT>
1

> <PUBCHEM_CONFORMER_ID>
00008DD000000001

> <PUBCHEM_MMFF94_ENERGY>
46.8904

> <PUBCHEM_FEATURE_SELFOVERLAP>
10.149

> <PUBCHEM_SHAPE_FINGERPRINT>
10498660 4 18338797922009711573
11132069 177 18409726304963468309
12236239 1 17775850107629455122
12500047 106 18334581256399466078
13140716 1 18122339087222480155
13214271 11 18259989283717009653
13288520 33 18410572885898507166
13581323 91 18413112766322191554
13862211 1 18338800014429086783
14115302 16 17703224014313733482
14386348 63 17821442448154773214
15042514 8 18267299829626077091
15219456 202 17821727268873986814
15375358 24 17967817166943106172
16752209 62 18341339941791092627
16945 1 18410855430728288807
17804303 29 18335140852310249609
18175812 5 17676209026746499406
18186145 218 17603581967231837403
19141452 34 17603865551597056183
19422 9 17918275367607893427
200 152 16271932596940790575
20279233 1 17749384854169683838
20344682 1 17822007601468440308
20510252 161 18333729156526183305
20645477 56 18408601495999372345
20871999 31 18411139143145564557
21029758 27 18201153265953967253
21267235 1 18342167847765346746
2297311 6 18335128800663600572
23175994 123 16950275192096243112
23402539 116 18408047320389616172
23557571 272 18261106379109635284
23559900 14 18261107543510009470
26918003 58 14836405830401913412
2748010 2 18336839576295389873
3268164 11 18334586741499692101
34797466 226 18042108892075048932
43471831 8 18270685380245940611
474 4 17058638574464011940
5104073 3 18338517546728998970
69090 78 17458349611192289863
7364860 26 17973161734063017609
77492 1 17704072893293509602
81228 2 18336529616715679801

> <PUBCHEM_SHAPE_MULTIPOLES>
336.75
9.24
1.79
0.98
4.09
0.8
0
-0.45
0
-2.27
0
0.86
-0.04
0

> <PUBCHEM_SHAPE_SELFOVERLAP>
694.375

> <PUBCHEM_SHAPE_VOLUME>
185.4

> <PUBCHEM_COORDINATE_TYPE>
2
5
10

$$$$

