23724593
  -OEChem-07051213083D

 81 84  0     1  0  0  0  0  0999 V2000
   -7.4163   -0.4182    1.6402 O   0  0  0  0  0  0  0  0  0  0  0  0
    3.6876    0.8736    2.3818 O   0  0  0  0  0  0  0  0  0  0  0  0
    6.2485    0.7021    1.6706 O   0  0  0  0  0  0  0  0  0  0  0  0
    0.1670    0.0854   -0.1055 C   0  0  1  0  0  0  0  0  0  0  0  0
   -0.8250    1.2557    0.0712 C   0  0  2  0  0  0  0  0  0  0  0  0
   -2.2055    0.9637   -0.5272 C   0  0  1  0  0  0  0  0  0  0  0  0
   -2.7989   -0.2971    0.1823 C   0  0  1  0  0  0  0  0  0  0  0  0
   -4.2453   -0.6380   -0.3383 C   0  0  2  0  0  0  0  0  0  0  0  0
    1.4212    0.7265    0.5375 C   0  0  2  0  0  0  0  0  0  0  0  0
   -0.3964   -1.1262    0.6502 C   0  0  0  0  0  0  0  0  0  0  0  0
   -5.1271    0.6347   -0.1303 C   0  0  1  0  0  0  0  0  0  0  0  0
   -1.8106   -1.4933    0.1641 C   0  0  0  0  0  0  0  0  0  0  0  0
   -0.0425    2.4678   -0.4250 C   0  0  0  0  0  0  0  0  0  0  0  0
   -3.1434    2.1717   -0.3925 C   0  0  0  0  0  0  0  0  0  0  0  0
    1.4095    2.1755   -0.0036 C   0  0  0  0  0  0  0  0  0  0  0  0
   -4.5640    1.8613   -0.8587 C   0  0  0  0  0  0  0  0  0  0  0  0
   -4.8715   -1.7882    0.4995 C   0  0  0  0  0  0  0  0  0  0  0  0
    0.4338   -0.3010   -1.5821 C   0  0  0  0  0  0  0  0  0  0  0  0
    2.7469    0.0171    0.3016 C   0  0  1  0  0  0  0  0  0  0  0  0
   -6.6058    0.4062   -0.4869 C   0  0  0  0  0  0  0  0  0  0  0  0
   -4.2046   -1.0812   -1.8236 C   0  0  0  0  0  0  0  0  0  0  0  0
   -6.3539   -2.0382    0.1939 C   0  0  0  0  0  0  0  0  0  0  0  0
   -7.2099   -0.7758    0.2737 C   0  0  1  0  0  0  0  0  0  0  0  0
    3.9561    0.7097    0.9822 C   0  0  2  0  0  0  0  0  0  0  0  0
    2.6369   -1.4432    0.7690 C   0  0  0  0  0  0  0  0  0  0  0  0
    5.3180   -0.0131    0.8514 C   0  0  1  0  0  0  0  0  0  0  0  0
    5.8671   -0.1653   -0.5955 C   0  0  2  0  0  0  0  0  0  0  0  0
    7.1733   -1.0234   -0.6211 C   0  0  0  0  0  0  0  0  0  0  0  0
    6.0187    1.1824   -1.3143 C   0  0  0  0  0  0  0  0  0  0  0  0
    7.0875   -2.3724    0.0979 C   0  0  0  0  0  0  0  0  0  0  0  0
    7.6486   -1.2590   -2.0626 C   0  0  0  0  0  0  0  0  0  0  0  0
   -0.9808    1.4186    1.1511 H   0  0  0  0  0  0  0  0  0  0  0  0
   -2.0911    0.7657   -1.5975 H   0  0  0  0  0  0  0  0  0  0  0  0
   -2.9088   -0.0301    1.2457 H   0  0  0  0  0  0  0  0  0  0  0  0
    1.2488    0.7868    1.6228 H   0  0  0  0  0  0  0  0  0  0  0  0
   -0.4416   -0.9123    1.7259 H   0  0  0  0  0  0  0  0  0  0  0  0
    0.1981   -2.0311    0.5373 H   0  0  0  0  0  0  0  0  0  0  0  0
   -5.0998    0.8808    0.9419 H   0  0  0  0  0  0  0  0  0  0  0  0
   -2.1855   -2.2936    0.8119 H   0  0  0  0  0  0  0  0  0  0  0  0
   -1.7434   -1.9178   -0.8424 H   0  0  0  0  0  0  0  0  0  0  0  0
   -0.1110    2.5721   -1.5137 H   0  0  0  0  0  0  0  0  0  0  0  0
   -0.4049    3.3999    0.0205 H   0  0  0  0  0  0  0  0  0  0  0  0
   -2.7571    3.0156   -0.9760 H   0  0  0  0  0  0  0  0  0  0  0  0
   -3.1748    2.5015    0.6539 H   0  0  0  0  0  0  0  0  0  0  0  0
    2.0746    2.3024   -0.8654 H   0  0  0  0  0  0  0  0  0  0  0  0
    1.7386    2.8771    0.7711 H   0  0  0  0  0  0  0  0  0  0  0  0
   -4.5781    1.7113   -1.9442 H   0  0  0  0  0  0  0  0  0  0  0  0
   -5.1966    2.7350   -0.6592 H   0  0  0  0  0  0  0  0  0  0  0  0
   -4.7636   -1.5632    1.5684 H   0  0  0  0  0  0  0  0  0  0  0  0
   -4.3310   -2.7266    0.3280 H   0  0  0  0  0  0  0  0  0  0  0  0
    0.9043    0.5107   -2.1463 H   0  0  0  0  0  0  0  0  0  0  0  0
    1.0901   -1.1718   -1.6657 H   0  0  0  0  0  0  0  0  0  0  0  0
   -0.4822   -0.5620   -2.1187 H   0  0  0  0  0  0  0  0  0  0  0  0
    2.9640    0.0019   -0.7732 H   0  0  0  0  0  0  0  0  0  0  0  0
   -6.7146    0.2449   -1.5653 H   0  0  0  0  0  0  0  0  0  0  0  0
   -7.1724    1.3143   -0.2445 H   0  0  0  0  0  0  0  0  0  0  0  0
   -3.7133   -0.3500   -2.4698 H   0  0  0  0  0  0  0  0  0  0  0  0
   -3.6694   -2.0295   -1.9396 H   0  0  0  0  0  0  0  0  0  0  0  0
   -5.2038   -1.2391   -2.2390 H   0  0  0  0  0  0  0  0  0  0  0  0
   -6.7306   -2.7849    0.9036 H   0  0  0  0  0  0  0  0  0  0  0  0
   -6.4493   -2.4772   -0.8058 H   0  0  0  0  0  0  0  0  0  0  0  0
   -8.2034   -0.9911   -0.1345 H   0  0  0  0  0  0  0  0  0  0  0  0
    4.0521    1.7305    0.5984 H   0  0  0  0  0  0  0  0  0  0  0  0
    3.6012   -1.9522    0.8071 H   0  0  0  0  0  0  0  0  0  0  0  0
    2.1911   -1.5250    1.7653 H   0  0  0  0  0  0  0  0  0  0  0  0
    2.0814   -2.0497    0.0538 H   0  0  0  0  0  0  0  0  0  0  0  0
    5.2361   -0.9850    1.3396 H   0  0  0  0  0  0  0  0  0  0  0  0
   -6.5514   -0.2836    2.0607 H   0  0  0  0  0  0  0  0  0  0  0  0
    5.1161   -0.7351   -1.1592 H   0  0  0  0  0  0  0  0  0  0  0  0
    4.4455    1.3422    2.7716 H   0  0  0  0  0  0  0  0  0  0  0  0
    7.9680   -0.4490   -0.1265 H   0  0  0  0  0  0  0  0  0  0  0  0
    7.0461    0.1558    1.7669 H   0  0  0  0  0  0  0  0  0  0  0  0
    5.0845    1.7507   -1.3087 H   0  0  0  0  0  0  0  0  0  0  0  0
    6.7943    1.7946   -0.8431 H   0  0  0  0  0  0  0  0  0  0  0  0
    6.2812    1.0504   -2.3676 H   0  0  0  0  0  0  0  0  0  0  0  0
    6.9809   -2.2474    1.1792 H   0  0  0  0  0  0  0  0  0  0  0  0
    6.2380   -2.9583   -0.2684 H   0  0  0  0  0  0  0  0  0  0  0  0
    7.9975   -2.9619   -0.0596 H   0  0  0  0  0  0  0  0  0  0  0  0
    7.9529   -0.3266   -2.5464 H   0  0  0  0  0  0  0  0  0  0  0  0
    6.8630   -1.7249   -2.6668 H   0  0  0  0  0  0  0  0  0  0  0  0
    8.5234   -1.9185   -2.0831 H   0  0  0  0  0  0  0  0  0  0  0  0
  1 23  1  0  0  0  0
  1 68  1  0  0  0  0
  2 24  1  0  0  0  0
  2 70  1  0  0  0  0
  3 26  1  0  0  0  0
  3 72  1  0  0  0  0
  4  5  1  0  0  0  0
  4  9  1  0  0  0  0
  4 10  1  0  0  0  0
  4 18  1  0  0  0  0
  5  6  1  0  0  0  0
  5 13  1  0  0  0  0
  5 32  1  0  0  0  0
  6  7  1  0  0  0  0
  6 14  1  0  0  0  0
  6 33  1  0  0  0  0
  7  8  1  0  0  0  0
  7 12  1  0  0  0  0
  7 34  1  0  0  0  0
  8 11  1  0  0  0  0
  8 17  1  0  0  0  0
  8 21  1  0  0  0  0
  9 15  1  0  0  0  0
  9 19  1  0  0  0  0
  9 35  1  0  0  0  0
 10 12  1  0  0  0  0
 10 36  1  0  0  0  0
 10 37  1  0  0  0  0
 11 16  1  0  0  0  0
 11 20  1  0  0  0  0
 11 38  1  0  0  0  0
 12 39  1  0  0  0  0
 12 40  1  0  0  0  0
 13 15  1  0  0  0  0
 13 41  1  0  0  0  0
 13 42  1  0  0  0  0
 14 16  1  0  0  0  0
 14 43  1  0  0  0  0
 14 44  1  0  0  0  0
 15 45  1  0  0  0  0
 15 46  1  0  0  0  0
 16 47  1  0  0  0  0
 16 48  1  0  0  0  0
 17 22  1  0  0  0  0
 17 49  1  0  0  0  0
 17 50  1  0  0  0  0
 18 51  1  0  0  0  0
 18 52  1  0  0  0  0
 18 53  1  0  0  0  0
 19 24  1  0  0  0  0
 19 25  1  0  0  0  0
 19 54  1  0  0  0  0
 20 23  1  0  0  0  0
 20 55  1  0  0  0  0
 20 56  1  0  0  0  0
 21 57  1  0  0  0  0
 21 58  1  0  0  0  0
 21 59  1  0  0  0  0
 22 23  1  0  0  0  0
 22 60  1  0  0  0  0
 22 61  1  0  0  0  0
 23 62  1  0  0  0  0
 24 26  1  0  0  0  0
 24 63  1  0  0  0  0
 25 64  1  0  0  0  0
 25 65  1  0  0  0  0
 25 66  1  0  0  0  0
 26 27  1  0  0  0  0
 26 67  1  0  0  0  0
 27 28  1  0  0  0  0
 27 29  1  0  0  0  0
 27 69  1  0  0  0  0
 28 30  1  0  0  0  0
 28 31  1  0  0  0  0
 28 71  1  0  0  0  0
 29 73  1  0  0  0  0
 29 74  1  0  0  0  0
 29 75  1  0  0  0  0
 30 76  1  0  0  0  0
 30 77  1  0  0  0  0
 30 78  1  0  0  0  0
 31 79  1  0  0  0  0
 31 80  1  0  0  0  0
 31 81  1  0  0  0  0
M  END
> <PUBCHEM_COMPOUND_CID>
23724593

> <PUBCHEM_CONFORMER_RMSD>
1

> <PUBCHEM_CONFORMER_DIVERSEORDER>
2
3
8
6
4
9
7
10
1
5

> <PUBCHEM_MMFF94_PARTIAL_CHARGES>
9
1 -0.68
2 -0.68
23 0.28
24 0.28
26 0.28
3 -0.68
68 0.4
70 0.4
72 0.4

> <PUBCHEM_EFFECTIVE_ROTOR_COUNT>
7.2

> <PUBCHEM_PHARMACOPHORE_FEATURES>
13
1 1 acceptor
1 1 donor
1 2 acceptor
1 2 donor
1 25 hydrophobe
1 29 hydrophobe
1 3 acceptor
1 3 donor
3 28 30 31 hydrophobe
5 4 5 9 13 15 rings
6 4 5 6 7 10 12 rings
6 6 7 8 11 14 16 rings
6 8 11 17 20 22 23 rings

> <PUBCHEM_HEAVY_ATOM_COUNT>
31

> <PUBCHEM_ATOM_DEF_STEREO_COUNT>
11

> <PUBCHEM_ATOM_UDEF_STEREO_COUNT>
1

> <PUBCHEM_BOND_DEF_STEREO_COUNT>
0

> <PUBCHEM_BOND_UDEF_STEREO_COUNT>
0

> <PUBCHEM_ISOTOPIC_ATOM_COUNT>
0

> <PUBCHEM_COMPONENT_COUNT>
1

> <PUBCHEM_CACTVS_TAUTO_COUNT>
1

> <PUBCHEM_CONFORMER_ID>
016A023100000002

> <PUBCHEM_MMFF94_ENERGY>
113.5618

> <PUBCHEM_FEATURE_SELFOVERLAP>
66.074

> <PUBCHEM_SHAPE_FINGERPRINT>
10076449 9 18261385659737833304
10299344 5 17847062190041953546
11331351 85 18040154006770348913
11524674 6 16877663448535575623
11963148 33 18342748398527337811
12166972 35 18273493459960394132
12236239 1 17275109439559757256
12516196 113 18412547600049737480
13533116 47 15554178055687065976
13673619 4 18113619010810593680
13685833 64 17967812752159785450
13690498 29 18131073744652658837
13782708 43 17894356575026017790
13811026 1 18410580595132526047
13914758 101 16081079403035580339
14251764 18 17132116827486912171
14294032 229 17915460721353487189
14347424 109 16008751299768748362
14444916 359 18335693953936147535
14856354 85 18131066005559544663
14955137 171 18186804647232200200
15131766 46 15576711287371798344
15183329 4 17632858633554054134
15301273 46 18113617889032546184
15328829 1 17203323390550008887
15352257 5 18335138713248127390
15419008 47 18187087264870873448
15461852 350 12247669461988301097
15510800 12 17677324061346784062
16090146 7 17417511601921353338
18335252 98 18410012122832369912
18608769 82 18341891866489904547
18927931 339 18341899567766796647
20105231 36 18341886385885126019
2026 5 18044089284674841342
21033648 29 17749691609133891384
21130935 74 17822858563349787619
21150785 3 15985101903280729486
21267235 1 18342173354504075505
21521721 280 12967130518878044520
21781051 124 18408599280292483742
21859007 373 6843930421039773786
2303208 19 18113621183773693480
23035841 295 18040154024091824391
23081809 10 16415206710345933584
23522609 53 18195217049499174120
23559900 14 18340773624098326385
23569943 247 18189335839227734426
23576562 1 17488464079710492287
24771293 8 18118138969989955136
2747138 104 18343018865618075673
3004659 81 18060700576653326772
3178227 256 17530684316873362374
335352 9 18343589547588542629
3383291 50 18272655610519782251
34797466 226 18410006607999754300
350125 39 18272654528546381237
4093350 32 17386283187086898344
4258327 124 15194702555596939150
49967989 163 17417517009090760643
504579 68 17060618910890475002
5104073 3 18337966699956299641
5381727 24 16443344274838909471
9831232 110 18337953510761053934
9896288 288 18042399296325859953
999808 66 18131342004394684283

> <PUBCHEM_SHAPE_MULTIPOLES>
620.36
21.83
2.24
1.46
11.02
0.31
-0.03
-9.39
-1.99
-0.45
-0.15
1.71
-0.07
1.27

> <PUBCHEM_SHAPE_SELFOVERLAP>
1279.82

> <PUBCHEM_SHAPE_VOLUME>
355.6

> <PUBCHEM_COORDINATE_TYPE>
2
5
10

$$$$

