16069993
  -OEChem-07051212513D

 21 21  0     1  0  0  0  0  0999 V2000
    0.5563   -1.5267   -0.0822 O   0  0  0  0  0  0  0  0  0  0  0  0
    0.8604    1.2576   -1.1176 O   0  0  0  0  0  0  0  0  0  0  0  0
    3.2520    0.8266    0.1632 O   0  0  0  0  0  0  0  0  0  0  0  0
   -2.2127   -1.4067   -0.2511 O   0  0  0  0  0  0  0  0  0  0  0  0
   -3.4301    0.8082    0.5312 O   0  0  0  0  0  0  0  0  0  0  0  0
   -0.1608   -0.3573    0.3683 C   0  0  1  0  0  0  0  0  0  0  0  0
    0.8161    0.8044    0.2316 C   0  0  1  0  0  0  0  0  0  0  0  0
    2.1138    0.1187    0.6021 C   0  0  1  0  0  0  0  0  0  0  0  0
    1.9620   -1.2287   -0.0763 C   0  0  0  0  0  0  0  0  0  0  0  0
   -1.4500   -0.2239   -0.4213 C   0  0  2  0  0  0  0  0  0  0  0  0
   -2.3070    0.9278    0.0522 C   0  0  0  0  0  0  0  0  0  0  0  0
   -0.3837   -0.5345    1.4290 H   0  0  0  0  0  0  0  0  0  0  0  0
    0.5880    1.6578    0.8769 H   0  0  0  0  0  0  0  0  0  0  0  0
    2.1745   -0.0145    1.6885 H   0  0  0  0  0  0  0  0  0  0  0  0
    2.3205   -1.2204   -1.1115 H   0  0  0  0  0  0  0  0  0  0  0  0
    2.4992   -2.0192    0.4565 H   0  0  0  0  0  0  0  0  0  0  0  0
   -1.2596   -0.1156   -1.4937 H   0  0  0  0  0  0  0  0  0  0  0  0
    0.0793    1.8151   -1.2699 H   0  0  0  0  0  0  0  0  0  0  0  0
    3.1627    0.9762   -0.7935 H   0  0  0  0  0  0  0  0  0  0  0  0
   -1.8668    1.9312   -0.0746 H   0  0  0  0  0  0  0  0  0  0  0  0
   -2.9745   -1.3564   -0.8536 H   0  0  0  0  0  0  0  0  0  0  0  0
  1  6  1  0  0  0  0
  1  9  1  0  0  0  0
  2  7  1  0  0  0  0
  2 18  1  0  0  0  0
  3  8  1  0  0  0  0
  3 19  1  0  0  0  0
  4 10  1  0  0  0  0
  4 21  1  0  0  0  0
  5 11  2  0  0  0  0
  6  7  1  0  0  0  0
  6 10  1  0  0  0  0
  6 12  1  0  0  0  0
  7  8  1  0  0  0  0
  7 13  1  0  0  0  0
  8  9  1  0  0  0  0
  8 14  1  0  0  0  0
  9 15  1  0  0  0  0
  9 16  1  0  0  0  0
 10 11  1  0  0  0  0
 10 17  1  0  0  0  0
 11 20  1  0  0  0  0
M  END
> <PUBCHEM_COMPOUND_CID>
16069993

> <PUBCHEM_CONFORMER_RMSD>
0.6

> <PUBCHEM_CONFORMER_DIVERSEORDER>
3
1
5
4
2
6

> <PUBCHEM_MMFF94_PARTIAL_CHARGES>
15
1 -0.56
10 0.34
11 0.45
18 0.4
19 0.4
2 -0.68
20 0.06
21 0.4
3 -0.68
4 -0.68
5 -0.57
6 0.28
7 0.28
8 0.28
9 0.28

> <PUBCHEM_EFFECTIVE_ROTOR_COUNT>
3

> <PUBCHEM_PHARMACOPHORE_FEATURES>
9
1 1 acceptor
1 2 acceptor
1 2 donor
1 3 acceptor
1 3 donor
1 4 acceptor
1 4 donor
1 5 acceptor
5 1 6 7 8 9 rings

> <PUBCHEM_HEAVY_ATOM_COUNT>
11

> <PUBCHEM_ATOM_DEF_STEREO_COUNT>
4

> <PUBCHEM_ATOM_UDEF_STEREO_COUNT>
0

> <PUBCHEM_BOND_DEF_STEREO_COUNT>
0

> <PUBCHEM_BOND_UDEF_STEREO_COUNT>
0

> <PUBCHEM_ISOTOPIC_ATOM_COUNT>
0

> <PUBCHEM_COMPONENT_COUNT>
1

> <PUBCHEM_CACTVS_TAUTO_COUNT>
4

> <PUBCHEM_CONFORMER_ID>
00F5356900000003

> <PUBCHEM_MMFF94_ENERGY>
25.2466

> <PUBCHEM_FEATURE_SELFOVERLAP>
45.695

> <PUBCHEM_SHAPE_FINGERPRINT>
10219947 1 18201721773046449888
10857977 72 17275092973129761681
12932764 1 17775292710910602466
13380535 21 18334848433382523491
14325111 11 18408043987621555770
14390081 3 18113907052143232585
15775835 57 18259982682494654913
161256 15 18124877012966266918
16945 1 18192721252486868730
21040471 1 18337113358763841514
23235685 24 18412549807567832600
23402655 69 18188504578783015965
23552423 10 18413672408971609263
29004967 10 17775283906285486152
3248919 1 18335435568201732619
5084963 1 17844543114339461711
528886 8 18409736166002359402

> <PUBCHEM_SHAPE_MULTIPOLES>
197.03
4.4
1.44
0.77
1.33
0.31
-0.07
-0.93
0.58
-0.07
-0.15
-0.05
-0.14
-0.18

> <PUBCHEM_SHAPE_SELFOVERLAP>
396.247

> <PUBCHEM_SHAPE_VOLUME>
116

> <PUBCHEM_COORDINATE_TYPE>
2
5
10

$$$$

