5497123
  -OEChem-07051212493D

 52 51  0     1  0  0  0  0  0999 V2000
   -8.2096    1.4238    1.0348 O   0  0  0  0  0  0  0  0  0  0  0  0
    5.5308    0.2621    1.1850 O   0  0  0  0  0  0  0  0  0  0  0  0
   -7.1808    1.4617   -0.9970 O   0  0  0  0  0  0  0  0  0  0  0  0
    5.1069   -0.4534    2.3750 O   0  0  0  0  0  0  0  0  0  0  0  0
   -2.7737   -1.2343   -0.3600 C   0  0  0  0  0  0  0  0  0  0  0  0
   -1.7008   -2.0809    0.3285 C   0  0  0  0  0  0  0  0  0  0  0  0
   -3.9151   -0.8990    0.6032 C   0  0  0  0  0  0  0  0  0  0  0  0
   -0.5455   -2.4749   -0.5997 C   0  0  0  0  0  0  0  0  0  0  0  0
   -5.0055   -0.0785   -0.0921 C   0  0  0  0  0  0  0  0  0  0  0  0
    0.5455   -3.3414    0.0391 C   0  0  0  0  0  0  0  0  0  0  0  0
   -6.1728    0.2437    0.8360 C   0  0  0  0  0  0  0  0  0  0  0  0
    1.6793   -3.6439   -0.8985 C   0  0  0  0  0  0  0  0  0  0  0  0
   -7.2165    1.1009    0.1707 C   0  0  0  0  0  0  0  0  0  0  0  0
    2.7701   -2.8723   -1.0160 C   0  0  0  0  0  0  0  0  0  0  0  0
    4.3546    0.3789    0.3868 C   0  0  1  0  0  0  0  0  0  0  0  0
    4.5372    1.5521   -0.5864 C   0  0  0  0  0  0  0  0  0  0  0  0
    2.9707   -1.6629   -0.2496 C   0  0  0  0  0  0  0  0  0  0  0  0
    4.0645   -0.8943   -0.3714 C   0  0  0  0  0  0  0  0  0  0  0  0
    4.4080    2.8805    0.1110 C   0  0  0  0  0  0  0  0  0  0  0  0
    3.2553    3.5612    0.2038 C   0  0  0  0  0  0  0  0  0  0  0  0
    1.9138    3.1582   -0.3439 C   0  0  0  0  0  0  0  0  0  0  0  0
    1.5836    3.6128   -1.7593 C   0  0  0  0  0  0  0  0  0  0  0  0
   -3.1694   -1.7801   -1.2249 H   0  0  0  0  0  0  0  0  0  0  0  0
   -2.3241   -0.3086   -0.7386 H   0  0  0  0  0  0  0  0  0  0  0  0
   -1.2965   -1.5284    1.1856 H   0  0  0  0  0  0  0  0  0  0  0  0
   -2.1595   -2.9939    0.7279 H   0  0  0  0  0  0  0  0  0  0  0  0
   -3.5229   -0.3379    1.4599 H   0  0  0  0  0  0  0  0  0  0  0  0
   -4.3508   -1.8263    0.9946 H   0  0  0  0  0  0  0  0  0  0  0  0
   -0.9569   -3.0068   -1.4678 H   0  0  0  0  0  0  0  0  0  0  0  0
   -0.0932   -1.5546   -0.9915 H   0  0  0  0  0  0  0  0  0  0  0  0
   -5.3769   -0.6280   -0.9665 H   0  0  0  0  0  0  0  0  0  0  0  0
   -4.5699    0.8541   -0.4726 H   0  0  0  0  0  0  0  0  0  0  0  0
    0.1008   -4.2995    0.3389 H   0  0  0  0  0  0  0  0  0  0  0  0
    0.8906   -2.8945    0.9774 H   0  0  0  0  0  0  0  0  0  0  0  0
   -6.6518   -0.6851    1.1649 H   0  0  0  0  0  0  0  0  0  0  0  0
   -5.8029    0.7826    1.7156 H   0  0  0  0  0  0  0  0  0  0  0  0
    1.5918   -4.5299   -1.5217 H   0  0  0  0  0  0  0  0  0  0  0  0
    3.5419   -3.1617   -1.7240 H   0  0  0  0  0  0  0  0  0  0  0  0
    3.5045    0.6033    1.0469 H   0  0  0  0  0  0  0  0  0  0  0  0
    3.8156    1.4885   -1.4098 H   0  0  0  0  0  0  0  0  0  0  0  0
    5.5325    1.5130   -1.0479 H   0  0  0  0  0  0  0  0  0  0  0  0
    2.2066   -1.3361    0.4470 H   0  0  0  0  0  0  0  0  0  0  0  0
    4.8444   -1.2019   -1.0675 H   0  0  0  0  0  0  0  0  0  0  0  0
    5.3031    3.2952    0.5668 H   0  0  0  0  0  0  0  0  0  0  0  0
    3.2814    4.5184    0.7213 H   0  0  0  0  0  0  0  0  0  0  0  0
   -8.8964    1.9821    0.6118 H   0  0  0  0  0  0  0  0  0  0  0  0
    1.1475    3.5524    0.3358 H   0  0  0  0  0  0  0  0  0  0  0  0
    1.8031    2.0682   -0.2933 H   0  0  0  0  0  0  0  0  0  0  0  0
    2.2942    3.1996   -2.4821 H   0  0  0  0  0  0  0  0  0  0  0  0
    1.6177    4.7045   -1.8354 H   0  0  0  0  0  0  0  0  0  0  0  0
    0.5790    3.2820   -2.0409 H   0  0  0  0  0  0  0  0  0  0  0  0
    5.4746   -1.3141    2.1111 H   0  0  0  0  0  0  0  0  0  0  0  0
  1 13  1  0  0  0  0
  1 46  1  0  0  0  0
  2  4  1  0  0  0  0
  2 15  1  0  0  0  0
  3 13  2  0  0  0  0
  4 52  1  0  0  0  0
  5  6  1  0  0  0  0
  5  7  1  0  0  0  0
  5 23  1  0  0  0  0
  5 24  1  0  0  0  0
  6  8  1  0  0  0  0
  6 25  1  0  0  0  0
  6 26  1  0  0  0  0
  7  9  1  0  0  0  0
  7 27  1  0  0  0  0
  7 28  1  0  0  0  0
  8 10  1  0  0  0  0
  8 29  1  0  0  0  0
  8 30  1  0  0  0  0
  9 11  1  0  0  0  0
  9 31  1  0  0  0  0
  9 32  1  0  0  0  0
 10 12  1  0  0  0  0
 10 33  1  0  0  0  0
 10 34  1  0  0  0  0
 11 13  1  0  0  0  0
 11 35  1  0  0  0  0
 11 36  1  0  0  0  0
 12 14  2  0  0  0  0
 12 37  1  0  0  0  0
 14 17  1  0  0  0  0
 14 38  1  0  0  0  0
 15 16  1  0  0  0  0
 15 18  1  0  0  0  0
 15 39  1  0  0  0  0
 16 19  1  0  0  0  0
 16 40  1  0  0  0  0
 16 41  1  0  0  0  0
 17 18  2  0  0  0  0
 17 42  1  0  0  0  0
 18 43  1  0  0  0  0
 19 20  2  0  0  0  0
 19 44  1  0  0  0  0
 20 21  1  0  0  0  0
 20 45  1  0  0  0  0
 21 22  1  0  0  0  0
 21 47  1  0  0  0  0
 21 48  1  0  0  0  0
 22 49  1  0  0  0  0
 22 50  1  0  0  0  0
 22 51  1  0  0  0  0
M  END
> <PUBCHEM_COMPOUND_CID>
5497123

> <PUBCHEM_CONFORMER_RMSD>
1.2

> <PUBCHEM_CONFORMER_DIVERSEORDER>
1
34
8
93
67
114
38
99
135
87
61
68
112
13
124
91
138
48
94
41
63
153
150
132
142
56
103
69
111
44
70
40
11
62
6
143
23
9
127
16
151
106
149
115
134
110
123
35
131
144
89
108
5
147
136
72
30
46
75
148
45
102
146
58
50
64
4
83
49
37
129
122
77
28
139
76
27
125
81
145
116
10
2
57
133
20
32
22
7
117
97
104
137
107
109
55
73
130
39
82
19
14
66
54
85
79
71
141
47
128
90
74
43
118
92
42
120
154
65
101
53
12
25
52
26
105
80
100
51
113
152
119
21
140
88
84
95
36
86
31
78
98
15
24
29
3
96
59
121
60
18
17
126
33

> <PUBCHEM_MMFF94_PARTIAL_CHARGES>
24
1 -0.65
10 0.14
11 0.06
12 -0.29
13 0.66
14 -0.15
15 0.42
16 0.14
17 -0.15
18 -0.29
19 -0.29
2 -0.28
20 -0.29
21 0.14
3 -0.57
37 0.15
38 0.15
4 -0.4
42 0.15
43 0.15
44 0.15
45 0.15
46 0.5
52 0.4

> <PUBCHEM_EFFECTIVE_ROTOR_COUNT>
14

> <PUBCHEM_PHARMACOPHORE_FEATURES>
4
1 1 acceptor
1 22 hydrophobe
1 3 acceptor
3 1 3 13 anion

> <PUBCHEM_HEAVY_ATOM_COUNT>
22

> <PUBCHEM_ATOM_DEF_STEREO_COUNT>
1

> <PUBCHEM_ATOM_UDEF_STEREO_COUNT>
0

> <PUBCHEM_BOND_DEF_STEREO_COUNT>
3

> <PUBCHEM_BOND_UDEF_STEREO_COUNT>
0

> <PUBCHEM_ISOTOPIC_ATOM_COUNT>
0

> <PUBCHEM_COMPONENT_COUNT>
1

> <PUBCHEM_CACTVS_TAUTO_COUNT>
1

> <PUBCHEM_CONFORMER_ID>
0053E12300000001

> <PUBCHEM_MMFF94_ENERGY>
12.601

> <PUBCHEM_FEATURE_SELFOVERLAP>
20.354

> <PUBCHEM_SHAPE_FINGERPRINT>
10049733 57 18130796689572134725
10811444 77 18341335522359507117
10917259 69 18122337979607201900
11273773 38 18269545066660753644
12925494 130 18339641119122204131
14117953 113 18407757054305882062
14223995 32 17972041336779635808
14251764 75 18196648493400007788
14556957 393 17096080420376796225
155225 5 16536511065073028732
155225 6 18267859497601803892
16087824 20 18410289225474760244
16760501 71 18411694353763155591
17810953 82 18410569548772091948
17834072 32 18193274096846875590
18335252 114 18335983168216819406
20715895 44 18335702723942211978
21298829 104 18334014964755805648
245318 6 18055338163654676885
2748736 6 18335427850530597659
394071 54 18337101358894176803
5109719 28 18339910564101520291
5312510 48 18408037420848759627

> <PUBCHEM_SHAPE_MULTIPOLES>
429.27
18.77
5.39
1.27
43.06
0.78
-0.28
13.71
-5.25
-6.01
1.94
-1.09
0.26
-0.07

> <PUBCHEM_SHAPE_SELFOVERLAP>
806.551

> <PUBCHEM_SHAPE_VOLUME>
265.7

> <PUBCHEM_COORDINATE_TYPE>
2
5
10

$$$$

