440637
  -OEChem-07051212503D

 36 35  0     1  0  0  0  0  0999 V2000
   -1.1779   -2.4499    1.6187 O   0  0  0  0  0  0  0  0  0  0  0  0
   -0.2390   -3.7372    0.0029 O   0  0  0  0  0  0  0  0  0  0  0  0
   -2.8871    0.3335   -1.6415 O   0  0  0  0  0  0  0  0  0  0  0  0
   -1.7180   -0.4936    0.1850 N   0  0  0  0  0  0  0  0  0  0  0  0
    3.4599    0.6445    0.5259 N   0  0  0  0  0  0  0  0  0  0  0  0
   -4.9342    3.0821    0.8591 N   0  0  0  0  0  0  0  0  0  0  0  0
    5.1088    1.3213   -1.0843 N   0  0  0  0  0  0  0  0  0  0  0  0
    5.4697    1.6173    1.1467 N   0  0  0  0  0  0  0  0  0  0  0  0
    0.3744   -0.9058   -1.0641 C   0  0  0  0  0  0  0  0  0  0  0  0
   -0.9503   -1.4710   -0.5441 C   0  0  1  0  0  0  0  0  0  0  0  0
    1.3200   -0.4062    0.0347 C   0  0  0  0  0  0  0  0  0  0  0  0
    2.5960    0.1793   -0.5605 C   0  0  0  0  0  0  0  0  0  0  0  0
   -0.7510   -2.6807    0.3496 C   0  0  0  0  0  0  0  0  0  0  0  0
   -2.6370    0.3394   -0.4392 C   0  0  0  0  0  0  0  0  0  0  0  0
   -3.3114    1.2745    0.5493 C   0  0  0  0  0  0  0  0  0  0  0  0
   -4.3239    2.1953   -0.1236 C   0  0  0  0  0  0  0  0  0  0  0  0
    4.6010    1.1571    0.1853 C   0  0  0  0  0  0  0  0  0  0  0  0
    0.1621   -0.0786   -1.7536 H   0  0  0  0  0  0  0  0  0  0  0  0
    0.8889   -1.6799   -1.6476 H   0  0  0  0  0  0  0  0  0  0  0  0
   -1.5564   -1.8088   -1.3935 H   0  0  0  0  0  0  0  0  0  0  0  0
    0.8232    0.3594    0.6429 H   0  0  0  0  0  0  0  0  0  0  0  0
    1.5798   -1.2277    0.7132 H   0  0  0  0  0  0  0  0  0  0  0  0
   -1.5621   -0.3974    1.1848 H   0  0  0  0  0  0  0  0  0  0  0  0
    3.1058   -0.5931   -1.1492 H   0  0  0  0  0  0  0  0  0  0  0  0
    2.3367    1.0143   -1.2228 H   0  0  0  0  0  0  0  0  0  0  0  0
   -3.8043    0.6620    1.3145 H   0  0  0  0  0  0  0  0  0  0  0  0
   -2.5298    1.8655    1.0429 H   0  0  0  0  0  0  0  0  0  0  0  0
   -3.8383    2.7979   -0.8992 H   0  0  0  0  0  0  0  0  0  0  0  0
   -5.1074    1.6089   -0.6160 H   0  0  0  0  0  0  0  0  0  0  0  0
   -1.0324   -3.2266    2.2001 H   0  0  0  0  0  0  0  0  0  0  0  0
   -5.3815    2.5284    1.5889 H   0  0  0  0  0  0  0  0  0  0  0  0
   -4.2097    3.6265    1.3260 H   0  0  0  0  0  0  0  0  0  0  0  0
    4.5978    1.0371   -1.9123 H   0  0  0  0  0  0  0  0  0  0  0  0
    6.0215    1.7385   -1.2320 H   0  0  0  0  0  0  0  0  0  0  0  0
    6.3664    2.0225    0.9011 H   0  0  0  0  0  0  0  0  0  0  0  0
    5.2356    1.5652    2.1321 H   0  0  0  0  0  0  0  0  0  0  0  0
  1 13  1  0  0  0  0
  1 30  1  0  0  0  0
  2 13  2  0  0  0  0
  3 14  2  0  0  0  0
  4 10  1  0  0  0  0
  4 14  1  0  0  0  0
  4 23  1  0  0  0  0
  5 12  1  0  0  0  0
  5 17  2  0  0  0  0
  6 16  1  0  0  0  0
  6 31  1  0  0  0  0
  6 32  1  0  0  0  0
  7 17  1  0  0  0  0
  7 33  1  0  0  0  0
  7 34  1  0  0  0  0
  8 17  1  0  0  0  0
  8 35  1  0  0  0  0
  8 36  1  0  0  0  0
  9 10  1  0  0  0  0
  9 11  1  0  0  0  0
  9 18  1  0  0  0  0
  9 19  1  0  0  0  0
 10 13  1  0  0  0  0
 10 20  1  0  0  0  0
 11 12  1  0  0  0  0
 11 21  1  0  0  0  0
 11 22  1  0  0  0  0
 12 24  1  0  0  0  0
 12 25  1  0  0  0  0
 14 15  1  0  0  0  0
 15 16  1  0  0  0  0
 15 26  1  0  0  0  0
 15 27  1  0  0  0  0
 16 28  1  0  0  0  0
 16 29  1  0  0  0  0
M  END
> <PUBCHEM_COMPOUND_CID>
440637

> <PUBCHEM_CONFORMER_RMSD>
0.8

> <PUBCHEM_CONFORMER_DIVERSEORDER>
1
145
183
103
50
245
234
259
248
100
178
46
154
11
185
59
220
239
217
129
68
227
47
144
134
98
175
224
214
173
108
161
256
101
56
204
10
169
119
34
243
69
179
146
242
122
247
12
222
23
225
96
19
164
133
235
233
148
40
32
91
197
105
157
74
137
117
254
9
60
51
57
120
199
130
219
62
72
232
113
29
80
168
218
43
84
258
86
147
5
149
78
251
223
158
181
66
156
26
206
16
6
237
205
138
203
102
177
28
95
153
140
192
198
54
4
194
135
107
82
131
90
176
253
182
200
210
21
189
231
216
81
97
48
111
89
106
94
30
127
257
196
76
83
41
170
171
126
7
190
63
37
42
172
201
249
92
121
38
209
35
241
25
77
3
152
112
255
114
2
52
39
252
228
104
160
151
165
20
85
236
18
24
123
163
141
193
64
186
55
67
229
88
195
180
166
240
142
27
116
15
188
53
221
93
22
187
99
202
162
109
36
191
118
87
71
136
212
75
230
132
45
226
159
124
44
125
207
174
213
143
244
70
14
215
61
128
13
139
167
33
211
58
150
238
208
73
184
31
246
110
49
65
250
17
115
8
79
155

> <PUBCHEM_MMFF94_PARTIAL_CHARGES>
23
1 -0.65
10 0.36
12 0.25
13 0.66
14 0.57
15 0.06
16 0.27
17 0.55
2 -0.57
23 0.37
3 -0.57
30 0.5
31 0.36
32 0.36
33 0.4
34 0.4
35 0.4
36 0.4
4 -0.73
5 -0.7
6 -0.99
7 -0.85
8 -0.85

> <PUBCHEM_EFFECTIVE_ROTOR_COUNT>
9

> <PUBCHEM_PHARMACOPHORE_FEATURES>
10
1 1 acceptor
1 2 acceptor
1 3 acceptor
1 4 donor
1 6 cation
1 6 donor
1 7 donor
1 8 donor
3 1 2 13 anion
4 5 7 8 17 cation

> <PUBCHEM_HEAVY_ATOM_COUNT>
17

> <PUBCHEM_ATOM_DEF_STEREO_COUNT>
1

> <PUBCHEM_ATOM_UDEF_STEREO_COUNT>
0

> <PUBCHEM_BOND_DEF_STEREO_COUNT>
0

> <PUBCHEM_BOND_UDEF_STEREO_COUNT>
0

> <PUBCHEM_ISOTOPIC_ATOM_COUNT>
0

> <PUBCHEM_COMPONENT_COUNT>
1

> <PUBCHEM_CACTVS_TAUTO_COUNT>
4

> <PUBCHEM_CONFORMER_ID>
0006B93D00000001

> <PUBCHEM_MMFF94_ENERGY>
25.5578

> <PUBCHEM_FEATURE_SELFOVERLAP>
50.858

> <PUBCHEM_SHAPE_FINGERPRINT>
122479 349 18409446977348761646
12390115 104 18336813252166259721
12500047 106 18337957792579326626
12633257 1 16343404172956715849
13955234 65 17908132523898926867
14123255 52 18337953492969001169
1420 369 10663810884397224500
14251764 38 18046356227830853976
14251764 75 17824815896364944889
15342816 4 9943227299060022130
1741750 31 18412263917633825426
17834072 32 18408602560967048192
17980427 26 18192440876906300942
18785283 64 18128253600127287018
19784866 34 18335985380230166137
20374829 77 9079115536092339029
204376 136 18343022215834653103
20645477 56 18338510838042744782
212916 134 18336561459734776024
21401589 2 18333724715503632321
21731228 192 18201717379458481863
22182937 141 18338232665674475241
23402539 116 18194410991690908191
23500284 214 18411134731828867148
270888 7 18334577992219618097
2838139 119 17967821594954733164
474 4 18265336286235643891
5104073 3 17916035568972304088
633830 44 18262522622889691279
77188 2 17257370743897460415
9981440 41 18260836973028333242

> <PUBCHEM_SHAPE_MULTIPOLES>
307.34
10.42
3.49
1.17
8.69
2.18
0.03
-13.75
-1.27
-2.93
-1.09
-0.01
0.07
-0.06

> <PUBCHEM_SHAPE_SELFOVERLAP>
589.522

> <PUBCHEM_SHAPE_VOLUME>
184.9

> <PUBCHEM_COORDINATE_TYPE>
2
5
10

$$$$

