442010
  -OEChem-07051212563D

 71 75  0     1  0  0  0  0  0999 V2000
   -2.9053    0.2004   -1.5887 O   0  0  0  0  0  0  0  0  0  0  0  0
   -1.8193    2.5382   -0.3183 O   0  0  0  0  0  0  0  0  0  0  0  0
    3.6662    0.4153   -0.6289 O   0  0  0  0  0  0  0  0  0  0  0  0
   -2.5308   -2.3658   -0.1669 O   0  0  0  0  0  0  0  0  0  0  0  0
   -2.9610    0.3558    0.8730 O   0  0  0  0  0  0  0  0  0  0  0  0
    5.6510   -0.5590   -1.5242 O   0  0  0  0  0  0  0  0  0  0  0  0
   -1.0520    4.0996   -1.8381 O   0  0  0  0  0  0  0  0  0  0  0  0
   -3.1419   -4.2526   -1.3515 O   0  0  0  0  0  0  0  0  0  0  0  0
   -3.5188   -0.0171    3.0838 O   0  0  0  0  0  0  0  0  0  0  0  0
   -0.8146    0.2828   -0.1735 C   0  0  2  0  0  0  0  0  0  0  0  0
    0.6096   -0.4055   -0.1628 C   0  0  1  0  0  0  0  0  0  0  0  0
   -1.6379   -0.4211   -1.3025 C   0  0  1  0  0  0  0  0  0  0  0  0
    1.7053    0.2537    0.7713 C   0  0  2  0  0  0  0  0  0  0  0  0
   -0.6012    1.8017   -0.4503 C   0  0  2  0  0  0  0  0  0  0  0  0
    1.7697    1.7941    0.4780 C   0  0  1  0  0  0  0  0  0  0  0  0
   -1.7232   -1.9313   -1.2579 C   0  0  1  0  0  0  0  0  0  0  0  0
    0.4890   -1.9443   -0.0128 C   0  0  0  0  0  0  0  0  0  0  0  0
   -1.9411    0.2356   -2.6441 C   0  0  0  0  0  0  0  0  0  0  0  0
    0.3915    2.4630    0.5066 C   0  0  0  0  0  0  0  0  0  0  0  0
    3.0564   -0.3420    0.4261 C   0  0  2  0  0  0  0  0  0  0  0  0
   -0.3399   -2.5545   -1.1449 C   0  0  0  0  0  0  0  0  0  0  0  0
   -1.6027    0.1188    1.1550 C   0  0  0  0  0  0  0  0  0  0  0  0
    1.4782   -0.0352    2.2692 C   0  0  0  0  0  0  0  0  0  0  0  0
    4.0501   -0.2966    1.5743 C   0  0  0  0  0  0  0  0  0  0  0  0
    2.7111    2.5900    1.3962 C   0  0  0  0  0  0  0  0  0  0  0  0
    5.3891   -0.3237    0.8701 C   0  0  2  0  0  0  0  0  0  0  0  0
    5.0953    0.2951   -0.5005 C   0  0  2  0  0  0  0  0  0  0  0  0
    5.8865   -1.6653    0.4780 C   0  0  0  0  0  0  0  0  0  0  0  0
   -1.9062    3.6702   -1.0746 C   0  0  0  0  0  0  0  0  0  0  0  0
   -3.1873   -3.5494   -0.3512 C   0  0  0  0  0  0  0  0  0  0  0  0
   -3.8299    0.2568    1.9325 C   0  0  0  0  0  0  0  0  0  0  0  0
    6.0172   -1.6973   -0.8421 C   0  0  0  0  0  0  0  0  0  0  0  0
   -3.2285    4.3338   -0.8358 C   0  0  0  0  0  0  0  0  0  0  0  0
   -3.9913   -3.8783    0.8701 C   0  0  0  0  0  0  0  0  0  0  0  0
   -5.2334    0.5338    1.4857 C   0  0  0  0  0  0  0  0  0  0  0  0
    0.9984   -0.2568   -1.1851 H   0  0  0  0  0  0  0  0  0  0  0  0
   -0.1941    1.9110   -1.4632 H   0  0  0  0  0  0  0  0  0  0  0  0
    2.1109    1.9649   -0.5518 H   0  0  0  0  0  0  0  0  0  0  0  0
   -2.1735   -2.2763   -2.1980 H   0  0  0  0  0  0  0  0  0  0  0  0
    0.0440   -2.2088    0.9517 H   0  0  0  0  0  0  0  0  0  0  0  0
    1.4541   -2.4519   -0.0347 H   0  0  0  0  0  0  0  0  0  0  0  0
   -1.5273    1.1961   -2.9116 H   0  0  0  0  0  0  0  0  0  0  0  0
   -2.1241   -0.3941   -3.5073 H   0  0  0  0  0  0  0  0  0  0  0  0
    0.5020    3.5212    0.2340 H   0  0  0  0  0  0  0  0  0  0  0  0
   -0.0042    2.4903    1.5286 H   0  0  0  0  0  0  0  0  0  0  0  0
    3.0125   -1.3714    0.0720 H   0  0  0  0  0  0  0  0  0  0  0  0
   -0.4137   -3.6358   -0.9815 H   0  0  0  0  0  0  0  0  0  0  0  0
    0.2003   -2.4071   -2.0888 H   0  0  0  0  0  0  0  0  0  0  0  0
   -1.4964   -0.8835    1.5773 H   0  0  0  0  0  0  0  0  0  0  0  0
   -1.2899    0.8370    1.9140 H   0  0  0  0  0  0  0  0  0  0  0  0
    1.4897   -1.1125    2.4721 H   0  0  0  0  0  0  0  0  0  0  0  0
    0.5124    0.3310    2.6104 H   0  0  0  0  0  0  0  0  0  0  0  0
    2.1830    0.4287    2.9612 H   0  0  0  0  0  0  0  0  0  0  0  0
    4.0402    0.6126    2.1735 H   0  0  0  0  0  0  0  0  0  0  0  0
    3.9318   -1.1415    2.2625 H   0  0  0  0  0  0  0  0  0  0  0  0
    2.6036    3.6634    1.1939 H   0  0  0  0  0  0  0  0  0  0  0  0
    3.7634    2.3777    1.2009 H   0  0  0  0  0  0  0  0  0  0  0  0
    2.4906    2.4610    2.4581 H   0  0  0  0  0  0  0  0  0  0  0  0
    6.1665    0.2153    1.4215 H   0  0  0  0  0  0  0  0  0  0  0  0
    5.5297    1.2948   -0.6071 H   0  0  0  0  0  0  0  0  0  0  0  0
    6.1400   -2.4665    1.1545 H   0  0  0  0  0  0  0  0  0  0  0  0
    6.3853   -2.4981   -1.4579 H   0  0  0  0  0  0  0  0  0  0  0  0
   -3.3131    4.6229    0.2147 H   0  0  0  0  0  0  0  0  0  0  0  0
   -3.2997    5.2340   -1.4530 H   0  0  0  0  0  0  0  0  0  0  0  0
   -4.0386    3.6552   -1.1149 H   0  0  0  0  0  0  0  0  0  0  0  0
   -4.7358   -3.0973    1.0440 H   0  0  0  0  0  0  0  0  0  0  0  0
   -4.5109   -4.8286    0.7180 H   0  0  0  0  0  0  0  0  0  0  0  0
   -3.3286   -3.9773    1.7335 H   0  0  0  0  0  0  0  0  0  0  0  0
   -5.5350   -0.2060    0.7398 H   0  0  0  0  0  0  0  0  0  0  0  0
   -5.9088    0.4626    2.3428 H   0  0  0  0  0  0  0  0  0  0  0  0
   -5.2968    1.5439    1.0736 H   0  0  0  0  0  0  0  0  0  0  0  0
  1 12  1  0  0  0  0
  1 18  1  0  0  0  0
  2 14  1  0  0  0  0
  2 29  1  0  0  0  0
  3 20  1  0  0  0  0
  3 27  1  0  0  0  0
  4 16  1  0  0  0  0
  4 30  1  0  0  0  0
  5 22  1  0  0  0  0
  5 31  1  0  0  0  0
  6 27  1  0  0  0  0
  6 32  1  0  0  0  0
  7 29  2  0  0  0  0
  8 30  2  0  0  0  0
  9 31  2  0  0  0  0
 10 11  1  0  0  0  0
 10 12  1  0  0  0  0
 10 14  1  0  0  0  0
 10 22  1  0  0  0  0
 11 13  1  0  0  0  0
 11 17  1  0  0  0  0
 11 36  1  0  0  0  0
 12 16  1  0  0  0  0
 12 18  1  0  0  0  0
 13 15  1  0  0  0  0
 13 20  1  0  0  0  0
 13 23  1  0  0  0  0
 14 19  1  0  0  0  0
 14 37  1  0  0  0  0
 15 19  1  0  0  0  0
 15 25  1  0  0  0  0
 15 38  1  0  0  0  0
 16 21  1  0  0  0  0
 16 39  1  0  0  0  0
 17 21  1  0  0  0  0
 17 40  1  0  0  0  0
 17 41  1  0  0  0  0
 18 42  1  0  0  0  0
 18 43  1  0  0  0  0
 19 44  1  0  0  0  0
 19 45  1  0  0  0  0
 20 24  1  0  0  0  0
 20 46  1  0  0  0  0
 21 47  1  0  0  0  0
 21 48  1  0  0  0  0
 22 49  1  0  0  0  0
 22 50  1  0  0  0  0
 23 51  1  0  0  0  0
 23 52  1  0  0  0  0
 23 53  1  0  0  0  0
 24 26  1  0  0  0  0
 24 54  1  0  0  0  0
 24 55  1  0  0  0  0
 25 56  1  0  0  0  0
 25 57  1  0  0  0  0
 25 58  1  0  0  0  0
 26 27  1  0  0  0  0
 26 28  1  0  0  0  0
 26 59  1  0  0  0  0
 27 60  1  0  0  0  0
 28 32  2  0  0  0  0
 28 61  1  0  0  0  0
 29 33  1  0  0  0  0
 30 34  1  0  0  0  0
 31 35  1  0  0  0  0
 32 62  1  0  0  0  0
 33 63  1  0  0  0  0
 33 64  1  0  0  0  0
 33 65  1  0  0  0  0
 34 66  1  0  0  0  0
 34 67  1  0  0  0  0
 34 68  1  0  0  0  0
 35 69  1  0  0  0  0
 35 70  1  0  0  0  0
 35 71  1  0  0  0  0
M  END
> <PUBCHEM_COMPOUND_CID>
442010

> <PUBCHEM_CONFORMER_RMSD>
1

> <PUBCHEM_CONFORMER_DIVERSEORDER>
1
3
6
4
5
2

> <PUBCHEM_MMFF94_PARTIAL_CHARGES>
30
1 -0.3
10 0.09
12 -0.04
14 0.28
16 0.38
18 -0.05
2 -0.43
20 0.28
22 0.28
26 0.14
27 0.56
28 -0.29
29 0.66
3 -0.56
30 0.66
31 0.66
32 -0.07
33 0.06
34 0.06
35 0.06
4 -0.43
42 0.1
43 0.1
5 -0.43
6 -0.36
61 0.15
62 0.15
7 -0.57
8 -0.57
9 -0.57

> <PUBCHEM_EFFECTIVE_ROTOR_COUNT>
10.6

> <PUBCHEM_PHARMACOPHORE_FEATURES>
10
1 1 acceptor
1 3 acceptor
1 6 acceptor
1 7 acceptor
1 8 acceptor
1 9 acceptor
5 3 20 24 26 27 rings
5 6 26 27 28 32 rings
6 10 11 12 16 17 21 rings
6 10 11 13 14 15 19 rings

> <PUBCHEM_HEAVY_ATOM_COUNT>
35

> <PUBCHEM_ATOM_DEF_STEREO_COUNT>
10

> <PUBCHEM_ATOM_UDEF_STEREO_COUNT>
0

> <PUBCHEM_BOND_DEF_STEREO_COUNT>
0

> <PUBCHEM_BOND_UDEF_STEREO_COUNT>
0

> <PUBCHEM_ISOTOPIC_ATOM_COUNT>
0

> <PUBCHEM_COMPONENT_COUNT>
1

> <PUBCHEM_CACTVS_TAUTO_COUNT>
1

> <PUBCHEM_CONFORMER_ID>
0006BE9A00000001

> <PUBCHEM_MMFF94_ENERGY>
124.725

> <PUBCHEM_FEATURE_SELFOVERLAP>
51.4

> <PUBCHEM_SHAPE_FINGERPRINT>
107951 10 17699843218053433584
10928967 22 18271815570999400010
11763715 3 18128806469981752188
11991303 11 17845384400160359901
12082328 90 17773865571801058030
12422481 6 17895460454129501726
12553582 1 18335990847944735930
12597179 24 17981606284492206257
12633257 1 18113332012099654392
12788726 201 18129122120182346931
13009979 54 18044644318184883771
131258 38 17393050538899965995
13140716 1 18262520290637890849
13690498 29 18336823109717773350
14856354 85 17559933554463639688
14955137 171 18128521692391572057
15664445 248 17619065032593113940
16752209 62 18267042698517900384
1813 80 18120657928984096022
20739085 24 18121771734326141467
21033648 29 18117011063826911856
22182313 1 18046896358274079340
2818148 4 18195516013444791252
4058900 60 17689437508786413773
469060 322 18342177709015747931
5080951 261 17895780459848525734
508706 21 18336270158115706390
5104073 3 18041003908595628074
513202 73 18200023074794456675
9981440 41 17979646954417795857

> <PUBCHEM_SHAPE_MULTIPOLES>
667.46
10.81
4.73
2.12
14.62
0.64
0.42
-4.78
1.6
-6.77
-1.99
-1.59
0.26
0.92

> <PUBCHEM_SHAPE_SELFOVERLAP>
1426.04

> <PUBCHEM_SHAPE_VOLUME>
364.7

> <PUBCHEM_COORDINATE_TYPE>
2
5
10

$$$$

