53297382
  -OEChem-07051213122D

 50 51  0     0  0  0  0  0  0999 V2000
    6.3491    0.0000    0.0000 Na  0  4  0  0  0  0  0  0  0  0  0  0
    4.8671    6.5369    0.0000 O   0  0  0  0  0  0  0  0  0  0  0  0
    8.3312    6.5369    0.0000 O   0  0  0  0  0  0  0  0  0  0  0  0
    7.4651    8.0369    0.0000 O   0  0  0  0  0  0  0  0  0  0  0  0
    5.7331    8.0369    0.0000 O   0  0  0  0  0  0  0  0  0  0  0  0
    3.1350    3.5369    0.0000 O   0  0  0  0  0  0  0  0  0  0  0  0
   11.7953    6.5369    0.0000 O   0  0  0  0  0  0  0  0  0  0  0  0
    1.4030    6.5369    0.0000 O   0  0  0  0  0  0  0  0  0  0  0  0
   10.0632    3.5369    0.0000 O   0  0  0  0  0  0  0  0  0  0  0  0
    4.0010    5.0369    0.0000 N   0  0  0  0  0  0  0  0  0  0  0  0
   10.0632    6.5369    0.0000 N   0  0  0  0  0  0  0  0  0  0  0  0
    3.1350    6.5369    0.0000 N   0  0  0  0  0  0  0  0  0  0  0  0
    9.1972    5.0369    0.0000 N   0  0  0  0  0  0  0  0  0  0  0  0
    6.5991    6.5369    0.0000 C   0  0  0  0  0  0  0  0  0  0  0  0
    5.7331    6.0369    0.0000 C   0  0  0  0  0  0  0  0  0  0  0  0
    7.4651    6.0369    0.0000 C   0  0  0  0  0  0  0  0  0  0  0  0
    5.7331    5.0369    0.0000 C   0  0  0  0  0  0  0  0  0  0  0  0
    7.4651    5.0369    0.0000 C   0  0  0  0  0  0  0  0  0  0  0  0
    6.5991    4.5369    0.0000 C   0  0  0  0  0  0  0  0  0  0  0  0
    6.5991    7.5369    0.0000 C   0  0  0  0  0  0  0  0  0  0  0  0
    4.0010    6.0369    0.0000 C   0  0  0  0  0  0  0  0  0  0  0  0
    9.1972    6.0369    0.0000 C   0  0  0  0  0  0  0  0  0  0  0  0
    3.1350    4.5369    0.0000 C   0  0  0  0  0  0  0  0  0  0  0  0
   10.9292    6.0369    0.0000 C   0  0  0  0  0  0  0  0  0  0  0  0
    2.2690    6.0369    0.0000 C   0  0  0  0  0  0  0  0  0  0  0  0
   10.0632    4.5369    0.0000 C   0  0  0  0  0  0  0  0  0  0  0  0
    2.2690    5.0369    0.0000 C   0  0  0  0  0  0  0  0  0  0  0  0
   10.9292    5.0369    0.0000 C   0  0  0  0  0  0  0  0  0  0  0  0
    2.2690    3.0369    0.0000 C   0  0  0  0  0  0  0  0  0  0  0  0
   12.6613    6.0369    0.0000 C   0  0  0  0  0  0  0  0  0  0  0  0
    0.5369    6.0369    0.0000 C   0  0  0  0  0  0  0  0  0  0  0  0
   10.9292    3.0369    0.0000 C   0  0  0  0  0  0  0  0  0  0  0  0
    5.1962    4.7269    0.0000 H   0  0  0  0  0  0  0  0  0  0  0  0
    8.0021    4.7269    0.0000 H   0  0  0  0  0  0  0  0  0  0  0  0
    6.5991    3.9169    0.0000 H   0  0  0  0  0  0  0  0  0  0  0  0
    1.7320    4.7269    0.0000 H   0  0  0  0  0  0  0  0  0  0  0  0
   11.4662    4.7269    0.0000 H   0  0  0  0  0  0  0  0  0  0  0  0
    7.4651    8.6569    0.0000 H   0  0  0  0  0  0  0  0  0  0  0  0
    1.9590    3.5739    0.0000 H   0  0  0  0  0  0  0  0  0  0  0  0
    1.7320    2.7269    0.0000 H   0  0  0  0  0  0  0  0  0  0  0  0
    2.5790    2.5000    0.0000 H   0  0  0  0  0  0  0  0  0  0  0  0
   12.3513    5.5000    0.0000 H   0  0  0  0  0  0  0  0  0  0  0  0
   13.1982    5.7269    0.0000 H   0  0  0  0  0  0  0  0  0  0  0  0
   12.9713    6.5739    0.0000 H   0  0  0  0  0  0  0  0  0  0  0  0
    0.2269    6.5739    0.0000 H   0  0  0  0  0  0  0  0  0  0  0  0
    0.0000    5.7269    0.0000 H   0  0  0  0  0  0  0  0  0  0  0  0
    0.8469    5.5000    0.0000 H   0  0  0  0  0  0  0  0  0  0  0  0
   10.6192    2.5000    0.0000 H   0  0  0  0  0  0  0  0  0  0  0  0
   11.4662    2.7269    0.0000 H   0  0  0  0  0  0  0  0  0  0  0  0
   11.2392    3.5739    0.0000 H   0  0  0  0  0  0  0  0  0  0  0  0
  2 15  1  0  0  0  0
  2 21  1  0  0  0  0
  3 16  1  0  0  0  0
  3 22  1  0  0  0  0
  4 20  1  0  0  0  0
  4 38  1  0  0  0  0
  5 20  2  0  0  0  0
  6 23  1  0  0  0  0
  6 29  1  0  0  0  0
  7 24  1  0  0  0  0
  7 30  1  0  0  0  0
  8 25  1  0  0  0  0
  8 31  1  0  0  0  0
  9 26  1  0  0  0  0
  9 32  1  0  0  0  0
 10 21  1  0  0  0  0
 10 23  2  0  0  0  0
 11 22  1  0  0  0  0
 11 24  2  0  0  0  0
 12 21  2  0  0  0  0
 12 25  1  0  0  0  0
 13 22  2  0  0  0  0
 13 26  1  0  0  0  0
 14 15  2  0  0  0  0
 14 16  1  0  0  0  0
 14 20  1  0  0  0  0
 15 17  1  0  0  0  0
 16 18  2  0  0  0  0
 17 19  2  0  0  0  0
 17 33  1  0  0  0  0
 18 19  1  0  0  0  0
 18 34  1  0  0  0  0
 19 35  1  0  0  0  0
 23 27  1  0  0  0  0
 24 28  1  0  0  0  0
 25 27  2  0  0  0  0
 26 28  2  0  0  0  0
 27 36  1  0  0  0  0
 28 37  1  0  0  0  0
 29 39  1  0  0  0  0
 29 40  1  0  0  0  0
 29 41  1  0  0  0  0
 30 42  1  0  0  0  0
 30 43  1  0  0  0  0
 30 44  1  0  0  0  0
 31 45  1  0  0  0  0
 31 46  1  0  0  0  0
 31 47  1  0  0  0  0
 32 48  1  0  0  0  0
 32 49  1  0  0  0  0
 32 50  1  0  0  0  0
M  RAD  1   1   2
M  END
> <PUBCHEM_COMPOUND_CID>
53297382

> <PUBCHEM_COMPOUND_CANONICALIZED>
1

> <PUBCHEM_CACTVS_COMPLEXITY>
509

> <PUBCHEM_CACTVS_HBOND_ACCEPTOR>
12

> <PUBCHEM_CACTVS_HBOND_DONOR>
1

> <PUBCHEM_CACTVS_ROTATABLE_BOND>
9

> <PUBCHEM_CACTVS_SUBSKEYS>
AAADceB7vCAAAAAAAAAAAAAAAAAAAAAAAAA8WIAAAAAAAAAB8AAAHgAACAAADASBmgIznpYIFgCoAiDybACCiCklIqAJmCE2bNiMLzbEfVqMdWgv4B9IuSeI6CyOAAAACAAIAAAAAAAQABAAAAAAAAAAAA==

> <PUBCHEM_IUPAC_OPENEYE_NAME>
2,6-bis[(4,6-dimethoxypyrimidin-2-yl)oxy]benzoic acid; sodium

> <PUBCHEM_IUPAC_CAS_NAME>
2,6-bis[(4,6-dimethoxy-2-pyrimidinyl)oxy]benzoic acid; sodium

> <PUBCHEM_IUPAC_NAME>
2,6-bis[(4,6-dimethoxypyrimidin-2-yl)oxy]benzoic acid; sodium

> <PUBCHEM_IUPAC_SYSTEMATIC_NAME>
2,6-bis[(4,6-dimethoxypyrimidin-2-yl)oxy]benzoic acid; sodium

> <PUBCHEM_IUPAC_TRADITIONAL_NAME>
2,6-bis[(4,6-dimethoxypyrimidin-2-yl)oxy]benzoic acid; sodium

> <PUBCHEM_IUPAC_INCHI>
InChI=1S/C19H18N4O8.Na/c1-26-12-8-13(27-2)21-18(20-12)30-10-6-5-7-11(16(10)17(24)25)31-19-22-14(28-3)9-15(23-19)29-4;/h5-9H,1-4H3,(H,24,25);

> <PUBCHEM_IUPAC_INCHIKEY>
OLXPCSUEHPHOLS-UHFFFAOYSA-N

> <PUBCHEM_EXACT_MASS>
453.102233

> <PUBCHEM_MOLECULAR_FORMULA>
C19H18N4NaO8

> <PUBCHEM_MOLECULAR_WEIGHT>
453.357989

> <PUBCHEM_OPENEYE_CAN_SMILES>
COC1=CC(=NC(=N1)OC2=C(C(=CC=C2)OC3=NC(=CC(=N3)OC)OC)C(=O)O)OC.[Na]

> <PUBCHEM_OPENEYE_ISO_SMILES>
COC1=CC(=NC(=N1)OC2=C(C(=CC=C2)OC3=NC(=CC(=N3)OC)OC)C(=O)O)OC.[Na]

> <PUBCHEM_CACTVS_TPSA>
144

> <PUBCHEM_MONOISOTOPIC_WEIGHT>
453.102233

> <PUBCHEM_TOTAL_CHARGE>
0

> <PUBCHEM_HEAVY_ATOM_COUNT>
32

> <PUBCHEM_ATOM_DEF_STEREO_COUNT>
0

> <PUBCHEM_ATOM_UDEF_STEREO_COUNT>
0

> <PUBCHEM_BOND_DEF_STEREO_COUNT>
0

> <PUBCHEM_BOND_UDEF_STEREO_COUNT>
0

> <PUBCHEM_ISOTOPIC_ATOM_COUNT>
0

> <PUBCHEM_COMPONENT_COUNT>
2

> <PUBCHEM_CACTVS_TAUTO_COUNT>
1

> <PUBCHEM_COORDINATE_TYPE>
1
5
255

> <PUBCHEM_BONDANNOTATIONS>
10  21  8
10  23  8
11  22  8
11  24  8
12  21  8
12  25  8
13  22  8
13  26  8
14  15  8
14  16  8
15  17  8
16  18  8
17  19  8
18  19  8
23  27  8
24  28  8
25  27  8
26  28  8

$$$$

