6857441
  -OEChem-07051213152D

 74 78  0     1  0  0  0  0  0999 V2000
    7.5433   -1.5505    0.0000 O   0  0  0  0  0  0  0  0  0  0  0  0
    6.4758    0.6844    0.0000 C   0  0  1  0  0  0  0  0  0  0  0  0
    5.6098    0.1844    0.0000 C   0  0  2  0  0  0  0  0  0  0  0  0
    4.7438    0.6844    0.0000 C   0  0  1  0  0  0  0  0  0  0  0  0
    7.2129    0.0173    0.0000 C   0  0  2  0  0  0  0  0  0  0  0  0
    4.7438    1.6844    0.0000 C   0  0  1  0  0  0  0  0  0  0  0  0
    3.8498    2.2190    0.0000 C   0  0  2  0  0  0  0  0  0  0  0  0
    6.8078   -0.8905    0.0000 C   0  0  2  0  0  0  0  0  0  0  0  0
    5.8190   -0.7875    0.0000 C   0  0  0  0  0  0  0  0  0  0  0  0
    6.4758    1.6844    0.0000 C   0  0  0  0  0  0  0  0  0  0  0  0
    5.6098    2.1844    0.0000 C   0  0  0  0  0  0  0  0  0  0  0  0
    2.9438    1.7052    0.0000 C   0  0  3  0  0  0  0  0  0  0  0  0
    8.1953   -0.0894    0.0000 C   0  0  1  0  0  0  0  0  0  0  0  0
    3.8498    0.1497    0.0000 C   0  0  0  0  0  0  0  0  0  0  0  0
    2.9438    0.6635    0.0000 C   0  0  0  0  0  0  0  0  0  0  0  0
    7.3419    1.1844    0.0000 C   0  0  0  0  0  0  0  0  0  0  0  0
    8.3991   -1.0564    0.0000 C   0  0  3  0  0  0  0  0  0  0  0  0
    3.8749    3.3037    0.0000 C   0  0  0  0  0  0  0  0  0  0  0  0
    2.0000    2.2404    0.0000 C   0  0  0  0  0  0  0  0  0  0  0  0
    4.7197    2.7123    0.0000 C   0  0  0  0  0  0  0  0  0  0  0  0
    2.9438    3.8606    0.0000 C   0  0  0  0  0  0  0  0  0  0  0  0
    8.8663    0.6520    0.0000 C   0  0  0  0  0  0  0  0  0  0  0  0
    2.0000    3.3254    0.0000 C   0  0  0  0  0  0  0  0  0  0  0  0
    9.3123   -1.4639    0.0000 C   0  0  0  0  0  0  0  0  0  0  0  0
    9.4159   -2.4585    0.0000 C   0  0  0  0  0  0  0  0  0  0  0  0
   10.3291   -2.8660    0.0000 C   0  0  0  0  0  0  0  0  0  0  0  0
   10.4328   -3.8606    0.0000 C   0  0  0  0  0  0  0  0  0  0  0  0
   11.1386   -2.2790    0.0000 C   0  0  0  0  0  0  0  0  0  0  0  0
    4.9228   -0.3161    0.0000 H   0  0  0  0  0  0  0  0  0  0  0  0
    4.7504   -0.1656    0.0000 H   0  0  0  0  0  0  0  0  0  0  0  0
    7.5609    0.7927    0.0000 H   0  0  0  0  0  0  0  0  0  0  0  0
    5.4799    1.2594    0.0000 H   0  0  0  0  0  0  0  0  0  0  0  0
    6.4630   -1.6675    0.0000 H   0  0  0  0  0  0  0  0  0  0  0  0
    5.2025   -0.8535    0.0000 H   0  0  0  0  0  0  0  0  0  0  0  0
    5.8199   -1.4074    0.0000 H   0  0  0  0  0  0  0  0  0  0  0  0
    7.0864    1.5767    0.0000 H   0  0  0  0  0  0  0  0  0  0  0  0
    6.6879    2.2670    0.0000 H   0  0  0  0  0  0  0  0  0  0  0  0
    6.0084    2.6593    0.0000 H   0  0  0  0  0  0  0  0  0  0  0  0
    5.2113    2.6593    0.0000 H   0  0  0  0  0  0  0  0  0  0  0  0
    2.2093    1.2773    0.0000 H   0  0  0  0  0  0  0  0  0  0  0  0
    7.9748    0.4901    0.0000 H   0  0  0  0  0  0  0  0  0  0  0  0
    3.4562   -0.3293    0.0000 H   0  0  0  0  0  0  0  0  0  0  0  0
    4.2544   -0.3201    0.0000 H   0  0  0  0  0  0  0  0  0  0  0  0
    2.3329    0.7696    0.0000 H   0  0  0  0  0  0  0  0  0  0  0  0
    2.7347    0.0799    0.0000 H   0  0  0  0  0  0  0  0  0  0  0  0
    7.6519    0.6474    0.0000 H   0  0  0  0  0  0  0  0  0  0  0  0
    7.8788    1.4944    0.0000 H   0  0  0  0  0  0  0  0  0  0  0  0
    7.0319    1.7213    0.0000 H   0  0  0  0  0  0  0  0  0  0  0  0
    8.4432   -1.9052    0.0000 H   0  0  0  0  0  0  0  0  0  0  0  0
    4.4832    3.1835    0.0000 H   0  0  0  0  0  0  0  0  0  0  0  0
    4.0974    3.8824    0.0000 H   0  0  0  0  0  0  0  0  0  0  0  0
    1.3891    2.3465    0.0000 H   0  0  0  0  0  0  0  0  0  0  0  0
    1.7909    1.6567    0.0000 H   0  0  0  0  0  0  0  0  0  0  0  0
    5.0256    2.1730    0.0000 H   0  0  0  0  0  0  0  0  0  0  0  0
    5.2590    3.0182    0.0000 H   0  0  0  0  0  0  0  0  0  0  0  0
    4.4139    3.2516    0.0000 H   0  0  0  0  0  0  0  0  0  0  0  0
    3.3484    4.3304    0.0000 H   0  0  0  0  0  0  0  0  0  0  0  0
    2.5502    4.3397    0.0000 H   0  0  0  0  0  0  0  0  0  0  0  0
    9.3260    0.2359    0.0000 H   0  0  0  0  0  0  0  0  0  0  0  0
    9.2824    1.1117    0.0000 H   0  0  0  0  0  0  0  0  0  0  0  0
    8.4067    1.0680    0.0000 H   0  0  0  0  0  0  0  0  0  0  0  0
    1.7909    3.9091    0.0000 H   0  0  0  0  0  0  0  0  0  0  0  0
    1.3891    3.2193    0.0000 H   0  0  0  0  0  0  0  0  0  0  0  0
    9.9307   -1.5077    0.0000 H   0  0  0  0  0  0  0  0  0  0  0  0
    9.4628   -0.8624    0.0000 H   0  0  0  0  0  0  0  0  0  0  0  0
    8.7975   -2.4147    0.0000 H   0  0  0  0  0  0  0  0  0  0  0  0
    9.2654   -3.0600    0.0000 H   0  0  0  0  0  0  0  0  0  0  0  0
    9.8272   -3.2300    0.0000 H   0  0  0  0  0  0  0  0  0  0  0  0
    9.8161   -3.9249    0.0000 H   0  0  0  0  0  0  0  0  0  0  0  0
   10.4971   -4.4773    0.0000 H   0  0  0  0  0  0  0  0  0  0  0  0
   11.0494   -3.7964    0.0000 H   0  0  0  0  0  0  0  0  0  0  0  0
   11.5026   -2.7809    0.0000 H   0  0  0  0  0  0  0  0  0  0  0  0
   11.6405   -1.9150    0.0000 H   0  0  0  0  0  0  0  0  0  0  0  0
   10.7747   -1.7770    0.0000 H   0  0  0  0  0  0  0  0  0  0  0  0
  1  8  1  0  0  0  0
  1 17  1  0  0  0  0
  2  3  1  0  0  0  0
  2  5  1  0  0  0  0
  2 10  1  0  0  0  0
  2 16  1  1  0  0  0
  3  4  1  0  0  0  0
  3  9  1  0  0  0  0
  3 29  1  6  0  0  0
  4  6  1  0  0  0  0
  4 14  1  0  0  0  0
  4 30  1  1  0  0  0
  5  8  1  0  0  0  0
  5 13  1  0  0  0  0
  5 31  1  6  0  0  0
  6  7  1  0  0  0  0
  6 11  1  0  0  0  0
  6 32  1  6  0  0  0
  7 12  1  0  0  0  0
  7 18  1  0  0  0  0
  7 20  1  1  0  0  0
  8  9  1  0  0  0  0
  8 33  1  6  0  0  0
  9 34  1  0  0  0  0
  9 35  1  0  0  0  0
 10 11  1  0  0  0  0
 10 36  1  0  0  0  0
 10 37  1  0  0  0  0
 11 38  1  0  0  0  0
 11 39  1  0  0  0  0
 12 15  1  0  0  0  0
 12 19  1  0  0  0  0
 12 40  1  0  0  0  0
 13 17  1  0  0  0  0
 13 22  1  6  0  0  0
 13 41  1  0  0  0  0
 14 15  1  0  0  0  0
 14 42  1  0  0  0  0
 14 43  1  0  0  0  0
 15 44  1  0  0  0  0
 15 45  1  0  0  0  0
 16 46  1  0  0  0  0
 16 47  1  0  0  0  0
 16 48  1  0  0  0  0
 17 24  1  0  0  0  0
 17 49  1  0  0  0  0
 18 21  1  0  0  0  0
 18 50  1  0  0  0  0
 18 51  1  0  0  0  0
 19 23  1  0  0  0  0
 19 52  1  0  0  0  0
 19 53  1  0  0  0  0
 20 54  1  0  0  0  0
 20 55  1  0  0  0  0
 20 56  1  0  0  0  0
 21 23  1  0  0  0  0
 21 57  1  0  0  0  0
 21 58  1  0  0  0  0
 22 59  1  0  0  0  0
 22 60  1  0  0  0  0
 22 61  1  0  0  0  0
 23 62  1  0  0  0  0
 23 63  1  0  0  0  0
 24 25  1  0  0  0  0
 24 64  1  0  0  0  0
 24 65  1  0  0  0  0
 25 26  1  0  0  0  0
 25 66  1  0  0  0  0
 25 67  1  0  0  0  0
 26 27  1  0  0  0  0
 26 28  1  0  0  0  0
 26 68  1  0  0  0  0
 27 69  1  0  0  0  0
 27 70  1  0  0  0  0
 27 71  1  0  0  0  0
 28 72  1  0  0  0  0
 28 73  1  0  0  0  0
 28 74  1  0  0  0  0
M  END
> <PUBCHEM_COMPOUND_CID>
6857441

> <PUBCHEM_COMPOUND_CANONICALIZED>
1

> <PUBCHEM_CACTVS_COMPLEXITY>
583

> <PUBCHEM_CACTVS_HBOND_ACCEPTOR>
1

> <PUBCHEM_CACTVS_HBOND_DONOR>
0

> <PUBCHEM_CACTVS_ROTATABLE_BOND>
3

> <PUBCHEM_CACTVS_SUBSKEYS>
AAADcfB4IAAAAAAAAAAAAAAAAAAAAaIAAAAwYMAAAAASAGDAAAAAGgAAAAAADxSggAICAAAABAAAAAAAAAAAAAAAAAAAAAAAAAAAAAIAAAACAAAEAAAAAAGAwPAPgAAAAAAAAACAAAQAACAAAYAADAAAAA==

> <PUBCHEM_IUPAC_INCHI>
InChI=1S/C27H46O/c1-17(2)9-12-23-18(3)25-24(28-23)16-22-20-11-10-19-8-6-7-14-26(19,4)21(20)13-15-27(22,25)5/h17-25H,6-16H2,1-5H3/t18-,19?,20-,21+,22+,23?,24+,25+,26+,27+/m1/s1

> <PUBCHEM_IUPAC_INCHIKEY>
CTYOUOHIEXEYAW-ACOCQKODSA-N

> <PUBCHEM_XLOGP3_AA>
9.2

> <PUBCHEM_EXACT_MASS>
386.354866

> <PUBCHEM_MOLECULAR_FORMULA>
C27H46O

> <PUBCHEM_MOLECULAR_WEIGHT>
386.65354

> <PUBCHEM_OPENEYE_CAN_SMILES>
CC1C(OC2C1C3(CCC4C(C3C2)CCC5C4(CCCC5)C)C)CCC(C)C

> <PUBCHEM_OPENEYE_ISO_SMILES>
C[C@H]1[C@H]2[C@H](C[C@@H]3[C@@]2(CC[C@H]4[C@H]3CCC5[C@@]4(CCCC5)C)C)OC1CCC(C)C

> <PUBCHEM_CACTVS_TPSA>
9.2

> <PUBCHEM_MONOISOTOPIC_WEIGHT>
386.354866

> <PUBCHEM_TOTAL_CHARGE>
0

> <PUBCHEM_HEAVY_ATOM_COUNT>
28

> <PUBCHEM_ATOM_DEF_STEREO_COUNT>
8

> <PUBCHEM_ATOM_UDEF_STEREO_COUNT>
2

> <PUBCHEM_BOND_DEF_STEREO_COUNT>
0

> <PUBCHEM_BOND_UDEF_STEREO_COUNT>
0

> <PUBCHEM_ISOTOPIC_ATOM_COUNT>
0

> <PUBCHEM_COMPONENT_COUNT>
1

> <PUBCHEM_CACTVS_TAUTO_COUNT>
1

> <PUBCHEM_COORDINATE_TYPE>
1
5
255

> <PUBCHEM_BONDANNOTATIONS>
12  40  3
13  22  6
17  49  3
2  16  5
3  29  6
4  30  5
5  31  6
6  32  6
7  20  5
8  33  6

$$$$

