13626
  -OEChem-06241222393D

 17 17  0     1  0  0  0  0  0999 V2000
    3.8205    0.1930   -0.2265 Cl  0  0  0  0  0  0  0  0  0  0  0  0
   -2.4331   -0.2826    0.4071 S   0  0  2  0  0  0  0  0  0  0  0  0
   -2.9573    1.1148    0.5872 O   0  0  0  0  0  0  0  0  0  0  0  0
   -0.6544   -0.1469    0.2284 C   0  0  0  0  0  0  0  0  0  0  0  0
   -0.0822    1.0674   -0.1503 C   0  0  0  0  0  0  0  0  0  0  0  0
    0.1571   -1.2561    0.4669 C   0  0  0  0  0  0  0  0  0  0  0  0
    1.3016    1.1726   -0.2905 C   0  0  0  0  0  0  0  0  0  0  0  0
    1.5410   -1.1510    0.3268 C   0  0  0  0  0  0  0  0  0  0  0  0
    2.1133    0.0635   -0.0519 C   0  0  0  0  0  0  0  0  0  0  0  0
   -2.8064   -0.7746   -1.2971 C   0  0  0  0  0  0  0  0  0  0  0  0
   -0.6928    1.9445   -0.3472 H   0  0  0  0  0  0  0  0  0  0  0  0
   -0.2743   -2.2092    0.7622 H   0  0  0  0  0  0  0  0  0  0  0  0
    1.7338    2.1247   -0.5878 H   0  0  0  0  0  0  0  0  0  0  0  0
    2.1610   -2.0237    0.5155 H   0  0  0  0  0  0  0  0  0  0  0  0
   -2.4349   -0.0209   -1.9958 H   0  0  0  0  0  0  0  0  0  0  0  0
   -3.8906   -0.8610   -1.4020 H   0  0  0  0  0  0  0  0  0  0  0  0
   -2.3461   -1.7429   -1.5080 H   0  0  0  0  0  0  0  0  0  0  0  0
  1  9  1  0  0  0  0
  2  3  2  0  0  0  0
  2  4  1  0  0  0  0
  2 10  1  0  0  0  0
  4  5  2  0  0  0  0
  4  6  1  0  0  0  0
  5  7  1  0  0  0  0
  5 11  1  0  0  0  0
  6  8  2  0  0  0  0
  6 12  1  0  0  0  0
  7  9  2  0  0  0  0
  7 13  1  0  0  0  0
  8  9  1  0  0  0  0
  8 14  1  0  0  0  0
 10 15  1  0  0  0  0
 10 16  1  0  0  0  0
 10 17  1  0  0  0  0
M  END
> <PUBCHEM_COMPOUND_CID>
13626

> <PUBCHEM_CONFORMER_RMSD>
0.4

> <PUBCHEM_CONFORMER_DIVERSEORDER>
1
2

> <PUBCHEM_MMFF94_PARTIAL_CHARGES>
14
1 -0.18
10 0.19
11 0.15
12 0.15
13 0.15
14 0.15
2 0.24
3 -0.5
4 0.06
5 -0.15
6 -0.15
7 -0.15
8 -0.15
9 0.18

> <PUBCHEM_EFFECTIVE_ROTOR_COUNT>
1

> <PUBCHEM_PHARMACOPHORE_FEATURES>
2
1 3 acceptor
6 4 5 6 7 8 9 rings

> <PUBCHEM_HEAVY_ATOM_COUNT>
10

> <PUBCHEM_ATOM_DEF_STEREO_COUNT>
0

> <PUBCHEM_ATOM_UDEF_STEREO_COUNT>
1

> <PUBCHEM_BOND_DEF_STEREO_COUNT>
0

> <PUBCHEM_BOND_UDEF_STEREO_COUNT>
0

> <PUBCHEM_ISOTOPIC_ATOM_COUNT>
0

> <PUBCHEM_COMPONENT_COUNT>
1

> <PUBCHEM_CACTVS_TAUTO_COUNT>
1

> <PUBCHEM_CONFORMER_ID>
0000353A00000001

> <PUBCHEM_MMFF94_ENERGY>
20.0223

> <PUBCHEM_FEATURE_SELFOVERLAP>
10.148

> <PUBCHEM_SHAPE_FINGERPRINT>
10219947 1 17846497028359625364
12932764 1 17821730533096559115
14128692 85 18041567931646976079
14325111 11 18412539899305049600
14993402 34 18335144167571451494
15775835 57 18334571373785096113
16945 1 18202285792578434320
19026448 4 16443064993635360426
193761 8 17622729039048854104
21040471 1 18198616644946029072
21293036 1 18201159862564778694
23235685 24 18272650138751843744
23402539 116 18334580157372862300
23402655 69 18269006426475220805
2748010 2 17910948050669601818
29004967 10 17989200468974540433
5084963 1 17345470392930347531
528886 8 18342175574427089867

> <PUBCHEM_SHAPE_MULTIPOLES>
205.65
5.23
1.32
0.89
0.87
0.02
-0.19
0.28
-0.7
-0.03
0.08
-0.59
-0.1
-0.46

> <PUBCHEM_SHAPE_SELFOVERLAP>
396.909

> <PUBCHEM_SHAPE_VOLUME>
127.1

> <PUBCHEM_COORDINATE_TYPE>
2
5
10

$$$$

