7279
  -OEChem-06261201582D

 11 10  0     0  0  0  0  0  0999 V2000
    3.7320   -0.7500    0.0000 Br  0  0  0  0  0  0  0  0  0  0  0  0
    2.0000    0.2500    0.0000 Br  0  0  0  0  0  0  0  0  0  0  0  0
    5.4641    0.2500    0.0000 Br  0  0  0  0  0  0  0  0  0  0  0  0
    3.7320    0.2500    0.0000 C   0  0  0  0  0  0  0  0  0  0  0  0
    4.5981    0.7500    0.0000 C   0  0  0  0  0  0  0  0  0  0  0  0
    2.8660    0.7500    0.0000 C   0  0  0  0  0  0  0  0  0  0  0  0
    4.2690   -0.0600    0.0000 H   0  0  0  0  0  0  0  0  0  0  0  0
    4.9966    1.2250    0.0000 H   0  0  0  0  0  0  0  0  0  0  0  0
    4.1996    1.2250    0.0000 H   0  0  0  0  0  0  0  0  0  0  0  0
    3.2646    1.2250    0.0000 H   0  0  0  0  0  0  0  0  0  0  0  0
    2.4675    1.2250    0.0000 H   0  0  0  0  0  0  0  0  0  0  0  0
  1  4  1  0  0  0  0
  2  6  1  0  0  0  0
  3  5  1  0  0  0  0
  4  5  1  0  0  0  0
  4  6  1  0  0  0  0
  4  7  1  0  0  0  0
  5  8  1  0  0  0  0
  5  9  1  0  0  0  0
  6 10  1  0  0  0  0
  6 11  1  0  0  0  0
M  END
> <PUBCHEM_COMPOUND_CID>
7279

> <PUBCHEM_COMPOUND_CANONICALIZED>
1

> <PUBCHEM_CACTVS_COMPLEXITY>
25.2

> <PUBCHEM_CACTVS_HBOND_ACCEPTOR>
0

> <PUBCHEM_CACTVS_HBOND_DONOR>
0

> <PUBCHEM_CACTVS_ROTATABLE_BOND>
2

> <PUBCHEM_CACTVS_SUBSKEYS>
AAADcYBAAAAAGAAAAAAAAAAAAAAAAAAAAAAAAAAAAAAAAAAAAAAAGABAAAAByACAAAAAAAAAAAAAAAAAAAAAAAAAAAAAAAAAACAAAAAAAAAAAAAAAAAAAAAAAAAAAAAAAAAAAAAAAAAAAAAAAAAAAAAAAA==

> <PUBCHEM_IUPAC_OPENEYE_NAME>
1,2,3-tribromopropane

> <PUBCHEM_IUPAC_CAS_NAME>
1,2,3-tribromopropane

> <PUBCHEM_IUPAC_NAME>
1,2,3-tribromopropane

> <PUBCHEM_IUPAC_SYSTEMATIC_NAME>
1,2,3-tris(bromanyl)propane

> <PUBCHEM_IUPAC_TRADITIONAL_NAME>
1,2,3-tribromopropane

> <PUBCHEM_IUPAC_INCHI>
InChI=1S/C3H5Br3/c4-1-3(6)2-5/h3H,1-2H2

> <PUBCHEM_IUPAC_INCHIKEY>
FHCLGDLYRUPKAM-UHFFFAOYSA-N

> <PUBCHEM_XLOGP3_AA>
2.6

> <PUBCHEM_EXACT_MASS>
279.79209

> <PUBCHEM_MOLECULAR_FORMULA>
C3H5Br3

> <PUBCHEM_MOLECULAR_WEIGHT>
280.7838

> <PUBCHEM_OPENEYE_CAN_SMILES>
C(C(CBr)Br)Br

> <PUBCHEM_OPENEYE_ISO_SMILES>
C(C(CBr)Br)Br

> <PUBCHEM_CACTVS_TPSA>
0

> <PUBCHEM_MONOISOTOPIC_WEIGHT>
277.794136

> <PUBCHEM_TOTAL_CHARGE>
0

> <PUBCHEM_HEAVY_ATOM_COUNT>
6

> <PUBCHEM_ATOM_DEF_STEREO_COUNT>
0

> <PUBCHEM_ATOM_UDEF_STEREO_COUNT>
0

> <PUBCHEM_BOND_DEF_STEREO_COUNT>
0

> <PUBCHEM_BOND_UDEF_STEREO_COUNT>
0

> <PUBCHEM_ISOTOPIC_ATOM_COUNT>
0

> <PUBCHEM_COMPONENT_COUNT>
1

> <PUBCHEM_CACTVS_TAUTO_COUNT>
1

> <PUBCHEM_COORDINATE_TYPE>
1
5
255

$$$$

