442233
  -OEChem-07051212573D

 96102  0     1  0  0  0  0  0999 V2000
    5.1739    0.7792   -2.2128 O   0  0  0  0  0  0  0  0  0  0  0  0
   -1.0337    1.1970   -0.7522 O   0  0  0  0  0  0  0  0  0  0  0  0
    7.6928   -0.0591   -1.8211 O   0  0  0  0  0  0  0  0  0  0  0  0
    0.6218    1.2195   -2.9802 O   0  0  0  0  0  0  0  0  0  0  0  0
   -3.2277   -3.7120   -1.8481 O   0  0  0  0  0  0  0  0  0  0  0  0
   -5.4155   -4.9204   -0.6372 O   0  0  0  0  0  0  0  0  0  0  0  0
    0.1800    3.6548   -1.0449 O   0  0  0  0  0  0  0  0  0  0  0  0
   -0.6326    5.7892    0.5199 O   0  0  0  0  0  0  0  0  0  0  0  0
    4.2073   -2.0706    3.1835 N   0  0  2  0  0  0  0  0  0  0  0  0
   -5.4782    1.3889    0.7578 N   0  0  2  0  0  0  0  0  0  0  0  0
    3.6577   -1.6464    1.8694 C   0  0  2  0  0  0  0  0  0  0  0  0
    4.7420   -1.1914    0.8866 C   0  0  0  0  0  0  0  0  0  0  0  0
    2.6228   -0.5096    2.0291 C   0  0  0  0  0  0  0  0  0  0  0  0
    6.0799   -1.5887    1.0779 C   0  0  0  0  0  0  0  0  0  0  0  0
    5.2942   -3.0420    2.9811 C   0  0  0  0  0  0  0  0  0  0  0  0
    4.3754   -0.4234   -0.2481 C   0  0  0  0  0  0  0  0  0  0  0  0
    6.4813   -2.3679    2.2992 C   0  0  0  0  0  0  0  0  0  0  0  0
    2.0956   -0.0505    0.6880 C   0  0  0  0  0  0  0  0  0  0  0  0
    2.9637   -0.0119   -0.4245 C   0  0  0  0  0  0  0  0  0  0  0  0
    7.0602   -1.1998    0.1601 C   0  0  0  0  0  0  0  0  0  0  0  0
    5.3889   -0.0537   -1.1504 C   0  0  0  0  0  0  0  0  0  0  0  0
    3.1839   -2.6719    4.0453 C   0  0  0  0  0  0  0  0  0  0  0  0
   -4.3506    0.6040    0.2079 C   0  0  2  0  0  0  0  0  0  0  0  0
    0.7621    0.3709    0.5713 C   0  0  0  0  0  0  0  0  0  0  0  0
    6.7149   -0.4389   -0.9500 C   0  0  0  0  0  0  0  0  0  0  0  0
    2.4325    0.4177   -1.6538 C   0  0  0  0  0  0  0  0  0  0  0  0
   -4.6549   -0.8677   -0.0212 C   0  0  0  0  0  0  0  0  0  0  0  0
   -3.1275    0.7620    1.1256 C   0  0  0  0  0  0  0  0  0  0  0  0
   -6.1588    0.6787    1.8477 C   0  0  0  0  0  0  0  0  0  0  0  0
    0.2656    0.8021   -0.6547 C   0  0  0  0  0  0  0  0  0  0  0  0
   -6.7167   -0.6864    1.4384 C   0  0  0  0  0  0  0  0  0  0  0  0
   -5.7558   -1.4858    0.5984 C   0  0  0  0  0  0  0  0  0  0  0  0
    1.0984    0.8198   -1.7674 C   0  0  0  0  0  0  0  0  0  0  0  0
   -2.4565    2.0845    0.9525 C   0  0  0  0  0  0  0  0  0  0  0  0
   -6.4096    1.8178   -0.2862 C   0  0  0  0  0  0  0  0  0  0  0  0
   -3.8129   -1.6343   -0.8428 C   0  0  0  0  0  0  0  0  0  0  0  0
   -1.4414    2.2655    0.0283 C   0  0  0  0  0  0  0  0  0  0  0  0
   -6.0016   -2.8488    0.3789 C   0  0  0  0  0  0  0  0  0  0  0  0
   -4.0616   -2.9912   -1.0478 C   0  0  0  0  0  0  0  0  0  0  0  0
   -5.1552   -3.5983   -0.4368 C   0  0  0  0  0  0  0  0  0  0  0  0
   -2.8624    3.1624    1.7393 C   0  0  0  0  0  0  0  0  0  0  0  0
   -0.8202    3.4927   -0.1322 C   0  0  0  0  0  0  0  0  0  0  0  0
    7.9548   -0.9299   -2.9191 C   0  0  0  0  0  0  0  0  0  0  0  0
   -2.2475    4.4053    1.5904 C   0  0  0  0  0  0  0  0  0  0  0  0
   -1.2264    4.5705    0.6545 C   0  0  0  0  0  0  0  0  0  0  0  0
    0.0662    0.2113   -3.8216 C   0  0  0  0  0  0  0  0  0  0  0  0
   -2.1107   -4.3390   -1.2212 C   0  0  0  0  0  0  0  0  0  0  0  0
   -6.2628   -5.2556   -1.7347 C   0  0  0  0  0  0  0  0  0  0  0  0
   -0.2022    4.0525   -2.3595 C   0  0  0  0  0  0  0  0  0  0  0  0
    0.5070    6.0487    1.3372 C   0  0  0  0  0  0  0  0  0  0  0  0
    3.1649   -2.5094    1.3951 H   0  0  0  0  0  0  0  0  0  0  0  0
    3.0670    0.3557    2.5390 H   0  0  0  0  0  0  0  0  0  0  0  0
    1.7755   -0.8521    2.6329 H   0  0  0  0  0  0  0  0  0  0  0  0
    4.9467   -3.8984    2.3870 H   0  0  0  0  0  0  0  0  0  0  0  0
    5.6439   -3.4379    3.9429 H   0  0  0  0  0  0  0  0  0  0  0  0
    6.9665   -1.6781    3.0015 H   0  0  0  0  0  0  0  0  0  0  0  0
    7.2143   -3.1368    2.0271 H   0  0  0  0  0  0  0  0  0  0  0  0
    8.0974   -1.4861    0.3181 H   0  0  0  0  0  0  0  0  0  0  0  0
    2.6760   -3.5128    3.5596 H   0  0  0  0  0  0  0  0  0  0  0  0
    2.4347   -1.9360    4.3510 H   0  0  0  0  0  0  0  0  0  0  0  0
    3.6309   -3.0364    4.9778 H   0  0  0  0  0  0  0  0  0  0  0  0
   -4.0913    1.0250   -0.7749 H   0  0  0  0  0  0  0  0  0  0  0  0
    0.1167    0.3429    1.4460 H   0  0  0  0  0  0  0  0  0  0  0  0
    3.0102    0.4042   -2.5714 H   0  0  0  0  0  0  0  0  0  0  0  0
   -3.3786    0.6091    2.1829 H   0  0  0  0  0  0  0  0  0  0  0  0
   -2.3940   -0.0320    0.9337 H   0  0  0  0  0  0  0  0  0  0  0  0
   -5.4664    0.5450    2.6873 H   0  0  0  0  0  0  0  0  0  0  0  0
   -6.9691    1.2979    2.2532 H   0  0  0  0  0  0  0  0  0  0  0  0
   -7.6430   -0.5518    0.8663 H   0  0  0  0  0  0  0  0  0  0  0  0
   -6.9693   -1.2485    2.3457 H   0  0  0  0  0  0  0  0  0  0  0  0
   -5.8979    2.4659   -1.0067 H   0  0  0  0  0  0  0  0  0  0  0  0
   -6.8534    0.9827   -0.8380 H   0  0  0  0  0  0  0  0  0  0  0  0
   -7.2206    2.4160    0.1439 H   0  0  0  0  0  0  0  0  0  0  0  0
   -2.9566   -1.1685   -1.3261 H   0  0  0  0  0  0  0  0  0  0  0  0
   -6.8617   -3.3254    0.8440 H   0  0  0  0  0  0  0  0  0  0  0  0
    6.0188    0.9702   -2.6544 H   0  0  0  0  0  0  0  0  0  0  0  0
   -3.6533    3.0491    2.4760 H   0  0  0  0  0  0  0  0  0  0  0  0
   -2.5685    5.2403    2.2071 H   0  0  0  0  0  0  0  0  0  0  0  0
    8.7243   -0.4699   -3.5452 H   0  0  0  0  0  0  0  0  0  0  0  0
    8.3267   -1.8946   -2.5598 H   0  0  0  0  0  0  0  0  0  0  0  0
    7.0541   -1.0773   -3.5235 H   0  0  0  0  0  0  0  0  0  0  0  0
   -0.2792    0.6871   -4.7435 H   0  0  0  0  0  0  0  0  0  0  0  0
    0.8238   -0.5367   -4.0757 H   0  0  0  0  0  0  0  0  0  0  0  0
   -0.7884   -0.2692   -3.3346 H   0  0  0  0  0  0  0  0  0  0  0  0
   -1.4538   -3.5886   -0.7699 H   0  0  0  0  0  0  0  0  0  0  0  0
   -2.4450   -5.0522   -0.4611 H   0  0  0  0  0  0  0  0  0  0  0  0
   -1.5484   -4.8812   -1.9862 H   0  0  0  0  0  0  0  0  0  0  0  0
   -6.3667   -6.3436   -1.7672 H   0  0  0  0  0  0  0  0  0  0  0  0
   -5.8229   -4.9177   -2.6784 H   0  0  0  0  0  0  0  0  0  0  0  0
   -7.2549   -4.8127   -1.6023 H   0  0  0  0  0  0  0  0  0  0  0  0
    0.6790    4.0068   -3.0050 H   0  0  0  0  0  0  0  0  0  0  0  0
   -0.9775    3.3943   -2.7645 H   0  0  0  0  0  0  0  0  0  0  0  0
   -0.5671    5.0845   -2.3470 H   0  0  0  0  0  0  0  0  0  0  0  0
    0.8726    7.0531    1.1065 H   0  0  0  0  0  0  0  0  0  0  0  0
    1.3045    5.3291    1.1265 H   0  0  0  0  0  0  0  0  0  0  0  0
    0.2356    6.0096    2.3968 H   0  0  0  0  0  0  0  0  0  0  0  0
  1 21  1  0  0  0  0
  1 76  1  0  0  0  0
  2 30  1  0  0  0  0
  2 37  1  0  0  0  0
  3 25  1  0  0  0  0
  3 43  1  0  0  0  0
  4 33  1  0  0  0  0
  4 46  1  0  0  0  0
  5 39  1  0  0  0  0
  5 47  1  0  0  0  0
  6 40  1  0  0  0  0
  6 48  1  0  0  0  0
  7 42  1  0  0  0  0
  7 49  1  0  0  0  0
  8 45  1  0  0  0  0
  8 50  1  0  0  0  0
  9 11  1  0  0  0  0
  9 15  1  0  0  0  0
  9 22  1  0  0  0  0
 10 23  1  0  0  0  0
 10 29  1  0  0  0  0
 10 35  1  0  0  0  0
 11 12  1  0  0  0  0
 11 13  1  0  0  0  0
 11 51  1  0  0  0  0
 12 14  1  0  0  0  0
 12 16  2  0  0  0  0
 13 18  1  0  0  0  0
 13 52  1  0  0  0  0
 13 53  1  0  0  0  0
 14 17  1  0  0  0  0
 14 20  2  0  0  0  0
 15 17  1  0  0  0  0
 15 54  1  0  0  0  0
 15 55  1  0  0  0  0
 16 19  1  0  0  0  0
 16 21  1  0  0  0  0
 17 56  1  0  0  0  0
 17 57  1  0  0  0  0
 18 19  1  0  0  0  0
 18 24  2  0  0  0  0
 19 26  2  0  0  0  0
 20 25  1  0  0  0  0
 20 58  1  0  0  0  0
 21 25  2  0  0  0  0
 22 59  1  0  0  0  0
 22 60  1  0  0  0  0
 22 61  1  0  0  0  0
 23 27  1  0  0  0  0
 23 28  1  0  0  0  0
 23 62  1  0  0  0  0
 24 30  1  0  0  0  0
 24 63  1  0  0  0  0
 26 33  1  0  0  0  0
 26 64  1  0  0  0  0
 27 32  1  0  0  0  0
 27 36  2  0  0  0  0
 28 34  1  0  0  0  0
 28 65  1  0  0  0  0
 28 66  1  0  0  0  0
 29 31  1  0  0  0  0
 29 67  1  0  0  0  0
 29 68  1  0  0  0  0
 30 33  2  0  0  0  0
 31 32  1  0  0  0  0
 31 69  1  0  0  0  0
 31 70  1  0  0  0  0
 32 38  2  0  0  0  0
 34 37  2  0  0  0  0
 34 41  1  0  0  0  0
 35 71  1  0  0  0  0
 35 72  1  0  0  0  0
 35 73  1  0  0  0  0
 36 39  1  0  0  0  0
 36 74  1  0  0  0  0
 37 42  1  0  0  0  0
 38 40  1  0  0  0  0
 38 75  1  0  0  0  0
 39 40  2  0  0  0  0
 41 44  2  0  0  0  0
 41 77  1  0  0  0  0
 42 45  2  0  0  0  0
 43 79  1  0  0  0  0
 43 80  1  0  0  0  0
 43 81  1  0  0  0  0
 44 45  1  0  0  0  0
 44 78  1  0  0  0  0
 46 82  1  0  0  0  0
 46 83  1  0  0  0  0
 46 84  1  0  0  0  0
 47 85  1  0  0  0  0
 47 86  1  0  0  0  0
 47 87  1  0  0  0  0
 48 88  1  0  0  0  0
 48 89  1  0  0  0  0
 48 90  1  0  0  0  0
 49 91  1  0  0  0  0
 49 92  1  0  0  0  0
 49 93  1  0  0  0  0
 50 94  1  0  0  0  0
 50 95  1  0  0  0  0
 50 96  1  0  0  0  0
M  END
> <PUBCHEM_COMPOUND_CID>
442233

> <PUBCHEM_CONFORMER_RMSD>
1.2

> <PUBCHEM_CONFORMER_DIVERSEORDER>
1
14
37
40
39
43
25
26
46
8
13
35
10
23
41
12
22
27
15
45
6
20
19
21
42
17
11
31
7
9
34
28
44
24
5
30
2
36
29
18
38
16
3
33
32
4

> <PUBCHEM_MMFF94_PARTIAL_CHARGES>
56
1 -0.53
10 -0.81
11 0.41
12 -0.14
13 0.14
14 -0.14
15 0.27
17 0.14
18 -0.14
2 -0.17
20 -0.15
21 0.08
22 0.27
23 0.41
24 -0.15
25 0.08
26 -0.15
27 -0.14
28 0.14
29 0.27
3 -0.36
30 0.08
31 0.14
32 -0.14
33 0.08
34 -0.14
35 0.27
36 -0.15
37 0.08
38 -0.15
39 0.08
4 -0.36
40 0.08
41 -0.15
42 0.08
43 0.28
44 -0.15
45 0.08
46 0.28
47 0.28
48 0.28
49 0.28
5 -0.36
50 0.28
58 0.15
6 -0.36
63 0.15
64 0.15
7 -0.36
74 0.15
75 0.15
76 0.45
77 0.15
78 0.15
8 -0.36
9 -0.81

> <PUBCHEM_EFFECTIVE_ROTOR_COUNT>
11.6

> <PUBCHEM_PHARMACOPHORE_FEATURES>
17
1 1 donor
1 10 cation
1 2 acceptor
1 3 acceptor
1 4 acceptor
1 5 acceptor
1 6 acceptor
1 7 acceptor
1 8 acceptor
1 9 cation
6 10 23 27 29 31 32 rings
6 11 12 13 16 18 19 rings
6 12 14 16 20 21 25 rings
6 18 19 24 26 30 33 rings
6 27 32 36 38 39 40 rings
6 34 37 41 42 44 45 rings
6 9 11 12 14 15 17 rings

> <PUBCHEM_HEAVY_ATOM_COUNT>
50

> <PUBCHEM_ATOM_DEF_STEREO_COUNT>
2

> <PUBCHEM_ATOM_UDEF_STEREO_COUNT>
0

> <PUBCHEM_BOND_DEF_STEREO_COUNT>
0

> <PUBCHEM_BOND_UDEF_STEREO_COUNT>
0

> <PUBCHEM_ISOTOPIC_ATOM_COUNT>
0

> <PUBCHEM_COMPONENT_COUNT>
1

> <PUBCHEM_CACTVS_TAUTO_COUNT>
3

> <PUBCHEM_CONFORMER_ID>
0006BF7900000001

> <PUBCHEM_MMFF94_ENERGY>
229.654

> <PUBCHEM_FEATURE_SELFOVERLAP>
86.393

> <PUBCHEM_SHAPE_FINGERPRINT>
10290309 65 17542492186397114041
10319688 45 18408605889788242377
10622 236 17988094377605093107
10908659 184 18193810744774024203
11135926 11 16988840558356989602
11136131 41 17614007291985276633
12144603 126 18058997493055575157
131258 38 17693390944572839143
13782708 43 17603304860585351374
13947930 73 17676784101171110290
14068700 675 18410571760601361833
14705955 166 16661473177689470113
14856354 85 18260263096456357084
15320294 125 18342454894248336311
15328829 1 18130212822773930036
15444296 121 18334283272275383929
19315092 285 18202566202736182336
208703 8 18264768753774424183
21033648 29 16877657951204224151
21458453 9 17168439168219473425
21796203 349 18125409005185842195
3504750 166 18054521463265954402
3882209 13 17533800216973484119
4394409 98 18339366379240062181
45377200 153 18261095388689927502
49967989 163 18409722997970350917
6058803 2 17771912894614989672
6700243 42 17969761121124203524

> <PUBCHEM_SHAPE_MULTIPOLES>
972.06
19.3
7.23
3.25
12.71
4.57
0.04
-19.98
0.4
-11.15
0.56
5
-1.42
-6.36

> <PUBCHEM_SHAPE_SELFOVERLAP>
2133.809

> <PUBCHEM_SHAPE_VOLUME>
526.8

> <PUBCHEM_COORDINATE_TYPE>
2
5
10

$$$$

