441839
  -OEChem-07051212563D

 35 37  0     0  0  0  0  0  0999 V2000
    0.0523    0.9569    0.0107 O   0  0  0  0  0  0  0  0  0  0  0  0
    2.9575   -2.6986   -0.3145 O   0  0  0  0  0  0  0  0  0  0  0  0
    4.8233    1.6917   -0.0108 O   0  0  0  0  0  0  0  0  0  0  0  0
   -4.5694    2.6764    0.2179 O   0  0  0  0  0  0  0  0  0  0  0  0
   -5.1462   -2.0489   -0.1306 O   0  0  0  0  0  0  0  0  0  0  0  0
    1.4824   -0.7850   -0.1458 C   0  0  0  0  0  0  0  0  0  0  0  0
    1.3658    0.5970   -0.0388 C   0  0  0  0  0  0  0  0  0  0  0  0
   -0.6736   -0.1893   -0.0640 C   0  0  0  0  0  0  0  0  0  0  0  0
    0.1534   -1.2844   -0.1611 C   0  0  0  0  0  0  0  0  0  0  0  0
    2.7692   -1.3475   -0.2107 C   0  0  0  0  0  0  0  0  0  0  0  0
   -2.0984   -0.0180   -0.0271 C   0  0  0  0  0  0  0  0  0  0  0  0
    2.4500    1.4714    0.0093 C   0  0  0  0  0  0  0  0  0  0  0  0
    3.7200    0.8908   -0.0562 C   0  0  0  0  0  0  0  0  0  0  0  0
    3.8795   -0.4931   -0.1644 C   0  0  0  0  0  0  0  0  0  0  0  0
   -2.9436   -1.1298   -0.0974 C   0  0  0  0  0  0  0  0  0  0  0  0
   -2.6516    1.2619    0.0794 C   0  0  0  0  0  0  0  0  0  0  0  0
   -4.0360    1.4284    0.1151 C   0  0  0  0  0  0  0  0  0  0  0  0
   -4.3281   -0.9634   -0.0616 C   0  0  0  0  0  0  0  0  0  0  0  0
   -4.8742    0.3157    0.0444 C   0  0  0  0  0  0  0  0  0  0  0  0
    3.0684   -3.4271    0.9035 C   0  0  0  0  0  0  0  0  0  0  0  0
    4.5991    3.0948    0.1027 C   0  0  0  0  0  0  0  0  0  0  0  0
   -0.1468   -2.3205   -0.2345 H   0  0  0  0  0  0  0  0  0  0  0  0
    2.2536    2.5316    0.0935 H   0  0  0  0  0  0  0  0  0  0  0  0
    4.8814   -0.9149   -0.2132 H   0  0  0  0  0  0  0  0  0  0  0  0
   -2.5362   -2.1348   -0.1805 H   0  0  0  0  0  0  0  0  0  0  0  0
   -2.0207    2.1462    0.1359 H   0  0  0  0  0  0  0  0  0  0  0  0
   -5.9532    0.4454    0.0720 H   0  0  0  0  0  0  0  0  0  0  0  0
    2.1559   -3.3240    1.4993 H   0  0  0  0  0  0  0  0  0  0  0  0
    3.9335   -3.0836    1.4795 H   0  0  0  0  0  0  0  0  0  0  0  0
    3.2086   -4.4839    0.6603 H   0  0  0  0  0  0  0  0  0  0  0  0
    4.0978    3.3488    1.0429 H   0  0  0  0  0  0  0  0  0  0  0  0
    4.0700    3.4910   -0.7707 H   0  0  0  0  0  0  0  0  0  0  0  0
    5.5815    3.5780    0.1255 H   0  0  0  0  0  0  0  0  0  0  0  0
   -3.8477    3.3273    0.2553 H   0  0  0  0  0  0  0  0  0  0  0  0
   -4.6016   -2.8517   -0.2007 H   0  0  0  0  0  0  0  0  0  0  0  0
  1  7  1  0  0  0  0
  1  8  1  0  0  0  0
  2 10  1  0  0  0  0
  2 20  1  0  0  0  0
  3 13  1  0  0  0  0
  3 21  1  0  0  0  0
  4 17  1  0  0  0  0
  4 34  1  0  0  0  0
  5 18  1  0  0  0  0
  5 35  1  0  0  0  0
  6  7  2  0  0  0  0
  6  9  1  0  0  0  0
  6 10  1  0  0  0  0
  7 12  1  0  0  0  0
  8  9  2  0  0  0  0
  8 11  1  0  0  0  0
  9 22  1  0  0  0  0
 10 14  2  0  0  0  0
 11 15  2  0  0  0  0
 11 16  1  0  0  0  0
 12 13  2  0  0  0  0
 12 23  1  0  0  0  0
 13 14  1  0  0  0  0
 14 24  1  0  0  0  0
 15 18  1  0  0  0  0
 15 25  1  0  0  0  0
 16 17  2  0  0  0  0
 16 26  1  0  0  0  0
 17 19  1  0  0  0  0
 18 19  2  0  0  0  0
 19 27  1  0  0  0  0
 20 28  1  0  0  0  0
 20 29  1  0  0  0  0
 20 30  1  0  0  0  0
 21 31  1  0  0  0  0
 21 32  1  0  0  0  0
 21 33  1  0  0  0  0
M  END
> <PUBCHEM_COMPOUND_CID>
441839

> <PUBCHEM_CONFORMER_RMSD>
0.6

> <PUBCHEM_CONFORMER_DIVERSEORDER>
1
6
5
2
3
4

> <PUBCHEM_MMFF94_PARTIAL_CHARGES>
28
1 -0.28
10 0.08
11 0.05
12 -0.15
13 0.08
14 -0.15
15 -0.15
16 -0.15
17 0.08
18 0.08
19 -0.15
2 -0.36
20 0.28
21 0.28
22 0.15
23 0.15
24 0.15
25 0.15
26 0.15
27 0.15
3 -0.36
34 0.45
35 0.45
4 -0.53
5 -0.53
7 0.14
8 0.09
9 -0.15

> <PUBCHEM_EFFECTIVE_ROTOR_COUNT>
3

> <PUBCHEM_PHARMACOPHORE_FEATURES>
8
1 1 acceptor
1 2 acceptor
1 3 acceptor
1 4 donor
1 5 donor
5 1 6 7 8 9 rings
6 11 15 16 17 18 19 rings
6 6 7 10 12 13 14 rings

> <PUBCHEM_HEAVY_ATOM_COUNT>
21

> <PUBCHEM_ATOM_DEF_STEREO_COUNT>
0

> <PUBCHEM_ATOM_UDEF_STEREO_COUNT>
0

> <PUBCHEM_BOND_DEF_STEREO_COUNT>
0

> <PUBCHEM_BOND_UDEF_STEREO_COUNT>
0

> <PUBCHEM_ISOTOPIC_ATOM_COUNT>
0

> <PUBCHEM_COMPONENT_COUNT>
1

> <PUBCHEM_CACTVS_TAUTO_COUNT>
5

> <PUBCHEM_CONFORMER_ID>
0006BDEF00000001

> <PUBCHEM_MMFF94_ENERGY>
66.1639

> <PUBCHEM_FEATURE_SELFOVERLAP>
40.697

> <PUBCHEM_SHAPE_FINGERPRINT>
10090160 65 18269843016899357030
10411042 1 17906452483022367902
10595046 47 18408605842727555719
10616163 171 18335981974289835311
11405975 8 18338797948106114955
12107183 9 17905606962479099201
12730499 353 18340758261316508098
13140716 1 18339642368646496267
13167823 11 18408324406152810911
13631057 29 17972319521394457887
13675066 3 17988351672163430785
13955234 65 18412262861425461466
14289901 80 18409730647175261843
14341114 176 18410002252633539745
14528608 73 18337105675136024980
14790565 3 18195804077360887020
15196674 1 18409446998807929653
15250474 111 18335715939778803471
15442244 35 18265894854990022915
15536298 74 18408321111654068198
17492 89 18409447020515673735
17844677 252 18336818775536413393
1813 80 17060330855696839501
18186145 218 17775003543789921943
18681886 176 18114185263604590254
200 152 18186520973790759903
20286276 3 18337946891683628831
20645477 70 18333728048419560574
20832881 197 17841428438559085858
21065198 48 18408885157225024571
21065198 57 18338797939468681285
21065199 12 18413384345910354755
21267235 1 18408594868548518526
21421861 104 18058457676206889282
21452121 103 18408328783225262344
21618674 54 18410575089274544365
221490 88 18411974788777772339
22393880 68 18335411391999609550
23366157 5 18202280342565810902
23402655 69 18261111872045759429
23559900 14 18190745425876247026
239999 70 18259978289154736982
245318 6 17199092315494362900
335352 9 18050286165665553383
33824 294 18412545388526805738
34797466 226 17749660814376861565
350125 39 18339360868417063444
3545911 37 18410571795045476693
4073 2 18272926094859324115
4214541 1 18409728504208107501
474 4 18201436913931149604
5104073 3 18411978104950935347
543358 83 18337386166506981458
621550 34 18201446852495795084
633830 44 18410015472031447103
7364860 26 18409448128975289118
77779 3 18409728486848747359
8272917 22 18409727383237448158
90127 26 18339348730063732675
9709674 26 18412819183933355051
9841814 1 18128822035318337642
9981440 41 18196936578499763888
9999458 23 18412824677850089574

> <PUBCHEM_SHAPE_MULTIPOLES>
402.82
11.49
3.2
0.65
6.23
0.57
0.03
-3.18
0.28
-3.08
0.5
-0.13
0.14
-0.47

> <PUBCHEM_SHAPE_SELFOVERLAP>
892.166

> <PUBCHEM_SHAPE_VOLUME>
218.2

> <PUBCHEM_COORDINATE_TYPE>
2
5
10

$$$$

