5838784
  -OEChem-07051213062D

 59 61  0     0  0  0  0  0  0999 V2000
    2.8660   -2.0000    0.0000 O   0  0  0  0  0  0  0  0  0  0  0  0
    2.8660   -4.0000    0.0000 O   0  0  0  0  0  0  0  0  0  0  0  0
    4.5981   -5.0000    0.0000 O   0  0  0  0  0  0  0  0  0  0  0  0
    6.3301   -4.0000    0.0000 O   0  0  0  0  0  0  0  0  0  0  0  0
    6.3301   -2.0000    0.0000 O   0  0  0  0  0  0  0  0  0  0  0  0
    8.9282    2.5000    0.0000 O   0  0  0  0  0  0  0  0  0  0  0  0
    3.7320   -0.5000    0.0000 O   0  0  0  0  0  0  0  0  0  0  0  0
    4.5981   -2.0000    0.0000 C   0  0  0  0  0  0  0  0  0  0  0  0
    3.7320   -2.5000    0.0000 C   0  0  0  0  0  0  0  0  0  0  0  0
    3.7320   -3.5000    0.0000 C   0  0  0  0  0  0  0  0  0  0  0  0
    5.4641   -2.5000    0.0000 C   0  0  0  0  0  0  0  0  0  0  0  0
    4.5981   -4.0000    0.0000 C   0  0  0  0  0  0  0  0  0  0  0  0
    5.4641   -3.5000    0.0000 C   0  0  0  0  0  0  0  0  0  0  0  0
    4.5981   -1.0000    0.0000 C   0  0  0  0  0  0  0  0  0  0  0  0
    6.3301    1.0000    0.0000 C   0  0  0  0  0  0  0  0  0  0  0  0
    5.4641   -0.5000    0.0000 C   0  0  0  0  0  0  0  0  0  0  0  0
    5.4641    0.5000    0.0000 C   0  0  0  0  0  0  0  0  0  0  0  0
    8.0622    2.0000    0.0000 C   0  0  0  0  0  0  0  0  0  0  0  0
    8.9282    3.5000    0.0000 C   0  0  0  0  0  0  0  0  0  0  0  0
    7.1962    0.5000    0.0000 C   0  0  0  0  0  0  0  0  0  0  0  0
    6.3301    2.0000    0.0000 C   0  0  0  0  0  0  0  0  0  0  0  0
    9.7942    4.0000    0.0000 C   0  0  0  0  0  0  0  0  0  0  0  0
    8.0622    1.0000    0.0000 C   0  0  0  0  0  0  0  0  0  0  0  0
    7.1962    2.5000    0.0000 C   0  0  0  0  0  0  0  0  0  0  0  0
    2.0000   -2.5000    0.0000 C   0  0  0  0  0  0  0  0  0  0  0  0
   10.6603    3.5000    0.0000 C   0  0  0  0  0  0  0  0  0  0  0  0
    9.7942    5.0000    0.0000 C   0  0  0  0  0  0  0  0  0  0  0  0
    2.8660   -5.0000    0.0000 C   0  0  0  0  0  0  0  0  0  0  0  0
    5.4641   -5.5000    0.0000 C   0  0  0  0  0  0  0  0  0  0  0  0
    6.3301   -5.0000    0.0000 C   0  0  0  0  0  0  0  0  0  0  0  0
   11.5263    4.0000    0.0000 C   0  0  0  0  0  0  0  0  0  0  0  0
   10.6603    5.5000    0.0000 C   0  0  0  0  0  0  0  0  0  0  0  0
   11.5263    5.0000    0.0000 C   0  0  0  0  0  0  0  0  0  0  0  0
    6.0010   -0.8100    0.0000 H   0  0  0  0  0  0  0  0  0  0  0  0
    4.9272    0.8100    0.0000 H   0  0  0  0  0  0  0  0  0  0  0  0
    8.7162    4.0826    0.0000 H   0  0  0  0  0  0  0  0  0  0  0  0
    8.3176    3.3923    0.0000 H   0  0  0  0  0  0  0  0  0  0  0  0
    7.1962   -0.1200    0.0000 H   0  0  0  0  0  0  0  0  0  0  0  0
    5.7932    2.3100    0.0000 H   0  0  0  0  0  0  0  0  0  0  0  0
    8.5991    0.6900    0.0000 H   0  0  0  0  0  0  0  0  0  0  0  0
    7.1962    3.1200    0.0000 H   0  0  0  0  0  0  0  0  0  0  0  0
    6.8671   -2.3100    0.0000 H   0  0  0  0  0  0  0  0  0  0  0  0
    1.6900   -1.9631    0.0000 H   0  0  0  0  0  0  0  0  0  0  0  0
    1.4631   -2.8100    0.0000 H   0  0  0  0  0  0  0  0  0  0  0  0
    2.3100   -3.0369    0.0000 H   0  0  0  0  0  0  0  0  0  0  0  0
   10.6603    2.8800    0.0000 H   0  0  0  0  0  0  0  0  0  0  0  0
    9.2573    5.3100    0.0000 H   0  0  0  0  0  0  0  0  0  0  0  0
    2.2460   -5.0000    0.0000 H   0  0  0  0  0  0  0  0  0  0  0  0
    2.8660   -5.6200    0.0000 H   0  0  0  0  0  0  0  0  0  0  0  0
    3.4860   -5.0000    0.0000 H   0  0  0  0  0  0  0  0  0  0  0  0
    5.1541   -6.0369    0.0000 H   0  0  0  0  0  0  0  0  0  0  0  0
    6.0010   -5.8100    0.0000 H   0  0  0  0  0  0  0  0  0  0  0  0
    5.7741   -4.9631    0.0000 H   0  0  0  0  0  0  0  0  0  0  0  0
    5.7101   -5.0000    0.0000 H   0  0  0  0  0  0  0  0  0  0  0  0
    6.3301   -5.6200    0.0000 H   0  0  0  0  0  0  0  0  0  0  0  0
    6.9501   -5.0000    0.0000 H   0  0  0  0  0  0  0  0  0  0  0  0
   12.0632    3.6900    0.0000 H   0  0  0  0  0  0  0  0  0  0  0  0
   10.6603    6.1200    0.0000 H   0  0  0  0  0  0  0  0  0  0  0  0
   12.0632    5.3100    0.0000 H   0  0  0  0  0  0  0  0  0  0  0  0
  1  9  1  0  0  0  0
  1 25  1  0  0  0  0
  2 10  1  0  0  0  0
  2 28  1  0  0  0  0
  3 12  1  0  0  0  0
  3 29  1  0  0  0  0
  4 13  1  0  0  0  0
  4 30  1  0  0  0  0
  5 11  1  0  0  0  0
  5 42  1  0  0  0  0
  6 18  1  0  0  0  0
  6 19  1  0  0  0  0
  7 14  2  0  0  0  0
  8  9  1  0  0  0  0
  8 11  2  0  0  0  0
  8 14  1  0  0  0  0
  9 10  2  0  0  0  0
 10 12  1  0  0  0  0
 11 13  1  0  0  0  0
 12 13  2  0  0  0  0
 14 16  1  0  0  0  0
 15 17  1  0  0  0  0
 15 20  2  0  0  0  0
 15 21  1  0  0  0  0
 16 17  2  0  0  0  0
 16 34  1  0  0  0  0
 17 35  1  0  0  0  0
 18 23  2  0  0  0  0
 18 24  1  0  0  0  0
 19 22  1  0  0  0  0
 19 36  1  0  0  0  0
 19 37  1  0  0  0  0
 20 23  1  0  0  0  0
 20 38  1  0  0  0  0
 21 24  2  0  0  0  0
 21 39  1  0  0  0  0
 22 26  2  0  0  0  0
 22 27  1  0  0  0  0
 23 40  1  0  0  0  0
 24 41  1  0  0  0  0
 25 43  1  0  0  0  0
 25 44  1  0  0  0  0
 25 45  1  0  0  0  0
 26 31  1  0  0  0  0
 26 46  1  0  0  0  0
 27 32  2  0  0  0  0
 27 47  1  0  0  0  0
 28 48  1  0  0  0  0
 28 49  1  0  0  0  0
 28 50  1  0  0  0  0
 29 51  1  0  0  0  0
 29 52  1  0  0  0  0
 29 53  1  0  0  0  0
 30 54  1  0  0  0  0
 30 55  1  0  0  0  0
 30 56  1  0  0  0  0
 31 33  2  0  0  0  0
 31 57  1  0  0  0  0
 32 33  1  0  0  0  0
 32 58  1  0  0  0  0
 33 59  1  0  0  0  0
M  END
> <PUBCHEM_COMPOUND_CID>
5838784

> <PUBCHEM_COMPOUND_CANONICALIZED>
1

> <PUBCHEM_CACTVS_COMPLEXITY>
610

> <PUBCHEM_CACTVS_HBOND_ACCEPTOR>
7

> <PUBCHEM_CACTVS_HBOND_DONOR>
1

> <PUBCHEM_CACTVS_ROTATABLE_BOND>
10

> <PUBCHEM_CACTVS_SUBSKEYS>
AAADceB4OAAAAAAAAAAAAAAAAAAAAAAAAAAwYMAAAAAAAAABUAAAGgAACAAADASgmAIyBoAABgCIAqBSAAACCAAkIAAIiAEGiMgNJzaGNRqCeWOl4BULuYfK7LzOIQABCAAIQABCAAIQABCAAAAAAAAAAA==

> <PUBCHEM_IUPAC_OPENEYE_NAME>
(E)-3-(4-benzyloxyphenyl)-1-(2-hydroxy-3,4,5,6-tetramethoxy-phenyl)prop-2-en-1-one

> <PUBCHEM_IUPAC_CAS_NAME>
(E)-1-(2-hydroxy-3,4,5,6-tetramethoxyphenyl)-3-(4-phenylmethoxyphenyl)-2-propen-1-one

> <PUBCHEM_IUPAC_NAME>
(E)-1-(2-hydroxy-3,4,5,6-tetramethoxyphenyl)-3-(4-phenylmethoxyphenyl)prop-2-en-1-one

> <PUBCHEM_IUPAC_SYSTEMATIC_NAME>
(E)-3-(4-phenylmethoxyphenyl)-1-(2,3,4,5-tetramethoxy-6-oxidanyl-phenyl)prop-2-en-1-one

> <PUBCHEM_IUPAC_TRADITIONAL_NAME>
(E)-3-(4-benzoxyphenyl)-1-(2-hydroxy-3,4,5,6-tetramethoxy-phenyl)prop-2-en-1-one

> <PUBCHEM_IUPAC_INCHI>
InChI=1S/C26H26O7/c1-29-23-21(22(28)24(30-2)26(32-4)25(23)31-3)20(27)15-12-17-10-13-19(14-11-17)33-16-18-8-6-5-7-9-18/h5-15,28H,16H2,1-4H3/b15-12+

> <PUBCHEM_IUPAC_INCHIKEY>
JDAWPQNOYYGXEG-NTCAYCPXSA-N

> <PUBCHEM_XLOGP3_AA>
5.2

> <PUBCHEM_EXACT_MASS>
450.167853

> <PUBCHEM_MOLECULAR_FORMULA>
C26H26O7

> <PUBCHEM_MOLECULAR_WEIGHT>
450.48044

> <PUBCHEM_OPENEYE_CAN_SMILES>
COC1=C(C(=C(C(=C1C(=O)C=CC2=CC=C(C=C2)OCC3=CC=CC=C3)O)OC)OC)OC

> <PUBCHEM_OPENEYE_ISO_SMILES>
COC1=C(C(=C(C(=C1C(=O)/C=C/C2=CC=C(C=C2)OCC3=CC=CC=C3)O)OC)OC)OC

> <PUBCHEM_CACTVS_TPSA>
83.4

> <PUBCHEM_MONOISOTOPIC_WEIGHT>
450.167853

> <PUBCHEM_TOTAL_CHARGE>
0

> <PUBCHEM_HEAVY_ATOM_COUNT>
33

> <PUBCHEM_ATOM_DEF_STEREO_COUNT>
0

> <PUBCHEM_ATOM_UDEF_STEREO_COUNT>
0

> <PUBCHEM_BOND_DEF_STEREO_COUNT>
1

> <PUBCHEM_BOND_UDEF_STEREO_COUNT>
0

> <PUBCHEM_ISOTOPIC_ATOM_COUNT>
0

> <PUBCHEM_COMPONENT_COUNT>
1

> <PUBCHEM_CACTVS_TAUTO_COUNT>
4

> <PUBCHEM_COORDINATE_TYPE>
1
5
255

> <PUBCHEM_BONDANNOTATIONS>
10  12  8
11  13  8
12  13  8
15  20  8
15  21  8
18  23  8
18  24  8
20  23  8
21  24  8
22  26  8
22  27  8
26  31  8
27  32  8
31  33  8
32  33  8
8  11  8
8  9  8
9  10  8

$$$$

