78300
  -OEChem-07051212513D

 19 20  0     0  0  0  0  0  0999 V2000
   -2.3869   -1.0594   -0.0001 O   0  0  0  0  0  0  0  0  0  0  0  0
    1.9004   -1.9471    0.0003 O   0  0  0  0  0  0  0  0  0  0  0  0
   -3.0717    1.1535    0.0007 O   0  0  0  0  0  0  0  0  0  0  0  0
    1.2990    1.6747   -0.0003 N   0  0  0  0  0  0  0  0  0  0  0  0
   -0.1331   -0.7047    0.0000 C   0  0  0  0  0  0  0  0  0  0  0  0
   -0.7726    0.5127   -0.0001 C   0  0  0  0  0  0  0  0  0  0  0  0
   -1.1316   -1.7881   -0.0004 C   0  0  0  0  0  0  0  0  0  0  0  0
    1.2438   -0.7631    0.0000 C   0  0  0  0  0  0  0  0  0  0  0  0
    1.9095    0.4565   -0.0001 C   0  0  0  0  0  0  0  0  0  0  0  0
   -2.2080    0.2997   -0.0001 C   0  0  0  0  0  0  0  0  0  0  0  0
   -0.0526    1.6818   -0.0002 C   0  0  0  0  0  0  0  0  0  0  0  0
    3.4037    0.4836    0.0003 C   0  0  0  0  0  0  0  0  0  0  0  0
   -1.0853   -2.4032   -0.9030 H   0  0  0  0  0  0  0  0  0  0  0  0
   -1.0852   -2.4040    0.9016 H   0  0  0  0  0  0  0  0  0  0  0  0
   -0.5220    2.6576   -0.0004 H   0  0  0  0  0  0  0  0  0  0  0  0
    3.8006   -0.0063   -0.8946 H   0  0  0  0  0  0  0  0  0  0  0  0
    3.7729    1.5150    0.0003 H   0  0  0  0  0  0  0  0  0  0  0  0
    3.8001   -0.0061    0.8955 H   0  0  0  0  0  0  0  0  0  0  0  0
    2.8609   -1.8116    0.0002 H   0  0  0  0  0  0  0  0  0  0  0  0
  1  7  1  0  0  0  0
  1 10  1  0  0  0  0
  2  8  1  0  0  0  0
  2 19  1  0  0  0  0
  3 10  2  0  0  0  0
  4  9  2  0  0  0  0
  4 11  1  0  0  0  0
  5  6  1  0  0  0  0
  5  7  1  0  0  0  0
  5  8  2  0  0  0  0
  6 10  1  0  0  0  0
  6 11  2  0  0  0  0
  7 13  1  0  0  0  0
  7 14  1  0  0  0  0
  8  9  1  0  0  0  0
  9 12  1  0  0  0  0
 11 15  1  0  0  0  0
 12 16  1  0  0  0  0
 12 17  1  0  0  0  0
 12 18  1  0  0  0  0
M  END
> <PUBCHEM_COMPOUND_CID>
78300

> <PUBCHEM_CONFORMER_RMSD>
0.4

> <PUBCHEM_CONFORMER_DIVERSEORDER>
1

> <PUBCHEM_MMFF94_PARTIAL_CHARGES>
14
1 -0.43
10 0.63
11 0.16
12 0.14
15 0.15
19 0.45
2 -0.53
3 -0.57
4 -0.62
5 -0.14
6 0.09
7 0.42
8 0.08
9 0.17

> <PUBCHEM_EFFECTIVE_ROTOR_COUNT>
0.4

> <PUBCHEM_PHARMACOPHORE_FEATURES>
5
1 2 donor
1 3 acceptor
1 4 acceptor
5 1 5 6 7 10 rings
6 4 5 6 8 9 11 rings

> <PUBCHEM_HEAVY_ATOM_COUNT>
12

> <PUBCHEM_ATOM_DEF_STEREO_COUNT>
0

> <PUBCHEM_ATOM_UDEF_STEREO_COUNT>
0

> <PUBCHEM_BOND_DEF_STEREO_COUNT>
0

> <PUBCHEM_BOND_UDEF_STEREO_COUNT>
0

> <PUBCHEM_ISOTOPIC_ATOM_COUNT>
0

> <PUBCHEM_COMPONENT_COUNT>
1

> <PUBCHEM_CACTVS_TAUTO_COUNT>
3

> <PUBCHEM_CONFORMER_ID>
000131DC00000001

> <PUBCHEM_MMFF94_ENERGY>
31.0464

> <PUBCHEM_FEATURE_SELFOVERLAP>
25.464

> <PUBCHEM_SHAPE_FINGERPRINT>
11206711 2 18267305335287938415
12382932 28 18409169913271900104
12423570 1 8241008236416991906
12524768 44 18263357143514513919
13380535 21 18339629105481530978
13380535 76 18411141328872578343
14325111 11 18410575076104974720
16945 1 18338798918383634117
193761 8 17185594616282582116
20201158 50 18411421700068866326
20588541 1 18411417323623779252
21040471 1 18410575054656434053
21501502 16 18411705382658897023
23235685 24 18410017640952942968
23402655 69 18263940976490615269
23463225 33 18342744018229180066
23552423 10 18270398287124231382
23559900 14 18334285454429935452
2748010 2 18338796839630064511
369184 2 16200158668186189792
5084963 1 17898282806046185906
528886 8 18410016537067038376
53812653 166 18334861601783875856

> <PUBCHEM_SHAPE_MULTIPOLES>
224.37
4.09
1.91
0.58
0.52
0.3
0
-0.5
0
-0.04
0
0.02
0
0

> <PUBCHEM_SHAPE_SELFOVERLAP>
494.098

> <PUBCHEM_SHAPE_VOLUME>
123.3

> <PUBCHEM_COORDINATE_TYPE>
2
5
10

$$$$

