5357627
  -OEChem-07051213063D

 35 37  0     0  0  0  0  0  0999 V2000
   -1.7867   -1.7678   -0.0452 O   0  0  0  0  0  0  0  0  0  0  0  0
    0.3206   -2.6220    0.0039 O   0  0  0  0  0  0  0  0  0  0  0  0
    5.7142    0.3119    0.2525 O   0  0  0  0  0  0  0  0  0  0  0  0
   -6.2465   -0.0969   -0.1483 O   0  0  0  0  0  0  0  0  0  0  0  0
   -0.6629    0.8336    0.0635 C   0  0  0  0  0  0  0  0  0  0  0  0
    0.1410   -0.2527    0.0609 C   0  0  0  0  0  0  0  0  0  0  0  0
   -2.1274    0.6428    0.0096 C   0  0  0  0  0  0  0  0  0  0  0  0
   -2.6379   -0.6516   -0.0430 C   0  0  0  0  0  0  0  0  0  0  0  0
    1.5940   -0.1061    0.1110 C   0  0  0  0  0  0  0  0  0  0  0  0
   -0.4099   -1.6357    0.0052 C   0  0  0  0  0  0  0  0  0  0  0  0
   -0.1534    2.2551    0.1156 C   0  0  0  0  0  0  0  0  0  0  0  0
   -3.0547    1.6967    0.0078 C   0  0  0  0  0  0  0  0  0  0  0  0
   -4.0087   -0.9179   -0.0959 C   0  0  0  0  0  0  0  0  0  0  0  0
    2.2424   -0.0681    1.3415 C   0  0  0  0  0  0  0  0  0  0  0  0
    2.3189   -0.0047   -1.0724 C   0  0  0  0  0  0  0  0  0  0  0  0
   -4.4317    1.4484   -0.0450 C   0  0  0  0  0  0  0  0  0  0  0  0
   -4.9084    0.1415   -0.0969 C   0  0  0  0  0  0  0  0  0  0  0  0
    3.6295    0.0725    1.3890 C   0  0  0  0  0  0  0  0  0  0  0  0
    3.7058    0.1358   -1.0249 C   0  0  0  0  0  0  0  0  0  0  0  0
    4.3611    0.1745    0.2058 C   0  0  0  0  0  0  0  0  0  0  0  0
    6.4005    0.4107   -0.9946 C   0  0  0  0  0  0  0  0  0  0  0  0
    0.9355    2.3407    0.1526 H   0  0  0  0  0  0  0  0  0  0  0  0
   -0.5330    2.7647    1.0083 H   0  0  0  0  0  0  0  0  0  0  0  0
   -0.4762    2.8097   -0.7726 H   0  0  0  0  0  0  0  0  0  0  0  0
   -2.7334    2.7343    0.0471 H   0  0  0  0  0  0  0  0  0  0  0  0
   -4.3679   -1.9425   -0.1360 H   0  0  0  0  0  0  0  0  0  0  0  0
    1.6856   -0.1465    2.2719 H   0  0  0  0  0  0  0  0  0  0  0  0
    1.8208   -0.0336   -2.0385 H   0  0  0  0  0  0  0  0  0  0  0  0
   -5.1204    2.2896   -0.0448 H   0  0  0  0  0  0  0  0  0  0  0  0
    4.1344    0.1021    2.3506 H   0  0  0  0  0  0  0  0  0  0  0  0
    4.2122    0.2095   -1.9812 H   0  0  0  0  0  0  0  0  0  0  0  0
   -6.7186    0.7535   -0.1409 H   0  0  0  0  0  0  0  0  0  0  0  0
    7.4670    0.5148   -0.7692 H   0  0  0  0  0  0  0  0  0  0  0  0
    6.1018    1.3073   -1.5483 H   0  0  0  0  0  0  0  0  0  0  0  0
    6.2869   -0.5017   -1.5897 H   0  0  0  0  0  0  0  0  0  0  0  0
  1  8  1  0  0  0  0
  1 10  1  0  0  0  0
  2 10  2  0  0  0  0
  3 20  1  0  0  0  0
  3 21  1  0  0  0  0
  4 17  1  0  0  0  0
  4 32  1  0  0  0  0
  5  6  2  0  0  0  0
  5  7  1  0  0  0  0
  5 11  1  0  0  0  0
  6  9  1  0  0  0  0
  6 10  1  0  0  0  0
  7  8  2  0  0  0  0
  7 12  1  0  0  0  0
  8 13  1  0  0  0  0
  9 14  2  0  0  0  0
  9 15  1  0  0  0  0
 11 22  1  0  0  0  0
 11 23  1  0  0  0  0
 11 24  1  0  0  0  0
 12 16  2  0  0  0  0
 12 25  1  0  0  0  0
 13 17  2  0  0  0  0
 13 26  1  0  0  0  0
 14 18  1  0  0  0  0
 14 27  1  0  0  0  0
 15 19  2  0  0  0  0
 15 28  1  0  0  0  0
 16 17  1  0  0  0  0
 16 29  1  0  0  0  0
 18 20  2  0  0  0  0
 18 30  1  0  0  0  0
 19 20  1  0  0  0  0
 19 31  1  0  0  0  0
 21 33  1  0  0  0  0
 21 34  1  0  0  0  0
 21 35  1  0  0  0  0
M  END
> <PUBCHEM_COMPOUND_CID>
5357627

> <PUBCHEM_CONFORMER_RMSD>
0.6

> <PUBCHEM_CONFORMER_DIVERSEORDER>
1

> <PUBCHEM_MMFF94_PARTIAL_CHARGES>
29
1 -0.23
10 0.71
11 0.14
12 -0.15
13 -0.15
14 -0.15
15 -0.15
16 -0.15
17 0.08
18 -0.15
19 -0.15
2 -0.57
20 0.08
21 0.28
25 0.15
26 0.15
27 0.15
28 0.15
29 0.15
3 -0.36
30 0.15
31 0.15
32 0.45
4 -0.53
5 -0.17
6 -0.01
7 0.03
8 0.08
9 0.03

> <PUBCHEM_EFFECTIVE_ROTOR_COUNT>
2

> <PUBCHEM_PHARMACOPHORE_FEATURES>
6
1 2 acceptor
1 3 acceptor
1 4 donor
6 1 5 6 7 8 10 rings
6 7 8 12 13 16 17 rings
6 9 14 15 18 19 20 rings

> <PUBCHEM_HEAVY_ATOM_COUNT>
21

> <PUBCHEM_ATOM_DEF_STEREO_COUNT>
0

> <PUBCHEM_ATOM_UDEF_STEREO_COUNT>
0

> <PUBCHEM_BOND_DEF_STEREO_COUNT>
0

> <PUBCHEM_BOND_UDEF_STEREO_COUNT>
0

> <PUBCHEM_ISOTOPIC_ATOM_COUNT>
0

> <PUBCHEM_COMPONENT_COUNT>
1

> <PUBCHEM_CACTVS_TAUTO_COUNT>
3

> <PUBCHEM_CONFORMER_ID>
0051C03B00000001

> <PUBCHEM_MMFF94_ENERGY>
82.1172

> <PUBCHEM_FEATURE_SELFOVERLAP>
30.472

> <PUBCHEM_SHAPE_FINGERPRINT>
10411042 1 17906169551978040327
10498660 4 18337955700371422061
10906281 52 18272075141869071753
11578080 2 4965962361727533553
11646440 116 18114173117294256801
11963148 33 18341057316038622723
12011746 2 18334861614652862273
12107183 9 17053887893393619104
12236239 1 17775287162213483842
12390115 104 18115017636656075537
12403259 415 18260558822045034393
12403814 3 17489593385257316149
12596602 18 17274820233726264784
12916748 109 18410569600111271652
13140716 1 18194402195966462315
13533116 47 18272376412413457506
13583140 156 16702293534248693105
13862211 1 18410581669486480999
14341114 328 17632582660024372091
14386348 63 17821444655915461524
14573314 32 17676765452534029636
14790565 3 18411695474148772301
15048467 5 16774080665331516844
15196674 1 18338237188628277243
1601671 61 18412546539377418541
16945 1 18410013222048637435
1813 80 16986883574062996034
18681886 176 18340208496606866600
19784866 170 18412262869740790147
200 152 16128661850816699861
20028762 73 18042688291690501623
20645477 70 16660635306668025510
21033648 29 17023198149077545433
21267235 1 18409443653629610867
221357 26 17095242544369833616
2297311 6 18187359939279823761
23175994 123 16950559957128795832
23366157 5 17913768598311054379
23402539 116 18334581226471501046
23557571 272 18187077382208763868
23559900 14 18260261971907830078
26918003 58 14477239370741810605
3004659 81 18339358674010736342
335352 9 18410294684393576245
34797466 226 18041549262073461484
34934 24 18337398253019660573
3545911 37 18333730225614220142
474 4 17058923352391944396
474229 33 18411982464163573739
5104073 3 18267298923592862323
542803 24 17917992776356293500

> <PUBCHEM_SHAPE_MULTIPOLES>
408.69
12.42
1.74
0.95
4.03
0.27
-0.1
-2.09
1.72
-1.33
-0.01
1.21
-0.04
-0.16

> <PUBCHEM_SHAPE_SELFOVERLAP>
902.163

> <PUBCHEM_SHAPE_VOLUME>
220.4

> <PUBCHEM_COORDINATE_TYPE>
2
5
10

$$$$

