12202
  -OEChem-06261206393D

 30 29  0     0  0  0  0  0  0999 V2000
    0.0027   -1.4532   -0.3861 O   0  0  0  0  0  0  0  0  0  0  0  0
   -0.0055   -0.1826    0.2606 C   0  0  0  0  0  0  0  0  0  0  0  0
    1.2565    0.6005   -0.1270 C   0  0  0  0  0  0  0  0  0  0  0  0
   -1.2751    0.5858   -0.1286 C   0  0  0  0  0  0  0  0  0  0  0  0
    2.5382   -0.1618    0.2292 C   0  0  0  0  0  0  0  0  0  0  0  0
   -2.5498   -0.1884    0.2240 C   0  0  0  0  0  0  0  0  0  0  0  0
    3.8144    0.5764   -0.1821 C   0  0  0  0  0  0  0  0  0  0  0  0
   -3.8006    0.5760   -0.2106 C   0  0  0  0  0  0  0  0  0  0  0  0
    5.0891   -0.1843    0.1484 C   0  0  0  0  0  0  0  0  0  0  0  0
   -5.0698   -0.1684    0.1723 C   0  0  0  0  0  0  0  0  0  0  0  0
   -0.0143   -0.3590    1.3432 H   0  0  0  0  0  0  0  0  0  0  0  0
    1.2568    1.5774    0.3704 H   0  0  0  0  0  0  0  0  0  0  0  0
    1.2537    0.7812   -1.2094 H   0  0  0  0  0  0  0  0  0  0  0  0
   -1.2843    1.5629    0.3689 H   0  0  0  0  0  0  0  0  0  0  0  0
   -1.2698    0.7669   -1.2110 H   0  0  0  0  0  0  0  0  0  0  0  0
    2.5599   -0.3488    1.3098 H   0  0  0  0  0  0  0  0  0  0  0  0
    2.5418   -1.1406   -0.2643 H   0  0  0  0  0  0  0  0  0  0  0  0
   -2.5437   -1.1704   -0.2634 H   0  0  0  0  0  0  0  0  0  0  0  0
   -2.5809   -0.3645    1.3060 H   0  0  0  0  0  0  0  0  0  0  0  0
    3.8448    1.5526    0.3162 H   0  0  0  0  0  0  0  0  0  0  0  0
    3.7898    0.7713   -1.2610 H   0  0  0  0  0  0  0  0  0  0  0  0
   -3.8123    1.5676    0.2568 H   0  0  0  0  0  0  0  0  0  0  0  0
   -3.7856    0.7289   -1.2960 H   0  0  0  0  0  0  0  0  0  0  0  0
    0.6085   -2.0326    0.1057 H   0  0  0  0  0  0  0  0  0  0  0  0
    5.1665   -0.3662    1.2250 H   0  0  0  0  0  0  0  0  0  0  0  0
    5.9668    0.3895   -0.1648 H   0  0  0  0  0  0  0  0  0  0  0  0
    5.1115   -1.1503   -0.3657 H   0  0  0  0  0  0  0  0  0  0  0  0
   -5.1053   -1.1537   -0.3035 H   0  0  0  0  0  0  0  0  0  0  0  0
   -5.9513    0.3956   -0.1482 H   0  0  0  0  0  0  0  0  0  0  0  0
   -5.1312   -0.3076    1.2564 H   0  0  0  0  0  0  0  0  0  0  0  0
  1  2  1  0  0  0  0
  1 24  1  0  0  0  0
  2  3  1  0  0  0  0
  2  4  1  0  0  0  0
  2 11  1  0  0  0  0
  3  5  1  0  0  0  0
  3 12  1  0  0  0  0
  3 13  1  0  0  0  0
  4  6  1  0  0  0  0
  4 14  1  0  0  0  0
  4 15  1  0  0  0  0
  5  7  1  0  0  0  0
  5 16  1  0  0  0  0
  5 17  1  0  0  0  0
  6  8  1  0  0  0  0
  6 18  1  0  0  0  0
  6 19  1  0  0  0  0
  7  9  1  0  0  0  0
  7 20  1  0  0  0  0
  7 21  1  0  0  0  0
  8 10  1  0  0  0  0
  8 22  1  0  0  0  0
  8 23  1  0  0  0  0
  9 25  1  0  0  0  0
  9 26  1  0  0  0  0
  9 27  1  0  0  0  0
 10 28  1  0  0  0  0
 10 29  1  0  0  0  0
 10 30  1  0  0  0  0
M  END
> <PUBCHEM_COMPOUND_CID>
12202

> <PUBCHEM_CONFORMER_RMSD>
0.6

> <PUBCHEM_CONFORMER_DIVERSEORDER>
1
56
100
118
74
98
78
92
67
17
137
61
52
112
82
23
47
120
80
79
130
53
19
9
18
135
87
8
121
43
3
71
109
84
72
104
124
10
64
136
81
22
106
88
103
5
31
89
70
115
45
119
114
2
58
126
54
41
108
123
4
48
97
65
21
93
28
125
7
94
134
6
40
73
95
12
113
133
33
129
117
30
37
42
32
132
83
99
62
128
91
36
90
29
57
55
24
69
131
107
15
34
127
49
76
122
110
26
16
111
20
11
101
13
116
77
44
85
63
38
59
66
96
39
14
35
102
50
25
86
51
105
75
60
68
27
46

> <PUBCHEM_MMFF94_PARTIAL_CHARGES>
3
1 -0.68
2 0.28
24 0.4

> <PUBCHEM_EFFECTIVE_ROTOR_COUNT>
6

> <PUBCHEM_PHARMACOPHORE_FEATURES>
4
1 1 acceptor
1 1 donor
1 10 hydrophobe
1 9 hydrophobe

> <PUBCHEM_HEAVY_ATOM_COUNT>
10

> <PUBCHEM_ATOM_DEF_STEREO_COUNT>
0

> <PUBCHEM_ATOM_UDEF_STEREO_COUNT>
0

> <PUBCHEM_BOND_DEF_STEREO_COUNT>
0

> <PUBCHEM_BOND_UDEF_STEREO_COUNT>
0

> <PUBCHEM_ISOTOPIC_ATOM_COUNT>
0

> <PUBCHEM_COMPONENT_COUNT>
1

> <PUBCHEM_CACTVS_TAUTO_COUNT>
1

> <PUBCHEM_CONFORMER_ID>
00002FAA00000001

> <PUBCHEM_MMFF94_ENERGY>
1.3147

> <PUBCHEM_FEATURE_SELFOVERLAP>
20.297

> <PUBCHEM_SHAPE_FINGERPRINT>
11062470 55 12103845661399445841
114248 4 14706928436384309256
12815109 37 9799691497766775350
13690532 89 18410292523428901016
14123238 8 8214142958182117176
14325111 11 18410575097553275044
17834072 33 15769483244994189718
17834076 25 15626224624079649233
18342897 14 18407760339196506896
187816 3 17095239215885989538
20645477 70 18336545035965075854
20719005 15 18272651246684639992
22485316 2 9223230736768266509
23402539 116 17603310357874321829
23402655 69 18261117426187578933
366044 4 18334858311796865262
42788 4 18411982463841768440

> <PUBCHEM_SHAPE_MULTIPOLES>
199.93
10.57
0.92
0.65
0.19
0.13
-0.01
-0.31
-0.44
0
0.09
-0.01
0.01
0.01

> <PUBCHEM_SHAPE_SELFOVERLAP>
352.473

> <PUBCHEM_SHAPE_VOLUME>
131.8

> <PUBCHEM_COORDINATE_TYPE>
2
5
10

$$$$

