17395856
  -OEChem-06241222522D

 53 54  0     1  0  0  0  0  0999 V2000
    2.0000   -0.0093    0.0000 O   0  0  0  0  0  0  0  0  0  0  0  0
    5.5202   -0.0093    0.0000 O   0  0  0  0  0  0  0  0  0  0  0  0
    4.6261    1.7694    0.0000 N   0  0  0  0  0  0  0  0  0  0  0  0
    3.7601    0.2694    0.0000 N   0  0  0  0  0  0  0  0  0  0  0  0
    4.2601   -1.2694    0.0000 N   0  0  0  0  0  0  0  0  0  0  0  0
    3.2601   -1.2694    0.0000 C   0  0  3  0  0  0  0  0  0  0  0  0
    3.7601    1.2694    0.0000 C   0  0  0  0  0  0  0  0  0  0  0  0
    4.6261    2.7694    0.0000 C   0  0  0  0  0  0  0  0  0  0  0  0
    5.4921    1.2694    0.0000 C   0  0  0  0  0  0  0  0  0  0  0  0
    2.9511   -0.3184    0.0000 C   0  0  0  0  0  0  0  0  0  0  0  0
    3.7601    3.2694    0.0000 C   0  0  0  0  0  0  0  0  0  0  0  0
    6.3582    1.7694    0.0000 C   0  0  0  0  0  0  0  0  0  0  0  0
    4.5691   -0.3184    0.0000 C   0  0  0  0  0  0  0  0  0  0  0  0
    3.2601   -2.2694    0.0000 C   0  0  0  0  0  0  0  0  0  0  0  0
    2.3090   -1.5784    0.0000 C   0  0  0  0  0  0  0  0  0  0  0  0
    3.7601    4.2694    0.0000 C   0  0  0  0  0  0  0  0  0  0  0  0
    2.8940    2.7694    0.0000 C   0  0  0  0  0  0  0  0  0  0  0  0
    7.2242    1.2694    0.0000 C   0  0  0  0  0  0  0  0  0  0  0  0
    6.3582    2.7694    0.0000 C   0  0  0  0  0  0  0  0  0  0  0  0
    2.3940   -2.7694    0.0000 C   0  0  0  0  0  0  0  0  0  0  0  0
    4.1261   -2.7694    0.0000 C   0  0  0  0  0  0  0  0  0  0  0  0
    2.3940   -3.7694    0.0000 C   0  0  0  0  0  0  0  0  0  0  0  0
    4.1261   -3.7694    0.0000 C   0  0  0  0  0  0  0  0  0  0  0  0
    3.2601   -4.2694    0.0000 C   0  0  0  0  0  0  0  0  0  0  0  0
    3.5480    1.8520    0.0000 H   0  0  0  0  0  0  0  0  0  0  0  0
    3.1495    1.1618    0.0000 H   0  0  0  0  0  0  0  0  0  0  0  0
    5.2367    2.6618    0.0000 H   0  0  0  0  0  0  0  0  0  0  0  0
    4.8382    3.3520    0.0000 H   0  0  0  0  0  0  0  0  0  0  0  0
    5.0936    0.7945    0.0000 H   0  0  0  0  0  0  0  0  0  0  0  0
    5.8906    0.7945    0.0000 H   0  0  0  0  0  0  0  0  0  0  0  0
    3.2231    3.5794    0.0000 H   0  0  0  0  0  0  0  0  0  0  0  0
    6.3582    1.1494    0.0000 H   0  0  0  0  0  0  0  0  0  0  0  0
    4.6245   -1.7710    0.0000 H   0  0  0  0  0  0  0  0  0  0  0  0
    2.1174   -0.9888    0.0000 H   0  0  0  0  0  0  0  0  0  0  0  0
    1.7194   -1.7700    0.0000 H   0  0  0  0  0  0  0  0  0  0  0  0
    2.5006   -2.1681    0.0000 H   0  0  0  0  0  0  0  0  0  0  0  0
    6.9782    2.7694    0.0000 H   0  0  0  0  0  0  0  0  0  0  0  0
    4.3801    4.2694    0.0000 H   0  0  0  0  0  0  0  0  0  0  0  0
    6.3582    3.3894    0.0000 H   0  0  0  0  0  0  0  0  0  0  0  0
    5.7382    2.7694    0.0000 H   0  0  0  0  0  0  0  0  0  0  0  0
    6.9142    0.7325    0.0000 H   0  0  0  0  0  0  0  0  0  0  0  0
    7.7611    0.9594    0.0000 H   0  0  0  0  0  0  0  0  0  0  0  0
    7.5342    1.8064    0.0000 H   0  0  0  0  0  0  0  0  0  0  0  0
    2.5840    3.3064    0.0000 H   0  0  0  0  0  0  0  0  0  0  0  0
    2.3571    2.4594    0.0000 H   0  0  0  0  0  0  0  0  0  0  0  0
    3.2040    2.2325    0.0000 H   0  0  0  0  0  0  0  0  0  0  0  0
    3.7601    4.8894    0.0000 H   0  0  0  0  0  0  0  0  0  0  0  0
    3.1401    4.2694    0.0000 H   0  0  0  0  0  0  0  0  0  0  0  0
    1.8571   -2.4594    0.0000 H   0  0  0  0  0  0  0  0  0  0  0  0
    4.6630   -2.4594    0.0000 H   0  0  0  0  0  0  0  0  0  0  0  0
    1.8571   -4.0794    0.0000 H   0  0  0  0  0  0  0  0  0  0  0  0
    4.6630   -4.0794    0.0000 H   0  0  0  0  0  0  0  0  0  0  0  0
    3.2601   -4.8894    0.0000 H   0  0  0  0  0  0  0  0  0  0  0  0
  1 10  2  0  0  0  0
  2 13  2  0  0  0  0
  3  7  1  0  0  0  0
  3  8  1  0  0  0  0
  3  9  1  0  0  0  0
  4  7  1  0  0  0  0
  4 10  1  0  0  0  0
  4 13  1  0  0  0  0
  5  6  1  0  0  0  0
  5 13  1  0  0  0  0
  5 33  1  0  0  0  0
  6 10  1  0  0  0  0
  6 14  1  0  0  0  0
  6 15  1  0  0  0  0
  7 25  1  0  0  0  0
  7 26  1  0  0  0  0
  8 11  1  0  0  0  0
  8 27  1  0  0  0  0
  8 28  1  0  0  0  0
  9 12  1  0  0  0  0
  9 29  1  0  0  0  0
  9 30  1  0  0  0  0
 11 16  1  0  0  0  0
 11 17  1  0  0  0  0
 11 31  1  0  0  0  0
 12 18  1  0  0  0  0
 12 19  1  0  0  0  0
 12 32  1  0  0  0  0
 14 20  2  0  0  0  0
 14 21  1  0  0  0  0
 15 34  1  0  0  0  0
 15 35  1  0  0  0  0
 15 36  1  0  0  0  0
 16 38  1  0  0  0  0
 16 47  1  0  0  0  0
 16 48  1  0  0  0  0
 17 44  1  0  0  0  0
 17 45  1  0  0  0  0
 17 46  1  0  0  0  0
 18 41  1  0  0  0  0
 18 42  1  0  0  0  0
 18 43  1  0  0  0  0
 19 37  1  0  0  0  0
 19 39  1  0  0  0  0
 19 40  1  0  0  0  0
 20 22  1  0  0  0  0
 20 49  1  0  0  0  0
 21 23  2  0  0  0  0
 21 50  1  0  0  0  0
 22 24  2  0  0  0  0
 22 51  1  0  0  0  0
 23 24  1  0  0  0  0
 23 52  1  0  0  0  0
 24 53  1  0  0  0  0
M  END
> <PUBCHEM_COMPOUND_CID>
17395856

> <PUBCHEM_COMPOUND_CANONICALIZED>
1

> <PUBCHEM_CACTVS_COMPLEXITY>
448

> <PUBCHEM_CACTVS_HBOND_ACCEPTOR>
3

> <PUBCHEM_CACTVS_HBOND_DONOR>
1

> <PUBCHEM_CACTVS_ROTATABLE_BOND>
7

> <PUBCHEM_CACTVS_SUBSKEYS>
AAADceB7MAAAAAAAAAAAAAAAAAAAAWAAAAAwAAAAAAAAAAABAAAAHgAQAAAADYjBmAQzAIPAAACIAiFSEACCAAAgAAAIiAGIBIiIYDKAlTGUIAholyKIiAcYiMCOgAAAAAAAAAAAAAAAAAAAAAAAAAAAAA==

> <PUBCHEM_IUPAC_OPENEYE_NAME>
3-[(diisobutylamino)methyl]-5-methyl-5-phenyl-imidazolidine-2,4-dione

> <PUBCHEM_IUPAC_CAS_NAME>
3-[[bis(2-methylpropyl)amino]methyl]-5-methyl-5-phenylimidazolidine-2,4-dione

> <PUBCHEM_IUPAC_NAME>
3-[[bis(2-methylpropyl)amino]methyl]-5-methyl-5-phenylimidazolidine-2,4-dione

> <PUBCHEM_IUPAC_SYSTEMATIC_NAME>
3-[[bis(2-methylpropyl)amino]methyl]-5-methyl-5-phenyl-imidazolidine-2,4-dione

> <PUBCHEM_IUPAC_TRADITIONAL_NAME>
3-[(diisobutylamino)methyl]-5-methyl-5-phenyl-hydantoin

> <PUBCHEM_IUPAC_INCHI>
InChI=1S/C19H29N3O2/c1-14(2)11-21(12-15(3)4)13-22-17(23)19(5,20-18(22)24)16-9-7-6-8-10-16/h6-10,14-15H,11-13H2,1-5H3,(H,20,24)

> <PUBCHEM_IUPAC_INCHIKEY>
MEENDRGDNWFZAE-UHFFFAOYSA-N

> <PUBCHEM_XLOGP3_AA>
3.8

> <PUBCHEM_EXACT_MASS>
331.225977

> <PUBCHEM_MOLECULAR_FORMULA>
C19H29N3O2

> <PUBCHEM_MOLECULAR_WEIGHT>
331.45246

> <PUBCHEM_OPENEYE_CAN_SMILES>
CC(C)CN(CC(C)C)CN1C(=O)C(NC1=O)(C)C2=CC=CC=C2

> <PUBCHEM_OPENEYE_ISO_SMILES>
CC(C)CN(CC(C)C)CN1C(=O)C(NC1=O)(C)C2=CC=CC=C2

> <PUBCHEM_CACTVS_TPSA>
52.6

> <PUBCHEM_MONOISOTOPIC_WEIGHT>
331.225977

> <PUBCHEM_TOTAL_CHARGE>
0

> <PUBCHEM_HEAVY_ATOM_COUNT>
24

> <PUBCHEM_ATOM_DEF_STEREO_COUNT>
0

> <PUBCHEM_ATOM_UDEF_STEREO_COUNT>
1

> <PUBCHEM_BOND_DEF_STEREO_COUNT>
0

> <PUBCHEM_BOND_UDEF_STEREO_COUNT>
0

> <PUBCHEM_ISOTOPIC_ATOM_COUNT>
0

> <PUBCHEM_COMPONENT_COUNT>
1

> <PUBCHEM_CACTVS_TAUTO_COUNT>
2

> <PUBCHEM_COORDINATE_TYPE>
1
5
255

> <PUBCHEM_BONDANNOTATIONS>
14  20  8
14  21  8
20  22  8
21  23  8
22  24  8
23  24  8
6  15  3

$$$$

