638012
  -OEChem-07051213103D

 27 27  0     1  0  0  0  0  0999 V2000
    0.6315   -2.1027   -0.4675 O   0  0  0  0  0  0  0  0  0  0  0  0
   -2.2193    0.1019   -0.2012 C   0  0  1  0  0  0  0  0  0  0  0  0
   -1.4946    1.4161    0.1164 C   0  0  0  0  0  0  0  0  0  0  0  0
   -1.4081   -1.0996    0.2930 C   0  0  0  0  0  0  0  0  0  0  0  0
   -0.1221    1.4555   -0.5526 C   0  0  0  0  0  0  0  0  0  0  0  0
    0.7061    0.2595   -0.1971 C   0  0  0  0  0  0  0  0  0  0  0  0
    0.0296   -1.0695   -0.1821 C   0  0  0  0  0  0  0  0  0  0  0  0
   -3.6168    0.0936    0.4156 C   0  0  0  0  0  0  0  0  0  0  0  0
    2.0032    0.3128    0.1306 C   0  0  0  0  0  0  0  0  0  0  0  0
    2.7941    1.5830    0.1535 C   0  0  0  0  0  0  0  0  0  0  0  0
    2.6964   -0.9505    0.4914 C   0  0  0  0  0  0  0  0  0  0  0  0
   -2.3284    0.0241   -1.2915 H   0  0  0  0  0  0  0  0  0  0  0  0
   -1.3834    1.5332    1.2024 H   0  0  0  0  0  0  0  0  0  0  0  0
   -2.0900    2.2667   -0.2372 H   0  0  0  0  0  0  0  0  0  0  0  0
   -1.8699   -2.0240   -0.0738 H   0  0  0  0  0  0  0  0  0  0  0  0
   -1.3933   -1.1441    1.3885 H   0  0  0  0  0  0  0  0  0  0  0  0
    0.3442    2.4007   -0.2619 H   0  0  0  0  0  0  0  0  0  0  0  0
   -0.2479    1.4840   -1.6422 H   0  0  0  0  0  0  0  0  0  0  0  0
   -4.2138    0.9293    0.0358 H   0  0  0  0  0  0  0  0  0  0  0  0
   -4.1443   -0.8339    0.1692 H   0  0  0  0  0  0  0  0  0  0  0  0
   -3.5715    0.1783    1.5067 H   0  0  0  0  0  0  0  0  0  0  0  0
    2.8656    1.9670    1.1759 H   0  0  0  0  0  0  0  0  0  0  0  0
    3.8117    1.3952   -0.2082 H   0  0  0  0  0  0  0  0  0  0  0  0
    2.3941    2.3673   -0.4933 H   0  0  0  0  0  0  0  0  0  0  0  0
    3.6469   -0.7133    0.9878 H   0  0  0  0  0  0  0  0  0  0  0  0
    2.1591   -1.5550    1.2300 H   0  0  0  0  0  0  0  0  0  0  0  0
    2.9669   -1.5373   -0.3926 H   0  0  0  0  0  0  0  0  0  0  0  0
  1  7  2  0  0  0  0
  2  3  1  0  0  0  0
  2  4  1  0  0  0  0
  2  8  1  0  0  0  0
  2 12  1  0  0  0  0
  3  5  1  0  0  0  0
  3 13  1  0  0  0  0
  3 14  1  0  0  0  0
  4  7  1  0  0  0  0
  4 15  1  0  0  0  0
  4 16  1  0  0  0  0
  5  6  1  0  0  0  0
  5 17  1  0  0  0  0
  5 18  1  0  0  0  0
  6  7  1  0  0  0  0
  6  9  2  0  0  0  0
  8 19  1  0  0  0  0
  8 20  1  0  0  0  0
  8 21  1  0  0  0  0
  9 10  1  0  0  0  0
  9 11  1  0  0  0  0
 10 22  1  0  0  0  0
 10 23  1  0  0  0  0
 10 24  1  0  0  0  0
 11 25  1  0  0  0  0
 11 26  1  0  0  0  0
 11 27  1  0  0  0  0
M  END
> <PUBCHEM_COMPOUND_CID>
638012

> <PUBCHEM_CONFORMER_RMSD>
0.4

> <PUBCHEM_CONFORMER_DIVERSEORDER>
1
3
4
2

> <PUBCHEM_MMFF94_PARTIAL_CHARGES>
8
1 -0.57
10 0.14
11 0.14
4 0.06
5 0.14
6 -0.12
7 0.49
9 -0.28

> <PUBCHEM_EFFECTIVE_ROTOR_COUNT>
0.8

> <PUBCHEM_PHARMACOPHORE_FEATURES>
3
1 1 acceptor
3 9 10 11 hydrophobe
6 2 3 4 5 6 7 rings

> <PUBCHEM_HEAVY_ATOM_COUNT>
11

> <PUBCHEM_ATOM_DEF_STEREO_COUNT>
1

> <PUBCHEM_ATOM_UDEF_STEREO_COUNT>
0

> <PUBCHEM_BOND_DEF_STEREO_COUNT>
0

> <PUBCHEM_BOND_UDEF_STEREO_COUNT>
0

> <PUBCHEM_ISOTOPIC_ATOM_COUNT>
0

> <PUBCHEM_COMPONENT_COUNT>
1

> <PUBCHEM_CACTVS_TAUTO_COUNT>
5

> <PUBCHEM_CONFORMER_ID>
0009BC3C00000001

> <PUBCHEM_MMFF94_ENERGY>
23.6993

> <PUBCHEM_FEATURE_SELFOVERLAP>
15.223

> <PUBCHEM_SHAPE_FINGERPRINT>
10219947 1 18412824677180169577
12251169 10 18412833499032420410
12423570 1 8709164013913890878
12524768 44 18411979173896735351
14325111 11 18410576175722136537
15775835 57 18261109630099133160
161256 15 18265324199902338975
16945 1 18336829804732770327
193761 8 17834394901240879877
19973954 147 18192992844707011969
20201158 50 18340487871687188019
20871998 184 18045494210197147535
21040471 1 18337390427072295606
23235685 24 18410858737446872869
23402655 69 18194138506808560069
23463225 33 18342177786435460840
23552423 10 18202283567875117254
241688 4 17690836091723394155
2748010 2 18411697647433164750
369184 2 18272939318773341305
5084963 1 18187088394346168090
528886 8 18337394846445976145
53812653 166 18190181195980386816
7364860 26 18335138700721421196

> <PUBCHEM_SHAPE_MULTIPOLES>
220.51
4.54
1.84
0.71
1.13
0.18
0
-0.65
0.94
-0.62
-0.15
0.01
0.01
0.01

> <PUBCHEM_SHAPE_SELFOVERLAP>
440.688

> <PUBCHEM_SHAPE_VOLUME>
131

> <PUBCHEM_COORDINATE_TYPE>
2
5
10

$$$$

