439716
  -OEChem-07051212473D

 14 13  0     0  0  0  0  0  0999 V2000
   -0.3763   -1.4522    0.3400 O   0  0  0  0  0  0  0  0  0  0  0  0
    2.3586   -0.7646   -0.8714 O   0  0  0  0  0  0  0  0  0  0  0  0
   -2.7924   -0.7263    0.2130 O   0  0  0  0  0  0  0  0  0  0  0  0
   -2.1539    1.4104   -0.3258 O   0  0  0  0  0  0  0  0  0  0  0  0
    2.8009    0.6933    0.8487 N   0  0  0  0  0  0  0  0  0  0  0  0
    0.6019    0.7226   -0.1486 C   0  0  0  0  0  0  0  0  0  0  0  0
   -0.5127   -0.2672    0.0749 C   0  0  0  0  0  0  0  0  0  0  0  0
    1.9907    0.1251   -0.1084 C   0  0  0  0  0  0  0  0  0  0  0  0
   -1.9167    0.2589   -0.0224 C   0  0  0  0  0  0  0  0  0  0  0  0
    0.5036    1.5142    0.6020 H   0  0  0  0  0  0  0  0  0  0  0  0
    0.4767    1.1732   -1.1396 H   0  0  0  0  0  0  0  0  0  0  0  0
    3.7589    0.3816    0.9689 H   0  0  0  0  0  0  0  0  0  0  0  0
    2.4850    1.4319    1.4689 H   0  0  0  0  0  0  0  0  0  0  0  0
   -3.7224   -0.4241    0.1341 H   0  0  0  0  0  0  0  0  0  0  0  0
  1  7  2  0  0  0  0
  2  8  2  0  0  0  0
  3  9  1  0  0  0  0
  3 14  1  0  0  0  0
  4  9  2  0  0  0  0
  5  8  1  0  0  0  0
  5 12  1  0  0  0  0
  5 13  1  0  0  0  0
  6  7  1  0  0  0  0
  6  8  1  0  0  0  0
  6 10  1  0  0  0  0
  6 11  1  0  0  0  0
  7  9  1  0  0  0  0
M  END
> <PUBCHEM_COMPOUND_CID>
439716

> <PUBCHEM_CONFORMER_RMSD>
0.6

> <PUBCHEM_CONFORMER_DIVERSEORDER>
1
7
5
12
11
6
9
3
4
10
2
8

> <PUBCHEM_MMFF94_PARTIAL_CHARGES>
12
1 -0.57
12 0.37
13 0.37
14 0.5
2 -0.57
3 -0.65
4 -0.57
5 -0.8
6 0.12
7 0.51
8 0.57
9 0.72

> <PUBCHEM_EFFECTIVE_ROTOR_COUNT>
3

> <PUBCHEM_PHARMACOPHORE_FEATURES>
7
1 1 acceptor
1 2 acceptor
1 3 acceptor
1 4 acceptor
1 5 donor
1 6 anion
3 3 4 9 anion

> <PUBCHEM_HEAVY_ATOM_COUNT>
9

> <PUBCHEM_ATOM_DEF_STEREO_COUNT>
0

> <PUBCHEM_ATOM_UDEF_STEREO_COUNT>
0

> <PUBCHEM_BOND_DEF_STEREO_COUNT>
0

> <PUBCHEM_BOND_UDEF_STEREO_COUNT>
0

> <PUBCHEM_ISOTOPIC_ATOM_COUNT>
0

> <PUBCHEM_COMPONENT_COUNT>
1

> <PUBCHEM_CACTVS_TAUTO_COUNT>
5

> <PUBCHEM_CONFORMER_ID>
0006B5A400000001

> <PUBCHEM_MMFF94_ENERGY>
12.3482

> <PUBCHEM_FEATURE_SELFOVERLAP>
35.592

> <PUBCHEM_SHAPE_FINGERPRINT>
10857977 72 18342177722137630073
12932764 1 17676487237437321436
14325111 11 18411701001797367425
14390081 3 18337114556933200969
15310529 11 16298103189927097721
19973954 147 18333728030939108184
20645464 45 18335145275904959848
21040471 1 18343581867084463758
23552423 10 18130499833620820702
29004967 10 17530962484070938928
3248919 1 16558747923002034576
369184 2 17313101947308250921
5084963 1 18409156719084874181
5460574 1 9295294936428628132

> <PUBCHEM_SHAPE_MULTIPOLES>
156.76
4.13
1.18
0.73
0.35
0.04
0
-0.3
-0.17
-0.35
0.01
0.34
0
0.45

> <PUBCHEM_SHAPE_SELFOVERLAP>
305.197

> <PUBCHEM_SHAPE_VOLUME>
93.4

> <PUBCHEM_COORDINATE_TYPE>
2
5
10

$$$$

