10950
  -OEChem-06261205093D

 22 21  0     1  0  0  0  0  0999 V2000
   -1.0201    0.6173   -0.4592 O   0  0  0  0  0  0  0  0  0  0  0  0
    1.2162   -0.7937   -1.2372 O   0  0  0  0  0  0  0  0  0  0  0  0
   -1.8029   -0.6423    1.3119 O   0  0  0  0  0  0  0  0  0  0  0  0
   -0.0513    1.2273    0.3921 C   0  0  1  0  0  0  0  0  0  0  0  0
    0.8751    0.1541    0.9654 C   0  0  0  0  0  0  0  0  0  0  0  0
    0.7246    2.2568   -0.4189 C   0  0  0  0  0  0  0  0  0  0  0  0
    1.6570   -0.5888   -0.1074 C   0  0  0  0  0  0  0  0  0  0  0  0
    3.0290   -1.0709    0.2883 C   0  0  0  0  0  0  0  0  0  0  0  0
   -1.8333   -0.3033    0.1367 C   0  0  0  0  0  0  0  0  0  0  0  0
   -2.7944   -0.8564   -0.8717 C   0  0  0  0  0  0  0  0  0  0  0  0
   -0.5700    1.7454    1.2084 H   0  0  0  0  0  0  0  0  0  0  0  0
    0.3917   -0.6017    1.5852 H   0  0  0  0  0  0  0  0  0  0  0  0
    1.6042    0.6561    1.6148 H   0  0  0  0  0  0  0  0  0  0  0  0
    0.0466    3.0486   -0.7573 H   0  0  0  0  0  0  0  0  0  0  0  0
    1.5190    2.7185    0.1755 H   0  0  0  0  0  0  0  0  0  0  0  0
    1.1623    1.8287   -1.3261 H   0  0  0  0  0  0  0  0  0  0  0  0
    2.9508   -1.7154    1.1674 H   0  0  0  0  0  0  0  0  0  0  0  0
    3.4682   -1.6463   -0.5313 H   0  0  0  0  0  0  0  0  0  0  0  0
    3.6709   -0.2132    0.5033 H   0  0  0  0  0  0  0  0  0  0  0  0
   -2.2433   -1.3496   -1.6763 H   0  0  0  0  0  0  0  0  0  0  0  0
   -3.4188   -0.0522   -1.2686 H   0  0  0  0  0  0  0  0  0  0  0  0
   -3.4413   -1.5946   -0.3892 H   0  0  0  0  0  0  0  0  0  0  0  0
  1  4  1  0  0  0  0
  1  9  1  0  0  0  0
  2  7  2  0  0  0  0
  3  9  2  0  0  0  0
  4  5  1  0  0  0  0
  4  6  1  0  0  0  0
  4 11  1  0  0  0  0
  5  7  1  0  0  0  0
  5 12  1  0  0  0  0
  5 13  1  0  0  0  0
  6 14  1  0  0  0  0
  6 15  1  0  0  0  0
  6 16  1  0  0  0  0
  7  8  1  0  0  0  0
  8 17  1  0  0  0  0
  8 18  1  0  0  0  0
  8 19  1  0  0  0  0
  9 10  1  0  0  0  0
 10 20  1  0  0  0  0
 10 21  1  0  0  0  0
 10 22  1  0  0  0  0
M  END
> <PUBCHEM_COMPOUND_CID>
10950

> <PUBCHEM_CONFORMER_RMSD>
0.6

> <PUBCHEM_CONFORMER_DIVERSEORDER>
3
19
35
43
61
60
58
22
20
55
41
69
66
64
70
23
45
37
42
67
50
48
2
30
62
44
17
5
34
14
24
13
65
11
25
7
32
33
46
15
18
63
16
54
57
38
8
59
10
29
68
36
6
31
49
52
26
4
12
1
27
28
53
39
9
40
51
21
47
56

> <PUBCHEM_MMFF94_PARTIAL_CHARGES>
9
1 -0.43
10 0.06
2 -0.57
3 -0.57
4 0.28
5 0.06
7 0.45
8 0.06
9 0.66

> <PUBCHEM_EFFECTIVE_ROTOR_COUNT>
4

> <PUBCHEM_PHARMACOPHORE_FEATURES>
2
1 2 acceptor
1 3 acceptor

> <PUBCHEM_HEAVY_ATOM_COUNT>
10

> <PUBCHEM_ATOM_DEF_STEREO_COUNT>
0

> <PUBCHEM_ATOM_UDEF_STEREO_COUNT>
1

> <PUBCHEM_BOND_DEF_STEREO_COUNT>
0

> <PUBCHEM_BOND_UDEF_STEREO_COUNT>
0

> <PUBCHEM_ISOTOPIC_ATOM_COUNT>
0

> <PUBCHEM_COMPONENT_COUNT>
1

> <PUBCHEM_CACTVS_TAUTO_COUNT>
3

> <PUBCHEM_CONFORMER_ID>
00002AC600000003

> <PUBCHEM_MMFF94_ENERGY>
13.4063

> <PUBCHEM_FEATURE_SELFOVERLAP>
10.149

> <PUBCHEM_SHAPE_FINGERPRINT>
1 1 17836084476856028724
12897270 3 15554442989937772963
14128692 85 18187079516633014460
16945 1 18197494022078472008
20653085 51 13901610970289231702
20653091 64 18262794051911340555
20711985 344 18126296477919293744
21922407 69 16951117357746970163
23552449 11 18337395933146567929
29004967 10 18409160021967427090
528862 383 18192722146009027300

> <PUBCHEM_SHAPE_MULTIPOLES>
188.19
3.71
1.68
1.09
0.3
1.12
-0.07
-2.23
0.27
-0.55
0.27
0.2
-0.16
-0.06

> <PUBCHEM_SHAPE_SELFOVERLAP>
355.039

> <PUBCHEM_SHAPE_VOLUME>
116.3

> <PUBCHEM_COORDINATE_TYPE>
2
5
10

$$$$

