17396400
  -OEChem-06241222563D

 36 38  0     0  0  0  0  0  0999 V2000
    6.5134   -0.4625    1.4253 S   0  0  0  0  0  0  0  0  0  0  0  0
    1.0745   -0.9504   -0.0151 O   0  0  0  0  0  0  0  0  0  0  0  0
   -7.0047   -0.8989   -0.0125 O   0  0  0  0  0  0  0  0  0  0  0  0
    5.1564    0.1193   -0.6717 N   0  0  0  0  0  0  0  0  0  0  0  0
    3.8961    0.5276    1.1271 N   0  0  0  0  0  0  0  0  0  0  0  0
   -0.5328    0.7668    0.0154 N   0  0  0  0  0  0  0  0  0  0  0  0
   -5.3659    0.7956    0.0165 N   0  0  0  0  0  0  0  0  0  0  0  0
    3.2111    0.8251   -0.0366 C   0  0  0  0  0  0  0  0  0  0  0  0
    1.8103    1.3481    0.0265 C   0  0  0  0  0  0  0  0  0  0  0  0
    3.9746    0.5791   -1.1663 C   0  0  0  0  0  0  0  0  0  0  0  0
    5.0503    0.1109    0.6858 C   0  0  0  0  0  0  0  0  0  0  0  0
    0.7689    0.2377    0.0053 C   0  0  0  0  0  0  0  0  0  0  0  0
   -1.7454    0.0768    0.0022 C   0  0  0  0  0  0  0  0  0  0  0  0
    6.3596   -0.3133   -1.1764 C   0  0  0  0  0  0  0  0  0  0  0  0
   -2.9492    0.7815    0.0160 C   0  0  0  0  0  0  0  0  0  0  0  0
   -4.1614    0.0915    0.0032 C   0  0  0  0  0  0  0  0  0  0  0  0
    7.2065   -0.6648   -0.1940 C   0  0  0  0  0  0  0  0  0  0  0  0
   -1.7538   -1.3178   -0.0244 C   0  0  0  0  0  0  0  0  0  0  0  0
   -4.1698   -1.3031   -0.0231 C   0  0  0  0  0  0  0  0  0  0  0  0
   -2.9660   -2.0078   -0.0371 C   0  0  0  0  0  0  0  0  0  0  0  0
   -6.6690    0.2808    0.0066 C   0  0  0  0  0  0  0  0  0  0  0  0
   -7.7038    1.3779    0.0273 C   0  0  0  0  0  0  0  0  0  0  0  0
    1.6780    1.9299    0.9462 H   0  0  0  0  0  0  0  0  0  0  0  0
    1.6271    2.0180   -0.8220 H   0  0  0  0  0  0  0  0  0  0  0  0
    3.7790    0.6892   -2.2239 H   0  0  0  0  0  0  0  0  0  0  0  0
    6.5444   -0.3450   -2.2393 H   0  0  0  0  0  0  0  0  0  0  0  0
   -0.6120    1.7815    0.0351 H   0  0  0  0  0  0  0  0  0  0  0  0
   -2.9426    1.8693    0.0366 H   0  0  0  0  0  0  0  0  0  0  0  0
    8.2112   -1.0356   -0.3394 H   0  0  0  0  0  0  0  0  0  0  0  0
   -0.8654   -1.9333   -0.0367 H   0  0  0  0  0  0  0  0  0  0  0  0
   -5.0666   -1.9065   -0.0345 H   0  0  0  0  0  0  0  0  0  0  0  0
   -2.9726   -3.0940   -0.0579 H   0  0  0  0  0  0  0  0  0  0  0  0
   -5.2761    1.8094    0.0353 H   0  0  0  0  0  0  0  0  0  0  0  0
   -8.7063    0.9426   -0.0095 H   0  0  0  0  0  0  0  0  0  0  0  0
   -7.6033    1.9629    0.9457 H   0  0  0  0  0  0  0  0  0  0  0  0
   -7.5693    2.0314   -0.8393 H   0  0  0  0  0  0  0  0  0  0  0  0
  1 11  1  0  0  0  0
  1 17  1  0  0  0  0
  2 12  2  0  0  0  0
  3 21  2  0  0  0  0
  4 10  1  0  0  0  0
  4 11  1  0  0  0  0
  4 14  1  0  0  0  0
  5  8  1  0  0  0  0
  5 11  2  0  0  0  0
  6 12  1  0  0  0  0
  6 13  1  0  0  0  0
  6 27  1  0  0  0  0
  7 16  1  0  0  0  0
  7 21  1  0  0  0  0
  7 33  1  0  0  0  0
  8  9  1  0  0  0  0
  8 10  2  0  0  0  0
  9 12  1  0  0  0  0
  9 23  1  0  0  0  0
  9 24  1  0  0  0  0
 10 25  1  0  0  0  0
 13 15  1  0  0  0  0
 13 18  2  0  0  0  0
 14 17  2  0  0  0  0
 14 26  1  0  0  0  0
 15 16  2  0  0  0  0
 15 28  1  0  0  0  0
 16 19  1  0  0  0  0
 17 29  1  0  0  0  0
 18 20  1  0  0  0  0
 18 30  1  0  0  0  0
 19 20  2  0  0  0  0
 19 31  1  0  0  0  0
 20 32  1  0  0  0  0
 21 22  1  0  0  0  0
 22 34  1  0  0  0  0
 22 35  1  0  0  0  0
 22 36  1  0  0  0  0
M  END
> <PUBCHEM_COMPOUND_CID>
17396400

> <PUBCHEM_CONFORMER_RMSD>
0.8

> <PUBCHEM_CONFORMER_DIVERSEORDER>
1
93
47
94
84
49
101
120
11
115
105
43
122
18
97
78
104
70
130
69
48
40
109
7
24
38
126
44
20
89
3
41
39
72
123
128
37
111
75
114
51
50
98
127
23
125
119
107
129
63
45
57
118
113
79
25
46
112
68
95
26
74
131
9
16
92
103
117
29
58
121
4
6
31
35
116
21
60
62
2
67
73
81
34
59
99
76
87
36
42
33
108
66
22
77
14
54
100
124
17
82
15
96
90
19
110
102
64
10
53
61
32
83
91
12
88
106
27
56
28
5
30
86
71
55
13
85
52
8
80
65

> <PUBCHEM_MMFF94_PARTIAL_CHARGES>
31
1 -0.16
10 -0.3
11 0.24
12 0.57
13 0.12
14 -0.18
15 -0.15
16 0.12
17 -0.05
18 -0.15
19 -0.15
2 -0.57
20 -0.15
21 0.57
22 0.06
25 0.15
26 0.15
27 0.37
28 0.15
29 0.15
3 -0.57
30 0.15
31 0.15
32 0.15
33 0.37
4 0.33
5 -0.57
6 -0.55
7 -0.55
8 0.05
9 0.24

> <PUBCHEM_EFFECTIVE_ROTOR_COUNT>
6

> <PUBCHEM_PHARMACOPHORE_FEATURES>
8
1 2 acceptor
1 3 acceptor
1 6 donor
1 7 donor
3 4 5 11 cation
5 1 4 11 14 17 rings
5 4 5 8 10 11 rings
6 13 15 16 18 19 20 rings

> <PUBCHEM_HEAVY_ATOM_COUNT>
22

> <PUBCHEM_ATOM_DEF_STEREO_COUNT>
0

> <PUBCHEM_ATOM_UDEF_STEREO_COUNT>
0

> <PUBCHEM_BOND_DEF_STEREO_COUNT>
0

> <PUBCHEM_BOND_UDEF_STEREO_COUNT>
0

> <PUBCHEM_ISOTOPIC_ATOM_COUNT>
0

> <PUBCHEM_COMPONENT_COUNT>
1

> <PUBCHEM_CACTVS_TAUTO_COUNT>
4

> <PUBCHEM_CONFORMER_ID>
010972B000000001

> <PUBCHEM_MMFF94_ENERGY>
59.611

> <PUBCHEM_FEATURE_SELFOVERLAP>
40.847

> <PUBCHEM_SHAPE_FINGERPRINT>
10 15 17313395509298801170
10050765 1 18123187901308325997
10299344 5 17632858628821373346
10968037 39 8862942780254507737
11315181 36 17676482822543244217
11524674 6 17676488328665581023
11638347 137 15430031072070217638
11719270 70 18186518826228627830
11796584 16 18409164381887285682
12236239 1 17846778485818889245
13533116 47 17749668605574279798
13885169 127 18186800309520654185
13914758 101 16153698864879689883
14251752 14 18060423533718842757
14251764 18 18202846547582066742
14251764 46 18411136943715932037
14294032 229 18056192707729173085
14429380 56 4750861642178753488
14933364 13 14549020987466337327
15183329 4 18410852178815365312
15348495 7 17604718755134113178
15419008 47 17458350761811386017
18335252 98 10735877287713614041
19489759 90 17676203580944363113
20157964 124 14996282514142327204
20281389 69 18059858363362554357
21095086 128 15769775749721067737
21150785 3 5833986157423642403
21267235 1 18341608184173777547
220451 1 16845577495512302834
22224240 67 7132431311543161340
23035841 295 18202003226558730755
23402539 116 18187088325974974589
23522609 53 17773853420072975565
23559900 14 18261680250875123673
28498 318 18335983155352438094
29717793 49 18343578534859684028
3004659 81 18343017775308149316
3009799 131 16950002534486917961
335352 9 18410856547272067157
3545911 37 18408885144229320431
4073 2 17986951852412136298
4340502 62 15140958456921356620
5104073 3 18264485092104790233
5385378 56 18337104687462670099
542803 24 16988847163483394932
559249 180 18410013208995300863

> <PUBCHEM_SHAPE_MULTIPOLES>
424.94
22.38
1.38
0.93
5.86
0.35
0.05
-0.41
0.53
1.57
-0.01
-1.84
0
-0.26

> <PUBCHEM_SHAPE_SELFOVERLAP>
906.237

> <PUBCHEM_SHAPE_VOLUME>
237.4

> <PUBCHEM_COORDINATE_TYPE>
2
5
10

$$$$

