440736
  -OEChem-07051212503D

 25 25  0     0  0  0  0  0  0999 V2000
    1.3632    1.5023    0.8824 O   0  0  0  0  0  0  0  0  0  0  0  0
   -3.5756    0.9729   -0.5209 O   0  0  0  0  0  0  0  0  0  0  0  0
   -1.0304    2.0828   -0.1740 N   0  0  0  0  0  0  0  0  0  0  0  0
    4.7457   -0.5776   -0.6646 N   0  0  0  0  0  0  0  0  0  0  0  0
   -0.1695   -0.1594    0.2348 C   0  0  0  0  0  0  0  0  0  0  0  0
    2.3935   -0.5184    0.0656 C   0  0  0  0  0  0  0  0  0  0  0  0
    1.1802    0.3565    0.4267 C   0  0  0  0  0  0  0  0  0  0  0  0
   -1.2379    0.6886   -0.0569 C   0  0  0  0  0  0  0  0  0  0  0  0
    3.6178    0.2941   -0.3561 C   0  0  0  0  0  0  0  0  0  0  0  0
   -0.3808   -1.5336    0.3485 C   0  0  0  0  0  0  0  0  0  0  0  0
   -2.5174    0.1627   -0.2349 C   0  0  0  0  0  0  0  0  0  0  0  0
   -1.6603   -2.0595    0.1706 C   0  0  0  0  0  0  0  0  0  0  0  0
   -2.7286   -1.2114   -0.1212 C   0  0  0  0  0  0  0  0  0  0  0  0
    2.1188   -1.1858   -0.7599 H   0  0  0  0  0  0  0  0  0  0  0  0
    2.6295   -1.1300    0.9446 H   0  0  0  0  0  0  0  0  0  0  0  0
    3.3765    0.9011   -1.2357 H   0  0  0  0  0  0  0  0  0  0  0  0
    3.9076    0.9853    0.4433 H   0  0  0  0  0  0  0  0  0  0  0  0
    0.4251   -2.2202    0.5918 H   0  0  0  0  0  0  0  0  0  0  0  0
   -1.8259   -3.1289    0.2631 H   0  0  0  0  0  0  0  0  0  0  0  0
   -3.7201   -1.6352   -0.2565 H   0  0  0  0  0  0  0  0  0  0  0  0
   -0.1084    2.4836   -0.0742 H   0  0  0  0  0  0  0  0  0  0  0  0
   -1.8145    2.6846   -0.3897 H   0  0  0  0  0  0  0  0  0  0  0  0
    4.9937   -1.1222    0.1604 H   0  0  0  0  0  0  0  0  0  0  0  0
    5.5614   -0.0088   -0.8877 H   0  0  0  0  0  0  0  0  0  0  0  0
   -4.3776    0.4295   -0.6089 H   0  0  0  0  0  0  0  0  0  0  0  0
  1  7  2  0  0  0  0
  2 11  1  0  0  0  0
  2 25  1  0  0  0  0
  3  8  1  0  0  0  0
  3 21  1  0  0  0  0
  3 22  1  0  0  0  0
  4  9  1  0  0  0  0
  4 23  1  0  0  0  0
  4 24  1  0  0  0  0
  5  7  1  0  0  0  0
  5  8  2  0  0  0  0
  5 10  1  0  0  0  0
  6  7  1  0  0  0  0
  6  9  1  0  0  0  0
  6 14  1  0  0  0  0
  6 15  1  0  0  0  0
  8 11  1  0  0  0  0
  9 16  1  0  0  0  0
  9 17  1  0  0  0  0
 10 12  2  0  0  0  0
 10 18  1  0  0  0  0
 11 13  2  0  0  0  0
 12 13  1  0  0  0  0
 12 19  1  0  0  0  0
 13 20  1  0  0  0  0
M  END
> <PUBCHEM_COMPOUND_CID>
440736

> <PUBCHEM_CONFORMER_RMSD>
0.6

> <PUBCHEM_CONFORMER_DIVERSEORDER>
2
20
13
1
19
22
17
11
8
4
21
3
14
12
9
16
15
7
10
18
5
6

> <PUBCHEM_MMFF94_PARTIAL_CHARGES>
21
1 -0.57
10 -0.15
11 0.08
12 -0.15
13 -0.15
18 0.15
19 0.15
2 -0.53
20 0.15
21 0.4
22 0.4
23 0.36
24 0.36
25 0.45
3 -0.9
4 -0.99
5 0.09
6 0.06
7 0.42
8 0.1
9 0.27

> <PUBCHEM_EFFECTIVE_ROTOR_COUNT>
3

> <PUBCHEM_PHARMACOPHORE_FEATURES>
7
1 1 acceptor
1 2 donor
1 3 cation
1 3 donor
1 4 cation
1 4 donor
6 5 8 10 11 12 13 rings

> <PUBCHEM_HEAVY_ATOM_COUNT>
13

> <PUBCHEM_ATOM_DEF_STEREO_COUNT>
0

> <PUBCHEM_ATOM_UDEF_STEREO_COUNT>
0

> <PUBCHEM_BOND_DEF_STEREO_COUNT>
0

> <PUBCHEM_BOND_UDEF_STEREO_COUNT>
0

> <PUBCHEM_ISOTOPIC_ATOM_COUNT>
0

> <PUBCHEM_COMPONENT_COUNT>
1

> <PUBCHEM_CACTVS_TAUTO_COUNT>
21

> <PUBCHEM_CONFORMER_ID>
0006B9A000000002

> <PUBCHEM_MMFF94_ENERGY>
39.7488

> <PUBCHEM_FEATURE_SELFOVERLAP>
35.524

> <PUBCHEM_SHAPE_FINGERPRINT>
10608611 8 18264496096001178856
12032990 46 18339077060745668339
12716758 59 18340212886268924755
12932764 1 17417547842385904448
13024252 1 17418089901940222955
14911166 2 18409454704042529893
14993402 34 17918279740032118503
15219456 202 18188496744324681624
15775835 57 18130508621034036147
16945 1 18337966661343797771
17870717 6 18189877851615676838
193761 8 17546172264915569681
200 152 16805325504569843294
20201158 50 18186516622677919254
20645476 183 17703791413995782835
20871998 22 17764021368454691131
20871999 31 18271808973633499783
22802520 49 18335420110577368282
23402539 116 18410018753333421476
23403322 49 18187074105549656958
23552423 10 18129105511031915363
23559900 14 18408044018514462896
2748010 2 18194414294361755737
4175511 318 17989494038663604951
6333449 129 18410013221589753503
7364860 26 17976256837867804216
8809292 202 18411133602463802818

> <PUBCHEM_SHAPE_MULTIPOLES>
245.83
6.18
1.82
0.73
6.12
0
-0.03
0.48
1.75
-1.11
-0.1
0.17
-0.04
0.41

> <PUBCHEM_SHAPE_SELFOVERLAP>
508.944

> <PUBCHEM_SHAPE_VOLUME>
140.3

> <PUBCHEM_COORDINATE_TYPE>
2
5
10

$$$$

