47205302
  -OEChem-06241222583D

 39 40  0     0  0  0  0  0  0999 V2000
    0.6663    2.3142    0.3049 O   0  0  0  0  0  0  0  0  0  0  0  0
    3.2830   -1.2620    0.5762 O   0  0  0  0  0  0  0  0  0  0  0  0
    1.7640   -0.8548   -1.1318 N   0  0  0  0  0  0  0  0  0  0  0  0
   -1.2421   -2.4251   -0.8568 N   0  0  0  0  0  0  0  0  0  0  0  0
   -2.1966   -2.5944    0.0741 N   0  0  0  0  0  0  0  0  0  0  0  0
    2.9273    1.7836    0.8904 C   0  0  0  0  0  0  0  0  0  0  0  0
    3.1481    0.9612   -0.3752 C   0  0  0  0  0  0  0  0  0  0  0  0
    1.4732    1.7817    1.3471 C   0  0  0  0  0  0  0  0  0  0  0  0
    2.7568   -0.4999   -0.2301 C   0  0  0  0  0  0  0  0  0  0  0  0
    1.2310   -2.1944   -1.2190 C   0  0  0  0  0  0  0  0  0  0  0  0
   -0.6235    1.8572    0.2273 C   0  0  0  0  0  0  0  0  0  0  0  0
    0.0222   -2.3761   -0.3472 C   0  0  0  0  0  0  0  0  0  0  0  0
   -1.2833    1.7874   -0.9996 C   0  0  0  0  0  0  0  0  0  0  0  0
   -1.2762    1.4586    1.3938 C   0  0  0  0  0  0  0  0  0  0  0  0
   -2.5958    1.3192   -1.0601 C   0  0  0  0  0  0  0  0  0  0  0  0
   -0.1148   -2.5232    1.0115 C   0  0  0  0  0  0  0  0  0  0  0  0
   -0.6001    2.2094   -2.2586 C   0  0  0  0  0  0  0  0  0  0  0  0
   -2.5888    0.9903    1.3334 C   0  0  0  0  0  0  0  0  0  0  0  0
   -3.2486    0.9206    0.1065 C   0  0  0  0  0  0  0  0  0  0  0  0
   -1.5020   -2.6537    1.2133 C   0  0  0  0  0  0  0  0  0  0  0  0
    3.2449    2.8137    0.6893 H   0  0  0  0  0  0  0  0  0  0  0  0
    3.5563    1.3971    1.7008 H   0  0  0  0  0  0  0  0  0  0  0  0
    4.2141    0.9778   -0.6336 H   0  0  0  0  0  0  0  0  0  0  0  0
    2.6278    1.4269   -1.2194 H   0  0  0  0  0  0  0  0  0  0  0  0
    1.1930    0.7543    1.6112 H   0  0  0  0  0  0  0  0  0  0  0  0
    1.3736    2.4163    2.2353 H   0  0  0  0  0  0  0  0  0  0  0  0
    0.9811   -2.3762   -2.2699 H   0  0  0  0  0  0  0  0  0  0  0  0
    2.0039   -2.9147   -0.9287 H   0  0  0  0  0  0  0  0  0  0  0  0
    1.3763   -0.1578   -1.7588 H   0  0  0  0  0  0  0  0  0  0  0  0
   -0.8129    1.5238    2.3737 H   0  0  0  0  0  0  0  0  0  0  0  0
   -3.1239    1.2589   -2.0079 H   0  0  0  0  0  0  0  0  0  0  0  0
    0.6733   -2.5338    1.7501 H   0  0  0  0  0  0  0  0  0  0  0  0
   -1.5273   -2.3479   -1.8252 H   0  0  0  0  0  0  0  0  0  0  0  0
   -0.4483    3.2938   -2.2579 H   0  0  0  0  0  0  0  0  0  0  0  0
    0.3695    1.7151   -2.3630 H   0  0  0  0  0  0  0  0  0  0  0  0
   -1.1890    1.9541   -3.1461 H   0  0  0  0  0  0  0  0  0  0  0  0
   -3.0995    0.6850    2.2420 H   0  0  0  0  0  0  0  0  0  0  0  0
   -4.2706    0.5562    0.0596 H   0  0  0  0  0  0  0  0  0  0  0  0
   -2.0355   -2.7881    2.1432 H   0  0  0  0  0  0  0  0  0  0  0  0
  1  8  1  0  0  0  0
  1 11  1  0  0  0  0
  2  9  2  0  0  0  0
  3  9  1  0  0  0  0
  3 10  1  0  0  0  0
  3 29  1  0  0  0  0
  4  5  1  0  0  0  0
  4 12  1  0  0  0  0
  4 33  1  0  0  0  0
  5 20  2  0  0  0  0
  6  7  1  0  0  0  0
  6  8  1  0  0  0  0
  6 21  1  0  0  0  0
  6 22  1  0  0  0  0
  7  9  1  0  0  0  0
  7 23  1  0  0  0  0
  7 24  1  0  0  0  0
  8 25  1  0  0  0  0
  8 26  1  0  0  0  0
 10 12  1  0  0  0  0
 10 27  1  0  0  0  0
 10 28  1  0  0  0  0
 11 13  1  0  0  0  0
 11 14  2  0  0  0  0
 12 16  2  0  0  0  0
 13 15  2  0  0  0  0
 13 17  1  0  0  0  0
 14 18  1  0  0  0  0
 14 30  1  0  0  0  0
 15 19  1  0  0  0  0
 15 31  1  0  0  0  0
 16 20  1  0  0  0  0
 16 32  1  0  0  0  0
 17 34  1  0  0  0  0
 17 35  1  0  0  0  0
 17 36  1  0  0  0  0
 18 19  2  0  0  0  0
 18 37  1  0  0  0  0
 19 38  1  0  0  0  0
 20 39  1  0  0  0  0
M  END
> <PUBCHEM_COMPOUND_CID>
47205302

> <PUBCHEM_CONFORMER_RMSD>
1.2

> <PUBCHEM_CONFORMER_DIVERSEORDER>
1
3
18
33
35
32
62
14
75
39
12
67
43
27
31
77
10
59
4
42
22
56
29
38
71
76
69
70
78
64
8
50
25
30
34
2
74
41
21
23
79
24
80
49
11
36
19
5
57
37
46
44
65
47
63
68
55
66
15
61
16
58
48
60
13
7
26
73
6
9
72
17
52
81
53
20
45
54
40
28
51

> <PUBCHEM_MMFF94_PARTIAL_CHARGES>
27
1 -0.36
10 0.48
11 0.08
12 -0.33
13 -0.14
14 -0.15
15 -0.15
16 -0.15
17 0.14
18 -0.15
19 -0.15
2 -0.57
20 0.14
29 0.37
3 -0.73
30 0.15
31 0.15
32 0.15
33 0.27
37 0.15
38 0.15
39 0.15
4 0.3
5 -0.71
7 0.06
8 0.28
9 0.57

> <PUBCHEM_EFFECTIVE_ROTOR_COUNT>
8

> <PUBCHEM_PHARMACOPHORE_FEATURES>
7
1 1 acceptor
1 2 acceptor
1 3 donor
1 4 donor
1 5 acceptor
5 4 5 12 16 20 rings
6 11 13 14 15 18 19 rings

> <PUBCHEM_HEAVY_ATOM_COUNT>
20

> <PUBCHEM_ATOM_DEF_STEREO_COUNT>
0

> <PUBCHEM_ATOM_UDEF_STEREO_COUNT>
0

> <PUBCHEM_BOND_DEF_STEREO_COUNT>
0

> <PUBCHEM_BOND_UDEF_STEREO_COUNT>
0

> <PUBCHEM_ISOTOPIC_ATOM_COUNT>
0

> <PUBCHEM_COMPONENT_COUNT>
1

> <PUBCHEM_CACTVS_TAUTO_COUNT>
4

> <PUBCHEM_CONFORMER_ID>
02D04BB600000001

> <PUBCHEM_MMFF94_ENERGY>
35.3616

> <PUBCHEM_FEATURE_SELFOVERLAP>
35.52

> <PUBCHEM_SHAPE_FINGERPRINT>
10064457 181 18190997132413537057
104564 63 17977090267644286980
12596599 1 17243574484303011511
13132413 78 15669571374992810281
13140716 1 18408041806015708914
14251745 187 18263937535419548251
17357779 13 17974577892006595631
17492 54 18342741818963364335
20905425 154 18047188544698947831
238 59 17980789312586342325
2748010 2 18261670355639140764
3524813 1 18197483228698933191
5282274 181 18192965193981692089
81228 2 18126855897419835458

> <PUBCHEM_SHAPE_MULTIPOLES>
384.91
4.62
3.99
1.65
1.48
2.52
0.32
-1.31
-0.38
-0.52
-0.09
-0.38
-0.57
0.91

> <PUBCHEM_SHAPE_SELFOVERLAP>
800.532

> <PUBCHEM_SHAPE_VOLUME>
219.5

> <PUBCHEM_COORDINATE_TYPE>
2
5
10

$$$$

