479500
  -OEChem-07051213103D

 48 49  0     1  0  0  0  0  0999 V2000
    2.1148   -0.5384    0.0356 O   0  0  0  0  0  0  0  0  0  0  0  0
    0.1414    1.3454    1.0540 O   0  0  0  0  0  0  0  0  0  0  0  0
   -2.8616   -1.2749   -2.5053 O   0  0  0  0  0  0  0  0  0  0  0  0
   -1.9290    2.0046    2.4547 O   0  0  0  0  0  0  0  0  0  0  0  0
   -5.0443   -0.6962   -1.2100 O   0  0  0  0  0  0  0  0  0  0  0  0
    1.0544   -2.4918   -0.5801 O   0  0  0  0  0  0  0  0  0  0  0  0
    1.5176    0.1386   -1.0651 C   0  0  1  0  0  0  0  0  0  0  0  0
    0.0278    0.0645   -0.9193 C   0  0  0  0  0  0  0  0  0  0  0  0
    2.0638    1.5681   -1.1631 C   0  0  0  0  0  0  0  0  0  0  0  0
   -0.5746    0.7512    0.2559 C   0  0  0  0  0  0  0  0  0  0  0  0
   -2.0414    0.6902    0.4177 C   0  0  0  0  0  0  0  0  0  0  0  0
   -2.8320    0.0078   -0.5081 C   0  0  0  0  0  0  0  0  0  0  0  0
   -0.7447   -0.5854   -1.7975 C   0  0  0  0  0  0  0  0  0  0  0  0
   -2.2135   -0.6644   -1.6641 C   0  0  0  0  0  0  0  0  0  0  0  0
    3.5495    1.6415   -1.4058 C   0  0  0  0  0  0  0  0  0  0  0  0
    2.4943   -2.4432    1.3825 C   0  0  0  0  0  0  0  0  0  0  0  0
    1.7963   -1.8643    0.1643 C   0  0  0  0  0  0  0  0  0  0  0  0
   -2.6416    1.3241    1.5124 C   0  0  0  0  0  0  0  0  0  0  0  0
   -4.2210   -0.0420   -0.3424 C   0  0  0  0  0  0  0  0  0  0  0  0
    4.5319    1.7473   -0.4909 C   0  0  0  0  0  0  0  0  0  0  0  0
   -4.0265    1.2727    1.6753 C   0  0  0  0  0  0  0  0  0  0  0  0
   -4.8145    0.5911    0.7498 C   0  0  0  0  0  0  0  0  0  0  0  0
    1.6116   -2.2689    2.6126 C   0  0  0  0  0  0  0  0  0  0  0  0
    2.8390   -3.9138    1.1610 C   0  0  0  0  0  0  0  0  0  0  0  0
    6.0005    1.8163   -0.8003 C   0  0  0  0  0  0  0  0  0  0  0  0
    4.2020    1.8200    0.9763 C   0  0  0  0  0  0  0  0  0  0  0  0
    1.8320   -0.3852   -1.9799 H   0  0  0  0  0  0  0  0  0  0  0  0
    1.8204    2.1765   -0.2896 H   0  0  0  0  0  0  0  0  0  0  0  0
    1.5725    2.0801   -2.0020 H   0  0  0  0  0  0  0  0  0  0  0  0
   -0.3144   -1.0847   -2.6604 H   0  0  0  0  0  0  0  0  0  0  0  0
    3.4368   -1.9002    1.5272 H   0  0  0  0  0  0  0  0  0  0  0  0
    3.8405    1.5829   -2.4536 H   0  0  0  0  0  0  0  0  0  0  0  0
   -4.4991    1.7618    2.5230 H   0  0  0  0  0  0  0  0  0  0  0  0
    2.1068   -2.6566    3.5086 H   0  0  0  0  0  0  0  0  0  0  0  0
    0.6565   -2.7928    2.4940 H   0  0  0  0  0  0  0  0  0  0  0  0
    1.3848   -1.2104    2.7814 H   0  0  0  0  0  0  0  0  0  0  0  0
    3.3995   -4.3146    2.0119 H   0  0  0  0  0  0  0  0  0  0  0  0
    3.4520   -4.0371    0.2615 H   0  0  0  0  0  0  0  0  0  0  0  0
    1.9370   -4.5222    1.0316 H   0  0  0  0  0  0  0  0  0  0  0  0
   -5.8922    0.5566    0.8868 H   0  0  0  0  0  0  0  0  0  0  0  0
    6.4267    2.7517   -0.4238 H   0  0  0  0  0  0  0  0  0  0  0  0
    6.5286    0.9776   -0.3355 H   0  0  0  0  0  0  0  0  0  0  0  0
    6.1871    1.7731   -1.8783 H   0  0  0  0  0  0  0  0  0  0  0  0
    3.1506    1.6701    1.2251 H   0  0  0  0  0  0  0  0  0  0  0  0
    4.7610    1.0486    1.5181 H   0  0  0  0  0  0  0  0  0  0  0  0
    4.4987    2.7960    1.3754 H   0  0  0  0  0  0  0  0  0  0  0  0
   -0.9811    1.9755    2.2562 H   0  0  0  0  0  0  0  0  0  0  0  0
   -4.5344   -1.1021   -1.9270 H   0  0  0  0  0  0  0  0  0  0  0  0
  1  7  1  0  0  0  0
  1 17  1  0  0  0  0
  2 10  2  0  0  0  0
  3 14  2  0  0  0  0
  4 18  1  0  0  0  0
  4 47  1  0  0  0  0
  5 19  1  0  0  0  0
  5 48  1  0  0  0  0
  6 17  2  0  0  0  0
  7  8  1  0  0  0  0
  7  9  1  0  0  0  0
  7 27  1  0  0  0  0
  8 10  1  0  0  0  0
  8 13  2  0  0  0  0
  9 15  1  0  0  0  0
  9 28  1  0  0  0  0
  9 29  1  0  0  0  0
 10 11  1  0  0  0  0
 11 12  1  0  0  0  0
 11 18  2  0  0  0  0
 12 14  1  0  0  0  0
 12 19  2  0  0  0  0
 13 14  1  0  0  0  0
 13 30  1  0  0  0  0
 15 20  2  0  0  0  0
 15 32  1  0  0  0  0
 16 17  1  0  0  0  0
 16 23  1  0  0  0  0
 16 24  1  0  0  0  0
 16 31  1  0  0  0  0
 18 21  1  0  0  0  0
 19 22  1  0  0  0  0
 20 25  1  0  0  0  0
 20 26  1  0  0  0  0
 21 22  2  0  0  0  0
 21 33  1  0  0  0  0
 22 40  1  0  0  0  0
 23 34  1  0  0  0  0
 23 35  1  0  0  0  0
 23 36  1  0  0  0  0
 24 37  1  0  0  0  0
 24 38  1  0  0  0  0
 24 39  1  0  0  0  0
 25 41  1  0  0  0  0
 25 42  1  0  0  0  0
 25 43  1  0  0  0  0
 26 44  1  0  0  0  0
 26 45  1  0  0  0  0
 26 46  1  0  0  0  0
M  END
> <PUBCHEM_COMPOUND_CID>
479500

> <PUBCHEM_CONFORMER_RMSD>
0.8

> <PUBCHEM_CONFORMER_DIVERSEORDER>
1
91
3
98
39
29
97
13
96
70
16
76
15
62
52
60
34
75
49
87
4
64
50
58
88
36
95
78
54
25
99
42
93
43
71
83
44
59
35
7
24
41
73
33
27
6
11
65
32
74
82
21
77
22
10
86
48
84
26
66
94
85
46
68
47
8
79
61
23
72
67
51
69
89
40
18
2
81
17
19
63
9
57
53
28
5
45
12
20
14
38
80
55
92
30
31
37
90
56

> <PUBCHEM_MMFF94_PARTIAL_CHARGES>
30
1 -0.43
10 0.47
11 0.09
12 0.09
13 -0.14
14 0.47
15 -0.29
16 0.06
17 0.66
18 0.08
19 0.08
2 -0.57
20 -0.28
21 -0.15
22 -0.15
25 0.14
26 0.14
3 -0.57
30 0.15
32 0.15
33 0.15
4 -0.53
40 0.15
47 0.45
48 0.45
5 -0.53
6 -0.57
7 0.42
8 -0.12
9 0.14

> <PUBCHEM_EFFECTIVE_ROTOR_COUNT>
6

> <PUBCHEM_PHARMACOPHORE_FEATURES>
9
1 2 acceptor
1 3 acceptor
1 4 donor
1 5 donor
1 6 acceptor
3 16 23 24 hydrophobe
3 20 25 26 hydrophobe
6 11 12 18 19 21 22 rings
6 8 10 11 12 13 14 rings

> <PUBCHEM_HEAVY_ATOM_COUNT>
26

> <PUBCHEM_ATOM_DEF_STEREO_COUNT>
1

> <PUBCHEM_ATOM_UDEF_STEREO_COUNT>
0

> <PUBCHEM_BOND_DEF_STEREO_COUNT>
0

> <PUBCHEM_BOND_UDEF_STEREO_COUNT>
0

> <PUBCHEM_ISOTOPIC_ATOM_COUNT>
0

> <PUBCHEM_COMPONENT_COUNT>
1

> <PUBCHEM_CACTVS_TAUTO_COUNT>
12

> <PUBCHEM_CONFORMER_ID>
0007510C00000001

> <PUBCHEM_MMFF94_ENERGY>
61.6045

> <PUBCHEM_FEATURE_SELFOVERLAP>
45.69

> <PUBCHEM_SHAPE_FINGERPRINT>
10090160 65 18271236145276688708
10498660 4 17385714825015657113
10759866 29 18114735044660358685
11578080 2 17986959741661105805
11595378 159 17967823768360737265
12156800 1 17338464188710850515
12236239 1 18261106361977382244
12592029 89 17845949450189050124
12788726 201 17967814921292733135
133893 2 18129394842068351706
13583140 156 18341323423595026073
13631057 29 18195525879512541511
13726171 33 17532069731062157369
13911987 19 17773863217162065380
13965767 371 17901076909879997329
14251757 17 15936401218173333984
14739800 52 17677066689082420960
14955137 171 18046335603629584414
17138139 8 17976840687243156975
1813 80 18050566549853167110
18681886 176 17168144494608152557
18915476 22 17775013404892343966
20101258 96 17625267785833566822
20511986 3 18334303079947329589
20603629 256 18129940195076667730
22182313 1 16415482696380586351
23419403 2 17131272501145979022
23558518 356 17760362198083977388
23559900 14 15123222290846603102
244849 19 17059783346140245527
25147074 1 18260275169598727119
34934 24 18259976085404074881
3633792 109 18340781437334460703
4340502 62 18201142283590560579
474 4 18340760447576375948
633830 44 18337660911528837924
6823239 73 16153431627434670450
7097593 13 17756985971473967307
7808743 9 17096069407490064993

> <PUBCHEM_SHAPE_MULTIPOLES>
499.85
9.91
3.11
2.23
0.83
3.63
-0.31
-5.15
-0.2
5.45
-1.25
-1.72
0.13
-2.36

> <PUBCHEM_SHAPE_SELFOVERLAP>
1062.792

> <PUBCHEM_SHAPE_VOLUME>
276

> <PUBCHEM_COORDINATE_TYPE>
2
5
10

$$$$

