10933
  -OEChem-06261205083D

 12 11  0     0  0  0  0  0  0999 V2000
   -0.8876   -1.5644   -0.3994 S   0  0  0  0  0  0  0  0  0  0  0  0
    1.9930   -0.4128    1.2511 S   0  0  0  0  0  0  0  0  0  0  0  0
   -0.1235    0.8637    0.1716 N   0  0  0  0  0  0  0  0  0  0  0  0
   -2.4985    0.4326    0.2553 N   0  0  0  0  0  0  0  0  0  0  0  0
    1.6026    0.2783   -1.2650 N   0  0  0  0  0  0  0  0  0  0  0  0
   -1.1785    0.1163    0.0646 C   0  0  0  0  0  0  0  0  0  0  0  0
    1.0926    0.2862   -0.0782 C   0  0  0  0  0  0  0  0  0  0  0  0
   -3.2346   -0.2543    0.1358 H   0  0  0  0  0  0  0  0  0  0  0  0
   -2.7784    1.3703    0.5219 H   0  0  0  0  0  0  0  0  0  0  0  0
   -2.1656   -1.9690   -0.3985 H   0  0  0  0  0  0  0  0  0  0  0  0
    1.0961   -0.1485    2.2123 H   0  0  0  0  0  0  0  0  0  0  0  0
    2.5166   -0.1864   -1.2290 H   0  0  0  0  0  0  0  0  0  0  0  0
  1  6  1  0  0  0  0
  1 10  1  0  0  0  0
  2  7  1  0  0  0  0
  2 11  1  0  0  0  0
  3  6  2  0  0  0  0
  3  7  1  0  0  0  0
  4  6  1  0  0  0  0
  4  8  1  0  0  0  0
  4  9  1  0  0  0  0
  5  7  2  0  0  0  0
  5 12  1  0  0  0  0
M  END
> <PUBCHEM_COMPOUND_CID>
10933

> <PUBCHEM_CONFORMER_RMSD>
0.4

> <PUBCHEM_CONFORMER_DIVERSEORDER>
1
2

> <PUBCHEM_MMFF94_PARTIAL_CHARGES>
12
1 -0.32
10 0.18
11 0.18
12 0.4
2 -0.32
3 -0.66
4 -0.85
5 -0.85
6 0.64
7 0.8
8 0.4
9 0.4

> <PUBCHEM_EFFECTIVE_ROTOR_COUNT>
1

> <PUBCHEM_PHARMACOPHORE_FEATURES>
6
1 4 donor
1 5 donor
3 1 4 6 anion
3 2 5 7 anion
3 3 4 6 cation
3 3 5 7 cation

> <PUBCHEM_HEAVY_ATOM_COUNT>
7

> <PUBCHEM_ATOM_DEF_STEREO_COUNT>
0

> <PUBCHEM_ATOM_UDEF_STEREO_COUNT>
0

> <PUBCHEM_BOND_DEF_STEREO_COUNT>
0

> <PUBCHEM_BOND_UDEF_STEREO_COUNT>
1

> <PUBCHEM_ISOTOPIC_ATOM_COUNT>
0

> <PUBCHEM_COMPONENT_COUNT>
1

> <PUBCHEM_CACTVS_TAUTO_COUNT>
5

> <PUBCHEM_CONFORMER_ID>
00002AB500000001

> <PUBCHEM_MMFF94_ENERGY>
20.9197

> <PUBCHEM_FEATURE_SELFOVERLAP>
30.528

> <PUBCHEM_SHAPE_FINGERPRINT>
137420 1 4794203767754546504
16714656 1 18337091419902017189
18185500 45 18129676204975077138
21040471 1 18333726948759869103
24536 1 17531523170460622201
29004967 10 16415211108365700824
5943 1 17988095421334392758

> <PUBCHEM_SHAPE_MULTIPOLES>
136.81
2.87
1.19
1.09
0.26
0.52
-0.11
-0.11
0.67
0.46
-0.04
-0.71
0.04
-0.33

> <PUBCHEM_SHAPE_SELFOVERLAP>
239.917

> <PUBCHEM_SHAPE_VOLUME>
91.9

> <PUBCHEM_COORDINATE_TYPE>
2
5
10

$$$$

