91657
  -OEChem-07051213012D

 33 32  0     0  0  0  0  0  0999 V2000
    0.0000    7.1200    0.0000 Cl  0  0  0  0  0  0  0  0  0  0  0  0
    2.7996    9.2026    0.0000 Cl  0  0  0  0  0  0  0  0  0  0  0  0
    0.8660    3.6200    0.0000 O   0  0  0  0  0  0  0  0  0  0  0  0
    2.5981    6.6200    0.0000 O   0  0  0  0  0  0  0  0  0  0  0  0
    2.5981    3.6200    0.0000 N   0  0  0  0  0  0  0  0  0  0  0  0
    1.7320    5.1200    0.0000 N   0  0  0  0  0  0  0  0  0  0  0  0
    4.3301    0.6200    0.0000 N   0  0  0  0  0  0  0  0  0  0  0  0
    5.1962    2.1200    0.0000 N   0  0  0  0  0  0  0  0  0  0  0  0
    2.5981    0.6200    0.0000 N   0  0  0  0  0  0  0  0  0  0  0  0
    2.5981    5.6200    0.0000 N   0  0  0  0  0  0  0  0  0  0  0  0
    2.5981    2.6200    0.0000 C   0  0  0  0  0  0  0  0  0  0  0  0
    3.4641    2.1200    0.0000 C   0  0  0  0  0  0  0  0  0  0  0  0
    3.4641    1.1200    0.0000 C   0  0  0  0  0  0  0  0  0  0  0  0
    0.8660    5.6200    0.0000 C   0  0  0  0  0  0  0  0  0  0  0  0
    1.7320    4.1200    0.0000 C   0  0  0  0  0  0  0  0  0  0  0  0
    4.3301    2.6200    0.0000 C   0  0  0  0  0  0  0  0  0  0  0  0
    0.8660    6.6200    0.0000 C   0  0  0  0  0  0  0  0  0  0  0  0
    5.1962    1.1200    0.0000 C   0  0  0  0  0  0  0  0  0  0  0  0
    6.0622    0.6200    0.0000 C   0  0  0  0  0  0  0  0  0  0  0  0
    1.9875    2.7277    0.0000 H   0  0  0  0  0  0  0  0  0  0  0  0
    2.3860    2.0374    0.0000 H   0  0  0  0  0  0  0  0  0  0  0  0
    3.1350    3.9300    0.0000 H   0  0  0  0  0  0  0  0  0  0  0  0
    0.2554    5.7277    0.0000 H   0  0  0  0  0  0  0  0  0  0  0  0
    0.6540    5.0374    0.0000 H   0  0  0  0  0  0  0  0  0  0  0  0
    4.3301    3.2400    0.0000 H   0  0  0  0  0  0  0  0  0  0  0  0
    1.4766    6.5123    0.0000 H   0  0  0  0  0  0  0  0  0  0  0  0
    1.0781    7.2026    0.0000 H   0  0  0  0  0  0  0  0  0  0  0  0
    2.5981    0.0000    0.0000 H   0  0  0  0  0  0  0  0  0  0  0  0
    2.0611    0.9300    0.0000 H   0  0  0  0  0  0  0  0  0  0  0  0
    5.7522    0.0831    0.0000 H   0  0  0  0  0  0  0  0  0  0  0  0
    6.5991    0.3100    0.0000 H   0  0  0  0  0  0  0  0  0  0  0  0
    6.3722    1.1569    0.0000 H   0  0  0  0  0  0  0  0  0  0  0  0
    3.7996    9.2026    0.0000 H   0  0  0  0  0  0  0  0  0  0  0  0
  1 17  1  0  0  0  0
  2 33  1  0  0  0  0
  3 15  2  0  0  0  0
  4 10  2  0  0  0  0
  5 11  1  0  0  0  0
  5 15  1  0  0  0  0
  5 22  1  0  0  0  0
  6 10  1  0  0  0  0
  6 14  1  0  0  0  0
  6 15  1  0  0  0  0
  7 13  2  0  0  0  0
  7 18  1  0  0  0  0
  8 16  1  0  0  0  0
  8 18  2  0  0  0  0
  9 13  1  0  0  0  0
  9 28  1  0  0  0  0
  9 29  1  0  0  0  0
 11 12  1  0  0  0  0
 11 20  1  0  0  0  0
 11 21  1  0  0  0  0
 12 13  1  0  0  0  0
 12 16  2  0  0  0  0
 14 17  1  0  0  0  0
 14 23  1  0  0  0  0
 14 24  1  0  0  0  0
 16 25  1  0  0  0  0
 17 26  1  0  0  0  0
 17 27  1  0  0  0  0
 18 19  1  0  0  0  0
 19 30  1  0  0  0  0
 19 31  1  0  0  0  0
 19 32  1  0  0  0  0
M  END
> <PUBCHEM_COMPOUND_CID>
91657

> <PUBCHEM_COMPOUND_CANONICALIZED>
1

> <PUBCHEM_CACTVS_COMPLEXITY>
292

> <PUBCHEM_CACTVS_HBOND_ACCEPTOR>
6

> <PUBCHEM_CACTVS_HBOND_DONOR>
3

> <PUBCHEM_CACTVS_ROTATABLE_BOND>
4

> <PUBCHEM_CACTVS_SUBSKEYS>
AAADccBzsAAGAAAAAAAAAAAAAAAAAAAAAAAsAAAAAAAAAAABgAAAHgIcAAAADAPBG0QvsJbIEACpAhJndACAgCkRAKAXUKA4RBCACIBASUBEBAgYBgLAACAAAAAAAAAAAAAAAAAAAAAAAAAAAAAAAAAAAA==

> <PUBCHEM_IUPAC_OPENEYE_NAME>
3-[(4-amino-2-methyl-pyrimidin-5-yl)methyl]-1-(2-chloroethyl)-1-nitroso-urea hydrochloride

> <PUBCHEM_IUPAC_CAS_NAME>
3-[(4-amino-2-methyl-5-pyrimidinyl)methyl]-1-(2-chloroethyl)-1-nitrosourea hydrochloride

> <PUBCHEM_IUPAC_NAME>
3-[(4-amino-2-methylpyrimidin-5-yl)methyl]-1-(2-chloroethyl)-1-nitrosourea hydrochloride

> <PUBCHEM_IUPAC_SYSTEMATIC_NAME>
3-[(4-azanyl-2-methyl-pyrimidin-5-yl)methyl]-1-(2-chloroethyl)-1-nitroso-urea hydrochloride

> <PUBCHEM_IUPAC_TRADITIONAL_NAME>
3-[(4-amino-2-methyl-pyrimidin-5-yl)methyl]-1-(2-chloroethyl)-1-nitroso-urea hydrochloride

> <PUBCHEM_IUPAC_INCHI>
InChI=1S/C9H13ClN6O2.ClH/c1-6-12-4-7(8(11)14-6)5-13-9(17)16(15-18)3-2-10;/h4H,2-3,5H2,1H3,(H,13,17)(H2,11,12,14);1H

> <PUBCHEM_IUPAC_INCHIKEY>
KPMKNHGAPDCYLP-UHFFFAOYSA-N

> <PUBCHEM_EXACT_MASS>
308.055529

> <PUBCHEM_MOLECULAR_FORMULA>
C9H14Cl2N6O2

> <PUBCHEM_MOLECULAR_WEIGHT>
309.15246

> <PUBCHEM_OPENEYE_CAN_SMILES>
CC1=NC=C(C(=N1)N)CNC(=O)N(CCCl)N=O.Cl

> <PUBCHEM_OPENEYE_ISO_SMILES>
CC1=NC=C(C(=N1)N)CNC(=O)N(CCCl)N=O.Cl

> <PUBCHEM_CACTVS_TPSA>
114

> <PUBCHEM_MONOISOTOPIC_WEIGHT>
308.055529

> <PUBCHEM_TOTAL_CHARGE>
0

> <PUBCHEM_HEAVY_ATOM_COUNT>
19

> <PUBCHEM_ATOM_DEF_STEREO_COUNT>
0

> <PUBCHEM_ATOM_UDEF_STEREO_COUNT>
0

> <PUBCHEM_BOND_DEF_STEREO_COUNT>
0

> <PUBCHEM_BOND_UDEF_STEREO_COUNT>
0

> <PUBCHEM_ISOTOPIC_ATOM_COUNT>
0

> <PUBCHEM_COMPONENT_COUNT>
2

> <PUBCHEM_CACTVS_TAUTO_COUNT>
6

> <PUBCHEM_COORDINATE_TYPE>
1
5
255

> <PUBCHEM_BONDANNOTATIONS>
12  13  8
12  16  8
7  13  8
7  18  8
8  16  8
8  18  8

$$$$

