46174066
  -OEChem-07051213113D

 52 52  0     1  0  0  0  0  0999 V2000
   -4.6062   -3.1748   -0.8432 O   0  0  0  0  0  0  0  0  0  0  0  0
   -4.5123    2.4366    2.8834 O   0  0  0  0  0  0  0  0  0  0  0  0
   -5.8503    2.8141    1.0875 O   0  0  0  0  0  0  0  0  0  0  0  0
    4.4099   -1.8060    2.5872 O   0  0  0  0  0  0  0  0  0  0  0  0
   -4.6077   -1.9954   -0.0289 C   0  0  1  0  0  0  0  0  0  0  0  0
   -4.0371   -1.9910   -1.4173 C   0  0  1  0  0  0  0  0  0  0  0  0
   -5.9615   -1.4487    0.2229 C   0  0  0  0  0  0  0  0  0  0  0  0
   -5.9910    0.0750    0.4165 C   0  0  0  0  0  0  0  0  0  0  0  0
   -2.5819   -1.8147   -1.5768 C   0  0  0  0  0  0  0  0  0  0  0  0
   -5.1647    0.5383    1.6173 C   0  0  0  0  0  0  0  0  0  0  0  0
   -1.9376   -0.6374   -1.5966 C   0  0  0  0  0  0  0  0  0  0  0  0
   -5.2320    2.0375    1.8019 C   0  0  0  0  0  0  0  0  0  0  0  0
   -0.5053   -0.5169   -1.7551 C   0  0  0  0  0  0  0  0  0  0  0  0
    0.1311    0.6646   -1.7738 C   0  0  0  0  0  0  0  0  0  0  0  0
    1.5634    0.7801   -1.9381 C   0  0  0  0  0  0  0  0  0  0  0  0
    5.2538   -1.5079    1.4746 C   0  0  2  0  0  0  0  0  0  0  0  0
    6.6486   -2.1066    1.7038 C   0  0  0  0  0  0  0  0  0  0  0  0
    2.2768    1.9172   -1.9681 C   0  0  0  0  0  0  0  0  0  0  0  0
    5.2753   -0.0143    1.2990 C   0  0  0  0  0  0  0  0  0  0  0  0
    3.7613    2.0718   -2.1367 C   0  0  0  0  0  0  0  0  0  0  0  0
    7.6104   -1.9380    0.5328 C   0  0  0  0  0  0  0  0  0  0  0  0
    4.8219    0.7005    0.2568 C   0  0  0  0  0  0  0  0  0  0  0  0
    4.3790    2.7776   -0.9643 C   0  0  0  0  0  0  0  0  0  0  0  0
    4.8560    2.1384    0.1152 C   0  0  0  0  0  0  0  0  0  0  0  0
   -3.9585   -1.9938    0.8354 H   0  0  0  0  0  0  0  0  0  0  0  0
   -4.6168   -1.5198   -2.2045 H   0  0  0  0  0  0  0  0  0  0  0  0
   -6.3780   -1.9326    1.1146 H   0  0  0  0  0  0  0  0  0  0  0  0
   -6.6377   -1.6989   -0.6047 H   0  0  0  0  0  0  0  0  0  0  0  0
   -5.6196    0.5645   -0.4928 H   0  0  0  0  0  0  0  0  0  0  0  0
   -7.0330    0.3945    0.5421 H   0  0  0  0  0  0  0  0  0  0  0  0
   -2.0095   -2.7329   -1.6901 H   0  0  0  0  0  0  0  0  0  0  0  0
   -4.1111    0.2738    1.4804 H   0  0  0  0  0  0  0  0  0  0  0  0
   -5.5397    0.0636    2.5305 H   0  0  0  0  0  0  0  0  0  0  0  0
   -2.5097    0.2807   -1.4855 H   0  0  0  0  0  0  0  0  0  0  0  0
    0.0585   -1.4407   -1.8643 H   0  0  0  0  0  0  0  0  0  0  0  0
   -0.4274    1.5913   -1.6655 H   0  0  0  0  0  0  0  0  0  0  0  0
   -4.5529    3.4084    3.0108 H   0  0  0  0  0  0  0  0  0  0  0  0
    2.1077   -0.1572   -2.0424 H   0  0  0  0  0  0  0  0  0  0  0  0
    4.7994   -1.9790    0.5947 H   0  0  0  0  0  0  0  0  0  0  0  0
    6.5419   -3.1774    1.9201 H   0  0  0  0  0  0  0  0  0  0  0  0
    7.0955   -1.6723    2.6075 H   0  0  0  0  0  0  0  0  0  0  0  0
    1.7300    2.8558   -1.8721 H   0  0  0  0  0  0  0  0  0  0  0  0
    5.7131    0.5348    2.1330 H   0  0  0  0  0  0  0  0  0  0  0  0
    8.5573   -2.4432    0.7479 H   0  0  0  0  0  0  0  0  0  0  0  0
    7.1923   -2.3734   -0.3802 H   0  0  0  0  0  0  0  0  0  0  0  0
    7.8291   -0.8825    0.3444 H   0  0  0  0  0  0  0  0  0  0  0  0
    4.2458    1.1176   -2.3674 H   0  0  0  0  0  0  0  0  0  0  0  0
    3.9372    2.6900   -3.0268 H   0  0  0  0  0  0  0  0  0  0  0  0
    4.3836    0.1170   -0.5465 H   0  0  0  0  0  0  0  0  0  0  0  0
    4.4240    3.8632   -0.9946 H   0  0  0  0  0  0  0  0  0  0  0  0
    5.2844    2.7176    0.9282 H   0  0  0  0  0  0  0  0  0  0  0  0
    4.3742   -2.7737    2.6767 H   0  0  0  0  0  0  0  0  0  0  0  0
  1  5  1  0  0  0  0
  1  6  1  0  0  0  0
  2 12  1  0  0  0  0
  2 37  1  0  0  0  0
  3 12  2  0  0  0  0
  4 16  1  0  0  0  0
  4 52  1  0  0  0  0
  5  6  1  0  0  0  0
  5  7  1  0  0  0  0
  5 25  1  0  0  0  0
  6  9  1  0  0  0  0
  6 26  1  0  0  0  0
  7  8  1  0  0  0  0
  7 27  1  0  0  0  0
  7 28  1  0  0  0  0
  8 10  1  0  0  0  0
  8 29  1  0  0  0  0
  8 30  1  0  0  0  0
  9 11  2  0  0  0  0
  9 31  1  0  0  0  0
 10 12  1  0  0  0  0
 10 32  1  0  0  0  0
 10 33  1  0  0  0  0
 11 13  1  0  0  0  0
 11 34  1  0  0  0  0
 13 14  2  0  0  0  0
 13 35  1  0  0  0  0
 14 15  1  0  0  0  0
 14 36  1  0  0  0  0
 15 18  2  0  0  0  0
 15 38  1  0  0  0  0
 16 17  1  0  0  0  0
 16 19  1  0  0  0  0
 16 39  1  0  0  0  0
 17 21  1  0  0  0  0
 17 40  1  0  0  0  0
 17 41  1  0  0  0  0
 18 20  1  0  0  0  0
 18 42  1  0  0  0  0
 19 22  2  0  0  0  0
 19 43  1  0  0  0  0
 20 23  1  0  0  0  0
 20 47  1  0  0  0  0
 20 48  1  0  0  0  0
 21 44  1  0  0  0  0
 21 45  1  0  0  0  0
 21 46  1  0  0  0  0
 22 24  1  0  0  0  0
 22 49  1  0  0  0  0
 23 24  2  0  0  0  0
 23 50  1  0  0  0  0
 24 51  1  0  0  0  0
M  END
> <PUBCHEM_COMPOUND_CID>
46174066

> <PUBCHEM_CONFORMER_RMSD>
1.4

> <PUBCHEM_CONFORMER_DIVERSEORDER>
1
29
81
22
66
35
71
76
18
86
80
62
7
57
3
84
34
15
20
31
68
52
28
60
41
49
10
55
21
69
4
73
33
6
64
42
83
67
58
56
54
85
23
70
38
44
40
11
8
30
43
36
16
75
61
37
59
51
46
47
32
45
50
19
77
17
82
12
24
5
14
63
9
48
78
26
65
72
53
13
39
74
79
27
25
2

> <PUBCHEM_MMFF94_PARTIAL_CHARGES>
35
1 -0.3
10 0.06
11 -0.15
12 0.66
13 -0.15
14 -0.15
15 -0.15
16 0.42
18 -0.29
19 -0.29
2 -0.65
20 0.28
22 -0.15
23 -0.29
24 -0.15
25 0.1
26 0.1
3 -0.57
31 0.15
34 0.15
35 0.15
36 0.15
37 0.5
38 0.15
4 -0.68
42 0.15
43 0.15
49 0.15
5 -0.05
50 0.15
51 0.15
52 0.4
6 0.09
7 0.09
9 -0.19

> <PUBCHEM_EFFECTIVE_ROTOR_COUNT>
12.6

> <PUBCHEM_PHARMACOPHORE_FEATURES>
7
1 1 acceptor
1 2 acceptor
1 21 hydrophobe
1 3 acceptor
1 4 acceptor
1 4 donor
3 2 3 12 anion

> <PUBCHEM_HEAVY_ATOM_COUNT>
24

> <PUBCHEM_ATOM_DEF_STEREO_COUNT>
1

> <PUBCHEM_ATOM_UDEF_STEREO_COUNT>
2

> <PUBCHEM_BOND_DEF_STEREO_COUNT>
5

> <PUBCHEM_BOND_UDEF_STEREO_COUNT>
0

> <PUBCHEM_ISOTOPIC_ATOM_COUNT>
0

> <PUBCHEM_COMPONENT_COUNT>
1

> <PUBCHEM_CACTVS_TAUTO_COUNT>
1

> <PUBCHEM_CONFORMER_ID>
02C08F7200000001

> <PUBCHEM_MMFF94_ENERGY>
22.9422

> <PUBCHEM_FEATURE_SELFOVERLAP>
35.578

> <PUBCHEM_SHAPE_FINGERPRINT>
10838868 217 17693375951237543741
11476731 99 13985483971951033634
13533116 47 18129952161393443004
14289278 72 18114735053724911124
15510800 12 16200165300417905904
15799311 1 17489296439375953670
16079462 125 15864341416057693613
18470217 77 16517109302269697087
21033648 29 16226041163403870877
25122255 55 15123513567043886261
3459 39 17240481399048327991
44249763 50 15864073152901655861
5104073 3 18408889512311664532
7918774 8 15554447392316038541
86090 222 16271934783390543736
9980921 177 17969768851759529891

> <PUBCHEM_SHAPE_MULTIPOLES>
470.43
21.9
3.68
2.84
4.4
0.34
0.86
-7.21
13.33
1.77
0.38
-1.77
0.83
-7.98

> <PUBCHEM_SHAPE_SELFOVERLAP>
913.714

> <PUBCHEM_SHAPE_VOLUME>
282.3

> <PUBCHEM_COORDINATE_TYPE>
2
5
10

$$$$

