5280585
  -OEChem-07051212483D

 81 82  0     1  0  0  0  0  0999 V2000
    1.6672   -1.6462   -2.0583 O   0  0  0  0  0  0  0  0  0  0  0  0
   -2.4275   -3.3103    1.2541 O   0  0  0  0  0  0  0  0  0  0  0  0
   -1.3198    3.7139   -0.8078 C   0  0  1  0  0  0  0  0  0  0  0  0
    0.1174    3.5857   -1.3626 C   0  0  0  0  0  0  0  0  0  0  0  0
    3.7738    2.9709   -0.0258 C   0  0  2  0  0  0  0  0  0  0  0  0
    1.2101    3.3309   -0.3162 C   0  0  0  0  0  0  0  0  0  0  0  0
    2.5939    3.2757   -0.9766 C   0  0  0  0  0  0  0  0  0  0  0  0
   -1.6480    2.5587    0.1600 C   0  0  0  0  0  0  0  0  0  0  0  0
    3.6545    1.5639    0.5953 C   0  0  0  0  0  0  0  0  0  0  0  0
   -3.1370    2.2187    0.3202 C   0  0  0  0  0  0  0  0  0  0  0  0
   -3.4075    1.1074    1.3394 C   0  0  0  0  0  0  0  0  0  0  0  0
   -1.5630    5.0860   -0.1751 C   0  0  0  0  0  0  0  0  0  0  0  0
    4.9684    0.9352    1.0799 C   0  0  0  0  0  0  0  0  0  0  0  0
    3.9335    4.0594    1.0381 C   0  0  0  0  0  0  0  0  0  0  0  0
   -4.9071    0.8203    1.5499 C   0  0  0  0  0  0  0  0  0  0  0  0
    4.7823   -0.4294    1.7494 C   0  0  0  0  0  0  0  0  0  0  0  0
   -5.6096    2.0831    2.0560 C   0  0  0  0  0  0  0  0  0  0  0  0
   -5.1531   -0.3299    2.5274 C   0  0  0  0  0  0  0  0  0  0  0  0
    4.1549   -1.4398    0.8148 C   0  0  0  0  0  0  0  0  0  0  0  0
    3.0150   -2.1099    1.0743 C   0  0  0  0  0  0  0  0  0  0  0  0
    4.9138   -1.6948   -0.4609 C   0  0  0  0  0  0  0  0  0  0  0  0
    2.3490   -3.1459    0.2123 C   0  0  0  0  0  0  0  0  0  0  0  0
    0.9195   -2.7928   -0.1138 C   0  0  0  0  0  0  0  0  0  0  0  0
   -0.1121   -3.2121    0.7208 C   0  0  0  0  0  0  0  0  0  0  0  0
    0.6336   -2.0445   -1.2561 C   0  0  0  0  0  0  0  0  0  0  0  0
   -0.6908   -1.7058   -1.5779 C   0  0  0  0  0  0  0  0  0  0  0  0
   -1.7399   -2.1321   -0.7291 C   0  0  0  0  0  0  0  0  0  0  0  0
   -1.4338   -2.8846    0.4165 C   0  0  0  0  0  0  0  0  0  0  0  0
    0.1921   -4.0143    1.9466 C   0  0  0  0  0  0  0  0  0  0  0  0
   -0.9969   -0.9532   -2.7234 C   0  0  0  0  0  0  0  0  0  0  0  0
   -3.0643   -1.7934   -1.0508 C   0  0  0  0  0  0  0  0  0  0  0  0
   -2.3185   -0.6257   -3.0277 C   0  0  0  0  0  0  0  0  0  0  0  0
   -3.3502   -1.0450   -2.1930 C   0  0  0  0  0  0  0  0  0  0  0  0
   -1.9930    3.6367   -1.6723 H   0  0  0  0  0  0  0  0  0  0  0  0
    0.1301    2.7518   -2.0775 H   0  0  0  0  0  0  0  0  0  0  0  0
    0.3616    4.4852   -1.9417 H   0  0  0  0  0  0  0  0  0  0  0  0
    4.6788    2.9858   -0.6482 H   0  0  0  0  0  0  0  0  0  0  0  0
    1.0212    2.3861    0.2023 H   0  0  0  0  0  0  0  0  0  0  0  0
    1.1877    4.1286    0.4331 H   0  0  0  0  0  0  0  0  0  0  0  0
    2.5814    2.5190   -1.7719 H   0  0  0  0  0  0  0  0  0  0  0  0
    2.7867    4.2353   -1.4741 H   0  0  0  0  0  0  0  0  0  0  0  0
   -1.1588    1.6434   -0.1993 H   0  0  0  0  0  0  0  0  0  0  0  0
   -1.2217    2.7736    1.1482 H   0  0  0  0  0  0  0  0  0  0  0  0
    3.2158    0.8985   -0.1584 H   0  0  0  0  0  0  0  0  0  0  0  0
    2.9432    1.5920    1.4306 H   0  0  0  0  0  0  0  0  0  0  0  0
   -3.6492    3.1365    0.6222 H   0  0  0  0  0  0  0  0  0  0  0  0
   -3.5493    1.9284   -0.6535 H   0  0  0  0  0  0  0  0  0  0  0  0
   -2.9538    1.3838    2.3001 H   0  0  0  0  0  0  0  0  0  0  0  0
   -2.9024    0.1916    1.0170 H   0  0  0  0  0  0  0  0  0  0  0  0
   -2.6106    5.2013    0.1203 H   0  0  0  0  0  0  0  0  0  0  0  0
   -1.3297    5.8875   -0.8838 H   0  0  0  0  0  0  0  0  0  0  0  0
   -0.9448    5.2314    0.7164 H   0  0  0  0  0  0  0  0  0  0  0  0
    5.4384    1.6057    1.8093 H   0  0  0  0  0  0  0  0  0  0  0  0
    5.6691    0.8613    0.2397 H   0  0  0  0  0  0  0  0  0  0  0  0
    3.1105    4.0458    1.7596 H   0  0  0  0  0  0  0  0  0  0  0  0
    4.8649    3.9214    1.5966 H   0  0  0  0  0  0  0  0  0  0  0  0
    3.9693    5.0524    0.5780 H   0  0  0  0  0  0  0  0  0  0  0  0
   -5.3504    0.5406    0.5858 H   0  0  0  0  0  0  0  0  0  0  0  0
    5.7568   -0.8067    2.0824 H   0  0  0  0  0  0  0  0  0  0  0  0
    4.1697   -0.3087    2.6512 H   0  0  0  0  0  0  0  0  0  0  0  0
   -5.1051    2.4996    2.9344 H   0  0  0  0  0  0  0  0  0  0  0  0
   -6.6442    1.8600    2.3409 H   0  0  0  0  0  0  0  0  0  0  0  0
   -5.6623    2.8568    1.2846 H   0  0  0  0  0  0  0  0  0  0  0  0
   -4.7521   -0.0988    3.5200 H   0  0  0  0  0  0  0  0  0  0  0  0
   -4.6698   -1.2462    2.1726 H   0  0  0  0  0  0  0  0  0  0  0  0
   -6.2239   -0.5345    2.6309 H   0  0  0  0  0  0  0  0  0  0  0  0
    2.5218   -1.8970    2.0214 H   0  0  0  0  0  0  0  0  0  0  0  0
    4.8428   -2.7286   -0.8078 H   0  0  0  0  0  0  0  0  0  0  0  0
    4.5689   -1.0256   -1.2552 H   0  0  0  0  0  0  0  0  0  0  0  0
    5.9850   -1.5173   -0.3103 H   0  0  0  0  0  0  0  0  0  0  0  0
    2.4102   -4.1131    0.7242 H   0  0  0  0  0  0  0  0  0  0  0  0
    2.8808   -3.3283   -0.7259 H   0  0  0  0  0  0  0  0  0  0  0  0
    0.9329   -3.5159    2.5782 H   0  0  0  0  0  0  0  0  0  0  0  0
   -0.6835   -4.1660    2.5856 H   0  0  0  0  0  0  0  0  0  0  0  0
    0.5546   -5.0099    1.6698 H   0  0  0  0  0  0  0  0  0  0  0  0
   -0.2338   -0.6125   -3.4175 H   0  0  0  0  0  0  0  0  0  0  0  0
   -3.9075   -2.0771   -0.4275 H   0  0  0  0  0  0  0  0  0  0  0  0
   -2.5426   -0.0441   -3.9172 H   0  0  0  0  0  0  0  0  0  0  0  0
    1.4645   -0.7844   -2.4554 H   0  0  0  0  0  0  0  0  0  0  0  0
   -4.3782   -0.7849   -2.4278 H   0  0  0  0  0  0  0  0  0  0  0  0
   -3.2411   -3.4741    0.7520 H   0  0  0  0  0  0  0  0  0  0  0  0
  1 25  1  0  0  0  0
  1 79  1  0  0  0  0
  2 28  1  0  0  0  0
  2 81  1  0  0  0  0
  3  4  1  0  0  0  0
  3  8  1  0  0  0  0
  3 12  1  0  0  0  0
  3 34  1  0  0  0  0
  4  6  1  0  0  0  0
  4 35  1  0  0  0  0
  4 36  1  0  0  0  0
  5  7  1  0  0  0  0
  5  9  1  0  0  0  0
  5 14  1  0  0  0  0
  5 37  1  0  0  0  0
  6  7  1  0  0  0  0
  6 38  1  0  0  0  0
  6 39  1  0  0  0  0
  7 40  1  0  0  0  0
  7 41  1  0  0  0  0
  8 10  1  0  0  0  0
  8 42  1  0  0  0  0
  8 43  1  0  0  0  0
  9 13  1  0  0  0  0
  9 44  1  0  0  0  0
  9 45  1  0  0  0  0
 10 11  1  0  0  0  0
 10 46  1  0  0  0  0
 10 47  1  0  0  0  0
 11 15  1  0  0  0  0
 11 48  1  0  0  0  0
 11 49  1  0  0  0  0
 12 50  1  0  0  0  0
 12 51  1  0  0  0  0
 12 52  1  0  0  0  0
 13 16  1  0  0  0  0
 13 53  1  0  0  0  0
 13 54  1  0  0  0  0
 14 55  1  0  0  0  0
 14 56  1  0  0  0  0
 14 57  1  0  0  0  0
 15 17  1  0  0  0  0
 15 18  1  0  0  0  0
 15 58  1  0  0  0  0
 16 19  1  0  0  0  0
 16 59  1  0  0  0  0
 16 60  1  0  0  0  0
 17 61  1  0  0  0  0
 17 62  1  0  0  0  0
 17 63  1  0  0  0  0
 18 64  1  0  0  0  0
 18 65  1  0  0  0  0
 18 66  1  0  0  0  0
 19 20  2  0  0  0  0
 19 21  1  0  0  0  0
 20 22  1  0  0  0  0
 20 67  1  0  0  0  0
 21 68  1  0  0  0  0
 21 69  1  0  0  0  0
 21 70  1  0  0  0  0
 22 23  1  0  0  0  0
 22 71  1  0  0  0  0
 22 72  1  0  0  0  0
 23 24  1  0  0  0  0
 23 25  2  0  0  0  0
 24 28  2  0  0  0  0
 24 29  1  0  0  0  0
 25 26  1  0  0  0  0
 26 27  1  0  0  0  0
 26 30  2  0  0  0  0
 27 28  1  0  0  0  0
 27 31  2  0  0  0  0
 29 73  1  0  0  0  0
 29 74  1  0  0  0  0
 29 75  1  0  0  0  0
 30 32  1  0  0  0  0
 30 76  1  0  0  0  0
 31 33  1  0  0  0  0
 31 77  1  0  0  0  0
 32 33  2  0  0  0  0
 32 78  1  0  0  0  0
 33 80  1  0  0  0  0
M  END
> <PUBCHEM_COMPOUND_CID>
5280585

> <PUBCHEM_CONFORMER_RMSD>
1.6

> <PUBCHEM_CONFORMER_DIVERSEORDER>
8
62
130
107
95
19
36
108
4
60
50
63
1
76
70
38
58
31
82
91
6
5
14
16
120
44
106
117
85
37
35
103
72
92
41
93
68
9
47
115
84
66
32
71
27
79
53
59
74
119
98
118
22
57
114
87
94
30
110
109
96
73
102
67
24
51
112
126
65
113
86
124
90
26
17
23
129
97
80
77
100
18
12
83
21
56
45
33
69
105
43
39
101
13
127
81
28
88
55
122
125
49
20
89
111
2
128
75
7
131
42
61
3
99
40
123
78
34
121
25
104
64
54
116
46
29
52
10
15
11
48

> <PUBCHEM_MMFF94_PARTIAL_CHARGES>
23
1 -0.53
16 0.14
19 -0.28
2 -0.53
20 -0.29
21 0.14
22 0.28
23 -0.14
24 -0.14
25 0.08
28 0.08
29 0.14
30 -0.15
31 -0.15
32 -0.15
33 -0.15
67 0.15
76 0.15
77 0.15
78 0.15
79 0.45
80 0.15
81 0.45

> <PUBCHEM_EFFECTIVE_ROTOR_COUNT>
14

> <PUBCHEM_PHARMACOPHORE_FEATURES>
8
1 1 donor
1 12 hydrophobe
1 14 hydrophobe
1 2 donor
1 21 hydrophobe
3 15 17 18 hydrophobe
6 23 24 25 26 27 28 rings
6 26 27 30 31 32 33 rings

> <PUBCHEM_HEAVY_ATOM_COUNT>
33

> <PUBCHEM_ATOM_DEF_STEREO_COUNT>
2

> <PUBCHEM_ATOM_UDEF_STEREO_COUNT>
0

> <PUBCHEM_BOND_DEF_STEREO_COUNT>
1

> <PUBCHEM_BOND_UDEF_STEREO_COUNT>
0

> <PUBCHEM_ISOTOPIC_ATOM_COUNT>
0

> <PUBCHEM_COMPONENT_COUNT>
1

> <PUBCHEM_CACTVS_TAUTO_COUNT>
52

> <PUBCHEM_CONFORMER_ID>
0050934900000008

> <PUBCHEM_MMFF94_ENERGY>
71.6629

> <PUBCHEM_FEATURE_SELFOVERLAP>
40.621

> <PUBCHEM_SHAPE_FINGERPRINT>
10032420 55 17697566112487722917
12156800 1 17475749257868049757
12422481 6 18260822735132326649
12788726 201 18266484065212450332
13122387 1 18266479761470636076
13583140 156 17693097778916090379
1361 2 17545068324813450589
14950920 106 17270885279121324467
15264996 74 17609258775778471924
15274700 242 17910678666390898520
16112460 7 18262522494231141424
16120349 306 18189894223614647729
20764821 26 18341898463379907252
21133410 38 18186809040956863424
3493558 16 18265039254940583491
373842 8 18340197476253301779
392239 28 18342460378441785427
469060 322 18268452267807917155
5081480 168 18045197390357206750
5309563 4 17039242476301419852

> <PUBCHEM_SHAPE_MULTIPOLES>
667.39
10.03
7.08
2.52
0.99
4.98
-0.78
3.7
6.97
1.73
0.48
-2.78
-1.03
-1.13

> <PUBCHEM_SHAPE_SELFOVERLAP>
1348.753

> <PUBCHEM_SHAPE_VOLUME>
393.2

> <PUBCHEM_COORDINATE_TYPE>
2
5
10

$$$$

