90301
  -OEChem-07051212472D

 15 15  0     0  0  0  0  0  0999 V2000
    2.8660   -1.3450    0.0000 O   0  0  0  0  0  0  0  0  0  0  0  0
    6.3301   -1.3450    0.0000 O   0  0  0  0  0  0  0  0  0  0  0  0
    2.8660    1.6550    0.0000 O   0  0  0  0  0  0  0  0  0  0  0  0
    2.0000    0.1550    0.0000 O   0  0  0  0  0  0  0  0  0  0  0  0
    4.5981   -1.3450    0.0000 N   0  0  0  0  0  0  0  0  0  0  0  0
    5.4641    0.1550    0.0000 N   0  0  0  0  0  0  0  0  0  0  0  0
    3.7320    0.1550    0.0000 C   0  0  0  0  0  0  0  0  0  0  0  0
    3.7320   -0.8450    0.0000 C   0  0  0  0  0  0  0  0  0  0  0  0
    4.5981    0.6550    0.0000 C   0  0  0  0  0  0  0  0  0  0  0  0
    5.4641   -0.8450    0.0000 C   0  0  0  0  0  0  0  0  0  0  0  0
    2.8660    0.6550    0.0000 C   0  0  0  0  0  0  0  0  0  0  0  0
    4.5981    1.2750    0.0000 H   0  0  0  0  0  0  0  0  0  0  0  0
    4.5981   -1.9650    0.0000 H   0  0  0  0  0  0  0  0  0  0  0  0
    6.0010    0.4650    0.0000 H   0  0  0  0  0  0  0  0  0  0  0  0
    2.3291    1.9650    0.0000 H   0  0  0  0  0  0  0  0  0  0  0  0
  1  8  2  0  0  0  0
  2 10  2  0  0  0  0
  3 11  1  0  0  0  0
  3 15  1  0  0  0  0
  4 11  2  0  0  0  0
  5  8  1  0  0  0  0
  5 10  1  0  0  0  0
  5 13  1  0  0  0  0
  6  9  1  0  0  0  0
  6 10  1  0  0  0  0
  6 14  1  0  0  0  0
  7  8  1  0  0  0  0
  7  9  2  0  0  0  0
  7 11  1  0  0  0  0
  9 12  1  0  0  0  0
M  END
> <PUBCHEM_COMPOUND_CID>
90301

> <PUBCHEM_COMPOUND_CANONICALIZED>
1

> <PUBCHEM_CACTVS_COMPLEXITY>
268

> <PUBCHEM_CACTVS_HBOND_ACCEPTOR>
4

> <PUBCHEM_CACTVS_HBOND_DONOR>
3

> <PUBCHEM_CACTVS_ROTATABLE_BOND>
1

> <PUBCHEM_CACTVS_SUBSKEYS>
AAADcYBjOAAAAAAAAAAAAAAAAAAAAAAAAAAgAAAAAAAAAAAAAAAAHgAQCAAADADBgAQBCALAAgCIAgHWWACAAAAAAAAAAIEIAECABAwIAAAEQAAKJyIAEMAAAAAAAAAAAAAAAAAAAAAAAAAAAAAAAAAAAA==

> <PUBCHEM_IUPAC_OPENEYE_NAME>
2,4-dioxo-1H-pyrimidine-5-carboxylic acid

> <PUBCHEM_IUPAC_CAS_NAME>
2,4-dioxo-1H-pyrimidine-5-carboxylic acid

> <PUBCHEM_IUPAC_NAME>
2,4-dioxo-1H-pyrimidine-5-carboxylic acid

> <PUBCHEM_IUPAC_SYSTEMATIC_NAME>
2,4-bis(oxidanylidene)-1H-pyrimidine-5-carboxylic acid

> <PUBCHEM_IUPAC_TRADITIONAL_NAME>
2,4-diketo-1H-pyrimidine-5-carboxylic acid

> <PUBCHEM_IUPAC_INCHI>
InChI=1S/C5H4N2O4/c8-3-2(4(9)10)1-6-5(11)7-3/h1H,(H,9,10)(H2,6,7,8,11)

> <PUBCHEM_IUPAC_INCHIKEY>
ZXYAAVBXHKCJJB-UHFFFAOYSA-N

> <PUBCHEM_XLOGP3_AA>
-0.7

> <PUBCHEM_EXACT_MASS>
156.017107

> <PUBCHEM_MOLECULAR_FORMULA>
C5H4N2O4

> <PUBCHEM_MOLECULAR_WEIGHT>
156.09626

> <PUBCHEM_OPENEYE_CAN_SMILES>
C1=C(C(=O)NC(=O)N1)C(=O)O

> <PUBCHEM_OPENEYE_ISO_SMILES>
C1=C(C(=O)NC(=O)N1)C(=O)O

> <PUBCHEM_CACTVS_TPSA>
95.5

> <PUBCHEM_MONOISOTOPIC_WEIGHT>
156.017107

> <PUBCHEM_TOTAL_CHARGE>
0

> <PUBCHEM_HEAVY_ATOM_COUNT>
11

> <PUBCHEM_ATOM_DEF_STEREO_COUNT>
0

> <PUBCHEM_ATOM_UDEF_STEREO_COUNT>
0

> <PUBCHEM_BOND_DEF_STEREO_COUNT>
0

> <PUBCHEM_BOND_UDEF_STEREO_COUNT>
0

> <PUBCHEM_ISOTOPIC_ATOM_COUNT>
0

> <PUBCHEM_COMPONENT_COUNT>
1

> <PUBCHEM_CACTVS_TAUTO_COUNT>
12

> <PUBCHEM_COORDINATE_TYPE>
1
5
255

> <PUBCHEM_BONDANNOTATIONS>
5  10  8
5  8  8
6  10  8
6  9  8
7  8  8
7  9  8

$$$$

