442741
  -OEChem-07051212593D

 50 53  0     1  0  0  0  0  0999 V2000
    1.5081    3.3139    0.2050 O   0  0  0  0  0  0  0  0  0  0  0  0
   -0.9400    0.6996   -0.2905 O   0  0  0  0  0  0  0  0  0  0  0  0
    0.6577   -1.9703   -0.7455 O   0  0  0  0  0  0  0  0  0  0  0  0
   -0.2566    2.3904   -1.7133 O   0  0  0  0  0  0  0  0  0  0  0  0
    3.6529   -1.2998    1.1156 O   0  0  0  0  0  0  0  0  0  0  0  0
    1.4157   -2.7209    1.2997 O   0  0  0  0  0  0  0  0  0  0  0  0
   -3.6683   -0.7761    0.1310 N   0  0  2  0  0  0  0  0  0  0  0  0
    0.8776    2.0299    0.3448 C   0  0  2  0  0  0  0  0  0  0  0  0
    0.6100    3.1698    1.3089 C   0  0  2  0  0  0  0  0  0  0  0  0
   -2.5270   -1.0909   -0.7797 C   0  0  1  0  0  0  0  0  0  0  0  0
    1.8156    0.9314    0.7956 C   0  0  0  0  0  0  0  0  0  0  0  0
   -1.9577    0.2654   -1.2115 C   0  0  1  0  0  0  0  0  0  0  0  0
    2.5052    0.2102   -0.3930 C   0  0  2  0  0  0  0  0  0  0  0  0
   -3.1751    1.1747   -1.0919 C   0  0  0  0  0  0  0  0  0  0  0  0
   -3.8229    0.6804    0.1931 C   0  0  0  0  0  0  0  0  0  0  0  0
   -0.1632    1.7495   -0.6760 C   0  0  0  0  0  0  0  0  0  0  0  0
   -1.6558   -2.0489   -0.0298 C   0  0  0  0  0  0  0  0  0  0  0  0
   -3.3607   -1.4014    1.4313 C   0  0  0  0  0  0  0  0  0  0  0  0
    2.8317   -1.2699   -0.0506 C   0  0  2  0  0  0  0  0  0  0  0  0
   -0.5809    4.0429    1.3142 C   0  0  0  0  0  0  0  0  0  0  0  0
   -2.1397   -2.2298    1.2033 C   0  0  0  0  0  0  0  0  0  0  0  0
   -0.5210   -2.7883   -0.6515 C   0  0  0  0  0  0  0  0  0  0  0  0
    3.7531    1.0060   -0.8084 C   0  0  0  0  0  0  0  0  0  0  0  0
    1.5651   -2.0684    0.2733 C   0  0  0  0  0  0  0  0  0  0  0  0
    3.5762   -1.9995   -1.1743 C   0  0  0  0  0  0  0  0  0  0  0  0
    1.0423    3.0988    2.3008 H   0  0  0  0  0  0  0  0  0  0  0  0
   -2.9588   -1.5939   -1.6548 H   0  0  0  0  0  0  0  0  0  0  0  0
    1.2112    0.2283    1.3799 H   0  0  0  0  0  0  0  0  0  0  0  0
    2.5718    1.3229    1.4884 H   0  0  0  0  0  0  0  0  0  0  0  0
   -1.5543    0.2261   -2.2297 H   0  0  0  0  0  0  0  0  0  0  0  0
    1.8343    0.2103   -1.2607 H   0  0  0  0  0  0  0  0  0  0  0  0
   -3.8502    1.0243   -1.9429 H   0  0  0  0  0  0  0  0  0  0  0  0
   -2.9238    2.2368   -1.0216 H   0  0  0  0  0  0  0  0  0  0  0  0
   -3.3011    1.1245    1.0500 H   0  0  0  0  0  0  0  0  0  0  0  0
   -4.8778    0.9648    0.2506 H   0  0  0  0  0  0  0  0  0  0  0  0
   -4.1990   -2.0367    1.7345 H   0  0  0  0  0  0  0  0  0  0  0  0
   -3.1686   -0.6790    2.2323 H   0  0  0  0  0  0  0  0  0  0  0  0
   -0.9270    4.2835    0.3042 H   0  0  0  0  0  0  0  0  0  0  0  0
   -0.3565    4.9866    1.8215 H   0  0  0  0  0  0  0  0  0  0  0  0
   -1.4031    3.5578    1.8492 H   0  0  0  0  0  0  0  0  0  0  0  0
   -1.7239   -2.9025    1.9394 H   0  0  0  0  0  0  0  0  0  0  0  0
   -0.3038   -3.7192   -0.1135 H   0  0  0  0  0  0  0  0  0  0  0  0
   -0.7903   -3.0856   -1.6710 H   0  0  0  0  0  0  0  0  0  0  0  0
    4.5132    1.0023   -0.0203 H   0  0  0  0  0  0  0  0  0  0  0  0
    4.2020    0.5946   -1.7175 H   0  0  0  0  0  0  0  0  0  0  0  0
    3.5004    2.0482   -1.0274 H   0  0  0  0  0  0  0  0  0  0  0  0
    4.6042   -1.6365   -1.2774 H   0  0  0  0  0  0  0  0  0  0  0  0
    3.6541   -3.0719   -0.9572 H   0  0  0  0  0  0  0  0  0  0  0  0
    3.0625   -1.8932   -2.1355 H   0  0  0  0  0  0  0  0  0  0  0  0
    3.9273   -2.2199    1.2703 H   0  0  0  0  0  0  0  0  0  0  0  0
  1  8  1  0  0  0  0
  1  9  1  0  0  0  0
  2 12  1  0  0  0  0
  2 16  1  0  0  0  0
  3 22  1  0  0  0  0
  3 24  1  0  0  0  0
  4 16  2  0  0  0  0
  5 19  1  0  0  0  0
  5 50  1  0  0  0  0
  6 24  2  0  0  0  0
  7 10  1  0  0  0  0
  7 15  1  0  0  0  0
  7 18  1  0  0  0  0
  8  9  1  0  0  0  0
  8 11  1  0  0  0  0
  8 16  1  0  0  0  0
  9 20  1  0  0  0  0
  9 26  1  0  0  0  0
 10 12  1  0  0  0  0
 10 17  1  0  0  0  0
 10 27  1  0  0  0  0
 11 13  1  0  0  0  0
 11 28  1  0  0  0  0
 11 29  1  0  0  0  0
 12 14  1  0  0  0  0
 12 30  1  0  0  0  0
 13 19  1  0  0  0  0
 13 23  1  0  0  0  0
 13 31  1  0  0  0  0
 14 15  1  0  0  0  0
 14 32  1  0  0  0  0
 14 33  1  0  0  0  0
 15 34  1  0  0  0  0
 15 35  1  0  0  0  0
 17 21  2  0  0  0  0
 17 22  1  0  0  0  0
 18 21  1  0  0  0  0
 18 36  1  0  0  0  0
 18 37  1  0  0  0  0
 19 24  1  0  0  0  0
 19 25  1  0  0  0  0
 20 38  1  0  0  0  0
 20 39  1  0  0  0  0
 20 40  1  0  0  0  0
 21 41  1  0  0  0  0
 22 42  1  0  0  0  0
 22 43  1  0  0  0  0
 23 44  1  0  0  0  0
 23 45  1  0  0  0  0
 23 46  1  0  0  0  0
 25 47  1  0  0  0  0
 25 48  1  0  0  0  0
 25 49  1  0  0  0  0
M  END
> <PUBCHEM_COMPOUND_CID>
442741

> <PUBCHEM_CONFORMER_RMSD>
0.6

> <PUBCHEM_CONFORMER_DIVERSEORDER>
1
5
4
2
3

> <PUBCHEM_MMFF94_PARTIAL_CHARGES>
24
1 -0.3
10 0.41
11 0.09
12 0.28
15 0.27
16 0.72
17 -0.28
18 0.41
19 0.34
2 -0.43
20 0.09
21 -0.29
22 0.42
24 0.66
26 0.1
3 -0.43
4 -0.57
41 0.15
5 -0.68
50 0.4
6 -0.57
7 -0.81
8 0.05
9 -0.05

> <PUBCHEM_EFFECTIVE_ROTOR_COUNT>
2.2

> <PUBCHEM_PHARMACOPHORE_FEATURES>
8
1 1 acceptor
1 4 acceptor
1 5 acceptor
1 5 donor
1 6 acceptor
1 7 cation
5 7 10 12 14 15 rings
5 7 10 17 18 21 rings

> <PUBCHEM_HEAVY_ATOM_COUNT>
25

> <PUBCHEM_ATOM_DEF_STEREO_COUNT>
6

> <PUBCHEM_ATOM_UDEF_STEREO_COUNT>
0

> <PUBCHEM_BOND_DEF_STEREO_COUNT>
0

> <PUBCHEM_BOND_UDEF_STEREO_COUNT>
0

> <PUBCHEM_ISOTOPIC_ATOM_COUNT>
0

> <PUBCHEM_COMPONENT_COUNT>
1

> <PUBCHEM_CACTVS_TAUTO_COUNT>
1

> <PUBCHEM_CONFORMER_ID>
0006C17500000001

> <PUBCHEM_MMFF94_ENERGY>
55.0809

> <PUBCHEM_FEATURE_SELFOVERLAP>
40.929

> <PUBCHEM_SHAPE_FINGERPRINT>
10006869 2 17472420332397515233
10366900 7 18128817430712397843
104564 63 18046621476045735506
10675989 125 17475817809899915036
10759866 29 17845929732226835438
1100329 8 16535384722599256070
11112241 14 16952830337092745328
11370993 70 17397556303121638777
11578080 2 15941520724215550083
12011746 2 18341894074118782815
12156800 1 16824951890162551687
12506688 2 18410856559914414468
12553582 1 18334576849715534580
12596599 1 17385729062457418167
12633257 1 18341043065035460803
12788726 201 18046347710477571952
128993 33 18050846615773915209
13027679 85 18337110163345310965
13140716 1 18411423925099549578
13533116 47 18191303780947611811
14178342 30 17689722952518010561
14223421 5 17978229353269507371
14713325 29 15972412135233038124
14955137 171 18190714545341191107
16945 1 18117563929064642190
17138139 8 17109075693559655677
19591789 44 17906733601252555316
19930381 70 17902799561707042883
20691752 17 17626109637577453423
20905425 154 18413389843025706974
21041028 32 18336534001850713770
2334 1 18339928121278855918
23558518 356 17544192039778103207
23559900 14 18055356838773892157
238 59 18048067123477770687
2748010 2 18054804883430216565
350125 39 17905601108259579395
35225 105 16736347797088511009
3524813 1 18343586230781864279
392239 28 18335434439364001224
5312544 6 16680349824684562333
5939293 188 18335987475920894946
6287921 2 17764292960442335859
6438718 38 17390798017341058541
7226269 152 18337953382048924784
81228 2 18047192144129461752

> <PUBCHEM_SHAPE_MULTIPOLES>
474.29
6.06
4.47
1.4
0.27
2.85
-0.06
-2.31
0.22
-1.04
-1.3
0.23
0.19
0.61

> <PUBCHEM_SHAPE_SELFOVERLAP>
1009.48

> <PUBCHEM_SHAPE_VOLUME>
265.9

> <PUBCHEM_COORDINATE_TYPE>
2
5
10

$$$$

