13140
  -OEChem-06261207483D

  8  7  0     0  0  0  0  0  0999 V2000
    1.9700    0.7074    0.0001 Cl  0  0  0  0  0  0  0  0  0  0  0  0
    0.3568   -1.3848    0.0000 O   0  0  0  0  0  0  0  0  0  0  0  0
   -0.7776    0.6914   -0.0001 C   0  0  0  0  0  0  0  0  0  0  0  0
    0.4479   -0.1595   -0.0002 C   0  0  0  0  0  0  0  0  0  0  0  0
   -1.9971    0.1454    0.0001 C   0  0  0  0  0  0  0  0  0  0  0  0
   -0.6561    1.7688   -0.0001 H   0  0  0  0  0  0  0  0  0  0  0  0
   -2.8759    0.7818    0.0002 H   0  0  0  0  0  0  0  0  0  0  0  0
   -2.1575   -0.9269    0.0002 H   0  0  0  0  0  0  0  0  0  0  0  0
  1  4  1  0  0  0  0
  2  4  2  0  0  0  0
  3  4  1  0  0  0  0
  3  5  2  0  0  0  0
  3  6  1  0  0  0  0
  5  7  1  0  0  0  0
  5  8  1  0  0  0  0
M  END
> <PUBCHEM_COMPOUND_CID>
13140

> <PUBCHEM_CONFORMER_RMSD>
0.4

> <PUBCHEM_CONFORMER_DIVERSEORDER>
1
3
2

> <PUBCHEM_MMFF94_PARTIAL_CHARGES>
8
1 -0.21
2 -0.57
3 -0.14
4 0.76
5 -0.3
6 0.15
7 0.15
8 0.15

> <PUBCHEM_EFFECTIVE_ROTOR_COUNT>
1

> <PUBCHEM_PHARMACOPHORE_FEATURES>
1
1 5 hydrophobe

> <PUBCHEM_HEAVY_ATOM_COUNT>
5

> <PUBCHEM_ATOM_DEF_STEREO_COUNT>
0

> <PUBCHEM_ATOM_UDEF_STEREO_COUNT>
0

> <PUBCHEM_BOND_DEF_STEREO_COUNT>
0

> <PUBCHEM_BOND_UDEF_STEREO_COUNT>
0

> <PUBCHEM_ISOTOPIC_ATOM_COUNT>
0

> <PUBCHEM_COMPONENT_COUNT>
1

> <PUBCHEM_CACTVS_TAUTO_COUNT>
1

> <PUBCHEM_CONFORMER_ID>
0000335400000001

> <PUBCHEM_MMFF94_ENERGY>
5.834

> <PUBCHEM_FEATURE_SELFOVERLAP>
5.074

> <PUBCHEM_SHAPE_FINGERPRINT>
139733 1 9221214245427865603
16714656 1 18340201873893701876
20096714 4 18409730651348948568
21015797 1 9654990269898382313
21040471 1 18410855421658202368
29004967 10 18201146724418082289
5460574 1 9295296040230156321
5943 1 10540362993144813798

> <PUBCHEM_SHAPE_MULTIPOLES>
98.9
2.51
1.1
0.61
0.02
0.32
0
-0.66
0
0.17
0
0.01
-0.03
0

> <PUBCHEM_SHAPE_SELFOVERLAP>
169.047

> <PUBCHEM_SHAPE_VOLUME>
66.1

> <PUBCHEM_COORDINATE_TYPE>
2
5
10

$$$$

