586306
  -OEChem-06241222462D

 27 28  0     0  0  0  0  0  0999 V2000
    2.8660   -1.3343    0.0000 S   0  0  0  0  0  0  0  0  0  0  0  0
    2.0000    2.1657    0.0000 F   0  0  0  0  0  0  0  0  0  0  0  0
    5.4920    0.1310    0.0000 O   0  0  0  0  0  0  0  0  0  0  0  0
    6.3981    1.6865    0.0000 O   0  0  0  0  0  0  0  0  0  0  0  0
    3.3660   -2.2003    0.0000 O   0  0  0  0  0  0  0  0  0  0  0  0
    2.3660   -0.4683    0.0000 O   0  0  0  0  0  0  0  0  0  0  0  0
    3.7320    0.1657    0.0000 C   0  0  0  0  0  0  0  0  0  0  0  0
    3.7320   -0.8343    0.0000 C   0  0  0  0  0  0  0  0  0  0  0  0
    4.5981    0.6657    0.0000 C   0  0  0  0  0  0  0  0  0  0  0  0
    4.5981    1.6657    0.0000 C   0  0  0  0  0  0  0  0  0  0  0  0
    5.4920    2.2003    0.0000 C   0  0  0  0  0  0  0  0  0  0  0  0
    2.8660    0.6657    0.0000 C   0  0  0  0  0  0  0  0  0  0  0  0
    3.7320    2.1657    0.0000 C   0  0  0  0  0  0  0  0  0  0  0  0
    2.8660    1.6657    0.0000 C   0  0  0  0  0  0  0  0  0  0  0  0
    6.3981    0.6449    0.0000 C   0  0  0  0  0  0  0  0  0  0  0  0
    2.0000   -1.8343    0.0000 C   0  0  0  0  0  0  0  0  0  0  0  0
    3.9441   -1.4169    0.0000 H   0  0  0  0  0  0  0  0  0  0  0  0
    4.3426   -0.7267    0.0000 H   0  0  0  0  0  0  0  0  0  0  0  0
    5.8856    2.6794    0.0000 H   0  0  0  0  0  0  0  0  0  0  0  0
    5.0874    2.6701    0.0000 H   0  0  0  0  0  0  0  0  0  0  0  0
    2.3291    0.3557    0.0000 H   0  0  0  0  0  0  0  0  0  0  0  0
    3.7320    2.7857    0.0000 H   0  0  0  0  0  0  0  0  0  0  0  0
    6.6071    0.0612    0.0000 H   0  0  0  0  0  0  0  0  0  0  0  0
    7.0089    0.7510    0.0000 H   0  0  0  0  0  0  0  0  0  0  0  0
    1.6900   -1.2974    0.0000 H   0  0  0  0  0  0  0  0  0  0  0  0
    1.4631   -2.1443    0.0000 H   0  0  0  0  0  0  0  0  0  0  0  0
    2.3100   -2.3712    0.0000 H   0  0  0  0  0  0  0  0  0  0  0  0
  1  5  2  0  0  0  0
  1  6  2  0  0  0  0
  1  8  1  0  0  0  0
  1 16  1  0  0  0  0
  2 14  1  0  0  0  0
  3  9  1  0  0  0  0
  3 15  1  0  0  0  0
  4 11  1  0  0  0  0
  4 15  1  0  0  0  0
  7  8  1  0  0  0  0
  7  9  1  0  0  0  0
  7 12  2  0  0  0  0
  8 17  1  0  0  0  0
  8 18  1  0  0  0  0
  9 10  2  0  0  0  0
 10 11  1  0  0  0  0
 10 13  1  0  0  0  0
 11 19  1  0  0  0  0
 11 20  1  0  0  0  0
 12 14  1  0  0  0  0
 12 21  1  0  0  0  0
 13 14  2  0  0  0  0
 13 22  1  0  0  0  0
 15 23  1  0  0  0  0
 15 24  1  0  0  0  0
 16 25  1  0  0  0  0
 16 26  1  0  0  0  0
 16 27  1  0  0  0  0
M  END
> <PUBCHEM_COMPOUND_CID>
586306

> <PUBCHEM_COMPOUND_CANONICALIZED>
1

> <PUBCHEM_CACTVS_COMPLEXITY>
337

> <PUBCHEM_CACTVS_HBOND_ACCEPTOR>
5

> <PUBCHEM_CACTVS_HBOND_DONOR>
0

> <PUBCHEM_CACTVS_ROTATABLE_BOND>
2

> <PUBCHEM_CACTVS_SUBSKEYS>
AAADccBwOQBAAAAAAAAAAAAAAAAAAAAAAAA0QAAAAAAAAACRAAAAGwQAAAAADASk2AuyDoAABAqAAiBCAHBCCAAgIBAAiAAECIgcJyKkMRqgMCAlwBEMqAeAwGAOAAACAAAIAAAAAAQAABAAAAAAAAAAAA==

> <PUBCHEM_IUPAC_OPENEYE_NAME>
6-fluoro-8-(methylsulfonylmethyl)-4H-1,3-benzodioxine

> <PUBCHEM_IUPAC_CAS_NAME>
6-fluoro-8-(methylsulfonylmethyl)-4H-1,3-benzodioxin

> <PUBCHEM_IUPAC_NAME>
6-fluoro-8-(methylsulfonylmethyl)-4H-1,3-benzodioxine

> <PUBCHEM_IUPAC_SYSTEMATIC_NAME>
6-fluoranyl-8-(methylsulfonylmethyl)-4H-1,3-benzodioxine

> <PUBCHEM_IUPAC_TRADITIONAL_NAME>
6-fluoro-8-(mesylmethyl)-4H-1,3-benzodioxin

> <PUBCHEM_IUPAC_INCHI>
InChI=1S/C10H11FO4S/c1-16(12,13)5-8-3-9(11)2-7-4-14-6-15-10(7)8/h2-3H,4-6H2,1H3

> <PUBCHEM_IUPAC_INCHIKEY>
OIPNTWFUNWPPTA-UHFFFAOYSA-N

> <PUBCHEM_XLOGP3_AA>
0.7

> <PUBCHEM_EXACT_MASS>
246.036208

> <PUBCHEM_MOLECULAR_FORMULA>
C10H11FO4S

> <PUBCHEM_MOLECULAR_WEIGHT>
246.255343

> <PUBCHEM_OPENEYE_CAN_SMILES>
CS(=O)(=O)CC1=C2C(=CC(=C1)F)COCO2

> <PUBCHEM_OPENEYE_ISO_SMILES>
CS(=O)(=O)CC1=C2C(=CC(=C1)F)COCO2

> <PUBCHEM_CACTVS_TPSA>
61

> <PUBCHEM_MONOISOTOPIC_WEIGHT>
246.036208

> <PUBCHEM_TOTAL_CHARGE>
0

> <PUBCHEM_HEAVY_ATOM_COUNT>
16

> <PUBCHEM_ATOM_DEF_STEREO_COUNT>
0

> <PUBCHEM_ATOM_UDEF_STEREO_COUNT>
0

> <PUBCHEM_BOND_DEF_STEREO_COUNT>
0

> <PUBCHEM_BOND_UDEF_STEREO_COUNT>
0

> <PUBCHEM_ISOTOPIC_ATOM_COUNT>
0

> <PUBCHEM_COMPONENT_COUNT>
1

> <PUBCHEM_CACTVS_TAUTO_COUNT>
1

> <PUBCHEM_COORDINATE_TYPE>
1
5
255

> <PUBCHEM_BONDANNOTATIONS>
10  13  8
12  14  8
13  14  8
7  12  8
7  9  8
9  10  8

$$$$

