14369
  -OEChem-06241222432D

 27 29  0     0  0  0  0  0  0999 V2000
    9.2619    0.0000    0.0000 Br  0  0  0  0  0  0  0  0  0  0  0  0
    4.9889   -1.7552    0.0000 O   0  0  0  0  0  0  0  0  0  0  0  0
    4.9889    1.7552    0.0000 O   0  0  0  0  0  0  0  0  0  0  0  0
    5.2619    0.0000    0.0000 C   0  0  0  0  0  0  0  0  0  0  0  0
    4.6783    0.8047    0.0000 C   0  0  0  0  0  0  0  0  0  0  0  0
    4.6783   -0.8047    0.0000 C   0  0  0  0  0  0  0  0  0  0  0  0
    3.7320    0.5000    0.0000 C   0  0  0  0  0  0  0  0  0  0  0  0
    3.7320   -0.5000    0.0000 C   0  0  0  0  0  0  0  0  0  0  0  0
    6.2619    0.0000    0.0000 C   0  0  0  0  0  0  0  0  0  0  0  0
    2.8660    1.0000    0.0000 C   0  0  0  0  0  0  0  0  0  0  0  0
    2.8660   -1.0000    0.0000 C   0  0  0  0  0  0  0  0  0  0  0  0
    6.7619   -0.8660    0.0000 C   0  0  0  0  0  0  0  0  0  0  0  0
    6.7619    0.8660    0.0000 C   0  0  0  0  0  0  0  0  0  0  0  0
    2.0000   -0.5000    0.0000 C   0  0  0  0  0  0  0  0  0  0  0  0
    2.0000    0.5000    0.0000 C   0  0  0  0  0  0  0  0  0  0  0  0
    7.7619   -0.8660    0.0000 C   0  0  0  0  0  0  0  0  0  0  0  0
    7.7619    0.8660    0.0000 C   0  0  0  0  0  0  0  0  0  0  0  0
    8.2619    0.0000    0.0000 C   0  0  0  0  0  0  0  0  0  0  0  0
    5.5436   -0.5523    0.0000 H   0  0  0  0  0  0  0  0  0  0  0  0
    2.8660    1.6200    0.0000 H   0  0  0  0  0  0  0  0  0  0  0  0
    2.8660   -1.6200    0.0000 H   0  0  0  0  0  0  0  0  0  0  0  0
    6.4519   -1.4030    0.0000 H   0  0  0  0  0  0  0  0  0  0  0  0
    6.4519    1.4030    0.0000 H   0  0  0  0  0  0  0  0  0  0  0  0
    1.4631    0.8100    0.0000 H   0  0  0  0  0  0  0  0  0  0  0  0
    1.4631   -0.8100    0.0000 H   0  0  0  0  0  0  0  0  0  0  0  0
    8.0719   -1.4030    0.0000 H   0  0  0  0  0  0  0  0  0  0  0  0
    8.0719    1.4030    0.0000 H   0  0  0  0  0  0  0  0  0  0  0  0
  1 18  1  0  0  0  0
  2  6  2  0  0  0  0
  3  5  2  0  0  0  0
  4  5  1  0  0  0  0
  4  6  1  0  0  0  0
  4  9  1  0  0  0  0
  4 19  1  0  0  0  0
  5  7  1  0  0  0  0
  6  8  1  0  0  0  0
  7  8  1  0  0  0  0
  7 10  2  0  0  0  0
  8 11  2  0  0  0  0
  9 12  2  0  0  0  0
  9 13  1  0  0  0  0
 10 15  1  0  0  0  0
 10 20  1  0  0  0  0
 11 14  1  0  0  0  0
 11 21  1  0  0  0  0
 12 16  1  0  0  0  0
 12 22  1  0  0  0  0
 13 17  2  0  0  0  0
 13 23  1  0  0  0  0
 14 15  2  0  0  0  0
 14 25  1  0  0  0  0
 15 24  1  0  0  0  0
 16 18  2  0  0  0  0
 16 26  1  0  0  0  0
 17 18  1  0  0  0  0
 17 27  1  0  0  0  0
M  END
> <PUBCHEM_COMPOUND_CID>
14369

> <PUBCHEM_COMPOUND_CANONICALIZED>
1

> <PUBCHEM_CACTVS_COMPLEXITY>
334

> <PUBCHEM_CACTVS_HBOND_ACCEPTOR>
2

> <PUBCHEM_CACTVS_HBOND_DONOR>
0

> <PUBCHEM_CACTVS_ROTATABLE_BOND>
1

> <PUBCHEM_CACTVS_SUBSKEYS>
AAADccBwMAAAEAAAAAAAAAAAAAAAAYAAAAAwYAAAAAAAAGABQAAAGgBAAAABrQSAmAAwAIAAAACIAqBSAAACAAAkAAQIiAEAAOgIIDKIFRCAIQAggAAIi5cJiMCOggAAAAAQAAAEAAAAACAAAQAACAAAAA==

> <PUBCHEM_IUPAC_OPENEYE_NAME>
2-(4-bromophenyl)indane-1,3-dione

> <PUBCHEM_IUPAC_CAS_NAME>
2-(4-bromophenyl)indene-1,3-dione

> <PUBCHEM_IUPAC_NAME>
2-(4-bromophenyl)indene-1,3-dione

> <PUBCHEM_IUPAC_SYSTEMATIC_NAME>
2-(4-bromophenyl)indene-1,3-dione

> <PUBCHEM_IUPAC_TRADITIONAL_NAME>
2-(4-bromophenyl)indane-1,3-quinone

> <PUBCHEM_IUPAC_INCHI>
InChI=1S/C15H9BrO2/c16-10-7-5-9(6-8-10)13-14(17)11-3-1-2-4-12(11)15(13)18/h1-8,13H

> <PUBCHEM_IUPAC_INCHIKEY>
NPUZIGSOEWMFKK-UHFFFAOYSA-N

> <PUBCHEM_XLOGP3>
3.6

> <PUBCHEM_EXACT_MASS>
299.978592

> <PUBCHEM_MOLECULAR_FORMULA>
C15H9BrO2

> <PUBCHEM_MOLECULAR_WEIGHT>
301.13476

> <PUBCHEM_OPENEYE_CAN_SMILES>
C1=CC=C2C(=C1)C(=O)C(C2=O)C3=CC=C(C=C3)Br

> <PUBCHEM_OPENEYE_ISO_SMILES>
C1=CC=C2C(=C1)C(=O)C(C2=O)C3=CC=C(C=C3)Br

> <PUBCHEM_CACTVS_TPSA>
34.1

> <PUBCHEM_MONOISOTOPIC_WEIGHT>
299.978592

> <PUBCHEM_TOTAL_CHARGE>
0

> <PUBCHEM_HEAVY_ATOM_COUNT>
18

> <PUBCHEM_ATOM_DEF_STEREO_COUNT>
0

> <PUBCHEM_ATOM_UDEF_STEREO_COUNT>
0

> <PUBCHEM_BOND_DEF_STEREO_COUNT>
0

> <PUBCHEM_BOND_UDEF_STEREO_COUNT>
0

> <PUBCHEM_ISOTOPIC_ATOM_COUNT>
0

> <PUBCHEM_COMPONENT_COUNT>
1

> <PUBCHEM_CACTVS_TAUTO_COUNT>
2

> <PUBCHEM_COORDINATE_TYPE>
1
5
255

> <PUBCHEM_BONDANNOTATIONS>
10  15  8
11  14  8
12  16  8
13  17  8
14  15  8
16  18  8
17  18  8
7  10  8
7  8  8
8  11  8
9  12  8
9  13  8

$$$$

