11354
  -OEChem-06261205342D

 32 33  0     0  0  0  0  0  0999 V2000
    2.8660    2.5000    0.0000 F   0  0  0  0  0  0  0  0  0  0  0  0
    6.3301    0.5000    0.0000 F   0  0  0  0  0  0  0  0  0  0  0  0
    2.0000   -2.0000    0.0000 F   0  0  0  0  0  0  0  0  0  0  0  0
    5.4641   -4.0000    0.0000 F   0  0  0  0  0  0  0  0  0  0  0  0
    4.5981    3.5000    0.0000 N   0  0  0  0  0  0  0  0  0  0  0  0
    4.5981   -0.5000    0.0000 N   0  0  0  0  0  0  0  0  0  0  0  0
    3.7320   -1.0000    0.0000 N   0  0  0  0  0  0  0  0  0  0  0  0
    4.5981    2.5000    0.0000 C   0  0  0  0  0  0  0  0  0  0  0  0
    3.7320    2.0000    0.0000 C   0  0  0  0  0  0  0  0  0  0  0  0
    5.4641    2.0000    0.0000 C   0  0  0  0  0  0  0  0  0  0  0  0
    4.5981    0.5000    0.0000 C   0  0  0  0  0  0  0  0  0  0  0  0
    5.4641    1.0000    0.0000 C   0  0  0  0  0  0  0  0  0  0  0  0
    3.7320    1.0000    0.0000 C   0  0  0  0  0  0  0  0  0  0  0  0
    5.4641    4.0000    0.0000 C   0  0  0  0  0  0  0  0  0  0  0  0
    3.7320    4.0000    0.0000 C   0  0  0  0  0  0  0  0  0  0  0  0
    3.7320   -2.0000    0.0000 C   0  0  0  0  0  0  0  0  0  0  0  0
    2.8660   -2.5000    0.0000 C   0  0  0  0  0  0  0  0  0  0  0  0
    4.5981   -2.5000    0.0000 C   0  0  0  0  0  0  0  0  0  0  0  0
    4.5981   -3.5000    0.0000 C   0  0  0  0  0  0  0  0  0  0  0  0
    2.8660   -3.5000    0.0000 C   0  0  0  0  0  0  0  0  0  0  0  0
    3.7320   -4.0000    0.0000 C   0  0  0  0  0  0  0  0  0  0  0  0
    6.0010    2.3100    0.0000 H   0  0  0  0  0  0  0  0  0  0  0  0
    3.1951    0.6900    0.0000 H   0  0  0  0  0  0  0  0  0  0  0  0
    5.7741    3.4631    0.0000 H   0  0  0  0  0  0  0  0  0  0  0  0
    6.0010    4.3100    0.0000 H   0  0  0  0  0  0  0  0  0  0  0  0
    5.1541    4.5369    0.0000 H   0  0  0  0  0  0  0  0  0  0  0  0
    4.0420    4.5369    0.0000 H   0  0  0  0  0  0  0  0  0  0  0  0
    3.1951    4.3100    0.0000 H   0  0  0  0  0  0  0  0  0  0  0  0
    3.4220    3.4631    0.0000 H   0  0  0  0  0  0  0  0  0  0  0  0
    5.1350   -2.1900    0.0000 H   0  0  0  0  0  0  0  0  0  0  0  0
    2.3291   -3.8100    0.0000 H   0  0  0  0  0  0  0  0  0  0  0  0
    3.7320   -4.6200    0.0000 H   0  0  0  0  0  0  0  0  0  0  0  0
  1  9  1  0  0  0  0
  2 12  1  0  0  0  0
  3 17  1  0  0  0  0
  4 19  1  0  0  0  0
  5  8  1  0  0  0  0
  5 14  1  0  0  0  0
  5 15  1  0  0  0  0
  6  7  2  0  0  0  0
  6 11  1  0  0  0  0
  7 16  1  0  0  0  0
  8  9  2  0  0  0  0
  8 10  1  0  0  0  0
  9 13  1  0  0  0  0
 10 12  2  0  0  0  0
 10 22  1  0  0  0  0
 11 12  1  0  0  0  0
 11 13  2  0  0  0  0
 13 23  1  0  0  0  0
 14 24  1  0  0  0  0
 14 25  1  0  0  0  0
 14 26  1  0  0  0  0
 15 27  1  0  0  0  0
 15 28  1  0  0  0  0
 15 29  1  0  0  0  0
 16 17  2  0  0  0  0
 16 18  1  0  0  0  0
 17 20  1  0  0  0  0
 18 19  2  0  0  0  0
 18 30  1  0  0  0  0
 19 21  1  0  0  0  0
 20 21  2  0  0  0  0
 20 31  1  0  0  0  0
 21 32  1  0  0  0  0
M  END
> <PUBCHEM_COMPOUND_CID>
11354

> <PUBCHEM_COMPOUND_CANONICALIZED>
1

> <PUBCHEM_CACTVS_COMPLEXITY>
366

> <PUBCHEM_CACTVS_HBOND_ACCEPTOR>
7

> <PUBCHEM_CACTVS_HBOND_DONOR>
0

> <PUBCHEM_CACTVS_ROTATABLE_BOND>
3

> <PUBCHEM_CACTVS_SUBSKEYS>
AAADccBzAcAAAAAAAAAAAAAAAAAAAAAAAAAwYAAAAAAAAAABQAAAHQAIAAAACAiBEAwywIMAAACCACRCQACCAAAhAgAIiAAIZIgIICLAkZGEIAhggABIyAcQAAAAAACAAAAAAAAAAQAAAAAAAAAAAAAAAA==

> <PUBCHEM_IUPAC_OPENEYE_NAME>
4-(2,5-difluorophenyl)azo-2,5-difluoro-N,N-dimethyl-aniline

> <PUBCHEM_IUPAC_CAS_NAME>
4-(2,5-difluorophenyl)azo-2,5-difluoro-N,N-dimethylaniline

> <PUBCHEM_IUPAC_NAME>
4-[(2,5-difluorophenyl)diazenyl]-2,5-difluoro-N,N-dimethylaniline

> <PUBCHEM_IUPAC_SYSTEMATIC_NAME>
4-[[2,5-bis(fluoranyl)phenyl]diazenyl]-2,5-bis(fluoranyl)-N,N-dimethyl-aniline

> <PUBCHEM_IUPAC_TRADITIONAL_NAME>
[4-(2,5-difluorophenyl)azo-2,5-difluoro-phenyl]-dimethyl-amine

> <PUBCHEM_IUPAC_INCHI>
InChI=1S/C14H11F4N3/c1-21(2)14-7-10(17)13(6-11(14)18)20-19-12-5-8(15)3-4-9(12)16/h3-7H,1-2H3

> <PUBCHEM_IUPAC_INCHIKEY>
HUVXXCRAQSERKY-UHFFFAOYSA-N

> <PUBCHEM_XLOGP3_AA>
4.2

> <PUBCHEM_EXACT_MASS>
297.08891

> <PUBCHEM_MOLECULAR_FORMULA>
C14H11F4N3

> <PUBCHEM_MOLECULAR_WEIGHT>
297.250853

> <PUBCHEM_OPENEYE_CAN_SMILES>
CN(C)C1=C(C=C(C(=C1)F)N=NC2=C(C=CC(=C2)F)F)F

> <PUBCHEM_OPENEYE_ISO_SMILES>
CN(C)C1=C(C=C(C(=C1)F)N=NC2=C(C=CC(=C2)F)F)F

> <PUBCHEM_CACTVS_TPSA>
28

> <PUBCHEM_MONOISOTOPIC_WEIGHT>
297.08891

> <PUBCHEM_TOTAL_CHARGE>
0

> <PUBCHEM_HEAVY_ATOM_COUNT>
21

> <PUBCHEM_ATOM_DEF_STEREO_COUNT>
0

> <PUBCHEM_ATOM_UDEF_STEREO_COUNT>
0

> <PUBCHEM_BOND_DEF_STEREO_COUNT>
0

> <PUBCHEM_BOND_UDEF_STEREO_COUNT>
0

> <PUBCHEM_ISOTOPIC_ATOM_COUNT>
0

> <PUBCHEM_COMPONENT_COUNT>
1

> <PUBCHEM_CACTVS_TAUTO_COUNT>
1

> <PUBCHEM_COORDINATE_TYPE>
1
5
255

> <PUBCHEM_BONDANNOTATIONS>
10  12  8
11  12  8
11  13  8
16  17  8
16  18  8
17  20  8
18  19  8
19  21  8
20  21  8
8  10  8
8  9  8
9  13  8

$$$$

