442240
  -OEChem-07051212573D

 37 39  0     1  0  0  0  0  0999 V2000
   -2.1127   -1.3289    0.5371 O   0  0  0  0  0  0  0  0  0  0  0  0
   -3.7989    0.3722   -1.3860 O   0  0  0  0  0  0  0  0  0  0  0  0
   -3.7908   -0.2147    1.6365 O   0  0  0  0  0  0  0  0  0  0  0  0
    4.6745    1.0088   -0.0543 O   0  0  0  0  0  0  0  0  0  0  0  0
   -1.4295    0.3536   -0.9317 C   0  0  2  0  0  0  0  0  0  0  0  0
    1.0481   -1.0838    0.0643 C   0  0  2  0  0  0  0  0  0  0  0  0
    1.0727    0.3928   -0.4230 C   0  0  1  0  0  0  0  0  0  0  0  0
   -1.4283   -1.1544   -0.7113 C   0  0  1  0  0  0  0  0  0  0  0  0
   -0.2855    1.0765   -0.1954 C   0  0  0  0  0  0  0  0  0  0  0  0
   -0.0585   -1.8317   -0.7151 C   0  0  0  0  0  0  0  0  0  0  0  0
   -2.8233    0.7125   -0.4060 C   0  0  2  0  0  0  0  0  0  0  0  0
    0.8290   -1.2272    1.5867 C   0  0  0  0  0  0  0  0  0  0  0  0
    2.2842    1.1109    0.1335 C   0  0  0  0  0  0  0  0  0  0  0  0
    2.3942   -1.7214   -0.2441 C   0  0  0  0  0  0  0  0  0  0  0  0
   -2.9923   -0.2903    0.7157 C   0  0  0  0  0  0  0  0  0  0  0  0
   -3.0301    2.1538    0.0306 C   0  0  0  0  0  0  0  0  0  0  0  0
    3.5970    0.4238   -0.0800 C   0  0  0  0  0  0  0  0  0  0  0  0
    3.5433   -1.0387   -0.3345 C   0  0  0  0  0  0  0  0  0  0  0  0
    2.3069    2.2865    0.7771 C   0  0  0  0  0  0  0  0  0  0  0  0
   -1.3375    0.5592   -2.0058 H   0  0  0  0  0  0  0  0  0  0  0  0
    1.2208    0.3866   -1.5160 H   0  0  0  0  0  0  0  0  0  0  0  0
   -2.0445   -1.6543   -1.4710 H   0  0  0  0  0  0  0  0  0  0  0  0
   -0.4921    1.1444    0.8788 H   0  0  0  0  0  0  0  0  0  0  0  0
   -0.2456    2.1090   -0.5663 H   0  0  0  0  0  0  0  0  0  0  0  0
   -0.1612   -2.8524   -0.3230 H   0  0  0  0  0  0  0  0  0  0  0  0
    0.2562   -1.9301   -1.7639 H   0  0  0  0  0  0  0  0  0  0  0  0
    0.7842   -2.2838    1.8780 H   0  0  0  0  0  0  0  0  0  0  0  0
    1.6438   -0.7715    2.1615 H   0  0  0  0  0  0  0  0  0  0  0  0
   -0.0979   -0.7609    1.9281 H   0  0  0  0  0  0  0  0  0  0  0  0
    2.4255   -2.8004   -0.3775 H   0  0  0  0  0  0  0  0  0  0  0  0
   -2.8034    2.8424   -0.7906 H   0  0  0  0  0  0  0  0  0  0  0  0
   -4.0765    2.3309    0.3062 H   0  0  0  0  0  0  0  0  0  0  0  0
   -2.4192    2.4228    0.8974 H   0  0  0  0  0  0  0  0  0  0  0  0
    4.4787   -1.5462   -0.5426 H   0  0  0  0  0  0  0  0  0  0  0  0
   -4.6782    0.5690   -1.0201 H   0  0  0  0  0  0  0  0  0  0  0  0
    1.4003    2.8490    0.9699 H   0  0  0  0  0  0  0  0  0  0  0  0
    3.2285    2.7275    1.1431 H   0  0  0  0  0  0  0  0  0  0  0  0
  1  8  1  0  0  0  0
  1 15  1  0  0  0  0
  2 11  1  0  0  0  0
  2 35  1  0  0  0  0
  3 15  2  0  0  0  0
  4 17  2  0  0  0  0
  5  8  1  0  0  0  0
  5  9  1  0  0  0  0
  5 11  1  0  0  0  0
  5 20  1  0  0  0  0
  6  7  1  0  0  0  0
  6 10  1  0  0  0  0
  6 12  1  0  0  0  0
  6 14  1  0  0  0  0
  7  9  1  0  0  0  0
  7 13  1  0  0  0  0
  7 21  1  0  0  0  0
  8 10  1  0  0  0  0
  8 22  1  0  0  0  0
  9 23  1  0  0  0  0
  9 24  1  0  0  0  0
 10 25  1  0  0  0  0
 10 26  1  0  0  0  0
 11 15  1  0  0  0  0
 11 16  1  0  0  0  0
 12 27  1  0  0  0  0
 12 28  1  0  0  0  0
 12 29  1  0  0  0  0
 13 17  1  0  0  0  0
 13 19  2  0  0  0  0
 14 18  2  0  0  0  0
 14 30  1  0  0  0  0
 16 31  1  0  0  0  0
 16 32  1  0  0  0  0
 16 33  1  0  0  0  0
 17 18  1  0  0  0  0
 18 34  1  0  0  0  0
 19 36  1  0  0  0  0
 19 37  1  0  0  0  0
M  END
> <PUBCHEM_COMPOUND_CID>
442240

> <PUBCHEM_CONFORMER_RMSD>
0.6

> <PUBCHEM_CONFORMER_DIVERSEORDER>
1
2

> <PUBCHEM_MMFF94_PARTIAL_CHARGES>
19
1 -0.43
11 0.34
13 -0.12
14 -0.29
15 0.66
17 0.54
18 -0.14
19 -0.3
2 -0.68
3 -0.57
30 0.15
34 0.15
35 0.4
36 0.15
37 0.15
4 -0.57
6 0.14
7 0.14
8 0.28

> <PUBCHEM_EFFECTIVE_ROTOR_COUNT>
0.8

> <PUBCHEM_PHARMACOPHORE_FEATURES>
7
1 2 acceptor
1 2 donor
1 3 acceptor
1 4 acceptor
5 1 5 8 11 15 rings
6 5 6 7 8 9 10 rings
6 6 7 13 14 17 18 rings

> <PUBCHEM_HEAVY_ATOM_COUNT>
19

> <PUBCHEM_ATOM_DEF_STEREO_COUNT>
5

> <PUBCHEM_ATOM_UDEF_STEREO_COUNT>
0

> <PUBCHEM_BOND_DEF_STEREO_COUNT>
0

> <PUBCHEM_BOND_UDEF_STEREO_COUNT>
0

> <PUBCHEM_ISOTOPIC_ATOM_COUNT>
0

> <PUBCHEM_COMPONENT_COUNT>
1

> <PUBCHEM_CACTVS_TAUTO_COUNT>
1

> <PUBCHEM_CONFORMER_ID>
0006BF8000000001

> <PUBCHEM_MMFF94_ENERGY>
54.1238

> <PUBCHEM_FEATURE_SELFOVERLAP>
35.721

> <PUBCHEM_SHAPE_FINGERPRINT>
10366900 7 18272082739059479203
10608611 8 18411421721549107572
10863032 1 18272650198649485242
10967382 1 18408326609533941068
10980938 120 18335703853697848206
1100329 8 14519740537488955168
11132069 177 18339652157035076364
11471102 20 18408327700518905366
12236239 1 17312821585107878125
12491281 212 18334854991908185458
12507560 40 18343014527990957545
13140716 1 18192432957408209856
13214271 11 17917714582418021247
13221675 6 18410014338302265110
13296908 3 18201998849971342187
13583140 156 17417544543814084960
14223421 5 18340765927669529555
14289901 80 16200145538476427836
14787075 74 17843673370582505155
15196674 1 18410012173559626708
15219456 202 18341891913380713998
15309172 13 18333448759428157639
15536298 74 18334297595595365382
15653759 3 17917422138258386171
15775835 57 18411700980586184252
16945 1 18334863800965185430
17844478 74 18131064939584254837
18186145 218 17895187788457158612
18219364 16 18412546517802179941
18981168 100 17969524635439099880
200 152 18186811262193349663
20645477 70 18336838605136844446
22094290 62 18334580109864445196
22854114 111 18410012135020926500
231179 274 17988093273745243588
2334 1 17832431899539403388
23493267 7 17632021943601909969
23559900 14 17346037899902507906
25 1 18411419518731843190
2748010 2 18342179963931145719
296302 2 17846503646761771429
5104073 3 18341613767093381312
53812653 166 18411704274994963700
633830 44 18202002157439025846
69090 78 18261116240022218310
7364860 26 18267029525632047238
74978 22 18187373103322619334
77492 1 17167864179303708215
7832392 63 18333739022044742172
81228 2 17549835382266425858

> <PUBCHEM_SHAPE_MULTIPOLES>
367.53
7
2.1
1.13
0.49
0.44
0.29
1.87
0.11
0.62
0.14
-0.74
-0.2
0.42

> <PUBCHEM_SHAPE_SELFOVERLAP>
797.024

> <PUBCHEM_SHAPE_VOLUME>
199.5

> <PUBCHEM_COORDINATE_TYPE>
2
5
10

$$$$

