111253
  -OEChem-07051212473D

 78 82  0     1  0  0  0  0  0999 V2000
    0.9046    2.3655   -1.4638 O   0  0  0  0  0  0  0  0  0  0  0  0
    6.6421    1.4612    1.5711 O   0  0  0  0  0  0  0  0  0  0  0  0
   -6.6744    2.2668   -0.0727 O   0  0  0  0  0  0  0  0  0  0  0  0
   -4.4709    2.7849   -0.3408 O   0  0  0  0  0  0  0  0  0  0  0  0
    0.9541   -1.0914   -0.3122 C   0  0  1  0  0  0  0  0  0  0  0  0
   -0.5388   -1.1516    0.3421 C   0  0  1  0  0  0  0  0  0  0  0  0
    1.5064    0.3775   -0.1776 C   0  0  1  0  0  0  0  0  0  0  0  0
    3.0554    0.6064   -0.4733 C   0  0  2  0  0  0  0  0  0  0  0  0
    3.8628   -0.4615    0.3606 C   0  0  1  0  0  0  0  0  0  0  0  0
    1.9210   -2.0735    0.4013 C   0  0  0  0  0  0  0  0  0  0  0  0
   -1.4242   -0.0515   -0.2636 C   0  0  0  0  0  0  0  0  0  0  0  0
   -2.9504   -0.1803   -0.2365 C   0  0  1  0  0  0  0  0  0  0  0  0
   -3.5059   -1.6286   -0.3872 C   0  0  1  0  0  0  0  0  0  0  0  0
   -1.1741   -2.5567    0.1186 C   0  0  0  0  0  0  0  0  0  0  0  0
    3.3938   -1.8916    0.0311 C   0  0  0  0  0  0  0  0  0  0  0  0
    5.4213   -0.2872    0.4002 C   0  0  0  0  0  0  0  0  0  0  0  0
   -2.6669   -2.6344    0.4312 C   0  0  0  0  0  0  0  0  0  0  0  0
    3.4766    2.0040    0.0856 C   0  0  0  0  0  0  0  0  0  0  0  0
    0.8913   -1.5287   -1.8103 C   0  0  0  0  0  0  0  0  0  0  0  0
    0.5470    1.3390   -0.8900 C   0  0  0  0  0  0  0  0  0  0  0  0
   -0.5051   -0.9041    1.8800 C   0  0  0  0  0  0  0  0  0  0  0  0
   -3.5818    0.5264    0.9823 C   0  0  0  0  0  0  0  0  0  0  0  0
   -0.9080    1.0548   -0.8299 C   0  0  0  0  0  0  0  0  0  0  0  0
   -4.9783   -1.7217    0.1146 C   0  0  0  0  0  0  0  0  0  0  0  0
    3.3641    0.5642   -1.9894 C   0  0  0  0  0  0  0  0  0  0  0  0
   -5.1046    0.7309    0.7863 C   0  0  1  0  0  0  0  0  0  0  0  0
    4.9782    2.2619    0.0794 C   0  0  0  0  0  0  0  0  0  0  0  0
   -5.7406   -0.4071   -0.0428 C   0  0  0  0  0  0  0  0  0  0  0  0
    5.7393    1.1673    0.7847 C   0  0  0  0  0  0  0  0  0  0  0  0
   -3.4753   -2.0208   -1.8849 C   0  0  0  0  0  0  0  0  0  0  0  0
    6.1493   -0.6128   -0.9109 C   0  0  0  0  0  0  0  0  0  0  0  0
    6.0241   -1.2028    1.4963 C   0  0  0  0  0  0  0  0  0  0  0  0
   -5.7858    0.8609    2.1555 C   0  0  0  0  0  0  0  0  0  0  0  0
   -5.3461    2.0347    0.0649 C   0  0  0  0  0  0  0  0  0  0  0  0
    1.4081    0.6559    0.8795 H   0  0  0  0  0  0  0  0  0  0  0  0
    3.5515   -0.2912    1.4058 H   0  0  0  0  0  0  0  0  0  0  0  0
    1.6344   -3.1115    0.1938 H   0  0  0  0  0  0  0  0  0  0  0  0
    1.8597   -1.9545    1.4869 H   0  0  0  0  0  0  0  0  0  0  0  0
   -3.3100    0.3753   -1.1173 H   0  0  0  0  0  0  0  0  0  0  0  0
   -0.6559   -3.3004    0.7371 H   0  0  0  0  0  0  0  0  0  0  0  0
   -1.0514   -2.8960   -0.9115 H   0  0  0  0  0  0  0  0  0  0  0  0
    3.9566   -2.6283    0.6119 H   0  0  0  0  0  0  0  0  0  0  0  0
    3.5645   -2.1457   -1.0184 H   0  0  0  0  0  0  0  0  0  0  0  0
   -3.0151   -3.6563    0.2305 H   0  0  0  0  0  0  0  0  0  0  0  0
   -2.8209   -2.4781    1.5052 H   0  0  0  0  0  0  0  0  0  0  0  0
    3.1209    2.1003    1.1205 H   0  0  0  0  0  0  0  0  0  0  0  0
    3.0024    2.8131   -0.4779 H   0  0  0  0  0  0  0  0  0  0  0  0
    0.6791   -2.5979   -1.9115 H   0  0  0  0  0  0  0  0  0  0  0  0
    0.1302   -0.9883   -2.3796 H   0  0  0  0  0  0  0  0  0  0  0  0
    1.8343   -1.3931   -2.3339 H   0  0  0  0  0  0  0  0  0  0  0  0
    0.0524   -1.6816    2.4098 H   0  0  0  0  0  0  0  0  0  0  0  0
   -0.0746    0.0645    2.1470 H   0  0  0  0  0  0  0  0  0  0  0  0
   -1.5031   -0.9156    2.3241 H   0  0  0  0  0  0  0  0  0  0  0  0
   -3.4186   -0.0861    1.8766 H   0  0  0  0  0  0  0  0  0  0  0  0
   -3.0789    1.4802    1.1866 H   0  0  0  0  0  0  0  0  0  0  0  0
   -1.5517    1.8175   -1.2589 H   0  0  0  0  0  0  0  0  0  0  0  0
   -5.0060   -2.0022    1.1757 H   0  0  0  0  0  0  0  0  0  0  0  0
   -5.5120   -2.5203   -0.4159 H   0  0  0  0  0  0  0  0  0  0  0  0
    3.6850   -0.4227   -2.3286 H   0  0  0  0  0  0  0  0  0  0  0  0
    2.5029    0.8479   -2.6003 H   0  0  0  0  0  0  0  0  0  0  0  0
    4.1572    1.2577   -2.2790 H   0  0  0  0  0  0  0  0  0  0  0  0
    5.1746    3.2069    0.5999 H   0  0  0  0  0  0  0  0  0  0  0  0
    5.3792    2.3699   -0.9318 H   0  0  0  0  0  0  0  0  0  0  0  0
   -5.7710   -0.1439   -1.1085 H   0  0  0  0  0  0  0  0  0  0  0  0
   -6.7861   -0.5613    0.2530 H   0  0  0  0  0  0  0  0  0  0  0  0
   -3.7693   -3.0670   -2.0254 H   0  0  0  0  0  0  0  0  0  0  0  0
   -4.1681   -1.4041   -2.4686 H   0  0  0  0  0  0  0  0  0  0  0  0
   -2.4821   -1.8916   -2.3265 H   0  0  0  0  0  0  0  0  0  0  0  0
    7.2366   -0.5968   -0.7634 H   0  0  0  0  0  0  0  0  0  0  0  0
    5.8871   -1.6078   -1.2839 H   0  0  0  0  0  0  0  0  0  0  0  0
    5.9518    0.1147   -1.7000 H   0  0  0  0  0  0  0  0  0  0  0  0
    7.0911   -0.9994    1.6490 H   0  0  0  0  0  0  0  0  0  0  0  0
    5.5270   -1.0478    2.4607 H   0  0  0  0  0  0  0  0  0  0  0  0
    5.9474   -2.2628    1.2361 H   0  0  0  0  0  0  0  0  0  0  0  0
   -5.6221   -0.0369    2.7622 H   0  0  0  0  0  0  0  0  0  0  0  0
   -5.3901    1.7175    2.7141 H   0  0  0  0  0  0  0  0  0  0  0  0
   -6.8699    0.9993    2.0734 H   0  0  0  0  0  0  0  0  0  0  0  0
   -6.8522    3.1112   -0.5390 H   0  0  0  0  0  0  0  0  0  0  0  0
  1 20  2  0  0  0  0
  2 29  2  0  0  0  0
  3 34  1  0  0  0  0
  3 78  1  0  0  0  0
  4 34  2  0  0  0  0
  5  6  1  0  0  0  0
  5  7  1  0  0  0  0
  5 10  1  0  0  0  0
  5 19  1  0  0  0  0
  6 11  1  0  0  0  0
  6 14  1  0  0  0  0
  6 21  1  0  0  0  0
  7  8  1  0  0  0  0
  7 20  1  0  0  0  0
  7 35  1  0  0  0  0
  8  9  1  0  0  0  0
  8 18  1  0  0  0  0
  8 25  1  0  0  0  0
  9 15  1  0  0  0  0
  9 16  1  0  0  0  0
  9 36  1  0  0  0  0
 10 15  1  0  0  0  0
 10 37  1  0  0  0  0
 10 38  1  0  0  0  0
 11 12  1  0  0  0  0
 11 23  2  0  0  0  0
 12 13  1  0  0  0  0
 12 22  1  0  0  0  0
 12 39  1  0  0  0  0
 13 17  1  0  0  0  0
 13 24  1  0  0  0  0
 13 30  1  0  0  0  0
 14 17  1  0  0  0  0
 14 40  1  0  0  0  0
 14 41  1  0  0  0  0
 15 42  1  0  0  0  0
 15 43  1  0  0  0  0
 16 29  1  0  0  0  0
 16 31  1  0  0  0  0
 16 32  1  0  0  0  0
 17 44  1  0  0  0  0
 17 45  1  0  0  0  0
 18 27  1  0  0  0  0
 18 46  1  0  0  0  0
 18 47  1  0  0  0  0
 19 48  1  0  0  0  0
 19 49  1  0  0  0  0
 19 50  1  0  0  0  0
 20 23  1  0  0  0  0
 21 51  1  0  0  0  0
 21 52  1  0  0  0  0
 21 53  1  0  0  0  0
 22 26  1  0  0  0  0
 22 54  1  0  0  0  0
 22 55  1  0  0  0  0
 23 56  1  0  0  0  0
 24 28  1  0  0  0  0
 24 57  1  0  0  0  0
 24 58  1  0  0  0  0
 25 59  1  0  0  0  0
 25 60  1  0  0  0  0
 25 61  1  0  0  0  0
 26 28  1  0  0  0  0
 26 33  1  0  0  0  0
 26 34  1  0  0  0  0
 27 29  1  0  0  0  0
 27 62  1  0  0  0  0
 27 63  1  0  0  0  0
 28 64  1  0  0  0  0
 28 65  1  0  0  0  0
 30 66  1  0  0  0  0
 30 67  1  0  0  0  0
 30 68  1  0  0  0  0
 31 69  1  0  0  0  0
 31 70  1  0  0  0  0
 31 71  1  0  0  0  0
 32 72  1  0  0  0  0
 32 73  1  0  0  0  0
 32 74  1  0  0  0  0
 33 75  1  0  0  0  0
 33 76  1  0  0  0  0
 33 77  1  0  0  0  0
M  END
> <PUBCHEM_COMPOUND_CID>
111253

> <PUBCHEM_CONFORMER_RMSD>
0.8

> <PUBCHEM_CONFORMER_DIVERSEORDER>
1

> <PUBCHEM_MMFF94_PARTIAL_CHARGES>
17
1 -0.57
11 -0.28
12 0.14
16 0.06
2 -0.57
20 0.49
23 -0.14
26 0.06
27 0.06
29 0.45
3 -0.65
34 0.66
4 -0.57
56 0.15
6 0.14
7 0.06
78 0.5

> <PUBCHEM_EFFECTIVE_ROTOR_COUNT>
3.2

> <PUBCHEM_PHARMACOPHORE_FEATURES>
11
1 1 acceptor
1 2 acceptor
1 3 acceptor
1 4 acceptor
3 16 31 32 hydrophobe
3 3 4 34 anion
6 12 13 22 24 26 28 rings
6 5 6 7 11 20 23 rings
6 5 7 8 9 10 15 rings
6 6 11 12 13 14 17 rings
6 8 9 16 18 27 29 rings

> <PUBCHEM_HEAVY_ATOM_COUNT>
34

> <PUBCHEM_ATOM_DEF_STEREO_COUNT>
8

> <PUBCHEM_ATOM_UDEF_STEREO_COUNT>
0

> <PUBCHEM_BOND_DEF_STEREO_COUNT>
0

> <PUBCHEM_BOND_UDEF_STEREO_COUNT>
0

> <PUBCHEM_ISOTOPIC_ATOM_COUNT>
0

> <PUBCHEM_COMPONENT_COUNT>
1

> <PUBCHEM_CACTVS_TAUTO_COUNT>
10

> <PUBCHEM_CONFORMER_ID>
0001B29500000001

> <PUBCHEM_MMFF94_ENERGY>
149.1055

> <PUBCHEM_FEATURE_SELFOVERLAP>
55.94

> <PUBCHEM_SHAPE_FINGERPRINT>
10 15 18343297076699060073
10554248 39 15357967976474868060
10906281 52 17988350487005697190
11135609 201 17896872352800678297
11578080 2 5255031665630552971
12107183 9 18269282420820499738
12236239 1 18260548905018165130
12422481 6 18341897415423594430
12616971 3 17703786998753169318
12633257 1 17774724156177639470
12788726 201 17458903863541187441
13140716 1 18056472850990766476
13583140 156 15936414420412243319
13690498 29 16879082841069990831
13811026 1 18409452470411739415
14020679 6 17489581230114578130
14394314 77 18411698798632918193
144659 39 18041000648008237287
14747282 305 14764352660861121737
14790565 3 18412542089495731983
15021287 119 17275103920637740701
15131766 46 15938126292278383528
15183329 4 18411134723196721510
15238133 3 18201709652917656006
15788980 27 16200156460589012495
15840311 113 18188478211999728913
17349148 13 17775566416713344630
17980427 23 18334295327525644301
1813 80 16702026357602966846
20511986 3 18334023795282250435
20715895 44 18336264634270668617
21033648 29 16558485088336415311
21130935 74 18412831278777805298
21236236 1 18335704914660180975
21421861 104 17774171231100354938
23522609 53 17845066589623636332
23559900 14 17750779112154790798
23569914 2 17392814371327897112
23569943 247 17844821467276831026
24771293 8 18339368440671636412
2838139 119 18409452483317525861
32027 91 16952228023479259102
335352 9 18413669127700764318
3388396 114 17541952988150656893
34797466 226 17313375686938130846
350125 39 18343300409609577316
3633792 109 18342189860522447471
3680242 22 18273216413268564730
404807 14 17104506131808897766
4073 2 18201435818972971858
4093350 32 17530679919064000982
4144715 1 18342447123730027339
4169191 19 18200036110500910636
5104073 3 18341894048095732738
513202 73 16629696183091155278
6086070 43 17531259326303699457
7226269 152 18187080680880700233
7495541 125 13326852210440716822

> <PUBCHEM_SHAPE_MULTIPOLES>
676.23
16.14
2.84
1.53
1.74
0.26
0
6.26
4.77
-1.61
-0.25
0.2
-0.07
-0.59

> <PUBCHEM_SHAPE_SELFOVERLAP>
1450.82

> <PUBCHEM_SHAPE_VOLUME>
369.1

> <PUBCHEM_COORDINATE_TYPE>
2
5
10

$$$$

