194024
  -OEChem-07051212453D

 22 21  0     1  0  0  0  0  0999 V2000
    1.0011   -0.7730   -1.2426 O   0  0  0  0  0  0  0  0  0  0  0  0
    2.0774    1.7698   -0.6745 O   0  0  0  0  0  0  0  0  0  0  0  0
    3.5949   -1.1257    0.9276 O   0  0  0  0  0  0  0  0  0  0  0  0
   -1.5436   -1.5631   -0.2173 O   0  0  0  0  0  0  0  0  0  0  0  0
   -3.8803   -0.6257   -0.0445 O   0  0  0  0  0  0  0  0  0  0  0  0
   -3.0428    1.4644    0.3965 O   0  0  0  0  0  0  0  0  0  0  0  0
    0.9631   -0.2321    0.0778 C   0  0  1  0  0  0  0  0  0  0  0  0
    2.1757    0.6935    0.2583 C   0  0  1  0  0  0  0  0  0  0  0  0
   -0.3622    0.5193    0.2687 C   0  0  0  0  0  0  0  0  0  0  0  0
    3.5001   -0.0324    0.0197 C   0  0  0  0  0  0  0  0  0  0  0  0
   -1.5670   -0.3718    0.0530 C   0  0  0  0  0  0  0  0  0  0  0  0
   -2.9163    0.2767    0.1772 C   0  0  0  0  0  0  0  0  0  0  0  0
    1.0030   -1.0701    0.7839 H   0  0  0  0  0  0  0  0  0  0  0  0
    2.1539    1.1124    1.2714 H   0  0  0  0  0  0  0  0  0  0  0  0
   -0.4141    0.9365    1.2798 H   0  0  0  0  0  0  0  0  0  0  0  0
   -0.4416    1.3316   -0.4632 H   0  0  0  0  0  0  0  0  0  0  0  0
    3.5930   -0.4050   -1.0052 H   0  0  0  0  0  0  0  0  0  0  0  0
    4.3482    0.6407    0.1873 H   0  0  0  0  0  0  0  0  0  0  0  0
    1.6759   -1.4725   -1.2568 H   0  0  0  0  0  0  0  0  0  0  0  0
    2.8361    2.3586   -0.5223 H   0  0  0  0  0  0  0  0  0  0  0  0
    3.5542   -0.7621    1.8286 H   0  0  0  0  0  0  0  0  0  0  0  0
   -4.7772   -0.2314    0.0042 H   0  0  0  0  0  0  0  0  0  0  0  0
  1  7  1  0  0  0  0
  1 19  1  0  0  0  0
  2  8  1  0  0  0  0
  2 20  1  0  0  0  0
  3 10  1  0  0  0  0
  3 21  1  0  0  0  0
  4 11  2  0  0  0  0
  5 12  1  0  0  0  0
  5 22  1  0  0  0  0
  6 12  2  0  0  0  0
  7  8  1  0  0  0  0
  7  9  1  0  0  0  0
  7 13  1  0  0  0  0
  8 10  1  0  0  0  0
  8 14  1  0  0  0  0
  9 11  1  0  0  0  0
  9 15  1  0  0  0  0
  9 16  1  0  0  0  0
 10 17  1  0  0  0  0
 10 18  1  0  0  0  0
 11 12  1  0  0  0  0
M  END
> <PUBCHEM_COMPOUND_CID>
194024

> <PUBCHEM_CONFORMER_RMSD>
0.6

> <PUBCHEM_CONFORMER_DIVERSEORDER>
1
60
2
15
52
57
44
34
36
11
59
21
23
53
51
31
45
6
55
3
10
43
5
50
48
20
12
35
28
38
19
8
54
30
26
13
40
58
32
9
4
47
25
17
24
29
14
41
27
42
7
56
18
22
49
46
33
16
37
39

> <PUBCHEM_MMFF94_PARTIAL_CHARGES>
16
1 -0.68
10 0.28
11 0.51
12 0.72
19 0.4
2 -0.68
20 0.4
21 0.4
22 0.5
3 -0.68
4 -0.57
5 -0.65
6 -0.57
7 0.28
8 0.28
9 0.06

> <PUBCHEM_EFFECTIVE_ROTOR_COUNT>
5

> <PUBCHEM_PHARMACOPHORE_FEATURES>
10
1 1 acceptor
1 1 donor
1 2 acceptor
1 2 donor
1 3 acceptor
1 3 donor
1 4 acceptor
1 5 acceptor
1 6 acceptor
3 5 6 12 anion

> <PUBCHEM_HEAVY_ATOM_COUNT>
12

> <PUBCHEM_ATOM_DEF_STEREO_COUNT>
2

> <PUBCHEM_ATOM_UDEF_STEREO_COUNT>
0

> <PUBCHEM_BOND_DEF_STEREO_COUNT>
0

> <PUBCHEM_BOND_UDEF_STEREO_COUNT>
0

> <PUBCHEM_ISOTOPIC_ATOM_COUNT>
0

> <PUBCHEM_COMPONENT_COUNT>
1

> <PUBCHEM_CACTVS_TAUTO_COUNT>
2

> <PUBCHEM_CONFORMER_ID>
0002F5E800000001

> <PUBCHEM_MMFF94_ENERGY>
20.8852

> <PUBCHEM_FEATURE_SELFOVERLAP>
50.823

> <PUBCHEM_SHAPE_FINGERPRINT>
10130415 120 18408605863901893984
10219947 1 16343702136191225194
11062470 55 5978389417361385259
12162725 195 18409727348545491189
12251169 10 18411703158076567930
124424 183 18271813457368256008
12932764 1 16701753669570135018
13380535 76 18259984877165180823
14144814 61 18411982476826767344
14325111 11 18409166597430605241
18511873 20 18341334465438563714
190213 19 17561083596450100945
20201158 50 17968092036286502295
20281407 28 11312055448169072573
20339313 130 16128365004542232390
20645464 45 18260261971470018879
21028194 46 18113335297464591321
23402539 116 18260841397076204517
23463225 33 18411138039111927586
3248919 1 17895183407326772577
9939556 21 18341049623096664502

> <PUBCHEM_SHAPE_MULTIPOLES>
211.74
6.5
1.36
0.79
0.72
0.2
0.08
-0.22
-0.9
-0.01
0.09
-0.37
-0.07
-0.51

> <PUBCHEM_SHAPE_SELFOVERLAP>
409.74

> <PUBCHEM_SHAPE_VOLUME>
126.9

> <PUBCHEM_COORDINATE_TYPE>
2
5
10

$$$$

