5462314
  -OEChem-07051212512D

 43 42  0     1  0  0  0  0  0999 V2000
    3.4030    0.4050    0.0000 P   0  0  3  0  0  0  0  0  0  0  0  0
    2.5369    0.9050    0.0000 O   0  0  0  0  0  0  0  0  0  0  0  0
    3.9030    1.2710    0.0000 O   0  0  0  0  0  0  0  0  0  0  0  0
    6.8671    1.4050    0.0000 O   0  0  0  0  0  0  0  0  0  0  0  0
    9.4651   -1.0950    0.0000 O   0  0  0  0  0  0  0  0  0  0  0  0
   12.9292   -0.0950    0.0000 O   0  0  0  0  0  0  0  0  0  0  0  0
   12.0632    1.4050    0.0000 O   0  0  0  0  0  0  0  0  0  0  0  0
    7.7331   -0.0950    0.0000 N   0  0  0  0  0  0  0  0  0  0  0  0
    6.0010   -1.0950    0.0000 N   0  0  0  0  0  0  0  0  0  0  0  0
   10.3312    0.4050    0.0000 N   0  0  0  0  0  0  0  0  0  0  0  0
    5.1350    0.4050    0.0000 C   0  0  0  0  0  0  0  0  0  0  0  0
    6.0010   -0.0950    0.0000 C   0  0  1  0  0  0  0  0  0  0  0  0
    4.2690   -0.0950    0.0000 C   0  0  0  0  0  0  0  0  0  0  0  0
    6.8671    0.4050    0.0000 C   0  0  0  0  0  0  0  0  0  0  0  0
    8.5991    0.4050    0.0000 C   0  0  2  0  0  0  0  0  0  0  0  0
    2.9030   -0.4610    0.0000 C   0  0  0  0  0  0  0  0  0  0  0  0
    9.4651   -0.0950    0.0000 C   0  0  0  0  0  0  0  0  0  0  0  0
    8.5991    1.4050    0.0000 C   0  0  0  0  0  0  0  0  0  0  0  0
   11.1972   -0.0950    0.0000 C   0  0  1  0  0  0  0  0  0  0  0  0
   11.1972   -1.0950    0.0000 C   0  0  0  0  0  0  0  0  0  0  0  0
   12.0632    0.4050    0.0000 C   0  0  0  0  0  0  0  0  0  0  0  0
    5.5335    0.8799    0.0000 H   0  0  0  0  0  0  0  0  0  0  0  0
    4.7365    0.8799    0.0000 H   0  0  0  0  0  0  0  0  0  0  0  0
    6.5380   -0.4050    0.0000 H   0  0  0  0  0  0  0  0  0  0  0  0
    3.8705   -0.5699    0.0000 H   0  0  0  0  0  0  0  0  0  0  0  0
    4.6675   -0.5699    0.0000 H   0  0  0  0  0  0  0  0  0  0  0  0
    8.5991   -0.2150    0.0000 H   0  0  0  0  0  0  0  0  0  0  0  0
    7.7331   -0.7150    0.0000 H   0  0  0  0  0  0  0  0  0  0  0  0
    2.3660   -0.1510    0.0000 H   0  0  0  0  0  0  0  0  0  0  0  0
    2.5930   -0.9980    0.0000 H   0  0  0  0  0  0  0  0  0  0  0  0
    3.4399   -0.7710    0.0000 H   0  0  0  0  0  0  0  0  0  0  0  0
    5.4641   -1.4050    0.0000 H   0  0  0  0  0  0  0  0  0  0  0  0
    6.5380   -1.4050    0.0000 H   0  0  0  0  0  0  0  0  0  0  0  0
    9.2191    1.4050    0.0000 H   0  0  0  0  0  0  0  0  0  0  0  0
    8.5991    2.0250    0.0000 H   0  0  0  0  0  0  0  0  0  0  0  0
    7.9791    1.4050    0.0000 H   0  0  0  0  0  0  0  0  0  0  0  0
   10.6603   -0.4050    0.0000 H   0  0  0  0  0  0  0  0  0  0  0  0
   10.3312    1.0250    0.0000 H   0  0  0  0  0  0  0  0  0  0  0  0
    2.0000    0.5950    0.0000 H   0  0  0  0  0  0  0  0  0  0  0  0
   10.5772   -1.0950    0.0000 H   0  0  0  0  0  0  0  0  0  0  0  0
   11.1972   -1.7150    0.0000 H   0  0  0  0  0  0  0  0  0  0  0  0
   11.8172   -1.0950    0.0000 H   0  0  0  0  0  0  0  0  0  0  0  0
   13.4662    0.2150    0.0000 H   0  0  0  0  0  0  0  0  0  0  0  0
  1  2  1  0  0  0  0
  1  3  2  0  0  0  0
  1 13  1  0  0  0  0
  1 16  1  0  0  0  0
  2 39  1  0  0  0  0
  4 14  2  0  0  0  0
  5 17  2  0  0  0  0
  6 21  1  0  0  0  0
  6 43  1  0  0  0  0
  7 21  2  0  0  0  0
  8 14  1  0  0  0  0
 15  8  1  1  0  0  0
  8 28  1  0  0  0  0
 12  9  1  1  0  0  0
  9 32  1  0  0  0  0
  9 33  1  0  0  0  0
 10 17  1  0  0  0  0
 19 10  1  6  0  0  0
 10 38  1  0  0  0  0
 11 12  1  0  0  0  0
 11 13  1  0  0  0  0
 11 22  1  0  0  0  0
 11 23  1  0  0  0  0
 12 14  1  0  0  0  0
 12 24  1  0  0  0  0
 13 25  1  0  0  0  0
 13 26  1  0  0  0  0
 15 17  1  0  0  0  0
 15 18  1  0  0  0  0
 15 27  1  0  0  0  0
 16 29  1  0  0  0  0
 16 30  1  0  0  0  0
 16 31  1  0  0  0  0
 18 34  1  0  0  0  0
 18 35  1  0  0  0  0
 18 36  1  0  0  0  0
 19 20  1  0  0  0  0
 19 21  1  0  0  0  0
 19 37  1  0  0  0  0
 20 40  1  0  0  0  0
 20 41  1  0  0  0  0
 20 42  1  0  0  0  0
M  END
> <PUBCHEM_COMPOUND_CID>
5462314

> <PUBCHEM_COMPOUND_CANONICALIZED>
1

> <PUBCHEM_CACTVS_COMPLEXITY>
455

> <PUBCHEM_CACTVS_HBOND_ACCEPTOR>
7

> <PUBCHEM_CACTVS_HBOND_DONOR>
5

> <PUBCHEM_CACTVS_ROTATABLE_BOND>
8

> <PUBCHEM_CACTVS_SUBSKEYS>
AAADceBzOAIAAAAAAAAAAAAAAAAAAAAAAAAAAAAAAAAAAAAAAAAAHggQCCAACCjJgAQCCALAAjAIQAGQGIAAAAAAAAAAAIGIAAACQBAAgCAUQAAAFgCQAAAAAAAAAAAAAAAAAAAAAAAAAAAAAAAAAAAAAA==

> <PUBCHEM_IUPAC_OPENEYE_NAME>
(2S)-2-[[(2S)-2-[[(2S)-2-amino-4-[hydroxy(methyl)phosphoryl]butanoyl]amino]propanoyl]amino]propanoic acid

> <PUBCHEM_IUPAC_CAS_NAME>
(2S)-2-[[(2S)-2-[[(2S)-2-amino-4-[hydroxy(methyl)phosphoryl]-1-oxobutyl]amino]-1-oxopropyl]amino]propanoic acid

> <PUBCHEM_IUPAC_NAME>
(2S)-2-[[(2S)-2-[[(2S)-2-amino-4-[hydroxy(methyl)phosphoryl]butanoyl]amino]propanoyl]amino]propanoic acid

> <PUBCHEM_IUPAC_SYSTEMATIC_NAME>
(2S)-2-[[(2S)-2-[[(2S)-2-azanyl-4-[methyl(oxidanyl)phosphoryl]butanoyl]amino]propanoyl]amino]propanoic acid

> <PUBCHEM_IUPAC_TRADITIONAL_NAME>
(2S)-2-[[(2S)-2-[[(2S)-2-amino-4-[hydroxy(methyl)phosphoryl]butanoyl]amino]propanoyl]amino]propionic acid

> <PUBCHEM_IUPAC_INCHI>
InChI=1S/C11H22N3O6P/c1-6(9(15)14-7(2)11(17)18)13-10(16)8(12)4-5-21(3,19)20/h6-8H,4-5,12H2,1-3H3,(H,13,16)(H,14,15)(H,17,18)(H,19,20)/t6-,7-,8-/m0/s1

> <PUBCHEM_IUPAC_INCHIKEY>
GINJFDRNADDBIN-FXQIFTODSA-N

> <PUBCHEM_XLOGP3_AA>
-4.9

> <PUBCHEM_EXACT_MASS>
323.124622

> <PUBCHEM_MOLECULAR_FORMULA>
C11H22N3O6P

> <PUBCHEM_MOLECULAR_WEIGHT>
323.282642

> <PUBCHEM_OPENEYE_CAN_SMILES>
CC(C(=O)NC(C)C(=O)O)NC(=O)C(CCP(=O)(C)O)N

> <PUBCHEM_OPENEYE_ISO_SMILES>
C[C@@H](C(=O)N[C@@H](C)C(=O)O)NC(=O)[C@H](CCP(=O)(C)O)N

> <PUBCHEM_CACTVS_TPSA>
159

> <PUBCHEM_MONOISOTOPIC_WEIGHT>
323.124622

> <PUBCHEM_TOTAL_CHARGE>
0

> <PUBCHEM_HEAVY_ATOM_COUNT>
21

> <PUBCHEM_ATOM_DEF_STEREO_COUNT>
3

> <PUBCHEM_ATOM_UDEF_STEREO_COUNT>
0

> <PUBCHEM_BOND_DEF_STEREO_COUNT>
0

> <PUBCHEM_BOND_UDEF_STEREO_COUNT>
0

> <PUBCHEM_ISOTOPIC_ATOM_COUNT>
0

> <PUBCHEM_COMPONENT_COUNT>
1

> <PUBCHEM_CACTVS_TAUTO_COUNT>
4

> <PUBCHEM_COORDINATE_TYPE>
1
5
255

> <PUBCHEM_BONDANNOTATIONS>
19  10  6
15  8  5
12  9  5

$$$$

