12925
  -OEChem-06261207333D

 37 39  0     0  0  0  0  0  0999 V2000
   -0.7206    2.3100   -0.1061 O   0  0  0  0  0  0  0  0  0  0  0  0
   -0.7432   -2.3161   -0.1053 O   0  0  0  0  0  0  0  0  0  0  0  0
   -2.7627   -1.1930   -0.2242 N   0  0  0  0  0  0  0  0  0  0  0  0
   -2.7509    1.2066   -0.2247 N   0  0  0  0  0  0  0  0  0  0  0  0
   -0.6823   -0.0035   -0.1049 N   0  0  0  0  0  0  0  0  0  0  0  0
   -4.8476    0.0168   -0.3437 C   0  0  0  0  0  0  0  0  0  0  0  0
   -3.3589    0.0097   -0.2592 C   0  0  0  0  0  0  0  0  0  0  0  0
   -5.5077    0.0195    1.0328 C   0  0  0  0  0  0  0  0  0  0  0  0
   -1.4179    1.1141   -0.1480 C   0  0  0  0  0  0  0  0  0  0  0  0
   -1.4240   -1.1219   -0.1472 C   0  0  0  0  0  0  0  0  0  0  0  0
    0.6366    2.2486   -0.0280 C   0  0  0  0  0  0  0  0  0  0  0  0
    0.6314   -2.2545   -0.0262 C   0  0  0  0  0  0  0  0  0  0  0  0
    1.4019    2.2189   -1.1938 C   0  0  0  0  0  0  0  0  0  0  0  0
    1.2625    2.2149    1.2182 C   0  0  0  0  0  0  0  0  0  0  0  0
    1.2404   -2.2213    1.2188 C   0  0  0  0  0  0  0  0  0  0  0  0
    1.3790   -2.2263   -1.1933 C   0  0  0  0  0  0  0  0  0  0  0  0
    2.7930    2.1553   -1.1136 C   0  0  0  0  0  0  0  0  0  0  0  0
    2.6537    2.1515    1.2983 C   0  0  0  0  0  0  0  0  0  0  0  0
    2.6316   -2.1582    1.2986 C   0  0  0  0  0  0  0  0  0  0  0  0
    2.7703   -2.1633   -1.1133 C   0  0  0  0  0  0  0  0  0  0  0  0
    3.4188    2.1216    0.1324 C   0  0  0  0  0  0  0  0  0  0  0  0
    3.3964   -2.1293    0.1327 C   0  0  0  0  0  0  0  0  0  0  0  0
   -5.1788    0.8974   -0.9066 H   0  0  0  0  0  0  0  0  0  0  0  0
   -5.1872   -0.8605   -0.9071 H   0  0  0  0  0  0  0  0  0  0  0  0
   -5.2220   -0.8674    1.6084 H   0  0  0  0  0  0  0  0  0  0  0  0
   -6.5973    0.0248    0.9306 H   0  0  0  0  0  0  0  0  0  0  0  0
   -5.2136    0.9034    1.6088 H   0  0  0  0  0  0  0  0  0  0  0  0
    0.9214    2.2449   -2.1681 H   0  0  0  0  0  0  0  0  0  0  0  0
    0.6730    2.2378    2.1308 H   0  0  0  0  0  0  0  0  0  0  0  0
    0.6487   -2.2437    2.1292 H   0  0  0  0  0  0  0  0  0  0  0  0
    0.8954   -2.2527   -2.1655 H   0  0  0  0  0  0  0  0  0  0  0  0
    3.3887    2.1306   -2.0213 H   0  0  0  0  0  0  0  0  0  0  0  0
    3.1411    2.1239    2.2685 H   0  0  0  0  0  0  0  0  0  0  0  0
    3.1191   -2.1303    2.2687 H   0  0  0  0  0  0  0  0  0  0  0  0
    3.3658   -2.1395   -2.0212 H   0  0  0  0  0  0  0  0  0  0  0  0
    4.5019    2.0705    0.1949 H   0  0  0  0  0  0  0  0  0  0  0  0
    4.4795   -2.0787    0.1948 H   0  0  0  0  0  0  0  0  0  0  0  0
  1  9  1  0  0  0  0
  1 11  1  0  0  0  0
  2 10  1  0  0  0  0
  2 12  1  0  0  0  0
  3  7  2  0  0  0  0
  3 10  1  0  0  0  0
  4  7  1  0  0  0  0
  4  9  2  0  0  0  0
  5  9  1  0  0  0  0
  5 10  2  0  0  0  0
  6  7  1  0  0  0  0
  6  8  1  0  0  0  0
  6 23  1  0  0  0  0
  6 24  1  0  0  0  0
  8 25  1  0  0  0  0
  8 26  1  0  0  0  0
  8 27  1  0  0  0  0
 11 13  2  0  0  0  0
 11 14  1  0  0  0  0
 12 15  2  0  0  0  0
 12 16  1  0  0  0  0
 13 17  1  0  0  0  0
 13 28  1  0  0  0  0
 14 18  2  0  0  0  0
 14 29  1  0  0  0  0
 15 19  1  0  0  0  0
 15 30  1  0  0  0  0
 16 20  2  0  0  0  0
 16 31  1  0  0  0  0
 17 21  2  0  0  0  0
 17 32  1  0  0  0  0
 18 21  1  0  0  0  0
 18 33  1  0  0  0  0
 19 22  2  0  0  0  0
 19 34  1  0  0  0  0
 20 22  1  0  0  0  0
 20 35  1  0  0  0  0
 21 36  1  0  0  0  0
 22 37  1  0  0  0  0
M  END
> <PUBCHEM_COMPOUND_CID>
12925

> <PUBCHEM_CONFORMER_RMSD>
0.8

> <PUBCHEM_CONFORMER_DIVERSEORDER>
1
8
32
13
30
5
33
16
2
34
17
36
3
29
35
37
15
21
31
19
24
6
20
4
22
14
10
9
11
28
27
23
26
7
18
12
25

> <PUBCHEM_MMFF94_PARTIAL_CHARGES>
31
1 -0.17
10 0.7
11 0.08
12 0.08
13 -0.15
14 -0.15
15 -0.15
16 -0.15
17 -0.15
18 -0.15
19 -0.15
2 -0.17
20 -0.15
21 -0.15
22 -0.15
28 0.15
29 0.15
3 -0.62
30 0.15
31 0.15
32 0.15
33 0.15
34 0.15
35 0.15
36 0.15
37 0.15
4 -0.62
5 -0.62
6 0.14
7 0.48
9 0.7

> <PUBCHEM_EFFECTIVE_ROTOR_COUNT>
5

> <PUBCHEM_PHARMACOPHORE_FEATURES>
7
1 8 hydrophobe
3 3 4 7 cation
3 3 5 10 cation
3 4 5 9 cation
6 11 13 14 17 18 21 rings
6 12 15 16 19 20 22 rings
6 3 4 5 7 9 10 rings

> <PUBCHEM_HEAVY_ATOM_COUNT>
22

> <PUBCHEM_ATOM_DEF_STEREO_COUNT>
0

> <PUBCHEM_ATOM_UDEF_STEREO_COUNT>
0

> <PUBCHEM_BOND_DEF_STEREO_COUNT>
0

> <PUBCHEM_BOND_UDEF_STEREO_COUNT>
0

> <PUBCHEM_ISOTOPIC_ATOM_COUNT>
0

> <PUBCHEM_COMPONENT_COUNT>
1

> <PUBCHEM_CACTVS_TAUTO_COUNT>
3

> <PUBCHEM_CONFORMER_ID>
0000327D00000001

> <PUBCHEM_MMFF94_ENERGY>
66.2385

> <PUBCHEM_FEATURE_SELFOVERLAP>
38.308

> <PUBCHEM_SHAPE_FINGERPRINT>
10989021 7 18337391651143288615
1100329 8 18412546504733278970
11680986 33 18341325605195565923
11963148 33 17982458088345445347
12422481 6 18122940657336945128
12592029 89 18270677554894077017
12644460 14 18410845565114336435
13140716 1 18410575063605649651
133893 2 18270096011716274041
14020679 6 17697854202315814161
14022349 108 18410573985610380849
14178342 30 17975990768880424425
14931854 50 18267564945166323078
14955137 171 17757241028143192313
15006816 218 18338238159006082052
16752209 62 17762905359450732031
17492 54 18200291309146532222
20028762 73 17396974661845780215
20600515 1 17690294024228169336
20691752 17 17703516510498363599
20739085 24 18268410469550598729
20905425 154 18408319969509168468
21421861 104 18263066855586925353
22182313 1 18130241440384071189
23352939 185 18041830835433330610
23419403 2 17843430567443842526
23557571 272 17541954525326591086
25147074 1 18187652367414773423
3411729 13 18411696556849218105
350125 39 18338792450807042733
465052 167 17416686839541601177
5104073 3 18338501003522329059
5265222 85 17907007388739440452
5895379 119 16734930471161371537
5939293 188 18336556009590192490
6287921 2 17895480331174662278
6443956 14 18336830899955173240
7364860 26 18334296469791635798
81228 2 17543629094272578059
90525 40 17839184013156495212
9925002 15 17681029276996157030

> <PUBCHEM_SHAPE_MULTIPOLES>
426.07
7.46
3.97
1.23
10.91
0.03
0.14
-0.09
0.88
-4.48
0.04
-0.78
0
0

> <PUBCHEM_SHAPE_SELFOVERLAP>
924.567

> <PUBCHEM_SHAPE_VOLUME>
228.3

> <PUBCHEM_COORDINATE_TYPE>
2
5
10

$$$$

