62134
  -OEChem-07051213133D

 28 31  0     0  0  0  0  0  0999 V2000
   -3.2833   -2.4788   -0.0004 O   0  5  0  0  0  0  0  0  0  0  0  0
   -3.8721   -0.3640    0.0003 O   0  0  0  0  0  0  0  0  0  0  0  0
   -2.9980   -1.2601   -0.0001 N   0  3  0  0  0  0  0  0  0  0  0  0
    0.1542    0.7772    0.0001 C   0  0  0  0  0  0  0  0  0  0  0  0
    1.1150   -0.2643    0.0000 C   0  0  0  0  0  0  0  0  0  0  0  0
   -1.2255    0.4660    0.0000 C   0  0  0  0  0  0  0  0  0  0  0  0
    0.6940   -1.6146    0.0000 C   0  0  0  0  0  0  0  0  0  0  0  0
    0.5752    2.1275   -0.0001 C   0  0  0  0  0  0  0  0  0  0  0  0
    2.4947    0.0469    0.0000 C   0  0  0  0  0  0  0  0  0  0  0  0
   -1.6239   -0.8775    0.0001 C   0  0  0  0  0  0  0  0  0  0  0  0
   -0.6771   -1.9038    0.0000 C   0  0  0  0  0  0  0  0  0  0  0  0
    1.9464    2.4166   -0.0001 C   0  0  0  0  0  0  0  0  0  0  0  0
    2.8931    1.3903    0.0001 C   0  0  0  0  0  0  0  0  0  0  0  0
   -2.1643    1.5080    0.0001 C   0  0  0  0  0  0  0  0  0  0  0  0
    1.6573   -2.6339    0.0000 C   0  0  0  0  0  0  0  0  0  0  0  0
   -0.3881    3.1469   -0.0001 C   0  0  0  0  0  0  0  0  0  0  0  0
    3.4333   -0.9952    0.0000 C   0  0  0  0  0  0  0  0  0  0  0  0
   -1.7473    2.8381    0.0000 C   0  0  0  0  0  0  0  0  0  0  0  0
    3.0165   -2.3253    0.0000 C   0  0  0  0  0  0  0  0  0  0  0  0
   -0.9756   -2.9511    0.0000 H   0  0  0  0  0  0  0  0  0  0  0  0
    2.2939    3.4479   -0.0002 H   0  0  0  0  0  0  0  0  0  0  0  0
    3.9490    1.6538    0.0001 H   0  0  0  0  0  0  0  0  0  0  0  0
   -3.2388    1.4702    0.0001 H   0  0  0  0  0  0  0  0  0  0  0  0
    1.3580   -3.6799    0.0000 H   0  0  0  0  0  0  0  0  0  0  0  0
   -0.0878    4.1926   -0.0002 H   0  0  0  0  0  0  0  0  0  0  0  0
    4.4997   -0.7799    0.0000 H   0  0  0  0  0  0  0  0  0  0  0  0
   -2.4807    3.6401   -0.0001 H   0  0  0  0  0  0  0  0  0  0  0  0
    3.7532   -3.1236    0.0000 H   0  0  0  0  0  0  0  0  0  0  0  0
  1  3  1  0  0  0  0
  2  3  2  0  0  0  0
  3 10  1  0  0  0  0
  4  5  1  0  0  0  0
  4  6  1  0  0  0  0
  4  8  2  0  0  0  0
  5  7  1  0  0  0  0
  5  9  2  0  0  0  0
  6 10  1  0  0  0  0
  6 14  2  0  0  0  0
  7 11  1  0  0  0  0
  7 15  2  0  0  0  0
  8 12  1  0  0  0  0
  8 16  1  0  0  0  0
  9 13  1  0  0  0  0
  9 17  1  0  0  0  0
 10 11  2  0  0  0  0
 11 20  1  0  0  0  0
 12 13  2  0  0  0  0
 12 21  1  0  0  0  0
 13 22  1  0  0  0  0
 14 18  1  0  0  0  0
 14 23  1  0  0  0  0
 15 19  1  0  0  0  0
 15 24  1  0  0  0  0
 16 18  2  0  0  0  0
 16 25  1  0  0  0  0
 17 19  2  0  0  0  0
 17 26  1  0  0  0  0
 18 27  1  0  0  0  0
 19 28  1  0  0  0  0
M  CHG  2   1  -1   3   1
M  END
> <PUBCHEM_COMPOUND_CID>
62134

> <PUBCHEM_CONFORMER_RMSD>
0.6

> <PUBCHEM_CONFORMER_DIVERSEORDER>
1

> <PUBCHEM_MMFF94_PARTIAL_CHARGES>
22
1 -0.52
10 0.13
11 -0.15
12 -0.15
13 -0.15
14 -0.15
15 -0.15
16 -0.15
17 -0.15
18 -0.15
19 -0.15
2 -0.52
20 0.15
21 0.15
22 0.15
23 0.15
24 0.15
25 0.15
26 0.15
27 0.15
28 0.15
3 0.91

> <PUBCHEM_EFFECTIVE_ROTOR_COUNT>
1

> <PUBCHEM_PHARMACOPHORE_FEATURES>
7
1 1 acceptor
1 1 anion
1 2 acceptor
6 4 5 6 7 10 11 rings
6 4 5 8 9 12 13 rings
6 4 6 8 14 16 18 rings
6 5 7 9 15 17 19 rings

> <PUBCHEM_HEAVY_ATOM_COUNT>
19

> <PUBCHEM_ATOM_DEF_STEREO_COUNT>
0

> <PUBCHEM_ATOM_UDEF_STEREO_COUNT>
0

> <PUBCHEM_BOND_DEF_STEREO_COUNT>
0

> <PUBCHEM_BOND_UDEF_STEREO_COUNT>
0

> <PUBCHEM_ISOTOPIC_ATOM_COUNT>
0

> <PUBCHEM_COMPONENT_COUNT>
1

> <PUBCHEM_CACTVS_TAUTO_COUNT>
1

> <PUBCHEM_CONFORMER_ID>
0000F2B600000001

> <PUBCHEM_MMFF94_ENERGY>
83.3277

> <PUBCHEM_FEATURE_SELFOVERLAP>
35.734

> <PUBCHEM_SHAPE_FINGERPRINT>
10319926 262 17905073665798522458
10411042 1 18410855481667126790
10967382 1 18122344575393761254
1100329 8 18050005789900095232
11578080 2 17314821588084784657
11680986 33 18337681922044567240
116883 192 18336828709558281991
12553582 1 18410570673895624967
13140716 1 18337673138772838448
13583140 156 13912606116753101679
138480 1 14519464353975107202
14178342 30 18267317610737149464
14223421 5 18410294722114546472
14790565 3 17907563736584471957
15042514 8 17763464315417559634
15442244 35 18267022954136645762
16945 1 18122344841882200164
193761 8 18338799021558015620
19591789 44 17475225808628408134
20028762 73 17827084210643594997
20510252 161 17181100345471969464
20739085 24 18197189522072192737
20905425 154 18335697243621743708
21267235 1 18338507638002348651
21501502 16 18339356469742668336
221490 88 18341044134023517402
23184049 29 18338800142686787806
2334 1 18410293618350214348
23419403 2 17770541661548942110
23463225 33 18411136917956664770
23557571 272 18044090387874157198
23558518 356 18272085028303551488
23559900 14 18336837489067819688
238 59 17402943991797020551
2748010 2 18410298029429424428
335352 9 18050287269145191741
350125 39 18338510945232492800
352729 6 17473826607125829787
54173680 148 18194682802811367010
589210 1 18338797922062173136
7364860 26 18336827481350674386
7832392 63 18121783000056903426
8809292 202 18124029297980520290
9709674 26 17974010849303015894

> <PUBCHEM_SHAPE_MULTIPOLES>
374.29
5.11
3.83
0.6
0.09
0.79
0
-2.2
0
0.92
0
-0.05
0.03
0

> <PUBCHEM_SHAPE_SELFOVERLAP>
873.583

> <PUBCHEM_SHAPE_VOLUME>
191.7

> <PUBCHEM_COORDINATE_TYPE>
2
5
10

$$$$

