71777
  -OEChem-07051213123D

 40 41  0     1  0  0  0  0  0999 V2000
    2.7526   -2.7235   -0.2910 Cl  0  0  0  0  0  0  0  0  0  0  0  0
    0.2143    2.8484    0.9245 Cl  0  0  0  0  0  0  0  0  0  0  0  0
    7.0154    0.7290   -1.6496 F   0  0  0  0  0  0  0  0  0  0  0  0
    4.3130    0.8832   -1.5967 F   0  0  0  0  0  0  0  0  0  0  0  0
    5.3041    1.7844    0.1475 F   0  0  0  0  0  0  0  0  0  0  0  0
    8.3562   -0.9610   -0.0088 F   0  0  0  0  0  0  0  0  0  0  0  0
    6.5651   -1.2976    1.1826 F   0  0  0  0  0  0  0  0  0  0  0  0
    7.4539    0.6931    1.0938 F   0  0  0  0  0  0  0  0  0  0  0  0
   -4.8974    1.8764   -0.7601 F   0  0  0  0  0  0  0  0  0  0  0  0
   -7.1184   -2.1199    0.5272 F   0  0  0  0  0  0  0  0  0  0  0  0
    4.2212   -0.1952    0.4076 O   0  0  0  0  0  0  0  0  0  0  0  0
   -1.9837   -1.8632   -0.3519 O   0  0  0  0  0  0  0  0  0  0  0  0
   -4.7476   -2.0860   -0.5644 O   0  0  0  0  0  0  0  0  0  0  0  0
   -1.3033    0.3110    0.2203 N   0  0  0  0  0  0  0  0  0  0  0  0
   -3.5404   -0.1694   -0.0226 N   0  0  0  0  0  0  0  0  0  0  0  0
    6.3079   -0.0923   -0.8227 C   0  0  2  0  0  0  0  0  0  0  0  0
    5.0102    0.6109   -0.4668 C   0  0  0  0  0  0  0  0  0  0  0  0
    2.8634   -0.0844    0.3578 C   0  0  0  0  0  0  0  0  0  0  0  0
    0.1059    0.2000    0.2721 C   0  0  0  0  0  0  0  0  0  0  0  0
    7.1822   -0.4121    0.3688 C   0  0  0  0  0  0  0  0  0  0  0  0
    2.0590   -1.1799    0.0446 C   0  0  0  0  0  0  0  0  0  0  0  0
    2.2811    1.1540    0.6280 C   0  0  0  0  0  0  0  0  0  0  0  0
    0.8942    1.2968    0.5847 C   0  0  0  0  0  0  0  0  0  0  0  0
    0.6721   -1.0371    0.0014 C   0  0  0  0  0  0  0  0  0  0  0  0
   -2.2319   -0.6920   -0.0770 C   0  0  0  0  0  0  0  0  0  0  0  0
   -5.9761   -0.1407   -0.1202 C   0  0  0  0  0  0  0  0  0  0  0  0
   -4.7314   -0.8795   -0.2656 C   0  0  0  0  0  0  0  0  0  0  0  0
   -6.0081    1.2299   -0.3779 C   0  0  0  0  0  0  0  0  0  0  0  0
   -7.1376   -0.8028    0.2772 C   0  0  0  0  0  0  0  0  0  0  0  0
   -7.2016    1.9382   -0.2384 C   0  0  0  0  0  0  0  0  0  0  0  0
   -8.3312   -0.0945    0.4167 C   0  0  0  0  0  0  0  0  0  0  0  0
   -8.3631    1.2759    0.1590 C   0  0  0  0  0  0  0  0  0  0  0  0
    6.0961   -1.0109   -1.3795 H   0  0  0  0  0  0  0  0  0  0  0  0
    2.9074    2.0061    0.8813 H   0  0  0  0  0  0  0  0  0  0  0  0
    0.1155   -1.9273   -0.2471 H   0  0  0  0  0  0  0  0  0  0  0  0
   -1.6733    1.2357    0.4255 H   0  0  0  0  0  0  0  0  0  0  0  0
   -3.6142    0.8088    0.2418 H   0  0  0  0  0  0  0  0  0  0  0  0
   -7.2261    3.0051   -0.4390 H   0  0  0  0  0  0  0  0  0  0  0  0
   -9.2355   -0.6103    0.7259 H   0  0  0  0  0  0  0  0  0  0  0  0
   -9.2924    1.8274    0.2676 H   0  0  0  0  0  0  0  0  0  0  0  0
  1 21  1  0  0  0  0
  2 23  1  0  0  0  0
  3 16  1  0  0  0  0
  4 17  1  0  0  0  0
  5 17  1  0  0  0  0
  6 20  1  0  0  0  0
  7 20  1  0  0  0  0
  8 20  1  0  0  0  0
  9 28  1  0  0  0  0
 10 29  1  0  0  0  0
 11 17  1  0  0  0  0
 11 18  1  0  0  0  0
 12 25  2  0  0  0  0
 13 27  2  0  0  0  0
 14 19  1  0  0  0  0
 14 25  1  0  0  0  0
 14 36  1  0  0  0  0
 15 25  1  0  0  0  0
 15 27  1  0  0  0  0
 15 37  1  0  0  0  0
 16 17  1  0  0  0  0
 16 20  1  0  0  0  0
 16 33  1  0  0  0  0
 18 21  2  0  0  0  0
 18 22  1  0  0  0  0
 19 23  1  0  0  0  0
 19 24  2  0  0  0  0
 21 24  1  0  0  0  0
 22 23  2  0  0  0  0
 22 34  1  0  0  0  0
 24 35  1  0  0  0  0
 26 27  1  0  0  0  0
 26 28  2  0  0  0  0
 26 29  1  0  0  0  0
 28 30  1  0  0  0  0
 29 31  2  0  0  0  0
 30 32  2  0  0  0  0
 30 38  1  0  0  0  0
 31 32  1  0  0  0  0
 31 39  1  0  0  0  0
 32 40  1  0  0  0  0
M  END
> <PUBCHEM_COMPOUND_CID>
71777

> <PUBCHEM_CONFORMER_RMSD>
1

> <PUBCHEM_CONFORMER_DIVERSEORDER>
1
130
168
98
24
112
52
41
51
71
17
58
137
118
68
100
113
142
117
102
67
105
99
107
37
129
49
94
153
34
62
69
61
10
82
26
79
160
174
148
165
116
75
73
127
162
45
145
135
20
12
163
169
23
78
81
97
154
48
106
111
170
151
19
64
173
175
76
53
50
167
21
27
146
90
42
47
88
144
134
87
124
72
95
110
157
172
103
35
40
122
43
164
92
171
14
86
176
36
22
133
93
84
138
57
13
83
6
28
89
18
70
30
139
46
65
15
149
104
63
29
38
31
25
114
159
126
39
56
166
77
16
3
141
150
147
115
11
128
121
33
156
101
158
7
44
74
80
161
136
2
96
32
8
9
155
152
5
123
4
125
131
119
108
140
59
91
109
143
120
132
60
55
66
54
85

> <PUBCHEM_MMFF94_PARTIAL_CHARGES>
39
1 -0.18
10 -0.19
11 -0.36
12 -0.57
13 -0.57
14 -0.55
15 -0.49
16 0.34
17 0.96
18 0.08
19 0.12
2 -0.18
20 1.02
21 0.18
22 -0.15
23 0.18
24 -0.15
25 0.69
26 0.09
27 0.54
28 0.19
29 0.19
3 -0.34
30 -0.15
31 -0.15
32 -0.15
34 0.15
35 0.15
36 0.37
37 0.37
38 0.15
39 0.15
4 -0.34
40 0.15
5 -0.34
6 -0.34
7 -0.34
8 -0.34
9 -0.19

> <PUBCHEM_EFFECTIVE_ROTOR_COUNT>
9

> <PUBCHEM_PHARMACOPHORE_FEATURES>
7
1 11 acceptor
1 12 acceptor
1 13 acceptor
1 14 donor
1 15 donor
6 18 19 21 22 23 24 rings
6 26 28 29 30 31 32 rings

> <PUBCHEM_HEAVY_ATOM_COUNT>
32

> <PUBCHEM_ATOM_DEF_STEREO_COUNT>
0

> <PUBCHEM_ATOM_UDEF_STEREO_COUNT>
1

> <PUBCHEM_BOND_DEF_STEREO_COUNT>
0

> <PUBCHEM_BOND_UDEF_STEREO_COUNT>
0

> <PUBCHEM_ISOTOPIC_ATOM_COUNT>
0

> <PUBCHEM_COMPONENT_COUNT>
1

> <PUBCHEM_CACTVS_TAUTO_COUNT>
5

> <PUBCHEM_CONFORMER_ID>
0001186100000001

> <PUBCHEM_MMFF94_ENERGY>
81.6072

> <PUBCHEM_FEATURE_SELFOVERLAP>
35.575

> <PUBCHEM_SHAPE_FINGERPRINT>
10 15 18202282524873219779
10050765 1 18048033262113792552
100830 39 18411139169453847641
10299344 5 18060420218209682035
10319688 140 16589136307387078286
106641 1 9799687078857390398
11135926 11 18338528503254374431
11719270 70 18334860541386428590
12664476 115 18411703189096556309
12838862 33 18115041765191019722
14251752 14 18411700993165293349
14251764 18 18272090500540064891
14251764 46 18410573989446457426
14294032 229 18196647613080028644
14933364 13 18411417319935278519
15183329 4 18259700116627815121
15198563 99 16661193858011310849
15419008 47 17530972397061973641
15439362 3 18048880685074671944
15840311 113 17561076978090537196
15849732 13 17458345230093409397
16087824 20 18262517122081830329
16989713 51 17896324611221184423
18335252 98 18341325648646463843
18608769 82 18411700968165518923
19611394 137 17916009172118601091
19841028 212 18271811293686792010
21267235 1 18334855008813715713
21315763 28 18343584019074004253
21365058 27 15841551877609616657
21792934 111 18187092750034324744
21792961 116 18339085989729170397
22224240 67 11024107633436395344
23559900 14 18041569022948750793
24771293 8 17825408301182671248
249057 3 17967817124520862951
3092352 35 17489586753796409538
335352 9 18334579027701537389
335507 130 18411976928568284807
4073 2 18131627847116154483
4098825 35 18060422451365731637
4325135 7 18201719569802054365
4339292 15 17749960943541628079
5283156 175 18411699911529756602
5758199 1 17418374688421024267

> <PUBCHEM_SHAPE_MULTIPOLES>
576.52
27.16
2.27
0.92
8.02
0.02
0.14
1.19
0.57
1.2
-0.14
-1.13
0.18
0.17

> <PUBCHEM_SHAPE_SELFOVERLAP>
1230.332

> <PUBCHEM_SHAPE_VOLUME>
320.8

> <PUBCHEM_COORDINATE_TYPE>
2
5
10

$$$$

