31412
  -OEChem-07051213143D

 38 43  0     0  0  0  0  0  0999 V2000
    3.0210   -2.8849   -0.0008 O   0  0  0  0  0  0  0  0  0  0  0  0
   -3.0211    2.8848   -0.0001 O   0  0  0  0  0  0  0  0  0  0  0  0
   -0.7066    0.1118    0.0001 C   0  0  0  0  0  0  0  0  0  0  0  0
    0.7065   -0.1119   -0.0001 C   0  0  0  0  0  0  0  0  0  0  0  0
   -1.6209   -0.9782    0.0002 C   0  0  0  0  0  0  0  0  0  0  0  0
    1.6209    0.9782    0.0000 C   0  0  0  0  0  0  0  0  0  0  0  0
   -1.1653    1.4389    0.0001 C   0  0  0  0  0  0  0  0  0  0  0  0
    1.1652   -1.4388   -0.0002 C   0  0  0  0  0  0  0  0  0  0  0  0
   -3.0855   -0.7200    0.0004 C   0  0  0  0  0  0  0  0  0  0  0  0
    3.0857    0.7200   -0.0001 C   0  0  0  0  0  0  0  0  0  0  0  0
   -3.5705    0.6007   -0.0005 C   0  0  0  0  0  0  0  0  0  0  0  0
    3.5705   -0.6007   -0.0003 C   0  0  0  0  0  0  0  0  0  0  0  0
   -1.0941   -2.2807    0.0002 C   0  0  0  0  0  0  0  0  0  0  0  0
    1.0941    2.2806    0.0005 C   0  0  0  0  0  0  0  0  0  0  0  0
    2.6161   -1.7288   -0.0004 C   0  0  0  0  0  0  0  0  0  0  0  0
   -2.6161    1.7287   -0.0006 C   0  0  0  0  0  0  0  0  0  0  0  0
   -0.2770    2.5123    0.0003 C   0  0  0  0  0  0  0  0  0  0  0  0
    0.2770   -2.5123    0.0000 C   0  0  0  0  0  0  0  0  0  0  0  0
   -4.0534   -1.7445    0.0010 C   0  0  0  0  0  0  0  0  0  0  0  0
    4.0535    1.7445   -0.0001 C   0  0  0  0  0  0  0  0  0  0  0  0
   -4.9454    0.8856   -0.0009 C   0  0  0  0  0  0  0  0  0  0  0  0
    4.9454   -0.8855    0.0000 C   0  0  0  0  0  0  0  0  0  0  0  0
   -5.4251   -1.4657    0.0007 C   0  0  0  0  0  0  0  0  0  0  0  0
    5.4250    1.4658    0.0005 C   0  0  0  0  0  0  0  0  0  0  0  0
   -5.8708   -0.1513   -0.0003 C   0  0  0  0  0  0  0  0  0  0  0  0
    5.8708    0.1513    0.0004 C   0  0  0  0  0  0  0  0  0  0  0  0
   -1.7339   -3.1581    0.0002 H   0  0  0  0  0  0  0  0  0  0  0  0
    1.7339    3.1580    0.0007 H   0  0  0  0  0  0  0  0  0  0  0  0
   -0.6285    3.5407    0.0004 H   0  0  0  0  0  0  0  0  0  0  0  0
    0.6285   -3.5407   -0.0001 H   0  0  0  0  0  0  0  0  0  0  0  0
   -3.7739   -2.7941    0.0017 H   0  0  0  0  0  0  0  0  0  0  0  0
    3.7740    2.7940    0.0000 H   0  0  0  0  0  0  0  0  0  0  0  0
   -5.3110    1.9090   -0.0015 H   0  0  0  0  0  0  0  0  0  0  0  0
    5.3110   -1.9089    0.0000 H   0  0  0  0  0  0  0  0  0  0  0  0
   -6.1419   -2.2821    0.0012 H   0  0  0  0  0  0  0  0  0  0  0  0
    6.1419    2.2820    0.0007 H   0  0  0  0  0  0  0  0  0  0  0  0
   -6.9346    0.0654   -0.0005 H   0  0  0  0  0  0  0  0  0  0  0  0
    6.9346   -0.0654    0.0007 H   0  0  0  0  0  0  0  0  0  0  0  0
  1 15  2  0  0  0  0
  2 16  2  0  0  0  0
  3  4  1  0  0  0  0
  3  5  2  0  0  0  0
  3  7  1  0  0  0  0
  4  6  1  0  0  0  0
  4  8  2  0  0  0  0
  5  9  1  0  0  0  0
  5 13  1  0  0  0  0
  6 10  1  0  0  0  0
  6 14  2  0  0  0  0
  7 16  1  0  0  0  0
  7 17  2  0  0  0  0
  8 15  1  0  0  0  0
  8 18  1  0  0  0  0
  9 11  1  0  0  0  0
  9 19  2  0  0  0  0
 10 12  1  0  0  0  0
 10 20  2  0  0  0  0
 11 16  1  0  0  0  0
 11 21  2  0  0  0  0
 12 15  1  0  0  0  0
 12 22  2  0  0  0  0
 13 18  2  0  0  0  0
 13 27  1  0  0  0  0
 14 17  1  0  0  0  0
 14 28  1  0  0  0  0
 17 29  1  0  0  0  0
 18 30  1  0  0  0  0
 19 23  1  0  0  0  0
 19 31  1  0  0  0  0
 20 24  1  0  0  0  0
 20 32  1  0  0  0  0
 21 25  1  0  0  0  0
 21 33  1  0  0  0  0
 22 26  1  0  0  0  0
 22 34  1  0  0  0  0
 23 25  2  0  0  0  0
 23 35  1  0  0  0  0
 24 26  2  0  0  0  0
 24 36  1  0  0  0  0
 25 37  1  0  0  0  0
 26 38  1  0  0  0  0
M  END
> <PUBCHEM_COMPOUND_CID>
31412

> <PUBCHEM_CONFORMER_RMSD>
0.6

> <PUBCHEM_CONFORMER_DIVERSEORDER>
1

> <PUBCHEM_MMFF94_PARTIAL_CHARGES>
32
1 -0.57
11 0.09
12 0.09
13 -0.15
14 -0.15
15 0.4
16 0.4
17 -0.15
18 -0.15
19 -0.15
2 -0.57
20 -0.15
21 -0.15
22 -0.15
23 -0.15
24 -0.15
25 -0.15
26 -0.15
27 0.15
28 0.15
29 0.15
30 0.15
31 0.15
32 0.15
33 0.15
34 0.15
35 0.15
36 0.15
37 0.15
38 0.15
7 0.09
8 0.09

> <PUBCHEM_EFFECTIVE_ROTOR_COUNT>
0

> <PUBCHEM_PHARMACOPHORE_FEATURES>
8
1 1 acceptor
1 2 acceptor
6 10 12 20 22 24 26 rings
6 3 4 5 8 13 18 rings
6 3 4 6 7 14 17 rings
6 3 5 7 9 11 16 rings
6 4 6 8 10 12 15 rings
6 9 11 19 21 23 25 rings

> <PUBCHEM_HEAVY_ATOM_COUNT>
26

> <PUBCHEM_ATOM_DEF_STEREO_COUNT>
0

> <PUBCHEM_ATOM_UDEF_STEREO_COUNT>
0

> <PUBCHEM_BOND_DEF_STEREO_COUNT>
0

> <PUBCHEM_BOND_UDEF_STEREO_COUNT>
0

> <PUBCHEM_ISOTOPIC_ATOM_COUNT>
0

> <PUBCHEM_COMPONENT_COUNT>
1

> <PUBCHEM_CACTVS_TAUTO_COUNT>
1

> <PUBCHEM_CONFORMER_ID>
00007AB400000001

> <PUBCHEM_MMFF94_ENERGY>
94.0597

> <PUBCHEM_FEATURE_SELFOVERLAP>
40.748

> <PUBCHEM_SHAPE_FINGERPRINT>
10 15 18340215077504411264
10411042 1 17906171007961456070
10616163 171 18409448119657100996
10675989 125 16900191651694714005
10906281 52 18339622478352099146
10967382 1 18410855455901850726
1100329 8 18266459793508007962
11112241 14 16301223458304449776
11135609 12 17773579548073776987
11963148 33 18341057310978641002
12011746 2 18410855442948292726
12107183 9 17762338423751836363
12236239 1 18410573976561516545
12788726 201 17530955921260996480
12838862 33 18338254686014116584
13140716 1 17978229357226754289
13402501 40 18410855447243259968
13862211 1 18410859836726502498
14341114 176 18411694396501643579
14787075 74 18412827971124699659
14790565 3 18410569569957200068
15196674 1 18410575106137915397
15219462 58 15697726977452013693
15927050 60 17541943083597252068
1601671 61 18410575067530689074
17349148 13 18131350804117976540
17492 89 18266459995593861450
1813 80 17346876766812338308
19591789 44 18410575127713180046
20028762 73 18114748131510820839
21236236 1 18408885153020052921
21267235 1 18410285921995770702
21279426 13 18338799030026371535
21421861 104 18130516352487223370
22393880 68 18266734869336914902
23402539 116 18334862679804771503
23559900 14 18337680711169959449
3004659 81 18272369768082907532
3178227 256 18340754954650379595
335352 9 18410575050303340991
338550 245 18342172228806120812
34934 24 18410015403459831926
350125 39 18410573972293371241
3680242 22 18342460378531203330
3886686 26 17046016533327784650
4073 2 18059569148717594083
4214541 1 18410856594042148193
474229 33 18409730651248663367
5104073 3 18338516459833000841
6138700 20 18411980278072770810
9709674 26 18410567414226547854

> <PUBCHEM_SHAPE_MULTIPOLES>
523.33
12.11
2.99
0.61
0
0
0
0
0
0
0
0
0
0

> <PUBCHEM_SHAPE_SELFOVERLAP>
1233.092

> <PUBCHEM_SHAPE_VOLUME>
260.8

> <PUBCHEM_COORDINATE_TYPE>
2
5
10

$$$$

