5280710
  -OEChem-07051212493D

 57 57  0     1  0  0  0  0  0999 V2000
    2.6642    4.3598    0.7516 O   0  0  0  0  0  0  0  0  0  0  0  0
   -1.9722    4.1088    0.0361 O   0  0  0  0  0  0  0  0  0  0  0  0
    3.8366   -0.3371   -1.6333 O   0  0  0  0  0  0  0  0  0  0  0  0
   -8.4925   -3.2749   -0.6116 O   0  0  0  0  0  0  0  0  0  0  0  0
   -7.1169   -3.4937    1.1820 O   0  0  0  0  0  0  0  0  0  0  0  0
   -0.2638    2.4144   -0.2861 C   0  0  1  0  0  0  0  0  0  0  0  0
    1.1785    2.5188    0.2326 C   0  0  2  0  0  0  0  0  0  0  0  0
    1.5719    3.9716   -0.0663 C   0  0  1  0  0  0  0  0  0  0  0  0
   -1.0731    1.3268    0.3983 C   0  0  0  0  0  0  0  0  0  0  0  0
    0.3272    4.7847    0.2816 C   0  0  0  0  0  0  0  0  0  0  0  0
   -0.7860    3.8042    0.0167 C   0  0  0  0  0  0  0  0  0  0  0  0
   -2.3446    0.9957   -0.3852 C   0  0  0  0  0  0  0  0  0  0  0  0
    2.0934    1.5243   -0.4074 C   0  0  0  0  0  0  0  0  0  0  0  0
   -3.1739   -0.0734    0.3291 C   0  0  0  0  0  0  0  0  0  0  0  0
   -4.4574   -0.4494   -0.4173 C   0  0  0  0  0  0  0  0  0  0  0  0
    2.7914    0.6148    0.2845 C   0  0  0  0  0  0  0  0  0  0  0  0
   -5.3177   -1.5325    0.2400 C   0  0  0  0  0  0  0  0  0  0  0  0
    3.6922   -0.3457   -0.4129 C   0  0  0  0  0  0  0  0  0  0  0  0
    4.4368   -1.3343    0.4622 C   0  0  0  0  0  0  0  0  0  0  0  0
   -6.5548   -1.9053   -0.5761 C   0  0  0  0  0  0  0  0  0  0  0  0
    5.3897   -2.2180   -0.3382 C   0  0  0  0  0  0  0  0  0  0  0  0
    6.1318   -3.2296    0.5397 C   0  0  0  0  0  0  0  0  0  0  0  0
    7.0534   -4.1179   -0.2967 C   0  0  0  0  0  0  0  0  0  0  0  0
   -7.3836   -2.9669    0.1108 C   0  0  0  0  0  0  0  0  0  0  0  0
    7.7694   -5.1453    0.5656 C   0  0  0  0  0  0  0  0  0  0  0  0
   -0.2690    2.2910   -1.3770 H   0  0  0  0  0  0  0  0  0  0  0  0
    1.1902    2.3749    1.3238 H   0  0  0  0  0  0  0  0  0  0  0  0
    1.8474    4.1091   -1.1194 H   0  0  0  0  0  0  0  0  0  0  0  0
   -1.3391    1.6325    1.4181 H   0  0  0  0  0  0  0  0  0  0  0  0
   -0.4741    0.4122    0.4851 H   0  0  0  0  0  0  0  0  0  0  0  0
    0.3108    5.0873    1.3328 H   0  0  0  0  0  0  0  0  0  0  0  0
    0.2335    5.6621   -0.3631 H   0  0  0  0  0  0  0  0  0  0  0  0
   -2.9625    1.8891   -0.5210 H   0  0  0  0  0  0  0  0  0  0  0  0
   -2.0757    0.6373   -1.3864 H   0  0  0  0  0  0  0  0  0  0  0  0
    2.1788    1.5683   -1.4907 H   0  0  0  0  0  0  0  0  0  0  0  0
   -3.4387    0.2815    1.3328 H   0  0  0  0  0  0  0  0  0  0  0  0
   -2.5642   -0.9755    0.4632 H   0  0  0  0  0  0  0  0  0  0  0  0
    2.8275    5.3046    0.5890 H   0  0  0  0  0  0  0  0  0  0  0  0
   -4.1868   -0.7842   -1.4270 H   0  0  0  0  0  0  0  0  0  0  0  0
   -5.0678    0.4536   -0.5452 H   0  0  0  0  0  0  0  0  0  0  0  0
    2.7267    0.5471    1.3648 H   0  0  0  0  0  0  0  0  0  0  0  0
   -5.6244   -1.1890    1.2360 H   0  0  0  0  0  0  0  0  0  0  0  0
   -4.7042   -2.4286    0.3988 H   0  0  0  0  0  0  0  0  0  0  0  0
    3.6964   -1.9582    0.9758 H   0  0  0  0  0  0  0  0  0  0  0  0
    5.0022   -0.7712    1.2135 H   0  0  0  0  0  0  0  0  0  0  0  0
   -6.2507   -2.2894   -1.5559 H   0  0  0  0  0  0  0  0  0  0  0  0
   -7.1835   -1.0196   -0.7182 H   0  0  0  0  0  0  0  0  0  0  0  0
    6.1188   -1.5886   -0.8643 H   0  0  0  0  0  0  0  0  0  0  0  0
    4.8260   -2.7554   -1.1115 H   0  0  0  0  0  0  0  0  0  0  0  0
    6.7187   -2.6973    1.2979 H   0  0  0  0  0  0  0  0  0  0  0  0
    5.4040   -3.8535    1.0727 H   0  0  0  0  0  0  0  0  0  0  0  0
    6.4718   -4.6389   -1.0660 H   0  0  0  0  0  0  0  0  0  0  0  0
    7.7965   -3.5002   -0.8142 H   0  0  0  0  0  0  0  0  0  0  0  0
    8.4236   -5.7686   -0.0519 H   0  0  0  0  0  0  0  0  0  0  0  0
    8.3853   -4.6570    1.3276 H   0  0  0  0  0  0  0  0  0  0  0  0
    7.0531   -5.8011    1.0708 H   0  0  0  0  0  0  0  0  0  0  0  0
   -9.0369   -3.9614   -0.1703 H   0  0  0  0  0  0  0  0  0  0  0  0
  1  8  1  0  0  0  0
  1 38  1  0  0  0  0
  2 11  2  0  0  0  0
  3 18  2  0  0  0  0
  4 24  1  0  0  0  0
  4 57  1  0  0  0  0
  5 24  2  0  0  0  0
  6  7  1  0  0  0  0
  6  9  1  0  0  0  0
  6 11  1  0  0  0  0
  6 26  1  0  0  0  0
  7  8  1  0  0  0  0
  7 13  1  0  0  0  0
  7 27  1  0  0  0  0
  8 10  1  0  0  0  0
  8 28  1  0  0  0  0
  9 12  1  0  0  0  0
  9 29  1  0  0  0  0
  9 30  1  0  0  0  0
 10 11  1  0  0  0  0
 10 31  1  0  0  0  0
 10 32  1  0  0  0  0
 12 14  1  0  0  0  0
 12 33  1  0  0  0  0
 12 34  1  0  0  0  0
 13 16  2  0  0  0  0
 13 35  1  0  0  0  0
 14 15  1  0  0  0  0
 14 36  1  0  0  0  0
 14 37  1  0  0  0  0
 15 17  1  0  0  0  0
 15 39  1  0  0  0  0
 15 40  1  0  0  0  0
 16 18  1  0  0  0  0
 16 41  1  0  0  0  0
 17 20  1  0  0  0  0
 17 42  1  0  0  0  0
 17 43  1  0  0  0  0
 18 19  1  0  0  0  0
 19 21  1  0  0  0  0
 19 44  1  0  0  0  0
 19 45  1  0  0  0  0
 20 24  1  0  0  0  0
 20 46  1  0  0  0  0
 20 47  1  0  0  0  0
 21 22  1  0  0  0  0
 21 48  1  0  0  0  0
 21 49  1  0  0  0  0
 22 23  1  0  0  0  0
 22 50  1  0  0  0  0
 22 51  1  0  0  0  0
 23 25  1  0  0  0  0
 23 52  1  0  0  0  0
 23 53  1  0  0  0  0
 25 54  1  0  0  0  0
 25 55  1  0  0  0  0
 25 56  1  0  0  0  0
M  END
> <PUBCHEM_COMPOUND_CID>
5280710

> <PUBCHEM_CONFORMER_RMSD>
1.2

> <PUBCHEM_CONFORMER_DIVERSEORDER>
1
96
49
3
142
147
104
58
54
89
108
116
26
103
35
20
138
155
21
56
30
127
29
27
86
134
15
151
135
24
25
105
97
144
87
122
43
94
161
52
7
114
65
41
39
112
32
150
143
139
118
31
153
34
115
160
72
42
109
119
83
130
156
81
157
88
66
107
162
146
132
91
12
36
47
11
74
50
140
63
101
137
51
154
14
117
48
113
71
17
13
124
149
121
128
110
85
126
78
95
125
70
100
44
84
28
9
129
10
80
37
45
145
19
133
120
92
18
158
69
82
5
131
62
102
75
111
123
23
136
6
152
148
33
16
46
53
98
40
159
22
59
68
64
57
93
67
76
90
4
61
99
60
141
73
106
79
8
38
77
55
2

> <PUBCHEM_MMFF94_PARTIAL_CHARGES>
20
1 -0.68
10 0.06
11 0.45
13 -0.29
16 -0.14
18 0.49
19 0.06
2 -0.57
20 0.06
24 0.66
3 -0.57
35 0.15
38 0.4
4 -0.65
41 0.15
5 -0.57
57 0.5
6 0.06
7 0.14
8 0.28

> <PUBCHEM_EFFECTIVE_ROTOR_COUNT>
13.8

> <PUBCHEM_PHARMACOPHORE_FEATURES>
12
1 1 acceptor
1 1 donor
1 2 acceptor
1 25 hydrophobe
1 3 acceptor
1 4 acceptor
1 5 acceptor
3 15 17 20 hydrophobe
3 4 5 24 anion
3 9 12 14 hydrophobe
4 19 21 22 23 hydrophobe
5 6 7 8 10 11 rings

> <PUBCHEM_HEAVY_ATOM_COUNT>
25

> <PUBCHEM_ATOM_DEF_STEREO_COUNT>
3

> <PUBCHEM_ATOM_UDEF_STEREO_COUNT>
0

> <PUBCHEM_BOND_DEF_STEREO_COUNT>
1

> <PUBCHEM_BOND_UDEF_STEREO_COUNT>
0

> <PUBCHEM_ISOTOPIC_ATOM_COUNT>
0

> <PUBCHEM_COMPONENT_COUNT>
1

> <PUBCHEM_CACTVS_TAUTO_COUNT>
21

> <PUBCHEM_CONFORMER_ID>
005093C600000001

> <PUBCHEM_MMFF94_ENERGY>
23.3545

> <PUBCHEM_FEATURE_SELFOVERLAP>
60.951

> <PUBCHEM_SHAPE_FINGERPRINT>
10319688 140 18267302036837860028
10411042 1 18410294734967799812
11059845 2 17460572944395202801
11135609 149 18265073361444686069
117089 54 18411133671025621514
11761917 116 18338509846581345222
11761917 87 18200581511898572867
12107183 9 18261940922043109049
13533116 47 18117554017008240281
13911852 28 18410573955709250301
13955234 65 17973726870497905137
14344974 204 18120655988414096742
14844126 61 18051127287861092096
14866123 147 18265891552836022937
15152005 1 18335702770950651478
15152005 304 18338223942549677911
15467298 65 17623859328698578722
15773216 30 18270113492961253860
15803439 3 14405172993833107506
16990366 60 18413111654068736706
17492 89 18409731738303196385
20165401 70 18190462654521611631
20775438 99 17980211793998948851
21130935 74 18194116314823415035
21360442 33 18267024960424774559
22956985 138 18410016546691707880
23523788 1 18119560719980595962
3421961 26 18336547101475196825
406291 66 18411702122958989906
5309563 4 18410292540414020111
5718773 13 18411420639360286846
7970288 3 18410576201397443023

> <PUBCHEM_SHAPE_MULTIPOLES>
485.14
21.63
8.56
0.86
10.13
2.49
0.08
-54.26
-0.44
-3.41
-1.41
-0.12
-0.25
-0.2

> <PUBCHEM_SHAPE_SELFOVERLAP>
949.353

> <PUBCHEM_SHAPE_VOLUME>
291.4

> <PUBCHEM_COORDINATE_TYPE>
2
5
10

$$$$

