5281641
  -OEChem-07051212583D

 56 59  0     0  0  0  0  0  0999 V2000
   -2.5173   -1.2643   -0.2581 O   0  0  0  0  0  0  0  0  0  0  0  0
    0.1016    2.7505    0.3343 O   0  0  0  0  0  0  0  0  0  0  0  0
   -4.5921    3.0176    0.6133 O   0  0  0  0  0  0  0  0  0  0  0  0
    0.0716   -1.2700   -0.3975 O   0  0  0  0  0  0  0  0  0  0  0  0
    4.9395    0.1788   -0.3792 O   0  0  0  0  0  0  0  0  0  0  0  0
    4.8279    2.8898    0.1188 O   0  0  0  0  0  0  0  0  0  0  0  0
   -3.7950   -1.8498   -0.5617 C   0  0  0  0  0  0  0  0  0  0  0  0
   -4.9051   -1.2597    0.3177 C   0  0  0  0  0  0  0  0  0  0  0  0
   -4.9881    0.2493    0.1552 C   0  0  0  0  0  0  0  0  0  0  0  0
   -3.6159    0.8577    0.1971 C   0  0  0  0  0  0  0  0  0  0  0  0
   -2.4643    0.0843   -0.0194 C   0  0  0  0  0  0  0  0  0  0  0  0
   -4.0737   -1.6924   -2.0638 C   0  0  0  0  0  0  0  0  0  0  0  0
   -3.6553   -3.3463   -0.2466 C   0  0  0  0  0  0  0  0  0  0  0  0
   -1.1955    0.6924    0.0300 C   0  0  0  0  0  0  0  0  0  0  0  0
   -3.4910    2.2341    0.4257 C   0  0  0  0  0  0  0  0  0  0  0  0
   -1.0869    2.0648    0.2714 C   0  0  0  0  0  0  0  0  0  0  0  0
    0.0594   -0.0681   -0.1747 C   0  0  0  0  0  0  0  0  0  0  0  0
   -2.2348    2.8335    0.4653 C   0  0  0  0  0  0  0  0  0  0  0  0
    1.3196    0.6868   -0.1013 C   0  0  0  0  0  0  0  0  0  0  0  0
    1.2677    2.0548    0.1497 C   0  0  0  0  0  0  0  0  0  0  0  0
    2.5497    0.0464   -0.2800 C   0  0  0  0  0  0  0  0  0  0  0  0
    2.6725   -1.4205   -0.5527 C   0  0  0  0  0  0  0  0  0  0  0  0
    3.7301    0.7862   -0.2056 C   0  0  0  0  0  0  0  0  0  0  0  0
    2.4520    2.7915    0.2232 C   0  0  0  0  0  0  0  0  0  0  0  0
    3.6817    2.1570    0.0456 C   0  0  0  0  0  0  0  0  0  0  0  0
    2.7897   -2.2399    0.7067 C   0  0  0  0  0  0  0  0  0  0  0  0
    2.4022   -3.5141    0.9065 C   0  0  0  0  0  0  0  0  0  0  0  0
    5.4475    0.1197   -1.7095 C   0  0  0  0  0  0  0  0  0  0  0  0
    2.5495   -4.2740    2.1941 C   0  0  0  0  0  0  0  0  0  0  0  0
    1.7529   -4.2959   -0.2045 C   0  0  0  0  0  0  0  0  0  0  0  0
   -4.6829   -1.4775    1.3718 H   0  0  0  0  0  0  0  0  0  0  0  0
   -5.8769   -1.7150    0.0934 H   0  0  0  0  0  0  0  0  0  0  0  0
   -5.6152    0.6507    0.9601 H   0  0  0  0  0  0  0  0  0  0  0  0
   -5.4655    0.5059   -0.7977 H   0  0  0  0  0  0  0  0  0  0  0  0
   -3.2800   -2.1641   -2.6550 H   0  0  0  0  0  0  0  0  0  0  0  0
   -5.0293   -2.1481   -2.3430 H   0  0  0  0  0  0  0  0  0  0  0  0
   -4.0904   -0.6418   -2.3712 H   0  0  0  0  0  0  0  0  0  0  0  0
   -2.8422   -3.7949   -0.8293 H   0  0  0  0  0  0  0  0  0  0  0  0
   -3.3971   -3.5004    0.8076 H   0  0  0  0  0  0  0  0  0  0  0  0
   -4.5792   -3.8933   -0.4612 H   0  0  0  0  0  0  0  0  0  0  0  0
   -2.1418    3.9019    0.6473 H   0  0  0  0  0  0  0  0  0  0  0  0
    1.9305   -1.7686   -1.2721 H   0  0  0  0  0  0  0  0  0  0  0  0
    3.5954   -1.6214   -1.1095 H   0  0  0  0  0  0  0  0  0  0  0  0
    2.4175    3.8607    0.4185 H   0  0  0  0  0  0  0  0  0  0  0  0
   -4.3104    3.9375    0.7560 H   0  0  0  0  0  0  0  0  0  0  0  0
    3.2698   -1.7408    1.5486 H   0  0  0  0  0  0  0  0  0  0  0  0
    5.5865    2.2877    0.0315 H   0  0  0  0  0  0  0  0  0  0  0  0
    6.1570   -0.7103   -1.7695 H   0  0  0  0  0  0  0  0  0  0  0  0
    5.9776    1.0481   -1.9422 H   0  0  0  0  0  0  0  0  0  0  0  0
    4.6553   -0.0407   -2.4486 H   0  0  0  0  0  0  0  0  0  0  0  0
    3.0040   -3.6570    2.9762 H   0  0  0  0  0  0  0  0  0  0  0  0
    1.5705   -4.6045    2.5558 H   0  0  0  0  0  0  0  0  0  0  0  0
    3.1857   -5.1530    2.0494 H   0  0  0  0  0  0  0  0  0  0  0  0
    1.8817   -3.8597   -1.1972 H   0  0  0  0  0  0  0  0  0  0  0  0
    2.1886   -5.3003   -0.2572 H   0  0  0  0  0  0  0  0  0  0  0  0
    0.6804   -4.4016   -0.0110 H   0  0  0  0  0  0  0  0  0  0  0  0
  1  7  1  0  0  0  0
  1 11  1  0  0  0  0
  2 16  1  0  0  0  0
  2 20  1  0  0  0  0
  3 15  1  0  0  0  0
  3 45  1  0  0  0  0
  4 17  2  0  0  0  0
  5 23  1  0  0  0  0
  5 28  1  0  0  0  0
  6 25  1  0  0  0  0
  6 47  1  0  0  0  0
  7  8  1  0  0  0  0
  7 12  1  0  0  0  0
  7 13  1  0  0  0  0
  8  9  1  0  0  0  0
  8 31  1  0  0  0  0
  8 32  1  0  0  0  0
  9 10  1  0  0  0  0
  9 33  1  0  0  0  0
  9 34  1  0  0  0  0
 10 11  2  0  0  0  0
 10 15  1  0  0  0  0
 11 14  1  0  0  0  0
 12 35  1  0  0  0  0
 12 36  1  0  0  0  0
 12 37  1  0  0  0  0
 13 38  1  0  0  0  0
 13 39  1  0  0  0  0
 13 40  1  0  0  0  0
 14 16  2  0  0  0  0
 14 17  1  0  0  0  0
 15 18  2  0  0  0  0
 16 18  1  0  0  0  0
 17 19  1  0  0  0  0
 18 41  1  0  0  0  0
 19 20  2  0  0  0  0
 19 21  1  0  0  0  0
 20 24  1  0  0  0  0
 21 22  1  0  0  0  0
 21 23  2  0  0  0  0
 22 26  1  0  0  0  0
 22 42  1  0  0  0  0
 22 43  1  0  0  0  0
 23 25  1  0  0  0  0
 24 25  2  0  0  0  0
 24 44  1  0  0  0  0
 26 27  2  0  0  0  0
 26 46  1  0  0  0  0
 27 29  1  0  0  0  0
 27 30  1  0  0  0  0
 28 48  1  0  0  0  0
 28 49  1  0  0  0  0
 28 50  1  0  0  0  0
 29 51  1  0  0  0  0
 29 52  1  0  0  0  0
 29 53  1  0  0  0  0
 30 54  1  0  0  0  0
 30 55  1  0  0  0  0
 30 56  1  0  0  0  0
M  END
> <PUBCHEM_COMPOUND_CID>
5281641

> <PUBCHEM_CONFORMER_RMSD>
0.8

> <PUBCHEM_CONFORMER_DIVERSEORDER>
4
1
6
5
3
2

> <PUBCHEM_MMFF94_PARTIAL_CHARGES>
32
1 -0.36
10 -0.14
11 0.08
14 0.09
15 0.08
16 0.08
17 0.4
18 -0.15
19 0.09
2 -0.17
20 0.08
21 -0.14
22 0.28
23 0.08
24 -0.15
25 0.08
26 -0.29
27 -0.28
28 0.28
29 0.14
3 -0.53
30 0.14
4 -0.57
41 0.15
44 0.15
45 0.45
46 0.15
47 0.45
5 -0.36
6 -0.53
7 0.28
9 0.14

> <PUBCHEM_EFFECTIVE_ROTOR_COUNT>
3.8

> <PUBCHEM_PHARMACOPHORE_FEATURES>
12
1 1 acceptor
1 2 acceptor
1 3 donor
1 4 acceptor
1 5 acceptor
1 6 donor
3 27 29 30 hydrophobe
3 7 12 13 hydrophobe
6 1 7 8 9 10 11 rings
6 10 11 14 15 16 18 rings
6 19 20 21 23 24 25 rings
6 2 14 16 17 19 20 rings

> <PUBCHEM_HEAVY_ATOM_COUNT>
30

> <PUBCHEM_ATOM_DEF_STEREO_COUNT>
0

> <PUBCHEM_ATOM_UDEF_STEREO_COUNT>
0

> <PUBCHEM_BOND_DEF_STEREO_COUNT>
0

> <PUBCHEM_BOND_UDEF_STEREO_COUNT>
0

> <PUBCHEM_ISOTOPIC_ATOM_COUNT>
0

> <PUBCHEM_COMPONENT_COUNT>
1

> <PUBCHEM_CACTVS_TAUTO_COUNT>
57

> <PUBCHEM_CONFORMER_ID>
0050976900000004

> <PUBCHEM_MMFF94_ENERGY>
108.9556

> <PUBCHEM_FEATURE_SELFOVERLAP>
60.987

> <PUBCHEM_SHAPE_FINGERPRINT>
10090160 65 18269278958707405212
10616163 171 18334855013404108119
1100329 8 18051695743893852523
11007060 377 18265320713349289224
11186622 123 18409731746407736927
11513181 2 18040435529065599351
11578080 2 17559684029801346381
12107183 9 17905888437503529505
12553582 1 18336552633740941375
12633257 1 18047469216906748375
12788726 201 17895751923937845625
13140716 1 17833833772638266435
13911987 19 17910960140934274285
14117953 113 17399519416861549653
14705955 166 16596219498483744690
14790565 3 18338792291634822476
15196674 1 18334853888091645004
15250474 111 18337400417208865775
16628084 112 18267313208965305261
17349148 13 18060139786651827684
17492 89 18338515343601199067
19591789 44 18265332811559583118
20028762 73 18261395499555855878
20600515 1 17540541648600182426
21133410 171 17470225427705280087
21133410 221 14735395209652656419
21267235 1 18335408046178036949
21421861 104 18341049708869709194
21703447 108 17825693079015079697
21781055 127 16809256430654028329
22393880 68 18335133211394832956
23366157 5 18200588211049904468
23559900 14 17970060260932000814
350125 39 18262795168545484137
460360 51 17915480486470053439
463206 1 18119810214277722719
5104073 3 18260266326451287464
5309563 4 18122057607882671931
6433294 58 18410292561825553163
6823239 73 17752475719068966982
7097593 13 18195813087737446066
9709674 26 18335412448371569037

> <PUBCHEM_SHAPE_MULTIPOLES>
582.17
10.82
5.25
1.15
1.68
3.84
-0.11
-0.6
-1.83
-2.06
1.88
-0.39
1.01
-2.3

> <PUBCHEM_SHAPE_SELFOVERLAP>
1280.901

> <PUBCHEM_SHAPE_VOLUME>
314.5

> <PUBCHEM_COORDINATE_TYPE>
2
5
10

$$$$

