10154022
  -OEChem-07051213113D

  9  8  0     0  0  0  0  0  0999 V2000
   -0.4487   -0.0906   -0.0195 P   0  0  0  0  0  0  0  0  0  0  0  0
   -1.4965    0.7706   -0.9061 O   0  0  0  0  0  0  0  0  0  0  0  0
   -0.6772    0.5266    1.4611 O   0  0  0  0  0  0  0  0  0  0  0  0
   -0.6839   -1.5732   -0.0921 O   0  0  0  0  0  0  0  0  0  0  0  0
    2.1323   -0.0388    0.0857 O   0  0  0  0  0  0  0  0  0  0  0  0
    1.1740    0.4055   -0.5290 C   0  0  0  0  0  0  0  0  0  0  0  0
    1.2703    1.0956   -1.3814 H   0  0  0  0  0  0  0  0  0  0  0  0
   -2.4552    0.5822   -0.8202 H   0  0  0  0  0  0  0  0  0  0  0  0
   -1.4974    0.2968    1.9477 H   0  0  0  0  0  0  0  0  0  0  0  0
  1  2  1  0  0  0  0
  1  3  1  0  0  0  0
  1  4  2  0  0  0  0
  1  6  1  0  0  0  0
  2  8  1  0  0  0  0
  3  9  1  0  0  0  0
  5  6  2  0  0  0  0
  6  7  1  0  0  0  0
M  END
> <PUBCHEM_COMPOUND_CID>
10154022

> <PUBCHEM_CONFORMER_RMSD>
0.4

> <PUBCHEM_CONFORMER_DIVERSEORDER>
1

> <PUBCHEM_MMFF94_PARTIAL_CHARGES>
9
1 1.35
2 -0.77
3 -0.77
4 -0.7
5 -0.57
6 0.4
7 0.06
8 0.5
9 0.5

> <PUBCHEM_EFFECTIVE_ROTOR_COUNT>
1

> <PUBCHEM_PHARMACOPHORE_FEATURES>
4
1 2 acceptor
1 3 acceptor
1 4 acceptor
4 1 2 3 4 anion

> <PUBCHEM_HEAVY_ATOM_COUNT>
6

> <PUBCHEM_ATOM_DEF_STEREO_COUNT>
0

> <PUBCHEM_ATOM_UDEF_STEREO_COUNT>
0

> <PUBCHEM_BOND_DEF_STEREO_COUNT>
0

> <PUBCHEM_BOND_UDEF_STEREO_COUNT>
0

> <PUBCHEM_ISOTOPIC_ATOM_COUNT>
0

> <PUBCHEM_COMPONENT_COUNT>
1

> <PUBCHEM_CACTVS_TAUTO_COUNT>
1

> <PUBCHEM_CONFORMER_ID>
009AF02600000001

> <PUBCHEM_MMFF94_ENERGY>
-29.4206

> <PUBCHEM_FEATURE_SELFOVERLAP>
20.337

> <PUBCHEM_SHAPE_FINGERPRINT>
139733 1 9798045507322114606
20096714 4 17489034854339926108
24536 1 17822838819506077052
29004967 10 17197408928573041723
5943 1 5153326221248221875

> <PUBCHEM_SHAPE_MULTIPOLES>
103.85
1.98
1.07
1.04
1.07
0.26
-0.44
-0.22
0.14
-0.39
0.28
-0.33
-0.07
0

> <PUBCHEM_SHAPE_SELFOVERLAP>
174.583

> <PUBCHEM_SHAPE_VOLUME>
70.6

> <PUBCHEM_COORDINATE_TYPE>
2
5
10

$$$$

