442034
  -OEChem-07051212562D

 65 68  0     1  0  0  0  0  0999 V2000
    7.3832    0.9479    0.0000 O   0  0  0  0  0  0  0  0  0  0  0  0
    5.2414    1.9182    0.0000 O   0  0  0  0  0  0  0  0  0  0  0  0
    3.6718   -1.0713    0.0000 O   0  0  0  0  0  0  0  0  0  0  0  0
    8.0616   -2.0478    0.0000 O   0  0  0  0  0  0  0  0  0  0  0  0
    4.5559   -2.0493    0.0000 O   0  0  0  0  0  0  0  0  0  0  0  0
    2.0502    1.3462    0.0000 O   0  0  0  0  0  0  0  0  0  0  0  0
    9.1029    0.7411    0.0000 O   0  0  0  0  0  0  0  0  0  0  0  0
    6.2530   -0.6569    0.0000 C   0  0  1  0  0  0  0  0  0  0  0  0
    6.2480    0.3431    0.0000 C   0  0  2  0  0  0  0  0  0  0  0  0
    7.2638   -0.0450    0.0000 C   0  0  2  0  0  0  0  0  0  0  0  0
    5.4741    0.9456    0.0000 C   0  0  2  0  0  0  0  0  0  0  0  0
    4.5199    0.7187    0.0000 C   0  0  1  0  0  0  0  0  0  0  0  0
    4.0999   -0.1676    0.0000 C   0  0  1  0  0  0  0  0  0  0  0  0
    8.4411   -0.1460    0.0000 C   0  0  2  0  0  0  0  0  0  0  0  0
    7.0379   -1.2764    0.0000 C   0  0  0  0  0  0  0  0  0  0  0  0
    5.4851   -1.2670    0.0000 C   0  0  0  0  0  0  0  0  0  0  0  0
    8.0117   -1.0491    0.0000 C   0  0  1  0  0  0  0  0  0  0  0  0
    7.0267    0.9705    0.0000 C   0  0  0  0  0  0  0  0  0  0  0  0
    4.5287   -1.0497    0.0000 C   0  0  1  0  0  0  0  0  0  0  0  0
    3.1333   -0.0403    0.0000 C   0  0  0  0  0  0  0  0  0  0  0  0
    8.0027    0.7528    0.0000 C   0  0  0  0  0  0  0  0  0  0  0  0
    3.8092    1.3862    0.0000 C   0  0  0  0  0  0  0  0  0  0  0  0
    2.9539    0.9180    0.0000 C   0  0  2  0  0  0  0  0  0  0  0  0
    6.0894    1.7339    0.0000 C   0  0  0  0  0  0  0  0  0  0  0  0
    8.9770   -1.3103    0.0000 C   0  0  0  0  0  0  0  0  0  0  0  0
    2.1502   -0.2234    0.0000 C   0  0  0  0  0  0  0  0  0  0  0  0
    3.0036   -1.0319    0.0000 C   0  0  0  0  0  0  0  0  0  0  0  0
    8.3027    1.3409    0.0000 C   0  0  0  0  0  0  0  0  0  0  0  0
    8.4221    2.3338    0.0000 C   0  0  0  0  0  0  0  0  0  0  0  0
    6.2438    1.1931    0.0000 H   0  0  0  0  0  0  0  0  0  0  0  0
    6.7429    0.2912    0.0000 H   0  0  0  0  0  0  0  0  0  0  0  0
    4.7386    1.5401    0.0000 H   0  0  0  0  0  0  0  0  0  0  0  0
    9.2688    0.0473    0.0000 H   0  0  0  0  0  0  0  0  0  0  0  0
    6.5551   -1.6654    0.0000 H   0  0  0  0  0  0  0  0  0  0  0  0
    7.3097   -1.8337    0.0000 H   0  0  0  0  0  0  0  0  0  0  0  0
    5.2161   -1.8257    0.0000 H   0  0  0  0  0  0  0  0  0  0  0  0
    5.9695   -1.6540    0.0000 H   0  0  0  0  0  0  0  0  0  0  0  0
    7.2929    1.5304    0.0000 H   0  0  0  0  0  0  0  0  0  0  0  0
    6.5400    1.3546    0.0000 H   0  0  0  0  0  0  0  0  0  0  0  0
    3.9264   -1.1970    0.0000 H   0  0  0  0  0  0  0  0  0  0  0  0
    8.6065    0.8938    0.0000 H   0  0  0  0  0  0  0  0  0  0  0  0
    7.9996    1.3728    0.0000 H   0  0  0  0  0  0  0  0  0  0  0  0
    4.2788    1.7910    0.0000 H   0  0  0  0  0  0  0  0  0  0  0  0
    3.4559    1.8957    0.0000 H   0  0  0  0  0  0  0  0  0  0  0  0
    2.4629    0.5395    0.0000 H   0  0  0  0  0  0  0  0  0  0  0  0
    6.5781    1.3524    0.0000 H   0  0  0  0  0  0  0  0  0  0  0  0
    6.4709    2.2226    0.0000 H   0  0  0  0  0  0  0  0  0  0  0  0
    5.6007    2.1154    0.0000 H   0  0  0  0  0  0  0  0  0  0  0  0
    8.8150   -1.9088    0.0000 H   0  0  0  0  0  0  0  0  0  0  0  0
    9.5755   -1.4723    0.0000 H   0  0  0  0  0  0  0  0  0  0  0  0
    9.1390   -0.7118    0.0000 H   0  0  0  0  0  0  0  0  0  0  0  0
    2.0367    0.3861    0.0000 H   0  0  0  0  0  0  0  0  0  0  0  0
    1.5407   -0.3369    0.0000 H   0  0  0  0  0  0  0  0  0  0  0  0
    2.2637   -0.8329    0.0000 H   0  0  0  0  0  0  0  0  0  0  0  0
    2.3888   -0.9515    0.0000 H   0  0  0  0  0  0  0  0  0  0  0  0
    2.9232   -1.6467    0.0000 H   0  0  0  0  0  0  0  0  0  0  0  0
    3.6184   -1.1123    0.0000 H   0  0  0  0  0  0  0  0  0  0  0  0
    5.6915    2.3446    0.0000 H   0  0  0  0  0  0  0  0  0  0  0  0
    3.6139   -1.6886    0.0000 H   0  0  0  0  0  0  0  0  0  0  0  0
    8.6133   -2.3307    0.0000 H   0  0  0  0  0  0  0  0  0  0  0  0
    5.1011   -2.3446    0.0000 H   0  0  0  0  0  0  0  0  0  0  0  0
    2.0000    1.9642    0.0000 H   0  0  0  0  0  0  0  0  0  0  0  0
    9.0377    2.2597    0.0000 H   0  0  0  0  0  0  0  0  0  0  0  0
    8.4962    2.9493    0.0000 H   0  0  0  0  0  0  0  0  0  0  0  0
    7.8066    2.4078    0.0000 H   0  0  0  0  0  0  0  0  0  0  0  0
 10  1  1  1  0  0  0
  1 28  1  0  0  0  0
 11  2  1  6  0  0  0
  2 58  1  0  0  0  0
 13  3  1  1  0  0  0
  3 59  1  0  0  0  0
 17  4  1  6  0  0  0
  4 60  1  0  0  0  0
 19  5  1  1  0  0  0
  5 61  1  0  0  0  0
 23  6  1  1  0  0  0
  6 62  1  0  0  0  0
  7 28  2  0  0  0  0
  8  9  1  0  0  0  0
  8 10  1  0  0  0  0
  8 15  1  0  0  0  0
  8 16  1  6  0  0  0
  9 11  1  0  0  0  0
  9 18  1  0  0  0  0
  9 30  1  1  0  0  0
 10 14  1  0  0  0  0
 10 31  1  0  0  0  0
 11 12  1  0  0  0  0
 11 24  1  0  0  0  0
 12 13  1  0  0  0  0
 12 22  1  0  0  0  0
 12 32  1  6  0  0  0
 13 19  1  0  0  0  0
 13 20  1  0  0  0  0
 14 17  1  0  0  0  0
 14 21  1  0  0  0  0
 14 33  1  6  0  0  0
 15 17  1  0  0  0  0
 15 34  1  0  0  0  0
 15 35  1  0  0  0  0
 16 19  1  0  0  0  0
 16 36  1  0  0  0  0
 16 37  1  0  0  0  0
 17 25  1  0  0  0  0
 18 21  1  0  0  0  0
 18 38  1  0  0  0  0
 18 39  1  0  0  0  0
 19 40  1  0  0  0  0
 20 23  1  0  0  0  0
 20 26  1  0  0  0  0
 20 27  1  0  0  0  0
 21 41  1  0  0  0  0
 21 42  1  0  0  0  0
 22 23  1  0  0  0  0
 22 43  1  0  0  0  0
 22 44  1  0  0  0  0
 23 45  1  0  0  0  0
 24 46  1  0  0  0  0
 24 47  1  0  0  0  0
 24 48  1  0  0  0  0
 25 49  1  0  0  0  0
 25 50  1  0  0  0  0
 25 51  1  0  0  0  0
 26 52  1  0  0  0  0
 26 53  1  0  0  0  0
 26 54  1  0  0  0  0
 27 55  1  0  0  0  0
 27 56  1  0  0  0  0
 27 57  1  0  0  0  0
 28 29  1  0  0  0  0
 29 63  1  0  0  0  0
 29 64  1  0  0  0  0
 29 65  1  0  0  0  0
M  END
> <PUBCHEM_COMPOUND_CID>
442034

> <PUBCHEM_COMPOUND_CANONICALIZED>
1

> <PUBCHEM_CACTVS_COMPLEXITY>
724

> <PUBCHEM_CACTVS_HBOND_ACCEPTOR>
7

> <PUBCHEM_CACTVS_HBOND_DONOR>
5

> <PUBCHEM_CACTVS_ROTATABLE_BOND>
2

> <PUBCHEM_CACTVS_SUBSKEYS>
AAADcfB4OAAAAAAAAAAAAAAAAAAAAYMAAAAwAAAABgwAAADAAAAAGgAACAAAD1SggAICCAAABgAIAACQCAAAAAAAAAAAAAAAAAABEAIAAAACQAAFAAABAAHA4PwPgAAAAAAAAACAAAYAADAAAYQADAAAAA==

> <PUBCHEM_IUPAC_INCHI>
InChI=1S/C22H36O7/c1-11(23)29-17-12-6-7-13-20(5,27)14-8-15(24)18(2,3)22(14,28)16(25)9-21(13,17)10-19(12,4)26/h12-17,24-28H,6-10H2,1-5H3/t12-,13+,14+,15+,16-,17+,19-,20-,21+,22+/m1/s1

> <PUBCHEM_IUPAC_INCHIKEY>
NXCYBYJXCJWMRY-XNELDADBSA-N

> <PUBCHEM_XLOGP3>
0.8

> <PUBCHEM_EXACT_MASS>
412.246103

> <PUBCHEM_MOLECULAR_FORMULA>
C22H36O7

> <PUBCHEM_MOLECULAR_WEIGHT>
412.51704

> <PUBCHEM_OPENEYE_CAN_SMILES>
CC(=O)OC1C2CCC3C1(CC(C4(C(C3(C)O)CC(C4(C)C)O)O)O)CC2(C)O

> <PUBCHEM_OPENEYE_ISO_SMILES>
CC(=O)O[C@H]1[C@H]2CC[C@@H]3[C@]1(C[C@H]([C@]4([C@H]([C@]3(C)O)C[C@@H](C4(C)C)O)O)O)C[C@@]2(C)O

> <PUBCHEM_CACTVS_TPSA>
127

> <PUBCHEM_MONOISOTOPIC_WEIGHT>
412.246103

> <PUBCHEM_TOTAL_CHARGE>
0

> <PUBCHEM_HEAVY_ATOM_COUNT>
29

> <PUBCHEM_ATOM_DEF_STEREO_COUNT>
10

> <PUBCHEM_ATOM_UDEF_STEREO_COUNT>
0

> <PUBCHEM_BOND_DEF_STEREO_COUNT>
0

> <PUBCHEM_BOND_UDEF_STEREO_COUNT>
0

> <PUBCHEM_ISOTOPIC_ATOM_COUNT>
0

> <PUBCHEM_COMPONENT_COUNT>
1

> <PUBCHEM_CACTVS_TAUTO_COUNT>
1

> <PUBCHEM_COORDINATE_TYPE>
1
5
255

> <PUBCHEM_BONDANNOTATIONS>
10  1  5
12  32  6
14  33  6
11  2  6
13  3  5
17  4  6
19  5  5
23  6  5
8  16  6
9  30  5

$$$$

