105008
  -OEChem-07051213043D

 65 70  0     1  0  0  0  0  0999 V2000
    0.9765    1.7580   -1.7651 O   0  0  0  0  0  0  0  0  0  0  0  0
    3.8177   -1.1523   -0.5030 O   0  0  0  0  0  0  0  0  0  0  0  0
    5.1825    0.9678    1.8611 O   0  0  0  0  0  0  0  0  0  0  0  0
    7.1774   -0.3009    0.5682 O   0  0  0  0  0  0  0  0  0  0  0  0
   -3.3219   -1.3197   -0.4597 N   0  0  0  0  0  0  0  0  0  0  0  0
   -0.2347    0.1246   -0.3474 C   0  0  2  0  0  0  0  0  0  0  0  0
   -1.6578    0.7266   -0.6728 C   0  0  2  0  0  0  0  0  0  0  0  0
   -1.9301    1.9339    0.3369 C   0  0  1  0  0  0  0  0  0  0  0  0
    0.8657    1.2831   -0.4077 C   0  0  2  0  0  0  0  0  0  0  0  0
    0.1706   -0.9700   -1.3816 C   0  0  0  0  0  0  0  0  0  0  0  0
   -0.9601    3.0746    0.1329 C   0  0  0  0  0  0  0  0  0  0  0  0
    0.4620    2.5412    0.4251 C   0  0  0  0  0  0  0  0  0  0  0  0
   -2.8950   -0.0451   -0.3224 C   0  0  0  0  0  0  0  0  0  0  0  0
   -3.4783    2.1537    0.3398 C   0  0  0  0  0  0  0  0  0  0  0  0
    2.2503    0.6977   -0.1028 C   0  0  0  0  0  0  0  0  0  0  0  0
   -0.2300   -0.5396    1.0693 C   0  0  0  0  0  0  0  0  0  0  0  0
   -1.8562    1.1635   -2.1562 C   0  0  0  0  0  0  0  0  0  0  0  0
   -3.9098    0.7321    0.1873 C   0  0  0  0  0  0  0  0  0  0  0  0
    1.5748   -1.5317   -1.1457 C   0  0  0  0  0  0  0  0  0  0  0  0
    2.6654   -0.4605   -1.0030 C   0  0  2  0  0  0  0  0  0  0  0  0
   -5.0208   -0.0961    0.4114 C   0  0  0  0  0  0  0  0  0  0  0  0
    3.0748    1.1696    0.8461 C   0  0  0  0  0  0  0  0  0  0  0  0
   -4.6313   -1.3860   -0.0009 C   0  0  0  0  0  0  0  0  0  0  0  0
    4.8985   -0.2903   -0.1872 C   0  0  1  0  0  0  0  0  0  0  0  0
    4.4491    0.6217    0.9385 C   0  0  0  0  0  0  0  0  0  0  0  0
   -6.3199    0.0952    0.9169 C   0  0  0  0  0  0  0  0  0  0  0  0
    6.0804   -1.1528    0.2252 C   0  0  0  0  0  0  0  0  0  0  0  0
   -5.4967   -2.4837    0.0741 C   0  0  0  0  0  0  0  0  0  0  0  0
   -7.1883   -0.9995    0.9953 C   0  0  0  0  0  0  0  0  0  0  0  0
   -6.7817   -2.2663    0.5804 C   0  0  0  0  0  0  0  0  0  0  0  0
    6.5232   -2.0676   -0.9196 C   0  0  0  0  0  0  0  0  0  0  0  0
    5.7438   -1.9811    1.4667 C   0  0  0  0  0  0  0  0  0  0  0  0
   -1.7476    1.5881    1.3656 H   0  0  0  0  0  0  0  0  0  0  0  0
    0.1487   -0.5698   -2.4010 H   0  0  0  0  0  0  0  0  0  0  0  0
   -0.5465   -1.7985   -1.3606 H   0  0  0  0  0  0  0  0  0  0  0  0
   -1.1871    3.8921    0.8266 H   0  0  0  0  0  0  0  0  0  0  0  0
   -1.0221    3.4896   -0.8775 H   0  0  0  0  0  0  0  0  0  0  0  0
    1.1641    3.3622    0.2295 H   0  0  0  0  0  0  0  0  0  0  0  0
    0.5270    2.3159    1.4971 H   0  0  0  0  0  0  0  0  0  0  0  0
   -3.8065    2.7689   -0.5030 H   0  0  0  0  0  0  0  0  0  0  0  0
   -3.8192    2.5964    1.2797 H   0  0  0  0  0  0  0  0  0  0  0  0
   -0.9517   -1.3609    1.1249 H   0  0  0  0  0  0  0  0  0  0  0  0
    0.7410   -0.9689    1.3323 H   0  0  0  0  0  0  0  0  0  0  0  0
   -0.4578    0.1600    1.8756 H   0  0  0  0  0  0  0  0  0  0  0  0
   -1.1395    1.9070   -2.5010 H   0  0  0  0  0  0  0  0  0  0  0  0
   -1.8070    0.3024   -2.8319 H   0  0  0  0  0  0  0  0  0  0  0  0
   -2.8435    1.6113   -2.3254 H   0  0  0  0  0  0  0  0  0  0  0  0
    1.5746   -2.1885   -0.2664 H   0  0  0  0  0  0  0  0  0  0  0  0
    1.8403   -2.1973   -1.9780 H   0  0  0  0  0  0  0  0  0  0  0  0
    2.9091   -0.0680   -1.9987 H   0  0  0  0  0  0  0  0  0  0  0  0
   -2.7955   -2.0975   -0.8337 H   0  0  0  0  0  0  0  0  0  0  0  0
    1.6530    2.4565   -1.7905 H   0  0  0  0  0  0  0  0  0  0  0  0
    2.8215    1.9790    1.5181 H   0  0  0  0  0  0  0  0  0  0  0  0
    5.1642    0.3374   -1.0483 H   0  0  0  0  0  0  0  0  0  0  0  0
   -6.6517    1.0766    1.2434 H   0  0  0  0  0  0  0  0  0  0  0  0
   -5.1851   -3.4716   -0.2485 H   0  0  0  0  0  0  0  0  0  0  0  0
   -8.1931   -0.8581    1.3847 H   0  0  0  0  0  0  0  0  0  0  0  0
   -7.4749   -3.1008    0.6506 H   0  0  0  0  0  0  0  0  0  0  0  0
    7.4210   -2.6329   -0.6438 H   0  0  0  0  0  0  0  0  0  0  0  0
    5.7439   -2.7826   -1.2021 H   0  0  0  0  0  0  0  0  0  0  0  0
    6.7914   -1.4781   -1.8038 H   0  0  0  0  0  0  0  0  0  0  0  0
    5.5685   -1.3730    2.3585 H   0  0  0  0  0  0  0  0  0  0  0  0
    6.5899   -2.6295    1.7271 H   0  0  0  0  0  0  0  0  0  0  0  0
    4.8747   -2.6283    1.3094 H   0  0  0  0  0  0  0  0  0  0  0  0
    7.9260   -0.8633    0.8308 H   0  0  0  0  0  0  0  0  0  0  0  0
  1  9  1  0  0  0  0
  1 52  1  0  0  0  0
  2 20  1  0  0  0  0
  2 24  1  0  0  0  0
  3 25  2  0  0  0  0
  4 27  1  0  0  0  0
  4 65  1  0  0  0  0
  5 13  1  0  0  0  0
  5 23  1  0  0  0  0
  5 51  1  0  0  0  0
  6  7  1  0  0  0  0
  6  9  1  0  0  0  0
  6 10  1  0  0  0  0
  6 16  1  0  0  0  0
  7  8  1  0  0  0  0
  7 13  1  0  0  0  0
  7 17  1  0  0  0  0
  8 11  1  0  0  0  0
  8 14  1  0  0  0  0
  8 33  1  0  0  0  0
  9 12  1  0  0  0  0
  9 15  1  0  0  0  0
 10 19  1  0  0  0  0
 10 34  1  0  0  0  0
 10 35  1  0  0  0  0
 11 12  1  0  0  0  0
 11 36  1  0  0  0  0
 11 37  1  0  0  0  0
 12 38  1  0  0  0  0
 12 39  1  0  0  0  0
 13 18  2  0  0  0  0
 14 18  1  0  0  0  0
 14 40  1  0  0  0  0
 14 41  1  0  0  0  0
 15 20  1  0  0  0  0
 15 22  2  0  0  0  0
 16 42  1  0  0  0  0
 16 43  1  0  0  0  0
 16 44  1  0  0  0  0
 17 45  1  0  0  0  0
 17 46  1  0  0  0  0
 17 47  1  0  0  0  0
 18 21  1  0  0  0  0
 19 20  1  0  0  0  0
 19 48  1  0  0  0  0
 19 49  1  0  0  0  0
 20 50  1  0  0  0  0
 21 23  1  0  0  0  0
 21 26  2  0  0  0  0
 22 25  1  0  0  0  0
 22 53  1  0  0  0  0
 23 28  2  0  0  0  0
 24 25  1  0  0  0  0
 24 27  1  0  0  0  0
 24 54  1  0  0  0  0
 26 29  1  0  0  0  0
 26 55  1  0  0  0  0
 27 31  1  0  0  0  0
 27 32  1  0  0  0  0
 28 30  1  0  0  0  0
 28 56  1  0  0  0  0
 29 30  2  0  0  0  0
 29 57  1  0  0  0  0
 30 58  1  0  0  0  0
 31 59  1  0  0  0  0
 31 60  1  0  0  0  0
 31 61  1  0  0  0  0
 32 62  1  0  0  0  0
 32 63  1  0  0  0  0
 32 64  1  0  0  0  0
M  END
> <PUBCHEM_COMPOUND_CID>
105008

> <PUBCHEM_CONFORMER_RMSD>
0.8

> <PUBCHEM_CONFORMER_DIVERSEORDER>
1
2

> <PUBCHEM_MMFF94_PARTIAL_CHARGES>
29
1 -0.68
13 -0.33
14 0.18
15 -0.28
18 -0.18
2 -0.56
20 0.42
22 -0.14
23 -0.15
24 0.34
25 0.49
26 -0.15
27 0.28
28 -0.15
29 -0.15
3 -0.57
30 -0.15
4 -0.68
5 0.03
51 0.27
52 0.4
53 0.15
55 0.15
56 0.15
57 0.15
58 0.15
65 0.4
7 0.18
9 0.42

> <PUBCHEM_EFFECTIVE_ROTOR_COUNT>
2.4

> <PUBCHEM_PHARMACOPHORE_FEATURES>
15
1 1 acceptor
1 1 donor
1 2 acceptor
1 3 acceptor
1 4 acceptor
1 4 donor
1 5 cation
1 5 donor
3 27 31 32 hydrophobe
5 5 13 18 21 23 rings
5 7 8 13 14 18 rings
6 2 15 20 22 24 25 rings
6 21 23 26 28 29 30 rings
6 6 7 8 9 11 12 rings
6 6 9 10 15 19 20 rings

> <PUBCHEM_HEAVY_ATOM_COUNT>
32

> <PUBCHEM_ATOM_DEF_STEREO_COUNT>
6

> <PUBCHEM_ATOM_UDEF_STEREO_COUNT>
0

> <PUBCHEM_BOND_DEF_STEREO_COUNT>
0

> <PUBCHEM_BOND_UDEF_STEREO_COUNT>
0

> <PUBCHEM_ISOTOPIC_ATOM_COUNT>
0

> <PUBCHEM_COMPONENT_COUNT>
1

> <PUBCHEM_CACTVS_TAUTO_COUNT>
2

> <PUBCHEM_CONFORMER_ID>
00019A3000000001

> <PUBCHEM_MMFF94_ENERGY>
132.2938

> <PUBCHEM_FEATURE_SELFOVERLAP>
76.565

> <PUBCHEM_SHAPE_FINGERPRINT>
10 15 17894914001123813322
10076449 9 18335128805417594782
10190206 1 11311787201755652126
10319926 262 18261962945680172432
11115154 58 15482676796999346687
117089 54 17842263788677645595
11961588 58 8790886272273814549
11963148 33 17400360049763548087
12011746 2 10952050052383368735
12035758 1 17822305586853435106
12166972 35 17775280551852906780
12236239 1 17989202659503001797
12422481 6 17748547034703847182
12616971 3 16950292801689139612
12895836 83 9367345921050126677
13533116 47 18270960146536209280
13540713 4 17606950969506610356
13668630 136 16128650860190783051
13685833 64 18411698785694554050
13782708 43 18060143141047438875
13911987 19 14692564437948553722
13947930 73 17916292841323459875
14068700 675 18202278108660857333
14294032 229 16772404022739584813
14341114 176 18260831492649738568
14347332 77 18060143184197383484
14394314 77 18341327886113188377
14556957 393 15123501562114968359
14849402 71 18043247946755036992
14955137 171 18333731295087898848
15064986 96 16734099235827756031
15131766 46 16590294969209489584
15183329 4 12391519684815326199
15475509 35 18201451315499988250
15927050 60 17540814993172569212
17349148 13 17846492669099623790
1813 80 17917992767318369364
18222031 100 17561084704915842164
18335252 98 18409445900235461158
18608769 82 18334013891884471718
1979834 28 17603852391558493207
20028762 73 18411416185431877523
20105231 36 17822003225783470158
21033648 29 17240779413770152456
21130935 74 18187644674295214691
21150785 3 15339115732598149138
21267235 1 18410567392381946062
21298829 104 8935010273934278923
21304304 249 18412260610614905527
21424621 283 7060377024344837918
21756936 100 5978100241782645861
21781051 124 18187350040139920942
21792934 111 18334290969125654537
22122407 14 14996560647207734195
22223350 30 17242469217192855211
23522609 53 18055601071441073493
23559900 14 18335429010319902464
23569914 152 12964084944921147818
23569943 247 17914055562614861354
23576562 1 8717955687504877090
2747138 104 18334855026536851936
2838139 119 8142089745121717963
3004659 81 17917427601166662413
3178227 256 17676489458837818130
3383291 50 18272367521710472547
350125 39 18186521003961292352
3886686 26 17330849426712614050
392239 28 18333444348607280763
397830 11 18259992552266275744
4112364 45 13840552796376439083
4340502 62 16877937226614107223
465052 167 18408322194634705758
5104073 3 18042121114665425203
5718773 13 18267304236615755795
636775 8 18337663222770142174
6700243 42 18049695685172602660
9896288 288 17970622111569194001

> <PUBCHEM_SHAPE_MULTIPOLES>
630.09
17.51
2.68
1.37
2.21
0.57
-0.24
-13.11
6.47
-1.23
0.1
0.8
0.06
0.76

> <PUBCHEM_SHAPE_SELFOVERLAP>
1405.158

> <PUBCHEM_SHAPE_VOLUME>
334.7

> <PUBCHEM_COORDINATE_TYPE>
2
5
10

$$$$

