92158
  -OEChem-07051213093D

 79 83  0     1  0  0  0  0  0999 V2000
    6.4359    1.4320   -0.3860 O   0  0  0  0  0  0  0  0  0  0  0  0
   -1.0493   -1.0510    0.4311 C   0  0  1  0  0  0  0  0  0  0  0  0
    0.4514   -1.0325   -0.2051 C   0  0  1  0  0  0  0  0  0  0  0  0
   -1.9263    0.0432   -0.3103 C   0  0  1  0  0  0  0  0  0  0  0  0
    1.0504    0.4218   -0.0490 C   0  0  1  0  0  0  0  0  0  0  0  0
   -3.3980   -0.0210    0.1511 C   0  0  2  0  0  0  0  0  0  0  0  0
    2.6007    0.6147   -0.3515 C   0  0  2  0  0  0  0  0  0  0  0  0
   -4.0142   -1.4101   -0.1429 C   0  0  1  0  0  0  0  0  0  0  0  0
   -1.7385   -2.4575    0.3034 C   0  0  0  0  0  0  0  0  0  0  0  0
    3.4098   -0.4959    0.4091 C   0  0  1  0  0  0  0  0  0  0  0  0
   -1.3009    1.4394   -0.1999 C   0  0  0  0  0  0  0  0  0  0  0  0
    0.1408    1.4776   -0.7148 C   0  0  0  0  0  0  0  0  0  0  0  0
    1.3898   -2.0329    0.5240 C   0  0  0  0  0  0  0  0  0  0  0  0
   -3.2434   -2.4762    0.6460 C   0  0  0  0  0  0  0  0  0  0  0  0
   -4.4415    0.9520   -0.4290 C   0  0  1  0  0  0  0  0  0  0  0  0
    2.8641   -1.9084    0.1328 C   0  0  0  0  0  0  0  0  0  0  0  0
   -5.4527   -1.1751    0.3368 C   0  0  0  0  0  0  0  0  0  0  0  0
   -1.0064   -0.7566    1.9706 C   0  0  0  0  0  0  0  0  0  0  0  0
    0.3948   -1.4693   -1.6991 C   0  0  0  0  0  0  0  0  0  0  0  0
    3.0365    2.0111    0.2216 C   0  0  0  0  0  0  0  0  0  0  0  0
    4.9712   -0.3939    0.2613 C   0  0  0  0  0  0  0  0  0  0  0  0
   -5.7912    0.2448   -0.1524 C   0  0  0  0  0  0  0  0  0  0  0  0
    2.9167    0.6478   -1.8651 C   0  0  0  0  0  0  0  0  0  0  0  0
   -4.0584   -1.8067   -1.6411 C   0  0  0  0  0  0  0  0  0  0  0  0
    4.4588    2.0921    0.7672 C   0  0  0  0  0  0  0  0  0  0  0  0
    5.3772    1.0792    0.1345 C   0  0  0  0  0  0  0  0  0  0  0  0
   -4.4223    2.3219    0.1688 C   0  0  0  0  0  0  0  0  0  0  0  0
    5.5503   -1.1826   -0.9288 C   0  0  0  0  0  0  0  0  0  0  0  0
    5.6502   -0.9258    1.5422 C   0  0  0  0  0  0  0  0  0  0  0  0
   -4.6027    2.3972    1.6560 C   0  0  0  0  0  0  0  0  0  0  0  0
   -4.2528    3.4207   -0.5815 C   0  0  0  0  0  0  0  0  0  0  0  0
   -1.9363   -0.1860   -1.3801 H   0  0  0  0  0  0  0  0  0  0  0  0
    0.9954    0.6369    1.0252 H   0  0  0  0  0  0  0  0  0  0  0  0
   -3.4043    0.1155    1.2376 H   0  0  0  0  0  0  0  0  0  0  0  0
   -1.2309   -3.1827    0.9515 H   0  0  0  0  0  0  0  0  0  0  0  0
   -1.6372   -2.8507   -0.7096 H   0  0  0  0  0  0  0  0  0  0  0  0
    3.1985   -0.3136    1.4759 H   0  0  0  0  0  0  0  0  0  0  0  0
   -1.3399    1.8069    0.8312 H   0  0  0  0  0  0  0  0  0  0  0  0
   -1.8652    2.1481   -0.8110 H   0  0  0  0  0  0  0  0  0  0  0  0
    0.1240    1.3439   -1.8013 H   0  0  0  0  0  0  0  0  0  0  0  0
    0.5289    2.4867   -0.5393 H   0  0  0  0  0  0  0  0  0  0  0  0
    1.0646   -3.0634    0.3371 H   0  0  0  0  0  0  0  0  0  0  0  0
    1.3443   -1.8885    1.6071 H   0  0  0  0  0  0  0  0  0  0  0  0
   -3.6485   -3.4735    0.4331 H   0  0  0  0  0  0  0  0  0  0  0  0
   -3.3778   -2.3271    1.7236 H   0  0  0  0  0  0  0  0  0  0  0  0
   -4.2997    1.0222   -1.5157 H   0  0  0  0  0  0  0  0  0  0  0  0
    3.4256   -2.6424    0.7231 H   0  0  0  0  0  0  0  0  0  0  0  0
    3.0039   -2.1925   -0.9139 H   0  0  0  0  0  0  0  0  0  0  0  0
   -5.5049   -1.1989    1.4326 H   0  0  0  0  0  0  0  0  0  0  0  0
   -6.1635   -1.9168   -0.0419 H   0  0  0  0  0  0  0  0  0  0  0  0
   -0.5622    0.2085    2.2185 H   0  0  0  0  0  0  0  0  0  0  0  0
   -1.9981   -0.7517    2.4292 H   0  0  0  0  0  0  0  0  0  0  0  0
   -0.4516   -1.5266    2.5144 H   0  0  0  0  0  0  0  0  0  0  0  0
   -0.2052   -0.8052   -2.3234 H   0  0  0  0  0  0  0  0  0  0  0  0
    1.3756   -1.5201   -2.1646 H   0  0  0  0  0  0  0  0  0  0  0  0
   -0.0052   -2.4802   -1.8136 H   0  0  0  0  0  0  0  0  0  0  0  0
    2.3722    2.3189    1.0396 H   0  0  0  0  0  0  0  0  0  0  0  0
    2.9102    2.7823   -0.5503 H   0  0  0  0  0  0  0  0  0  0  0  0
   -6.3505    0.1790   -1.0950 H   0  0  0  0  0  0  0  0  0  0  0  0
   -6.4627    0.7468    0.5492 H   0  0  0  0  0  0  0  0  0  0  0  0
    2.1948    1.2490   -2.4242 H   0  0  0  0  0  0  0  0  0  0  0  0
    3.8921    1.1041   -2.0654 H   0  0  0  0  0  0  0  0  0  0  0  0
    2.9496   -0.3419   -2.3182 H   0  0  0  0  0  0  0  0  0  0  0  0
   -4.6193   -1.0945   -2.2537 H   0  0  0  0  0  0  0  0  0  0  0  0
   -3.0653   -1.8953   -2.0887 H   0  0  0  0  0  0  0  0  0  0  0  0
   -4.5505   -2.7797   -1.7590 H   0  0  0  0  0  0  0  0  0  0  0  0
    4.4643    1.9155    1.8490 H   0  0  0  0  0  0  0  0  0  0  0  0
    4.8622    3.0985    0.6094 H   0  0  0  0  0  0  0  0  0  0  0  0
    5.3539   -2.2561   -0.8412 H   0  0  0  0  0  0  0  0  0  0  0  0
    5.1554   -0.8412   -1.8879 H   0  0  0  0  0  0  0  0  0  0  0  0
    6.6400   -1.0689   -0.9851 H   0  0  0  0  0  0  0  0  0  0  0  0
    5.3121   -0.3824    2.4320 H   0  0  0  0  0  0  0  0  0  0  0  0
    5.4413   -1.9891    1.6981 H   0  0  0  0  0  0  0  0  0  0  0  0
    6.7390   -0.8045    1.4924 H   0  0  0  0  0  0  0  0  0  0  0  0
   -5.4704    1.8411    2.0160 H   0  0  0  0  0  0  0  0  0  0  0  0
   -3.7137    2.0311    2.1785 H   0  0  0  0  0  0  0  0  0  0  0  0
   -4.7472    3.4344    1.9811 H   0  0  0  0  0  0  0  0  0  0  0  0
   -4.2381    4.4103   -0.1371 H   0  0  0  0  0  0  0  0  0  0  0  0
   -4.1239    3.3581   -1.6569 H   0  0  0  0  0  0  0  0  0  0  0  0
  1 26  2  0  0  0  0
  2  3  1  0  0  0  0
  2  4  1  0  0  0  0
  2  9  1  0  0  0  0
  2 18  1  0  0  0  0
  3  5  1  0  0  0  0
  3 13  1  0  0  0  0
  3 19  1  0  0  0  0
  4  6  1  0  0  0  0
  4 11  1  0  0  0  0
  4 32  1  0  0  0  0
  5  7  1  0  0  0  0
  5 12  1  0  0  0  0
  5 33  1  0  0  0  0
  6  8  1  0  0  0  0
  6 15  1  0  0  0  0
  6 34  1  0  0  0  0
  7 10  1  0  0  0  0
  7 20  1  0  0  0  0
  7 23  1  0  0  0  0
  8 14  1  0  0  0  0
  8 17  1  0  0  0  0
  8 24  1  0  0  0  0
  9 14  1  0  0  0  0
  9 35  1  0  0  0  0
  9 36  1  0  0  0  0
 10 16  1  0  0  0  0
 10 21  1  0  0  0  0
 10 37  1  0  0  0  0
 11 12  1  0  0  0  0
 11 38  1  0  0  0  0
 11 39  1  0  0  0  0
 12 40  1  0  0  0  0
 12 41  1  0  0  0  0
 13 16  1  0  0  0  0
 13 42  1  0  0  0  0
 13 43  1  0  0  0  0
 14 44  1  0  0  0  0
 14 45  1  0  0  0  0
 15 22  1  0  0  0  0
 15 27  1  0  0  0  0
 15 46  1  0  0  0  0
 16 47  1  0  0  0  0
 16 48  1  0  0  0  0
 17 22  1  0  0  0  0
 17 49  1  0  0  0  0
 17 50  1  0  0  0  0
 18 51  1  0  0  0  0
 18 52  1  0  0  0  0
 18 53  1  0  0  0  0
 19 54  1  0  0  0  0
 19 55  1  0  0  0  0
 19 56  1  0  0  0  0
 20 25  1  0  0  0  0
 20 57  1  0  0  0  0
 20 58  1  0  0  0  0
 21 26  1  0  0  0  0
 21 28  1  0  0  0  0
 21 29  1  0  0  0  0
 22 59  1  0  0  0  0
 22 60  1  0  0  0  0
 23 61  1  0  0  0  0
 23 62  1  0  0  0  0
 23 63  1  0  0  0  0
 24 64  1  0  0  0  0
 24 65  1  0  0  0  0
 24 66  1  0  0  0  0
 25 26  1  0  0  0  0
 25 67  1  0  0  0  0
 25 68  1  0  0  0  0
 27 30  1  0  0  0  0
 27 31  2  0  0  0  0
 28 69  1  0  0  0  0
 28 70  1  0  0  0  0
 28 71  1  0  0  0  0
 29 72  1  0  0  0  0
 29 73  1  0  0  0  0
 29 74  1  0  0  0  0
 30 75  1  0  0  0  0
 30 76  1  0  0  0  0
 30 77  1  0  0  0  0
 31 78  1  0  0  0  0
 31 79  1  0  0  0  0
M  END
> <PUBCHEM_COMPOUND_CID>
92158

> <PUBCHEM_CONFORMER_RMSD>
0.8

> <PUBCHEM_CONFORMER_DIVERSEORDER>
1

> <PUBCHEM_MMFF94_PARTIAL_CHARGES>
10
1 -0.57
15 0.14
21 0.06
25 0.06
26 0.45
27 -0.28
30 0.14
31 -0.3
78 0.15
79 0.15

> <PUBCHEM_EFFECTIVE_ROTOR_COUNT>
3.4

> <PUBCHEM_PHARMACOPHORE_FEATURES>
7
1 1 acceptor
3 21 28 29 hydrophobe
5 6 8 15 17 22 rings
6 2 3 4 5 11 12 rings
6 2 4 6 8 9 14 rings
6 3 5 7 10 13 16 rings
6 7 10 20 21 25 26 rings

> <PUBCHEM_HEAVY_ATOM_COUNT>
31

> <PUBCHEM_ATOM_DEF_STEREO_COUNT>
9

> <PUBCHEM_ATOM_UDEF_STEREO_COUNT>
0

> <PUBCHEM_BOND_DEF_STEREO_COUNT>
0

> <PUBCHEM_BOND_UDEF_STEREO_COUNT>
0

> <PUBCHEM_ISOTOPIC_ATOM_COUNT>
0

> <PUBCHEM_COMPONENT_COUNT>
1

> <PUBCHEM_CACTVS_TAUTO_COUNT>
2

> <PUBCHEM_CONFORMER_ID>
000167FE00000001

> <PUBCHEM_MMFF94_ENERGY>
151.3035

> <PUBCHEM_FEATURE_SELFOVERLAP>
35.616

> <PUBCHEM_SHAPE_FINGERPRINT>
10411042 1 17835799695509380835
10595046 47 18409452470649246099
10675989 125 16542443574776893597
10906281 52 18059559296595093570
11578080 2 14275109607505261937
12107183 9 17982179120905981450
12166972 35 18341611482187045000
12236239 1 17988928859548420467
12403259 415 17968100789667430136
12422481 6 18272093863198718940
12633257 1 18201165437632704658
12788726 201 17458623487976202528
13140716 1 18197781201172405643
13224815 77 18411415094372124839
13533116 47 17560529499121096802
13583140 156 18189050893890334130
13782708 43 17676771972215640935
13785724 45 17905048406800428682
13811026 1 18408326609597328998
13911987 19 16733541607175179377
14251764 38 18337668616167624196
14466204 15 18411139147208657144
14790565 3 18341048605094482834
14955137 171 12391509793621941254
15021287 119 17203607103378981468
15183329 4 18412828010016723714
15196674 1 18412265034404229274
15484559 13 15539011675017489423
15788980 27 18343581824124358215
16112460 7 17973715072259302713
17349148 13 17846498118991148798
17844677 252 18335415751264833464
17980427 23 18272364261228141501
1813 80 16343706525864171158
20511986 3 18270696328159022343
20715895 44 18120940765702861641
21033648 144 18412834594011957677
21033648 29 17822588143956007458
21236236 1 18409730660181586725
21267235 1 18341886377431996835
21279426 13 18337106882026921532
21315764 268 18335989674955174265
21421861 104 17630617927762630090
22393880 68 18335415794188042006
23402539 116 18411987953121241751
23522609 53 17986929999587665420
23559900 14 18339084782986077320
23569914 2 17539182454629374752
23569943 247 16700637777259386138
2838139 119 18409175427904523284
3004659 81 18272087206595476550
32027 91 17315618862727213694
335352 9 18413672426135505190
34797466 226 17676199148253250956
3493558 16 18410569578531680737
350125 39 18412263921691415853
3633792 109 18270413784416145389
3680242 22 18200036282330660042
404807 14 17251445982420587262
4073 2 18130221563201422762
4144715 1 18341885320527384899
4197921 191 18272367542588618004
445580 125 18337385036730220129
460360 51 18339341037787926554
5104073 3 18413674604142743624
513202 73 16270535242495513778
5283173 99 18409168826497864361
6086070 43 17967542271761718136
6328613 192 18130217173934730796
7226269 152 18261109724757712729
9981440 41 18342452652017380851

> <PUBCHEM_SHAPE_MULTIPOLES>
632.1
14.3
3.03
1.34
6.22
1.02
-0.02
3.74
0.93
-2.63
0.16
0.09
-0.16
-0.42

> <PUBCHEM_SHAPE_SELFOVERLAP>
1339.814

> <PUBCHEM_SHAPE_VOLUME>
353.4

> <PUBCHEM_COORDINATE_TYPE>
2
5
10

$$$$

