542
  -OEChem-07051212493D

 16 16  0     1  0  0  0  0  0999 V2000
   -0.6584   -0.6992    0.2664 O   0  0  0  0  0  0  0  0  0  0  0  0
    3.3064    0.0793   -0.8219 O   0  0  0  0  0  0  0  0  0  0  0  0
   -2.7115   -1.4336   -0.4707 O   0  0  0  0  0  0  0  0  0  0  0  0
    2.2104   -1.0455    0.8256 O   0  0  0  0  0  0  0  0  0  0  0  0
   -0.0865    0.5844    0.5548 C   0  0  1  0  0  0  0  0  0  0  0  0
    1.1268    0.8051   -0.3324 C   0  0  0  0  0  0  0  0  0  0  0  0
   -1.1919    1.5257    0.2744 C   0  0  0  0  0  0  0  0  0  0  0  0
   -2.2834    0.8860   -0.1318 C   0  0  0  0  0  0  0  0  0  0  0  0
   -1.9504   -0.5390   -0.1451 C   0  0  0  0  0  0  0  0  0  0  0  0
    2.2385   -0.1632   -0.0192 C   0  0  0  0  0  0  0  0  0  0  0  0
    0.1842    0.6087    1.6164 H   0  0  0  0  0  0  0  0  0  0  0  0
    0.8597    0.6593   -1.3865 H   0  0  0  0  0  0  0  0  0  0  0  0
    1.5127    1.8219   -0.1952 H   0  0  0  0  0  0  0  0  0  0  0  0
   -1.1243    2.5976    0.3923 H   0  0  0  0  0  0  0  0  0  0  0  0
   -3.2358    1.3066   -0.4028 H   0  0  0  0  0  0  0  0  0  0  0  0
    4.0475   -0.5373   -0.6406 H   0  0  0  0  0  0  0  0  0  0  0  0
  1  5  1  0  0  0  0
  1  9  1  0  0  0  0
  2 10  1  0  0  0  0
  2 16  1  0  0  0  0
  3  9  2  0  0  0  0
  4 10  2  0  0  0  0
  5  6  1  0  0  0  0
  5  7  1  0  0  0  0
  5 11  1  0  0  0  0
  6 10  1  0  0  0  0
  6 12  1  0  0  0  0
  6 13  1  0  0  0  0
  7  8  2  0  0  0  0
  7 14  1  0  0  0  0
  8  9  1  0  0  0  0
  8 15  1  0  0  0  0
M  END
> <PUBCHEM_COMPOUND_CID>
542

> <PUBCHEM_CONFORMER_RMSD>
0.6

> <PUBCHEM_CONFORMER_DIVERSEORDER>
1
3
6
4
2
5

> <PUBCHEM_MMFF94_PARTIAL_CHARGES>
13
1 -0.43
10 0.66
14 0.15
15 0.15
16 0.5
2 -0.65
3 -0.57
4 -0.57
5 0.42
6 0.06
7 -0.29
8 -0.14
9 0.71

> <PUBCHEM_EFFECTIVE_ROTOR_COUNT>
2.4

> <PUBCHEM_PHARMACOPHORE_FEATURES>
5
1 2 acceptor
1 3 acceptor
1 4 acceptor
3 2 4 10 anion
5 1 5 7 8 9 rings

> <PUBCHEM_HEAVY_ATOM_COUNT>
10

> <PUBCHEM_ATOM_DEF_STEREO_COUNT>
0

> <PUBCHEM_ATOM_UDEF_STEREO_COUNT>
1

> <PUBCHEM_BOND_DEF_STEREO_COUNT>
0

> <PUBCHEM_BOND_UDEF_STEREO_COUNT>
0

> <PUBCHEM_ISOTOPIC_ATOM_COUNT>
0

> <PUBCHEM_COMPONENT_COUNT>
1

> <PUBCHEM_CACTVS_TAUTO_COUNT>
1

> <PUBCHEM_CONFORMER_ID>
0000021E00000001

> <PUBCHEM_MMFF94_ENERGY>
6.5408

> <PUBCHEM_FEATURE_SELFOVERLAP>
25.428

> <PUBCHEM_SHAPE_FINGERPRINT>
10857977 72 17749118767881128288
12716758 59 18042688492767077505
12897270 3 18341894056632600812
12932741 1 17458352965403225888
12932764 1 18341610447094359688
14128692 85 18336543807176680437
15310529 11 17560796675460289497
16945 1 18262522614357804441
20653085 51 16414928559678827909
21040471 1 18046909556703434945
23552423 10 18270963436211898813
29004967 10 16298105384460272200
369184 2 18334579070134368985
8030462 33 18201999928113492128

> <PUBCHEM_SHAPE_MULTIPOLES>
182.32
4.37
1.36
0.77
1.99
0.01
0.02
-0.95
-0.8
-0.79
0.03
0.25
-0.02
-0.39

> <PUBCHEM_SHAPE_SELFOVERLAP>
375.74

> <PUBCHEM_SHAPE_VOLUME>
105.6

> <PUBCHEM_COORDINATE_TYPE>
2
5
10

$$$$

