200104
  -OEChem-07051213072D

 77 80  0     1  0  0  0  0  0999 V2000
    6.3238    1.7004    0.0000 S   0  0  0  0  0  0  0  0  0  0  0  0
    8.1779   -5.6240    0.0000 O   0  0  0  0  0  0  0  0  0  0  0  0
   10.0752   -5.6197    0.0000 O   0  0  0  0  0  0  0  0  0  0  0  0
    7.8689   -3.0549    0.0000 O   0  0  0  0  0  0  0  0  0  0  0  0
    4.3164   -0.5291    0.0000 O   0  0  0  0  0  0  0  0  0  0  0  0
    6.2216   -3.5902    0.0000 O   0  0  0  0  0  0  0  0  0  0  0  0
    5.5807    2.3695    0.0000 O   0  0  0  0  0  0  0  0  0  0  0  0
    7.0670    1.0312    0.0000 O   0  0  0  0  0  0  0  0  0  0  0  0
    9.0003    4.6730    0.0000 O   0  0  0  0  0  0  0  0  0  0  0  0
    6.5817   -1.8960    0.0000 N   0  0  0  0  0  0  0  0  0  0  0  0
    5.6547    0.9572    0.0000 N   0  0  3  0  0  0  0  0  0  0  0  0
    9.1290   -4.3150    0.0000 C   0  0  2  0  0  0  0  0  0  0  0  0
    9.1290   -5.3150    0.0000 C   0  0  1  0  0  0  0  0  0  0  0  0
    8.1779   -4.0060    0.0000 C   0  0  2  0  0  0  0  0  0  0  0  0
   10.0752   -4.0103    0.0000 C   0  0  0  0  0  0  0  0  0  0  0  0
    7.5901   -4.8150    0.0000 C   0  0  0  0  0  0  0  0  0  0  0  0
   10.6588   -4.8150    0.0000 C   0  0  0  0  0  0  0  0  0  0  0  0
    5.6036   -1.6880    0.0000 C   0  0  2  0  0  0  0  0  0  0  0  0
    5.2946   -0.7370    0.0000 C   0  0  1  0  0  0  0  0  0  0  0  0
    6.8907   -2.8470    0.0000 C   0  0  0  0  0  0  0  0  0  0  0  0
    5.9637    0.0062    0.0000 C   0  0  0  0  0  0  0  0  0  0  0  0
    4.9344   -2.4312    0.0000 C   0  0  0  0  0  0  0  0  0  0  0  0
    4.6765    1.1651    0.0000 C   0  0  0  0  0  0  0  0  0  0  0  0
    4.3675    2.1162    0.0000 C   0  0  0  0  0  0  0  0  0  0  0  0
    3.9563   -2.2233    0.0000 C   0  0  0  0  0  0  0  0  0  0  0  0
    6.9929    2.4435    0.0000 C   0  0  0  0  0  0  0  0  0  0  0  0
    3.3894    2.3241    0.0000 C   0  0  0  0  0  0  0  0  0  0  0  0
    5.0366    2.8593    0.0000 C   0  0  0  0  0  0  0  0  0  0  0  0
    3.6473   -1.2722    0.0000 C   0  0  0  0  0  0  0  0  0  0  0  0
    3.2872   -2.9664    0.0000 C   0  0  0  0  0  0  0  0  0  0  0  0
    7.9711    2.2356    0.0000 C   0  0  0  0  0  0  0  0  0  0  0  0
    6.6839    3.3946    0.0000 C   0  0  0  0  0  0  0  0  0  0  0  0
    2.6691   -1.0643    0.0000 C   0  0  0  0  0  0  0  0  0  0  0  0
    2.3090   -2.7585    0.0000 C   0  0  0  0  0  0  0  0  0  0  0  0
    2.0000   -1.8074    0.0000 C   0  0  0  0  0  0  0  0  0  0  0  0
    8.6402    2.9787    0.0000 C   0  0  0  0  0  0  0  0  0  0  0  0
    7.3530    4.1377    0.0000 C   0  0  0  0  0  0  0  0  0  0  0  0
    8.3312    3.9298    0.0000 C   0  0  0  0  0  0  0  0  0  0  0  0
    8.6913    5.6240    0.0000 C   0  0  0  0  0  0  0  0  0  0  0  0
    9.1301   -3.4650    0.0000 H   0  0  0  0  0  0  0  0  0  0  0  0
    9.1301   -6.1650    0.0000 H   0  0  0  0  0  0  0  0  0  0  0  0
    7.5655   -3.9090    0.0000 H   0  0  0  0  0  0  0  0  0  0  0  0
   10.6126   -3.7010    0.0000 H   0  0  0  0  0  0  0  0  0  0  0  0
    9.8242   -3.4434    0.0000 H   0  0  0  0  0  0  0  0  0  0  0  0
    7.1294   -4.4001    0.0000 H   0  0  0  0  0  0  0  0  0  0  0  0
    7.1294   -5.2298    0.0000 H   0  0  0  0  0  0  0  0  0  0  0  0
   11.1197   -5.2297    0.0000 H   0  0  0  0  0  0  0  0  0  0  0  0
   11.1197   -4.4003    0.0000 H   0  0  0  0  0  0  0  0  0  0  0  0
    5.7952   -2.2777    0.0000 H   0  0  0  0  0  0  0  0  0  0  0  0
    5.1030   -0.1473    0.0000 H   0  0  0  0  0  0  0  0  0  0  0  0
    6.3454   -0.4824    0.0000 H   0  0  0  0  0  0  0  0  0  0  0  0
    6.5111    0.2972    0.0000 H   0  0  0  0  0  0  0  0  0  0  0  0
    6.9966   -1.4352    0.0000 H   0  0  0  0  0  0  0  0  0  0  0  0
    4.7022   -3.0060    0.0000 H   0  0  0  0  0  0  0  0  0  0  0  0
    5.4602   -2.7597    0.0000 H   0  0  0  0  0  0  0  0  0  0  0  0
    4.0626    1.0788    0.0000 H   0  0  0  0  0  0  0  0  0  0  0  0
    4.6549    0.5455    0.0000 H   0  0  0  0  0  0  0  0  0  0  0  0
    4.9740    1.9873    0.0000 H   0  0  0  0  0  0  0  0  0  0  0  0
    4.1248    0.0606    0.0000 H   0  0  0  0  0  0  0  0  0  0  0  0
    5.4974    2.4445    0.0000 H   0  0  0  0  0  0  0  0  0  0  0  0
    5.4515    3.3201    0.0000 H   0  0  0  0  0  0  0  0  0  0  0  0
    4.5759    3.2742    0.0000 H   0  0  0  0  0  0  0  0  0  0  0  0
    3.5183    2.9306    0.0000 H   0  0  0  0  0  0  0  0  0  0  0  0
    2.7829    2.4530    0.0000 H   0  0  0  0  0  0  0  0  0  0  0  0
    3.2604    1.7176    0.0000 H   0  0  0  0  0  0  0  0  0  0  0  0
    4.0621   -0.8115    0.0000 H   0  0  0  0  0  0  0  0  0  0  0  0
    3.4788   -3.5561    0.0000 H   0  0  0  0  0  0  0  0  0  0  0  0
    8.1627    1.6460    0.0000 H   0  0  0  0  0  0  0  0  0  0  0  0
    6.0775    3.5235    0.0000 H   0  0  0  0  0  0  0  0  0  0  0  0
    2.4775   -0.4746    0.0000 H   0  0  0  0  0  0  0  0  0  0  0  0
    1.8942   -3.2192    0.0000 H   0  0  0  0  0  0  0  0  0  0  0  0
    1.3936   -1.6785    0.0000 H   0  0  0  0  0  0  0  0  0  0  0  0
    9.2467    2.8498    0.0000 H   0  0  0  0  0  0  0  0  0  0  0  0
    7.1614    4.7274    0.0000 H   0  0  0  0  0  0  0  0  0  0  0  0
    9.2810    5.8156    0.0000 H   0  0  0  0  0  0  0  0  0  0  0  0
    8.4997    6.2137    0.0000 H   0  0  0  0  0  0  0  0  0  0  0  0
    8.1016    5.4324    0.0000 H   0  0  0  0  0  0  0  0  0  0  0  0
  1  7  2  0  0  0  0
  1  8  2  0  0  0  0
  1 11  1  0  0  0  0
  1 26  1  0  0  0  0
  2 13  1  0  0  0  0
  2 16  1  0  0  0  0
  3 13  1  0  0  0  0
  3 17  1  0  0  0  0
 14  4  1  6  0  0  0
  4 20  1  0  0  0  0
 19  5  1  6  0  0  0
  5 59  1  0  0  0  0
  6 20  2  0  0  0  0
  9 38  1  0  0  0  0
  9 39  1  0  0  0  0
 18 10  1  1  0  0  0
 10 20  1  0  0  0  0
 10 53  1  0  0  0  0
 11 21  1  0  0  0  0
 11 23  1  0  0  0  0
 12 13  1  0  0  0  0
 12 14  1  0  0  0  0
 12 15  1  0  0  0  0
 12 40  1  1  0  0  0
 13 41  1  1  0  0  0
 14 16  1  0  0  0  0
 14 42  1  0  0  0  0
 15 17  1  0  0  0  0
 15 43  1  0  0  0  0
 15 44  1  0  0  0  0
 16 45  1  0  0  0  0
 16 46  1  0  0  0  0
 17 47  1  0  0  0  0
 17 48  1  0  0  0  0
 18 19  1  0  0  0  0
 18 22  1  0  0  0  0
 18 49  1  0  0  0  0
 19 21  1  0  0  0  0
 19 50  1  0  0  0  0
 21 51  1  0  0  0  0
 21 52  1  0  0  0  0
 22 25  1  0  0  0  0
 22 54  1  0  0  0  0
 22 55  1  0  0  0  0
 23 24  1  0  0  0  0
 23 56  1  0  0  0  0
 23 57  1  0  0  0  0
 24 27  1  0  0  0  0
 24 28  1  0  0  0  0
 24 58  1  0  0  0  0
 25 29  2  0  0  0  0
 25 30  1  0  0  0  0
 26 31  2  0  0  0  0
 26 32  1  0  0  0  0
 27 63  1  0  0  0  0
 27 64  1  0  0  0  0
 27 65  1  0  0  0  0
 28 60  1  0  0  0  0
 28 61  1  0  0  0  0
 28 62  1  0  0  0  0
 29 33  1  0  0  0  0
 29 66  1  0  0  0  0
 30 34  2  0  0  0  0
 30 67  1  0  0  0  0
 31 36  1  0  0  0  0
 31 68  1  0  0  0  0
 32 37  2  0  0  0  0
 32 69  1  0  0  0  0
 33 35  2  0  0  0  0
 33 70  1  0  0  0  0
 34 35  1  0  0  0  0
 34 71  1  0  0  0  0
 35 72  1  0  0  0  0
 36 38  2  0  0  0  0
 36 73  1  0  0  0  0
 37 38  1  0  0  0  0
 37 74  1  0  0  0  0
 39 75  1  0  0  0  0
 39 76  1  0  0  0  0
 39 77  1  0  0  0  0
M  END
> <PUBCHEM_COMPOUND_CID>
200104

> <PUBCHEM_COMPOUND_CANONICALIZED>
1

> <PUBCHEM_CACTVS_COMPLEXITY>
867

> <PUBCHEM_CACTVS_HBOND_ACCEPTOR>
9

> <PUBCHEM_CACTVS_HBOND_DONOR>
2

> <PUBCHEM_CACTVS_ROTATABLE_BOND>
13

> <PUBCHEM_CACTVS_SUBSKEYS>
AAADcfB7PABAAAAAAAAAAAAAAAAAASJAAAAwYAAAAAASAAABQAAAHgQQSAAADTzx2AcyD4LABgKIAiBCGHBCCBAgIAAIiJgOCIkfNiKE8RuucCAl1hGeqAfQ4KgOAIAAAAAAAAABAAAAAAAAAAAAAAAAAA==

> <PUBCHEM_IUPAC_OPENEYE_NAME>
[(3aS,4R,6aR)-2,3,3a,4,5,6a-hexahydrofuro[2,3-b]furan-4-yl] N-[(1S,2R)-1-benzyl-2-hydroxy-3-[isobutyl-(4-methoxyphenyl)sulfonyl-amino]propyl]carbamate

> <PUBCHEM_IUPAC_CAS_NAME>
N-[(2S,3R)-3-hydroxy-4-[(4-methoxyphenyl)sulfonyl-(2-methylpropyl)amino]-1-phenylbutan-2-yl]carbamic acid [(3aS,4R,6aR)-2,3,3a,4,5,6a-hexahydrofuro[2,3-b]furan-4-yl] ester

> <PUBCHEM_IUPAC_NAME>
[(3aS,4R,6aR)-2,3,3a,4,5,6a-hexahydrofuro[2,3-b]furan-4-yl] N-[(2S,3R)-3-hydroxy-4-[(4-methoxyphenyl)sulfonyl-(2-methylpropyl)amino]-1-phenylbutan-2-yl]carbamate

> <PUBCHEM_IUPAC_SYSTEMATIC_NAME>
[(3aS,4R,6aR)-2,3,3a,4,5,6a-hexahydrofuro[2,3-b]furan-4-yl] N-[(2S,3R)-4-[(4-methoxyphenyl)sulfonyl-(2-methylpropyl)amino]-3-oxidanyl-1-phenyl-butan-2-yl]carbamate

> <PUBCHEM_IUPAC_TRADITIONAL_NAME>
N-[(1S,2R)-1-benzyl-2-hydroxy-3-[isobutyl-(4-methoxyphenyl)sulfonyl-amino]propyl]carbamic acid [(3aS,4R,6aR)-2,3,3a,4,5,6a-hexahydrofuro[2,3-b]furan-4-yl] ester

> <PUBCHEM_IUPAC_INCHI>
InChI=1S/C28H38N2O8S/c1-19(2)16-30(39(33,34)22-11-9-21(35-3)10-12-22)17-25(31)24(15-20-7-5-4-6-8-20)29-28(32)38-26-18-37-27-23(26)13-14-36-27/h4-12,19,23-27,31H,13-18H2,1-3H3,(H,29,32)/t23-,24-,25+,26-,27+/m0/s1

> <PUBCHEM_IUPAC_INCHIKEY>
BINXAIIXOUQUKC-UIPNDDLNSA-N

> <PUBCHEM_XLOGP3_AA>
3.6

> <PUBCHEM_EXACT_MASS>
562.234887

> <PUBCHEM_MOLECULAR_FORMULA>
C28H38N2O8S

> <PUBCHEM_MOLECULAR_WEIGHT>
562.67492

> <PUBCHEM_OPENEYE_CAN_SMILES>
CC(C)CN(CC(C(CC1=CC=CC=C1)NC(=O)OC2COC3C2CCO3)O)S(=O)(=O)C4=CC=C(C=C4)OC

> <PUBCHEM_OPENEYE_ISO_SMILES>
CC(C)CN(C[C@H]([C@H](CC1=CC=CC=C1)NC(=O)O[C@H]2CO[C@@H]3[C@H]2CCO3)O)S(=O)(=O)C4=CC=C(C=C4)OC

> <PUBCHEM_CACTVS_TPSA>
132

> <PUBCHEM_MONOISOTOPIC_WEIGHT>
562.234887

> <PUBCHEM_TOTAL_CHARGE>
0

> <PUBCHEM_HEAVY_ATOM_COUNT>
39

> <PUBCHEM_ATOM_DEF_STEREO_COUNT>
5

> <PUBCHEM_ATOM_UDEF_STEREO_COUNT>
0

> <PUBCHEM_BOND_DEF_STEREO_COUNT>
0

> <PUBCHEM_BOND_UDEF_STEREO_COUNT>
0

> <PUBCHEM_ISOTOPIC_ATOM_COUNT>
0

> <PUBCHEM_COMPONENT_COUNT>
1

> <PUBCHEM_CACTVS_TAUTO_COUNT>
2

> <PUBCHEM_COORDINATE_TYPE>
1
5
255

> <PUBCHEM_BONDANNOTATIONS>
18  10  5
12  40  5
13  41  5
25  29  8
25  30  8
26  31  8
26  32  8
29  33  8
30  34  8
31  36  8
32  37  8
33  35  8
34  35  8
36  38  8
37  38  8
14  4  6
19  5  6

$$$$

