16143
  -OEChem-07051213053D

 34 34  0     0  0  0  0  0  0999 V2000
   -5.5383   -0.0059   -0.9795 O   0  0  0  0  0  0  0  0  0  0  0  0
    2.1949   -0.0463    0.6981 C   0  0  0  0  0  0  0  0  0  0  0  0
    3.2651    0.0079   -0.3942 C   0  0  0  0  0  0  0  0  0  0  0  0
    0.7868    0.0277    0.0992 C   0  0  0  0  0  0  0  0  0  0  0  0
    4.6723   -0.0320    0.2041 C   0  0  0  0  0  0  0  0  0  0  0  0
   -0.3182    0.0074    1.1615 C   0  0  0  0  0  0  0  0  0  0  0  0
    5.7418    0.0563   -0.8843 C   0  0  0  0  0  0  0  0  0  0  0  0
   -1.7136    0.0034    0.5897 C   0  0  0  0  0  0  0  0  0  0  0  0
    7.1420   -0.0164   -0.2965 C   0  0  0  0  0  0  0  0  0  0  0  0
   -2.3518    1.2097    0.3445 C   0  0  0  0  0  0  0  0  0  0  0  0
   -2.3348   -1.2060    0.3178 C   0  0  0  0  0  0  0  0  0  0  0  0
   -3.6422    1.2065   -0.1852 C   0  0  0  0  0  0  0  0  0  0  0  0
   -3.6251   -1.2093   -0.2119 C   0  0  0  0  0  0  0  0  0  0  0  0
   -4.2788   -0.0031   -0.4633 C   0  0  0  0  0  0  0  0  0  0  0  0
    2.3007   -0.9732    1.2744 H   0  0  0  0  0  0  0  0  0  0  0  0
    2.3375    0.7878    1.3959 H   0  0  0  0  0  0  0  0  0  0  0  0
    3.1326   -0.8360   -1.0820 H   0  0  0  0  0  0  0  0  0  0  0  0
    3.1431    0.9263   -0.9814 H   0  0  0  0  0  0  0  0  0  0  0  0
    0.6931    0.9406   -0.5028 H   0  0  0  0  0  0  0  0  0  0  0  0
    0.6458   -0.8145   -0.5906 H   0  0  0  0  0  0  0  0  0  0  0  0
    4.7976    0.7996    0.9084 H   0  0  0  0  0  0  0  0  0  0  0  0
    4.8013   -0.9602    0.7740 H   0  0  0  0  0  0  0  0  0  0  0  0
   -0.2017    0.8714    1.8290 H   0  0  0  0  0  0  0  0  0  0  0  0
   -0.1927   -0.8737    1.8048 H   0  0  0  0  0  0  0  0  0  0  0  0
    5.6319    0.9951   -1.4394 H   0  0  0  0  0  0  0  0  0  0  0  0
    5.6115   -0.7621   -1.6019 H   0  0  0  0  0  0  0  0  0  0  0  0
    7.2952   -0.9600    0.2369 H   0  0  0  0  0  0  0  0  0  0  0  0
    7.3167    0.8068    0.4036 H   0  0  0  0  0  0  0  0  0  0  0  0
    7.8909    0.0494   -1.0920 H   0  0  0  0  0  0  0  0  0  0  0  0
   -1.8633    2.1566    0.5558 H   0  0  0  0  0  0  0  0  0  0  0  0
   -1.8330   -2.1504    0.5081 H   0  0  0  0  0  0  0  0  0  0  0  0
   -4.1404    2.1530   -0.3770 H   0  0  0  0  0  0  0  0  0  0  0  0
   -4.1157   -2.1546   -0.4269 H   0  0  0  0  0  0  0  0  0  0  0  0
   -5.8361    0.9136   -1.0887 H   0  0  0  0  0  0  0  0  0  0  0  0
  1 14  1  0  0  0  0
  1 34  1  0  0  0  0
  2  3  1  0  0  0  0
  2  4  1  0  0  0  0
  2 15  1  0  0  0  0
  2 16  1  0  0  0  0
  3  5  1  0  0  0  0
  3 17  1  0  0  0  0
  3 18  1  0  0  0  0
  4  6  1  0  0  0  0
  4 19  1  0  0  0  0
  4 20  1  0  0  0  0
  5  7  1  0  0  0  0
  5 21  1  0  0  0  0
  5 22  1  0  0  0  0
  6  8  1  0  0  0  0
  6 23  1  0  0  0  0
  6 24  1  0  0  0  0
  7  9  1  0  0  0  0
  7 25  1  0  0  0  0
  7 26  1  0  0  0  0
  8 10  2  0  0  0  0
  8 11  1  0  0  0  0
  9 27  1  0  0  0  0
  9 28  1  0  0  0  0
  9 29  1  0  0  0  0
 10 12  1  0  0  0  0
 10 30  1  0  0  0  0
 11 13  2  0  0  0  0
 11 31  1  0  0  0  0
 12 14  2  0  0  0  0
 12 32  1  0  0  0  0
 13 14  1  0  0  0  0
 13 33  1  0  0  0  0
M  END
> <PUBCHEM_COMPOUND_CID>
16143

> <PUBCHEM_CONFORMER_RMSD>
0.6

> <PUBCHEM_CONFORMER_DIVERSEORDER>
1
55
31
88
30
7
66
69
24
53
46
48
25
23
32
27
67
39
19
75
41
79
68
10
5
78
34
16
62
36
18
71
28
64
44
8
57
2
20
77
58
60
85
43
13
4
14
72
83
42
70
65
22
84
54
11
86
3
15
33
21
49
38
73
50
40
47
26
82
76
45
17
63
51
81
52
61
12
87
9
56
59
6
37
80
35
29
74

> <PUBCHEM_MMFF94_PARTIAL_CHARGES>
13
1 -0.53
10 -0.15
11 -0.15
12 -0.15
13 -0.15
14 0.08
30 0.15
31 0.15
32 0.15
33 0.15
34 0.45
6 0.14
8 -0.14

> <PUBCHEM_EFFECTIVE_ROTOR_COUNT>
6

> <PUBCHEM_PHARMACOPHORE_FEATURES>
5
1 1 donor
1 9 hydrophobe
3 2 4 6 hydrophobe
3 3 5 7 hydrophobe
6 8 10 11 12 13 14 rings

> <PUBCHEM_HEAVY_ATOM_COUNT>
14

> <PUBCHEM_ATOM_DEF_STEREO_COUNT>
0

> <PUBCHEM_ATOM_UDEF_STEREO_COUNT>
0

> <PUBCHEM_BOND_DEF_STEREO_COUNT>
0

> <PUBCHEM_BOND_UDEF_STEREO_COUNT>
0

> <PUBCHEM_ISOTOPIC_ATOM_COUNT>
0

> <PUBCHEM_COMPONENT_COUNT>
1

> <PUBCHEM_CACTVS_TAUTO_COUNT>
2

> <PUBCHEM_CONFORMER_ID>
00003F0F00000001

> <PUBCHEM_MMFF94_ENERGY>
16.801

> <PUBCHEM_FEATURE_SELFOVERLAP>
25.384

> <PUBCHEM_SHAPE_FINGERPRINT>
10968037 39 18408322176879732711
11089746 13 17632294554499221388
11315181 36 18334289851674502136
12091667 2 18273208695317627322
12251169 10 9007055781775239819
12714333 28 17775286058512403240
13288520 33 16298107575500131077
13533116 47 16199882743399411808
14123238 8 14273453687327748902
1420 363 15647051565038362428
14251718 22 18187081750522332502
14350574 20 16660365870241915392
15048467 5 16200435779507757036
15242439 84 18334577927957736064
15716309 27 5400802752756769212
17834072 33 18413107239136962588
17834072 8 18342459235795465596
17834076 25 16773796991811513906
17870717 6 18187356632165334687
1813 80 14273724128217407536
19489759 90 18409446999045235096
200 152 16225766332699290954
20281389 69 14405188352957890974
20300324 65 18412261748517189425
20325693 3 18411136931374440155
20645477 70 17749946791054337558
20767249 213 15770057228792356581
20871999 31 18408324406105149905
21150785 3 17749106665570922332
2297311 6 18187080650652255593
23402539 116 18202845448640073396
23402655 69 17989491852488340456
23466295 7 16590015714846603759
23557571 272 18113895000359946472
23559900 14 18261682462994037408
300161 21 17632580440222501490
351380 3 14490190527285591532
3545911 37 18059855064658456635
42788 4 18342736313216119460
542803 24 17060339621877921328

> <PUBCHEM_SHAPE_MULTIPOLES>
282.24
15.37
1.04
0.93
22.47
0
0.05
0.03
-5.22
-1.28
0.02
-0.06
0
-0.05

> <PUBCHEM_SHAPE_SELFOVERLAP>
555.751

> <PUBCHEM_SHAPE_VOLUME>
169.8

> <PUBCHEM_COORDINATE_TYPE>
2
5
10

$$$$

