442769
  -OEChem-07051212592D

 68 72  0     1  0  0  0  0  0999 V2000
    5.1350   -2.5176    0.0000 O   0  0  0  0  0  0  0  0  0  0  0  0
   10.2617    2.6831    0.0000 O   0  0  0  0  0  0  0  0  0  0  0  0
    2.5369   -2.0176    0.0000 O   0  0  0  0  0  0  0  0  0  0  0  0
    6.0290   -1.0523    0.0000 O   0  0  0  0  0  0  0  0  0  0  0  0
    2.5369   -4.0176    0.0000 O   0  0  0  0  0  0  0  0  0  0  0  0
    4.2690   -5.0176    0.0000 O   0  0  0  0  0  0  0  0  0  0  0  0
   10.8464    5.3252    0.0000 O   0  0  0  0  0  0  0  0  0  0  0  0
    6.0010   -5.0176    0.0000 O   0  0  0  0  0  0  0  0  0  0  0  0
    2.5369   -1.0176    0.0000 O   0  0  0  0  0  0  0  0  0  0  0  0
    6.0174    2.0170    0.0000 O   0  0  0  0  0  0  0  0  0  0  0  0
    8.6709   -0.4901    0.0000 O   0  0  0  0  0  0  0  0  0  0  0  0
    4.2690    1.9824    0.0000 O   0  0  0  0  0  0  0  0  0  0  0  0
    4.2690   -2.0176    0.0000 C   0  0  2  0  0  0  0  0  0  0  0  0
    3.4030   -2.5176    0.0000 C   0  0  1  0  0  0  0  0  0  0  0  0
    3.4030   -3.5176    0.0000 C   0  0  2  0  0  0  0  0  0  0  0  0
    4.2690   -4.0176    0.0000 C   0  0  1  0  0  0  0  0  0  0  0  0
    5.1350   -3.5176    0.0000 C   0  0  1  0  0  0  0  0  0  0  0  0
    4.2690   -1.0176    0.0000 C   0  0  0  0  0  0  0  0  0  0  0  0
    9.8531    3.5893    0.0000 C   0  0  3  0  0  0  0  0  0  0  0  0
    6.9350    0.5032    0.0000 C   0  0  3  0  0  0  0  0  0  0  0  0
    5.1350   -0.5176    0.0000 C   0  0  0  0  0  0  0  0  0  0  0  0
    8.8648    3.4825    0.0000 C   0  0  0  0  0  0  0  0  0  0  0  0
   10.3498    4.4573    0.0000 C   0  0  0  0  0  0  0  0  0  0  0  0
    8.6594    2.5099    0.0000 C   0  0  0  0  0  0  0  0  0  0  0  0
    6.0010   -4.0176    0.0000 C   0  0  0  0  0  0  0  0  0  0  0  0
    7.7991    1.0065    0.0000 C   0  0  0  0  0  0  0  0  0  0  0  0
    5.1350    0.4824    0.0000 C   0  0  0  0  0  0  0  0  0  0  0  0
    6.9350   -0.5384    0.0000 C   0  0  0  0  0  0  0  0  0  0  0  0
    9.5273    2.0132    0.0000 C   0  0  0  0  0  0  0  0  0  0  0  0
    6.0290    1.0170    0.0000 C   0  0  0  0  0  0  0  0  0  0  0  0
    3.4030   -0.5176    0.0000 C   0  0  0  0  0  0  0  0  0  0  0  0
    7.7953    2.0065    0.0000 C   0  0  0  0  0  0  0  0  0  0  0  0
    8.6671    0.5099    0.0000 C   0  0  0  0  0  0  0  0  0  0  0  0
    4.2690    0.9824    0.0000 C   0  0  0  0  0  0  0  0  0  0  0  0
    9.5312    1.0132    0.0000 C   0  0  0  0  0  0  0  0  0  0  0  0
   11.2177    3.9606    0.0000 C   0  0  0  0  0  0  0  0  0  0  0  0
    9.4818    4.9539    0.0000 C   0  0  0  0  0  0  0  0  0  0  0  0
    3.4030    0.4824    0.0000 C   0  0  0  0  0  0  0  0  0  0  0  0
    5.0051   -1.5926    0.0000 H   0  0  0  0  0  0  0  0  0  0  0  0
    3.4030   -1.8976    0.0000 H   0  0  0  0  0  0  0  0  0  0  0  0
    3.4030   -4.1376    0.0000 H   0  0  0  0  0  0  0  0  0  0  0  0
    4.8059   -4.3276    0.0000 H   0  0  0  0  0  0  0  0  0  0  0  0
    5.6720   -3.2076    0.0000 H   0  0  0  0  0  0  0  0  0  0  0  0
   10.7021    3.5485    0.0000 H   0  0  0  0  0  0  0  0  0  0  0  0
    7.6720    0.0796    0.0000 H   0  0  0  0  0  0  0  0  0  0  0  0
    8.8633    4.1025    0.0000 H   0  0  0  0  0  0  0  0  0  0  0  0
    8.2481    3.5462    0.0000 H   0  0  0  0  0  0  0  0  0  0  0  0
    6.6116   -4.1253    0.0000 H   0  0  0  0  0  0  0  0  0  0  0  0
    6.2131   -3.4350    0.0000 H   0  0  0  0  0  0  0  0  0  0  0  0
    7.1441   -1.1221    0.0000 H   0  0  0  0  0  0  0  0  0  0  0  0
    7.5459   -0.4323    0.0000 H   0  0  0  0  0  0  0  0  0  0  0  0
    7.2571    2.3144    0.0000 H   0  0  0  0  0  0  0  0  0  0  0  0
    2.0000   -2.3276    0.0000 H   0  0  0  0  0  0  0  0  0  0  0  0
    2.5369   -4.6376    0.0000 H   0  0  0  0  0  0  0  0  0  0  0  0
    3.7320   -5.3276    0.0000 H   0  0  0  0  0  0  0  0  0  0  0  0
   10.0693    0.7053    0.0000 H   0  0  0  0  0  0  0  0  0  0  0  0
    9.7898    5.4921    0.0000 H   0  0  0  0  0  0  0  0  0  0  0  0
    8.9437    5.2619    0.0000 H   0  0  0  0  0  0  0  0  0  0  0  0
    9.1739    4.4158    0.0000 H   0  0  0  0  0  0  0  0  0  0  0  0
   10.9098    3.4225    0.0000 H   0  0  0  0  0  0  0  0  0  0  0  0
   11.7559    3.6527    0.0000 H   0  0  0  0  0  0  0  0  0  0  0  0
   11.5257    4.4988    0.0000 H   0  0  0  0  0  0  0  0  0  0  0  0
    2.8660    0.7924    0.0000 H   0  0  0  0  0  0  0  0  0  0  0  0
   11.4664    5.3276    0.0000 H   0  0  0  0  0  0  0  0  0  0  0  0
    6.5380   -5.3276    0.0000 H   0  0  0  0  0  0  0  0  0  0  0  0
    2.0000   -0.7076    0.0000 H   0  0  0  0  0  0  0  0  0  0  0  0
    9.2090   -0.7980    0.0000 H   0  0  0  0  0  0  0  0  0  0  0  0
    3.7320    2.2924    0.0000 H   0  0  0  0  0  0  0  0  0  0  0  0
  1 13  1  0  0  0  0
  1 17  1  0  0  0  0
  2 19  1  0  0  0  0
  2 29  1  0  0  0  0
 14  3  1  1  0  0  0
  3 53  1  0  0  0  0
  4 21  1  0  0  0  0
  4 28  1  0  0  0  0
 15  5  1  6  0  0  0
  5 54  1  0  0  0  0
 16  6  1  1  0  0  0
  6 55  1  0  0  0  0
  7 23  1  0  0  0  0
  7 64  1  0  0  0  0
  8 25  1  0  0  0  0
  8 65  1  0  0  0  0
  9 31  1  0  0  0  0
  9 66  1  0  0  0  0
 10 30  2  0  0  0  0
 11 33  1  0  0  0  0
 11 67  1  0  0  0  0
 12 34  1  0  0  0  0
 12 68  1  0  0  0  0
 13 14  1  0  0  0  0
 13 18  1  0  0  0  0
 13 39  1  1  0  0  0
 14 15  1  0  0  0  0
 14 40  1  0  0  0  0
 15 16  1  0  0  0  0
 15 41  1  0  0  0  0
 16 17  1  0  0  0  0
 16 42  1  0  0  0  0
 17 25  1  6  0  0  0
 17 43  1  0  0  0  0
 18 21  2  0  0  0  0
 18 31  1  0  0  0  0
 19 22  1  0  0  0  0
 19 23  1  0  0  0  0
 19 44  1  0  0  0  0
 20 26  1  0  0  0  0
 20 28  1  0  0  0  0
 20 30  1  0  0  0  0
 20 45  1  0  0  0  0
 21 27  1  0  0  0  0
 22 24  1  0  0  0  0
 22 46  1  0  0  0  0
 22 47  1  0  0  0  0
 23 36  1  0  0  0  0
 23 37  1  0  0  0  0
 24 29  1  0  0  0  0
 24 32  2  0  0  0  0
 25 48  1  0  0  0  0
 25 49  1  0  0  0  0
 26 32  1  0  0  0  0
 26 33  2  0  0  0  0
 27 30  1  0  0  0  0
 27 34  2  0  0  0  0
 28 50  1  0  0  0  0
 28 51  1  0  0  0  0
 29 35  2  0  0  0  0
 31 38  2  0  0  0  0
 32 52  1  0  0  0  0
 33 35  1  0  0  0  0
 34 38  1  0  0  0  0
 35 56  1  0  0  0  0
 36 60  1  0  0  0  0
 36 61  1  0  0  0  0
 36 62  1  0  0  0  0
 37 57  1  0  0  0  0
 37 58  1  0  0  0  0
 37 59  1  0  0  0  0
 38 63  1  0  0  0  0
M  END
> <PUBCHEM_COMPOUND_CID>
442769

> <PUBCHEM_COMPOUND_CANONICALIZED>
1

> <PUBCHEM_CACTVS_COMPLEXITY>
869

> <PUBCHEM_CACTVS_HBOND_ACCEPTOR>
12

> <PUBCHEM_CACTVS_HBOND_DONOR>
8

> <PUBCHEM_CACTVS_ROTATABLE_BOND>
4

> <PUBCHEM_CACTVS_SUBSKEYS>
AAADceB4PAAAAAAAAAAAAAAAAAAAASAAAAA0aIEAAAAAAEiRQAAAGgAACAAADVSgmAIyBoAABgCIAqBSAAACCAAkIAAAiAEGCMgNNzaGNRqCeWCl4BULuQfK7PzOoAACCAAIAABAAAQQABAAAAAAAAAAAA==

> <PUBCHEM_IUPAC_OPENEYE_NAME>
5,7-dihydroxy-3-[6-hydroxy-2-(1-hydroxy-1-methyl-ethyl)-2,3-dihydrobenzofuran-5-yl]-8-[(2S,3R,4R,5S,6R)-3,4,5-trihydroxy-6-(hydroxymethyl)tetrahydropyran-2-yl]chroman-4-one

> <PUBCHEM_IUPAC_CAS_NAME>
5,7-dihydroxy-3-[6-hydroxy-2-(2-hydroxypropan-2-yl)-2,3-dihydrobenzofuran-5-yl]-8-[(2S,3R,4R,5S,6R)-3,4,5-trihydroxy-6-(hydroxymethyl)-2-oxanyl]-3,4-dihydro-2H-1-benzopyran-4-one

> <PUBCHEM_IUPAC_NAME>
5,7-dihydroxy-3-[6-hydroxy-2-(2-hydroxypropan-2-yl)-2,3-dihydro-1-benzofuran-5-yl]-8-[(2S,3R,4R,5S,6R)-3,4,5-trihydroxy-6-(hydroxymethyl)oxan-2-yl]-2,3-dihydrochromen-4-one

> <PUBCHEM_IUPAC_SYSTEMATIC_NAME>
8-[(2S,3R,4R,5S,6R)-6-(hydroxymethyl)-3,4,5-tris(oxidanyl)oxan-2-yl]-5,7-bis(oxidanyl)-3-[6-oxidanyl-2-(2-oxidanylpropan-2-yl)-2,3-dihydro-1-benzofuran-5-yl]-2,3-dihydrochromen-4-one

> <PUBCHEM_IUPAC_TRADITIONAL_NAME>
5,7-dihydroxy-3-[6-hydroxy-2-(1-hydroxy-1-methyl-ethyl)coumaran-5-yl]-8-[(2S,3R,4R,5S,6R)-3,4,5-trihydroxy-6-methylol-tetrahydropyran-2-yl]chroman-4-one

> <PUBCHEM_IUPAC_INCHI>
InChI=1S/C26H30O12/c1-26(2,35)17-4-9-3-10(12(28)6-15(9)37-17)11-8-36-24-18(20(11)31)13(29)5-14(30)19(24)25-23(34)22(33)21(32)16(7-27)38-25/h3,5-6,11,16-17,21-23,25,27-30,32-35H,4,7-8H2,1-2H3/t11?,16-,17?,21-,22+,23-,25+/m1/s1

> <PUBCHEM_IUPAC_INCHIKEY>
FBAPMDCZDDOJRF-VEWMLLAHSA-N

> <PUBCHEM_XLOGP3_AA>
0.1

> <PUBCHEM_EXACT_MASS>
534.173726

> <PUBCHEM_MOLECULAR_FORMULA>
C26H30O12

> <PUBCHEM_MOLECULAR_WEIGHT>
534.5092

> <PUBCHEM_OPENEYE_CAN_SMILES>
CC(C)(C1CC2=CC(=C(C=C2O1)O)C3COC4=C(C3=O)C(=CC(=C4C5C(C(C(C(O5)CO)O)O)O)O)O)O

> <PUBCHEM_OPENEYE_ISO_SMILES>
CC(C)(C1CC2=CC(=C(C=C2O1)O)C3COC4=C(C3=O)C(=CC(=C4[C@H]5[C@@H]([C@H]([C@@H]([C@H](O5)CO)O)O)O)O)O)O

> <PUBCHEM_CACTVS_TPSA>
207

> <PUBCHEM_MONOISOTOPIC_WEIGHT>
534.173726

> <PUBCHEM_TOTAL_CHARGE>
0

> <PUBCHEM_HEAVY_ATOM_COUNT>
38

> <PUBCHEM_ATOM_DEF_STEREO_COUNT>
5

> <PUBCHEM_ATOM_UDEF_STEREO_COUNT>
2

> <PUBCHEM_BOND_DEF_STEREO_COUNT>
0

> <PUBCHEM_BOND_UDEF_STEREO_COUNT>
0

> <PUBCHEM_ISOTOPIC_ATOM_COUNT>
0

> <PUBCHEM_COMPONENT_COUNT>
1

> <PUBCHEM_CACTVS_TAUTO_COUNT>
120

> <PUBCHEM_COORDINATE_TYPE>
1
5
255

> <PUBCHEM_BONDANNOTATIONS>
13  39  5
17  25  6
18  21  8
18  31  8
19  44  3
20  45  3
21  27  8
24  29  8
24  32  8
26  32  8
26  33  8
27  34  8
29  35  8
14  3  5
31  38  8
33  35  8
34  38  8
15  5  6
16  6  5

$$$$

