439555
  -OEChem-07051212463D

 45 46  0     1  0  0  0  0  0999 V2000
   -2.5142    0.0831    1.0815 O   0  0  0  0  0  0  0  0  0  0  0  0
   -0.4185    0.6796    0.2070 O   0  0  0  0  0  0  0  0  0  0  0  0
    1.7748   -0.9032    0.9236 O   0  0  0  0  0  0  0  0  0  0  0  0
   -1.5891    1.3006   -2.1836 O   0  0  0  0  0  0  0  0  0  0  0  0
    3.0231    2.4339    0.9765 O   0  0  0  0  0  0  0  0  0  0  0  0
   -3.5832   -1.0635   -2.1187 O   0  0  0  0  0  0  0  0  0  0  0  0
    4.0002    0.7175   -1.4043 O   0  0  0  0  0  0  0  0  0  0  0  0
    1.8093   -0.9165   -1.4239 O   0  0  0  0  0  0  0  0  0  0  0  0
   -1.3309    3.3316   -0.1048 O   0  0  0  0  0  0  0  0  0  0  0  0
   -3.0924   -2.4728    2.0900 O   0  0  0  0  0  0  0  0  0  0  0  0
    2.6086   -3.3330   -0.3014 O   0  0  0  0  0  0  0  0  0  0  0  0
   -1.8061    1.0172    0.2456 C   0  0  1  0  0  0  0  0  0  0  0  0
   -2.4156    0.8260   -1.1394 C   0  0  2  0  0  0  0  0  0  0  0  0
    1.6624    0.4666    1.3607 C   0  0  1  0  0  0  0  0  0  0  0  0
    2.4168    1.3203    0.3476 C   0  0  2  0  0  0  0  0  0  0  0  0
   -2.5992   -0.6762   -1.1777 C   0  0  1  0  0  0  0  0  0  0  0  0
    3.4441    0.3325   -0.1629 C   0  0  1  0  0  0  0  0  0  0  0  0
   -3.0678   -0.9542    0.2460 C   0  0  1  0  0  0  0  0  0  0  0  0
    2.6150   -0.9452   -0.2447 C   0  0  1  0  0  0  0  0  0  0  0  0
    0.1949    0.8415    1.4751 C   0  0  0  0  0  0  0  0  0  0  0  0
   -1.9765    2.4310    0.7789 C   0  0  0  0  0  0  0  0  0  0  0  0
   -2.6208   -2.3109    0.7625 C   0  0  0  0  0  0  0  0  0  0  0  0
    3.4652   -2.2059   -0.2335 C   0  0  0  0  0  0  0  0  0  0  0  0
   -3.3941    1.3155   -1.2281 H   0  0  0  0  0  0  0  0  0  0  0  0
    2.1222    0.5295    2.3545 H   0  0  0  0  0  0  0  0  0  0  0  0
    1.7891    1.7049   -0.4625 H   0  0  0  0  0  0  0  0  0  0  0  0
   -1.6595   -1.1826   -1.4290 H   0  0  0  0  0  0  0  0  0  0  0  0
    4.2632    0.2290    0.5602 H   0  0  0  0  0  0  0  0  0  0  0  0
   -4.1589   -0.8733    0.3295 H   0  0  0  0  0  0  0  0  0  0  0  0
    0.1737    1.8740    1.8292 H   0  0  0  0  0  0  0  0  0  0  0  0
   -0.2886    0.1849    2.2069 H   0  0  0  0  0  0  0  0  0  0  0  0
   -1.6448    2.5971    1.8065 H   0  0  0  0  0  0  0  0  0  0  0  0
   -3.0424    2.6896    0.7904 H   0  0  0  0  0  0  0  0  0  0  0  0
   -1.5287   -2.3774    0.7974 H   0  0  0  0  0  0  0  0  0  0  0  0
   -3.0056   -3.1288    0.1459 H   0  0  0  0  0  0  0  0  0  0  0  0
    4.0613   -2.2878    0.6808 H   0  0  0  0  0  0  0  0  0  0  0  0
    4.1297   -2.2442   -1.1020 H   0  0  0  0  0  0  0  0  0  0  0  0
   -1.4606    2.2542   -2.0451 H   0  0  0  0  0  0  0  0  0  0  0  0
    3.6124    2.1085    1.6779 H   0  0  0  0  0  0  0  0  0  0  0  0
   -3.7138   -2.0226   -2.0270 H   0  0  0  0  0  0  0  0  0  0  0  0
    4.4040    1.5937   -1.2832 H   0  0  0  0  0  0  0  0  0  0  0  0
    1.7464   -0.0068   -1.7561 H   0  0  0  0  0  0  0  0  0  0  0  0
   -0.3831    3.1155   -0.1072 H   0  0  0  0  0  0  0  0  0  0  0  0
   -4.0642   -2.4484    2.0626 H   0  0  0  0  0  0  0  0  0  0  0  0
    2.0084   -3.2916    0.4627 H   0  0  0  0  0  0  0  0  0  0  0  0
  1 12  1  0  0  0  0
  1 18  1  0  0  0  0
  2 12  1  0  0  0  0
  2 20  1  0  0  0  0
  3 14  1  0  0  0  0
  3 19  1  0  0  0  0
  4 13  1  0  0  0  0
  4 38  1  0  0  0  0
  5 15  1  0  0  0  0
  5 39  1  0  0  0  0
  6 16  1  0  0  0  0
  6 40  1  0  0  0  0
  7 17  1  0  0  0  0
  7 41  1  0  0  0  0
  8 19  1  0  0  0  0
  8 42  1  0  0  0  0
  9 21  1  0  0  0  0
  9 43  1  0  0  0  0
 10 22  1  0  0  0  0
 10 44  1  0  0  0  0
 11 23  1  0  0  0  0
 11 45  1  0  0  0  0
 12 13  1  0  0  0  0
 12 21  1  0  0  0  0
 13 16  1  0  0  0  0
 13 24  1  0  0  0  0
 14 15  1  0  0  0  0
 14 20  1  0  0  0  0
 14 25  1  0  0  0  0
 15 17  1  0  0  0  0
 15 26  1  0  0  0  0
 16 18  1  0  0  0  0
 16 27  1  0  0  0  0
 17 19  1  0  0  0  0
 17 28  1  0  0  0  0
 18 22  1  0  0  0  0
 18 29  1  0  0  0  0
 19 23  1  0  0  0  0
 20 30  1  0  0  0  0
 20 31  1  0  0  0  0
 21 32  1  0  0  0  0
 21 33  1  0  0  0  0
 22 34  1  0  0  0  0
 22 35  1  0  0  0  0
 23 36  1  0  0  0  0
 23 37  1  0  0  0  0
M  END
> <PUBCHEM_COMPOUND_CID>
439555

> <PUBCHEM_CONFORMER_RMSD>
0.8

> <PUBCHEM_CONFORMER_DIVERSEORDER>
1
24
10
12
20
6
11
4
22
19
7
21
9
3
25
13
2
18
8
17
5
15
26
14
23
16

> <PUBCHEM_MMFF94_PARTIAL_CHARGES>
31
1 -0.56
10 -0.68
11 -0.68
12 0.56
13 0.28
14 0.28
15 0.28
16 0.28
17 0.28
18 0.28
19 0.56
2 -0.56
20 0.28
21 0.28
22 0.28
23 0.28
3 -0.56
38 0.4
39 0.4
4 -0.68
40 0.4
41 0.4
42 0.4
43 0.4
44 0.4
45 0.4
5 -0.68
6 -0.68
7 -0.68
8 -0.68
9 -0.68

> <PUBCHEM_EFFECTIVE_ROTOR_COUNT>
8

> <PUBCHEM_PHARMACOPHORE_FEATURES>
21
1 1 acceptor
1 10 acceptor
1 10 donor
1 11 acceptor
1 11 donor
1 2 acceptor
1 3 acceptor
1 4 acceptor
1 4 donor
1 5 acceptor
1 5 donor
1 6 acceptor
1 6 donor
1 7 acceptor
1 7 donor
1 8 acceptor
1 8 donor
1 9 acceptor
1 9 donor
5 1 12 13 16 18 rings
5 3 14 15 17 19 rings

> <PUBCHEM_HEAVY_ATOM_COUNT>
23

> <PUBCHEM_ATOM_DEF_STEREO_COUNT>
8

> <PUBCHEM_ATOM_UDEF_STEREO_COUNT>
0

> <PUBCHEM_BOND_DEF_STEREO_COUNT>
0

> <PUBCHEM_BOND_UDEF_STEREO_COUNT>
0

> <PUBCHEM_ISOTOPIC_ATOM_COUNT>
0

> <PUBCHEM_COMPONENT_COUNT>
1

> <PUBCHEM_CACTVS_TAUTO_COUNT>
1

> <PUBCHEM_CONFORMER_ID>
0006B50300000001

> <PUBCHEM_MMFF94_ENERGY>
76.1827

> <PUBCHEM_FEATURE_SELFOVERLAP>
106.693

> <PUBCHEM_SHAPE_FINGERPRINT>
10366900 7 18408887304418684910
10764073 3 17468437819740532187
11640471 11 14835857195690371827
121448 382 17346596344450579928
12173636 292 18198341956171211409
12553582 1 18335140843345833579
12596599 1 17632570578466101470
12788726 201 18335424629374178473
13224815 77 18260553285974101232
13911987 19 17978803302619135780
14223421 5 18410293601291606154
14863182 85 16182963092929846283
15422964 175 18267576919224134547
16945 1 18335145267436507032
17492 54 16978432344531971700
17980427 23 14260809251815685436
20645476 183 17906728455570375113
21524375 3 17759522570738043833
21665056 4 17980475981979394297
21731516 1 17022908947132752880
221490 88 18336817650634900658
23557571 272 17846217709361558323
23559900 14 18412552006981419904
238 59 18262254251800580990
2838139 119 16485821659967015222
3084891 72 17108192832993181776
4921388 177 17988918989972134667
5262128 65 17489296512553687804
6287921 2 18127952153694938548
74978 22 18265621072437214392
81228 2 18337125535276253169
9709674 26 18409174328350697586

> <PUBCHEM_SHAPE_MULTIPOLES>
408.77
6.94
3.15
1.73
2.41
0.28
0.34
2.41
1.2
0
-0.62
-1.18
0.23
0.96

> <PUBCHEM_SHAPE_SELFOVERLAP>
846.215

> <PUBCHEM_SHAPE_VOLUME>
233.6

> <PUBCHEM_COORDINATE_TYPE>
2
5
10

$$$$

