21123946
  -OEChem-07051213082D

 79 82  0     1  0  0  0  0  0999 V2000
    7.9174   -2.3920    0.0000 O   0  0  0  0  0  0  0  0  0  0  0  0
   10.1248    0.5526    0.0000 O   0  0  0  0  0  0  0  0  0  0  0  0
    2.5405   -1.3528    0.0000 O   0  0  0  0  0  0  0  0  0  0  0  0
    8.8172    2.5580    0.0000 O   0  0  0  0  0  0  0  0  0  0  0  0
    6.1733   -4.4613    0.0000 O   0  0  0  0  0  0  0  0  0  0  0  0
    2.5244   -3.4444    0.0000 O   0  0  0  0  0  0  0  0  0  0  0  0
   11.5464    4.1552    0.0000 O   0  0  0  0  0  0  0  0  0  0  0  0
   13.0418    4.3334    0.0000 O   0  0  0  0  0  0  0  0  0  0  0  0
    7.9174   -0.3920    0.0000 C   0  0  1  0  0  0  0  0  0  0  0  0
    7.9174   -1.3920    0.0000 C   0  0  1  0  0  0  0  0  0  0  0  0
    8.8637   -0.0873    0.0000 C   0  0  2  0  0  0  0  0  0  0  0  0
    6.1854   -1.3920    0.0000 C   0  0  2  0  0  0  0  0  0  0  0  0
    5.2754   -1.8989    0.0000 C   0  0  2  0  0  0  0  0  0  0  0  0
    7.0514    0.1080    0.0000 C   0  0  0  0  0  0  0  0  0  0  0  0
    7.0514   -1.8920    0.0000 C   0  0  0  0  0  0  0  0  0  0  0  0
    8.8637   -1.6968    0.0000 C   0  0  0  0  0  0  0  0  0  0  0  0
    9.4473   -0.8920    0.0000 C   0  0  0  0  0  0  0  0  0  0  0  0
    6.1854   -0.3920    0.0000 C   0  0  0  0  0  0  0  0  0  0  0  0
    5.2674   -2.9405    0.0000 C   0  0  1  0  0  0  0  0  0  0  0  0
    9.1743    0.8632    0.0000 C   0  0  2  0  0  0  0  0  0  0  0  0
    7.9174    0.6080    0.0000 C   0  0  0  0  0  0  0  0  0  0  0  0
    4.3486   -1.3348    0.0000 C   0  0  0  0  0  0  0  0  0  0  0  0
    7.0675   -2.9335    0.0000 C   0  0  0  0  0  0  0  0  0  0  0  0
    4.3319   -3.4902    0.0000 C   0  0  0  0  0  0  0  0  0  0  0  0
    5.2831   -0.8989    0.0000 C   0  0  0  0  0  0  0  0  0  0  0  0
    6.1694   -3.4613    0.0000 C   0  0  0  0  0  0  0  0  0  0  0  0
    3.4007   -1.8628    0.0000 C   0  0  1  0  0  0  0  0  0  0  0  0
    9.4850    1.8137    0.0000 C   0  0  1  0  0  0  0  0  0  0  0  0
    3.3923   -2.9477    0.0000 C   0  0  2  0  0  0  0  0  0  0  0  0
    8.2238    1.1739    0.0000 C   0  0  0  0  0  0  0  0  0  0  0  0
   10.4635    2.0200    0.0000 C   0  0  0  0  0  0  0  0  0  0  0  0
   10.7742    2.9705    0.0000 C   0  0  0  0  0  0  0  0  0  0  0  0
   11.7527    3.1767    0.0000 C   0  0  3  0  0  0  0  0  0  0  0  0
   12.7312    3.3829    0.0000 C   0  0  0  0  0  0  0  0  0  0  0  0
   11.9589    2.1982    0.0000 C   0  0  0  0  0  0  0  0  0  0  0  0
    9.7034    0.0446    0.0000 H   0  0  0  0  0  0  0  0  0  0  0  0
    6.9215   -0.9670    0.0000 H   0  0  0  0  0  0  0  0  0  0  0  0
    7.4500    0.5829    0.0000 H   0  0  0  0  0  0  0  0  0  0  0  0
    6.6529    0.5829    0.0000 H   0  0  0  0  0  0  0  0  0  0  0  0
    8.6126   -2.2637    0.0000 H   0  0  0  0  0  0  0  0  0  0  0  0
    9.4010   -2.0060    0.0000 H   0  0  0  0  0  0  0  0  0  0  0  0
    9.9081   -1.3068    0.0000 H   0  0  0  0  0  0  0  0  0  0  0  0
    9.9081   -0.4773    0.0000 H   0  0  0  0  0  0  0  0  0  0  0  0
    5.9733    0.1906    0.0000 H   0  0  0  0  0  0  0  0  0  0  0  0
    5.5748   -0.4997    0.0000 H   0  0  0  0  0  0  0  0  0  0  0  0
    5.2706   -3.7905    0.0000 H   0  0  0  0  0  0  0  0  0  0  0  0
    8.5374    0.6080    0.0000 H   0  0  0  0  0  0  0  0  0  0  0  0
    7.9174    1.2280    0.0000 H   0  0  0  0  0  0  0  0  0  0  0  0
    7.2974    0.6080    0.0000 H   0  0  0  0  0  0  0  0  0  0  0  0
    4.7568   -0.8681    0.0000 H   0  0  0  0  0  0  0  0  0  0  0  0
    3.9586   -0.8528    0.0000 H   0  0  0  0  0  0  0  0  0  0  0  0
    7.6080   -3.2373    0.0000 H   0  0  0  0  0  0  0  0  0  0  0  0
    3.9346   -3.9662    0.0000 H   0  0  0  0  0  0  0  0  0  0  0  0
    4.7329   -3.9631    0.0000 H   0  0  0  0  0  0  0  0  0  0  0  0
    5.9031   -0.9037    0.0000 H   0  0  0  0  0  0  0  0  0  0  0  0
    5.2879   -0.2789    0.0000 H   0  0  0  0  0  0  0  0  0  0  0  0
    4.6631   -0.8941    0.0000 H   0  0  0  0  0  0  0  0  0  0  0  0
    2.8608   -2.1676    0.0000 H   0  0  0  0  0  0  0  0  0  0  0  0
    8.4544   -2.7020    0.0000 H   0  0  0  0  0  0  0  0  0  0  0  0
    8.8783    1.6859    0.0000 H   0  0  0  0  0  0  0  0  0  0  0  0
    3.3911   -3.5677    0.0000 H   0  0  0  0  0  0  0  0  0  0  0  0
    8.4164    1.7632    0.0000 H   0  0  0  0  0  0  0  0  0  0  0  0
    7.6345    1.3665    0.0000 H   0  0  0  0  0  0  0  0  0  0  0  0
    8.0312    0.5846    0.0000 H   0  0  0  0  0  0  0  0  0  0  0  0
   10.5863    0.9666    0.0000 H   0  0  0  0  0  0  0  0  0  0  0  0
   10.4841    1.4003    0.0000 H   0  0  0  0  0  0  0  0  0  0  0  0
   11.0773    1.9326    0.0000 H   0  0  0  0  0  0  0  0  0  0  0  0
    2.0000   -1.6565    0.0000 H   0  0  0  0  0  0  0  0  0  0  0  0
    9.0098    3.1474    0.0000 H   0  0  0  0  0  0  0  0  0  0  0  0
    2.5220   -4.0644    0.0000 H   0  0  0  0  0  0  0  0  0  0  0  0
   10.7536    3.5901    0.0000 H   0  0  0  0  0  0  0  0  0  0  0  0
   10.1603    3.0578    0.0000 H   0  0  0  0  0  0  0  0  0  0  0  0
   12.7517    2.7633    0.0000 H   0  0  0  0  0  0  0  0  0  0  0  0
   13.3450    3.2956    0.0000 H   0  0  0  0  0  0  0  0  0  0  0  0
   11.3522    2.0703    0.0000 H   0  0  0  0  0  0  0  0  0  0  0  0
   12.0867    1.5915    0.0000 H   0  0  0  0  0  0  0  0  0  0  0  0
   12.5656    2.3260    0.0000 H   0  0  0  0  0  0  0  0  0  0  0  0
   10.9571    4.3478    0.0000 H   0  0  0  0  0  0  0  0  0  0  0  0
   13.6485    4.4613    0.0000 H   0  0  0  0  0  0  0  0  0  0  0  0
 10  1  1  6  0  0  0
  1 59  1  0  0  0  0
 20  2  1  1  0  0  0
  2 65  1  0  0  0  0
 27  3  1  1  0  0  0
  3 68  1  0  0  0  0
 28  4  1  6  0  0  0
  4 69  1  0  0  0  0
  5 26  2  0  0  0  0
 29  6  1  1  0  0  0
  6 70  1  0  0  0  0
  7 33  1  0  0  0  0
  7 78  1  0  0  0  0
  8 34  1  0  0  0  0
  8 79  1  0  0  0  0
  9 10  1  0  0  0  0
  9 11  1  0  0  0  0
  9 14  1  0  0  0  0
  9 21  1  1  0  0  0
 10 15  1  0  0  0  0
 10 16  1  0  0  0  0
 11 17  1  0  0  0  0
 11 20  1  0  0  0  0
 11 36  1  6  0  0  0
 12 13  1  0  0  0  0
 12 15  1  0  0  0  0
 12 18  1  0  0  0  0
 12 37  1  6  0  0  0
 13 19  1  0  0  0  0
 13 22  1  0  0  0  0
 13 25  1  1  0  0  0
 14 18  1  0  0  0  0
 14 38  1  0  0  0  0
 14 39  1  0  0  0  0
 15 23  2  0  0  0  0
 16 17  1  0  0  0  0
 16 40  1  0  0  0  0
 16 41  1  0  0  0  0
 17 42  1  0  0  0  0
 17 43  1  0  0  0  0
 18 44  1  0  0  0  0
 18 45  1  0  0  0  0
 19 24  1  0  0  0  0
 19 26  1  0  0  0  0
 19 46  1  1  0  0  0
 20 28  1  0  0  0  0
 20 30  1  0  0  0  0
 21 47  1  0  0  0  0
 21 48  1  0  0  0  0
 21 49  1  0  0  0  0
 22 27  1  0  0  0  0
 22 50  1  0  0  0  0
 22 51  1  0  0  0  0
 23 26  1  0  0  0  0
 23 52  1  0  0  0  0
 24 29  1  0  0  0  0
 24 53  1  0  0  0  0
 24 54  1  0  0  0  0
 25 55  1  0  0  0  0
 25 56  1  0  0  0  0
 25 57  1  0  0  0  0
 27 29  1  0  0  0  0
 27 58  1  0  0  0  0
 28 31  1  0  0  0  0
 28 60  1  0  0  0  0
 29 61  1  0  0  0  0
 30 62  1  0  0  0  0
 30 63  1  0  0  0  0
 30 64  1  0  0  0  0
 31 32  1  0  0  0  0
 31 66  1  0  0  0  0
 31 67  1  0  0  0  0
 32 33  1  0  0  0  0
 32 71  1  0  0  0  0
 32 72  1  0  0  0  0
 33 34  1  0  0  0  0
 33 35  1  0  0  0  0
 34 73  1  0  0  0  0
 34 74  1  0  0  0  0
 35 75  1  0  0  0  0
 35 76  1  0  0  0  0
 35 77  1  0  0  0  0
M  END
> <PUBCHEM_COMPOUND_CID>
21123946

> <PUBCHEM_COMPOUND_CANONICALIZED>
1

> <PUBCHEM_CACTVS_COMPLEXITY>
890

> <PUBCHEM_CACTVS_HBOND_ACCEPTOR>
8

> <PUBCHEM_CACTVS_HBOND_DONOR>
7

> <PUBCHEM_CACTVS_ROTATABLE_BOND>
6

> <PUBCHEM_CACTVS_SUBSKEYS>
AAADcfB4PAAAAAAAAAAAAAAAAAAAAYAAAAAwYIAAAAAAAGCAAAAAGgAACAAAD1SggAICAAAAAgCIAqBSAAAAAAAgAAAACAEAAEgBFBIAAQAAUAAEgAAJEQPK7PTPgAAAAAAAAADAAAYAADCAAYAADAAAAA==

> <PUBCHEM_IUPAC_OPENEYE_NAME>
(2S,3R,5R,9R,10R,13R,14S,17S)-2,3,14-trihydroxy-10,13-dimethyl-17-[(1R,2R)-1,2,5,6-tetrahydroxy-1,5-dimethyl-hexyl]-2,3,4,5,9,11,12,15,16,17-decahydro-1H-cyclopenta[a]phenanthren-6-one

> <PUBCHEM_IUPAC_CAS_NAME>
(2S,3R,5R,9R,10R,13R,14S,17S)-2,3,14-trihydroxy-10,13-dimethyl-17-[(2R,3R)-2,3,6,7-tetrahydroxy-6-methylheptan-2-yl]-2,3,4,5,9,11,12,15,16,17-decahydro-1H-cyclopenta[a]phenanthren-6-one

> <PUBCHEM_IUPAC_NAME>
(2S,3R,5R,9R,10R,13R,14S,17S)-2,3,14-trihydroxy-10,13-dimethyl-17-[(2R,3R)-2,3,6,7-tetrahydroxy-6-methylheptan-2-yl]-2,3,4,5,9,11,12,15,16,17-decahydro-1H-cyclopenta[a]phenanthren-6-one

> <PUBCHEM_IUPAC_SYSTEMATIC_NAME>
(2S,3R,5R,9R,10R,13R,14S,17S)-10,13-dimethyl-17-[(2R,3R)-6-methyl-2,3,6,7-tetrakis(oxidanyl)heptan-2-yl]-2,3,14-tris(oxidanyl)-2,3,4,5,9,11,12,15,16,17-decahydro-1H-cyclopenta[a]phenanthren-6-one

> <PUBCHEM_IUPAC_TRADITIONAL_NAME>
(2S,3R,5R,9R,10R,13R,14S,17S)-2,3,14-trihydroxy-10,13-dimethyl-17-[(1R,2R)-1,2,5,6-tetrahydroxy-1,5-dimethyl-hexyl]-2,3,4,5,9,11,12,15,16,17-decahydro-1H-cyclopenta[a]phenanthren-6-one

> <PUBCHEM_IUPAC_INCHI>
InChI=1S/C27H44O8/c1-23(33,14-28)8-7-22(32)26(4,34)21-6-10-27(35)16-11-18(29)17-12-19(30)20(31)13-24(17,2)15(16)5-9-25(21,27)3/h11,15,17,19-22,28,30-35H,5-10,12-14H2,1-4H3/t15-,17-,19+,20-,21-,22+,23?,24+,25+,26+,27+/m0/s1

> <PUBCHEM_IUPAC_INCHIKEY>
RRCGNPRHZQPOOT-FFBSXHGNSA-N

> <PUBCHEM_XLOGP3_AA>
-0.6

> <PUBCHEM_EXACT_MASS>
496.303618

> <PUBCHEM_MOLECULAR_FORMULA>
C27H44O8

> <PUBCHEM_MOLECULAR_WEIGHT>
496.63346

> <PUBCHEM_OPENEYE_CAN_SMILES>
CC12CCC3C(=CC(=O)C4C3(CC(C(C4)O)O)C)C1(CCC2C(C)(C(CCC(C)(CO)O)O)O)O

> <PUBCHEM_OPENEYE_ISO_SMILES>
C[C@]12CC[C@H]3C(=CC(=O)[C@H]4[C@@]3(C[C@@H]([C@@H](C4)O)O)C)[C@@]1(CC[C@@H]2[C@](C)([C@@H](CCC(C)(CO)O)O)O)O

> <PUBCHEM_CACTVS_TPSA>
159

> <PUBCHEM_MONOISOTOPIC_WEIGHT>
496.303618

> <PUBCHEM_TOTAL_CHARGE>
0

> <PUBCHEM_HEAVY_ATOM_COUNT>
35

> <PUBCHEM_ATOM_DEF_STEREO_COUNT>
10

> <PUBCHEM_ATOM_UDEF_STEREO_COUNT>
1

> <PUBCHEM_BOND_DEF_STEREO_COUNT>
0

> <PUBCHEM_BOND_UDEF_STEREO_COUNT>
0

> <PUBCHEM_ISOTOPIC_ATOM_COUNT>
0

> <PUBCHEM_COMPONENT_COUNT>
1

> <PUBCHEM_CACTVS_TAUTO_COUNT>
5

> <PUBCHEM_COORDINATE_TYPE>
1
5
255

> <PUBCHEM_BONDANNOTATIONS>
10  1  6
11  36  6
12  37  6
13  25  5
19  46  5
20  2  5
27  3  5
28  4  6
29  6  5
33  7  3
9  21  5

$$$$

