441090
  -OEChem-07051212513D

 26 27  0     1  0  0  0  0  0999 V2000
   -5.2662   -0.3240    0.1736 Cl  0  0  0  0  0  0  0  0  0  0  0  0
    1.7713   -1.5548   -1.0183 O   0  0  0  0  0  0  0  0  0  0  0  0
    3.8701   -1.4909    0.6538 O   0  0  0  0  0  0  0  0  0  0  0  0
    1.5818   -0.8301    0.2017 C   0  0  1  0  0  0  0  0  0  0  0  0
    2.9561   -0.4048    0.7710 C   0  0  2  0  0  0  0  0  0  0  0  0
    0.6871    0.3579   -0.1060 C   0  0  0  0  0  0  0  0  0  0  0  0
   -0.7861    0.1897   -0.0371 C   0  0  0  0  0  0  0  0  0  0  0  0
    3.5061    0.8183    0.0877 C   0  0  0  0  0  0  0  0  0  0  0  0
    1.2494    1.5380   -0.4397 C   0  0  0  0  0  0  0  0  0  0  0  0
    2.6852    1.7065   -0.4907 C   0  0  0  0  0  0  0  0  0  0  0  0
   -1.6006    1.2719    0.3037 C   0  0  0  0  0  0  0  0  0  0  0  0
   -1.3632   -1.0521   -0.3128 C   0  0  0  0  0  0  0  0  0  0  0  0
   -2.9849    1.1132    0.3686 C   0  0  0  0  0  0  0  0  0  0  0  0
   -2.7476   -1.2107   -0.2480 C   0  0  0  0  0  0  0  0  0  0  0  0
   -3.5584   -0.1280    0.0925 C   0  0  0  0  0  0  0  0  0  0  0  0
    1.1122   -1.5133    0.9197 H   0  0  0  0  0  0  0  0  0  0  0  0
    2.8612   -0.1695    1.8386 H   0  0  0  0  0  0  0  0  0  0  0  0
    4.5778    0.9899    0.0891 H   0  0  0  0  0  0  0  0  0  0  0  0
    0.6682    2.4144   -0.7070 H   0  0  0  0  0  0  0  0  0  0  0  0
    3.0772    2.5978   -0.9680 H   0  0  0  0  0  0  0  0  0  0  0  0
   -1.1913    2.2485    0.5478 H   0  0  0  0  0  0  0  0  0  0  0  0
   -0.7672   -1.9159   -0.5915 H   0  0  0  0  0  0  0  0  0  0  0  0
    2.3575   -2.3055   -0.8229 H   0  0  0  0  0  0  0  0  0  0  0  0
    3.5023   -2.2372    1.1575 H   0  0  0  0  0  0  0  0  0  0  0  0
   -3.6045    1.9641    0.6404 H   0  0  0  0  0  0  0  0  0  0  0  0
   -3.1811   -2.1831   -0.4675 H   0  0  0  0  0  0  0  0  0  0  0  0
  1 15  1  0  0  0  0
  2  4  1  0  0  0  0
  2 23  1  0  0  0  0
  3  5  1  0  0  0  0
  3 24  1  0  0  0  0
  4  5  1  0  0  0  0
  4  6  1  0  0  0  0
  4 16  1  0  0  0  0
  5  8  1  0  0  0  0
  5 17  1  0  0  0  0
  6  7  1  0  0  0  0
  6  9  2  0  0  0  0
  7 11  2  0  0  0  0
  7 12  1  0  0  0  0
  8 10  2  0  0  0  0
  8 18  1  0  0  0  0
  9 10  1  0  0  0  0
  9 19  1  0  0  0  0
 10 20  1  0  0  0  0
 11 13  1  0  0  0  0
 11 21  1  0  0  0  0
 12 14  2  0  0  0  0
 12 22  1  0  0  0  0
 13 15  2  0  0  0  0
 13 25  1  0  0  0  0
 14 15  1  0  0  0  0
 14 26  1  0  0  0  0
M  END
> <PUBCHEM_COMPOUND_CID>
441090

> <PUBCHEM_CONFORMER_RMSD>
0.6

> <PUBCHEM_CONFORMER_DIVERSEORDER>
2
3
1

> <PUBCHEM_MMFF94_PARTIAL_CHARGES>
24
1 -0.18
10 -0.15
11 -0.15
12 -0.15
13 -0.15
14 -0.15
15 0.18
18 0.15
19 0.15
2 -0.68
20 0.15
21 0.15
22 0.15
23 0.4
24 0.4
25 0.15
26 0.15
3 -0.68
4 0.42
5 0.42
6 -0.17
7 0.03
8 -0.29
9 -0.15

> <PUBCHEM_EFFECTIVE_ROTOR_COUNT>
1.4

> <PUBCHEM_PHARMACOPHORE_FEATURES>
6
1 2 acceptor
1 2 donor
1 3 acceptor
1 3 donor
6 4 5 6 8 9 10 rings
6 7 11 12 13 14 15 rings

> <PUBCHEM_HEAVY_ATOM_COUNT>
15

> <PUBCHEM_ATOM_DEF_STEREO_COUNT>
2

> <PUBCHEM_ATOM_UDEF_STEREO_COUNT>
0

> <PUBCHEM_BOND_DEF_STEREO_COUNT>
0

> <PUBCHEM_BOND_UDEF_STEREO_COUNT>
0

> <PUBCHEM_ISOTOPIC_ATOM_COUNT>
0

> <PUBCHEM_COMPONENT_COUNT>
1

> <PUBCHEM_CACTVS_TAUTO_COUNT>
1

> <PUBCHEM_CONFORMER_ID>
0006BB0200000002

> <PUBCHEM_MMFF94_ENERGY>
38.9903

> <PUBCHEM_FEATURE_SELFOVERLAP>
30.461

> <PUBCHEM_SHAPE_FINGERPRINT>
10616163 171 18264485075046746431
11132069 177 18335709316500596952
11471102 20 18342742896683670053
12251169 10 18411423903629630346
12346645 6 18410291389573443796
13380535 76 18409164377011796911
13581323 91 18040720272611699449
13690532 89 18341897411271084371
13760787 5 18410859833233024885
14144814 61 18409445890648416497
15196674 1 18411419527058176537
15442244 35 18339643459478525152
15536298 74 18408322181459588480
15669948 3 18041843887595992927
15775835 57 18262514793058808552
16945 1 18337949120428393957
1813 80 17631166571459614710
18186145 218 17632584837762714147
18522853 276 18408044000475088569
19050596 39 18335704914322596875
19422 9 18412543210529545659
200 152 18334585629087350829
20279233 1 15841554054572790609
20510252 161 18040992990567117785
20559304 39 18408039606792174864
20645477 70 18343586248056886543
20871998 22 18265895955108584998
21267235 1 18411129251429719330
21501502 16 18410855438658730077
21501925 9 18411422821044703193
2255824 54 18060135427850502250
23048698 100 18273214183848235025
23402539 116 18114473314249675205
23463225 33 18411702079997747564
23557571 272 17023175054848568177
23559900 14 18115022034301367526
26918003 58 18060140908049346241
2748010 2 17401483144306828668
42 15 18343019999747572827
474 4 17844803677295163836
5104073 3 18410854369575949089
5374978 207 18335140877884913673
537710 114 18334009463377414193
69090 78 18407762525909782447
7364860 26 18260824904196039916
9709674 26 18408879633786812455

> <PUBCHEM_SHAPE_MULTIPOLES>
298.82
8.18
1.69
0.78
5.16
0.07
0.01
-0.82
-1.03
-0.95
0.15
-0.25
-0.08
-0.55

> <PUBCHEM_SHAPE_SELFOVERLAP>
630.369

> <PUBCHEM_SHAPE_VOLUME>
168.2

> <PUBCHEM_COORDINATE_TYPE>
2
5
10

$$$$

