217
  -OEChem-07051212493D

 29 29  0     1  0  0  0  0  0999 V2000
   -2.1363    1.3870    0.3695 P   0  0  2  0  0  0  0  0  0  0  0  0
   -3.2277   -1.2977   -0.1358 P   0  0  0  0  0  0  0  0  0  0  0  0
   -0.6051    0.8691    0.4449 O   0  0  0  0  0  0  0  0  0  0  0  0
   -2.9089    0.2487   -0.4799 O   0  0  0  0  0  0  0  0  0  0  0  0
   -2.0880    2.6417   -0.6506 O   0  0  0  0  0  0  0  0  0  0  0  0
   -2.7626    1.6938    1.6989 O   0  0  0  0  0  0  0  0  0  0  0  0
   -4.1667   -1.7612   -1.3670 O   0  0  0  0  0  0  0  0  0  0  0  0
   -4.2556   -1.1992    1.1076 O   0  0  0  0  0  0  0  0  0  0  0  0
   -2.0154   -2.1493    0.1001 O   0  0  0  0  0  0  0  0  0  0  0  0
    3.7935    0.5590    0.0248 N   0  0  0  0  0  0  0  0  0  0  0  0
    2.9621   -1.6983    0.1697 N   0  0  0  0  0  0  0  0  0  0  0  0
    2.3282    2.3385   -0.5320 N   0  0  0  0  0  0  0  0  0  0  0  0
    1.4810    0.0980   -0.3928 C   0  0  0  0  0  0  0  0  0  0  0  0
    0.0935    0.5473   -0.7454 C   0  0  0  0  0  0  0  0  0  0  0  0
    2.5445    0.9592   -0.2923 C   0  0  0  0  0  0  0  0  0  0  0  0
    1.7387   -1.2288   -0.1519 C   0  0  0  0  0  0  0  0  0  0  0  0
    3.9290   -0.7635    0.2396 C   0  0  0  0  0  0  0  0  0  0  0  0
    5.2957   -1.2442    0.5925 C   0  0  0  0  0  0  0  0  0  0  0  0
    0.1033    1.4053   -1.4252 H   0  0  0  0  0  0  0  0  0  0  0  0
   -0.4338   -0.2559   -1.2718 H   0  0  0  0  0  0  0  0  0  0  0  0
    0.9619   -1.9842   -0.2060 H   0  0  0  0  0  0  0  0  0  0  0  0
    1.4380    2.7395   -0.2630 H   0  0  0  0  0  0  0  0  0  0  0  0
    3.1428    2.9368   -0.4613 H   0  0  0  0  0  0  0  0  0  0  0  0
    5.2415   -2.0701    1.3086 H   0  0  0  0  0  0  0  0  0  0  0  0
    5.8084   -1.5934   -0.3085 H   0  0  0  0  0  0  0  0  0  0  0  0
    5.8884   -0.4425    1.0440 H   0  0  0  0  0  0  0  0  0  0  0  0
   -1.7817    3.5120   -0.3176 H   0  0  0  0  0  0  0  0  0  0  0  0
   -4.4299   -2.7037   -1.4348 H   0  0  0  0  0  0  0  0  0  0  0  0
   -4.5402   -2.0244    1.5551 H   0  0  0  0  0  0  0  0  0  0  0  0
  1  3  1  0  0  0  0
  1  4  1  0  0  0  0
  1  5  1  0  0  0  0
  1  6  2  0  0  0  0
  2  4  1  0  0  0  0
  2  7  1  0  0  0  0
  2  8  1  0  0  0  0
  2  9  2  0  0  0  0
  3 14  1  0  0  0  0
  5 27  1  0  0  0  0
  7 28  1  0  0  0  0
  8 29  1  0  0  0  0
 10 15  2  0  0  0  0
 10 17  1  0  0  0  0
 11 16  1  0  0  0  0
 11 17  2  0  0  0  0
 12 15  1  0  0  0  0
 12 22  1  0  0  0  0
 12 23  1  0  0  0  0
 13 14  1  0  0  0  0
 13 15  1  0  0  0  0
 13 16  2  0  0  0  0
 14 19  1  0  0  0  0
 14 20  1  0  0  0  0
 16 21  1  0  0  0  0
 17 18  1  0  0  0  0
 18 24  1  0  0  0  0
 18 25  1  0  0  0  0
 18 26  1  0  0  0  0
M  END
> <PUBCHEM_COMPOUND_CID>
217

> <PUBCHEM_CONFORMER_RMSD>
0.6

> <PUBCHEM_CONFORMER_DIVERSEORDER>
1
33
14
44
17
22
49
37
38
34
32
25
18
16
41
26
12
47
7
46
5
15
28
43
21
20
30
2
11
48
39
6
35
24
10
31
42
40
23
3
27
45
4
29
9
19
8
13
36

> <PUBCHEM_MMFF94_PARTIAL_CHARGES>
24
1 1.51
10 -0.62
11 -0.62
12 -0.9
13 -0.14
14 0.42
15 0.41
16 0.16
17 0.48
18 0.14
2 1.51
21 0.15
22 0.4
23 0.4
27 0.5
28 0.5
29 0.5
3 -0.55
4 -0.54
5 -0.77
6 -0.7
7 -0.77
8 -0.77
9 -0.7

> <PUBCHEM_EFFECTIVE_ROTOR_COUNT>
5

> <PUBCHEM_PHARMACOPHORE_FEATURES>
10
1 12 donor
1 5 acceptor
1 6 acceptor
1 7 acceptor
1 8 acceptor
1 9 acceptor
3 10 11 17 cation
3 10 12 15 cation
4 2 7 8 9 anion
6 10 11 13 15 16 17 rings

> <PUBCHEM_HEAVY_ATOM_COUNT>
18

> <PUBCHEM_ATOM_DEF_STEREO_COUNT>
0

> <PUBCHEM_ATOM_UDEF_STEREO_COUNT>
0

> <PUBCHEM_BOND_DEF_STEREO_COUNT>
0

> <PUBCHEM_BOND_UDEF_STEREO_COUNT>
0

> <PUBCHEM_ISOTOPIC_ATOM_COUNT>
0

> <PUBCHEM_COMPONENT_COUNT>
1

> <PUBCHEM_CACTVS_TAUTO_COUNT>
3

> <PUBCHEM_CONFORMER_ID>
000000D900000001

> <PUBCHEM_MMFF94_ENERGY>
-10.2586

> <PUBCHEM_FEATURE_SELFOVERLAP>
50.926

> <PUBCHEM_SHAPE_FINGERPRINT>
11806522 49 18342178860609925030
12251169 10 18337948008179732584
12500047 106 18194973060822293596
12916754 54 18413669101857379861
13675066 3 17749679583958515870
14178342 30 18115860974489489160
14965852 173 18411418448878940972
15375462 189 18189046496012251307
15442244 35 18412545444329394262
17862501 102 18410016537457486906
19050596 39 18335414673159483489
200 152 18336554836932226135
20681677 274 18337398123527180544
21501502 16 18410284800856494508
221490 88 18343298133292533074
22959321 4 18340768152483668348
23402539 116 18334583425716659895
23503953 91 18187920728854055169
23559900 14 18338809935112249264
23622692 118 18408612443601802918
2871803 45 18272097075628807359
312423 11 18340471301466022388
3286 77 18343868801407817044
5104073 3 18409732889401398568
9709674 26 18410288125082372310

> <PUBCHEM_SHAPE_MULTIPOLES>
322.1
9.36
2.48
0.99
3.18
0.58
0.15
-4.32
1.24
-1.38
-0.14
-0.9
0.09
-0.97

> <PUBCHEM_SHAPE_SELFOVERLAP>
627.336

> <PUBCHEM_SHAPE_VOLUME>
196.2

> <PUBCHEM_COORDINATE_TYPE>
2
5
10

$$$$

