17395414
  -OEChem-06241222503D

 43 46  0     0  0  0  0  0  0999 V2000
   -3.1608   -2.3135   -0.2856 O   0  0  0  0  0  0  0  0  0  0  0  0
    3.8779   -0.9181    0.1443 N   0  0  0  0  0  0  0  0  0  0  0  0
    4.3106   -1.5049   -0.9840 N   0  0  0  0  0  0  0  0  0  0  0  0
    4.9919   -0.5953   -1.6722 N   0  0  0  0  0  0  0  0  0  0  0  0
   -3.0826    0.0030    0.0796 N   0  0  0  0  0  0  0  0  0  0  0  0
   -5.3249   -0.5659   -0.4266 N   0  0  0  0  0  0  0  0  0  0  0  0
    3.0996   -1.6679    1.0987 C   0  0  0  0  0  0  0  0  0  0  0  0
    1.6267   -1.5660    0.8075 C   0  0  0  0  0  0  0  0  0  0  0  0
    4.2670    0.3881    0.2181 C   0  0  0  0  0  0  0  0  0  0  0  0
    4.9806    0.5736   -0.9580 C   0  0  0  0  0  0  0  0  0  0  0  0
    1.0166   -2.4950   -0.0353 C   0  0  0  0  0  0  0  0  0  0  0  0
    0.8713   -0.5434    1.3814 C   0  0  0  0  0  0  0  0  0  0  0  0
   -1.1041   -1.3790    0.2696 C   0  0  0  0  0  0  0  0  0  0  0  0
    4.0706    1.3894    1.1668 C   0  0  0  0  0  0  0  0  0  0  0  0
   -0.3488   -2.4016   -0.3042 C   0  0  0  0  0  0  0  0  0  0  0  0
   -0.4941   -0.4499    1.1124 C   0  0  0  0  0  0  0  0  0  0  0  0
    5.5454    1.8279   -1.2315 C   0  0  0  0  0  0  0  0  0  0  0  0
   -2.5279   -1.2812   -0.0108 C   0  0  0  0  0  0  0  0  0  0  0  0
    4.6391    2.6360    0.8820 C   0  0  0  0  0  0  0  0  0  0  0  0
    5.3631    2.8532   -0.2943 C   0  0  0  0  0  0  0  0  0  0  0  0
   -4.4294    0.3973   -0.1130 C   0  0  0  0  0  0  0  0  0  0  0  0
   -4.7502    1.7377    0.0298 C   0  0  0  0  0  0  0  0  0  0  0  0
   -6.0751    2.1139   -0.1615 C   0  0  0  0  0  0  0  0  0  0  0  0
   -3.7344    2.7723    0.3772 C   0  0  0  0  0  0  0  0  0  0  0  0
   -7.0253    1.1517   -0.4852 C   0  0  0  0  0  0  0  0  0  0  0  0
   -6.6028   -0.1625   -0.6050 C   0  0  0  0  0  0  0  0  0  0  0  0
    3.3291   -1.2982    2.1047 H   0  0  0  0  0  0  0  0  0  0  0  0
    3.4343   -2.7121    1.0700 H   0  0  0  0  0  0  0  0  0  0  0  0
    1.5946   -3.2954   -0.4897 H   0  0  0  0  0  0  0  0  0  0  0  0
    1.3271    0.1772    2.0539 H   0  0  0  0  0  0  0  0  0  0  0  0
    3.5179    1.2228    2.0833 H   0  0  0  0  0  0  0  0  0  0  0  0
   -0.8034   -3.1326   -0.9678 H   0  0  0  0  0  0  0  0  0  0  0  0
   -1.0469    0.3380    1.6153 H   0  0  0  0  0  0  0  0  0  0  0  0
    6.1088    2.0056   -2.1416 H   0  0  0  0  0  0  0  0  0  0  0  0
    4.5166    3.4510    1.5912 H   0  0  0  0  0  0  0  0  0  0  0  0
    5.7925    3.8335   -0.4854 H   0  0  0  0  0  0  0  0  0  0  0  0
   -2.4431    0.7676    0.2654 H   0  0  0  0  0  0  0  0  0  0  0  0
   -6.3835    3.1510   -0.0624 H   0  0  0  0  0  0  0  0  0  0  0  0
   -3.2687    2.5504    1.3433 H   0  0  0  0  0  0  0  0  0  0  0  0
   -2.9635    2.8341   -0.3981 H   0  0  0  0  0  0  0  0  0  0  0  0
   -4.1851    3.7675    0.4612 H   0  0  0  0  0  0  0  0  0  0  0  0
   -8.0638    1.4217   -0.6389 H   0  0  0  0  0  0  0  0  0  0  0  0
   -7.3048   -0.9508   -0.8558 H   0  0  0  0  0  0  0  0  0  0  0  0
  1 18  2  0  0  0  0
  2  3  1  0  0  0  0
  2  7  1  0  0  0  0
  2  9  1  0  0  0  0
  3  4  2  0  0  0  0
  4 10  1  0  0  0  0
  5 18  1  0  0  0  0
  5 21  1  0  0  0  0
  5 37  1  0  0  0  0
  6 21  1  0  0  0  0
  6 26  2  0  0  0  0
  7  8  1  0  0  0  0
  7 27  1  0  0  0  0
  7 28  1  0  0  0  0
  8 11  2  0  0  0  0
  8 12  1  0  0  0  0
  9 10  1  0  0  0  0
  9 14  2  0  0  0  0
 10 17  2  0  0  0  0
 11 15  1  0  0  0  0
 11 29  1  0  0  0  0
 12 16  2  0  0  0  0
 12 30  1  0  0  0  0
 13 15  2  0  0  0  0
 13 16  1  0  0  0  0
 13 18  1  0  0  0  0
 14 19  1  0  0  0  0
 14 31  1  0  0  0  0
 15 32  1  0  0  0  0
 16 33  1  0  0  0  0
 17 20  1  0  0  0  0
 17 34  1  0  0  0  0
 19 20  2  0  0  0  0
 19 35  1  0  0  0  0
 20 36  1  0  0  0  0
 21 22  2  0  0  0  0
 22 23  1  0  0  0  0
 22 24  1  0  0  0  0
 23 25  2  0  0  0  0
 23 38  1  0  0  0  0
 24 39  1  0  0  0  0
 24 40  1  0  0  0  0
 24 41  1  0  0  0  0
 25 26  1  0  0  0  0
 25 42  1  0  0  0  0
 26 43  1  0  0  0  0
M  END
> <PUBCHEM_COMPOUND_CID>
17395414

> <PUBCHEM_CONFORMER_RMSD>
0.8

> <PUBCHEM_CONFORMER_DIVERSEORDER>
1
63
75
46
88
51
57
62
43
39
82
66
68
3
33
78
81
16
86
25
22
71
38
37
10
65
35
80
85
61
21
42
76
64
44
34
74
27
91
73
56
40
93
26
13
29
31
19
20
41
72
45
12
70
50
36
90
24
67
55
30
92
23
7
53
77
28
52
15
47
58
83
89
49
87
17
14
32
60
48
9
59
79
84
69
18
11
6
4
54
2
8
5

> <PUBCHEM_MMFF94_PARTIAL_CHARGES>
38
1 -0.57
10 0.23
11 -0.15
12 -0.15
13 0.09
14 -0.15
15 -0.15
16 -0.15
17 -0.15
18 0.54
19 -0.15
2 0.31
20 -0.15
21 0.43
22 -0.14
23 -0.15
24 0.14
25 -0.15
26 0.16
29 0.15
3 -0.42
30 0.15
31 0.15
32 0.15
33 0.15
34 0.15
35 0.15
36 0.15
37 0.37
38 0.15
4 -0.23
42 0.15
43 0.15
5 -0.55
6 -0.62
7 0.4
8 -0.14
9 -0.15

> <PUBCHEM_EFFECTIVE_ROTOR_COUNT>
5

> <PUBCHEM_PHARMACOPHORE_FEATURES>
7
1 1 acceptor
1 5 donor
1 6 acceptor
5 2 3 4 9 10 rings
6 6 21 22 23 25 26 rings
6 8 11 12 13 15 16 rings
6 9 10 14 17 19 20 rings

> <PUBCHEM_HEAVY_ATOM_COUNT>
26

> <PUBCHEM_ATOM_DEF_STEREO_COUNT>
0

> <PUBCHEM_ATOM_UDEF_STEREO_COUNT>
0

> <PUBCHEM_BOND_DEF_STEREO_COUNT>
0

> <PUBCHEM_BOND_UDEF_STEREO_COUNT>
0

> <PUBCHEM_ISOTOPIC_ATOM_COUNT>
0

> <PUBCHEM_COMPONENT_COUNT>
1

> <PUBCHEM_CACTVS_TAUTO_COUNT>
3

> <PUBCHEM_CONFORMER_ID>
01096ED600000001

> <PUBCHEM_MMFF94_ENERGY>
69.0216

> <PUBCHEM_FEATURE_SELFOVERLAP>
35.629

> <PUBCHEM_SHAPE_FINGERPRINT>
10319926 262 11527685105882909035
10554248 39 18196392509518591911
10670039 82 18337951306746407380
10673678 19 18409444786868117287
11408170 253 17825384348493583273
11720765 8 18040993012606235510
11796584 16 5833695877779858015
11991303 11 17095531656420961127
1200032 147 16773218597762611820
12596602 18 17561081445462867907
12633257 1 15625940881381461326
13690498 29 17678462952949701543
13782708 43 6411003267322678989
14216079 64 8646768894365952701
14251751 18 8790884077640302691
14347332 77 7565347535375127915
14394314 77 18411976992951297565
14528608 73 18409731776619629299
14537116 161 17530970211197854433
14739800 52 18272100404170115203
14790565 3 18338236089222190161
14840074 17 17846494837937419645
14848178 5 7925910361511259944
14931854 50 18115010945339750932
15001296 14 18200597995001924041
15183329 4 17967527986795320065
15210252 30 18059006191029183044
15419008 145 18058184984644520848
15510800 12 6555408756069036916
15961568 22 18272369814969332893
15979999 66 17829601013955596430
16993089 31 4895257258293840029
17959699 21 18410009918949774706
1813 80 5689593896486117354
18335252 114 18339647836440570638
19611394 137 17987504928489082099
1979834 28 13183024055018781592
20058555 10 18342180007551465773
20567600 234 16128650851890732063
20715895 44 18409451367301275432
21033648 29 18200590294520279042
21130935 74 10447925088335889757
21304253 335 18273491260757258038
23522609 53 17822838888790245329
23559900 14 18040996284949964786
245318 6 17773862121708112452
25122255 55 6266608833120736845
2748736 6 18343029865034640589
2838139 119 18342746255622291671
3472631 163 18410571769228142070
34797466 226 18114176450014850359
3918712 181 18412272713616948361
44249763 50 17750530472318549800
44317340 157 18113899351266903147
445580 167 18337681832762591727
463206 1 8214130872366140837
465052 167 9655577426577745034
5104073 3 17704077274160581266
53794403 172 18198337364841097068
54583773 228 18413113862900031101
6036956 94 16904674884370960788
6898599 12 18263648372831686487
7970288 3 8213607483741715020
8863177 126 10015597103483428032
960060 61 16226044475224549938

> <PUBCHEM_SHAPE_MULTIPOLES>
504.29
18.1
3.27
1.16
13.94
0.9
0.01
13.23
5.15
-1.34
-0.11
-1.54
0.02
-0.19

> <PUBCHEM_SHAPE_SELFOVERLAP>
1113.226

> <PUBCHEM_SHAPE_VOLUME>
270.9

> <PUBCHEM_COORDINATE_TYPE>
2
5
10

$$$$

