443305
  -OEChem-07051213012D

 91 92  0     1  0  0  0  0  0999 V2000
    7.7331   -1.0000    0.0000 O   0  0  0  0  0  0  0  0  0  0  0  0
    8.5991    2.5000    0.0000 O   0  0  0  0  0  0  0  0  0  0  0  0
   11.1972   -2.0000    0.0000 O   0  0  0  0  0  0  0  0  0  0  0  0
    6.0010    5.0000    0.0000 O   0  0  0  0  0  0  0  0  0  0  0  0
   12.0632   -2.5000    0.0000 O   0  0  0  0  0  0  0  0  0  0  0  0
    8.5991    0.5000    0.0000 N   0  0  0  0  0  0  0  0  0  0  0  0
    9.4651   -2.0000    0.0000 N   0  0  0  0  0  0  0  0  0  0  0  0
    6.8671    2.5000    0.0000 N   0  0  0  0  0  0  0  0  0  0  0  0
   11.1972   -4.0000    0.0000 N   0  0  0  0  0  0  0  0  0  0  0  0
    4.2690    1.0000    0.0000 N   0  0  0  0  0  0  0  0  0  0  0  0
    5.1350    3.5000    0.0000 N   0  0  0  0  0  0  0  0  0  0  0  0
    2.5369    1.0000    0.0000 N   0  0  0  0  0  0  0  0  0  0  0  0
    3.4030   -0.5000    0.0000 N   0  0  0  0  0  0  0  0  0  0  0  0
    9.4651   -1.0000    0.0000 C   0  0  3  0  0  0  0  0  0  0  0  0
    7.7331    1.0000    0.0000 C   0  0  3  0  0  0  0  0  0  0  0  0
   10.3312   -0.5000    0.0000 C   0  0  0  0  0  0  0  0  0  0  0  0
    6.8671    0.5000    0.0000 C   0  0  0  0  0  0  0  0  0  0  0  0
   10.3312    0.5000    0.0000 C   0  0  0  0  0  0  0  0  0  0  0  0
    8.5991   -0.5000    0.0000 C   0  0  0  0  0  0  0  0  0  0  0  0
    6.0010    1.0000    0.0000 C   0  0  0  0  0  0  0  0  0  0  0  0
    7.7331    2.0000    0.0000 C   0  0  0  0  0  0  0  0  0  0  0  0
   11.1972    1.0000    0.0000 C   0  0  0  0  0  0  0  0  0  0  0  0
   10.3312   -3.5000    0.0000 C   0  0  3  0  0  0  0  0  0  0  0  0
   10.3312   -2.5000    0.0000 C   0  0  0  0  0  0  0  0  0  0  0  0
    6.8671    3.5000    0.0000 C   0  0  3  0  0  0  0  0  0  0  0  0
    9.4651   -4.0000    0.0000 C   0  0  0  0  0  0  0  0  0  0  0  0
    5.1350    0.5000    0.0000 C   0  0  0  0  0  0  0  0  0  0  0  0
    7.7331    4.0000    0.0000 C   0  0  0  0  0  0  0  0  0  0  0  0
   11.1972    2.0000    0.0000 C   0  0  0  0  0  0  0  0  0  0  0  0
    9.4651   -5.0000    0.0000 C   0  0  0  0  0  0  0  0  0  0  0  0
    7.7331    5.0000    0.0000 C   0  0  0  0  0  0  0  0  0  0  0  0
    6.0010    4.0000    0.0000 C   0  0  0  0  0  0  0  0  0  0  0  0
   12.0632   -3.5000    0.0000 C   0  0  0  0  0  0  0  0  0  0  0  0
    8.5991   -5.5000    0.0000 C   0  0  0  0  0  0  0  0  0  0  0  0
   10.3312   -5.5000    0.0000 C   0  0  0  0  0  0  0  0  0  0  0  0
    6.8671    5.5000    0.0000 C   0  0  0  0  0  0  0  0  0  0  0  0
    8.5991    5.5000    0.0000 C   0  0  0  0  0  0  0  0  0  0  0  0
    8.5991   -6.5000    0.0000 C   0  0  0  0  0  0  0  0  0  0  0  0
   10.3312   -6.5000    0.0000 C   0  0  0  0  0  0  0  0  0  0  0  0
   12.9292   -4.0000    0.0000 C   0  0  0  0  0  0  0  0  0  0  0  0
    3.4030    0.5000    0.0000 C   0  0  0  0  0  0  0  0  0  0  0  0
    6.8671    6.5000    0.0000 C   0  0  0  0  0  0  0  0  0  0  0  0
    8.5991    6.5000    0.0000 C   0  0  0  0  0  0  0  0  0  0  0  0
    9.4651   -7.0000    0.0000 C   0  0  0  0  0  0  0  0  0  0  0  0
    7.7331    7.0000    0.0000 C   0  0  0  0  0  0  0  0  0  0  0  0
   10.0021   -1.3100    0.0000 H   0  0  0  0  0  0  0  0  0  0  0  0
    7.7331    0.3800    0.0000 H   0  0  0  0  0  0  0  0  0  0  0  0
   10.5432   -1.0826    0.0000 H   0  0  0  0  0  0  0  0  0  0  0  0
   10.9417   -0.3923    0.0000 H   0  0  0  0  0  0  0  0  0  0  0  0
    6.4685    0.0251    0.0000 H   0  0  0  0  0  0  0  0  0  0  0  0
    7.2656    0.0251    0.0000 H   0  0  0  0  0  0  0  0  0  0  0  0
   10.1191    1.0826    0.0000 H   0  0  0  0  0  0  0  0  0  0  0  0
    9.7206    0.3923    0.0000 H   0  0  0  0  0  0  0  0  0  0  0  0
    9.1360    0.8100    0.0000 H   0  0  0  0  0  0  0  0  0  0  0  0
    8.9282   -2.3100    0.0000 H   0  0  0  0  0  0  0  0  0  0  0  0
    6.3996    1.4750    0.0000 H   0  0  0  0  0  0  0  0  0  0  0  0
    5.6025    1.4750    0.0000 H   0  0  0  0  0  0  0  0  0  0  0  0
   10.8681   -3.1900    0.0000 H   0  0  0  0  0  0  0  0  0  0  0  0
   11.4092    0.4174    0.0000 H   0  0  0  0  0  0  0  0  0  0  0  0
   11.8078    1.1077    0.0000 H   0  0  0  0  0  0  0  0  0  0  0  0
    6.3301    3.1900    0.0000 H   0  0  0  0  0  0  0  0  0  0  0  0
    6.3301    2.1900    0.0000 H   0  0  0  0  0  0  0  0  0  0  0  0
    9.2531   -3.4174    0.0000 H   0  0  0  0  0  0  0  0  0  0  0  0
    8.8546   -4.1077    0.0000 H   0  0  0  0  0  0  0  0  0  0  0  0
    4.7365    0.0251    0.0000 H   0  0  0  0  0  0  0  0  0  0  0  0
    5.5335    0.0251    0.0000 H   0  0  0  0  0  0  0  0  0  0  0  0
    7.9451    3.4174    0.0000 H   0  0  0  0  0  0  0  0  0  0  0  0
    8.3437    4.1077    0.0000 H   0  0  0  0  0  0  0  0  0  0  0  0
   11.8172    2.0000    0.0000 H   0  0  0  0  0  0  0  0  0  0  0  0
   11.1972    2.6200    0.0000 H   0  0  0  0  0  0  0  0  0  0  0  0
   10.5772    2.0000    0.0000 H   0  0  0  0  0  0  0  0  0  0  0  0
   11.1972   -4.6200    0.0000 H   0  0  0  0  0  0  0  0  0  0  0  0
    8.0622   -5.1900    0.0000 H   0  0  0  0  0  0  0  0  0  0  0  0
   10.8681   -5.1900    0.0000 H   0  0  0  0  0  0  0  0  0  0  0  0
    6.3301    5.1900    0.0000 H   0  0  0  0  0  0  0  0  0  0  0  0
    9.1360    5.1900    0.0000 H   0  0  0  0  0  0  0  0  0  0  0  0
    4.5981    3.8100    0.0000 H   0  0  0  0  0  0  0  0  0  0  0  0
    5.1350    2.8800    0.0000 H   0  0  0  0  0  0  0  0  0  0  0  0
    8.0622   -6.8100    0.0000 H   0  0  0  0  0  0  0  0  0  0  0  0
   10.8681   -6.8100    0.0000 H   0  0  0  0  0  0  0  0  0  0  0  0
   12.6192   -4.5369    0.0000 H   0  0  0  0  0  0  0  0  0  0  0  0
   13.4662   -4.3100    0.0000 H   0  0  0  0  0  0  0  0  0  0  0  0
   13.2392   -3.4631    0.0000 H   0  0  0  0  0  0  0  0  0  0  0  0
    6.3301    6.8100    0.0000 H   0  0  0  0  0  0  0  0  0  0  0  0
    9.1360    6.8100    0.0000 H   0  0  0  0  0  0  0  0  0  0  0  0
    9.4651   -7.6200    0.0000 H   0  0  0  0  0  0  0  0  0  0  0  0
    7.7331    7.6200    0.0000 H   0  0  0  0  0  0  0  0  0  0  0  0
    2.8660   -0.8100    0.0000 H   0  0  0  0  0  0  0  0  0  0  0  0
    2.0000    0.6900    0.0000 H   0  0  0  0  0  0  0  0  0  0  0  0
    2.5369    1.6200    0.0000 H   0  0  0  0  0  0  0  0  0  0  0  0
    3.9399   -0.8100    0.0000 H   0  0  0  0  0  0  0  0  0  0  0  0
  1 19  2  0  0  0  0
  2 21  2  0  0  0  0
  3 24  2  0  0  0  0
  4 32  2  0  0  0  0
  5 33  2  0  0  0  0
  6 15  1  0  0  0  0
  6 19  1  0  0  0  0
  6 54  1  0  0  0  0
  7 14  1  0  0  0  0
  7 24  1  0  0  0  0
  7 55  1  0  0  0  0
  8 21  1  0  0  0  0
  8 25  1  0  0  0  0
  8 62  1  0  0  0  0
  9 23  1  0  0  0  0
  9 33  1  0  0  0  0
  9 72  1  0  0  0  0
 10 27  1  0  0  0  0
 10 41  2  0  0  0  0
 11 32  1  0  0  0  0
 11 77  1  0  0  0  0
 11 78  1  0  0  0  0
 12 41  1  0  0  0  0
 12 89  1  0  0  0  0
 12 90  1  0  0  0  0
 13 41  1  0  0  0  0
 13 88  1  0  0  0  0
 13 91  1  0  0  0  0
 14 16  1  0  0  0  0
 14 19  1  0  0  0  0
 14 46  1  0  0  0  0
 15 17  1  0  0  0  0
 15 21  1  0  0  0  0
 15 47  1  0  0  0  0
 16 18  1  0  0  0  0
 16 48  1  0  0  0  0
 16 49  1  0  0  0  0
 17 20  1  0  0  0  0
 17 50  1  0  0  0  0
 17 51  1  0  0  0  0
 18 22  1  0  0  0  0
 18 52  1  0  0  0  0
 18 53  1  0  0  0  0
 20 27  1  0  0  0  0
 20 56  1  0  0  0  0
 20 57  1  0  0  0  0
 22 29  1  0  0  0  0
 22 59  1  0  0  0  0
 22 60  1  0  0  0  0
 23 24  1  0  0  0  0
 23 26  1  0  0  0  0
 23 58  1  0  0  0  0
 25 28  1  0  0  0  0
 25 32  1  0  0  0  0
 25 61  1  0  0  0  0
 26 30  1  0  0  0  0
 26 63  1  0  0  0  0
 26 64  1  0  0  0  0
 27 65  1  0  0  0  0
 27 66  1  0  0  0  0
 28 31  1  0  0  0  0
 28 67  1  0  0  0  0
 28 68  1  0  0  0  0
 29 69  1  0  0  0  0
 29 70  1  0  0  0  0
 29 71  1  0  0  0  0
 30 34  2  0  0  0  0
 30 35  1  0  0  0  0
 31 36  2  0  0  0  0
 31 37  1  0  0  0  0
 33 40  1  0  0  0  0
 34 38  1  0  0  0  0
 34 73  1  0  0  0  0
 35 39  2  0  0  0  0
 35 74  1  0  0  0  0
 36 42  1  0  0  0  0
 36 75  1  0  0  0  0
 37 43  2  0  0  0  0
 37 76  1  0  0  0  0
 38 44  2  0  0  0  0
 38 79  1  0  0  0  0
 39 44  1  0  0  0  0
 39 80  1  0  0  0  0
 40 81  1  0  0  0  0
 40 82  1  0  0  0  0
 40 83  1  0  0  0  0
 42 45  2  0  0  0  0
 42 84  1  0  0  0  0
 43 45  1  0  0  0  0
 43 85  1  0  0  0  0
 44 86  1  0  0  0  0
 45 87  1  0  0  0  0
M  END
> <PUBCHEM_COMPOUND_CID>
443305

> <PUBCHEM_COMPOUND_CANONICALIZED>
1

> <PUBCHEM_CACTVS_COMPLEXITY>
990

> <PUBCHEM_CACTVS_HBOND_ACCEPTOR>
6

> <PUBCHEM_CACTVS_HBOND_DONOR>
7

> <PUBCHEM_CACTVS_ROTATABLE_BOND>
19

> <PUBCHEM_CACTVS_SUBSKEYS>
AAADcfB/+AAAAAAAAAAAAAAAAAAAAAAAAAAwYAAAAAAAAAABQAAAHgAQAAAADCjBmAQzAILAAACoAiFSNAACAAEgAAAIiIGIAIgIYDKAkTGUIAAglgCIiAcYiYCOAAAAAAAAAAAAAAAAAAAAAAAAAAAAAA==

> <PUBCHEM_IUPAC_OPENEYE_NAME>
2-[(2-acetamido-3-phenyl-propanoyl)amino]-N-[1-[(2-amino-1-benzyl-2-oxo-ethyl)carbamoyl]-4-guanidino-butyl]hexanamide

> <PUBCHEM_IUPAC_CAS_NAME>
2-[(2-acetamido-1-oxo-3-phenylpropyl)amino]-N-[1-[(1-amino-1-oxo-3-phenylpropan-2-yl)amino]-5-(diaminomethylideneamino)-1-oxopentan-2-yl]hexanamide

> <PUBCHEM_IUPAC_NAME>
2-[(2-acetamido-3-phenylpropanoyl)amino]-N-[1-[(1-amino-1-oxo-3-phenylpropan-2-yl)amino]-5-(diaminomethylideneamino)-1-oxopentan-2-yl]hexanamide

> <PUBCHEM_IUPAC_SYSTEMATIC_NAME>
2-[(2-acetamido-3-phenyl-propanoyl)amino]-N-[1-[(1-azanyl-1-oxidanylidene-3-phenyl-propan-2-yl)amino]-5-[bis(azanyl)methylideneamino]-1-oxidanylidene-pentan-2-yl]hexanamide

> <PUBCHEM_IUPAC_TRADITIONAL_NAME>
2-[(2-acetamido-3-phenyl-propanoyl)amino]-N-[1-[(2-amino-1-benzyl-2-keto-ethyl)carbamoyl]-4-guanidino-butyl]hexanamide

> <PUBCHEM_IUPAC_INCHI>
InChI=1S/C32H46N8O5/c1-3-4-16-24(39-31(45)27(37-21(2)41)20-23-14-9-6-10-15-23)29(43)38-25(17-11-18-36-32(34)35)30(44)40-26(28(33)42)19-22-12-7-5-8-13-22/h5-10,12-15,24-27H,3-4,11,16-20H2,1-2H3,(H2,33,42)(H,37,41)(H,38,43)(H,39,45)(H,40,44)(H4,34,35,36)

> <PUBCHEM_IUPAC_INCHIKEY>
GPNWSJNNYYTLLQ-UHFFFAOYSA-N

> <PUBCHEM_XLOGP3>
1.1

> <PUBCHEM_EXACT_MASS>
622.359117

> <PUBCHEM_MOLECULAR_FORMULA>
C32H46N8O5

> <PUBCHEM_MOLECULAR_WEIGHT>
622.75824

> <PUBCHEM_OPENEYE_CAN_SMILES>
CCCCC(C(=O)NC(CCCN=C(N)N)C(=O)NC(CC1=CC=CC=C1)C(=O)N)NC(=O)C(CC2=CC=CC=C2)NC(=O)C

> <PUBCHEM_OPENEYE_ISO_SMILES>
CCCCC(C(=O)NC(CCCN=C(N)N)C(=O)NC(CC1=CC=CC=C1)C(=O)N)NC(=O)C(CC2=CC=CC=C2)NC(=O)C

> <PUBCHEM_CACTVS_TPSA>
224

> <PUBCHEM_MONOISOTOPIC_WEIGHT>
622.359117

> <PUBCHEM_TOTAL_CHARGE>
0

> <PUBCHEM_HEAVY_ATOM_COUNT>
45

> <PUBCHEM_ATOM_DEF_STEREO_COUNT>
0

> <PUBCHEM_ATOM_UDEF_STEREO_COUNT>
4

> <PUBCHEM_BOND_DEF_STEREO_COUNT>
0

> <PUBCHEM_BOND_UDEF_STEREO_COUNT>
0

> <PUBCHEM_ISOTOPIC_ATOM_COUNT>
0

> <PUBCHEM_COMPONENT_COUNT>
1

> <PUBCHEM_CACTVS_TAUTO_COUNT>
96

> <PUBCHEM_COORDINATE_TYPE>
1
5
255

> <PUBCHEM_BONDANNOTATIONS>
14  16  3
15  17  3
23  26  3
25  28  3
30  34  8
30  35  8
31  36  8
31  37  8
34  38  8
35  39  8
36  42  8
37  43  8
38  44  8
39  44  8
42  45  8
43  45  8

$$$$

