12169
  -OEChem-06261206373D

 17 17  0     0  0  0  0  0  0999 V2000
   -1.5432    1.0378   -0.0155 O   0  0  0  0  0  0  0  0  0  0  0  0
    3.0719   -1.1851   -0.0149 O   0  0  0  0  0  0  0  0  0  0  0  0
    3.5755    1.0594    0.0213 N   0  0  0  0  0  0  0  0  0  0  0  0
   -1.1254   -0.2226   -0.0018 C   0  0  0  0  0  0  0  0  0  0  0  0
   -2.1037   -1.1384    0.0151 C   0  0  0  0  0  0  0  0  0  0  0  0
    0.3179   -0.5199   -0.0083 C   0  0  0  0  0  0  0  0  0  0  0  0
   -3.2935   -0.3719    0.0122 C   0  0  0  0  0  0  0  0  0  0  0  0
   -2.8989    0.9456   -0.0067 C   0  0  0  0  0  0  0  0  0  0  0  0
    1.2863    0.4077   -0.0022 C   0  0  0  0  0  0  0  0  0  0  0  0
    2.7132   -0.0126    0.0007 C   0  0  0  0  0  0  0  0  0  0  0  0
   -2.0182   -2.2157    0.0278 H   0  0  0  0  0  0  0  0  0  0  0  0
    0.5776   -1.5762   -0.0126 H   0  0  0  0  0  0  0  0  0  0  0  0
   -4.3114   -0.7343    0.0224 H   0  0  0  0  0  0  0  0  0  0  0  0
   -3.4315    1.8855   -0.0156 H   0  0  0  0  0  0  0  0  0  0  0  0
    1.0603    1.4689    0.0052 H   0  0  0  0  0  0  0  0  0  0  0  0
    3.2582    2.0238    0.0337 H   0  0  0  0  0  0  0  0  0  0  0  0
    4.5801    0.9161    0.0252 H   0  0  0  0  0  0  0  0  0  0  0  0
  1  4  1  0  0  0  0
  1  8  1  0  0  0  0
  2 10  2  0  0  0  0
  3 10  1  0  0  0  0
  3 16  1  0  0  0  0
  3 17  1  0  0  0  0
  4  5  2  0  0  0  0
  4  6  1  0  0  0  0
  5  7  1  0  0  0  0
  5 11  1  0  0  0  0
  6  9  2  0  0  0  0
  6 12  1  0  0  0  0
  7  8  2  0  0  0  0
  7 13  1  0  0  0  0
  8 14  1  0  0  0  0
  9 10  1  0  0  0  0
  9 15  1  0  0  0  0
M  END
> <PUBCHEM_COMPOUND_CID>
12169

> <PUBCHEM_CONFORMER_RMSD>
0.4

> <PUBCHEM_CONFORMER_DIVERSEORDER>
1
4
5
3
2
6

> <PUBCHEM_MMFF94_PARTIAL_CHARGES>
17
1 -0.28
10 0.62
11 0.15
12 0.15
13 0.15
14 0.15
15 0.15
16 0.37
17 0.37
2 -0.57
3 -0.8
4 0.09
5 -0.15
6 -0.11
7 -0.15
8 -0.01
9 -0.14

> <PUBCHEM_EFFECTIVE_ROTOR_COUNT>
2

> <PUBCHEM_PHARMACOPHORE_FEATURES>
4
1 1 acceptor
1 2 acceptor
1 3 donor
5 1 4 5 7 8 rings

> <PUBCHEM_HEAVY_ATOM_COUNT>
10

> <PUBCHEM_ATOM_DEF_STEREO_COUNT>
0

> <PUBCHEM_ATOM_UDEF_STEREO_COUNT>
0

> <PUBCHEM_BOND_DEF_STEREO_COUNT>
0

> <PUBCHEM_BOND_UDEF_STEREO_COUNT>
1

> <PUBCHEM_ISOTOPIC_ATOM_COUNT>
0

> <PUBCHEM_COMPONENT_COUNT>
1

> <PUBCHEM_CACTVS_TAUTO_COUNT>
2

> <PUBCHEM_CONFORMER_ID>
00002F8900000001

> <PUBCHEM_MMFF94_ENERGY>
16.6453

> <PUBCHEM_FEATURE_SELFOVERLAP>
20.297

> <PUBCHEM_SHAPE_FINGERPRINT>
10608611 8 18410015450509215396
11062470 55 18409448072365052877
12932764 1 17458351809951411082
14144814 61 18412544322947213266
14325111 11 18410856564040329862
14390081 3 18410013238532187425
190213 19 17632576045758859391
20645477 70 18334859471332728950
20871998 184 18188484654139858759
23552423 10 18272932691565021967
3248919 1 17346311575123280178
369184 2 18409449185104428411

> <PUBCHEM_SHAPE_MULTIPOLES>
189.08
6.25
1.18
0.59
2.72
0.01
0
-0.45
-0.02
-0.04
0
-0.05
0.01
0.02

> <PUBCHEM_SHAPE_SELFOVERLAP>
392.87

> <PUBCHEM_SHAPE_VOLUME>
109

> <PUBCHEM_COORDINATE_TYPE>
2
5
10

$$$$

