44237280
  -OEChem-07051213153D

 81 84  0     1  0  0  0  0  0999 V2000
    6.4741    1.0256   -0.1136 O   0  0  0  0  0  0  0  0  0  0  0  0
    0.0475   -0.9695   -0.5902 C   0  0  2  0  0  0  0  0  0  0  0  0
   -1.1030    0.0359   -0.2184 C   0  0  1  0  0  0  0  0  0  0  0  0
    1.0946   -0.2344   -1.4885 C   0  0  1  0  0  0  0  0  0  0  0  0
    1.6721    1.0965   -0.8559 C   0  0  1  0  0  0  0  0  0  0  0  0
   -2.1190   -0.9120    0.4653 C   0  0  2  0  0  0  0  0  0  0  0  0
   -0.5121    1.1519    0.6492 C   0  0  0  0  0  0  0  0  0  0  0  0
   -0.7775   -2.0833   -1.2745 C   0  0  0  0  0  0  0  0  0  0  0  0
    0.5635    1.9398   -0.1227 C   0  0  0  0  0  0  0  0  0  0  0  0
    2.8653    0.8166    0.1567 C   0  0  1  0  0  0  0  0  0  0  0  0
   -2.0819   -2.1708   -0.4423 C   0  0  0  0  0  0  0  0  0  0  0  0
    2.2200   -1.1262   -2.0425 C   0  0  0  0  0  0  0  0  0  0  0  0
    0.7238   -1.6653    0.6328 C   0  0  0  0  0  0  0  0  0  0  0  0
   -1.8100    0.7058   -1.4452 C   0  0  0  0  0  0  0  0  0  0  0  0
   -3.5336   -0.3849    0.6792 C   0  0  1  0  0  0  0  0  0  0  0  0
    3.7427   -0.3996   -0.1647 C   0  0  0  0  0  0  0  0  0  0  0  0
    2.1766    1.9723   -2.0432 C   0  0  0  0  0  0  0  0  0  0  0  0
    3.7635    2.0614    0.3765 C   0  0  0  0  0  0  0  0  0  0  0  0
    3.4393   -1.2215   -1.1861 C   0  0  0  0  0  0  0  0  0  0  0  0
    4.9336   -0.6648    0.7908 C   0  0  0  0  0  0  0  0  0  0  0  0
    4.8414    1.8255    1.4306 C   0  0  0  0  0  0  0  0  0  0  0  0
    5.7303    0.6447    1.0474 C   0  0  2  0  0  0  0  0  0  0  0  0
   -4.5169   -1.5654    0.8351 C   0  0  0  0  0  0  0  0  0  0  0  0
   -3.5619    0.5514    1.8908 C   0  0  0  0  0  0  0  0  0  0  0  0
    5.9208   -1.7477    0.2813 C   0  0  0  0  0  0  0  0  0  0  0  0
    4.3690   -1.1971    2.1318 C   0  0  0  0  0  0  0  0  0  0  0  0
   -5.9933   -1.1811    1.0058 C   0  0  0  0  0  0  0  0  0  0  0  0
   -6.5109   -0.3455   -0.1317 C   0  0  0  0  0  0  0  0  0  0  0  0
   -7.1090    0.8598   -0.0793 C   0  0  0  0  0  0  0  0  0  0  0  0
   -7.5529    1.5422   -1.3466 C   0  0  0  0  0  0  0  0  0  0  0  0
   -7.3962    1.6395    1.1722 C   0  0  0  0  0  0  0  0  0  0  0  0
    0.5427    0.0481   -2.3940 H   0  0  0  0  0  0  0  0  0  0  0  0
   -1.7334   -1.2054    1.4504 H   0  0  0  0  0  0  0  0  0  0  0  0
   -0.0966    0.7635    1.5840 H   0  0  0  0  0  0  0  0  0  0  0  0
   -1.2727    1.8786    0.9403 H   0  0  0  0  0  0  0  0  0  0  0  0
   -0.2616   -3.0495   -1.2982 H   0  0  0  0  0  0  0  0  0  0  0  0
   -1.0093   -1.8251   -2.3146 H   0  0  0  0  0  0  0  0  0  0  0  0
    0.0498    2.5711   -0.8599 H   0  0  0  0  0  0  0  0  0  0  0  0
    1.0192    2.6556    0.5706 H   0  0  0  0  0  0  0  0  0  0  0  0
    2.4064    0.6167    1.1306 H   0  0  0  0  0  0  0  0  0  0  0  0
   -2.8978   -2.2119   -1.1703 H   0  0  0  0  0  0  0  0  0  0  0  0
   -2.1057   -3.0880    0.1563 H   0  0  0  0  0  0  0  0  0  0  0  0
    2.5365   -0.7496   -3.0237 H   0  0  0  0  0  0  0  0  0  0  0  0
    1.8366   -2.1364   -2.2262 H   0  0  0  0  0  0  0  0  0  0  0  0
    1.1504   -0.9679    1.3496 H   0  0  0  0  0  0  0  0  0  0  0  0
    1.5132   -2.3508    0.3106 H   0  0  0  0  0  0  0  0  0  0  0  0
    0.0352   -2.2954    1.2047 H   0  0  0  0  0  0  0  0  0  0  0  0
   -2.3914   -0.0024   -2.0438 H   0  0  0  0  0  0  0  0  0  0  0  0
   -1.1180    1.1945   -2.1342 H   0  0  0  0  0  0  0  0  0  0  0  0
   -2.4948    1.4963   -1.1159 H   0  0  0  0  0  0  0  0  0  0  0  0
   -3.8767    0.1827   -0.1885 H   0  0  0  0  0  0  0  0  0  0  0  0
    3.0675    1.5475   -2.5169 H   0  0  0  0  0  0  0  0  0  0  0  0
    2.4171    2.9919   -1.7225 H   0  0  0  0  0  0  0  0  0  0  0  0
    1.4062    2.0696   -2.8172 H   0  0  0  0  0  0  0  0  0  0  0  0
    3.1625    2.9203    0.6926 H   0  0  0  0  0  0  0  0  0  0  0  0
    4.2600    2.3502   -0.5574 H   0  0  0  0  0  0  0  0  0  0  0  0
    4.0675   -2.0763   -1.4146 H   0  0  0  0  0  0  0  0  0  0  0  0
    5.4468    2.7362    1.5160 H   0  0  0  0  0  0  0  0  0  0  0  0
    4.3768    1.6604    2.4088 H   0  0  0  0  0  0  0  0  0  0  0  0
    6.4635    0.4779    1.8465 H   0  0  0  0  0  0  0  0  0  0  0  0
   -4.2202   -2.1723    1.7009 H   0  0  0  0  0  0  0  0  0  0  0  0
   -4.4976   -2.2340   -0.0290 H   0  0  0  0  0  0  0  0  0  0  0  0
   -3.0999    0.0911    2.7705 H   0  0  0  0  0  0  0  0  0  0  0  0
   -3.0625    1.4974    1.6886 H   0  0  0  0  0  0  0  0  0  0  0  0
   -4.5835    0.8244    2.1672 H   0  0  0  0  0  0  0  0  0  0  0  0
    5.4529   -2.7380    0.2352 H   0  0  0  0  0  0  0  0  0  0  0  0
    6.3087   -1.5089   -0.7154 H   0  0  0  0  0  0  0  0  0  0  0  0
    6.7825   -1.8356    0.9541 H   0  0  0  0  0  0  0  0  0  0  0  0
    3.6830   -0.4955    2.6154 H   0  0  0  0  0  0  0  0  0  0  0  0
    3.8196   -2.1346    1.9830 H   0  0  0  0  0  0  0  0  0  0  0  0
    5.1775   -1.3999    2.8440 H   0  0  0  0  0  0  0  0  0  0  0  0
   -6.1422   -0.7101    1.9795 H   0  0  0  0  0  0  0  0  0  0  0  0
   -6.5857   -2.1047    1.0357 H   0  0  0  0  0  0  0  0  0  0  0  0
    7.0038    1.8074    0.1185 H   0  0  0  0  0  0  0  0  0  0  0  0
   -6.3783   -0.8028   -1.1121 H   0  0  0  0  0  0  0  0  0  0  0  0
   -8.6348    1.7093   -1.3284 H   0  0  0  0  0  0  0  0  0  0  0  0
   -7.0526    2.5107   -1.4498 H   0  0  0  0  0  0  0  0  0  0  0  0
   -7.3231    0.9539   -2.2413 H   0  0  0  0  0  0  0  0  0  0  0  0
   -6.8332    2.5787    1.1661 H   0  0  0  0  0  0  0  0  0  0  0  0
   -8.4636    1.8792    1.2281 H   0  0  0  0  0  0  0  0  0  0  0  0
   -7.1410    1.1078    2.0904 H   0  0  0  0  0  0  0  0  0  0  0  0
  1 22  1  0  0  0  0
  1 74  1  0  0  0  0
  2  3  1  0  0  0  0
  2  4  1  0  0  0  0
  2  8  1  0  0  0  0
  2 13  1  0  0  0  0
  3  6  1  0  0  0  0
  3  7  1  0  0  0  0
  3 14  1  0  0  0  0
  4  5  1  0  0  0  0
  4 12  1  0  0  0  0
  4 32  1  0  0  0  0
  5  9  1  0  0  0  0
  5 10  1  0  0  0  0
  5 17  1  0  0  0  0
  6 11  1  0  0  0  0
  6 15  1  0  0  0  0
  6 33  1  0  0  0  0
  7  9  1  0  0  0  0
  7 34  1  0  0  0  0
  7 35  1  0  0  0  0
  8 11  1  0  0  0  0
  8 36  1  0  0  0  0
  8 37  1  0  0  0  0
  9 38  1  0  0  0  0
  9 39  1  0  0  0  0
 10 16  1  0  0  0  0
 10 18  1  0  0  0  0
 10 40  1  0  0  0  0
 11 41  1  0  0  0  0
 11 42  1  0  0  0  0
 12 19  1  0  0  0  0
 12 43  1  0  0  0  0
 12 44  1  0  0  0  0
 13 45  1  0  0  0  0
 13 46  1  0  0  0  0
 13 47  1  0  0  0  0
 14 48  1  0  0  0  0
 14 49  1  0  0  0  0
 14 50  1  0  0  0  0
 15 23  1  0  0  0  0
 15 24  1  0  0  0  0
 15 51  1  0  0  0  0
 16 19  2  0  0  0  0
 16 20  1  0  0  0  0
 17 52  1  0  0  0  0
 17 53  1  0  0  0  0
 17 54  1  0  0  0  0
 18 21  1  0  0  0  0
 18 55  1  0  0  0  0
 18 56  1  0  0  0  0
 19 57  1  0  0  0  0
 20 22  1  0  0  0  0
 20 25  1  0  0  0  0
 20 26  1  0  0  0  0
 21 22  1  0  0  0  0
 21 58  1  0  0  0  0
 21 59  1  0  0  0  0
 22 60  1  0  0  0  0
 23 27  1  0  0  0  0
 23 61  1  0  0  0  0
 23 62  1  0  0  0  0
 24 63  1  0  0  0  0
 24 64  1  0  0  0  0
 24 65  1  0  0  0  0
 25 66  1  0  0  0  0
 25 67  1  0  0  0  0
 25 68  1  0  0  0  0
 26 69  1  0  0  0  0
 26 70  1  0  0  0  0
 26 71  1  0  0  0  0
 27 28  1  0  0  0  0
 27 72  1  0  0  0  0
 27 73  1  0  0  0  0
 28 29  2  0  0  0  0
 28 75  1  0  0  0  0
 29 30  1  0  0  0  0
 29 31  1  0  0  0  0
 30 76  1  0  0  0  0
 30 77  1  0  0  0  0
 30 78  1  0  0  0  0
 31 79  1  0  0  0  0
 31 80  1  0  0  0  0
 31 81  1  0  0  0  0
M  END
> <PUBCHEM_COMPOUND_CID>
44237280

> <PUBCHEM_CONFORMER_RMSD>
0.8

> <PUBCHEM_CONFORMER_DIVERSEORDER>
2
56
25
53
44
42
46
9
63
38
22
61
29
11
45
8
55
49
60
3
15
18
36
13
59
1
51
10
30
24
26
64
43
34
35
47
32
67
28
48
12
33
37
65
31
20
54
7
57
62
14
40
6
27
17
58
23
21
50
41
4
66
16
68
5
69
19
39
52

> <PUBCHEM_MMFF94_PARTIAL_CHARGES>
15
1 -0.68
10 0.14
12 0.14
16 -0.28
19 -0.29
20 0.14
22 0.28
27 0.14
28 -0.29
29 -0.28
30 0.14
31 0.14
57 0.15
74 0.4
75 0.15

> <PUBCHEM_EFFECTIVE_ROTOR_COUNT>
6

> <PUBCHEM_PHARMACOPHORE_FEATURES>
10
1 1 acceptor
1 1 donor
1 24 hydrophobe
3 20 25 26 hydrophobe
3 29 30 31 hydrophobe
4 15 23 27 28 hydrophobe
5 2 3 6 8 11 rings
6 10 16 18 20 21 22 rings
6 2 3 4 5 7 9 rings
6 4 5 10 12 16 19 rings

> <PUBCHEM_HEAVY_ATOM_COUNT>
31

> <PUBCHEM_ATOM_DEF_STEREO_COUNT>
5

> <PUBCHEM_ATOM_UDEF_STEREO_COUNT>
3

> <PUBCHEM_BOND_DEF_STEREO_COUNT>
0

> <PUBCHEM_BOND_UDEF_STEREO_COUNT>
0

> <PUBCHEM_ISOTOPIC_ATOM_COUNT>
0

> <PUBCHEM_COMPONENT_COUNT>
1

> <PUBCHEM_CACTVS_TAUTO_COUNT>
1

> <PUBCHEM_CONFORMER_ID>
02A301E000000002

> <PUBCHEM_MMFF94_ENERGY>
127.6774

> <PUBCHEM_FEATURE_SELFOVERLAP>
50.873

> <PUBCHEM_SHAPE_FINGERPRINT>
10319926 262 17775279444468833883
11719270 70 18259702311446196495
11796584 16 15841544150451832186
11961588 58 5689591705989141478
12236239 1 18410575054862448443
12422481 6 18131633374822849727
12596602 18 18411136896582439194
12633257 1 18114188536411562834
12730499 353 9871749091894712036
12778500 126 17203331152041085529
13533116 47 16370996451536404574
13685833 64 12823297896642265001
13782708 43 16056875781097168659
13914758 101 18201722873217395969
14347424 109 18409455791133382408
15064986 96 18044106867880326354
15131766 46 17981887441425352148
15142383 8 17632582660050784477
15183329 4 18060698399558230893
15238133 3 17846774096763187567
15301273 46 18335415781856963094
15352257 5 11312053253958210609
15799311 1 12391507599220811705
15849732 13 18410012130515027719
17349148 13 18187365393808830807
1813 80 17703790315169450980
18335252 98 8790880805028333941
20511986 3 17895205367653189607
20715895 44 18260545628216314839
21033648 29 18339097998848399656
21130935 74 18342458136416382723
21150785 3 15864075365131540085
21298829 104 18114174272746266033
21774942 28 17459180941073260577
21859007 373 18271250525191024285
221357 26 11671792554633412814
2303208 19 10879991346645308307
23522609 53 14260768668881241927
23559900 14 18043221622767981047
23569943 247 14045201666039920337
2838139 119 18131355220372966525
3472631 163 14273745010516945586
34797466 226 6411293555039323563
350125 39 18202001018956343741
3633792 109 17531236309753177851
404807 78 5544898205353107453
4258327 124 4966750840639871584
4325135 7 5833990551549778113
46194498 28 10375882874449222634
5104073 3 18042383838384952299
5381727 24 5256397298180435174
54039377 194 11887410118030704144
6004065 56 17531254916174197993
6086070 43 17896050862562681377
6371009 1 18040150721668727897

> <PUBCHEM_SHAPE_MULTIPOLES>
632.1
17.79
2.3
1.77
22.71
0.1
0.17
4.59
-5.15
-0.43
0.15
-0.49
0.09
0.42

> <PUBCHEM_SHAPE_SELFOVERLAP>
1314.248

> <PUBCHEM_SHAPE_VOLUME>
358.7

> <PUBCHEM_COORDINATE_TYPE>
2
5
10

$$$$

