50591
  -OEChem-07051212503D

 17 18  0     0  0  0  0  0  0999 V2000
    2.4868   -1.4269    0.0003 O   0  0  0  0  0  0  0  0  0  0  0  0
    0.8733    1.6923   -0.0001 N   0  0  0  0  0  0  0  0  0  0  0  0
    0.2092   -0.4377   -0.0001 C   0  0  0  0  0  0  0  0  0  0  0  0
   -0.2414    0.8842    0.0000 C   0  0  0  0  0  0  0  0  0  0  0  0
    1.6315   -0.3939    0.0000 C   0  0  0  0  0  0  0  0  0  0  0  0
    2.0098    0.9290   -0.0001 C   0  0  0  0  0  0  0  0  0  0  0  0
   -0.7410   -1.4780   -0.0004 C   0  0  0  0  0  0  0  0  0  0  0  0
   -1.6002    1.2190    0.0000 C   0  0  0  0  0  0  0  0  0  0  0  0
   -2.1036   -1.1582    0.0001 C   0  0  0  0  0  0  0  0  0  0  0  0
   -2.5243    0.1703    0.0002 C   0  0  0  0  0  0  0  0  0  0  0  0
    0.8543    2.7027   -0.0001 H   0  0  0  0  0  0  0  0  0  0  0  0
    2.9845    1.3969   -0.0001 H   0  0  0  0  0  0  0  0  0  0  0  0
   -0.4276   -2.5181   -0.0006 H   0  0  0  0  0  0  0  0  0  0  0  0
   -1.9287    2.2529    0.0000 H   0  0  0  0  0  0  0  0  0  0  0  0
   -2.8411   -1.9566    0.0001 H   0  0  0  0  0  0  0  0  0  0  0  0
   -3.5876    0.3960    0.0004 H   0  0  0  0  0  0  0  0  0  0  0  0
    3.4065   -1.1078    0.0003 H   0  0  0  0  0  0  0  0  0  0  0  0
  1  5  1  0  0  0  0
  1 17  1  0  0  0  0
  2  4  1  0  0  0  0
  2  6  1  0  0  0  0
  2 11  1  0  0  0  0
  3  4  1  0  0  0  0
  3  5  1  0  0  0  0
  3  7  2  0  0  0  0
  4  8  2  0  0  0  0
  5  6  2  0  0  0  0
  6 12  1  0  0  0  0
  7  9  1  0  0  0  0
  7 13  1  0  0  0  0
  8 10  1  0  0  0  0
  8 14  1  0  0  0  0
  9 10  2  0  0  0  0
  9 15  1  0  0  0  0
 10 16  1  0  0  0  0
M  END
> <PUBCHEM_COMPOUND_CID>
50591

> <PUBCHEM_CONFORMER_RMSD>
0.4

> <PUBCHEM_CONFORMER_DIVERSEORDER>
1

> <PUBCHEM_MMFF94_PARTIAL_CHARGES>
16
1 -0.51
10 -0.15
11 0.27
12 0.15
13 0.15
14 0.15
15 0.15
16 0.15
17 0.45
2 0.03
4 -0.15
5 0.06
6 -0.3
7 -0.15
8 -0.15
9 -0.15

> <PUBCHEM_EFFECTIVE_ROTOR_COUNT>
0

> <PUBCHEM_PHARMACOPHORE_FEATURES>
5
1 1 donor
1 2 cation
1 2 donor
5 2 3 4 5 6 rings
6 3 4 7 8 9 10 rings

> <PUBCHEM_HEAVY_ATOM_COUNT>
10

> <PUBCHEM_ATOM_DEF_STEREO_COUNT>
0

> <PUBCHEM_ATOM_UDEF_STEREO_COUNT>
0

> <PUBCHEM_BOND_DEF_STEREO_COUNT>
0

> <PUBCHEM_BOND_UDEF_STEREO_COUNT>
0

> <PUBCHEM_ISOTOPIC_ATOM_COUNT>
0

> <PUBCHEM_COMPONENT_COUNT>
1

> <PUBCHEM_CACTVS_TAUTO_COUNT>
7

> <PUBCHEM_CONFORMER_ID>
0000C59F00000001

> <PUBCHEM_MMFF94_ENERGY>
15.5834

> <PUBCHEM_FEATURE_SELFOVERLAP>
25.463

> <PUBCHEM_SHAPE_FINGERPRINT>
12423570 1 7657779989938910712
12897270 3 18195244412555468653
14128692 85 18410287025781104478
16945 1 18266458694096743365
18185500 45 17976541607031235215
19973954 147 18411135805697389097
21040471 1 18410855434411319905
23552423 10 18272087158512189718
241688 4 18341333387212076233
2748010 2 18410857672067993909
29004967 10 18269834216173789905
369184 2 14779554525204895887
5084963 1 18260552246623651115

> <PUBCHEM_SHAPE_MULTIPOLES>
194.94
3.31
1.72
0.6
0.01
0.02
0
0.43
0
0.16
0
-0.03
0
0

> <PUBCHEM_SHAPE_SELFOVERLAP>
431.817

> <PUBCHEM_SHAPE_VOLUME>
105

> <PUBCHEM_COORDINATE_TYPE>
2
5
10

$$$$

