441595
  -OEChem-07051212553D

 56 60  0     1  0  0  0  0  0999 V2000
    1.9349   -0.2846   -0.2809 O   0  0  0  0  0  0  0  0  0  0  0  0
    3.6152    1.3247   -0.1053 O   0  0  0  0  0  0  0  0  0  0  0  0
   -0.0124   -3.7233    1.4900 O   0  0  0  0  0  0  0  0  0  0  0  0
    0.6427   -1.4013    2.9222 O   0  0  0  0  0  0  0  0  0  0  0  0
    3.9060   -2.2592   -0.7543 O   0  0  0  0  0  0  0  0  0  0  0  0
    6.3320   -1.1201   -1.9783 O   0  0  0  0  0  0  0  0  0  0  0  0
    7.2566    1.1598   -0.4607 O   0  0  0  0  0  0  0  0  0  0  0  0
    4.2628    3.6992    1.1187 O   0  0  0  0  0  0  0  0  0  0  0  0
   -4.1194   -2.7031   -1.3864 O   0  0  0  0  0  0  0  0  0  0  0  0
   -4.7064    3.2906    0.3278 O   0  0  0  0  0  0  0  0  0  0  0  0
   -6.3691    1.8541   -0.6591 O   0  0  0  0  0  0  0  0  0  0  0  0
   -5.9237   -0.8819   -1.2419 O   0  0  0  0  0  0  0  0  0  0  0  0
   -2.1672   -2.5222   -0.1939 N   0  0  0  0  0  0  0  0  0  0  0  0
   -1.3532   -1.8382    0.8076 C   0  0  1  0  0  0  0  0  0  0  0  0
    1.1371   -0.1809    0.8960 C   0  0  2  0  0  0  0  0  0  0  0  0
    0.0556   -2.4579    0.8334 C   0  0  1  0  0  0  0  0  0  0  0  0
    1.0577   -1.5576    1.5639 C   0  0  2  0  0  0  0  0  0  0  0  0
   -1.3458   -0.3562    0.5136 C   0  0  0  0  0  0  0  0  0  0  0  0
    3.3158   -0.0647    0.0056 C   0  0  2  0  0  0  0  0  0  0  0  0
    4.1391   -0.8721   -0.9979 C   0  0  1  0  0  0  0  0  0  0  0  0
    5.6324   -0.5761   -0.8580 C   0  0  2  0  0  0  0  0  0  0  0  0
   -0.2121    0.3702    0.5177 C   0  0  0  0  0  0  0  0  0  0  0  0
    5.8970    0.9291   -0.8207 C   0  0  1  0  0  0  0  0  0  0  0  0
    4.9811    1.6166    0.1947 C   0  0  1  0  0  0  0  0  0  0  0  0
   -2.6678    0.2213    0.1821 C   0  0  0  0  0  0  0  0  0  0  0  0
   -3.6625   -0.6153   -0.3842 C   0  0  0  0  0  0  0  0  0  0  0  0
   -3.3560   -2.0333   -0.6973 C   0  0  0  0  0  0  0  0  0  0  0  0
    5.1444    3.1330    0.1663 C   0  0  0  0  0  0  0  0  0  0  0  0
   -2.9828    1.5657    0.4510 C   0  0  0  0  0  0  0  0  0  0  0  0
   -4.9377   -0.1209   -0.7000 C   0  0  0  0  0  0  0  0  0  0  0  0
   -4.2469    2.0238    0.1336 C   0  0  0  0  0  0  0  0  0  0  0  0
   -5.1958    1.2048   -0.4267 C   0  0  0  0  0  0  0  0  0  0  0  0
   -6.0517    3.1760   -0.1785 C   0  0  0  0  0  0  0  0  0  0  0  0
   -1.8554   -2.0116    1.7690 H   0  0  0  0  0  0  0  0  0  0  0  0
    1.5753    0.5468    1.5938 H   0  0  0  0  0  0  0  0  0  0  0  0
    0.4072   -2.6426   -0.1903 H   0  0  0  0  0  0  0  0  0  0  0  0
    2.0322   -2.0574    1.5883 H   0  0  0  0  0  0  0  0  0  0  0  0
    3.5498   -0.4066    1.0235 H   0  0  0  0  0  0  0  0  0  0  0  0
    3.8060   -0.6700   -2.0229 H   0  0  0  0  0  0  0  0  0  0  0  0
    6.0438   -1.0666    0.0327 H   0  0  0  0  0  0  0  0  0  0  0  0
   -0.2232    1.4229    0.2465 H   0  0  0  0  0  0  0  0  0  0  0  0
    5.7423    1.3413   -1.8264 H   0  0  0  0  0  0  0  0  0  0  0  0
    5.1977    1.2716    1.2149 H   0  0  0  0  0  0  0  0  0  0  0  0
   -1.9553   -3.4968   -0.3864 H   0  0  0  0  0  0  0  0  0  0  0  0
    4.8779    3.5361   -0.8164 H   0  0  0  0  0  0  0  0  0  0  0  0
    6.1638    3.4375    0.4190 H   0  0  0  0  0  0  0  0  0  0  0  0
    0.8825   -4.1035    1.4860 H   0  0  0  0  0  0  0  0  0  0  0  0
    1.3149   -0.8624    3.3729 H   0  0  0  0  0  0  0  0  0  0  0  0
   -2.2693    2.2428    0.9100 H   0  0  0  0  0  0  0  0  0  0  0  0
    4.1978   -2.4598    0.1513 H   0  0  0  0  0  0  0  0  0  0  0  0
    7.2734   -0.9023   -1.8674 H   0  0  0  0  0  0  0  0  0  0  0  0
    7.4705    2.0818   -0.6809 H   0  0  0  0  0  0  0  0  0  0  0  0
    4.3783    4.6639    1.0791 H   0  0  0  0  0  0  0  0  0  0  0  0
   -6.7520    3.4354    0.6237 H   0  0  0  0  0  0  0  0  0  0  0  0
   -6.1791    3.8887   -1.0013 H   0  0  0  0  0  0  0  0  0  0  0  0
   -6.7137   -0.3282   -1.3684 H   0  0  0  0  0  0  0  0  0  0  0  0
  1 15  1  0  0  0  0
  1 19  1  0  0  0  0
  2 19  1  0  0  0  0
  2 24  1  0  0  0  0
  3 16  1  0  0  0  0
  3 47  1  0  0  0  0
  4 17  1  0  0  0  0
  4 48  1  0  0  0  0
  5 20  1  0  0  0  0
  5 50  1  0  0  0  0
  6 21  1  0  0  0  0
  6 51  1  0  0  0  0
  7 23  1  0  0  0  0
  7 52  1  0  0  0  0
  8 28  1  0  0  0  0
  8 53  1  0  0  0  0
  9 27  2  0  0  0  0
 10 31  1  0  0  0  0
 10 33  1  0  0  0  0
 11 32  1  0  0  0  0
 11 33  1  0  0  0  0
 12 30  1  0  0  0  0
 12 56  1  0  0  0  0
 13 14  1  0  0  0  0
 13 27  1  0  0  0  0
 13 44  1  0  0  0  0
 14 16  1  0  0  0  0
 14 18  1  0  0  0  0
 14 34  1  0  0  0  0
 15 17  1  0  0  0  0
 15 22  1  0  0  0  0
 15 35  1  0  0  0  0
 16 17  1  0  0  0  0
 16 36  1  0  0  0  0
 17 37  1  0  0  0  0
 18 22  2  0  0  0  0
 18 25  1  0  0  0  0
 19 20  1  0  0  0  0
 19 38  1  0  0  0  0
 20 21  1  0  0  0  0
 20 39  1  0  0  0  0
 21 23  1  0  0  0  0
 21 40  1  0  0  0  0
 22 41  1  0  0  0  0
 23 24  1  0  0  0  0
 23 42  1  0  0  0  0
 24 28  1  0  0  0  0
 24 43  1  0  0  0  0
 25 26  1  0  0  0  0
 25 29  2  0  0  0  0
 26 27  1  0  0  0  0
 26 30  2  0  0  0  0
 28 45  1  0  0  0  0
 28 46  1  0  0  0  0
 29 31  1  0  0  0  0
 29 49  1  0  0  0  0
 30 32  1  0  0  0  0
 31 32  2  0  0  0  0
 33 54  1  0  0  0  0
 33 55  1  0  0  0  0
M  END
> <PUBCHEM_COMPOUND_CID>
441595

> <PUBCHEM_CONFORMER_RMSD>
0.8

> <PUBCHEM_CONFORMER_DIVERSEORDER>
2
32
21
29
6
25
45
38
42
41
1
40
22
4
33
50
16
8
7
28
44
31
23
9
30
14
27
17
3
35
36
18
10
39
51
53
49
47
13
43
37
5
24
11
19
46
48
34
20
52
26
15
12

> <PUBCHEM_MMFF94_PARTIAL_CHARGES>
43
1 -0.56
10 -0.36
11 -0.36
12 -0.53
13 -0.73
14 0.44
15 0.42
16 0.28
17 0.28
18 -0.17
19 0.56
2 -0.56
20 0.28
21 0.28
22 -0.29
23 0.28
24 0.28
25 0.03
26 0.09
27 0.54
28 0.28
29 -0.15
3 -0.68
30 0.08
31 0.08
32 0.08
33 0.56
4 -0.68
41 0.15
44 0.37
47 0.4
48 0.4
49 0.15
5 -0.68
50 0.4
51 0.4
52 0.4
53 0.4
56 0.45
6 -0.68
7 -0.68
8 -0.68
9 -0.57

> <PUBCHEM_EFFECTIVE_ROTOR_COUNT>
5.6

> <PUBCHEM_PHARMACOPHORE_FEATURES>
24
1 1 acceptor
1 10 acceptor
1 11 acceptor
1 12 donor
1 13 donor
1 2 acceptor
1 3 acceptor
1 3 donor
1 4 acceptor
1 4 donor
1 5 acceptor
1 5 donor
1 6 acceptor
1 6 donor
1 7 acceptor
1 7 donor
1 8 acceptor
1 8 donor
1 9 acceptor
5 10 11 31 32 33 rings
6 13 14 18 25 26 27 rings
6 14 15 16 17 18 22 rings
6 2 19 20 21 23 24 rings
6 25 26 29 30 31 32 rings

> <PUBCHEM_HEAVY_ATOM_COUNT>
33

> <PUBCHEM_ATOM_DEF_STEREO_COUNT>
9

> <PUBCHEM_ATOM_UDEF_STEREO_COUNT>
0

> <PUBCHEM_BOND_DEF_STEREO_COUNT>
0

> <PUBCHEM_BOND_UDEF_STEREO_COUNT>
0

> <PUBCHEM_ISOTOPIC_ATOM_COUNT>
0

> <PUBCHEM_COMPONENT_COUNT>
1

> <PUBCHEM_CACTVS_TAUTO_COUNT>
7

> <PUBCHEM_CONFORMER_ID>
0006BCFB00000002

> <PUBCHEM_MMFF94_ENERGY>
94.2344

> <PUBCHEM_FEATURE_SELFOVERLAP>
122.06

> <PUBCHEM_SHAPE_FINGERPRINT>
10670039 82 18411143562824972901
10835480 77 18187366515412941056
11331351 85 17336211697951178266
13540713 5 18198925749917717627
13690498 29 17896327922244986167
13782708 43 15285941117291138471
13944108 23 17832707155493945769
14790565 3 18266742566245480057
14840074 17 17274820268180909973
15064981 194 18264751226002215853
15082195 135 18113050524707624744
15183329 4 18261109724546105228
15575132 122 17987521579824529053
18222031 100 5473137427634872178
18608769 82 18340200783663449771
19053607 189 18192722137889708976
21033648 29 18201996595557020056
21223535 225 18411707599252555524
21424621 283 18273213097247733482
21756936 100 18131345311171349051
22393880 68 18335708234200389395
23559900 14 17967258597845784112
25147074 1 18200329821696860427
2747138 104 17986939757800523123
2838139 119 18410576158769029788
34797466 226 17894906287399739476
3493558 16 18195242213707085324
38570 142 18200586016390246611
4015057 19 17968649420431787600
4073 2 18270957956498306354
4098825 35 18260545615194347495
4516262 110 18131075978278005349
5283173 99 18336546023759515928
6058803 2 18051150365332355043
7288768 16 17632572773653475419

> <PUBCHEM_SHAPE_MULTIPOLES>
603.71
17.17
3.91
1.4
8.52
1.09
0.46
12.25
-7.87
-1.49
0.86
0.75
-0.91
0.31

> <PUBCHEM_SHAPE_SELFOVERLAP>
1329.323

> <PUBCHEM_SHAPE_VOLUME>
319.4

> <PUBCHEM_COORDINATE_TYPE>
2
5
10

$$$$

