251117
  -OEChem-07051213062D

 44 47  0     1  0  0  0  0  0999 V2000
    2.8641   -2.0032    0.0000 O   0  0  0  0  0  0  0  0  0  0  0  0
    8.2572    0.0491    0.0000 C   0  0  1  0  0  0  0  0  0  0  0  0
    7.3912   -0.4509    0.0000 C   0  0  1  0  0  0  0  0  0  0  0  0
    8.2572    1.0491    0.0000 C   0  0  2  0  0  0  0  0  0  0  0  0
    6.5251    0.0491    0.0000 C   0  0  2  0  0  0  0  0  0  0  0  0
    7.3912    1.5491    0.0000 C   0  0  0  0  0  0  0  0  0  0  0  0
    6.5251    1.0491    0.0000 C   0  0  0  0  0  0  0  0  0  0  0  0
    9.2034   -0.2556    0.0000 C   0  0  0  0  0  0  0  0  0  0  0  0
    7.4072   -1.4924    0.0000 C   0  0  0  0  0  0  0  0  0  0  0  0
    9.2034    1.3538    0.0000 C   0  0  0  0  0  0  0  0  0  0  0  0
    5.6151   -0.4578    0.0000 C   0  0  0  0  0  0  0  0  0  0  0  0
    8.2572    2.0491    0.0000 C   0  0  0  0  0  0  0  0  0  0  0  0
    6.5092   -2.0202    0.0000 C   0  0  0  0  0  0  0  0  0  0  0  0
    9.7870    0.5491    0.0000 C   0  0  0  0  0  0  0  0  0  0  0  0
    5.6071   -1.4994    0.0000 C   0  0  0  0  0  0  0  0  0  0  0  0
    4.6883    0.1063    0.0000 C   0  0  0  0  0  0  0  0  0  0  0  0
    4.6717   -2.0491    0.0000 C   0  0  0  0  0  0  0  0  0  0  0  0
    3.7404   -0.4216    0.0000 C   0  0  0  0  0  0  0  0  0  0  0  0
    3.7320   -1.5066    0.0000 C   0  0  0  0  0  0  0  0  0  0  0  0
    2.0000   -1.4999    0.0000 C   0  0  0  0  0  0  0  0  0  0  0  0
    8.3471   -0.7961    0.0000 H   0  0  0  0  0  0  0  0  0  0  0  0
    8.1305   -0.8702    0.0000 H   0  0  0  0  0  0  0  0  0  0  0  0
    7.2612    0.4741    0.0000 H   0  0  0  0  0  0  0  0  0  0  0  0
    7.7897    2.0240    0.0000 H   0  0  0  0  0  0  0  0  0  0  0  0
    6.9926    2.0240    0.0000 H   0  0  0  0  0  0  0  0  0  0  0  0
    6.3131    1.6317    0.0000 H   0  0  0  0  0  0  0  0  0  0  0  0
    5.9145    0.9414    0.0000 H   0  0  0  0  0  0  0  0  0  0  0  0
    8.9524   -0.8226    0.0000 H   0  0  0  0  0  0  0  0  0  0  0  0
    9.7408   -0.5649    0.0000 H   0  0  0  0  0  0  0  0  0  0  0  0
    7.6252   -2.0728    0.0000 H   0  0  0  0  0  0  0  0  0  0  0  0
    8.0164   -1.3769    0.0000 H   0  0  0  0  0  0  0  0  0  0  0  0
    9.3960    1.9431    0.0000 H   0  0  0  0  0  0  0  0  0  0  0  0
    8.8772    2.0491    0.0000 H   0  0  0  0  0  0  0  0  0  0  0  0
    8.2572    2.6691    0.0000 H   0  0  0  0  0  0  0  0  0  0  0  0
    7.6372    2.0491    0.0000 H   0  0  0  0  0  0  0  0  0  0  0  0
    6.1119   -2.4962    0.0000 H   0  0  0  0  0  0  0  0  0  0  0  0
    6.9101   -2.4931    0.0000 H   0  0  0  0  0  0  0  0  0  0  0  0
   10.4070    0.5491    0.0000 H   0  0  0  0  0  0  0  0  0  0  0  0
    4.7002    0.7262    0.0000 H   0  0  0  0  0  0  0  0  0  0  0  0
    4.6741   -2.6691    0.0000 H   0  0  0  0  0  0  0  0  0  0  0  0
    3.2071   -0.1054    0.0000 H   0  0  0  0  0  0  0  0  0  0  0  0
    2.3121   -0.9642    0.0000 H   0  0  0  0  0  0  0  0  0  0  0  0
    1.4643   -1.1878    0.0000 H   0  0  0  0  0  0  0  0  0  0  0  0
    1.6879   -2.0356    0.0000 H   0  0  0  0  0  0  0  0  0  0  0  0
  1 19  1  0  0  0  0
  1 20  1  0  0  0  0
  2  3  1  0  0  0  0
  2  4  1  0  0  0  0
  2  8  1  0  0  0  0
  2 21  1  6  0  0  0
  3  5  1  0  0  0  0
  3  9  1  0  0  0  0
  3 22  1  1  0  0  0
  4  6  1  0  0  0  0
  4 10  1  0  0  0  0
  4 12  1  1  0  0  0
  5  7  1  0  0  0  0
  5 11  1  0  0  0  0
  5 23  1  6  0  0  0
  6  7  1  0  0  0  0
  6 24  1  0  0  0  0
  6 25  1  0  0  0  0
  7 26  1  0  0  0  0
  7 27  1  0  0  0  0
  8 14  1  0  0  0  0
  8 28  1  0  0  0  0
  8 29  1  0  0  0  0
  9 13  1  0  0  0  0
  9 30  1  0  0  0  0
  9 31  1  0  0  0  0
 10 14  2  0  0  0  0
 10 32  1  0  0  0  0
 11 15  2  0  0  0  0
 11 16  1  0  0  0  0
 12 33  1  0  0  0  0
 12 34  1  0  0  0  0
 12 35  1  0  0  0  0
 13 15  1  0  0  0  0
 13 36  1  0  0  0  0
 13 37  1  0  0  0  0
 14 38  1  0  0  0  0
 15 17  1  0  0  0  0
 16 18  2  0  0  0  0
 16 39  1  0  0  0  0
 17 19  2  0  0  0  0
 17 40  1  0  0  0  0
 18 19  1  0  0  0  0
 18 41  1  0  0  0  0
 20 42  1  0  0  0  0
 20 43  1  0  0  0  0
 20 44  1  0  0  0  0
M  END
> <PUBCHEM_COMPOUND_CID>
251117

> <PUBCHEM_COMPOUND_CANONICALIZED>
1

> <PUBCHEM_CACTVS_COMPLEXITY>
401

> <PUBCHEM_CACTVS_HBOND_ACCEPTOR>
1

> <PUBCHEM_CACTVS_HBOND_DONOR>
0

> <PUBCHEM_CACTVS_ROTATABLE_BOND>
1

> <PUBCHEM_CACTVS_SUBSKEYS>
AAADceB4IAAAAAAAAAAAAAAAAAAAAQAAAAAwYMAAAAAAAEDBAAAAGgAAAAAADwSAmAIyBoAABACAAiBCAAACCAAgIAAIiAAGCIgMJiKEMRqAMCAkwBEIqAeAwPAPoAABAAAQAADAAAYAACAAAAAAAAAAAA==

> <PUBCHEM_IUPAC_OPENEYE_NAME>
(8S,9S,13R,14S)-3-methoxy-13-methyl-6,7,8,9,11,12,14,15-octahydrocyclopenta[a]phenanthrene

> <PUBCHEM_IUPAC_CAS_NAME>
(8S,9S,13R,14S)-3-methoxy-13-methyl-6,7,8,9,11,12,14,15-octahydrocyclopenta[a]phenanthrene

> <PUBCHEM_IUPAC_NAME>
(8S,9S,13R,14S)-3-methoxy-13-methyl-6,7,8,9,11,12,14,15-octahydrocyclopenta[a]phenanthrene

> <PUBCHEM_IUPAC_SYSTEMATIC_NAME>
(8S,9S,13R,14S)-3-methoxy-13-methyl-6,7,8,9,11,12,14,15-octahydrocyclopenta[a]phenanthrene

> <PUBCHEM_IUPAC_TRADITIONAL_NAME>
(8S,9S,13R,14S)-3-methoxy-13-methyl-6,7,8,9,11,12,14,15-octahydrocyclopenta[a]phenanthrene

> <PUBCHEM_IUPAC_INCHI>
InChI=1S/C19H24O/c1-19-10-3-4-18(19)17-7-5-13-12-14(20-2)6-8-15(13)16(17)9-11-19/h3,6,8,10,12,16-18H,4-5,7,9,11H2,1-2H3/t16-,17-,18+,19+/m1/s1

> <PUBCHEM_IUPAC_INCHIKEY>
HDBRXSVHQAGDAZ-YRXWBPOGSA-N

> <PUBCHEM_XLOGP3_AA>
5.4

> <PUBCHEM_EXACT_MASS>
268.182715

> <PUBCHEM_MOLECULAR_FORMULA>
C19H24O

> <PUBCHEM_MOLECULAR_WEIGHT>
268.39326

> <PUBCHEM_OPENEYE_CAN_SMILES>
CC12CCC3C(C1CC=C2)CCC4=C3C=CC(=C4)OC

> <PUBCHEM_OPENEYE_ISO_SMILES>
C[C@]12CC[C@H]3[C@H]([C@@H]1CC=C2)CCC4=C3C=CC(=C4)OC

> <PUBCHEM_CACTVS_TPSA>
9.2

> <PUBCHEM_MONOISOTOPIC_WEIGHT>
268.182715

> <PUBCHEM_TOTAL_CHARGE>
0

> <PUBCHEM_HEAVY_ATOM_COUNT>
20

> <PUBCHEM_ATOM_DEF_STEREO_COUNT>
4

> <PUBCHEM_ATOM_UDEF_STEREO_COUNT>
0

> <PUBCHEM_BOND_DEF_STEREO_COUNT>
0

> <PUBCHEM_BOND_UDEF_STEREO_COUNT>
0

> <PUBCHEM_ISOTOPIC_ATOM_COUNT>
0

> <PUBCHEM_COMPONENT_COUNT>
1

> <PUBCHEM_CACTVS_TAUTO_COUNT>
1

> <PUBCHEM_COORDINATE_TYPE>
1
5
255

> <PUBCHEM_BONDANNOTATIONS>
11  15  8
11  16  8
15  17  8
16  18  8
17  19  8
18  19  8
2  21  6
3  22  5
4  12  5
5  23  6

$$$$

