249679
  -OEChem-07051213063D

 36 39  0     0  0  0  0  0  0999 V2000
   -4.0517    0.0873    2.8047 Cl  0  0  0  0  0  0  0  0  0  0  0  0
   -8.4232   -0.2785   -0.3111 Cl  0  0  0  0  0  0  0  0  0  0  0  0
    2.5254   -1.8431   -0.2274 O   0  0  0  0  0  0  0  0  0  0  0  0
    4.4964   -2.9462    0.0842 O   0  0  0  0  0  0  0  0  0  0  0  0
   -1.7419    0.2472   -0.9029 N   0  0  0  0  0  0  0  0  0  0  0  0
    2.4229    0.5976   -0.2292 C   0  0  0  0  0  0  0  0  0  0  0  0
    3.8719    0.6328    0.0049 C   0  0  0  0  0  0  0  0  0  0  0  0
    1.7910   -0.6433   -0.3387 C   0  0  0  0  0  0  0  0  0  0  0  0
    4.5830   -0.5753    0.1121 C   0  0  0  0  0  0  0  0  0  0  0  0
    1.6044    1.7321   -0.3541 C   0  0  0  0  0  0  0  0  0  0  0  0
    0.4182   -0.7804   -0.5610 C   0  0  0  0  0  0  0  0  0  0  0  0
    4.6054    1.8277    0.1312 C   0  0  0  0  0  0  0  0  0  0  0  0
   -0.3664    0.3595   -0.6801 C   0  0  0  0  0  0  0  0  0  0  0  0
    3.8955   -1.8835   -0.0070 C   0  0  0  0  0  0  0  0  0  0  0  0
    0.2261    1.6148   -0.5769 C   0  0  0  0  0  0  0  0  0  0  0  0
    5.9692   -0.5845    0.3359 C   0  0  0  0  0  0  0  0  0  0  0  0
    5.9856    1.8186    0.3538 C   0  0  0  0  0  0  0  0  0  0  0  0
    6.6672    0.6130    0.4561 C   0  0  0  0  0  0  0  0  0  0  0  0
   -3.9582    0.0768    0.0784 C   0  0  0  0  0  0  0  0  0  0  0  0
   -2.4922    0.1942    0.1552 C   0  0  0  0  0  0  0  0  0  0  0  0
   -4.7408    0.0224    1.2224 C   0  0  0  0  0  0  0  0  0  0  0  0
   -4.5312    0.0242   -1.1846 C   0  0  0  0  0  0  0  0  0  0  0  0
   -6.1262   -0.0872    1.1017 C   0  0  0  0  0  0  0  0  0  0  0  0
   -5.9164   -0.0853   -1.3054 C   0  0  0  0  0  0  0  0  0  0  0  0
   -6.7140   -0.1410   -0.1623 C   0  0  0  0  0  0  0  0  0  0  0  0
    2.0110    2.7369   -0.2825 H   0  0  0  0  0  0  0  0  0  0  0  0
   -0.0268   -1.7688   -0.6395 H   0  0  0  0  0  0  0  0  0  0  0  0
    4.1237    2.7991    0.0597 H   0  0  0  0  0  0  0  0  0  0  0  0
   -0.3746    2.5165   -0.6688 H   0  0  0  0  0  0  0  0  0  0  0  0
    6.5214   -1.5170    0.4193 H   0  0  0  0  0  0  0  0  0  0  0  0
    6.5247    2.7571    0.4469 H   0  0  0  0  0  0  0  0  0  0  0  0
    7.7390    0.6048    0.6291 H   0  0  0  0  0  0  0  0  0  0  0  0
   -2.0229    0.2386    1.1531 H   0  0  0  0  0  0  0  0  0  0  0  0
   -3.9396    0.0653   -2.0947 H   0  0  0  0  0  0  0  0  0  0  0  0
   -6.7500   -0.1309    1.9921 H   0  0  0  0  0  0  0  0  0  0  0  0
   -6.3611   -0.1265   -2.2964 H   0  0  0  0  0  0  0  0  0  0  0  0
  1 21  1  0  0  0  0
  2 25  1  0  0  0  0
  3  8  1  0  0  0  0
  3 14  1  0  0  0  0
  4 14  2  0  0  0  0
  5 13  1  0  0  0  0
  5 20  2  0  0  0  0
  6  7  1  0  0  0  0
  6  8  2  0  0  0  0
  6 10  1  0  0  0  0
  7  9  1  0  0  0  0
  7 12  2  0  0  0  0
  8 11  1  0  0  0  0
  9 14  1  0  0  0  0
  9 16  2  0  0  0  0
 10 15  2  0  0  0  0
 10 26  1  0  0  0  0
 11 13  2  0  0  0  0
 11 27  1  0  0  0  0
 12 17  1  0  0  0  0
 12 28  1  0  0  0  0
 13 15  1  0  0  0  0
 15 29  1  0  0  0  0
 16 18  1  0  0  0  0
 16 30  1  0  0  0  0
 17 18  2  0  0  0  0
 17 31  1  0  0  0  0
 18 32  1  0  0  0  0
 19 20  1  0  0  0  0
 19 21  2  0  0  0  0
 19 22  1  0  0  0  0
 20 33  1  0  0  0  0
 21 23  1  0  0  0  0
 22 24  2  0  0  0  0
 22 34  1  0  0  0  0
 23 25  2  0  0  0  0
 23 35  1  0  0  0  0
 24 25  1  0  0  0  0
 24 36  1  0  0  0  0
M  END
> <PUBCHEM_COMPOUND_CID>
249679

> <PUBCHEM_CONFORMER_RMSD>
0.6

> <PUBCHEM_CONFORMER_DIVERSEORDER>
1
10
6
5
7
4
3
8
9
2

> <PUBCHEM_MMFF94_PARTIAL_CHARGES>
34
1 -0.18
10 -0.15
11 -0.15
12 -0.15
13 0.18
14 0.63
15 -0.15
16 -0.15
17 -0.15
18 -0.15
19 0.09
2 -0.18
20 0.3
21 0.18
22 -0.15
23 -0.15
24 -0.15
25 0.18
26 0.15
27 0.15
28 0.15
29 0.15
3 -0.23
30 0.15
31 0.15
32 0.15
33 0.06
34 0.15
35 0.15
36 0.15
4 -0.57
5 -0.63
8 0.08
9 0.09

> <PUBCHEM_EFFECTIVE_ROTOR_COUNT>
2

> <PUBCHEM_PHARMACOPHORE_FEATURES>
6
1 4 acceptor
1 5 acceptor
6 19 21 22 23 24 25 rings
6 3 6 7 8 9 14 rings
6 6 8 10 11 13 15 rings
6 7 9 12 16 17 18 rings

> <PUBCHEM_HEAVY_ATOM_COUNT>
25

> <PUBCHEM_ATOM_DEF_STEREO_COUNT>
0

> <PUBCHEM_ATOM_UDEF_STEREO_COUNT>
0

> <PUBCHEM_BOND_DEF_STEREO_COUNT>
0

> <PUBCHEM_BOND_UDEF_STEREO_COUNT>
0

> <PUBCHEM_ISOTOPIC_ATOM_COUNT>
0

> <PUBCHEM_COMPONENT_COUNT>
1

> <PUBCHEM_CACTVS_TAUTO_COUNT>
1

> <PUBCHEM_CONFORMER_ID>
0003CF4F00000001

> <PUBCHEM_MMFF94_ENERGY>
84.9691

> <PUBCHEM_FEATURE_SELFOVERLAP>
30.494

> <PUBCHEM_SHAPE_FINGERPRINT>
10 15 17917435281333481280
10299344 5 17894633643360904095
10411042 1 18049443936319063646
10670039 82 15068607318948064800
11059845 2 15651818166635533866
11315181 36 17749107760876863667
11524674 6 17632296749058997571
11578080 2 13613369500959701012
11719270 70 17632861927715271418
11796584 16 16486969583511382017
12107183 9 17465086542089057803
12166972 35 18041001713677662777
12236239 1 17749389269580420557
12516196 113 18411702088782971493
12596602 18 17676483964709347347
12730499 353 18342458149812460682
13073987 5 18410856607349017413
13533116 47 18260551147149219482
13540713 4 18126017194183006460
13685833 64 18202001032146953589
13914758 101 18338515344276062081
14170010 4 18342740697655406276
14251764 18 17894914014578420909
14341114 328 17386000702138238731
14849402 71 17749675056441391048
15348495 7 17489019345266027617
15419008 47 17561092397281995629
15475509 35 16916520263118935450
1577012 14 17531239587403951753
16120349 18 18336834104401650861
17492 89 18121785195355157174
17844677 252 18338514248004327868
19377110 9 17821725061302845411
20157964 124 18410293610050566518
20567600 75 18131355236782533469
21065198 48 18040711506609919769
21130935 74 18410008866920651235
21267235 1 18337673118379494830
21623969 137 18272930522748994906
22224240 67 18409735024026329360
23559900 14 16414907540578594173
239999 70 17704070694829306440
255183 451 17970338442582042510
3004659 81 14476956796401035334
335352 9 18409166607260217390
3383291 50 17060329705463178139
34797466 226 16702014279558903030
3633792 109 18410015472854054677
3663271 9 18113896078945007099
397830 11 17273970233849889841
4073 2 18201155447380927859
42630746 31 18408041815001178382
4340502 62 17632300068941856458
44317340 157 10879694482357729567
5104073 3 18269279135138869704
5758199 1 18187367585007185608

> <PUBCHEM_SHAPE_MULTIPOLES>
501.51
21.09
1.74
1.31
18.35
0.61
0.87
0.48
2.21
-4.04
-0.06
2.59
-0.08
0.06

> <PUBCHEM_SHAPE_SELFOVERLAP>
1102.722

> <PUBCHEM_SHAPE_VOLUME>
271.4

> <PUBCHEM_COORDINATE_TYPE>
2
5
10

$$$$

