8013
  -OEChem-06261202332D

 13 12  0     0  0  0  0  0  0999 V2000
    6.0010   -0.2500    0.0000 S   0  0  0  0  0  0  0  0  0  0  0  0
    2.5369   -0.2500    0.0000 S   0  0  0  0  0  0  0  0  0  0  0  0
    4.2690   -0.2500    0.0000 C   0  0  0  0  0  0  0  0  0  0  0  0
    5.1350    0.2500    0.0000 C   0  0  0  0  0  0  0  0  0  0  0  0
    3.4030    0.2500    0.0000 C   0  0  0  0  0  0  0  0  0  0  0  0
    3.8705   -0.7249    0.0000 H   0  0  0  0  0  0  0  0  0  0  0  0
    4.6675   -0.7249    0.0000 H   0  0  0  0  0  0  0  0  0  0  0  0
    5.5335    0.7249    0.0000 H   0  0  0  0  0  0  0  0  0  0  0  0
    4.7365    0.7249    0.0000 H   0  0  0  0  0  0  0  0  0  0  0  0
    3.8015    0.7249    0.0000 H   0  0  0  0  0  0  0  0  0  0  0  0
    3.0044    0.7249    0.0000 H   0  0  0  0  0  0  0  0  0  0  0  0
    6.5380    0.0600    0.0000 H   0  0  0  0  0  0  0  0  0  0  0  0
    2.0000    0.0600    0.0000 H   0  0  0  0  0  0  0  0  0  0  0  0
  1  4  1  0  0  0  0
  1 12  1  0  0  0  0
  2  5  1  0  0  0  0
  2 13  1  0  0  0  0
  3  4  1  0  0  0  0
  3  5  1  0  0  0  0
  3  6  1  0  0  0  0
  3  7  1  0  0  0  0
  4  8  1  0  0  0  0
  4  9  1  0  0  0  0
  5 10  1  0  0  0  0
  5 11  1  0  0  0  0
M  END
> <PUBCHEM_COMPOUND_CID>
8013

> <PUBCHEM_COMPOUND_CANONICALIZED>
1

> <PUBCHEM_CACTVS_COMPLEXITY>
12.4

> <PUBCHEM_CACTVS_HBOND_ACCEPTOR>
2

> <PUBCHEM_CACTVS_HBOND_DONOR>
2

> <PUBCHEM_CACTVS_ROTATABLE_BOND>
2

> <PUBCHEM_CACTVS_SUBSKEYS>
AAADccBAAABgAAAAAAAAAAAAAAAAAAAAAAAAAAAAAAAAAAAAAAAAGAQAAAAACACEQACAAAAAAAQAAAAAAAAAAAAAAAAAAAAAAAAAAAAAAAAAAAAAAAAAAAAAAAAAAAAAAAAAAAAAAAAAAAAAAAAAAAAAAA==

> <PUBCHEM_IUPAC_OPENEYE_NAME>
propane-1,3-dithiol

> <PUBCHEM_IUPAC_CAS_NAME>
propane-1,3-dithiol

> <PUBCHEM_IUPAC_NAME>
propane-1,3-dithiol

> <PUBCHEM_IUPAC_SYSTEMATIC_NAME>
propane-1,3-dithiol

> <PUBCHEM_IUPAC_TRADITIONAL_NAME>
propane-1,3-dithiol

> <PUBCHEM_IUPAC_INCHI>
InChI=1S/C3H8S2/c4-2-1-3-5/h4-5H,1-3H2

> <PUBCHEM_IUPAC_INCHIKEY>
ZJLMKPKYJBQJNH-UHFFFAOYSA-N

> <PUBCHEM_XLOGP3_AA>
1.2

> <PUBCHEM_EXACT_MASS>
108.006742

> <PUBCHEM_MOLECULAR_FORMULA>
C3H8S2

> <PUBCHEM_MOLECULAR_WEIGHT>
108.22562

> <PUBCHEM_OPENEYE_CAN_SMILES>
C(CS)CS

> <PUBCHEM_OPENEYE_ISO_SMILES>
C(CS)CS

> <PUBCHEM_CACTVS_TPSA>
2

> <PUBCHEM_MONOISOTOPIC_WEIGHT>
108.006742

> <PUBCHEM_TOTAL_CHARGE>
0

> <PUBCHEM_HEAVY_ATOM_COUNT>
5

> <PUBCHEM_ATOM_DEF_STEREO_COUNT>
0

> <PUBCHEM_ATOM_UDEF_STEREO_COUNT>
0

> <PUBCHEM_BOND_DEF_STEREO_COUNT>
0

> <PUBCHEM_BOND_UDEF_STEREO_COUNT>
0

> <PUBCHEM_ISOTOPIC_ATOM_COUNT>
0

> <PUBCHEM_COMPONENT_COUNT>
1

> <PUBCHEM_CACTVS_TAUTO_COUNT>
1

> <PUBCHEM_COORDINATE_TYPE>
1
5
255

$$$$

