14322
  -OEChem-07051213123D

 23 23  0     0  0  0  0  0  0999 V2000
    1.0578    0.1815    0.9377 O   0  0  0  0  0  0  0  0  0  0  0  0
    1.7160   -0.1600   -1.2660 O   0  0  0  0  0  0  0  0  0  0  0  0
    3.2739   -0.1627    0.4531 N   0  0  0  0  0  0  0  0  0  0  0  0
   -2.3601   -0.7089   -0.0165 C   0  0  0  0  0  0  0  0  0  0  0  0
   -0.2280    0.2994    0.5073 C   0  0  0  0  0  0  0  0  0  0  0  0
   -1.0422   -0.8300    0.4242 C   0  0  0  0  0  0  0  0  0  0  0  0
   -2.8637    0.5419   -0.3739 C   0  0  0  0  0  0  0  0  0  0  0  0
   -0.7316    1.5500    0.1498 C   0  0  0  0  0  0  0  0  0  0  0  0
   -2.0495    1.6713   -0.2907 C   0  0  0  0  0  0  0  0  0  0  0  0
   -3.2309   -1.9161   -0.1052 C   0  0  0  0  0  0  0  0  0  0  0  0
    2.0044   -0.0585   -0.0771 C   0  0  0  0  0  0  0  0  0  0  0  0
    4.4540   -0.4079   -0.3427 C   0  0  0  0  0  0  0  0  0  0  0  0
   -0.6452   -1.8022    0.7064 H   0  0  0  0  0  0  0  0  0  0  0  0
   -3.8893    0.6497   -0.7168 H   0  0  0  0  0  0  0  0  0  0  0  0
   -0.1029    2.4341    0.2128 H   0  0  0  0  0  0  0  0  0  0  0  0
   -2.4417    2.6453   -0.5684 H   0  0  0  0  0  0  0  0  0  0  0  0
   -2.6437   -2.8095   -0.3435 H   0  0  0  0  0  0  0  0  0  0  0  0
   -3.7464   -2.0782    0.8466 H   0  0  0  0  0  0  0  0  0  0  0  0
   -3.9810   -1.8061   -0.8958 H   0  0  0  0  0  0  0  0  0  0  0  0
    3.3845   -0.0613    1.4573 H   0  0  0  0  0  0  0  0  0  0  0  0
    5.1481    0.4217   -0.1878 H   0  0  0  0  0  0  0  0  0  0  0  0
    4.2090   -0.4934   -1.4039 H   0  0  0  0  0  0  0  0  0  0  0  0
    4.9149   -1.3346    0.0076 H   0  0  0  0  0  0  0  0  0  0  0  0
  1  5  1  0  0  0  0
  1 11  1  0  0  0  0
  2 11  2  0  0  0  0
  3 11  1  0  0  0  0
  3 12  1  0  0  0  0
  3 20  1  0  0  0  0
  4  6  2  0  0  0  0
  4  7  1  0  0  0  0
  4 10  1  0  0  0  0
  5  6  1  0  0  0  0
  5  8  2  0  0  0  0
  6 13  1  0  0  0  0
  7  9  2  0  0  0  0
  7 14  1  0  0  0  0
  8  9  1  0  0  0  0
  8 15  1  0  0  0  0
  9 16  1  0  0  0  0
 10 17  1  0  0  0  0
 10 18  1  0  0  0  0
 10 19  1  0  0  0  0
 12 21  1  0  0  0  0
 12 22  1  0  0  0  0
 12 23  1  0  0  0  0
M  END
> <PUBCHEM_COMPOUND_CID>
14322

> <PUBCHEM_CONFORMER_RMSD>
0.6

> <PUBCHEM_CONFORMER_DIVERSEORDER>
1
19
20
11
13
21
10
24
4
12
16
7
9
14
3
25
23
8
15
17
18
22
2
5
6

> <PUBCHEM_MMFF94_PARTIAL_CHARGES>
17
1 -0.23
10 0.14
11 0.78
12 0.3
13 0.15
14 0.15
15 0.15
16 0.15
2 -0.57
20 0.37
3 -0.73
4 -0.14
5 0.08
6 -0.15
7 -0.15
8 -0.15
9 -0.15

> <PUBCHEM_EFFECTIVE_ROTOR_COUNT>
3

> <PUBCHEM_PHARMACOPHORE_FEATURES>
3
1 2 acceptor
1 3 donor
6 4 5 6 7 8 9 rings

> <PUBCHEM_HEAVY_ATOM_COUNT>
12

> <PUBCHEM_ATOM_DEF_STEREO_COUNT>
0

> <PUBCHEM_ATOM_UDEF_STEREO_COUNT>
0

> <PUBCHEM_BOND_DEF_STEREO_COUNT>
0

> <PUBCHEM_BOND_UDEF_STEREO_COUNT>
0

> <PUBCHEM_ISOTOPIC_ATOM_COUNT>
0

> <PUBCHEM_COMPONENT_COUNT>
1

> <PUBCHEM_CACTVS_TAUTO_COUNT>
2

> <PUBCHEM_CONFORMER_ID>
000037F200000001

> <PUBCHEM_MMFF94_ENERGY>
29.3404

> <PUBCHEM_FEATURE_SELFOVERLAP>
15.223

> <PUBCHEM_SHAPE_FINGERPRINT>
11127187 94 18412832373914629631
12032990 46 18338797793513958227
12138202 97 18265906919874976045
12532896 13 17536578965733942785
12716758 59 18337391672528402409
12932764 1 18201722885606594608
13024252 1 16988555823446970345
14128692 85 18270962328389872365
14911166 2 18340219552575197925
15219456 202 18041572338230927984
15775835 57 17774723185314869220
16945 1 18339934800332724841
18175812 5 18040440979541847548
18534176 82 18334299811376639765
20201158 50 17967533505754182398
20279233 1 17821445785175375406
20281407 28 18259983760352104578
20645476 183 17632583764321765427
20653085 51 14764345998944422423
20871998 184 18260267434573591071
20871998 22 18050289168111560515
20871999 31 18271816709233330501
21061003 4 16950564363332523272
22213442 358 18335986354734009572
23402539 116 18341620312486305374
23552423 10 18129947767351793873
23557571 272 18334288777552902388
23559900 14 18263370334245088930
2748010 2 18124615093371469073
573450 72 18129113358575430130
6333449 129 18335423499544071457
77492 1 17489595592543328640

> <PUBCHEM_SHAPE_MULTIPOLES>
230.23
6.38
1.55
0.84
6.5
0.06
-0.06
-2.03
-0.93
-1.8
-0.06
0.24
0
0.15

> <PUBCHEM_SHAPE_SELFOVERLAP>
471.565

> <PUBCHEM_SHAPE_VOLUME>
132.3

> <PUBCHEM_COORDINATE_TYPE>
2
5
10

$$$$

