9845243
  -OEChem-07051213113D

 24 25  0     0  0  0  0  0  0999 V2000
   -2.1065    1.9987    0.0004 O   0  0  0  0  0  0  0  0  0  0  0  0
    3.2352    1.1940   -0.0001 O   0  0  0  0  0  0  0  0  0  0  0  0
   -1.8894   -2.7379    0.0000 O   0  0  0  0  0  0  0  0  0  0  0  0
   -0.3029    0.3499    0.0001 C   0  0  0  0  0  0  0  0  0  0  0  0
   -0.2057   -1.0387    0.0003 C   0  0  0  0  0  0  0  0  0  0  0  0
   -1.7138    0.6963   -0.0002 C   0  0  0  0  0  0  0  0  0  0  0  0
    0.8478    1.1188   -0.0004 C   0  0  0  0  0  0  0  0  0  0  0  0
   -1.5672   -1.5683    0.0001 C   0  0  0  0  0  0  0  0  0  0  0  0
    0.9982   -1.7155    0.0000 C   0  0  0  0  0  0  0  0  0  0  0  0
   -2.4797   -0.4025   -0.0003 C   0  0  0  0  0  0  0  0  0  0  0  0
    2.0848    0.4624   -0.0005 C   0  0  0  0  0  0  0  0  0  0  0  0
    2.1589   -0.9425   -0.0002 C   0  0  0  0  0  0  0  0  0  0  0  0
   -3.5230    2.1161    0.0000 C   0  0  0  0  0  0  0  0  0  0  0  0
    4.4631    0.4692    0.0005 C   0  0  0  0  0  0  0  0  0  0  0  0
    0.7977    2.2031   -0.0005 H   0  0  0  0  0  0  0  0  0  0  0  0
    1.0465   -2.7981    0.0001 H   0  0  0  0  0  0  0  0  0  0  0  0
   -3.5519   -0.5013   -0.0003 H   0  0  0  0  0  0  0  0  0  0  0  0
    3.0932   -1.4942   -0.0003 H   0  0  0  0  0  0  0  0  0  0  0  0
   -3.9666    1.6885    0.9065 H   0  0  0  0  0  0  0  0  0  0  0  0
   -3.9661    1.6890   -0.9069 H   0  0  0  0  0  0  0  0  0  0  0  0
   -3.7621    3.1847    0.0003 H   0  0  0  0  0  0  0  0  0  0  0  0
    5.2727    1.2065    0.0009 H   0  0  0  0  0  0  0  0  0  0  0  0
    4.5790   -0.1292   -0.9095 H   0  0  0  0  0  0  0  0  0  0  0  0
    4.5781   -0.1292    0.9107 H   0  0  0  0  0  0  0  0  0  0  0  0
  1  6  1  0  0  0  0
  1 13  1  0  0  0  0
  2 11  1  0  0  0  0
  2 14  1  0  0  0  0
  3  8  2  0  0  0  0
  4  5  2  0  0  0  0
  4  6  1  0  0  0  0
  4  7  1  0  0  0  0
  5  8  1  0  0  0  0
  5  9  1  0  0  0  0
  6 10  2  0  0  0  0
  7 11  2  0  0  0  0
  7 15  1  0  0  0  0
  8 10  1  0  0  0  0
  9 12  2  0  0  0  0
  9 16  1  0  0  0  0
 10 17  1  0  0  0  0
 11 12  1  0  0  0  0
 12 18  1  0  0  0  0
 13 19  1  0  0  0  0
 13 20  1  0  0  0  0
 13 21  1  0  0  0  0
 14 22  1  0  0  0  0
 14 23  1  0  0  0  0
 14 24  1  0  0  0  0
M  END
> <PUBCHEM_COMPOUND_CID>
9845243

> <PUBCHEM_CONFORMER_RMSD>
0.6

> <PUBCHEM_CONFORMER_DIVERSEORDER>
2
1

> <PUBCHEM_MMFF94_PARTIAL_CHARGES>
18
1 -0.36
10 -0.14
11 0.08
12 -0.15
13 0.28
14 0.28
15 0.15
16 0.15
17 0.15
18 0.15
2 -0.36
3 -0.57
4 0.03
5 0.09
6 0.05
7 -0.15
8 0.47
9 -0.15

> <PUBCHEM_EFFECTIVE_ROTOR_COUNT>
2

> <PUBCHEM_PHARMACOPHORE_FEATURES>
5
1 1 acceptor
1 2 acceptor
1 3 acceptor
5 4 5 6 8 10 rings
6 4 5 7 9 11 12 rings

> <PUBCHEM_HEAVY_ATOM_COUNT>
14

> <PUBCHEM_ATOM_DEF_STEREO_COUNT>
0

> <PUBCHEM_ATOM_UDEF_STEREO_COUNT>
0

> <PUBCHEM_BOND_DEF_STEREO_COUNT>
0

> <PUBCHEM_BOND_UDEF_STEREO_COUNT>
0

> <PUBCHEM_ISOTOPIC_ATOM_COUNT>
0

> <PUBCHEM_COMPONENT_COUNT>
1

> <PUBCHEM_CACTVS_TAUTO_COUNT>
1

> <PUBCHEM_CONFORMER_ID>
009639FB00000002

> <PUBCHEM_MMFF94_ENERGY>
50.9057

> <PUBCHEM_FEATURE_SELFOVERLAP>
25.457

> <PUBCHEM_SHAPE_FINGERPRINT>
1 1 17979637063281764239
10608611 8 18335422327192254928
10967382 1 18194683889200488676
11206711 2 18337110042753540812
12500047 106 18409454704011076088
13140716 1 18050841118410942515
13380535 21 18337944679611538342
13380535 76 18336831986586719207
13380536 305 17977097186878798839
14325111 11 18410856594068340064
14614273 12 18201731647176146911
14897335 6 18410578430469145213
15219456 202 18261384585674275662
15775835 57 18340766039212189040
16945 1 18338798914157388007
1741750 31 18334293205653635160
18186145 218 18118682364413516701
193761 8 18410574028280978855
20510252 161 18190459355426688568
20645477 56 18410570699665441736
20871998 184 18188485753340029303
21501502 16 18411427240582121770
21524375 3 18264214775780154901
2334 1 18338517542454876391
23402539 116 18335430015410432031
23402655 69 18190192363465250645
23463225 33 18343025484684618802
23559900 14 18260546754283658548
25 1 18263928915425732637
2748010 2 18267574887593762015
3071541 12 17615967046775048125
528886 8 18410299150331499200
53812653 166 18334860540937607152
6333449 129 18410294705056184989
7364860 26 18191587673532318574

> <PUBCHEM_SHAPE_MULTIPOLES>
270.51
5.77
2.38
0.6
3.63
0.69
0
-3.05
0
-1.85
0
0.01
0
0

> <PUBCHEM_SHAPE_SELFOVERLAP>
591.121

> <PUBCHEM_SHAPE_VOLUME>
149.5

> <PUBCHEM_COORDINATE_TYPE>
2
5
10

$$$$

