195205
  -OEChem-07051213033D

 43 46  0     0  0  0  0  0  0999 V2000
   -1.0642   -2.3384    0.0137 O   0  0  0  0  0  0  0  0  0  0  0  0
    1.4154   -2.4667    0.0088 O   0  0  0  0  0  0  0  0  0  0  0  0
    1.8761    2.8558   -0.0014 O   0  0  0  0  0  0  0  0  0  0  0  0
   -5.5208    2.2374    0.0231 O   0  0  0  0  0  0  0  0  0  0  0  0
    3.9470   -2.7793    0.0043 O   0  0  0  0  0  0  0  0  0  0  0  0
    6.6149    1.1337   -0.0125 O   0  0  0  0  0  0  0  0  0  0  0  0
   -6.3532   -0.7553   -1.2277 O   0  0  0  0  0  0  0  0  0  0  0  0
   -6.5235   -0.8332    1.0376 O   0  0  0  0  0  0  0  0  0  0  0  0
    0.3088   -0.3863    0.0071 C   0  0  0  0  0  0  0  0  0  0  0  0
   -2.1207   -0.1801    0.0145 C   0  0  0  0  0  0  0  0  0  0  0  0
    0.4324    1.0018    0.0046 C   0  0  0  0  0  0  0  0  0  0  0  0
   -1.9952    1.2282    0.0120 C   0  0  0  0  0  0  0  0  0  0  0  0
   -0.9622   -0.9748    0.0119 C   0  0  0  0  0  0  0  0  0  0  0  0
   -0.7146    1.8057    0.0069 C   0  0  0  0  0  0  0  0  0  0  0  0
   -3.4024   -0.7550    0.0200 C   0  0  0  0  0  0  0  0  0  0  0  0
    2.8452   -0.6134    0.0004 C   0  0  0  0  0  0  0  0  0  0  0  0
    2.9690    0.7772   -0.0028 C   0  0  0  0  0  0  0  0  0  0  0  0
    1.5106   -1.2462    0.0053 C   0  0  0  0  0  0  0  0  0  0  0  0
    1.7672    1.6359   -0.0004 C   0  0  0  0  0  0  0  0  0  0  0  0
   -3.1551    2.0206    0.0149 C   0  0  0  0  0  0  0  0  0  0  0  0
   -4.5437    0.0471    0.0229 C   0  0  0  0  0  0  0  0  0  0  0  0
   -4.4203    1.4329    0.0203 C   0  0  0  0  0  0  0  0  0  0  0  0
    3.9920   -1.4166   -0.0003 C   0  0  0  0  0  0  0  0  0  0  0  0
    4.2395    1.3652   -0.0076 C   0  0  0  0  0  0  0  0  0  0  0  0
   -3.6374   -2.2386    0.0229 C   0  0  0  0  0  0  0  0  0  0  0  0
    5.3798    0.5613   -0.0087 C   0  0  0  0  0  0  0  0  0  0  0  0
    5.2562   -0.8266   -0.0049 C   0  0  0  0  0  0  0  0  0  0  0  0
   -5.8785   -0.5461    0.0283 C   0  0  0  0  0  0  0  0  0  0  0  0
    7.7380    0.2539   -0.0133 C   0  0  0  0  0  0  0  0  0  0  0  0
   -0.6214    2.8903    0.0050 H   0  0  0  0  0  0  0  0  0  0  0  0
   -3.0752    3.1064    0.0131 H   0  0  0  0  0  0  0  0  0  0  0  0
    4.3563    2.4461   -0.0101 H   0  0  0  0  0  0  0  0  0  0  0  0
   -3.2121   -2.6926    0.9247 H   0  0  0  0  0  0  0  0  0  0  0  0
   -4.6858   -2.5469    0.0298 H   0  0  0  0  0  0  0  0  0  0  0  0
   -3.2219   -2.6947   -0.8823 H   0  0  0  0  0  0  0  0  0  0  0  0
    6.1137   -1.4915   -0.0050 H   0  0  0  0  0  0  0  0  0  0  0  0
   -0.2739   -2.7378    0.4084 H   0  0  0  0  0  0  0  0  0  0  0  0
   -6.3343    1.7080    0.0253 H   0  0  0  0  0  0  0  0  0  0  0  0
    4.8492   -3.1414    0.0031 H   0  0  0  0  0  0  0  0  0  0  0  0
   -7.2494   -1.1541   -1.2177 H   0  0  0  0  0  0  0  0  0  0  0  0
    7.7713   -0.3566   -0.9221 H   0  0  0  0  0  0  0  0  0  0  0  0
    7.7758   -0.3526    0.8981 H   0  0  0  0  0  0  0  0  0  0  0  0
    8.6371    0.8789   -0.0169 H   0  0  0  0  0  0  0  0  0  0  0  0
  1 13  1  0  0  0  0
  1 37  1  0  0  0  0
  2 18  2  0  0  0  0
  3 19  2  0  0  0  0
  4 22  1  0  0  0  0
  4 38  1  0  0  0  0
  5 23  1  0  0  0  0
  5 39  1  0  0  0  0
  6 26  1  0  0  0  0
  6 29  1  0  0  0  0
  7 28  1  0  0  0  0
  7 40  1  0  0  0  0
  8 28  2  0  0  0  0
  9 11  2  0  0  0  0
  9 13  1  0  0  0  0
  9 18  1  0  0  0  0
 10 12  1  0  0  0  0
 10 13  2  0  0  0  0
 10 15  1  0  0  0  0
 11 14  1  0  0  0  0
 11 19  1  0  0  0  0
 12 14  2  0  0  0  0
 12 20  1  0  0  0  0
 14 30  1  0  0  0  0
 15 21  2  0  0  0  0
 15 25  1  0  0  0  0
 16 17  2  0  0  0  0
 16 18  1  0  0  0  0
 16 23  1  0  0  0  0
 17 19  1  0  0  0  0
 17 24  1  0  0  0  0
 20 22  2  0  0  0  0
 20 31  1  0  0  0  0
 21 22  1  0  0  0  0
 21 28  1  0  0  0  0
 23 27  2  0  0  0  0
 24 26  2  0  0  0  0
 24 32  1  0  0  0  0
 25 33  1  0  0  0  0
 25 34  1  0  0  0  0
 25 35  1  0  0  0  0
 26 27  1  0  0  0  0
 27 36  1  0  0  0  0
 29 41  1  0  0  0  0
 29 42  1  0  0  0  0
 29 43  1  0  0  0  0
M  END
> <PUBCHEM_COMPOUND_CID>
195205

> <PUBCHEM_CONFORMER_RMSD>
0.6

> <PUBCHEM_CONFORMER_DIVERSEORDER>
1
2

> <PUBCHEM_MMFF94_PARTIAL_CHARGES>
35
1 -0.53
11 0.09
13 0.08
14 -0.15
15 -0.14
16 0.09
17 0.09
18 0.4
19 0.4
2 -0.57
20 -0.15
21 0.09
22 0.08
23 0.08
24 -0.15
25 0.14
26 0.08
27 -0.15
28 0.63
29 0.28
3 -0.57
30 0.15
31 0.15
32 0.15
36 0.15
37 0.45
38 0.45
39 0.45
4 -0.53
40 0.5
5 -0.53
6 -0.36
7 -0.65
8 -0.57
9 0.09

> <PUBCHEM_EFFECTIVE_ROTOR_COUNT>
2

> <PUBCHEM_PHARMACOPHORE_FEATURES>
13
1 1 donor
1 2 acceptor
1 3 acceptor
1 4 donor
1 5 donor
1 6 acceptor
1 7 acceptor
1 8 acceptor
3 7 8 28 anion
6 10 12 15 20 21 22 rings
6 16 17 23 24 26 27 rings
6 9 10 11 12 13 14 rings
6 9 11 16 17 18 19 rings

> <PUBCHEM_HEAVY_ATOM_COUNT>
29

> <PUBCHEM_ATOM_DEF_STEREO_COUNT>
0

> <PUBCHEM_ATOM_UDEF_STEREO_COUNT>
0

> <PUBCHEM_BOND_DEF_STEREO_COUNT>
0

> <PUBCHEM_BOND_UDEF_STEREO_COUNT>
0

> <PUBCHEM_ISOTOPIC_ATOM_COUNT>
0

> <PUBCHEM_COMPONENT_COUNT>
1

> <PUBCHEM_CACTVS_TAUTO_COUNT>
363

> <PUBCHEM_CONFORMER_ID>
0002FA8500000001

> <PUBCHEM_MMFF94_ENERGY>
120.7697

> <PUBCHEM_FEATURE_SELFOVERLAP>
66.092

> <PUBCHEM_SHAPE_FINGERPRINT>
10 15 18341057316327831512
10595046 47 18336548308270589211
10906281 52 18340469132844978928
11315181 36 18060416894179463821
11578080 2 16915119527732439087
11963148 33 18342464694694689690
12107183 9 17689152730789117480
12166972 35 18113899338287550048
12236239 1 17967813868360685040
12516196 113 18186522107525404976
12788726 201 17531242932471839080
12838862 33 18338253582803412600
13073987 5 18410854403587364673
13140716 1 18194398879465667681
13402501 40 18411699889358535816
14251764 18 18342177769756771120
14341114 176 18409443704404411827
14394314 77 18334570287238388521
14790565 3 18411132545886095076
14849402 71 18335697183371830856
15131766 46 16126106436319045156
15183329 4 18411422803843682955
15196674 1 18410855503088403753
1601671 61 18411139139024663880
17492 89 18122064471208606378
1813 80 17131829893379928580
18608769 82 18340202977600291283
18681886 176 18335146358041858160
19611394 137 17915726596596508771
200 152 18186523215584444353
20721686 56 18413385457959348626
21033648 29 17750249027960518306
21133410 171 17181996056644863742
21236236 1 18409166636771184521
21267235 1 18410848854494853825
21279426 13 18267021832944213173
21421861 104 17916598673391450402
23522609 53 18119779556522297192
23559900 14 18337678503187322321
24771293 8 18116166472126258584
3004659 81 18272087240897270542
3178227 256 18341038649719097819
335352 9 18410576150226496845
338550 245 18342453707987874588
34797466 226 17603298233508647436
34934 24 18410578401116595526
350125 39 18410011044263107945
3545911 37 18409729552016525968
3680242 22 18271247252151631746
4073 2 18059287674294699906
4093350 32 17168136884453274318
4214541 1 18410574002874938089
4325135 7 18409731750659921701
5104073 3 18410293661241820457
9709674 26 18410851058161626031

> <PUBCHEM_SHAPE_MULTIPOLES>
549.85
16.33
2.61
0.66
4.57
0.2
0.02
-0.21
0.11
-0.21
-0.01
-0.43
0.05
-0.02

> <PUBCHEM_SHAPE_SELFOVERLAP>
1257.397

> <PUBCHEM_SHAPE_VOLUME>
284.6

> <PUBCHEM_COORDINATE_TYPE>
2
5
10

$$$$

