441465
  -OEChem-07051212553D

 39 40  0     1  0  0  0  0  0999 V2000
    1.8953    0.7448   -0.6063 O   0  0  0  0  0  0  0  0  0  0  0  0
    0.3808   -1.0000   -0.9318 O   0  0  0  0  0  0  0  0  0  0  0  0
    4.9822   -1.8840    0.0474 O   0  0  0  0  0  0  0  0  0  0  0  0
    5.2505    0.8782    0.8560 O   0  0  0  0  0  0  0  0  0  0  0  0
    2.1881   -2.7748    0.3299 O   0  0  0  0  0  0  0  0  0  0  0  0
    2.0657    3.4577   -0.1975 O   0  0  0  0  0  0  0  0  0  0  0  0
   -5.2585   -0.4967    1.7805 O   0  0  0  0  0  0  0  0  0  0  0  0
   -6.5066    0.6188   -1.1753 N   0  0  0  0  0  0  0  0  0  0  0  0
    3.8802   -1.0571    0.4245 C   0  0  1  0  0  0  0  0  0  0  0  0
    4.2081    0.3806    0.0211 C   0  0  1  0  0  0  0  0  0  0  0  0
    2.6117   -1.5513   -0.2708 C   0  0  2  0  0  0  0  0  0  0  0  0
    2.9763    1.2782    0.1604 C   0  0  1  0  0  0  0  0  0  0  0  0
    1.4757   -0.5364   -0.1424 C   0  0  1  0  0  0  0  0  0  0  0  0
    3.2468    2.6911   -0.3469 C   0  0  0  0  0  0  0  0  0  0  0  0
   -0.8716   -0.6486   -0.5082 C   0  0  0  0  0  0  0  0  0  0  0  0
   -1.0571    0.5460    0.1809 C   0  0  0  0  0  0  0  0  0  0  0  0
   -1.9503   -1.4877   -0.7698 C   0  0  0  0  0  0  0  0  0  0  0  0
   -3.4188    0.0676    0.3535 C   0  0  0  0  0  0  0  0  0  0  0  0
   -2.3340    0.9048    0.6129 C   0  0  0  0  0  0  0  0  0  0  0  0
   -3.2272   -1.1287   -0.3378 C   0  0  0  0  0  0  0  0  0  0  0  0
   -4.7838    0.4514    0.8150 C   0  0  1  0  0  0  0  0  0  0  0  0
   -5.7534    0.5460   -0.2955 C   0  0  0  0  0  0  0  0  0  0  0  0
    3.7836   -1.1477    1.5135 H   0  0  0  0  0  0  0  0  0  0  0  0
    4.5800    0.3938   -1.0108 H   0  0  0  0  0  0  0  0  0  0  0  0
    2.8173   -1.7702   -1.3253 H   0  0  0  0  0  0  0  0  0  0  0  0
    2.6572    1.3504    1.2093 H   0  0  0  0  0  0  0  0  0  0  0  0
    1.1853   -0.4809    0.9177 H   0  0  0  0  0  0  0  0  0  0  0  0
    3.5132    2.6916   -1.4091 H   0  0  0  0  0  0  0  0  0  0  0  0
    4.0471    3.1778    0.2176 H   0  0  0  0  0  0  0  0  0  0  0  0
    5.7732   -1.5364    0.4941 H   0  0  0  0  0  0  0  0  0  0  0  0
    4.9270    0.8773    1.7731 H   0  0  0  0  0  0  0  0  0  0  0  0
    2.0051   -2.6030    1.2693 H   0  0  0  0  0  0  0  0  0  0  0  0
    1.3621    3.0157   -0.7028 H   0  0  0  0  0  0  0  0  0  0  0  0
   -0.2560    1.2449    0.3918 H   0  0  0  0  0  0  0  0  0  0  0  0
   -1.8051   -2.4206   -1.3073 H   0  0  0  0  0  0  0  0  0  0  0  0
   -2.4682    1.8422    1.1464 H   0  0  0  0  0  0  0  0  0  0  0  0
   -4.0582   -1.7965   -0.5490 H   0  0  0  0  0  0  0  0  0  0  0  0
   -4.7553    1.4185    1.3298 H   0  0  0  0  0  0  0  0  0  0  0  0
   -5.3446   -1.3637    1.3485 H   0  0  0  0  0  0  0  0  0  0  0  0
  1 12  1  0  0  0  0
  1 13  1  0  0  0  0
  2 13  1  0  0  0  0
  2 15  1  0  0  0  0
  3  9  1  0  0  0  0
  3 30  1  0  0  0  0
  4 10  1  0  0  0  0
  4 31  1  0  0  0  0
  5 11  1  0  0  0  0
  5 32  1  0  0  0  0
  6 14  1  0  0  0  0
  6 33  1  0  0  0  0
  7 21  1  0  0  0  0
  7 39  1  0  0  0  0
  8 22  3  0  0  0  0
  9 10  1  0  0  0  0
  9 11  1  0  0  0  0
  9 23  1  0  0  0  0
 10 12  1  0  0  0  0
 10 24  1  0  0  0  0
 11 13  1  0  0  0  0
 11 25  1  0  0  0  0
 12 14  1  0  0  0  0
 12 26  1  0  0  0  0
 13 27  1  0  0  0  0
 14 28  1  0  0  0  0
 14 29  1  0  0  0  0
 15 16  2  0  0  0  0
 15 17  1  0  0  0  0
 16 19  1  0  0  0  0
 16 34  1  0  0  0  0
 17 20  2  0  0  0  0
 17 35  1  0  0  0  0
 18 19  2  0  0  0  0
 18 20  1  0  0  0  0
 18 21  1  0  0  0  0
 19 36  1  0  0  0  0
 20 37  1  0  0  0  0
 21 22  1  0  0  0  0
 21 38  1  0  0  0  0
M  END
> <PUBCHEM_COMPOUND_CID>
441465

> <PUBCHEM_CONFORMER_RMSD>
0.8

> <PUBCHEM_CONFORMER_DIVERSEORDER>
2
127
37
57
90
94
128
67
101
104
56
131
103
136
119
28
58
68
92
117
110
64
71
27
26
139
97
143
140
23
106
59
38
116
96
5
141
108
30
72
100
41
93
25
21
111
113
125
22
6
129
81
89
83
51
62
42
17
39
134
35
82
133
130
107
74
53
70
66
3
63
33
87
52
137
61
11
126
65
29
80
121
20
78
138
48
120
1
36
122
76
34
88
105
13
132
91
69
7
98
95
40
45
75
73
86
50
12
85
49
46
14
15
8
47
112
16
142
24
102
31
19
77
114
10
123
135
118
18
4
44
115
124
32
9
43
84
99
109
79
54
55
60

> <PUBCHEM_MMFF94_PARTIAL_CHARGES>
31
1 -0.56
10 0.28
11 0.28
12 0.28
13 0.56
14 0.28
15 0.08
16 -0.15
17 -0.15
18 -0.14
19 -0.15
2 -0.36
20 -0.15
21 0.62
22 0.36
3 -0.68
30 0.4
31 0.4
32 0.4
33 0.4
34 0.15
35 0.15
36 0.15
37 0.15
39 0.4
4 -0.68
5 -0.68
6 -0.68
7 -0.68
8 -0.56
9 0.28

> <PUBCHEM_EFFECTIVE_ROTOR_COUNT>
5.2

> <PUBCHEM_PHARMACOPHORE_FEATURES>
15
1 1 acceptor
1 2 acceptor
1 3 acceptor
1 3 donor
1 4 acceptor
1 4 donor
1 5 acceptor
1 5 donor
1 6 acceptor
1 6 donor
1 7 acceptor
1 7 donor
1 8 acceptor
6 1 9 10 11 12 13 rings
6 15 16 17 18 19 20 rings

> <PUBCHEM_HEAVY_ATOM_COUNT>
22

> <PUBCHEM_ATOM_DEF_STEREO_COUNT>
5

> <PUBCHEM_ATOM_UDEF_STEREO_COUNT>
1

> <PUBCHEM_BOND_DEF_STEREO_COUNT>
0

> <PUBCHEM_BOND_UDEF_STEREO_COUNT>
0

> <PUBCHEM_ISOTOPIC_ATOM_COUNT>
0

> <PUBCHEM_COMPONENT_COUNT>
1

> <PUBCHEM_CACTVS_TAUTO_COUNT>
1

> <PUBCHEM_CONFORMER_ID>
0006BC7900000002

> <PUBCHEM_MMFF94_ENERGY>
65.2859

> <PUBCHEM_FEATURE_SELFOVERLAP>
76.176

> <PUBCHEM_SHAPE_FINGERPRINT>
10366900 7 17917135200020023650
10688039 33 18060138781877810044
11045977 3 18059849558837632419
11089746 13 17531251638338593585
11545043 162 17417802942627898785
11724838 91 18187649063730217823
12107183 9 17614557472778803099
12166972 35 18040715904561641416
12236239 1 17967537887048183247
12251169 10 18335982046913492846
12616971 3 18186793687097509801
12633257 1 18131081389757411306
13533116 47 18041563645233126558
13583140 156 18273493494699557051
13675066 3 17989481914519547551
13878862 14 18269859574009482933
13911852 28 18051695748168474050
14341114 176 18409161125895477874
15348495 7 18059566954616553113
15527383 91 18273215313640788350
17844677 252 18411693314460165273
19050596 39 18408602530785764834
20157964 124 18410296926071040575
20511986 3 18042143036690096199
20715895 44 18118400877063951457
21033648 29 17775018881376748821
21033650 10 15575529436883226729
21267235 1 18335694001169764038
22950370 63 11095876073855424381
23402539 116 17895481427166399509
23503953 91 18337117778153346354
23559900 14 18411419509698933547
23622692 88 18333732437891779478
26918003 58 18059853978474920411
300161 21 18333739000237758519
335352 9 18409167723345234862
34797466 226 14273742815904636729
351380 180 18412826897778644329
3545911 37 18334293171457296966
474 4 18411418367437858960
5104073 3 18335137549101007131
8272917 22 18410289207904215158
9981440 41 17689162206083630184

> <PUBCHEM_SHAPE_MULTIPOLES>
406.68
13.17
2.46
0.96
11.13
1.03
-0.14
1.66
-1.33
-3.65
0.23
1.02
-0.03
-0.21

> <PUBCHEM_SHAPE_SELFOVERLAP>
851.198

> <PUBCHEM_SHAPE_VOLUME>
225.6

> <PUBCHEM_COORDINATE_TYPE>
2
5
10

$$$$

