5281725
  -OEChem-07051212593D

 42 43  0     0  0  0  0  0  0999 V2000
   -2.6477   -1.9117    0.7919 O   0  0  0  0  0  0  0  0  0  0  0  0
   -2.8784    2.8635    0.4220 O   0  0  0  0  0  0  0  0  0  0  0  0
    7.8027   -0.1812   -0.5992 O   0  0  0  0  0  0  0  0  0  0  0  0
   -2.7822    0.4752    0.6096 C   0  0  0  0  0  0  0  0  0  0  0  0
   -4.2724    0.4208    0.8364 C   0  0  0  0  0  0  0  0  0  0  0  0
   -2.0482   -0.7031    0.6000 C   0  0  0  0  0  0  0  0  0  0  0  0
   -2.1645    1.7029    0.4136 C   0  0  0  0  0  0  0  0  0  0  0  0
   -0.0391    0.5754    0.1922 C   0  0  0  0  0  0  0  0  0  0  0  0
   -0.6701   -0.6527    0.3902 C   0  0  0  0  0  0  0  0  0  0  0  0
   -0.7863    1.7532    0.2040 C   0  0  0  0  0  0  0  0  0  0  0  0
   -5.0416    0.2840   -0.4473 C   0  0  0  0  0  0  0  0  0  0  0  0
   -5.8888   -0.7004   -0.8035 C   0  0  0  0  0  0  0  0  0  0  0  0
    1.3978    0.6279   -0.0263 C   0  0  0  0  0  0  0  0  0  0  0  0
    2.2744   -0.3479    0.3098 C   0  0  0  0  0  0  0  0  0  0  0  0
    3.7279   -0.3035    0.0711 C   0  0  0  0  0  0  0  0  0  0  0  0
   -6.6295   -0.7778   -2.1083 C   0  0  0  0  0  0  0  0  0  0  0  0
   -6.1534   -1.8521    0.1296 C   0  0  0  0  0  0  0  0  0  0  0  0
    4.2325    0.5653   -0.8826 C   0  0  0  0  0  0  0  0  0  0  0  0
    4.5611   -1.1322    0.8049 C   0  0  0  0  0  0  0  0  0  0  0  0
    5.6084    0.6065   -1.1087 C   0  0  0  0  0  0  0  0  0  0  0  0
    5.9368   -1.0908    0.5787 C   0  0  0  0  0  0  0  0  0  0  0  0
    6.4606   -0.2214   -0.3781 C   0  0  0  0  0  0  0  0  0  0  0  0
   -4.5057   -0.3263    1.5980 H   0  0  0  0  0  0  0  0  0  0  0  0
   -4.6026    1.3545    1.3124 H   0  0  0  0  0  0  0  0  0  0  0  0
   -0.1285   -1.5943    0.3665 H   0  0  0  0  0  0  0  0  0  0  0  0
   -0.2985    2.7138    0.0516 H   0  0  0  0  0  0  0  0  0  0  0  0
   -4.8958    1.0953   -1.1602 H   0  0  0  0  0  0  0  0  0  0  0  0
    1.7484    1.5500   -0.4818 H   0  0  0  0  0  0  0  0  0  0  0  0
    1.9354   -1.2494    0.8130 H   0  0  0  0  0  0  0  0  0  0  0  0
   -6.3836    0.0661   -2.7612 H   0  0  0  0  0  0  0  0  0  0  0  0
   -6.3696   -1.6987   -2.6401 H   0  0  0  0  0  0  0  0  0  0  0  0
   -7.7106   -0.7641   -1.9367 H   0  0  0  0  0  0  0  0  0  0  0  0
   -5.9006   -1.6730    1.1747 H   0  0  0  0  0  0  0  0  0  0  0  0
   -7.2239   -2.0897    0.1255 H   0  0  0  0  0  0  0  0  0  0  0  0
   -5.6153   -2.7422   -0.2124 H   0  0  0  0  0  0  0  0  0  0  0  0
   -3.6023   -1.8512    0.6468 H   0  0  0  0  0  0  0  0  0  0  0  0
   -2.2744    3.6101    0.2678 H   0  0  0  0  0  0  0  0  0  0  0  0
    3.6060    1.2104   -1.4901 H   0  0  0  0  0  0  0  0  0  0  0  0
    4.1690   -1.8141    1.5549 H   0  0  0  0  0  0  0  0  0  0  0  0
    6.0040    1.2844   -1.8606 H   0  0  0  0  0  0  0  0  0  0  0  0
    6.5958   -1.7380    1.1512 H   0  0  0  0  0  0  0  0  0  0  0  0
    7.9884    0.4749   -1.2929 H   0  0  0  0  0  0  0  0  0  0  0  0
  1  6  1  0  0  0  0
  1 36  1  0  0  0  0
  2  7  1  0  0  0  0
  2 37  1  0  0  0  0
  3 22  1  0  0  0  0
  3 42  1  0  0  0  0
  4  5  1  0  0  0  0
  4  6  2  0  0  0  0
  4  7  1  0  0  0  0
  5 11  1  0  0  0  0
  5 23  1  0  0  0  0
  5 24  1  0  0  0  0
  6  9  1  0  0  0  0
  7 10  2  0  0  0  0
  8  9  2  0  0  0  0
  8 10  1  0  0  0  0
  8 13  1  0  0  0  0
  9 25  1  0  0  0  0
 10 26  1  0  0  0  0
 11 12  2  0  0  0  0
 11 27  1  0  0  0  0
 12 16  1  0  0  0  0
 12 17  1  0  0  0  0
 13 14  2  0  0  0  0
 13 28  1  0  0  0  0
 14 15  1  0  0  0  0
 14 29  1  0  0  0  0
 15 18  2  0  0  0  0
 15 19  1  0  0  0  0
 16 30  1  0  0  0  0
 16 31  1  0  0  0  0
 16 32  1  0  0  0  0
 17 33  1  0  0  0  0
 17 34  1  0  0  0  0
 17 35  1  0  0  0  0
 18 20  1  0  0  0  0
 18 38  1  0  0  0  0
 19 21  2  0  0  0  0
 19 39  1  0  0  0  0
 20 22  2  0  0  0  0
 20 40  1  0  0  0  0
 21 22  1  0  0  0  0
 21 41  1  0  0  0  0
M  END
> <PUBCHEM_COMPOUND_CID>
5281725

> <PUBCHEM_CONFORMER_RMSD>
0.6

> <PUBCHEM_CONFORMER_DIVERSEORDER>
7
10
19
8
16
1
20
4
13
11
17
14
6
15
12
5
9
3
18
2

> <PUBCHEM_MMFF94_PARTIAL_CHARGES>
34
1 -0.53
10 -0.15
11 -0.29
12 -0.28
13 -0.18
14 -0.18
15 0.03
16 0.14
17 0.14
18 -0.15
19 -0.15
2 -0.53
20 -0.15
21 -0.15
22 0.08
25 0.15
26 0.15
27 0.15
28 0.15
29 0.15
3 -0.53
36 0.45
37 0.45
38 0.15
39 0.15
4 -0.14
40 0.15
41 0.15
42 0.45
5 0.28
6 0.08
7 0.08
8 0.03
9 -0.15

> <PUBCHEM_EFFECTIVE_ROTOR_COUNT>
4

> <PUBCHEM_PHARMACOPHORE_FEATURES>
6
1 1 donor
1 2 donor
1 3 donor
3 12 16 17 hydrophobe
6 15 18 19 20 21 22 rings
6 4 6 7 8 9 10 rings

> <PUBCHEM_HEAVY_ATOM_COUNT>
22

> <PUBCHEM_ATOM_DEF_STEREO_COUNT>
0

> <PUBCHEM_ATOM_UDEF_STEREO_COUNT>
0

> <PUBCHEM_BOND_DEF_STEREO_COUNT>
1

> <PUBCHEM_BOND_UDEF_STEREO_COUNT>
0

> <PUBCHEM_ISOTOPIC_ATOM_COUNT>
0

> <PUBCHEM_COMPONENT_COUNT>
1

> <PUBCHEM_CACTVS_TAUTO_COUNT>
20

> <PUBCHEM_CONFORMER_ID>
005097BD00000007

> <PUBCHEM_MMFF94_ENERGY>
61.4441

> <PUBCHEM_FEATURE_SELFOVERLAP>
30.446

> <PUBCHEM_SHAPE_FINGERPRINT>
10366900 7 18334011692106556754
10595046 47 18342734135641482688
10968037 39 18343298162988045635
11315181 36 17988915665741261536
11524674 6 15647055958420810991
11963148 33 18260836985534168103
12107183 9 17480585284238771960
12166972 35 18060416881036314085
12236239 1 17988922292917750512
12516196 113 18040716970119647672
13288520 33 18260830393565222657
13533116 47 18272656792046946154
13540713 5 18054237802208665873
13685833 64 15864068776229591302
13782708 43 17603588534147376494
13862211 1 18334298647920524363
13914758 101 16200160918949649580
1420 363 15213017146122865606
14251752 14 17703800218857931831
14508225 48 18342464737960581373
14729087 3 13183024011931821726
15048467 5 12535352311582962679
15183329 4 17632304488193944735
1577012 14 18272086158275517752
17093844 174 11815889042305526541
17857418 61 18342457058426258186
17980427 23 18272075141563435509
18927931 339 18260263045623332087
19427546 20 18340206397112027725
19489759 90 18260827128593642304
2026 5 17606385795905634982
20281389 69 9079113354233128295
21033648 29 13757787058975213556
21065198 48 18201155568172274944
21150785 3 17346600751303582115
21236236 1 18337107960264536521
21267235 1 18410289173866321171
21424621 283 13470139544171421813
21792961 116 18131917062130041987
23081809 10 18340764931353200568
23198884 109 16056886840537487999
23402539 116 18409450306502531181
23522609 53 18044625720571226328
23559900 14 18268431239442860065
2838139 119 15267065839726578287
29717793 49 18343016718698637366
300161 21 17561363963926610026
3004659 81 18060703871014263242
3009799 131 16988848280354480701
335352 9 18410578393043534885
34797466 226 17749101176623914396
3633792 109 17560810986412678003
397830 11 15719975526472514115
4214541 1 18343014532513038136
504579 68 18130212793094352590
54039377 194 18188774930206309207
5969126 39 18333737931445497509
636775 72 12607399979714827670

> <PUBCHEM_SHAPE_MULTIPOLES>
435.14
19.54
1.76
1.13
12.2
0.64
-0.44
-7.07
-6.94
-2.09
0.35
-0.99
-0.17
-1.24

> <PUBCHEM_SHAPE_SELFOVERLAP>
925.008

> <PUBCHEM_SHAPE_VOLUME>
244.1

> <PUBCHEM_COORDINATE_TYPE>
2
5
10

$$$$

