53297444
  -OEChem-07051213153D

 39 41  0     1  0  0  0  0  0999 V2000
    0.1855    1.4445   -0.5541 O   0  0  0  0  0  0  0  0  0  0  0  0
    1.4451   -3.1654    0.4045 O   0  0  0  0  0  0  0  0  0  0  0  0
    4.5577    2.1439   -0.2562 O   0  0  0  0  0  0  0  0  0  0  0  0
   -3.1025   -2.0289   -0.2402 O   0  0  0  0  0  0  0  0  0  0  0  0
   -3.3006    0.5152    1.6261 O   0  0  0  0  0  0  0  0  0  0  0  0
    1.7573    3.1123   -0.7041 O   0  0  0  0  0  0  0  0  0  0  0  0
   -4.8666    0.2277   -1.1292 O   0  0  0  0  0  0  0  0  0  0  0  0
   -1.6753    2.6293    2.1130 O   0  0  0  0  0  0  0  0  0  0  0  0
    2.2665   -0.3667   -0.0237 C   0  0  0  0  0  0  0  0  0  0  0  0
    3.4678   -1.2120    0.2455 C   0  0  0  0  0  0  0  0  0  0  0  0
    0.8957   -0.8507   -0.0686 C   0  0  0  0  0  0  0  0  0  0  0  0
    2.5142    0.9268   -0.2341 C   0  0  0  0  0  0  0  0  0  0  0  0
   -0.1165    0.0772   -0.3348 C   0  0  0  0  0  0  0  0  0  0  0  0
    4.6385   -0.2325    0.1822 C   0  0  0  0  0  0  0  0  0  0  0  0
   -1.4591   -0.2928   -0.3971 C   0  0  0  0  0  0  0  0  0  0  0  0
   -2.5178    0.7210   -0.6831 C   0  0  2  0  0  0  0  0  0  0  0  0
    3.9718    1.0806   -0.1205 C   0  0  0  0  0  0  0  0  0  0  0  0
    0.5362   -2.1851    0.1390 C   0  0  0  0  0  0  0  0  0  0  0  0
   -1.8018   -1.6259   -0.1878 C   0  0  0  0  0  0  0  0  0  0  0  0
    1.4914    1.9323   -0.5159 C   0  0  0  0  0  0  0  0  0  0  0  0
   -3.1088    1.4304    0.5647 C   0  0  2  0  0  0  0  0  0  0  0  0
   -0.8076   -2.5692    0.0793 C   0  0  0  0  0  0  0  0  0  0  0  0
   -3.7000    0.2065   -1.5097 C   0  0  0  0  0  0  0  0  0  0  0  0
   -2.2084    2.5659    1.0099 C   0  0  0  0  0  0  0  0  0  0  0  0
    0.9373   -4.4843    0.5951 C   0  0  0  0  0  0  0  0  0  0  0  0
    3.5937   -1.9945   -0.5104 H   0  0  0  0  0  0  0  0  0  0  0  0
    3.4244   -1.6791    1.2353 H   0  0  0  0  0  0  0  0  0  0  0  0
    5.1642   -0.1741    1.1395 H   0  0  0  0  0  0  0  0  0  0  0  0
    5.3356   -0.4926   -0.6193 H   0  0  0  0  0  0  0  0  0  0  0  0
   -2.1016    1.4906   -1.3495 H   0  0  0  0  0  0  0  0  0  0  0  0
   -4.0727    1.9049    0.3452 H   0  0  0  0  0  0  0  0  0  0  0  0
   -1.1556   -3.5850    0.2302 H   0  0  0  0  0  0  0  0  0  0  0  0
   -3.4413   -0.1839   -2.5102 H   0  0  0  0  0  0  0  0  0  0  0  0
   -2.0635    3.3726    0.2704 H   0  0  0  0  0  0  0  0  0  0  0  0
   -3.1515   -2.9853   -0.0716 H   0  0  0  0  0  0  0  0  0  0  0  0
   -3.7594    0.9867    2.3422 H   0  0  0  0  0  0  0  0  0  0  0  0
    0.2926   -4.5514    1.4784 H   0  0  0  0  0  0  0  0  0  0  0  0
    0.4651   -4.8766   -0.3125 H   0  0  0  0  0  0  0  0  0  0  0  0
    1.8005   -5.1286    0.7952 H   0  0  0  0  0  0  0  0  0  0  0  0
  1 13  1  0  0  0  0
  1 20  1  0  0  0  0
  2 18  1  0  0  0  0
  2 25  1  0  0  0  0
  3 17  2  0  0  0  0
  4 19  1  0  0  0  0
  4 35  1  0  0  0  0
  5 21  1  0  0  0  0
  5 36  1  0  0  0  0
  6 20  2  0  0  0  0
  7 23  2  0  0  0  0
  8 24  2  0  0  0  0
  9 10  1  0  0  0  0
  9 11  1  0  0  0  0
  9 12  2  0  0  0  0
 10 14  1  0  0  0  0
 10 26  1  0  0  0  0
 10 27  1  0  0  0  0
 11 13  1  0  0  0  0
 11 18  2  0  0  0  0
 12 17  1  0  0  0  0
 12 20  1  0  0  0  0
 13 15  2  0  0  0  0
 14 17  1  0  0  0  0
 14 28  1  0  0  0  0
 14 29  1  0  0  0  0
 15 16  1  0  0  0  0
 15 19  1  0  0  0  0
 16 21  1  0  0  0  0
 16 23  1  0  0  0  0
 16 30  1  0  0  0  0
 18 22  1  0  0  0  0
 19 22  2  0  0  0  0
 21 24  1  0  0  0  0
 21 31  1  0  0  0  0
 22 32  1  0  0  0  0
 23 33  1  0  0  0  0
 24 34  1  0  0  0  0
 25 37  1  0  0  0  0
 25 38  1  0  0  0  0
 25 39  1  0  0  0  0
M  END
> <PUBCHEM_COMPOUND_CID>
53297444

> <PUBCHEM_CONFORMER_RMSD>
0.8

> <PUBCHEM_CONFORMER_DIVERSEORDER>
1
8
14
7
10
15
13
3
9
11
12
2
4
6
5

> <PUBCHEM_MMFF94_PARTIAL_CHARGES>
30
1 -0.23
10 0.14
11 0.03
12 0.03
13 0.08
14 0.06
15 -0.14
16 0.2
17 0.49
18 0.08
19 0.08
2 -0.36
20 0.71
21 0.34
22 -0.15
23 0.45
24 0.45
25 0.28
3 -0.57
32 0.15
33 0.06
34 0.06
35 0.45
36 0.4
4 -0.53
5 -0.68
6 -0.57
7 -0.57
8 -0.57
9 -0.17

> <PUBCHEM_EFFECTIVE_ROTOR_COUNT>
5.4

> <PUBCHEM_PHARMACOPHORE_FEATURES>
12
1 12 anion
1 2 acceptor
1 3 acceptor
1 4 donor
1 5 acceptor
1 5 donor
1 6 acceptor
1 7 acceptor
1 8 acceptor
5 9 10 12 14 17 rings
6 1 9 11 12 13 20 rings
6 11 13 15 18 19 22 rings

> <PUBCHEM_HEAVY_ATOM_COUNT>
25

> <PUBCHEM_ATOM_DEF_STEREO_COUNT>
2

> <PUBCHEM_ATOM_UDEF_STEREO_COUNT>
0

> <PUBCHEM_BOND_DEF_STEREO_COUNT>
0

> <PUBCHEM_BOND_UDEF_STEREO_COUNT>
0

> <PUBCHEM_ISOTOPIC_ATOM_COUNT>
0

> <PUBCHEM_COMPONENT_COUNT>
1

> <PUBCHEM_CACTVS_TAUTO_COUNT>
375

> <PUBCHEM_CONFORMER_ID>
032D412400000001

> <PUBCHEM_MMFF94_ENERGY>
78.0235

> <PUBCHEM_FEATURE_SELFOVERLAP>
60.995

> <PUBCHEM_SHAPE_FINGERPRINT>
10369192 42 13755505503770423326
10411042 1 16900459340121569338
10967382 1 18341337798444201982
1100329 8 18338519616649793289
11578080 2 12103005518525815911
11640471 11 17679287822555546409
12236239 1 18113623404525097429
12553582 1 17619349152763588095
12788726 201 18046891706687217524
13009979 54 17609224794208254579
13140716 1 18338229358723548793
13583140 156 17346881152010922489
138480 1 17980771754792190902
14178342 30 18409172133917841066
14787075 74 18186803560853088897
14790565 3 18268411595053634932
15196674 1 18342182111784201662
15309172 13 18342454842006900916
15420108 30 17467349358298886176
16945 1 18340766043549140167
17349148 13 18335433369136116935
18219364 16 18273495688910770341
19591789 44 18340200925096306598
200 152 18334021562463531781
20510252 161 18264768766152261026
20739085 24 17763723786954539688
20775438 99 16241285630210148047
2334 1 18195808453377790207
23558518 356 18263626468181413071
23559900 14 18262525771770963008
238 59 17553813707098013039
2748010 2 18342452617425280110
3091708 16 9335678873573616954
335352 9 18342183263173008438
350125 39 18197774401880447447
352729 6 18338791204649121126
474 4 18411702114162157655
484989 97 17981334396035507415
5104073 3 18341899537548941448

> <PUBCHEM_SHAPE_MULTIPOLES>
467.53
7.53
4.03
1.11
1.09
2.84
-0.31
-3
0.79
1.32
-0.99
-1.22
-0.59
-1.28

> <PUBCHEM_SHAPE_SELFOVERLAP>
1029.998

> <PUBCHEM_SHAPE_VOLUME>
250.9

> <PUBCHEM_COORDINATE_TYPE>
2
5
10

$$$$

