439946
  -OEChem-07051212482D

 37 39  0     1  0  0  0  0  0999 V2000
    6.1346    0.8919    0.0000 O   0  0  0  0  0  0  0  0  0  0  0  0
    8.4806   -0.2000    0.0000 O   0  0  0  0  0  0  0  0  0  0  0  0
    8.4843    1.9756    0.0000 O   0  0  0  0  0  0  0  0  0  0  0  0
    7.0868    3.3934    0.0000 O   0  0  0  0  0  0  0  0  0  0  0  0
    6.4103   -0.8687    0.0000 N   0  0  0  0  0  0  0  0  0  0  0  0
    6.4103   -2.4782    0.0000 N   0  0  0  0  0  0  0  0  0  0  0  0
    4.5981   -0.6734    0.0000 N   0  0  0  0  0  0  0  0  0  0  0  0
    3.7320   -2.1734    0.0000 N   0  0  0  0  0  0  0  0  0  0  0  0
    4.5981   -3.6734    0.0000 N   0  0  0  0  0  0  0  0  0  0  0  0
    2.8660   -0.6734    0.0000 N   0  0  0  0  0  0  0  0  0  0  0  0
    7.6726    0.3892    0.0000 C   0  0  1  0  0  0  0  0  0  0  0  0
    6.7210    0.0818    0.0000 C   0  0  1  0  0  0  0  0  0  0  0  0
    7.6743    1.3892    0.0000 C   0  0  1  0  0  0  0  0  0  0  0  0
    6.7238    1.6999    0.0000 C   0  0  1  0  0  0  0  0  0  0  0  0
    6.4164    2.6514    0.0000 C   0  0  0  0  0  0  0  0  0  0  0  0
    5.4641   -1.1734    0.0000 C   0  0  0  0  0  0  0  0  0  0  0  0
    6.9939   -1.6734    0.0000 C   0  0  0  0  0  0  0  0  0  0  0  0
    5.4641   -2.1734    0.0000 C   0  0  0  0  0  0  0  0  0  0  0  0
    4.5981   -2.6734    0.0000 C   0  0  0  0  0  0  0  0  0  0  0  0
    3.7320   -1.1734    0.0000 C   0  0  0  0  0  0  0  0  0  0  0  0
    2.0000   -1.1734    0.0000 C   0  0  0  0  0  0  0  0  0  0  0  0
    8.2255    0.6697    0.0000 H   0  0  0  0  0  0  0  0  0  0  0  0
    6.1085   -0.0141    0.0000 H   0  0  0  0  0  0  0  0  0  0  0  0
    8.2262    1.1068    0.0000 H   0  0  0  0  0  0  0  0  0  0  0  0
    6.1116    1.7979    0.0000 H   0  0  0  0  0  0  0  0  0  0  0  0
    6.0356    3.1407    0.0000 H   0  0  0  0  0  0  0  0  0  0  0  0
    5.8685    2.3613    0.0000 H   0  0  0  0  0  0  0  0  0  0  0  0
    9.0474    0.0512    0.0000 H   0  0  0  0  0  0  0  0  0  0  0  0
    9.0503    1.7224    0.0000 H   0  0  0  0  0  0  0  0  0  0  0  0
    7.6139   -1.6734    0.0000 H   0  0  0  0  0  0  0  0  0  0  0  0
    6.8963    3.9834    0.0000 H   0  0  0  0  0  0  0  0  0  0  0  0
    4.0611   -3.9834    0.0000 H   0  0  0  0  0  0  0  0  0  0  0  0
    5.1350   -3.9834    0.0000 H   0  0  0  0  0  0  0  0  0  0  0  0
    2.8660   -0.0534    0.0000 H   0  0  0  0  0  0  0  0  0  0  0  0
    1.6900   -0.6365    0.0000 H   0  0  0  0  0  0  0  0  0  0  0  0
    1.4631   -1.4834    0.0000 H   0  0  0  0  0  0  0  0  0  0  0  0
    2.3100   -1.7104    0.0000 H   0  0  0  0  0  0  0  0  0  0  0  0
  1 12  1  0  0  0  0
  1 14  1  0  0  0  0
 11  2  1  1  0  0  0
  2 28  1  0  0  0  0
 13  3  1  1  0  0  0
  3 29  1  0  0  0  0
  4 15  1  0  0  0  0
  4 31  1  0  0  0  0
 12  5  1  6  0  0  0
  5 16  1  0  0  0  0
  5 17  1  0  0  0  0
  6 17  2  0  0  0  0
  6 18  1  0  0  0  0
  7 16  1  0  0  0  0
  7 20  2  0  0  0  0
  8 19  2  0  0  0  0
  8 20  1  0  0  0  0
  9 19  1  0  0  0  0
  9 32  1  0  0  0  0
  9 33  1  0  0  0  0
 10 20  1  0  0  0  0
 10 21  1  0  0  0  0
 10 34  1  0  0  0  0
 11 12  1  0  0  0  0
 11 13  1  0  0  0  0
 11 22  1  0  0  0  0
 12 23  1  0  0  0  0
 13 14  1  0  0  0  0
 13 24  1  0  0  0  0
 14 15  1  6  0  0  0
 14 25  1  0  0  0  0
 15 26  1  0  0  0  0
 15 27  1  0  0  0  0
 16 18  2  0  0  0  0
 17 30  1  0  0  0  0
 18 19  1  0  0  0  0
 21 35  1  0  0  0  0
 21 36  1  0  0  0  0
 21 37  1  0  0  0  0
M  END
> <PUBCHEM_COMPOUND_CID>
439946

> <PUBCHEM_COMPOUND_CANONICALIZED>
1

> <PUBCHEM_CACTVS_COMPLEXITY>
377

> <PUBCHEM_CACTVS_HBOND_ACCEPTOR>
9

> <PUBCHEM_CACTVS_HBOND_DONOR>
5

> <PUBCHEM_CACTVS_ROTATABLE_BOND>
3

> <PUBCHEM_CACTVS_SUBSKEYS>
AAADceBzuAAAAAAAAAAAAAAAAAAAAWJAAAAsAAAAAAAAAFgB+AAAHgAQCAAACBzhlwYH8L/MFgCgAQZhZACAgC0REKABUKAoVBCDWAJAyEAeRAgPAALTACDwMAIAAAAAAAAAAAAAAAAAAAAAAAAAAAAAAA==

> <PUBCHEM_IUPAC_OPENEYE_NAME>
(2R,3R,4S,5R)-2-[6-amino-2-(methylamino)purin-9-yl]-5-(hydroxymethyl)tetrahydrofuran-3,4-diol

> <PUBCHEM_IUPAC_CAS_NAME>
(2R,3R,4S,5R)-2-[6-amino-2-(methylamino)-9-purinyl]-5-(hydroxymethyl)oxolane-3,4-diol

> <PUBCHEM_IUPAC_NAME>
(2R,3R,4S,5R)-2-[6-amino-2-(methylamino)purin-9-yl]-5-(hydroxymethyl)oxolane-3,4-diol

> <PUBCHEM_IUPAC_SYSTEMATIC_NAME>
(2R,3R,4S,5R)-2-[6-azanyl-2-(methylamino)purin-9-yl]-5-(hydroxymethyl)oxolane-3,4-diol

> <PUBCHEM_IUPAC_TRADITIONAL_NAME>
(2R,3R,4S,5R)-2-[6-amino-2-(methylamino)purin-9-yl]-5-methylol-tetrahydrofuran-3,4-diol

> <PUBCHEM_IUPAC_INCHI>
InChI=1S/C11H16N6O4/c1-13-11-15-8(12)5-9(16-11)17(3-14-5)10-7(20)6(19)4(2-18)21-10/h3-4,6-7,10,18-20H,2H2,1H3,(H3,12,13,15,16)/t4-,6-,7-,10-/m1/s1

> <PUBCHEM_IUPAC_INCHIKEY>
UZWXAPMSNDKDNK-KQYNXXCUSA-N

> <PUBCHEM_XLOGP3>
-0.7

> <PUBCHEM_EXACT_MASS>
296.123303

> <PUBCHEM_MOLECULAR_FORMULA>
C11H16N6O4

> <PUBCHEM_MOLECULAR_WEIGHT>
296.28254

> <PUBCHEM_OPENEYE_CAN_SMILES>
CNC1=NC2=C(C(=N1)N)N=CN2C3C(C(C(O3)CO)O)O

> <PUBCHEM_OPENEYE_ISO_SMILES>
CNC1=NC2=C(C(=N1)N)N=CN2[C@H]3[C@@H]([C@@H]([C@H](O3)CO)O)O

> <PUBCHEM_CACTVS_TPSA>
152

> <PUBCHEM_MONOISOTOPIC_WEIGHT>
296.123303

> <PUBCHEM_TOTAL_CHARGE>
0

> <PUBCHEM_HEAVY_ATOM_COUNT>
21

> <PUBCHEM_ATOM_DEF_STEREO_COUNT>
4

> <PUBCHEM_ATOM_UDEF_STEREO_COUNT>
0

> <PUBCHEM_BOND_DEF_STEREO_COUNT>
0

> <PUBCHEM_BOND_UDEF_STEREO_COUNT>
0

> <PUBCHEM_ISOTOPIC_ATOM_COUNT>
0

> <PUBCHEM_COMPONENT_COUNT>
1

> <PUBCHEM_CACTVS_TAUTO_COUNT>
9

> <PUBCHEM_COORDINATE_TYPE>
1
5
255

> <PUBCHEM_BONDANNOTATIONS>
14  15  6
16  18  8
18  19  8
11  2  5
13  3  5
12  5  6
5  16  8
5  17  8
6  17  8
6  18  8
7  16  8
7  20  8
8  19  8
8  20  8

$$$$

