23724656
  -OEChem-07051213083D

 40 43  0     1  0  0  0  0  0999 V2000
    1.6028    1.6645   -0.2555 O   0  0  0  0  0  0  0  0  0  0  0  0
   -1.0577    2.6416   -0.1033 O   0  0  0  0  0  0  0  0  0  0  0  0
    1.1955   -1.3846    2.4594 O   0  0  0  0  0  0  0  0  0  0  0  0
   -3.4334   -2.3136    0.3930 O   0  0  0  0  0  0  0  0  0  0  0  0
   -4.5428   -0.3415   -1.2184 O   0  0  0  0  0  0  0  0  0  0  0  0
    5.1978   -0.5591   -2.3919 O   0  0  0  0  0  0  0  0  0  0  0  0
    0.2944    0.6730    1.5968 C   0  0  1  0  0  0  0  0  0  0  0  0
    0.9971    1.9050    1.0230 C   0  0  2  0  0  0  0  0  0  0  0  0
   -0.9867    0.3856    0.8475 C   0  0  0  0  0  0  0  0  0  0  0  0
   -0.0337    3.0107    0.8270 C   0  0  0  0  0  0  0  0  0  0  0  0
    1.2753   -0.4785    1.6362 C   0  0  0  0  0  0  0  0  0  0  0  0
   -1.5817    1.3853    0.0618 C   0  0  0  0  0  0  0  0  0  0  0  0
    2.3339   -0.4889    0.6086 C   0  0  0  0  0  0  0  0  0  0  0  0
    2.4278    0.5763   -0.2857 C   0  0  0  0  0  0  0  0  0  0  0  0
   -1.6417   -0.8507    0.9605 C   0  0  0  0  0  0  0  0  0  0  0  0
   -2.7654    1.1311   -0.6392 C   0  0  0  0  0  0  0  0  0  0  0  0
   -2.8294   -1.0983    0.2691 C   0  0  0  0  0  0  0  0  0  0  0  0
    3.2134   -1.5714    0.5109 C   0  0  0  0  0  0  0  0  0  0  0  0
   -3.3875   -0.1103   -0.5356 C   0  0  0  0  0  0  0  0  0  0  0  0
    3.3836    0.5452   -1.3029 C   0  0  0  0  0  0  0  0  0  0  0  0
    4.1788   -1.5889   -0.4961 C   0  0  0  0  0  0  0  0  0  0  0  0
    4.2612   -0.5343   -1.4045 C   0  0  0  0  0  0  0  0  0  0  0  0
   -3.0547   -3.3232   -0.5402 C   0  0  0  0  0  0  0  0  0  0  0  0
   -5.0467    0.7252   -2.0204 C   0  0  0  0  0  0  0  0  0  0  0  0
    0.0204    0.8994    2.6368 H   0  0  0  0  0  0  0  0  0  0  0  0
    1.7801    2.2570    1.7086 H   0  0  0  0  0  0  0  0  0  0  0  0
   -0.5026    3.2982    1.7758 H   0  0  0  0  0  0  0  0  0  0  0  0
    0.4519    3.9013    0.4131 H   0  0  0  0  0  0  0  0  0  0  0  0
   -1.2330   -1.6354    1.5916 H   0  0  0  0  0  0  0  0  0  0  0  0
   -3.1541    1.9463   -1.2409 H   0  0  0  0  0  0  0  0  0  0  0  0
    3.1564   -2.4102    1.1990 H   0  0  0  0  0  0  0  0  0  0  0  0
    3.4456    1.3693   -2.0099 H   0  0  0  0  0  0  0  0  0  0  0  0
    4.8597   -2.4324   -0.5723 H   0  0  0  0  0  0  0  0  0  0  0  0
   -3.6251   -4.2287   -0.3158 H   0  0  0  0  0  0  0  0  0  0  0  0
   -1.9876   -3.5497   -0.4479 H   0  0  0  0  0  0  0  0  0  0  0  0
   -3.2850   -3.0090   -1.5631 H   0  0  0  0  0  0  0  0  0  0  0  0
    5.1123    0.2479   -2.9280 H   0  0  0  0  0  0  0  0  0  0  0  0
   -5.9655    0.3648   -2.4950 H   0  0  0  0  0  0  0  0  0  0  0  0
   -4.3538    0.9858   -2.8278 H   0  0  0  0  0  0  0  0  0  0  0  0
   -5.3233    1.5923   -1.4110 H   0  0  0  0  0  0  0  0  0  0  0  0
  1  8  1  0  0  0  0
  1 14  1  0  0  0  0
  2 10  1  0  0  0  0
  2 12  1  0  0  0  0
  3 11  2  0  0  0  0
  4 17  1  0  0  0  0
  4 23  1  0  0  0  0
  5 19  1  0  0  0  0
  5 24  1  0  0  0  0
  6 22  1  0  0  0  0
  6 37  1  0  0  0  0
  7  8  1  0  0  0  0
  7  9  1  0  0  0  0
  7 11  1  0  0  0  0
  7 25  1  0  0  0  0
  8 10  1  0  0  0  0
  8 26  1  0  0  0  0
  9 12  1  0  0  0  0
  9 15  2  0  0  0  0
 10 27  1  0  0  0  0
 10 28  1  0  0  0  0
 11 13  1  0  0  0  0
 12 16  2  0  0  0  0
 13 14  2  0  0  0  0
 13 18  1  0  0  0  0
 14 20  1  0  0  0  0
 15 17  1  0  0  0  0
 15 29  1  0  0  0  0
 16 19  1  0  0  0  0
 16 30  1  0  0  0  0
 17 19  2  0  0  0  0
 18 21  2  0  0  0  0
 18 31  1  0  0  0  0
 20 22  2  0  0  0  0
 20 32  1  0  0  0  0
 21 22  1  0  0  0  0
 21 33  1  0  0  0  0
 23 34  1  0  0  0  0
 23 35  1  0  0  0  0
 23 36  1  0  0  0  0
 24 38  1  0  0  0  0
 24 39  1  0  0  0  0
 24 40  1  0  0  0  0
M  END
> <PUBCHEM_COMPOUND_CID>
23724656

> <PUBCHEM_CONFORMER_RMSD>
0.6

> <PUBCHEM_CONFORMER_DIVERSEORDER>
1
4
5
2
3

> <PUBCHEM_MMFF94_PARTIAL_CHARGES>
30
1 -0.36
10 0.28
11 0.42
12 0.08
13 0.09
14 0.08
15 -0.15
16 -0.15
17 0.08
18 -0.15
19 0.08
2 -0.36
20 -0.15
21 -0.15
22 0.08
23 0.28
24 0.28
29 0.15
3 -0.57
30 0.15
31 0.15
32 0.15
33 0.15
37 0.45
4 -0.36
5 -0.36
6 -0.53
7 0.2
8 0.28
9 -0.14

> <PUBCHEM_EFFECTIVE_ROTOR_COUNT>
2.6

> <PUBCHEM_PHARMACOPHORE_FEATURES>
10
1 1 acceptor
1 2 acceptor
1 3 acceptor
1 4 acceptor
1 5 acceptor
1 6 donor
6 1 7 8 11 13 14 rings
6 13 14 18 20 21 22 rings
6 2 7 8 9 10 12 rings
6 9 12 15 16 17 19 rings

> <PUBCHEM_HEAVY_ATOM_COUNT>
24

> <PUBCHEM_ATOM_DEF_STEREO_COUNT>
0

> <PUBCHEM_ATOM_UDEF_STEREO_COUNT>
2

> <PUBCHEM_BOND_DEF_STEREO_COUNT>
0

> <PUBCHEM_BOND_UDEF_STEREO_COUNT>
0

> <PUBCHEM_ISOTOPIC_ATOM_COUNT>
0

> <PUBCHEM_COMPONENT_COUNT>
1

> <PUBCHEM_CACTVS_TAUTO_COUNT>
9

> <PUBCHEM_CONFORMER_ID>
016A027000000001

> <PUBCHEM_MMFF94_ENERGY>
96.1761

> <PUBCHEM_FEATURE_SELFOVERLAP>
50.911

> <PUBCHEM_SHAPE_FINGERPRINT>
10498660 4 16702025270485584895
11578080 2 17628391395373869996
11725454 13 13758070753985701050
12035759 4 17916588781427334184
12363563 72 17894351094067570885
12553582 1 18335977640345476251
12596602 18 5256394002938719198
12670546 177 18202277022397699558
12788726 201 18192999437772286705
12892183 10 7565348608763095318
13103583 49 4822947806376427614
13544653 18 16877656881603970914
14251757 5 18338793524279594733
14790565 3 17977379770190129185
14950920 106 5689307955012476926
15210252 30 16845296050716869644
15475509 8 18114462379258073885
16752209 62 18267599081260760401
16945 1 18059856207288933072
1813 80 17168144550658777928
19862831 5 18131630101593565610
20645477 70 18042135258383244181
20775438 99 17684968745981640823
20871999 31 18410288155114910112
21069387 34 16877954797847339871
21307412 95 18113896078955875455
21401589 2 13038894491697597566
21634736 98 18342449323237832140
21756936 100 10951467286163390090
21864079 5 14907361752928910255
22182313 1 18196943175617015977
22393880 68 18272653407200967638
22620623 9 17823691069698239464
23379529 103 18115289121454596318
23557571 272 18114477741897019960
23559900 14 18410018706400491392
2838139 119 16056589912326339574
3286 77 15719400524745550597
3886686 26 5976459727547875485
4280585 95 18409738356952638450
46194498 28 18054509097827989717
463206 1 18187093887636629767
474 4 14476954597203583447
484985 159 15504607775827432342
5895379 119 15550832318353805108
633830 44 15626227943662159730
6786 2 15799630531352505872
9709674 26 18191886543326687325

> <PUBCHEM_SHAPE_MULTIPOLES>
458.69
8.92
2.79
1.85
0.08
0.11
0.15
4.32
7.06
-1.62
-0.36
0.88
0.2
0.51

> <PUBCHEM_SHAPE_SELFOVERLAP>
1023.586

> <PUBCHEM_SHAPE_VOLUME>
242.4

> <PUBCHEM_COORDINATE_TYPE>
2
5
10

$$$$

