582862
  -OEChem-06241222442D

 99102  0     1  0  0  0  0  0999 V2000
    2.8641   -3.6944    0.0000 Si  0  0  0  0  0  0  0  0  0  0  0  0
   14.2457    3.5800    0.0000 Si  0  0  0  0  0  0  0  0  0  0  0  0
    3.7282   -4.1978    0.0000 O   0  0  0  0  0  0  0  0  0  0  0  0
   13.2671    3.3738    0.0000 O   0  0  0  0  0  0  0  0  0  0  0  0
    9.1213   -1.1454    0.0000 C   0  0  3  0  0  0  0  0  0  0  0  0
    9.1213   -2.1454    0.0000 C   0  0  3  0  0  0  0  0  0  0  0  0
    8.2552   -2.6454    0.0000 C   0  0  3  0  0  0  0  0  0  0  0  0
    7.3892   -2.1454    0.0000 C   0  0  3  0  0  0  0  0  0  0  0  0
   10.0675   -0.8407    0.0000 C   0  0  3  0  0  0  0  0  0  0  0  0
    8.2552   -0.6454    0.0000 C   0  0  0  0  0  0  0  0  0  0  0  0
    6.4792   -2.6523    0.0000 C   0  0  3  0  0  0  0  0  0  0  0  0
   10.0675   -2.4502    0.0000 C   0  0  0  0  0  0  0  0  0  0  0  0
    7.3892   -1.1454    0.0000 C   0  0  0  0  0  0  0  0  0  0  0  0
   10.6511   -1.6454    0.0000 C   0  0  0  0  0  0  0  0  0  0  0  0
    8.2713   -3.6870    0.0000 C   0  0  0  0  0  0  0  0  0  0  0  0
   10.3781    0.1098    0.0000 C   0  0  3  0  0  0  0  0  0  0  0  0
    9.1213   -0.1454    0.0000 C   0  0  0  0  0  0  0  0  0  0  0  0
    6.4712   -3.6939    0.0000 C   0  0  0  0  0  0  0  0  0  0  0  0
    5.5524   -2.0882    0.0000 C   0  0  0  0  0  0  0  0  0  0  0  0
    7.3733   -4.2147    0.0000 C   0  0  0  0  0  0  0  0  0  0  0  0
    6.4869   -1.6523    0.0000 C   0  0  0  0  0  0  0  0  0  0  0  0
    5.5358   -4.2436    0.0000 C   0  0  0  0  0  0  0  0  0  0  0  0
    4.6045   -2.6162    0.0000 C   0  0  0  0  0  0  0  0  0  0  0  0
   11.3567    0.3160    0.0000 C   0  0  0  0  0  0  0  0  0  0  0  0
    4.5961   -3.7011    0.0000 C   0  0  3  0  0  0  0  0  0  0  0  0
    9.7103    0.8541    0.0000 C   0  0  0  0  0  0  0  0  0  0  0  0
   11.6673    1.2666    0.0000 C   0  0  0  0  0  0  0  0  0  0  0  0
   12.6458    1.4728    0.0000 C   0  0  0  0  0  0  0  0  0  0  0  0
   12.9565    2.4233    0.0000 C   0  0  0  0  0  0  0  0  0  0  0  0
    2.0000   -3.1911    0.0000 C   0  0  0  0  0  0  0  0  0  0  0  0
    2.3608   -4.5585    0.0000 C   0  0  0  0  0  0  0  0  0  0  0  0
    3.3674   -2.8304    0.0000 C   0  0  0  0  0  0  0  0  0  0  0  0
   13.9070    2.1126    0.0000 C   0  0  0  0  0  0  0  0  0  0  0  0
   12.0060    2.7340    0.0000 C   0  0  0  0  0  0  0  0  0  0  0  0
   15.2242    3.7862    0.0000 C   0  0  0  0  0  0  0  0  0  0  0  0
   14.0394    4.5585    0.0000 C   0  0  0  0  0  0  0  0  0  0  0  0
   14.4519    2.6015    0.0000 C   0  0  0  0  0  0  0  0  0  0  0  0
    9.1869   -2.7620    0.0000 H   0  0  0  0  0  0  0  0  0  0  0  0
    8.7945   -2.9513    0.0000 H   0  0  0  0  0  0  0  0  0  0  0  0
    7.9262   -1.8354    0.0000 H   0  0  0  0  0  0  0  0  0  0  0  0
   10.6800   -0.7445    0.0000 H   0  0  0  0  0  0  0  0  0  0  0  0
    8.6538   -0.1705    0.0000 H   0  0  0  0  0  0  0  0  0  0  0  0
    7.8567   -0.1705    0.0000 H   0  0  0  0  0  0  0  0  0  0  0  0
    9.8164   -3.0171    0.0000 H   0  0  0  0  0  0  0  0  0  0  0  0
   10.6049   -2.7594    0.0000 H   0  0  0  0  0  0  0  0  0  0  0  0
    7.1772   -0.5628    0.0000 H   0  0  0  0  0  0  0  0  0  0  0  0
    6.7786   -1.2531    0.0000 H   0  0  0  0  0  0  0  0  0  0  0  0
   11.1120   -2.0602    0.0000 H   0  0  0  0  0  0  0  0  0  0  0  0
   11.1120   -1.2307    0.0000 H   0  0  0  0  0  0  0  0  0  0  0  0
    8.4893   -4.2674    0.0000 H   0  0  0  0  0  0  0  0  0  0  0  0
    8.8804   -3.5714    0.0000 H   0  0  0  0  0  0  0  0  0  0  0  0
   10.5708    0.6991    0.0000 H   0  0  0  0  0  0  0  0  0  0  0  0
    9.7413   -0.1454    0.0000 H   0  0  0  0  0  0  0  0  0  0  0  0
    9.1213    0.4746    0.0000 H   0  0  0  0  0  0  0  0  0  0  0  0
    8.5013   -0.1454    0.0000 H   0  0  0  0  0  0  0  0  0  0  0  0
    5.9606   -1.6216    0.0000 H   0  0  0  0  0  0  0  0  0  0  0  0
    5.1625   -1.6062    0.0000 H   0  0  0  0  0  0  0  0  0  0  0  0
    7.3756   -4.8347    0.0000 H   0  0  0  0  0  0  0  0  0  0  0  0
    7.1069   -1.6571    0.0000 H   0  0  0  0  0  0  0  0  0  0  0  0
    6.4917   -1.0323    0.0000 H   0  0  0  0  0  0  0  0  0  0  0  0
    5.8669   -1.6475    0.0000 H   0  0  0  0  0  0  0  0  0  0  0  0
    5.1385   -4.7196    0.0000 H   0  0  0  0  0  0  0  0  0  0  0  0
    5.9367   -4.7165    0.0000 H   0  0  0  0  0  0  0  0  0  0  0  0
    4.3999   -2.0309    0.0000 H   0  0  0  0  0  0  0  0  0  0  0  0
    3.9928   -2.7175    0.0000 H   0  0  0  0  0  0  0  0  0  0  0  0
   11.3772   -0.3036    0.0000 H   0  0  0  0  0  0  0  0  0  0  0  0
   11.9705    0.2287    0.0000 H   0  0  0  0  0  0  0  0  0  0  0  0
    4.5949   -4.3211    0.0000 H   0  0  0  0  0  0  0  0  0  0  0  0
   10.1718    1.2682    0.0000 H   0  0  0  0  0  0  0  0  0  0  0  0
    9.2962    1.3156    0.0000 H   0  0  0  0  0  0  0  0  0  0  0  0
    9.2488    0.4400    0.0000 H   0  0  0  0  0  0  0  0  0  0  0  0
   11.6468    1.8862    0.0000 H   0  0  0  0  0  0  0  0  0  0  0  0
   11.0535    1.3539    0.0000 H   0  0  0  0  0  0  0  0  0  0  0  0
   12.6664    0.8531    0.0000 H   0  0  0  0  0  0  0  0  0  0  0  0
   13.2596    1.3854    0.0000 H   0  0  0  0  0  0  0  0  0  0  0  0
    2.3121   -2.6554    0.0000 H   0  0  0  0  0  0  0  0  0  0  0  0
    1.4643   -2.8790    0.0000 H   0  0  0  0  0  0  0  0  0  0  0  0
    1.6879   -3.7268    0.0000 H   0  0  0  0  0  0  0  0  0  0  0  0
    1.8250   -4.2465    0.0000 H   0  0  0  0  0  0  0  0  0  0  0  0
    2.0487   -5.0943    0.0000 H   0  0  0  0  0  0  0  0  0  0  0  0
    2.8965   -4.8706    0.0000 H   0  0  0  0  0  0  0  0  0  0  0  0
    3.9032   -3.1424    0.0000 H   0  0  0  0  0  0  0  0  0  0  0  0
    3.6795   -2.2946    0.0000 H   0  0  0  0  0  0  0  0  0  0  0  0
    2.8317   -2.5183    0.0000 H   0  0  0  0  0  0  0  0  0  0  0  0
   13.7144    1.5233    0.0000 H   0  0  0  0  0  0  0  0  0  0  0  0
   14.4963    1.9200    0.0000 H   0  0  0  0  0  0  0  0  0  0  0  0
   14.0996    2.7020    0.0000 H   0  0  0  0  0  0  0  0  0  0  0  0
   12.1986    3.3233    0.0000 H   0  0  0  0  0  0  0  0  0  0  0  0
   11.4166    2.9266    0.0000 H   0  0  0  0  0  0  0  0  0  0  0  0
   11.8134    2.1446    0.0000 H   0  0  0  0  0  0  0  0  0  0  0  0
   14.6461    4.6864    0.0000 H   0  0  0  0  0  0  0  0  0  0  0  0
   13.8452    2.4737    0.0000 H   0  0  0  0  0  0  0  0  0  0  0  0
   14.5797    1.9948    0.0000 H   0  0  0  0  0  0  0  0  0  0  0  0
   15.0585    2.7294    0.0000 H   0  0  0  0  0  0  0  0  0  0  0  0
   13.9116    5.1652    0.0000 H   0  0  0  0  0  0  0  0  0  0  0  0
   13.4328    4.4307    0.0000 H   0  0  0  0  0  0  0  0  0  0  0  0
   15.3520    3.1796    0.0000 H   0  0  0  0  0  0  0  0  0  0  0  0
   15.8308    3.9141    0.0000 H   0  0  0  0  0  0  0  0  0  0  0  0
   15.0963    4.3929    0.0000 H   0  0  0  0  0  0  0  0  0  0  0  0
  1  3  1  0  0  0  0
  1 30  1  0  0  0  0
  1 31  1  0  0  0  0
  1 32  1  0  0  0  0
  2  4  1  0  0  0  0
  2 35  1  0  0  0  0
  2 36  1  0  0  0  0
  2 37  1  0  0  0  0
  3 25  1  0  0  0  0
  4 29  1  0  0  0  0
  5  6  1  0  0  0  0
  5  9  1  0  0  0  0
  5 10  1  0  0  0  0
  5 17  1  0  0  0  0
  6  7  1  0  0  0  0
  6 12  1  0  0  0  0
  6 38  1  0  0  0  0
  7  8  1  0  0  0  0
  7 15  1  0  0  0  0
  7 39  1  0  0  0  0
  8 11  1  0  0  0  0
  8 13  1  0  0  0  0
  8 40  1  0  0  0  0
  9 14  1  0  0  0  0
  9 16  1  0  0  0  0
  9 41  1  0  0  0  0
 10 13  1  0  0  0  0
 10 42  1  0  0  0  0
 10 43  1  0  0  0  0
 11 18  1  0  0  0  0
 11 19  1  0  0  0  0
 11 21  1  0  0  0  0
 12 14  1  0  0  0  0
 12 44  1  0  0  0  0
 12 45  1  0  0  0  0
 13 46  1  0  0  0  0
 13 47  1  0  0  0  0
 14 48  1  0  0  0  0
 14 49  1  0  0  0  0
 15 20  1  0  0  0  0
 15 50  1  0  0  0  0
 15 51  1  0  0  0  0
 16 24  1  0  0  0  0
 16 26  1  0  0  0  0
 16 52  1  0  0  0  0
 17 53  1  0  0  0  0
 17 54  1  0  0  0  0
 17 55  1  0  0  0  0
 18 20  2  0  0  0  0
 18 22  1  0  0  0  0
 19 23  1  0  0  0  0
 19 56  1  0  0  0  0
 19 57  1  0  0  0  0
 20 58  1  0  0  0  0
 21 59  1  0  0  0  0
 21 60  1  0  0  0  0
 21 61  1  0  0  0  0
 22 25  1  0  0  0  0
 22 62  1  0  0  0  0
 22 63  1  0  0  0  0
 23 25  1  0  0  0  0
 23 64  1  0  0  0  0
 23 65  1  0  0  0  0
 24 27  1  0  0  0  0
 24 66  1  0  0  0  0
 24 67  1  0  0  0  0
 25 68  1  0  0  0  0
 26 69  1  0  0  0  0
 26 70  1  0  0  0  0
 26 71  1  0  0  0  0
 27 28  1  0  0  0  0
 27 72  1  0  0  0  0
 27 73  1  0  0  0  0
 28 29  1  0  0  0  0
 28 74  1  0  0  0  0
 28 75  1  0  0  0  0
 29 33  1  0  0  0  0
 29 34  1  0  0  0  0
 30 76  1  0  0  0  0
 30 77  1  0  0  0  0
 30 78  1  0  0  0  0
 31 79  1  0  0  0  0
 31 80  1  0  0  0  0
 31 81  1  0  0  0  0
 32 82  1  0  0  0  0
 32 83  1  0  0  0  0
 32 84  1  0  0  0  0
 33 85  1  0  0  0  0
 33 86  1  0  0  0  0
 33 87  1  0  0  0  0
 34 88  1  0  0  0  0
 34 89  1  0  0  0  0
 34 90  1  0  0  0  0
 35 97  1  0  0  0  0
 35 98  1  0  0  0  0
 35 99  1  0  0  0  0
 36 91  1  0  0  0  0
 36 95  1  0  0  0  0
 36 96  1  0  0  0  0
 37 92  1  0  0  0  0
 37 93  1  0  0  0  0
 37 94  1  0  0  0  0
M  END
> <PUBCHEM_COMPOUND_CID>
582862

> <PUBCHEM_COMPOUND_CANONICALIZED>
1

> <PUBCHEM_CACTVS_COMPLEXITY>
836

> <PUBCHEM_CACTVS_HBOND_ACCEPTOR>
2

> <PUBCHEM_CACTVS_HBOND_DONOR>
0

> <PUBCHEM_CACTVS_ROTATABLE_BOND>
9

> <PUBCHEM_CACTVS_SUBSKEYS>
AAADcfB8MAwAAAAAAAAAAAAAAAAAAYAAAAAwYIAAAAAAAGCAAAAAGhAAAEAAD1SggAJCAAAAAAGAAiBCAAAAAAAgAAAACAAAAAgAAAIAAQAAAAAEwAAIAAOAwPAPgAAAAAAAAADAAAQAACAAAQAACAAAAA==

> <PUBCHEM_IUPAC_OPENEYE_NAME>
[5-(10,13-dimethyl-3-trimethylsilyloxy-2,3,4,7,8,9,11,12,14,15,16,17-dodecahydro-1H-cyclopenta[a]phenanthren-17-yl)-1,1-dimethyl-hexoxy]-trimethyl-silane

> <PUBCHEM_IUPAC_CAS_NAME>
[10,13-dimethyl-17-(6-methyl-6-trimethylsilyloxyheptan-2-yl)-2,3,4,7,8,9,11,12,14,15,16,17-dodecahydro-1H-cyclopenta[a]phenanthren-3-yl]oxy-trimethylsilane

> <PUBCHEM_IUPAC_NAME>
[10,13-dimethyl-17-(6-methyl-6-trimethylsilyloxyheptan-2-yl)-2,3,4,7,8,9,11,12,14,15,16,17-dodecahydro-1H-cyclopenta[a]phenanthren-3-yl]oxy-trimethylsilane

> <PUBCHEM_IUPAC_SYSTEMATIC_NAME>
[10,13-dimethyl-17-(6-methyl-6-trimethylsilyloxy-heptan-2-yl)-2,3,4,7,8,9,11,12,14,15,16,17-dodecahydro-1H-cyclopenta[a]phenanthren-3-yl]oxy-trimethyl-silane

> <PUBCHEM_IUPAC_TRADITIONAL_NAME>
[5-(10,13-dimethyl-3-trimethylsilyloxy-2,3,4,7,8,9,11,12,14,15,16,17-dodecahydro-1H-cyclopenta[a]phenanthren-17-yl)-1,1-dimethyl-hexoxy]-trimethyl-silane

> <PUBCHEM_IUPAC_INCHI>
InChI=1S/C33H62O2Si2/c1-24(13-12-20-31(2,3)35-37(9,10)11)28-16-17-29-27-15-14-25-23-26(34-36(6,7)8)18-21-32(25,4)30(27)19-22-33(28,29)5/h14,24,26-30H,12-13,15-23H2,1-11H3

> <PUBCHEM_IUPAC_INCHIKEY>
GIKJLUWETSCXLS-UHFFFAOYSA-N

> <PUBCHEM_EXACT_MASS>
546.428834

> <PUBCHEM_MOLECULAR_FORMULA>
C33H62O2Si2

> <PUBCHEM_MOLECULAR_WEIGHT>
547.01518

> <PUBCHEM_OPENEYE_CAN_SMILES>
CC(CCCC(C)(C)O[Si](C)(C)C)C1CCC2C1(CCC3C2CC=C4C3(CCC(C4)O[Si](C)(C)C)C)C

> <PUBCHEM_OPENEYE_ISO_SMILES>
CC(CCCC(C)(C)O[Si](C)(C)C)C1CCC2C1(CCC3C2CC=C4C3(CCC(C4)O[Si](C)(C)C)C)C

> <PUBCHEM_CACTVS_TPSA>
18.5

> <PUBCHEM_MONOISOTOPIC_WEIGHT>
546.428834

> <PUBCHEM_TOTAL_CHARGE>
0

> <PUBCHEM_HEAVY_ATOM_COUNT>
37

> <PUBCHEM_ATOM_DEF_STEREO_COUNT>
0

> <PUBCHEM_ATOM_UDEF_STEREO_COUNT>
8

> <PUBCHEM_BOND_DEF_STEREO_COUNT>
0

> <PUBCHEM_BOND_UDEF_STEREO_COUNT>
0

> <PUBCHEM_ISOTOPIC_ATOM_COUNT>
0

> <PUBCHEM_COMPONENT_COUNT>
1

> <PUBCHEM_CACTVS_TAUTO_COUNT>
1

> <PUBCHEM_COORDINATE_TYPE>
1
5
255

> <PUBCHEM_BONDANNOTATIONS>
11  21  3
16  26  3
25  3  3
5  17  3
6  12  3
7  15  3
8  13  3
9  14  3

$$$$

