11954128
  -OEChem-07051213072D

 22 24  0     0  0  0  0  0  0999 V2000
    2.0000    0.5178    0.0000 Cl  0  0  0  0  0  0  0  0  0  0  0  0
    5.5047    1.4303    0.0000 O   0  0  0  0  0  0  0  0  0  0  0  0
    8.3764   -1.4303    0.0000 O   0  0  0  0  0  0  0  0  0  0  0  0
    6.0047   -0.1085    0.0000 C   0  0  0  0  0  0  0  0  0  0  0  0
    5.0047   -0.1085    0.0000 C   0  0  0  0  0  0  0  0  0  0  0  0
    6.3137    0.8425    0.0000 C   0  0  0  0  0  0  0  0  0  0  0  0
    4.6957    0.8425    0.0000 C   0  0  0  0  0  0  0  0  0  0  0  0
    6.6897   -0.8933    0.0000 C   0  0  0  0  0  0  0  0  0  0  0  0
    4.3197   -0.8933    0.0000 C   0  0  0  0  0  0  0  0  0  0  0  0
    7.3291    1.0748    0.0000 C   0  0  0  0  0  0  0  0  0  0  0  0
    3.6803    1.0748    0.0000 C   0  0  0  0  0  0  0  0  0  0  0  0
    7.7102   -0.6846    0.0000 C   0  0  0  0  0  0  0  0  0  0  0  0
    8.0321    0.3061    0.0000 C   0  0  0  0  0  0  0  0  0  0  0  0
    3.2992   -0.6846    0.0000 C   0  0  0  0  0  0  0  0  0  0  0  0
    2.9773    0.3061    0.0000 C   0  0  0  0  0  0  0  0  0  0  0  0
    6.4913   -1.4807    0.0000 H   0  0  0  0  0  0  0  0  0  0  0  0
    4.5181   -1.4807    0.0000 H   0  0  0  0  0  0  0  0  0  0  0  0
    7.5139    1.6666    0.0000 H   0  0  0  0  0  0  0  0  0  0  0  0
    3.4955    1.6666    0.0000 H   0  0  0  0  0  0  0  0  0  0  0  0
    8.6380    0.4373    0.0000 H   0  0  0  0  0  0  0  0  0  0  0  0
    2.8861   -1.1469    0.0000 H   0  0  0  0  0  0  0  0  0  0  0  0
    8.9834   -1.3037    0.0000 H   0  0  0  0  0  0  0  0  0  0  0  0
  1 15  1  0  0  0  0
  2  6  1  0  0  0  0
  2  7  1  0  0  0  0
  3 12  1  0  0  0  0
  3 22  1  0  0  0  0
  4  5  1  0  0  0  0
  4  6  2  0  0  0  0
  4  8  1  0  0  0  0
  5  7  2  0  0  0  0
  5  9  1  0  0  0  0
  6 10  1  0  0  0  0
  7 11  1  0  0  0  0
  8 12  2  0  0  0  0
  8 16  1  0  0  0  0
  9 14  2  0  0  0  0
  9 17  1  0  0  0  0
 10 13  2  0  0  0  0
 10 18  1  0  0  0  0
 11 15  2  0  0  0  0
 11 19  1  0  0  0  0
 12 13  1  0  0  0  0
 13 20  1  0  0  0  0
 14 15  1  0  0  0  0
 14 21  1  0  0  0  0
M  END
> <PUBCHEM_COMPOUND_CID>
11954128

> <PUBCHEM_COMPOUND_CANONICALIZED>
1

> <PUBCHEM_CACTVS_COMPLEXITY>
246

> <PUBCHEM_CACTVS_HBOND_ACCEPTOR>
2

> <PUBCHEM_CACTVS_HBOND_DONOR>
1

> <PUBCHEM_CACTVS_ROTATABLE_BOND>
0

> <PUBCHEM_CACTVS_SUBSKEYS>
AAADcYBwMAAEAAAAAAAAAAAAAAAAASAAAAAwYAAAAAAAAEgB/AAAGgIACAAADAaAmCAwBsAABkCIAqBSAAACCAAkJQAIiAEGCsgMJjKHNxqCeSCkwBEIvYfK7PzOhQABAQAIAAAKAAICABAAAAAAAAAAAA==

> <PUBCHEM_IUPAC_OPENEYE_NAME>
7-chlorodibenzofuran-2-ol

> <PUBCHEM_IUPAC_CAS_NAME>
7-chloro-2-dibenzofuranol

> <PUBCHEM_IUPAC_NAME>
7-chlorodibenzofuran-2-ol

> <PUBCHEM_IUPAC_SYSTEMATIC_NAME>
7-chloranyldibenzofuran-2-ol

> <PUBCHEM_IUPAC_TRADITIONAL_NAME>
7-chlorodibenzofuran-2-ol

> <PUBCHEM_IUPAC_INCHI>
InChI=1S/C12H7ClO2/c13-7-1-3-9-10-6-8(14)2-4-11(10)15-12(9)5-7/h1-6,14H

> <PUBCHEM_IUPAC_INCHIKEY>
ZLLZJWZFKKBNDP-UHFFFAOYSA-N

> <PUBCHEM_XLOGP3>
4.7

> <PUBCHEM_EXACT_MASS>
218.013457

> <PUBCHEM_MOLECULAR_FORMULA>
C12H7ClO2

> <PUBCHEM_MOLECULAR_WEIGHT>
218.63578

> <PUBCHEM_OPENEYE_CAN_SMILES>
C1=CC2=C(C=C1O)C3=C(O2)C=C(C=C3)Cl

> <PUBCHEM_OPENEYE_ISO_SMILES>
C1=CC2=C(C=C1O)C3=C(O2)C=C(C=C3)Cl

> <PUBCHEM_CACTVS_TPSA>
33.4

> <PUBCHEM_MONOISOTOPIC_WEIGHT>
218.013457

> <PUBCHEM_TOTAL_CHARGE>
0

> <PUBCHEM_HEAVY_ATOM_COUNT>
15

> <PUBCHEM_ATOM_DEF_STEREO_COUNT>
0

> <PUBCHEM_ATOM_UDEF_STEREO_COUNT>
0

> <PUBCHEM_BOND_DEF_STEREO_COUNT>
0

> <PUBCHEM_BOND_UDEF_STEREO_COUNT>
0

> <PUBCHEM_ISOTOPIC_ATOM_COUNT>
0

> <PUBCHEM_COMPONENT_COUNT>
1

> <PUBCHEM_CACTVS_TAUTO_COUNT>
3

> <PUBCHEM_COORDINATE_TYPE>
1
5
255

> <PUBCHEM_BONDANNOTATIONS>
10  13  8
11  15  8
12  13  8
14  15  8
2  6  8
2  7  8
4  5  8
4  6  8
4  8  8
5  7  8
5  9  8
6  10  8
7  11  8
8  12  8
9  14  8

$$$$

