6617
  -OEChem-06261201253D

 29 29  0     1  0  0  0  0  0999 V2000
   -4.6254    0.2692   -0.4085 Cl  0  0  0  0  0  0  0  0  0  0  0  0
    1.5708    0.2622    1.8198 O   0  0  0  0  0  0  0  0  0  0  0  0
    3.5236    0.0564   -0.2212 O   0  0  0  0  0  0  0  0  0  0  0  0
    1.2650   -0.3632    0.5555 C   0  0  2  0  0  0  0  0  0  0  0  0
    2.1479    0.3280   -0.5462 C   0  0  0  0  0  0  0  0  0  0  0  0
   -0.2397   -0.2024    0.3105 C   0  0  0  0  0  0  0  0  0  0  0  0
    1.6514   -1.8434    0.7727 C   0  0  0  0  0  0  0  0  0  0  0  0
    1.9124   -0.2145   -1.9631 C   0  0  0  0  0  0  0  0  0  0  0  0
    2.0020    1.8589   -0.5615 C   0  0  0  0  0  0  0  0  0  0  0  0
   -0.9193   -1.2317   -0.2961 C   0  0  0  0  0  0  0  0  0  0  0  0
   -0.8475    0.9653    0.7064 C   0  0  0  0  0  0  0  0  0  0  0  0
   -2.2882   -1.0846   -0.5202 C   0  0  0  0  0  0  0  0  0  0  0  0
   -2.2164    1.1123    0.4825 C   0  0  0  0  0  0  0  0  0  0  0  0
   -2.9368    0.0874   -0.1308 C   0  0  0  0  0  0  0  0  0  0  0  0
    0.9989   -2.3135    1.5197 H   0  0  0  0  0  0  0  0  0  0  0  0
    2.6646   -1.9329    1.1829 H   0  0  0  0  0  0  0  0  0  0  0  0
    1.6162   -2.4437   -0.1404 H   0  0  0  0  0  0  0  0  0  0  0  0
    0.9048    0.0088   -2.3263 H   0  0  0  0  0  0  0  0  0  0  0  0
    2.6286    0.2279   -2.6661 H   0  0  0  0  0  0  0  0  0  0  0  0
    2.0714   -1.2959   -2.0176 H   0  0  0  0  0  0  0  0  0  0  0  0
    2.7561    2.3043   -1.2222 H   0  0  0  0  0  0  0  0  0  0  0  0
    2.1828    2.2932    0.4274 H   0  0  0  0  0  0  0  0  0  0  0  0
    1.0208    2.1814   -0.9201 H   0  0  0  0  0  0  0  0  0  0  0  0
    2.5358    0.2358    1.9396 H   0  0  0  0  0  0  0  0  0  0  0  0
    3.7236   -0.8624   -0.4671 H   0  0  0  0  0  0  0  0  0  0  0  0
   -0.4504   -2.1478   -0.6339 H   0  0  0  0  0  0  0  0  0  0  0  0
   -0.3093    1.7754    1.1872 H   0  0  0  0  0  0  0  0  0  0  0  0
   -2.8363   -1.8891   -1.0039 H   0  0  0  0  0  0  0  0  0  0  0  0
   -2.7087    2.0309    0.7913 H   0  0  0  0  0  0  0  0  0  0  0  0
  1 14  1  0  0  0  0
  2  4  1  0  0  0  0
  2 24  1  0  0  0  0
  3  5  1  0  0  0  0
  3 25  1  0  0  0  0
  4  5  1  0  0  0  0
  4  6  1  0  0  0  0
  4  7  1  0  0  0  0
  5  8  1  0  0  0  0
  5  9  1  0  0  0  0
  6 10  2  0  0  0  0
  6 11  1  0  0  0  0
  7 15  1  0  0  0  0
  7 16  1  0  0  0  0
  7 17  1  0  0  0  0
  8 18  1  0  0  0  0
  8 19  1  0  0  0  0
  8 20  1  0  0  0  0
  9 21  1  0  0  0  0
  9 22  1  0  0  0  0
  9 23  1  0  0  0  0
 10 12  1  0  0  0  0
 10 26  1  0  0  0  0
 11 13  2  0  0  0  0
 11 27  1  0  0  0  0
 12 14  2  0  0  0  0
 12 28  1  0  0  0  0
 13 14  1  0  0  0  0
 13 29  1  0  0  0  0
M  END
> <PUBCHEM_COMPOUND_CID>
6617

> <PUBCHEM_CONFORMER_RMSD>
0.6

> <PUBCHEM_CONFORMER_DIVERSEORDER>
1
4
6
3
5
2

> <PUBCHEM_MMFF94_PARTIAL_CHARGES>
17
1 -0.18
10 -0.15
11 -0.15
12 -0.15
13 -0.15
14 0.18
2 -0.68
24 0.4
25 0.4
26 0.15
27 0.15
28 0.15
29 0.15
3 -0.68
4 0.42
5 0.28
6 -0.14

> <PUBCHEM_EFFECTIVE_ROTOR_COUNT>
2

> <PUBCHEM_PHARMACOPHORE_FEATURES>
6
1 2 acceptor
1 2 donor
1 3 acceptor
1 3 donor
3 5 8 9 hydrophobe
6 6 10 11 12 13 14 rings

> <PUBCHEM_HEAVY_ATOM_COUNT>
14

> <PUBCHEM_ATOM_DEF_STEREO_COUNT>
0

> <PUBCHEM_ATOM_UDEF_STEREO_COUNT>
1

> <PUBCHEM_BOND_DEF_STEREO_COUNT>
0

> <PUBCHEM_BOND_UDEF_STEREO_COUNT>
0

> <PUBCHEM_ISOTOPIC_ATOM_COUNT>
0

> <PUBCHEM_COMPONENT_COUNT>
1

> <PUBCHEM_CACTVS_TAUTO_COUNT>
1

> <PUBCHEM_CONFORMER_ID>
000019D900000001

> <PUBCHEM_MMFF94_ENERGY>
47.8586

> <PUBCHEM_FEATURE_SELFOVERLAP>
30.452

> <PUBCHEM_SHAPE_FINGERPRINT>
11031198 65 17632284683762158695
12326174 3 16988289780145420722
12423570 1 15945153081237166626
12932764 1 15841557405127251379
13538477 17 18342182137459235123
14115302 16 18334294257878366079
14289901 80 16271919407692440601
14993402 34 18412542124187805829
15219456 202 16950854591436784826
15775835 57 18060414690354728748
16945 1 18340471331382924865
18186145 218 18335983151326567549
18522853 295 18040717000047313783
20201158 50 16877656868254878022
20279233 1 16732985306005192671
20559304 39 18342463689481268859
20645476 183 18413109442297378383
22802520 49 17896016832713901286
23402539 116 18186810166280421892
23552423 10 18411141324762162475
23557571 272 17676769859117916544
23559900 14 18040715841017742352
2748010 2 17826529772914200027
3060560 45 18272089400495804494
369184 2 12103568528813935117
474 4 17916299433744532124
4990 188 17530963597031886861
5084963 1 18268998759399200595
528886 8 18272369754570251754
7364860 26 18410015463710453138
8030462 33 18408325509969630723

> <PUBCHEM_SHAPE_MULTIPOLES>
278.24
5.84
1.51
1.28
4.76
0.05
-0.15
-0.8
-1.2
-0.51
0.08
-0.81
0.01
-0.51

> <PUBCHEM_SHAPE_SELFOVERLAP>
565.519

> <PUBCHEM_SHAPE_VOLUME>
164.2

> <PUBCHEM_COORDINATE_TYPE>
2
5
10

$$$$

