441234
  -OEChem-07051212533D

 27 27  0     1  0  0  0  0  0999 V2000
    0.9908   -1.9649   -0.1137 O   0  0  0  0  0  0  0  0  0  0  0  0
    3.4991    0.4908   -0.9537 O   0  0  0  0  0  0  0  0  0  0  0  0
    2.8976   -0.2511    1.1123 O   0  0  0  0  0  0  0  0  0  0  0  0
   -1.2949    0.7796    0.1012 C   0  0  0  0  0  0  0  0  0  0  0  0
    0.1389    0.2537    0.4076 C   0  0  1  0  0  0  0  0  0  0  0  0
   -2.0872   -0.5078   -0.0916 C   0  0  0  0  0  0  0  0  0  0  0  0
    0.0472   -1.1980    0.0065 C   0  0  0  0  0  0  0  0  0  0  0  0
   -1.8091    1.5937    1.2993 C   0  0  0  0  0  0  0  0  0  0  0  0
   -1.3845    1.6401   -1.1706 C   0  0  0  0  0  0  0  0  0  0  0  0
    1.3003    0.9576   -0.2763 C   0  0  0  0  0  0  0  0  0  0  0  0
   -1.3457   -1.6177   -0.1757 C   0  0  0  0  0  0  0  0  0  0  0  0
   -3.5764   -0.5035   -0.2167 C   0  0  0  0  0  0  0  0  0  0  0  0
    2.6240    0.3275    0.0715 C   0  0  0  0  0  0  0  0  0  0  0  0
    0.3093    0.2461    1.4940 H   0  0  0  0  0  0  0  0  0  0  0  0
   -2.8135    1.9915    1.1153 H   0  0  0  0  0  0  0  0  0  0  0  0
   -1.8581    0.9847    2.2096 H   0  0  0  0  0  0  0  0  0  0  0  0
   -1.1498    2.4454    1.5019 H   0  0  0  0  0  0  0  0  0  0  0  0
   -1.0530    1.0895   -2.0585 H   0  0  0  0  0  0  0  0  0  0  0  0
   -2.4135    1.9676   -1.3591 H   0  0  0  0  0  0  0  0  0  0  0  0
   -0.7764    2.5471   -1.0840 H   0  0  0  0  0  0  0  0  0  0  0  0
    1.1851    0.8973   -1.3651 H   0  0  0  0  0  0  0  0  0  0  0  0
    1.3444    2.0120    0.0155 H   0  0  0  0  0  0  0  0  0  0  0  0
   -1.6714   -2.6306   -0.3381 H   0  0  0  0  0  0  0  0  0  0  0  0
   -3.8957    0.1189   -1.0576 H   0  0  0  0  0  0  0  0  0  0  0  0
   -4.0404   -0.1215    0.6976 H   0  0  0  0  0  0  0  0  0  0  0  0
   -3.9685   -1.5121   -0.3871 H   0  0  0  0  0  0  0  0  0  0  0  0
    4.3721    0.0892   -0.7567 H   0  0  0  0  0  0  0  0  0  0  0  0
  1  7  2  0  0  0  0
  2 13  1  0  0  0  0
  2 27  1  0  0  0  0
  3 13  2  0  0  0  0
  4  5  1  0  0  0  0
  4  6  1  0  0  0  0
  4  8  1  0  0  0  0
  4  9  1  0  0  0  0
  5  7  1  0  0  0  0
  5 10  1  0  0  0  0
  5 14  1  0  0  0  0
  6 11  2  0  0  0  0
  6 12  1  0  0  0  0
  7 11  1  0  0  0  0
  8 15  1  0  0  0  0
  8 16  1  0  0  0  0
  8 17  1  0  0  0  0
  9 18  1  0  0  0  0
  9 19  1  0  0  0  0
  9 20  1  0  0  0  0
 10 13  1  0  0  0  0
 10 21  1  0  0  0  0
 10 22  1  0  0  0  0
 11 23  1  0  0  0  0
 12 24  1  0  0  0  0
 12 25  1  0  0  0  0
 12 26  1  0  0  0  0
M  END
> <PUBCHEM_COMPOUND_CID>
441234

> <PUBCHEM_CONFORMER_RMSD>
0.6

> <PUBCHEM_CONFORMER_DIVERSEORDER>
1
6
5
4
3
2

> <PUBCHEM_MMFF94_PARTIAL_CHARGES>
13
1 -0.57
10 0.06
11 -0.14
12 0.14
13 0.66
2 -0.65
23 0.15
27 0.5
3 -0.57
4 0.14
5 0.06
6 -0.28
7 0.49

> <PUBCHEM_EFFECTIVE_ROTOR_COUNT>
2.4

> <PUBCHEM_PHARMACOPHORE_FEATURES>
6
1 1 acceptor
1 2 acceptor
1 3 acceptor
3 2 3 13 anion
3 4 8 9 hydrophobe
5 4 5 6 7 11 rings

> <PUBCHEM_HEAVY_ATOM_COUNT>
13

> <PUBCHEM_ATOM_DEF_STEREO_COUNT>
0

> <PUBCHEM_ATOM_UDEF_STEREO_COUNT>
1

> <PUBCHEM_BOND_DEF_STEREO_COUNT>
0

> <PUBCHEM_BOND_UDEF_STEREO_COUNT>
0

> <PUBCHEM_ISOTOPIC_ATOM_COUNT>
0

> <PUBCHEM_COMPONENT_COUNT>
1

> <PUBCHEM_CACTVS_TAUTO_COUNT>
5

> <PUBCHEM_CONFORMER_ID>
0006BB9200000001

> <PUBCHEM_MMFF94_ENERGY>
26.511

> <PUBCHEM_FEATURE_SELFOVERLAP>
30.506

> <PUBCHEM_SHAPE_FINGERPRINT>
11132069 177 18335427820107104547
11206711 2 18410581677622676909
12423570 1 18201430441236014897
12932764 1 18201718462011987944
13024252 1 15123513588297150321
13380535 21 18190447453966692505
13380535 239 18338234989451989351
14614273 12 18341339971544556077
14993402 34 18200872885566111452
15775835 57 18273211989172752660
16945 1 18334010562688354467
193761 8 18049442848826485791
20510252 161 18186236212531390416
20645476 183 17773872004665035326
21028194 46 18412552028308394362
21501502 16 18264203793390633915
2334 1 17760653564079927907
23402539 116 18113911437225655661
23402655 69 18191887789358054549
23419403 2 16530385818652766549
23463225 33 18271533090909949690
23552423 10 18268993274546979131
23559900 14 18187644640636738744
2748010 2 18194402427309263631
369184 2 16774081769153910089
5084963 1 18343590641671046616
528886 8 18341056207376663195
53655031 270 18333444348860338803

> <PUBCHEM_SHAPE_MULTIPOLES>
249.93
4.67
1.78
1
2.04
0.23
-0.06
-0.1
0.25
-0.61
0.06
0.01
-0.42
-0.31

> <PUBCHEM_SHAPE_SELFOVERLAP>
514.174

> <PUBCHEM_SHAPE_VOLUME>
145.9

> <PUBCHEM_COORDINATE_TYPE>
2
5
10

$$$$

