17395865
  -OEChem-06241222522D

 44 46  0     1  0  0  0  0  0999 V2000
    4.9889    3.4757    0.0000 O   0  0  0  0  0  0  0  0  0  0  0  0
    4.9889   -0.0348    0.0000 O   0  0  0  0  0  0  0  0  0  0  0  0
    9.7619   -2.6097    0.0000 O   0  0  0  0  0  0  0  0  0  0  0  0
    5.2619    1.7204    0.0000 N   0  0  0  0  0  0  0  0  0  0  0  0
    6.7619    0.8544    0.0000 N   0  0  3  0  0  0  0  0  0  0  0  0
    6.2619    1.7204    0.0000 C   0  0  0  0  0  0  0  0  0  0  0  0
    7.7619    0.8544    0.0000 C   0  0  0  0  0  0  0  0  0  0  0  0
    3.7320    2.2204    0.0000 C   0  0  0  0  0  0  0  0  0  0  0  0
    3.7320    1.2204    0.0000 C   0  0  0  0  0  0  0  0  0  0  0  0
    4.6783    2.5252    0.0000 C   0  0  0  0  0  0  0  0  0  0  0  0
    4.6783    0.9157    0.0000 C   0  0  0  0  0  0  0  0  0  0  0  0
    8.2619   -0.0116    0.0000 C   0  0  0  0  0  0  0  0  0  0  0  0
    6.2619   -0.0116    0.0000 C   0  0  0  0  0  0  0  0  0  0  0  0
    2.8660    2.7204    0.0000 C   0  0  0  0  0  0  0  0  0  0  0  0
    2.8660    0.7204    0.0000 C   0  0  0  0  0  0  0  0  0  0  0  0
    7.7619   -0.8776    0.0000 C   0  0  0  0  0  0  0  0  0  0  0  0
    9.2619   -0.0116    0.0000 C   0  0  0  0  0  0  0  0  0  0  0  0
    2.0000    2.2204    0.0000 C   0  0  0  0  0  0  0  0  0  0  0  0
    2.0000    1.2204    0.0000 C   0  0  0  0  0  0  0  0  0  0  0  0
    8.2619   -1.7436    0.0000 C   0  0  0  0  0  0  0  0  0  0  0  0
    9.7619   -0.8776    0.0000 C   0  0  0  0  0  0  0  0  0  0  0  0
    9.2619   -1.7436    0.0000 C   0  0  0  0  0  0  0  0  0  0  0  0
   10.7619   -2.6097    0.0000 C   0  0  0  0  0  0  0  0  0  0  0  0
   11.2619   -3.4757    0.0000 C   0  0  0  0  0  0  0  0  0  0  0  0
    6.8445    1.9325    0.0000 H   0  0  0  0  0  0  0  0  0  0  0  0
    6.1542    2.3310    0.0000 H   0  0  0  0  0  0  0  0  0  0  0  0
    8.3445    1.0665    0.0000 H   0  0  0  0  0  0  0  0  0  0  0  0
    7.6542    1.4650    0.0000 H   0  0  0  0  0  0  0  0  0  0  0  0
    5.7249    0.2984    0.0000 H   0  0  0  0  0  0  0  0  0  0  0  0
    5.9519   -0.5485    0.0000 H   0  0  0  0  0  0  0  0  0  0  0  0
    6.7988   -0.3216    0.0000 H   0  0  0  0  0  0  0  0  0  0  0  0
    2.8660    3.3404    0.0000 H   0  0  0  0  0  0  0  0  0  0  0  0
    2.8660    0.1004    0.0000 H   0  0  0  0  0  0  0  0  0  0  0  0
    7.1419   -0.8776    0.0000 H   0  0  0  0  0  0  0  0  0  0  0  0
    9.5719    0.5253    0.0000 H   0  0  0  0  0  0  0  0  0  0  0  0
    1.4631    2.5304    0.0000 H   0  0  0  0  0  0  0  0  0  0  0  0
    1.4631    0.9104    0.0000 H   0  0  0  0  0  0  0  0  0  0  0  0
    7.9519   -2.2806    0.0000 H   0  0  0  0  0  0  0  0  0  0  0  0
   10.3819   -0.8776    0.0000 H   0  0  0  0  0  0  0  0  0  0  0  0
   11.3445   -2.3976    0.0000 H   0  0  0  0  0  0  0  0  0  0  0  0
   10.6542   -1.9991    0.0000 H   0  0  0  0  0  0  0  0  0  0  0  0
   10.7249   -3.7857    0.0000 H   0  0  0  0  0  0  0  0  0  0  0  0
   11.5719   -4.0126    0.0000 H   0  0  0  0  0  0  0  0  0  0  0  0
   11.7988   -3.1657    0.0000 H   0  0  0  0  0  0  0  0  0  0  0  0
  1 10  2  0  0  0  0
  2 11  2  0  0  0  0
  3 22  1  0  0  0  0
  3 23  1  0  0  0  0
  4  6  1  0  0  0  0
  4 10  1  0  0  0  0
  4 11  1  0  0  0  0
  5  6  1  0  0  0  0
  5  7  1  0  0  0  0
  5 13  1  0  0  0  0
  6 25  1  0  0  0  0
  6 26  1  0  0  0  0
  7 12  1  0  0  0  0
  7 27  1  0  0  0  0
  7 28  1  0  0  0  0
  8  9  1  0  0  0  0
  8 10  1  0  0  0  0
  8 14  2  0  0  0  0
  9 11  1  0  0  0  0
  9 15  2  0  0  0  0
 12 16  2  0  0  0  0
 12 17  1  0  0  0  0
 13 29  1  0  0  0  0
 13 30  1  0  0  0  0
 13 31  1  0  0  0  0
 14 18  1  0  0  0  0
 14 32  1  0  0  0  0
 15 19  1  0  0  0  0
 15 33  1  0  0  0  0
 16 20  1  0  0  0  0
 16 34  1  0  0  0  0
 17 21  2  0  0  0  0
 17 35  1  0  0  0  0
 18 19  2  0  0  0  0
 18 36  1  0  0  0  0
 19 37  1  0  0  0  0
 20 22  2  0  0  0  0
 20 38  1  0  0  0  0
 21 22  1  0  0  0  0
 21 39  1  0  0  0  0
 23 24  1  0  0  0  0
 23 40  1  0  0  0  0
 23 41  1  0  0  0  0
 24 42  1  0  0  0  0
 24 43  1  0  0  0  0
 24 44  1  0  0  0  0
M  END
> <PUBCHEM_COMPOUND_CID>
17395865

> <PUBCHEM_COMPOUND_CANONICALIZED>
1

> <PUBCHEM_CACTVS_COMPLEXITY>
436

> <PUBCHEM_CACTVS_HBOND_ACCEPTOR>
4

> <PUBCHEM_CACTVS_HBOND_DONOR>
0

> <PUBCHEM_CACTVS_ROTATABLE_BOND>
6

> <PUBCHEM_CACTVS_SUBSKEYS>
AAADceB7MAAAAAAAAAAAAAAAAAAAAWAAAAAwYAAAAAAAAFgBQAAAHgAAAAAADAThmAYzBoMABACIAiFSEACCCAAkIAAIiAEODMiMJjKEtRuGOSjsxzOIqYed2IKOoAAAAAAQAABAAAAAACAAAAAAAAAAAA==

> <PUBCHEM_IUPAC_OPENEYE_NAME>
2-[[(4-ethoxyphenyl)methyl-methyl-amino]methyl]isoindoline-1,3-dione

> <PUBCHEM_IUPAC_CAS_NAME>
2-[[(4-ethoxyphenyl)methyl-methylamino]methyl]isoindole-1,3-dione

> <PUBCHEM_IUPAC_NAME>
2-[[(4-ethoxyphenyl)methyl-methylamino]methyl]isoindole-1,3-dione

> <PUBCHEM_IUPAC_SYSTEMATIC_NAME>
2-[[(4-ethoxyphenyl)methyl-methyl-amino]methyl]isoindole-1,3-dione

> <PUBCHEM_IUPAC_TRADITIONAL_NAME>
2-[[(4-ethoxybenzyl)-methyl-amino]methyl]isoindoline-1,3-quinone

> <PUBCHEM_IUPAC_INCHI>
InChI=1S/C19H20N2O3/c1-3-24-15-10-8-14(9-11-15)12-20(2)13-21-18(22)16-6-4-5-7-17(16)19(21)23/h4-11H,3,12-13H2,1-2H3

> <PUBCHEM_IUPAC_INCHIKEY>
RNPWVEFUKUJPDG-UHFFFAOYSA-N

> <PUBCHEM_XLOGP3_AA>
2.9

> <PUBCHEM_EXACT_MASS>
324.147393

> <PUBCHEM_MOLECULAR_FORMULA>
C19H20N2O3

> <PUBCHEM_MOLECULAR_WEIGHT>
324.3737

> <PUBCHEM_OPENEYE_CAN_SMILES>
CCOC1=CC=C(C=C1)CN(C)CN2C(=O)C3=CC=CC=C3C2=O

> <PUBCHEM_OPENEYE_ISO_SMILES>
CCOC1=CC=C(C=C1)CN(C)CN2C(=O)C3=CC=CC=C3C2=O

> <PUBCHEM_CACTVS_TPSA>
49.8

> <PUBCHEM_MONOISOTOPIC_WEIGHT>
324.147393

> <PUBCHEM_TOTAL_CHARGE>
0

> <PUBCHEM_HEAVY_ATOM_COUNT>
24

> <PUBCHEM_ATOM_DEF_STEREO_COUNT>
0

> <PUBCHEM_ATOM_UDEF_STEREO_COUNT>
0

> <PUBCHEM_BOND_DEF_STEREO_COUNT>
0

> <PUBCHEM_BOND_UDEF_STEREO_COUNT>
0

> <PUBCHEM_ISOTOPIC_ATOM_COUNT>
0

> <PUBCHEM_COMPONENT_COUNT>
1

> <PUBCHEM_CACTVS_TAUTO_COUNT>
1

> <PUBCHEM_COORDINATE_TYPE>
1
5
255

> <PUBCHEM_BONDANNOTATIONS>
12  16  8
12  17  8
14  18  8
15  19  8
16  20  8
17  21  8
18  19  8
20  22  8
21  22  8
8  14  8
8  9  8
9  15  8

$$$$

