53297421
  -OEChem-07051213133D

 29 29  0     1  0  0  0  0  0999 V2000
    1.7861    0.8431   -0.2077 O   0  0  0  0  0  0  0  0  0  0  0  0
    1.7630   -0.9583    1.3768 O   0  0  0  0  0  0  0  0  0  0  0  0
    0.7098    2.8085   -0.0837 O   0  0  0  0  0  0  0  0  0  0  0  0
   -1.1539   -0.0379   -0.3878 C   0  0  2  0  0  0  0  0  0  0  0  0
   -0.4794   -1.4124   -0.4289 C   0  0  0  0  0  0  0  0  0  0  0  0
    0.9797   -1.3812   -0.8872 C   0  0  0  0  0  0  0  0  0  0  0  0
    1.9351   -0.5844    0.0130 C   0  0  1  0  0  0  0  0  0  0  0  0
   -0.5086    0.8901    0.6393 C   0  0  0  0  0  0  0  0  0  0  0  0
   -2.6115   -0.2065   -0.0686 C   0  0  0  0  0  0  0  0  0  0  0  0
    0.7032    1.5911    0.0897 C   0  0  0  0  0  0  0  0  0  0  0  0
    3.3801   -0.9021   -0.3928 C   0  0  0  0  0  0  0  0  0  0  0  0
   -2.9306   -0.8181    1.2633 C   0  0  0  0  0  0  0  0  0  0  0  0
   -3.5730    0.1681   -0.9255 C   0  0  0  0  0  0  0  0  0  0  0  0
   -1.0510    0.4140   -1.3846 H   0  0  0  0  0  0  0  0  0  0  0  0
   -0.5188   -1.9022    0.5517 H   0  0  0  0  0  0  0  0  0  0  0  0
   -1.0312   -2.0664   -1.1178 H   0  0  0  0  0  0  0  0  0  0  0  0
    1.3140   -2.4265   -0.9247 H   0  0  0  0  0  0  0  0  0  0  0  0
    1.0221   -0.9906   -1.9118 H   0  0  0  0  0  0  0  0  0  0  0  0
   -1.2119    1.6894    0.9150 H   0  0  0  0  0  0  0  0  0  0  0  0
   -0.2539    0.3946    1.5809 H   0  0  0  0  0  0  0  0  0  0  0  0
    4.0853   -0.3106    0.2031 H   0  0  0  0  0  0  0  0  0  0  0  0
    3.5629   -0.6534   -1.4439 H   0  0  0  0  0  0  0  0  0  0  0  0
    3.6203   -1.9573   -0.2246 H   0  0  0  0  0  0  0  0  0  0  0  0
   -4.0111   -0.8244    1.4489 H   0  0  0  0  0  0  0  0  0  0  0  0
   -2.4766   -0.2585    2.0860 H   0  0  0  0  0  0  0  0  0  0  0  0
   -2.5982   -1.8587    1.3168 H   0  0  0  0  0  0  0  0  0  0  0  0
    2.5978   -0.8004    1.8485 H   0  0  0  0  0  0  0  0  0  0  0  0
   -4.6235    0.0413   -0.6856 H   0  0  0  0  0  0  0  0  0  0  0  0
   -3.3337    0.6097   -1.8871 H   0  0  0  0  0  0  0  0  0  0  0  0
  1  7  1  0  0  0  0
  1 10  1  0  0  0  0
  2  7  1  0  0  0  0
  2 27  1  0  0  0  0
  3 10  2  0  0  0  0
  4  5  1  0  0  0  0
  4  8  1  0  0  0  0
  4  9  1  0  0  0  0
  4 14  1  0  0  0  0
  5  6  1  0  0  0  0
  5 15  1  0  0  0  0
  5 16  1  0  0  0  0
  6  7  1  0  0  0  0
  6 17  1  0  0  0  0
  6 18  1  0  0  0  0
  7 11  1  0  0  0  0
  8 10  1  0  0  0  0
  8 19  1  0  0  0  0
  8 20  1  0  0  0  0
  9 12  1  0  0  0  0
  9 13  2  0  0  0  0
 11 21  1  0  0  0  0
 11 22  1  0  0  0  0
 11 23  1  0  0  0  0
 12 24  1  0  0  0  0
 12 25  1  0  0  0  0
 12 26  1  0  0  0  0
 13 28  1  0  0  0  0
 13 29  1  0  0  0  0
M  END
> <PUBCHEM_COMPOUND_CID>
53297421

> <PUBCHEM_CONFORMER_RMSD>
0.6

> <PUBCHEM_CONFORMER_DIVERSEORDER>
1
11
10
12
5
3
6
8
4
9
2
7

> <PUBCHEM_MMFF94_PARTIAL_CHARGES>
13
1 -0.43
10 0.66
12 0.14
13 -0.3
2 -0.68
27 0.4
28 0.15
29 0.15
3 -0.57
4 0.14
7 0.56
8 0.06
9 -0.28

> <PUBCHEM_EFFECTIVE_ROTOR_COUNT>
2.2

> <PUBCHEM_PHARMACOPHORE_FEATURES>
4
1 2 acceptor
1 2 donor
1 3 acceptor
7 1 4 5 6 7 8 10 rings

> <PUBCHEM_HEAVY_ATOM_COUNT>
13

> <PUBCHEM_ATOM_DEF_STEREO_COUNT>
1

> <PUBCHEM_ATOM_UDEF_STEREO_COUNT>
1

> <PUBCHEM_BOND_DEF_STEREO_COUNT>
0

> <PUBCHEM_BOND_UDEF_STEREO_COUNT>
0

> <PUBCHEM_ISOTOPIC_ATOM_COUNT>
0

> <PUBCHEM_COMPONENT_COUNT>
1

> <PUBCHEM_CACTVS_TAUTO_COUNT>
2

> <PUBCHEM_CONFORMER_ID>
032D410D00000001

> <PUBCHEM_MMFF94_ENERGY>
29.0905

> <PUBCHEM_FEATURE_SELFOVERLAP>
20.297

> <PUBCHEM_SHAPE_FINGERPRINT>
10130415 120 18272376424728296025
10219947 1 18260548935103853478
12032990 46 18336536205285286518
124424 183 18202291341676440655
12500047 106 17203616994983952291
12696612 119 18334845100566808743
12932764 1 17989487394750306107
14648413 74 18270967830311790629
14817 1 10872196985371418456
14993402 34 18333732416184775878
15219456 202 18200592489174766017
15219459 52 18188777141043009431
16945 1 18334571326255489303
17990270 104 18410009892942658803
193761 8 17831584171689847534
20201158 50 18411983602340586703
20511035 2 17897452683468088334
20645477 70 18338241445178433127
20711985 344 17978506764880134352
207724 885 18261386745715816658
21061003 4 18337099150964475683
21130352 189 18410578387529963381
21501502 16 18119805803457144463
21524375 3 17546165203662677144
23380061 451 17917704734153249435
23402539 116 18188500180383102966
23552423 10 18121505652511959959
241688 4 17901655287349891546
2748010 2 17972593565597237623
3071541 158 18343018869918382460
31174 14 18125988387610147851
5084963 1 17749111097238543991
528862 383 18266744579994317577
7364860 26 18116155471833791824
81228 2 17978225285651018384

> <PUBCHEM_SHAPE_MULTIPOLES>
249.93
4.83
1.9
1.05
1.63
1.32
-0.23
-1.38
0.25
-0.84
0.11
0.39
-0.26
0.21

> <PUBCHEM_SHAPE_SELFOVERLAP>
498.529

> <PUBCHEM_SHAPE_VOLUME>
146.3

> <PUBCHEM_COORDINATE_TYPE>
2
5
10

$$$$

