4234
  -OEChem-06251223582D

 90 98  0     0  0  0  0  0  0999 V2000
    6.5746    1.4104    0.0000 N   0  0  0  0  0  0  0  0  0  0  0  0
    5.1047    0.0409    0.0000 N   0  0  0  0  0  0  0  0  0  0  0  0
    8.1099    0.0409    0.0000 N   0  0  0  0  0  0  0  0  0  0  0  0
    6.6081   -1.3286    0.0000 N   0  0  0  0  0  0  0  0  0  0  0  0
    2.7012    3.9157    0.0000 N   0  3  0  0  0  0  0  0  0  0  0  0
   10.5824    3.8116    0.0000 N   0  3  0  0  0  0  0  0  0  0  0  0
    2.8263   -3.8869    0.0000 N   0  3  0  0  0  0  0  0  0  0  0  0
   10.5319   -3.7838    0.0000 N   0  3  0  0  0  0  0  0  0  0  0  0
    4.8050    1.7770    0.0000 C   0  0  0  0  0  0  0  0  0  0  0  0
    5.7727    2.0449    0.0000 C   0  0  0  0  0  0  0  0  0  0  0  0
    4.5371    0.8093    0.0000 C   0  0  0  0  0  0  0  0  0  0  0  0
    7.4101    2.0784    0.0000 C   0  0  0  0  0  0  0  0  0  0  0  0
    4.5371   -0.7276    0.0000 C   0  0  0  0  0  0  0  0  0  0  0  0
    8.3778    1.7770    0.0000 C   0  0  0  0  0  0  0  0  0  0  0  0
    4.8385   -1.6618    0.0000 C   0  0  0  0  0  0  0  0  0  0  0  0
    4.1038    2.4899    0.0000 C   0  0  0  0  0  0  0  0  0  0  0  0
    6.0741    3.0126    0.0000 C   0  0  0  0  0  0  0  0  0  0  0  0
    3.5694    0.5414    0.0000 C   0  0  0  0  0  0  0  0  0  0  0  0
    8.6774    0.8428    0.0000 C   0  0  0  0  0  0  0  0  0  0  0  0
    5.8062   -1.9632    0.0000 C   0  0  0  0  0  0  0  0  0  0  0  0
    7.0752    3.0126    0.0000 C   0  0  0  0  0  0  0  0  0  0  0  0
    3.5694   -0.4597    0.0000 C   0  0  0  0  0  0  0  0  0  0  0  0
    8.4112   -1.6618    0.0000 C   0  0  0  0  0  0  0  0  0  0  0  0
    8.7109   -0.6941    0.0000 C   0  0  0  0  0  0  0  0  0  0  0  0
    7.4101   -1.9297    0.0000 C   0  0  0  0  0  0  0  0  0  0  0  0
    9.1126    2.4552    0.0000 C   0  0  0  0  0  0  0  0  0  0  0  0
    4.1678   -2.4035    0.0000 C   0  0  0  0  0  0  0  0  0  0  0  0
    9.6468    0.5749    0.0000 C   0  0  0  0  0  0  0  0  0  0  0  0
    6.1075   -2.8974    0.0000 C   0  0  0  0  0  0  0  0  0  0  0  0
    9.1181   -2.3692    0.0000 C   0  0  0  0  0  0  0  0  0  0  0  0
    9.6468   -0.4262    0.0000 C   0  0  0  0  0  0  0  0  0  0  0  0
    7.1087   -2.8974    0.0000 C   0  0  0  0  0  0  0  0  0  0  0  0
    3.1357    2.2391    0.0000 C   0  0  0  0  0  0  0  0  0  0  0  0
    4.3705    3.4537    0.0000 C   0  0  0  0  0  0  0  0  0  0  0  0
    8.8927    3.4307    0.0000 C   0  0  0  0  0  0  0  0  0  0  0  0
   10.0674    2.1579    0.0000 C   0  0  0  0  0  0  0  0  0  0  0  0
    4.4748   -3.3552    0.0000 C   0  0  0  0  0  0  0  0  0  0  0  0
    3.1901   -2.1935    0.0000 C   0  0  0  0  0  0  0  0  0  0  0  0
    2.4345    2.9520    0.0000 C   0  0  0  0  0  0  0  0  0  0  0  0
    3.6693    4.1666    0.0000 C   0  0  0  0  0  0  0  0  0  0  0  0
   10.0841   -2.1106    0.0000 C   0  0  0  0  0  0  0  0  0  0  0  0
    8.8590   -3.3350    0.0000 C   0  0  0  0  0  0  0  0  0  0  0  0
    9.6276    4.1089    0.0000 C   0  0  0  0  0  0  0  0  0  0  0  0
   10.8023    2.8361    0.0000 C   0  0  0  0  0  0  0  0  0  0  0  0
    3.8040   -4.0970    0.0000 C   0  0  0  0  0  0  0  0  0  0  0  0
    2.5194   -2.9352    0.0000 C   0  0  0  0  0  0  0  0  0  0  0  0
   10.7910   -2.8180    0.0000 C   0  0  0  0  0  0  0  0  0  0  0  0
    9.5659   -4.0423    0.0000 C   0  0  0  0  0  0  0  0  0  0  0  0
    2.0000    4.6287    0.0000 C   0  0  0  0  0  0  0  0  0  0  0  0
   11.3172    4.4898    0.0000 C   0  0  0  0  0  0  0  0  0  0  0  0
    2.1556   -4.6287    0.0000 C   0  0  0  0  0  0  0  0  0  0  0  0
   11.2387   -4.4912    0.0000 C   0  0  0  0  0  0  0  0  0  0  0  0
    6.5762    0.7904    0.0000 H   0  0  0  0  0  0  0  0  0  0  0  0
    5.7247    0.0409    0.0000 H   0  0  0  0  0  0  0  0  0  0  0  0
    5.7066    3.5119    0.0000 H   0  0  0  0  0  0  0  0  0  0  0  0
    3.0760    0.9168    0.0000 H   0  0  0  0  0  0  0  0  0  0  0  0
    7.4321    3.5196    0.0000 H   0  0  0  0  0  0  0  0  0  0  0  0
    3.0760   -0.8351    0.0000 H   0  0  0  0  0  0  0  0  0  0  0  0
   10.1402    0.9504    0.0000 H   0  0  0  0  0  0  0  0  0  0  0  0
    5.7426   -3.3986    0.0000 H   0  0  0  0  0  0  0  0  0  0  0  0
   10.1419   -0.7995    0.0000 H   0  0  0  0  0  0  0  0  0  0  0  0
    7.4762   -3.3967    0.0000 H   0  0  0  0  0  0  0  0  0  0  0  0
    2.9703    1.6415    0.0000 H   0  0  0  0  0  0  0  0  0  0  0  0
    4.9707    3.6092    0.0000 H   0  0  0  0  0  0  0  0  0  0  0  0
    8.3008    3.6151    0.0000 H   0  0  0  0  0  0  0  0  0  0  0  0
   10.2038    1.5531    0.0000 H   0  0  0  0  0  0  0  0  0  0  0  0
    5.0809   -3.4854    0.0000 H   0  0  0  0  0  0  0  0  0  0  0  0
    2.9997   -1.6034    0.0000 H   0  0  0  0  0  0  0  0  0  0  0  0
    1.8343    2.7964    0.0000 H   0  0  0  0  0  0  0  0  0  0  0  0
    3.8347    4.7641    0.0000 H   0  0  0  0  0  0  0  0  0  0  0  0
   10.2448   -1.5118    0.0000 H   0  0  0  0  0  0  0  0  0  0  0  0
    8.2601   -3.4953    0.0000 H   0  0  0  0  0  0  0  0  0  0  0  0
    9.4913    4.7138    0.0000 H   0  0  0  0  0  0  0  0  0  0  0  0
   11.3942    2.6518    0.0000 H   0  0  0  0  0  0  0  0  0  0  0  0
    3.9944   -4.6870    0.0000 H   0  0  0  0  0  0  0  0  0  0  0  0
    1.9132   -2.8050    0.0000 H   0  0  0  0  0  0  0  0  0  0  0  0
   11.3899   -2.6577    0.0000 H   0  0  0  0  0  0  0  0  0  0  0  0
    9.4052   -4.6412    0.0000 H   0  0  0  0  0  0  0  0  0  0  0  0
    2.4420    5.0634    0.0000 H   0  0  0  0  0  0  0  0  0  0  0  0
    1.5652    5.0707    0.0000 H   0  0  0  0  0  0  0  0  0  0  0  0
    1.5580    4.1939    0.0000 H   0  0  0  0  0  0  0  0  0  0  0  0
   11.7377    4.0342    0.0000 H   0  0  0  0  0  0  0  0  0  0  0  0
   11.7729    4.9103    0.0000 H   0  0  0  0  0  0  0  0  0  0  0  0
   10.8968    4.9454    0.0000 H   0  0  0  0  0  0  0  0  0  0  0  0
    1.6958   -4.2128    0.0000 H   0  0  0  0  0  0  0  0  0  0  0  0
    1.7398   -5.0885    0.0000 H   0  0  0  0  0  0  0  0  0  0  0  0
    2.6155   -5.0445    0.0000 H   0  0  0  0  0  0  0  0  0  0  0  0
   10.8002   -4.9294    0.0000 H   0  0  0  0  0  0  0  0  0  0  0  0
   11.6770   -4.9297    0.0000 H   0  0  0  0  0  0  0  0  0  0  0  0
   11.6773   -4.0529    0.0000 H   0  0  0  0  0  0  0  0  0  0  0  0
  1 10  1  0  0  0  0
  1 12  1  0  0  0  0
  1 53  1  0  0  0  0
  2 11  1  0  0  0  0
  2 13  1  0  0  0  0
  2 54  1  0  0  0  0
  3 19  2  0  0  0  0
  3 24  1  0  0  0  0
  4 20  1  0  0  0  0
  4 25  2  0  0  0  0
  5 39  2  0  0  0  0
  5 40  1  0  0  0  0
  5 49  1  0  0  0  0
  6 43  2  0  0  0  0
  6 44  1  0  0  0  0
  6 50  1  0  0  0  0
  7 45  2  0  0  0  0
  7 46  1  0  0  0  0
  7 51  1  0  0  0  0
  8 47  2  0  0  0  0
  8 48  1  0  0  0  0
  8 52  1  0  0  0  0
  9 10  2  0  0  0  0
  9 11  1  0  0  0  0
  9 16  1  0  0  0  0
 10 17  1  0  0  0  0
 11 18  2  0  0  0  0
 12 14  2  0  0  0  0
 12 21  1  0  0  0  0
 13 15  1  0  0  0  0
 13 22  2  0  0  0  0
 14 19  1  0  0  0  0
 14 26  1  0  0  0  0
 15 20  2  0  0  0  0
 15 27  1  0  0  0  0
 16 33  2  0  0  0  0
 16 34  1  0  0  0  0
 17 21  2  0  0  0  0
 17 55  1  0  0  0  0
 18 22  1  0  0  0  0
 18 56  1  0  0  0  0
 19 28  1  0  0  0  0
 20 29  1  0  0  0  0
 21 57  1  0  0  0  0
 22 58  1  0  0  0  0
 23 24  2  0  0  0  0
 23 25  1  0  0  0  0
 23 30  1  0  0  0  0
 24 31  1  0  0  0  0
 25 32  1  0  0  0  0
 26 35  2  0  0  0  0
 26 36  1  0  0  0  0
 27 37  2  0  0  0  0
 27 38  1  0  0  0  0
 28 31  2  0  0  0  0
 28 59  1  0  0  0  0
 29 32  2  0  0  0  0
 29 60  1  0  0  0  0
 30 41  2  0  0  0  0
 30 42  1  0  0  0  0
 31 61  1  0  0  0  0
 32 62  1  0  0  0  0
 33 39  1  0  0  0  0
 33 63  1  0  0  0  0
 34 40  2  0  0  0  0
 34 64  1  0  0  0  0
 35 43  1  0  0  0  0
 35 65  1  0  0  0  0
 36 44  2  0  0  0  0
 36 66  1  0  0  0  0
 37 45  1  0  0  0  0
 37 67  1  0  0  0  0
 38 46  2  0  0  0  0
 38 68  1  0  0  0  0
 39 69  1  0  0  0  0
 40 70  1  0  0  0  0
 41 47  1  0  0  0  0
 41 71  1  0  0  0  0
 42 48  2  0  0  0  0
 42 72  1  0  0  0  0
 43 73  1  0  0  0  0
 44 74  1  0  0  0  0
 45 75  1  0  0  0  0
 46 76  1  0  0  0  0
 47 77  1  0  0  0  0
 48 78  1  0  0  0  0
 49 79  1  0  0  0  0
 49 80  1  0  0  0  0
 49 81  1  0  0  0  0
 50 82  1  0  0  0  0
 50 83  1  0  0  0  0
 50 84  1  0  0  0  0
 51 85  1  0  0  0  0
 51 86  1  0  0  0  0
 51 87  1  0  0  0  0
 52 88  1  0  0  0  0
 52 89  1  0  0  0  0
 52 90  1  0  0  0  0
M  CHG  4   5   1   6   1   7   1   8   1
M  END
> <PUBCHEM_COMPOUND_CID>
4234

> <PUBCHEM_COMPOUND_CANONICALIZED>
1

> <PUBCHEM_CACTVS_COMPLEXITY>
1070

> <PUBCHEM_CACTVS_HBOND_ACCEPTOR>
2

> <PUBCHEM_CACTVS_HBOND_DONOR>
2

> <PUBCHEM_CACTVS_ROTATABLE_BOND>
4

> <PUBCHEM_CACTVS_SUBSKEYS>
AAADcfB/wAAAAAAAAAAAAAAAAAAAAWLFiwAsWLFgAAAAAAAB/gAAHAAQAAAADAjBHgQ+wLPNkACgAzRnRACCgCAxAiAI2SA4ZJgIIOLA0dGEJAhgkADIyAcQgMAOgAAAAAAAAAAAAAAAAAAAAAAAAAAAAA==

> <PUBCHEM_IUPAC_OPENEYE_NAME>
5,10,15,20-tetrakis(1-methylpyridin-1-ium-4-yl)-21,22-dihydroporphyrin

> <PUBCHEM_IUPAC_CAS_NAME>
5,10,15,20-tetrakis(1-methyl-4-pyridin-1-iumyl)-21,22-dihydroporphyrin

> <PUBCHEM_IUPAC_NAME>
5,10,15,20-tetrakis(1-methylpyridin-1-ium-4-yl)-21,22-dihydroporphyrin

> <PUBCHEM_IUPAC_SYSTEMATIC_NAME>
5,10,15,20-tetrakis(1-methylpyridin-1-ium-4-yl)-21,22-dihydroporphyrin

> <PUBCHEM_IUPAC_TRADITIONAL_NAME>
5,10,15,20-tetrakis(1-methylpyridin-1-ium-4-yl)-21,22-dihydroporphine

> <PUBCHEM_IUPAC_INCHI>
InChI=1S/C44H37N8/c1-49-21-13-29(14-22-49)41-33-5-7-35(45-33)42(30-15-23-50(2)24-16-30)37-9-11-39(47-37)44(32-19-27-52(4)28-20-32)40-12-10-38(48-40)43(36-8-6-34(41)46-36)31-17-25-51(3)26-18-31/h5-28H,1-4H3,(H,45,46,47,48)/q+3/p+1

> <PUBCHEM_IUPAC_INCHIKEY>
ABCGFHPGHXSVKI-UHFFFAOYSA-O

> <PUBCHEM_XLOGP3_AA>
6.7

> <PUBCHEM_EXACT_MASS>
678.321943

> <PUBCHEM_MOLECULAR_FORMULA>
C44H38N8+4

> <PUBCHEM_MOLECULAR_WEIGHT>
678.82612

> <PUBCHEM_OPENEYE_CAN_SMILES>
C[N+]1=CC=C(C=C1)C2=C3C=CC(=C(C4=CC=C(N4)C(=C5C=CC(=N5)C(=C6C=CC2=N6)C7=CC=[N+](C=C7)C)C8=CC=[N+](C=C8)C)C9=CC=[N+](C=C9)C)N3

> <PUBCHEM_OPENEYE_ISO_SMILES>
C[N+]1=CC=C(C=C1)C2=C3C=CC(=C(C4=CC=C(N4)C(=C5C=CC(=N5)C(=C6C=CC2=N6)C7=CC=[N+](C=C7)C)C8=CC=[N+](C=C8)C)C9=CC=[N+](C=C9)C)N3

> <PUBCHEM_CACTVS_TPSA>
72.9

> <PUBCHEM_MONOISOTOPIC_WEIGHT>
678.321943

> <PUBCHEM_TOTAL_CHARGE>
4

> <PUBCHEM_HEAVY_ATOM_COUNT>
52

> <PUBCHEM_ATOM_DEF_STEREO_COUNT>
0

> <PUBCHEM_ATOM_UDEF_STEREO_COUNT>
0

> <PUBCHEM_BOND_DEF_STEREO_COUNT>
0

> <PUBCHEM_BOND_UDEF_STEREO_COUNT>
0

> <PUBCHEM_ISOTOPIC_ATOM_COUNT>
0

> <PUBCHEM_COMPONENT_COUNT>
1

> <PUBCHEM_CACTVS_TAUTO_COUNT>
2

> <PUBCHEM_COORDINATE_TYPE>
1
5
255

> <PUBCHEM_BONDANNOTATIONS>
1  10  8
1  12  8
10  17  8
11  18  8
12  14  8
12  21  8
13  15  8
13  22  8
14  19  8
15  20  8
16  33  8
16  34  8
17  21  8
18  22  8
2  11  8
2  13  8
23  24  8
23  25  8
26  35  8
26  36  8
27  37  8
27  38  8
3  19  8
3  24  8
30  41  8
30  42  8
33  39  8
34  40  8
35  43  8
36  44  8
37  45  8
38  46  8
4  20  8
4  25  8
41  47  8
42  48  8
5  39  8
5  40  8
6  43  8
6  44  8
7  45  8
7  46  8
8  47  8
8  48  8
9  10  8
9  11  8

$$$$

