9851693
  -OEChem-07051213003D

 41 44  0     1  0  0  0  0  0999 V2000
    1.5513   -0.3672    0.3269 O   0  0  0  0  0  0  0  0  0  0  0  0
    1.4848    1.5358   -1.0556 O   0  0  0  0  0  0  0  0  0  0  0  0
   -0.9055   -0.7397    1.8427 O   0  0  0  0  0  0  0  0  0  0  0  0
    4.2728    0.3468   -0.8550 N   0  0  0  0  0  0  0  0  0  0  0  0
   -0.8271    1.1978    0.5470 N   0  0  0  0  0  0  0  0  0  0  0  0
   -2.5825    1.6831   -0.9991 N   0  0  0  0  0  0  0  0  0  0  0  0
    3.8222    0.2817    0.5388 C   0  0  2  0  0  0  0  0  0  0  0  0
    2.8241   -0.8438    0.7981 C   0  0  2  0  0  0  0  0  0  0  0  0
    2.9478    1.4870    0.8508 C   0  0  0  0  0  0  0  0  0  0  0  0
    1.5838    1.0725    0.2903 C   0  0  2  0  0  0  0  0  0  0  0  0
    3.1848   -2.1758    0.1550 C   0  0  0  0  0  0  0  0  0  0  0  0
    3.6751   -1.9929   -1.2769 C   0  0  0  0  0  0  0  0  0  0  0  0
    4.7704   -0.9338   -1.3428 C   0  0  0  0  0  0  0  0  0  0  0  0
    0.4277    1.6291    1.1093 C   0  0  0  0  0  0  0  0  0  0  0  0
   -1.3985   -0.0049    0.9922 C   0  0  0  0  0  0  0  0  0  0  0  0
   -1.4606    1.9651   -0.4233 C   0  0  0  0  0  0  0  0  0  0  0  0
   -2.6866   -0.3647    0.3558 C   0  0  0  0  0  0  0  0  0  0  0  0
   -3.2239    0.4942   -0.6124 C   0  0  0  0  0  0  0  0  0  0  0  0
   -3.3506   -1.5414    0.7182 C   0  0  0  0  0  0  0  0  0  0  0  0
   -4.4407    0.1546   -1.2140 C   0  0  0  0  0  0  0  0  0  0  0  0
   -4.5622   -1.8647    0.1092 C   0  0  0  0  0  0  0  0  0  0  0  0
   -5.1068   -1.0187   -0.8552 C   0  0  0  0  0  0  0  0  0  0  0  0
    4.6902    0.2148    1.2037 H   0  0  0  0  0  0  0  0  0  0  0  0
    2.7093   -0.9981    1.8790 H   0  0  0  0  0  0  0  0  0  0  0  0
    2.8989    1.6052    1.9411 H   0  0  0  0  0  0  0  0  0  0  0  0
    3.3281    2.4251    0.4316 H   0  0  0  0  0  0  0  0  0  0  0  0
    2.3210   -2.8501    0.1584 H   0  0  0  0  0  0  0  0  0  0  0  0
    3.9812   -2.6515    0.7402 H   0  0  0  0  0  0  0  0  0  0  0  0
    4.9954    1.0599   -0.9472 H   0  0  0  0  0  0  0  0  0  0  0  0
    4.0566   -2.9461   -1.6601 H   0  0  0  0  0  0  0  0  0  0  0  0
    2.8358   -1.7024   -1.9216 H   0  0  0  0  0  0  0  0  0  0  0  0
    5.6494   -1.2483   -0.7675 H   0  0  0  0  0  0  0  0  0  0  0  0
    5.0910   -0.8157   -2.3836 H   0  0  0  0  0  0  0  0  0  0  0  0
    0.4561    2.7251    1.1014 H   0  0  0  0  0  0  0  0  0  0  0  0
    0.4909    1.2859    2.1483 H   0  0  0  0  0  0  0  0  0  0  0  0
    2.3649    1.4902   -1.4647 H   0  0  0  0  0  0  0  0  0  0  0  0
   -0.9210    2.8871   -0.6908 H   0  0  0  0  0  0  0  0  0  0  0  0
   -2.9421   -2.2136    1.4675 H   0  0  0  0  0  0  0  0  0  0  0  0
   -4.8788    0.8040   -1.9681 H   0  0  0  0  0  0  0  0  0  0  0  0
   -5.0825   -2.7769    0.3865 H   0  0  0  0  0  0  0  0  0  0  0  0
   -6.0509   -1.2723   -1.3287 H   0  0  0  0  0  0  0  0  0  0  0  0
  1  8  1  0  0  0  0
  1 10  1  0  0  0  0
  2 10  1  0  0  0  0
  2 36  1  0  0  0  0
  3 15  2  0  0  0  0
  4  7  1  0  0  0  0
  4 13  1  0  0  0  0
  4 29  1  0  0  0  0
  5 14  1  0  0  0  0
  5 15  1  0  0  0  0
  5 16  1  0  0  0  0
  6 16  2  0  0  0  0
  6 18  1  0  0  0  0
  7  8  1  0  0  0  0
  7  9  1  0  0  0  0
  7 23  1  0  0  0  0
  8 11  1  0  0  0  0
  8 24  1  0  0  0  0
  9 10  1  0  0  0  0
  9 25  1  0  0  0  0
  9 26  1  0  0  0  0
 10 14  1  0  0  0  0
 11 12  1  0  0  0  0
 11 27  1  0  0  0  0
 11 28  1  0  0  0  0
 12 13  1  0  0  0  0
 12 30  1  0  0  0  0
 12 31  1  0  0  0  0
 13 32  1  0  0  0  0
 13 33  1  0  0  0  0
 14 34  1  0  0  0  0
 14 35  1  0  0  0  0
 15 17  1  0  0  0  0
 16 37  1  0  0  0  0
 17 18  1  0  0  0  0
 17 19  2  0  0  0  0
 18 20  2  0  0  0  0
 19 21  1  0  0  0  0
 19 38  1  0  0  0  0
 20 22  1  0  0  0  0
 20 39  1  0  0  0  0
 21 22  2  0  0  0  0
 21 40  1  0  0  0  0
 22 41  1  0  0  0  0
M  END
> <PUBCHEM_COMPOUND_CID>
9851693

> <PUBCHEM_CONFORMER_RMSD>
0.6

> <PUBCHEM_CONFORMER_DIVERSEORDER>
1
17
16
19
22
9
4
13
6
14
18
24
23
21
12
5
7
15
10
3
8
11
20
2

> <PUBCHEM_MMFF94_PARTIAL_CHARGES>
26
1 -0.56
10 0.56
13 0.27
14 0.3
15 0.54
16 0.45
17 0.09
18 0.18
19 -0.15
2 -0.68
20 -0.15
21 -0.15
22 -0.15
29 0.36
3 -0.57
36 0.4
37 0.06
38 0.15
39 0.15
4 -0.9
40 0.15
41 0.15
5 -0.42
6 -0.63
7 0.27
8 0.28

> <PUBCHEM_EFFECTIVE_ROTOR_COUNT>
3.4

> <PUBCHEM_PHARMACOPHORE_FEATURES>
10
1 1 acceptor
1 2 acceptor
1 2 donor
1 3 acceptor
1 4 cation
1 4 donor
5 1 7 8 9 10 rings
6 17 18 19 20 21 22 rings
6 4 7 8 11 12 13 rings
6 5 6 15 16 17 18 rings

> <PUBCHEM_HEAVY_ATOM_COUNT>
22

> <PUBCHEM_ATOM_DEF_STEREO_COUNT>
2

> <PUBCHEM_ATOM_UDEF_STEREO_COUNT>
1

> <PUBCHEM_BOND_DEF_STEREO_COUNT>
0

> <PUBCHEM_BOND_UDEF_STEREO_COUNT>
0

> <PUBCHEM_ISOTOPIC_ATOM_COUNT>
0

> <PUBCHEM_COMPONENT_COUNT>
1

> <PUBCHEM_CACTVS_TAUTO_COUNT>
1

> <PUBCHEM_CONFORMER_ID>
0096532D00000001

> <PUBCHEM_MMFF94_ENERGY>
44.288

> <PUBCHEM_FEATURE_SELFOVERLAP>
51.058

> <PUBCHEM_SHAPE_FINGERPRINT>
10498660 4 17203613700374485605
10764073 3 16829482002929425281
11796584 16 17603868892870291039
12251169 10 6916265165179963721
12363563 72 18259979400907324198
12403259 118 9150879564503957463
12596602 18 15357986611842268415
12670546 177 17846779598305103028
13224815 77 18410855464623589306
13533116 47 17604151420145572587
13544653 18 18186802474073167697
13583140 156 5183783268736757810
13675066 3 9223231862044131152
14790565 3 17691975182129917901
15183329 4 18260554459307398541
15209294 21 8286200552473259125
15238133 3 7781524728457163314
15475509 35 16662627441650349743
15475509 8 18340773728221923389
15635459 17 18408322185623024866
17357779 13 18413102853342487114
17870717 6 18343298180553069367
1813 80 16371000776362736761
18186145 218 18131354120069943769
19141452 34 18335702673083261627
193927 3 17894623781773159510
19862831 5 16988849375581625489
200 152 18040437680890822481
20281475 54 18335699476741162424
20403669 9 18335422387126735351
20645477 70 18261960652093620520
20693207 138 18411987978648569485
20871999 31 18060132171769582132
21033650 10 17345467274979529644
21475661 188 9295294927860253783
21503847 285 10015587224826233150
2215653 11 18335994120820572471
22393880 68 18270401714919778758
22646028 28 17822009821766084811
23379529 103 18337102363537450271
23557571 272 18342465811427598457
23559900 14 18342464690314767368
239999 70 18334296431817483504
2871803 45 18412545409764070602
3004659 81 17917158302902628370
312423 11 17821998809591660360
312425 83 17130702971476831846
3737641 26 15431420953894996142
4259306 186 18260267451463251479
4280585 95 17473824404299217990
4463277 69 18259703397639872974
46194498 28 17987797385074533093
463206 1 18261959527071386071
474 4 11887956536052933570
633830 44 14548462508632133577
6669772 16 17753607941637485652
7064713 232 7637404055576110787
7808743 9 9077954507911980010
7970288 3 17458621246251460270
90316 7 13984663680673459611
960060 61 18343580750567079454
9709674 26 18342740689107338339

> <PUBCHEM_SHAPE_MULTIPOLES>
420.2
10.54
2.21
1.35
2.04
0.21
-0.02
5.42
-3.48
-0.51
-0.14
-0.13
0.07
1.12

> <PUBCHEM_SHAPE_SELFOVERLAP>
918.963

> <PUBCHEM_SHAPE_VOLUME>
225

> <PUBCHEM_COORDINATE_TYPE>
2
5
10

$$$$

