5489996
  -OEChem-07051212502D

 13 13  0     0  0  0  0  0  0999 V2000
    3.7321    1.3450    0.0000 O   0  0  0  0  0  0  0  0  0  0  0  0
    2.0000    0.3450    0.0000 O   0  4  0  0  0  0  0  0  0  0  0  0
    3.7321    0.3450    0.0000 C   0  0  0  0  0  0  0  0  0  0  0  0
    2.8660   -0.1550    0.0000 C   0  0  0  0  0  0  0  0  0  0  0  0
    4.5981   -0.1550    0.0000 C   0  0  0  0  0  0  0  0  0  0  0  0
    2.8660   -1.1550    0.0000 C   0  0  0  0  0  0  0  0  0  0  0  0
    4.5981   -1.1550    0.0000 C   0  0  0  0  0  0  0  0  0  0  0  0
    3.7321   -1.6550    0.0000 C   0  0  0  0  0  0  0  0  0  0  0  0
    5.1350    0.1550    0.0000 H   0  0  0  0  0  0  0  0  0  0  0  0
    2.3291   -1.4650    0.0000 H   0  0  0  0  0  0  0  0  0  0  0  0
    5.1350   -1.4650    0.0000 H   0  0  0  0  0  0  0  0  0  0  0  0
    3.7321   -2.2750    0.0000 H   0  0  0  0  0  0  0  0  0  0  0  0
    4.2690    1.6550    0.0000 H   0  0  0  0  0  0  0  0  0  0  0  0
  1  3  1  0  0  0  0
  1 13  1  0  0  0  0
  2  4  1  0  0  0  0
  3  4  1  0  0  0  0
  3  5  2  0  0  0  0
  4  6  2  0  0  0  0
  5  7  1  0  0  0  0
  5  9  1  0  0  0  0
  6  8  1  0  0  0  0
  6 10  1  0  0  0  0
  7  8  2  0  0  0  0
  7 11  1  0  0  0  0
  8 12  1  0  0  0  0
M  RAD  1   2   2
M  END
> <PUBCHEM_COMPOUND_CID>
5489996

> <PUBCHEM_COMPOUND_CANONICALIZED>
1

> <PUBCHEM_CACTVS_COMPLEXITY>
72.9

> <PUBCHEM_CACTVS_HBOND_ACCEPTOR>
1

> <PUBCHEM_CACTVS_HBOND_DONOR>
1

> <PUBCHEM_CACTVS_ROTATABLE_BOND>
0

> <PUBCHEM_CACTVS_SUBSKEYS>
AAADcYBgMAAAAAAAAAAAAAAAAAAAAAAAAAAwAAAAAAAAAAABAAAAGgAACAAACASAkAAwBoAAAgCAACBCAAACAAAgIAAIiAAGiIgJJiKCERKAcAEkwBEJmAeAQAAAAAAAAAAAQAAAAAAAAACAAAAAAAAAAA==

> <PUBCHEM_IUPAC_OPENEYE_NAME>
2-$l^{1}-oxidanylphenol

> <PUBCHEM_IUPAC_CAS_NAME>
2-$l^{1}-oxidanylphenol

> <PUBCHEM_IUPAC_NAME>
2-$l^{1}-oxidanylphenol

> <PUBCHEM_IUPAC_SYSTEMATIC_NAME>
2-$l^{1}-oxidanylphenol

> <PUBCHEM_IUPAC_TRADITIONAL_NAME>
2-$l^{1}-oxidanylphenol

> <PUBCHEM_IUPAC_INCHI>
InChI=1S/C6H5O2/c7-5-3-1-2-4-6(5)8/h1-4,7H

> <PUBCHEM_IUPAC_INCHIKEY>
KQFIBEWFMDGKRQ-UHFFFAOYSA-N

> <PUBCHEM_XLOGP3>
0.9

> <PUBCHEM_EXACT_MASS>
109.028954

> <PUBCHEM_MOLECULAR_FORMULA>
C6H5O2

> <PUBCHEM_MOLECULAR_WEIGHT>
109.1027

> <PUBCHEM_OPENEYE_CAN_SMILES>
C1=CC=C(C(=C1)O)[O]

> <PUBCHEM_OPENEYE_ISO_SMILES>
C1=CC=C(C(=C1)O)[O]

> <PUBCHEM_CACTVS_TPSA>
21.2

> <PUBCHEM_MONOISOTOPIC_WEIGHT>
109.028954

> <PUBCHEM_TOTAL_CHARGE>
0

> <PUBCHEM_HEAVY_ATOM_COUNT>
8

> <PUBCHEM_ATOM_DEF_STEREO_COUNT>
0

> <PUBCHEM_ATOM_UDEF_STEREO_COUNT>
0

> <PUBCHEM_BOND_DEF_STEREO_COUNT>
0

> <PUBCHEM_BOND_UDEF_STEREO_COUNT>
0

> <PUBCHEM_ISOTOPIC_ATOM_COUNT>
0

> <PUBCHEM_COMPONENT_COUNT>
1

> <PUBCHEM_CACTVS_TAUTO_COUNT>
6

> <PUBCHEM_COORDINATE_TYPE>
1
5
255

> <PUBCHEM_BONDANNOTATIONS>
3  4  8
3  5  8
4  6  8
5  7  8
6  8  8
7  8  8

$$$$

