5280620
  -OEChem-07051212483D

 33 37  0     1  0  0  0  0  0999 V2000
   -3.7613    0.9555    0.4008 O   0  0  0  0  0  0  0  0  0  0  0  0
   -4.7871   -1.0136   -0.4793 O   0  0  0  0  0  0  0  0  0  0  0  0
    0.3633   -1.2365    0.3084 O   0  0  0  0  0  0  0  0  0  0  0  0
    0.1721    3.5978   -0.2498 O   0  0  0  0  0  0  0  0  0  0  0  0
    2.4089    2.2568   -0.2877 O   0  0  0  0  0  0  0  0  0  0  0  0
    4.6647    0.9372   -0.3339 O   0  0  0  0  0  0  0  0  0  0  0  0
   -2.5970   -1.2000    0.5609 C   0  0  2  0  0  0  0  0  0  0  0  0
   -3.9584   -0.4693    0.5753 C   0  0  1  0  0  0  0  0  0  0  0  0
   -1.6804   -0.0577    0.3387 C   0  0  0  0  0  0  0  0  0  0  0  0
   -2.4084    1.1206    0.2669 C   0  0  0  0  0  0  0  0  0  0  0  0
   -0.2989   -0.0409    0.2195 C   0  0  0  0  0  0  0  0  0  0  0  0
   -2.7705   -2.1217   -0.5816 C   0  0  0  0  0  0  0  0  0  0  0  0
    0.3311    1.1898    0.0193 C   0  0  0  0  0  0  0  0  0  0  0  0
   -1.8013    2.3475    0.0703 C   0  0  0  0  0  0  0  0  0  0  0  0
   -3.9908   -1.9629   -1.0786 C   0  0  0  0  0  0  0  0  0  0  0  0
   -0.4117    2.3810   -0.0559 C   0  0  0  0  0  0  0  0  0  0  0  0
    1.7967    1.2141   -0.1107 C   0  0  0  0  0  0  0  0  0  0  0  0
    2.4889   -0.0807   -0.0196 C   0  0  0  0  0  0  0  0  0  0  0  0
    1.7304   -1.2331    0.1848 C   0  0  0  0  0  0  0  0  0  0  0  0
    3.8791   -0.1577   -0.1355 C   0  0  0  0  0  0  0  0  0  0  0  0
    2.3666   -2.4729    0.2742 C   0  0  0  0  0  0  0  0  0  0  0  0
    4.5092   -1.3990   -0.0455 C   0  0  0  0  0  0  0  0  0  0  0  0
    3.7548   -2.5545    0.1590 C   0  0  0  0  0  0  0  0  0  0  0  0
   -2.4024   -1.7161    1.5059 H   0  0  0  0  0  0  0  0  0  0  0  0
   -4.4827   -0.6232    1.5268 H   0  0  0  0  0  0  0  0  0  0  0  0
   -2.0357   -2.8251   -0.9424 H   0  0  0  0  0  0  0  0  0  0  0  0
   -2.3903    3.2573    0.0149 H   0  0  0  0  0  0  0  0  0  0  0  0
   -4.4464   -2.4807   -1.9037 H   0  0  0  0  0  0  0  0  0  0  0  0
    1.7882   -3.3791    0.4333 H   0  0  0  0  0  0  0  0  0  0  0  0
    1.1341    3.5056   -0.3246 H   0  0  0  0  0  0  0  0  0  0  0  0
    5.5894   -1.4842   -0.1324 H   0  0  0  0  0  0  0  0  0  0  0  0
    4.2487   -3.5194    0.2287 H   0  0  0  0  0  0  0  0  0  0  0  0
    5.5964    0.6631   -0.3852 H   0  0  0  0  0  0  0  0  0  0  0  0
  1  8  1  0  0  0  0
  1 10  1  0  0  0  0
  2  8  1  0  0  0  0
  2 15  1  0  0  0  0
  3 11  1  0  0  0  0
  3 19  1  0  0  0  0
  4 16  1  0  0  0  0
  4 30  1  0  0  0  0
  5 17  2  0  0  0  0
  6 20  1  0  0  0  0
  6 33  1  0  0  0  0
  7  8  1  0  0  0  0
  7  9  1  0  0  0  0
  7 12  1  0  0  0  0
  7 24  1  0  0  0  0
  8 25  1  0  0  0  0
  9 10  2  0  0  0  0
  9 11  1  0  0  0  0
 10 14  1  0  0  0  0
 11 13  2  0  0  0  0
 12 15  2  0  0  0  0
 12 26  1  0  0  0  0
 13 16  1  0  0  0  0
 13 17  1  0  0  0  0
 14 16  2  0  0  0  0
 14 27  1  0  0  0  0
 15 28  1  0  0  0  0
 17 18  1  0  0  0  0
 18 19  1  0  0  0  0
 18 20  2  0  0  0  0
 19 21  2  0  0  0  0
 20 22  1  0  0  0  0
 21 23  1  0  0  0  0
 21 29  1  0  0  0  0
 22 23  2  0  0  0  0
 22 31  1  0  0  0  0
 23 32  1  0  0  0  0
M  END
> <PUBCHEM_COMPOUND_CID>
5280620

> <PUBCHEM_CONFORMER_RMSD>
0.6

> <PUBCHEM_CONFORMER_DIVERSEORDER>
1

> <PUBCHEM_MMFF94_PARTIAL_CHARGES>
31
1 -0.36
10 0.08
11 0.08
12 -0.29
13 0.09
14 -0.15
15 -0.07
16 0.08
17 0.4
18 0.09
19 0.08
2 -0.36
20 0.08
21 -0.15
22 -0.15
23 -0.15
26 0.15
27 0.15
28 0.15
29 0.15
3 -0.17
30 0.45
31 0.15
32 0.15
33 0.45
4 -0.53
5 -0.57
6 -0.53
7 0.28
8 0.56
9 -0.14

> <PUBCHEM_EFFECTIVE_ROTOR_COUNT>
0.4

> <PUBCHEM_PHARMACOPHORE_FEATURES>
11
1 1 acceptor
1 2 acceptor
1 3 acceptor
1 4 donor
1 5 acceptor
1 6 donor
5 1 7 8 9 10 rings
5 2 7 8 12 15 rings
6 18 19 20 21 22 23 rings
6 3 11 13 17 18 19 rings
6 9 10 11 13 14 16 rings

> <PUBCHEM_HEAVY_ATOM_COUNT>
23

> <PUBCHEM_ATOM_DEF_STEREO_COUNT>
2

> <PUBCHEM_ATOM_UDEF_STEREO_COUNT>
0

> <PUBCHEM_BOND_DEF_STEREO_COUNT>
0

> <PUBCHEM_BOND_UDEF_STEREO_COUNT>
0

> <PUBCHEM_ISOTOPIC_ATOM_COUNT>
0

> <PUBCHEM_COMPONENT_COUNT>
1

> <PUBCHEM_CACTVS_TAUTO_COUNT>
24

> <PUBCHEM_CONFORMER_ID>
0050936C00000001

> <PUBCHEM_MMFF94_ENERGY>
75.8812

> <PUBCHEM_FEATURE_SELFOVERLAP>
56.529

> <PUBCHEM_SHAPE_FINGERPRINT>
10090160 65 18131348571236006134
10319926 262 17905352933077328618
10616163 171 18336826519183444374
10622 236 17824566092440152007
10967382 1 18339920411896663256
11578080 2 17750256775602024697
11806522 49 18411981351766927142
12236239 1 18113331995162527827
12403259 226 18337396053901875360
12553582 1 18411700984691669771
12596599 1 17895736496051379362
13004483 165 18338527442349478827
13140716 1 18338228375181338977
13224815 77 18335430079439263354
13544653 18 18343014488977536315
138480 1 14592087096932397816
14081887 123 18262533592362681424
14178342 30 17980780529837365730
14223421 5 18337394954210613552
14576447 43 18263649476216197119
14787075 74 18342455903248918952
14790565 3 17761207022320097441
15196674 1 18411417344998285072
15352361 1 18410576188564898863
15442244 35 18338233876765361034
15536298 74 18407758136263087602
16945 1 18267588098718180520
17349148 13 17989207075209384578
17357779 13 18130801048372466077
17492 89 18339641268977418506
1813 80 17632570569675667900
19141452 34 18261671579857839985
19591789 44 18337952290599425030
200 152 18334580114148986471
20291156 8 18409730672638973839
21267235 1 18410282602128696611
21634736 98 18411697677624666158
221357 26 18270134456780541095
221490 88 18125716786447168171
23184049 29 18338513161556638036
2334 1 18411979139584430801
23402539 116 18409735083618132526
23557571 272 18187357783490805030
23559900 14 18336834181789936648
2871803 45 18342178868862405290
335352 9 18123468542671088885
34934 24 18412265072990434745
46194498 28 17488189201529118135
463206 1 18339640036221155371
5104073 3 18410290354217229450
9709674 26 18340479058335630242
9981440 41 17257939191393197057

> <PUBCHEM_SHAPE_MULTIPOLES>
438.11
8.68
3.28
0.74
1.02
1.33
-0.04
-4.72
-0.71
0.28
-0.36
-0.37
-0.18
-0.87

> <PUBCHEM_SHAPE_SELFOVERLAP>
1022.009

> <PUBCHEM_SHAPE_VOLUME>
221.2

> <PUBCHEM_COORDINATE_TYPE>
2
5
10

$$$$

