13449
  -OEChem-06261214193D

 20 21  0     0  0  0  0  0  0999 V2000
    1.5051    1.4846   -2.1434 Cl  0  0  0  0  0  0  0  0  0  0  0  0
   -1.8338   -2.6032   -0.7818 F   0  0  0  0  0  0  0  0  0  0  0  0
   -4.3009    1.0734    0.3551 F   0  0  0  0  0  0  0  0  0  0  0  0
    0.2888    1.2372    0.5948 O   0  0  0  0  0  0  0  0  0  0  0  0
   -2.0226    1.2097    0.4926 N   0  0  0  0  0  0  0  0  0  0  0  0
   -0.7275   -0.7203   -0.1042 N   0  0  0  0  0  0  0  0  0  0  0  0
   -3.1227   -0.7979   -0.2265 N   0  0  0  0  0  0  0  0  0  0  0  0
    1.4721    0.5827    0.4225 C   0  0  0  0  0  0  0  0  0  0  0  0
    2.1457    0.6150   -0.7984 C   0  0  0  0  0  0  0  0  0  0  0  0
    2.0086   -0.1274    1.4966 C   0  0  0  0  0  0  0  0  0  0  0  0
    3.3559   -0.0628   -0.9453 C   0  0  0  0  0  0  0  0  0  0  0  0
    3.2188   -0.8053    1.3496 C   0  0  0  0  0  0  0  0  0  0  0  0
    3.8924   -0.7731    0.1286 C   0  0  0  0  0  0  0  0  0  0  0  0
   -0.8751    0.5430    0.3144 C   0  0  0  0  0  0  0  0  0  0  0  0
   -1.8968   -1.3303   -0.3564 C   0  0  0  0  0  0  0  0  0  0  0  0
   -3.1080    0.4746    0.2018 C   0  0  0  0  0  0  0  0  0  0  0  0
    1.4912   -0.1565    2.4518 H   0  0  0  0  0  0  0  0  0  0  0  0
    3.8929   -0.0475   -1.8904 H   0  0  0  0  0  0  0  0  0  0  0  0
    3.6368   -1.3580    2.1859 H   0  0  0  0  0  0  0  0  0  0  0  0
    4.8346   -1.3011    0.0143 H   0  0  0  0  0  0  0  0  0  0  0  0
  1  9  1  0  0  0  0
  2 15  1  0  0  0  0
  3 16  1  0  0  0  0
  4  8  1  0  0  0  0
  4 14  1  0  0  0  0
  5 14  2  0  0  0  0
  5 16  1  0  0  0  0
  6 14  1  0  0  0  0
  6 15  2  0  0  0  0
  7 15  1  0  0  0  0
  7 16  2  0  0  0  0
  8  9  1  0  0  0  0
  8 10  2  0  0  0  0
  9 11  2  0  0  0  0
 10 12  1  0  0  0  0
 10 17  1  0  0  0  0
 11 13  1  0  0  0  0
 11 18  1  0  0  0  0
 12 13  2  0  0  0  0
 12 19  1  0  0  0  0
 13 20  1  0  0  0  0
M  END
> <PUBCHEM_COMPOUND_CID>
13449

> <PUBCHEM_CONFORMER_RMSD>
0.6

> <PUBCHEM_CONFORMER_DIVERSEORDER>
1
7
5
6
2
3
4

> <PUBCHEM_MMFF94_PARTIAL_CHARGES>
20
1 -0.18
10 -0.15
11 -0.15
12 -0.15
13 -0.15
14 0.7
15 0.81
16 0.81
17 0.15
18 0.15
19 0.15
2 -0.19
20 0.15
3 -0.19
4 -0.17
5 -0.62
6 -0.62
7 -0.62
8 0.08
9 0.18

> <PUBCHEM_EFFECTIVE_ROTOR_COUNT>
2

> <PUBCHEM_PHARMACOPHORE_FEATURES>
5
3 5 6 14 cation
3 5 7 16 cation
3 6 7 15 cation
6 5 6 7 14 15 16 rings
6 8 9 10 11 12 13 rings

> <PUBCHEM_HEAVY_ATOM_COUNT>
16

> <PUBCHEM_ATOM_DEF_STEREO_COUNT>
0

> <PUBCHEM_ATOM_UDEF_STEREO_COUNT>
0

> <PUBCHEM_BOND_DEF_STEREO_COUNT>
0

> <PUBCHEM_BOND_UDEF_STEREO_COUNT>
0

> <PUBCHEM_ISOTOPIC_ATOM_COUNT>
0

> <PUBCHEM_COMPONENT_COUNT>
1

> <PUBCHEM_CACTVS_TAUTO_COUNT>
1

> <PUBCHEM_CONFORMER_ID>
0000348900000001

> <PUBCHEM_MMFF94_ENERGY>
41.33

> <PUBCHEM_FEATURE_SELFOVERLAP>
28.159

> <PUBCHEM_SHAPE_FINGERPRINT>
11031198 65 15984814931114950166
11471102 22 15357695310301670200
11578080 2 17913805836099653348
12236239 1 18201716280062814312
12346177 29 17895206480234140839
124424 183 17167864188099345186
12500047 106 18114186353787402454
12932764 1 18131641070771474796
13538477 17 18412261709767213321
14115302 16 18335976523680326756
15207287 21 17022903492508424004
15375358 24 17240486913770524528
16752209 62 18337118972402259001
16945 1 18337123357257789640
18186145 218 17131835347861689448
18522853 266 18334574611953119062
18522853 295 18187639210959040355
19049666 15 16444452680088343472
19422 9 18131345272342433307
20201158 50 16732977652325875006
20279233 1 17022903453843103470
20361792 2 17632028506501472046
20645476 183 18130497553156775279
21639500 275 16845006793559591548
2255824 54 17703503299421313916
232386 152 18334016055909250094
23402539 116 17677062342528420593
23559900 14 18040149635336711932
23598291 2 18131346384448748021
25 1 16558455401939326268
465052 167 18201141180116521915
474 4 17487327141411073068
69090 78 16443357485150593981
7364860 26 18116998775978082216
74978 22 18335423413518105617
77492 1 18201998837197197208
81228 2 16662305485794121224
8272917 22 17416966325710739313
84936 182 17984968307376570812

> <PUBCHEM_SHAPE_MULTIPOLES>
295.78
6.72
1.66
1.37
2.17
0.21
0.19
-0.9
-0.21
-0.29
0.71
-0.16
-0.07
-1.54

> <PUBCHEM_SHAPE_SELFOVERLAP>
632.418

> <PUBCHEM_SHAPE_VOLUME>
164

> <PUBCHEM_COORDINATE_TYPE>
2
5
10

$$$$

