9849230
  -OEChem-07051213073D

 59 61  0     1  0  0  0  0  0999 V2000
   -1.0095    0.3340   -1.1206 S   0  0  1  0  0  0  0  0  0  0  0  0
   -1.5159   -1.5776   -1.6394 S   0  0  0  0  0  0  0  0  0  0  0  0
    1.0996   -4.1926   -0.1452 S   0  0  0  0  0  0  0  0  0  0  0  0
   -4.2084    0.2652   -1.6508 O   0  0  0  0  0  0  0  0  0  0  0  0
   -1.3104    1.0052   -2.4281 O   0  0  0  0  0  0  0  0  0  0  0  0
   -3.7136   -2.6770   -0.7528 O   0  0  0  0  0  0  0  0  0  0  0  0
   -2.2363   -1.9855    2.0799 O   0  0  0  0  0  0  0  0  0  0  0  0
    2.5059    4.4951    0.9219 O   0  0  0  0  0  0  0  0  0  0  0  0
    3.3153    2.0059    1.5712 O   0  0  0  0  0  0  0  0  0  0  0  0
   -0.0921   -1.1551    1.7480 N   0  0  0  0  0  0  0  0  0  0  0  0
    2.2176   -1.8822    0.0874 N   0  0  0  0  0  0  0  0  0  0  0  0
   -2.4382    0.6584    0.0523 C   0  0  2  0  0  0  0  0  0  0  0  0
   -3.6147   -0.2571   -0.4541 C   0  0  2  0  0  0  0  0  0  0  0  0
   -2.8463    2.1726   -0.0656 C   0  0  0  0  0  0  0  0  0  0  0  0
   -1.9782    0.3455    1.5070 C   0  0  0  0  0  0  0  0  0  0  0  0
   -3.0968   -1.6270   -0.8726 C   0  0  0  0  0  0  0  0  0  0  0  0
   -1.9596    3.2556    0.5867 C   0  0  0  0  0  0  0  0  0  0  0  0
   -4.7715   -0.4031    0.5403 C   0  0  0  0  0  0  0  0  0  0  0  0
   -1.4747   -1.0607    1.8086 C   0  0  0  0  0  0  0  0  0  0  0  0
   -0.6056    3.5113   -0.0466 C   0  0  0  0  0  0  0  0  0  0  0  0
    0.6466   -2.3963    1.9508 C   0  0  2  0  0  0  0  0  0  0  0  0
   -0.6465    4.2054   -1.3819 C   0  0  0  0  0  0  0  0  0  0  0  0
    0.5250    3.2071    0.6230 C   0  0  0  0  0  0  0  0  0  0  0  0
    1.9402    3.4218    0.1803 C   0  0  2  0  0  0  0  0  0  0  0  0
    1.6223   -2.2448    3.1128 C   0  0  0  0  0  0  0  0  0  0  0  0
    1.3674   -2.7016    0.6712 C   0  0  0  0  0  0  0  0  0  0  0  0
    2.7564    2.1732    0.4884 C   0  0  0  0  0  0  0  0  0  0  0  0
    2.6770   -2.4404   -1.0867 C   0  0  0  0  0  0  0  0  0  0  0  0
    2.1768   -3.6929   -1.3811 C   0  0  0  0  0  0  0  0  0  0  0  0
    2.8658    1.1628   -0.6006 C   0  0  0  0  0  0  0  0  0  0  0  0
    3.6342   -1.7638   -1.9041 C   0  0  0  0  0  0  0  0  0  0  0  0
    3.9642    0.3992   -0.6740 C   0  0  0  0  0  0  0  0  0  0  0  0
    4.2040   -0.5609   -1.7255 C   0  0  0  0  0  0  0  0  0  0  0  0
   -3.0066    2.4423   -1.1170 H   0  0  0  0  0  0  0  0  0  0  0  0
   -3.8293    2.2849    0.4102 H   0  0  0  0  0  0  0  0  0  0  0  0
   -1.1718    1.0254    1.7996 H   0  0  0  0  0  0  0  0  0  0  0  0
   -2.7931    0.5534    2.2117 H   0  0  0  0  0  0  0  0  0  0  0  0
   -1.8608    3.0574    1.6604 H   0  0  0  0  0  0  0  0  0  0  0  0
   -2.5171    4.2024    0.5460 H   0  0  0  0  0  0  0  0  0  0  0  0
   -4.4754   -0.9078    1.4628 H   0  0  0  0  0  0  0  0  0  0  0  0
   -5.2019    0.5695    0.7991 H   0  0  0  0  0  0  0  0  0  0  0  0
   -5.5934   -0.9878    0.1085 H   0  0  0  0  0  0  0  0  0  0  0  0
   -4.9548   -0.3051   -1.9028 H   0  0  0  0  0  0  0  0  0  0  0  0
    0.4486   -0.3276    1.5119 H   0  0  0  0  0  0  0  0  0  0  0  0
   -0.0651   -3.1931    2.1953 H   0  0  0  0  0  0  0  0  0  0  0  0
    0.3394    4.4662   -1.7709 H   0  0  0  0  0  0  0  0  0  0  0  0
   -1.1389    3.5818   -2.1320 H   0  0  0  0  0  0  0  0  0  0  0  0
   -1.2101    5.1410   -1.2977 H   0  0  0  0  0  0  0  0  0  0  0  0
    0.4211    2.7665    1.6142 H   0  0  0  0  0  0  0  0  0  0  0  0
    2.0387    3.6590   -0.8814 H   0  0  0  0  0  0  0  0  0  0  0  0
    2.1933   -3.1665    3.2697 H   0  0  0  0  0  0  0  0  0  0  0  0
    2.3381   -1.4330    2.9371 H   0  0  0  0  0  0  0  0  0  0  0  0
    1.0859   -2.0136    4.0396 H   0  0  0  0  0  0  0  0  0  0  0  0
    3.3933    4.6639    0.5614 H   0  0  0  0  0  0  0  0  0  0  0  0
    2.3894   -4.3299   -2.2287 H   0  0  0  0  0  0  0  0  0  0  0  0
    2.0783    1.1220   -1.3436 H   0  0  0  0  0  0  0  0  0  0  0  0
    3.9809   -2.3165   -2.7776 H   0  0  0  0  0  0  0  0  0  0  0  0
    4.7792    0.5199    0.0344 H   0  0  0  0  0  0  0  0  0  0  0  0
    4.9752   -0.2573   -2.4318 H   0  0  0  0  0  0  0  0  0  0  0  0
  1  2  1  0  0  0  0
  1  5  2  0  0  0  0
  1 12  1  0  0  0  0
  2 16  1  0  0  0  0
  3 26  1  0  0  0  0
  3 29  1  0  0  0  0
  4 13  1  0  0  0  0
  4 43  1  0  0  0  0
  6 16  2  0  0  0  0
  7 19  2  0  0  0  0
  8 24  1  0  0  0  0
  8 54  1  0  0  0  0
  9 27  2  0  0  0  0
 10 19  1  0  0  0  0
 10 21  1  0  0  0  0
 10 44  1  0  0  0  0
 11 26  2  0  0  0  0
 11 28  1  0  0  0  0
 12 13  1  0  0  0  0
 12 14  1  0  0  0  0
 12 15  1  0  0  0  0
 13 16  1  0  0  0  0
 13 18  1  0  0  0  0
 14 17  1  0  0  0  0
 14 34  1  0  0  0  0
 14 35  1  0  0  0  0
 15 19  1  0  0  0  0
 15 36  1  0  0  0  0
 15 37  1  0  0  0  0
 17 20  1  0  0  0  0
 17 38  1  0  0  0  0
 17 39  1  0  0  0  0
 18 40  1  0  0  0  0
 18 41  1  0  0  0  0
 18 42  1  0  0  0  0
 20 22  1  0  0  0  0
 20 23  2  0  0  0  0
 21 25  1  0  0  0  0
 21 26  1  0  0  0  0
 21 45  1  0  0  0  0
 22 46  1  0  0  0  0
 22 47  1  0  0  0  0
 22 48  1  0  0  0  0
 23 24  1  0  0  0  0
 23 49  1  0  0  0  0
 24 27  1  0  0  0  0
 24 50  1  0  0  0  0
 25 51  1  0  0  0  0
 25 52  1  0  0  0  0
 25 53  1  0  0  0  0
 27 30  1  0  0  0  0
 28 29  2  0  0  0  0
 28 31  1  0  0  0  0
 29 55  1  0  0  0  0
 30 32  2  0  0  0  0
 30 56  1  0  0  0  0
 31 33  2  0  0  0  0
 31 57  1  0  0  0  0
 32 33  1  0  0  0  0
 32 58  1  0  0  0  0
 33 59  1  0  0  0  0
M  END
> <PUBCHEM_COMPOUND_CID>
9849230

> <PUBCHEM_CONFORMER_RMSD>
0.6

> <PUBCHEM_CONFORMER_DIVERSEORDER>
2
1

> <PUBCHEM_MMFF94_PARTIAL_CHARGES>
39
1 0.35
10 -0.73
11 -0.57
12 0.19
13 0.34
15 0.06
16 0.65
17 0.14
19 0.57
2 -0.19
20 -0.28
21 0.48
22 0.14
23 -0.29
24 0.48
26 0.2
27 0.49
28 0.18
29 -0.11
3 -0.08
30 -0.14
31 -0.1
32 -0.15
33 -0.15
4 -0.68
43 0.4
44 0.37
49 0.15
5 -0.5
54 0.4
55 0.15
56 0.15
57 0.15
58 0.15
59 0.15
6 -0.57
7 -0.57
8 -0.68
9 -0.57

> <PUBCHEM_EFFECTIVE_ROTOR_COUNT>
1.6

> <PUBCHEM_PHARMACOPHORE_FEATURES>
10
1 10 donor
1 11 acceptor
1 4 acceptor
1 4 donor
1 7 acceptor
1 8 acceptor
1 8 donor
1 9 acceptor
5 1 2 12 13 16 rings
5 3 11 26 28 29 rings

> <PUBCHEM_HEAVY_ATOM_COUNT>
33

> <PUBCHEM_ATOM_DEF_STEREO_COUNT>
4

> <PUBCHEM_ATOM_UDEF_STEREO_COUNT>
1

> <PUBCHEM_BOND_DEF_STEREO_COUNT>
3

> <PUBCHEM_BOND_UDEF_STEREO_COUNT>
0

> <PUBCHEM_ISOTOPIC_ATOM_COUNT>
0

> <PUBCHEM_COMPONENT_COUNT>
1

> <PUBCHEM_CACTVS_TAUTO_COUNT>
46

> <PUBCHEM_CONFORMER_ID>
0096498E00000002

> <PUBCHEM_MMFF94_ENERGY>
62.9339

> <PUBCHEM_FEATURE_SELFOVERLAP>
50.75

> <PUBCHEM_SHAPE_FINGERPRINT>
10816530 90 17764042646324400581
11578080 2 17099205305057558314
12788726 201 18054224599062725763
13122387 1 17257928720262376564
1361 2 17903076638257460207
13761468 95 15824648337784463486
14117953 113 16677520150158524158
14279260 333 17477738635930003894
14725015 67 18341902861510977272
19319366 153 17555156314027605931
19930381 70 18263362499480962079
20764821 26 18197477572643703300
20775438 99 17760133774685615813
21857420 4 16818906698266650317
238 59 18338233752591228010
25265897 201 17467106314836960690
35225 105 17557449607894825262
463206 1 18265884925326613664
5895379 119 17619351352282488674

> <PUBCHEM_SHAPE_MULTIPOLES>
645.5
7.12
6.05
2.3
0.11
4.85
0.83
-2.27
-2.61
1.27
0.68
0.73
-1.22
0.35

> <PUBCHEM_SHAPE_SELFOVERLAP>
1312.22

> <PUBCHEM_SHAPE_VOLUME>
374.9

> <PUBCHEM_COORDINATE_TYPE>
2
5
10

$$$$

