5280889
  -OEChem-07051212513D

 58 58  0     1  0  0  0  0  0999 V2000
    4.6402   -1.9109    1.0496 O   0  0  0  0  0  0  0  0  0  0  0  0
    3.9189    2.5400   -0.2696 O   0  0  0  0  0  0  0  0  0  0  0  0
    0.9738    2.4850   -2.0550 O   0  0  0  0  0  0  0  0  0  0  0  0
    0.4756   -4.8697    0.4958 O   0  0  0  0  0  0  0  0  0  0  0  0
   -4.4135    1.0421    2.1387 O   0  0  0  0  0  0  0  0  0  0  0  0
   -2.2303    0.6688    1.6428 O   0  0  0  0  0  0  0  0  0  0  0  0
    2.6811   -0.7289    0.2556 C   0  0  2  0  0  0  0  0  0  0  0  0
    2.4490    0.6163   -0.4493 C   0  0  2  0  0  0  0  0  0  0  0  0
    4.1845   -0.9810    0.0799 C   0  0  1  0  0  0  0  0  0  0  0  0
    4.8304    0.3846    0.3028 C   0  0  0  0  0  0  0  0  0  0  0  0
    3.7503    1.3327   -0.1503 C   0  0  0  0  0  0  0  0  0  0  0  0
    1.2374    1.3687    0.0720 C   0  0  0  0  0  0  0  0  0  0  0  0
    1.8367   -1.8268   -0.3078 C   0  0  0  0  0  0  0  0  0  0  0  0
    0.8323    2.5193   -0.8328 C   0  0  0  0  0  0  0  0  0  0  0  0
    0.9652   -2.5446    0.4158 C   0  0  0  0  0  0  0  0  0  0  0  0
    0.2010    3.7217   -0.1596 C   0  0  0  0  0  0  0  0  0  0  0  0
    0.1195   -3.6484   -0.1547 C   0  0  2  0  0  0  0  0  0  0  0  0
   -1.3824   -3.4276    0.0713 C   0  0  0  0  0  0  0  0  0  0  0  0
   -1.0522    3.3093    0.6049 C   0  0  0  0  0  0  0  0  0  0  0  0
   -1.9890   -2.3871   -0.8747 C   0  0  0  0  0  0  0  0  0  0  0  0
   -2.1685    2.7693   -0.2961 C   0  0  0  0  0  0  0  0  0  0  0  0
   -3.4700   -2.1065   -0.5998 C   0  0  0  0  0  0  0  0  0  0  0  0
   -4.0970   -1.1211   -1.5868 C   0  0  0  0  0  0  0  0  0  0  0  0
   -3.4586    2.3877    0.4310 C   0  0  0  0  0  0  0  0  0  0  0  0
   -5.5622   -0.8696   -1.2634 C   0  0  0  0  0  0  0  0  0  0  0  0
   -3.2720    1.2767    1.4398 C   0  0  0  0  0  0  0  0  0  0  0  0
    2.4711   -0.6236    1.3309 H   0  0  0  0  0  0  0  0  0  0  0  0
    2.4046    0.4731   -1.5368 H   0  0  0  0  0  0  0  0  0  0  0  0
    4.4172   -1.3655   -0.9210 H   0  0  0  0  0  0  0  0  0  0  0  0
    5.0630    0.5655    1.3563 H   0  0  0  0  0  0  0  0  0  0  0  0
    5.7304    0.5018   -0.3059 H   0  0  0  0  0  0  0  0  0  0  0  0
    1.4514    1.7675    1.0707 H   0  0  0  0  0  0  0  0  0  0  0  0
    0.3696    0.7046    0.1486 H   0  0  0  0  0  0  0  0  0  0  0  0
    1.9456   -2.0420   -1.3684 H   0  0  0  0  0  0  0  0  0  0  0  0
    5.6055   -1.9800    0.9548 H   0  0  0  0  0  0  0  0  0  0  0  0
    0.8555   -2.3377    1.4777 H   0  0  0  0  0  0  0  0  0  0  0  0
    0.9403    4.1646    0.5163 H   0  0  0  0  0  0  0  0  0  0  0  0
   -0.0405    4.4706   -0.9218 H   0  0  0  0  0  0  0  0  0  0  0  0
    0.3111   -3.7901   -1.2249 H   0  0  0  0  0  0  0  0  0  0  0  0
   -1.9106   -4.3805   -0.0660 H   0  0  0  0  0  0  0  0  0  0  0  0
   -1.5667   -3.1395    1.1147 H   0  0  0  0  0  0  0  0  0  0  0  0
   -0.7901    2.5886    1.3839 H   0  0  0  0  0  0  0  0  0  0  0  0
   -1.4329    4.1938    1.1315 H   0  0  0  0  0  0  0  0  0  0  0  0
   -1.8728   -2.7330   -1.9092 H   0  0  0  0  0  0  0  0  0  0  0  0
   -1.4345   -1.4444   -0.7919 H   0  0  0  0  0  0  0  0  0  0  0  0
   -2.4111    3.5255   -1.0529 H   0  0  0  0  0  0  0  0  0  0  0  0
   -1.8055    1.8886   -0.8400 H   0  0  0  0  0  0  0  0  0  0  0  0
   -3.5775   -1.7200    0.4209 H   0  0  0  0  0  0  0  0  0  0  0  0
   -4.0245   -3.0526   -0.6378 H   0  0  0  0  0  0  0  0  0  0  0  0
    1.4172   -5.0357    0.3170 H   0  0  0  0  0  0  0  0  0  0  0  0
   -4.0143   -1.5145   -2.6064 H   0  0  0  0  0  0  0  0  0  0  0  0
   -3.5506   -0.1718   -1.5609 H   0  0  0  0  0  0  0  0  0  0  0  0
   -3.8508    3.2654    0.9567 H   0  0  0  0  0  0  0  0  0  0  0  0
   -4.2018    2.0566   -0.3023 H   0  0  0  0  0  0  0  0  0  0  0  0
   -6.1408   -1.7972   -1.3177 H   0  0  0  0  0  0  0  0  0  0  0  0
   -5.6765   -0.4513   -0.2584 H   0  0  0  0  0  0  0  0  0  0  0  0
   -5.9906   -0.1592   -1.9773 H   0  0  0  0  0  0  0  0  0  0  0  0
   -4.2952    0.3295    2.8023 H   0  0  0  0  0  0  0  0  0  0  0  0
  1  9  1  0  0  0  0
  1 35  1  0  0  0  0
  2 11  2  0  0  0  0
  3 14  2  0  0  0  0
  4 17  1  0  0  0  0
  4 50  1  0  0  0  0
  5 26  1  0  0  0  0
  5 58  1  0  0  0  0
  6 26  2  0  0  0  0
  7  8  1  0  0  0  0
  7  9  1  0  0  0  0
  7 13  1  0  0  0  0
  7 27  1  0  0  0  0
  8 11  1  0  0  0  0
  8 12  1  0  0  0  0
  8 28  1  0  0  0  0
  9 10  1  0  0  0  0
  9 29  1  0  0  0  0
 10 11  1  0  0  0  0
 10 30  1  0  0  0  0
 10 31  1  0  0  0  0
 12 14  1  0  0  0  0
 12 32  1  0  0  0  0
 12 33  1  0  0  0  0
 13 15  2  0  0  0  0
 13 34  1  0  0  0  0
 14 16  1  0  0  0  0
 15 17  1  0  0  0  0
 15 36  1  0  0  0  0
 16 19  1  0  0  0  0
 16 37  1  0  0  0  0
 16 38  1  0  0  0  0
 17 18  1  0  0  0  0
 17 39  1  0  0  0  0
 18 20  1  0  0  0  0
 18 40  1  0  0  0  0
 18 41  1  0  0  0  0
 19 21  1  0  0  0  0
 19 42  1  0  0  0  0
 19 43  1  0  0  0  0
 20 22  1  0  0  0  0
 20 44  1  0  0  0  0
 20 45  1  0  0  0  0
 21 24  1  0  0  0  0
 21 46  1  0  0  0  0
 21 47  1  0  0  0  0
 22 23  1  0  0  0  0
 22 48  1  0  0  0  0
 22 49  1  0  0  0  0
 23 25  1  0  0  0  0
 23 51  1  0  0  0  0
 23 52  1  0  0  0  0
 24 26  1  0  0  0  0
 24 53  1  0  0  0  0
 24 54  1  0  0  0  0
 25 55  1  0  0  0  0
 25 56  1  0  0  0  0
 25 57  1  0  0  0  0
M  END
> <PUBCHEM_COMPOUND_CID>
5280889

> <PUBCHEM_CONFORMER_RMSD>
1.2

> <PUBCHEM_CONFORMER_DIVERSEORDER>
1
128
29
37
36
98
69
126
138
83
165
116
149
39
153
122
114
19
72
154
77
54
108
73
140
28
130
170
7
136
117
2
52
162
182
31
145
137
139
67
110
66
65
86
175
45
169
183
187
180
64
118
146
3
48
49
185
172
82
121
104
120
56
141
41
46
18
5
134
99
58
142
32
135
159
9
178
160
174
68
150
103
184
166
70
88
151
112
50
61
161
51
176
71
115
59
12
177
132
14
44
129
158
89
42
8
167
133
147
106
26
84
156
155
4
75
85
33
123
97
181
80
111
35
57
168
23
186
91
76
173
53
90
94
109
22
144
107
79
113
25
60
81
78
179
62
148
95
27
17
143
43
119
30
13
100
124
34
131
101
47
164
163
6
93
157
171
102
24
16
105
96
38
63
55
20
125
87
74
11
10
127
40
15
92
152
21

> <PUBCHEM_MMFF94_PARTIAL_CHARGES>
24
1 -0.68
10 0.06
11 0.45
12 0.06
13 -0.29
14 0.45
15 -0.29
16 0.06
17 0.42
2 -0.57
24 0.06
26 0.66
3 -0.57
34 0.15
35 0.4
36 0.15
4 -0.68
5 -0.65
50 0.4
58 0.5
6 -0.57
7 0.14
8 0.06
9 0.28

> <PUBCHEM_EFFECTIVE_ROTOR_COUNT>
13.8

> <PUBCHEM_PHARMACOPHORE_FEATURES>
13
1 1 acceptor
1 1 donor
1 2 acceptor
1 25 hydrophobe
1 3 acceptor
1 4 acceptor
1 4 donor
1 5 acceptor
1 6 acceptor
3 5 6 26 anion
4 16 19 21 24 hydrophobe
4 18 20 22 23 hydrophobe
5 7 8 9 10 11 rings

> <PUBCHEM_HEAVY_ATOM_COUNT>
26

> <PUBCHEM_ATOM_DEF_STEREO_COUNT>
4

> <PUBCHEM_ATOM_UDEF_STEREO_COUNT>
0

> <PUBCHEM_BOND_DEF_STEREO_COUNT>
1

> <PUBCHEM_BOND_UDEF_STEREO_COUNT>
0

> <PUBCHEM_ISOTOPIC_ATOM_COUNT>
0

> <PUBCHEM_COMPONENT_COUNT>
1

> <PUBCHEM_CACTVS_TAUTO_COUNT>
9

> <PUBCHEM_CONFORMER_ID>
0050947900000001

> <PUBCHEM_MMFF94_ENERGY>
24.354

> <PUBCHEM_FEATURE_SELFOVERLAP>
66.025

> <PUBCHEM_SHAPE_FINGERPRINT>
10708813 3 18336829805197013703
1100329 8 18194688064294114855
12539773 59 17388277885704587221
12788726 201 18187920612974223429
13122387 1 18194118753499090927
13140716 1 18411139168957436370
1361 2 17330289766952262469
14464042 87 18187930534797011679
14866123 147 18338803446113367562
15322687 12 18123768456617660631
19591789 44 17834107920691316702
19930381 70 14806574315278913685
20028762 73 18261962941681039470
20775438 99 15951651169309813847
21796203 349 17909224179520121216
463206 1 18410007720111343337
6438718 38 17895467034003081606
9709674 26 17621594347001598048

> <PUBCHEM_SHAPE_MULTIPOLES>
499.85
9.39
5.89
1.36
1.19
2.24
0.12
0.4
0.02
1.11
0.1
1.52
-0.48
-2.32

> <PUBCHEM_SHAPE_SELFOVERLAP>
984.012

> <PUBCHEM_SHAPE_VOLUME>
298.7

> <PUBCHEM_COORDINATE_TYPE>
2
5
10

$$$$

