12517
  -OEChem-06261207022D

 12 12  0     0  0  0  0  0  0999 V2000
    6.0010   -1.6550    0.0000 S   0  0  0  0  0  0  0  0  0  0  0  0
    2.5369   -1.6550    0.0000 S   0  0  0  0  0  0  0  0  0  0  0  0
    4.2690    1.3450    0.0000 S   0  0  0  0  0  0  0  0  0  0  0  0
    4.2690   -1.6550    0.0000 N   0  0  0  0  0  0  0  0  0  0  0  0
    5.1350   -0.1550    0.0000 N   0  0  0  0  0  0  0  0  0  0  0  0
    3.4030   -0.1550    0.0000 N   0  0  0  0  0  0  0  0  0  0  0  0
    5.1350   -1.1550    0.0000 C   0  0  0  0  0  0  0  0  0  0  0  0
    3.4030   -1.1550    0.0000 C   0  0  0  0  0  0  0  0  0  0  0  0
    4.2690    0.3450    0.0000 C   0  0  0  0  0  0  0  0  0  0  0  0
    6.5380   -1.3450    0.0000 H   0  0  0  0  0  0  0  0  0  0  0  0
    2.0000   -1.3450    0.0000 H   0  0  0  0  0  0  0  0  0  0  0  0
    4.8059    1.6550    0.0000 H   0  0  0  0  0  0  0  0  0  0  0  0
  1  7  1  0  0  0  0
  1 10  1  0  0  0  0
  2  8  1  0  0  0  0
  2 11  1  0  0  0  0
  3  9  1  0  0  0  0
  3 12  1  0  0  0  0
  4  7  2  0  0  0  0
  4  8  1  0  0  0  0
  5  7  1  0  0  0  0
  5  9  2  0  0  0  0
  6  8  2  0  0  0  0
  6  9  1  0  0  0  0
M  END
> <PUBCHEM_COMPOUND_CID>
12517

> <PUBCHEM_COMPOUND_CANONICALIZED>
1

> <PUBCHEM_CACTVS_COMPLEXITY>
69.3

> <PUBCHEM_CACTVS_HBOND_ACCEPTOR>
6

> <PUBCHEM_CACTVS_HBOND_DONOR>
3

> <PUBCHEM_CACTVS_ROTATABLE_BOND>
0

> <PUBCHEM_CACTVS_SUBSKEYS>
AAADcQBDAABgAAAAAAAAAAAAAAAAAAAAAAAsAAAAAAAAAAABgAAABAQAAAAAAAAAAAABEAYIEAQgAAAAJAEAUAkAAIABAAAAAACACAAAAAAAAAAIAAAAAAAAAAAAAAAAAAAAAAAAAAAAAAAAAAAAAAAAAA==

> <PUBCHEM_IUPAC_OPENEYE_NAME>
1,3,5-triazine-2,4,6-trithiol

> <PUBCHEM_IUPAC_CAS_NAME>
1,3,5-triazine-2,4,6-trithiol

> <PUBCHEM_IUPAC_NAME>
1,3,5-triazine-2,4,6-trithiol

> <PUBCHEM_IUPAC_SYSTEMATIC_NAME>
1,3,5-triazine-2,4,6-trithiol

> <PUBCHEM_IUPAC_TRADITIONAL_NAME>
s-triazine-2,4,6-trithiol

> <PUBCHEM_IUPAC_INCHI>
InChI=1S/C3H3N3S3/c7-1-4-2(8)6-3(9)5-1/h(H3,4,5,6,7,8,9)

> <PUBCHEM_IUPAC_INCHIKEY>
WZRRRFSJFQTGGB-UHFFFAOYSA-N

> <PUBCHEM_XLOGP3_AA>
1.4

> <PUBCHEM_EXACT_MASS>
176.94891

> <PUBCHEM_MOLECULAR_FORMULA>
C3H3N3S3

> <PUBCHEM_MOLECULAR_WEIGHT>
177.27102

> <PUBCHEM_OPENEYE_CAN_SMILES>
C1(=NC(=NC(=N1)S)S)S

> <PUBCHEM_OPENEYE_ISO_SMILES>
C1(=NC(=NC(=N1)S)S)S

> <PUBCHEM_CACTVS_TPSA>
41.7

> <PUBCHEM_MONOISOTOPIC_WEIGHT>
176.94891

> <PUBCHEM_TOTAL_CHARGE>
0

> <PUBCHEM_HEAVY_ATOM_COUNT>
9

> <PUBCHEM_ATOM_DEF_STEREO_COUNT>
0

> <PUBCHEM_ATOM_UDEF_STEREO_COUNT>
0

> <PUBCHEM_BOND_DEF_STEREO_COUNT>
0

> <PUBCHEM_BOND_UDEF_STEREO_COUNT>
0

> <PUBCHEM_ISOTOPIC_ATOM_COUNT>
0

> <PUBCHEM_COMPONENT_COUNT>
1

> <PUBCHEM_CACTVS_TAUTO_COUNT>
5

> <PUBCHEM_COORDINATE_TYPE>
1
5
255

> <PUBCHEM_BONDANNOTATIONS>
4  7  8
4  8  8
5  7  8
5  9  8
6  8  8
6  9  8

$$$$

