5281737
  -OEChem-07051212592D

 38 39  0     1  0  0  0  0  0999 V2000
    3.9020    2.0061    0.0000 O   0  0  0  0  0  0  0  0  0  0  0  0
    4.2026    0.0381    0.0000 O   0  0  0  0  0  0  0  0  0  0  0  0
    4.5628   -1.6561    0.0000 O   0  0  0  0  0  0  0  0  0  0  0  0
    6.4408    2.5061    0.0000 N   0  0  3  0  0  0  0  0  0  0  0  0
    6.4408    1.5061    0.0000 C   0  0  1  0  0  0  0  0  0  0  0  0
    5.4898    1.1970    0.0000 C   0  0  2  0  0  0  0  0  0  0  0  0
    4.9020    2.0061    0.0000 C   0  0  2  0  0  0  0  0  0  0  0  0
    7.3871    1.2013    0.0000 C   0  0  0  0  0  0  0  0  0  0  0  0
    5.4898    2.8151    0.0000 C   0  0  0  0  0  0  0  0  0  0  0  0
    7.3871    2.8108    0.0000 C   0  0  0  0  0  0  0  0  0  0  0  0
    7.9707    2.0061    0.0000 C   0  0  0  0  0  0  0  0  0  0  0  0
    5.1808    0.2460    0.0000 C   0  0  0  0  0  0  0  0  0  0  0  0
    3.8936   -0.9130    0.0000 C   0  0  0  0  0  0  0  0  0  0  0  0
    2.9155   -1.1209    0.0000 C   0  0  0  0  0  0  0  0  0  0  0  0
    2.2463   -0.3777    0.0000 C   0  0  0  0  0  0  0  0  0  0  0  0
    2.6064   -2.0719    0.0000 C   0  0  0  0  0  0  0  0  0  0  0  0
    3.2756   -2.8151    0.0000 C   0  0  0  0  0  0  0  0  0  0  0  0
    6.4420    0.6561    0.0000 H   0  0  0  0  0  0  0  0  0  0  0  0
    4.8774    1.1001    0.0000 H   0  0  0  0  0  0  0  0  0  0  0  0
    4.6205    2.5585    0.0000 H   0  0  0  0  0  0  0  0  0  0  0  0
    7.1360    0.6344    0.0000 H   0  0  0  0  0  0  0  0  0  0  0  0
    7.9245    0.8921    0.0000 H   0  0  0  0  0  0  0  0  0  0  0  0
    5.7420    3.3815    0.0000 H   0  0  0  0  0  0  0  0  0  0  0  0
    4.9529    3.1251    0.0000 H   0  0  0  0  0  0  0  0  0  0  0  0
    7.9245    3.1200    0.0000 H   0  0  0  0  0  0  0  0  0  0  0  0
    7.1360    3.3777    0.0000 H   0  0  0  0  0  0  0  0  0  0  0  0
    8.4316    1.5913    0.0000 H   0  0  0  0  0  0  0  0  0  0  0  0
    8.4316    2.4208    0.0000 H   0  0  0  0  0  0  0  0  0  0  0  0
    5.2024   -0.3736    0.0000 H   0  0  0  0  0  0  0  0  0  0  0  0
    5.7947    0.1597    0.0000 H   0  0  0  0  0  0  0  0  0  0  0  0
    3.5920    2.5430    0.0000 H   0  0  0  0  0  0  0  0  0  0  0  0
    2.7071    0.0371    0.0000 H   0  0  0  0  0  0  0  0  0  0  0  0
    1.8315    0.0830    0.0000 H   0  0  0  0  0  0  0  0  0  0  0  0
    1.7856   -0.7926    0.0000 H   0  0  0  0  0  0  0  0  0  0  0  0
    2.0000   -2.2008    0.0000 H   0  0  0  0  0  0  0  0  0  0  0  0
    2.8148   -3.2300    0.0000 H   0  0  0  0  0  0  0  0  0  0  0  0
    3.6904   -3.2758    0.0000 H   0  0  0  0  0  0  0  0  0  0  0  0
    3.7363   -2.4002    0.0000 H   0  0  0  0  0  0  0  0  0  0  0  0
  7  1  1  1  0  0  0
  1 31  1  0  0  0  0
  2 12  1  0  0  0  0
  2 13  1  0  0  0  0
  3 13  2  0  0  0  0
  4  5  1  0  0  0  0
  4  9  1  0  0  0  0
  4 10  1  0  0  0  0
  5  6  1  0  0  0  0
  5  8  1  0  0  0  0
  5 18  1  1  0  0  0
  6  7  1  0  0  0  0
  6 12  1  1  0  0  0
  6 19  1  0  0  0  0
  7  9  1  0  0  0  0
  7 20  1  0  0  0  0
  8 11  1  0  0  0  0
  8 21  1  0  0  0  0
  8 22  1  0  0  0  0
  9 23  1  0  0  0  0
  9 24  1  0  0  0  0
 10 11  1  0  0  0  0
 10 25  1  0  0  0  0
 10 26  1  0  0  0  0
 11 27  1  0  0  0  0
 11 28  1  0  0  0  0
 12 29  1  0  0  0  0
 12 30  1  0  0  0  0
 13 14  1  0  0  0  0
 14 15  1  0  0  0  0
 14 16  2  0  0  0  0
 15 32  1  0  0  0  0
 15 33  1  0  0  0  0
 15 34  1  0  0  0  0
 16 17  1  0  0  0  0
 16 35  1  0  0  0  0
 17 36  1  0  0  0  0
 17 37  1  0  0  0  0
 17 38  1  0  0  0  0
M  END
> <PUBCHEM_COMPOUND_CID>
5281737

> <PUBCHEM_COMPOUND_CANONICALIZED>
1

> <PUBCHEM_CACTVS_COMPLEXITY>
327

> <PUBCHEM_CACTVS_HBOND_ACCEPTOR>
4

> <PUBCHEM_CACTVS_HBOND_DONOR>
1

> <PUBCHEM_CACTVS_ROTATABLE_BOND>
4

> <PUBCHEM_CACTVS_SUBSKEYS>
AAADceByMAAAAAAAAAAAAAAAAAAAAWLAAAAAAAAAAAAWAAAAAAAAHgAACAAADTzhgAYCCAMABgCIAiDSCAAAAAAAAAAACAEIAEACFAIAoQAGUAAHAACQIYGwwAAOAAAAAAAAAAAAAAAAAAAAAAAAAAAAAA==

> <PUBCHEM_IUPAC_OPENEYE_NAME>
[(1S,2R,8R)-2-hydroxy-2,3,5,6,7,8-hexahydro-1H-pyrrolizin-1-yl]methyl (Z)-2-methylbut-2-enoate

> <PUBCHEM_IUPAC_CAS_NAME>
(Z)-2-methyl-2-butenoic acid [(1S,2R,8R)-2-hydroxy-2,3,5,6,7,8-hexahydro-1H-pyrrolizin-1-yl]methyl ester

> <PUBCHEM_IUPAC_NAME>
[(1S,2R,8R)-2-hydroxy-2,3,5,6,7,8-hexahydro-1H-pyrrolizin-1-yl]methyl (Z)-2-methylbut-2-enoate

> <PUBCHEM_IUPAC_SYSTEMATIC_NAME>
[(1S,2R,8R)-2-oxidanyl-2,3,5,6,7,8-hexahydro-1H-pyrrolizin-1-yl]methyl (Z)-2-methylbut-2-enoate

> <PUBCHEM_IUPAC_TRADITIONAL_NAME>
(Z)-2-methylbut-2-enoic acid [(1S,2R,8R)-2-hydroxypyrrolizidin-1-yl]methyl ester

> <PUBCHEM_IUPAC_INCHI>
InChI=1S/C13H21NO3/c1-3-9(2)13(16)17-8-10-11-5-4-6-14(11)7-12(10)15/h3,10-12,15H,4-8H2,1-2H3/b9-3-/t10-,11-,12+/m1/s1

> <PUBCHEM_IUPAC_INCHIKEY>
LVZCTOQMFLAKLI-CSZIUDOQSA-N

> <PUBCHEM_XLOGP3_AA>
1.3

> <PUBCHEM_EXACT_MASS>
239.152144

> <PUBCHEM_MOLECULAR_FORMULA>
C13H21NO3

> <PUBCHEM_MOLECULAR_WEIGHT>
239.31074

> <PUBCHEM_OPENEYE_CAN_SMILES>
CC=C(C)C(=O)OCC1C2CCCN2CC1O

> <PUBCHEM_OPENEYE_ISO_SMILES>
C/C=C(/C)\C(=O)OC[C@@H]1[C@H]2CCCN2C[C@@H]1O

> <PUBCHEM_CACTVS_TPSA>
49.8

> <PUBCHEM_MONOISOTOPIC_WEIGHT>
239.152144

> <PUBCHEM_TOTAL_CHARGE>
0

> <PUBCHEM_HEAVY_ATOM_COUNT>
17

> <PUBCHEM_ATOM_DEF_STEREO_COUNT>
3

> <PUBCHEM_ATOM_UDEF_STEREO_COUNT>
0

> <PUBCHEM_BOND_DEF_STEREO_COUNT>
1

> <PUBCHEM_BOND_UDEF_STEREO_COUNT>
0

> <PUBCHEM_ISOTOPIC_ATOM_COUNT>
0

> <PUBCHEM_COMPONENT_COUNT>
1

> <PUBCHEM_CACTVS_TAUTO_COUNT>
1

> <PUBCHEM_COORDINATE_TYPE>
1
5
255

> <PUBCHEM_BONDANNOTATIONS>
7  1  5
5  18  5
6  12  5

$$$$

