441831
  -OEChem-07051212563D

 75 78  0     1  0  0  0  0  0999 V2000
   -3.0414    0.5479    1.4934 O   0  0  0  0  0  0  0  0  0  0  0  0
    5.5065   -3.3518   -0.7839 O   0  0  0  0  0  0  0  0  0  0  0  0
    7.0611   -1.0535   -1.1255 O   0  0  0  0  0  0  0  0  0  0  0  0
    4.9504    3.1706    0.2128 O   0  0  0  0  0  0  0  0  0  0  0  0
   -4.1146    1.2952   -1.0501 O   0  0  0  0  0  0  0  0  0  0  0  0
   -8.9904   -0.0891   -1.2980 O   0  0  0  0  0  0  0  0  0  0  0  0
   -0.2654    0.0194    0.5463 C   0  0  2  0  0  0  0  0  0  0  0  0
    4.1713   -0.2028    0.8848 C   0  0  2  0  0  0  0  0  0  0  0  0
   -1.5436    0.1234   -0.3319 C   0  0  1  0  0  0  0  0  0  0  0  0
    2.6566   -0.1498    0.5750 C   0  0  0  0  0  0  0  0  0  0  0  0
    0.6348    1.0207   -0.1459 C   0  0  0  0  0  0  0  0  0  0  0  0
    4.9692    0.7853   -0.0158 C   0  0  1  0  0  0  0  0  0  0  0  0
    0.3818   -1.3645    0.4565 C   0  0  0  0  0  0  0  0  0  0  0  0
    2.0788    0.9542    0.0340 C   0  0  0  0  0  0  0  0  0  0  0  0
    1.8211   -1.3599    0.9879 C   0  0  0  0  0  0  0  0  0  0  0  0
   -2.8556   -0.2722    0.3319 C   0  0  2  0  0  0  0  0  0  0  0  0
   -1.5460    1.5746   -0.8355 C   0  0  0  0  0  0  0  0  0  0  0  0
    4.8184   -1.6080    0.7161 C   0  0  0  0  0  0  0  0  0  0  0  0
    5.1147    0.3231   -1.4807 C   0  0  0  0  0  0  0  0  0  0  0  0
   -0.0838    1.8873   -0.8770 C   0  0  0  0  0  0  0  0  0  0  0  0
    2.8370    2.2007   -0.3499 C   0  0  0  0  0  0  0  0  0  0  0  0
   -0.5029    0.4334    2.0117 C   0  0  0  0  0  0  0  0  0  0  0  0
    4.3047    2.1435    0.0028 C   0  0  0  0  0  0  0  0  0  0  0  0
    4.9012   -2.0625   -0.7424 C   0  0  1  0  0  0  0  0  0  0  0  0
    5.7099   -1.0780   -1.5862 C   0  0  2  0  0  0  0  0  0  0  0  0
    4.3417    0.2036    2.3703 C   0  0  0  0  0  0  0  0  0  0  0  0
   -4.0760   -0.0650   -0.6071 C   0  0  1  0  0  0  0  0  0  0  0  0
   -2.7799   -1.7322    0.8093 C   0  0  0  0  0  0  0  0  0  0  0  0
   -5.4339   -0.4045    0.0368 C   0  0  0  0  0  0  0  0  0  0  0  0
   -6.6094   -0.1357   -0.9204 C   0  0  0  0  0  0  0  0  0  0  0  0
   -8.0036   -0.3838   -0.3072 C   0  0  0  0  0  0  0  0  0  0  0  0
   -8.1423   -1.8627    0.0697 C   0  0  0  0  0  0  0  0  0  0  0  0
   -8.2703    0.4931    0.9184 C   0  0  0  0  0  0  0  0  0  0  0  0
   -1.4133   -0.5170   -1.2198 H   0  0  0  0  0  0  0  0  0  0  0  0
    5.9768    0.9131    0.4045 H   0  0  0  0  0  0  0  0  0  0  0  0
    0.4112   -1.6980   -0.5908 H   0  0  0  0  0  0  0  0  0  0  0  0
   -0.1697   -2.1329    1.0015 H   0  0  0  0  0  0  0  0  0  0  0  0
    2.2791   -2.2851    0.6261 H   0  0  0  0  0  0  0  0  0  0  0  0
    1.8065   -1.4191    2.0826 H   0  0  0  0  0  0  0  0  0  0  0  0
   -2.0426    2.2878   -0.1700 H   0  0  0  0  0  0  0  0  0  0  0  0
   -1.9461    1.6515   -1.8513 H   0  0  0  0  0  0  0  0  0  0  0  0
    4.3037   -2.3681    1.3167 H   0  0  0  0  0  0  0  0  0  0  0  0
    5.8350   -1.5951    1.1363 H   0  0  0  0  0  0  0  0  0  0  0  0
    4.1455    0.3361   -1.9933 H   0  0  0  0  0  0  0  0  0  0  0  0
    5.7556    1.0391   -2.0111 H   0  0  0  0  0  0  0  0  0  0  0  0
    0.3175    2.7105   -1.4507 H   0  0  0  0  0  0  0  0  0  0  0  0
    2.7698    2.3709   -1.4305 H   0  0  0  0  0  0  0  0  0  0  0  0
    2.4142    3.0670    0.1735 H   0  0  0  0  0  0  0  0  0  0  0  0
    0.4519    0.5208    2.5462 H   0  0  0  0  0  0  0  0  0  0  0  0
   -0.9570    1.4272    2.0968 H   0  0  0  0  0  0  0  0  0  0  0  0
   -1.0819   -0.2914    2.5875 H   0  0  0  0  0  0  0  0  0  0  0  0
    3.8929   -2.1647   -1.1591 H   0  0  0  0  0  0  0  0  0  0  0  0
    5.7357   -1.4102   -2.6300 H   0  0  0  0  0  0  0  0  0  0  0  0
    5.4013    0.2626    2.6451 H   0  0  0  0  0  0  0  0  0  0  0  0
    3.8931    1.1807    2.5833 H   0  0  0  0  0  0  0  0  0  0  0  0
    3.8721   -0.5257    3.0406 H   0  0  0  0  0  0  0  0  0  0  0  0
   -3.9376   -0.6911   -1.4983 H   0  0  0  0  0  0  0  0  0  0  0  0
   -2.5150   -2.4109   -0.0079 H   0  0  0  0  0  0  0  0  0  0  0  0
   -2.0897   -1.8750    1.6407 H   0  0  0  0  0  0  0  0  0  0  0  0
   -3.7297   -2.0744    1.2297 H   0  0  0  0  0  0  0  0  0  0  0  0
   -5.4585   -1.4539    0.3351 H   0  0  0  0  0  0  0  0  0  0  0  0
   -5.5668    0.2114    0.9312 H   0  0  0  0  0  0  0  0  0  0  0  0
   -3.7218    0.1406    2.0549 H   0  0  0  0  0  0  0  0  0  0  0  0
    5.5536   -3.6228   -1.7166 H   0  0  0  0  0  0  0  0  0  0  0  0
    7.5491   -0.4234   -1.6826 H   0  0  0  0  0  0  0  0  0  0  0  0
   -6.4893   -0.7455   -1.8259 H   0  0  0  0  0  0  0  0  0  0  0  0
   -6.5856    0.9044   -1.2691 H   0  0  0  0  0  0  0  0  0  0  0  0
   -4.5755    1.3149   -1.9057 H   0  0  0  0  0  0  0  0  0  0  0  0
   -7.9080   -2.5106   -0.7828 H   0  0  0  0  0  0  0  0  0  0  0  0
   -7.5018   -2.1454    0.9103 H   0  0  0  0  0  0  0  0  0  0  0  0
   -9.1785   -2.0889    0.3485 H   0  0  0  0  0  0  0  0  0  0  0  0
   -8.1214    1.5513    0.6758 H   0  0  0  0  0  0  0  0  0  0  0  0
   -7.6316    0.2357    1.7683 H   0  0  0  0  0  0  0  0  0  0  0  0
   -9.3140    0.3953    1.2397 H   0  0  0  0  0  0  0  0  0  0  0  0
   -8.8297   -0.6662   -2.0641 H   0  0  0  0  0  0  0  0  0  0  0  0
  1 16  1  0  0  0  0
  1 63  1  0  0  0  0
  2 24  1  0  0  0  0
  2 64  1  0  0  0  0
  3 25  1  0  0  0  0
  3 65  1  0  0  0  0
  4 23  2  0  0  0  0
  5 27  1  0  0  0  0
  5 68  1  0  0  0  0
  6 31  1  0  0  0  0
  6 75  1  0  0  0  0
  7  9  1  0  0  0  0
  7 11  1  0  0  0  0
  7 13  1  0  0  0  0
  7 22  1  0  0  0  0
  8 10  1  0  0  0  0
  8 12  1  0  0  0  0
  8 18  1  0  0  0  0
  8 26  1  0  0  0  0
  9 16  1  0  0  0  0
  9 17  1  0  0  0  0
  9 34  1  0  0  0  0
 10 14  2  0  0  0  0
 10 15  1  0  0  0  0
 11 14  1  0  0  0  0
 11 20  2  0  0  0  0
 12 19  1  0  0  0  0
 12 23  1  0  0  0  0
 12 35  1  0  0  0  0
 13 15  1  0  0  0  0
 13 36  1  0  0  0  0
 13 37  1  0  0  0  0
 14 21  1  0  0  0  0
 15 38  1  0  0  0  0
 15 39  1  0  0  0  0
 16 27  1  0  0  0  0
 16 28  1  0  0  0  0
 17 20  1  0  0  0  0
 17 40  1  0  0  0  0
 17 41  1  0  0  0  0
 18 24  1  0  0  0  0
 18 42  1  0  0  0  0
 18 43  1  0  0  0  0
 19 25  1  0  0  0  0
 19 44  1  0  0  0  0
 19 45  1  0  0  0  0
 20 46  1  0  0  0  0
 21 23  1  0  0  0  0
 21 47  1  0  0  0  0
 21 48  1  0  0  0  0
 22 49  1  0  0  0  0
 22 50  1  0  0  0  0
 22 51  1  0  0  0  0
 24 25  1  0  0  0  0
 24 52  1  0  0  0  0
 25 53  1  0  0  0  0
 26 54  1  0  0  0  0
 26 55  1  0  0  0  0
 26 56  1  0  0  0  0
 27 29  1  0  0  0  0
 27 57  1  0  0  0  0
 28 58  1  0  0  0  0
 28 59  1  0  0  0  0
 28 60  1  0  0  0  0
 29 30  1  0  0  0  0
 29 61  1  0  0  0  0
 29 62  1  0  0  0  0
 30 31  1  0  0  0  0
 30 66  1  0  0  0  0
 30 67  1  0  0  0  0
 31 32  1  0  0  0  0
 31 33  1  0  0  0  0
 32 69  1  0  0  0  0
 32 70  1  0  0  0  0
 32 71  1  0  0  0  0
 33 72  1  0  0  0  0
 33 73  1  0  0  0  0
 33 74  1  0  0  0  0
M  END
> <PUBCHEM_COMPOUND_CID>
441831

> <PUBCHEM_CONFORMER_RMSD>
1

> <PUBCHEM_CONFORMER_DIVERSEORDER>
4
6
2
5
1
8
7
3

> <PUBCHEM_MMFF94_PARTIAL_CHARGES>
28
1 -0.68
10 -0.28
11 -0.14
12 0.06
14 -0.14
15 0.14
16 0.28
17 0.14
2 -0.68
20 -0.29
21 0.2
23 0.45
24 0.28
25 0.28
27 0.28
3 -0.68
31 0.28
4 -0.57
46 0.15
5 -0.68
6 -0.68
63 0.4
64 0.4
65 0.4
68 0.4
7 0.14
75 0.4
8 0.14

> <PUBCHEM_EFFECTIVE_ROTOR_COUNT>
6.8

> <PUBCHEM_PHARMACOPHORE_FEATURES>
16
1 1 acceptor
1 1 donor
1 2 acceptor
1 2 donor
1 3 acceptor
1 3 donor
1 4 acceptor
1 5 acceptor
1 5 donor
1 6 acceptor
1 6 donor
3 31 32 33 hydrophobe
5 7 9 11 17 20 rings
6 7 10 11 13 14 15 rings
6 8 10 12 14 21 23 rings
6 8 12 18 19 24 25 rings

> <PUBCHEM_HEAVY_ATOM_COUNT>
33

> <PUBCHEM_ATOM_DEF_STEREO_COUNT>
8

> <PUBCHEM_ATOM_UDEF_STEREO_COUNT>
0

> <PUBCHEM_BOND_DEF_STEREO_COUNT>
0

> <PUBCHEM_BOND_UDEF_STEREO_COUNT>
0

> <PUBCHEM_ISOTOPIC_ATOM_COUNT>
0

> <PUBCHEM_COMPONENT_COUNT>
1

> <PUBCHEM_CACTVS_TAUTO_COUNT>
5

> <PUBCHEM_CONFORMER_ID>
0006BDE700000004

> <PUBCHEM_MMFF94_ENERGY>
112.2703

> <PUBCHEM_FEATURE_SELFOVERLAP>
81.37

> <PUBCHEM_SHAPE_FINGERPRINT>
10299344 5 18187082850318952831
10693767 8 18338519745884830526
11578080 2 17681569038394669673
117089 54 17461985859676597174
11719270 70 17022899056287405055
11828532 37 18131056113669814642
12089408 11 17822292367613802821
12166972 35 18259983773448360697
12236239 1 18260266335531370561
13533116 47 18186523193756219152
13617811 41 16559032687902835964
13782708 43 18187370904969387263
13835254 42 18113901597836435072
13914758 101 17967528004708230401
14170010 4 17917714569950220981
14856354 85 17603869958823722079
15082195 135 17846487115918407596
15131766 46 15794012176884321553
15183329 4 18344148094788833577
17349148 13 17603857923513046216
20105231 36 17704065201935835891
20157964 124 18410857625203447520
21130935 74 18334857191480450587
21150785 3 16702299057618691007
21267235 1 18342455954793775293
21521721 280 18342458097924687505
21781051 124 16773782685497036755
21792934 111 17916885572163003041
21792961 116 17275100673547220314
221357 26 18341893022009881660
22149856 69 18409726292511232953
22393880 68 18131069320941695594
23522609 53 17773293820642476901
23523788 1 17905638806296391946
23559900 14 18411980231318760488
23569914 152 17403766804346295679
23569943 247 18195525028856141259
23576562 1 17202755983412467271
255183 451 18189608518627770782
29717793 49 18187080650335568941
3004659 81 18202283597602323717
335352 9 18272932708713203870
34797466 226 18408323259222398132
3633792 109 18407755941207946841
4073 2 17631450068959421987
4093350 32 18113900438067676372
4098825 35 18335418011140428013
5104073 3 7925368306542319350
9831232 110 18336265763916243831

> <PUBCHEM_SHAPE_MULTIPOLES>
643.91
22
2.35
1.48
42.69
0.04
0.4
6.4
-5.66
-3.83
-0.39
-1.08
0.1
1.02

> <PUBCHEM_SHAPE_SELFOVERLAP>
1370.275

> <PUBCHEM_SHAPE_VOLUME>
357.5

> <PUBCHEM_COORDINATE_TYPE>
2
5
10

$$$$

