442586
  -OEChem-07051212583D

 38 40  0     0  0  0  0  0  0999 V2000
   -0.6122    0.5683    0.0308 O   0  0  0  0  0  0  0  0  0  0  0  0
    3.9105    2.2233    0.1415 O   0  0  0  0  0  0  0  0  0  0  0  0
    3.2043   -2.4213   -0.1428 O   0  0  0  0  0  0  0  0  0  0  0  0
    0.6667   -3.2473   -0.1468 O   0  0  0  0  0  0  0  0  0  0  0  0
    1.5878    1.5744    0.0839 C   0  0  0  0  0  0  0  0  0  0  0  0
    0.7516    0.3139    0.0183 C   0  0  0  0  0  0  0  0  0  0  0  0
    3.0986    1.2957    0.0835 C   0  0  0  0  0  0  0  0  0  0  0  0
    1.2794   -0.9228   -0.0447 C   0  0  0  0  0  0  0  0  0  0  0  0
    1.2680    2.3444    1.3786 C   0  0  0  0  0  0  0  0  0  0  0  0
    1.2883    2.4607   -1.1390 C   0  0  0  0  0  0  0  0  0  0  0  0
    3.6089   -0.1121    0.0097 C   0  0  0  0  0  0  0  0  0  0  0  0
    2.7224   -1.1242   -0.0575 C   0  0  0  0  0  0  0  0  0  0  0  0
    0.3164   -2.0728   -0.0975 C   0  0  0  0  0  0  0  0  0  0  0  0
   -1.5107   -0.4760   -0.0278 C   0  0  0  0  0  0  0  0  0  0  0  0
    5.1009   -0.2799    0.0052 C   0  0  0  0  0  0  0  0  0  0  0  0
   -1.1271   -1.7559   -0.0845 C   0  0  0  0  0  0  0  0  0  0  0  0
   -2.9082   -0.0956   -0.0146 C   0  0  0  0  0  0  0  0  0  0  0  0
   -3.8635   -0.9464    0.5490 C   0  0  0  0  0  0  0  0  0  0  0  0
   -3.3104    1.1248   -0.5652 C   0  0  0  0  0  0  0  0  0  0  0  0
   -5.2095   -0.5803    0.5615 C   0  0  0  0  0  0  0  0  0  0  0  0
   -4.6564    1.4909   -0.5526 C   0  0  0  0  0  0  0  0  0  0  0  0
   -5.6059    0.6382    0.0108 C   0  0  0  0  0  0  0  0  0  0  0  0
    0.2132    2.6379    1.4288 H   0  0  0  0  0  0  0  0  0  0  0  0
    1.4910    1.7373    2.2643 H   0  0  0  0  0  0  0  0  0  0  0  0
    1.8639    3.2613    1.4578 H   0  0  0  0  0  0  0  0  0  0  0  0
    1.5266    1.9384   -2.0734 H   0  0  0  0  0  0  0  0  0  0  0  0
    0.2339    2.7574   -1.1791 H   0  0  0  0  0  0  0  0  0  0  0  0
    1.8841    3.3810   -1.1230 H   0  0  0  0  0  0  0  0  0  0  0  0
    5.5392    0.2398   -0.8533 H   0  0  0  0  0  0  0  0  0  0  0  0
    5.4106   -1.3275   -0.0541 H   0  0  0  0  0  0  0  0  0  0  0  0
    5.5324    0.1369    0.9214 H   0  0  0  0  0  0  0  0  0  0  0  0
   -1.8078   -2.5968   -0.1485 H   0  0  0  0  0  0  0  0  0  0  0  0
    2.4683   -3.0422   -0.2503 H   0  0  0  0  0  0  0  0  0  0  0  0
   -3.5957   -1.8936    1.0100 H   0  0  0  0  0  0  0  0  0  0  0  0
   -2.5936    1.8057   -1.0180 H   0  0  0  0  0  0  0  0  0  0  0  0
   -5.9485   -1.2413    1.0048 H   0  0  0  0  0  0  0  0  0  0  0  0
   -4.9657    2.4389   -0.9826 H   0  0  0  0  0  0  0  0  0  0  0  0
   -6.6537    0.9238    0.0215 H   0  0  0  0  0  0  0  0  0  0  0  0
  1  6  1  0  0  0  0
  1 14  1  0  0  0  0
  2  7  2  0  0  0  0
  3 12  1  0  0  0  0
  3 33  1  0  0  0  0
  4 13  2  0  0  0  0
  5  6  1  0  0  0  0
  5  7  1  0  0  0  0
  5  9  1  0  0  0  0
  5 10  1  0  0  0  0
  6  8  2  0  0  0  0
  7 11  1  0  0  0  0
  8 12  1  0  0  0  0
  8 13  1  0  0  0  0
  9 23  1  0  0  0  0
  9 24  1  0  0  0  0
  9 25  1  0  0  0  0
 10 26  1  0  0  0  0
 10 27  1  0  0  0  0
 10 28  1  0  0  0  0
 11 12  2  0  0  0  0
 11 15  1  0  0  0  0
 13 16  1  0  0  0  0
 14 16  2  0  0  0  0
 14 17  1  0  0  0  0
 15 29  1  0  0  0  0
 15 30  1  0  0  0  0
 15 31  1  0  0  0  0
 16 32  1  0  0  0  0
 17 18  2  0  0  0  0
 17 19  1  0  0  0  0
 18 20  1  0  0  0  0
 18 34  1  0  0  0  0
 19 21  2  0  0  0  0
 19 35  1  0  0  0  0
 20 22  2  0  0  0  0
 20 36  1  0  0  0  0
 21 22  1  0  0  0  0
 21 37  1  0  0  0  0
 22 38  1  0  0  0  0
M  END
> <PUBCHEM_COMPOUND_CID>
442586

> <PUBCHEM_CONFORMER_RMSD>
0.6

> <PUBCHEM_CONFORMER_DIVERSEORDER>
1

> <PUBCHEM_MMFF94_PARTIAL_CHARGES>
27
1 -0.15
11 -0.12
12 0.08
13 0.54
14 0.05
15 0.14
16 -0.14
17 0.03
18 -0.15
19 -0.15
2 -0.57
20 -0.15
21 -0.15
22 -0.15
3 -0.53
32 0.15
33 0.45
34 0.15
35 0.15
36 0.15
37 0.15
38 0.15
4 -0.57
5 0.2
6 -0.06
7 0.49
8 0.01

> <PUBCHEM_EFFECTIVE_ROTOR_COUNT>
1.2

> <PUBCHEM_PHARMACOPHORE_FEATURES>
8
1 1 acceptor
1 2 acceptor
1 3 donor
1 4 acceptor
3 5 9 10 hydrophobe
6 1 6 8 13 14 16 rings
6 17 18 19 20 21 22 rings
6 5 6 7 8 11 12 rings

> <PUBCHEM_HEAVY_ATOM_COUNT>
22

> <PUBCHEM_ATOM_DEF_STEREO_COUNT>
0

> <PUBCHEM_ATOM_UDEF_STEREO_COUNT>
0

> <PUBCHEM_BOND_DEF_STEREO_COUNT>
0

> <PUBCHEM_BOND_UDEF_STEREO_COUNT>
0

> <PUBCHEM_ISOTOPIC_ATOM_COUNT>
0

> <PUBCHEM_COMPONENT_COUNT>
1

> <PUBCHEM_CACTVS_TAUTO_COUNT>
3

> <PUBCHEM_CONFORMER_ID>
0006C0DA00000001

> <PUBCHEM_MMFF94_ENERGY>
62.9839

> <PUBCHEM_FEATURE_SELFOVERLAP>
40.615

> <PUBCHEM_SHAPE_FINGERPRINT>
10411042 1 17833550476564845430
10967382 1 18410011039836070390
1100329 8 18336268955562033122
11471102 20 18409168843883175823
11578080 2 16880486865430549818
11595378 159 15913056473186497621
11646440 116 18113334206542931320
12011746 2 18408878564671836574
12236239 1 17458345255910419203
12403259 415 18342461439319735109
12592029 89 18412543219156832595
12788726 201 17676471848754889784
13134695 92 17968669305555692264
13140716 1 18337957761929201282
13402501 40 18342740736774250989
14178342 30 17834693595142296680
14341114 176 18342168969374173353
14790565 3 18411411791780424228
15081414 286 18261947544170015616
15099037 51 18408602565372337190
15196674 1 18410856521011464173
1601671 61 18412826914831718108
16945 1 18050851014226588718
18186145 218 18187919560759755927
19591789 44 18339645641152996078
19784866 9 18410294739458011195
200 152 18113622305076512979
20645477 70 18261673761395544319
21033648 29 18336559234947654137
21267235 1 18409439315269744598
21279426 13 18194401323302052805
21524375 3 18335698278809406847
21709351 56 18412269415503064791
221357 26 18335706082933821333
22182313 1 18199766875990699756
22289505 5 18337113465837454180
23227448 37 18336266752228057703
23557571 272 17274542135210891117
23558518 356 17982456992511047474
23559900 14 18342742923139373369
3004659 81 18201152256953436750
3060560 45 18334858350493840814
335352 9 18410012131221935678
34934 24 18336272275708772818
350125 39 18266455404484259947
3545911 37 18413106169711354285
4214541 1 18413107264970206265
474 4 18410011035556927475
495365 180 17531537472875856576
5104073 3 18342454872525275577
6138700 20 18340203115661924982
6443956 14 18336824303053847932
7364860 26 18336264630202716855
7808743 9 17908140980283720508
7832392 63 18336271128620078606
81228 2 16893712229486762435
8272917 22 18335135436113980647
9709674 26 18343295947407815931
9999458 23 17989205915399253670

> <PUBCHEM_SHAPE_MULTIPOLES>
429.27
10.23
2.82
0.82
8.52
0.5
0.06
-1.69
0.33
-1.91
-0.12
0.05
-0.38
0.62

> <PUBCHEM_SHAPE_SELFOVERLAP>
944.804

> <PUBCHEM_SHAPE_VOLUME>
230.3

> <PUBCHEM_COORDINATE_TYPE>
2
5
10

$$$$

