17395383
  -OEChem-06241222492D

 42 44  0     1  0  0  0  0  0999 V2000
    8.9282   -0.2673    0.0000 O   0  0  0  0  0  0  0  0  0  0  0  0
    8.9282    1.7327    0.0000 O   0  0  0  0  0  0  0  0  0  0  0  0
    5.4641   -1.2673    0.0000 O   0  0  0  0  0  0  0  0  0  0  0  0
    6.3301    0.2327    0.0000 N   0  0  0  0  0  0  0  0  0  0  0  0
    4.5981    0.2327    0.0000 N   0  0  0  0  0  0  0  0  0  0  0  0
    2.0000   -0.2673    0.0000 N   0  0  0  0  0  0  0  0  0  0  0  0
    8.0622    0.2327    0.0000 C   0  0  3  0  0  0  0  0  0  0  0  0
    7.1962   -0.2673    0.0000 C   0  0  0  0  0  0  0  0  0  0  0  0
    8.0622    1.2327    0.0000 C   0  0  0  0  0  0  0  0  0  0  0  0
    6.3301    1.2327    0.0000 C   0  0  0  0  0  0  0  0  0  0  0  0
    9.7942    0.2327    0.0000 C   0  0  0  0  0  0  0  0  0  0  0  0
    9.7942    1.2327    0.0000 C   0  0  0  0  0  0  0  0  0  0  0  0
    5.4641   -0.2673    0.0000 C   0  0  0  0  0  0  0  0  0  0  0  0
    5.4641    1.7327    0.0000 C   0  0  0  0  0  0  0  0  0  0  0  0
   10.6882   -0.3020    0.0000 C   0  0  0  0  0  0  0  0  0  0  0  0
   10.6882    1.7673    0.0000 C   0  0  0  0  0  0  0  0  0  0  0  0
   11.5942    0.2119    0.0000 C   0  0  0  0  0  0  0  0  0  0  0  0
   11.5942    1.2535    0.0000 C   0  0  0  0  0  0  0  0  0  0  0  0
    3.7320   -0.2673    0.0000 C   0  0  0  0  0  0  0  0  0  0  0  0
    3.7320   -1.2673    0.0000 C   0  0  0  0  0  0  0  0  0  0  0  0
    2.8660    0.2327    0.0000 C   0  0  0  0  0  0  0  0  0  0  0  0
    2.8660   -1.7673    0.0000 C   0  0  0  0  0  0  0  0  0  0  0  0
    2.0000   -1.2673    0.0000 C   0  0  0  0  0  0  0  0  0  0  0  0
    8.0622   -0.3873    0.0000 H   0  0  0  0  0  0  0  0  0  0  0  0
    6.7976   -0.7423    0.0000 H   0  0  0  0  0  0  0  0  0  0  0  0
    7.5947   -0.7423    0.0000 H   0  0  0  0  0  0  0  0  0  0  0  0
    7.8501    1.8153    0.0000 H   0  0  0  0  0  0  0  0  0  0  0  0
    7.4516    1.1250    0.0000 H   0  0  0  0  0  0  0  0  0  0  0  0
    6.9407    1.1250    0.0000 H   0  0  0  0  0  0  0  0  0  0  0  0
    6.5422    1.8153    0.0000 H   0  0  0  0  0  0  0  0  0  0  0  0
    5.7741    2.2696    0.0000 H   0  0  0  0  0  0  0  0  0  0  0  0
    4.9272    2.0427    0.0000 H   0  0  0  0  0  0  0  0  0  0  0  0
    5.1541    1.1957    0.0000 H   0  0  0  0  0  0  0  0  0  0  0  0
   10.6810   -0.9220    0.0000 H   0  0  0  0  0  0  0  0  0  0  0  0
   10.6810    2.3873    0.0000 H   0  0  0  0  0  0  0  0  0  0  0  0
    4.5981    0.8527    0.0000 H   0  0  0  0  0  0  0  0  0  0  0  0
   12.1300   -0.1002    0.0000 H   0  0  0  0  0  0  0  0  0  0  0  0
   12.1300    1.5656    0.0000 H   0  0  0  0  0  0  0  0  0  0  0  0
    4.2690   -1.5773    0.0000 H   0  0  0  0  0  0  0  0  0  0  0  0
    2.8660    0.8527    0.0000 H   0  0  0  0  0  0  0  0  0  0  0  0
    2.8660   -2.3873    0.0000 H   0  0  0  0  0  0  0  0  0  0  0  0
    1.4631   -1.5773    0.0000 H   0  0  0  0  0  0  0  0  0  0  0  0
  1  7  1  0  0  0  0
  1 11  1  0  0  0  0
  2  9  1  0  0  0  0
  2 12  1  0  0  0  0
  3 13  2  0  0  0  0
  4  8  1  0  0  0  0
  4 10  1  0  0  0  0
  4 13  1  0  0  0  0
  5 13  1  0  0  0  0
  5 19  1  0  0  0  0
  5 36  1  0  0  0  0
  6 21  1  0  0  0  0
  6 23  2  0  0  0  0
  7  8  1  0  0  0  0
  7  9  1  0  0  0  0
  7 24  1  0  0  0  0
  8 25  1  0  0  0  0
  8 26  1  0  0  0  0
  9 27  1  0  0  0  0
  9 28  1  0  0  0  0
 10 14  1  0  0  0  0
 10 29  1  0  0  0  0
 10 30  1  0  0  0  0
 11 12  1  0  0  0  0
 11 15  2  0  0  0  0
 12 16  2  0  0  0  0
 14 31  1  0  0  0  0
 14 32  1  0  0  0  0
 14 33  1  0  0  0  0
 15 17  1  0  0  0  0
 15 34  1  0  0  0  0
 16 18  1  0  0  0  0
 16 35  1  0  0  0  0
 17 18  2  0  0  0  0
 17 37  1  0  0  0  0
 18 38  1  0  0  0  0
 19 20  1  0  0  0  0
 19 21  2  0  0  0  0
 20 22  2  0  0  0  0
 20 39  1  0  0  0  0
 21 40  1  0  0  0  0
 22 23  1  0  0  0  0
 22 41  1  0  0  0  0
 23 42  1  0  0  0  0
M  END
> <PUBCHEM_COMPOUND_CID>
17395383

> <PUBCHEM_COMPOUND_CANONICALIZED>
1

> <PUBCHEM_CACTVS_COMPLEXITY>
393

> <PUBCHEM_CACTVS_HBOND_ACCEPTOR>
4

> <PUBCHEM_CACTVS_HBOND_DONOR>
1

> <PUBCHEM_CACTVS_ROTATABLE_BOND>
4

> <PUBCHEM_CACTVS_SUBSKEYS>
AAADceB7MAAAAAAAAAAAAAAAAAAAAAAAAAA8SIAAAAAAAACRwAAAHgAQAAAACBzhkgY/xpPIFACoADRnVACCiCAxMiAI2CA+/JiPZuLEsZuXOCru1hPa6CeQQAAAAAAAAAAAQAAAAAAAAACAAAAAAAAAAA==

> <PUBCHEM_IUPAC_OPENEYE_NAME>
1-(2,3-dihydro-1,4-benzodioxin-3-ylmethyl)-1-ethyl-3-(3-pyridyl)urea

> <PUBCHEM_IUPAC_CAS_NAME>
1-(2,3-dihydro-1,4-benzodioxin-3-ylmethyl)-1-ethyl-3-(3-pyridinyl)urea

> <PUBCHEM_IUPAC_NAME>
1-(2,3-dihydro-1,4-benzodioxin-3-ylmethyl)-1-ethyl-3-pyridin-3-ylurea

> <PUBCHEM_IUPAC_SYSTEMATIC_NAME>
1-(2,3-dihydro-1,4-benzodioxin-3-ylmethyl)-1-ethyl-3-pyridin-3-yl-urea

> <PUBCHEM_IUPAC_TRADITIONAL_NAME>
1-(2,3-dihydro-1,4-benzodioxin-3-ylmethyl)-1-ethyl-3-(3-pyridyl)urea

> <PUBCHEM_IUPAC_INCHI>
InChI=1S/C17H19N3O3/c1-2-20(17(21)19-13-6-5-9-18-10-13)11-14-12-22-15-7-3-4-8-16(15)23-14/h3-10,14H,2,11-12H2,1H3,(H,19,21)

> <PUBCHEM_IUPAC_INCHIKEY>
QWNKGNJJBASUPP-UHFFFAOYSA-N

> <PUBCHEM_XLOGP3_AA>
1.9

> <PUBCHEM_EXACT_MASS>
313.142641

> <PUBCHEM_MOLECULAR_FORMULA>
C17H19N3O3

> <PUBCHEM_MOLECULAR_WEIGHT>
313.35106

> <PUBCHEM_OPENEYE_CAN_SMILES>
CCN(CC1COC2=CC=CC=C2O1)C(=O)NC3=CN=CC=C3

> <PUBCHEM_OPENEYE_ISO_SMILES>
CCN(CC1COC2=CC=CC=C2O1)C(=O)NC3=CN=CC=C3

> <PUBCHEM_CACTVS_TPSA>
63.7

> <PUBCHEM_MONOISOTOPIC_WEIGHT>
313.142641

> <PUBCHEM_TOTAL_CHARGE>
0

> <PUBCHEM_HEAVY_ATOM_COUNT>
23

> <PUBCHEM_ATOM_DEF_STEREO_COUNT>
0

> <PUBCHEM_ATOM_UDEF_STEREO_COUNT>
1

> <PUBCHEM_BOND_DEF_STEREO_COUNT>
0

> <PUBCHEM_BOND_UDEF_STEREO_COUNT>
0

> <PUBCHEM_ISOTOPIC_ATOM_COUNT>
0

> <PUBCHEM_COMPONENT_COUNT>
1

> <PUBCHEM_CACTVS_TAUTO_COUNT>
2

> <PUBCHEM_COORDINATE_TYPE>
1
5
255

> <PUBCHEM_BONDANNOTATIONS>
11  12  8
11  15  8
12  16  8
15  17  8
16  18  8
17  18  8
19  20  8
19  21  8
20  22  8
22  23  8
6  21  8
6  23  8
7  8  3

$$$$

