46173965
  -OEChem-07051213102D

 54 57  0     1  0  0  0  0  0999 V2000
    5.2881    1.0586    0.0000 O   0  0  0  0  0  0  0  0  0  0  0  0
    7.7105   -0.6141    0.0000 O   0  0  0  0  0  0  0  0  0  0  0  0
    4.1189    1.1814    0.0000 O   0  0  0  0  0  0  0  0  0  0  0  0
    5.3356    2.1518    0.0000 O   0  0  0  0  0  0  0  0  0  0  0  0
    6.8402   -1.0118    0.0000 O   0  0  0  0  0  0  0  0  0  0  0  0
    2.1404   -1.6929    0.0000 O   0  0  0  0  0  0  0  0  0  0  0  0
    6.2016    0.6518    0.0000 C   0  0  1  0  0  0  0  0  0  0  0  0
    7.0676    0.1518    0.0000 C   0  0  2  0  0  0  0  0  0  0  0  0
    2.9318   -0.2149    0.0000 C   0  0  3  0  0  0  0  0  0  0  0  0
    4.6189    0.3154    0.0000 C   0  0  2  0  0  0  0  0  0  0  0  0
    5.1189   -0.5506    0.0000 C   0  0  2  0  0  0  0  0  0  0  0  0
    3.6481    0.4551    0.0000 C   0  0  0  0  0  0  0  0  0  0  0  0
    6.2016    1.6518    0.0000 C   0  0  1  0  0  0  0  0  0  0  0  0
    6.0971   -0.3427    0.0000 C   0  0  0  0  0  0  0  0  0  0  0  0
    7.9336    0.6518    0.0000 C   0  0  0  0  0  0  0  0  0  0  0  0
    7.0676    2.1518    0.0000 C   0  0  2  0  0  0  0  0  0  0  0  0
    7.9336    1.6518    0.0000 C   0  0  0  0  0  0  0  0  0  0  0  0
    4.7545   -1.4612    0.0000 C   0  0  0  0  0  0  0  0  0  0  0  0
    3.0065   -1.1929    0.0000 C   0  0  0  0  0  0  0  0  0  0  0  0
    2.0000    0.1479    0.0000 C   0  0  0  0  0  0  0  0  0  0  0  0
    5.7630   -1.3156    0.0000 C   0  0  0  0  0  0  0  0  0  0  0  0
    3.8161   -1.7465    0.0000 C   0  0  0  0  0  0  0  0  0  0  0  0
    5.4307   -2.1979    0.0000 C   0  0  0  0  0  0  0  0  0  0  0  0
    7.0676    3.1518    0.0000 C   0  0  0  0  0  0  0  0  0  0  0  0
    5.1308   -3.1518    0.0000 C   0  0  0  0  0  0  0  0  0  0  0  0
    6.4068   -1.9806    0.0000 C   0  0  0  0  0  0  0  0  0  0  0  0
    3.8713    1.0335    0.0000 H   0  0  0  0  0  0  0  0  0  0  0  0
    3.1341    0.8018    0.0000 H   0  0  0  0  0  0  0  0  0  0  0  0
    6.2016    2.2718    0.0000 H   0  0  0  0  0  0  0  0  0  0  0  0
    8.1457    0.0692    0.0000 H   0  0  0  0  0  0  0  0  0  0  0  0
    8.5442    0.7595    0.0000 H   0  0  0  0  0  0  0  0  0  0  0  0
    7.6046    2.4618    0.0000 H   0  0  0  0  0  0  0  0  0  0  0  0
    8.5442    1.5442    0.0000 H   0  0  0  0  0  0  0  0  0  0  0  0
    8.1457    2.2344    0.0000 H   0  0  0  0  0  0  0  0  0  0  0  0
    2.2250    0.7257    0.0000 H   0  0  0  0  0  0  0  0  0  0  0  0
    1.4222    0.3729    0.0000 H   0  0  0  0  0  0  0  0  0  0  0  0
    1.7750   -0.4298    0.0000 H   0  0  0  0  0  0  0  0  0  0  0  0
    5.2887   -1.7149    0.0000 H   0  0  0  0  0  0  0  0  0  0  0  0
    6.1622   -1.7899    0.0000 H   0  0  0  0  0  0  0  0  0  0  0  0
    6.2373   -0.9163    0.0000 H   0  0  0  0  0  0  0  0  0  0  0  0
    3.7220   -2.3593    0.0000 H   0  0  0  0  0  0  0  0  0  0  0  0
    8.3210   -0.5065    0.0000 H   0  0  0  0  0  0  0  0  0  0  0  0
    3.4989    1.1814    0.0000 H   0  0  0  0  0  0  0  0  0  0  0  0
    4.8255   -2.3326    0.0000 H   0  0  0  0  0  0  0  0  0  0  0  0
    7.6876    3.1518    0.0000 H   0  0  0  0  0  0  0  0  0  0  0  0
    7.0676    3.7718    0.0000 H   0  0  0  0  0  0  0  0  0  0  0  0
    6.4476    3.1518    0.0000 H   0  0  0  0  0  0  0  0  0  0  0  0
    5.3356    2.7718    0.0000 H   0  0  0  0  0  0  0  0  0  0  0  0
    6.5415   -2.5858    0.0000 H   0  0  0  0  0  0  0  0  0  0  0  0
    7.0120   -1.8459    0.0000 H   0  0  0  0  0  0  0  0  0  0  0  0
    6.2721   -1.3754    0.0000 H   0  0  0  0  0  0  0  0  0  0  0  0
    4.5393   -2.9659    0.0000 H   0  0  0  0  0  0  0  0  0  0  0  0
    4.9449   -3.7433    0.0000 H   0  0  0  0  0  0  0  0  0  0  0  0
    5.7222   -3.3378    0.0000 H   0  0  0  0  0  0  0  0  0  0  0  0
  7  1  1  6  0  0  0
  1 10  1  0  0  0  0
  8  2  1  1  0  0  0
  2 42  1  0  0  0  0
 10  3  1  1  0  0  0
  3 43  1  0  0  0  0
 13  4  1  6  0  0  0
  4 48  1  0  0  0  0
  5 14  2  0  0  0  0
  6 19  2  0  0  0  0
  7  8  1  0  0  0  0
  7 13  1  0  0  0  0
  7 14  1  0  0  0  0
  8  9  1  0  0  0  0
  8 15  1  0  0  0  0
  9 12  1  0  0  0  0
  9 19  1  0  0  0  0
  9 20  1  0  0  0  0
 10 11  1  0  0  0  0
 10 12  1  0  0  0  0
 11 14  1  0  0  0  0
 11 18  1  0  0  0  0
 11 21  1  1  0  0  0
 12 27  1  0  0  0  0
 12 28  1  0  0  0  0
 13 16  1  0  0  0  0
 13 29  1  0  0  0  0
 15 17  1  0  0  0  0
 15 30  1  0  0  0  0
 15 31  1  0  0  0  0
 16 17  1  0  0  0  0
 16 24  1  1  0  0  0
 16 32  1  0  0  0  0
 17 33  1  0  0  0  0
 17 34  1  0  0  0  0
 18 22  2  0  0  0  0
 18 23  1  0  0  0  0
 19 22  1  0  0  0  0
 20 35  1  0  0  0  0
 20 36  1  0  0  0  0
 20 37  1  0  0  0  0
 21 38  1  0  0  0  0
 21 39  1  0  0  0  0
 21 40  1  0  0  0  0
 22 41  1  0  0  0  0
 23 25  1  0  0  0  0
 23 26  1  0  0  0  0
 23 44  1  0  0  0  0
 24 45  1  0  0  0  0
 24 46  1  0  0  0  0
 24 47  1  0  0  0  0
 25 52  1  0  0  0  0
 25 53  1  0  0  0  0
 25 54  1  0  0  0  0
 26 49  1  0  0  0  0
 26 50  1  0  0  0  0
 26 51  1  0  0  0  0
M  END
> <PUBCHEM_COMPOUND_CID>
46173965

> <PUBCHEM_COMPOUND_CANONICALIZED>
1

> <PUBCHEM_CACTVS_COMPLEXITY>
757

> <PUBCHEM_CACTVS_HBOND_ACCEPTOR>
6

> <PUBCHEM_CACTVS_HBOND_DONOR>
3

> <PUBCHEM_CACTVS_ROTATABLE_BOND>
1

> <PUBCHEM_CACTVS_SUBSKEYS>
AAADceB4OAAAAAAAAAAAAAAAAAAAASAAAAA0QAAABAAQAACQAAAAGgAACAAAD1SggAICCAAABgCIAqBSAAIAAAAgAAAACAFAAEgREBYAAQQCQAAF4AAPAQPK7vTvgAAAAAAAAADAAAYQADCAAAAAAAAAAA==

> <PUBCHEM_IUPAC_INCHI>
InChI=1S/C20H28O6/c1-10(2)12-8-13(21)16(4)9-19(25)17(12,5)15(23)20(26-19)14(22)11(3)6-7-18(16,20)24/h8,10-11,14,22,24-25H,6-7,9H2,1-5H3/t11-,14+,16?,17-,18-,19-,20-/m0/s1

> <PUBCHEM_IUPAC_INCHIKEY>
GUZTTZMSRBAQKX-NAWWXDNCSA-N

> <PUBCHEM_XLOGP3_AA>
0.3

> <PUBCHEM_EXACT_MASS>
364.188589

> <PUBCHEM_MOLECULAR_FORMULA>
C20H28O6

> <PUBCHEM_MOLECULAR_WEIGHT>
364.43272

> <PUBCHEM_OPENEYE_CAN_SMILES>
CC1CCC2(C3(CC4(C(C(=CC3=O)C(C)C)(C(=O)C2(C1O)O4)C)O)C)O

> <PUBCHEM_OPENEYE_ISO_SMILES>
C[C@H]1CC[C@]2([C@]3([C@@H]1O)C(=O)[C@@]4(C(=CC(=O)C2(C[C@@]4(O3)O)C)C(C)C)C)O

> <PUBCHEM_CACTVS_TPSA>
104

> <PUBCHEM_MONOISOTOPIC_WEIGHT>
364.188589

> <PUBCHEM_TOTAL_CHARGE>
0

> <PUBCHEM_HEAVY_ATOM_COUNT>
26

> <PUBCHEM_ATOM_DEF_STEREO_COUNT>
6

> <PUBCHEM_ATOM_UDEF_STEREO_COUNT>
1

> <PUBCHEM_BOND_DEF_STEREO_COUNT>
0

> <PUBCHEM_BOND_UDEF_STEREO_COUNT>
0

> <PUBCHEM_ISOTOPIC_ATOM_COUNT>
0

> <PUBCHEM_COMPONENT_COUNT>
1

> <PUBCHEM_CACTVS_TAUTO_COUNT>
3

> <PUBCHEM_COORDINATE_TYPE>
1
5
255

> <PUBCHEM_BONDANNOTATIONS>
7  1  6
11  21  5
16  24  5
8  2  5
10  3  5
13  4  6
9  20  3

$$$$

