5281641
  -OEChem-07051212582D

 56 59  0     0  0  0  0  0  0999 V2000
    6.1557   -2.2471    0.0000 O   0  0  0  0  0  0  0  0  0  0  0  0
    4.3217    0.8150    0.0000 O   0  0  0  0  0  0  0  0  0  0  0  0
    2.5357   -2.2301    0.0000 O   0  0  0  0  0  0  0  0  0  0  0  0
    6.9198   -0.6850    0.0000 O   0  0  0  0  0  0  0  0  0  0  0  0
    7.8397    2.8601    0.0000 O   0  0  0  0  0  0  0  0  0  0  0  0
    6.0659    3.8842    0.0000 O   0  0  0  0  0  0  0  0  0  0  0  0
    6.1725   -3.3320    0.0000 C   0  0  0  0  0  0  0  0  0  0  0  0
    5.2370   -3.8817    0.0000 C   0  0  0  0  0  0  0  0  0  0  0  0
    4.2974   -3.3392    0.0000 C   0  0  0  0  0  0  0  0  0  0  0  0
    4.3058   -2.2543    0.0000 C   0  0  0  0  0  0  0  0  0  0  0  0
    5.2038   -1.7265    0.0000 C   0  0  0  0  0  0  0  0  0  0  0  0
    6.6824   -4.1922    0.0000 C   0  0  0  0  0  0  0  0  0  0  0  0
    7.1724   -3.3204    0.0000 C   0  0  0  0  0  0  0  0  0  0  0  0
    5.1877   -0.6850    0.0000 C   0  0  0  0  0  0  0  0  0  0  0  0
    3.4037   -1.7334    0.0000 C   0  0  0  0  0  0  0  0  0  0  0  0
    4.3217   -0.1850    0.0000 C   0  0  0  0  0  0  0  0  0  0  0  0
    6.0538   -0.1850    0.0000 C   0  0  0  0  0  0  0  0  0  0  0  0
    3.4117   -0.6918    0.0000 C   0  0  0  0  0  0  0  0  0  0  0  0
    6.0538    0.8150    0.0000 C   0  0  0  0  0  0  0  0  0  0  0  0
    5.1877    1.3150    0.0000 C   0  0  0  0  0  0  0  0  0  0  0  0
    6.9638    1.3218    0.0000 C   0  0  0  0  0  0  0  0  0  0  0  0
    7.8240    0.8119    0.0000 C   0  0  0  0  0  0  0  0  0  0  0  0
    6.9718    2.3634    0.0000 C   0  0  0  0  0  0  0  0  0  0  0  0
    5.1717    2.3565    0.0000 C   0  0  0  0  0  0  0  0  0  0  0  0
    6.0697    2.8843    0.0000 C   0  0  0  0  0  0  0  0  0  0  0  0
    8.6957    1.3018    0.0000 C   0  0  0  0  0  0  0  0  0  0  0  0
    9.5559    0.7918    0.0000 C   0  0  0  0  0  0  0  0  0  0  0  0
    7.8436    3.8601    0.0000 C   0  0  0  0  0  0  0  0  0  0  0  0
   10.4276    1.2818    0.0000 C   0  0  0  0  0  0  0  0  0  0  0  0
    9.5443   -0.2081    0.0000 C   0  0  0  0  0  0  0  0  0  0  0  0
    4.8397   -4.3577    0.0000 H   0  0  0  0  0  0  0  0  0  0  0  0
    5.6380   -4.3546    0.0000 H   0  0  0  0  0  0  0  0  0  0  0  0
    3.6874   -3.2284    0.0000 H   0  0  0  0  0  0  0  0  0  0  0  0
    4.0838   -3.9213    0.0000 H   0  0  0  0  0  0  0  0  0  0  0  0
    7.1796   -3.9404    0.0000 H   0  0  0  0  0  0  0  0  0  0  0  0
    7.7924   -3.3133    0.0000 H   0  0  0  0  0  0  0  0  0  0  0  0
    7.1652   -2.7005    0.0000 H   0  0  0  0  0  0  0  0  0  0  0  0
    6.1491   -4.5084    0.0000 H   0  0  0  0  0  0  0  0  0  0  0  0
    6.9986   -4.7255    0.0000 H   0  0  0  0  0  0  0  0  0  0  0  0
    7.2158   -3.8760    0.0000 H   0  0  0  0  0  0  0  0  0  0  0  0
    2.8784   -0.3757    0.0000 H   0  0  0  0  0  0  0  0  0  0  0  0
    7.4200    0.3416    0.0000 H   0  0  0  0  0  0  0  0  0  0  0  0
    8.2170    0.3323    0.0000 H   0  0  0  0  0  0  0  0  0  0  0  0
    4.6312    2.6603    0.0000 H   0  0  0  0  0  0  0  0  0  0  0  0
    2.0000   -1.9180    0.0000 H   0  0  0  0  0  0  0  0  0  0  0  0
    8.7029    1.9218    0.0000 H   0  0  0  0  0  0  0  0  0  0  0  0
    5.5277    4.1922    0.0000 H   0  0  0  0  0  0  0  0  0  0  0  0
    8.4636    3.8577    0.0000 H   0  0  0  0  0  0  0  0  0  0  0  0
    7.8460    4.4801    0.0000 H   0  0  0  0  0  0  0  0  0  0  0  0
    7.2236    3.8625    0.0000 H   0  0  0  0  0  0  0  0  0  0  0  0
   10.7314    0.7413    0.0000 H   0  0  0  0  0  0  0  0  0  0  0  0
   10.9681    1.5856    0.0000 H   0  0  0  0  0  0  0  0  0  0  0  0
   10.1239    1.8223    0.0000 H   0  0  0  0  0  0  0  0  0  0  0  0
    8.9244   -0.2009    0.0000 H   0  0  0  0  0  0  0  0  0  0  0  0
    9.5372   -0.8281    0.0000 H   0  0  0  0  0  0  0  0  0  0  0  0
   10.1643   -0.2153    0.0000 H   0  0  0  0  0  0  0  0  0  0  0  0
  1  7  1  0  0  0  0
  1 11  1  0  0  0  0
  2 16  1  0  0  0  0
  2 20  1  0  0  0  0
  3 15  1  0  0  0  0
  3 45  1  0  0  0  0
  4 17  2  0  0  0  0
  5 23  1  0  0  0  0
  5 28  1  0  0  0  0
  6 25  1  0  0  0  0
  6 47  1  0  0  0  0
  7  8  1  0  0  0  0
  7 12  1  0  0  0  0
  7 13  1  0  0  0  0
  8  9  1  0  0  0  0
  8 31  1  0  0  0  0
  8 32  1  0  0  0  0
  9 10  1  0  0  0  0
  9 33  1  0  0  0  0
  9 34  1  0  0  0  0
 10 11  1  0  0  0  0
 10 15  2  0  0  0  0
 11 14  2  0  0  0  0
 12 38  1  0  0  0  0
 12 39  1  0  0  0  0
 12 40  1  0  0  0  0
 13 35  1  0  0  0  0
 13 36  1  0  0  0  0
 13 37  1  0  0  0  0
 14 16  1  0  0  0  0
 14 17  1  0  0  0  0
 15 18  1  0  0  0  0
 16 18  2  0  0  0  0
 17 19  1  0  0  0  0
 18 41  1  0  0  0  0
 19 20  1  0  0  0  0
 19 21  2  0  0  0  0
 20 24  2  0  0  0  0
 21 22  1  0  0  0  0
 21 23  1  0  0  0  0
 22 26  1  0  0  0  0
 22 42  1  0  0  0  0
 22 43  1  0  0  0  0
 23 25  2  0  0  0  0
 24 25  1  0  0  0  0
 24 44  1  0  0  0  0
 26 27  2  0  0  0  0
 26 46  1  0  0  0  0
 27 29  1  0  0  0  0
 27 30  1  0  0  0  0
 28 48  1  0  0  0  0
 28 49  1  0  0  0  0
 28 50  1  0  0  0  0
 29 51  1  0  0  0  0
 29 52  1  0  0  0  0
 29 53  1  0  0  0  0
 30 54  1  0  0  0  0
 30 55  1  0  0  0  0
 30 56  1  0  0  0  0
M  END
> <PUBCHEM_COMPOUND_CID>
5281641

> <PUBCHEM_COMPOUND_CANONICALIZED>
1

> <PUBCHEM_CACTVS_COMPLEXITY>
683

> <PUBCHEM_CACTVS_HBOND_ACCEPTOR>
6

> <PUBCHEM_CACTVS_HBOND_DONOR>
2

> <PUBCHEM_CACTVS_ROTATABLE_BOND>
3

> <PUBCHEM_CACTVS_SUBSKEYS>
AAADceB4OAAAAAAAAAAAAAAAAAAAAAAAAAA0aIEAAAAAAACRQAAAGgAACAAADESAmAIyBoAABgCIAqBSAAACCAAkIAAAiAEGiMgNJzaGNRqCeWOl4BULuQfK7PzOoQADCAAYQABCAAYQADCAAAAAAAAAAA==

> <PUBCHEM_IUPAC_OPENEYE_NAME>
5,9-dihydroxy-10-methoxy-2,2-dimethyl-11-(3-methylbut-2-enyl)-3,4-dihydropyrano[2,3-a]xanthen-12-one

> <PUBCHEM_IUPAC_CAS_NAME>
5,9-dihydroxy-10-methoxy-2,2-dimethyl-11-(3-methylbut-2-enyl)-3,4-dihydropyrano[2,3-a]xanthen-12-one

> <PUBCHEM_IUPAC_NAME>
5,9-dihydroxy-10-methoxy-2,2-dimethyl-11-(3-methylbut-2-enyl)-3,4-dihydropyrano[2,3-a]xanthen-12-one

> <PUBCHEM_IUPAC_SYSTEMATIC_NAME>
10-methoxy-2,2-dimethyl-11-(3-methylbut-2-enyl)-5,9-bis(oxidanyl)-3,4-dihydropyrano[2,3-a]xanthen-12-one

> <PUBCHEM_IUPAC_TRADITIONAL_NAME>
5,9-dihydroxy-10-methoxy-2,2-dimethyl-11-(3-methylbut-2-enyl)-3,4-dihydropyrano[2,3-a]xanthen-12-one

> <PUBCHEM_IUPAC_INCHI>
InChI=1S/C24H26O6/c1-12(2)6-7-14-19-17(11-16(26)22(14)28-5)29-18-10-15(25)13-8-9-24(3,4)30-23(13)20(18)21(19)27/h6,10-11,25-26H,7-9H2,1-5H3

> <PUBCHEM_IUPAC_INCHIKEY>
JUHXHWKPHWGZKL-UHFFFAOYSA-N

> <PUBCHEM_XLOGP3_AA>
5.1

> <PUBCHEM_EXACT_MASS>
410.172939

> <PUBCHEM_MOLECULAR_FORMULA>
C24H26O6

> <PUBCHEM_MOLECULAR_WEIGHT>
410.45964

> <PUBCHEM_OPENEYE_CAN_SMILES>
CC(=CCC1=C2C(=CC(=C1OC)O)OC3=CC(=C4CCC(OC4=C3C2=O)(C)C)O)C

> <PUBCHEM_OPENEYE_ISO_SMILES>
CC(=CCC1=C2C(=CC(=C1OC)O)OC3=CC(=C4CCC(OC4=C3C2=O)(C)C)O)C

> <PUBCHEM_CACTVS_TPSA>
85.2

> <PUBCHEM_MONOISOTOPIC_WEIGHT>
410.172939

> <PUBCHEM_TOTAL_CHARGE>
0

> <PUBCHEM_HEAVY_ATOM_COUNT>
30

> <PUBCHEM_ATOM_DEF_STEREO_COUNT>
0

> <PUBCHEM_ATOM_UDEF_STEREO_COUNT>
0

> <PUBCHEM_BOND_DEF_STEREO_COUNT>
0

> <PUBCHEM_BOND_UDEF_STEREO_COUNT>
0

> <PUBCHEM_ISOTOPIC_ATOM_COUNT>
0

> <PUBCHEM_COMPONENT_COUNT>
1

> <PUBCHEM_CACTVS_TAUTO_COUNT>
81

> <PUBCHEM_COORDINATE_TYPE>
1
5
255

> <PUBCHEM_BONDANNOTATIONS>
10  11  8
10  15  8
11  14  8
14  16  8
14  17  8
15  18  8
16  18  8
17  19  8
19  20  8
19  21  8
2  16  8
2  20  8
20  24  8
21  23  8
23  25  8
24  25  8

$$$$

