10006
  -OEChem-07051212503D

 11 11  0     0  0  0  0  0  0999 V2000
    2.2856   -0.5902    0.0003 O   0  0  0  0  0  0  0  0  0  0  0  0
   -2.3005   -0.5437    0.0004 O   0  0  0  0  0  0  0  0  0  0  0  0
   -0.7012    1.1635    0.0000 N   0  0  0  0  0  0  0  0  0  0  0  0
   -0.0099   -0.9515   -0.0004 N   0  0  0  0  0  0  0  0  0  0  0  0
    0.7331    1.2717    0.0000 C   0  0  0  0  0  0  0  0  0  0  0  0
    1.1311   -0.1877    0.0000 C   0  0  0  0  0  0  0  0  0  0  0  0
   -1.1383   -0.1622   -0.0002 C   0  0  0  0  0  0  0  0  0  0  0  0
    1.0646    1.7773    0.9083 H   0  0  0  0  0  0  0  0  0  0  0  0
    1.0646    1.7773   -0.9083 H   0  0  0  0  0  0  0  0  0  0  0  0
   -1.3297    1.9607    0.0003 H   0  0  0  0  0  0  0  0  0  0  0  0
   -0.0208   -1.9649   -0.0004 H   0  0  0  0  0  0  0  0  0  0  0  0
  1  6  2  0  0  0  0
  2  7  2  0  0  0  0
  3  5  1  0  0  0  0
  3  7  1  0  0  0  0
  3 10  1  0  0  0  0
  4  6  1  0  0  0  0
  4  7  1  0  0  0  0
  4 11  1  0  0  0  0
  5  6  1  0  0  0  0
  5  8  1  0  0  0  0
  5  9  1  0  0  0  0
M  END
> <PUBCHEM_COMPOUND_CID>
10006

> <PUBCHEM_CONFORMER_RMSD>
0.4

> <PUBCHEM_CONFORMER_DIVERSEORDER>
1

> <PUBCHEM_MMFF94_PARTIAL_CHARGES>
9
1 -0.57
10 0.37
11 0.37
2 -0.57
3 -0.73
4 -0.49
5 0.36
6 0.57
7 0.69

> <PUBCHEM_EFFECTIVE_ROTOR_COUNT>
0.6

> <PUBCHEM_PHARMACOPHORE_FEATURES>
5
1 1 acceptor
1 2 acceptor
1 3 donor
1 4 donor
5 3 4 5 6 7 rings

> <PUBCHEM_HEAVY_ATOM_COUNT>
7

> <PUBCHEM_ATOM_DEF_STEREO_COUNT>
0

> <PUBCHEM_ATOM_UDEF_STEREO_COUNT>
0

> <PUBCHEM_BOND_DEF_STEREO_COUNT>
0

> <PUBCHEM_BOND_UDEF_STEREO_COUNT>
0

> <PUBCHEM_ISOTOPIC_ATOM_COUNT>
0

> <PUBCHEM_COMPONENT_COUNT>
1

> <PUBCHEM_CACTVS_TAUTO_COUNT>
5

> <PUBCHEM_CONFORMER_ID>
0000271600000001

> <PUBCHEM_MMFF94_ENERGY>
8.2889

> <PUBCHEM_FEATURE_SELFOVERLAP>
25.443

> <PUBCHEM_SHAPE_FINGERPRINT>
139733 1 9223230749631751072
16714656 1 18408880771826090598
20096714 4 18193837033376941413
21040471 1 17978228257757499685
23552423 10 18056187214560205998
29004967 10 18412542089506262122
5460574 1 9295291637978296738

> <PUBCHEM_SHAPE_MULTIPOLES>
122.36
2.41
1.2
0.56
0.2
0.34
0
-0.66
0
-0.13
0
-0.01
0.02
0

> <PUBCHEM_SHAPE_SELFOVERLAP>
249.906

> <PUBCHEM_SHAPE_VOLUME>
72.5

> <PUBCHEM_COORDINATE_TYPE>
2
5
10

$$$$

