121935
  -OEChem-07051212503D

 75 78  0     1  0  0  0  0  0999 V2000
   -2.9663    2.7669   -0.3304 O   0  0  0  0  0  0  0  0  0  0  0  0
    7.7265   -1.3411    0.6671 O   0  0  0  0  0  0  0  0  0  0  0  0
   -0.6819    0.9468   -0.0386 C   0  0  1  0  0  0  0  0  0  0  0  0
    0.0244   -0.0234   -1.0064 C   0  0  2  0  0  0  0  0  0  0  0  0
    1.5454    0.1563   -1.0415 C   0  0  1  0  0  0  0  0  0  0  0  0
    2.1251   -0.0408    0.3895 C   0  0  1  0  0  0  0  0  0  0  0  0
   -2.1508    0.5357   -0.3035 C   0  0  2  0  0  0  0  0  0  0  0  0
   -0.1731    0.6383    1.3765 C   0  0  0  0  0  0  0  0  0  0  0  0
   -0.7633    0.1222   -2.3049 C   0  0  0  0  0  0  0  0  0  0  0  0
    3.6918    0.1733    0.4137 C   0  0  2  0  0  0  0  0  0  0  0  0
    1.3568    0.7740    1.4666 C   0  0  0  0  0  0  0  0  0  0  0  0
   -2.2114    0.3639   -1.8397 C   0  0  0  0  0  0  0  0  0  0  0  0
    2.1888   -0.8427   -2.0148 C   0  0  0  0  0  0  0  0  0  0  0  0
   -3.2264    1.4705    0.2307 C   0  0  2  0  0  0  0  0  0  0  0  0
   -0.4527    2.4431   -0.3670 C   0  0  0  0  0  0  0  0  0  0  0  0
    4.3574   -0.5316   -0.7766 C   0  0  0  0  0  0  0  0  0  0  0  0
    4.2462   -0.4304    1.7387 C   0  0  0  0  0  0  0  0  0  0  0  0
    3.6663   -0.9860   -1.8363 C   0  0  0  0  0  0  0  0  0  0  0  0
    4.0556    1.6760    0.3436 C   0  0  0  0  0  0  0  0  0  0  0  0
    5.8567   -0.7138   -0.7201 C   0  0  0  0  0  0  0  0  0  0  0  0
   -4.6457    1.0580   -0.2201 C   0  0  0  0  0  0  0  0  0  0  0  0
    5.7691   -0.5449    1.7898 C   0  0  0  0  0  0  0  0  0  0  0  0
    6.3040   -1.3346    0.6004 C   0  0  2  0  0  0  0  0  0  0  0  0
   -3.1166    1.6011    1.7537 C   0  0  0  0  0  0  0  0  0  0  0  0
   -5.1235   -0.3090    0.2830 C   0  0  0  0  0  0  0  0  0  0  0  0
   -6.5679   -0.5784   -0.1586 C   0  0  0  0  0  0  0  0  0  0  0  0
   -7.1734   -1.9052    0.3388 C   0  0  0  0  0  0  0  0  0  0  0  0
   -7.1546   -2.0192    1.8629 C   0  0  0  0  0  0  0  0  0  0  0  0
   -6.5067   -3.1252   -0.2967 C   0  0  0  0  0  0  0  0  0  0  0  0
   -0.1598   -1.0529   -0.6545 H   0  0  0  0  0  0  0  0  0  0  0  0
    1.7849    1.1637   -1.3993 H   0  0  0  0  0  0  0  0  0  0  0  0
    1.9436   -1.0983    0.6426 H   0  0  0  0  0  0  0  0  0  0  0  0
   -2.3045   -0.4596    0.1388 H   0  0  0  0  0  0  0  0  0  0  0  0
   -0.4534   -0.3820    1.6678 H   0  0  0  0  0  0  0  0  0  0  0  0
   -0.5917    1.3051    2.1309 H   0  0  0  0  0  0  0  0  0  0  0  0
   -0.6904   -0.7726   -2.9313 H   0  0  0  0  0  0  0  0  0  0  0  0
   -0.4055    0.9719   -2.8971 H   0  0  0  0  0  0  0  0  0  0  0  0
    1.6112    1.8358    1.3989 H   0  0  0  0  0  0  0  0  0  0  0  0
    1.6669    0.4479    2.4659 H   0  0  0  0  0  0  0  0  0  0  0  0
   -2.6104    1.2427   -2.3578 H   0  0  0  0  0  0  0  0  0  0  0  0
   -2.8475   -0.4879   -2.1053 H   0  0  0  0  0  0  0  0  0  0  0  0
    1.9887   -0.5194   -3.0435 H   0  0  0  0  0  0  0  0  0  0  0  0
    1.7387   -1.8368   -1.9023 H   0  0  0  0  0  0  0  0  0  0  0  0
    0.6151    2.6780   -0.4244 H   0  0  0  0  0  0  0  0  0  0  0  0
   -0.8557    2.7425   -1.3394 H   0  0  0  0  0  0  0  0  0  0  0  0
   -0.8316    3.1046    0.4184 H   0  0  0  0  0  0  0  0  0  0  0  0
    3.8287   -1.4357    1.8870 H   0  0  0  0  0  0  0  0  0  0  0  0
    3.9195    0.1685    2.5973 H   0  0  0  0  0  0  0  0  0  0  0  0
    4.1913   -1.4967   -2.6401 H   0  0  0  0  0  0  0  0  0  0  0  0
    3.7397    2.2113    1.2449 H   0  0  0  0  0  0  0  0  0  0  0  0
    5.1350    1.8396    0.2572 H   0  0  0  0  0  0  0  0  0  0  0  0
    3.5927    2.1666   -0.5187 H   0  0  0  0  0  0  0  0  0  0  0  0
    6.2182   -1.3406   -1.5457 H   0  0  0  0  0  0  0  0  0  0  0  0
    6.3521    0.2545   -0.8648 H   0  0  0  0  0  0  0  0  0  0  0  0
   -4.7234    1.0961   -1.3139 H   0  0  0  0  0  0  0  0  0  0  0  0
   -5.3523    1.8266    0.1243 H   0  0  0  0  0  0  0  0  0  0  0  0
    6.2307    0.4498    1.8233 H   0  0  0  0  0  0  0  0  0  0  0  0
    6.0727   -1.0366    2.7224 H   0  0  0  0  0  0  0  0  0  0  0  0
    5.9613   -2.3745    0.6658 H   0  0  0  0  0  0  0  0  0  0  0  0
   -2.9554    0.6380    2.2475 H   0  0  0  0  0  0  0  0  0  0  0  0
   -2.3517    2.3203    2.0568 H   0  0  0  0  0  0  0  0  0  0  0  0
   -4.0484    2.0156    2.1596 H   0  0  0  0  0  0  0  0  0  0  0  0
   -3.6214    3.3868    0.0335 H   0  0  0  0  0  0  0  0  0  0  0  0
   -4.4724   -1.0981   -0.1048 H   0  0  0  0  0  0  0  0  0  0  0  0
   -5.0585   -0.3331    1.3749 H   0  0  0  0  0  0  0  0  0  0  0  0
    8.0528   -1.8509   -0.0940 H   0  0  0  0  0  0  0  0  0  0  0  0
   -6.6212   -0.5511   -1.2546 H   0  0  0  0  0  0  0  0  0  0  0  0
   -7.2032    0.2422    0.1996 H   0  0  0  0  0  0  0  0  0  0  0  0
   -8.2251   -1.9103    0.0225 H   0  0  0  0  0  0  0  0  0  0  0  0
   -7.5960   -1.1312    2.3270 H   0  0  0  0  0  0  0  0  0  0  0  0
   -7.7373   -2.8883    2.1873 H   0  0  0  0  0  0  0  0  0  0  0  0
   -6.1390   -2.1434    2.2518 H   0  0  0  0  0  0  0  0  0  0  0  0
   -5.4647   -3.2298    0.0218 H   0  0  0  0  0  0  0  0  0  0  0  0
   -7.0342   -4.0427   -0.0143 H   0  0  0  0  0  0  0  0  0  0  0  0
   -6.5241   -3.0536   -1.3892 H   0  0  0  0  0  0  0  0  0  0  0  0
  1 14  1  0  0  0  0
  1 63  1  0  0  0  0
  2 23  1  0  0  0  0
  2 66  1  0  0  0  0
  3  4  1  0  0  0  0
  3  7  1  0  0  0  0
  3  8  1  0  0  0  0
  3 15  1  0  0  0  0
  4  5  1  0  0  0  0
  4  9  1  0  0  0  0
  4 30  1  0  0  0  0
  5  6  1  0  0  0  0
  5 13  1  0  0  0  0
  5 31  1  0  0  0  0
  6 10  1  0  0  0  0
  6 11  1  0  0  0  0
  6 32  1  0  0  0  0
  7 12  1  0  0  0  0
  7 14  1  0  0  0  0
  7 33  1  0  0  0  0
  8 11  1  0  0  0  0
  8 34  1  0  0  0  0
  8 35  1  0  0  0  0
  9 12  1  0  0  0  0
  9 36  1  0  0  0  0
  9 37  1  0  0  0  0
 10 16  1  0  0  0  0
 10 17  1  0  0  0  0
 10 19  1  0  0  0  0
 11 38  1  0  0  0  0
 11 39  1  0  0  0  0
 12 40  1  0  0  0  0
 12 41  1  0  0  0  0
 13 18  1  0  0  0  0
 13 42  1  0  0  0  0
 13 43  1  0  0  0  0
 14 21  1  0  0  0  0
 14 24  1  0  0  0  0
 15 44  1  0  0  0  0
 15 45  1  0  0  0  0
 15 46  1  0  0  0  0
 16 18  2  0  0  0  0
 16 20  1  0  0  0  0
 17 22  1  0  0  0  0
 17 47  1  0  0  0  0
 17 48  1  0  0  0  0
 18 49  1  0  0  0  0
 19 50  1  0  0  0  0
 19 51  1  0  0  0  0
 19 52  1  0  0  0  0
 20 23  1  0  0  0  0
 20 53  1  0  0  0  0
 20 54  1  0  0  0  0
 21 25  1  0  0  0  0
 21 55  1  0  0  0  0
 21 56  1  0  0  0  0
 22 23  1  0  0  0  0
 22 57  1  0  0  0  0
 22 58  1  0  0  0  0
 23 59  1  0  0  0  0
 24 60  1  0  0  0  0
 24 61  1  0  0  0  0
 24 62  1  0  0  0  0
 25 26  1  0  0  0  0
 25 64  1  0  0  0  0
 25 65  1  0  0  0  0
 26 27  1  0  0  0  0
 26 67  1  0  0  0  0
 26 68  1  0  0  0  0
 27 28  1  0  0  0  0
 27 29  1  0  0  0  0
 27 69  1  0  0  0  0
 28 70  1  0  0  0  0
 28 71  1  0  0  0  0
 28 72  1  0  0  0  0
 29 73  1  0  0  0  0
 29 74  1  0  0  0  0
 29 75  1  0  0  0  0
M  END
> <PUBCHEM_COMPOUND_CID>
121935

> <PUBCHEM_CONFORMER_RMSD>
0.8

> <PUBCHEM_CONFORMER_DIVERSEORDER>
1
2
3

> <PUBCHEM_MMFF94_PARTIAL_CHARGES>
12
1 -0.68
10 0.14
13 0.14
14 0.28
16 -0.28
18 -0.29
2 -0.68
20 0.14
23 0.28
49 0.15
63 0.4
66 0.4

> <PUBCHEM_EFFECTIVE_ROTOR_COUNT>
7

> <PUBCHEM_PHARMACOPHORE_FEATURES>
10
1 1 acceptor
1 1 donor
1 2 acceptor
1 2 donor
3 27 28 29 hydrophobe
4 21 25 26 27 hydrophobe
5 3 4 7 9 12 rings
6 10 16 17 20 22 23 rings
6 3 4 5 6 8 11 rings
6 5 6 10 13 16 18 rings

> <PUBCHEM_HEAVY_ATOM_COUNT>
29

> <PUBCHEM_ATOM_DEF_STEREO_COUNT>
8

> <PUBCHEM_ATOM_UDEF_STEREO_COUNT>
0

> <PUBCHEM_BOND_DEF_STEREO_COUNT>
0

> <PUBCHEM_BOND_UDEF_STEREO_COUNT>
0

> <PUBCHEM_ISOTOPIC_ATOM_COUNT>
0

> <PUBCHEM_COMPONENT_COUNT>
1

> <PUBCHEM_CACTVS_TAUTO_COUNT>
1

> <PUBCHEM_CONFORMER_ID>
0001DC4F00000001

> <PUBCHEM_MMFF94_ENERGY>
94.7334

> <PUBCHEM_FEATURE_SELFOVERLAP>
50.898

> <PUBCHEM_SHAPE_FINGERPRINT>
10 15 17603311435958313170
10190206 1 12319467609948050447
10693767 8 15841284717542800938
10906281 52 13912610407604810752
11135609 12 18040435473436089278
11135926 11 15123508146779549289
11456790 92 14634870873050319954
11646440 116 16443348676130400690
12011746 2 13470400102520224436
12035758 1 17385446513807376823
12166972 35 17632857516493779613
12236239 1 17489866072345849652
12422481 6 17385718068200691167
13073987 5 17023460979395254722
13140716 1 16516834462668908992
13540713 4 16806992463546679029
13782708 43 18409728490838136307
14068700 675 18272087167888231261
14251764 18 14273746139840214313
14849402 71 14924240265426774659
14931854 50 12895074063428196568
15183329 4 13758081792389294479
15188451 53 18343303656699694607
15238133 3 6627747781833204307
16728433 281 10447664520744044575
17349148 13 16988554766821854796
18222031 100 16056882433579464356
18608769 82 17967814916475559246
19611394 137 18040718034780985395
200 152 16200429208266219237
20028762 73 17275108348970783602
20105231 36 16732974337228483838
2026 5 17058660784046290538
21267235 1 17022894688474274692
21424621 283 7853580114865687199
21521239 73 15913610553499449099
21623969 137 17385439929648957407
21637258 2 18202567267776749655
21756936 100 5400796168719721061
21781051 124 17967521360299157686
22149856 69 17313929875733424499
2215653 11 14333406761543894244
22224240 67 16081087078827869191
23522609 53 17344884516384213060
23569914 152 13251473086338496315
23569943 247 17624421170840153122
23576562 1 12966546630964785203
2747138 104 17749103400577820736
2838139 119 11455624145350120323
3004659 81 13830125092343616140
3009799 131 13398631645284985469
3178227 256 16950282893104629466
335352 9 14620504666488858941
3545911 37 16877951568195535244
3633792 109 15841552985162694948
392239 28 16443350841073453369
397830 11 18261120621031363233
4340502 62 16877662366103180342
465052 167 18335702723841887448
5104073 3 16081952376745600358
5385378 56 15140671505834632134
6086070 43 17489035940925032789
6328613 192 9007063469756442235
999808 66 18113337518237249727

> <PUBCHEM_SHAPE_MULTIPOLES>
585.07
18.8
2.24
1.95
8.86
0.04
-0.16
15
7.48
3.6
0.21
-0.7
0.32
0.9

> <PUBCHEM_SHAPE_SELFOVERLAP>
1218.225

> <PUBCHEM_SHAPE_VOLUME>
332.4

> <PUBCHEM_COORDINATE_TYPE>
2
5
10

$$$$

