5281838
  -OEChem-07051213003D

 47 49  0     0  0  0  0  0  0999 V2000
    2.2932   -1.6232    0.7804 O   0  0  0  0  0  0  0  0  0  0  0  0
   -4.4500    1.3922   -0.4737 O   0  0  0  0  0  0  0  0  0  0  0  0
   -0.0051   -2.5616    0.2761 O   0  0  0  0  0  0  0  0  0  0  0  0
    2.8351    3.0888    0.4414 O   0  0  0  0  0  0  0  0  0  0  0  0
   -6.0415   -0.7768   -0.2825 O   0  0  0  0  0  0  0  0  0  0  0  0
   -1.5402    1.1246   -0.3885 N   0  0  0  0  0  0  0  0  0  0  0  0
   -0.1697    1.0239   -0.0573 C   0  0  0  0  0  0  0  0  0  0  0  0
    0.3884   -0.2417    0.2088 C   0  0  0  0  0  0  0  0  0  0  0  0
   -2.4405    0.0442   -0.2464 C   0  0  0  0  0  0  0  0  0  0  0  0
   -1.9396   -1.2461    0.0148 C   0  0  0  0  0  0  0  0  0  0  0  0
   -0.4806   -1.4386    0.1679 C   0  0  0  0  0  0  0  0  0  0  0  0
    1.7457   -0.3997    0.5231 C   0  0  0  0  0  0  0  0  0  0  0  0
    2.5738    0.7149    0.5943 C   0  0  0  0  0  0  0  0  0  0  0  0
    0.6926    2.1313    0.0423 C   0  0  0  0  0  0  0  0  0  0  0  0
    2.0468    1.9792    0.3601 C   0  0  0  0  0  0  0  0  0  0  0  0
   -3.8383    0.1764   -0.3350 C   0  0  0  0  0  0  0  0  0  0  0  0
    4.0224    0.5618    0.9319 C   0  0  0  0  0  0  0  0  0  0  0  0
   -2.0583    2.4151   -0.8516 C   0  0  0  0  0  0  0  0  0  0  0  0
   -2.7872   -2.3555    0.1453 C   0  0  0  0  0  0  0  0  0  0  0  0
   -4.6886   -0.9268   -0.2009 C   0  0  0  0  0  0  0  0  0  0  0  0
   -4.1634   -2.1919    0.0330 C   0  0  0  0  0  0  0  0  0  0  0  0
    4.8906    0.3774   -0.2870 C   0  0  0  0  0  0  0  0  0  0  0  0
    5.6653   -0.6782   -0.6021 C   0  0  0  0  0  0  0  0  0  0  0  0
   -4.8068    2.0723    0.7249 C   0  0  0  0  0  0  0  0  0  0  0  0
    6.5091   -0.7965   -1.8395 C   0  0  0  0  0  0  0  0  0  0  0  0
    5.7468   -1.8655    0.3203 C   0  0  0  0  0  0  0  0  0  0  0  0
    0.3308    3.1457   -0.1024 H   0  0  0  0  0  0  0  0  0  0  0  0
    4.3901    1.4373    1.4826 H   0  0  0  0  0  0  0  0  0  0  0  0
    4.1382   -0.2297    1.6762 H   0  0  0  0  0  0  0  0  0  0  0  0
   -1.2877    3.0024   -1.3646 H   0  0  0  0  0  0  0  0  0  0  0  0
   -2.4260    3.0232   -0.0211 H   0  0  0  0  0  0  0  0  0  0  0  0
   -2.8072    2.3119   -1.6433 H   0  0  0  0  0  0  0  0  0  0  0  0
   -2.3926   -3.3484    0.3429 H   0  0  0  0  0  0  0  0  0  0  0  0
   -4.8195   -3.0511    0.1399 H   0  0  0  0  0  0  0  0  0  0  0  0
    4.8846    1.2128   -0.9866 H   0  0  0  0  0  0  0  0  0  0  0  0
    1.6064   -2.3008    0.8646 H   0  0  0  0  0  0  0  0  0  0  0  0
    3.7607    2.8650    0.2590 H   0  0  0  0  0  0  0  0  0  0  0  0
   -6.2370    0.1406   -0.5389 H   0  0  0  0  0  0  0  0  0  0  0  0
   -4.0086    2.0219    1.4731 H   0  0  0  0  0  0  0  0  0  0  0  0
   -5.7241    1.6464    1.1427 H   0  0  0  0  0  0  0  0  0  0  0  0
   -4.9945    3.1220    0.4821 H   0  0  0  0  0  0  0  0  0  0  0  0
    6.4294    0.0966   -2.4678 H   0  0  0  0  0  0  0  0  0  0  0  0
    7.5629   -0.9246   -1.5722 H   0  0  0  0  0  0  0  0  0  0  0  0
    6.1916   -1.6561   -2.4383 H   0  0  0  0  0  0  0  0  0  0  0  0
    5.0212   -1.8922    1.1316 H   0  0  0  0  0  0  0  0  0  0  0  0
    5.5890   -2.7859   -0.2538 H   0  0  0  0  0  0  0  0  0  0  0  0
    6.7456   -1.9173    0.7670 H   0  0  0  0  0  0  0  0  0  0  0  0
  1 12  1  0  0  0  0
  1 36  1  0  0  0  0
  2 16  1  0  0  0  0
  2 24  1  0  0  0  0
  3 11  2  0  0  0  0
  4 15  1  0  0  0  0
  4 37  1  0  0  0  0
  5 20  1  0  0  0  0
  5 38  1  0  0  0  0
  6  7  1  0  0  0  0
  6  9  1  0  0  0  0
  6 18  1  0  0  0  0
  7  8  1  0  0  0  0
  7 14  2  0  0  0  0
  8 11  1  0  0  0  0
  8 12  2  0  0  0  0
  9 10  2  0  0  0  0
  9 16  1  0  0  0  0
 10 11  1  0  0  0  0
 10 19  1  0  0  0  0
 12 13  1  0  0  0  0
 13 15  2  0  0  0  0
 13 17  1  0  0  0  0
 14 15  1  0  0  0  0
 14 27  1  0  0  0  0
 16 20  2  0  0  0  0
 17 22  1  0  0  0  0
 17 28  1  0  0  0  0
 17 29  1  0  0  0  0
 18 30  1  0  0  0  0
 18 31  1  0  0  0  0
 18 32  1  0  0  0  0
 19 21  2  0  0  0  0
 19 33  1  0  0  0  0
 20 21  1  0  0  0  0
 21 34  1  0  0  0  0
 22 23  2  0  0  0  0
 22 35  1  0  0  0  0
 23 25  1  0  0  0  0
 23 26  1  0  0  0  0
 24 39  1  0  0  0  0
 24 40  1  0  0  0  0
 24 41  1  0  0  0  0
 25 42  1  0  0  0  0
 25 43  1  0  0  0  0
 25 44  1  0  0  0  0
 26 45  1  0  0  0  0
 26 46  1  0  0  0  0
 26 47  1  0  0  0  0
M  END
> <PUBCHEM_COMPOUND_CID>
5281838

> <PUBCHEM_CONFORMER_RMSD>
0.6

> <PUBCHEM_CONFORMER_DIVERSEORDER>
3
17
13
5
16
8
21
15
6
12
11
19
18
20
7
2
14
9
10
4
1

> <PUBCHEM_MMFF94_PARTIAL_CHARGES>
33
1 -0.53
10 0.09
11 0.4
12 0.08
13 -0.14
14 -0.15
15 0.08
16 0.08
17 0.28
18 0.37
19 -0.15
2 -0.36
20 0.08
21 -0.15
22 -0.29
23 -0.28
24 0.28
25 0.14
26 0.14
27 0.15
3 -0.57
33 0.15
34 0.15
35 0.15
36 0.45
37 0.45
38 0.45
4 -0.53
5 -0.53
6 -0.57
7 0.1
8 0.09
9 0.1

> <PUBCHEM_EFFECTIVE_ROTOR_COUNT>
3

> <PUBCHEM_PHARMACOPHORE_FEATURES>
10
1 1 donor
1 2 acceptor
1 3 acceptor
1 4 donor
1 5 donor
1 6 cation
3 23 25 26 hydrophobe
6 6 7 8 9 10 11 rings
6 7 8 12 13 14 15 rings
6 9 10 16 19 20 21 rings

> <PUBCHEM_HEAVY_ATOM_COUNT>
26

> <PUBCHEM_ATOM_DEF_STEREO_COUNT>
0

> <PUBCHEM_ATOM_UDEF_STEREO_COUNT>
0

> <PUBCHEM_BOND_DEF_STEREO_COUNT>
0

> <PUBCHEM_BOND_UDEF_STEREO_COUNT>
0

> <PUBCHEM_ISOTOPIC_ATOM_COUNT>
0

> <PUBCHEM_COMPONENT_COUNT>
1

> <PUBCHEM_CACTVS_TAUTO_COUNT>
57

> <PUBCHEM_CONFORMER_ID>
0050982E00000003

> <PUBCHEM_MMFF94_ENERGY>
105.8715

> <PUBCHEM_FEATURE_SELFOVERLAP>
50.787

> <PUBCHEM_SHAPE_FINGERPRINT>
10366900 7 17847064371822062817
10967382 1 18341058415332536833
11524674 6 17095526205574809567
11578080 2 4677718752759879579
12011746 2 18341618109400281967
12403259 226 18337961077670457265
12596602 18 4895259405101961966
12954195 1 18262510515682838380
13140716 1 18413110554814831121
13402501 40 18407758140674495846
13533116 47 17822292328036308272
13782708 43 17676774179934404079
13862211 1 18411142454644555482
14341114 176 18340486652122269385
14790565 3 18341047505746580240
15183329 4 18411979183024882942
15196674 1 18339647732781100089
15475509 8 18115854369252014932
1601671 61 18412266163980654192
17492 89 18122345675132956931
17804303 29 18411703162255724532
17844677 252 18335416833670425752
1813 80 17131564842305676460
19591789 44 18339929225090517802
21033648 29 17531264841089044250
21236236 1 18409729577791539553
21267235 1 18412259502818960283
21279426 13 18408887356090278092
21682296 61 17968086551787696358
221357 26 18410294701024779950
2215653 11 18261112967652693278
22182313 1 18269016218636911692
2297311 6 18411132532795062303
23175994 123 17531247240360622144
23522609 53 18126820868084177684
23559900 14 18337116665762338360
3004659 81 18272931653248754622
335352 9 18410858784971101381
350125 39 18412828001442892541
4214541 1 18410296904401284921
437815 12 17967525788352105044
5104073 3 18339368474055143728
6138700 20 18410009983532955294
6823239 73 18408329878368096048
9709674 26 18195811764803051530

> <PUBCHEM_SHAPE_MULTIPOLES>
500.74
13.44
2.91
0.93
8.13
0.61
-0.19
-3.79
-3
-1.06
0.24
1
0.02
0.49

> <PUBCHEM_SHAPE_SELFOVERLAP>
1094.259

> <PUBCHEM_SHAPE_VOLUME>
271.6

> <PUBCHEM_COORDINATE_TYPE>
2
5
10

$$$$

