9610218
  -OEChem-07051213103D

 22 22  0     0  0  0  0  0  0999 V2000
    5.0086   -0.0607    0.1510 O   0  0  0  0  0  0  0  0  0  0  0  0
    3.7873   -0.4778   -0.3838 N   0  0  0  0  0  0  0  0  0  0  0  0
    0.5141    0.1964    0.7180 C   0  0  0  0  0  0  0  0  0  0  0  0
   -0.9269    0.0737    0.3535 C   0  0  0  0  0  0  0  0  0  0  0  0
    1.4539    0.2001   -0.4953 C   0  0  0  0  0  0  0  0  0  0  0  0
   -1.6871    1.2196    0.1194 C   0  0  0  0  0  0  0  0  0  0  0  0
   -1.5146   -1.1869    0.2464 C   0  0  0  0  0  0  0  0  0  0  0  0
   -3.0347    1.1052   -0.2217 C   0  0  0  0  0  0  0  0  0  0  0  0
   -2.8623   -1.3014   -0.0948 C   0  0  0  0  0  0  0  0  0  0  0  0
    2.8840    0.3871   -0.0641 C   0  0  0  0  0  0  0  0  0  0  0  0
   -3.6223   -0.1553   -0.3288 C   0  0  0  0  0  0  0  0  0  0  0  0
    0.6676    1.1108    1.3070 H   0  0  0  0  0  0  0  0  0  0  0  0
    0.7962   -0.6209    1.3956 H   0  0  0  0  0  0  0  0  0  0  0  0
    1.3573   -0.7303   -1.0662 H   0  0  0  0  0  0  0  0  0  0  0  0
    1.2025    1.0321   -1.1631 H   0  0  0  0  0  0  0  0  0  0  0  0
   -1.2405    2.2073    0.1977 H   0  0  0  0  0  0  0  0  0  0  0  0
   -0.9327   -2.0874    0.4243 H   0  0  0  0  0  0  0  0  0  0  0  0
   -3.6265    1.9973   -0.4045 H   0  0  0  0  0  0  0  0  0  0  0  0
   -3.3198   -2.2828   -0.1788 H   0  0  0  0  0  0  0  0  0  0  0  0
    3.1194    1.2953    0.5194 H   0  0  0  0  0  0  0  0  0  0  0  0
   -4.6715   -0.2445   -0.5947 H   0  0  0  0  0  0  0  0  0  0  0  0
    5.6038   -0.7701   -0.1446 H   0  0  0  0  0  0  0  0  0  0  0  0
  1  2  1  0  0  0  0
  1 22  1  0  0  0  0
  2 10  2  0  0  0  0
  3  4  1  0  0  0  0
  3  5  1  0  0  0  0
  3 12  1  0  0  0  0
  3 13  1  0  0  0  0
  4  6  2  0  0  0  0
  4  7  1  0  0  0  0
  5 10  1  0  0  0  0
  5 14  1  0  0  0  0
  5 15  1  0  0  0  0
  6  8  1  0  0  0  0
  6 16  1  0  0  0  0
  7  9  2  0  0  0  0
  7 17  1  0  0  0  0
  8 11  2  0  0  0  0
  8 18  1  0  0  0  0
  9 11  1  0  0  0  0
  9 19  1  0  0  0  0
 10 20  1  0  0  0  0
 11 21  1  0  0  0  0
M  END
> <PUBCHEM_COMPOUND_CID>
9610218

> <PUBCHEM_CONFORMER_RMSD>
0.6

> <PUBCHEM_CONFORMER_DIVERSEORDER>
1
3
6
7
5
4
2

> <PUBCHEM_MMFF94_PARTIAL_CHARGES>
18
1 -0.34
10 0.33
11 -0.15
16 0.15
17 0.15
18 0.15
19 0.15
2 -0.51
20 0.06
21 0.15
22 0.4
3 0.14
4 -0.14
5 0.06
6 -0.15
7 -0.15
8 -0.15
9 -0.15

> <PUBCHEM_EFFECTIVE_ROTOR_COUNT>
3

> <PUBCHEM_PHARMACOPHORE_FEATURES>
3
1 1 anion
1 2 acceptor
6 4 6 7 8 9 11 rings

> <PUBCHEM_HEAVY_ATOM_COUNT>
11

> <PUBCHEM_ATOM_DEF_STEREO_COUNT>
0

> <PUBCHEM_ATOM_UDEF_STEREO_COUNT>
0

> <PUBCHEM_BOND_DEF_STEREO_COUNT>
1

> <PUBCHEM_BOND_UDEF_STEREO_COUNT>
0

> <PUBCHEM_ISOTOPIC_ATOM_COUNT>
0

> <PUBCHEM_COMPONENT_COUNT>
1

> <PUBCHEM_CACTVS_TAUTO_COUNT>
2

> <PUBCHEM_CONFORMER_ID>
0092A3EA00000001

> <PUBCHEM_MMFF94_ENERGY>
21.0859

> <PUBCHEM_FEATURE_SELFOVERLAP>
15.223

> <PUBCHEM_SHAPE_FINGERPRINT>
10465860 250 18040722480493954304
11062470 55 18040152928959507788
12932764 1 17346330283768868888
13024252 1 17489585650184518659
14325111 11 18411135835799031460
14911166 2 18410866451740854261
18186145 218 16916790634713582924
1986462 14 18412543210487380103
200 152 16732707155391113373
20201158 50 17967810556856646879
20279233 1 17748821921353680446
20645476 183 17775293746509605763
20645477 56 18338514243978548013
20645477 70 17241322611770424758
20711985 327 13984663633507797544
21061003 4 16950280680900884577
21119208 17 18059858363198504222
22485316 2 17749111093001573062
23402539 116 18335709359735256133
23559900 14 18261396680734476938
573450 72 18271818955364141322
93112 12 18413387609900980788

> <PUBCHEM_SHAPE_MULTIPOLES>
215.52
7.81
1.2
0.72
9.41
0.05
-0.02
0.56
0.89
-1.09
0
-0.01
-0.01
0.07

> <PUBCHEM_SHAPE_SELFOVERLAP>
433.708

> <PUBCHEM_SHAPE_VOLUME>
126.5

> <PUBCHEM_COORDINATE_TYPE>
2
5
10

$$$$

