5280540
  -OEChem-07051212473D

 82 83  0     1  0  0  0  0  0999 V2000
   -0.0074    0.9856    0.8782 O   0  0  0  0  0  0  0  0  0  0  0  0
   -2.2775    3.0620    1.5444 O   0  0  0  0  0  0  0  0  0  0  0  0
   -0.7626    0.3643   -2.8302 O   0  0  0  0  0  0  0  0  0  0  0  0
   -0.0402   -3.6730   -0.7158 C   0  0  1  0  0  0  0  0  0  0  0  0
    4.4907   -1.1705   -0.8123 C   0  0  2  0  0  0  0  0  0  0  0  0
    1.2117   -3.2201   -1.4995 C   0  0  0  0  0  0  0  0  0  0  0  0
    3.4186   -1.9892   -1.5674 C   0  0  0  0  0  0  0  0  0  0  0  0
    2.2473   -2.4363   -0.6838 C   0  0  0  0  0  0  0  0  0  0  0  0
   -0.4147    2.2115    0.2607 C   0  0  2  0  0  0  0  0  0  0  0  0
   -0.9526   -2.4760   -0.3786 C   0  0  0  0  0  0  0  0  0  0  0  0
    4.0156    0.2719   -0.5355 C   0  0  0  0  0  0  0  0  0  0  0  0
   -0.2178    2.0950   -1.2582 C   0  0  1  0  0  0  0  0  0  0  0  0
   -2.1215   -2.8500    0.5398 C   0  0  0  0  0  0  0  0  0  0  0  0
    4.7461    1.0193    0.5885 C   0  0  0  0  0  0  0  0  0  0  0  0
    0.4133    3.3370    0.8845 C   0  0  0  0  0  0  0  0  0  0  0  0
   -0.7944   -4.7840   -1.4517 C   0  0  0  0  0  0  0  0  0  0  0  0
    4.2752    2.4667    0.7607 C   0  0  0  0  0  0  0  0  0  0  0  0
   -1.6739   -3.4428    1.8820 C   0  0  0  0  0  0  0  0  0  0  0  0
    5.7920   -1.1933   -1.6226 C   0  0  0  0  0  0  0  0  0  0  0  0
   -1.8828    2.3372    0.6358 C   0  0  0  0  0  0  0  0  0  0  0  0
   -1.1180    1.0273   -1.8591 C   0  0  0  0  0  0  0  0  0  0  0  0
    2.8260    2.5397    1.1877 C   0  0  0  0  0  0  0  0  0  0  0  0
   -0.7396   -2.5578    2.7290 C   0  0  0  0  0  0  0  0  0  0  0  0
    1.8649    3.2079    0.5204 C   0  0  0  0  0  0  0  0  0  0  0  0
   -2.8497    1.4995   -0.1105 C   0  0  0  0  0  0  0  0  0  0  0  0
   -0.4408    3.3987   -2.0258 C   0  0  0  0  0  0  0  0  0  0  0  0
   -2.4728    0.8481   -1.2878 C   0  0  0  0  0  0  0  0  0  0  0  0
    2.4956    1.8054    2.4610 C   0  0  0  0  0  0  0  0  0  0  0  0
   -1.4408   -1.2376    3.0614 C   0  0  0  0  0  0  0  0  0  0  0  0
   -0.2945   -3.2458    4.0199 C   0  0  0  0  0  0  0  0  0  0  0  0
   -4.1501    1.3476    0.3863 C   0  0  0  0  0  0  0  0  0  0  0  0
   -3.3938    0.0334   -1.9577 C   0  0  0  0  0  0  0  0  0  0  0  0
   -5.0648    0.5384   -0.2877 C   0  0  0  0  0  0  0  0  0  0  0  0
   -4.6866   -0.1199   -1.4557 C   0  0  0  0  0  0  0  0  0  0  0  0
    0.3368   -4.1117    0.2155 H   0  0  0  0  0  0  0  0  0  0  0  0
    4.6862   -1.6665    0.1472 H   0  0  0  0  0  0  0  0  0  0  0  0
    1.7124   -4.1072   -1.9094 H   0  0  0  0  0  0  0  0  0  0  0  0
    0.8945   -2.6210   -2.3629 H   0  0  0  0  0  0  0  0  0  0  0  0
    3.8819   -2.8908   -1.9891 H   0  0  0  0  0  0  0  0  0  0  0  0
    3.0429   -1.4045   -2.4168 H   0  0  0  0  0  0  0  0  0  0  0  0
    2.6203   -3.0644    0.1338 H   0  0  0  0  0  0  0  0  0  0  0  0
    1.7738   -1.5638   -0.2270 H   0  0  0  0  0  0  0  0  0  0  0  0
   -1.3629   -2.0770   -1.3131 H   0  0  0  0  0  0  0  0  0  0  0  0
   -0.3817   -1.6619    0.0746 H   0  0  0  0  0  0  0  0  0  0  0  0
    2.9509    0.2504   -0.2822 H   0  0  0  0  0  0  0  0  0  0  0  0
    4.0878    0.8563   -1.4623 H   0  0  0  0  0  0  0  0  0  0  0  0
    0.8023    1.7361   -1.4553 H   0  0  0  0  0  0  0  0  0  0  0  0
   -2.7850   -3.5635    0.0385 H   0  0  0  0  0  0  0  0  0  0  0  0
   -2.7375   -1.9605    0.7104 H   0  0  0  0  0  0  0  0  0  0  0  0
    4.6548    0.4594    1.5264 H   0  0  0  0  0  0  0  0  0  0  0  0
    5.8176    1.0447    0.3567 H   0  0  0  0  0  0  0  0  0  0  0  0
    0.0559    4.3179    0.5457 H   0  0  0  0  0  0  0  0  0  0  0  0
    0.2861    3.3639    1.9719 H   0  0  0  0  0  0  0  0  0  0  0  0
   -1.5777   -5.2249   -0.8287 H   0  0  0  0  0  0  0  0  0  0  0  0
   -0.1136   -5.5960   -1.7295 H   0  0  0  0  0  0  0  0  0  0  0  0
   -1.2557   -4.4042   -2.3694 H   0  0  0  0  0  0  0  0  0  0  0  0
    4.8936    2.9600    1.5203 H   0  0  0  0  0  0  0  0  0  0  0  0
    4.4312    3.0164   -0.1755 H   0  0  0  0  0  0  0  0  0  0  0  0
   -1.2011   -4.4181    1.7190 H   0  0  0  0  0  0  0  0  0  0  0  0
   -2.5785   -3.6594    2.4665 H   0  0  0  0  0  0  0  0  0  0  0  0
    6.5881   -0.6515   -1.1027 H   0  0  0  0  0  0  0  0  0  0  0  0
    6.1396   -2.2207   -1.7748 H   0  0  0  0  0  0  0  0  0  0  0  0
    5.6542   -0.7322   -2.6064 H   0  0  0  0  0  0  0  0  0  0  0  0
    0.1680   -2.3332    2.1573 H   0  0  0  0  0  0  0  0  0  0  0  0
    2.1625    3.7260   -0.3897 H   0  0  0  0  0  0  0  0  0  0  0  0
   -1.4247    3.8291   -1.8104 H   0  0  0  0  0  0  0  0  0  0  0  0
    0.3168    4.1508   -1.7918 H   0  0  0  0  0  0  0  0  0  0  0  0
   -0.3966    3.2239   -3.1070 H   0  0  0  0  0  0  0  0  0  0  0  0
   -0.1151    1.0792    1.8399 H   0  0  0  0  0  0  0  0  0  0  0  0
    1.5844    2.1411    2.9580 H   0  0  0  0  0  0  0  0  0  0  0  0
    3.2982    1.9527    3.1932 H   0  0  0  0  0  0  0  0  0  0  0  0
    2.4032    0.7307    2.2742 H   0  0  0  0  0  0  0  0  0  0  0  0
   -2.3673   -1.4099    3.6199 H   0  0  0  0  0  0  0  0  0  0  0  0
   -0.7933   -0.6033    3.6767 H   0  0  0  0  0  0  0  0  0  0  0  0
   -1.6892   -0.6677    2.1635 H   0  0  0  0  0  0  0  0  0  0  0  0
   -1.1521   -3.4868    4.6569 H   0  0  0  0  0  0  0  0  0  0  0  0
    0.2338   -4.1786    3.7965 H   0  0  0  0  0  0  0  0  0  0  0  0
    0.3846   -2.6040    4.5911 H   0  0  0  0  0  0  0  0  0  0  0  0
   -4.4664    1.8415    1.3011 H   0  0  0  0  0  0  0  0  0  0  0  0
   -3.1275   -0.4839   -2.8756 H   0  0  0  0  0  0  0  0  0  0  0  0
   -6.0719    0.4182    0.1011 H   0  0  0  0  0  0  0  0  0  0  0  0
   -5.3997   -0.7509   -1.9782 H   0  0  0  0  0  0  0  0  0  0  0  0
  1  9  1  0  0  0  0
  1 69  1  0  0  0  0
  2 20  2  0  0  0  0
  3 21  2  0  0  0  0
  4  6  1  0  0  0  0
  4 10  1  0  0  0  0
  4 16  1  0  0  0  0
  4 35  1  0  0  0  0
  5  7  1  0  0  0  0
  5 11  1  0  0  0  0
  5 19  1  0  0  0  0
  5 36  1  0  0  0  0
  6  8  1  0  0  0  0
  6 37  1  0  0  0  0
  6 38  1  0  0  0  0
  7  8  1  0  0  0  0
  7 39  1  0  0  0  0
  7 40  1  0  0  0  0
  8 41  1  0  0  0  0
  8 42  1  0  0  0  0
  9 12  1  0  0  0  0
  9 15  1  0  0  0  0
  9 20  1  0  0  0  0
 10 13  1  0  0  0  0
 10 43  1  0  0  0  0
 10 44  1  0  0  0  0
 11 14  1  0  0  0  0
 11 45  1  0  0  0  0
 11 46  1  0  0  0  0
 12 21  1  0  0  0  0
 12 26  1  0  0  0  0
 12 47  1  0  0  0  0
 13 18  1  0  0  0  0
 13 48  1  0  0  0  0
 13 49  1  0  0  0  0
 14 17  1  0  0  0  0
 14 50  1  0  0  0  0
 14 51  1  0  0  0  0
 15 24  1  0  0  0  0
 15 52  1  0  0  0  0
 15 53  1  0  0  0  0
 16 54  1  0  0  0  0
 16 55  1  0  0  0  0
 16 56  1  0  0  0  0
 17 22  1  0  0  0  0
 17 57  1  0  0  0  0
 17 58  1  0  0  0  0
 18 23  1  0  0  0  0
 18 59  1  0  0  0  0
 18 60  1  0  0  0  0
 19 61  1  0  0  0  0
 19 62  1  0  0  0  0
 19 63  1  0  0  0  0
 20 25  1  0  0  0  0
 21 27  1  0  0  0  0
 22 24  2  0  0  0  0
 22 28  1  0  0  0  0
 23 29  1  0  0  0  0
 23 30  1  0  0  0  0
 23 64  1  0  0  0  0
 24 65  1  0  0  0  0
 25 27  1  0  0  0  0
 25 31  2  0  0  0  0
 26 66  1  0  0  0  0
 26 67  1  0  0  0  0
 26 68  1  0  0  0  0
 27 32  2  0  0  0  0
 28 70  1  0  0  0  0
 28 71  1  0  0  0  0
 28 72  1  0  0  0  0
 29 73  1  0  0  0  0
 29 74  1  0  0  0  0
 29 75  1  0  0  0  0
 30 76  1  0  0  0  0
 30 77  1  0  0  0  0
 30 78  1  0  0  0  0
 31 33  1  0  0  0  0
 31 79  1  0  0  0  0
 32 34  1  0  0  0  0
 32 80  1  0  0  0  0
 33 34  2  0  0  0  0
 33 81  1  0  0  0  0
 34 82  1  0  0  0  0
M  END
> <PUBCHEM_COMPOUND_CID>
5280540

> <PUBCHEM_CONFORMER_RMSD>
1.8

> <PUBCHEM_CONFORMER_DIVERSEORDER>
1
112
167
145
196
185
3
138
67
162
109
156
208
27
115
201
9
148
135
119
8
180
194
17
25
183
2
212
16
55
171
206
207
72
219
100
179
189
32
133
76
13
184
224
45
89
5
6
165
22
31
21
188
110
106
215
37
220
214
108
102
218
101
14
4
50
71
149
84
160
77
139
94
65
123
121
222
157
202
40
141
11
122
155
116
96
128
129
41
80
168
91
63
192
62
86
26
47
137
74
210
178
57
146
195
44
223
18
132
166
34
38
51
54
140
78
88
150
39
161
36
7
153
23
182
43
24
221
213
90
64
28
97
83
87
82
151
33
163
226
93
175
164
130
124
136
118
53
107
19
158
49
199
98
169
81
114
29
113
190
134
46
211
79
104
10
111
73
30
181
147
70
95
152
198
216
120
20
173
127
75
85
177
117
204
197
205
42
59
12
61
56
154
225
66
48
131
58
69
203
217
15
176
103
144
143
174
186
193
126
52
159
92
187
170
209
172
60
191
105
68
35
142
125
99
200

> <PUBCHEM_MMFF94_PARTIAL_CHARGES>
24
1 -0.68
12 0.06
15 0.14
17 0.14
2 -0.57
20 0.42
21 0.42
22 -0.28
24 -0.29
25 0.09
27 0.09
28 0.14
3 -0.57
31 -0.15
32 -0.15
33 -0.15
34 -0.15
65 0.15
69 0.4
79 0.15
80 0.15
81 0.15
82 0.15
9 0.34

> <PUBCHEM_EFFECTIVE_ROTOR_COUNT>
14.4

> <PUBCHEM_PHARMACOPHORE_FEATURES>
10
1 1 acceptor
1 1 donor
1 16 hydrophobe
1 19 hydrophobe
1 2 acceptor
1 28 hydrophobe
1 3 acceptor
3 23 29 30 hydrophobe
6 25 27 31 32 33 34 rings
6 9 12 20 21 25 27 rings

> <PUBCHEM_HEAVY_ATOM_COUNT>
34

> <PUBCHEM_ATOM_DEF_STEREO_COUNT>
2

> <PUBCHEM_ATOM_UDEF_STEREO_COUNT>
2

> <PUBCHEM_BOND_DEF_STEREO_COUNT>
1

> <PUBCHEM_BOND_UDEF_STEREO_COUNT>
0

> <PUBCHEM_ISOTOPIC_ATOM_COUNT>
0

> <PUBCHEM_COMPONENT_COUNT>
1

> <PUBCHEM_CACTVS_TAUTO_COUNT>
2

> <PUBCHEM_CONFORMER_ID>
0050931C00000001

> <PUBCHEM_MMFF94_ENERGY>
63.1205

> <PUBCHEM_FEATURE_SELFOVERLAP>
50.765

> <PUBCHEM_SHAPE_FINGERPRINT>
10032420 55 18195247947735767484
12156800 1 17131255858242705171
12355185 1 18127977605703309370
12422481 6 17982707720449707659
13165053 68 18187075119852898987
13402501 40 18408044005133851566
1361 2 18333736818367842503
19319366 153 15245619121796649238
19930381 70 18190181376257989951
20764821 26 18335986368257078726
3383291 50 18334020492869618390
3493558 16 14276526989293245421
35225 105 17846225474757758402
392239 28 18261387896825113623
5080951 261 17403227687599533216

> <PUBCHEM_SHAPE_MULTIPOLES>
682.1
8.4
6.11
3.12
6.03
3.7
-2.33
-1.8
2.73
-0.06
-0.96
-0.62
2.16
2.79

> <PUBCHEM_SHAPE_SELFOVERLAP>
1376.706

> <PUBCHEM_SHAPE_VOLUME>
398.1

> <PUBCHEM_COORDINATE_TYPE>
2
5
10

$$$$

