156006
  -OEChem-07051213093D

 51 52  0     1  0  0  0  0  0999 V2000
   -2.3313    1.2975    0.2282 O   0  0  0  0  0  0  0  0  0  0  0  0
    1.0449   -0.4549    0.5530 O   0  0  0  0  0  0  0  0  0  0  0  0
    4.4609    0.4074    0.7575 O   0  0  0  0  0  0  0  0  0  0  0  0
    4.3993   -1.1745   -1.6626 O   0  0  0  0  0  0  0  0  0  0  0  0
    2.1863    0.8369    2.0752 O   0  0  0  0  0  0  0  0  0  0  0  0
   -4.0145    2.6015   -0.6680 O   0  0  0  0  0  0  0  0  0  0  0  0
   -2.6728   -2.1380   -0.8392 N   0  0  2  0  0  0  0  0  0  0  0  0
   -1.7532   -0.9865   -0.5383 C   0  0  1  0  0  0  0  0  0  0  0  0
   -2.6139    0.2752   -0.7034 C   0  0  1  0  0  0  0  0  0  0  0  0
   -4.0413   -0.2198   -0.5623 C   0  0  0  0  0  0  0  0  0  0  0  0
   -3.9729   -1.5745   -1.2335 C   0  0  0  0  0  0  0  0  0  0  0  0
   -1.1877   -1.2761    0.8223 C   0  0  0  0  0  0  0  0  0  0  0  0
   -2.7634   -2.9342    0.4070 C   0  0  0  0  0  0  0  0  0  0  0  0
   -1.7509   -2.3699    1.3395 C   0  0  0  0  0  0  0  0  0  0  0  0
   -0.0862   -0.4825    1.4290 C   0  0  0  0  0  0  0  0  0  0  0  0
    3.2694    0.1959   -0.0174 C   0  0  2  0  0  0  0  0  0  0  0  0
    3.1915    1.3763   -1.0319 C   0  0  0  0  0  0  0  0  0  0  0  0
    2.1249    0.2469    1.0026 C   0  0  0  0  0  0  0  0  0  0  0  0
    3.3707   -1.2085   -0.6657 C   0  0  2  0  0  0  0  0  0  0  0  0
   -3.1114    2.4158    0.1363 C   0  0  0  0  0  0  0  0  0  0  0  0
    1.9376    1.3109   -1.9197 C   0  0  0  0  0  0  0  0  0  0  0  0
    3.2939    2.7704   -0.4063 C   0  0  0  0  0  0  0  0  0  0  0  0
    3.7205   -2.3241    0.3165 C   0  0  0  0  0  0  0  0  0  0  0  0
   -2.7007    3.4088    1.1810 C   0  0  0  0  0  0  0  0  0  0  0  0
   -0.9442   -0.9868   -1.2789 H   0  0  0  0  0  0  0  0  0  0  0  0
   -2.4595    0.6631   -1.7206 H   0  0  0  0  0  0  0  0  0  0  0  0
   -4.3314   -0.3052    0.4922 H   0  0  0  0  0  0  0  0  0  0  0  0
   -4.7806    0.4115   -1.0619 H   0  0  0  0  0  0  0  0  0  0  0  0
   -3.9749   -1.4478   -2.3233 H   0  0  0  0  0  0  0  0  0  0  0  0
   -4.8254   -2.2165   -0.9870 H   0  0  0  0  0  0  0  0  0  0  0  0
   -3.7529   -2.8949    0.8772 H   0  0  0  0  0  0  0  0  0  0  0  0
   -2.5318   -3.9800    0.1810 H   0  0  0  0  0  0  0  0  0  0  0  0
   -1.5042   -2.8038    2.2976 H   0  0  0  0  0  0  0  0  0  0  0  0
   -0.4171    0.5415    1.6286 H   0  0  0  0  0  0  0  0  0  0  0  0
    0.2209   -0.9298    2.3826 H   0  0  0  0  0  0  0  0  0  0  0  0
    4.0620    1.2999   -1.6977 H   0  0  0  0  0  0  0  0  0  0  0  0
    2.4408   -1.4692   -1.1823 H   0  0  0  0  0  0  0  0  0  0  0  0
    1.9688    2.0971   -2.6824 H   0  0  0  0  0  0  0  0  0  0  0  0
    1.0220    1.4560   -1.3374 H   0  0  0  0  0  0  0  0  0  0  0  0
    1.8656    0.3555   -2.4468 H   0  0  0  0  0  0  0  0  0  0  0  0
    2.4841    2.9542    0.3066 H   0  0  0  0  0  0  0  0  0  0  0  0
    3.2327    3.5444   -1.1799 H   0  0  0  0  0  0  0  0  0  0  0  0
    4.2483    2.9153    0.1087 H   0  0  0  0  0  0  0  0  0  0  0  0
    3.7636   -3.2862   -0.2064 H   0  0  0  0  0  0  0  0  0  0  0  0
    2.9835   -2.4083    1.1199 H   0  0  0  0  0  0  0  0  0  0  0  0
    4.7110   -2.1729    0.7586 H   0  0  0  0  0  0  0  0  0  0  0  0
    4.3394    1.1933    1.3156 H   0  0  0  0  0  0  0  0  0  0  0  0
   -1.6572    3.6960    1.0287 H   0  0  0  0  0  0  0  0  0  0  0  0
   -2.8403    2.9781    2.1757 H   0  0  0  0  0  0  0  0  0  0  0  0
   -3.3244    4.3033    1.0969 H   0  0  0  0  0  0  0  0  0  0  0  0
    4.4196   -2.0462   -2.0931 H   0  0  0  0  0  0  0  0  0  0  0  0
  1  9  1  0  0  0  0
  1 20  1  0  0  0  0
  2 15  1  0  0  0  0
  2 18  1  0  0  0  0
  3 16  1  0  0  0  0
  3 47  1  0  0  0  0
  4 19  1  0  0  0  0
  4 51  1  0  0  0  0
  5 18  2  0  0  0  0
  6 20  2  0  0  0  0
  7  8  1  0  0  0  0
  7 11  1  0  0  0  0
  7 13  1  0  0  0  0
  8  9  1  0  0  0  0
  8 12  1  0  0  0  0
  8 25  1  0  0  0  0
  9 10  1  0  0  0  0
  9 26  1  0  0  0  0
 10 11  1  0  0  0  0
 10 27  1  0  0  0  0
 10 28  1  0  0  0  0
 11 29  1  0  0  0  0
 11 30  1  0  0  0  0
 12 14  2  0  0  0  0
 12 15  1  0  0  0  0
 13 14  1  0  0  0  0
 13 31  1  0  0  0  0
 13 32  1  0  0  0  0
 14 33  1  0  0  0  0
 15 34  1  0  0  0  0
 15 35  1  0  0  0  0
 16 17  1  0  0  0  0
 16 18  1  0  0  0  0
 16 19  1  0  0  0  0
 17 21  1  0  0  0  0
 17 22  1  0  0  0  0
 17 36  1  0  0  0  0
 19 23  1  0  0  0  0
 19 37  1  0  0  0  0
 20 24  1  0  0  0  0
 21 38  1  0  0  0  0
 21 39  1  0  0  0  0
 21 40  1  0  0  0  0
 22 41  1  0  0  0  0
 22 42  1  0  0  0  0
 22 43  1  0  0  0  0
 23 44  1  0  0  0  0
 23 45  1  0  0  0  0
 23 46  1  0  0  0  0
 24 48  1  0  0  0  0
 24 49  1  0  0  0  0
 24 50  1  0  0  0  0
M  END
> <PUBCHEM_COMPOUND_CID>
156006

> <PUBCHEM_CONFORMER_RMSD>
1

> <PUBCHEM_CONFORMER_DIVERSEORDER>
1
156
154
73
173
49
143
37
102
86
126
142
182
53
59
165
81
135
167
33
62
149
103
169
168
130
30
127
172
13
46
115
97
17
79
141
122
75
178
174
129
43
50
166
48
29
52
136
99
6
116
152
104
10
187
28
112
186
128
183
140
65
83
20
145
78
44
123
77
94
47
121
16
23
147
7
151
51
134
72
159
35
39
80
95
31
90
5
24
63
69
158
84
54
137
96
85
55
188
148
161
19
106
74
98
184
60
157
177
57
67
131
105
76
8
93
189
87
22
163
175
125
108
26
185
11
91
89
110
40
164
12
153
15
92
18
138
88
133
124
4
38
61
171
45
66
162
68
146
120
179
64
42
113
21
119
36
2
25
9
117
34
114
3
170
155
82
56
27
101
111
176
32
118
100
70
71
58
160
180
150
14
144
109
139
41
132
107
181

> <PUBCHEM_MMFF94_PARTIAL_CHARGES>
22
1 -0.43
11 0.27
12 -0.28
13 0.41
14 -0.29
15 0.42
16 0.34
18 0.66
19 0.28
2 -0.43
20 0.66
24 0.06
3 -0.68
33 0.15
4 -0.68
47 0.4
5 -0.57
51 0.4
6 -0.57
7 -0.81
8 0.41
9 0.28

> <PUBCHEM_EFFECTIVE_ROTOR_COUNT>
8.8

> <PUBCHEM_PHARMACOPHORE_FEATURES>
10
1 3 acceptor
1 3 donor
1 4 acceptor
1 4 donor
1 5 acceptor
1 6 acceptor
1 7 cation
3 17 21 22 hydrophobe
5 7 8 12 13 14 rings
5 7 8 9 10 11 rings

> <PUBCHEM_HEAVY_ATOM_COUNT>
24

> <PUBCHEM_ATOM_DEF_STEREO_COUNT>
4

> <PUBCHEM_ATOM_UDEF_STEREO_COUNT>
0

> <PUBCHEM_BOND_DEF_STEREO_COUNT>
0

> <PUBCHEM_BOND_UDEF_STEREO_COUNT>
0

> <PUBCHEM_ISOTOPIC_ATOM_COUNT>
0

> <PUBCHEM_COMPONENT_COUNT>
1

> <PUBCHEM_CACTVS_TAUTO_COUNT>
1

> <PUBCHEM_CONFORMER_ID>
0002616600000001

> <PUBCHEM_MMFF94_ENERGY>
50.3707

> <PUBCHEM_FEATURE_SELFOVERLAP>
51.25

> <PUBCHEM_SHAPE_FINGERPRINT>
10498660 4 18200600172502038903
11578080 2 17749114365840714448
12173636 292 18342458114909526919
12363563 72 16298387997898618136
12596599 1 17989205915146195654
12633257 1 18130792312683311830
12788726 201 18340775832270172875
13224815 77 18340483344596583218
13583140 156 17386301929949111832
14123250 116 18413385436732321353
14251751 93 18337952419464378681
14251764 38 18269558252178859156
15664445 248 17324390418717335815
17492 89 18341329998636477382
18186145 218 17417539020607682430
19930381 70 17618219507903089637
20510252 161 18058448690956250027
21524375 3 18121781892319266609
21864079 5 18131350812650135873
22393880 68 18260823822191699494
22907989 373 18337940191534205495
23557571 272 18335151846888574249
23558518 356 18341895220801327627
23559900 14 18411145723088391338
5161694 15 18186801417495408166
5895379 119 18411983559676055696
7164475 11 18410573950828642557
7399639 24 17462869591360366051
7832392 63 18272645779492108564
9709674 26 18409728435187970070

> <PUBCHEM_SHAPE_MULTIPOLES>
453.71
9.18
3.61
1.57
3.16
1.52
0.06
0.46
-2.38
-2.68
0.49
0.52
0.1
-0.57

> <PUBCHEM_SHAPE_SELFOVERLAP>
931.774

> <PUBCHEM_SHAPE_VOLUME>
261.7

> <PUBCHEM_COORDINATE_TYPE>
2
5
10

$$$$

