440840
  -OEChem-07051212513D

 51 52  0     1  0  0  0  0  0999 V2000
    2.5754   -0.2199   -2.3524 P   0  0  1  0  0  0  0  0  0  0  0  0
    1.4213   -2.6648   -1.1878 P   0  0  2  0  0  0  0  0  0  0  0  0
    1.0018   -2.3160    1.7115 P   0  0  0  0  0  0  0  0  0  0  0  0
    0.5528    2.7678    0.0154 O   0  0  0  0  0  0  0  0  0  0  0  0
    3.3953    2.2088    2.1340 O   0  0  0  0  0  0  0  0  0  0  0  0
    1.1894    3.6418    2.9295 O   0  0  0  0  0  0  0  0  0  0  0  0
    2.0663    0.7296   -1.1451 O   0  0  0  0  0  0  0  0  0  0  0  0
    1.5984   -1.5053   -2.2973 O   0  0  0  0  0  0  0  0  0  0  0  0
    2.1012    0.5480   -3.6951 O   0  0  0  0  0  0  0  0  0  0  0  0
    4.0377   -0.5570   -2.3152 O   0  0  0  0  0  0  0  0  0  0  0  0
   -4.3136   -1.2708   -0.9107 O   0  0  0  0  0  0  0  0  0  0  0  0
    1.1448   -1.8401    0.1737 O   0  0  0  0  0  0  0  0  0  0  0  0
    2.9192   -3.2372   -0.9837 O   0  0  0  0  0  0  0  0  0  0  0  0
    0.3883   -3.7043   -1.5089 O   0  0  0  0  0  0  0  0  0  0  0  0
   -3.3539   -2.9428    2.1632 O   0  0  0  0  0  0  0  0  0  0  0  0
   -0.1473   -3.4503    1.6381 O   0  0  0  0  0  0  0  0  0  0  0  0
    2.3521   -3.1641    1.9736 O   0  0  0  0  0  0  0  0  0  0  0  0
    0.7412   -1.2069    2.6878 O   0  0  0  0  0  0  0  0  0  0  0  0
   -0.8848    1.2740    1.1584 N   0  0  0  0  0  0  0  0  0  0  0  0
   -2.1581    2.0516   -0.6900 N   0  0  0  0  0  0  0  0  0  0  0  0
   -2.4080   -1.1206    1.0357 N   0  0  0  0  0  0  0  0  0  0  0  0
   -3.8691    0.8187   -1.7441 N   0  0  0  0  0  0  0  0  0  0  0  0
   -3.2806    2.9756   -2.4707 N   0  0  0  0  0  0  0  0  0  0  0  0
    2.1594    1.9194    1.5170 C   0  0  1  0  0  0  0  0  0  0  0  0
    0.9606    2.3685    2.3289 C   0  0  2  0  0  0  0  0  0  0  0  0
    1.9733    2.6897    0.2212 C   0  0  1  0  0  0  0  0  0  0  0  0
   -0.1205    2.4953    1.2611 C   0  0  1  0  0  0  0  0  0  0  0  0
    2.6265    2.0205   -0.9754 C   0  0  0  0  0  0  0  0  0  0  0  0
   -1.8641    1.0725    0.2392 C   0  0  0  0  0  0  0  0  0  0  0  0
   -2.5882   -0.0683    0.1819 C   0  0  0  0  0  0  0  0  0  0  0  0
   -3.1379    1.8955   -1.6390 C   0  0  0  0  0  0  0  0  0  0  0  0
   -3.6620   -0.2297   -0.8648 C   0  0  0  0  0  0  0  0  0  0  0  0
   -3.4169   -1.9792    1.4099 C   0  0  0  0  0  0  0  0  0  0  0  0
    2.0995    0.8390    1.3464 H   0  0  0  0  0  0  0  0  0  0  0  0
    0.7174    1.6783    3.1417 H   0  0  0  0  0  0  0  0  0  0  0  0
    2.3637    3.7109    0.3078 H   0  0  0  0  0  0  0  0  0  0  0  0
   -0.7883    3.3378    1.4777 H   0  0  0  0  0  0  0  0  0  0  0  0
    3.7085    1.9328   -0.8359 H   0  0  0  0  0  0  0  0  0  0  0  0
    2.4277    2.6005   -1.8822 H   0  0  0  0  0  0  0  0  0  0  0  0
   -0.7226    0.5430    1.8422 H   0  0  0  0  0  0  0  0  0  0  0  0
    3.3943    1.7775    3.0055 H   0  0  0  0  0  0  0  0  0  0  0  0
    1.3438    4.2945    2.2263 H   0  0  0  0  0  0  0  0  0  0  0  0
   -1.6106    2.9033   -0.6568 H   0  0  0  0  0  0  0  0  0  0  0  0
   -1.5232   -1.2021    1.5255 H   0  0  0  0  0  0  0  0  0  0  0  0
    2.6450    1.2901   -4.0352 H   0  0  0  0  0  0  0  0  0  0  0  0
   -2.7007    3.8015   -2.3704 H   0  0  0  0  0  0  0  0  0  0  0  0
   -3.9723    2.9790   -3.2124 H   0  0  0  0  0  0  0  0  0  0  0  0
   -4.4209   -1.6567    1.1123 H   0  0  0  0  0  0  0  0  0  0  0  0
    3.2858   -3.8563   -1.6503 H   0  0  0  0  0  0  0  0  0  0  0  0
   -0.4913   -3.8328    2.4732 H   0  0  0  0  0  0  0  0  0  0  0  0
    2.5356   -3.4977    2.8776 H   0  0  0  0  0  0  0  0  0  0  0  0
  1  7  1  0  0  0  0
  1  8  1  0  0  0  0
  1  9  1  0  0  0  0
  1 10  2  0  0  0  0
  2  8  1  0  0  0  0
  2 12  1  0  0  0  0
  2 13  1  0  0  0  0
  2 14  2  0  0  0  0
  3 12  1  0  0  0  0
  3 16  1  0  0  0  0
  3 17  1  0  0  0  0
  3 18  2  0  0  0  0
  4 26  1  0  0  0  0
  4 27  1  0  0  0  0
  5 24  1  0  0  0  0
  5 41  1  0  0  0  0
  6 25  1  0  0  0  0
  6 42  1  0  0  0  0
  7 28  1  0  0  0  0
  9 45  1  0  0  0  0
 11 32  2  0  0  0  0
 13 49  1  0  0  0  0
 15 33  2  0  0  0  0
 16 50  1  0  0  0  0
 17 51  1  0  0  0  0
 19 27  1  0  0  0  0
 19 29  1  0  0  0  0
 19 40  1  0  0  0  0
 20 29  1  0  0  0  0
 20 31  1  0  0  0  0
 20 43  1  0  0  0  0
 21 30  1  0  0  0  0
 21 33  1  0  0  0  0
 21 44  1  0  0  0  0
 22 31  2  0  0  0  0
 22 32  1  0  0  0  0
 23 31  1  0  0  0  0
 23 46  1  0  0  0  0
 23 47  1  0  0  0  0
 24 25  1  0  0  0  0
 24 26  1  0  0  0  0
 24 34  1  0  0  0  0
 25 27  1  0  0  0  0
 25 35  1  0  0  0  0
 26 28  1  0  0  0  0
 26 36  1  0  0  0  0
 27 37  1  0  0  0  0
 28 38  1  0  0  0  0
 28 39  1  0  0  0  0
 29 30  2  0  0  0  0
 30 32  1  0  0  0  0
 33 48  1  0  0  0  0
M  END
> <PUBCHEM_COMPOUND_CID>
440840

> <PUBCHEM_CONFORMER_RMSD>
1.2

> <PUBCHEM_CONFORMER_DIVERSEORDER>
1
61
267
314
3
129
361
30
317
356
321
351
97
120
153
238
349
359
260
158
60
275
208
392
81
439
32
25
162
416
64
249
382
170
298
176
418
336
412
421
189
88
136
286
250
222
396
444
239
445
6
169
214
373
404
186
193
348
255
369
432
402
258
340
293
182
240
150
33
400
313
59
155
387
35
423
440
312
375
63
178
277
98
216
320
307
401
383
157
244
218
253
75
330
152
425
128
69
397
295
231
224
141
327
271
206
294
215
197
297
125
252
38
119
161
259
399
430
322
149
406
315
441
140
437
409
436
426
104
433
209
384
434
92
374
96
350
306
363
329
242
212
65
413
55
296
353
133
308
122
431
228
341
117
23
142
190
338
21
199
303
381
131
40
192
230
300
138
366
204
139
9
201
301
355
422
171
95
261
443
343
103
202
210
289
188
407
18
335
332
135
227
290
172
26
108
236
185
219
281
62
130
380
19
268
31
27
226
280
299
395
124
175
213
91
126
410
198
334
37
316
181
415
333
319
325
417
66
165
90
438
195
442
232
377
225
246
446
72
368
419
100
207
58
372
241
326
205
221
394
309
22
71
147
148
12
173
20
408
223
144
376
145
183
42
264
344
112
56
291
427
328
217
137
53
52
89
110
388
39
379
414
263
196
99
166
194
127
364
36
2
174
428
163
386
146
311
256
310
220
393
288
237
80
424
403
371
167
398
67
251
168
233
78
46
367
243
429
84
48
156
102
234
269
180
211
8
191
323
116
235
305
273
385
362
115
203
159
389
76
82
347
134
132
435
47
278
274
101
187
179
270
34
114
360
43
420
28
346
49
345
54
151
15
45
17
160
283
86
292
318
324
357
282
85
304
287
378
41
411
247
5
83
339
248
257
4
10
358
51
93
285
342
13
266
254
245
73
229
352
272
390
337
94
118
276
331
365
154
200
123
77
184
177
370
262
79
107
109
24
68
16
164
279
7
143
29
14
50
57
111
121
105
391
106
44
265
284
11
354
113
302
87
70
74
405

> <PUBCHEM_MMFF94_PARTIAL_CHARGES>
45
1 1.51
10 -0.7
11 -0.57
12 -0.54
13 -0.77
14 -0.7
15 -0.57
16 -0.77
17 -0.77
18 -0.7
19 -0.87
2 1.51
20 -0.55
21 -0.54
22 -0.66
23 -0.85
24 0.28
25 0.28
26 0.28
27 0.65
28 0.28
29 0.2
3 1.51
30 0.12
31 0.55
32 0.77
33 0.57
4 -0.56
40 0.4
41 0.4
42 0.4
43 0.4
44 0.37
45 0.5
46 0.4
47 0.4
48 0.06
49 0.5
5 -0.68
50 0.5
51 0.5
6 -0.68
7 -0.55
8 -0.54
9 -0.77

> <PUBCHEM_EFFECTIVE_ROTOR_COUNT>
12

> <PUBCHEM_PHARMACOPHORE_FEATURES>
23
1 10 acceptor
1 11 acceptor
1 13 acceptor
1 14 acceptor
1 15 acceptor
1 16 acceptor
1 17 acceptor
1 18 acceptor
1 19 cation
1 19 donor
1 20 donor
1 21 donor
1 22 donor
1 23 donor
1 4 acceptor
1 5 acceptor
1 5 donor
1 6 acceptor
1 6 donor
1 9 acceptor
4 3 16 17 18 anion
5 4 24 25 26 27 rings
6 20 22 29 30 31 32 rings

> <PUBCHEM_HEAVY_ATOM_COUNT>
33

> <PUBCHEM_ATOM_DEF_STEREO_COUNT>
4

> <PUBCHEM_ATOM_UDEF_STEREO_COUNT>
0

> <PUBCHEM_BOND_DEF_STEREO_COUNT>
0

> <PUBCHEM_BOND_UDEF_STEREO_COUNT>
0

> <PUBCHEM_ISOTOPIC_ATOM_COUNT>
0

> <PUBCHEM_COMPONENT_COUNT>
1

> <PUBCHEM_CACTVS_TAUTO_COUNT>
18

> <PUBCHEM_CONFORMER_ID>
0006BA0800000001

> <PUBCHEM_MMFF94_ENERGY>
22.4381

> <PUBCHEM_FEATURE_SELFOVERLAP>
116.952

> <PUBCHEM_SHAPE_FINGERPRINT>
12156800 1 18060425690361962186
12422481 6 16966582895220786979
12539773 59 16680317913367125544
12655364 131 15576938878628160296
12788726 201 17174038121735754708
13947920 24 17119961571870720492
13965767 371 15951024417832233904
20600515 1 17550686833609949678
20905425 154 18339100249147375681
238 59 18263364702788576813
3380486 77 17194606724490049771
35225 105 17624712154114008422
3524813 1 17905292205605931574
469060 322 15688635059945695338

> <PUBCHEM_SHAPE_MULTIPOLES>
577.73
6.37
5.11
3.43
4.63
1.63
-0.49
0.19
-2.77
-1.69
1.97
-1.7
-0.32
3.16

> <PUBCHEM_SHAPE_SELFOVERLAP>
1156.693

> <PUBCHEM_SHAPE_VOLUME>
340.2

> <PUBCHEM_COORDINATE_TYPE>
2
5
10

$$$$

