91739
  -OEChem-07051213123D

 20 21  0     0  0  0  0  0  0999 V2000
    3.6242    1.1261   -0.0481 Cl  0  0  0  0  0  0  0  0  0  0  0  0
   -4.6695   -0.2799    0.0575 Cl  0  0  0  0  0  0  0  0  0  0  0  0
    1.6336   -2.1828   -1.0220 O   0  0  0  0  0  0  0  0  0  0  0  0
    2.7300   -1.7430    0.9091 O   0  0  0  0  0  0  0  0  0  0  0  0
   -0.8362   -1.3552    0.0639 N   0  0  0  0  0  0  0  0  0  0  0  0
   -0.8919    1.0529   -0.0102 C   0  0  0  0  0  0  0  0  0  0  0  0
   -0.1938   -0.1725    0.0226 C   0  0  0  0  0  0  0  0  0  0  0  0
    1.1978   -0.1339    0.0109 C   0  0  0  0  0  0  0  0  0  0  0  0
   -0.1892    2.2691   -0.0533 C   0  0  0  0  0  0  0  0  0  0  0  0
    1.8966    1.0749   -0.0319 C   0  0  0  0  0  0  0  0  0  0  0  0
   -2.2927    1.0147    0.0015 C   0  0  0  0  0  0  0  0  0  0  0  0
    1.2027    2.2781   -0.0642 C   0  0  0  0  0  0  0  0  0  0  0  0
   -2.9574   -0.2024    0.0442 C   0  0  0  0  0  0  0  0  0  0  0  0
   -2.1889   -1.3484    0.0739 C   0  0  0  0  0  0  0  0  0  0  0  0
    1.9347   -1.3978    0.0462 C   0  0  0  0  0  0  0  0  0  0  0  0
   -0.7228    3.2166   -0.0788 H   0  0  0  0  0  0  0  0  0  0  0  0
   -2.8620    1.9422   -0.0234 H   0  0  0  0  0  0  0  0  0  0  0  0
    1.7270    3.2295   -0.0979 H   0  0  0  0  0  0  0  0  0  0  0  0
   -2.6418   -2.3348    0.1074 H   0  0  0  0  0  0  0  0  0  0  0  0
    2.1252   -3.0315   -1.0020 H   0  0  0  0  0  0  0  0  0  0  0  0
  1 10  1  0  0  0  0
  2 13  1  0  0  0  0
  3 15  1  0  0  0  0
  3 20  1  0  0  0  0
  4 15  2  0  0  0  0
  5  7  2  0  0  0  0
  5 14  1  0  0  0  0
  6  7  1  0  0  0  0
  6  9  1  0  0  0  0
  6 11  2  0  0  0  0
  7  8  1  0  0  0  0
  8 10  2  0  0  0  0
  8 15  1  0  0  0  0
  9 12  2  0  0  0  0
  9 16  1  0  0  0  0
 10 12  1  0  0  0  0
 11 13  1  0  0  0  0
 11 17  1  0  0  0  0
 12 18  1  0  0  0  0
 13 14  2  0  0  0  0
 14 19  1  0  0  0  0
M  END
> <PUBCHEM_COMPOUND_CID>
91739

> <PUBCHEM_CONFORMER_RMSD>
0.4

> <PUBCHEM_CONFORMER_DIVERSEORDER>
1
2

> <PUBCHEM_MMFF94_PARTIAL_CHARGES>
19
1 -0.18
10 0.18
11 -0.15
12 -0.15
13 0.18
14 0.16
15 0.63
16 0.15
17 0.15
18 0.15
19 0.15
2 -0.18
20 0.5
3 -0.65
4 -0.57
5 -0.62
7 0.31
8 0.09
9 -0.15

> <PUBCHEM_EFFECTIVE_ROTOR_COUNT>
1

> <PUBCHEM_PHARMACOPHORE_FEATURES>
6
1 3 acceptor
1 4 acceptor
1 5 acceptor
3 3 4 15 anion
6 5 6 7 11 13 14 rings
6 6 7 8 9 10 12 rings

> <PUBCHEM_HEAVY_ATOM_COUNT>
15

> <PUBCHEM_ATOM_DEF_STEREO_COUNT>
0

> <PUBCHEM_ATOM_UDEF_STEREO_COUNT>
0

> <PUBCHEM_BOND_DEF_STEREO_COUNT>
0

> <PUBCHEM_BOND_UDEF_STEREO_COUNT>
0

> <PUBCHEM_ISOTOPIC_ATOM_COUNT>
0

> <PUBCHEM_COMPONENT_COUNT>
1

> <PUBCHEM_CACTVS_TAUTO_COUNT>
1

> <PUBCHEM_CONFORMER_ID>
0001665B00000001

> <PUBCHEM_MMFF94_ENERGY>
46.1454

> <PUBCHEM_FEATURE_SELFOVERLAP>
30.541

> <PUBCHEM_SHAPE_FINGERPRINT>
10967382 1 18411136909345631177
10980938 120 18409726240412163361
11132069 177 18338521824527084928
11471102 20 18410858733278428317
11578080 2 16843339032373866758
116883 192 18191303995073627597
12346645 6 18334856091256257015
12382932 28 18410012113308732928
12524768 44 18409162246618152423
13140716 1 18050568439221727673
13221675 6 18337386046015853565
13380535 76 18339923705894096563
14576447 43 18044108852012253655
14790565 3 16749848830070052404
15196674 1 18411701019399314233
15219456 202 18342182184709026805
15442244 35 18337669832059632849
15536298 74 18334293175557007432
16945 1 18339927000213276705
17990270 104 18408882966343421198
193761 8 18194400215443583332
20201158 50 18340486677496304241
20511035 2 17695620754174385348
20559304 39 18409448081018375521
20588541 1 18341047419710110205
20645476 183 17269462146530107188
20645477 70 18410579496306960487
20871998 22 18263641942848665590
21267235 1 18411410730822801050
21501502 16 18338232781575327576
21501925 9 18339371845598870795
2334 1 18339079396991566917
23402655 69 18335990809474919517
23463225 33 18412829075195123160
23552423 10 18269552737081609317
23559900 14 16820523242749267502
2748010 2 18267589189587171749
3060560 45 18114175302984263054
34934 24 18337678524693469277
4072396 5 18269292208860959048
5104073 3 18411134758363673329
528886 8 18337393716790624928
53812653 166 18335985246769707920
7364860 26 18334574625006663352
81228 2 17906445880907787968
8809292 202 18057602070996876563

> <PUBCHEM_SHAPE_MULTIPOLES>
295.71
5.88
2.39
0.7
4.05
0.01
0.02
-0.47
-0.27
-1.46
0.12
-0.17
-0.17
-0.06

> <PUBCHEM_SHAPE_SELFOVERLAP>
634.942

> <PUBCHEM_SHAPE_VOLUME>
165.3

> <PUBCHEM_COORDINATE_TYPE>
2
5
10

$$$$

