161243
  -OEChem-07051212513D

 43 48  0     0  0  0  0  0  0999 V2000
    4.1462   -2.3531    0.0667 O   0  0  0  0  0  0  0  0  0  0  0  0
    5.7912   -0.6034   -0.0595 O   0  0  0  0  0  0  0  0  0  0  0  0
    2.5415    2.8461   -0.2514 O   0  0  0  0  0  0  0  0  0  0  0  0
   -5.2899   -1.7591    0.1140 O   0  0  0  0  0  0  0  0  0  0  0  0
   -6.0770    0.5126   -0.0228 O   0  0  0  0  0  0  0  0  0  0  0  0
   -0.0467   -1.5668    0.0529 N   0  3  0  0  0  0  0  0  0  0  0  0
   -0.5539   -0.3182   -0.0229 C   0  0  0  0  0  0  0  0  0  0  0  0
    0.3666    0.7670   -0.1005 C   0  0  0  0  0  0  0  0  0  0  0  0
    1.7781    0.5031   -0.0958 C   0  0  0  0  0  0  0  0  0  0  0  0
    2.2073   -0.8398   -0.0131 C   0  0  0  0  0  0  0  0  0  0  0  0
   -1.9699   -0.1119   -0.0233 C   0  0  0  0  0  0  0  0  0  0  0  0
   -2.4619    1.2237   -0.1045 C   0  0  0  0  0  0  0  0  0  0  0  0
    1.2579   -1.8494    0.0602 C   0  0  0  0  0  0  0  0  0  0  0  0
    3.5738   -1.1160   -0.0071 C   0  0  0  0  0  0  0  0  0  0  0  0
   -0.1826    2.0620   -0.1789 C   0  0  0  0  0  0  0  0  0  0  0  0
    2.7953    1.5059   -0.1694 C   0  0  0  0  0  0  0  0  0  0  0  0
   -1.5603    2.2851   -0.1810 C   0  0  0  0  0  0  0  0  0  0  0  0
   -2.9228   -1.1600    0.0528 C   0  0  0  0  0  0  0  0  0  0  0  0
    4.5192   -0.1226   -0.0790 C   0  0  0  0  0  0  0  0  0  0  0  0
   -3.8434    1.4902   -0.1084 C   0  0  0  0  0  0  0  0  0  0  0  0
    4.1614    1.2004   -0.1611 C   0  0  0  0  0  0  0  0  0  0  0  0
   -4.2711   -0.8591    0.0464 C   0  0  0  0  0  0  0  0  0  0  0  0
   -0.7883   -2.8241    0.1356 C   0  0  0  0  0  0  0  0  0  0  0  0
   -4.7195    0.4314   -0.0317 C   0  0  0  0  0  0  0  0  0  0  0  0
    5.5473   -2.0196    0.0343 C   0  0  0  0  0  0  0  0  0  0  0  0
   -6.4335   -0.8817    0.0697 C   0  0  0  0  0  0  0  0  0  0  0  0
    2.4349    3.5575    0.9778 C   0  0  0  0  0  0  0  0  0  0  0  0
    1.5815   -2.8845    0.1244 H   0  0  0  0  0  0  0  0  0  0  0  0
    0.3943    2.9631   -0.3057 H   0  0  0  0  0  0  0  0  0  0  0  0
   -1.9180    3.3108   -0.2569 H   0  0  0  0  0  0  0  0  0  0  0  0
   -2.8000   -2.2174    0.1209 H   0  0  0  0  0  0  0  0  0  0  0  0
   -4.2229    2.5063   -0.1696 H   0  0  0  0  0  0  0  0  0  0  0  0
    4.9157    1.9784   -0.2191 H   0  0  0  0  0  0  0  0  0  0  0  0
   -1.3221   -2.8546    1.0898 H   0  0  0  0  0  0  0  0  0  0  0  0
   -1.3418   -2.9674   -0.7968 H   0  0  0  0  0  0  0  0  0  0  0  0
   -0.1370   -3.7060    0.1810 H   0  0  0  0  0  0  0  0  0  0  0  0
    6.0061   -2.5137   -0.8298 H   0  0  0  0  0  0  0  0  0  0  0  0
    6.0198   -2.3983    0.9479 H   0  0  0  0  0  0  0  0  0  0  0  0
   -7.0278   -1.0329    0.9782 H   0  0  0  0  0  0  0  0  0  0  0  0
   -7.0459   -1.1463   -0.8001 H   0  0  0  0  0  0  0  0  0  0  0  0
    3.4348    3.7453    1.3820 H   0  0  0  0  0  0  0  0  0  0  0  0
    1.8413    3.0113    1.7184 H   0  0  0  0  0  0  0  0  0  0  0  0
    1.9573    4.5216    0.7815 H   0  0  0  0  0  0  0  0  0  0  0  0
  1 14  1  0  0  0  0
  1 25  1  0  0  0  0
  2 19  1  0  0  0  0
  2 25  1  0  0  0  0
  3 16  1  0  0  0  0
  3 27  1  0  0  0  0
  4 22  1  0  0  0  0
  4 26  1  0  0  0  0
  5 24  1  0  0  0  0
  5 26  1  0  0  0  0
  6  7  1  0  0  0  0
  6 13  2  0  0  0  0
  6 23  1  0  0  0  0
  7  8  2  0  0  0  0
  7 11  1  0  0  0  0
  8  9  1  0  0  0  0
  8 15  1  0  0  0  0
  9 10  1  0  0  0  0
  9 16  2  0  0  0  0
 10 13  1  0  0  0  0
 10 14  2  0  0  0  0
 11 12  1  0  0  0  0
 11 18  2  0  0  0  0
 12 17  1  0  0  0  0
 12 20  2  0  0  0  0
 13 28  1  0  0  0  0
 14 19  1  0  0  0  0
 15 17  2  0  0  0  0
 15 29  1  0  0  0  0
 16 21  1  0  0  0  0
 17 30  1  0  0  0  0
 18 22  1  0  0  0  0
 18 31  1  0  0  0  0
 19 21  2  0  0  0  0
 20 24  1  0  0  0  0
 20 32  1  0  0  0  0
 21 33  1  0  0  0  0
 22 24  2  0  0  0  0
 23 34  1  0  0  0  0
 23 35  1  0  0  0  0
 23 36  1  0  0  0  0
 25 37  1  0  0  0  0
 25 38  1  0  0  0  0
 26 39  1  0  0  0  0
 26 40  1  0  0  0  0
 27 41  1  0  0  0  0
 27 42  1  0  0  0  0
 27 43  1  0  0  0  0
M  CHG  1   6   1
M  END
> <PUBCHEM_COMPOUND_CID>
161243

> <PUBCHEM_CONFORMER_RMSD>
0.6

> <PUBCHEM_CONFORMER_DIVERSEORDER>
1

> <PUBCHEM_MMFF94_PARTIAL_CHARGES>
28
1 -0.36
13 0.21
14 0.08
15 -0.15
16 0.08
17 -0.15
18 -0.15
19 0.08
2 -0.36
20 -0.15
21 -0.15
22 0.08
23 0.49
24 0.08
25 0.56
26 0.56
27 0.28
28 0.15
29 0.15
3 -0.36
30 0.15
31 0.15
32 0.15
33 0.15
4 -0.36
5 -0.36
6 -0.21
7 0.36

> <PUBCHEM_EFFECTIVE_ROTOR_COUNT>
2.2

> <PUBCHEM_PHARMACOPHORE_FEATURES>
11
1 1 acceptor
1 2 acceptor
1 3 acceptor
1 4 acceptor
1 5 acceptor
5 1 2 14 19 25 rings
5 4 5 22 24 26 rings
6 11 12 18 20 22 24 rings
6 6 7 8 9 10 13 rings
6 7 8 11 12 15 17 rings
6 9 10 14 16 19 21 rings

> <PUBCHEM_HEAVY_ATOM_COUNT>
27

> <PUBCHEM_ATOM_DEF_STEREO_COUNT>
0

> <PUBCHEM_ATOM_UDEF_STEREO_COUNT>
0

> <PUBCHEM_BOND_DEF_STEREO_COUNT>
0

> <PUBCHEM_BOND_UDEF_STEREO_COUNT>
0

> <PUBCHEM_ISOTOPIC_ATOM_COUNT>
0

> <PUBCHEM_COMPONENT_COUNT>
1

> <PUBCHEM_CACTVS_TAUTO_COUNT>
1

> <PUBCHEM_CONFORMER_ID>
000275DB00000001

> <PUBCHEM_MMFF94_ENERGY>
136.5212

> <PUBCHEM_FEATURE_SELFOVERLAP>
56.196

> <PUBCHEM_SHAPE_FINGERPRINT>
10 15 18340215107637442296
10411042 1 18338516469114284342
10967382 1 18339360760393995516
1100329 8 18410857624844939818
11045977 3 18201434762073354659
11578080 2 16952552186415265066
11607047 403 16089852149022210315
12107183 9 17619067673612418083
12166972 35 17988918994293352716
12236239 1 17967813843102623111
12403259 226 18340773727420245148
12403259 415 18202010923230257589
12403260 363 18410571803329482120
12788726 201 17749655346894322760
13140716 1 18195534692689915898
13402501 40 18412262843601656175
13533116 47 18336264548376915593
138480 1 18410575063748230124
13862211 1 18411983584844297259
14341114 176 18410852165888245760
14790565 3 18410288104166302081
14955137 171 18114462353060443582
15196674 1 18411699898075220421
15927050 60 17902232209406933316
17492 89 18122345941526625694
17844677 252 18408598171758034305
18681886 176 18334583446822276802
19591789 44 18411420600725933157
200 152 18260550039168735913
20028762 73 18260833700089492399
21033648 29 17703526427614676453
21133410 127 17843131302861760005
21236236 1 18337672026935627001
21267235 1 18411974776335670191
21279426 13 18340770467296857525
21682296 61 18189327043081509982
21792934 111 18408328792005458489
21859007 373 17843993487486194525
221357 26 18411419535669041348
221490 88 18413102840642188600
22182313 1 18057910015741507853
22393880 68 18059586827261679597
23402539 116 18408046212589084911
23522609 53 18122872499953259196
23559900 14 18411142415604851401
3004659 81 18201718475165609902
3178227 256 18341320163250449779
335352 9 18411136943705415479
350125 39 18411698798516373253
3680242 22 18269836569984926938
4073 2 18059850611067794219
4093350 32 16805597037404593580
4214541 1 18411418449253565325
465052 167 18335135397422377870
5104073 3 18409167739855041968
6138700 20 18341611567996577250
9709674 26 18341609270104346651
9981440 41 17618790150407247968

> <PUBCHEM_SHAPE_MULTIPOLES>
521.32
12.86
3.17
0.64
6.96
1.19
-0.03
-4.4
-0.07
-2.24
-0.4
-0.09
0.15
0.32

> <PUBCHEM_SHAPE_SELFOVERLAP>
1216.047

> <PUBCHEM_SHAPE_VOLUME>
266.1

> <PUBCHEM_COORDINATE_TYPE>
2
5
10

$$$$

