5281483
  -OEChem-07051212572D

 51 53  0     1  0  0  0  0  0999 V2000
    5.1482    2.7238    0.0000 O   0  0  0  0  0  0  0  0  0  0  0  0
    5.7812   -0.4847    0.0000 O   0  0  0  0  0  0  0  0  0  0  0  0
    4.6840   -1.9721    0.0000 O   0  0  0  0  0  0  0  0  0  0  0  0
    6.8881    3.0820    0.0000 O   0  0  0  0  0  0  0  0  0  0  0  0
    7.4789   -0.1415    0.0000 O   0  0  0  0  0  0  0  0  0  0  0  0
    4.0984   -0.2951    0.0000 C   0  0  2  0  0  0  0  0  0  0  0  0
    5.2219    1.1138    0.0000 C   0  0  1  0  0  0  0  0  0  0  0  0
    3.1974    0.1388    0.0000 C   0  0  2  0  0  0  0  0  0  0  0  0
    4.9994    0.1388    0.0000 C   0  0  2  0  0  0  0  0  0  0  0  0
    4.5984    1.8956    0.0000 C   0  0  1  0  0  0  0  0  0  0  0  0
    2.9749    1.1138    0.0000 C   0  0  1  0  0  0  0  0  0  0  0  0
    3.5984    1.8956    0.0000 C   0  0  0  0  0  0  0  0  0  0  0  0
    6.1517    1.4655    0.0000 C   0  0  1  0  0  0  0  0  0  0  0  0
    3.9624   -1.2798    0.0000 C   0  0  0  0  0  0  0  0  0  0  0  0
    4.9994   -0.7289    0.0000 C   0  0  0  0  0  0  0  0  0  0  0  0
    2.5124   -0.5815    0.0000 C   0  0  0  0  0  0  0  0  0  0  0  0
    6.1062    2.4585    0.0000 C   0  0  0  0  0  0  0  0  0  0  0  0
    2.0000    1.3363    0.0000 C   0  0  0  0  0  0  0  0  0  0  0  0
    2.9842   -1.4564    0.0000 C   0  0  0  0  0  0  0  0  0  0  0  0
    7.1449    1.5816    0.0000 C   0  0  0  0  0  0  0  0  0  0  0  0
    6.7292   -0.8032    0.0000 C   0  0  0  0  0  0  0  0  0  0  0  0
    6.9273   -1.7833    0.0000 C   0  0  0  0  0  0  0  0  0  0  0  0
    6.1775   -2.4450    0.0000 C   0  0  0  0  0  0  0  0  0  0  0  0
    7.8752   -2.1018    0.0000 C   0  0  0  0  0  0  0  0  0  0  0  0
    8.0734   -3.0820    0.0000 C   0  0  0  0  0  0  0  0  0  0  0  0
    5.8627    0.5553    0.0000 H   0  0  0  0  0  0  0  0  0  0  0  0
    2.3778    0.3639    0.0000 H   0  0  0  0  0  0  0  0  0  0  0  0
    5.5846    0.3436    0.0000 H   0  0  0  0  0  0  0  0  0  0  0  0
    4.1966    2.6446    0.0000 H   0  0  0  0  0  0  0  0  0  0  0  0
    2.7702    1.6990    0.0000 H   0  0  0  0  0  0  0  0  0  0  0  0
    3.7364    2.5000    0.0000 H   0  0  0  0  0  0  0  0  0  0  0  0
    3.0398    2.1646    0.0000 H   0  0  0  0  0  0  0  0  0  0  0  0
    6.2985    0.8631    0.0000 H   0  0  0  0  0  0  0  0  0  0  0  0
    4.7304   -1.2876    0.0000 H   0  0  0  0  0  0  0  0  0  0  0  0
    5.5580   -0.9980    0.0000 H   0  0  0  0  0  0  0  0  0  0  0  0
    5.2684   -0.1703    0.0000 H   0  0  0  0  0  0  0  0  0  0  0  0
    1.8978   -0.4993    0.0000 H   0  0  0  0  0  0  0  0  0  0  0  0
    2.1380    1.9407    0.0000 H   0  0  0  0  0  0  0  0  0  0  0  0
    1.3955    1.4742    0.0000 H   0  0  0  0  0  0  0  0  0  0  0  0
    1.8620    0.7318    0.0000 H   0  0  0  0  0  0  0  0  0  0  0  0
    2.7152   -2.0150    0.0000 H   0  0  0  0  0  0  0  0  0  0  0  0
    7.2169    0.9658    0.0000 H   0  0  0  0  0  0  0  0  0  0  0  0
    7.7607    1.6536    0.0000 H   0  0  0  0  0  0  0  0  0  0  0  0
    7.0729    2.1974    0.0000 H   0  0  0  0  0  0  0  0  0  0  0  0
    5.7673   -1.9802    0.0000 H   0  0  0  0  0  0  0  0  0  0  0  0
    5.7126   -2.8553    0.0000 H   0  0  0  0  0  0  0  0  0  0  0  0
    6.5878   -2.9099    0.0000 H   0  0  0  0  0  0  0  0  0  0  0  0
    8.3401   -1.6916    0.0000 H   0  0  0  0  0  0  0  0  0  0  0  0
    7.4657   -3.2048    0.0000 H   0  0  0  0  0  0  0  0  0  0  0  0
    8.1962   -3.6897    0.0000 H   0  0  0  0  0  0  0  0  0  0  0  0
    8.6811   -2.9591    0.0000 H   0  0  0  0  0  0  0  0  0  0  0  0
  1 10  1  0  0  0  0
  1 17  1  0  0  0  0
  9  2  1  6  0  0  0
  2 21  1  0  0  0  0
  3 14  2  0  0  0  0
  4 17  2  0  0  0  0
  5 21  2  0  0  0  0
  6  8  1  0  0  0  0
  6  9  1  0  0  0  0
  6 14  1  0  0  0  0
  6 15  1  1  0  0  0
  7  9  1  0  0  0  0
  7 10  1  0  0  0  0
  7 13  1  0  0  0  0
  7 26  1  6  0  0  0
  8 11  1  0  0  0  0
  8 16  1  0  0  0  0
  8 27  1  6  0  0  0
  9 28  1  0  0  0  0
 10 12  1  0  0  0  0
 10 29  1  6  0  0  0
 11 12  1  0  0  0  0
 11 18  1  6  0  0  0
 11 30  1  0  0  0  0
 12 31  1  0  0  0  0
 12 32  1  0  0  0  0
 13 17  1  0  0  0  0
 13 20  1  1  0  0  0
 13 33  1  0  0  0  0
 14 19  1  0  0  0  0
 15 34  1  0  0  0  0
 15 35  1  0  0  0  0
 15 36  1  0  0  0  0
 16 19  2  0  0  0  0
 16 37  1  0  0  0  0
 18 38  1  0  0  0  0
 18 39  1  0  0  0  0
 18 40  1  0  0  0  0
 19 41  1  0  0  0  0
 20 42  1  0  0  0  0
 20 43  1  0  0  0  0
 20 44  1  0  0  0  0
 21 22  1  0  0  0  0
 22 23  1  0  0  0  0
 22 24  2  0  0  0  0
 23 45  1  0  0  0  0
 23 46  1  0  0  0  0
 23 47  1  0  0  0  0
 24 25  1  0  0  0  0
 24 48  1  0  0  0  0
 25 49  1  0  0  0  0
 25 50  1  0  0  0  0
 25 51  1  0  0  0  0
M  END
> <PUBCHEM_COMPOUND_CID>
5281483

> <PUBCHEM_COMPOUND_CANONICALIZED>
1

> <PUBCHEM_CACTVS_COMPLEXITY>
676

> <PUBCHEM_CACTVS_HBOND_ACCEPTOR>
5

> <PUBCHEM_CACTVS_HBOND_DONOR>
0

> <PUBCHEM_CACTVS_ROTATABLE_BOND>
3

> <PUBCHEM_CACTVS_SUBSKEYS>
AAADceB4OAAAAAAAAAAAAAAAAAAAASIAAAAAAAAABgAAAACQAAAAGgAAAAAADxSggAICCAAABACIAqDSCAAAAAAgAAAICAEAAEgABBYAIQACEAAFoAAIIYPKzPDPgAAAAAAAAAAAAAAAAAAAAAAAAAAAAA==

> <PUBCHEM_IUPAC_OPENEYE_NAME>
[(1S,3aR,5R,5aR,8aR,9S,9aR)-1,5,8a-trimethyl-2,8-dioxo-3a,4,5,5a,9,9a-hexahydro-1H-azuleno[6,5-b]furan-9-yl] (E)-2-methylbut-2-enoate

> <PUBCHEM_IUPAC_CAS_NAME>
(E)-2-methyl-2-butenoic acid [(1S,3aR,5R,5aR,8aR,9S,9aR)-1,5,8a-trimethyl-2,8-dioxo-3a,4,5,5a,9,9a-hexahydro-1H-azuleno[6,5-b]furan-9-yl] ester

> <PUBCHEM_IUPAC_NAME>
[(1S,3aR,5R,5aR,8aR,9S,9aR)-1,5,8a-trimethyl-2,8-dioxo-3a,4,5,5a,9,9a-hexahydro-1H-azuleno[6,5-b]furan-9-yl] (E)-2-methylbut-2-enoate

> <PUBCHEM_IUPAC_SYSTEMATIC_NAME>
[(1S,3aR,5R,5aR,8aR,9S,9aR)-1,5,8a-trimethyl-2,8-bis(oxidanylidene)-3a,4,5,5a,9,9a-hexahydro-1H-azuleno[6,5-b]furan-9-yl] (E)-2-methylbut-2-enoate

> <PUBCHEM_IUPAC_TRADITIONAL_NAME>
(E)-2-methylbut-2-enoic acid [(1S,3aR,5R,5aR,8aR,9S,9aR)-2,8-diketo-1,5,8a-trimethyl-3a,4,5,5a,9,9a-hexahydro-1H-azuleno[6,5-b]furan-9-yl] ester

> <PUBCHEM_IUPAC_INCHI>
InChI=1S/C20H26O5/c1-6-10(2)18(22)25-17-16-12(4)19(23)24-14(16)9-11(3)13-7-8-15(21)20(13,17)5/h6-8,11-14,16-17H,9H2,1-5H3/b10-6+/t11-,12+,13+,14-,16-,17+,20+/m1/s1

> <PUBCHEM_IUPAC_INCHIKEY>
KUPPZVXLWANEJJ-YFVRYKHXSA-N

> <PUBCHEM_XLOGP3>
2.3

> <PUBCHEM_EXACT_MASS>
346.178024

> <PUBCHEM_MOLECULAR_FORMULA>
C20H26O5

> <PUBCHEM_MOLECULAR_WEIGHT>
346.41744

> <PUBCHEM_OPENEYE_CAN_SMILES>
CC=C(C)C(=O)OC1C2C(C(=O)OC2CC(C3C1(C(=O)C=C3)C)C)C

> <PUBCHEM_OPENEYE_ISO_SMILES>
C/C=C(\C)/C(=O)O[C@H]1[C@@H]2[C@@H](C(=O)O[C@@H]2C[C@H]([C@H]3[C@]1(C(=O)C=C3)C)C)C

> <PUBCHEM_CACTVS_TPSA>
69.7

> <PUBCHEM_MONOISOTOPIC_WEIGHT>
346.178024

> <PUBCHEM_TOTAL_CHARGE>
0

> <PUBCHEM_HEAVY_ATOM_COUNT>
25

> <PUBCHEM_ATOM_DEF_STEREO_COUNT>
7

> <PUBCHEM_ATOM_UDEF_STEREO_COUNT>
0

> <PUBCHEM_BOND_DEF_STEREO_COUNT>
1

> <PUBCHEM_BOND_UDEF_STEREO_COUNT>
0

> <PUBCHEM_ISOTOPIC_ATOM_COUNT>
0

> <PUBCHEM_COMPONENT_COUNT>
1

> <PUBCHEM_CACTVS_TAUTO_COUNT>
6

> <PUBCHEM_COORDINATE_TYPE>
1
5
255

> <PUBCHEM_BONDANNOTATIONS>
10  29  6
11  18  6
13  20  5
9  2  6
6  15  5
7  26  6
8  27  6

$$$$

