5422
  -OEChem-06261200412D

 88 94  0     1  0  0  0  0  0999 V2000
    7.2066    1.2758    0.0000 O   0  0  0  0  0  0  0  0  0  0  0  0
    7.7556    3.7303    0.0000 O   0  0  0  0  0  0  0  0  0  0  0  0
    8.9657    4.2918    0.0000 O   0  0  0  0  0  0  0  0  0  0  0  0
    6.6743    3.7214    0.0000 O   0  0  0  0  0  0  0  0  0  0  0  0
    5.9340   -2.9296    0.0000 O   0  0  0  0  0  0  0  0  0  0  0  0
    7.5064   -4.1713    0.0000 O   0  0  0  0  0  0  0  0  0  0  0  0
    9.8338   -0.2166    0.0000 N   0  0  3  0  0  0  0  0  0  0  0  0
    2.8660    1.7770    0.0000 N   0  0  3  0  0  0  0  0  0  0  0  0
    8.9657    0.2846    0.0000 C   0  0  3  0  0  0  0  0  0  0  0  0
    3.7341    1.2758    0.0000 C   0  0  3  0  0  0  0  0  0  0  0  0
    8.9657    1.2870    0.0000 C   0  0  0  0  0  0  0  0  0  0  0  0
   10.7020    0.2846    0.0000 C   0  0  0  0  0  0  0  0  0  0  0  0
    9.8338    1.7882    0.0000 C   0  0  0  0  0  0  0  0  0  0  0  0
   10.7020    1.2870    0.0000 C   0  0  0  0  0  0  0  0  0  0  0  0
    4.6022    1.7770    0.0000 C   0  0  0  0  0  0  0  0  0  0  0  0
    8.0976   -0.2166    0.0000 C   0  0  0  0  0  0  0  0  0  0  0  0
    2.8660    2.7795    0.0000 C   0  0  0  0  0  0  0  0  0  0  0  0
    4.6022    2.7795    0.0000 C   0  0  0  0  0  0  0  0  0  0  0  0
    3.7341    3.2807    0.0000 C   0  0  0  0  0  0  0  0  0  0  0  0
    3.7341    0.2734    0.0000 C   0  0  0  0  0  0  0  0  0  0  0  0
    8.0976    1.7882    0.0000 C   0  0  0  0  0  0  0  0  0  0  0  0
    5.4704    1.2758    0.0000 C   0  0  0  0  0  0  0  0  0  0  0  0
    9.8338   -1.2166    0.0000 C   0  0  0  0  0  0  0  0  0  0  0  0
    9.8338    2.7906    0.0000 C   0  0  0  0  0  0  0  0  0  0  0  0
    6.3385    1.7770    0.0000 C   0  0  0  0  0  0  0  0  0  0  0  0
    7.9431   -1.1983    0.0000 C   0  0  0  0  0  0  0  0  0  0  0  0
    5.4704    3.2807    0.0000 C   0  0  0  0  0  0  0  0  0  0  0  0
    8.0976    2.7906    0.0000 C   0  0  0  0  0  0  0  0  0  0  0  0
    2.0000    1.2770    0.0000 C   0  0  0  0  0  0  0  0  0  0  0  0
    4.2424   -0.5074    0.0000 C   0  0  0  0  0  0  0  0  0  0  0  0
    8.9657    3.2918    0.0000 C   0  0  0  0  0  0  0  0  0  0  0  0
    6.3385    2.7795    0.0000 C   0  0  0  0  0  0  0  0  0  0  0  0
    7.0114   -1.5681    0.0000 C   0  0  0  0  0  0  0  0  0  0  0  0
    8.7292   -1.8204    0.0000 C   0  0  0  0  0  0  0  0  0  0  0  0
    5.2438   -0.4635    0.0000 C   0  0  0  0  0  0  0  0  0  0  0  0
    3.7797   -1.3966    0.0000 C   0  0  0  0  0  0  0  0  0  0  0  0
    6.8657   -2.5598    0.0000 C   0  0  0  0  0  0  0  0  0  0  0  0
    8.5835   -2.8121    0.0000 C   0  0  0  0  0  0  0  0  0  0  0  0
    5.3198   -2.1981    0.0000 C   0  0  0  0  0  0  0  0  0  0  0  0
    5.7826   -1.3088    0.0000 C   0  0  0  0  0  0  0  0  0  0  0  0
    4.3184   -2.2419    0.0000 C   0  0  0  0  0  0  0  0  0  0  0  0
    7.6518   -3.1819    0.0000 C   0  0  0  0  0  0  0  0  0  0  0  0
    8.3984    4.4963    0.0000 C   0  0  0  0  0  0  0  0  0  0  0  0
    9.8318    4.7918    0.0000 C   0  0  0  0  0  0  0  0  0  0  0  0
    6.0264    4.4832    0.0000 C   0  0  0  0  0  0  0  0  0  0  0  0
    8.2906   -4.7918    0.0000 C   0  0  0  0  0  0  0  0  0  0  0  0
    8.9657   -0.3354    0.0000 H   0  0  0  0  0  0  0  0  0  0  0  0
    3.1972    0.9658    0.0000 H   0  0  0  0  0  0  0  0  0  0  0  0
   10.9140   -0.2980    0.0000 H   0  0  0  0  0  0  0  0  0  0  0  0
   11.3125    0.3922    0.0000 H   0  0  0  0  0  0  0  0  0  0  0  0
   11.3125    1.1793    0.0000 H   0  0  0  0  0  0  0  0  0  0  0  0
   10.9140    1.8696    0.0000 H   0  0  0  0  0  0  0  0  0  0  0  0
    7.9162    0.3762    0.0000 H   0  0  0  0  0  0  0  0  0  0  0  0
    7.4792   -0.2603    0.0000 H   0  0  0  0  0  0  0  0  0  0  0  0
    2.6540    3.3621    0.0000 H   0  0  0  0  0  0  0  0  0  0  0  0
    2.2554    2.6718    0.0000 H   0  0  0  0  0  0  0  0  0  0  0  0
    4.1327    3.7556    0.0000 H   0  0  0  0  0  0  0  0  0  0  0  0
    3.3356    3.7556    0.0000 H   0  0  0  0  0  0  0  0  0  0  0  0
    3.1478    0.4751    0.0000 H   0  0  0  0  0  0  0  0  0  0  0  0
    4.3285    0.4498    0.0000 H   0  0  0  0  0  0  0  0  0  0  0  0
    5.4704    0.6558    0.0000 H   0  0  0  0  0  0  0  0  0  0  0  0
    9.2139   -1.2166    0.0000 H   0  0  0  0  0  0  0  0  0  0  0  0
    9.8338   -1.8366    0.0000 H   0  0  0  0  0  0  0  0  0  0  0  0
   10.4538   -1.2166    0.0000 H   0  0  0  0  0  0  0  0  0  0  0  0
   10.3708    3.1006    0.0000 H   0  0  0  0  0  0  0  0  0  0  0  0
    5.4704    3.9007    0.0000 H   0  0  0  0  0  0  0  0  0  0  0  0
    1.6900    1.8140    0.0000 H   0  0  0  0  0  0  0  0  0  0  0  0
    1.4631    0.9671    0.0000 H   0  0  0  0  0  0  0  0  0  0  0  0
    2.3100    0.7401    0.0000 H   0  0  0  0  0  0  0  0  0  0  0  0
    6.5252   -1.1833    0.0000 H   0  0  0  0  0  0  0  0  0  0  0  0
    9.3054   -1.5917    0.0000 H   0  0  0  0  0  0  0  0  0  0  0  0
    5.5301    0.0865    0.0000 H   0  0  0  0  0  0  0  0  0  0  0  0
    3.1602   -1.4237    0.0000 H   0  0  0  0  0  0  0  0  0  0  0  0
    9.0697   -3.1969    0.0000 H   0  0  0  0  0  0  0  0  0  0  0  0
    6.4020   -1.2817    0.0000 H   0  0  0  0  0  0  0  0  0  0  0  0
    4.0321   -2.7919    0.0000 H   0  0  0  0  0  0  0  0  0  0  0  0
    8.8734    4.0978    0.0000 H   0  0  0  0  0  0  0  0  0  0  0  0
    8.7969    4.9713    0.0000 H   0  0  0  0  0  0  0  0  0  0  0  0
    7.9234    4.8949    0.0000 H   0  0  0  0  0  0  0  0  0  0  0  0
   10.1418    4.2549    0.0000 H   0  0  0  0  0  0  0  0  0  0  0  0
   10.3687    5.1018    0.0000 H   0  0  0  0  0  0  0  0  0  0  0  0
    9.5218    5.3287    0.0000 H   0  0  0  0  0  0  0  0  0  0  0  0
    6.4987    4.8848    0.0000 H   0  0  0  0  0  0  0  0  0  0  0  0
    5.6247    4.9555    0.0000 H   0  0  0  0  0  0  0  0  0  0  0  0
    5.5541    4.0815    0.0000 H   0  0  0  0  0  0  0  0  0  0  0  0
    7.9059   -5.2780    0.0000 H   0  0  0  0  0  0  0  0  0  0  0  0
    8.7768   -5.1765    0.0000 H   0  0  0  0  0  0  0  0  0  0  0  0
    8.6754   -4.3056    0.0000 H   0  0  0  0  0  0  0  0  0  0  0  0
  1 21  1  0  0  0  0
  1 25  1  0  0  0  0
  2 28  1  0  0  0  0
  2 43  1  0  0  0  0
  3 31  1  0  0  0  0
  3 44  1  0  0  0  0
  4 32  1  0  0  0  0
  4 45  1  0  0  0  0
  5 37  1  0  0  0  0
  5 39  1  0  0  0  0
  6 42  1  0  0  0  0
  6 46  1  0  0  0  0
  7  9  1  0  0  0  0
  7 12  1  0  0  0  0
  7 23  1  0  0  0  0
  8 10  1  0  0  0  0
  8 17  1  0  0  0  0
  8 29  1  0  0  0  0
  9 11  1  0  0  0  0
  9 16  1  0  0  0  0
  9 47  1  0  0  0  0
 10 15  1  0  0  0  0
 10 20  1  0  0  0  0
 10 48  1  0  0  0  0
 11 13  1  0  0  0  0
 11 21  2  0  0  0  0
 12 14  1  0  0  0  0
 12 49  1  0  0  0  0
 12 50  1  0  0  0  0
 13 14  1  0  0  0  0
 13 24  2  0  0  0  0
 14 51  1  0  0  0  0
 14 52  1  0  0  0  0
 15 18  1  0  0  0  0
 15 22  2  0  0  0  0
 16 26  1  0  0  0  0
 16 53  1  0  0  0  0
 16 54  1  0  0  0  0
 17 19  1  0  0  0  0
 17 55  1  0  0  0  0
 17 56  1  0  0  0  0
 18 19  1  0  0  0  0
 18 27  2  0  0  0  0
 19 57  1  0  0  0  0
 19 58  1  0  0  0  0
 20 30  1  0  0  0  0
 20 59  1  0  0  0  0
 20 60  1  0  0  0  0
 21 28  1  0  0  0  0
 22 25  1  0  0  0  0
 22 61  1  0  0  0  0
 23 62  1  0  0  0  0
 23 63  1  0  0  0  0
 23 64  1  0  0  0  0
 24 31  1  0  0  0  0
 24 65  1  0  0  0  0
 25 32  2  0  0  0  0
 26 33  2  0  0  0  0
 26 34  1  0  0  0  0
 27 32  1  0  0  0  0
 27 66  1  0  0  0  0
 28 31  2  0  0  0  0
 29 67  1  0  0  0  0
 29 68  1  0  0  0  0
 29 69  1  0  0  0  0
 30 35  2  0  0  0  0
 30 36  1  0  0  0  0
 33 37  1  0  0  0  0
 33 70  1  0  0  0  0
 34 38  2  0  0  0  0
 34 71  1  0  0  0  0
 35 40  1  0  0  0  0
 35 72  1  0  0  0  0
 36 41  2  0  0  0  0
 36 73  1  0  0  0  0
 37 42  2  0  0  0  0
 38 42  1  0  0  0  0
 38 74  1  0  0  0  0
 39 40  2  0  0  0  0
 39 41  1  0  0  0  0
 40 75  1  0  0  0  0
 41 76  1  0  0  0  0
 43 77  1  0  0  0  0
 43 78  1  0  0  0  0
 43 79  1  0  0  0  0
 44 80  1  0  0  0  0
 44 81  1  0  0  0  0
 44 82  1  0  0  0  0
 45 83  1  0  0  0  0
 45 84  1  0  0  0  0
 45 85  1  0  0  0  0
 46 86  1  0  0  0  0
 46 87  1  0  0  0  0
 46 88  1  0  0  0  0
M  END
> <PUBCHEM_COMPOUND_CID>
5422

> <PUBCHEM_COMPOUND_CANONICALIZED>
1

> <PUBCHEM_CACTVS_COMPLEXITY>
979

> <PUBCHEM_CACTVS_HBOND_ACCEPTOR>
8

> <PUBCHEM_CACTVS_HBOND_DONOR>
0

> <PUBCHEM_CACTVS_ROTATABLE_BOND>
4

> <PUBCHEM_CACTVS_SUBSKEYS>
AAADcfB/OAAAAAAAAAAAAAAAAAAAAAAAAAA8eMGCAAAAAACxVAAAHgAAAAAADCzBmAYyBoMABACAAiBCAACCCAAgIAAIiAAOjIgNJyKEsRuGOCrnwBWKqAew8P8OoAABCAAYQABAAAIQADCAAAAAAAAAAA==

> <PUBCHEM_IUPAC_INCHI>
InChI=1S/C38H42N2O6/c1-39-15-13-25-20-32(42-4)34-22-28(25)29(39)17-23-7-10-27(11-8-23)45-33-19-24(9-12-31(33)41-3)18-30-36-26(14-16-40(30)2)21-35(43-5)37(44-6)38(36)46-34/h7-12,19-22,29-30H,13-18H2,1-6H3

> <PUBCHEM_IUPAC_INCHIKEY>
WVTKBKWTSCPRNU-UHFFFAOYSA-N

> <PUBCHEM_XLOGP3_AA>
6.4

> <PUBCHEM_EXACT_MASS>
622.304287

> <PUBCHEM_MOLECULAR_FORMULA>
C38H42N2O6

> <PUBCHEM_MOLECULAR_WEIGHT>
622.74988

> <PUBCHEM_OPENEYE_CAN_SMILES>
CN1CCC2=CC(=C3C=C2C1CC4=CC=C(C=C4)OC5=C(C=CC(=C5)CC6C7=C(O3)C(=C(C=C7CCN6C)OC)OC)OC)OC

> <PUBCHEM_OPENEYE_ISO_SMILES>
CN1CCC2=CC(=C3C=C2C1CC4=CC=C(C=C4)OC5=C(C=CC(=C5)CC6C7=C(O3)C(=C(C=C7CCN6C)OC)OC)OC)OC

> <PUBCHEM_CACTVS_TPSA>
61.9

> <PUBCHEM_MONOISOTOPIC_WEIGHT>
622.304287

> <PUBCHEM_TOTAL_CHARGE>
0

> <PUBCHEM_HEAVY_ATOM_COUNT>
46

> <PUBCHEM_ATOM_DEF_STEREO_COUNT>
0

> <PUBCHEM_ATOM_UDEF_STEREO_COUNT>
2

> <PUBCHEM_BOND_DEF_STEREO_COUNT>
0

> <PUBCHEM_BOND_UDEF_STEREO_COUNT>
0

> <PUBCHEM_ISOTOPIC_ATOM_COUNT>
0

> <PUBCHEM_COMPONENT_COUNT>
1

> <PUBCHEM_CACTVS_TAUTO_COUNT>
1

> <PUBCHEM_COORDINATE_TYPE>
1
5
255

> <PUBCHEM_BONDANNOTATIONS>
10  20  3
11  13  8
11  21  8
13  24  8
15  18  8
15  22  8
18  27  8
21  28  8
22  25  8
24  31  8
25  32  8
26  33  8
26  34  8
27  32  8
28  31  8
30  35  8
30  36  8
33  37  8
34  38  8
35  40  8
36  41  8
37  42  8
38  42  8
39  40  8
39  41  8
9  16  3

$$$$

