13764
  -OEChem-06241222403D

 29 30  0     0  0  0  0  0  0999 V2000
   -3.6028    0.6865    0.0665 O   0  0  0  0  0  0  0  0  0  0  0  0
    7.0367    1.4962    0.1319 O   0  0  0  0  0  0  0  0  0  0  0  0
    1.9510   -2.2601   -0.1846 O   0  0  0  0  0  0  0  0  0  0  0  0
   -7.0854    0.3979    0.0779 O   0  5  0  0  0  0  0  0  0  0  0  0
   -5.7608    2.1482    0.2186 O   0  0  0  0  0  0  0  0  0  0  0  0
    0.9081   -0.1971   -0.0594 N   0  0  0  0  0  0  0  0  0  0  0  0
   -0.3278   -0.7494   -0.0952 N   0  0  0  0  0  0  0  0  0  0  0  0
   -5.9229    0.8975    0.1098 N   0  3  0  0  0  0  0  0  0  0  0  0
    3.3323   -0.3679   -0.0459 C   0  0  0  0  0  0  0  0  0  0  0  0
   -2.7057   -0.2990   -0.0298 C   0  0  0  0  0  0  0  0  0  0  0  0
    4.4342   -1.0535    0.4650 C   0  0  0  0  0  0  0  0  0  0  0  0
    3.4751    0.9443   -0.4969 C   0  0  0  0  0  0  0  0  0  0  0  0
   -3.2460   -1.5238   -0.1312 C   0  0  0  0  0  0  0  0  0  0  0  0
    2.0344   -1.0210   -0.1084 C   0  0  0  0  0  0  0  0  0  0  0  0
   -4.8082    0.0611    0.0250 C   0  0  0  0  0  0  0  0  0  0  0  0
    5.6791   -0.4271    0.5249 C   0  0  0  0  0  0  0  0  0  0  0  0
    4.7199    1.5708   -0.4369 C   0  0  0  0  0  0  0  0  0  0  0  0
    5.8219    0.8851    0.0740 C   0  0  0  0  0  0  0  0  0  0  0  0
   -4.6429   -1.2991   -0.0960 C   0  0  0  0  0  0  0  0  0  0  0  0
   -1.2903    0.1104   -0.0094 C   0  0  0  0  0  0  0  0  0  0  0  0
    4.3431   -2.0749    0.8255 H   0  0  0  0  0  0  0  0  0  0  0  0
    2.6501    1.5036   -0.9280 H   0  0  0  0  0  0  0  0  0  0  0  0
   -2.7372   -2.4728   -0.2201 H   0  0  0  0  0  0  0  0  0  0  0  0
   -5.4265   -2.0415   -0.1526 H   0  0  0  0  0  0  0  0  0  0  0  0
    6.5297   -0.9718    0.9259 H   0  0  0  0  0  0  0  0  0  0  0  0
    4.8269    2.5910   -0.7955 H   0  0  0  0  0  0  0  0  0  0  0  0
   -1.1042    1.1967    0.0836 H   0  0  0  0  0  0  0  0  0  0  0  0
    0.9620    0.8101    0.0532 H   0  0  0  0  0  0  0  0  0  0  0  0
    7.6833    0.8767    0.5118 H   0  0  0  0  0  0  0  0  0  0  0  0
  1 10  1  0  0  0  0
  1 15  1  0  0  0  0
  2 18  1  0  0  0  0
  2 29  1  0  0  0  0
  3 14  2  0  0  0  0
  4  8  1  0  0  0  0
  5  8  2  0  0  0  0
  6  7  1  0  0  0  0
  6 14  1  0  0  0  0
  6 28  1  0  0  0  0
  7 20  2  0  0  0  0
  8 15  1  0  0  0  0
  9 11  2  0  0  0  0
  9 12  1  0  0  0  0
  9 14  1  0  0  0  0
 10 13  2  0  0  0  0
 10 20  1  0  0  0  0
 11 16  1  0  0  0  0
 11 21  1  0  0  0  0
 12 17  2  0  0  0  0
 12 22  1  0  0  0  0
 13 19  1  0  0  0  0
 13 23  1  0  0  0  0
 15 19  2  0  0  0  0
 16 18  2  0  0  0  0
 16 25  1  0  0  0  0
 17 18  1  0  0  0  0
 17 26  1  0  0  0  0
 19 24  1  0  0  0  0
 20 27  1  0  0  0  0
M  CHG  2   4  -1   8   1
M  END
> <PUBCHEM_COMPOUND_CID>
13764

> <PUBCHEM_CONFORMER_RMSD>
0.8

> <PUBCHEM_CONFORMER_DIVERSEORDER>
1
4
5
6
3
2

> <PUBCHEM_MMFF94_PARTIAL_CHARGES>
29
1 -0.28
10 0.05
11 -0.15
12 -0.15
13 -0.15
14 0.54
15 0.22
16 -0.15
17 -0.15
18 0.08
19 -0.15
2 -0.53
20 0.47
21 0.15
22 0.15
23 0.15
24 0.15
25 0.15
26 0.15
27 0.06
28 0.37
29 0.45
3 -0.57
4 -0.52
5 -0.52
6 -0.37
7 -0.51
8 0.96
9 0.09

> <PUBCHEM_EFFECTIVE_ROTOR_COUNT>
5

> <PUBCHEM_PHARMACOPHORE_FEATURES>
10
1 1 acceptor
1 2 donor
1 3 acceptor
1 4 acceptor
1 4 anion
1 5 acceptor
1 6 donor
1 7 acceptor
5 1 10 13 15 19 rings
6 9 11 12 16 17 18 rings

> <PUBCHEM_HEAVY_ATOM_COUNT>
20

> <PUBCHEM_ATOM_DEF_STEREO_COUNT>
0

> <PUBCHEM_ATOM_UDEF_STEREO_COUNT>
0

> <PUBCHEM_BOND_DEF_STEREO_COUNT>
0

> <PUBCHEM_BOND_UDEF_STEREO_COUNT>
1

> <PUBCHEM_ISOTOPIC_ATOM_COUNT>
0

> <PUBCHEM_COMPONENT_COUNT>
1

> <PUBCHEM_CACTVS_TAUTO_COUNT>
5

> <PUBCHEM_CONFORMER_ID>
000035C400000001

> <PUBCHEM_MMFF94_ENERGY>
43.5339

> <PUBCHEM_FEATURE_SELFOVERLAP>
50.84

> <PUBCHEM_SHAPE_FINGERPRINT>
10 15 18272645749664539147
10354089 29 18202846539836092516
10366900 7 14418132928673712623
10595046 47 18409169922168062331
10688039 33 17203613705060369860
11315181 36 18201720609769721687
11646440 116 15267341833755358508
117890 112 18410855468718096386
12107183 9 17691691507501210850
12236239 1 18408044000680829766
125118 31 18060418053726059093
12616971 3 15410888531449381583
13167372 99 18411701032052309040
13668630 136 10663827390483706712
13685833 64 10303815380411151292
13785724 45 17834963345065115506
14251764 18 18409448077509242219
14528608 73 18334858286100589870
14933364 13 18411134736092179400
15048467 5 18409167709948428129
15348495 7 16558458695615019161
15475509 35 15840727291755936544
20281389 69 18272933851617811045
21150785 3 16225769601691798557
21315763 28 18411139151730191739
220451 1 17346881148169843650
221357 26 7493286629469125578
23081809 10 18335710437445129486
23402539 116 18342181046210383991
23536379 177 18413671318007458483
23559900 14 18261401001097446441
29717793 49 17822286920793697886
300161 21 18412266146869564647
34797466 226 17603576400827790309
351380 3 10303815371573381224
3545911 37 18409448098530417575
4073 2 18060132103303716258
5104073 3 18202282489543148482
542803 24 18342459235521236778

> <PUBCHEM_SHAPE_MULTIPOLES>
367.3
19.25
1.74
0.64
6.48
0.04
0
8.02
-1.59
0.03
0.04
-0.26
0
-0.6

> <PUBCHEM_SHAPE_SELFOVERLAP>
791.432

> <PUBCHEM_SHAPE_VOLUME>
202.2

> <PUBCHEM_COORDINATE_TYPE>
2
5
10

$$$$

