443002
  -OEChem-07051213002D

 43 45  0     1  0  0  0  0  0999 V2000
    5.4641   -0.3440    0.0000 O   0  0  0  0  0  0  0  0  0  0  0  0
    7.8010    3.8070    0.0000 O   0  0  0  0  0  0  0  0  0  0  0  0
    6.3301   -1.8440    0.0000 O   0  0  0  0  0  0  0  0  0  0  0  0
    2.0000   -1.3440    0.0000 O   0  0  0  0  0  0  0  0  0  0  0  0
    2.0000   -3.3440    0.0000 O   0  0  0  0  0  0  0  0  0  0  0  0
    8.3010    2.9410    0.0000 N   0  0  0  0  0  0  0  0  0  0  0  0
    9.0376    1.9584    0.0000 C   0  0  3  0  0  0  0  0  0  0  0  0
    8.7788    0.9925    0.0000 C   0  0  3  0  0  0  0  0  0  0  0  0
   10.6108    0.2336    0.0000 C   0  0  0  0  0  0  0  0  0  0  0  0
   10.8696    1.1996    0.0000 C   0  0  0  0  0  0  0  0  0  0  0  0
    6.4347    1.1506    0.0000 C   0  0  0  0  0  0  0  0  0  0  0  0
    7.2437   -0.2507    0.0000 C   0  0  0  0  0  0  0  0  0  0  0  0
    6.3301    0.1560    0.0000 C   0  0  0  0  0  0  0  0  0  0  0  0
    5.4641   -1.3440    0.0000 C   0  0  0  0  0  0  0  0  0  0  0  0
    4.5981   -1.8440    0.0000 C   0  0  0  0  0  0  0  0  0  0  0  0
    3.7320   -1.3440    0.0000 C   0  0  0  0  0  0  0  0  0  0  0  0
    4.5981   -2.8440    0.0000 C   0  0  0  0  0  0  0  0  0  0  0  0
    2.8660   -1.8440    0.0000 C   0  0  0  0  0  0  0  0  0  0  0  0
    3.7320   -3.3440    0.0000 C   0  0  0  0  0  0  0  0  0  0  0  0
    2.8660   -2.8440    0.0000 C   0  0  0  0  0  0  0  0  0  0  0  0
    2.0000   -0.3440    0.0000 C   0  0  0  0  0  0  0  0  0  0  0  0
    2.0000   -4.3440    0.0000 C   0  0  0  0  0  0  0  0  0  0  0  0
    9.0092    1.3390    0.0000 H   0  0  0  0  0  0  0  0  0  0  0  0
    8.8678    0.3789    0.0000 H   0  0  0  0  0  0  0  0  0  0  0  0
   11.4609    1.0131    0.0000 H   0  0  0  0  0  0  0  0  0  0  0  0
   11.0817    1.7822    0.0000 H   0  0  0  0  0  0  0  0  0  0  0  0
   10.3987   -0.3490    0.0000 H   0  0  0  0  0  0  0  0  0  0  0  0
   11.2021    0.0472    0.0000 H   0  0  0  0  0  0  0  0  0  0  0  0
    6.3324    1.7621    0.0000 H   0  0  0  0  0  0  0  0  0  0  0  0
    5.8149    1.1317    0.0000 H   0  0  0  0  0  0  0  0  0  0  0  0
    6.9060   -0.7707    0.0000 H   0  0  0  0  0  0  0  0  0  0  0  0
    7.7044   -0.6656    0.0000 H   0  0  0  0  0  0  0  0  0  0  0  0
    5.8102    0.4937    0.0000 H   0  0  0  0  0  0  0  0  0  0  0  0
    8.1110    4.3440    0.0000 H   0  0  0  0  0  0  0  0  0  0  0  0
    3.7320   -0.7240    0.0000 H   0  0  0  0  0  0  0  0  0  0  0  0
    5.1350   -3.1540    0.0000 H   0  0  0  0  0  0  0  0  0  0  0  0
    3.7320   -3.9640    0.0000 H   0  0  0  0  0  0  0  0  0  0  0  0
    2.6200   -0.3440    0.0000 H   0  0  0  0  0  0  0  0  0  0  0  0
    2.0000    0.2760    0.0000 H   0  0  0  0  0  0  0  0  0  0  0  0
    1.3800   -0.3440    0.0000 H   0  0  0  0  0  0  0  0  0  0  0  0
    1.3800   -4.3440    0.0000 H   0  0  0  0  0  0  0  0  0  0  0  0
    2.0000   -4.9640    0.0000 H   0  0  0  0  0  0  0  0  0  0  0  0
    2.6200   -4.3440    0.0000 H   0  0  0  0  0  0  0  0  0  0  0  0
  1 13  1  0  0  0  0
  1 14  1  0  0  0  0
  2  6  1  0  0  0  0
  2 34  1  0  0  0  0
  3 14  2  0  0  0  0
  4 18  1  0  0  0  0
  4 21  1  0  0  0  0
  5 20  1  0  0  0  0
  5 22  1  0  0  0  0
  6  7  1  0  0  0  0
  6  8  1  0  0  0  0
  7 10  1  0  0  0  0
  7 11  1  0  0  0  0
  7 23  1  0  0  0  0
  8  9  1  0  0  0  0
  8 12  1  0  0  0  0
  8 24  1  0  0  0  0
  9 10  1  0  0  0  0
  9 27  1  0  0  0  0
  9 28  1  0  0  0  0
 10 25  1  0  0  0  0
 10 26  1  0  0  0  0
 11 13  1  0  0  0  0
 11 29  1  0  0  0  0
 11 30  1  0  0  0  0
 12 13  1  0  0  0  0
 12 31  1  0  0  0  0
 12 32  1  0  0  0  0
 13 33  1  0  0  0  0
 14 15  1  0  0  0  0
 15 16  2  0  0  0  0
 15 17  1  0  0  0  0
 16 18  1  0  0  0  0
 16 35  1  0  0  0  0
 17 19  2  0  0  0  0
 17 36  1  0  0  0  0
 18 20  2  0  0  0  0
 19 20  1  0  0  0  0
 19 37  1  0  0  0  0
 21 38  1  0  0  0  0
 21 39  1  0  0  0  0
 21 40  1  0  0  0  0
 22 41  1  0  0  0  0
 22 42  1  0  0  0  0
 22 43  1  0  0  0  0
M  END
> <PUBCHEM_COMPOUND_CID>
443002

> <PUBCHEM_COMPOUND_CANONICALIZED>
1

> <PUBCHEM_CACTVS_COMPLEXITY>
390

> <PUBCHEM_CACTVS_HBOND_ACCEPTOR>
6

> <PUBCHEM_CACTVS_HBOND_DONOR>
1

> <PUBCHEM_CACTVS_ROTATABLE_BOND>
5

> <PUBCHEM_CACTVS_SUBSKEYS>
AAADceB6OAAAAAAAAAAAAAAAAAAAAWAAAAA8QAAABgAAAAABAAAAHgAECAAADDzhmAYyDoIQBACIAiDSCAACCAAkIAAoiAEOiMgNJjKEtRqGMSImwBGKqYfa7DzOIAABAAAAQABAAAIAAACAAAAAAAAAAA==

> <PUBCHEM_IUPAC_OPENEYE_NAME>
(8-hydroxy-8-azabicyclo[3.2.1]octan-3-yl) 3,4-dimethoxybenzoate

> <PUBCHEM_IUPAC_CAS_NAME>
3,4-dimethoxybenzoic acid (8-hydroxy-8-azabicyclo[3.2.1]octan-3-yl) ester

> <PUBCHEM_IUPAC_NAME>
(8-hydroxy-8-azabicyclo[3.2.1]octan-3-yl) 3,4-dimethoxybenzoate

> <PUBCHEM_IUPAC_SYSTEMATIC_NAME>
(8-oxidanyl-8-azabicyclo[3.2.1]octan-3-yl) 3,4-dimethoxybenzoate

> <PUBCHEM_IUPAC_TRADITIONAL_NAME>
3,4-dimethoxybenzoic acid (8-hydroxy-8-azabicyclo[3.2.1]octan-3-yl) ester

> <PUBCHEM_IUPAC_INCHI>
InChI=1S/C16H21NO5/c1-20-14-6-3-10(7-15(14)21-2)16(18)22-13-8-11-4-5-12(9-13)17(11)19/h3,6-7,11-13,19H,4-5,8-9H2,1-2H3

> <PUBCHEM_IUPAC_INCHIKEY>
QKXIPWXFQDIWOM-UHFFFAOYSA-N

> <PUBCHEM_XLOGP3_AA>
2.4

> <PUBCHEM_EXACT_MASS>
307.141973

> <PUBCHEM_MOLECULAR_FORMULA>
C16H21NO5

> <PUBCHEM_MOLECULAR_WEIGHT>
307.34164

> <PUBCHEM_OPENEYE_CAN_SMILES>
COC1=C(C=C(C=C1)C(=O)OC2CC3CCC(C2)N3O)OC

> <PUBCHEM_OPENEYE_ISO_SMILES>
COC1=C(C=C(C=C1)C(=O)OC2CC3CCC(C2)N3O)OC

> <PUBCHEM_CACTVS_TPSA>
68.2

> <PUBCHEM_MONOISOTOPIC_WEIGHT>
307.141973

> <PUBCHEM_TOTAL_CHARGE>
0

> <PUBCHEM_HEAVY_ATOM_COUNT>
22

> <PUBCHEM_ATOM_DEF_STEREO_COUNT>
0

> <PUBCHEM_ATOM_UDEF_STEREO_COUNT>
2

> <PUBCHEM_BOND_DEF_STEREO_COUNT>
0

> <PUBCHEM_BOND_UDEF_STEREO_COUNT>
0

> <PUBCHEM_ISOTOPIC_ATOM_COUNT>
0

> <PUBCHEM_COMPONENT_COUNT>
1

> <PUBCHEM_CACTVS_TAUTO_COUNT>
1

> <PUBCHEM_COORDINATE_TYPE>
1
5
255

> <PUBCHEM_BONDANNOTATIONS>
15  16  8
15  17  8
16  18  8
17  19  8
18  20  8
19  20  8
7  10  3
8  9  3

$$$$

