69502
  -OEChem-07051212563D

 34 36  0     0  0  0  0  0  0999 V2000
   -1.7140    3.1969   -0.2214 O   0  0  0  0  0  0  0  0  0  0  0  0
   -2.4972   -1.5774   -0.2403 O   0  0  0  0  0  0  0  0  0  0  0  0
   -3.5333    0.9561   -0.6242 O   0  0  0  0  0  0  0  0  0  0  0  0
   -2.7659   -3.8519   -0.2213 O   0  0  0  0  0  0  0  0  0  0  0  0
    0.5054    0.4880    0.4934 C   0  0  0  0  0  0  0  0  0  0  0  0
   -0.0370    1.7728    0.2935 C   0  0  0  0  0  0  0  0  0  0  0  0
   -0.3221   -0.6315    0.3136 C   0  0  0  0  0  0  0  0  0  0  0  0
    1.9412    0.3306    0.8904 C   0  0  0  0  0  0  0  0  0  0  0  0
   -1.3745    1.8850   -0.0751 C   0  0  0  0  0  0  0  0  0  0  0  0
   -1.6555   -0.4557   -0.0564 C   0  0  0  0  0  0  0  0  0  0  0  0
   -2.2292    0.8018   -0.2637 C   0  0  0  0  0  0  0  0  0  0  0  0
    0.4539    3.1029    0.3725 C   0  0  0  0  0  0  0  0  0  0  0  0
    0.1788   -1.9838    0.5038 C   0  0  0  0  0  0  0  0  0  0  0  0
    2.8637    0.2148   -0.2952 C   0  0  0  0  0  0  0  0  0  0  0  0
   -0.6007    3.9259    0.0517 C   0  0  0  0  0  0  0  0  0  0  0  0
    4.0186   -0.4724   -0.3837 C   0  0  0  0  0  0  0  0  0  0  0  0
   -0.6258   -3.0345    0.3273 C   0  0  0  0  0  0  0  0  0  0  0  0
   -2.0383   -2.8780   -0.0625 C   0  0  0  0  0  0  0  0  0  0  0  0
    4.8935   -0.5456   -1.6028 C   0  0  0  0  0  0  0  0  0  0  0  0
    4.5383   -1.2439    0.8003 C   0  0  0  0  0  0  0  0  0  0  0  0
    2.2480    1.2278    1.4450 H   0  0  0  0  0  0  0  0  0  0  0  0
    2.0560   -0.4765    1.6177 H   0  0  0  0  0  0  0  0  0  0  0  0
    1.4524    3.4275    0.6292 H   0  0  0  0  0  0  0  0  0  0  0  0
    1.2097   -2.1730    0.7719 H   0  0  0  0  0  0  0  0  0  0  0  0
    2.5610    0.7743   -1.1805 H   0  0  0  0  0  0  0  0  0  0  0  0
   -0.7147    4.9973   -0.0240 H   0  0  0  0  0  0  0  0  0  0  0  0
   -0.2543   -4.0448    0.4609 H   0  0  0  0  0  0  0  0  0  0  0  0
   -3.9323    0.0716   -0.6967 H   0  0  0  0  0  0  0  0  0  0  0  0
    4.4652    0.0152   -2.4400 H   0  0  0  0  0  0  0  0  0  0  0  0
    5.8824   -0.1268   -1.3907 H   0  0  0  0  0  0  0  0  0  0  0  0
    5.0136   -1.5853   -1.9235 H   0  0  0  0  0  0  0  0  0  0  0  0
    4.0891   -0.9586    1.7540 H   0  0  0  0  0  0  0  0  0  0  0  0
    4.3781   -2.3163    0.6484 H   0  0  0  0  0  0  0  0  0  0  0  0
    5.6154   -1.0747    0.9129 H   0  0  0  0  0  0  0  0  0  0  0  0
  1  9  1  0  0  0  0
  1 15  1  0  0  0  0
  2 10  1  0  0  0  0
  2 18  1  0  0  0  0
  3 11  1  0  0  0  0
  3 28  1  0  0  0  0
  4 18  2  0  0  0  0
  5  6  1  0  0  0  0
  5  7  2  0  0  0  0
  5  8  1  0  0  0  0
  6  9  2  0  0  0  0
  6 12  1  0  0  0  0
  7 10  1  0  0  0  0
  7 13  1  0  0  0  0
  8 14  1  0  0  0  0
  8 21  1  0  0  0  0
  8 22  1  0  0  0  0
  9 11  1  0  0  0  0
 10 11  2  0  0  0  0
 12 15  2  0  0  0  0
 12 23  1  0  0  0  0
 13 17  2  0  0  0  0
 13 24  1  0  0  0  0
 14 16  2  0  0  0  0
 14 25  1  0  0  0  0
 15 26  1  0  0  0  0
 16 19  1  0  0  0  0
 16 20  1  0  0  0  0
 17 18  1  0  0  0  0
 17 27  1  0  0  0  0
 19 29  1  0  0  0  0
 19 30  1  0  0  0  0
 19 31  1  0  0  0  0
 20 32  1  0  0  0  0
 20 33  1  0  0  0  0
 20 34  1  0  0  0  0
M  END
> <PUBCHEM_COMPOUND_CID>
69502

> <PUBCHEM_CONFORMER_RMSD>
0.6

> <PUBCHEM_CONFORMER_DIVERSEORDER>
1
7
10
6
5
8
9
3
4
2

> <PUBCHEM_MMFF94_PARTIAL_CHARGES>
25
1 -0.28
10 0.08
11 0.08
12 -0.15
13 -0.18
14 -0.29
15 -0.01
16 -0.28
17 -0.14
18 0.71
19 0.14
2 -0.23
20 0.14
23 0.15
24 0.15
25 0.15
26 0.15
27 0.15
28 0.45
3 -0.53
4 -0.57
5 -0.14
7 0.03
8 0.28
9 0.14

> <PUBCHEM_EFFECTIVE_ROTOR_COUNT>
2

> <PUBCHEM_PHARMACOPHORE_FEATURES>
7
1 1 acceptor
1 3 donor
1 4 acceptor
3 16 19 20 hydrophobe
5 1 6 9 12 15 rings
6 2 7 10 13 17 18 rings
6 5 6 7 9 10 11 rings

> <PUBCHEM_HEAVY_ATOM_COUNT>
20

> <PUBCHEM_ATOM_DEF_STEREO_COUNT>
0

> <PUBCHEM_ATOM_UDEF_STEREO_COUNT>
0

> <PUBCHEM_BOND_DEF_STEREO_COUNT>
0

> <PUBCHEM_BOND_UDEF_STEREO_COUNT>
0

> <PUBCHEM_ISOTOPIC_ATOM_COUNT>
0

> <PUBCHEM_COMPONENT_COUNT>
1

> <PUBCHEM_CACTVS_TAUTO_COUNT>
3

> <PUBCHEM_CONFORMER_ID>
00010F7E00000001

> <PUBCHEM_MMFF94_ENERGY>
48.7175

> <PUBCHEM_FEATURE_SELFOVERLAP>
35.651

> <PUBCHEM_SHAPE_FINGERPRINT>
10319926 262 18191613981024477362
10411042 1 18267027145972531386
10693767 8 17898600750207854071
10967382 1 18339090370975529433
1100329 8 18410292480748545897
11578080 2 16912051718476759100
11582403 64 16165320797570293536
11680986 33 18119259367489407065
116883 192 18048885095688755015
12173636 292 18050574246360500580
12553582 1 18339921494287028930
12788726 201 18342165679350135874
13140716 1 18337397041179766889
138480 1 16104452065199116034
14790565 3 18338223985815413841
15042514 8 18412262852260663059
15475509 35 5397082026309362693
16752209 62 18267592484222382456
16945 1 18339095881239592497
193761 8 17907586830844460609
19591789 44 18265613367492400881
20510252 161 18190184670814761680
20645477 70 17330569644000711047
20871999 31 18340764836922013774
21524375 3 17841709905225163632
22182313 1 18051995631458599421
2334 1 18051705351719992689
23402539 116 18263095446856868333
23419403 2 17532387369420250570
23557571 272 18336548193103180840
23559900 14 17832997048310319552
23566358 2 18052267193286930821
2748010 2 18194701271260462681
3084891 72 18337681930629038655
3091708 16 9060099503832758562
350125 39 17762336220444344376
43471831 8 17980203307058376704
458136 41 17471281224722893801
7364860 26 17473262072250140720
81228 2 18337953389926495576
9709674 26 18189051048989113974
9981440 41 17908429399984672536

> <PUBCHEM_SHAPE_MULTIPOLES>
388.11
6.34
4.69
0.9
9.5
0.17
-0.12
-2.3
-1.97
-4.78
0.17
0.85
-0.05
-0.04

> <PUBCHEM_SHAPE_SELFOVERLAP>
853.149

> <PUBCHEM_SHAPE_VOLUME>
211.3

> <PUBCHEM_COORDINATE_TYPE>
2
5
10

$$$$

