54675770
  -OEChem-07051212502D

 27 27  0     0  0  0  0  0  0999 V2000
    5.4641   -3.2500    0.0000 Cl  0  0  0  0  0  0  0  0  0  0  0  0
    5.4641   -1.2500    0.0000 O   0  0  0  0  0  0  0  0  0  0  0  0
    4.5981    0.2500    0.0000 O   0  0  0  0  0  0  0  0  0  0  0  0
    4.5981    3.2500    0.0000 O   0  0  0  0  0  0  0  0  0  0  0  0
    2.8660    4.2500    0.0000 O   0  0  0  0  0  0  0  0  0  0  0  0
    2.0000    2.7500    0.0000 O   0  0  0  0  0  0  0  0  0  0  0  0
    3.7320   -1.2500    0.0000 N   0  0  0  0  0  0  0  0  0  0  0  0
    2.8660   -1.7500    0.0000 N   0  0  0  0  0  0  0  0  0  0  0  0
    3.7320   -4.2500    0.0000 N   0  0  0  0  0  0  0  0  0  0  0  0
    4.5981   -1.7500    0.0000 C   0  0  0  0  0  0  0  0  0  0  0  0
    3.7320   -3.2500    0.0000 C   0  0  0  0  0  0  0  0  0  0  0  0
    4.5981   -2.7500    0.0000 C   0  0  0  0  0  0  0  0  0  0  0  0
    3.7320   -0.2500    0.0000 C   0  0  0  0  0  0  0  0  0  0  0  0
    2.8660   -2.7500    0.0000 C   0  0  0  0  0  0  0  0  0  0  0  0
    2.8660    0.2500    0.0000 C   0  0  0  0  0  0  0  0  0  0  0  0
    2.8660    1.2500    0.0000 C   0  0  0  0  0  0  0  0  0  0  0  0
    3.7320    1.7500    0.0000 C   0  0  0  0  0  0  0  0  0  0  0  0
    3.7320    2.7500    0.0000 C   0  0  0  0  0  0  0  0  0  0  0  0
    2.8660    3.2500    0.0000 C   0  0  0  0  0  0  0  0  0  0  0  0
    2.3291   -3.0600    0.0000 H   0  0  0  0  0  0  0  0  0  0  0  0
    2.3291   -0.0600    0.0000 H   0  0  0  0  0  0  0  0  0  0  0  0
    2.3291    1.5600    0.0000 H   0  0  0  0  0  0  0  0  0  0  0  0
    3.1951   -4.5600    0.0000 H   0  0  0  0  0  0  0  0  0  0  0  0
    4.2690   -4.5600    0.0000 H   0  0  0  0  0  0  0  0  0  0  0  0
    4.2690    1.4400    0.0000 H   0  0  0  0  0  0  0  0  0  0  0  0
    4.5981    3.8700    0.0000 H   0  0  0  0  0  0  0  0  0  0  0  0
    2.3291    4.5600    0.0000 H   0  0  0  0  0  0  0  0  0  0  0  0
  1 12  1  0  0  0  0
  2 10  2  0  0  0  0
  3 13  2  0  0  0  0
  4 18  1  0  0  0  0
  4 26  1  0  0  0  0
  5 19  1  0  0  0  0
  5 27  1  0  0  0  0
  6 19  2  0  0  0  0
  7  8  1  0  0  0  0
  7 10  1  0  0  0  0
  7 13  1  0  0  0  0
  8 14  2  0  0  0  0
  9 11  1  0  0  0  0
  9 23  1  0  0  0  0
  9 24  1  0  0  0  0
 10 12  1  0  0  0  0
 11 12  2  0  0  0  0
 11 14  1  0  0  0  0
 13 15  1  0  0  0  0
 14 20  1  0  0  0  0
 15 16  2  0  0  0  0
 15 21  1  0  0  0  0
 16 17  1  0  0  0  0
 16 22  1  0  0  0  0
 17 18  2  0  0  0  0
 17 25  1  0  0  0  0
 18 19  1  0  0  0  0
M  END
> <PUBCHEM_COMPOUND_CID>
54675770

> <PUBCHEM_COMPOUND_CANONICALIZED>
1

> <PUBCHEM_CACTVS_COMPLEXITY>
562

> <PUBCHEM_CACTVS_HBOND_ACCEPTOR>
7

> <PUBCHEM_CACTVS_HBOND_DONOR>
3

> <PUBCHEM_CACTVS_ROTATABLE_BOND>
3

> <PUBCHEM_CACTVS_SUBSKEYS>
AAADccBzOAAEAAAAAAAAAAAAAAAAAAAAAAAgAAAAAAAAAAAAAAAAHgIYCAAACA7BgAQACAJAAgCoADXzWAKQAAAAIAAaCABAAFBJBAAAAQBAEAAAHCCBkcAAAAAAAAAAAAAAAAAAAAAAAAAAAAAAAAAAAA==

> <PUBCHEM_IUPAC_OPENEYE_NAME>
(2E,4Z)-6-(4-amino-5-chloro-6-oxo-pyridazin-1-yl)-2-hydroxy-6-oxo-hexa-2,4-dienoic acid

> <PUBCHEM_IUPAC_CAS_NAME>
(2E,4Z)-6-(4-amino-5-chloro-6-oxo-1-pyridazinyl)-2-hydroxy-6-oxohexa-2,4-dienoic acid

> <PUBCHEM_IUPAC_NAME>
(2E,4Z)-6-(4-amino-5-chloro-6-oxopyridazin-1-yl)-2-hydroxy-6-oxohexa-2,4-dienoic acid

> <PUBCHEM_IUPAC_SYSTEMATIC_NAME>
(2E,4Z)-6-(4-azanyl-5-chloranyl-6-oxidanylidene-pyridazin-1-yl)-2-oxidanyl-6-oxidanylidene-hexa-2,4-dienoic acid

> <PUBCHEM_IUPAC_TRADITIONAL_NAME>
(2E,4Z)-6-(4-amino-5-chloro-6-keto-pyridazin-1-yl)-2-hydroxy-6-keto-hexa-2,4-dienoic acid

> <PUBCHEM_IUPAC_INCHI>
InChI=1S/C10H8ClN3O5/c11-8-5(12)4-13-14(9(8)17)7(16)3-1-2-6(15)10(18)19/h1-4,15H,12H2,(H,18,19)/b3-1-,6-2+

> <PUBCHEM_IUPAC_INCHIKEY>
VPRVQIJXVCMMQE-JUEFVVJZSA-N

> <PUBCHEM_XLOGP3_AA>
-0.1

> <PUBCHEM_EXACT_MASS>
285.015248

> <PUBCHEM_MOLECULAR_FORMULA>
C10H8ClN3O5

> <PUBCHEM_MOLECULAR_WEIGHT>
285.64062

> <PUBCHEM_OPENEYE_CAN_SMILES>
C1=NN(C(=O)C(=C1N)Cl)C(=O)C=CC=C(C(=O)O)O

> <PUBCHEM_OPENEYE_ISO_SMILES>
C1=NN(C(=O)C(=C1N)Cl)C(=O)/C=C\C=C(/C(=O)O)\O

> <PUBCHEM_CACTVS_TPSA>
133

> <PUBCHEM_MONOISOTOPIC_WEIGHT>
285.015248

> <PUBCHEM_TOTAL_CHARGE>
0

> <PUBCHEM_HEAVY_ATOM_COUNT>
19

> <PUBCHEM_ATOM_DEF_STEREO_COUNT>
0

> <PUBCHEM_ATOM_UDEF_STEREO_COUNT>
0

> <PUBCHEM_BOND_DEF_STEREO_COUNT>
2

> <PUBCHEM_BOND_UDEF_STEREO_COUNT>
0

> <PUBCHEM_ISOTOPIC_ATOM_COUNT>
0

> <PUBCHEM_COMPONENT_COUNT>
1

> <PUBCHEM_CACTVS_TAUTO_COUNT>
12

> <PUBCHEM_COORDINATE_TYPE>
1
5
255

> <PUBCHEM_BONDANNOTATIONS>
10  12  8
11  12  8
11  14  8
7  10  8
7  8  8
8  14  8

$$$$

