442324
  -OEChem-07051212573D

 36 38  0     1  0  0  0  0  0999 V2000
    2.8978   -1.3401   -0.2944 O   0  0  0  0  0  0  0  0  0  0  0  0
    0.1910    2.2495    1.1672 O   0  0  0  0  0  0  0  0  0  0  0  0
   -2.5971   -0.2672   -1.6834 O   0  0  0  0  0  0  0  0  0  0  0  0
    4.9465   -0.2692   -0.3085 O   0  0  0  0  0  0  0  0  0  0  0  0
   -3.9892    1.4143   -1.1528 O   0  0  0  0  0  0  0  0  0  0  0  0
   -0.9219   -1.1816   -0.0717 C   0  0  2  0  0  0  0  0  0  0  0  0
   -0.9613    0.1929    0.6505 C   0  0  1  0  0  0  0  0  0  0  0  0
    1.5374    0.3997    0.4310 C   0  0  1  0  0  0  0  0  0  0  0  0
    0.2140    1.1442    0.2616 C   0  0  2  0  0  0  0  0  0  0  0  0
    1.5645   -0.8426   -0.4324 C   0  0  2  0  0  0  0  0  0  0  0  0
    0.4889   -1.8237    0.0046 C   0  0  0  0  0  0  0  0  0  0  0  0
   -1.3413   -0.9651   -1.5342 C   0  0  0  0  0  0  0  0  0  0  0  0
   -2.2965    0.8647    0.4252 C   0  0  0  0  0  0  0  0  0  0  0  0
    2.8610    0.9364    0.0099 C   0  0  0  0  0  0  0  0  0  0  0  0
   -1.8857   -2.1543    0.5766 C   0  0  0  0  0  0  0  0  0  0  0  0
    3.7324   -0.2502   -0.2237 C   0  0  0  0  0  0  0  0  0  0  0  0
   -3.0233    0.7179   -0.8568 C   0  0  0  0  0  0  0  0  0  0  0  0
   -2.9172    1.5582    1.3937 C   0  0  0  0  0  0  0  0  0  0  0  0
    3.2966    2.1774   -0.2097 C   0  0  0  0  0  0  0  0  0  0  0  0
   -1.7967   -2.5612    1.8474 C   0  0  0  0  0  0  0  0  0  0  0  0
   -0.8593    0.0215    1.7333 H   0  0  0  0  0  0  0  0  0  0  0  0
    1.6514    0.1344    1.4940 H   0  0  0  0  0  0  0  0  0  0  0  0
    0.0921    1.5311   -0.7573 H   0  0  0  0  0  0  0  0  0  0  0  0
    1.4302   -0.6107   -1.4980 H   0  0  0  0  0  0  0  0  0  0  0  0
    0.5437   -2.7248   -0.6210 H   0  0  0  0  0  0  0  0  0  0  0  0
    0.7351   -2.1645    1.0187 H   0  0  0  0  0  0  0  0  0  0  0  0
   -0.6078   -0.3869   -2.1038 H   0  0  0  0  0  0  0  0  0  0  0  0
   -1.4495   -1.9244   -2.0549 H   0  0  0  0  0  0  0  0  0  0  0  0
   -2.6977   -2.5583   -0.0240 H   0  0  0  0  0  0  0  0  0  0  0  0
    0.7581    2.9469    0.8010 H   0  0  0  0  0  0  0  0  0  0  0  0
   -2.4582    1.6817    2.3698 H   0  0  0  0  0  0  0  0  0  0  0  0
   -3.8898    2.0191    1.2577 H   0  0  0  0  0  0  0  0  0  0  0  0
    2.6561    3.0387   -0.0693 H   0  0  0  0  0  0  0  0  0  0  0  0
    4.3111    2.3702   -0.5434 H   0  0  0  0  0  0  0  0  0  0  0  0
   -2.5212   -3.2647    2.2441 H   0  0  0  0  0  0  0  0  0  0  0  0
   -1.0227   -2.2111    2.5204 H   0  0  0  0  0  0  0  0  0  0  0  0
  1 10  1  0  0  0  0
  1 16  1  0  0  0  0
  2  9  1  0  0  0  0
  2 30  1  0  0  0  0
  3 12  1  0  0  0  0
  3 17  1  0  0  0  0
  4 16  2  0  0  0  0
  5 17  2  0  0  0  0
  6  7  1  0  0  0  0
  6 11  1  0  0  0  0
  6 12  1  0  0  0  0
  6 15  1  0  0  0  0
  7  9  1  0  0  0  0
  7 13  1  0  0  0  0
  7 21  1  0  0  0  0
  8  9  1  0  0  0  0
  8 10  1  0  0  0  0
  8 14  1  0  0  0  0
  8 22  1  0  0  0  0
  9 23  1  0  0  0  0
 10 11  1  0  0  0  0
 10 24  1  0  0  0  0
 11 25  1  0  0  0  0
 11 26  1  0  0  0  0
 12 27  1  0  0  0  0
 12 28  1  0  0  0  0
 13 17  1  0  0  0  0
 13 18  2  0  0  0  0
 14 16  1  0  0  0  0
 14 19  2  0  0  0  0
 15 20  2  0  0  0  0
 15 29  1  0  0  0  0
 18 31  1  0  0  0  0
 18 32  1  0  0  0  0
 19 33  1  0  0  0  0
 19 34  1  0  0  0  0
 20 35  1  0  0  0  0
 20 36  1  0  0  0  0
M  END
> <PUBCHEM_COMPOUND_CID>
442324

> <PUBCHEM_CONFORMER_RMSD>
0.6

> <PUBCHEM_CONFORMER_DIVERSEORDER>
1
2

> <PUBCHEM_MMFF94_PARTIAL_CHARGES>
27
1 -0.43
10 0.28
12 0.28
13 -0.12
14 -0.12
15 -0.29
16 0.71
17 0.71
18 -0.3
19 -0.3
2 -0.68
20 -0.3
29 0.15
3 -0.43
30 0.4
31 0.15
32 0.15
33 0.15
34 0.15
35 0.15
36 0.15
4 -0.57
5 -0.57
6 0.14
7 0.14
8 0.14
9 0.28

> <PUBCHEM_EFFECTIVE_ROTOR_COUNT>
2

> <PUBCHEM_PHARMACOPHORE_FEATURES>
8
1 2 acceptor
1 2 donor
1 20 hydrophobe
1 4 acceptor
1 5 acceptor
5 1 8 10 14 16 rings
6 3 6 7 12 13 17 rings
6 6 7 8 9 10 11 rings

> <PUBCHEM_HEAVY_ATOM_COUNT>
20

> <PUBCHEM_ATOM_DEF_STEREO_COUNT>
5

> <PUBCHEM_ATOM_UDEF_STEREO_COUNT>
0

> <PUBCHEM_BOND_DEF_STEREO_COUNT>
0

> <PUBCHEM_BOND_UDEF_STEREO_COUNT>
0

> <PUBCHEM_ISOTOPIC_ATOM_COUNT>
0

> <PUBCHEM_COMPONENT_COUNT>
1

> <PUBCHEM_CACTVS_TAUTO_COUNT>
1

> <PUBCHEM_CONFORMER_ID>
0006BFD400000001

> <PUBCHEM_MMFF94_ENERGY>
66.6482

> <PUBCHEM_FEATURE_SELFOVERLAP>
40.724

> <PUBCHEM_SHAPE_FINGERPRINT>
10863032 1 18411699859372983542
10948715 1 18271531987134788805
11315181 36 18041001744031869208
12423570 1 16812636381069560363
12491281 212 17822289136632669609
12500047 106 18060703900768116118
12730499 353 17843405335482019565
13140716 1 18409159996551116440
13296908 3 18336259029834206370
13583140 156 17203605995177133832
14223421 5 18055066554317798570
14787075 74 18410576150701360571
15420108 30 15881235807635401736
16945 1 18267861859875358490
17357779 13 18052827940360355711
18186145 218 18411134770642003860
18219364 16 18343575270099132305
19765921 60 18269855244892885603
200 152 17095246929900343790
20510252 161 18126000468720571011
20602899 9 16370728136344633919
20645476 183 18202571691329443787
2334 1 18263922142567937208
23402539 116 17968944218249603516
23493267 7 18202569458083580738
23557571 272 17415003447956717340
23559900 14 18335421275563148672
25 1 18340215205640818439
2748010 2 18263357010713107186
298252 57 17531812488601438343
350125 39 18197765627019564576
4340502 62 18199170954211423153
474 4 18336826497808522821
5104073 3 18340204099472745544
5939293 188 15524874218853550217
74978 22 18272092682151258330
81228 2 17630596830714616123
9709674 26 18260821631505099326
9981440 41 17755892743467352520

> <PUBCHEM_SHAPE_MULTIPOLES>
382.24
6.58
2.46
1.34
5.16
0.39
0.04
-1.78
1.13
-0.85
-0.85
-1.42
0.14
0.57

> <PUBCHEM_SHAPE_SELFOVERLAP>
829.384

> <PUBCHEM_SHAPE_VOLUME>
207

> <PUBCHEM_COORDINATE_TYPE>
2
5
10

$$$$

