10947671
  -OEChem-07051213073D

 43 43  0     1  0  0  0  0  0999 V2000
   -3.8515   -2.9171    1.5946 O   0  0  0  0  0  0  0  0  0  0  0  0
   -1.5519    2.6364    0.3713 O   0  0  0  0  0  0  0  0  0  0  0  0
   -4.7787   -1.2495   -2.2389 O   0  0  0  0  0  0  0  0  0  0  0  0
   -5.7447    0.1173   -0.7133 O   0  0  0  0  0  0  0  0  0  0  0  0
    0.9996    3.9961   -0.2332 O   0  0  0  0  0  0  0  0  0  0  0  0
    2.0796    2.6924    1.2754 O   0  0  0  0  0  0  0  0  0  0  0  0
    4.8686    0.2867    0.2478 O   0  0  0  0  0  0  0  0  0  0  0  0
    4.2273   -3.2395   -0.0838 O   0  0  0  0  0  0  0  0  0  0  0  0
    6.1573   -2.0764    0.1851 O   0  0  0  0  0  0  0  0  0  0  0  0
   -2.8967    0.1089    0.4270 N   0  0  1  0  0  0  0  0  0  0  0  0
    1.4129    0.4754   -0.2801 N   0  0  0  0  0  0  0  0  0  0  0  0
   -3.6529   -1.0443   -0.1199 C   0  0  1  0  0  0  0  0  0  0  0  0
   -3.9066   -1.5040    1.3227 C   0  0  2  0  0  0  0  0  0  0  0  0
   -2.6504   -0.6862    1.6547 C   0  0  0  0  0  0  0  0  0  0  0  0
   -1.6254    0.3004   -0.2681 C   0  0  0  0  0  0  0  0  0  0  0  0
   -0.8051    1.4174    0.3909 C   0  0  1  0  0  0  0  0  0  0  0  0
    0.5439    1.6532   -0.3168 C   0  0  1  0  0  0  0  0  0  0  0  0
   -4.8337   -0.6488   -1.0178 C   0  0  0  0  0  0  0  0  0  0  0  0
    2.4050    0.5363   -1.3413 C   0  0  0  0  0  0  0  0  0  0  0  0
    1.2982    2.7992    0.3390 C   0  0  0  0  0  0  0  0  0  0  0  0
    3.3074   -0.7015   -1.2922 C   0  0  0  0  0  0  0  0  0  0  0  0
    4.0585   -0.8592    0.0334 C   0  0  1  0  0  0  0  0  0  0  0  0
    4.9393   -2.0932    0.0634 C   0  0  0  0  0  0  0  0  0  0  0  0
   -3.0174   -1.7801   -0.6420 H   0  0  0  0  0  0  0  0  0  0  0  0
   -4.8195   -1.0745    1.7573 H   0  0  0  0  0  0  0  0  0  0  0  0
   -1.7311   -1.2860    1.6826 H   0  0  0  0  0  0  0  0  0  0  0  0
   -2.7120   -0.1083    2.5825 H   0  0  0  0  0  0  0  0  0  0  0  0
   -1.8564    0.6074   -1.2967 H   0  0  0  0  0  0  0  0  0  0  0  0
   -1.0616   -0.6356   -0.3382 H   0  0  0  0  0  0  0  0  0  0  0  0
   -0.6142    1.1816    1.4459 H   0  0  0  0  0  0  0  0  0  0  0  0
    0.3357    1.9400   -1.3572 H   0  0  0  0  0  0  0  0  0  0  0  0
   -3.8593   -2.9854    2.5646 H   0  0  0  0  0  0  0  0  0  0  0  0
    0.8777   -0.3820   -0.3870 H   0  0  0  0  0  0  0  0  0  0  0  0
    1.9161    0.5644   -2.3230 H   0  0  0  0  0  0  0  0  0  0  0  0
    3.0243    1.4366   -1.2565 H   0  0  0  0  0  0  0  0  0  0  0  0
   -2.3997    2.4636    0.8154 H   0  0  0  0  0  0  0  0  0  0  0  0
    4.0346   -0.6212   -2.1107 H   0  0  0  0  0  0  0  0  0  0  0  0
    2.7098   -1.5994   -1.4947 H   0  0  0  0  0  0  0  0  0  0  0  0
   -5.5360   -0.9913   -2.8064 H   0  0  0  0  0  0  0  0  0  0  0  0
    3.3634   -0.9355    0.8771 H   0  0  0  0  0  0  0  0  0  0  0  0
    1.4834    4.7353    0.1932 H   0  0  0  0  0  0  0  0  0  0  0  0
    5.2394    0.2204    1.1445 H   0  0  0  0  0  0  0  0  0  0  0  0
    4.8046   -4.0325   -0.0741 H   0  0  0  0  0  0  0  0  0  0  0  0
  1 13  1  0  0  0  0
  1 32  1  0  0  0  0
  2 16  1  0  0  0  0
  2 36  1  0  0  0  0
  3 18  1  0  0  0  0
  3 39  1  0  0  0  0
  4 18  2  0  0  0  0
  5 20  1  0  0  0  0
  5 41  1  0  0  0  0
  6 20  2  0  0  0  0
  7 22  1  0  0  0  0
  7 42  1  0  0  0  0
  8 23  1  0  0  0  0
  8 43  1  0  0  0  0
  9 23  2  0  0  0  0
 10 12  1  0  0  0  0
 10 14  1  0  0  0  0
 10 15  1  0  0  0  0
 11 17  1  0  0  0  0
 11 19  1  0  0  0  0
 11 33  1  0  0  0  0
 12 13  1  0  0  0  0
 12 18  1  0  0  0  0
 12 24  1  0  0  0  0
 13 14  1  0  0  0  0
 13 25  1  0  0  0  0
 14 26  1  0  0  0  0
 14 27  1  0  0  0  0
 15 16  1  0  0  0  0
 15 28  1  0  0  0  0
 15 29  1  0  0  0  0
 16 17  1  0  0  0  0
 16 30  1  0  0  0  0
 17 20  1  0  0  0  0
 17 31  1  0  0  0  0
 19 21  1  0  0  0  0
 19 34  1  0  0  0  0
 19 35  1  0  0  0  0
 21 22  1  0  0  0  0
 21 37  1  0  0  0  0
 21 38  1  0  0  0  0
 22 23  1  0  0  0  0
 22 40  1  0  0  0  0
M  END
> <PUBCHEM_COMPOUND_CID>
10947671

> <PUBCHEM_CONFORMER_RMSD>
1

> <PUBCHEM_CONFORMER_DIVERSEORDER>
9
75
40
18
23
39
71
6
35
49
70
29
42
10
36
46
37
55
73
64
14
54
24
15
17
61
25
4
31
43
47
65
53
22
27
3
56
66
34
19
2
59
33
8
16
72
38
69
13
12
41
28
52
62
68
7
60
67
11
57
30
20
44
45
48
21
51
50
5
58
63
74
32
26
1

> <PUBCHEM_MMFF94_PARTIAL_CHARGES>
29
1 -0.66
10 -0.69
11 -0.9
12 0.26
13 0.26
14 0.21
15 0.27
16 0.28
17 0.33
18 0.67
19 0.27
2 -0.68
20 0.66
22 0.34
23 0.66
3 -0.65
32 0.4
33 0.36
36 0.4
39 0.5
4 -0.57
41 0.5
42 0.4
43 0.5
5 -0.65
6 -0.57
7 -0.68
8 -0.65
9 -0.57

> <PUBCHEM_EFFECTIVE_ROTOR_COUNT>
10.8

> <PUBCHEM_PHARMACOPHORE_FEATURES>
19
1 1 acceptor
1 1 donor
1 10 cation
1 11 cation
1 11 donor
1 2 acceptor
1 2 donor
1 3 acceptor
1 4 acceptor
1 5 acceptor
1 6 acceptor
1 7 acceptor
1 7 donor
1 8 acceptor
1 9 acceptor
3 3 4 18 anion
3 5 6 20 anion
3 8 9 23 anion
4 10 12 13 14 rings

> <PUBCHEM_HEAVY_ATOM_COUNT>
23

> <PUBCHEM_ATOM_DEF_STEREO_COUNT>
5

> <PUBCHEM_ATOM_UDEF_STEREO_COUNT>
0

> <PUBCHEM_BOND_DEF_STEREO_COUNT>
0

> <PUBCHEM_BOND_UDEF_STEREO_COUNT>
0

> <PUBCHEM_ISOTOPIC_ATOM_COUNT>
0

> <PUBCHEM_COMPONENT_COUNT>
1

> <PUBCHEM_CACTVS_TAUTO_COUNT>
1

> <PUBCHEM_CONFORMER_ID>
00A70C5700000009

> <PUBCHEM_MMFF94_ENERGY>
31.5943

> <PUBCHEM_FEATURE_SELFOVERLAP>
96.6

> <PUBCHEM_SHAPE_FINGERPRINT>
10447042 23 18412827993216877302
11405975 8 18337662015482898449
11796584 16 17775291542753286410
12363563 72 18338504313908138540
12523318 42 15502376717001942431
12553582 1 18189594125358470183
12596602 18 16588312695963355282
12633257 1 16515693247167255274
12760667 363 18410854403835420719
13544592 145 18202007599437000269
13544653 18 18410289224888866524
13631057 29 18267302222344230490
13955234 65 18047463422664310817
14848178 5 18272086106567254434
14866123 147 18194958784836272881
14950920 106 14996838961109659102
15163728 17 9871456669373093392
15183329 4 16845578659670031487
15188451 53 16877954823580461359
15342168 16 10303820882348744463
15352361 1 18412539938086570250
18222031 100 17967807254459358716
20645477 70 18265901254982021357
23559900 14 18201720596230925965
3004659 81 17846777425542521054
312425 83 16558458682740621967
314194 84 18335417937651132990
339767 52 18342744026629860282
3421961 26 18337948991896074752
463206 1 18413386540280797930
613672 6 18412263952083579058
9709674 26 18268153063633859749

> <PUBCHEM_SHAPE_MULTIPOLES>
410.54
12.73
3.7
1.41
2.11
1.88
-0.2
-12.09
-1.69
3.02
0.98
-1.69
-0.5
0.61

> <PUBCHEM_SHAPE_SELFOVERLAP>
819.008

> <PUBCHEM_SHAPE_VOLUME>
240.2

> <PUBCHEM_COORDINATE_TYPE>
2
5
10

$$$$

