160236
  -OEChem-07051213113D

 30 33  0     0  0  0  0  0  0999 V2000
   -3.6313   -0.9063    0.3054 O   0  0  0  0  0  0  0  0  0  0  0  0
   -0.1778    0.3776    0.0649 C   0  0  0  0  0  0  0  0  0  0  0  0
    1.1572   -0.0945    0.0117 C   0  0  0  0  0  0  0  0  0  0  0  0
   -1.2490   -0.5410    0.1612 C   0  0  0  0  0  0  0  0  0  0  0  0
   -0.4386    1.7670    0.0217 C   0  0  0  0  0  0  0  0  0  0  0  0
    1.4180   -1.4839    0.0549 C   0  0  0  0  0  0  0  0  0  0  0  0
    2.2284    0.8241   -0.0846 C   0  0  0  0  0  0  0  0  0  0  0  0
   -0.9714   -1.9140    0.2028 C   0  0  0  0  0  0  0  0  0  0  0  0
   -2.5648   -0.0581    0.2129 C   0  0  0  0  0  0  0  0  0  0  0  0
    0.3441   -2.3791    0.1504 C   0  0  0  0  0  0  0  0  0  0  0  0
    0.6353    2.6622   -0.0738 C   0  0  0  0  0  0  0  0  0  0  0  0
    1.9508    2.1971   -0.1261 C   0  0  0  0  0  0  0  0  0  0  0  0
   -1.7655    2.2184    0.0754 C   0  0  0  0  0  0  0  0  0  0  0  0
    2.7448   -1.9353    0.0013 C   0  0  0  0  0  0  0  0  0  0  0  0
    3.5441    0.3412   -0.1363 C   0  0  0  0  0  0  0  0  0  0  0  0
   -2.8197    1.3115    0.1702 C   0  0  0  0  0  0  0  0  0  0  0  0
    3.7991   -1.0285   -0.0936 C   0  0  0  0  0  0  0  0  0  0  0  0
   -4.2035   -1.3583   -0.9185 C   0  0  0  0  0  0  0  0  0  0  0  0
   -1.7682   -2.6501    0.2828 H   0  0  0  0  0  0  0  0  0  0  0  0
    0.5207   -3.4523    0.1866 H   0  0  0  0  0  0  0  0  0  0  0  0
    0.4590    3.7354   -0.1085 H   0  0  0  0  0  0  0  0  0  0  0  0
    2.7586    2.9224   -0.2001 H   0  0  0  0  0  0  0  0  0  0  0  0
   -1.9901    3.2825    0.0439 H   0  0  0  0  0  0  0  0  0  0  0  0
    2.9695   -2.9993    0.0331 H   0  0  0  0  0  0  0  0  0  0  0  0
    4.3839    1.0289   -0.2105 H   0  0  0  0  0  0  0  0  0  0  0  0
   -3.8407    1.6821    0.2114 H   0  0  0  0  0  0  0  0  0  0  0  0
    4.8225   -1.3903   -0.1344 H   0  0  0  0  0  0  0  0  0  0  0  0
   -4.6538   -0.5201   -1.4597 H   0  0  0  0  0  0  0  0  0  0  0  0
   -4.9883   -2.0824   -0.6828 H   0  0  0  0  0  0  0  0  0  0  0  0
   -3.4542   -1.8488   -1.5478 H   0  0  0  0  0  0  0  0  0  0  0  0
  1  9  1  0  0  0  0
  1 18  1  0  0  0  0
  2  3  1  0  0  0  0
  2  4  1  0  0  0  0
  2  5  2  0  0  0  0
  3  6  1  0  0  0  0
  3  7  2  0  0  0  0
  4  8  1  0  0  0  0
  4  9  2  0  0  0  0
  5 11  1  0  0  0  0
  5 13  1  0  0  0  0
  6 10  1  0  0  0  0
  6 14  2  0  0  0  0
  7 12  1  0  0  0  0
  7 15  1  0  0  0  0
  8 10  2  0  0  0  0
  8 19  1  0  0  0  0
  9 16  1  0  0  0  0
 10 20  1  0  0  0  0
 11 12  2  0  0  0  0
 11 21  1  0  0  0  0
 12 22  1  0  0  0  0
 13 16  2  0  0  0  0
 13 23  1  0  0  0  0
 14 17  1  0  0  0  0
 14 24  1  0  0  0  0
 15 17  2  0  0  0  0
 15 25  1  0  0  0  0
 16 26  1  0  0  0  0
 17 27  1  0  0  0  0
 18 28  1  0  0  0  0
 18 29  1  0  0  0  0
 18 30  1  0  0  0  0
M  END
> <PUBCHEM_COMPOUND_CID>
160236

> <PUBCHEM_CONFORMER_RMSD>
0.6

> <PUBCHEM_CONFORMER_DIVERSEORDER>
1

> <PUBCHEM_MMFF94_PARTIAL_CHARGES>
21
1 -0.36
10 -0.15
11 -0.15
12 -0.15
13 -0.15
14 -0.15
15 -0.15
16 -0.15
17 -0.15
18 0.28
19 0.15
20 0.15
21 0.15
22 0.15
23 0.15
24 0.15
25 0.15
26 0.15
27 0.15
8 -0.15
9 0.08

> <PUBCHEM_EFFECTIVE_ROTOR_COUNT>
1

> <PUBCHEM_PHARMACOPHORE_FEATURES>
5
1 1 acceptor
6 2 3 4 6 8 10 rings
6 2 3 5 7 11 12 rings
6 2 4 5 9 13 16 rings
6 3 6 7 14 15 17 rings

> <PUBCHEM_HEAVY_ATOM_COUNT>
18

> <PUBCHEM_ATOM_DEF_STEREO_COUNT>
0

> <PUBCHEM_ATOM_UDEF_STEREO_COUNT>
0

> <PUBCHEM_BOND_DEF_STEREO_COUNT>
0

> <PUBCHEM_BOND_UDEF_STEREO_COUNT>
0

> <PUBCHEM_ISOTOPIC_ATOM_COUNT>
0

> <PUBCHEM_COMPONENT_COUNT>
1

> <PUBCHEM_CACTVS_TAUTO_COUNT>
1

> <PUBCHEM_CONFORMER_ID>
000271EC00000001

> <PUBCHEM_MMFF94_ENERGY>
72.6024

> <PUBCHEM_FEATURE_SELFOVERLAP>
25.503

> <PUBCHEM_SHAPE_FINGERPRINT>
10062212 137 18340773761637136515
10411042 1 18338797943458460018
10967382 1 18267019462264839592
11132069 177 18266463289901608904
11471102 20 18339928116883447463
11680986 33 18196649584089157154
11806522 49 18410015407648947023
13140716 1 17978790108246597568
13583140 156 14562808923250330867
13862211 1 18411422808740498154
14178342 30 18265061416755455384
14787075 74 17606411951316982712
14790565 3 18267561581564390284
15196674 1 18410854399645773072
15442244 35 18338515347626484882
15475509 35 14129878311942334925
15536298 74 18333731308193905072
16945 1 18339353055122244912
17357779 13 18270979985000277461
193761 8 17906730302432562474
19591789 44 18338514248231330286
200 152 18259993660773708071
20510252 161 18333731351201834584
20645477 70 18269845216228729983
20905425 154 18192429899317667950
21029758 11 18408326570631471321
21267235 1 18410564102484905298
21501502 16 18339076094129853456
21634736 98 18262525762510914471
221490 88 18052819152894269203
22721475 48 18411974771697772592
2334 1 18411416258440169880
23388829 49 18409729573354199413
23402539 116 18336273435033470838
23463225 33 18341328998040134704
23559900 14 18191022499460876406
238 59 17909872844272317431
2748010 2 18339079418598025404
2871803 45 18412269436803879567
335352 9 17979071918172767420
34934 24 18124319556186417769
350125 39 18411131441942486385
5104073 3 18410292553477848816
7364860 26 18263645074164758480
7832392 63 18192992849170777905
8809292 202 18200021975230081258
9709674 26 18410004451251100662

> <PUBCHEM_SHAPE_MULTIPOLES>
364.56
5.95
2.96
0.68
1.52
0.69
0.04
-1.96
0.73
-0.16
0.02
0.2
-0.07
-0.34

> <PUBCHEM_SHAPE_SELFOVERLAP>
844.132

> <PUBCHEM_SHAPE_VOLUME>
188.9

> <PUBCHEM_COORDINATE_TYPE>
2
5
10

$$$$

