445629
  -OEChem-07051213012D

 28 28  0     1  0  0  0  0  0999 V2000
    4.5691   -0.1706    0.0000 S   0  0  0  0  0  0  0  0  0  0  0  0
    2.0000    0.1384    0.0000 O   0  0  0  0  0  0  0  0  0  0  0  0
    4.8479   -1.9307    0.0000 O   0  0  0  0  0  0  0  0  0  0  0  0
    3.7601    0.4172    0.0000 C   0  0  2  0  0  0  0  0  0  0  0  0
    2.9511   -0.1706    0.0000 C   0  0  0  0  0  0  0  0  0  0  0  0
    3.1723    1.2262    0.0000 C   0  0  0  0  0  0  0  0  0  0  0  0
    3.2601   -1.1217    0.0000 C   0  0  0  0  0  0  0  0  0  0  0  0
    4.3479    1.2262    0.0000 C   0  0  0  0  0  0  0  0  0  0  0  0
    4.2601   -1.1217    0.0000 C   0  0  0  0  0  0  0  0  0  0  0  0
    5.3424    1.1217    0.0000 C   0  0  0  0  0  0  0  0  0  0  0  0
    2.6723   -1.9307    0.0000 C   0  0  0  0  0  0  0  0  0  0  0  0
    5.7491    0.2081    0.0000 C   0  0  0  0  0  0  0  0  0  0  0  0
    5.9302    1.9307    0.0000 C   0  0  0  0  0  0  0  0  0  0  0  0
    6.9247    1.8262    0.0000 C   0  0  0  0  0  0  0  0  0  0  0  0
    3.6739    1.5906    0.0000 H   0  0  0  0  0  0  0  0  0  0  0  0
    2.8079    1.7278    0.0000 H   0  0  0  0  0  0  0  0  0  0  0  0
    2.6707    0.8618    0.0000 H   0  0  0  0  0  0  0  0  0  0  0  0
    4.0957    1.7926    0.0000 H   0  0  0  0  0  0  0  0  0  0  0  0
    2.1707   -1.5663    0.0000 H   0  0  0  0  0  0  0  0  0  0  0  0
    2.3079   -2.4323    0.0000 H   0  0  0  0  0  0  0  0  0  0  0  0
    3.1739   -2.2951    0.0000 H   0  0  0  0  0  0  0  0  0  0  0  0
    5.1827   -0.0441    0.0000 H   0  0  0  0  0  0  0  0  0  0  0  0
    6.0013   -0.3583    0.0000 H   0  0  0  0  0  0  0  0  0  0  0  0
    6.3155    0.4603    0.0000 H   0  0  0  0  0  0  0  0  0  0  0  0
    5.6780    2.4971    0.0000 H   0  0  0  0  0  0  0  0  0  0  0  0
    5.4645   -1.8659    0.0000 H   0  0  0  0  0  0  0  0  0  0  0  0
    7.1769    1.2598    0.0000 H   0  0  0  0  0  0  0  0  0  0  0  0
    7.2891    2.3277    0.0000 H   0  0  0  0  0  0  0  0  0  0  0  0
  1  4  1  0  0  0  0
  1  9  1  0  0  0  0
  2  5  2  0  0  0  0
  3  9  1  0  0  0  0
  3 26  1  0  0  0  0
  4  5  1  0  0  0  0
  4  6  1  6  0  0  0
  4  8  1  0  0  0  0
  5  7  1  0  0  0  0
  6 15  1  0  0  0  0
  6 16  1  0  0  0  0
  6 17  1  0  0  0  0
  7  9  2  0  0  0  0
  7 11  1  0  0  0  0
  8 10  2  0  0  0  0
  8 18  1  0  0  0  0
 10 12  1  0  0  0  0
 10 13  1  0  0  0  0
 11 19  1  0  0  0  0
 11 20  1  0  0  0  0
 11 21  1  0  0  0  0
 12 22  1  0  0  0  0
 12 23  1  0  0  0  0
 12 24  1  0  0  0  0
 13 14  2  0  0  0  0
 13 25  1  0  0  0  0
 14 27  1  0  0  0  0
 14 28  1  0  0  0  0
M  END
> <PUBCHEM_COMPOUND_CID>
445629

> <PUBCHEM_COMPOUND_CANONICALIZED>
1

> <PUBCHEM_CACTVS_COMPLEXITY>
352

> <PUBCHEM_CACTVS_HBOND_ACCEPTOR>
3

> <PUBCHEM_CACTVS_HBOND_DONOR>
1

> <PUBCHEM_CACTVS_ROTATABLE_BOND>
2

> <PUBCHEM_CACTVS_SUBSKEYS>
AAADccBwMABAAAAAAAAAAAAAAAAAAQAAAAAAAAAAAAAAAAAAAAAAGgQACAAADASAwAACAAAAAgiIAqBSAAAAAAAgIBAICAEAAEgIAAIgAQAAAAAAgAAIgAIAAAAMAAAAAAAAAAAAAAAAAAAAAAAAAAAAAA==

> <PUBCHEM_IUPAC_OPENEYE_NAME>
(2R)-5-hydroxy-2,4-dimethyl-2-[(1E)-2-methylbuta-1,3-dienyl]thiophen-3-one

> <PUBCHEM_IUPAC_CAS_NAME>
(2R)-5-hydroxy-2,4-dimethyl-2-[(1E)-2-methylbuta-1,3-dienyl]-3-thiophenone

> <PUBCHEM_IUPAC_NAME>
(2R)-5-hydroxy-2,4-dimethyl-2-[(1E)-2-methylbuta-1,3-dienyl]thiophen-3-one

> <PUBCHEM_IUPAC_SYSTEMATIC_NAME>
(2R)-2,4-dimethyl-2-[(1E)-2-methylbuta-1,3-dienyl]-5-oxidanyl-thiophen-3-one

> <PUBCHEM_IUPAC_TRADITIONAL_NAME>
(2R)-5-hydroxy-2,4-dimethyl-2-[(1E)-2-methylbuta-1,3-dienyl]thiophen-3-one

> <PUBCHEM_IUPAC_INCHI>
InChI=1S/C11H14O2S/c1-5-7(2)6-11(4)9(12)8(3)10(13)14-11/h5-6,13H,1H2,2-4H3/b7-6+/t11-/m1/s1

> <PUBCHEM_IUPAC_INCHIKEY>
HGCGJTZCWZFGBT-XUIVZRPNSA-N

> <PUBCHEM_XLOGP3_AA>
3.1

> <PUBCHEM_EXACT_MASS>
210.071451

> <PUBCHEM_MOLECULAR_FORMULA>
C11H14O2S

> <PUBCHEM_MOLECULAR_WEIGHT>
210.29266

> <PUBCHEM_OPENEYE_CAN_SMILES>
CC1=C(SC(C1=O)(C)C=C(C)C=C)O

> <PUBCHEM_OPENEYE_ISO_SMILES>
CC1=C(S[C@](C1=O)(C)/C=C(\C)/C=C)O

> <PUBCHEM_CACTVS_TPSA>
62.6

> <PUBCHEM_MONOISOTOPIC_WEIGHT>
210.071451

> <PUBCHEM_TOTAL_CHARGE>
0

> <PUBCHEM_HEAVY_ATOM_COUNT>
14

> <PUBCHEM_ATOM_DEF_STEREO_COUNT>
1

> <PUBCHEM_ATOM_UDEF_STEREO_COUNT>
0

> <PUBCHEM_BOND_DEF_STEREO_COUNT>
1

> <PUBCHEM_BOND_UDEF_STEREO_COUNT>
0

> <PUBCHEM_ISOTOPIC_ATOM_COUNT>
0

> <PUBCHEM_COMPONENT_COUNT>
1

> <PUBCHEM_CACTVS_TAUTO_COUNT>
3

> <PUBCHEM_COORDINATE_TYPE>
1
5
255

> <PUBCHEM_BONDANNOTATIONS>
4  6  6

$$$$

