656512
  -OEChem-07051212532D

 41 42  0     1  0  0  0  0  0999 V2000
    4.2690    0.5000    0.0000 O   0  0  0  0  0  0  0  0  0  0  0  0
    4.2690   -2.5000    0.0000 O   0  0  0  0  0  0  0  0  0  0  0  0
    6.0010    0.5000    0.0000 O   0  0  0  0  0  0  0  0  0  0  0  0
    2.5369   -0.5000    0.0000 O   0  0  0  0  0  0  0  0  0  0  0  0
    6.0010   -0.5000    0.0000 O   0  0  0  0  0  0  0  0  0  0  0  0
    4.2690    2.5000    0.0000 O   0  0  0  0  0  0  0  0  0  0  0  0
    6.0010   -2.5000    0.0000 O   0  0  0  0  0  0  0  0  0  0  0  0
    6.0010    3.5000    0.0000 O   0  0  0  0  0  0  0  0  0  0  0  0
    7.7331    2.5000    0.0000 O   0  0  0  0  0  0  0  0  0  0  0  0
    2.5369   -3.5000    0.0000 O   0  0  0  0  0  0  0  0  0  0  0  0
    4.2690   -0.5000    0.0000 C   0  0  1  0  0  0  0  0  0  0  0  0
    3.4030   -1.0000    0.0000 C   0  0  2  0  0  0  0  0  0  0  0  0
    5.1350   -1.0000    0.0000 C   0  0  2  0  0  0  0  0  0  0  0  0
    3.4030   -2.0000    0.0000 C   0  0  1  0  0  0  0  0  0  0  0  0
    5.1350    1.0000    0.0000 C   0  0  1  0  0  0  0  0  0  0  0  0
    5.1350    2.0000    0.0000 C   0  0  1  0  0  0  0  0  0  0  0  0
    5.1350   -2.0000    0.0000 C   0  0  3  0  0  0  0  0  0  0  0  0
    6.0010    2.5000    0.0000 C   0  0  2  0  0  0  0  0  0  0  0  0
    6.8671    2.0000    0.0000 C   0  0  2  0  0  0  0  0  0  0  0  0
    6.8671    1.0000    0.0000 C   0  0  0  0  0  0  0  0  0  0  0  0
    2.5369   -2.5000    0.0000 C   0  0  0  0  0  0  0  0  0  0  0  0
    4.8059   -0.1900    0.0000 H   0  0  0  0  0  0  0  0  0  0  0  0
    3.4030   -0.3800    0.0000 H   0  0  0  0  0  0  0  0  0  0  0  0
    5.1350   -0.3800    0.0000 H   0  0  0  0  0  0  0  0  0  0  0  0
    3.4030   -2.6200    0.0000 H   0  0  0  0  0  0  0  0  0  0  0  0
    5.1350    0.3800    0.0000 H   0  0  0  0  0  0  0  0  0  0  0  0
    5.1350    2.6200    0.0000 H   0  0  0  0  0  0  0  0  0  0  0  0
    5.1350   -2.8500    0.0000 H   0  0  0  0  0  0  0  0  0  0  0  0
    6.5380    2.8100    0.0000 H   0  0  0  0  0  0  0  0  0  0  0  0
    7.4040    1.6900    0.0000 H   0  0  0  0  0  0  0  0  0  0  0  0
    7.0791    0.4174    0.0000 H   0  0  0  0  0  0  0  0  0  0  0  0
    7.4776    1.1077    0.0000 H   0  0  0  0  0  0  0  0  0  0  0  0
    2.3249   -1.9174    0.0000 H   0  0  0  0  0  0  0  0  0  0  0  0
    1.9264   -2.6077    0.0000 H   0  0  0  0  0  0  0  0  0  0  0  0
    2.0000   -0.8100    0.0000 H   0  0  0  0  0  0  0  0  0  0  0  0
    6.5380   -0.8100    0.0000 H   0  0  0  0  0  0  0  0  0  0  0  0
    4.2690    3.1200    0.0000 H   0  0  0  0  0  0  0  0  0  0  0  0
    6.5380    3.8100    0.0000 H   0  0  0  0  0  0  0  0  0  0  0  0
    6.0010   -3.1200    0.0000 H   0  0  0  0  0  0  0  0  0  0  0  0
    8.2700    2.1900    0.0000 H   0  0  0  0  0  0  0  0  0  0  0  0
    2.0000   -3.8100    0.0000 H   0  0  0  0  0  0  0  0  0  0  0  0
 11  1  1  6  0  0  0
 15  1  1  6  0  0  0
  2 14  1  0  0  0  0
  2 17  1  0  0  0  0
  3 15  1  0  0  0  0
  3 20  1  0  0  0  0
 12  4  1  6  0  0  0
  4 35  1  0  0  0  0
 13  5  1  1  0  0  0
  5 36  1  0  0  0  0
 16  6  1  6  0  0  0
  6 37  1  0  0  0  0
  7 17  1  0  0  0  0
  7 39  1  0  0  0  0
 18  8  1  1  0  0  0
  8 38  1  0  0  0  0
 19  9  1  1  0  0  0
  9 40  1  0  0  0  0
 10 21  1  0  0  0  0
 10 41  1  0  0  0  0
 11 12  1  0  0  0  0
 11 13  1  0  0  0  0
 11 22  1  0  0  0  0
 12 14  1  0  0  0  0
 12 23  1  0  0  0  0
 13 17  1  0  0  0  0
 13 24  1  0  0  0  0
 14 21  1  6  0  0  0
 14 25  1  0  0  0  0
 15 16  1  0  0  0  0
 15 26  1  0  0  0  0
 16 18  1  0  0  0  0
 16 27  1  0  0  0  0
 17 28  1  0  0  0  0
 18 19  1  0  0  0  0
 18 29  1  0  0  0  0
 19 20  1  0  0  0  0
 19 30  1  0  0  0  0
 20 31  1  0  0  0  0
 20 32  1  0  0  0  0
 21 33  1  0  0  0  0
 21 34  1  0  0  0  0
M  END
> <PUBCHEM_COMPOUND_CID>
656512

> <PUBCHEM_COMPOUND_CANONICALIZED>
1

> <PUBCHEM_CACTVS_COMPLEXITY>
341

> <PUBCHEM_CACTVS_HBOND_ACCEPTOR>
10

> <PUBCHEM_CACTVS_HBOND_DONOR>
7

> <PUBCHEM_CACTVS_ROTATABLE_BOND>
3

> <PUBCHEM_CACTVS_SUBSKEYS>
AAADceBwPAAAAAAAAAAAAAAAAAAAAAAAAAAkSAAAAAAAAAAAAAAAGgAACAAACBSwgAMACAAABgAAAAAAAAAAAAAAAAAAAAAAAAAREAIAAAAiQAAFAAAHAAHAYAwAAAAAAAAAAAAAAAAAAAAAAAAAAAAAAA==

> <PUBCHEM_IUPAC_OPENEYE_NAME>
(3R,4S,5S,6R)-6-(hydroxymethyl)-4-[(2R,3R,4S,5S)-3,4,5-trihydroxytetrahydropyran-2-yl]oxy-tetrahydropyran-2,3,5-triol

> <PUBCHEM_IUPAC_CAS_NAME>
(3R,4S,5S,6R)-6-(hydroxymethyl)-4-[[(2R,3R,4S,5S)-3,4,5-trihydroxy-2-oxanyl]oxy]oxane-2,3,5-triol

> <PUBCHEM_IUPAC_NAME>
(3R,4S,5S,6R)-6-(hydroxymethyl)-4-[(2R,3R,4S,5S)-3,4,5-trihydroxyoxan-2-yl]oxyoxane-2,3,5-triol

> <PUBCHEM_IUPAC_SYSTEMATIC_NAME>
(3R,4S,5S,6R)-6-(hydroxymethyl)-4-[(2R,3R,4S,5S)-3,4,5-tris(oxidanyl)oxan-2-yl]oxy-oxane-2,3,5-triol

> <PUBCHEM_IUPAC_TRADITIONAL_NAME>
(3R,4S,5S,6R)-6-methylol-4-[(2R,3R,4S,5S)-3,4,5-trihydroxytetrahydropyran-2-yl]oxy-tetrahydropyran-2,3,5-triol

> <PUBCHEM_IUPAC_INCHI>
InChI=1S/C11H20O10/c12-1-4-6(15)9(8(17)10(18)20-4)21-11-7(16)5(14)3(13)2-19-11/h3-18H,1-2H2/t3-,4+,5-,6-,7+,8+,9-,10?,11+/m0/s1

> <PUBCHEM_IUPAC_INCHIKEY>
CKIPPJHUIHDREQ-TUJAQXOJSA-N

> <PUBCHEM_XLOGP3_AA>
-4.1

> <PUBCHEM_EXACT_MASS>
312.105647

> <PUBCHEM_MOLECULAR_FORMULA>
C11H20O10

> <PUBCHEM_MOLECULAR_WEIGHT>
312.2705

> <PUBCHEM_OPENEYE_CAN_SMILES>
C1C(C(C(C(O1)OC2C(C(OC(C2O)O)CO)O)O)O)O

> <PUBCHEM_OPENEYE_ISO_SMILES>
C1[C@@H]([C@@H]([C@H]([C@H](O1)O[C@H]2[C@H]([C@H](OC([C@@H]2O)O)CO)O)O)O)O

> <PUBCHEM_CACTVS_TPSA>
169

> <PUBCHEM_MONOISOTOPIC_WEIGHT>
312.105647

> <PUBCHEM_TOTAL_CHARGE>
0

> <PUBCHEM_HEAVY_ATOM_COUNT>
21

> <PUBCHEM_ATOM_DEF_STEREO_COUNT>
8

> <PUBCHEM_ATOM_UDEF_STEREO_COUNT>
1

> <PUBCHEM_BOND_DEF_STEREO_COUNT>
0

> <PUBCHEM_BOND_UDEF_STEREO_COUNT>
0

> <PUBCHEM_ISOTOPIC_ATOM_COUNT>
0

> <PUBCHEM_COMPONENT_COUNT>
1

> <PUBCHEM_CACTVS_TAUTO_COUNT>
1

> <PUBCHEM_COORDINATE_TYPE>
1
5
255

> <PUBCHEM_BONDANNOTATIONS>
11  1  6
15  1  6
14  21  6
17  28  3
12  4  6
13  5  5
16  6  6
18  8  5
19  9  5

$$$$

