47205623
  -OEChem-06241222592D

 30 31  0     0  0  0  0  0  0999 V2000
    4.5411    5.0202    0.0000 F   0  0  0  0  0  0  0  0  0  0  0  0
    5.5411    4.0202    0.0000 F   0  0  0  0  0  0  0  0  0  0  0  0
    3.5411    4.0202    0.0000 F   0  0  0  0  0  0  0  0  0  0  0  0
    4.5411   -1.9798    0.0000 O   0  0  0  0  0  0  0  0  0  0  0  0
    2.8090   -1.9798    0.0000 N   0  0  0  0  0  0  0  0  0  0  0  0
    3.3090   -4.5186    0.0000 N   0  0  0  0  0  0  0  0  0  0  0  0
    2.3090   -4.5186    0.0000 N   0  0  0  0  0  0  0  0  0  0  0  0
    4.5411    1.0202    0.0000 C   0  0  0  0  0  0  0  0  0  0  0  0
    4.5411    3.0202    0.0000 C   0  0  0  0  0  0  0  0  0  0  0  0
    5.4071    1.5202    0.0000 C   0  0  0  0  0  0  0  0  0  0  0  0
    3.6750    1.5202    0.0000 C   0  0  0  0  0  0  0  0  0  0  0  0
    5.4071    2.5202    0.0000 C   0  0  0  0  0  0  0  0  0  0  0  0
    3.6750    2.5202    0.0000 C   0  0  0  0  0  0  0  0  0  0  0  0
    4.5411    0.0202    0.0000 C   0  0  0  0  0  0  0  0  0  0  0  0
    4.5411    4.0202    0.0000 C   0  0  0  0  0  0  0  0  0  0  0  0
    2.8090   -2.9798    0.0000 C   0  0  0  0  0  0  0  0  0  0  0  0
    3.6750   -0.4798    0.0000 C   0  0  0  0  0  0  0  0  0  0  0  0
    3.6750   -1.4798    0.0000 C   0  0  0  0  0  0  0  0  0  0  0  0
    3.6180   -3.5676    0.0000 C   0  0  0  0  0  0  0  0  0  0  0  0
    2.0000   -3.5676    0.0000 C   0  0  0  0  0  0  0  0  0  0  0  0
    5.9440    1.2102    0.0000 H   0  0  0  0  0  0  0  0  0  0  0  0
    3.1381    1.2102    0.0000 H   0  0  0  0  0  0  0  0  0  0  0  0
    5.9440    2.8302    0.0000 H   0  0  0  0  0  0  0  0  0  0  0  0
    3.1381    2.8302    0.0000 H   0  0  0  0  0  0  0  0  0  0  0  0
    5.0780   -0.2898    0.0000 H   0  0  0  0  0  0  0  0  0  0  0  0
    3.1381   -0.1698    0.0000 H   0  0  0  0  0  0  0  0  0  0  0  0
    2.2721   -1.6698    0.0000 H   0  0  0  0  0  0  0  0  0  0  0  0
    4.2077   -3.3760    0.0000 H   0  0  0  0  0  0  0  0  0  0  0  0
    1.4103   -3.3760    0.0000 H   0  0  0  0  0  0  0  0  0  0  0  0
    3.6734   -5.0202    0.0000 H   0  0  0  0  0  0  0  0  0  0  0  0
  1 15  1  0  0  0  0
  2 15  1  0  0  0  0
  3 15  1  0  0  0  0
  4 18  2  0  0  0  0
  5 16  1  0  0  0  0
  5 18  1  0  0  0  0
  5 27  1  0  0  0  0
  6  7  1  0  0  0  0
  6 19  1  0  0  0  0
  6 30  1  0  0  0  0
  7 20  2  0  0  0  0
  8 10  2  0  0  0  0
  8 11  1  0  0  0  0
  8 14  1  0  0  0  0
  9 12  2  0  0  0  0
  9 13  1  0  0  0  0
  9 15  1  0  0  0  0
 10 12  1  0  0  0  0
 10 21  1  0  0  0  0
 11 13  2  0  0  0  0
 11 22  1  0  0  0  0
 12 23  1  0  0  0  0
 13 24  1  0  0  0  0
 14 17  2  3  0  0  0
 14 25  1  0  0  0  0
 16 19  2  0  0  0  0
 16 20  1  0  0  0  0
 17 18  1  0  0  0  0
 17 26  1  0  0  0  0
 19 28  1  0  0  0  0
 20 29  1  0  0  0  0
M  END
> <PUBCHEM_COMPOUND_CID>
47205623

> <PUBCHEM_COMPOUND_CANONICALIZED>
1

> <PUBCHEM_CACTVS_COMPLEXITY>
362

> <PUBCHEM_CACTVS_HBOND_ACCEPTOR>
5

> <PUBCHEM_CACTVS_HBOND_DONOR>
2

> <PUBCHEM_CACTVS_ROTATABLE_BOND>
3

> <PUBCHEM_CACTVS_SUBSKEYS>
AAADccBzIYAAAAAAAAAAAAAAAAAAAWAAAAAwAAAAAAAAAAABwAAAHwAYAAAADAjBmhQ8wJLjAACqAjV3UACSBAAhkgAYuaAgdNgIYKKAUVCQpAAgnACIiYcAgAAOQAAAAAAAAACAAAAAAAAAAAAAAAAAAA==

> <PUBCHEM_IUPAC_OPENEYE_NAME>
N-(1H-pyrazol-4-yl)-3-[4-(trifluoromethyl)phenyl]prop-2-enamide

> <PUBCHEM_IUPAC_CAS_NAME>
N-(1H-pyrazol-4-yl)-3-[4-(trifluoromethyl)phenyl]-2-propenamide

> <PUBCHEM_IUPAC_NAME>
N-(1H-pyrazol-4-yl)-3-[4-(trifluoromethyl)phenyl]prop-2-enamide

> <PUBCHEM_IUPAC_SYSTEMATIC_NAME>
N-(1H-pyrazol-4-yl)-3-[4-(trifluoromethyl)phenyl]prop-2-enamide

> <PUBCHEM_IUPAC_TRADITIONAL_NAME>
N-(1H-pyrazol-4-yl)-3-[4-(trifluoromethyl)phenyl]acrylamide

> <PUBCHEM_IUPAC_INCHI>
InChI=1S/C13H10F3N3O/c14-13(15,16)10-4-1-9(2-5-10)3-6-12(20)19-11-7-17-18-8-11/h1-8H,(H,17,18)(H,19,20)

> <PUBCHEM_IUPAC_INCHIKEY>
BVNCLOCYCNEOGZ-UHFFFAOYSA-N

> <PUBCHEM_XLOGP3>
2.6

> <PUBCHEM_EXACT_MASS>
281.077597

> <PUBCHEM_MOLECULAR_FORMULA>
C13H10F3N3O

> <PUBCHEM_MOLECULAR_WEIGHT>
281.23321

> <PUBCHEM_OPENEYE_CAN_SMILES>
C1=CC(=CC=C1C=CC(=O)NC2=CNN=C2)C(F)(F)F

> <PUBCHEM_OPENEYE_ISO_SMILES>
C1=CC(=CC=C1C=CC(=O)NC2=CNN=C2)C(F)(F)F

> <PUBCHEM_CACTVS_TPSA>
57.8

> <PUBCHEM_MONOISOTOPIC_WEIGHT>
281.077597

> <PUBCHEM_TOTAL_CHARGE>
0

> <PUBCHEM_HEAVY_ATOM_COUNT>
20

> <PUBCHEM_ATOM_DEF_STEREO_COUNT>
0

> <PUBCHEM_ATOM_UDEF_STEREO_COUNT>
0

> <PUBCHEM_BOND_DEF_STEREO_COUNT>
0

> <PUBCHEM_BOND_UDEF_STEREO_COUNT>
1

> <PUBCHEM_ISOTOPIC_ATOM_COUNT>
0

> <PUBCHEM_COMPONENT_COUNT>
1

> <PUBCHEM_CACTVS_TAUTO_COUNT>
4

> <PUBCHEM_COORDINATE_TYPE>
1
5
255

> <PUBCHEM_BONDANNOTATIONS>
10  12  8
11  13  8
14  17  1
16  19  8
16  20  8
6  19  8
6  7  8
7  20  8
8  10  8
8  11  8
9  12  8
9  13  8

$$$$

