656880
  -OEChem-07051213043D

 26 27  0     1  0  0  0  0  0999 V2000
    0.8402   -0.7267   -0.6448 O   0  0  0  0  0  0  0  0  0  0  0  0
    2.8575   -0.1086   -1.6671 O   0  0  0  0  0  0  0  0  0  0  0  0
    2.2256   -0.7877    1.7455 O   0  0  0  0  0  0  0  0  0  0  0  0
   -4.3327   -1.6505    0.7131 O   0  0  0  0  0  0  0  0  0  0  0  0
    3.8931   -1.4238    0.3273 O   0  0  0  0  0  0  0  0  0  0  0  0
    2.0820   -0.0393   -0.4767 C   0  0  1  0  0  0  0  0  0  0  0  0
   -0.3645    1.2449    0.1274 C   0  0  0  0  0  0  0  0  0  0  0  0
   -0.3211   -0.0677   -0.3501 C   0  0  0  0  0  0  0  0  0  0  0  0
    2.0228    1.3685    0.0380 C   0  0  0  0  0  0  0  0  0  0  0  0
    0.8727    1.9811    0.3284 C   0  0  0  0  0  0  0  0  0  0  0  0
   -1.5054   -0.7825   -0.5472 C   0  0  0  0  0  0  0  0  0  0  0  0
   -2.7353   -0.1877   -0.2691 C   0  0  0  0  0  0  0  0  0  0  0  0
   -1.6022    1.8368    0.4055 C   0  0  0  0  0  0  0  0  0  0  0  0
   -2.7838    1.1209    0.2072 C   0  0  0  0  0  0  0  0  0  0  0  0
    2.8494   -0.8257    0.5426 C   0  0  0  0  0  0  0  0  0  0  0  0
   -3.9983   -0.9522   -0.4801 C   0  0  0  0  0  0  0  0  0  0  0  0
    2.9558    1.9099    0.1745 H   0  0  0  0  0  0  0  0  0  0  0  0
    0.8474    2.9991    0.6980 H   0  0  0  0  0  0  0  0  0  0  0  0
   -1.4633   -1.8047   -0.9164 H   0  0  0  0  0  0  0  0  0  0  0  0
   -1.6599    2.8568    0.7780 H   0  0  0  0  0  0  0  0  0  0  0  0
   -3.7361    1.5953    0.4298 H   0  0  0  0  0  0  0  0  0  0  0  0
   -4.8295   -0.2878   -0.7393 H   0  0  0  0  0  0  0  0  0  0  0  0
   -3.8973   -1.6767   -1.2953 H   0  0  0  0  0  0  0  0  0  0  0  0
    3.1274   -1.0331   -1.8009 H   0  0  0  0  0  0  0  0  0  0  0  0
    2.7125   -1.2980    2.4272 H   0  0  0  0  0  0  0  0  0  0  0  0
   -3.5442   -2.1324    1.0158 H   0  0  0  0  0  0  0  0  0  0  0  0
  1  6  1  0  0  0  0
  1  8  1  0  0  0  0
  2  6  1  0  0  0  0
  2 24  1  0  0  0  0
  3 15  1  0  0  0  0
  3 25  1  0  0  0  0
  4 16  1  0  0  0  0
  4 26  1  0  0  0  0
  5 15  2  0  0  0  0
  6  9  1  0  0  0  0
  6 15  1  0  0  0  0
  7  8  2  0  0  0  0
  7 10  1  0  0  0  0
  7 13  1  0  0  0  0
  8 11  1  0  0  0  0
  9 10  2  0  0  0  0
  9 17  1  0  0  0  0
 10 18  1  0  0  0  0
 11 12  2  0  0  0  0
 11 19  1  0  0  0  0
 12 14  1  0  0  0  0
 12 16  1  0  0  0  0
 13 14  2  0  0  0  0
 13 20  1  0  0  0  0
 14 21  1  0  0  0  0
 16 22  1  0  0  0  0
 16 23  1  0  0  0  0
M  END
> <PUBCHEM_COMPOUND_CID>
656880

> <PUBCHEM_CONFORMER_RMSD>
0.6

> <PUBCHEM_CONFORMER_DIVERSEORDER>
1
3
2
4

> <PUBCHEM_MMFF94_PARTIAL_CHARGES>
24
1 -0.36
10 -0.18
11 -0.15
12 -0.14
13 -0.15
14 -0.15
15 0.66
16 0.42
17 0.15
18 0.15
19 0.15
2 -0.68
20 0.15
21 0.15
24 0.4
25 0.5
26 0.4
3 -0.65
4 -0.68
5 -0.57
6 0.76
7 0.03
8 0.08
9 -0.29

> <PUBCHEM_EFFECTIVE_ROTOR_COUNT>
2.4

> <PUBCHEM_PHARMACOPHORE_FEATURES>
10
1 1 acceptor
1 2 acceptor
1 2 donor
1 3 acceptor
1 4 acceptor
1 4 donor
1 5 acceptor
3 3 5 15 anion
6 1 6 7 8 9 10 rings
6 7 8 11 12 13 14 rings

> <PUBCHEM_HEAVY_ATOM_COUNT>
16

> <PUBCHEM_ATOM_DEF_STEREO_COUNT>
0

> <PUBCHEM_ATOM_UDEF_STEREO_COUNT>
1

> <PUBCHEM_BOND_DEF_STEREO_COUNT>
0

> <PUBCHEM_BOND_UDEF_STEREO_COUNT>
0

> <PUBCHEM_ISOTOPIC_ATOM_COUNT>
0

> <PUBCHEM_COMPONENT_COUNT>
1

> <PUBCHEM_CACTVS_TAUTO_COUNT>
1

> <PUBCHEM_CONFORMER_ID>
000A05F000000001

> <PUBCHEM_MMFF94_ENERGY>
39.6084

> <PUBCHEM_FEATURE_SELFOVERLAP>
50.888

> <PUBCHEM_SHAPE_FINGERPRINT>
10618630 7 18334577915088788229
11132069 177 17530967977708761127
11543360 7 16486970644684905727
11578080 2 17844555321017111844
11769659 78 18413393124718123061
12032990 46 18334851697815891175
12932764 1 18130502019864831909
13140716 1 18333730247474659585
13296908 3 18410296882878865157
13538477 17 18269272528983237316
13705890 14 17275387573215273019
13760787 19 17988917907650665637
14115302 16 17846776286822273678
14144814 61 18408603669073261693
14178342 30 18042682999604048433
14252887 29 18113613461190347718
14289901 80 14057011464361351255
15375462 189 18200871884891388233
16752209 62 18338247054247297063
16945 1 18189893300048686885
17804303 29 18040718116669959620
18186145 218 17703799119462140687
19422 9 18272082824879502132
200 152 16988562437332544170
20559304 39 18408605846695475388
20645477 70 18337118856606927823
20715346 28 17313107500601004380
20871998 22 18113891697624522046
21501502 16 18408599253963432625
21501925 9 18334586723744952377
2255824 54 18271239413735998356
22646028 28 18412830204544766211
232386 152 18410014377014947652
23402655 69 11455625244787934147
23463225 33 18408324371682133813
23559900 14 18411987952867955996
2748010 2 18260838093909308773
465052 167 18337382730945224975
5104073 3 18334857220906672081
5902787 121 18409733962673697449
7364860 26 17969224434690425608
77492 1 18059283392000977484

> <PUBCHEM_SHAPE_MULTIPOLES>
299.93
6.59
1.85
1.03
2.59
0.64
-0.05
-3.64
-0.57
0.32
-0.3
-0.64
-0.25
-0.2

> <PUBCHEM_SHAPE_SELFOVERLAP>
652.558

> <PUBCHEM_SHAPE_VOLUME>
162.4

> <PUBCHEM_COORDINATE_TYPE>
2
5
10

$$$$

