5392245
  -OEChem-07051212592D

 52 57  0     1  0  0  0  0  0999 V2000
    5.7290   -1.8298    0.0000 N   0  0  3  0  0  0  0  0  0  0  0  0
    5.1102    1.6904    0.0000 N   0  0  3  0  0  0  0  0  0  0  0  0
    5.5480   -1.3698    0.0000 N   0  0  0  0  0  0  0  0  0  0  0  0
    4.6660    2.1995    0.0000 N   0  0  0  0  0  0  0  0  0  0  0  0
    5.5321    0.6995    0.0000 C   0  0  2  0  0  0  0  0  0  0  0  0
    4.6660    0.1995    0.0000 C   0  0  2  0  0  0  0  0  0  0  0  0
    4.6500   -0.8420    0.0000 C   0  0  1  0  0  0  0  0  0  0  0  0
    5.5321    1.6995    0.0000 C   0  0  1  0  0  0  0  0  0  0  0  0
    6.9304    0.2697    0.0000 C   0  0  0  0  0  0  0  0  0  0  0  0
    4.4629    0.5694    0.0000 C   0  0  0  0  0  0  0  0  0  0  0  0
    6.4421    0.1927    0.0000 C   0  0  0  0  0  0  0  0  0  0  0  0
    3.8000    0.6995    0.0000 C   0  0  0  0  0  0  0  0  0  0  0  0
    7.0440   -1.1888    0.0000 C   0  0  0  0  0  0  0  0  0  0  0  0
    4.3793    1.3651    0.0000 C   0  0  0  0  0  0  0  0  0  0  0  0
    6.4501   -0.8489    0.0000 C   0  0  0  0  0  0  0  0  0  0  0  0
    3.8000    1.6995    0.0000 C   0  0  0  0  0  0  0  0  0  0  0  0
    7.3689    0.7567    0.0000 C   0  0  0  0  0  0  0  0  0  0  0  0
    2.9061    0.1649    0.0000 C   0  0  0  0  0  0  0  0  0  0  0  0
    5.5856   -2.8195    0.0000 C   0  0  0  0  0  0  0  0  0  0  0  0
    5.3181    2.6686    0.0000 C   0  0  0  0  0  0  0  0  0  0  0  0
    7.3855   -1.3987    0.0000 C   0  0  0  0  0  0  0  0  0  0  0  0
    2.9061    2.2342    0.0000 C   0  0  0  0  0  0  0  0  0  0  0  0
    8.3168    0.2288    0.0000 C   0  0  0  0  0  0  0  0  0  0  0  0
    2.0000    0.6787    0.0000 C   0  0  0  0  0  0  0  0  0  0  0  0
    8.3252   -0.8562    0.0000 C   0  0  0  0  0  0  0  0  0  0  0  0
    2.0000    1.7203    0.0000 C   0  0  0  0  0  0  0  0  0  0  0  0
    3.9090   -1.2584    0.0000 H   0  0  0  0  0  0  0  0  0  0  0  0
    5.9571    2.4356    0.0000 H   0  0  0  0  0  0  0  0  0  0  0  0
    7.5497    0.2402    0.0000 H   0  0  0  0  0  0  0  0  0  0  0  0
    7.0371    0.8805    0.0000 H   0  0  0  0  0  0  0  0  0  0  0  0
    3.8682    0.7446    0.0000 H   0  0  0  0  0  0  0  0  0  0  0  0
    5.0546    0.7547    0.0000 H   0  0  0  0  0  0  0  0  0  0  0  0
    7.2439   -1.7757    0.0000 H   0  0  0  0  0  0  0  0  0  0  0  0
    7.6513   -1.0638    0.0000 H   0  0  0  0  0  0  0  0  0  0  0  0
    4.1877    1.9547    0.0000 H   0  0  0  0  0  0  0  0  0  0  0  0
    3.7729    1.2361    0.0000 H   0  0  0  0  0  0  0  0  0  0  0  0
    5.0099   -1.6778    0.0000 H   0  0  0  0  0  0  0  0  0  0  0  0
    4.6660    2.8195    0.0000 H   0  0  0  0  0  0  0  0  0  0  0  0
    7.3570    1.3766    0.0000 H   0  0  0  0  0  0  0  0  0  0  0  0
    2.9132   -0.4551    0.0000 H   0  0  0  0  0  0  0  0  0  0  0  0
    4.9720   -2.7306    0.0000 H   0  0  0  0  0  0  0  0  0  0  0  0
    5.4968   -3.4331    0.0000 H   0  0  0  0  0  0  0  0  0  0  0  0
    6.1992   -2.9084    0.0000 H   0  0  0  0  0  0  0  0  0  0  0  0
    5.9245    2.5397    0.0000 H   0  0  0  0  0  0  0  0  0  0  0  0
    5.4470    3.2750    0.0000 H   0  0  0  0  0  0  0  0  0  0  0  0
    4.7116    2.7975    0.0000 H   0  0  0  0  0  0  0  0  0  0  0  0
    7.3831   -2.0186    0.0000 H   0  0  0  0  0  0  0  0  0  0  0  0
    2.9132    2.8541    0.0000 H   0  0  0  0  0  0  0  0  0  0  0  0
    8.8501    0.5450    0.0000 H   0  0  0  0  0  0  0  0  0  0  0  0
    1.4643    0.3666    0.0000 H   0  0  0  0  0  0  0  0  0  0  0  0
    8.8633   -1.1641    0.0000 H   0  0  0  0  0  0  0  0  0  0  0  0
    1.4643    2.0324    0.0000 H   0  0  0  0  0  0  0  0  0  0  0  0
  1  7  1  0  0  0  0
  1 13  1  0  0  0  0
  1 19  1  0  0  0  0
  2  8  1  0  0  0  0
  2 14  1  0  0  0  0
  2 20  1  0  0  0  0
  3  7  1  0  0  0  0
  3 15  1  0  0  0  0
  3 37  1  0  0  0  0
  4  8  1  0  0  0  0
  4 16  1  0  0  0  0
  4 38  1  0  0  0  0
  5  6  1  0  0  0  0
  5  8  1  0  0  0  0
  5  9  1  6  0  0  0
  5 11  1  0  0  0  0
  6  7  1  0  0  0  0
  6 10  1  6  0  0  0
  6 12  1  0  0  0  0
  7 27  1  1  0  0  0
  8 28  1  6  0  0  0
  9 13  1  0  0  0  0
  9 29  1  0  0  0  0
  9 30  1  0  0  0  0
 10 14  1  0  0  0  0
 10 31  1  0  0  0  0
 10 32  1  0  0  0  0
 11 15  1  0  0  0  0
 11 17  2  0  0  0  0
 12 16  1  0  0  0  0
 12 18  2  0  0  0  0
 13 33  1  0  0  0  0
 13 34  1  0  0  0  0
 14 35  1  0  0  0  0
 14 36  1  0  0  0  0
 15 21  2  0  0  0  0
 16 22  2  0  0  0  0
 17 23  1  0  0  0  0
 17 39  1  0  0  0  0
 18 24  1  0  0  0  0
 18 40  1  0  0  0  0
 19 41  1  0  0  0  0
 19 42  1  0  0  0  0
 19 43  1  0  0  0  0
 20 44  1  0  0  0  0
 20 45  1  0  0  0  0
 20 46  1  0  0  0  0
 21 25  1  0  0  0  0
 21 47  1  0  0  0  0
 22 26  1  0  0  0  0
 22 48  1  0  0  0  0
 23 25  2  0  0  0  0
 23 49  1  0  0  0  0
 24 26  2  0  0  0  0
 24 50  1  0  0  0  0
 25 51  1  0  0  0  0
 26 52  1  0  0  0  0
M  END
> <PUBCHEM_COMPOUND_CID>
5392245

> <PUBCHEM_COMPOUND_CANONICALIZED>
1

> <PUBCHEM_CACTVS_COMPLEXITY>
531

> <PUBCHEM_CACTVS_HBOND_ACCEPTOR>
4

> <PUBCHEM_CACTVS_HBOND_DONOR>
2

> <PUBCHEM_CACTVS_ROTATABLE_BOND>
0

> <PUBCHEM_CACTVS_SUBSKEYS>
AAADceB7gAAAAAAAAAAAAAAAAAAAAAAAAAA8eLFiAAAWLACxQAAAHAAQAAAADgjBGAQzwIPAAACAAiRCQACCAAAhAgAIiIAIZIiIICLAkZGEIAhokALIyCcQgMAPgAAAAAACAAAAAAAAAAQAAAAAAAAAAA==

> <PUBCHEM_IUPAC_INCHI>
InChI=1S/C22H26N4/c1-25-13-11-22-16-8-4-5-9-17(16)23-19(25)21(22)12-14-26(2)20(22)24-18-10-6-3-7-15(18)21/h3-10,19-20,23-24H,11-14H2,1-2H3/t19-,20-,21-,22-/m1/s1

> <PUBCHEM_IUPAC_INCHIKEY>
XSYCDVWYEVUDKQ-GXRSIYKFSA-N

> <PUBCHEM_XLOGP3_AA>
3.9

> <PUBCHEM_EXACT_MASS>
346.215747

> <PUBCHEM_MOLECULAR_FORMULA>
C22H26N4

> <PUBCHEM_MOLECULAR_WEIGHT>
346.46864

> <PUBCHEM_OPENEYE_CAN_SMILES>
CN1CCC23C4NC5=CC=CC=C5C2(C1NC6=CC=CC=C36)CCN4C

> <PUBCHEM_OPENEYE_ISO_SMILES>
CN1CC[C@@]23[C@@H]4NC5=CC=CC=C5[C@@]2([C@@H]1NC6=CC=CC=C36)CCN4C

> <PUBCHEM_CACTVS_TPSA>
30.5

> <PUBCHEM_MONOISOTOPIC_WEIGHT>
346.215747

> <PUBCHEM_TOTAL_CHARGE>
0

> <PUBCHEM_HEAVY_ATOM_COUNT>
26

> <PUBCHEM_ATOM_DEF_STEREO_COUNT>
4

> <PUBCHEM_ATOM_UDEF_STEREO_COUNT>
0

> <PUBCHEM_BOND_DEF_STEREO_COUNT>
0

> <PUBCHEM_BOND_UDEF_STEREO_COUNT>
0

> <PUBCHEM_ISOTOPIC_ATOM_COUNT>
0

> <PUBCHEM_COMPONENT_COUNT>
1

> <PUBCHEM_CACTVS_TAUTO_COUNT>
1

> <PUBCHEM_COORDINATE_TYPE>
1
5
255

> <PUBCHEM_BONDANNOTATIONS>
11  15  8
11  17  8
12  16  8
12  18  8
15  21  8
16  22  8
17  23  8
18  24  8
21  25  8
22  26  8
23  25  8
24  26  8
5  9  6
6  10  6
7  27  5
8  28  6

$$$$

