441988
  -OEChem-07051212562D

 53 58  0     1  0  0  0  0  0999 V2000
    7.8436    0.0304    0.0000 O   0  0  0  0  0  0  0  0  0  0  0  0
    6.9776   -1.4696    0.0000 O   0  0  0  0  0  0  0  0  0  0  0  0
    5.3935   -3.1362    0.0000 O   0  0  0  0  0  0  0  0  0  0  0  0
    3.7124    1.7674    0.0000 N   0  0  3  0  0  0  0  0  0  0  0  0
    5.0363   -1.4414    0.0000 N   0  0  0  0  0  0  0  0  0  0  0  0
    4.3795    0.0304    0.0000 C   0  0  2  0  0  0  0  0  0  0  0  0
    5.2455   -0.4696    0.0000 C   0  0  1  0  0  0  0  0  0  0  0  0
    4.3795    1.0304    0.0000 C   0  0  2  0  0  0  0  0  0  0  0  0
    5.2455    1.5304    0.0000 C   0  0  1  0  0  0  0  0  0  0  0  0
    6.1115    0.0304    0.0000 C   0  0  1  0  0  0  0  0  0  0  0  0
    6.1115    1.0304    0.0000 C   0  0  0  0  0  0  0  0  0  0  0  0
    4.8455    0.1304    0.0000 C   0  0  0  0  0  0  0  0  0  0  0  0
    4.8455    0.9304    0.0000 C   0  0  0  0  0  0  0  0  0  0  0  0
    3.4077    0.2396    0.0000 C   0  0  0  0  0  0  0  0  0  0  0  0
    5.4666    2.4969    0.0000 C   0  0  0  0  0  0  0  0  0  0  0  0
    3.6425   -0.6367    0.0000 C   0  0  0  0  0  0  0  0  0  0  0  0
    3.0546    1.2953    0.0000 C   0  0  0  0  0  0  0  0  0  0  0  0
    3.7934    2.7556    0.0000 C   0  0  0  0  0  0  0  0  0  0  0  0
    4.7089    3.1362    0.0000 C   0  0  0  0  0  0  0  0  0  0  0  0
    4.0476   -1.5445    0.0000 C   0  0  0  0  0  0  0  0  0  0  0  0
    6.9776   -0.4696    0.0000 C   0  0  0  0  0  0  0  0  0  0  0  0
    2.6144   -0.5135    0.0000 C   0  0  0  0  0  0  0  0  0  0  0  0
    5.7041   -2.1857    0.0000 C   0  0  0  0  0  0  0  0  0  0  0  0
    3.4527   -2.3920    0.0000 C   0  0  0  0  0  0  0  0  0  0  0  0
    2.0000   -1.3470    0.0000 C   0  0  0  0  0  0  0  0  0  0  0  0
    2.4220   -2.2926    0.0000 C   0  0  0  0  0  0  0  0  0  0  0  0
    8.7096   -0.4696    0.0000 C   0  0  0  0  0  0  0  0  0  0  0  0
    3.6434    0.6054    0.0000 H   0  0  0  0  0  0  0  0  0  0  0  0
    6.1115   -0.5896    0.0000 H   0  0  0  0  0  0  0  0  0  0  0  0
    6.7221    0.9228    0.0000 H   0  0  0  0  0  0  0  0  0  0  0  0
    6.3236    1.6130    0.0000 H   0  0  0  0  0  0  0  0  0  0  0  0
    4.2585    0.3299    0.0000 H   0  0  0  0  0  0  0  0  0  0  0  0
    5.4389    0.3101    0.0000 H   0  0  0  0  0  0  0  0  0  0  0  0
    4.4677    1.4220    0.0000 H   0  0  0  0  0  0  0  0  0  0  0  0
    5.4389    0.7507    0.0000 H   0  0  0  0  0  0  0  0  0  0  0  0
    2.7941    0.1504    0.0000 H   0  0  0  0  0  0  0  0  0  0  0  0
    3.3867   -0.3800    0.0000 H   0  0  0  0  0  0  0  0  0  0  0  0
    6.0416    2.2648    0.0000 H   0  0  0  0  0  0  0  0  0  0  0  0
    5.7866    3.0280    0.0000 H   0  0  0  0  0  0  0  0  0  0  0  0
    2.7451    1.8326    0.0000 H   0  0  0  0  0  0  0  0  0  0  0  0
    2.4892    1.0410    0.0000 H   0  0  0  0  0  0  0  0  0  0  0  0
    3.6488    3.3585    0.0000 H   0  0  0  0  0  0  0  0  0  0  0  0
    3.1752    2.7080    0.0000 H   0  0  0  0  0  0  0  0  0  0  0  0
    5.1785    3.5410    0.0000 H   0  0  0  0  0  0  0  0  0  0  0  0
    4.3834    3.6639    0.0000 H   0  0  0  0  0  0  0  0  0  0  0  0
    2.3683    0.0556    0.0000 H   0  0  0  0  0  0  0  0  0  0  0  0
    6.3108   -2.0578    0.0000 H   0  0  0  0  0  0  0  0  0  0  0  0
    3.7119   -2.9552    0.0000 H   0  0  0  0  0  0  0  0  0  0  0  0
    1.3836   -1.2803    0.0000 H   0  0  0  0  0  0  0  0  0  0  0  0
    2.0599   -2.7959    0.0000 H   0  0  0  0  0  0  0  0  0  0  0  0
    8.3996   -1.0065    0.0000 H   0  0  0  0  0  0  0  0  0  0  0  0
    9.2465   -0.7796    0.0000 H   0  0  0  0  0  0  0  0  0  0  0  0
    9.0196    0.0673    0.0000 H   0  0  0  0  0  0  0  0  0  0  0  0
  1 21  1  0  0  0  0
  1 27  1  0  0  0  0
  2 21  2  0  0  0  0
  3 23  2  0  0  0  0
  4  8  1  0  0  0  0
  4 17  1  0  0  0  0
  4 18  1  0  0  0  0
  7  5  1  6  0  0  0
  5 20  1  0  0  0  0
  5 23  1  0  0  0  0
  6  7  1  0  0  0  0
  6  8  1  0  0  0  0
  6 14  1  1  0  0  0
  6 16  1  0  0  0  0
  7 10  1  0  0  0  0
  7 12  1  0  0  0  0
  8  9  1  0  0  0  0
  8 28  1  6  0  0  0
  9 11  1  0  0  0  0
  9 13  1  0  0  0  0
  9 15  1  6  0  0  0
 10 11  1  0  0  0  0
 10 21  1  1  0  0  0
 10 29  1  0  0  0  0
 11 30  1  0  0  0  0
 11 31  1  0  0  0  0
 12 13  1  0  0  0  0
 12 32  1  0  0  0  0
 12 33  1  0  0  0  0
 13 34  1  0  0  0  0
 13 35  1  0  0  0  0
 14 17  1  0  0  0  0
 14 36  1  0  0  0  0
 14 37  1  0  0  0  0
 15 19  1  0  0  0  0
 15 38  1  0  0  0  0
 15 39  1  0  0  0  0
 16 20  1  0  0  0  0
 16 22  2  0  0  0  0
 17 40  1  0  0  0  0
 17 41  1  0  0  0  0
 18 19  1  0  0  0  0
 18 42  1  0  0  0  0
 18 43  1  0  0  0  0
 19 44  1  0  0  0  0
 19 45  1  0  0  0  0
 20 24  2  0  0  0  0
 22 25  1  0  0  0  0
 22 46  1  0  0  0  0
 23 47  1  0  0  0  0
 24 26  1  0  0  0  0
 24 48  1  0  0  0  0
 25 26  2  0  0  0  0
 25 49  1  0  0  0  0
 26 50  1  0  0  0  0
 27 51  1  0  0  0  0
 27 52  1  0  0  0  0
 27 53  1  0  0  0  0
M  END
> <PUBCHEM_COMPOUND_CID>
441988

> <PUBCHEM_COMPOUND_CANONICALIZED>
1

> <PUBCHEM_CACTVS_COMPLEXITY>
697

> <PUBCHEM_CACTVS_HBOND_ACCEPTOR>
4

> <PUBCHEM_CACTVS_HBOND_DONOR>
0

> <PUBCHEM_CACTVS_ROTATABLE_BOND>
2

> <PUBCHEM_CACTVS_SUBSKEYS>
AAADceB7MAAAAAAAAAAAAAAAAAAAAWLAAAA8YMGCAAAAAFixAAAAHgAAAAAAD6jBmAYyyIMABACIAiTS2ACCAAAhAgAIiAEIZIgIIDrA0ZGEIAhmhADIyAeY2fOfgAAAAAACAACQAASACCQAAAAAAAAAAA==

> <PUBCHEM_IUPAC_INCHI>
InChI=1S/C22H26N2O3/c1-27-18(26)16-13-20-7-4-11-23-12-10-21(19(20)23)15-5-2-3-6-17(15)24(14-25)22(16,21)9-8-20/h2-3,5-6,14,16,19H,4,7-13H2,1H3/t16-,19-,20+,21+,22+/m0/s1

> <PUBCHEM_IUPAC_INCHIKEY>
XGYZDZNXCXHGBV-WVCANSMHSA-N

> <PUBCHEM_XLOGP3_AA>
2.3

> <PUBCHEM_EXACT_MASS>
366.194343

> <PUBCHEM_MOLECULAR_FORMULA>
C22H26N2O3

> <PUBCHEM_MOLECULAR_WEIGHT>
366.45344

> <PUBCHEM_OPENEYE_CAN_SMILES>
COC(=O)C1CC23CCCN4C2C5(C1(CC3)N(C6=CC=CC=C65)C=O)CC4

> <PUBCHEM_OPENEYE_ISO_SMILES>
COC(=O)[C@@H]1C[C@]23CCCN4[C@@H]2[C@@]5([C@]1(CC3)N(C6=CC=CC=C65)C=O)CC4

> <PUBCHEM_CACTVS_TPSA>
49.8

> <PUBCHEM_MONOISOTOPIC_WEIGHT>
366.194343

> <PUBCHEM_TOTAL_CHARGE>
0

> <PUBCHEM_HEAVY_ATOM_COUNT>
27

> <PUBCHEM_ATOM_DEF_STEREO_COUNT>
5

> <PUBCHEM_ATOM_UDEF_STEREO_COUNT>
0

> <PUBCHEM_BOND_DEF_STEREO_COUNT>
0

> <PUBCHEM_BOND_UDEF_STEREO_COUNT>
0

> <PUBCHEM_ISOTOPIC_ATOM_COUNT>
0

> <PUBCHEM_COMPONENT_COUNT>
1

> <PUBCHEM_CACTVS_TAUTO_COUNT>
1

> <PUBCHEM_COORDINATE_TYPE>
1
5
255

> <PUBCHEM_BONDANNOTATIONS>
10  21  5
16  20  8
16  22  8
20  24  8
22  25  8
24  26  8
25  26  8
7  5  6
6  14  5
8  28  6
9  15  6

$$$$

