17395668
  -OEChem-06241222512D

 40 41  0     0  0  0  0  0  0999 V2000
    4.0981    3.3649    0.0000 S   0  0  0  0  0  0  0  0  0  0  0  0
    5.4641   -2.6739    0.0000 O   0  0  0  0  0  0  0  0  0  0  0  0
    3.7320   -3.6739    0.0000 O   0  0  0  0  0  0  0  0  0  0  0  0
    5.4641    0.3261    0.0000 O   0  0  0  0  0  0  0  0  0  0  0  0
    3.7320    0.3261    0.0000 N   0  0  0  0  0  0  0  0  0  0  0  0
    3.7320   -0.6739    0.0000 C   0  0  0  0  0  0  0  0  0  0  0  0
    2.8660   -1.1739    0.0000 C   0  0  0  0  0  0  0  0  0  0  0  0
    4.5981    1.8261    0.0000 C   0  0  0  0  0  0  0  0  0  0  0  0
    4.5981   -1.1739    0.0000 C   0  0  0  0  0  0  0  0  0  0  0  0
    3.7891    2.4139    0.0000 C   0  0  0  0  0  0  0  0  0  0  0  0
    4.5981    0.8261    0.0000 C   0  0  0  0  0  0  0  0  0  0  0  0
    2.8660   -2.1739    0.0000 C   0  0  0  0  0  0  0  0  0  0  0  0
    4.5981   -2.1739    0.0000 C   0  0  0  0  0  0  0  0  0  0  0  0
    3.7320   -2.6739    0.0000 C   0  0  0  0  0  0  0  0  0  0  0  0
    5.4071    2.4139    0.0000 C   0  0  0  0  0  0  0  0  0  0  0  0
    5.0981    3.3649    0.0000 C   0  0  0  0  0  0  0  0  0  0  0  0
    2.0000   -0.6739    0.0000 C   0  0  0  0  0  0  0  0  0  0  0  0
    2.8380    2.1048    0.0000 C   0  0  0  0  0  0  0  0  0  0  0  0
    5.6859    4.1739    0.0000 C   0  0  0  0  0  0  0  0  0  0  0  0
    6.3301   -2.1739    0.0000 C   0  0  0  0  0  0  0  0  0  0  0  0
    2.8660   -4.1739    0.0000 C   0  0  0  0  0  0  0  0  0  0  0  0
    3.1951    0.6361    0.0000 H   0  0  0  0  0  0  0  0  0  0  0  0
    5.1350   -0.8639    0.0000 H   0  0  0  0  0  0  0  0  0  0  0  0
    2.3291   -2.4839    0.0000 H   0  0  0  0  0  0  0  0  0  0  0  0
    5.9967    2.2223    0.0000 H   0  0  0  0  0  0  0  0  0  0  0  0
    2.3100   -0.1370    0.0000 H   0  0  0  0  0  0  0  0  0  0  0  0
    1.4631   -0.3639    0.0000 H   0  0  0  0  0  0  0  0  0  0  0  0
    1.6900   -1.2109    0.0000 H   0  0  0  0  0  0  0  0  0  0  0  0
    2.6464    2.6945    0.0000 H   0  0  0  0  0  0  0  0  0  0  0  0
    2.2484    1.9132    0.0000 H   0  0  0  0  0  0  0  0  0  0  0  0
    3.0296    1.5152    0.0000 H   0  0  0  0  0  0  0  0  0  0  0  0
    6.1874    3.8095    0.0000 H   0  0  0  0  0  0  0  0  0  0  0  0
    6.0503    4.6755    0.0000 H   0  0  0  0  0  0  0  0  0  0  0  0
    5.1843    4.5384    0.0000 H   0  0  0  0  0  0  0  0  0  0  0  0
    6.6401   -2.7109    0.0000 H   0  0  0  0  0  0  0  0  0  0  0  0
    6.8671   -1.8639    0.0000 H   0  0  0  0  0  0  0  0  0  0  0  0
    6.0201   -1.6370    0.0000 H   0  0  0  0  0  0  0  0  0  0  0  0
    2.5560   -3.6370    0.0000 H   0  0  0  0  0  0  0  0  0  0  0  0
    2.3291   -4.4839    0.0000 H   0  0  0  0  0  0  0  0  0  0  0  0
    3.1760   -4.7109    0.0000 H   0  0  0  0  0  0  0  0  0  0  0  0
  1 10  1  0  0  0  0
  1 16  1  0  0  0  0
  2 13  1  0  0  0  0
  2 20  1  0  0  0  0
  3 14  1  0  0  0  0
  3 21  1  0  0  0  0
  4 11  2  0  0  0  0
  5  6  1  0  0  0  0
  5 11  1  0  0  0  0
  5 22  1  0  0  0  0
  6  7  1  0  0  0  0
  6  9  2  0  0  0  0
  7 12  2  0  0  0  0
  7 17  1  0  0  0  0
  8 10  2  0  0  0  0
  8 11  1  0  0  0  0
  8 15  1  0  0  0  0
  9 13  1  0  0  0  0
  9 23  1  0  0  0  0
 10 18  1  0  0  0  0
 12 14  1  0  0  0  0
 12 24  1  0  0  0  0
 13 14  2  0  0  0  0
 15 16  2  0  0  0  0
 15 25  1  0  0  0  0
 16 19  1  0  0  0  0
 17 26  1  0  0  0  0
 17 27  1  0  0  0  0
 17 28  1  0  0  0  0
 18 29  1  0  0  0  0
 18 30  1  0  0  0  0
 18 31  1  0  0  0  0
 19 32  1  0  0  0  0
 19 33  1  0  0  0  0
 19 34  1  0  0  0  0
 20 35  1  0  0  0  0
 20 36  1  0  0  0  0
 20 37  1  0  0  0  0
 21 38  1  0  0  0  0
 21 39  1  0  0  0  0
 21 40  1  0  0  0  0
M  END
> <PUBCHEM_COMPOUND_CID>
17395668

> <PUBCHEM_COMPOUND_CANONICALIZED>
1

> <PUBCHEM_CACTVS_COMPLEXITY>
365

> <PUBCHEM_CACTVS_HBOND_ACCEPTOR>
4

> <PUBCHEM_CACTVS_HBOND_DONOR>
1

> <PUBCHEM_CACTVS_ROTATABLE_BOND>
4

> <PUBCHEM_CACTVS_SUBSKEYS>
AAADceB6MABAAAAAAAAAAAAAAAAAASAAAAAwAAAAAAAAAAABwAAAHgQQAAAADAyB2AIyx4LABAiMAiVSUACDCIAlKhBAiBkG7MgNJjLktZuEMSpm1Bnq6Ye40BMOIEABAgACQABAgAIEAASAAAAAAAAAAA==

> <PUBCHEM_IUPAC_OPENEYE_NAME>
N-(4,5-dimethoxy-2-methyl-phenyl)-2,5-dimethyl-thiophene-3-carboxamide

> <PUBCHEM_IUPAC_CAS_NAME>
N-(4,5-dimethoxy-2-methylphenyl)-2,5-dimethyl-3-thiophenecarboxamide

> <PUBCHEM_IUPAC_NAME>
N-(4,5-dimethoxy-2-methylphenyl)-2,5-dimethylthiophene-3-carboxamide

> <PUBCHEM_IUPAC_SYSTEMATIC_NAME>
N-(4,5-dimethoxy-2-methyl-phenyl)-2,5-dimethyl-thiophene-3-carboxamide

> <PUBCHEM_IUPAC_TRADITIONAL_NAME>
N-(4,5-dimethoxy-2-methyl-phenyl)-2,5-dimethyl-thiophene-3-carboxamide

> <PUBCHEM_IUPAC_INCHI>
InChI=1S/C16H19NO3S/c1-9-6-14(19-4)15(20-5)8-13(9)17-16(18)12-7-10(2)21-11(12)3/h6-8H,1-5H3,(H,17,18)

> <PUBCHEM_IUPAC_INCHIKEY>
MPMXBPJFKHKPOT-UHFFFAOYSA-N

> <PUBCHEM_XLOGP3_AA>
3.5

> <PUBCHEM_EXACT_MASS>
305.108564

> <PUBCHEM_MOLECULAR_FORMULA>
C16H19NO3S

> <PUBCHEM_MOLECULAR_WEIGHT>
305.39196

> <PUBCHEM_OPENEYE_CAN_SMILES>
CC1=CC(=C(C=C1NC(=O)C2=C(SC(=C2)C)C)OC)OC

> <PUBCHEM_OPENEYE_ISO_SMILES>
CC1=CC(=C(C=C1NC(=O)C2=C(SC(=C2)C)C)OC)OC

> <PUBCHEM_CACTVS_TPSA>
75.8

> <PUBCHEM_MONOISOTOPIC_WEIGHT>
305.108564

> <PUBCHEM_TOTAL_CHARGE>
0

> <PUBCHEM_HEAVY_ATOM_COUNT>
21

> <PUBCHEM_ATOM_DEF_STEREO_COUNT>
0

> <PUBCHEM_ATOM_UDEF_STEREO_COUNT>
0

> <PUBCHEM_BOND_DEF_STEREO_COUNT>
0

> <PUBCHEM_BOND_UDEF_STEREO_COUNT>
0

> <PUBCHEM_ISOTOPIC_ATOM_COUNT>
0

> <PUBCHEM_COMPONENT_COUNT>
1

> <PUBCHEM_CACTVS_TAUTO_COUNT>
2

> <PUBCHEM_COORDINATE_TYPE>
1
5
255

> <PUBCHEM_BONDANNOTATIONS>
1  10  8
1  16  8
12  14  8
13  14  8
15  16  8
6  7  8
6  9  8
7  12  8
8  10  8
8  15  8
9  13  8

$$$$

