17396640
  -OEChem-06241222573D

 45 46  0     0  0  0  0  0  0999 V2000
   -6.2046    2.4311   -1.1019 F   0  0  0  0  0  0  0  0  0  0  0  0
   -7.1484    0.6075   -0.4034 F   0  0  0  0  0  0  0  0  0  0  0  0
   -6.5979    2.1574    1.0192 F   0  0  0  0  0  0  0  0  0  0  0  0
   -1.6626   -2.6034   -0.9466 O   0  0  0  0  0  0  0  0  0  0  0  0
    2.2207   -1.0244   -1.2036 O   0  0  0  0  0  0  0  0  0  0  0  0
    0.4942   -2.7958   -0.1188 N   0  0  0  0  0  0  0  0  0  0  0  0
    3.4196   -0.7890    0.8028 N   0  0  0  0  0  0  0  0  0  0  0  0
   -0.9570   -0.9236    0.6139 C   0  0  0  0  0  0  0  0  0  0  0  0
   -2.3140   -0.2901    0.4283 C   0  0  0  0  0  0  0  0  0  0  0  0
    1.5522   -2.2781    0.7403 C   0  0  0  0  0  0  0  0  0  0  0  0
   -0.7570   -2.1777   -0.2242 C   0  0  0  0  0  0  0  0  0  0  0  0
   -2.5040    0.6755   -0.5603 C   0  0  0  0  0  0  0  0  0  0  0  0
   -3.3786   -0.6705    1.2452 C   0  0  0  0  0  0  0  0  0  0  0  0
    2.4198   -1.2944   -0.0237 C   0  0  0  0  0  0  0  0  0  0  0  0
    0.8352   -4.0070   -0.8615 C   0  0  0  0  0  0  0  0  0  0  0  0
   -4.8230    0.8802    0.0852 C   0  0  0  0  0  0  0  0  0  0  0  0
   -3.7584    1.2607   -0.7318 C   0  0  0  0  0  0  0  0  0  0  0  0
   -4.6331   -0.0854    1.0738 C   0  0  0  0  0  0  0  0  0  0  0  0
    4.4249    0.1487    0.4666 C   0  0  0  0  0  0  0  0  0  0  0  0
    5.3546    0.5483    1.4267 C   0  0  0  0  0  0  0  0  0  0  0  0
    4.4861    0.6734   -0.8244 C   0  0  0  0  0  0  0  0  0  0  0  0
    6.4067    1.9971   -0.1953 C   0  0  0  0  0  0  0  0  0  0  0  0
   -6.1647    1.5048   -0.0986 C   0  0  0  0  0  0  0  0  0  0  0  0
    6.3455    1.4724    1.0958 C   0  0  0  0  0  0  0  0  0  0  0  0
    5.4769    1.5976   -1.1553 C   0  0  0  0  0  0  0  0  0  0  0  0
    7.4670    2.9846   -0.5485 C   0  0  0  0  0  0  0  0  0  0  0  0
   -0.1830   -0.1882    0.3674 H   0  0  0  0  0  0  0  0  0  0  0  0
   -0.8456   -1.1798    1.6738 H   0  0  0  0  0  0  0  0  0  0  0  0
    2.1736   -3.1136    1.0840 H   0  0  0  0  0  0  0  0  0  0  0  0
    1.1489   -1.7879    1.6289 H   0  0  0  0  0  0  0  0  0  0  0  0
   -1.6824    0.9781   -1.2042 H   0  0  0  0  0  0  0  0  0  0  0  0
   -3.2442   -1.4234    2.0173 H   0  0  0  0  0  0  0  0  0  0  0  0
    1.7240   -3.8193   -1.4703 H   0  0  0  0  0  0  0  0  0  0  0  0
    0.0126   -4.3086   -1.5147 H   0  0  0  0  0  0  0  0  0  0  0  0
    1.0366   -4.8125   -0.1494 H   0  0  0  0  0  0  0  0  0  0  0  0
   -3.8869    2.0103   -1.5077 H   0  0  0  0  0  0  0  0  0  0  0  0
   -5.4568   -0.3889    1.7146 H   0  0  0  0  0  0  0  0  0  0  0  0
    3.4460   -1.1217    1.7644 H   0  0  0  0  0  0  0  0  0  0  0  0
    5.3183    0.1468    2.4362 H   0  0  0  0  0  0  0  0  0  0  0  0
    3.8031    0.4131   -1.6206 H   0  0  0  0  0  0  0  0  0  0  0  0
    7.0654    1.7745    1.8518 H   0  0  0  0  0  0  0  0  0  0  0  0
    5.5165    1.9987   -2.1647 H   0  0  0  0  0  0  0  0  0  0  0  0
    7.7443    3.5935    0.3188 H   0  0  0  0  0  0  0  0  0  0  0  0
    7.1218    3.6742   -1.3264 H   0  0  0  0  0  0  0  0  0  0  0  0
    8.3588    2.4645   -0.9118 H   0  0  0  0  0  0  0  0  0  0  0  0
  1 23  1  0  0  0  0
  2 23  1  0  0  0  0
  3 23  1  0  0  0  0
  4 11  2  0  0  0  0
  5 14  2  0  0  0  0
  6 10  1  0  0  0  0
  6 11  1  0  0  0  0
  6 15  1  0  0  0  0
  7 14  1  0  0  0  0
  7 19  1  0  0  0  0
  7 38  1  0  0  0  0
  8  9  1  0  0  0  0
  8 11  1  0  0  0  0
  8 27  1  0  0  0  0
  8 28  1  0  0  0  0
  9 12  2  0  0  0  0
  9 13  1  0  0  0  0
 10 14  1  0  0  0  0
 10 29  1  0  0  0  0
 10 30  1  0  0  0  0
 12 17  1  0  0  0  0
 12 31  1  0  0  0  0
 13 18  2  0  0  0  0
 13 32  1  0  0  0  0
 15 33  1  0  0  0  0
 15 34  1  0  0  0  0
 15 35  1  0  0  0  0
 16 17  2  0  0  0  0
 16 18  1  0  0  0  0
 16 23  1  0  0  0  0
 17 36  1  0  0  0  0
 18 37  1  0  0  0  0
 19 20  2  0  0  0  0
 19 21  1  0  0  0  0
 20 24  1  0  0  0  0
 20 39  1  0  0  0  0
 21 25  2  0  0  0  0
 21 40  1  0  0  0  0
 22 24  2  0  0  0  0
 22 25  1  0  0  0  0
 22 26  1  0  0  0  0
 24 41  1  0  0  0  0
 25 42  1  0  0  0  0
 26 43  1  0  0  0  0
 26 44  1  0  0  0  0
 26 45  1  0  0  0  0
M  END
> <PUBCHEM_COMPOUND_CID>
17396640

> <PUBCHEM_CONFORMER_RMSD>
0.8

> <PUBCHEM_CONFORMER_DIVERSEORDER>
2
302
12
39
261
42
30
85
171
161
4
170
174
311
318
219
40
156
191
155
69
207
317
172
79
181
126
24
286
38
99
52
274
51
209
270
140
37
188
64
121
18
86
314
197
245
291
47
221
218
211
109
56
97
319
323
215
192
288
205
14
26
129
98
255
269
208
178
70
256
66
135
115
77
160
90
229
266
164
184
133
238
289
295
71
226
10
72
74
316
268
104
142
290
81
247
20
103
312
53
48
278
309
185
23
220
273
112
257
196
195
1
279
105
182
96
262
322
300
117
294
91
231
280
36
264
82
254
144
301
67
55
202
151
271
190
258
222
227
34
6
180
283
128
78
310
16
265
183
246
249
175
272
127
297
139
203
292
212
92
137
307
111
138
198
260
166
253
7
35
276
201
11
251
243
21
95
282
120
25
275
8
163
84
68
162
132
113
250
281
54
232
145
267
235
223
118
27
141
93
244
293
57
296
114
134
263
146
44
224
285
15
217
194
45
210
228
88
173
179
193
60
159
149
65
22
168
298
158
87
152
242
73
83
143
237
214
233
199
169
13
125
31
50
107
9
136
305
59
230
320
277
284
43
119
213
110
75
108
49
241
186
62
41
106
32
176
33
204
150
153
29
123
248
17
259
321
130
225
63
299
100
116
3
216
304
19
189
165
157
308
94
58
89
131
315
177
234
252
206
101
167
200
187
122
124
80
28
147
154
236
102
5
239
306
148
46
303
240
313
287
61
76

> <PUBCHEM_MMFF94_PARTIAL_CHARGES>
35
1 -0.34
10 0.36
11 0.57
12 -0.15
13 -0.15
14 0.57
15 0.3
16 -0.14
17 -0.15
18 -0.15
19 0.12
2 -0.34
20 -0.15
21 -0.15
22 -0.14
23 1.16
24 -0.15
25 -0.15
26 0.14
3 -0.34
31 0.15
32 0.15
36 0.15
37 0.15
38 0.37
39 0.15
4 -0.57
40 0.15
41 0.15
42 0.15
5 -0.57
6 -0.66
7 -0.55
8 0.2
9 -0.14

> <PUBCHEM_EFFECTIVE_ROTOR_COUNT>
8

> <PUBCHEM_PHARMACOPHORE_FEATURES>
5
1 4 acceptor
1 5 acceptor
1 7 donor
6 19 20 21 22 24 25 rings
6 9 12 13 16 17 18 rings

> <PUBCHEM_HEAVY_ATOM_COUNT>
26

> <PUBCHEM_ATOM_DEF_STEREO_COUNT>
0

> <PUBCHEM_ATOM_UDEF_STEREO_COUNT>
0

> <PUBCHEM_BOND_DEF_STEREO_COUNT>
0

> <PUBCHEM_BOND_UDEF_STEREO_COUNT>
0

> <PUBCHEM_ISOTOPIC_ATOM_COUNT>
0

> <PUBCHEM_COMPONENT_COUNT>
1

> <PUBCHEM_CACTVS_TAUTO_COUNT>
2

> <PUBCHEM_CONFORMER_ID>
010973A000000002

> <PUBCHEM_MMFF94_ENERGY>
66.0836

> <PUBCHEM_FEATURE_SELFOVERLAP>
25.371

> <PUBCHEM_SHAPE_FINGERPRINT>
10 15 17917989464514651849
10280341 67 17972607581263682304
10753850 27 8646773287584577694
10939801 23 17988358166582179908
12107183 9 18341908428585457362
12390115 104 18187919534995837778
12403259 118 17916858028500556871
12596602 18 17346884416713620976
12895836 83 18337110073034641658
12895837 130 18198054773478188300
13540713 4 18265592377830164902
13540713 5 18265636350048226138
13685833 64 9583517620531276696
13911987 19 18114178631620775555
14123256 34 9727637219617972304
14216079 64 9799692601821621673
14251764 30 8718825383742600481
14257110 125 18409730664228504258
14294032 229 18190175693969492535
14565420 104 18201159939732194330
14931854 50 17530958099215688288
15338160 23 18129095615522769866
15510800 12 10807669904113662864
15519825 34 15840976759919289905
15803439 3 16515681113910856830
16120349 189 18411702054322928750
17134984 74 13767931217545975492
17980427 23 17846496989462684479
19427546 20 18189340069970565455
20691028 202 18267867186310766160
21298829 104 18408599292708166609
21302155 148 18342173337028709718
21344244 78 14836115589481608359
21365058 113 17466776504188570646
21585481 104 14923930258866291568
21756936 100 18057885745704029954
23522609 53 17315063588692259049
23559900 14 17558529556021271931
270888 7 18411700963601539256
2748736 6 18410860962055601784
2838139 119 18342748454487415302
312425 54 15985105193600277480
3246875 12 18411698769031896443
3411729 13 18271809068112464738
3472631 163 18335137566554656294
3627633 1 17617659852385802510
3862424 121 4966458358047921501
465052 167 9943519730661802632
5219985 13 18410856542945782470
56633871 153 11887953237444639761
5718773 13 9223231832127540360
6327066 14 18410293584275312862
636775 72 17977948978601899608
6712543 237 15482676770707790665
7808743 9 18338800014085896770
7970288 3 9295290534377891244

> <PUBCHEM_SHAPE_MULTIPOLES>
491.55
20.07
3.57
1.22
2.16
2.44
-0.11
-24.18
-0.6
0.72
1.12
0.44
-0.04
-0.11

> <PUBCHEM_SHAPE_SELFOVERLAP>
1038.292

> <PUBCHEM_SHAPE_VOLUME>
277.1

> <PUBCHEM_COORDINATE_TYPE>
2
5
10

$$$$

