10706137
  -OEChem-07051213102D

 44 45  0     1  0  0  0  0  0999 V2000
    5.4641   -1.5204    0.0000 O   0  0  0  0  0  0  0  0  0  0  0  0
    4.5981   -2.0204    0.0000 O   0  0  0  0  0  0  0  0  0  0  0  0
    6.3465    2.0142    0.0000 O   0  0  0  0  0  0  0  0  0  0  0  0
    5.4641    0.4796    0.0000 C   0  0  1  0  0  0  0  0  0  0  0  0
    5.4641   -0.5204    0.0000 C   0  0  2  0  0  0  0  0  0  0  0  0
    4.5981   -1.0204    0.0000 C   0  0  1  0  0  0  0  0  0  0  0  0
    3.7320   -0.5204    0.0000 C   0  0  1  0  0  0  0  0  0  0  0  0
    4.5981    0.9796    0.0000 C   0  0  0  0  0  0  0  0  0  0  0  0
    6.3580    1.0143    0.0000 C   0  0  1  0  0  0  0  0  0  0  0  0
    3.7320    0.4796    0.0000 C   0  0  0  0  0  0  0  0  0  0  0  0
    6.3580   -1.0550    0.0000 C   0  0  0  0  0  0  0  0  0  0  0  0
    7.2641    0.5004    0.0000 C   0  0  0  0  0  0  0  0  0  0  0  0
    5.4641    1.4796    0.0000 C   0  0  0  0  0  0  0  0  0  0  0  0
    2.8660   -1.0204    0.0000 C   0  0  0  0  0  0  0  0  0  0  0  0
    7.2641   -0.5412    0.0000 C   0  0  0  0  0  0  0  0  0  0  0  0
    2.0000   -0.5204    0.0000 C   0  0  0  0  0  0  0  0  0  0  0  0
    2.8660   -2.0204    0.0000 C   0  0  0  0  0  0  0  0  0  0  0  0
    6.8481   -1.9268    0.0000 C   0  0  0  0  0  0  0  0  0  0  0  0
    5.1350   -1.3304    0.0000 H   0  0  0  0  0  0  0  0  0  0  0  0
    3.1951   -0.2104    0.0000 H   0  0  0  0  0  0  0  0  0  0  0  0
    4.9966    1.4546    0.0000 H   0  0  0  0  0  0  0  0  0  0  0  0
    4.1996    1.4546    0.0000 H   0  0  0  0  0  0  0  0  0  0  0  0
    5.8170    1.3170    0.0000 H   0  0  0  0  0  0  0  0  0  0  0  0
    3.5200    1.0622    0.0000 H   0  0  0  0  0  0  0  0  0  0  0  0
    3.1215    0.3719    0.0000 H   0  0  0  0  0  0  0  0  0  0  0  0
    7.8750    0.3943    0.0000 H   0  0  0  0  0  0  0  0  0  0  0  0
    7.4732    1.0841    0.0000 H   0  0  0  0  0  0  0  0  0  0  0  0
    6.0841    1.4796    0.0000 H   0  0  0  0  0  0  0  0  0  0  0  0
    5.4641    2.0996    0.0000 H   0  0  0  0  0  0  0  0  0  0  0  0
    4.8441    1.4796    0.0000 H   0  0  0  0  0  0  0  0  0  0  0  0
    2.8660   -0.4004    0.0000 H   0  0  0  0  0  0  0  0  0  0  0  0
    7.4732   -1.1249    0.0000 H   0  0  0  0  0  0  0  0  0  0  0  0
    7.8750   -0.4351    0.0000 H   0  0  0  0  0  0  0  0  0  0  0  0
    5.7741   -2.0573    0.0000 H   0  0  0  0  0  0  0  0  0  0  0  0
    4.0611   -2.3304    0.0000 H   0  0  0  0  0  0  0  0  0  0  0  0
    6.8798    2.3304    0.0000 H   0  0  0  0  0  0  0  0  0  0  0  0
    2.3100    0.0165    0.0000 H   0  0  0  0  0  0  0  0  0  0  0  0
    1.4631   -0.2104    0.0000 H   0  0  0  0  0  0  0  0  0  0  0  0
    1.6900   -1.0573    0.0000 H   0  0  0  0  0  0  0  0  0  0  0  0
    2.2460   -2.0204    0.0000 H   0  0  0  0  0  0  0  0  0  0  0  0
    2.8660   -2.6404    0.0000 H   0  0  0  0  0  0  0  0  0  0  0  0
    3.4860   -2.0204    0.0000 H   0  0  0  0  0  0  0  0  0  0  0  0
    6.5320   -2.4601    0.0000 H   0  0  0  0  0  0  0  0  0  0  0  0
    7.4680   -1.9339    0.0000 H   0  0  0  0  0  0  0  0  0  0  0  0
  5  1  1  1  0  0  0
  1 34  1  0  0  0  0
  6  2  1  6  0  0  0
  2 35  1  0  0  0  0
  9  3  1  6  0  0  0
  3 36  1  0  0  0  0
  4  5  1  0  0  0  0
  4  8  1  0  0  0  0
  4  9  1  0  0  0  0
  4 13  1  6  0  0  0
  5  6  1  0  0  0  0
  5 11  1  0  0  0  0
  6  7  1  0  0  0  0
  6 19  1  0  0  0  0
  7 10  1  0  0  0  0
  7 14  1  6  0  0  0
  7 20  1  0  0  0  0
  8 10  1  0  0  0  0
  8 21  1  0  0  0  0
  8 22  1  0  0  0  0
  9 12  1  0  0  0  0
  9 23  1  0  0  0  0
 10 24  1  0  0  0  0
 10 25  1  0  0  0  0
 11 15  1  0  0  0  0
 11 18  2  0  0  0  0
 12 15  1  0  0  0  0
 12 26  1  0  0  0  0
 12 27  1  0  0  0  0
 13 28  1  0  0  0  0
 13 29  1  0  0  0  0
 13 30  1  0  0  0  0
 14 16  1  0  0  0  0
 14 17  1  0  0  0  0
 14 31  1  0  0  0  0
 15 32  1  0  0  0  0
 15 33  1  0  0  0  0
 16 37  1  0  0  0  0
 16 38  1  0  0  0  0
 16 39  1  0  0  0  0
 17 40  1  0  0  0  0
 17 41  1  0  0  0  0
 17 42  1  0  0  0  0
 18 43  1  0  0  0  0
 18 44  1  0  0  0  0
M  END
> <PUBCHEM_COMPOUND_CID>
10706137

> <PUBCHEM_COMPOUND_CANONICALIZED>
1

> <PUBCHEM_CACTVS_COMPLEXITY>
352

> <PUBCHEM_CACTVS_HBOND_ACCEPTOR>
3

> <PUBCHEM_CACTVS_HBOND_DONOR>
3

> <PUBCHEM_CACTVS_ROTATABLE_BOND>
1

> <PUBCHEM_CACTVS_SUBSKEYS>
AAADceBwMAAAAAAAAAAAAAAAAAAAAAAAAAAwYAAAAAAAAADAAAAAGgAACAAAD1SggAICAAAAAgCAAgBCAAAAAAAgAAAAAAAAAAgBFAIAAQAAQAAFwAABEAHA4PQPgAAAAAAAAACAAAYQADCAAAAAAAAAAA==

> <PUBCHEM_IUPAC_OPENEYE_NAME>
(1R,4aR,5R,6S,8aS)-6-isopropyl-8a-methyl-4-methylene-decalin-1,4a,5-triol

> <PUBCHEM_IUPAC_CAS_NAME>
(1R,4aR,5R,6S,8aS)-8a-methyl-4-methylene-6-propan-2-yl-2,3,5,6,7,8-hexahydro-1H-naphthalene-1,4a,5-triol

> <PUBCHEM_IUPAC_NAME>
(1R,4aR,5R,6S,8aS)-8a-methyl-4-methylidene-6-propan-2-yl-2,3,5,6,7,8-hexahydro-1H-naphthalene-1,4a,5-triol

> <PUBCHEM_IUPAC_SYSTEMATIC_NAME>
(1R,4aR,5R,6S,8aS)-8a-methyl-4-methylidene-6-propan-2-yl-2,3,5,6,7,8-hexahydro-1H-naphthalene-1,4a,5-triol

> <PUBCHEM_IUPAC_TRADITIONAL_NAME>
(1R,4aR,5R,6S,8aS)-6-isopropyl-8a-methyl-4-methylene-decalin-1,4a,5-triol

> <PUBCHEM_IUPAC_INCHI>
InChI=1S/C15H26O3/c1-9(2)11-7-8-14(4)12(16)6-5-10(3)15(14,18)13(11)17/h9,11-13,16-18H,3,5-8H2,1-2,4H3/t11-,12+,13+,14-,15-/m0/s1

> <PUBCHEM_IUPAC_INCHIKEY>
NFDGWGXWJZESMB-QRTUWBSPSA-N

> <PUBCHEM_XLOGP3_AA>
1.6

> <PUBCHEM_EXACT_MASS>
254.188195

> <PUBCHEM_MOLECULAR_FORMULA>
C15H26O3

> <PUBCHEM_MOLECULAR_WEIGHT>
254.36514

> <PUBCHEM_OPENEYE_CAN_SMILES>
CC(C)C1CCC2(C(CCC(=C)C2(C1O)O)O)C

> <PUBCHEM_OPENEYE_ISO_SMILES>
CC(C)[C@@H]1CC[C@]2([C@@H](CCC(=C)[C@@]2([C@@H]1O)O)O)C

> <PUBCHEM_CACTVS_TPSA>
60.7

> <PUBCHEM_MONOISOTOPIC_WEIGHT>
254.188195

> <PUBCHEM_TOTAL_CHARGE>
0

> <PUBCHEM_HEAVY_ATOM_COUNT>
18

> <PUBCHEM_ATOM_DEF_STEREO_COUNT>
5

> <PUBCHEM_ATOM_UDEF_STEREO_COUNT>
0

> <PUBCHEM_BOND_DEF_STEREO_COUNT>
0

> <PUBCHEM_BOND_UDEF_STEREO_COUNT>
0

> <PUBCHEM_ISOTOPIC_ATOM_COUNT>
0

> <PUBCHEM_COMPONENT_COUNT>
1

> <PUBCHEM_CACTVS_TAUTO_COUNT>
1

> <PUBCHEM_COORDINATE_TYPE>
1
5
255

> <PUBCHEM_BONDANNOTATIONS>
5  1  5
6  2  6
9  3  6
4  13  6
7  14  6

$$$$

