17396063
  -OEChem-06241222543D

 38 41  0     1  0  0  0  0  0999 V2000
   -2.3684   -1.6209   -2.2847 Br  0  0  0  0  0  0  0  0  0  0  0  0
    2.8247    0.1075   -1.6899 S   0  0  0  0  0  0  0  0  0  0  0  0
   -0.3828    1.0188   -0.6521 O   0  0  0  0  0  0  0  0  0  0  0  0
    1.1955    0.9894    2.8892 O   0  0  0  0  0  0  0  0  0  0  0  0
    0.6036    2.4014   -2.2182 O   0  0  0  0  0  0  0  0  0  0  0  0
    1.6200    0.5017    0.6152 N   0  0  0  0  0  0  0  0  0  0  0  0
    1.9503    1.2444   -0.5824 C   0  0  1  0  0  0  0  0  0  0  0  0
    2.6716    2.4515   -0.0160 C   0  0  0  0  0  0  0  0  0  0  0  0
    1.9181    2.6927    1.3095 C   0  0  0  0  0  0  0  0  0  0  0  0
    1.5097    1.2962    1.7507 C   0  0  0  0  0  0  0  0  0  0  0  0
    1.7164   -0.8905    0.5040 C   0  0  0  0  0  0  0  0  0  0  0  0
    2.3174   -1.2883   -0.6997 C   0  0  0  0  0  0  0  0  0  0  0  0
    0.6666    1.6386   -1.2635 C   0  0  0  0  0  0  0  0  0  0  0  0
    1.3434   -1.8271    1.4563 C   0  0  0  0  0  0  0  0  0  0  0  0
    2.5290   -2.6283   -0.9843 C   0  0  0  0  0  0  0  0  0  0  0  0
    1.5467   -3.1798    1.1711 C   0  0  0  0  0  0  0  0  0  0  0  0
    2.1312   -3.5774   -0.0407 C   0  0  0  0  0  0  0  0  0  0  0  0
   -1.6723    1.3072   -1.2018 C   0  0  0  0  0  0  0  0  0  0  0  0
   -2.7143    0.5560   -0.4265 C   0  0  0  0  0  0  0  0  0  0  0  0
   -3.1156   -0.7306   -0.7860 C   0  0  0  0  0  0  0  0  0  0  0  0
   -3.2856    1.1804    0.6824 C   0  0  0  0  0  0  0  0  0  0  0  0
   -4.0881   -1.3927   -0.0366 C   0  0  0  0  0  0  0  0  0  0  0  0
   -4.2580    0.5183    1.4318 C   0  0  0  0  0  0  0  0  0  0  0  0
   -4.6593   -0.7684    1.0722 C   0  0  0  0  0  0  0  0  0  0  0  0
    2.6462    3.3362   -0.6595 H   0  0  0  0  0  0  0  0  0  0  0  0
    3.7201    2.2181    0.2090 H   0  0  0  0  0  0  0  0  0  0  0  0
    1.0176    3.2966    1.1600 H   0  0  0  0  0  0  0  0  0  0  0  0
    2.5650    3.1620    2.0548 H   0  0  0  0  0  0  0  0  0  0  0  0
    0.8897   -1.5400    2.3981 H   0  0  0  0  0  0  0  0  0  0  0  0
    3.0019   -2.9434   -1.9087 H   0  0  0  0  0  0  0  0  0  0  0  0
    1.2517   -3.9332    1.8967 H   0  0  0  0  0  0  0  0  0  0  0  0
    2.2856   -4.6343   -0.2407 H   0  0  0  0  0  0  0  0  0  0  0  0
   -1.6974    1.0782   -2.2722 H   0  0  0  0  0  0  0  0  0  0  0  0
   -1.8590    2.3860   -1.1148 H   0  0  0  0  0  0  0  0  0  0  0  0
   -2.9810    2.1811    0.9777 H   0  0  0  0  0  0  0  0  0  0  0  0
   -4.4135   -2.3957   -0.3011 H   0  0  0  0  0  0  0  0  0  0  0  0
   -4.7020    1.0039    2.2959 H   0  0  0  0  0  0  0  0  0  0  0  0
   -5.4162   -1.2839    1.6560 H   0  0  0  0  0  0  0  0  0  0  0  0
  1 20  1  0  0  0  0
  2  7  1  0  0  0  0
  2 12  1  0  0  0  0
  3 13  1  0  0  0  0
  3 18  1  0  0  0  0
  4 10  2  0  0  0  0
  5 13  2  0  0  0  0
  6  7  1  0  0  0  0
  6 10  1  0  0  0  0
  6 11  1  0  0  0  0
  7  8  1  0  0  0  0
  7 13  1  0  0  0  0
  8  9  1  0  0  0  0
  8 25  1  0  0  0  0
  8 26  1  0  0  0  0
  9 10  1  0  0  0  0
  9 27  1  0  0  0  0
  9 28  1  0  0  0  0
 11 12  1  0  0  0  0
 11 14  2  0  0  0  0
 12 15  2  0  0  0  0
 14 16  1  0  0  0  0
 14 29  1  0  0  0  0
 15 17  1  0  0  0  0
 15 30  1  0  0  0  0
 16 17  2  0  0  0  0
 16 31  1  0  0  0  0
 17 32  1  0  0  0  0
 18 19  1  0  0  0  0
 18 33  1  0  0  0  0
 18 34  1  0  0  0  0
 19 20  1  0  0  0  0
 19 21  2  0  0  0  0
 20 22  2  0  0  0  0
 21 23  1  0  0  0  0
 21 35  1  0  0  0  0
 22 24  1  0  0  0  0
 22 36  1  0  0  0  0
 23 24  2  0  0  0  0
 23 37  1  0  0  0  0
 24 38  1  0  0  0  0
M  END
> <PUBCHEM_COMPOUND_CID>
17396063

> <PUBCHEM_CONFORMER_RMSD>
0.8

> <PUBCHEM_CONFORMER_DIVERSEORDER>
1
123
124
32
125
114
137
117
29
143
64
111
107
86
84
76
72
46
112
71
63
121
142
113
80
126
6
23
116
120
66
78
87
106
27
49
100
88
75
101
146
8
131
115
45
25
85
31
132
47
136
36
77
99
20
37
62
133
119
65
83
110
73
79
51
138
108
129
74
109
9
54
90
53
154
139
10
149
24
4
141
153
5
22
50
7
96
19
39
81
140
34
148
61
38
3
147
152
70
118
2
122
13
21
11
130
18
67
91
98
52
12
60
69
30
68
144
44
17
56
43
95
14
40
102
151
15
16
94
26
103
35
55
97
59
145
48
42
127
82
33
58
89
105
41
57
104
28
128
134
135
93
92
150

> <PUBCHEM_MMFF94_PARTIAL_CHARGES>
31
1 -0.11
10 0.57
11 0.12
12 0.1
13 0.66
14 -0.15
15 -0.15
16 -0.15
17 -0.15
18 0.42
19 -0.14
2 -0.33
20 0.11
21 -0.15
22 -0.15
23 -0.15
24 -0.15
29 0.15
3 -0.43
30 0.15
31 0.15
32 0.15
35 0.15
36 0.15
37 0.15
38 0.15
4 -0.57
5 -0.57
6 -0.48
7 0.59
9 0.06

> <PUBCHEM_EFFECTIVE_ROTOR_COUNT>
4.6

> <PUBCHEM_PHARMACOPHORE_FEATURES>
7
1 1 hydrophobe
1 4 acceptor
1 5 acceptor
5 2 6 7 11 12 rings
5 6 7 8 9 10 rings
6 11 12 14 15 16 17 rings
6 19 20 21 22 23 24 rings

> <PUBCHEM_HEAVY_ATOM_COUNT>
24

> <PUBCHEM_ATOM_DEF_STEREO_COUNT>
0

> <PUBCHEM_ATOM_UDEF_STEREO_COUNT>
1

> <PUBCHEM_BOND_DEF_STEREO_COUNT>
0

> <PUBCHEM_BOND_UDEF_STEREO_COUNT>
0

> <PUBCHEM_ISOTOPIC_ATOM_COUNT>
0

> <PUBCHEM_COMPONENT_COUNT>
1

> <PUBCHEM_CACTVS_TAUTO_COUNT>
2

> <PUBCHEM_CONFORMER_ID>
0109715F00000001

> <PUBCHEM_MMFF94_ENERGY>
72.8987

> <PUBCHEM_FEATURE_SELFOVERLAP>
35.789

> <PUBCHEM_SHAPE_FINGERPRINT>
10064457 181 18191580852749335858
11421498 54 18265873839879347185
11578080 2 18121795077737685224
12156800 1 15656575783312861039
12506688 2 18122066665445887990
12553582 1 18122629615220273303
12633257 1 17313096497511723483
12714826 92 17837211845662460886
12778500 126 18047438349420262073
128993 33 17894632500767753775
13224815 77 17918280818454018353
13533116 47 18334856117922969995
13583140 156 18260549988088479985
14178342 30 18194406589348838127
15635459 17 17560796598630789883
15664445 248 15266760162498436887
19078846 21 17532081868660229913
20645477 70 17631734829907815221
20775530 9 17980201108188913947
21731516 1 18126572442463357231
23466295 7 17042313411739844907
23559900 14 18202561800573493285
238 59 18270949159709088819
25222932 49 17027432175552315023
35225 105 16820860298084131634
3797600 57 16302075566540403623
427121 178 18045787788523333304
6287921 2 18339074900461637883
6442390 28 18048311141860030650
6669772 16 16557609817626760460
7097593 13 18040439918737497591
8509985 295 17605828347271919465

> <PUBCHEM_SHAPE_MULTIPOLES>
481.11
6.94
3.63
2.23
9.39
1.75
0.08
1.26
0.99
-3.54
0.31
-0.15
-0.36
-0.44

> <PUBCHEM_SHAPE_SELFOVERLAP>
1036.028

> <PUBCHEM_SHAPE_VOLUME>
271.6

> <PUBCHEM_COORDINATE_TYPE>
2
5
10

$$$$

