5281247
  -OEChem-07051212552D

100102  0     1  0  0  0  0  0999 V2000
    5.4646   -4.2701    0.0000 O   0  0  0  0  0  0  0  0  0  0  0  0
    2.0000   -5.2701    0.0000 O   0  0  0  0  0  0  0  0  0  0  0  0
   19.5981    2.1581    0.0000 O   0  0  0  0  0  0  0  0  0  0  0  0
   22.0981    4.0241    0.0000 O   0  0  0  0  0  0  0  0  0  0  0  0
    4.5981   -3.7701    0.0000 C   0  0  2  0  0  0  0  0  0  0  0  0
    4.5981   -4.7701    0.0000 C   0  0  1  0  0  0  0  0  0  0  0  0
    3.7320   -3.2701    0.0000 C   0  0  0  0  0  0  0  0  0  0  0  0
    3.7320   -5.2701    0.0000 C   0  0  0  0  0  0  0  0  0  0  0  0
    2.8660   -3.7701    0.0000 C   0  0  0  0  0  0  0  0  0  0  0  0
    2.8660   -4.7701    0.0000 C   0  0  2  0  0  0  0  0  0  0  0  0
    4.5981   -5.7701    0.0000 C   0  0  0  0  0  0  0  0  0  0  0  0
    5.0981   -2.9041    0.0000 C   0  0  0  0  0  0  0  0  0  0  0  0
    2.8660   -2.7701    0.0000 C   0  0  0  0  0  0  0  0  0  0  0  0
    3.7320   -2.2701    0.0000 C   0  0  0  0  0  0  0  0  0  0  0  0
    6.0981   -2.9041    0.0000 C   0  0  0  0  0  0  0  0  0  0  0  0
    6.5981   -2.0381    0.0000 C   0  0  0  0  0  0  0  0  0  0  0  0
    6.0981   -1.1720    0.0000 C   0  0  0  0  0  0  0  0  0  0  0  0
    7.5981   -2.0381    0.0000 C   0  0  0  0  0  0  0  0  0  0  0  0
    8.0981   -1.1720    0.0000 C   0  0  0  0  0  0  0  0  0  0  0  0
   19.5981    4.8901    0.0000 C   0  0  0  0  0  0  0  0  0  0  0  0
   19.5981    3.1581    0.0000 C   0  0  2  0  0  0  0  0  0  0  0  0
   20.5981    4.8901    0.0000 C   0  0  0  0  0  0  0  0  0  0  0  0
   21.0981    4.0241    0.0000 C   0  0  1  0  0  0  0  0  0  0  0  0
   20.5981    3.1581    0.0000 C   0  0  0  0  0  0  0  0  0  0  0  0
   19.0981    4.0241    0.0000 C   0  0  0  0  0  0  0  0  0  0  0  0
   19.5981    5.8901    0.0000 C   0  0  0  0  0  0  0  0  0  0  0  0
   18.7320    5.3901    0.0000 C   0  0  0  0  0  0  0  0  0  0  0  0
   18.7320    2.6581    0.0000 C   0  0  0  0  0  0  0  0  0  0  0  0
    9.0981   -1.1720    0.0000 C   0  0  0  0  0  0  0  0  0  0  0  0
   18.0981    4.0241    0.0000 C   0  0  0  0  0  0  0  0  0  0  0  0
    9.5981   -0.3060    0.0000 C   0  0  0  0  0  0  0  0  0  0  0  0
   17.0981    4.0241    0.0000 C   0  0  0  0  0  0  0  0  0  0  0  0
    9.0981    0.5600    0.0000 C   0  0  0  0  0  0  0  0  0  0  0  0
   10.5981   -0.3060    0.0000 C   0  0  0  0  0  0  0  0  0  0  0  0
   16.5981    3.1581    0.0000 C   0  0  0  0  0  0  0  0  0  0  0  0
   17.0981    2.2920    0.0000 C   0  0  0  0  0  0  0  0  0  0  0  0
   15.5981    3.1581    0.0000 C   0  0  0  0  0  0  0  0  0  0  0  0
   11.0981    0.5600    0.0000 C   0  0  0  0  0  0  0  0  0  0  0  0
   15.0981    2.2920    0.0000 C   0  0  0  0  0  0  0  0  0  0  0  0
   12.0981    0.5600    0.0000 C   0  0  0  0  0  0  0  0  0  0  0  0
   14.0981    2.2920    0.0000 C   0  0  0  0  0  0  0  0  0  0  0  0
   12.5981    1.4260    0.0000 C   0  0  0  0  0  0  0  0  0  0  0  0
   13.5981    1.4260    0.0000 C   0  0  0  0  0  0  0  0  0  0  0  0
   14.0981    0.5600    0.0000 C   0  0  0  0  0  0  0  0  0  0  0  0
    3.3335   -5.7451    0.0000 H   0  0  0  0  0  0  0  0  0  0  0  0
    4.1306   -5.7451    0.0000 H   0  0  0  0  0  0  0  0  0  0  0  0
    2.6540   -3.1875    0.0000 H   0  0  0  0  0  0  0  0  0  0  0  0
    2.2554   -3.8778    0.0000 H   0  0  0  0  0  0  0  0  0  0  0  0
    2.8660   -5.3901    0.0000 H   0  0  0  0  0  0  0  0  0  0  0  0
    3.9781   -5.7701    0.0000 H   0  0  0  0  0  0  0  0  0  0  0  0
    4.5981   -6.3901    0.0000 H   0  0  0  0  0  0  0  0  0  0  0  0
    5.2181   -5.7701    0.0000 H   0  0  0  0  0  0  0  0  0  0  0  0
    4.7881   -2.3672    0.0000 H   0  0  0  0  0  0  0  0  0  0  0  0
    3.1760   -2.2332    0.0000 H   0  0  0  0  0  0  0  0  0  0  0  0
    2.3291   -2.4601    0.0000 H   0  0  0  0  0  0  0  0  0  0  0  0
    2.5560   -3.3071    0.0000 H   0  0  0  0  0  0  0  0  0  0  0  0
    4.3520   -2.2701    0.0000 H   0  0  0  0  0  0  0  0  0  0  0  0
    3.7320   -1.6501    0.0000 H   0  0  0  0  0  0  0  0  0  0  0  0
    3.1120   -2.2701    0.0000 H   0  0  0  0  0  0  0  0  0  0  0  0
    2.0000   -5.8901    0.0000 H   0  0  0  0  0  0  0  0  0  0  0  0
    6.4081   -3.4410    0.0000 H   0  0  0  0  0  0  0  0  0  0  0  0
    6.6350   -0.8621    0.0000 H   0  0  0  0  0  0  0  0  0  0  0  0
    5.7881   -0.6351    0.0000 H   0  0  0  0  0  0  0  0  0  0  0  0
    5.5611   -1.4820    0.0000 H   0  0  0  0  0  0  0  0  0  0  0  0
    7.9081   -2.5750    0.0000 H   0  0  0  0  0  0  0  0  0  0  0  0
    7.7881   -0.6351    0.0000 H   0  0  0  0  0  0  0  0  0  0  0  0
   21.1807    5.1022    0.0000 H   0  0  0  0  0  0  0  0  0  0  0  0
   20.4904    5.5007    0.0000 H   0  0  0  0  0  0  0  0  0  0  0  0
   21.4081    4.5610    0.0000 H   0  0  0  0  0  0  0  0  0  0  0  0
   20.4904    2.5475    0.0000 H   0  0  0  0  0  0  0  0  0  0  0  0
   21.1807    2.9460    0.0000 H   0  0  0  0  0  0  0  0  0  0  0  0
   20.2181    5.8901    0.0000 H   0  0  0  0  0  0  0  0  0  0  0  0
   19.5981    6.5101    0.0000 H   0  0  0  0  0  0  0  0  0  0  0  0
   18.9781    5.8901    0.0000 H   0  0  0  0  0  0  0  0  0  0  0  0
   19.0420    5.9271    0.0000 H   0  0  0  0  0  0  0  0  0  0  0  0
   18.1951    5.7001    0.0000 H   0  0  0  0  0  0  0  0  0  0  0  0
   18.4221    4.8532    0.0000 H   0  0  0  0  0  0  0  0  0  0  0  0
   18.4221    3.1950    0.0000 H   0  0  0  0  0  0  0  0  0  0  0  0
   18.1951    2.3481    0.0000 H   0  0  0  0  0  0  0  0  0  0  0  0
   19.0420    2.1211    0.0000 H   0  0  0  0  0  0  0  0  0  0  0  0
    9.4081   -1.7090    0.0000 H   0  0  0  0  0  0  0  0  0  0  0  0
   20.1350    1.8481    0.0000 H   0  0  0  0  0  0  0  0  0  0  0  0
   22.4081    4.5610    0.0000 H   0  0  0  0  0  0  0  0  0  0  0  0
   16.7881    4.5610    0.0000 H   0  0  0  0  0  0  0  0  0  0  0  0
    9.6350    0.8700    0.0000 H   0  0  0  0  0  0  0  0  0  0  0  0
    8.7881    1.0969    0.0000 H   0  0  0  0  0  0  0  0  0  0  0  0
    8.5611    0.2500    0.0000 H   0  0  0  0  0  0  0  0  0  0  0  0
   10.9081   -0.8430    0.0000 H   0  0  0  0  0  0  0  0  0  0  0  0
   16.5611    1.9820    0.0000 H   0  0  0  0  0  0  0  0  0  0  0  0
   17.4081    1.7551    0.0000 H   0  0  0  0  0  0  0  0  0  0  0  0
   17.6350    2.6021    0.0000 H   0  0  0  0  0  0  0  0  0  0  0  0
   15.2881    3.6950    0.0000 H   0  0  0  0  0  0  0  0  0  0  0  0
   10.7881    1.0969    0.0000 H   0  0  0  0  0  0  0  0  0  0  0  0
   15.4081    1.7551    0.0000 H   0  0  0  0  0  0  0  0  0  0  0  0
   12.4081    0.0231    0.0000 H   0  0  0  0  0  0  0  0  0  0  0  0
   13.7881    2.8290    0.0000 H   0  0  0  0  0  0  0  0  0  0  0  0
   12.2881    1.9630    0.0000 H   0  0  0  0  0  0  0  0  0  0  0  0
   13.5611    0.2500    0.0000 H   0  0  0  0  0  0  0  0  0  0  0  0
   14.4081    0.0231    0.0000 H   0  0  0  0  0  0  0  0  0  0  0  0
   14.6350    0.8700    0.0000 H   0  0  0  0  0  0  0  0  0  0  0  0
  1  5  1  0  0  0  0
  1  6  1  0  0  0  0
 10  2  1  1  0  0  0
  2 60  1  0  0  0  0
 21  3  1  1  0  0  0
  3 82  1  0  0  0  0
 23  4  1  6  0  0  0
  4 83  1  0  0  0  0
  5  6  1  0  0  0  0
  5  7  1  0  0  0  0
  5 12  1  1  0  0  0
  6  8  1  0  0  0  0
  6 11  1  1  0  0  0
  7  9  1  0  0  0  0
  7 13  1  0  0  0  0
  7 14  1  0  0  0  0
  8 10  1  0  0  0  0
  8 45  1  0  0  0  0
  8 46  1  0  0  0  0
  9 10  1  0  0  0  0
  9 47  1  0  0  0  0
  9 48  1  0  0  0  0
 10 49  1  0  0  0  0
 11 50  1  0  0  0  0
 11 51  1  0  0  0  0
 11 52  1  0  0  0  0
 12 15  2  0  0  0  0
 12 53  1  0  0  0  0
 13 54  1  0  0  0  0
 13 55  1  0  0  0  0
 13 56  1  0  0  0  0
 14 57  1  0  0  0  0
 14 58  1  0  0  0  0
 14 59  1  0  0  0  0
 15 16  1  0  0  0  0
 15 61  1  0  0  0  0
 16 17  1  0  0  0  0
 16 18  2  0  0  0  0
 17 62  1  0  0  0  0
 17 63  1  0  0  0  0
 17 64  1  0  0  0  0
 18 19  1  0  0  0  0
 18 65  1  0  0  0  0
 19 29  2  0  0  0  0
 19 66  1  0  0  0  0
 20 22  1  0  0  0  0
 20 25  1  0  0  0  0
 20 26  1  0  0  0  0
 20 27  1  0  0  0  0
 21 24  1  0  0  0  0
 21 25  1  0  0  0  0
 21 28  1  0  0  0  0
 22 23  1  0  0  0  0
 22 67  1  0  0  0  0
 22 68  1  0  0  0  0
 23 24  1  0  0  0  0
 23 69  1  0  0  0  0
 24 70  1  0  0  0  0
 24 71  1  0  0  0  0
 25 30  2  0  0  0  0
 26 72  1  0  0  0  0
 26 73  1  0  0  0  0
 26 74  1  0  0  0  0
 27 75  1  0  0  0  0
 27 76  1  0  0  0  0
 27 77  1  0  0  0  0
 28 78  1  0  0  0  0
 28 79  1  0  0  0  0
 28 80  1  0  0  0  0
 29 31  1  0  0  0  0
 29 81  1  0  0  0  0
 30 32  2  0  0  0  0
 31 33  1  0  0  0  0
 31 34  2  0  0  0  0
 32 35  1  0  0  0  0
 32 84  1  0  0  0  0
 33 85  1  0  0  0  0
 33 86  1  0  0  0  0
 33 87  1  0  0  0  0
 34 38  1  0  0  0  0
 34 88  1  0  0  0  0
 35 36  1  0  0  0  0
 35 37  2  0  0  0  0
 36 89  1  0  0  0  0
 36 90  1  0  0  0  0
 36 91  1  0  0  0  0
 37 39  1  0  0  0  0
 37 92  1  0  0  0  0
 38 40  2  0  0  0  0
 38 93  1  0  0  0  0
 39 41  2  0  0  0  0
 39 94  1  0  0  0  0
 40 42  1  0  0  0  0
 40 95  1  0  0  0  0
 41 43  1  0  0  0  0
 41 96  1  0  0  0  0
 42 43  2  0  0  0  0
 42 97  1  0  0  0  0
 43 44  1  0  0  0  0
 44 98  1  0  0  0  0
 44 99  1  0  0  0  0
 44100  1  0  0  0  0
M  END
> <PUBCHEM_COMPOUND_CID>
5281247

> <PUBCHEM_COMPOUND_CANONICALIZED>
1

> <PUBCHEM_CACTVS_COMPLEXITY>
1380

> <PUBCHEM_CACTVS_HBOND_ACCEPTOR>
4

> <PUBCHEM_CACTVS_HBOND_DONOR>
3

> <PUBCHEM_CACTVS_ROTATABLE_BOND>
9

> <PUBCHEM_CACTVS_SUBSKEYS>
AAADcfB8OAAAAAAAAAAAAAAAEgAAAAAAAAAwYAAABIAAAAAAAAAAGgAACAAADlSggAICAAAABgCAAiBCAAAAAAAgAAAICAAAAAgIFAIAIQACUAAFwAAIsAPA4PQPgAAAAAAAAABCAAYQADAAAAAAAAAAAA==

> <PUBCHEM_IUPAC_OPENEYE_NAME>
(1R,3S)-6-[(3E,5E,7E,9E,11E,13E,15E,17E)-18-[(1R,3S,6S)-3-hydroxy-1,5,5-trimethyl-7-oxabicyclo[4.1.0]heptan-6-yl]-3,7,12,16-tetramethyl-octadeca-1,3,5,7,9,11,13,15,17-nonaenylidene]-1,5,5-trimethyl-cyclohexane-1,3-diol

> <PUBCHEM_IUPAC_CAS_NAME>
(1R,3S)-6-[(3E,5E,7E,9E,11E,13E,15E,17E)-18-[(1R,3S,6S)-3-hydroxy-1,5,5-trimethyl-7-oxabicyclo[4.1.0]heptan-6-yl]-3,7,12,16-tetramethyloctadeca-1,3,5,7,9,11,13,15,17-nonaenylidene]-1,5,5-trimethylcyclohexane-1,3-diol

> <PUBCHEM_IUPAC_NAME>
(1R,3S)-6-[(3E,5E,7E,9E,11E,13E,15E,17E)-18-[(1R,3S,6S)-3-hydroxy-1,5,5-trimethyl-7-oxabicyclo[4.1.0]heptan-6-yl]-3,7,12,16-tetramethyloctadeca-1,3,5,7,9,11,13,15,17-nonaenylidene]-1,5,5-trimethylcyclohexane-1,3-diol

> <PUBCHEM_IUPAC_SYSTEMATIC_NAME>
(1R,3S)-1,5,5-trimethyl-6-[(3E,5E,7E,9E,11E,13E,15E,17E)-3,7,12,16-tetramethyl-18-[(1R,3S,6S)-1,5,5-trimethyl-3-oxidanyl-7-oxabicyclo[4.1.0]heptan-6-yl]octadeca-1,3,5,7,9,11,13,15,17-nonaenylidene]cyclohexane-1,3-diol

> <PUBCHEM_IUPAC_TRADITIONAL_NAME>
(1R,3S)-6-[(3E,5E,7E,9E,11E,13E,15E,17E)-18-[(1R,3S,6S)-3-hydroxy-1,5,5-trimethyl-7-oxabicyclo[4.1.0]heptan-6-yl]-3,7,12,16-tetramethyl-octadeca-1,3,5,7,9,11,13,15,17-nonaenylidene]-1,5,5-trimethyl-cyclohexane-1,3-diol

> <PUBCHEM_IUPAC_INCHI>
InChI=1S/C40H56O4/c1-29(17-13-19-31(3)21-22-35-36(5,6)25-33(41)27-38(35,9)43)15-11-12-16-30(2)18-14-20-32(4)23-24-40-37(7,8)26-34(42)28-39(40,10)44-40/h11-21,23-24,33-34,41-43H,25-28H2,1-10H3/b12-11+,17-13+,18-14+,24-23+,29-15+,30-16+,31-19+,32-20+/t22?,33-,34-,38+,39+,40-/m0/s1

> <PUBCHEM_IUPAC_INCHIKEY>
PGYAYSRVSAJXTE-CLONMANBSA-N

> <PUBCHEM_XLOGP3_AA>
8.7

> <PUBCHEM_EXACT_MASS>
600.41786

> <PUBCHEM_MOLECULAR_FORMULA>
C40H56O4

> <PUBCHEM_MOLECULAR_WEIGHT>
600.87024

> <PUBCHEM_OPENEYE_CAN_SMILES>
CC(=CC=CC=C(C)C=CC=C(C)C=C=C1C(CC(CC1(C)O)O)(C)C)C=CC=C(C)C=CC23C(CC(CC2(O3)C)O)(C)C

> <PUBCHEM_OPENEYE_ISO_SMILES>
C/C(=C\C=C\C=C(/C)\C=C\C=C(/C)\C=C=C1[C@](C[C@H](CC1(C)C)O)(C)O)/C=C/C=C(\C)/C=C/[C@]23[C@](O2)(C[C@H](CC3(C)C)O)C

> <PUBCHEM_CACTVS_TPSA>
73.2

> <PUBCHEM_MONOISOTOPIC_WEIGHT>
600.41786

> <PUBCHEM_TOTAL_CHARGE>
0

> <PUBCHEM_HEAVY_ATOM_COUNT>
44

> <PUBCHEM_ATOM_DEF_STEREO_COUNT>
5

> <PUBCHEM_ATOM_UDEF_STEREO_COUNT>
0

> <PUBCHEM_BOND_DEF_STEREO_COUNT>
8

> <PUBCHEM_BOND_UDEF_STEREO_COUNT>
0

> <PUBCHEM_ISOTOPIC_ATOM_COUNT>
0

> <PUBCHEM_COMPONENT_COUNT>
1

> <PUBCHEM_CACTVS_TAUTO_COUNT>
1

> <PUBCHEM_COORDINATE_TYPE>
1
5
255

> <PUBCHEM_BONDANNOTATIONS>
10  2  5
21  3  5
23  4  6
5  12  5
6  11  5

$$$$

