68085
  -OEChem-07051213002D

 24 26  0     0  0  0  0  0  0999 V2000
    6.4783   -1.5374    0.0000 O   0  0  0  0  0  0  0  0  0  0  0  0
    4.6660    1.2673    0.0000 O   0  0  0  0  0  0  0  0  0  0  0  0
    4.6660   -1.7327    0.0000 N   0  0  0  0  0  0  0  0  0  0  0  0
    3.8000   -0.2327    0.0000 C   0  0  0  0  0  0  0  0  0  0  0  0
    5.5321   -0.2327    0.0000 C   0  0  0  0  0  0  0  0  0  0  0  0
    4.6660    0.2673    0.0000 C   0  0  0  0  0  0  0  0  0  0  0  0
    3.8000   -1.2327    0.0000 C   0  0  0  0  0  0  0  0  0  0  0  0
    5.5321   -1.2327    0.0000 C   0  0  0  0  0  0  0  0  0  0  0  0
    2.9061    0.3020    0.0000 C   0  0  0  0  0  0  0  0  0  0  0  0
    6.4783    0.0721    0.0000 C   0  0  0  0  0  0  0  0  0  0  0  0
    2.9061   -1.7673    0.0000 C   0  0  0  0  0  0  0  0  0  0  0  0
    2.0000   -0.2119    0.0000 C   0  0  0  0  0  0  0  0  0  0  0  0
    7.0619   -0.7327    0.0000 C   0  0  0  0  0  0  0  0  0  0  0  0
    2.0000   -1.2535    0.0000 C   0  0  0  0  0  0  0  0  0  0  0  0
    3.8000    1.7673    0.0000 C   0  0  0  0  0  0  0  0  0  0  0  0
    2.9132    0.9220    0.0000 H   0  0  0  0  0  0  0  0  0  0  0  0
    6.6709    0.6614    0.0000 H   0  0  0  0  0  0  0  0  0  0  0  0
    2.9132   -2.3873    0.0000 H   0  0  0  0  0  0  0  0  0  0  0  0
    1.4643    0.1002    0.0000 H   0  0  0  0  0  0  0  0  0  0  0  0
    7.6819   -0.7327    0.0000 H   0  0  0  0  0  0  0  0  0  0  0  0
    1.4643   -1.5656    0.0000 H   0  0  0  0  0  0  0  0  0  0  0  0
    4.1100    2.3043    0.0000 H   0  0  0  0  0  0  0  0  0  0  0  0
    3.2631    2.0773    0.0000 H   0  0  0  0  0  0  0  0  0  0  0  0
    3.4900    1.2304    0.0000 H   0  0  0  0  0  0  0  0  0  0  0  0
  1  8  1  0  0  0  0
  1 13  1  0  0  0  0
  2  6  1  0  0  0  0
  2 15  1  0  0  0  0
  3  7  1  0  0  0  0
  3  8  2  0  0  0  0
  4  6  1  0  0  0  0
  4  7  1  0  0  0  0
  4  9  2  0  0  0  0
  5  6  2  0  0  0  0
  5  8  1  0  0  0  0
  5 10  1  0  0  0  0
  7 11  2  0  0  0  0
  9 12  1  0  0  0  0
  9 16  1  0  0  0  0
 10 13  2  0  0  0  0
 10 17  1  0  0  0  0
 11 14  1  0  0  0  0
 11 18  1  0  0  0  0
 12 14  2  0  0  0  0
 12 19  1  0  0  0  0
 13 20  1  0  0  0  0
 14 21  1  0  0  0  0
 15 22  1  0  0  0  0
 15 23  1  0  0  0  0
 15 24  1  0  0  0  0
M  END
> <PUBCHEM_COMPOUND_CID>
68085

> <PUBCHEM_COMPOUND_CANONICALIZED>
1

> <PUBCHEM_CACTVS_COMPLEXITY>
234

> <PUBCHEM_CACTVS_HBOND_ACCEPTOR>
3

> <PUBCHEM_CACTVS_HBOND_DONOR>
0

> <PUBCHEM_CACTVS_ROTATABLE_BOND>
1

> <PUBCHEM_CACTVS_SUBSKEYS>
AAADccByMAAAAAAAAAAAAAAAAAAAASAAAAA8QAAAAAAAAFix/gAAHgAAAAAADAyhngIyxvIIFECoAy1y1ACCiCAtIiAImCE2bNgMJ/bEtZuOOWjn5B3I6Yf+2fGeAAAAAAACAAAAAAAAAAQAAAAAAAAAAA==

> <PUBCHEM_IUPAC_OPENEYE_NAME>
4-methoxyfuro[2,3-b]quinoline

> <PUBCHEM_IUPAC_CAS_NAME>
4-methoxyfuro[2,3-b]quinoline

> <PUBCHEM_IUPAC_NAME>
4-methoxyfuro[2,3-b]quinoline

> <PUBCHEM_IUPAC_SYSTEMATIC_NAME>
4-methoxyfuro[2,3-b]quinoline

> <PUBCHEM_IUPAC_TRADITIONAL_NAME>
4-methoxyfuro[2,3-b]quinoline

> <PUBCHEM_IUPAC_INCHI>
InChI=1S/C12H9NO2/c1-14-11-8-4-2-3-5-10(8)13-12-9(11)6-7-15-12/h2-7H,1H3

> <PUBCHEM_IUPAC_INCHIKEY>
WIONIXOBNMDJFJ-UHFFFAOYSA-N

> <PUBCHEM_XLOGP3_AA>
2.7

> <PUBCHEM_EXACT_MASS>
199.063329

> <PUBCHEM_MOLECULAR_FORMULA>
C12H9NO2

> <PUBCHEM_MOLECULAR_WEIGHT>
199.20536

> <PUBCHEM_OPENEYE_CAN_SMILES>
COC1=C2C=COC2=NC3=CC=CC=C31

> <PUBCHEM_OPENEYE_ISO_SMILES>
COC1=C2C=COC2=NC3=CC=CC=C31

> <PUBCHEM_CACTVS_TPSA>
35.3

> <PUBCHEM_MONOISOTOPIC_WEIGHT>
199.063329

> <PUBCHEM_TOTAL_CHARGE>
0

> <PUBCHEM_HEAVY_ATOM_COUNT>
15

> <PUBCHEM_ATOM_DEF_STEREO_COUNT>
0

> <PUBCHEM_ATOM_UDEF_STEREO_COUNT>
0

> <PUBCHEM_BOND_DEF_STEREO_COUNT>
0

> <PUBCHEM_BOND_UDEF_STEREO_COUNT>
0

> <PUBCHEM_ISOTOPIC_ATOM_COUNT>
0

> <PUBCHEM_COMPONENT_COUNT>
1

> <PUBCHEM_CACTVS_TAUTO_COUNT>
1

> <PUBCHEM_COORDINATE_TYPE>
1
5
255

> <PUBCHEM_BONDANNOTATIONS>
1  13  8
1  8  8
10  13  8
11  14  8
12  14  8
3  7  8
3  8  8
4  6  8
4  7  8
4  9  8
5  10  8
5  6  8
5  8  8
7  11  8
9  12  8

$$$$

