441093
  -OEChem-07051212512D

 16 16  0     1  0  0  0  0  0999 V2000
    3.7320    1.5000    0.0000 Cl  0  0  0  0  0  0  0  0  0  0  0  0
    2.0000    0.5000    0.0000 Cl  0  0  0  0  0  0  0  0  0  0  0  0
    5.4641    0.5000    0.0000 Cl  0  0  0  0  0  0  0  0  0  0  0  0
    2.0000   -1.5000    0.0000 Cl  0  0  0  0  0  0  0  0  0  0  0  0
    5.4641   -1.5000    0.0000 Cl  0  0  0  0  0  0  0  0  0  0  0  0
    3.7320    0.5000    0.0000 C   0  0  1  0  0  0  0  0  0  0  0  0
    2.8660    0.0000    0.0000 C   0  0  2  0  0  0  0  0  0  0  0  0
    4.5981    0.0000    0.0000 C   0  0  2  0  0  0  0  0  0  0  0  0
    2.8660   -1.0000    0.0000 C   0  0  1  0  0  0  0  0  0  0  0  0
    4.5981   -1.0000    0.0000 C   0  0  0  0  0  0  0  0  0  0  0  0
    3.7320   -1.5000    0.0000 C   0  0  0  0  0  0  0  0  0  0  0  0
    4.2690    0.8100    0.0000 H   0  0  0  0  0  0  0  0  0  0  0  0
    2.8660    0.6200    0.0000 H   0  0  0  0  0  0  0  0  0  0  0  0
    4.5981    0.6200    0.0000 H   0  0  0  0  0  0  0  0  0  0  0  0
    2.8660   -1.6200    0.0000 H   0  0  0  0  0  0  0  0  0  0  0  0
    3.7320   -2.1200    0.0000 H   0  0  0  0  0  0  0  0  0  0  0  0
  6  1  1  6  0  0  0
  7  2  1  6  0  0  0
  8  3  1  1  0  0  0
  9  4  1  1  0  0  0
  5 10  1  0  0  0  0
  6  7  1  0  0  0  0
  6  8  1  0  0  0  0
  6 12  1  0  0  0  0
  7  9  1  0  0  0  0
  7 13  1  0  0  0  0
  8 10  1  0  0  0  0
  8 14  1  0  0  0  0
  9 11  1  0  0  0  0
  9 15  1  0  0  0  0
 10 11  2  0  0  0  0
 11 16  1  0  0  0  0
M  END
> <PUBCHEM_COMPOUND_CID>
441093

> <PUBCHEM_COMPOUND_CANONICALIZED>
1

> <PUBCHEM_CACTVS_COMPLEXITY>
178

> <PUBCHEM_CACTVS_HBOND_ACCEPTOR>
0

> <PUBCHEM_CACTVS_HBOND_DONOR>
0

> <PUBCHEM_CACTVS_ROTATABLE_BOND>
0

> <PUBCHEM_CACTVS_SUBSKEYS>
AAADcYBgAAAHAAAAAAAAAAAAAAAAAAAAAAAgAAAAAAAAAAAAAAAAGAIAAAAACAOAAEAAAAAAAACAACBCAAAAAAAgAAAACEAAAggAAAIBAQAAAAAAgAAIAAMAAAAAAAAAAAAAAAAAAAAAAAAAAAAAAAAAAA==

> <PUBCHEM_IUPAC_OPENEYE_NAME>
(3R,4S,5S,6R)-1,3,4,5,6-pentachlorocyclohexene

> <PUBCHEM_IUPAC_CAS_NAME>
(3R,4S,5S,6R)-1,3,4,5,6-pentachlorocyclohexene

> <PUBCHEM_IUPAC_NAME>
(3R,4S,5S,6R)-1,3,4,5,6-pentachlorocyclohexene

> <PUBCHEM_IUPAC_SYSTEMATIC_NAME>
(3R,4S,5S,6R)-1,3,4,5,6-pentakis(chloranyl)cyclohexene

> <PUBCHEM_IUPAC_TRADITIONAL_NAME>
(3R,4S,5S,6R)-1,3,4,5,6-pentachlorocyclohexene

> <PUBCHEM_IUPAC_INCHI>
InChI=1S/C6H5Cl5/c7-2-1-3(8)5(10)6(11)4(2)9/h1-2,4-6H/t2-,4+,5+,6+/m1/s1

> <PUBCHEM_IUPAC_INCHIKEY>
MQYAVRUCONBHOR-JSTMLOLSSA-N

> <PUBCHEM_XLOGP3>
3.8

> <PUBCHEM_EXACT_MASS>
253.880438

> <PUBCHEM_MOLECULAR_FORMULA>
C6H5Cl5

> <PUBCHEM_MOLECULAR_WEIGHT>
254.3689

> <PUBCHEM_OPENEYE_CAN_SMILES>
C1=C(C(C(C(C1Cl)Cl)Cl)Cl)Cl

> <PUBCHEM_OPENEYE_ISO_SMILES>
C1=C([C@@H]([C@H]([C@H]([C@@H]1Cl)Cl)Cl)Cl)Cl

> <PUBCHEM_CACTVS_TPSA>
0

> <PUBCHEM_MONOISOTOPIC_WEIGHT>
251.883389

> <PUBCHEM_TOTAL_CHARGE>
0

> <PUBCHEM_HEAVY_ATOM_COUNT>
11

> <PUBCHEM_ATOM_DEF_STEREO_COUNT>
4

> <PUBCHEM_ATOM_UDEF_STEREO_COUNT>
0

> <PUBCHEM_BOND_DEF_STEREO_COUNT>
0

> <PUBCHEM_BOND_UDEF_STEREO_COUNT>
0

> <PUBCHEM_ISOTOPIC_ATOM_COUNT>
0

> <PUBCHEM_COMPONENT_COUNT>
1

> <PUBCHEM_CACTVS_TAUTO_COUNT>
1

> <PUBCHEM_COORDINATE_TYPE>
1
5
255

> <PUBCHEM_BONDANNOTATIONS>
6  1  6
7  2  6
8  3  5
9  4  5

$$$$

