11954198
  -OEChem-07051213073D

 16 16  0     0  0  0  0  0  0999 V2000
   -0.6463    2.1318    0.0000 O   0  0  0  0  0  0  0  0  0  0  0  0
   -2.7418    0.8340   -0.0001 O   0  0  0  0  0  0  0  0  0  0  0  0
   -2.6348   -1.5428   -0.0005 O   0  0  0  0  0  0  0  0  0  0  0  0
    3.4303   -0.0370   -0.0008 O   0  0  0  0  0  0  0  0  0  0  0  0
    1.3832    1.0377    0.0001 N   0  0  0  0  0  0  0  0  0  0  0  0
   -0.6584   -0.2630    0.0000 C   0  0  0  0  0  0  0  0  0  0  0  0
   -0.0092    1.0819    0.0002 C   0  0  0  0  0  0  0  0  0  0  0  0
    0.1684   -1.4454    0.0003 C   0  0  0  0  0  0  0  0  0  0  0  0
    1.5032   -1.3894    0.0005 C   0  0  0  0  0  0  0  0  0  0  0  0
    2.2028   -0.0844    0.0001 C   0  0  0  0  0  0  0  0  0  0  0  0
   -1.9976   -0.3233    0.0001 C   0  0  0  0  0  0  0  0  0  0  0  0
   -0.3032   -2.4236    0.0004 H   0  0  0  0  0  0  0  0  0  0  0  0
    1.8575    1.9367   -0.0002 H   0  0  0  0  0  0  0  0  0  0  0  0
    2.1063   -2.2902    0.0008 H   0  0  0  0  0  0  0  0  0  0  0  0
   -3.6772    0.5694   -0.0004 H   0  0  0  0  0  0  0  0  0  0  0  0
   -3.5901   -1.3633   -0.0007 H   0  0  0  0  0  0  0  0  0  0  0  0
  1  7  2  0  0  0  0
  2 11  1  0  0  0  0
  2 15  1  0  0  0  0
  3 11  1  0  0  0  0
  3 16  1  0  0  0  0
  4 10  2  0  0  0  0
  5  7  1  0  0  0  0
  5 10  1  0  0  0  0
  5 13  1  0  0  0  0
  6  7  1  0  0  0  0
  6  8  1  0  0  0  0
  6 11  2  0  0  0  0
  8  9  2  0  0  0  0
  8 12  1  0  0  0  0
  9 10  1  0  0  0  0
  9 14  1  0  0  0  0
M  END
> <PUBCHEM_COMPOUND_CID>
11954198

> <PUBCHEM_CONFORMER_RMSD>
0.4

> <PUBCHEM_CONFORMER_DIVERSEORDER>
1

> <PUBCHEM_MMFF94_PARTIAL_CHARGES>
16
1 -0.57
10 0.62
11 0.15
12 0.15
13 0.37
14 0.15
15 0.45
16 0.45
2 -0.53
3 -0.53
4 -0.57
5 -0.49
6 0.01
7 0.62
8 -0.15
9 -0.14

> <PUBCHEM_EFFECTIVE_ROTOR_COUNT>
0.2

> <PUBCHEM_PHARMACOPHORE_FEATURES>
7
1 1 acceptor
1 2 donor
1 3 donor
1 4 acceptor
1 5 donor
3 2 3 11 anion
6 5 6 7 8 9 10 rings

> <PUBCHEM_HEAVY_ATOM_COUNT>
11

> <PUBCHEM_ATOM_DEF_STEREO_COUNT>
0

> <PUBCHEM_ATOM_UDEF_STEREO_COUNT>
0

> <PUBCHEM_BOND_DEF_STEREO_COUNT>
0

> <PUBCHEM_BOND_UDEF_STEREO_COUNT>
0

> <PUBCHEM_ISOTOPIC_ATOM_COUNT>
0

> <PUBCHEM_COMPONENT_COUNT>
1

> <PUBCHEM_CACTVS_TAUTO_COUNT>
6

> <PUBCHEM_CONFORMER_ID>
00B6681600000001

> <PUBCHEM_MMFF94_ENERGY>
23.5367

> <PUBCHEM_FEATURE_SELFOVERLAP>
35.555

> <PUBCHEM_SHAPE_FINGERPRINT>
10857977 72 18337682931282513890
12032990 46 18338227181112170270
12897270 3 18409730689966627110
14128692 85 18189054188014004215
14325111 11 18410575067783890082
16945 1 18338799030052790308
18185500 45 18409450267172559855
193761 8 17834394901235618054
20201158 50 18413111675331991543
21040471 1 18266741281575381282
23402655 69 18264787617607995797
23552423 10 18272084998111906878
241688 4 18410577249432214921
2748010 2 18266181634277847804
29004967 10 18411978048636467811
5084963 1 18187923911371898291
528886 8 18409736174608215659

> <PUBCHEM_SHAPE_MULTIPOLES>
197.92
3.9
1.78
0.57
0.55
0.26
0
-0.43
0
-0.46
0
0.01
-0.02
0

> <PUBCHEM_SHAPE_SELFOVERLAP>
416.438

> <PUBCHEM_SHAPE_VOLUME>
108.3

> <PUBCHEM_COORDINATE_TYPE>
2
5
10

$$$$

