17396392
  -OEChem-06241222563D

 30 32  0     0  0  0  0  0  0999 V2000
    2.9421   -2.6523   -0.0285 Cl  0  0  0  0  0  0  0  0  0  0  0  0
    6.1431   -2.0160    0.2583 Cl  0  0  0  0  0  0  0  0  0  0  0  0
   -5.9935   -1.3673    0.4139 S   0  0  0  0  0  0  0  0  0  0  0  0
    1.7496    2.3644   -0.0785 S   0  0  0  0  0  0  0  0  0  0  0  0
   -4.8384   -0.7614   -1.8725 O   0  0  0  0  0  0  0  0  0  0  0  0
   -1.6673   -0.8159   -0.4079 O   0  0  0  0  0  0  0  0  0  0  0  0
   -4.1230    0.3583    0.0636 N   0  0  0  0  0  0  0  0  0  0  0  0
   -0.6309    1.3013   -0.2956 N   0  0  0  0  0  0  0  0  0  0  0  0
    1.2698   -0.1688   -0.1482 N   0  0  0  0  0  0  0  0  0  0  0  0
   -4.3117    0.3225    1.5015 C   0  0  0  0  0  0  0  0  0  0  0  0
   -3.0507    1.1524   -0.5025 C   0  0  0  0  0  0  0  0  0  0  0  0
   -5.7064   -0.2028    1.7722 C   0  0  0  0  0  0  0  0  0  0  0  0
   -4.8810   -0.5338   -0.6729 C   0  0  0  0  0  0  0  0  0  0  0  0
   -1.7312    0.4091   -0.4000 C   0  0  0  0  0  0  0  0  0  0  0  0
    0.7039    1.0150   -0.1839 C   0  0  0  0  0  0  0  0  0  0  0  0
    2.6442   -0.0233   -0.0265 C   0  0  0  0  0  0  0  0  0  0  0  0
    3.0998    1.2975    0.0273 C   0  0  0  0  0  0  0  0  0  0  0  0
    3.5896   -1.0696    0.0453 C   0  0  0  0  0  0  0  0  0  0  0  0
    4.4641    1.6068    0.1496 C   0  0  0  0  0  0  0  0  0  0  0  0
    4.9493   -0.7688    0.1671 C   0  0  0  0  0  0  0  0  0  0  0  0
    5.3787    0.5527    0.2183 C   0  0  0  0  0  0  0  0  0  0  0  0
   -4.1825    1.3237    1.9254 H   0  0  0  0  0  0  0  0  0  0  0  0
   -3.5481   -0.3387    1.9278 H   0  0  0  0  0  0  0  0  0  0  0  0
   -3.2488    1.3250   -1.5658 H   0  0  0  0  0  0  0  0  0  0  0  0
   -3.0138    2.1173    0.0122 H   0  0  0  0  0  0  0  0  0  0  0  0
   -5.7913   -0.6811    2.7512 H   0  0  0  0  0  0  0  0  0  0  0  0
   -6.4464    0.6007    1.7007 H   0  0  0  0  0  0  0  0  0  0  0  0
   -0.8392    2.2967   -0.3070 H   0  0  0  0  0  0  0  0  0  0  0  0
    4.8064    2.6363    0.1904 H   0  0  0  0  0  0  0  0  0  0  0  0
    6.4364    0.7891    0.3131 H   0  0  0  0  0  0  0  0  0  0  0  0
  1 18  1  0  0  0  0
  2 20  1  0  0  0  0
  3 12  1  0  0  0  0
  3 13  1  0  0  0  0
  4 15  1  0  0  0  0
  4 17  1  0  0  0  0
  5 13  2  0  0  0  0
  6 14  2  0  0  0  0
  7 10  1  0  0  0  0
  7 11  1  0  0  0  0
  7 13  1  0  0  0  0
  8 14  1  0  0  0  0
  8 15  1  0  0  0  0
  8 28  1  0  0  0  0
  9 15  2  0  0  0  0
  9 16  1  0  0  0  0
 10 12  1  0  0  0  0
 10 22  1  0  0  0  0
 10 23  1  0  0  0  0
 11 14  1  0  0  0  0
 11 24  1  0  0  0  0
 11 25  1  0  0  0  0
 12 26  1  0  0  0  0
 12 27  1  0  0  0  0
 16 17  2  0  0  0  0
 16 18  1  0  0  0  0
 17 19  1  0  0  0  0
 18 20  2  0  0  0  0
 19 21  2  0  0  0  0
 19 29  1  0  0  0  0
 20 21  1  0  0  0  0
 21 30  1  0  0  0  0
M  END
> <PUBCHEM_COMPOUND_CID>
17396392

> <PUBCHEM_CONFORMER_RMSD>
0.8

> <PUBCHEM_CONFORMER_DIVERSEORDER>
1
13
32
28
18
20
35
12
33
15
24
36
29
30
14
34
16
6
31
27
23
8
9
21
11
19
2
25
10
17
22
7
5
3
4
26

> <PUBCHEM_MMFF94_PARTIAL_CHARGES>
24
1 -0.18
10 0.3
11 0.36
12 0.23
13 0.77
14 0.57
15 0.44
16 0.23
17 0.04
18 0.18
19 -0.15
2 -0.18
20 0.18
21 -0.15
28 0.37
29 0.15
3 -0.37
30 0.15
4 -0.08
5 -0.57
6 -0.57
7 -0.66
8 -0.49
9 -0.57

> <PUBCHEM_EFFECTIVE_ROTOR_COUNT>
4.8

> <PUBCHEM_PHARMACOPHORE_FEATURES>
5
1 6 acceptor
1 8 donor
5 3 7 10 12 13 rings
5 4 9 15 16 17 rings
6 16 17 18 19 20 21 rings

> <PUBCHEM_HEAVY_ATOM_COUNT>
21

> <PUBCHEM_ATOM_DEF_STEREO_COUNT>
0

> <PUBCHEM_ATOM_UDEF_STEREO_COUNT>
0

> <PUBCHEM_BOND_DEF_STEREO_COUNT>
0

> <PUBCHEM_BOND_UDEF_STEREO_COUNT>
0

> <PUBCHEM_ISOTOPIC_ATOM_COUNT>
0

> <PUBCHEM_COMPONENT_COUNT>
1

> <PUBCHEM_CACTVS_TAUTO_COUNT>
3

> <PUBCHEM_CONFORMER_ID>
010972A800000001

> <PUBCHEM_MMFF94_ENERGY>
38.2903

> <PUBCHEM_FEATURE_SELFOVERLAP>
25.443

> <PUBCHEM_SHAPE_FINGERPRINT>
10912923 1 17748827380352286213
11595378 159 16153979261555949819
12107183 9 17683794789447514689
12236239 1 17894347774131509057
12596602 18 17240766163864680922
12616971 3 18113901550211005197
13167823 11 18259706687896064615
13402501 40 18131064930984271338
13533116 47 18334012783492505856
13668630 136 17989486291181146667
13685833 64 18273210885724659003
13782708 43 17703513293784253898
13862211 1 18340492252780832642
13955234 65 18337957792864663944
14123256 34 18340199791214624758
1420 363 17918272043545721385
14341114 176 18411695478443232961
146900 427 18040718026623671288
14848160 23 17775568628378720409
14849402 71 17822858546571229352
14863182 85 18409440410966642038
15188451 53 16878240675255167943
15510800 12 17273682175680124747
15716309 27 18335137592350918027
17627616 140 17203339931060540547
17844677 252 18411978078870518181
17857418 61 18334300851069844983
17870717 6 16271927095884042363
18222031 100 16200149885125886332
19489759 90 15626230109016623941
200 152 18335422352930358233
20028762 73 18187372038619922302
20281389 69 6555412011537825059
20645477 70 18342742922965072732
21197605 99 18337667490881242754
21267235 1 18409443731044673222
21623969 137 18343295959664918451
21682296 61 18340764944037856539
220451 1 18187359896234932628
22224240 67 18335430015774461352
2303208 19 17704069586237244187
23402539 116 18186805781541214845
23522609 53 18118936200996810896
23557571 272 17203338848311426349
23559900 14 18272094838341327121
239999 70 17847059969976417304
314194 84 18409451379500387806
33824 294 18412830196651053394
34797466 226 16343411834835156172
3663271 9 17967809423317493083
4073 2 18060415833074511809
46194498 28 17489870410779972412
465052 167 18408321121061797478
5104073 3 18337676420402640272
542803 24 16660361467573597089
5758199 1 18187929401237349816
8863177 126 18131059399134946546

> <PUBCHEM_SHAPE_MULTIPOLES>
416.93
16.42
2.21
1.07
9.29
0.37
0.1
6.91
2.83
-2.97
-0.04
2.1
0.11
-0.11

> <PUBCHEM_SHAPE_SELFOVERLAP>
853.794

> <PUBCHEM_SHAPE_VOLUME>
244.4

> <PUBCHEM_COORDINATE_TYPE>
2
5
10

$$$$

