19700
  -OEChem-07051213142D

 87 89  0     1  0  0  0  0  0999 V2000
    4.6340   -4.2631    0.0000 S   0  0  0  0  0  0  0  0  0  0  0  0
    4.0000    4.0311    0.0000 S   0  0  0  0  0  0  0  0  0  0  0  0
   14.5000   -3.7631    0.0000 S   0  0  0  0  0  0  0  0  0  0  0  0
    3.7679   -5.7631    0.0000 Na  0  3  0  0  0  0  0  0  0  0  0  0
    4.0000    5.7631    0.0000 Na  0  3  0  0  0  0  0  0  0  0  0  0
    4.6339   -5.2631    0.0000 O   0  5  0  0  0  0  0  0  0  0  0  0
    3.6340   -4.2631    0.0000 O   0  0  0  0  0  0  0  0  0  0  0  0
    4.6340   -3.2631    0.0000 O   0  0  0  0  0  0  0  0  0  0  0  0
    4.5000    4.8971    0.0000 O   0  5  0  0  0  0  0  0  0  0  0  0
    3.1340    4.5311    0.0000 O   0  0  0  0  0  0  0  0  0  0  0  0
    4.8660    3.5311    0.0000 O   0  0  0  0  0  0  0  0  0  0  0  0
   15.0000   -4.6292    0.0000 O   0  5  0  0  0  0  0  0  0  0  0  0
   15.3660   -3.2631    0.0000 O   0  0  0  0  0  0  0  0  0  0  0  0
   13.6340   -4.2631    0.0000 O   0  0  0  0  0  0  0  0  0  0  0  0
    5.0000    0.5670    0.0000 N   0  0  3  0  0  0  0  0  0  0  0  0
   11.0000   -2.8971    0.0000 N   0  3  0  0  0  0  0  0  0  0  0  0
    7.0000   -2.8971    0.0000 C   0  0  0  0  0  0  0  0  0  0  0  0
    6.5000   -2.0311    0.0000 C   0  0  0  0  0  0  0  0  0  0  0  0
    8.0000   -2.8971    0.0000 C   0  0  0  0  0  0  0  0  0  0  0  0
    5.5000   -0.2990    0.0000 C   0  0  0  0  0  0  0  0  0  0  0  0
   10.0000   -2.8971    0.0000 C   0  0  0  0  0  0  0  0  0  0  0  0
    4.0000    0.5670    0.0000 C   0  0  0  0  0  0  0  0  0  0  0  0
   11.5000   -2.0311    0.0000 C   0  0  0  0  0  0  0  0  0  0  0  0
    6.5000   -3.7631    0.0000 C   0  0  0  0  0  0  0  0  0  0  0  0
    5.5000    1.4330    0.0000 C   0  0  0  0  0  0  0  0  0  0  0  0
   11.5000   -3.7631    0.0000 C   0  0  0  0  0  0  0  0  0  0  0  0
    5.5000   -2.0311    0.0000 C   0  0  0  0  0  0  0  0  0  0  0  0
    7.0000   -1.1651    0.0000 C   0  0  0  0  0  0  0  0  0  0  0  0
    5.0000   -1.1651    0.0000 C   0  0  0  0  0  0  0  0  0  0  0  0
    6.5000   -0.2990    0.0000 C   0  0  0  0  0  0  0  0  0  0  0  0
    8.5000   -2.0311    0.0000 C   0  0  0  0  0  0  0  0  0  0  0  0
    8.5000   -3.7631    0.0000 C   0  0  0  0  0  0  0  0  0  0  0  0
    9.5000   -2.0311    0.0000 C   0  0  0  0  0  0  0  0  0  0  0  0
    9.5000   -3.7631    0.0000 C   0  0  0  0  0  0  0  0  0  0  0  0
    3.5000    1.4330    0.0000 C   0  0  0  0  0  0  0  0  0  0  0  0
   12.5000   -2.0311    0.0000 C   0  0  0  0  0  0  0  0  0  0  0  0
    5.6340   -4.2631    0.0000 C   0  0  0  0  0  0  0  0  0  0  0  0
    7.3660   -4.2631    0.0000 C   0  0  0  0  0  0  0  0  0  0  0  0
    6.5000    1.4330    0.0000 C   0  0  0  0  0  0  0  0  0  0  0  0
   11.0000   -4.6292    0.0000 C   0  0  0  0  0  0  0  0  0  0  0  0
    4.0000    2.2990    0.0000 C   0  0  0  0  0  0  0  0  0  0  0  0
   13.0000   -2.8971    0.0000 C   0  0  0  0  0  0  0  0  0  0  0  0
    2.5000    1.4330    0.0000 C   0  0  0  0  0  0  0  0  0  0  0  0
   13.0000   -1.1651    0.0000 C   0  0  0  0  0  0  0  0  0  0  0  0
    5.6340   -5.2631    0.0000 C   0  0  0  0  0  0  0  0  0  0  0  0
    3.5000    3.1651    0.0000 C   0  0  0  0  0  0  0  0  0  0  0  0
   14.0000   -2.8971    0.0000 C   0  0  0  0  0  0  0  0  0  0  0  0
    7.3660   -5.2631    0.0000 C   0  0  0  0  0  0  0  0  0  0  0  0
    6.5000   -5.7631    0.0000 C   0  0  0  0  0  0  0  0  0  0  0  0
    2.0000    2.2990    0.0000 C   0  0  0  0  0  0  0  0  0  0  0  0
   14.0000   -1.1651    0.0000 C   0  0  0  0  0  0  0  0  0  0  0  0
    2.5000    3.1651    0.0000 C   0  0  0  0  0  0  0  0  0  0  0  0
   14.5000   -2.0311    0.0000 C   0  0  0  0  0  0  0  0  0  0  0  0
    3.4174    0.3549    0.0000 H   0  0  0  0  0  0  0  0  0  0  0  0
    4.1077   -0.0436    0.0000 H   0  0  0  0  0  0  0  0  0  0  0  0
   11.6077   -1.4205    0.0000 H   0  0  0  0  0  0  0  0  0  0  0  0
   10.9174   -1.8190    0.0000 H   0  0  0  0  0  0  0  0  0  0  0  0
    5.6077    2.0436    0.0000 H   0  0  0  0  0  0  0  0  0  0  0  0
    4.9174    1.6451    0.0000 H   0  0  0  0  0  0  0  0  0  0  0  0
   11.9749   -4.1617    0.0000 H   0  0  0  0  0  0  0  0  0  0  0  0
   11.9749   -3.3646    0.0000 H   0  0  0  0  0  0  0  0  0  0  0  0
    5.1900   -2.5680    0.0000 H   0  0  0  0  0  0  0  0  0  0  0  0
    7.6200   -1.1651    0.0000 H   0  0  0  0  0  0  0  0  0  0  0  0
    4.3800   -1.1651    0.0000 H   0  0  0  0  0  0  0  0  0  0  0  0
    6.8100    0.2379    0.0000 H   0  0  0  0  0  0  0  0  0  0  0  0
    8.1900   -1.4942    0.0000 H   0  0  0  0  0  0  0  0  0  0  0  0
    8.1900   -4.3001    0.0000 H   0  0  0  0  0  0  0  0  0  0  0  0
    9.8100   -1.4942    0.0000 H   0  0  0  0  0  0  0  0  0  0  0  0
    9.8100   -4.3001    0.0000 H   0  0  0  0  0  0  0  0  0  0  0  0
    7.9030   -3.9531    0.0000 H   0  0  0  0  0  0  0  0  0  0  0  0
    6.5000    0.8130    0.0000 H   0  0  0  0  0  0  0  0  0  0  0  0
    7.1200    1.4330    0.0000 H   0  0  0  0  0  0  0  0  0  0  0  0
    6.5000    2.0530    0.0000 H   0  0  0  0  0  0  0  0  0  0  0  0
   10.4631   -4.3192    0.0000 H   0  0  0  0  0  0  0  0  0  0  0  0
   10.6900   -5.1661    0.0000 H   0  0  0  0  0  0  0  0  0  0  0  0
   11.5369   -4.9392    0.0000 H   0  0  0  0  0  0  0  0  0  0  0  0
    4.6200    2.2990    0.0000 H   0  0  0  0  0  0  0  0  0  0  0  0
   12.6900   -3.4340    0.0000 H   0  0  0  0  0  0  0  0  0  0  0  0
    2.1900    0.8961    0.0000 H   0  0  0  0  0  0  0  0  0  0  0  0
   12.6900   -0.6281    0.0000 H   0  0  0  0  0  0  0  0  0  0  0  0
    5.0970   -5.5731    0.0000 H   0  0  0  0  0  0  0  0  0  0  0  0
    7.9030   -5.5731    0.0000 H   0  0  0  0  0  0  0  0  0  0  0  0
    6.5000   -6.3831    0.0000 H   0  0  0  0  0  0  0  0  0  0  0  0
    1.3800    2.2990    0.0000 H   0  0  0  0  0  0  0  0  0  0  0  0
   14.3100   -0.6281    0.0000 H   0  0  0  0  0  0  0  0  0  0  0  0
    2.1900    3.7020    0.0000 H   0  0  0  0  0  0  0  0  0  0  0  0
   15.1200   -2.0311    0.0000 H   0  0  0  0  0  0  0  0  0  0  0  0
  1  6  1  0  0  0  0
  1  7  2  0  0  0  0
  1  8  2  0  0  0  0
  1 37  1  0  0  0  0
  2  9  1  0  0  0  0
  2 10  2  0  0  0  0
  2 11  2  0  0  0  0
  2 46  1  0  0  0  0
  3 12  1  0  0  0  0
  3 13  2  0  0  0  0
  3 14  2  0  0  0  0
  3 47  1  0  0  0  0
 15 20  1  0  0  0  0
 15 22  1  0  0  0  0
 15 25  1  0  0  0  0
 16 21  2  0  0  0  0
 16 23  1  0  0  0  0
 16 26  1  0  0  0  0
 17 18  1  0  0  0  0
 17 19  2  0  0  0  0
 17 24  1  0  0  0  0
 18 27  2  0  0  0  0
 18 28  1  0  0  0  0
 19 31  1  0  0  0  0
 19 32  1  0  0  0  0
 20 29  2  0  0  0  0
 20 30  1  0  0  0  0
 21 33  1  0  0  0  0
 21 34  1  0  0  0  0
 22 35  1  0  0  0  0
 22 54  1  0  0  0  0
 22 55  1  0  0  0  0
 23 36  1  0  0  0  0
 23 56  1  0  0  0  0
 23 57  1  0  0  0  0
 24 37  1  0  0  0  0
 24 38  2  0  0  0  0
 25 39  1  0  0  0  0
 25 58  1  0  0  0  0
 25 59  1  0  0  0  0
 26 40  1  0  0  0  0
 26 60  1  0  0  0  0
 26 61  1  0  0  0  0
 27 29  1  0  0  0  0
 27 62  1  0  0  0  0
 28 30  2  0  0  0  0
 28 63  1  0  0  0  0
 29 64  1  0  0  0  0
 30 65  1  0  0  0  0
 31 33  2  0  0  0  0
 31 66  1  0  0  0  0
 32 34  2  0  0  0  0
 32 67  1  0  0  0  0
 33 68  1  0  0  0  0
 34 69  1  0  0  0  0
 35 41  2  0  0  0  0
 35 43  1  0  0  0  0
 36 42  2  0  0  0  0
 36 44  1  0  0  0  0
 37 45  2  0  0  0  0
 38 48  1  0  0  0  0
 38 70  1  0  0  0  0
 39 71  1  0  0  0  0
 39 72  1  0  0  0  0
 39 73  1  0  0  0  0
 40 74  1  0  0  0  0
 40 75  1  0  0  0  0
 40 76  1  0  0  0  0
 41 46  1  0  0  0  0
 41 77  1  0  0  0  0
 42 47  1  0  0  0  0
 42 78  1  0  0  0  0
 43 50  2  0  0  0  0
 43 79  1  0  0  0  0
 44 51  2  0  0  0  0
 44 80  1  0  0  0  0
 45 49  1  0  0  0  0
 45 81  1  0  0  0  0
 46 52  2  0  0  0  0
 47 53  2  0  0  0  0
 48 49  2  0  0  0  0
 48 82  1  0  0  0  0
 49 83  1  0  0  0  0
 50 52  1  0  0  0  0
 50 84  1  0  0  0  0
 51 53  1  0  0  0  0
 51 85  1  0  0  0  0
 52 86  1  0  0  0  0
 53 87  1  0  0  0  0
M  CHG  6   4   1   5   1   6  -1   9  -1  12  -1  16   1
M  END
> <PUBCHEM_COMPOUND_CID>
19700

> <PUBCHEM_COMPOUND_CANONICALIZED>
1

> <PUBCHEM_CACTVS_COMPLEXITY>
1510

> <PUBCHEM_CACTVS_HBOND_ACCEPTOR>
10

> <PUBCHEM_CACTVS_HBOND_DONOR>
0

> <PUBCHEM_CACTVS_ROTATABLE_BOND>
9

> <PUBCHEM_CACTVS_SUBSKEYS>
AAADcfB/PDBgAAAAAAAAAAAAAAAAAAAAAAAwYMGCAAAAAAABVAAAHAQAAAAADAjBWAQywYMAAAKgAyRiRHDCAEAhAgAIiBgYZJgIICLAkZGEIAhggADIyAcQgMAOCAAAgAAEAAAQAAEAAAgAAAAAAAAAAA==

> <PUBCHEM_IUPAC_OPENEYE_NAME>
disodium 2-[[4-[ethyl-[(3-sulfonatophenyl)methyl]amino]phenyl]-[4-[ethyl-[(3-sulfonatophenyl)methyl]iminio]cyclohexa-2,5-dien-1-ylidene]methyl]benzenesulfonate

> <PUBCHEM_IUPAC_CAS_NAME>
disodium 2-[[4-[ethyl-[(3-sulfonatophenyl)methyl]amino]phenyl]-[4-[ethyl-[(3-sulfonatophenyl)methyl]iminio]-1-cyclohexa-2,5-dienylidene]methyl]benzenesulfonate

> <PUBCHEM_IUPAC_NAME>
disodium 2-[[4-[ethyl-[(3-sulfonatophenyl)methyl]amino]phenyl]-[4-[ethyl-[(3-sulfonatophenyl)methyl]azaniumylidene]cyclohexa-2,5-dien-1-ylidene]methyl]benzenesulfonate

> <PUBCHEM_IUPAC_SYSTEMATIC_NAME>
disodium 2-[[4-[ethyl-[(3-sulfonatophenyl)methyl]amino]phenyl]-[4-[ethyl-[(3-sulfonatophenyl)methyl]azaniumylidene]cyclohexa-2,5-dien-1-ylidene]methyl]benzenesulfonate

> <PUBCHEM_IUPAC_TRADITIONAL_NAME>
disodium 2-[[4-[ethyl-(3-sulfonatobenzyl)amino]phenyl]-[4-[ethyl-(3-sulfonatobenzyl)iminio]cyclohexa-2,5-dien-1-ylidene]methyl]besylate

> <PUBCHEM_IUPAC_INCHI>
InChI=1S/C37H36N2O9S3.2Na/c1-3-38(25-27-9-7-11-33(23-27)49(40,41)42)31-19-15-29(16-20-31)37(35-13-5-6-14-36(35)51(46,47)48)30-17-21-32(22-18-30)39(4-2)26-28-10-8-12-34(24-28)50(43,44)45;;/h5-24H,3-4,25-26H2,1-2H3,(H2-,40,41,42,43,44,45,46,47,48);;/q;2*+1/p-2

> <PUBCHEM_IUPAC_INCHIKEY>
SGHZXLIDFTYFHQ-UHFFFAOYSA-L

> <PUBCHEM_EXACT_MASS>
792.122182

> <PUBCHEM_MOLECULAR_FORMULA>
C37H34N2Na2O9S3

> <PUBCHEM_MOLECULAR_WEIGHT>
792.848399

> <PUBCHEM_OPENEYE_CAN_SMILES>
CCN(CC1=CC(=CC=C1)S(=O)(=O)[O-])C2=CC=C(C=C2)C(=C3C=CC(=[N+](CC)CC4=CC(=CC=C4)S(=O)(=O)[O-])C=C3)C5=CC=CC=C5S(=O)(=O)[O-].[Na+].[Na+]

> <PUBCHEM_OPENEYE_ISO_SMILES>
CCN(CC1=CC(=CC=C1)S(=O)(=O)[O-])C2=CC=C(C=C2)C(=C3C=CC(=[N+](CC)CC4=CC(=CC=C4)S(=O)(=O)[O-])C=C3)C5=CC=CC=C5S(=O)(=O)[O-].[Na+].[Na+]

> <PUBCHEM_CACTVS_TPSA>
203

> <PUBCHEM_MONOISOTOPIC_WEIGHT>
792.122182

> <PUBCHEM_TOTAL_CHARGE>
0

> <PUBCHEM_HEAVY_ATOM_COUNT>
53

> <PUBCHEM_ATOM_DEF_STEREO_COUNT>
0

> <PUBCHEM_ATOM_UDEF_STEREO_COUNT>
0

> <PUBCHEM_BOND_DEF_STEREO_COUNT>
0

> <PUBCHEM_BOND_UDEF_STEREO_COUNT>
0

> <PUBCHEM_ISOTOPIC_ATOM_COUNT>
0

> <PUBCHEM_COMPONENT_COUNT>
3

> <PUBCHEM_CACTVS_TAUTO_COUNT>
1

> <PUBCHEM_COORDINATE_TYPE>
1
5
255

> <PUBCHEM_BONDANNOTATIONS>
18  27  8
18  28  8
20  29  8
20  30  8
24  37  8
24  38  8
27  29  8
28  30  8
35  41  8
35  43  8
36  42  8
36  44  8
37  45  8
38  48  8
41  46  8
42  47  8
43  50  8
44  51  8
45  49  8
46  52  8
47  53  8
48  49  8
50  52  8
51  53  8

$$$$

