442247
  -OEChem-07051212573D

 49 53  0     1  0  0  0  0  0999 V2000
   -0.1921    0.7903   -1.0249 O   0  0  0  0  0  0  0  0  0  0  0  0
    5.1396   -1.8592   -1.1169 O   0  0  0  0  0  0  0  0  0  0  0  0
    6.1441    0.2850   -0.6728 O   0  0  0  0  0  0  0  0  0  0  0  0
   -4.4668    1.2197   -0.8934 O   0  0  0  0  0  0  0  0  0  0  0  0
   -1.8337    2.3314   -1.5435 O   0  0  0  0  0  0  0  0  0  0  0  0
   -5.6483   -1.0713    0.1533 O   0  0  0  0  0  0  0  0  0  0  0  0
    0.1742    0.4379    1.7631 N   0  0  2  0  0  0  0  0  0  0  0  0
    0.7558   -0.5188    0.7961 C   0  0  1  0  0  0  0  0  0  0  0  0
   -0.1125   -0.5510   -0.4720 C   0  0  1  0  0  0  0  0  0  0  0  0
    2.2100   -0.2539    0.4359 C   0  0  0  0  0  0  0  0  0  0  0  0
    0.5243    1.8257    1.4383 C   0  0  0  0  0  0  0  0  0  0  0  0
    2.8030    1.0091    0.6901 C   0  0  0  0  0  0  0  0  0  0  0  0
    2.0311    2.0885    1.4043 C   0  0  0  0  0  0  0  0  0  0  0  0
   -1.5343   -0.8762   -0.2232 C   0  0  0  0  0  0  0  0  0  0  0  0
    2.9649   -1.2679   -0.1804 C   0  0  0  0  0  0  0  0  0  0  0  0
    0.5084    0.0937    3.1455 C   0  0  0  0  0  0  0  0  0  0  0  0
   -2.3289    0.1835   -0.6135 C   0  0  0  0  0  0  0  0  0  0  0  0
    4.1420    1.2461    0.3383 C   0  0  0  0  0  0  0  0  0  0  0  0
    4.2743   -0.9959   -0.5185 C   0  0  0  0  0  0  0  0  0  0  0  0
   -1.4793    1.2495   -1.1200 C   0  0  0  0  0  0  0  0  0  0  0  0
    4.8465    0.2268   -0.2667 C   0  0  0  0  0  0  0  0  0  0  0  0
   -2.1071   -2.0237    0.2968 C   0  0  0  0  0  0  0  0  0  0  0  0
   -3.7073    0.1646   -0.5056 C   0  0  0  0  0  0  0  0  0  0  0  0
   -3.4992   -2.0746    0.4190 C   0  0  0  0  0  0  0  0  0  0  0  0
   -4.2941   -0.9867    0.0204 C   0  0  0  0  0  0  0  0  0  0  0  0
    6.3229   -1.0405   -1.2124 C   0  0  0  0  0  0  0  0  0  0  0  0
   -5.4309    0.9882   -1.9222 C   0  0  0  0  0  0  0  0  0  0  0  0
   -6.2070   -0.6204    1.3851 C   0  0  0  0  0  0  0  0  0  0  0  0
    0.7125   -1.5227    1.2432 H   0  0  0  0  0  0  0  0  0  0  0  0
    0.2976   -1.2049   -1.2502 H   0  0  0  0  0  0  0  0  0  0  0  0
    0.0886    2.4799    2.2072 H   0  0  0  0  0  0  0  0  0  0  0  0
    0.0728    2.2194    0.5338 H   0  0  0  0  0  0  0  0  0  0  0  0
    2.4181    2.1649    2.4282 H   0  0  0  0  0  0  0  0  0  0  0  0
    2.2091    3.0543    0.9156 H   0  0  0  0  0  0  0  0  0  0  0  0
    2.5315   -2.2411   -0.3878 H   0  0  0  0  0  0  0  0  0  0  0  0
    0.1096   -0.8959    3.3957 H   0  0  0  0  0  0  0  0  0  0  0  0
    0.0410    0.7976    3.8429 H   0  0  0  0  0  0  0  0  0  0  0  0
    1.5862    0.0819    3.3388 H   0  0  0  0  0  0  0  0  0  0  0  0
    4.6132    2.2024    0.5413 H   0  0  0  0  0  0  0  0  0  0  0  0
   -1.4976   -2.8672    0.6026 H   0  0  0  0  0  0  0  0  0  0  0  0
   -3.9657   -2.9684    0.8258 H   0  0  0  0  0  0  0  0  0  0  0  0
    6.6064   -0.9547   -2.2676 H   0  0  0  0  0  0  0  0  0  0  0  0
    7.1363   -1.5342   -0.6683 H   0  0  0  0  0  0  0  0  0  0  0  0
   -6.4070    0.7733   -1.4790 H   0  0  0  0  0  0  0  0  0  0  0  0
   -5.1290    0.1769   -2.5938 H   0  0  0  0  0  0  0  0  0  0  0  0
   -5.5199    1.9054   -2.5117 H   0  0  0  0  0  0  0  0  0  0  0  0
   -5.9786    0.4377    1.5482 H   0  0  0  0  0  0  0  0  0  0  0  0
   -5.8289   -1.2195    2.2196 H   0  0  0  0  0  0  0  0  0  0  0  0
   -7.2927   -0.7392    1.3327 H   0  0  0  0  0  0  0  0  0  0  0  0
  1  9  1  0  0  0  0
  1 20  1  0  0  0  0
  2 19  1  0  0  0  0
  2 26  1  0  0  0  0
  3 21  1  0  0  0  0
  3 26  1  0  0  0  0
  4 23  1  0  0  0  0
  4 27  1  0  0  0  0
  5 20  2  0  0  0  0
  6 25  1  0  0  0  0
  6 28  1  0  0  0  0
  7  8  1  0  0  0  0
  7 11  1  0  0  0  0
  7 16  1  0  0  0  0
  8  9  1  0  0  0  0
  8 10  1  0  0  0  0
  8 29  1  0  0  0  0
  9 14  1  0  0  0  0
  9 30  1  0  0  0  0
 10 12  1  0  0  0  0
 10 15  2  0  0  0  0
 11 13  1  0  0  0  0
 11 31  1  0  0  0  0
 11 32  1  0  0  0  0
 12 13  1  0  0  0  0
 12 18  2  0  0  0  0
 13 33  1  0  0  0  0
 13 34  1  0  0  0  0
 14 17  2  0  0  0  0
 14 22  1  0  0  0  0
 15 19  1  0  0  0  0
 15 35  1  0  0  0  0
 16 36  1  0  0  0  0
 16 37  1  0  0  0  0
 16 38  1  0  0  0  0
 17 20  1  0  0  0  0
 17 23  1  0  0  0  0
 18 21  1  0  0  0  0
 18 39  1  0  0  0  0
 19 21  2  0  0  0  0
 22 24  2  0  0  0  0
 22 40  1  0  0  0  0
 23 25  2  0  0  0  0
 24 25  1  0  0  0  0
 24 41  1  0  0  0  0
 26 42  1  0  0  0  0
 26 43  1  0  0  0  0
 27 44  1  0  0  0  0
 27 45  1  0  0  0  0
 27 46  1  0  0  0  0
 28 47  1  0  0  0  0
 28 48  1  0  0  0  0
 28 49  1  0  0  0  0
M  END
> <PUBCHEM_COMPOUND_CID>
442247

> <PUBCHEM_CONFORMER_RMSD>
0.8

> <PUBCHEM_CONFORMER_DIVERSEORDER>
1
2
3

> <PUBCHEM_MMFF94_PARTIAL_CHARGES>
32
1 -0.43
10 -0.14
11 0.27
12 -0.14
13 0.14
14 -0.14
15 -0.15
16 0.27
17 0.09
18 -0.15
19 0.08
2 -0.36
20 0.63
21 0.08
22 -0.15
23 0.08
24 -0.15
25 0.08
26 0.56
27 0.28
28 0.28
3 -0.36
35 0.15
39 0.15
4 -0.36
40 0.15
41 0.15
5 -0.57
6 -0.36
7 -0.81
8 0.41
9 0.42

> <PUBCHEM_EFFECTIVE_ROTOR_COUNT>
4.8

> <PUBCHEM_PHARMACOPHORE_FEATURES>
11
1 2 acceptor
1 3 acceptor
1 4 acceptor
1 5 acceptor
1 6 acceptor
1 7 cation
5 1 9 14 17 20 rings
5 2 3 19 21 26 rings
6 10 12 15 18 19 21 rings
6 14 17 22 23 24 25 rings
6 7 8 10 11 12 13 rings

> <PUBCHEM_HEAVY_ATOM_COUNT>
28

> <PUBCHEM_ATOM_DEF_STEREO_COUNT>
2

> <PUBCHEM_ATOM_UDEF_STEREO_COUNT>
0

> <PUBCHEM_BOND_DEF_STEREO_COUNT>
0

> <PUBCHEM_BOND_UDEF_STEREO_COUNT>
0

> <PUBCHEM_ISOTOPIC_ATOM_COUNT>
0

> <PUBCHEM_COMPONENT_COUNT>
1

> <PUBCHEM_CACTVS_TAUTO_COUNT>
1

> <PUBCHEM_CONFORMER_ID>
0006BF8700000001

> <PUBCHEM_MMFF94_ENERGY>
108.7457

> <PUBCHEM_FEATURE_SELFOVERLAP>
56.09

> <PUBCHEM_SHAPE_FINGERPRINT>
10369192 42 17830750750978508056
10498660 4 17917727811086338341
10673678 19 18125149447739167540
12011746 2 18410584998075534365
12236239 1 15068624872389803534
12403259 415 18412270519330803813
12516196 113 16732985319032720842
12596602 18 13984672438148991286
12623949 98 17609762111465037911
12760667 363 17240477057263990830
12788726 201 17895756347579937842
13134695 92 16805609114045151993
13402501 40 18409165510941386926
13544592 145 18409450258561701722
13631057 29 14620216496249010873
13692114 37 14494650292239512611
13782708 43 18261678069311552143
14341114 176 18261950765490517945
14840074 17 14333410047189049135
14955137 171 18130213858146053377
15183329 4 18333731346579546467
15238133 3 16733249197781303049
15849732 13 15213016050900917299
17349148 13 14418135063350956343
1813 80 17203053984647586973
19377110 9 14117524263748800813
200 152 17603301570729774378
21033648 29 18337688442495954425
21033650 10 17558532850587261708
21267235 1 17988635264828167167
21792961 116 18335978757939176686
221357 26 18261118495159785916
2215653 11 18333740121303214647
22182313 1 18116175357928154424
2297311 6 18273490174188515223
23175994 123 17894628145232942520
23559900 14 18411989043758137341
3004659 81 18411697708502008974
3411729 13 5111139786074661506
345986 75 16733263568621147114
34797466 226 18201429243029511766
34934 24 16988012703499986149
4098825 35 18130787880762345980
46194498 28 18343017762455136756
513202 73 16299770140171061262
6287921 2 17907584627125655420

> <PUBCHEM_SHAPE_MULTIPOLES>
536.03
13.57
2
1.81
1.41
0.2
0.63
-4.35
-3.85
0.64
0.12
-1.24
0.74
2.15

> <PUBCHEM_SHAPE_SELFOVERLAP>
1199.943

> <PUBCHEM_SHAPE_VOLUME>
286.4

> <PUBCHEM_COORDINATE_TYPE>
2
5
10

$$$$

