243355
  -OEChem-07051213063D

 58 61  0     1  0  0  0  0  0999 V2000
    5.5724   -1.7967    0.0161 O   0  0  0  0  0  0  0  0  0  0  0  0
   -4.9291    1.1280    0.4797 O   0  0  0  0  0  0  0  0  0  0  0  0
   -4.4563   -1.6838    0.9843 O   0  0  0  0  0  0  0  0  0  0  0  0
    0.3997   -0.1803   -0.0084 C   0  0  1  0  0  0  0  0  0  0  0  0
    1.4620    0.9673   -0.0137 C   0  0  2  0  0  0  0  0  0  0  0  0
    2.7556    0.4389    0.6153 C   0  0  1  0  0  0  0  0  0  0  0  0
   -0.9839    0.2947   -0.5943 C   0  0  2  0  0  0  0  0  0  0  0  0
    3.3380   -0.7672   -0.1472 C   0  0  2  0  0  0  0  0  0  0  0  0
   -1.4394    1.5415    0.2306 C   0  0  1  0  0  0  0  0  0  0  0  0
    0.9508   -1.4865   -0.6414 C   0  0  0  0  0  0  0  0  0  0  0  0
    2.3193   -1.9118   -0.0778 C   0  0  0  0  0  0  0  0  0  0  0  0
    0.9439    2.2063    0.7289 C   0  0  0  0  0  0  0  0  0  0  0  0
    3.9500    1.3783    0.7614 C   0  0  0  0  0  0  0  0  0  0  0  0
    4.6177   -0.9921    0.6809 C   0  0  2  0  0  0  0  0  0  0  0  0
   -0.4084    2.6753    0.1998 C   0  0  0  0  0  0  0  0  0  0  0  0
   -2.0639   -0.8098   -0.3953 C   0  0  0  0  0  0  0  0  0  0  0  0
    5.1501    0.4308    0.9398 C   0  0  0  0  0  0  0  0  0  0  0  0
   -2.8250    2.0526   -0.1690 C   0  0  0  0  0  0  0  0  0  0  0  0
   -0.8633    0.6072   -2.1067 C   0  0  0  0  0  0  0  0  0  0  0  0
    3.6975   -0.4845   -1.6283 C   0  0  0  0  0  0  0  0  0  0  0  0
   -3.4907   -0.3705   -0.7622 C   0  0  2  0  0  0  0  0  0  0  0  0
   -3.8413    0.9372   -0.0638 C   0  0  0  0  0  0  0  0  0  0  0  0
   -4.4898   -1.4727   -0.4148 C   0  0  0  0  0  0  0  0  0  0  0  0
   -5.3658   -2.7023    1.3863 C   0  0  0  0  0  0  0  0  0  0  0  0
    0.2188   -0.4268    1.0502 H   0  0  0  0  0  0  0  0  0  0  0  0
    1.6705    1.2718   -1.0444 H   0  0  0  0  0  0  0  0  0  0  0  0
    2.4999    0.1131    1.6377 H   0  0  0  0  0  0  0  0  0  0  0  0
   -1.5223    1.2196    1.2810 H   0  0  0  0  0  0  0  0  0  0  0  0
    1.0307   -1.3806   -1.7274 H   0  0  0  0  0  0  0  0  0  0  0  0
    0.2514   -2.3107   -0.4632 H   0  0  0  0  0  0  0  0  0  0  0  0
    2.1826   -2.2306    0.9637 H   0  0  0  0  0  0  0  0  0  0  0  0
    2.6846   -2.7901   -0.6231 H   0  0  0  0  0  0  0  0  0  0  0  0
    1.6630    3.0287    0.6376 H   0  0  0  0  0  0  0  0  0  0  0  0
    0.8524    1.9859    1.8003 H   0  0  0  0  0  0  0  0  0  0  0  0
    3.8418    2.0491    1.6197 H   0  0  0  0  0  0  0  0  0  0  0  0
    4.0837    1.9999   -0.1309 H   0  0  0  0  0  0  0  0  0  0  0  0
    4.3858   -1.4678    1.6422 H   0  0  0  0  0  0  0  0  0  0  0  0
   -0.7563    3.5110    0.8194 H   0  0  0  0  0  0  0  0  0  0  0  0
   -0.2955    3.0699   -0.8166 H   0  0  0  0  0  0  0  0  0  0  0  0
   -2.0343   -1.1312    0.6544 H   0  0  0  0  0  0  0  0  0  0  0  0
   -1.8143   -1.6926   -0.9965 H   0  0  0  0  0  0  0  0  0  0  0  0
    5.9628    0.6975    0.2549 H   0  0  0  0  0  0  0  0  0  0  0  0
    5.5544    0.5013    1.9558 H   0  0  0  0  0  0  0  0  0  0  0  0
   -2.8471    2.4557   -1.1859 H   0  0  0  0  0  0  0  0  0  0  0  0
   -3.1319    2.8580    0.5089 H   0  0  0  0  0  0  0  0  0  0  0  0
   -0.0693    1.3253   -2.3260 H   0  0  0  0  0  0  0  0  0  0  0  0
   -0.6522   -0.2995   -2.6832 H   0  0  0  0  0  0  0  0  0  0  0  0
   -1.7836    1.0275   -2.5214 H   0  0  0  0  0  0  0  0  0  0  0  0
    4.4614    0.2925   -1.7321 H   0  0  0  0  0  0  0  0  0  0  0  0
    4.0907   -1.3877   -2.1092 H   0  0  0  0  0  0  0  0  0  0  0  0
    2.8360   -0.1620   -2.2189 H   0  0  0  0  0  0  0  0  0  0  0  0
   -3.5597   -0.1847   -1.8403 H   0  0  0  0  0  0  0  0  0  0  0  0
    5.1602   -2.6613   -0.1510 H   0  0  0  0  0  0  0  0  0  0  0  0
   -4.2283   -2.3994   -0.9394 H   0  0  0  0  0  0  0  0  0  0  0  0
   -5.5016   -1.1770   -0.7177 H   0  0  0  0  0  0  0  0  0  0  0  0
   -6.3921   -2.4206    1.1322 H   0  0  0  0  0  0  0  0  0  0  0  0
   -5.2933   -2.8186    2.4709 H   0  0  0  0  0  0  0  0  0  0  0  0
   -5.1068   -3.6546    0.9137 H   0  0  0  0  0  0  0  0  0  0  0  0
  1 14  1  0  0  0  0
  1 53  1  0  0  0  0
  2 22  2  0  0  0  0
  3 23  1  0  0  0  0
  3 24  1  0  0  0  0
  4  5  1  0  0  0  0
  4  7  1  0  0  0  0
  4 10  1  0  0  0  0
  4 25  1  0  0  0  0
  5  6  1  0  0  0  0
  5 12  1  0  0  0  0
  5 26  1  0  0  0  0
  6  8  1  0  0  0  0
  6 13  1  0  0  0  0
  6 27  1  0  0  0  0
  7  9  1  0  0  0  0
  7 16  1  0  0  0  0
  7 19  1  0  0  0  0
  8 11  1  0  0  0  0
  8 14  1  0  0  0  0
  8 20  1  0  0  0  0
  9 15  1  0  0  0  0
  9 18  1  0  0  0  0
  9 28  1  0  0  0  0
 10 11  1  0  0  0  0
 10 29  1  0  0  0  0
 10 30  1  0  0  0  0
 11 31  1  0  0  0  0
 11 32  1  0  0  0  0
 12 15  1  0  0  0  0
 12 33  1  0  0  0  0
 12 34  1  0  0  0  0
 13 17  1  0  0  0  0
 13 35  1  0  0  0  0
 13 36  1  0  0  0  0
 14 17  1  0  0  0  0
 14 37  1  0  0  0  0
 15 38  1  0  0  0  0
 15 39  1  0  0  0  0
 16 21  1  0  0  0  0
 16 40  1  0  0  0  0
 16 41  1  0  0  0  0
 17 42  1  0  0  0  0
 17 43  1  0  0  0  0
 18 22  1  0  0  0  0
 18 44  1  0  0  0  0
 18 45  1  0  0  0  0
 19 46  1  0  0  0  0
 19 47  1  0  0  0  0
 19 48  1  0  0  0  0
 20 49  1  0  0  0  0
 20 50  1  0  0  0  0
 20 51  1  0  0  0  0
 21 22  1  0  0  0  0
 21 23  1  0  0  0  0
 21 52  1  0  0  0  0
 23 54  1  0  0  0  0
 23 55  1  0  0  0  0
 24 56  1  0  0  0  0
 24 57  1  0  0  0  0
 24 58  1  0  0  0  0
M  END
> <PUBCHEM_COMPOUND_CID>
243355

> <PUBCHEM_CONFORMER_RMSD>
0.8

> <PUBCHEM_CONFORMER_DIVERSEORDER>
1
2

> <PUBCHEM_MMFF94_PARTIAL_CHARGES>
10
1 -0.68
14 0.28
18 0.06
2 -0.57
21 0.06
22 0.45
23 0.28
24 0.28
3 -0.56
53 0.4

> <PUBCHEM_EFFECTIVE_ROTOR_COUNT>
4

> <PUBCHEM_PHARMACOPHORE_FEATURES>
8
1 1 acceptor
1 1 donor
1 2 acceptor
1 3 acceptor
5 6 8 13 14 17 rings
6 4 5 6 8 10 11 rings
6 4 5 7 9 12 15 rings
6 7 9 16 18 21 22 rings

> <PUBCHEM_HEAVY_ATOM_COUNT>
24

> <PUBCHEM_ATOM_DEF_STEREO_COUNT>
8

> <PUBCHEM_ATOM_UDEF_STEREO_COUNT>
0

> <PUBCHEM_BOND_DEF_STEREO_COUNT>
0

> <PUBCHEM_BOND_UDEF_STEREO_COUNT>
0

> <PUBCHEM_ISOTOPIC_ATOM_COUNT>
0

> <PUBCHEM_COMPONENT_COUNT>
1

> <PUBCHEM_CACTVS_TAUTO_COUNT>
3

> <PUBCHEM_CONFORMER_ID>
0003B69B00000001

> <PUBCHEM_MMFF94_ENERGY>
83.8191

> <PUBCHEM_FEATURE_SELFOVERLAP>
40.688

> <PUBCHEM_SHAPE_FINGERPRINT>
11045977 3 18409452496381743449
11135609 12 17987508226992076131
11552529 35 15214164963432547351
11796584 16 17632309951471837027
12166972 35 17989203772643213388
12236239 1 18060137674376835014
13103583 49 18262217951480508179
13140716 1 18334015025049086160
13224815 77 18259994794181012908
13544653 18 18411983520941761127
13583140 156 18113910342394363589
13675066 3 17967822643079311912
14223421 5 18189619521705702668
14252887 29 17821443565104616230
14341114 176 18408882949353527649
14787075 74 18339646646391673064
14790565 3 17688033011852897176
15196674 1 18334863822413803952
15209289 33 18272090478885991027
15927050 60 17470446236115187036
16945 1 17899977428664593244
17349148 13 16559028311399712850
17492 89 18266181806620586170
17844677 252 18259701194321695521
1813 80 17703791401147733245
18785283 64 18123751958931306288
193927 3 17988637442239442915
19591789 44 18334864895981431318
20028762 73 17897166823626129751
20261772 1 17967821513455434110
21033648 29 16806184261874329971
21267235 1 18334855047674188590
21421861 104 18054231204590565386
221490 88 18410011026729609560
22182313 1 17677326255003881620
23402539 116 18343027726082534422
23557571 272 18189896598715341788
23559900 14 18045506571571863806
26918003 58 18412831308683475677
329604 57 18201151053571153563
335352 9 18262242234508330653
34934 24 18262247736609122541
350125 39 18333736840797799072
392239 28 18409727374093743051
4073 2 18342174479215886194
5104073 3 18335143106793547280
7495541 125 18131350765515817054
9709674 26 18116433845833247206

> <PUBCHEM_SHAPE_MULTIPOLES>
476.3
11.46
2.61
1.23
0.86
0.15
0.37
-6.03
-3.35
1.67
-0.68
0.14
-0.2
1.36

> <PUBCHEM_SHAPE_SELFOVERLAP>
1005.527

> <PUBCHEM_SHAPE_VOLUME>
265

> <PUBCHEM_COORDINATE_TYPE>
2
5
10

$$$$

