5280911
  -OEChem-07051212513D

 22 22  0     0  0  0  0  0  0999 V2000
   -2.1570   -2.2569   -0.3956 O   0  0  0  0  0  0  0  0  0  0  0  0
    2.6765   -1.5307    0.5257 O   0  0  0  0  0  0  0  0  0  0  0  0
    4.7815   -0.1667   -0.0232 O   0  0  0  0  0  0  0  0  0  0  0  0
    3.5095    1.6509   -0.5749 O   0  0  0  0  0  0  0  0  0  0  0  0
   -1.3635   -0.0558    0.1522 C   0  0  0  0  0  0  0  0  0  0  0  0
   -2.3972   -0.9324   -0.1774 C   0  0  0  0  0  0  0  0  0  0  0  0
   -1.6367    1.2946    0.3699 C   0  0  0  0  0  0  0  0  0  0  0  0
    0.0098   -0.5258    0.2747 C   0  0  0  0  0  0  0  0  0  0  0  0
   -3.7043   -0.4586   -0.2895 C   0  0  0  0  0  0  0  0  0  0  0  0
   -2.9439    1.7685    0.2578 C   0  0  0  0  0  0  0  0  0  0  0  0
   -3.9776    0.8918   -0.0721 C   0  0  0  0  0  0  0  0  0  0  0  0
    1.1103    0.2064   -0.0015 C   0  0  0  0  0  0  0  0  0  0  0  0
    2.4611   -0.3884    0.1518 C   0  0  0  0  0  0  0  0  0  0  0  0
    3.6316    0.5030   -0.1979 C   0  0  0  0  0  0  0  0  0  0  0  0
   -0.8620    2.0048    0.6469 H   0  0  0  0  0  0  0  0  0  0  0  0
    0.1250   -1.5550    0.6073 H   0  0  0  0  0  0  0  0  0  0  0  0
   -4.5200   -1.1295   -0.5455 H   0  0  0  0  0  0  0  0  0  0  0  0
   -3.1580    2.8191    0.4315 H   0  0  0  0  0  0  0  0  0  0  0  0
   -4.9954    1.2608   -0.1583 H   0  0  0  0  0  0  0  0  0  0  0  0
    1.0469    1.2278   -0.3582 H   0  0  0  0  0  0  0  0  0  0  0  0
   -2.9948   -2.7013   -0.6114 H   0  0  0  0  0  0  0  0  0  0  0  0
    5.5662    0.3808   -0.2395 H   0  0  0  0  0  0  0  0  0  0  0  0
  1  6  1  0  0  0  0
  1 21  1  0  0  0  0
  2 13  2  0  0  0  0
  3 14  1  0  0  0  0
  3 22  1  0  0  0  0
  4 14  2  0  0  0  0
  5  6  1  0  0  0  0
  5  7  2  0  0  0  0
  5  8  1  0  0  0  0
  6  9  2  0  0  0  0
  7 10  1  0  0  0  0
  7 15  1  0  0  0  0
  8 12  2  0  0  0  0
  8 16  1  0  0  0  0
  9 11  1  0  0  0  0
  9 17  1  0  0  0  0
 10 11  2  0  0  0  0
 10 18  1  0  0  0  0
 11 19  1  0  0  0  0
 12 13  1  0  0  0  0
 12 20  1  0  0  0  0
 13 14  1  0  0  0  0
M  END
> <PUBCHEM_COMPOUND_CID>
5280911

> <PUBCHEM_CONFORMER_RMSD>
0.6

> <PUBCHEM_CONFORMER_DIVERSEORDER>
1
4
5
8
2
6
7
3

> <PUBCHEM_MMFF94_PARTIAL_CHARGES>
22
1 -0.53
10 -0.15
11 -0.15
12 -0.14
13 0.56
14 0.72
15 0.15
16 0.15
17 0.15
18 0.15
19 0.15
2 -0.57
20 0.15
21 0.45
22 0.5
3 -0.65
4 -0.57
5 0.03
6 0.08
7 -0.15
8 -0.18
9 -0.15

> <PUBCHEM_EFFECTIVE_ROTOR_COUNT>
3

> <PUBCHEM_PHARMACOPHORE_FEATURES>
6
1 1 donor
1 2 acceptor
1 3 acceptor
1 4 acceptor
3 3 4 14 anion
6 5 6 7 9 10 11 rings

> <PUBCHEM_HEAVY_ATOM_COUNT>
14

> <PUBCHEM_ATOM_DEF_STEREO_COUNT>
0

> <PUBCHEM_ATOM_UDEF_STEREO_COUNT>
0

> <PUBCHEM_BOND_DEF_STEREO_COUNT>
1

> <PUBCHEM_BOND_UDEF_STEREO_COUNT>
0

> <PUBCHEM_ISOTOPIC_ATOM_COUNT>
0

> <PUBCHEM_COMPONENT_COUNT>
1

> <PUBCHEM_CACTVS_TAUTO_COUNT>
5

> <PUBCHEM_CONFORMER_ID>
0050948F00000001

> <PUBCHEM_MMFF94_ENERGY>
34.5659

> <PUBCHEM_FEATURE_SELFOVERLAP>
30.514

> <PUBCHEM_SHAPE_FINGERPRINT>
10014705 185 18202006529710698717
10616163 171 18335983090612112574
12162725 195 18413387635734165932
12173636 292 18335708281761800749
12500047 106 18334864930251537743
12932764 1 17531257135901994122
14144814 61 18411701019008787849
14325111 11 18411418444499363329
14415576 193 18412258428923967268
14897335 6 18412545435312146290
15442244 35 18195810897620324514
15669948 3 18333740091391761791
15775835 57 18341891926212842433
17802600 8 18412268337234612548
17834072 32 18196091281734176285
18186145 218 17917713526009144338
19050596 39 18413672400666219104
200 152 18335424551557689014
20279233 1 16298387963602228694
20300324 65 18260550000487727933
20645477 56 18408601487330323001
20645477 70 18338800134049932670
20871999 31 18336277760487277943
21267235 1 18411409613988814283
23402539 116 18260838102915455341
23402655 69 18412824698834451724
23557571 272 18040989648613101604
23559900 14 18187366575579075098
3545911 37 18409728482532713480
4175511 318 17894633647413154973
4214541 1 18410575110448713460
474 4 17631727154516803844
5104073 3 18411700988949305352
573450 72 18339936986191523490
77779 3 18410854369459715182
93112 12 18409166614789705516
9709674 26 18335696161032178294

> <PUBCHEM_SHAPE_MULTIPOLES>
264.64
8.53
1.73
0.67
5.93
0.18
-0.01
-1.41
0.73
-0.82
0.07
0.01
-0.02
-0.66

> <PUBCHEM_SHAPE_SELFOVERLAP>
555.235

> <PUBCHEM_SHAPE_VOLUME>
148.2

> <PUBCHEM_COORDINATE_TYPE>
2
5
10

$$$$

