440199
  -OEChem-07051212493D

 45 45  0     1  0  0  0  0  0999 V2000
   -1.7020    0.7917   -0.3497 O   0  0  0  0  0  0  0  0  0  0  0  0
   -1.5215   -3.0336    1.2059 O   0  0  0  0  0  0  0  0  0  0  0  0
    0.2483    1.8963   -1.9730 O   0  0  0  0  0  0  0  0  0  0  0  0
   -3.5808   -0.1738   -1.4339 O   0  0  0  0  0  0  0  0  0  0  0  0
   -0.0363    2.1183    0.8706 O   0  0  0  0  0  0  0  0  0  0  0  0
   -5.0803    0.6394    0.6552 O   0  0  0  0  0  0  0  0  0  0  0  0
    3.3301    1.6749   -0.4155 O   0  0  0  0  0  0  0  0  0  0  0  0
   -3.5141    2.2945    0.7192 O   0  0  0  0  0  0  0  0  0  0  0  0
    2.1505   -2.0866    1.0022 O   0  0  0  0  0  0  0  0  0  0  0  0
    4.0503    1.0524    1.6894 O   0  0  0  0  0  0  0  0  0  0  0  0
    0.5406   -2.1528   -0.6778 N   0  0  0  0  0  0  0  0  0  0  0  0
   -0.4270   -1.2752   -0.0582 C   0  0  1  0  0  0  0  0  0  0  0  0
   -0.6861   -0.0352   -0.9298 C   0  0  2  0  0  0  0  0  0  0  0  0
   -1.7322   -2.0356    0.2095 C   0  0  2  0  0  0  0  0  0  0  0  0
   -2.8180   -1.0867    0.7132 C   0  0  0  0  0  0  0  0  0  0  0  0
    0.5585    0.8375   -1.0710 C   0  0  2  0  0  0  0  0  0  0  0  0
   -2.9532    0.1315   -0.1972 C   0  0  1  0  0  0  0  0  0  0  0  0
    1.0466    1.3981    0.2706 C   0  0  1  0  0  0  0  0  0  0  0  0
   -3.8453    1.1530    0.4349 C   0  0  0  0  0  0  0  0  0  0  0  0
    2.2229    2.3653    0.1576 C   0  0  0  0  0  0  0  0  0  0  0  0
    1.7490   -2.4818   -0.0892 C   0  0  0  0  0  0  0  0  0  0  0  0
    2.5543   -3.4311   -0.9355 C   0  0  0  0  0  0  0  0  0  0  0  0
    4.1676    1.0603    0.4715 C   0  0  0  0  0  0  0  0  0  0  0  0
    5.2781    0.3789   -0.2690 C   0  0  0  0  0  0  0  0  0  0  0  0
   -0.0464   -0.9744    0.9237 H   0  0  0  0  0  0  0  0  0  0  0  0
   -1.0208   -0.3305   -1.9336 H   0  0  0  0  0  0  0  0  0  0  0  0
   -2.0740   -2.5448   -0.6995 H   0  0  0  0  0  0  0  0  0  0  0  0
   -2.5674   -0.7673    1.7343 H   0  0  0  0  0  0  0  0  0  0  0  0
   -3.7628   -1.6397    0.7879 H   0  0  0  0  0  0  0  0  0  0  0  0
    1.3641    0.2629   -1.5407 H   0  0  0  0  0  0  0  0  0  0  0  0
    1.3279    0.5856    0.9451 H   0  0  0  0  0  0  0  0  0  0  0  0
    0.3101   -2.5459   -1.5860 H   0  0  0  0  0  0  0  0  0  0  0  0
   -1.2003   -2.5949    2.0120 H   0  0  0  0  0  0  0  0  0  0  0  0
    2.4739    2.8108    1.1285 H   0  0  0  0  0  0  0  0  0  0  0  0
    1.9750    3.2098   -0.4954 H   0  0  0  0  0  0  0  0  0  0  0  0
   -0.4516    2.4346   -1.5649 H   0  0  0  0  0  0  0  0  0  0  0  0
   -3.7982    0.6627   -1.8793 H   0  0  0  0  0  0  0  0  0  0  0  0
    0.2585    2.4125    1.7493 H   0  0  0  0  0  0  0  0  0  0  0  0
    3.5725   -3.5007   -0.5426 H   0  0  0  0  0  0  0  0  0  0  0  0
    2.0911   -4.4213   -0.9145 H   0  0  0  0  0  0  0  0  0  0  0  0
    2.6023   -3.0717   -1.9675 H   0  0  0  0  0  0  0  0  0  0  0  0
   -5.6805    1.2941    1.0715 H   0  0  0  0  0  0  0  0  0  0  0  0
    5.8475    1.1142   -0.8429 H   0  0  0  0  0  0  0  0  0  0  0  0
    4.8655   -0.3894   -0.9278 H   0  0  0  0  0  0  0  0  0  0  0  0
    5.9510   -0.1008    0.4475 H   0  0  0  0  0  0  0  0  0  0  0  0
  1 13  1  0  0  0  0
  1 17  1  0  0  0  0
  2 14  1  0  0  0  0
  2 33  1  0  0  0  0
  3 16  1  0  0  0  0
  3 36  1  0  0  0  0
  4 17  1  0  0  0  0
  4 37  1  0  0  0  0
  5 18  1  0  0  0  0
  5 38  1  0  0  0  0
  6 19  1  0  0  0  0
  6 42  1  0  0  0  0
  7 20  1  0  0  0  0
  7 23  1  0  0  0  0
  8 19  2  0  0  0  0
  9 21  2  0  0  0  0
 10 23  2  0  0  0  0
 11 12  1  0  0  0  0
 11 21  1  0  0  0  0
 11 32  1  0  0  0  0
 12 13  1  0  0  0  0
 12 14  1  0  0  0  0
 12 25  1  0  0  0  0
 13 16  1  0  0  0  0
 13 26  1  0  0  0  0
 14 15  1  0  0  0  0
 14 27  1  0  0  0  0
 15 17  1  0  0  0  0
 15 28  1  0  0  0  0
 15 29  1  0  0  0  0
 16 18  1  0  0  0  0
 16 30  1  0  0  0  0
 17 19  1  0  0  0  0
 18 20  1  0  0  0  0
 18 31  1  0  0  0  0
 20 34  1  0  0  0  0
 20 35  1  0  0  0  0
 21 22  1  0  0  0  0
 22 39  1  0  0  0  0
 22 40  1  0  0  0  0
 22 41  1  0  0  0  0
 23 24  1  0  0  0  0
 24 43  1  0  0  0  0
 24 44  1  0  0  0  0
 24 45  1  0  0  0  0
M  END
> <PUBCHEM_COMPOUND_CID>
440199

> <PUBCHEM_CONFORMER_RMSD>
1

> <PUBCHEM_CONFORMER_DIVERSEORDER>
2
47
75
49
61
54
23
19
22
72
94
103
27
4
71
69
1
20
90
89
59
85
95
92
38
36
93
31
15
26
56
7
66
79
9
28
88
5
83
62
91
30
32
68
55
100
42
63
81
99
50
6
13
17
52
58
73
87
102
29
67
46
25
60
21
37
24
44
12
11
16
76
51
84
74
35
78
40
65
82
80
48
33
45
57
41
3
18
77
43
96
64
10
53
86
101
97
98
70
34
8
14
39

> <PUBCHEM_MMFF94_PARTIAL_CHARGES>
29
1 -0.56
10 -0.57
11 -0.73
12 0.3
13 0.28
14 0.28
16 0.28
17 0.62
18 0.28
19 0.66
2 -0.68
20 0.28
21 0.57
22 0.06
23 0.66
24 0.06
3 -0.68
32 0.37
33 0.4
36 0.4
37 0.4
38 0.4
4 -0.68
42 0.5
5 -0.68
6 -0.65
7 -0.43
8 -0.57
9 -0.57

> <PUBCHEM_EFFECTIVE_ROTOR_COUNT>
9.2

> <PUBCHEM_PHARMACOPHORE_FEATURES>
16
1 1 acceptor
1 10 acceptor
1 11 donor
1 2 acceptor
1 2 donor
1 3 acceptor
1 3 donor
1 4 acceptor
1 4 donor
1 5 acceptor
1 5 donor
1 6 acceptor
1 8 acceptor
1 9 acceptor
3 6 8 19 anion
6 1 12 13 14 15 17 rings

> <PUBCHEM_HEAVY_ATOM_COUNT>
24

> <PUBCHEM_ATOM_DEF_STEREO_COUNT>
4

> <PUBCHEM_ATOM_UDEF_STEREO_COUNT>
2

> <PUBCHEM_BOND_DEF_STEREO_COUNT>
0

> <PUBCHEM_BOND_UDEF_STEREO_COUNT>
0

> <PUBCHEM_ISOTOPIC_ATOM_COUNT>
0

> <PUBCHEM_COMPONENT_COUNT>
1

> <PUBCHEM_CACTVS_TAUTO_COUNT>
2

> <PUBCHEM_CONFORMER_ID>
0006B78700000002

> <PUBCHEM_MMFF94_ENERGY>
48.3914

> <PUBCHEM_FEATURE_SELFOVERLAP>
81.339

> <PUBCHEM_SHAPE_FINGERPRINT>
10616163 171 18269273474123845530
1100329 8 17398380318383218656
11112241 14 17314244267460720184
11680986 33 18341879806168885739
12422481 6 18196679452067116314
12592029 89 18411132524252652672
12633257 1 18200890568389912370
13140716 1 18196650696464931881
13402501 40 18409726296975050566
13583140 156 16444759229469152516
14178342 30 18270672074320660695
14251751 93 18267307517200201690
15006816 218 18408882923879122942
15295992 7 17823975637251811905
1601671 61 18342175557827631516
16110190 28 18270981055175082512
16945 1 18343016670916004925
17349148 13 18199197178775375695
1813 80 16845570928876643940
19591789 44 18193557766377690654
19784866 9 18408038515664838048
20600515 1 17910652573815358927
20691752 17 17988643055318528471
21279426 13 18190734439555541716
21330990 113 18342455950256546500
22182313 1 17916593188211648821
23352939 185 17825658122361075542
23419403 2 18053393372408644876
23559900 14 18262231111308132668
2748010 2 17916031346349097341
5104073 3 18267003116595238577
5265222 85 18194104228648054012
633830 44 18187363173564472764
7364860 26 18335977661804592255

> <PUBCHEM_SHAPE_MULTIPOLES>
430.23
8.2
3.54
1.23
1.39
2.4
0.17
-3.29
-1.62
1.59
-0.18
0.12
-0.12
0.46

> <PUBCHEM_SHAPE_SELFOVERLAP>
875.257

> <PUBCHEM_SHAPE_VOLUME>
245.4

> <PUBCHEM_COORDINATE_TYPE>
2
5
10

$$$$

