4506
  -OEChem-07051212533D

 32 34  0     0  0  0  0  0  0999 V2000
    1.4030    4.3862   -0.4132 O   0  0  0  0  0  0  0  0  0  0  0  0
   -4.4832   -1.7967    0.0442 O   0  5  0  0  0  0  0  0  0  0  0  0
   -2.7394   -2.7420    0.9850 O   0  0  0  0  0  0  0  0  0  0  0  0
   -0.2974    2.8785   -0.6929 N   0  0  0  0  0  0  0  0  0  0  0  0
    1.8382    1.4124    0.8593 N   0  0  0  0  0  0  0  0  0  0  0  0
   -3.2781   -1.7755    0.3932 N   0  3  0  0  0  0  0  0  0  0  0  0
   -0.3678    0.5429    0.1688 C   0  0  0  0  0  0  0  0  0  0  0  0
   -0.9657    1.6650   -0.4282 C   0  0  0  0  0  0  0  0  0  0  0  0
    1.1067    0.4555    0.3990 C   0  0  0  0  0  0  0  0  0  0  0  0
    1.8120   -0.8098    0.0445 C   0  0  0  0  0  0  0  0  0  0  0  0
   -1.1508   -0.5864    0.4600 C   0  0  0  0  0  0  0  0  0  0  0  0
   -2.3112    1.5950   -0.8197 C   0  0  0  0  0  0  0  0  0  0  0  0
    1.2093    2.6624    1.2266 C   0  0  0  0  0  0  0  0  0  0  0  0
   -2.4999   -0.6222    0.1093 C   0  0  0  0  0  0  0  0  0  0  0  0
    0.8093    3.3739   -0.0385 C   0  0  0  0  0  0  0  0  0  0  0  0
   -3.0754    0.4608   -0.5461 C   0  0  0  0  0  0  0  0  0  0  0  0
    1.3305   -1.5954   -0.9949 C   0  0  0  0  0  0  0  0  0  0  0  0
    2.9420   -1.1876    0.7581 C   0  0  0  0  0  0  0  0  0  0  0  0
    1.9901   -2.7790   -1.3261 C   0  0  0  0  0  0  0  0  0  0  0  0
    3.6018   -2.3712    0.4269 C   0  0  0  0  0  0  0  0  0  0  0  0
    3.1258   -3.1668   -0.6152 C   0  0  0  0  0  0  0  0  0  0  0  0
   -0.6933   -1.4347    0.9648 H   0  0  0  0  0  0  0  0  0  0  0  0
   -0.7142    3.4823   -1.3971 H   0  0  0  0  0  0  0  0  0  0  0  0
   -2.7876    2.4396   -1.3134 H   0  0  0  0  0  0  0  0  0  0  0  0
    1.9366    3.2847    1.7595 H   0  0  0  0  0  0  0  0  0  0  0  0
    0.3552    2.5343    1.9013 H   0  0  0  0  0  0  0  0  0  0  0  0
   -4.1187    0.4638   -0.8513 H   0  0  0  0  0  0  0  0  0  0  0  0
    0.4759   -1.3065   -1.5992 H   0  0  0  0  0  0  0  0  0  0  0  0
    3.3260   -0.5894    1.5798 H   0  0  0  0  0  0  0  0  0  0  0  0
    1.6254   -3.3941   -2.1437 H   0  0  0  0  0  0  0  0  0  0  0  0
    4.4852   -2.6743    0.9813 H   0  0  0  0  0  0  0  0  0  0  0  0
    3.6405   -4.0874   -0.8742 H   0  0  0  0  0  0  0  0  0  0  0  0
  1 15  2  0  0  0  0
  2  6  1  0  0  0  0
  3  6  2  0  0  0  0
  4  8  1  0  0  0  0
  4 15  1  0  0  0  0
  4 23  1  0  0  0  0
  5  9  2  0  0  0  0
  5 13  1  0  0  0  0
  6 14  1  0  0  0  0
  7  8  2  0  0  0  0
  7  9  1  0  0  0  0
  7 11  1  0  0  0  0
  8 12  1  0  0  0  0
  9 10  1  0  0  0  0
 10 17  2  0  0  0  0
 10 18  1  0  0  0  0
 11 14  2  0  0  0  0
 11 22  1  0  0  0  0
 12 16  2  0  0  0  0
 12 24  1  0  0  0  0
 13 15  1  0  0  0  0
 13 25  1  0  0  0  0
 13 26  1  0  0  0  0
 14 16  1  0  0  0  0
 16 27  1  0  0  0  0
 17 19  1  0  0  0  0
 17 28  1  0  0  0  0
 18 20  2  0  0  0  0
 18 29  1  0  0  0  0
 19 21  2  0  0  0  0
 19 30  1  0  0  0  0
 20 21  1  0  0  0  0
 20 31  1  0  0  0  0
 21 32  1  0  0  0  0
M  CHG  2   2  -1   6   1
M  END
> <PUBCHEM_COMPOUND_CID>
4506

> <PUBCHEM_CONFORMER_RMSD>
0.6

> <PUBCHEM_CONFORMER_DIVERSEORDER>
1
2

> <PUBCHEM_MMFF94_PARTIAL_CHARGES>
30
1 -0.57
10 0.09
11 -0.15
12 -0.15
13 0.31
14 0.13
15 0.57
16 -0.15
17 -0.15
18 -0.15
19 -0.15
2 -0.52
20 -0.15
21 -0.15
22 0.15
23 0.37
24 0.15
27 0.15
28 0.15
29 0.15
3 -0.52
30 0.15
31 0.15
32 0.15
4 -0.55
5 -0.7
6 0.91
7 0.09
8 0.12
9 0.28

> <PUBCHEM_EFFECTIVE_ROTOR_COUNT>
2.4

> <PUBCHEM_PHARMACOPHORE_FEATURES>
9
1 1 acceptor
1 2 acceptor
1 2 anion
1 3 acceptor
1 4 donor
1 5 acceptor
6 10 17 18 19 20 21 rings
6 7 8 11 12 14 16 rings
7 4 5 7 8 9 13 15 rings

> <PUBCHEM_HEAVY_ATOM_COUNT>
21

> <PUBCHEM_ATOM_DEF_STEREO_COUNT>
0

> <PUBCHEM_ATOM_UDEF_STEREO_COUNT>
0

> <PUBCHEM_BOND_DEF_STEREO_COUNT>
0

> <PUBCHEM_BOND_UDEF_STEREO_COUNT>
0

> <PUBCHEM_ISOTOPIC_ATOM_COUNT>
0

> <PUBCHEM_COMPONENT_COUNT>
1

> <PUBCHEM_CACTVS_TAUTO_COUNT>
3

> <PUBCHEM_CONFORMER_ID>
0000119A00000001

> <PUBCHEM_MMFF94_ENERGY>
86.9453

> <PUBCHEM_FEATURE_SELFOVERLAP>
45.762

> <PUBCHEM_SHAPE_FINGERPRINT>
11578080 2 16341211742465069924
11680986 33 18337686260188460977
12173636 292 17187565486559545212
12363563 72 18338231669300500463
12553582 1 18265318668005878775
12788726 201 17834681873680790538
12839892 36 17690013236214020547
13140716 1 18264210381928274218
14022347 108 18124305275393733067
14115302 16 18056753466947456174
14790565 3 17907008482980284456
14863182 85 17550655622441364487
15415430 2 17832146399830066255
16752209 62 17476367574186588384
16945 1 18053959354603928929
19591789 44 17834392320218755612
20028762 73 16461342961082156311
20510252 161 17687751957444598312
20600515 1 18120366811695042508
20645477 70 18124888858897863671
21452121 199 18342175583301951862
21665056 4 17113249499764164750
23184049 29 18341335603462777538
23419403 2 17771657609515432814
23557571 272 17973444596783254086
23559900 14 18339653239261391977
2748010 2 18264227905432024688
3060560 45 17908138776748940780
3084891 72 17763192731797341661
314173 41 18412261774413652227
458136 41 17905310850127275441
7364860 26 18266176128267021785
81228 2 17829604311999050184
8809292 202 17830739020994631934
9709674 26 17684655715890579942

> <PUBCHEM_SHAPE_MULTIPOLES>
399.62
5.87
4.78
1.04
4.63
2.61
-0.04
-5.27
-0.74
-3.6
0.48
0.28
-0.04
1.29

> <PUBCHEM_SHAPE_SELFOVERLAP>
882.798

> <PUBCHEM_SHAPE_VOLUME>
212.2

> <PUBCHEM_COORDINATE_TYPE>
2
5
10

$$$$

