441108
  -OEChem-07051212523D

 88 89  0     1  0  0  0  0  0999 V2000
   -2.3915    0.4134   -0.2662 O   0  0  0  0  0  0  0  0  0  0  0  0
   -3.6341   -1.4242    0.5716 O   0  0  0  0  0  0  0  0  0  0  0  0
   -0.6210   -2.6314   -1.9498 O   0  0  0  0  0  0  0  0  0  0  0  0
    0.8987   -1.6497    1.2449 O   0  0  0  0  0  0  0  0  0  0  0  0
    1.6612    2.5674   -0.5395 O   0  0  0  0  0  0  0  0  0  0  0  0
   -4.9649    1.6663   -0.6459 O   0  0  0  0  0  0  0  0  0  0  0  0
   -6.8763   -0.3728   -0.7890 O   0  0  0  0  0  0  0  0  0  0  0  0
    3.9580    0.8700    1.7151 O   0  0  0  0  0  0  0  0  0  0  0  0
    3.9814   -2.0144    2.1195 O   0  0  0  0  0  0  0  0  0  0  0  0
    1.0941    2.1371    1.6568 O   0  0  0  0  0  0  0  0  0  0  0  0
   -0.2379   -0.3265   -1.0934 C   0  0  1  0  0  0  0  0  0  0  0  0
   -0.9855    0.5590   -0.0464 C   0  0  1  0  0  0  0  0  0  0  0  0
   -0.4446   -1.8492   -0.7673 C   0  0  2  0  0  0  0  0  0  0  0  0
    0.6718   -2.4981    0.1215 C   0  0  1  0  0  0  0  0  0  0  0  0
    1.9961   -2.7121   -0.6712 C   0  0  0  0  0  0  0  0  0  0  0  0
   -0.5990    2.0558   -0.0777 C   0  0  2  0  0  0  0  0  0  0  0  0
   -5.3124    0.9498    0.5431 C   0  0  2  0  0  0  0  0  0  0  0  0
   -3.0367   -0.1616    0.8653 C   0  0  2  0  0  0  0  0  0  0  0  0
   -4.0679    0.8156    1.4388 C   0  0  0  0  0  0  0  0  0  0  0  0
    3.2287   -3.1517    0.1477 C   0  0  2  0  0  0  0  0  0  0  0  0
   -5.8344   -0.4544    0.1781 C   0  0  2  0  0  0  0  0  0  0  0  0
   -4.7124   -1.3509   -0.3648 C   0  0  2  0  0  0  0  0  0  0  0  0
   -0.6707    0.0187   -2.5289 C   0  0  0  0  0  0  0  0  0  0  0  0
    4.5005   -0.8382    0.0754 C   0  0  2  0  0  0  0  0  0  0  0  0
    3.9518    1.6466   -0.5903 C   0  0  2  0  0  0  0  0  0  0  0  0
    3.6996    0.4488    0.3710 C   0  0  2  0  0  0  0  0  0  0  0  0
    0.1518   -3.8479    0.6525 C   0  0  0  0  0  0  0  0  0  0  0  0
    3.9106   -1.9982    0.8876 C   0  0  0  0  0  0  0  0  0  0  0  0
    3.0416    2.8524   -0.2104 C   0  0  1  0  0  0  0  0  0  0  0  0
    0.8037    2.2512    0.4727 C   0  0  0  0  0  0  0  0  0  0  0  0
   -1.5470    2.9346    0.7471 C   0  0  0  0  0  0  0  0  0  0  0  0
   -6.3810    1.7904    1.2469 C   0  0  0  0  0  0  0  0  0  0  0  0
    4.2545   -3.8628   -0.7383 C   0  0  0  0  0  0  0  0  0  0  0  0
   -5.2001   -2.7782   -0.6031 C   0  0  0  0  0  0  0  0  0  0  0  0
    3.4142    4.1364   -0.9497 C   0  0  0  0  0  0  0  0  0  0  0  0
    5.9955   -0.7294    0.3673 C   0  0  0  0  0  0  0  0  0  0  0  0
    3.7750    1.2434   -2.0603 C   0  0  0  0  0  0  0  0  0  0  0  0
    2.5288    5.2949   -0.5306 C   0  0  0  0  0  0  0  0  0  0  0  0
    0.8296   -0.1026   -1.0278 H   0  0  0  0  0  0  0  0  0  0  0  0
   -0.6889    0.2007    0.9440 H   0  0  0  0  0  0  0  0  0  0  0  0
   -1.3859   -1.9429   -0.2250 H   0  0  0  0  0  0  0  0  0  0  0  0
    2.2425   -1.7883   -1.2041 H   0  0  0  0  0  0  0  0  0  0  0  0
    1.8064   -3.4616   -1.4512 H   0  0  0  0  0  0  0  0  0  0  0  0
   -0.6417    2.4456   -1.1002 H   0  0  0  0  0  0  0  0  0  0  0  0
   -2.3357   -0.3720    1.6801 H   0  0  0  0  0  0  0  0  0  0  0  0
   -4.3962    0.4155    2.4081 H   0  0  0  0  0  0  0  0  0  0  0  0
   -3.6425    1.7976    1.6301 H   0  0  0  0  0  0  0  0  0  0  0  0
    2.9223   -3.8759    0.9108 H   0  0  0  0  0  0  0  0  0  0  0  0
   -6.2541   -0.9171    1.0806 H   0  0  0  0  0  0  0  0  0  0  0  0
   -4.3363   -0.9741   -1.3241 H   0  0  0  0  0  0  0  0  0  0  0  0
   -0.0764   -0.5455   -3.2560 H   0  0  0  0  0  0  0  0  0  0  0  0
   -1.7266   -0.2151   -2.7004 H   0  0  0  0  0  0  0  0  0  0  0  0
   -0.5149    1.0765   -2.7563 H   0  0  0  0  0  0  0  0  0  0  0  0
    4.3890   -1.0990   -0.9791 H   0  0  0  0  0  0  0  0  0  0  0  0
    4.9889    1.9774   -0.4461 H   0  0  0  0  0  0  0  0  0  0  0  0
    2.6361    0.1996    0.3295 H   0  0  0  0  0  0  0  0  0  0  0  0
    0.0686   -4.6007   -0.1372 H   0  0  0  0  0  0  0  0  0  0  0  0
    0.8059   -4.2431    1.4368 H   0  0  0  0  0  0  0  0  0  0  0  0
   -0.8317   -3.7318    1.1230 H   0  0  0  0  0  0  0  0  0  0  0  0
    3.1423    3.0590    0.8623 H   0  0  0  0  0  0  0  0  0  0  0  0
   -1.1581    3.9583    0.8085 H   0  0  0  0  0  0  0  0  0  0  0  0
   -2.5295    3.0012    0.2734 H   0  0  0  0  0  0  0  0  0  0  0  0
   -1.6387    2.5704    1.7748 H   0  0  0  0  0  0  0  0  0  0  0  0
   -7.2495    1.9463    0.5971 H   0  0  0  0  0  0  0  0  0  0  0  0
   -6.7223    1.3171    2.1732 H   0  0  0  0  0  0  0  0  0  0  0  0
   -5.9947    2.7871    1.4893 H   0  0  0  0  0  0  0  0  0  0  0  0
    3.8451   -4.8054   -1.1174 H   0  0  0  0  0  0  0  0  0  0  0  0
    4.5421   -3.2552   -1.6023 H   0  0  0  0  0  0  0  0  0  0  0  0
    5.1654   -4.0942   -0.1754 H   0  0  0  0  0  0  0  0  0  0  0  0
   -0.9938   -3.4904   -1.6909 H   0  0  0  0  0  0  0  0  0  0  0  0
    0.0999   -1.6624    1.7992 H   0  0  0  0  0  0  0  0  0  0  0  0
   -4.3734   -3.4075   -0.9513 H   0  0  0  0  0  0  0  0  0  0  0  0
   -5.5651   -3.2277    0.3270 H   0  0  0  0  0  0  0  0  0  0  0  0
   -5.9995   -2.8143   -1.3490 H   0  0  0  0  0  0  0  0  0  0  0  0
    3.2943    4.0185   -2.0313 H   0  0  0  0  0  0  0  0  0  0  0  0
    4.4626    4.3895   -0.7560 H   0  0  0  0  0  0  0  0  0  0  0  0
    6.5004   -1.6775    0.1512 H   0  0  0  0  0  0  0  0  0  0  0  0
    6.4607    0.0456   -0.2493 H   0  0  0  0  0  0  0  0  0  0  0  0
    6.1899   -0.4926    1.4186 H   0  0  0  0  0  0  0  0  0  0  0  0
    2.7898    0.8022   -2.2404 H   0  0  0  0  0  0  0  0  0  0  0  0
    3.8933    2.0943   -2.7358 H   0  0  0  0  0  0  0  0  0  0  0  0
    4.5336    0.5163   -2.3647 H   0  0  0  0  0  0  0  0  0  0  0  0
   -4.2116    1.2215   -1.0680 H   0  0  0  0  0  0  0  0  0  0  0  0
   -6.5170    0.0787   -1.5718 H   0  0  0  0  0  0  0  0  0  0  0  0
    3.6603    0.1629    2.3117 H   0  0  0  0  0  0  0  0  0  0  0  0
    1.4820    5.1255   -0.8015 H   0  0  0  0  0  0  0  0  0  0  0  0
    2.5822    5.4623    0.5500 H   0  0  0  0  0  0  0  0  0  0  0  0
    2.8534    6.2145   -1.0286 H   0  0  0  0  0  0  0  0  0  0  0  0
  1 12  1  0  0  0  0
  1 18  1  0  0  0  0
  2 18  1  0  0  0  0
  2 22  1  0  0  0  0
  3 13  1  0  0  0  0
  3 70  1  0  0  0  0
  4 14  1  0  0  0  0
  4 71  1  0  0  0  0
  5 29  1  0  0  0  0
  5 30  1  0  0  0  0
  6 17  1  0  0  0  0
  6 83  1  0  0  0  0
  7 21  1  0  0  0  0
  7 84  1  0  0  0  0
  8 26  1  0  0  0  0
  8 85  1  0  0  0  0
  9 28  2  0  0  0  0
 10 30  2  0  0  0  0
 11 12  1  0  0  0  0
 11 13  1  0  0  0  0
 11 23  1  0  0  0  0
 11 39  1  0  0  0  0
 12 16  1  0  0  0  0
 12 40  1  0  0  0  0
 13 14  1  0  0  0  0
 13 41  1  0  0  0  0
 14 15  1  0  0  0  0
 14 27  1  0  0  0  0
 15 20  1  0  0  0  0
 15 42  1  0  0  0  0
 15 43  1  0  0  0  0
 16 30  1  0  0  0  0
 16 31  1  0  0  0  0
 16 44  1  0  0  0  0
 17 19  1  0  0  0  0
 17 21  1  0  0  0  0
 17 32  1  0  0  0  0
 18 19  1  0  0  0  0
 18 45  1  0  0  0  0
 19 46  1  0  0  0  0
 19 47  1  0  0  0  0
 20 28  1  0  0  0  0
 20 33  1  0  0  0  0
 20 48  1  0  0  0  0
 21 22  1  0  0  0  0
 21 49  1  0  0  0  0
 22 34  1  0  0  0  0
 22 50  1  0  0  0  0
 23 51  1  0  0  0  0
 23 52  1  0  0  0  0
 23 53  1  0  0  0  0
 24 26  1  0  0  0  0
 24 28  1  0  0  0  0
 24 36  1  0  0  0  0
 24 54  1  0  0  0  0
 25 26  1  0  0  0  0
 25 29  1  0  0  0  0
 25 37  1  0  0  0  0
 25 55  1  0  0  0  0
 26 56  1  0  0  0  0
 27 57  1  0  0  0  0
 27 58  1  0  0  0  0
 27 59  1  0  0  0  0
 29 35  1  0  0  0  0
 29 60  1  0  0  0  0
 31 61  1  0  0  0  0
 31 62  1  0  0  0  0
 31 63  1  0  0  0  0
 32 64  1  0  0  0  0
 32 65  1  0  0  0  0
 32 66  1  0  0  0  0
 33 67  1  0  0  0  0
 33 68  1  0  0  0  0
 33 69  1  0  0  0  0
 34 72  1  0  0  0  0
 34 73  1  0  0  0  0
 34 74  1  0  0  0  0
 35 38  1  0  0  0  0
 35 75  1  0  0  0  0
 35 76  1  0  0  0  0
 36 77  1  0  0  0  0
 36 78  1  0  0  0  0
 36 79  1  0  0  0  0
 37 80  1  0  0  0  0
 37 81  1  0  0  0  0
 37 82  1  0  0  0  0
 38 86  1  0  0  0  0
 38 87  1  0  0  0  0
 38 88  1  0  0  0  0
M  END
> <PUBCHEM_COMPOUND_CID>
441108

> <PUBCHEM_CONFORMER_RMSD>
1

> <PUBCHEM_CONFORMER_DIVERSEORDER>
2
18
10
16
1
4
19
20
21
5
9
6
11
7
8
22
13
15
24
23
12
14
3
17

> <PUBCHEM_MMFF94_PARTIAL_CHARGES>
29
1 -0.56
10 -0.57
12 0.28
13 0.28
14 0.28
16 0.06
17 0.28
18 0.56
2 -0.56
20 0.06
21 0.28
22 0.28
24 0.06
26 0.28
28 0.45
29 0.28
3 -0.68
30 0.66
4 -0.68
5 -0.43
6 -0.68
7 -0.68
70 0.4
71 0.4
8 -0.68
83 0.4
84 0.4
85 0.4
9 -0.57

> <PUBCHEM_EFFECTIVE_ROTOR_COUNT>
6.6

> <PUBCHEM_PHARMACOPHORE_FEATURES>
16
1 1 acceptor
1 10 acceptor
1 2 acceptor
1 3 acceptor
1 3 donor
1 38 hydrophobe
1 4 acceptor
1 4 donor
1 6 acceptor
1 6 donor
1 7 acceptor
1 7 donor
1 8 acceptor
1 8 donor
1 9 acceptor
6 2 17 18 19 21 22 rings

> <PUBCHEM_HEAVY_ATOM_COUNT>
38

> <PUBCHEM_ATOM_DEF_STEREO_COUNT>
14

> <PUBCHEM_ATOM_UDEF_STEREO_COUNT>
0

> <PUBCHEM_BOND_DEF_STEREO_COUNT>
0

> <PUBCHEM_BOND_UDEF_STEREO_COUNT>
0

> <PUBCHEM_ISOTOPIC_ATOM_COUNT>
0

> <PUBCHEM_COMPONENT_COUNT>
1

> <PUBCHEM_CACTVS_TAUTO_COUNT>
3

> <PUBCHEM_CONFORMER_ID>
0006BB1400000002

> <PUBCHEM_MMFF94_ENERGY>
121.184

> <PUBCHEM_FEATURE_SELFOVERLAP>
81.241

> <PUBCHEM_SHAPE_FINGERPRINT>
10290309 65 15743302095220875198
10675989 125 18339921506987541704
10838868 158 17484786139995864491
1100329 8 18339079294386897658
11007060 377 17901088746714776744
11227688 84 17541391142378766631
11578080 2 17415851446753450861
11756154 67 18048873297767306966
12107183 9 18337665442830475225
12107698 1 18267302230565419874
12156800 1 14350816601169136166
12422481 6 17896323691232154877
12788726 201 17968361373928975056
13140716 1 18120657933758805632
1361 2 18412543206561658794
13785724 45 18192139615362754004
14117953 113 18046343299920504223
14394314 77 18335419050074738416
14784336 7 18041564612033181465
14787075 74 18342738515843980035
14790565 3 18050562950216593364
15001296 14 18341333310350784931
15250474 111 18336267830169396319
15927050 60 18049719625235659902
15968369 153 17611754405275748995
18608769 82 18334861653824902962
19319366 153 18047471119646501508
23559900 14 18340491170316984513
338550 245 18410295774587346836
3680242 22 18339355370257453667
392239 28 18339079422877636595
460360 51 18336277777192413335
469060 322 18122619724321762050
513532 50 18040425608402593374
5265222 85 17908405967076252180
5312544 6 18339920403212042988

> <PUBCHEM_SHAPE_MULTIPOLES>
723.33
13.38
5.56
1.58
16.06
2.23
0.28
-0.93
-1.58
-6.19
0.62
-0.47
-0.08
-2.03

> <PUBCHEM_SHAPE_SELFOVERLAP>
1454.082

> <PUBCHEM_SHAPE_VOLUME>
422

> <PUBCHEM_COORDINATE_TYPE>
2
5
10

$$$$

