442663
  -OEChem-07051212592D

 43 46  0     1  0  0  0  0  0999 V2000
   10.4781   -0.3827    0.0000 O   0  0  0  0  0  0  0  0  0  0  0  0
    6.9059   -0.6126    0.0000 O   0  0  0  0  0  0  0  0  0  0  0  0
    8.6658    2.4221    0.0000 O   0  0  0  0  0  0  0  0  0  0  0  0
    6.9174    2.4567    0.0000 O   0  0  0  0  0  0  0  0  0  0  0  0
    5.1357    1.4462    0.0000 O   0  0  0  0  0  0  0  0  0  0  0  0
    2.5357   -0.1121    0.0000 O   0  0  0  0  0  0  0  0  0  0  0  0
    2.5434   -2.1121    0.0000 O   0  0  0  0  0  0  0  0  0  0  0  0
   11.0617    0.4221    0.0000 C   0  0  3  0  0  0  0  0  0  0  0  0
   10.4781    1.2268    0.0000 C   0  0  0  0  0  0  0  0  0  0  0  0
    9.5319    0.9221    0.0000 C   0  0  0  0  0  0  0  0  0  0  0  0
    9.5319   -0.0779    0.0000 C   0  0  0  0  0  0  0  0  0  0  0  0
    8.6658    1.4221    0.0000 C   0  0  0  0  0  0  0  0  0  0  0  0
    7.7998    0.9221    0.0000 C   0  0  0  0  0  0  0  0  0  0  0  0
   12.0617    0.4221    0.0000 C   0  0  0  0  0  0  0  0  0  0  0  0
    8.6658   -0.5779    0.0000 C   0  0  0  0  0  0  0  0  0  0  0  0
    7.7998   -0.0779    0.0000 C   0  0  0  0  0  0  0  0  0  0  0  0
    6.9059    1.4567    0.0000 C   0  0  0  0  0  0  0  0  0  0  0  0
    5.9998   -0.0987    0.0000 C   0  0  0  0  0  0  0  0  0  0  0  0
   12.5617   -0.4440    0.0000 C   0  0  0  0  0  0  0  0  0  0  0  0
    5.9998    0.9429    0.0000 C   0  0  0  0  0  0  0  0  0  0  0  0
   12.5617    1.2881    0.0000 C   0  0  0  0  0  0  0  0  0  0  0  0
    5.1357   -0.6021    0.0000 C   0  0  0  0  0  0  0  0  0  0  0  0
    4.2678   -0.1054    0.0000 C   0  0  0  0  0  0  0  0  0  0  0  0
    5.1396   -1.6021    0.0000 C   0  0  0  0  0  0  0  0  0  0  0  0
    3.4037   -0.6088    0.0000 C   0  0  0  0  0  0  0  0  0  0  0  0
    4.2755   -2.1054    0.0000 C   0  0  0  0  0  0  0  0  0  0  0  0
    3.4075   -1.6087    0.0000 C   0  0  0  0  0  0  0  0  0  0  0  0
   11.3434   -0.1302    0.0000 H   0  0  0  0  0  0  0  0  0  0  0  0
   11.0155    1.5360    0.0000 H   0  0  0  0  0  0  0  0  0  0  0  0
   10.2271    1.7937    0.0000 H   0  0  0  0  0  0  0  0  0  0  0  0
    8.6658   -1.1979    0.0000 H   0  0  0  0  0  0  0  0  0  0  0  0
   12.0248   -0.7540    0.0000 H   0  0  0  0  0  0  0  0  0  0  0  0
   12.8717   -0.9809    0.0000 H   0  0  0  0  0  0  0  0  0  0  0  0
   13.0986   -0.1340    0.0000 H   0  0  0  0  0  0  0  0  0  0  0  0
   13.1817    1.2881    0.0000 H   0  0  0  0  0  0  0  0  0  0  0  0
   12.2517    1.8250    0.0000 H   0  0  0  0  0  0  0  0  0  0  0  0
    9.2028    2.7321    0.0000 H   0  0  0  0  0  0  0  0  0  0  0  0
    4.2654    0.5146    0.0000 H   0  0  0  0  0  0  0  0  0  0  0  0
    5.6777   -1.9100    0.0000 H   0  0  0  0  0  0  0  0  0  0  0  0
    5.1381    2.0662    0.0000 H   0  0  0  0  0  0  0  0  0  0  0  0
    4.2779   -2.7254    0.0000 H   0  0  0  0  0  0  0  0  0  0  0  0
    2.0000   -0.4242    0.0000 H   0  0  0  0  0  0  0  0  0  0  0  0
    2.5458   -2.7321    0.0000 H   0  0  0  0  0  0  0  0  0  0  0  0
  1  8  1  0  0  0  0
  1 11  1  0  0  0  0
  2 16  1  0  0  0  0
  2 18  1  0  0  0  0
  3 12  1  0  0  0  0
  3 37  1  0  0  0  0
  4 17  2  0  0  0  0
  5 20  1  0  0  0  0
  5 40  1  0  0  0  0
  6 25  1  0  0  0  0
  6 42  1  0  0  0  0
  7 27  1  0  0  0  0
  7 43  1  0  0  0  0
  8  9  1  0  0  0  0
  8 14  1  0  0  0  0
  8 28  1  0  0  0  0
  9 10  1  0  0  0  0
  9 29  1  0  0  0  0
  9 30  1  0  0  0  0
 10 11  2  0  0  0  0
 10 12  1  0  0  0  0
 11 15  1  0  0  0  0
 12 13  2  0  0  0  0
 13 16  1  0  0  0  0
 13 17  1  0  0  0  0
 14 19  1  0  0  0  0
 14 21  2  0  0  0  0
 15 16  2  0  0  0  0
 15 31  1  0  0  0  0
 17 20  1  0  0  0  0
 18 20  2  0  0  0  0
 18 22  1  0  0  0  0
 19 32  1  0  0  0  0
 19 33  1  0  0  0  0
 19 34  1  0  0  0  0
 21 35  1  0  0  0  0
 21 36  1  0  0  0  0
 22 23  2  0  0  0  0
 22 24  1  0  0  0  0
 23 25  1  0  0  0  0
 23 38  1  0  0  0  0
 24 26  2  0  0  0  0
 24 39  1  0  0  0  0
 25 27  2  0  0  0  0
 26 27  1  0  0  0  0
 26 41  1  0  0  0  0
M  END
> <PUBCHEM_COMPOUND_CID>
442663

> <PUBCHEM_COMPOUND_CANONICALIZED>
1

> <PUBCHEM_CACTVS_COMPLEXITY>
671

> <PUBCHEM_CACTVS_HBOND_ACCEPTOR>
7

> <PUBCHEM_CACTVS_HBOND_DONOR>
4

> <PUBCHEM_CACTVS_ROTATABLE_BOND>
2

> <PUBCHEM_CACTVS_SUBSKEYS>
AAADceB4OAAAAAAAAAAAAAAAAAAAASAAAAAwYIAAAAAAAEiBQAAAGgAACAAADBSgmAIyBoAABgCIAqBSAAICCAAkIAAIiAFGiMgNJzaGNRqCeWGl4BUJuQfI7PzOIAADCAAIQABAAAYQABCAAAAAAAAAAA==

> <PUBCHEM_IUPAC_OPENEYE_NAME>
7-(3,4-dihydroxyphenyl)-4,6-dihydroxy-2-isopropenyl-2,3-dihydrofuro[3,2-g]chromen-5-one

> <PUBCHEM_IUPAC_CAS_NAME>
7-(3,4-dihydroxyphenyl)-4,6-dihydroxy-2-(1-methylethenyl)-2,3-dihydrofuro[3,2-g][1]benzopyran-5-one

> <PUBCHEM_IUPAC_NAME>
7-(3,4-dihydroxyphenyl)-4,6-dihydroxy-2-prop-1-en-2-yl-2,3-dihydrofuro[3,2-g]chromen-5-one

> <PUBCHEM_IUPAC_SYSTEMATIC_NAME>
7-[3,4-bis(oxidanyl)phenyl]-4,6-bis(oxidanyl)-2-prop-1-en-2-yl-2,3-dihydrofuro[3,2-g]chromen-5-one

> <PUBCHEM_IUPAC_TRADITIONAL_NAME>
7-(3,4-dihydroxyphenyl)-4,6-dihydroxy-2-isopropenyl-2,3-dihydrofuro[3,2-g]chromen-5-one

> <PUBCHEM_IUPAC_INCHI>
InChI=1S/C20H16O7/c1-8(2)13-6-10-14(26-13)7-15-16(17(10)23)18(24)19(25)20(27-15)9-3-4-11(21)12(22)5-9/h3-5,7,13,21-23,25H,1,6H2,2H3

> <PUBCHEM_IUPAC_INCHIKEY>
YFDRNZOCVRPNBL-UHFFFAOYSA-N

> <PUBCHEM_XLOGP3_AA>
3.8

> <PUBCHEM_EXACT_MASS>
368.089603

> <PUBCHEM_MOLECULAR_FORMULA>
C20H16O7

> <PUBCHEM_MOLECULAR_WEIGHT>
368.33684

> <PUBCHEM_OPENEYE_CAN_SMILES>
CC(=C)C1CC2=C(O1)C=C3C(=C2O)C(=O)C(=C(O3)C4=CC(=C(C=C4)O)O)O

> <PUBCHEM_OPENEYE_ISO_SMILES>
CC(=C)C1CC2=C(O1)C=C3C(=C2O)C(=O)C(=C(O3)C4=CC(=C(C=C4)O)O)O

> <PUBCHEM_CACTVS_TPSA>
116

> <PUBCHEM_MONOISOTOPIC_WEIGHT>
368.089603

> <PUBCHEM_TOTAL_CHARGE>
0

> <PUBCHEM_HEAVY_ATOM_COUNT>
27

> <PUBCHEM_ATOM_DEF_STEREO_COUNT>
0

> <PUBCHEM_ATOM_UDEF_STEREO_COUNT>
1

> <PUBCHEM_BOND_DEF_STEREO_COUNT>
0

> <PUBCHEM_BOND_UDEF_STEREO_COUNT>
0

> <PUBCHEM_ISOTOPIC_ATOM_COUNT>
0

> <PUBCHEM_COMPONENT_COUNT>
1

> <PUBCHEM_CACTVS_TAUTO_COUNT>
183

> <PUBCHEM_COORDINATE_TYPE>
1
5
255

> <PUBCHEM_BONDANNOTATIONS>
10  11  8
10  12  8
11  15  8
12  13  8
13  16  8
13  17  8
15  16  8
17  20  8
18  20  8
2  16  8
2  18  8
22  23  8
22  24  8
23  25  8
24  26  8
25  27  8
26  27  8
8  14  3

$$$$

