17395347
  -OEChem-06241222492D

 32 33  0     0  0  0  0  0  0999 V2000
    2.0000   -1.6830    0.0000 F   0  0  0  0  0  0  0  0  0  0  0  0
    2.0000   -3.6830    0.0000 F   0  0  0  0  0  0  0  0  0  0  0  0
    3.7320   -4.6830    0.0000 F   0  0  0  0  0  0  0  0  0  0  0  0
    4.5981    2.8170    0.0000 O   0  0  0  0  0  0  0  0  0  0  0  0
    5.4641   -0.6830    0.0000 O   0  0  0  0  0  0  0  0  0  0  0  0
    6.3301    2.8170    0.0000 N   0  0  0  0  0  0  0  0  0  0  0  0
    5.4641    1.3170    0.0000 N   0  0  0  0  0  0  0  0  0  0  0  0
    3.7320   -0.6830    0.0000 N   0  0  0  0  0  0  0  0  0  0  0  0
    6.3301    3.8170    0.0000 C   0  0  0  0  0  0  0  0  0  0  0  0
    6.8301    4.6830    0.0000 C   0  0  0  0  0  0  0  0  0  0  0  0
    5.8301    4.6830    0.0000 C   0  0  0  0  0  0  0  0  0  0  0  0
    5.4641    2.3170    0.0000 C   0  0  0  0  0  0  0  0  0  0  0  0
    4.5981    0.8170    0.0000 C   0  0  0  0  0  0  0  0  0  0  0  0
    4.5981   -0.1830    0.0000 C   0  0  0  0  0  0  0  0  0  0  0  0
    3.7320   -1.6830    0.0000 C   0  0  0  0  0  0  0  0  0  0  0  0
    2.8660   -2.1830    0.0000 C   0  0  0  0  0  0  0  0  0  0  0  0
    4.5981   -2.1830    0.0000 C   0  0  0  0  0  0  0  0  0  0  0  0
    2.8660   -3.1830    0.0000 C   0  0  0  0  0  0  0  0  0  0  0  0
    4.5981   -3.1830    0.0000 C   0  0  0  0  0  0  0  0  0  0  0  0
    3.7320   -3.6830    0.0000 C   0  0  0  0  0  0  0  0  0  0  0  0
    6.9290    3.6565    0.0000 H   0  0  0  0  0  0  0  0  0  0  0  0
    7.4127    4.4710    0.0000 H   0  0  0  0  0  0  0  0  0  0  0  0
    6.9378    5.2936    0.0000 H   0  0  0  0  0  0  0  0  0  0  0  0
    5.7225    5.2936    0.0000 H   0  0  0  0  0  0  0  0  0  0  0  0
    5.2475    4.4710    0.0000 H   0  0  0  0  0  0  0  0  0  0  0  0
    6.8671    2.5070    0.0000 H   0  0  0  0  0  0  0  0  0  0  0  0
    6.0010    1.0070    0.0000 H   0  0  0  0  0  0  0  0  0  0  0  0
    4.3860    1.3996    0.0000 H   0  0  0  0  0  0  0  0  0  0  0  0
    3.9875    0.7093    0.0000 H   0  0  0  0  0  0  0  0  0  0  0  0
    3.1951   -0.3730    0.0000 H   0  0  0  0  0  0  0  0  0  0  0  0
    5.1350   -1.8730    0.0000 H   0  0  0  0  0  0  0  0  0  0  0  0
    5.1350   -3.4930    0.0000 H   0  0  0  0  0  0  0  0  0  0  0  0
  1 16  1  0  0  0  0
  2 18  1  0  0  0  0
  3 20  1  0  0  0  0
  4 12  2  0  0  0  0
  5 14  2  0  0  0  0
  6  9  1  0  0  0  0
  6 12  1  0  0  0  0
  6 26  1  0  0  0  0
  7 12  1  0  0  0  0
  7 13  1  0  0  0  0
  7 27  1  0  0  0  0
  8 14  1  0  0  0  0
  8 15  1  0  0  0  0
  8 30  1  0  0  0  0
  9 10  1  0  0  0  0
  9 11  1  0  0  0  0
  9 21  1  0  0  0  0
 10 11  1  0  0  0  0
 10 22  1  0  0  0  0
 10 23  1  0  0  0  0
 11 24  1  0  0  0  0
 11 25  1  0  0  0  0
 13 14  1  0  0  0  0
 13 28  1  0  0  0  0
 13 29  1  0  0  0  0
 15 16  2  0  0  0  0
 15 17  1  0  0  0  0
 16 18  1  0  0  0  0
 17 19  2  0  0  0  0
 17 31  1  0  0  0  0
 18 20  2  0  0  0  0
 19 20  1  0  0  0  0
 19 32  1  0  0  0  0
M  END
> <PUBCHEM_COMPOUND_CID>
17395347

> <PUBCHEM_COMPOUND_CANONICALIZED>
1

> <PUBCHEM_CACTVS_COMPLEXITY>
379

> <PUBCHEM_CACTVS_HBOND_ACCEPTOR>
5

> <PUBCHEM_CACTVS_HBOND_DONOR>
3

> <PUBCHEM_CACTVS_ROTATABLE_BOND>
4

> <PUBCHEM_CACTVS_SUBSKEYS>
AAADccBzMYAAAAAAAAAAAAAAGAAAAAAAAAAwAAAAAAAAAAABAAAAHwAQAAAACCjBkAwxwILAAACIACVSUACCAAAhAgAIiICIZIiIYCLAkLGUIAholgLIyAcQAAAAAAAAAAAAAAAAAAAAAAAAAAAAAAAAAA==

> <PUBCHEM_IUPAC_OPENEYE_NAME>
2-(cyclopropylcarbamoylamino)-N-(2,3,4-trifluorophenyl)acetamide

> <PUBCHEM_IUPAC_CAS_NAME>
2-[[(cyclopropylamino)-oxomethyl]amino]-N-(2,3,4-trifluorophenyl)acetamide

> <PUBCHEM_IUPAC_NAME>
2-(cyclopropylcarbamoylamino)-N-(2,3,4-trifluorophenyl)acetamide

> <PUBCHEM_IUPAC_SYSTEMATIC_NAME>
2-(cyclopropylcarbamoylamino)-N-[2,3,4-tris(fluoranyl)phenyl]ethanamide

> <PUBCHEM_IUPAC_TRADITIONAL_NAME>
2-(cyclopropylcarbamoylamino)-N-(2,3,4-trifluorophenyl)acetamide

> <PUBCHEM_IUPAC_INCHI>
InChI=1S/C12H12F3N3O2/c13-7-3-4-8(11(15)10(7)14)18-9(19)5-16-12(20)17-6-1-2-6/h3-4,6H,1-2,5H2,(H,18,19)(H2,16,17,20)

> <PUBCHEM_IUPAC_INCHIKEY>
SOJQMMGCHHHZIS-UHFFFAOYSA-N

> <PUBCHEM_XLOGP3_AA>
1.1

> <PUBCHEM_EXACT_MASS>
287.088161

> <PUBCHEM_MOLECULAR_FORMULA>
C12H12F3N3O2

> <PUBCHEM_MOLECULAR_WEIGHT>
287.23779

> <PUBCHEM_OPENEYE_CAN_SMILES>
C1CC1NC(=O)NCC(=O)NC2=C(C(=C(C=C2)F)F)F

> <PUBCHEM_OPENEYE_ISO_SMILES>
C1CC1NC(=O)NCC(=O)NC2=C(C(=C(C=C2)F)F)F

> <PUBCHEM_CACTVS_TPSA>
70.2

> <PUBCHEM_MONOISOTOPIC_WEIGHT>
287.088161

> <PUBCHEM_TOTAL_CHARGE>
0

> <PUBCHEM_HEAVY_ATOM_COUNT>
20

> <PUBCHEM_ATOM_DEF_STEREO_COUNT>
0

> <PUBCHEM_ATOM_UDEF_STEREO_COUNT>
0

> <PUBCHEM_BOND_DEF_STEREO_COUNT>
0

> <PUBCHEM_BOND_UDEF_STEREO_COUNT>
0

> <PUBCHEM_ISOTOPIC_ATOM_COUNT>
0

> <PUBCHEM_COMPONENT_COUNT>
1

> <PUBCHEM_CACTVS_TAUTO_COUNT>
9

> <PUBCHEM_COORDINATE_TYPE>
1
5
255

> <PUBCHEM_BONDANNOTATIONS>
15  16  8
15  17  8
16  18  8
17  19  8
18  20  8
19  20  8

$$$$

