14432
  -OEChem-06241222432D

 46 47  0     1  0  0  0  0  0999 V2000
    7.7331    0.2500    0.0000 O   0  0  0  0  0  0  0  0  0  0  0  0
    3.4030   -0.2500    0.0000 O   0  0  0  0  0  0  0  0  0  0  0  0
    8.5991    2.7500    0.0000 O   0  0  0  0  0  0  0  0  0  0  0  0
    2.5369   -2.7500    0.0000 O   0  0  0  0  0  0  0  0  0  0  0  0
    8.5991    1.7500    0.0000 O   0  0  0  0  0  0  0  0  0  0  0  0
    2.5369   -1.7500    0.0000 O   0  0  0  0  0  0  0  0  0  0  0  0
    6.0010    1.2500    0.0000 N   0  0  0  0  0  0  0  0  0  0  0  0
    5.1350   -1.2500    0.0000 N   0  0  0  0  0  0  0  0  0  0  0  0
    6.0010    0.2500    0.0000 C   0  0  0  0  0  0  0  0  0  0  0  0
    5.1350   -0.2500    0.0000 C   0  0  0  0  0  0  0  0  0  0  0  0
    6.8671    1.7500    0.0000 C   0  0  3  0  0  0  0  0  0  0  0  0
    4.2690   -1.7500    0.0000 C   0  0  3  0  0  0  0  0  0  0  0  0
    4.2690   -2.7500    0.0000 C   0  0  0  0  0  0  0  0  0  0  0  0
    6.8671    2.7500    0.0000 C   0  0  0  0  0  0  0  0  0  0  0  0
    3.4030   -1.2500    0.0000 C   0  0  0  0  0  0  0  0  0  0  0  0
    7.7331    1.2500    0.0000 C   0  0  0  0  0  0  0  0  0  0  0  0
    3.4030   -3.2500    0.0000 C   0  0  0  0  0  0  0  0  0  0  0  0
    7.7331    3.2500    0.0000 C   0  0  0  0  0  0  0  0  0  0  0  0
    6.0010    3.2500    0.0000 C   0  0  0  0  0  0  0  0  0  0  0  0
    5.1350   -3.2500    0.0000 C   0  0  0  0  0  0  0  0  0  0  0  0
    7.7331    4.2500    0.0000 C   0  0  0  0  0  0  0  0  0  0  0  0
    3.4030   -4.2500    0.0000 C   0  0  0  0  0  0  0  0  0  0  0  0
    6.0010    4.2500    0.0000 C   0  0  0  0  0  0  0  0  0  0  0  0
    5.1350   -4.2500    0.0000 C   0  0  0  0  0  0  0  0  0  0  0  0
    6.8671    4.7500    0.0000 C   0  0  0  0  0  0  0  0  0  0  0  0
    4.2690   -4.7500    0.0000 C   0  0  0  0  0  0  0  0  0  0  0  0
    4.9230    0.3326    0.0000 H   0  0  0  0  0  0  0  0  0  0  0  0
    4.5244   -0.3577    0.0000 H   0  0  0  0  0  0  0  0  0  0  0  0
    6.2131   -0.3326    0.0000 H   0  0  0  0  0  0  0  0  0  0  0  0
    6.6116    0.3577    0.0000 H   0  0  0  0  0  0  0  0  0  0  0  0
    4.2690   -1.1300    0.0000 H   0  0  0  0  0  0  0  0  0  0  0  0
    6.3301    2.0600    0.0000 H   0  0  0  0  0  0  0  0  0  0  0  0
    5.6720   -1.5600    0.0000 H   0  0  0  0  0  0  0  0  0  0  0  0
    5.4641    1.5600    0.0000 H   0  0  0  0  0  0  0  0  0  0  0  0
    5.6720   -2.9400    0.0000 H   0  0  0  0  0  0  0  0  0  0  0  0
    5.4641    2.9400    0.0000 H   0  0  0  0  0  0  0  0  0  0  0  0
    2.8660   -4.5600    0.0000 H   0  0  0  0  0  0  0  0  0  0  0  0
    8.2700    4.5600    0.0000 H   0  0  0  0  0  0  0  0  0  0  0  0
    5.4641    4.5600    0.0000 H   0  0  0  0  0  0  0  0  0  0  0  0
    5.6720   -4.5600    0.0000 H   0  0  0  0  0  0  0  0  0  0  0  0
    6.8671    5.3700    0.0000 H   0  0  0  0  0  0  0  0  0  0  0  0
    4.2690   -5.3700    0.0000 H   0  0  0  0  0  0  0  0  0  0  0  0
    8.2700   -0.0600    0.0000 H   0  0  0  0  0  0  0  0  0  0  0  0
    2.8660    0.0600    0.0000 H   0  0  0  0  0  0  0  0  0  0  0  0
    9.1360    3.0600    0.0000 H   0  0  0  0  0  0  0  0  0  0  0  0
    2.0000   -3.0600    0.0000 H   0  0  0  0  0  0  0  0  0  0  0  0
  1 16  1  0  0  0  0
  1 43  1  0  0  0  0
  2 15  1  0  0  0  0
  2 44  1  0  0  0  0
  3 18  1  0  0  0  0
  3 45  1  0  0  0  0
  4 17  1  0  0  0  0
  4 46  1  0  0  0  0
  5 16  2  0  0  0  0
  6 15  2  0  0  0  0
  7  9  1  0  0  0  0
  7 11  1  0  0  0  0
  7 34  1  0  0  0  0
  8 10  1  0  0  0  0
  8 12  1  0  0  0  0
  8 33  1  0  0  0  0
  9 10  1  0  0  0  0
  9 29  1  0  0  0  0
  9 30  1  0  0  0  0
 10 27  1  0  0  0  0
 10 28  1  0  0  0  0
 11 14  1  0  0  0  0
 11 16  1  0  0  0  0
 11 32  1  0  0  0  0
 12 13  1  0  0  0  0
 12 15  1  0  0  0  0
 12 31  1  0  0  0  0
 13 17  1  0  0  0  0
 13 20  2  0  0  0  0
 14 18  1  0  0  0  0
 14 19  2  0  0  0  0
 17 22  2  0  0  0  0
 18 21  2  0  0  0  0
 19 23  1  0  0  0  0
 19 36  1  0  0  0  0
 20 24  1  0  0  0  0
 20 35  1  0  0  0  0
 21 25  1  0  0  0  0
 21 38  1  0  0  0  0
 22 26  1  0  0  0  0
 22 37  1  0  0  0  0
 23 25  2  0  0  0  0
 23 39  1  0  0  0  0
 24 26  2  0  0  0  0
 24 40  1  0  0  0  0
 25 41  1  0  0  0  0
 26 42  1  0  0  0  0
M  END
> <PUBCHEM_COMPOUND_CID>
14432

> <PUBCHEM_COMPOUND_CANONICALIZED>
1

> <PUBCHEM_CACTVS_COMPLEXITY>
433

> <PUBCHEM_CACTVS_HBOND_ACCEPTOR>
8

> <PUBCHEM_CACTVS_HBOND_DONOR>
6

> <PUBCHEM_CACTVS_ROTATABLE_BOND>
9

> <PUBCHEM_CACTVS_SUBSKEYS>
AAADceB7OAAAAAAAAAAAAAAAAAAAAAAAAAAwYAAAAAAAAAABQAAAHgAQCAAADCzBmAQwDoLAAgCIAiDSCACCAAAgIAAIiIGODIgKZjKClTOUcAhm0BGYmAfayKCOAAAAAAAIAAAAAAAAABAAAAAAAAAAAA==

> <PUBCHEM_IUPAC_OPENEYE_NAME>
2-[2-[[carboxy-(2-hydroxyphenyl)methyl]amino]ethylamino]-2-(2-hydroxyphenyl)acetic acid

> <PUBCHEM_IUPAC_CAS_NAME>
2-[2-[[carboxy-(2-hydroxyphenyl)methyl]amino]ethylamino]-2-(2-hydroxyphenyl)acetic acid

> <PUBCHEM_IUPAC_NAME>
2-[2-[[carboxy-(2-hydroxyphenyl)methyl]amino]ethylamino]-2-(2-hydroxyphenyl)acetic acid

> <PUBCHEM_IUPAC_SYSTEMATIC_NAME>
2-(2-hydroxyphenyl)-2-[2-[[1-(2-hydroxyphenyl)-2-oxidanyl-2-oxidanylidene-ethyl]amino]ethylamino]ethanoic acid

> <PUBCHEM_IUPAC_TRADITIONAL_NAME>
2-[2-[[carboxy-(2-hydroxyphenyl)methyl]amino]ethylamino]-2-(2-hydroxyphenyl)acetic acid

> <PUBCHEM_IUPAC_INCHI>
InChI=1S/C18H20N2O6/c21-13-7-3-1-5-11(13)15(17(23)24)19-9-10-20-16(18(25)26)12-6-2-4-8-14(12)22/h1-8,15-16,19-22H,9-10H2,(H,23,24)(H,25,26)

> <PUBCHEM_IUPAC_INCHIKEY>
PZZHMLOHNYWKIK-UHFFFAOYSA-N

> <PUBCHEM_XLOGP3_AA>
-2.2

> <PUBCHEM_EXACT_MASS>
360.132136

> <PUBCHEM_MOLECULAR_FORMULA>
C18H20N2O6

> <PUBCHEM_MOLECULAR_WEIGHT>
360.3612

> <PUBCHEM_OPENEYE_CAN_SMILES>
C1=CC=C(C(=C1)C(C(=O)O)NCCNC(C2=CC=CC=C2O)C(=O)O)O

> <PUBCHEM_OPENEYE_ISO_SMILES>
C1=CC=C(C(=C1)C(C(=O)O)NCCNC(C2=CC=CC=C2O)C(=O)O)O

> <PUBCHEM_CACTVS_TPSA>
139

> <PUBCHEM_MONOISOTOPIC_WEIGHT>
360.132136

> <PUBCHEM_TOTAL_CHARGE>
0

> <PUBCHEM_HEAVY_ATOM_COUNT>
26

> <PUBCHEM_ATOM_DEF_STEREO_COUNT>
0

> <PUBCHEM_ATOM_UDEF_STEREO_COUNT>
2

> <PUBCHEM_BOND_DEF_STEREO_COUNT>
0

> <PUBCHEM_BOND_UDEF_STEREO_COUNT>
0

> <PUBCHEM_ISOTOPIC_ATOM_COUNT>
0

> <PUBCHEM_COMPONENT_COUNT>
1

> <PUBCHEM_CACTVS_TAUTO_COUNT>
5

> <PUBCHEM_COORDINATE_TYPE>
1
5
255

> <PUBCHEM_BONDANNOTATIONS>
11  16  3
12  15  3
13  17  8
13  20  8
14  18  8
14  19  8
17  22  8
18  21  8
19  23  8
20  24  8
21  25  8
22  26  8
23  25  8
24  26  8

$$$$

