162976
  -OEChem-07051213093D

 39 41  0     1  0  0  0  0  0999 V2000
   -3.8327    3.7587   -0.1402 F   0  0  0  0  0  0  0  0  0  0  0  0
   -0.2836   -1.0194    1.6217 O   0  0  0  0  0  0  0  0  0  0  0  0
   -4.0436   -3.9168   -0.3391 N   0  0  0  0  0  0  0  0  0  0  0  0
    6.3400    0.6416   -0.4512 N   0  0  0  0  0  0  0  0  0  0  0  0
   -0.3481   -0.6369    0.2111 C   0  0  2  0  0  0  0  0  0  0  0  0
   -0.8774   -1.8225   -0.5873 C   0  0  0  0  0  0  0  0  0  0  0  0
    1.0707   -0.2874   -0.1327 C   0  0  0  0  0  0  0  0  0  0  0  0
    1.8932   -0.5519    0.9537 C   0  0  0  0  0  0  0  0  0  0  0  0
   -1.2735    0.5304    0.1177 C   0  0  0  0  0  0  0  0  0  0  0  0
    1.0898   -1.0995    2.0703 C   0  0  0  0  0  0  0  0  0  0  0  0
   -2.2266   -2.2974   -0.0505 C   0  0  0  0  0  0  0  0  0  0  0  0
    1.5937    0.2149   -1.3152 C   0  0  0  0  0  0  0  0  0  0  0  0
    3.2573   -0.3232    0.8980 C   0  0  0  0  0  0  0  0  0  0  0  0
   -2.7665   -3.4631   -0.8771 C   0  0  0  0  0  0  0  0  0  0  0  0
   -1.9210    0.8110   -1.0846 C   0  0  0  0  0  0  0  0  0  0  0  0
   -1.4893    1.3384    1.2333 C   0  0  0  0  0  0  0  0  0  0  0  0
    2.9674    0.4549   -1.3856 C   0  0  0  0  0  0  0  0  0  0  0  0
    3.7946    0.1880   -0.2846 C   0  0  0  0  0  0  0  0  0  0  0  0
   -2.7859    1.9019   -1.1716 C   0  0  0  0  0  0  0  0  0  0  0  0
   -2.3543    2.4293    1.1464 C   0  0  0  0  0  0  0  0  0  0  0  0
   -3.0027    2.7110   -0.0562 C   0  0  0  0  0  0  0  0  0  0  0  0
    5.1988    0.4381   -0.3764 C   0  0  0  0  0  0  0  0  0  0  0  0
   -0.9214   -1.6365   -1.6662 H   0  0  0  0  0  0  0  0  0  0  0  0
   -0.1758   -2.6626   -0.4753 H   0  0  0  0  0  0  0  0  0  0  0  0
    1.3285   -2.1486    2.2661 H   0  0  0  0  0  0  0  0  0  0  0  0
    1.1897   -0.5069    2.9835 H   0  0  0  0  0  0  0  0  0  0  0  0
   -2.1221   -2.6211    0.9929 H   0  0  0  0  0  0  0  0  0  0  0  0
   -2.9713   -1.4945   -0.0593 H   0  0  0  0  0  0  0  0  0  0  0  0
    0.9604    0.4172   -2.1722 H   0  0  0  0  0  0  0  0  0  0  0  0
    3.8849   -0.5406    1.7571 H   0  0  0  0  0  0  0  0  0  0  0  0
   -2.9012   -3.1576   -1.9206 H   0  0  0  0  0  0  0  0  0  0  0  0
   -2.0571   -4.2974   -0.8619 H   0  0  0  0  0  0  0  0  0  0  0  0
   -1.7632    0.2299   -1.9865 H   0  0  0  0  0  0  0  0  0  0  0  0
   -0.9921    1.1646    2.1830 H   0  0  0  0  0  0  0  0  0  0  0  0
    3.3860    0.8500   -2.3087 H   0  0  0  0  0  0  0  0  0  0  0  0
   -3.2862    2.1259   -2.1092 H   0  0  0  0  0  0  0  0  0  0  0  0
   -2.5206    3.0620    2.0132 H   0  0  0  0  0  0  0  0  0  0  0  0
   -4.4144   -4.6596   -0.9302 H   0  0  0  0  0  0  0  0  0  0  0  0
   -4.7218   -3.1568   -0.3766 H   0  0  0  0  0  0  0  0  0  0  0  0
  1 21  1  0  0  0  0
  2  5  1  0  0  0  0
  2 10  1  0  0  0  0
  3 14  1  0  0  0  0
  3 38  1  0  0  0  0
  3 39  1  0  0  0  0
  4 22  3  0  0  0  0
  5  6  1  0  0  0  0
  5  7  1  0  0  0  0
  5  9  1  0  0  0  0
  6 11  1  0  0  0  0
  6 23  1  0  0  0  0
  6 24  1  0  0  0  0
  7  8  2  0  0  0  0
  7 12  1  0  0  0  0
  8 10  1  0  0  0  0
  8 13  1  0  0  0  0
  9 15  2  0  0  0  0
  9 16  1  0  0  0  0
 10 25  1  0  0  0  0
 10 26  1  0  0  0  0
 11 14  1  0  0  0  0
 11 27  1  0  0  0  0
 11 28  1  0  0  0  0
 12 17  2  0  0  0  0
 12 29  1  0  0  0  0
 13 18  2  0  0  0  0
 13 30  1  0  0  0  0
 14 31  1  0  0  0  0
 14 32  1  0  0  0  0
 15 19  1  0  0  0  0
 15 33  1  0  0  0  0
 16 20  2  0  0  0  0
 16 34  1  0  0  0  0
 17 18  1  0  0  0  0
 17 35  1  0  0  0  0
 18 22  1  0  0  0  0
 19 21  2  0  0  0  0
 19 36  1  0  0  0  0
 20 21  1  0  0  0  0
 20 37  1  0  0  0  0
M  END
> <PUBCHEM_COMPOUND_CID>
162976

> <PUBCHEM_CONFORMER_RMSD>
0.8

> <PUBCHEM_CONFORMER_DIVERSEORDER>
3
7
6
4
5
2
8
1

> <PUBCHEM_MMFF94_PARTIAL_CHARGES>
29
1 -0.19
10 0.42
12 -0.15
13 -0.15
14 0.27
15 -0.15
16 -0.15
17 -0.15
18 0.07
19 -0.15
2 -0.56
20 -0.15
21 0.19
22 0.48
29 0.15
3 -0.99
30 0.15
33 0.15
34 0.15
35 0.15
36 0.15
37 0.15
38 0.36
39 0.36
4 -0.56
5 0.57
7 -0.14
8 -0.14
9 -0.14

> <PUBCHEM_EFFECTIVE_ROTOR_COUNT>
4.6

> <PUBCHEM_PHARMACOPHORE_FEATURES>
7
1 2 acceptor
1 3 cation
1 3 donor
1 4 acceptor
5 2 5 7 8 10 rings
6 7 8 12 13 17 18 rings
6 9 15 16 19 20 21 rings

> <PUBCHEM_HEAVY_ATOM_COUNT>
22

> <PUBCHEM_ATOM_DEF_STEREO_COUNT>
0

> <PUBCHEM_ATOM_UDEF_STEREO_COUNT>
1

> <PUBCHEM_BOND_DEF_STEREO_COUNT>
0

> <PUBCHEM_BOND_UDEF_STEREO_COUNT>
0

> <PUBCHEM_ISOTOPIC_ATOM_COUNT>
0

> <PUBCHEM_COMPONENT_COUNT>
1

> <PUBCHEM_CACTVS_TAUTO_COUNT>
1

> <PUBCHEM_CONFORMER_ID>
00027CA000000003

> <PUBCHEM_MMFF94_ENERGY>
55.402

> <PUBCHEM_FEATURE_SELFOVERLAP>
35.601

> <PUBCHEM_SHAPE_FINGERPRINT>
10291535 26 17894906356673292736
10764073 3 15073906991038594059
11101153 10 18052529968709790572
11640471 11 18129947895931910840
12714826 92 17822292332057202414
12788726 201 18269846336640857275
13540713 5 18059309741873752498
13583140 156 17604448340194224258
13590594 115 18123742055712297867
13681431 1 17543910105688499187
13955234 65 17328285357465518137
14142880 1 18131066052208027749
14713325 29 18260540126157688374
15209294 21 18059853987402659748
15534591 1 18272928345332282418
15842332 3 17987821703195622690
15906896 17 18271796939325183483
16945 1 18408045104318444419
1813 80 17900247607809049215
200 152 17916027858788692758
20600515 1 17553509992849058723
21285901 2 17823961377971179287
21426921 1 18409729526093819502
21524375 3 18129090285494462549
2255824 54 17398393508586201247
22907989 373 18261110733926834101
23402539 116 18269835320197195470
23419403 2 17169560605655100931
23557571 272 18187644678610572804
23559900 14 18041837441762899478
23598288 3 18341900713879974051
25147074 1 17988659514002673778
266924 1 18130802147794987962
283562 15 18270403776219686034
394222 165 17841154672969355793
5104073 3 17418373563883826656
5486654 2 18336553798183299165
6442390 28 17971732605781442497
68521 5 18337676300217245895
7164475 11 18340488872230224726
81228 2 18338505331931835155

> <PUBCHEM_SHAPE_MULTIPOLES>
429.64
8.5
3.69
1.49
11.9
1.24
-0.4
-1.87
2.14
-8.5
0.45
0.23
0.01
-0.97

> <PUBCHEM_SHAPE_SELFOVERLAP>
937.022

> <PUBCHEM_SHAPE_VOLUME>
236.5

> <PUBCHEM_COORDINATE_TYPE>
2
5
10

$$$$

