31586
  -OEChem-07051213142D

102107  0     1  0  0  0  0  0999 V2000
   23.9557    0.8315    0.0000 Cl  0  0  0  0  0  0  0  0  0  0  0  0
   23.2414    4.2212    0.0000 Cl  0  0  0  0  0  0  0  0  0  0  0  0
    3.7436    0.3480    0.0000 Cl  0  0  0  0  0  0  0  0  0  0  0  0
    2.0000   -2.6453    0.0000 Cl  0  0  0  0  0  0  0  0  0  0  0  0
   16.4384    0.1323    0.0000 O   0  0  0  0  0  0  0  0  0  0  0  0
   18.0847   -0.4058    0.0000 O   0  0  0  0  0  0  0  0  0  0  0  0
    9.7884   -4.1753    0.0000 O   0  0  0  0  0  0  0  0  0  0  0  0
    8.9282   -2.6720    0.0000 O   0  0  0  0  0  0  0  0  0  0  0  0
   21.6415    2.1139    0.0000 N   0  0  0  0  0  0  0  0  0  0  0  0
    4.6000   -2.1553    0.0000 N   0  0  0  0  0  0  0  0  0  0  0  0
   15.1815   -1.1230    0.0000 C   0  0  1  0  0  0  0  0  0  0  0  0
   15.1815   -2.1230    0.0000 C   0  0  2  0  0  0  0  0  0  0  0  0
   14.3154   -2.6230    0.0000 C   0  0  1  0  0  0  0  0  0  0  0  0
   13.4494   -2.1230    0.0000 C   0  0  2  0  0  0  0  0  0  0  0  0
   16.1277   -0.8182    0.0000 C   0  0  2  0  0  0  0  0  0  0  0  0
   14.3154   -0.6230    0.0000 C   0  0  0  0  0  0  0  0  0  0  0  0
   16.1277   -2.4277    0.0000 C   0  0  0  0  0  0  0  0  0  0  0  0
   13.4494   -1.1230    0.0000 C   0  0  0  0  0  0  0  0  0  0  0  0
   16.7113   -1.6230    0.0000 C   0  0  0  0  0  0  0  0  0  0  0  0
   14.3315   -3.6645    0.0000 C   0  0  0  0  0  0  0  0  0  0  0  0
   15.1815   -0.1230    0.0000 C   0  0  0  0  0  0  0  0  0  0  0  0
   12.5394   -2.6298    0.0000 C   0  0  0  0  0  0  0  0  0  0  0  0
   13.4335   -4.1922    0.0000 C   0  0  0  0  0  0  0  0  0  0  0  0
   12.5314   -3.6714    0.0000 C   0  0  0  0  0  0  0  0  0  0  0  0
   11.6126   -2.0657    0.0000 C   0  0  0  0  0  0  0  0  0  0  0  0
   11.5960   -4.2212    0.0000 C   0  0  0  0  0  0  0  0  0  0  0  0
   17.4169    0.3385    0.0000 C   0  0  0  0  0  0  0  0  0  0  0  0
   10.6647   -2.5937    0.0000 C   0  0  0  0  0  0  0  0  0  0  0  0
   10.6563   -3.6786    0.0000 C   0  0  0  0  0  0  0  0  0  0  0  0
   17.7275    1.2890    0.0000 C   0  0  0  0  0  0  0  0  0  0  0  0
   18.7060    1.4952    0.0000 C   0  0  0  0  0  0  0  0  0  0  0  0
    8.9243   -3.6720    0.0000 C   0  0  0  0  0  0  0  0  0  0  0  0
   19.3739    0.7509    0.0000 C   0  0  0  0  0  0  0  0  0  0  0  0
   19.0167    2.4458    0.0000 C   0  0  0  0  0  0  0  0  0  0  0  0
    8.0564   -4.1686    0.0000 C   0  0  0  0  0  0  0  0  0  0  0  0
   20.3524    0.9572    0.0000 C   0  0  0  0  0  0  0  0  0  0  0  0
   19.9952    2.6520    0.0000 C   0  0  0  0  0  0  0  0  0  0  0  0
   20.6630    1.9077    0.0000 C   0  0  0  0  0  0  0  0  0  0  0  0
    7.1923   -3.6653    0.0000 C   0  0  0  0  0  0  0  0  0  0  0  0
    7.1961   -2.6653    0.0000 C   0  0  0  0  0  0  0  0  0  0  0  0
    6.3243   -4.1620    0.0000 C   0  0  0  0  0  0  0  0  0  0  0  0
   21.9522    3.0644    0.0000 C   0  0  0  0  0  0  0  0  0  0  0  0
   22.3094    1.3696    0.0000 C   0  0  0  0  0  0  0  0  0  0  0  0
    6.3320   -2.1620    0.0000 C   0  0  0  0  0  0  0  0  0  0  0  0
    5.4602   -3.6586    0.0000 C   0  0  0  0  0  0  0  0  0  0  0  0
    5.4641   -2.6586    0.0000 C   0  0  0  0  0  0  0  0  0  0  0  0
   23.2879    1.5758    0.0000 C   0  0  0  0  0  0  0  0  0  0  0  0
   22.9307    3.2706    0.0000 C   0  0  0  0  0  0  0  0  0  0  0  0
    3.7320   -2.6519    0.0000 C   0  0  0  0  0  0  0  0  0  0  0  0
    4.6038   -1.1553    0.0000 C   0  0  0  0  0  0  0  0  0  0  0  0
    3.7398   -0.6520    0.0000 C   0  0  0  0  0  0  0  0  0  0  0  0
    2.8680   -2.1486    0.0000 C   0  0  0  0  0  0  0  0  0  0  0  0
   15.2714   -2.9682    0.0000 H   0  0  0  0  0  0  0  0  0  0  0  0
   15.0548   -3.0423    0.0000 H   0  0  0  0  0  0  0  0  0  0  0  0
   14.1855   -1.6980    0.0000 H   0  0  0  0  0  0  0  0  0  0  0  0
   16.7402   -0.7221    0.0000 H   0  0  0  0  0  0  0  0  0  0  0  0
   14.7140   -0.1480    0.0000 H   0  0  0  0  0  0  0  0  0  0  0  0
   13.9169   -0.1480    0.0000 H   0  0  0  0  0  0  0  0  0  0  0  0
   15.8767   -2.9946    0.0000 H   0  0  0  0  0  0  0  0  0  0  0  0
   16.6651   -2.7369    0.0000 H   0  0  0  0  0  0  0  0  0  0  0  0
   13.2374   -0.5404    0.0000 H   0  0  0  0  0  0  0  0  0  0  0  0
   12.8388   -1.2306    0.0000 H   0  0  0  0  0  0  0  0  0  0  0  0
   17.1722   -2.0377    0.0000 H   0  0  0  0  0  0  0  0  0  0  0  0
   17.1722   -1.2082    0.0000 H   0  0  0  0  0  0  0  0  0  0  0  0
   14.5495   -4.2449    0.0000 H   0  0  0  0  0  0  0  0  0  0  0  0
   14.9407   -3.5490    0.0000 H   0  0  0  0  0  0  0  0  0  0  0  0
   15.8015   -0.1230    0.0000 H   0  0  0  0  0  0  0  0  0  0  0  0
   15.1815    0.4970    0.0000 H   0  0  0  0  0  0  0  0  0  0  0  0
   14.5615   -0.1230    0.0000 H   0  0  0  0  0  0  0  0  0  0  0  0
   13.0362   -4.6682    0.0000 H   0  0  0  0  0  0  0  0  0  0  0  0
   13.8344   -4.6651    0.0000 H   0  0  0  0  0  0  0  0  0  0  0  0
   11.6245   -1.4459    0.0000 H   0  0  0  0  0  0  0  0  0  0  0  0
   11.5984   -4.8411    0.0000 H   0  0  0  0  0  0  0  0  0  0  0  0
   10.1314   -2.2775    0.0000 H   0  0  0  0  0  0  0  0  0  0  0  0
   17.7070    1.9087    0.0000 H   0  0  0  0  0  0  0  0  0  0  0  0
   17.1137    1.3764    0.0000 H   0  0  0  0  0  0  0  0  0  0  0  0
   19.1813    0.1616    0.0000 H   0  0  0  0  0  0  0  0  0  0  0  0
   18.6026    2.9072    0.0000 H   0  0  0  0  0  0  0  0  0  0  0  0
    7.6560   -4.6420    0.0000 H   0  0  0  0  0  0  0  0  0  0  0  0
    8.4530   -4.6451    0.0000 H   0  0  0  0  0  0  0  0  0  0  0  0
   20.7664    0.4957    0.0000 H   0  0  0  0  0  0  0  0  0  0  0  0
   20.1878    3.2413    0.0000 H   0  0  0  0  0  0  0  0  0  0  0  0
    7.7342   -2.3574    0.0000 H   0  0  0  0  0  0  0  0  0  0  0  0
    6.3219   -4.7820    0.0000 H   0  0  0  0  0  0  0  0  0  0  0  0
   21.7830    1.0420    0.0000 H   0  0  0  0  0  0  0  0  0  0  0  0
   22.5407    0.7943    0.0000 H   0  0  0  0  0  0  0  0  0  0  0  0
   21.9316    3.6841    0.0000 H   0  0  0  0  0  0  0  0  0  0  0  0
   21.3384    3.1518    0.0000 H   0  0  0  0  0  0  0  0  0  0  0  0
    6.3344   -1.5420    0.0000 H   0  0  0  0  0  0  0  0  0  0  0  0
    4.9221   -3.9666    0.0000 H   0  0  0  0  0  0  0  0  0  0  0  0
   22.9513    2.6510    0.0000 H   0  0  0  0  0  0  0  0  0  0  0  0
   23.5445    3.1833    0.0000 H   0  0  0  0  0  0  0  0  0  0  0  0
   23.8143    1.9034    0.0000 H   0  0  0  0  0  0  0  0  0  0  0  0
   23.0566    2.1511    0.0000 H   0  0  0  0  0  0  0  0  0  0  0  0
    5.2140   -1.2653    0.0000 H   0  0  0  0  0  0  0  0  0  0  0  0
    4.8181   -0.5735    0.0000 H   0  0  0  0  0  0  0  0  0  0  0  0
    3.3317   -3.1254    0.0000 H   0  0  0  0  0  0  0  0  0  0  0  0
    4.1287   -3.1284    0.0000 H   0  0  0  0  0  0  0  0  0  0  0  0
    3.1296   -0.5420    0.0000 H   0  0  0  0  0  0  0  0  0  0  0  0
    3.5254   -1.2338    0.0000 H   0  0  0  0  0  0  0  0  0  0  0  0
    3.2683   -1.6752    0.0000 H   0  0  0  0  0  0  0  0  0  0  0  0
    2.4712   -1.6721    0.0000 H   0  0  0  0  0  0  0  0  0  0  0  0
  1 47  1  0  0  0  0
  2 48  1  0  0  0  0
  3 51  1  0  0  0  0
  4 52  1  0  0  0  0
 15  5  1  1  0  0  0
  5 27  1  0  0  0  0
  6 27  2  0  0  0  0
  7 29  1  0  0  0  0
  7 32  1  0  0  0  0
  8 32  2  0  0  0  0
  9 38  1  0  0  0  0
  9 42  1  0  0  0  0
  9 43  1  0  0  0  0
 10 46  1  0  0  0  0
 10 49  1  0  0  0  0
 10 50  1  0  0  0  0
 11 12  1  0  0  0  0
 11 15  1  0  0  0  0
 11 16  1  0  0  0  0
 11 21  1  1  0  0  0
 12 13  1  0  0  0  0
 12 17  1  0  0  0  0
 12 53  1  6  0  0  0
 13 14  1  0  0  0  0
 13 20  1  0  0  0  0
 13 54  1  1  0  0  0
 14 18  1  0  0  0  0
 14 22  1  0  0  0  0
 14 55  1  6  0  0  0
 15 19  1  0  0  0  0
 15 56  1  0  0  0  0
 16 18  1  0  0  0  0
 16 57  1  0  0  0  0
 16 58  1  0  0  0  0
 17 19  1  0  0  0  0
 17 59  1  0  0  0  0
 17 60  1  0  0  0  0
 18 61  1  0  0  0  0
 18 62  1  0  0  0  0
 19 63  1  0  0  0  0
 19 64  1  0  0  0  0
 20 23  1  0  0  0  0
 20 65  1  0  0  0  0
 20 66  1  0  0  0  0
 21 67  1  0  0  0  0
 21 68  1  0  0  0  0
 21 69  1  0  0  0  0
 22 24  2  0  0  0  0
 22 25  1  0  0  0  0
 23 24  1  0  0  0  0
 23 70  1  0  0  0  0
 23 71  1  0  0  0  0
 24 26  1  0  0  0  0
 25 28  2  0  0  0  0
 25 72  1  0  0  0  0
 26 29  2  0  0  0  0
 26 73  1  0  0  0  0
 27 30  1  0  0  0  0
 28 29  1  0  0  0  0
 28 74  1  0  0  0  0
 30 31  1  0  0  0  0
 30 75  1  0  0  0  0
 30 76  1  0  0  0  0
 31 33  2  0  0  0  0
 31 34  1  0  0  0  0
 32 35  1  0  0  0  0
 33 36  1  0  0  0  0
 33 77  1  0  0  0  0
 34 37  2  0  0  0  0
 34 78  1  0  0  0  0
 35 39  1  0  0  0  0
 35 79  1  0  0  0  0
 35 80  1  0  0  0  0
 36 38  2  0  0  0  0
 36 81  1  0  0  0  0
 37 38  1  0  0  0  0
 37 82  1  0  0  0  0
 39 40  2  0  0  0  0
 39 41  1  0  0  0  0
 40 44  1  0  0  0  0
 40 83  1  0  0  0  0
 41 45  2  0  0  0  0
 41 84  1  0  0  0  0
 42 48  1  0  0  0  0
 42 87  1  0  0  0  0
 42 88  1  0  0  0  0
 43 47  1  0  0  0  0
 43 85  1  0  0  0  0
 43 86  1  0  0  0  0
 44 46  2  0  0  0  0
 44 89  1  0  0  0  0
 45 46  1  0  0  0  0
 45 90  1  0  0  0  0
 47 93  1  0  0  0  0
 47 94  1  0  0  0  0
 48 91  1  0  0  0  0
 48 92  1  0  0  0  0
 49 52  1  0  0  0  0
 49 97  1  0  0  0  0
 49 98  1  0  0  0  0
 50 51  1  0  0  0  0
 50 95  1  0  0  0  0
 50 96  1  0  0  0  0
 51 99  1  0  0  0  0
 51100  1  0  0  0  0
 52101  1  0  0  0  0
 52102  1  0  0  0  0
M  END
> <PUBCHEM_COMPOUND_CID>
31586

> <PUBCHEM_COMPOUND_CANONICALIZED>
1

> <PUBCHEM_CACTVS_COMPLEXITY>
1120

> <PUBCHEM_CACTVS_HBOND_ACCEPTOR>
6

> <PUBCHEM_CACTVS_HBOND_DONOR>
0

> <PUBCHEM_CACTVS_ROTATABLE_BOND>
18

> <PUBCHEM_CACTVS_SUBSKEYS>
AAADcfB/OAAHAAAAAAAAAAAAAAAAAYAAAAAwYMGDAAAAAGDBUAAAHgIAAAAADx/hmEYyzoMABACIAiTSSACCCAAhIgAIiAEObIgMJjLEtZvGOijkwBHI6AeYyPCPqAABAAAQAADQAAYAACAAAIAADAAAAA==

> <PUBCHEM_IUPAC_OPENEYE_NAME>
[(8R,9S,13S,14S,17S)-3-[2-[4-[bis(2-chloroethyl)amino]phenyl]acetyl]oxy-13-methyl-6,7,8,9,11,12,14,15,16,17-decahydrocyclopenta[a]phenanthren-17-yl] 2-[4-[bis(2-chloroethyl)amino]phenyl]acetate

> <PUBCHEM_IUPAC_CAS_NAME>
2-[4-[bis(2-chloroethyl)amino]phenyl]acetic acid [(8R,9S,13S,14S,17S)-3-[2-[4-[bis(2-chloroethyl)amino]phenyl]-1-oxoethoxy]-13-methyl-6,7,8,9,11,12,14,15,16,17-decahydrocyclopenta[a]phenanthren-17-yl] ester

> <PUBCHEM_IUPAC_NAME>
[(8R,9S,13S,14S,17S)-3-[2-[4-[bis(2-chloroethyl)amino]phenyl]acetyl]oxy-13-methyl-6,7,8,9,11,12,14,15,16,17-decahydrocyclopenta[a]phenanthren-17-yl] 2-[4-[bis(2-chloroethyl)amino]phenyl]acetate

> <PUBCHEM_IUPAC_SYSTEMATIC_NAME>
[(8R,9S,13S,14S,17S)-3-[2-[4-[bis(2-chloroethyl)amino]phenyl]ethanoyloxy]-13-methyl-6,7,8,9,11,12,14,15,16,17-decahydrocyclopenta[a]phenanthren-17-yl] 2-[4-[bis(2-chloroethyl)amino]phenyl]ethanoate

> <PUBCHEM_IUPAC_TRADITIONAL_NAME>
2-[4-[bis(2-chloroethyl)amino]phenyl]acetic acid [(8R,9S,13S,14S,17S)-3-[2-[4-[bis(2-chloroethyl)amino]phenyl]acetyl]oxy-13-methyl-6,7,8,9,11,12,14,15,16,17-decahydrocyclopenta[a]phenanthren-17-yl] ester

> <PUBCHEM_IUPAC_INCHI>
InChI=1S/C42H50Cl4N2O4/c1-42-17-16-36-35-13-11-34(51-40(49)26-29-2-7-32(8-3-29)47(22-18-43)23-19-44)28-31(35)6-12-37(36)38(42)14-15-39(42)52-41(50)27-30-4-9-33(10-5-30)48(24-20-45)25-21-46/h2-5,7-11,13,28,36-39H,6,12,14-27H2,1H3/t36-,37-,38+,39+,42+/m1/s1

> <PUBCHEM_IUPAC_INCHIKEY>
LRSFXIJGHRPOQQ-VZRQQIPSSA-N

> <PUBCHEM_XLOGP3>
9.2

> <PUBCHEM_EXACT_MASS>
788.249519

> <PUBCHEM_MOLECULAR_FORMULA>
C42H50Cl4N2O4

> <PUBCHEM_MOLECULAR_WEIGHT>
788.6694

> <PUBCHEM_OPENEYE_CAN_SMILES>
CC12CCC3C(C1CCC2OC(=O)CC4=CC=C(C=C4)N(CCCl)CCCl)CCC5=C3C=CC(=C5)OC(=O)CC6=CC=C(C=C6)N(CCCl)CCCl

> <PUBCHEM_OPENEYE_ISO_SMILES>
C[C@]12CC[C@H]3[C@H]([C@@H]1CC[C@@H]2OC(=O)CC4=CC=C(C=C4)N(CCCl)CCCl)CCC5=C3C=CC(=C5)OC(=O)CC6=CC=C(C=C6)N(CCCl)CCCl

> <PUBCHEM_CACTVS_TPSA>
59.1

> <PUBCHEM_MONOISOTOPIC_WEIGHT>
786.252469

> <PUBCHEM_TOTAL_CHARGE>
0

> <PUBCHEM_HEAVY_ATOM_COUNT>
52

> <PUBCHEM_ATOM_DEF_STEREO_COUNT>
5

> <PUBCHEM_ATOM_UDEF_STEREO_COUNT>
0

> <PUBCHEM_BOND_DEF_STEREO_COUNT>
0

> <PUBCHEM_BOND_UDEF_STEREO_COUNT>
0

> <PUBCHEM_ISOTOPIC_ATOM_COUNT>
0

> <PUBCHEM_COMPONENT_COUNT>
1

> <PUBCHEM_CACTVS_TAUTO_COUNT>
1

> <PUBCHEM_COORDINATE_TYPE>
1
5
255

> <PUBCHEM_BONDANNOTATIONS>
11  21  5
12  53  6
13  54  5
14  55  6
22  24  8
22  25  8
24  26  8
25  28  8
26  29  8
28  29  8
31  33  8
31  34  8
33  36  8
34  37  8
36  38  8
37  38  8
39  40  8
39  41  8
40  44  8
41  45  8
44  46  8
45  46  8
15  5  5

$$$$

