441863
  -OEChem-07051212562D

 88 92  0     1  0  0  0  0  0999 V2000
   13.1249   -1.5259    0.0000 O   0  0  0  0  0  0  0  0  0  0  0  0
   10.4671   -3.0743    0.0000 O   0  0  0  0  0  0  0  0  0  0  0  0
    7.7318   -2.5782    0.0000 O   0  0  0  0  0  0  0  0  0  0  0  0
    9.1647    0.0908    0.0000 O   0  0  0  0  0  0  0  0  0  0  0  0
   14.0246    3.4242    0.0000 O   0  0  0  0  0  0  0  0  0  0  0  0
   12.1991   -3.0876    0.0000 O   0  0  0  0  0  0  0  0  0  0  0  0
    6.8716   -1.0749    0.0000 O   0  0  0  0  0  0  0  0  0  0  0  0
   15.3138    4.5809    0.0000 O   0  0  0  0  0  0  0  0  0  0  0  0
    5.9960   -3.5715    0.0000 O   0  0  0  0  0  0  0  0  0  0  0  0
    5.1396   -1.0682    0.0000 O   0  0  0  0  0  0  0  0  0  0  0  0
    4.2639   -3.5648    0.0000 O   0  0  0  0  0  0  0  0  0  0  0  0
    2.5357   -2.5582    0.0000 O   0  0  0  0  0  0  0  0  0  0  0  0
   13.1249   -0.5259    0.0000 C   0  0  1  0  0  0  0  0  0  0  0  0
   12.2589   -1.0259    0.0000 C   0  0  1  0  0  0  0  0  0  0  0  0
   11.3929   -0.5259    0.0000 C   0  0  1  0  0  0  0  0  0  0  0  0
   13.1249    0.4741    0.0000 C   0  0  2  0  0  0  0  0  0  0  0  0
   10.4829   -1.0327    0.0000 C   0  0  2  0  0  0  0  0  0  0  0  0
   10.4749   -2.0743    0.0000 C   0  0  1  0  0  0  0  0  0  0  0  0
   11.3929    0.4741    0.0000 C   0  0  0  0  0  0  0  0  0  0  0  0
   12.2589    0.9741    0.0000 C   0  0  0  0  0  0  0  0  0  0  0  0
   14.0712    0.7788    0.0000 C   0  0  2  0  0  0  0  0  0  0  0  0
   12.2750   -2.0674    0.0000 C   0  0  0  0  0  0  0  0  0  0  0  0
   14.0712   -0.8306    0.0000 C   0  0  0  0  0  0  0  0  0  0  0  0
   11.3769   -2.5951    0.0000 C   0  0  0  0  0  0  0  0  0  0  0  0
   14.6548   -0.0259    0.0000 C   0  0  0  0  0  0  0  0  0  0  0  0
    9.5561   -0.4686    0.0000 C   0  0  0  0  0  0  0  0  0  0  0  0
    9.5394   -2.6240    0.0000 C   0  0  0  0  0  0  0  0  0  0  0  0
   13.1249    1.4741    0.0000 C   0  0  0  0  0  0  0  0  0  0  0  0
    8.6082   -0.9966    0.0000 C   0  0  0  0  0  0  0  0  0  0  0  0
    8.5998   -2.0816    0.0000 C   0  0  2  0  0  0  0  0  0  0  0  0
   10.1481   -0.0904    0.0000 C   0  0  0  0  0  0  0  0  0  0  0  0
   14.3818    1.7294    0.0000 C   0  0  0  0  0  0  0  0  0  0  0  0
   15.3603    1.9356    0.0000 C   0  0  0  0  0  0  0  0  0  0  0  0
   13.7140    2.4737    0.0000 C   0  0  0  0  0  0  0  0  0  0  0  0
   11.3293   -3.5810    0.0000 C   0  0  0  0  0  0  0  0  0  0  0  0
   15.6710    2.8861    0.0000 C   0  0  0  0  0  0  0  0  0  0  0  0
    6.8678   -2.0749    0.0000 C   0  0  0  0  0  0  0  0  0  0  0  0
   11.3216   -4.5809    0.0000 C   0  0  0  0  0  0  0  0  0  0  0  0
   15.0031    3.6304    0.0000 C   0  0  0  0  0  0  0  0  0  0  0  0
    5.9998   -2.5715    0.0000 C   0  0  1  0  0  0  0  0  0  0  0  0
    5.1357   -2.0682    0.0000 C   0  0  1  0  0  0  0  0  0  0  0  0
    4.2678   -2.5649    0.0000 C   0  0  2  0  0  0  0  0  0  0  0  0
    3.4037   -2.0615    0.0000 C   0  0  2  0  0  0  0  0  0  0  0  0
    3.4075   -1.0615    0.0000 C   0  0  0  0  0  0  0  0  0  0  0  0
   12.9983   -1.4452    0.0000 H   0  0  0  0  0  0  0  0  0  0  0  0
   12.1290   -0.1009    0.0000 H   0  0  0  0  0  0  0  0  0  0  0  0
   11.1808    1.0567    0.0000 H   0  0  0  0  0  0  0  0  0  0  0  0
   10.7823    0.3665    0.0000 H   0  0  0  0  0  0  0  0  0  0  0  0
   12.6574    1.4491    0.0000 H   0  0  0  0  0  0  0  0  0  0  0  0
   11.8604    1.4491    0.0000 H   0  0  0  0  0  0  0  0  0  0  0  0
   14.6836    0.8750    0.0000 H   0  0  0  0  0  0  0  0  0  0  0  0
   12.4930   -2.6478    0.0000 H   0  0  0  0  0  0  0  0  0  0  0  0
   12.8841   -1.9519    0.0000 H   0  0  0  0  0  0  0  0  0  0  0  0
   13.8201   -1.3975    0.0000 H   0  0  0  0  0  0  0  0  0  0  0  0
   14.6085   -1.1398    0.0000 H   0  0  0  0  0  0  0  0  0  0  0  0
   10.9796   -3.0711    0.0000 H   0  0  0  0  0  0  0  0  0  0  0  0
   11.7779   -3.0680    0.0000 H   0  0  0  0  0  0  0  0  0  0  0  0
   15.1156   -0.4406    0.0000 H   0  0  0  0  0  0  0  0  0  0  0  0
   15.1156    0.3888    0.0000 H   0  0  0  0  0  0  0  0  0  0  0  0
    9.9642   -0.0020    0.0000 H   0  0  0  0  0  0  0  0  0  0  0  0
    9.1661    0.0134    0.0000 H   0  0  0  0  0  0  0  0  0  0  0  0
    9.1421   -3.1000    0.0000 H   0  0  0  0  0  0  0  0  0  0  0  0
    9.9404   -3.0970    0.0000 H   0  0  0  0  0  0  0  0  0  0  0  0
   13.7449    1.4741    0.0000 H   0  0  0  0  0  0  0  0  0  0  0  0
   13.1249    2.0941    0.0000 H   0  0  0  0  0  0  0  0  0  0  0  0
   12.5049    1.4741    0.0000 H   0  0  0  0  0  0  0  0  0  0  0  0
    8.4036   -0.4113    0.0000 H   0  0  0  0  0  0  0  0  0  0  0  0
    7.9965   -1.0980    0.0000 H   0  0  0  0  0  0  0  0  0  0  0  0
    8.5986   -2.7016    0.0000 H   0  0  0  0  0  0  0  0  0  0  0  0
   10.5503    0.3814    0.0000 H   0  0  0  0  0  0  0  0  0  0  0  0
   13.6619   -1.8359    0.0000 H   0  0  0  0  0  0  0  0  0  0  0  0
   15.7744    1.4741    0.0000 H   0  0  0  0  0  0  0  0  0  0  0  0
   13.1073    2.3458    0.0000 H   0  0  0  0  0  0  0  0  0  0  0  0
   16.2777    3.0140    0.0000 H   0  0  0  0  0  0  0  0  0  0  0  0
   10.7016   -4.5762    0.0000 H   0  0  0  0  0  0  0  0  0  0  0  0
   11.3168   -5.2009    0.0000 H   0  0  0  0  0  0  0  0  0  0  0  0
   11.9416   -4.5857    0.0000 H   0  0  0  0  0  0  0  0  0  0  0  0
    5.4617   -2.8795    0.0000 H   0  0  0  0  0  0  0  0  0  0  0  0
    5.6738   -1.7603    0.0000 H   0  0  0  0  0  0  0  0  0  0  0  0
    5.4578   -3.8795    0.0000 H   0  0  0  0  0  0  0  0  0  0  0  0
    3.7296   -2.8728    0.0000 H   0  0  0  0  0  0  0  0  0  0  0  0
    4.6038   -0.7561    0.0000 H   0  0  0  0  0  0  0  0  0  0  0  0
    2.8680   -1.7495    0.0000 H   0  0  0  0  0  0  0  0  0  0  0  0
    3.7258   -3.8728    0.0000 H   0  0  0  0  0  0  0  0  0  0  0  0
    4.0275   -1.0639    0.0000 H   0  0  0  0  0  0  0  0  0  0  0  0
    3.4099   -0.4415    0.0000 H   0  0  0  0  0  0  0  0  0  0  0  0
    2.7875   -1.0592    0.0000 H   0  0  0  0  0  0  0  0  0  0  0  0
    2.0000   -2.2461    0.0000 H   0  0  0  0  0  0  0  0  0  0  0  0
 13  1  1  1  0  0  0
  1 71  1  0  0  0  0
 18  2  1  1  0  0  0
  2 35  1  0  0  0  0
 30  3  1  1  0  0  0
  3 37  1  0  0  0  0
  4 31  2  0  0  0  0
  5 34  1  0  0  0  0
  5 39  1  0  0  0  0
  6 35  2  0  0  0  0
  7 37  2  0  0  0  0
  8 39  2  0  0  0  0
 40  9  1  6  0  0  0
  9 80  1  0  0  0  0
 41 10  1  1  0  0  0
 10 82  1  0  0  0  0
 42 11  1  1  0  0  0
 11 84  1  0  0  0  0
 43 12  1  1  0  0  0
 12 88  1  0  0  0  0
 13 14  1  0  0  0  0
 13 16  1  0  0  0  0
 13 23  1  0  0  0  0
 14 15  1  0  0  0  0
 14 22  1  0  0  0  0
 14 45  1  1  0  0  0
 15 17  1  0  0  0  0
 15 19  1  0  0  0  0
 15 46  1  6  0  0  0
 16 20  1  0  0  0  0
 16 21  1  0  0  0  0
 16 28  1  1  0  0  0
 17 18  1  0  0  0  0
 17 26  1  0  0  0  0
 17 31  1  1  0  0  0
 18 24  1  0  0  0  0
 18 27  1  0  0  0  0
 19 20  1  0  0  0  0
 19 47  1  0  0  0  0
 19 48  1  0  0  0  0
 20 49  1  0  0  0  0
 20 50  1  0  0  0  0
 21 25  1  0  0  0  0
 21 32  1  1  0  0  0
 21 51  1  0  0  0  0
 22 24  1  0  0  0  0
 22 52  1  0  0  0  0
 22 53  1  0  0  0  0
 23 25  1  0  0  0  0
 23 54  1  0  0  0  0
 23 55  1  0  0  0  0
 24 56  1  0  0  0  0
 24 57  1  0  0  0  0
 25 58  1  0  0  0  0
 25 59  1  0  0  0  0
 26 29  1  0  0  0  0
 26 60  1  0  0  0  0
 26 61  1  0  0  0  0
 27 30  1  0  0  0  0
 27 62  1  0  0  0  0
 27 63  1  0  0  0  0
 28 64  1  0  0  0  0
 28 65  1  0  0  0  0
 28 66  1  0  0  0  0
 29 30  1  0  0  0  0
 29 67  1  0  0  0  0
 29 68  1  0  0  0  0
 30 69  1  0  0  0  0
 31 70  1  0  0  0  0
 32 33  1  0  0  0  0
 32 34  2  0  0  0  0
 33 36  2  0  0  0  0
 33 72  1  0  0  0  0
 34 73  1  0  0  0  0
 35 38  1  0  0  0  0
 36 39  1  0  0  0  0
 36 74  1  0  0  0  0
 37 40  1  0  0  0  0
 38 75  1  0  0  0  0
 38 76  1  0  0  0  0
 38 77  1  0  0  0  0
 40 41  1  0  0  0  0
 40 78  1  0  0  0  0
 41 42  1  0  0  0  0
 41 79  1  0  0  0  0
 42 43  1  0  0  0  0
 42 81  1  0  0  0  0
 43 44  1  0  0  0  0
 43 83  1  0  0  0  0
 44 85  1  0  0  0  0
 44 86  1  0  0  0  0
 44 87  1  0  0  0  0
M  END
> <PUBCHEM_COMPOUND_CID>
441863

> <PUBCHEM_COMPOUND_CANONICALIZED>
1

> <PUBCHEM_CACTVS_COMPLEXITY>
1250

> <PUBCHEM_CACTVS_HBOND_ACCEPTOR>
12

> <PUBCHEM_CACTVS_HBOND_DONOR>
5

> <PUBCHEM_CACTVS_ROTATABLE_BOND>
10

> <PUBCHEM_CACTVS_SUBSKEYS>
AAADcfB8PAAAAAAAAAAAAAAAAAAAAYAAAAAwYMEAAAAAAGDAAAAAGgAACAAAD1SggAICCAAABgCIAijSiAIACAAgIAAICAFAAEgJFBYAIQACUAAFoAALoYPK7PzPgAAAAAAAAADAAAYQADAAAYAADAAAAA==

> <PUBCHEM_IUPAC_OPENEYE_NAME>
[(3S,5S,8R,9S,10S,13R,14S,17R)-5-acetoxy-10-formyl-14-hydroxy-13-methyl-17-(6-oxopyran-3-yl)-2,3,4,6,7,8,9,11,12,15,16,17-dodecahydro-1H-cyclopenta[a]phenanthren-3-yl] (2R,3R,4S,5S)-2,3,4,5-tetrahydroxyhexanoate

> <PUBCHEM_IUPAC_CAS_NAME>
(2R,3R,4S,5S)-2,3,4,5-tetrahydroxyhexanoic acid [(3S,5S,8R,9S,10S,13R,14S,17R)-5-acetyloxy-10-formyl-14-hydroxy-13-methyl-17-(6-oxo-3-pyranyl)-2,3,4,6,7,8,9,11,12,15,16,17-dodecahydro-1H-cyclopenta[a]phenanthren-3-yl] ester

> <PUBCHEM_IUPAC_NAME>
[(3S,5S,8R,9S,10S,13R,14S,17R)-5-acetyloxy-10-formyl-14-hydroxy-13-methyl-17-(6-oxopyran-3-yl)-2,3,4,6,7,8,9,11,12,15,16,17-dodecahydro-1H-cyclopenta[a]phenanthren-3-yl] (2R,3R,4S,5S)-2,3,4,5-tetrahydroxyhexanoate

> <PUBCHEM_IUPAC_SYSTEMATIC_NAME>
[(3S,5S,8R,9S,10S,13R,14S,17R)-5-acetyloxy-10-methanoyl-13-methyl-14-oxidanyl-17-(6-oxidanylidenepyran-3-yl)-2,3,4,6,7,8,9,11,12,15,16,17-dodecahydro-1H-cyclopenta[a]phenanthren-3-yl] (2R,3R,4S,5S)-2,3,4,5-tetrakis(oxidanyl)hexanoate

> <PUBCHEM_IUPAC_TRADITIONAL_NAME>
(2R,3R,4S,5S)-2,3,4,5-tetrahydroxyhexanoic acid [(3S,5S,8R,9S,10S,13R,14S,17R)-5-acetoxy-10-formyl-14-hydroxy-17-(6-ketopyran-3-yl)-13-methyl-2,3,4,6,7,8,9,11,12,15,16,17-dodecahydro-1H-cyclopenta[a]phenanthren-3-yl] ester

> <PUBCHEM_IUPAC_INCHI>
InChI=1S/C32H44O12/c1-17(34)25(37)26(38)27(39)28(40)43-20-6-11-30(16-33)22-7-10-29(3)21(19-4-5-24(36)42-15-19)9-13-32(29,41)23(22)8-12-31(30,14-20)44-18(2)35/h4-5,15-17,20-23,25-27,34,37-39,41H,6-14H2,1-3H3/t17-,20-,21+,22-,23+,25-,26+,27+,29+,30-,31-,32-/m0/s1

> <PUBCHEM_IUPAC_INCHIKEY>
IDZGCABQJKWSHL-GSMIIGJLSA-N

> <PUBCHEM_XLOGP3_AA>
0.2

> <PUBCHEM_EXACT_MASS>
620.283277

> <PUBCHEM_MOLECULAR_FORMULA>
C32H44O12

> <PUBCHEM_MOLECULAR_WEIGHT>
620.68456

> <PUBCHEM_OPENEYE_CAN_SMILES>
CC(C(C(C(C(=O)OC1CCC2(C3CCC4(C(CCC4(C3CCC2(C1)OC(=O)C)O)C5=COC(=O)C=C5)C)C=O)O)O)O)O

> <PUBCHEM_OPENEYE_ISO_SMILES>
C[C@@H]([C@@H]([C@H]([C@H](C(=O)O[C@H]1CC[C@@]2([C@H]3CC[C@@]4([C@H](CC[C@@]4([C@@H]3CC[C@@]2(C1)OC(=O)C)O)C5=COC(=O)C=C5)C)C=O)O)O)O)O

> <PUBCHEM_CACTVS_TPSA>
197

> <PUBCHEM_MONOISOTOPIC_WEIGHT>
620.283277

> <PUBCHEM_TOTAL_CHARGE>
0

> <PUBCHEM_HEAVY_ATOM_COUNT>
44

> <PUBCHEM_ATOM_DEF_STEREO_COUNT>
12

> <PUBCHEM_ATOM_UDEF_STEREO_COUNT>
0

> <PUBCHEM_BOND_DEF_STEREO_COUNT>
0

> <PUBCHEM_BOND_UDEF_STEREO_COUNT>
0

> <PUBCHEM_ISOTOPIC_ATOM_COUNT>
0

> <PUBCHEM_COMPONENT_COUNT>
1

> <PUBCHEM_CACTVS_TAUTO_COUNT>
1

> <PUBCHEM_COORDINATE_TYPE>
1
5
255

> <PUBCHEM_BONDANNOTATIONS>
13  1  5
41  10  5
42  11  5
43  12  5
14  45  5
15  46  6
16  28  5
17  31  5
18  2  5
21  32  5
30  3  5
32  33  8
32  34  8
33  36  8
36  39  8
5  34  8
5  39  8
40  9  6

$$$$

