36119
  -OEChem-07051212443D

 68 70  0     1  0  0  0  0  0999 V2000
   -0.9331   -0.4829    0.1286 O   0  0  0  0  0  0  0  0  0  0  0  0
    1.8251   -0.3005   -0.5836 O   0  0  0  0  0  0  0  0  0  0  0  0
   -2.5679    0.4890    1.5034 O   0  0  0  0  0  0  0  0  0  0  0  0
    1.2296   -2.5802    2.1836 O   0  0  0  0  0  0  0  0  0  0  0  0
   -2.0509    1.7140   -1.1147 O   0  0  0  0  0  0  0  0  0  0  0  0
   -6.0019    1.6378    0.8522 O   0  0  0  0  0  0  0  0  0  0  0  0
    3.9814    0.6426   -0.5063 O   0  0  0  0  0  0  0  0  0  0  0  0
   -0.7102   -4.1495    0.4876 N   0  0  0  0  0  0  0  0  0  0  0  0
    2.2363   -3.9579   -0.2750 N   0  0  0  0  0  0  0  0  0  0  0  0
   -5.1731   -0.2176   -0.9930 N   0  0  0  0  0  0  0  0  0  0  0  0
    1.9024    2.4756   -1.5733 N   0  0  0  0  0  0  0  0  0  0  0  0
    6.7043    0.2279    0.3687 N   0  0  0  0  0  0  0  0  0  0  0  0
   -0.5388   -1.6993    0.7674 C   0  0  2  0  0  0  0  0  0  0  0  0
    1.9405   -1.5350    0.1275 C   0  0  1  0  0  0  0  0  0  0  0  0
    0.9077   -1.5390    1.2669 C   0  0  2  0  0  0  0  0  0  0  0  0
   -0.7299   -2.8674   -0.2186 C   0  0  1  0  0  0  0  0  0  0  0  0
    1.7753   -2.7013   -0.8656 C   0  0  2  0  0  0  0  0  0  0  0  0
    0.3178   -2.8201   -1.3471 C   0  0  0  0  0  0  0  0  0  0  0  0
   -2.3270   -0.2391    0.2990 C   0  0  1  0  0  0  0  0  0  0  0  0
   -4.3152    0.9551   -0.7606 C   0  0  2  0  0  0  0  0  0  0  0  0
   -2.8404    0.5389   -0.9210 C   0  0  1  0  0  0  0  0  0  0  0  0
   -4.5872    1.5634    0.6439 C   0  0  2  0  0  0  0  0  0  0  0  0
   -3.9606    0.6922    1.7418 C   0  0  0  0  0  0  0  0  0  0  0  0
    2.6416    0.7105    0.0025 C   0  0  1  0  0  0  0  0  0  0  0  0
   -4.0589    3.0034    0.7505 C   0  0  0  0  0  0  0  0  0  0  0  0
    2.0136    2.1044   -0.1571 C   0  0  1  0  0  0  0  0  0  0  0  0
    2.8876    3.1274    0.5783 C   0  0  0  0  0  0  0  0  0  0  0  0
   -4.9757   -0.7345   -2.3360 C   0  0  0  0  0  0  0  0  0  0  0  0
    4.8024    1.6859   -0.1182 C   0  0  0  0  0  0  0  0  0  0  0  0
    4.3481    2.8375    0.4061 C   0  0  0  0  0  0  0  0  0  0  0  0
    6.2573    1.4188   -0.3378 C   0  0  0  0  0  0  0  0  0  0  0  0
   -1.1681   -1.8649    1.6545 H   0  0  0  0  0  0  0  0  0  0  0  0
    2.9546   -1.6188    0.5460 H   0  0  0  0  0  0  0  0  0  0  0  0
    0.9605   -0.5964    1.8241 H   0  0  0  0  0  0  0  0  0  0  0  0
   -1.7113   -2.7857   -0.7008 H   0  0  0  0  0  0  0  0  0  0  0  0
    2.3993   -2.5028   -1.7458 H   0  0  0  0  0  0  0  0  0  0  0  0
    0.0953   -1.9534   -1.9848 H   0  0  0  0  0  0  0  0  0  0  0  0
    0.2064   -3.6961   -2.0003 H   0  0  0  0  0  0  0  0  0  0  0  0
   -2.8705   -1.1909    0.3571 H   0  0  0  0  0  0  0  0  0  0  0  0
   -4.5817    1.7163   -1.5064 H   0  0  0  0  0  0  0  0  0  0  0  0
   -2.6404   -0.0497   -1.8195 H   0  0  0  0  0  0  0  0  0  0  0  0
   -4.4668   -0.2765    1.8376 H   0  0  0  0  0  0  0  0  0  0  0  0
   -4.0679    1.1782    2.7186 H   0  0  0  0  0  0  0  0  0  0  0  0
   -0.8789   -4.9073   -0.1724 H   0  0  0  0  0  0  0  0  0  0  0  0
   -1.4717   -4.1806    1.1642 H   0  0  0  0  0  0  0  0  0  0  0  0
    2.0850   -4.7216   -0.9329 H   0  0  0  0  0  0  0  0  0  0  0  0
    1.6773   -4.1807    0.5476 H   0  0  0  0  0  0  0  0  0  0  0  0
    2.7103    0.5285    1.0854 H   0  0  0  0  0  0  0  0  0  0  0  0
    2.1248   -2.4088    2.5221 H   0  0  0  0  0  0  0  0  0  0  0  0
   -2.9680    3.0627    0.7323 H   0  0  0  0  0  0  0  0  0  0  0  0
   -4.4570    3.6244   -0.0600 H   0  0  0  0  0  0  0  0  0  0  0  0
   -4.4009    3.4663    1.6840 H   0  0  0  0  0  0  0  0  0  0  0  0
   -4.9905   -0.9497   -0.3095 H   0  0  0  0  0  0  0  0  0  0  0  0
    0.9995    2.1058    0.2584 H   0  0  0  0  0  0  0  0  0  0  0  0
   -2.3745    2.1570   -1.9176 H   0  0  0  0  0  0  0  0  0  0  0  0
   -6.3592    0.7362    0.7806 H   0  0  0  0  0  0  0  0  0  0  0  0
    2.6679    4.1476    0.2412 H   0  0  0  0  0  0  0  0  0  0  0  0
    2.6590    3.0980    1.6509 H   0  0  0  0  0  0  0  0  0  0  0  0
   -4.0923   -1.3743   -2.4187 H   0  0  0  0  0  0  0  0  0  0  0  0
   -4.9359    0.0554   -3.0937 H   0  0  0  0  0  0  0  0  0  0  0  0
   -5.8323   -1.3685   -2.5896 H   0  0  0  0  0  0  0  0  0  0  0  0
    5.0454    3.6126    0.7107 H   0  0  0  0  0  0  0  0  0  0  0  0
    1.5402    3.4250   -1.6520 H   0  0  0  0  0  0  0  0  0  0  0  0
    2.8247    2.4864   -2.0065 H   0  0  0  0  0  0  0  0  0  0  0  0
    6.4294    1.2783   -1.4111 H   0  0  0  0  0  0  0  0  0  0  0  0
    6.8734    2.2707   -0.0279 H   0  0  0  0  0  0  0  0  0  0  0  0
    7.6804    0.0456    0.1379 H   0  0  0  0  0  0  0  0  0  0  0  0
    6.6834    0.3990    1.3737 H   0  0  0  0  0  0  0  0  0  0  0  0
  1 13  1  0  0  0  0
  1 19  1  0  0  0  0
  2 14  1  0  0  0  0
  2 24  1  0  0  0  0
  3 19  1  0  0  0  0
  3 23  1  0  0  0  0
  4 15  1  0  0  0  0
  4 49  1  0  0  0  0
  5 21  1  0  0  0  0
  5 55  1  0  0  0  0
  6 22  1  0  0  0  0
  6 56  1  0  0  0  0
  7 24  1  0  0  0  0
  7 29  1  0  0  0  0
  8 16  1  0  0  0  0
  8 44  1  0  0  0  0
  8 45  1  0  0  0  0
  9 17  1  0  0  0  0
  9 46  1  0  0  0  0
  9 47  1  0  0  0  0
 10 20  1  0  0  0  0
 10 28  1  0  0  0  0
 10 53  1  0  0  0  0
 11 26  1  0  0  0  0
 11 63  1  0  0  0  0
 11 64  1  0  0  0  0
 12 31  1  0  0  0  0
 12 67  1  0  0  0  0
 12 68  1  0  0  0  0
 13 15  1  0  0  0  0
 13 16  1  0  0  0  0
 13 32  1  0  0  0  0
 14 15  1  0  0  0  0
 14 17  1  0  0  0  0
 14 33  1  0  0  0  0
 15 34  1  0  0  0  0
 16 18  1  0  0  0  0
 16 35  1  0  0  0  0
 17 18  1  0  0  0  0
 17 36  1  0  0  0  0
 18 37  1  0  0  0  0
 18 38  1  0  0  0  0
 19 21  1  0  0  0  0
 19 39  1  0  0  0  0
 20 21  1  0  0  0  0
 20 22  1  0  0  0  0
 20 40  1  0  0  0  0
 21 41  1  0  0  0  0
 22 23  1  0  0  0  0
 22 25  1  0  0  0  0
 23 42  1  0  0  0  0
 23 43  1  0  0  0  0
 24 26  1  0  0  0  0
 24 48  1  0  0  0  0
 25 50  1  0  0  0  0
 25 51  1  0  0  0  0
 25 52  1  0  0  0  0
 26 27  1  0  0  0  0
 26 54  1  0  0  0  0
 27 30  1  0  0  0  0
 27 57  1  0  0  0  0
 27 58  1  0  0  0  0
 28 59  1  0  0  0  0
 28 60  1  0  0  0  0
 28 61  1  0  0  0  0
 29 30  2  0  0  0  0
 29 31  1  0  0  0  0
 30 62  1  0  0  0  0
 31 65  1  0  0  0  0
 31 66  1  0  0  0  0
M  END
> <PUBCHEM_COMPOUND_CID>
36119

> <PUBCHEM_CONFORMER_RMSD>
1

> <PUBCHEM_CONFORMER_DIVERSEORDER>
3
64
53
65
12
49
26
67
51
59
23
35
20
77
22
72
24
16
32
21
56
4
41
46
30
17
54
47
71
18
36
37
8
44
15
63
76
40
45
38
61
68
34
6
9
50
28
39
10
66
11
14
60
27
57
74
1
48
19
62
25
43
75
7
31
13
69
5
2
55
70
73
58
29
52
42
33

> <PUBCHEM_MMFF94_PARTIAL_CHARGES>
42
1 -0.56
10 -0.9
11 -0.99
12 -0.99
13 0.28
14 0.28
15 0.28
16 0.27
17 0.27
19 0.56
2 -0.56
20 0.27
21 0.28
22 0.28
23 0.28
24 0.56
26 0.27
27 0.14
28 0.27
29 -0.06
3 -0.56
30 -0.29
31 0.41
4 -0.68
44 0.36
45 0.36
46 0.36
47 0.36
49 0.4
5 -0.68
53 0.36
55 0.4
56 0.4
6 -0.68
62 0.15
63 0.36
64 0.36
67 0.36
68 0.36
7 -0.36
8 -0.99
9 -0.99

> <PUBCHEM_EFFECTIVE_ROTOR_COUNT>
9.2

> <PUBCHEM_PHARMACOPHORE_FEATURES>
23
1 1 acceptor
1 10 cation
1 10 donor
1 11 cation
1 11 donor
1 12 cation
1 12 donor
1 2 acceptor
1 3 acceptor
1 4 acceptor
1 4 donor
1 5 acceptor
1 5 donor
1 6 acceptor
1 6 donor
1 7 acceptor
1 8 cation
1 8 donor
1 9 cation
1 9 donor
6 13 14 15 16 17 18 rings
6 3 19 20 21 22 23 rings
6 7 24 26 27 29 30 rings

> <PUBCHEM_HEAVY_ATOM_COUNT>
31

> <PUBCHEM_ATOM_DEF_STEREO_COUNT>
11

> <PUBCHEM_ATOM_UDEF_STEREO_COUNT>
0

> <PUBCHEM_BOND_DEF_STEREO_COUNT>
0

> <PUBCHEM_BOND_UDEF_STEREO_COUNT>
0

> <PUBCHEM_ISOTOPIC_ATOM_COUNT>
0

> <PUBCHEM_COMPONENT_COUNT>
1

> <PUBCHEM_CACTVS_TAUTO_COUNT>
1

> <PUBCHEM_CONFORMER_ID>
00008D1700000003

> <PUBCHEM_MMFF94_ENERGY>
72.8265

> <PUBCHEM_FEATURE_SELFOVERLAP>
116.811

> <PUBCHEM_SHAPE_FINGERPRINT>
11049842 53 15433671727095328615
11513181 2 18115586100909090124
12788726 201 17334486112644033444
13583140 156 17203614744241481689
13631057 29 18042977484722806519
14713325 29 18194677068956615810
15664445 248 17684075160365046111
15775530 1 18125974166710784202
20567600 254 18060147521977280413
21033648 144 18130511911543604535
21033648 29 16343144753021776535
23558518 356 17983012241988585290
23559900 14 16661765669262121021
24771293 8 18115885164537305826
283562 15 17907866106413365682
2838139 119 18408323272339304568
329604 57 8142094152391231304
3411729 13 18270112538739645768
350125 39 18194111920158910138
38695281 34 18334009510442439902
469060 322 16844183242276474743
474 4 18337109072528937563
5385378 56 18338510945611930882
6287921 2 18116438235532429655
9981440 41 18337111150881802051

> <PUBCHEM_SHAPE_MULTIPOLES>
571.98
12.43
4.59
1.52
2.33
3.04
0.04
-10.82
1.09
2.12
-0.35
-1.6
0.35
-1.1

> <PUBCHEM_SHAPE_SELFOVERLAP>
1175.241

> <PUBCHEM_SHAPE_VOLUME>
324.3

> <PUBCHEM_COORDINATE_TYPE>
2
5
10

$$$$

