49970
  -OEChem-07051213133D

 22 24  0     0  0  0  0  0  0999 V2000
   -0.8871    0.3923    0.0000 N   0  0  0  0  0  0  0  0  0  0  0  0
   -0.5475   -1.8264    0.0001 N   0  0  0  0  0  0  0  0  0  0  0  0
    1.4296    1.1541   -0.0002 N   0  0  0  0  0  0  0  0  0  0  0  0
    3.7746    1.5399   -0.0002 N   0  0  0  0  0  0  0  0  0  0  0  0
    0.4743    0.2058   -0.0001 C   0  0  0  0  0  0  0  0  0  0  0  0
   -1.4635   -0.8780   -0.0003 C   0  0  0  0  0  0  0  0  0  0  0  0
    0.6586   -1.1709    0.0002 C   0  0  0  0  0  0  0  0  0  0  0  0
   -1.6285    1.5719    0.0003 C   0  0  0  0  0  0  0  0  0  0  0  0
   -2.8881   -0.9426   -0.0005 C   0  0  0  0  0  0  0  0  0  0  0  0
    1.9726   -1.6572    0.0004 C   0  0  0  0  0  0  0  0  0  0  0  0
   -2.9694    1.5006    0.0005 C   0  0  0  0  0  0  0  0  0  0  0  0
    2.6801    0.6337   -0.0003 C   0  0  0  0  0  0  0  0  0  0  0  0
    3.0031   -0.7184    0.0002 C   0  0  0  0  0  0  0  0  0  0  0  0
   -3.6087    0.1951   -0.0001 C   0  0  0  0  0  0  0  0  0  0  0  0
   -1.0921    2.5129    0.0006 H   0  0  0  0  0  0  0  0  0  0  0  0
    2.1851   -2.7207    0.0004 H   0  0  0  0  0  0  0  0  0  0  0  0
   -3.3767   -1.9106   -0.0010 H   0  0  0  0  0  0  0  0  0  0  0  0
   -3.5893    2.3888    0.0009 H   0  0  0  0  0  0  0  0  0  0  0  0
    4.0353   -1.0563   -0.0006 H   0  0  0  0  0  0  0  0  0  0  0  0
   -4.6929    0.1649   -0.0003 H   0  0  0  0  0  0  0  0  0  0  0  0
    4.6435    1.2438    0.4274 H   0  0  0  0  0  0  0  0  0  0  0  0
    3.5495    2.5271    0.0058 H   0  0  0  0  0  0  0  0  0  0  0  0
  1  5  1  0  0  0  0
  1  6  1  0  0  0  0
  1  8  1  0  0  0  0
  2  6  2  0  0  0  0
  2  7  1  0  0  0  0
  3  5  1  0  0  0  0
  3 12  2  0  0  0  0
  4 12  1  0  0  0  0
  4 21  1  0  0  0  0
  4 22  1  0  0  0  0
  5  7  2  0  0  0  0
  6  9  1  0  0  0  0
  7 10  1  0  0  0  0
  8 11  2  0  0  0  0
  8 15  1  0  0  0  0
  9 14  2  0  0  0  0
  9 17  1  0  0  0  0
 10 13  2  0  0  0  0
 10 16  1  0  0  0  0
 11 14  1  0  0  0  0
 11 18  1  0  0  0  0
 12 13  1  0  0  0  0
 13 19  1  0  0  0  0
 14 20  1  0  0  0  0
M  END
> <PUBCHEM_COMPOUND_CID>
49970

> <PUBCHEM_CONFORMER_RMSD>
0.4

> <PUBCHEM_CONFORMER_DIVERSEORDER>
1

> <PUBCHEM_MMFF94_PARTIAL_CHARGES>
22
1 0.33
10 -0.15
11 -0.15
12 0.41
13 -0.15
14 -0.15
15 0.15
16 0.15
17 0.15
18 0.15
19 0.15
2 -0.57
20 0.15
21 0.4
22 0.4
3 -0.57
4 -0.9
5 0.11
6 0.14
7 0.23
8 -0.18
9 -0.11

> <PUBCHEM_EFFECTIVE_ROTOR_COUNT>
0

> <PUBCHEM_PHARMACOPHORE_FEATURES>
6
1 4 donor
3 1 2 6 cation
3 3 4 12 cation
5 1 2 5 6 7 rings
6 1 6 8 9 11 14 rings
6 3 5 7 10 12 13 rings

> <PUBCHEM_HEAVY_ATOM_COUNT>
14

> <PUBCHEM_ATOM_DEF_STEREO_COUNT>
0

> <PUBCHEM_ATOM_UDEF_STEREO_COUNT>
0

> <PUBCHEM_BOND_DEF_STEREO_COUNT>
0

> <PUBCHEM_BOND_UDEF_STEREO_COUNT>
0

> <PUBCHEM_ISOTOPIC_ATOM_COUNT>
0

> <PUBCHEM_COMPONENT_COUNT>
1

> <PUBCHEM_CACTVS_TAUTO_COUNT>
2

> <PUBCHEM_CONFORMER_ID>
0000C33200000001

> <PUBCHEM_MMFF94_ENERGY>
39.3276

> <PUBCHEM_FEATURE_SELFOVERLAP>
30.686

> <PUBCHEM_SHAPE_FINGERPRINT>
10608611 8 18411421747313740437
10967382 1 18410855464486452101
10980938 120 18410855477592984602
11132069 177 18409455794758481713
11471102 20 18410298029418725591
12346645 44 18411700954811209544
12491281 212 18337379547746217689
12932764 1 17488464246517753547
13380535 21 18410282618907385754
13380535 76 18411420587888789874
14144814 61 18411699902275125329
14325111 11 18410575106190812321
14897335 6 18410016520119180204
15196674 1 18410573993773060229
15219456 202 18410572907141072591
15442244 35 18122063371195331618
15536298 74 18334576867216955734
15775835 57 18335697239105353465
16945 1 18338797801676442823
17844478 74 18272640256258858155
18186145 218 18262232343135038788
19591789 44 15605374198413802491
20510252 161 18334290959665320873
20645477 70 18336831995467142191
21267235 1 18410566318672186283
21501502 16 18410015459114740411
2334 1 18410856576835489505
23402539 116 18335995172333289783
23402655 69 18262811765031878125
23463225 33 18341615970437905658
23559900 14 18261113036873478958
2748010 2 18411135882869566119
5104073 3 18411418427330051051
528886 8 18410579495605119531
53812653 166 18261679190260567192
69090 78 18334019393220379343
7364860 26 18335138756340166526
9709674 26 18409725157985959574

> <PUBCHEM_SHAPE_MULTIPOLES>
268.19
5.88
1.89
0.59
0.24
0
0
1.59
0
0.27
0
-0.02
-0.01
0

> <PUBCHEM_SHAPE_SELFOVERLAP>
605.722

> <PUBCHEM_SHAPE_VOLUME>
139.5

> <PUBCHEM_COORDINATE_TYPE>
2
5
10

$$$$

