17097
  -OEChem-07051213043D

 22 23  0     0  0  0  0  0  0999 V2000
   -0.7110    1.9296   -1.7294 Cl  0  0  0  0  0  0  0  0  0  0  0  0
    0.7109   -1.9307   -1.7282 Cl  0  0  0  0  0  0  0  0  0  0  0  0
   -5.2330   -0.1413    0.3075 Cl  0  0  0  0  0  0  0  0  0  0  0  0
    5.2330    0.1415    0.3075 Cl  0  0  0  0  0  0  0  0  0  0  0  0
   -0.7253   -0.0057    0.2057 C   0  0  0  0  0  0  0  0  0  0  0  0
    0.7253    0.0058    0.2057 C   0  0  0  0  0  0  0  0  0  0  0  0
   -1.4671    0.8263   -0.6327 C   0  0  0  0  0  0  0  0  0  0  0  0
    1.4671   -0.8268   -0.6323 C   0  0  0  0  0  0  0  0  0  0  0  0
   -1.3773   -0.8800    1.0753 C   0  0  0  0  0  0  0  0  0  0  0  0
    1.3773    0.8806    1.0748 C   0  0  0  0  0  0  0  0  0  0  0  0
   -2.8609    0.7842   -0.6016 C   0  0  0  0  0  0  0  0  0  0  0  0
    2.8609   -0.7846   -0.6011 C   0  0  0  0  0  0  0  0  0  0  0  0
   -2.7711   -0.9220    1.1066 C   0  0  0  0  0  0  0  0  0  0  0  0
    2.7711    0.9228    1.1059 C   0  0  0  0  0  0  0  0  0  0  0  0
   -3.5130   -0.0900    0.2681 C   0  0  0  0  0  0  0  0  0  0  0  0
    3.5130    0.0902    0.2681 C   0  0  0  0  0  0  0  0  0  0  0  0
   -0.8165   -1.5367    1.7365 H   0  0  0  0  0  0  0  0  0  0  0  0
    0.8165    1.5378    1.7356 H   0  0  0  0  0  0  0  0  0  0  0  0
   -3.4420    1.4323   -1.2544 H   0  0  0  0  0  0  0  0  0  0  0  0
    3.4421   -1.4331   -1.2534 H   0  0  0  0  0  0  0  0  0  0  0  0
   -3.2657   -1.6081    1.7893 H   0  0  0  0  0  0  0  0  0  0  0  0
    3.2657    1.6094    1.7881 H   0  0  0  0  0  0  0  0  0  0  0  0
  1  7  1  0  0  0  0
  2  8  1  0  0  0  0
  3 15  1  0  0  0  0
  4 16  1  0  0  0  0
  5  6  1  0  0  0  0
  5  7  2  0  0  0  0
  5  9  1  0  0  0  0
  6  8  2  0  0  0  0
  6 10  1  0  0  0  0
  7 11  1  0  0  0  0
  8 12  1  0  0  0  0
  9 13  2  0  0  0  0
  9 17  1  0  0  0  0
 10 14  2  0  0  0  0
 10 18  1  0  0  0  0
 11 15  2  0  0  0  0
 11 19  1  0  0  0  0
 12 16  2  0  0  0  0
 12 20  1  0  0  0  0
 13 15  1  0  0  0  0
 13 21  1  0  0  0  0
 14 16  1  0  0  0  0
 14 22  1  0  0  0  0
M  END
> <PUBCHEM_COMPOUND_CID>
17097

> <PUBCHEM_CONFORMER_RMSD>
0.6

> <PUBCHEM_CONFORMER_DIVERSEORDER>
2
1

> <PUBCHEM_MMFF94_PARTIAL_CHARGES>
20
1 -0.18
10 -0.15
11 -0.15
12 -0.15
13 -0.15
14 -0.15
15 0.18
16 0.18
17 0.15
18 0.15
19 0.15
2 -0.18
20 0.15
21 0.15
22 0.15
3 -0.18
4 -0.18
7 0.18
8 0.18
9 -0.15

> <PUBCHEM_EFFECTIVE_ROTOR_COUNT>
1

> <PUBCHEM_PHARMACOPHORE_FEATURES>
2
6 5 7 9 11 13 15 rings
6 6 8 10 12 14 16 rings

> <PUBCHEM_HEAVY_ATOM_COUNT>
16

> <PUBCHEM_ATOM_DEF_STEREO_COUNT>
0

> <PUBCHEM_ATOM_UDEF_STEREO_COUNT>
0

> <PUBCHEM_BOND_DEF_STEREO_COUNT>
0

> <PUBCHEM_BOND_UDEF_STEREO_COUNT>
0

> <PUBCHEM_ISOTOPIC_ATOM_COUNT>
0

> <PUBCHEM_COMPONENT_COUNT>
1

> <PUBCHEM_CACTVS_TAUTO_COUNT>
1

> <PUBCHEM_CONFORMER_ID>
000042C900000002

> <PUBCHEM_MMFF94_ENERGY>
43.8749

> <PUBCHEM_FEATURE_SELFOVERLAP>
10.149

> <PUBCHEM_SHAPE_FINGERPRINT>
11471102 20 17821445776817555706
12035759 4 17401768514729037709
12119455 92 18260553316028491522
13538477 17 16200141063447637707
13581323 91 17418098727760211296
13583140 156 17912964718578630536
15219456 202 18336547225923045358
15309172 13 17967253083266096158
15342168 16 17751371572944690168
15375358 24 18412261753197025159
16945 1 18410573967971582018
17844478 74 18410293635530336916
18175812 5 18410573946496745483
19049666 15 18122343742143725621
200 152 17240204339551257011
20233049 118 16845575314190973853
20279233 1 18411130338172548403
20344682 1 18410573993741386134
204376 136 17894632513784550478
20510252 161 17988649656762695477
20600515 1 17917698111392780893
20645476 183 15338827643545792163
20645477 70 17895191172559468654
21267235 1 17131826577517320241
22079108 93 17023194768616536010
22854114 59 18113053831061971611
2297311 6 17989199378543392596
232386 152 17203320070803967755
23402539 116 18131077021654507519
23557571 272 18201717396369397500
23559900 14 17988083417323072870
298252 57 14201396066834306356
3286 77 18187080701891091743
4340502 62 17386002850086376719
474 4 16082518573899461194
69090 78 18334017168612137539
7364860 26 17914038812173470517
77492 1 15719395044240654400
81228 2 17915724582663359397
8272917 22 17096072710446165015

> <PUBCHEM_SHAPE_MULTIPOLES>
336.75
8.35
1.48
1.43
0
0
0.4
0
-2.06
0
0.73
0
0
1.12

> <PUBCHEM_SHAPE_SELFOVERLAP>
694.737

> <PUBCHEM_SHAPE_VOLUME>
185.7

> <PUBCHEM_COORDINATE_TYPE>
2
5
10

$$$$

