443453
  -OEChem-07051213023D

 53 56  0     1  0  0  0  0  0999 V2000
    0.1236    3.0990    0.8730 O   0  0  0  0  0  0  0  0  0  0  0  0
   -0.3854   -3.4237    0.8105 O   0  0  0  0  0  0  0  0  0  0  0  0
    0.1809   -2.9472   -1.3454 O   0  0  0  0  0  0  0  0  0  0  0  0
    2.3584   -0.9329    1.9903 O   0  0  0  0  0  0  0  0  0  0  0  0
    3.7768    0.7463    1.3864 O   0  0  0  0  0  0  0  0  0  0  0  0
   -1.3538   -0.4319    0.0963 C   0  0  1  0  0  0  0  0  0  0  0  0
   -1.0105    0.8566   -0.7318 C   0  0  2  0  0  0  0  0  0  0  0  0
    0.4869    1.1322   -0.4269 C   0  0  1  0  0  0  0  0  0  0  0  0
    1.0193   -0.3273   -0.5291 C   0  0  2  0  0  0  0  0  0  0  0  0
    0.0074   -1.1685    0.2825 C   0  0  2  0  0  0  0  0  0  0  0  0
   -2.0293   -0.1097    1.4402 C   0  0  0  0  0  0  0  0  0  0  0  0
   -2.5154   -1.1885   -0.5954 C   0  0  0  0  0  0  0  0  0  0  0  0
    2.5430   -0.4670   -0.3113 C   0  0  2  0  0  0  0  0  0  0  0  0
   -3.3341    0.5290    0.9785 C   0  0  1  0  0  0  0  0  0  0  0  0
   -2.0059    2.0256   -0.6338 C   0  0  0  0  0  0  0  0  0  0  0  0
    1.1925    1.9736   -1.5082 C   0  0  0  0  0  0  0  0  0  0  0  0
   -3.0181    1.9563    0.5166 C   0  0  0  0  0  0  0  0  0  0  0  0
   -3.7200   -0.3852   -0.1626 C   0  0  0  0  0  0  0  0  0  0  0  0
    0.6814    1.8077    0.9486 C   0  0  0  0  0  0  0  0  0  0  0  0
    3.2622    0.4602   -1.3279 C   0  0  0  0  0  0  0  0  0  0  0  0
    2.7218    1.8959   -1.3938 C   0  0  0  0  0  0  0  0  0  0  0  0
   -0.0462   -2.5866   -0.2001 C   0  0  0  0  0  0  0  0  0  0  0  0
    3.0264   -1.9089   -0.5428 C   0  0  0  0  0  0  0  0  0  0  0  0
    2.9767   -0.1289    1.0910 C   0  0  0  0  0  0  0  0  0  0  0  0
   -4.9386   -0.4761   -0.7046 C   0  0  0  0  0  0  0  0  0  0  0  0
   -1.0369    0.5646   -1.7951 H   0  0  0  0  0  0  0  0  0  0  0  0
    0.8790   -0.6259   -1.5832 H   0  0  0  0  0  0  0  0  0  0  0  0
    0.2566   -1.1727    1.3441 H   0  0  0  0  0  0  0  0  0  0  0  0
   -1.4833    0.5460    2.1147 H   0  0  0  0  0  0  0  0  0  0  0  0
   -2.2272   -1.0338    2.0020 H   0  0  0  0  0  0  0  0  0  0  0  0
   -2.6237   -2.2082   -0.2092 H   0  0  0  0  0  0  0  0  0  0  0  0
   -2.4083   -1.2280   -1.6838 H   0  0  0  0  0  0  0  0  0  0  0  0
   -4.0782    0.5310    1.7815 H   0  0  0  0  0  0  0  0  0  0  0  0
   -2.6097    1.9810   -1.5537 H   0  0  0  0  0  0  0  0  0  0  0  0
   -1.5388    3.0110   -0.7017 H   0  0  0  0  0  0  0  0  0  0  0  0
    0.8704    3.0201   -1.5008 H   0  0  0  0  0  0  0  0  0  0  0  0
    0.9153    1.5956   -2.5018 H   0  0  0  0  0  0  0  0  0  0  0  0
   -2.6222    2.5239    1.3681 H   0  0  0  0  0  0  0  0  0  0  0  0
   -3.9411    2.4664    0.2142 H   0  0  0  0  0  0  0  0  0  0  0  0
    1.7267    1.9624    1.2042 H   0  0  0  0  0  0  0  0  0  0  0  0
    0.2548    1.2701    1.7884 H   0  0  0  0  0  0  0  0  0  0  0  0
    3.1601    0.0269   -2.3328 H   0  0  0  0  0  0  0  0  0  0  0  0
    4.3408    0.4975   -1.1273 H   0  0  0  0  0  0  0  0  0  0  0  0
    3.0569    2.4587   -0.5161 H   0  0  0  0  0  0  0  0  0  0  0  0
    3.1681    2.4021   -2.2586 H   0  0  0  0  0  0  0  0  0  0  0  0
    2.6031   -2.6245    0.1690 H   0  0  0  0  0  0  0  0  0  0  0  0
    2.7809   -2.2519   -1.5539 H   0  0  0  0  0  0  0  0  0  0  0  0
    4.1167   -1.9748   -0.4362 H   0  0  0  0  0  0  0  0  0  0  0  0
   -5.7590    0.1327   -0.3404 H   0  0  0  0  0  0  0  0  0  0  0  0
   -5.1367   -1.1604   -1.5223 H   0  0  0  0  0  0  0  0  0  0  0  0
    0.7990    3.7041    0.5229 H   0  0  0  0  0  0  0  0  0  0  0  0
   -0.4280   -4.3576    0.5136 H   0  0  0  0  0  0  0  0  0  0  0  0
    2.6260   -0.7265    2.9110 H   0  0  0  0  0  0  0  0  0  0  0  0
  1 19  1  0  0  0  0
  1 51  1  0  0  0  0
  2 22  1  0  0  0  0
  2 52  1  0  0  0  0
  3 22  2  0  0  0  0
  4 24  1  0  0  0  0
  4 53  1  0  0  0  0
  5 24  2  0  0  0  0
  6  7  1  0  0  0  0
  6 10  1  0  0  0  0
  6 11  1  0  0  0  0
  6 12  1  0  0  0  0
  7  8  1  0  0  0  0
  7 15  1  0  0  0  0
  7 26  1  0  0  0  0
  8  9  1  0  0  0  0
  8 16  1  0  0  0  0
  8 19  1  0  0  0  0
  9 10  1  0  0  0  0
  9 13  1  0  0  0  0
  9 27  1  0  0  0  0
 10 22  1  0  0  0  0
 10 28  1  0  0  0  0
 11 14  1  0  0  0  0
 11 29  1  0  0  0  0
 11 30  1  0  0  0  0
 12 18  1  0  0  0  0
 12 31  1  0  0  0  0
 12 32  1  0  0  0  0
 13 20  1  0  0  0  0
 13 23  1  0  0  0  0
 13 24  1  0  0  0  0
 14 17  1  0  0  0  0
 14 18  1  0  0  0  0
 14 33  1  0  0  0  0
 15 17  1  0  0  0  0
 15 34  1  0  0  0  0
 15 35  1  0  0  0  0
 16 21  1  0  0  0  0
 16 36  1  0  0  0  0
 16 37  1  0  0  0  0
 17 38  1  0  0  0  0
 17 39  1  0  0  0  0
 18 25  2  0  0  0  0
 19 40  1  0  0  0  0
 19 41  1  0  0  0  0
 20 21  1  0  0  0  0
 20 42  1  0  0  0  0
 20 43  1  0  0  0  0
 21 44  1  0  0  0  0
 21 45  1  0  0  0  0
 23 46  1  0  0  0  0
 23 47  1  0  0  0  0
 23 48  1  0  0  0  0
 25 49  1  0  0  0  0
 25 50  1  0  0  0  0
M  END
> <PUBCHEM_COMPOUND_CID>
443453

> <PUBCHEM_CONFORMER_RMSD>
0.8

> <PUBCHEM_CONFORMER_DIVERSEORDER>
1

> <PUBCHEM_MMFF94_PARTIAL_CHARGES>
19
1 -0.68
10 0.06
12 0.14
13 0.06
14 0.14
18 -0.28
19 0.28
2 -0.65
22 0.66
24 0.66
25 -0.3
3 -0.57
4 -0.65
49 0.15
5 -0.57
50 0.15
51 0.4
52 0.5
53 0.5

> <PUBCHEM_EFFECTIVE_ROTOR_COUNT>
4.8

> <PUBCHEM_PHARMACOPHORE_FEATURES>
11
1 1 acceptor
1 1 donor
1 2 acceptor
1 3 acceptor
1 4 acceptor
1 5 acceptor
3 2 3 22 anion
3 4 5 24 anion
5 6 7 8 9 10 rings
6 8 9 13 16 20 21 rings
8 6 7 11 12 14 15 17 18 rings

> <PUBCHEM_HEAVY_ATOM_COUNT>
25

> <PUBCHEM_ATOM_DEF_STEREO_COUNT>
7

> <PUBCHEM_ATOM_UDEF_STEREO_COUNT>
0

> <PUBCHEM_BOND_DEF_STEREO_COUNT>
0

> <PUBCHEM_BOND_UDEF_STEREO_COUNT>
0

> <PUBCHEM_ISOTOPIC_ATOM_COUNT>
0

> <PUBCHEM_COMPONENT_COUNT>
1

> <PUBCHEM_CACTVS_TAUTO_COUNT>
1

> <PUBCHEM_CONFORMER_ID>
0006C43D00000001

> <PUBCHEM_MMFF94_ENERGY>
109.8608

> <PUBCHEM_FEATURE_SELFOVERLAP>
56.046

> <PUBCHEM_SHAPE_FINGERPRINT>
10863032 1 17749391515489587729
10967382 1 18339916039440595055
11132069 177 18410858789002200777
11578080 2 17678478547627488353
12011746 2 18261961756237988112
12553582 1 18337097982860198989
12592029 89 18272654550021289211
12633257 1 18119558495182378352
13140716 1 18266180719544655514
13172582 1 18413108368249280714
13224815 77 18413105082562421549
13538477 17 18057884645722656510
13583140 156 16950858019063546277
14178342 30 18194124237987906585
14787075 74 17750530493635371329
15309172 13 18341601612325311887
16752209 62 18412820308929579892
16945 1 17846494850552697994
17349148 13 18412553123720448055
17492 54 18271233907487542493
1813 80 17917156125675865034
18186145 218 17603579759513152202
192875 21 18412553093634500061
20028762 73 17897443892187862671
20600515 1 18334581213850817368
20691752 17 18260256443472874929
20715895 44 17985845941478632053
20739085 24 17985234535277194549
20905425 154 17974004251990454783
2334 1 18410288125092272244
23419403 2 17695395526105545308
23559900 14 18189896590357457300
2748010 2 17261875966879615565
3286 77 17530968041933115566
34934 24 18058166116404465116
352729 6 18268135475384112503
394222 165 17916569961176581216
474 4 18342165700724803811
484985 159 14572599129777282532
90525 40 18341887511044504101

> <PUBCHEM_SHAPE_MULTIPOLES>
485.14
6.36
3.04
1.47
2.87
0.9
0.26
-0.26
-0.16
-0.37
-0.24
-0.77
-0.18
-0.53

> <PUBCHEM_SHAPE_SELFOVERLAP>
1060.251

> <PUBCHEM_SHAPE_VOLUME>
262.2

> <PUBCHEM_COORDINATE_TYPE>
2
5
10

$$$$

