997
  -OEChem-07051212443D

 20 20  0     0  0  0  0  0  0999 V2000
    1.1810   -1.2941    0.5444 O   0  0  0  0  0  0  0  0  0  0  0  0
    3.6728   -0.9447    0.4408 O   0  0  0  0  0  0  0  0  0  0  0  0
    3.3766    1.1458   -0.4572 O   0  0  0  0  0  0  0  0  0  0  0  0
   -0.8780    0.4447   -0.2196 C   0  0  0  0  0  0  0  0  0  0  0  0
    0.5403    0.8539   -0.4328 C   0  0  0  0  0  0  0  0  0  0  0  0
   -1.5550   -0.2670   -1.2101 C   0  0  0  0  0  0  0  0  0  0  0  0
   -1.5275    0.7732    0.9705 C   0  0  0  0  0  0  0  0  0  0  0  0
    1.4935   -0.2143    0.0643 C   0  0  0  0  0  0  0  0  0  0  0  0
   -2.8813   -0.6500   -1.0108 C   0  0  0  0  0  0  0  0  0  0  0  0
   -2.8539    0.3900    1.1698 C   0  0  0  0  0  0  0  0  0  0  0  0
   -3.5307   -0.3216    0.1791 C   0  0  0  0  0  0  0  0  0  0  0  0
    2.9623    0.0840   -0.0384 C   0  0  0  0  0  0  0  0  0  0  0  0
    0.7321    1.0288   -1.4978 H   0  0  0  0  0  0  0  0  0  0  0  0
    0.7481    1.7892    0.0996 H   0  0  0  0  0  0  0  0  0  0  0  0
   -1.0597   -0.5307   -2.1408 H   0  0  0  0  0  0  0  0  0  0  0  0
   -1.0108    1.3255    1.7510 H   0  0  0  0  0  0  0  0  0  0  0  0
   -3.4083   -1.2045   -1.7817 H   0  0  0  0  0  0  0  0  0  0  0  0
   -3.3596    0.6451    2.0965 H   0  0  0  0  0  0  0  0  0  0  0  0
   -4.5633   -0.6200    0.3345 H   0  0  0  0  0  0  0  0  0  0  0  0
    4.6385   -0.7753    0.4121 H   0  0  0  0  0  0  0  0  0  0  0  0
  1  8  2  0  0  0  0
  2 12  1  0  0  0  0
  2 20  1  0  0  0  0
  3 12  2  0  0  0  0
  4  5  1  0  0  0  0
  4  6  2  0  0  0  0
  4  7  1  0  0  0  0
  5  8  1  0  0  0  0
  5 13  1  0  0  0  0
  5 14  1  0  0  0  0
  6  9  1  0  0  0  0
  6 15  1  0  0  0  0
  7 10  2  0  0  0  0
  7 16  1  0  0  0  0
  8 12  1  0  0  0  0
  9 11  2  0  0  0  0
  9 17  1  0  0  0  0
 10 11  1  0  0  0  0
 10 18  1  0  0  0  0
 11 19  1  0  0  0  0
M  END
> <PUBCHEM_COMPOUND_CID>
997

> <PUBCHEM_CONFORMER_RMSD>
0.6

> <PUBCHEM_CONFORMER_DIVERSEORDER>
1
2
8
5
7
6
4
3

> <PUBCHEM_MMFF94_PARTIAL_CHARGES>
18
1 -0.57
10 -0.15
11 -0.15
12 0.72
15 0.15
16 0.15
17 0.15
18 0.15
19 0.15
2 -0.65
20 0.5
3 -0.57
4 -0.14
5 0.2
6 -0.15
7 -0.15
8 0.51
9 -0.15

> <PUBCHEM_EFFECTIVE_ROTOR_COUNT>
3

> <PUBCHEM_PHARMACOPHORE_FEATURES>
5
1 1 acceptor
1 2 acceptor
1 3 acceptor
3 2 3 12 anion
6 4 6 7 9 10 11 rings

> <PUBCHEM_HEAVY_ATOM_COUNT>
12

> <PUBCHEM_ATOM_DEF_STEREO_COUNT>
0

> <PUBCHEM_ATOM_UDEF_STEREO_COUNT>
0

> <PUBCHEM_BOND_DEF_STEREO_COUNT>
0

> <PUBCHEM_BOND_UDEF_STEREO_COUNT>
0

> <PUBCHEM_ISOTOPIC_ATOM_COUNT>
0

> <PUBCHEM_COMPONENT_COUNT>
1

> <PUBCHEM_CACTVS_TAUTO_COUNT>
2

> <PUBCHEM_CONFORMER_ID>
000003E500000001

> <PUBCHEM_MMFF94_ENERGY>
24.5009

> <PUBCHEM_FEATURE_SELFOVERLAP>
25.442

> <PUBCHEM_SHAPE_FINGERPRINT>
10219947 1 18059853956804788068
10857977 72 16370729210286585993
11062470 55 17489871535654922293
124424 183 14201393923693091606
12932764 1 18187369834863218848
13024252 1 17775284984928945229
13296908 3 16988843886565792376
13581323 91 17167860855125576261
14144814 61 17748826319220804164
15653759 3 15647054854271362427
15775835 57 17676761058998614515
18175812 5 16845572006697033574
190213 19 18113618992907667550
19422 9 18186516609618794558
200 152 18342748420227864503
20201158 50 16917068871321745827
20279233 1 16773799186186445904
20281407 28 16343696629921813145
20645477 70 18130801095454114718
20871998 184 16153710865150170973
21061003 4 17632286882975597717
3248919 1 17531250577623979484
369184 2 18412263956467729709
474 4 18046915870606599224
75552 356 17312822658754737079
77492 1 18260263027615378797

> <PUBCHEM_SHAPE_MULTIPOLES>
229.35
6.34
1.12
1.02
2.91
0.02
0.06
-0.01
0.72
-1.08
-0.03
0.69
-0.02
-0.23

> <PUBCHEM_SHAPE_SELFOVERLAP>
477.857

> <PUBCHEM_SHAPE_VOLUME>
129

> <PUBCHEM_COORDINATE_TYPE>
2
5
10

$$$$

