443901
  -OEChem-07051213032D

 74 78  0     1  0  0  0  0  0999 V2000
    6.0010   -0.5000    0.0000 O   0  0  0  0  0  0  0  0  0  0  0  0
    8.5991   -1.0000    0.0000 O   0  0  0  0  0  0  0  0  0  0  0  0
    5.1350   -2.0000    0.0000 O   0  0  0  0  0  0  0  0  0  0  0  0
    6.0010   -2.5000    0.0000 O   0  0  0  0  0  0  0  0  0  0  0  0
    7.7331   -3.5000    0.0000 O   0  0  0  0  0  0  0  0  0  0  0  0
    4.2690    0.5000    0.0000 O   0  0  0  0  0  0  0  0  0  0  0  0
    2.5369   -0.5000    0.0000 O   0  0  0  0  0  0  0  0  0  0  0  0
    2.5369   -2.5000    0.0000 O   0  0  0  0  0  0  0  0  0  0  0  0
    9.4651   -3.5000    0.0000 O   0  0  0  0  0  0  0  0  0  0  0  0
    9.4931    0.4653    0.0000 O   0  0  0  0  0  0  0  0  0  0  0  0
    6.0010    0.5000    0.0000 O   0  0  0  0  0  0  0  0  0  0  0  0
    7.7331    3.5000    0.0000 O   0  0  0  0  0  0  0  0  0  0  0  0
    9.4815    3.5346    0.0000 O   0  0  0  0  0  0  0  0  0  0  0  0
   13.8555   -1.0341    0.0000 O   0  0  0  0  0  0  0  0  0  0  0  0
    6.8671   -1.0000    0.0000 C   0  0  2  0  0  0  0  0  0  0  0  0
    6.8671   -2.0000    0.0000 C   0  0  2  0  0  0  0  0  0  0  0  0
    7.7331   -0.5000    0.0000 C   0  0  2  0  0  0  0  0  0  0  0  0
    7.7331   -2.5000    0.0000 C   0  0  1  0  0  0  0  0  0  0  0  0
    8.5991   -2.0000    0.0000 C   0  0  1  0  0  0  0  0  0  0  0  0
    5.1350   -1.0000    0.0000 C   0  0  2  0  0  0  0  0  0  0  0  0
    4.2690   -0.5000    0.0000 C   0  0  1  0  0  0  0  0  0  0  0  0
    3.4030   -1.0000    0.0000 C   0  0  1  0  0  0  0  0  0  0  0  0
    3.4030   -2.0000    0.0000 C   0  0  2  0  0  0  0  0  0  0  0  0
    4.2690   -2.5000    0.0000 C   0  0  2  0  0  0  0  0  0  0  0  0
    7.7331    0.5000    0.0000 C   0  0  0  0  0  0  0  0  0  0  0  0
    9.4651   -2.5000    0.0000 C   0  0  0  0  0  0  0  0  0  0  0  0
    8.5991    1.0000    0.0000 C   0  0  0  0  0  0  0  0  0  0  0  0
    6.8671    1.0000    0.0000 C   0  0  0  0  0  0  0  0  0  0  0  0
    4.2690   -3.5000    0.0000 C   0  0  0  0  0  0  0  0  0  0  0  0
    8.5991    2.0000    0.0000 C   0  0  0  0  0  0  0  0  0  0  0  0
    6.8671    2.0000    0.0000 C   0  0  0  0  0  0  0  0  0  0  0  0
    7.7331    2.5000    0.0000 C   0  0  0  0  0  0  0  0  0  0  0  0
    9.4931    2.5347    0.0000 C   0  0  0  0  0  0  0  0  0  0  0  0
   10.3991    0.9792    0.0000 C   0  0  0  0  0  0  0  0  0  0  0  0
   10.3991    2.0208    0.0000 C   0  0  0  0  0  0  0  0  0  0  0  0
    5.1350    1.0000    0.0000 C   0  0  0  0  0  0  0  0  0  0  0  0
   11.2632    0.4758    0.0000 C   0  0  0  0  0  0  0  0  0  0  0  0
   11.2594   -0.5241    0.0000 C   0  0  0  0  0  0  0  0  0  0  0  0
   12.1312    0.9725    0.0000 C   0  0  0  0  0  0  0  0  0  0  0  0
   12.1235   -1.0275    0.0000 C   0  0  0  0  0  0  0  0  0  0  0  0
   12.9953    0.4692    0.0000 C   0  0  0  0  0  0  0  0  0  0  0  0
   12.9914   -0.5308    0.0000 C   0  0  0  0  0  0  0  0  0  0  0  0
    6.3301   -1.3100    0.0000 H   0  0  0  0  0  0  0  0  0  0  0  0
    6.3301   -1.6900    0.0000 H   0  0  0  0  0  0  0  0  0  0  0  0
    8.4692   -0.0750    0.0000 H   0  0  0  0  0  0  0  0  0  0  0  0
    8.2700   -2.8100    0.0000 H   0  0  0  0  0  0  0  0  0  0  0  0
    9.1360   -1.6900    0.0000 H   0  0  0  0  0  0  0  0  0  0  0  0
    5.1350   -0.3800    0.0000 H   0  0  0  0  0  0  0  0  0  0  0  0
    4.8059   -0.1900    0.0000 H   0  0  0  0  0  0  0  0  0  0  0  0
    3.4030   -0.3800    0.0000 H   0  0  0  0  0  0  0  0  0  0  0  0
    3.4030   -2.6200    0.0000 H   0  0  0  0  0  0  0  0  0  0  0  0
    4.8059   -2.8100    0.0000 H   0  0  0  0  0  0  0  0  0  0  0  0
   10.0757   -2.6077    0.0000 H   0  0  0  0  0  0  0  0  0  0  0  0
    9.6772   -1.9174    0.0000 H   0  0  0  0  0  0  0  0  0  0  0  0
    6.0010   -3.1200    0.0000 H   0  0  0  0  0  0  0  0  0  0  0  0
    7.1962   -3.8100    0.0000 H   0  0  0  0  0  0  0  0  0  0  0  0
    3.6490   -3.5000    0.0000 H   0  0  0  0  0  0  0  0  0  0  0  0
    4.2690   -4.1200    0.0000 H   0  0  0  0  0  0  0  0  0  0  0  0
    4.8890   -3.5000    0.0000 H   0  0  0  0  0  0  0  0  0  0  0  0
    3.7320    0.8100    0.0000 H   0  0  0  0  0  0  0  0  0  0  0  0
    2.0000   -0.8100    0.0000 H   0  0  0  0  0  0  0  0  0  0  0  0
    2.5369   -3.1200    0.0000 H   0  0  0  0  0  0  0  0  0  0  0  0
    6.3301    2.3100    0.0000 H   0  0  0  0  0  0  0  0  0  0  0  0
   10.0021   -3.8100    0.0000 H   0  0  0  0  0  0  0  0  0  0  0  0
   10.9349    2.3329    0.0000 H   0  0  0  0  0  0  0  0  0  0  0  0
    5.4450    1.5369    0.0000 H   0  0  0  0  0  0  0  0  0  0  0  0
    4.5981    1.3100    0.0000 H   0  0  0  0  0  0  0  0  0  0  0  0
    4.8250    0.4631    0.0000 H   0  0  0  0  0  0  0  0  0  0  0  0
    7.1962    3.8100    0.0000 H   0  0  0  0  0  0  0  0  0  0  0  0
   10.7212   -0.8321    0.0000 H   0  0  0  0  0  0  0  0  0  0  0  0
   12.1336    1.5925    0.0000 H   0  0  0  0  0  0  0  0  0  0  0  0
   12.1211   -1.6475    0.0000 H   0  0  0  0  0  0  0  0  0  0  0  0
   13.5334    0.7771    0.0000 H   0  0  0  0  0  0  0  0  0  0  0  0
   14.3936   -0.7262    0.0000 H   0  0  0  0  0  0  0  0  0  0  0  0
 15  1  1  1  0  0  0
 20  1  1  6  0  0  0
  2 17  1  0  0  0  0
  2 19  1  0  0  0  0
  3 20  1  0  0  0  0
  3 24  1  0  0  0  0
 16  4  1  6  0  0  0
  4 55  1  0  0  0  0
 18  5  1  1  0  0  0
  5 56  1  0  0  0  0
 21  6  1  1  0  0  0
  6 60  1  0  0  0  0
 22  7  1  1  0  0  0
  7 61  1  0  0  0  0
 23  8  1  6  0  0  0
  8 62  1  0  0  0  0
  9 26  1  0  0  0  0
  9 64  1  0  0  0  0
 10 27  1  0  0  0  0
 10 34  1  0  0  0  0
 11 28  1  0  0  0  0
 11 36  1  0  0  0  0
 12 32  1  0  0  0  0
 12 69  1  0  0  0  0
 13 33  2  0  0  0  0
 14 42  1  0  0  0  0
 14 74  1  0  0  0  0
 15 16  1  0  0  0  0
 15 17  1  0  0  0  0
 15 43  1  0  0  0  0
 16 18  1  0  0  0  0
 16 44  1  0  0  0  0
 17 25  1  0  0  0  0
 17 45  1  1  0  0  0
 18 19  1  0  0  0  0
 18 46  1  0  0  0  0
 19 26  1  6  0  0  0
 19 47  1  0  0  0  0
 20 21  1  0  0  0  0
 20 48  1  0  0  0  0
 21 22  1  0  0  0  0
 21 49  1  0  0  0  0
 22 23  1  0  0  0  0
 22 50  1  0  0  0  0
 23 24  1  0  0  0  0
 23 51  1  0  0  0  0
 24 29  1  1  0  0  0
 24 52  1  0  0  0  0
 25 27  1  0  0  0  0
 25 28  2  0  0  0  0
 26 53  1  0  0  0  0
 26 54  1  0  0  0  0
 27 30  2  0  0  0  0
 28 31  1  0  0  0  0
 29 57  1  0  0  0  0
 29 58  1  0  0  0  0
 29 59  1  0  0  0  0
 30 32  1  0  0  0  0
 30 33  1  0  0  0  0
 31 32  2  0  0  0  0
 31 63  1  0  0  0  0
 33 35  1  0  0  0  0
 34 35  2  0  0  0  0
 34 37  1  0  0  0  0
 35 65  1  0  0  0  0
 36 66  1  0  0  0  0
 36 67  1  0  0  0  0
 36 68  1  0  0  0  0
 37 38  2  0  0  0  0
 37 39  1  0  0  0  0
 38 40  1  0  0  0  0
 38 70  1  0  0  0  0
 39 41  2  0  0  0  0
 39 71  1  0  0  0  0
 40 42  2  0  0  0  0
 40 72  1  0  0  0  0
 41 42  1  0  0  0  0
 41 73  1  0  0  0  0
M  END
> <PUBCHEM_COMPOUND_CID>
443901

> <PUBCHEM_COMPOUND_CANONICALIZED>
1

> <PUBCHEM_CACTVS_COMPLEXITY>
970

> <PUBCHEM_CACTVS_HBOND_ACCEPTOR>
14

> <PUBCHEM_CACTVS_HBOND_DONOR>
8

> <PUBCHEM_CACTVS_ROTATABLE_BOND>
6

> <PUBCHEM_CACTVS_SUBSKEYS>
AAADcfB4PAAAAAAAAAAAAAAAAAAAAAAAAAA0aIECAAAAAACBQAAAGgAACAAADBSwmAMyDoAABgCIAqBSAAACCAAkIAAIiAEGCMgdNzaGNRqieWCl4BUPuQfI7PzOIAACCAAIAABAAAQQABAAAAAAAAAAAA==

> <PUBCHEM_IUPAC_OPENEYE_NAME>
8-[(2S,3R,4S,5S,6R)-4,5-dihydroxy-6-(hydroxymethyl)-3-[(2S,3R,4R,5R,6S)-3,4,5-trihydroxy-6-methyl-tetrahydropyran-2-yl]oxy-tetrahydropyran-2-yl]-5-hydroxy-2-(4-hydroxyphenyl)-7-methoxy-chromen-4-one

> <PUBCHEM_IUPAC_CAS_NAME>
8-[(2S,3R,4S,5S,6R)-4,5-dihydroxy-6-(hydroxymethyl)-3-[[(2S,3R,4R,5R,6S)-3,4,5-trihydroxy-6-methyl-2-oxanyl]oxy]-2-oxanyl]-5-hydroxy-2-(4-hydroxyphenyl)-7-methoxy-1-benzopyran-4-one

> <PUBCHEM_IUPAC_NAME>
8-[(2S,3R,4S,5S,6R)-4,5-dihydroxy-6-(hydroxymethyl)-3-[(2S,3R,4R,5R,6S)-3,4,5-trihydroxy-6-methyloxan-2-yl]oxyoxan-2-yl]-5-hydroxy-2-(4-hydroxyphenyl)-7-methoxychromen-4-one

> <PUBCHEM_IUPAC_SYSTEMATIC_NAME>
8-[(2S,3R,4S,5S,6R)-6-(hydroxymethyl)-3-[(2S,3R,4R,5R,6S)-6-methyl-3,4,5-tris(oxidanyl)oxan-2-yl]oxy-4,5-bis(oxidanyl)oxan-2-yl]-2-(4-hydroxyphenyl)-7-methoxy-5-oxidanyl-chromen-4-one

> <PUBCHEM_IUPAC_TRADITIONAL_NAME>
8-[(2S,3R,4S,5S,6R)-4,5-dihydroxy-6-methylol-3-[(2S,3R,4R,5R,6S)-3,4,5-trihydroxy-6-methyl-tetrahydropyran-2-yl]oxy-tetrahydropyran-2-yl]-5-hydroxy-2-(4-hydroxyphenyl)-7-methoxy-chromone

> <PUBCHEM_IUPAC_INCHI>
InChI=1S/C28H32O14/c1-10-20(33)22(35)24(37)28(39-10)42-27-23(36)21(34)17(9-29)41-26(27)19-16(38-2)8-14(32)18-13(31)7-15(40-25(18)19)11-3-5-12(30)6-4-11/h3-8,10,17,20-24,26-30,32-37H,9H2,1-2H3/t10-,17+,20-,21+,22+,23-,24+,26-,27+,28-/m0/s1

> <PUBCHEM_IUPAC_INCHIKEY>
HFUYHHROXLKXRR-WBXLRLGPSA-N

> <PUBCHEM_XLOGP3_AA>
-0.6

> <PUBCHEM_EXACT_MASS>
592.179206

> <PUBCHEM_MOLECULAR_FORMULA>
C28H32O14

> <PUBCHEM_MOLECULAR_WEIGHT>
592.54528

> <PUBCHEM_OPENEYE_CAN_SMILES>
CC1C(C(C(C(O1)OC2C(C(C(OC2C3=C(C=C(C4=C3OC(=CC4=O)C5=CC=C(C=C5)O)O)OC)CO)O)O)O)O)O

> <PUBCHEM_OPENEYE_ISO_SMILES>
C[C@H]1[C@@H]([C@H]([C@H]([C@@H](O1)O[C@@H]2[C@H]([C@@H]([C@H](O[C@H]2C3=C(C=C(C4=C3OC(=CC4=O)C5=CC=C(C=C5)O)O)OC)CO)O)O)O)O)O

> <PUBCHEM_CACTVS_TPSA>
225

> <PUBCHEM_MONOISOTOPIC_WEIGHT>
592.179206

> <PUBCHEM_TOTAL_CHARGE>
0

> <PUBCHEM_HEAVY_ATOM_COUNT>
42

> <PUBCHEM_ATOM_DEF_STEREO_COUNT>
10

> <PUBCHEM_ATOM_UDEF_STEREO_COUNT>
0

> <PUBCHEM_BOND_DEF_STEREO_COUNT>
0

> <PUBCHEM_BOND_UDEF_STEREO_COUNT>
0

> <PUBCHEM_ISOTOPIC_ATOM_COUNT>
0

> <PUBCHEM_COMPONENT_COUNT>
1

> <PUBCHEM_CACTVS_TAUTO_COUNT>
24

> <PUBCHEM_COORDINATE_TYPE>
1
5
255

> <PUBCHEM_BONDANNOTATIONS>
15  1  5
20  1  6
10  27  8
10  34  8
17  45  5
19  26  6
24  29  5
25  27  8
25  28  8
27  30  8
28  31  8
30  32  8
30  33  8
31  32  8
33  35  8
34  35  8
37  38  8
37  39  8
38  40  8
39  41  8
16  4  6
40  42  8
41  42  8
18  5  5
21  6  5
22  7  5
23  8  6

$$$$

