10583108
  -OEChem-07051213102D

 21 21  0     1  0  0  0  0  0999 V2000
    2.5369    0.6550    0.0000 O   0  0  0  0  0  0  0  0  0  0  0  0
    4.2690    1.6550    0.0000 O   0  0  0  0  0  0  0  0  0  0  0  0
    2.5369   -1.3450    0.0000 O   0  0  0  0  0  0  0  0  0  0  0  0
    6.0010    0.6550    0.0000 O   0  0  0  0  0  0  0  0  0  0  0  0
    6.0010   -1.3450    0.0000 O   0  0  0  0  0  0  0  0  0  0  0  0
    3.4030    0.1550    0.0000 C   0  0  2  0  0  0  0  0  0  0  0  0
    4.2690    0.6550    0.0000 C   0  0  2  0  0  0  0  0  0  0  0  0
    3.4030   -0.8450    0.0000 C   0  0  1  0  0  0  0  0  0  0  0  0
    5.1350    0.1550    0.0000 C   0  0  1  0  0  0  0  0  0  0  0  0
    4.2690   -1.3450    0.0000 C   0  0  0  0  0  0  0  0  0  0  0  0
    5.1350   -0.8450    0.0000 C   0  0  0  0  0  0  0  0  0  0  0  0
    3.4030    0.7750    0.0000 H   0  0  0  0  0  0  0  0  0  0  0  0
    4.8059    0.9650    0.0000 H   0  0  0  0  0  0  0  0  0  0  0  0
    3.4030   -1.4650    0.0000 H   0  0  0  0  0  0  0  0  0  0  0  0
    5.1350    0.7750    0.0000 H   0  0  0  0  0  0  0  0  0  0  0  0
    3.8705   -1.8200    0.0000 H   0  0  0  0  0  0  0  0  0  0  0  0
    4.6675   -1.8200    0.0000 H   0  0  0  0  0  0  0  0  0  0  0  0
    2.0000    0.3450    0.0000 H   0  0  0  0  0  0  0  0  0  0  0  0
    4.8059    1.9650    0.0000 H   0  0  0  0  0  0  0  0  0  0  0  0
    2.5369   -1.9650    0.0000 H   0  0  0  0  0  0  0  0  0  0  0  0
    6.5380    0.3450    0.0000 H   0  0  0  0  0  0  0  0  0  0  0  0
  6  1  1  6  0  0  0
  1 18  1  0  0  0  0
  7  2  1  1  0  0  0
  2 19  1  0  0  0  0
  8  3  1  1  0  0  0
  3 20  1  0  0  0  0
  9  4  1  6  0  0  0
  4 21  1  0  0  0  0
  5 11  2  0  0  0  0
  6  7  1  0  0  0  0
  6  8  1  0  0  0  0
  6 12  1  0  0  0  0
  7  9  1  0  0  0  0
  7 13  1  0  0  0  0
  8 10  1  0  0  0  0
  8 14  1  0  0  0  0
  9 11  1  0  0  0  0
  9 15  1  0  0  0  0
 10 11  1  0  0  0  0
 10 16  1  0  0  0  0
 10 17  1  0  0  0  0
M  END
> <PUBCHEM_COMPOUND_CID>
10583108

> <PUBCHEM_COMPOUND_CANONICALIZED>
1

> <PUBCHEM_CACTVS_COMPLEXITY>
168

> <PUBCHEM_CACTVS_HBOND_ACCEPTOR>
5

> <PUBCHEM_CACTVS_HBOND_DONOR>
4

> <PUBCHEM_CACTVS_ROTATABLE_BOND>
0

> <PUBCHEM_CACTVS_SUBSKEYS>
AAADccBgOAAAAAAAAAAAAAAAAAAAAAAAAAAwAAAAAAAAAAAAAAAAGgAACAAACBSggAIAAAAAAgAIAIAQAAIAAAAAAAAAAAFAAAABEBYAAAAAQAAFIAABAAHKbARAAAAAAAAAAAACAAAQAACAAAAAAAAAAA==

> <PUBCHEM_IUPAC_OPENEYE_NAME>
(2S,3R,4S,5R)-2,3,4,5-tetrahydroxycyclohexanone

> <PUBCHEM_IUPAC_CAS_NAME>
(2S,3R,4S,5R)-2,3,4,5-tetrahydroxy-1-cyclohexanone

> <PUBCHEM_IUPAC_NAME>
(2S,3R,4S,5R)-2,3,4,5-tetrahydroxycyclohexan-1-one

> <PUBCHEM_IUPAC_SYSTEMATIC_NAME>
(2S,3R,4S,5R)-2,3,4,5-tetrakis(oxidanyl)cyclohexan-1-one

> <PUBCHEM_IUPAC_TRADITIONAL_NAME>
(2S,3R,4S,5R)-2,3,4,5-tetrahydroxycyclohexanone

> <PUBCHEM_IUPAC_INCHI>
InChI=1S/C6H10O5/c7-2-1-3(8)5(10)6(11)4(2)9/h2,4-7,9-11H,1H2/t2-,4+,5-,6-/m1/s1

> <PUBCHEM_IUPAC_INCHIKEY>
GZYCZKBRQBKGJW-FSZQNWAESA-N

> <PUBCHEM_XLOGP3_AA>
-2.7

> <PUBCHEM_EXACT_MASS>
162.052823

> <PUBCHEM_MOLECULAR_FORMULA>
C6H10O5

> <PUBCHEM_MOLECULAR_WEIGHT>
162.1406

> <PUBCHEM_OPENEYE_CAN_SMILES>
C1C(C(C(C(C1=O)O)O)O)O

> <PUBCHEM_OPENEYE_ISO_SMILES>
C1[C@H]([C@@H]([C@H]([C@@H](C1=O)O)O)O)O

> <PUBCHEM_CACTVS_TPSA>
98

> <PUBCHEM_MONOISOTOPIC_WEIGHT>
162.052823

> <PUBCHEM_TOTAL_CHARGE>
0

> <PUBCHEM_HEAVY_ATOM_COUNT>
11

> <PUBCHEM_ATOM_DEF_STEREO_COUNT>
4

> <PUBCHEM_ATOM_UDEF_STEREO_COUNT>
0

> <PUBCHEM_BOND_DEF_STEREO_COUNT>
0

> <PUBCHEM_BOND_UDEF_STEREO_COUNT>
0

> <PUBCHEM_ISOTOPIC_ATOM_COUNT>
0

> <PUBCHEM_COMPONENT_COUNT>
1

> <PUBCHEM_CACTVS_TAUTO_COUNT>
6

> <PUBCHEM_COORDINATE_TYPE>
1
5
255

> <PUBCHEM_BONDANNOTATIONS>
6  1  6
7  2  5
8  3  5
9  4  6

$$$$

