440171
  -OEChem-07051212492D

 16 16  0     1  0  0  0  0  0999 V2000
    3.2044   -1.4770    0.0000 P   0  0  3  0  0  0  0  0  0  0  0  0
    4.0134   -0.8892    0.0000 O   0  0  0  0  0  0  0  0  0  0  0  0
    2.3954   -0.8892    0.0000 O   0  0  0  0  0  0  0  0  0  0  0  0
    2.6166   -2.2860    0.0000 O   0  0  0  0  0  0  0  0  0  0  0  0
    3.8854    1.7844    0.0000 O   0  0  0  0  0  0  0  0  0  0  0  0
    3.7922   -2.2860    0.0000 O   0  0  0  0  0  0  0  0  0  0  0  0
    3.7044    0.0619    0.0000 C   0  0  3  0  0  0  0  0  0  0  0  0
    2.7044    0.0619    0.0000 C   0  0  0  0  0  0  0  0  0  0  0  0
    4.2922    0.8709    0.0000 C   0  0  0  0  0  0  0  0  0  0  0  0
    4.5439   -0.0711    0.0000 H   0  0  0  0  0  0  0  0  0  0  0  0
    2.7692    0.6785    0.0000 H   0  0  0  0  0  0  0  0  0  0  0  0
    2.0979    0.1908    0.0000 H   0  0  0  0  0  0  0  0  0  0  0  0
    4.7229    0.4249    0.0000 H   0  0  0  0  0  0  0  0  0  0  0  0
    4.8062    1.2176    0.0000 H   0  0  0  0  0  0  0  0  0  0  0  0
    2.0000   -2.2212    0.0000 H   0  0  0  0  0  0  0  0  0  0  0  0
    4.2499    2.2860    0.0000 H   0  0  0  0  0  0  0  0  0  0  0  0
  1  2  1  0  0  0  0
  1  3  1  0  0  0  0
  1  4  1  0  0  0  0
  1  6  2  0  0  0  0
  2  7  1  0  0  0  0
  3  8  1  0  0  0  0
  4 15  1  0  0  0  0
  5  9  1  0  0  0  0
  5 16  1  0  0  0  0
  7  8  1  0  0  0  0
  7  9  1  0  0  0  0
  7 10  1  0  0  0  0
  8 11  1  0  0  0  0
  8 12  1  0  0  0  0
  9 13  1  0  0  0  0
  9 14  1  0  0  0  0
M  END
> <PUBCHEM_COMPOUND_CID>
440171

> <PUBCHEM_COMPOUND_CANONICALIZED>
1

> <PUBCHEM_CACTVS_COMPLEXITY>
145

> <PUBCHEM_CACTVS_HBOND_ACCEPTOR>
5

> <PUBCHEM_CACTVS_HBOND_DONOR>
2

> <PUBCHEM_CACTVS_ROTATABLE_BOND>
1

> <PUBCHEM_CACTVS_SUBSKEYS>
AAADcYBAOAIAAAAAAAAAAAAAAAAAASAAAAAAAAAAAAAAAAAAAAAAGgAACCAACBSggAIAAAAAAxAAQAAAAIAAAAAAAAAAAAAAAAABEAAAAAAAQAABAAABAAAAAAAAAAAAAAAAAAAAAAAAAAAAAAAAAAAAAA==

> <PUBCHEM_IUPAC_OPENEYE_NAME>
(2-hydroxy-2-oxo-1,3,2$l^{5}-dioxaphospholan-4-yl)methanol

> <PUBCHEM_IUPAC_CAS_NAME>
(2-hydroxy-2-oxo-1,3,2$l^{5}-dioxaphospholan-4-yl)methanol

> <PUBCHEM_IUPAC_NAME>
(2-hydroxy-2-oxo-1,3,2$l^{5}-dioxaphospholan-4-yl)methanol

> <PUBCHEM_IUPAC_SYSTEMATIC_NAME>
(2-oxidanyl-2-oxidanylidene-1,3,2$l^{5}-dioxaphospholan-4-yl)methanol

> <PUBCHEM_IUPAC_TRADITIONAL_NAME>
(2-hydroxy-2-keto-1,3,2$l^{5}-dioxaphospholan-4-yl)methanol

> <PUBCHEM_IUPAC_INCHI>
InChI=1S/C3H7O5P/c4-1-3-2-7-9(5,6)8-3/h3-4H,1-2H2,(H,5,6)

> <PUBCHEM_IUPAC_INCHIKEY>
PXLGNXWMKNZOAA-UHFFFAOYSA-N

> <PUBCHEM_XLOGP3_AA>
-1.9

> <PUBCHEM_EXACT_MASS>
154.00311

> <PUBCHEM_MOLECULAR_FORMULA>
C3H7O5P

> <PUBCHEM_MOLECULAR_WEIGHT>
154.058442

> <PUBCHEM_OPENEYE_CAN_SMILES>
C1C(OP(=O)(O1)O)CO

> <PUBCHEM_OPENEYE_ISO_SMILES>
C1C(OP(=O)(O1)O)CO

> <PUBCHEM_CACTVS_TPSA>
76

> <PUBCHEM_MONOISOTOPIC_WEIGHT>
154.00311

> <PUBCHEM_TOTAL_CHARGE>
0

> <PUBCHEM_HEAVY_ATOM_COUNT>
9

> <PUBCHEM_ATOM_DEF_STEREO_COUNT>
0

> <PUBCHEM_ATOM_UDEF_STEREO_COUNT>
1

> <PUBCHEM_BOND_DEF_STEREO_COUNT>
0

> <PUBCHEM_BOND_UDEF_STEREO_COUNT>
0

> <PUBCHEM_ISOTOPIC_ATOM_COUNT>
0

> <PUBCHEM_COMPONENT_COUNT>
1

> <PUBCHEM_CACTVS_TAUTO_COUNT>
1

> <PUBCHEM_COORDINATE_TYPE>
1
5
255

> <PUBCHEM_BONDANNOTATIONS>
7  10  3

$$$$

