16213016
  -OEChem-07051213133D

 53 55  0     1  0  0  0  0  0999 V2000
    6.4082   -5.0121   -0.1053 Cl  0  0  0  0  0  0  0  0  0  0  0  0
   -1.6155    2.5365   -0.9773 O   0  0  0  0  0  0  0  0  0  0  0  0
   -4.1920    0.6167    0.6177 O   0  0  0  0  0  0  0  0  0  0  0  0
    3.7557    2.4749    0.3519 O   0  0  0  0  0  0  0  0  0  0  0  0
   -3.6755    2.8620    0.7183 O   0  0  0  0  0  0  0  0  0  0  0  0
   -6.4838   -0.9957    0.5340 O   0  0  0  0  0  0  0  0  0  0  0  0
    3.6827    0.1824   -0.0078 N   0  0  0  0  0  0  0  0  0  0  0  0
    6.3796    0.0079    0.6372 N   0  0  0  0  0  0  0  0  0  0  0  0
   -7.1224   -2.2153    0.7882 N   0  0  0  0  0  0  0  0  0  0  0  0
   -2.3718    1.3640   -0.6793 C   0  0  2  0  0  0  0  0  0  0  0  0
   -0.2943    2.5213   -0.6505 C   0  0  0  0  0  0  0  0  0  0  0  0
   -2.9470    0.8302   -1.9795 C   0  0  0  0  0  0  0  0  0  0  0  0
   -3.4676    1.7300    0.3012 C   0  0  0  0  0  0  0  0  0  0  0  0
    2.4135    2.4900    0.0195 C   0  0  0  0  0  0  0  0  0  0  0  0
    0.6717    2.6866   -1.6431 C   0  0  0  0  0  0  0  0  0  0  0  0
    0.0935    2.3403    0.6771 C   0  0  0  0  0  0  0  0  0  0  0  0
    2.0256    2.6709   -1.3080 C   0  0  0  0  0  0  0  0  0  0  0  0
    1.4474    2.3247    1.0121 C   0  0  0  0  0  0  0  0  0  0  0  0
   -5.2836    0.8264    1.5192 C   0  0  0  0  0  0  0  0  0  0  0  0
    4.3171   -1.0030   -0.0270 C   0  0  0  0  0  0  0  0  0  0  0  0
    5.6828   -1.0913    0.2996 C   0  0  0  0  0  0  0  0  0  0  0  0
    4.3975    1.2700    0.3323 C   0  0  0  0  0  0  0  0  0  0  0  0
   -5.9814   -0.4969    1.7679 C   0  0  0  0  0  0  0  0  0  0  0  0
    3.6267   -2.1625   -0.3717 C   0  0  0  0  0  0  0  0  0  0  0  0
    6.3075   -2.3359    0.2694 C   0  0  0  0  0  0  0  0  0  0  0  0
    5.7268    1.1840    0.6502 C   0  0  0  0  0  0  0  0  0  0  0  0
    4.2613   -3.4032   -0.3990 C   0  0  0  0  0  0  0  0  0  0  0  0
    5.6075   -3.4903   -0.0772 C   0  0  0  0  0  0  0  0  0  0  0  0
   -7.6040   -2.7221   -0.3051 C   0  0  0  0  0  0  0  0  0  0  0  0
   -8.3512   -4.0312   -0.3748 C   0  0  0  0  0  0  0  0  0  0  0  0
   -7.4150   -1.9596   -1.5902 C   0  0  0  0  0  0  0  0  0  0  0  0
   -1.7474    0.5897   -0.2144 H   0  0  0  0  0  0  0  0  0  0  0  0
   -3.5172   -0.0910   -1.8242 H   0  0  0  0  0  0  0  0  0  0  0  0
   -2.1472    0.6265   -2.6996 H   0  0  0  0  0  0  0  0  0  0  0  0
   -3.6132    1.5667   -2.4432 H   0  0  0  0  0  0  0  0  0  0  0  0
    0.3753    2.8275   -2.6789 H   0  0  0  0  0  0  0  0  0  0  0  0
   -0.6473    2.2198    1.4628 H   0  0  0  0  0  0  0  0  0  0  0  0
    2.7728    2.8012   -2.0861 H   0  0  0  0  0  0  0  0  0  0  0  0
    1.7426    2.1863    2.0486 H   0  0  0  0  0  0  0  0  0  0  0  0
   -5.9835    1.5348    1.0610 H   0  0  0  0  0  0  0  0  0  0  0  0
   -4.9074    1.2343    2.4637 H   0  0  0  0  0  0  0  0  0  0  0  0
   -5.2690   -1.2234    2.1760 H   0  0  0  0  0  0  0  0  0  0  0  0
   -6.8074   -0.3595    2.4746 H   0  0  0  0  0  0  0  0  0  0  0  0
    2.5700   -2.1083   -0.6264 H   0  0  0  0  0  0  0  0  0  0  0  0
    7.3647   -2.4033    0.5224 H   0  0  0  0  0  0  0  0  0  0  0  0
    6.3160    2.0499    0.9259 H   0  0  0  0  0  0  0  0  0  0  0  0
    3.6914   -4.2869   -0.6727 H   0  0  0  0  0  0  0  0  0  0  0  0
   -7.8244   -4.7141   -1.0464 H   0  0  0  0  0  0  0  0  0  0  0  0
   -8.4145   -4.4804    0.6197 H   0  0  0  0  0  0  0  0  0  0  0  0
   -9.3602   -3.8528   -0.7552 H   0  0  0  0  0  0  0  0  0  0  0  0
   -7.9008   -0.9814   -1.5275 H   0  0  0  0  0  0  0  0  0  0  0  0
   -7.8694   -2.5092   -2.4200 H   0  0  0  0  0  0  0  0  0  0  0  0
   -6.3499   -1.8390   -1.8092 H   0  0  0  0  0  0  0  0  0  0  0  0
  1 28  1  0  0  0  0
  2 10  1  0  0  0  0
  2 11  1  0  0  0  0
  3 13  1  0  0  0  0
  3 19  1  0  0  0  0
  4 14  1  0  0  0  0
  4 22  1  0  0  0  0
  5 13  2  0  0  0  0
  6  9  1  0  0  0  0
  6 23  1  0  0  0  0
  7 20  2  0  0  0  0
  7 22  1  0  0  0  0
  8 21  2  0  0  0  0
  8 26  1  0  0  0  0
  9 29  2  0  0  0  0
 10 12  1  0  0  0  0
 10 13  1  0  0  0  0
 10 32  1  0  0  0  0
 11 15  2  0  0  0  0
 11 16  1  0  0  0  0
 12 33  1  0  0  0  0
 12 34  1  0  0  0  0
 12 35  1  0  0  0  0
 14 17  2  0  0  0  0
 14 18  1  0  0  0  0
 15 17  1  0  0  0  0
 15 36  1  0  0  0  0
 16 18  2  0  0  0  0
 16 37  1  0  0  0  0
 17 38  1  0  0  0  0
 18 39  1  0  0  0  0
 19 23  1  0  0  0  0
 19 40  1  0  0  0  0
 19 41  1  0  0  0  0
 20 21  1  0  0  0  0
 20 24  1  0  0  0  0
 21 25  1  0  0  0  0
 22 26  2  0  0  0  0
 23 42  1  0  0  0  0
 23 43  1  0  0  0  0
 24 27  2  0  0  0  0
 24 44  1  0  0  0  0
 25 28  2  0  0  0  0
 25 45  1  0  0  0  0
 26 46  1  0  0  0  0
 27 28  1  0  0  0  0
 27 47  1  0  0  0  0
 29 30  1  0  0  0  0
 29 31  1  0  0  0  0
 30 48  1  0  0  0  0
 30 49  1  0  0  0  0
 30 50  1  0  0  0  0
 31 51  1  0  0  0  0
 31 52  1  0  0  0  0
 31 53  1  0  0  0  0
M  END
> <PUBCHEM_COMPOUND_CID>
16213016

> <PUBCHEM_CONFORMER_RMSD>
1

> <PUBCHEM_CONFORMER_DIVERSEORDER>
1
28
76
104
164
309
41
32
356
229
17
40
381
257
213
320
144
273
331
35
51
13
270
87
258
54
342
224
182
329
48
131
377
146
345
215
37
299
283
197
201
226
185
176
112
203
36
171
235
174
254
351
135
157
178
162
385
179
122
129
21
358
187
173
199
6
46
85
237
180
252
218
16
236
360
311
152
304
101
222
193
207
81
15
175
190
145
375
148
170
159
330
298
277
251
114
373
153
260
337
105
204
149
150
265
80
372
338
361
195
61
353
343
221
194
74
75
165
183
219
275
271
233
333
369
227
228
223
278
161
154
239
90
102
63
184
142
59
163
31
95
117
62
290
292
210
230
280
306
336
3
53
71
156
263
366
250
376
58
339
279
106
307
121
69
285
196
188
384
316
379
382
244
111
297
140
266
202
214
208
313
91
49
253
314
284
130
261
72
139
231
30
232
368
155
78
12
79
108
29
363
93
11
124
305
65
168
294
348
308
198
47
359
60
115
98
216
23
264
137
220
269
186
295
326
57
289
38
240
256
282
318
267
4
248
83
68
324
82
344
22
119
287
281
323
225
126
367
317
43
364
259
189
70
378
241
127
340
291
50
249
205
147
116
272
66
192
52
118
84
19
200
109
141
132
27
349
24
128
380
300
354
125
334
42
110
123
286
191
151
312
325
319
55
7
169
255
113
120
242
34
103
138
92
89
5
327
44
303
86
352
355
100
293
136
67
10
143
296
39
181
383
96
20
262
134
302
99
167
350
8
310
347
322
243
332
26
268
321
217
94
45
64
245
247
288
25
14
206
166
246
18
9
328
315
33
88
2
172
357
362
346
56
370
276
365
133
177
234
158
212
73
209
335
97
160
301
107
374
274
77
238
341
211
371

> <PUBCHEM_MMFF94_PARTIAL_CHARGES>
38
1 -0.18
10 0.34
11 0.08
13 0.66
14 0.08
15 -0.15
16 -0.15
17 -0.15
18 -0.15
19 0.28
2 -0.36
20 0.31
21 0.31
22 0.39
23 0.28
24 -0.15
25 -0.15
26 0.16
27 -0.15
28 0.18
29 0.33
3 -0.43
30 0.06
31 0.06
36 0.15
37 0.15
38 0.15
39 0.15
4 -0.17
44 0.15
45 0.15
46 0.15
47 0.15
5 -0.57
6 -0.22
7 -0.62
8 -0.62
9 -0.51

> <PUBCHEM_EFFECTIVE_ROTOR_COUNT>
10

> <PUBCHEM_PHARMACOPHORE_FEATURES>
9
1 2 acceptor
1 4 acceptor
1 5 acceptor
1 7 acceptor
1 8 acceptor
1 9 acceptor
6 11 14 15 16 17 18 rings
6 20 21 24 25 27 28 rings
6 7 8 20 21 22 26 rings

> <PUBCHEM_HEAVY_ATOM_COUNT>
31

> <PUBCHEM_ATOM_DEF_STEREO_COUNT>
1

> <PUBCHEM_ATOM_UDEF_STEREO_COUNT>
0

> <PUBCHEM_BOND_DEF_STEREO_COUNT>
0

> <PUBCHEM_BOND_UDEF_STEREO_COUNT>
0

> <PUBCHEM_ISOTOPIC_ATOM_COUNT>
0

> <PUBCHEM_COMPONENT_COUNT>
1

> <PUBCHEM_CACTVS_TAUTO_COUNT>
1

> <PUBCHEM_CONFORMER_ID>
00F7641800000001

> <PUBCHEM_MMFF94_ENERGY>
94.2267

> <PUBCHEM_FEATURE_SELFOVERLAP>
45.764

> <PUBCHEM_SHAPE_FINGERPRINT>
10571361 74 18189897518387469647
10669705 162 18201446887367177813
11103572 95 18335421279752764001
11399510 152 17967543384353713176
117089 54 18341323448811058859
12355185 283 17987504924226711947
12623949 98 18336537300871069596
12717326 150 18335150838352436871
13553639 21 18121782995678709558
1361 4 18411978100756265802
13782708 43 18130785685163879465
13989917 61 18409729564933810430
14556957 393 13614522991145401567
14664723 55 12030972247963506447
15475509 35 18187929430357804065
15510800 12 18271252706796734474
16728300 4 18187082867287780269
16993427 108 17968941869651332251
17492 89 18411979204284026184
1768 124 18409729530209347706
21130935 74 18334857229343768441
21197605 99 18408040689604052826
21307412 95 18057048132170121005
21585483 132 18342465833076995979
21867126 195 18341051938744680562
21987483 16 17317333800988497843
23569914 152 11311229810401730106
25222932 49 17775292681584232424
260245 28 18119252762178723279
3504750 166 18336821005273774113
373842 8 18267015060525436491
3862424 121 17415807345559925931
474113 269 18261118444511312999
4756088 132 17837498809571680611
4756326 101 7823950931425633398
50009960 94 18058745718125681986
5718773 13 18411420571220415785
6201320 221 18262533515839909975
9555976 147 17677315222013737225
9980921 52 18261971669445209319

> <PUBCHEM_SHAPE_MULTIPOLES>
595.55
24.06
6.04
1.37
32.95
5.67
-0.23
34.32
2.95
-2.93
-1.02
2.09
-0.58
-0.52

> <PUBCHEM_SHAPE_SELFOVERLAP>
1256.906

> <PUBCHEM_SHAPE_VOLUME>
334.4

> <PUBCHEM_COORDINATE_TYPE>
2
5
10

$$$$

