17396372
  -OEChem-06241222563D

 35 36  0     0  0  0  0  0  0999 V2000
    2.9961   -2.0115   -1.2928 F   0  0  0  0  0  0  0  0  0  0  0  0
    1.7455   -3.2446    0.0076 F   0  0  0  0  0  0  0  0  0  0  0  0
    3.8615   -2.9894    0.4903 F   0  0  0  0  0  0  0  0  0  0  0  0
    2.4214   -1.2368    0.7805 O   0  0  0  0  0  0  0  0  0  0  0  0
   -0.1093    2.9884   -0.5254 O   0  0  0  0  0  0  0  0  0  0  0  0
   -3.5514   -2.5628    0.8022 O   0  5  0  0  0  0  0  0  0  0  0  0
   -3.8792   -2.2552   -1.3509 O   0  0  0  0  0  0  0  0  0  0  0  0
    0.6742    0.8728    0.1195 N   0  0  0  0  0  0  0  0  0  0  0  0
   -3.5949   -1.8244   -0.2091 N   0  3  0  0  0  0  0  0  0  0  0  0
   -1.6927    1.3550   -0.0395 C   0  0  0  0  0  0  0  0  0  0  0  0
   -4.3258    0.4739    0.2306 C   0  0  0  0  0  0  0  0  0  0  0  0
   -3.3105   -0.4392   -0.0547 C   0  0  0  0  0  0  0  0  0  0  0  0
   -1.9940    0.0014   -0.1897 C   0  0  0  0  0  0  0  0  0  0  0  0
    2.0809    1.0378    0.0965 C   0  0  0  0  0  0  0  0  0  0  0  0
   -2.7080    2.2681    0.2457 C   0  0  0  0  0  0  0  0  0  0  0  0
   -0.3199    1.8147   -0.1797 C   0  0  0  0  0  0  0  0  0  0  0  0
   -4.0245    1.8276    0.3808 C   0  0  0  0  0  0  0  0  0  0  0  0
    2.9267   -0.0209    0.4269 C   0  0  0  0  0  0  0  0  0  0  0  0
   -5.7466    0.0352    0.3815 C   0  0  0  0  0  0  0  0  0  0  0  0
    2.6183    2.2742   -0.2616 C   0  0  0  0  0  0  0  0  0  0  0  0
    4.3099    0.1566    0.3991 C   0  0  0  0  0  0  0  0  0  0  0  0
    4.0016    2.4517   -0.2894 C   0  0  0  0  0  0  0  0  0  0  0  0
    4.8474    1.3931    0.0409 C   0  0  0  0  0  0  0  0  0  0  0  0
    2.7734   -2.3658   -0.0094 C   0  0  0  0  0  0  0  0  0  0  0  0
   -1.2341   -0.7305   -0.4515 H   0  0  0  0  0  0  0  0  0  0  0  0
   -2.4948    3.3264    0.3720 H   0  0  0  0  0  0  0  0  0  0  0  0
   -4.8026    2.5526    0.6044 H   0  0  0  0  0  0  0  0  0  0  0  0
    0.3895   -0.0484    0.4403 H   0  0  0  0  0  0  0  0  0  0  0  0
   -6.1070   -0.4270   -0.5434 H   0  0  0  0  0  0  0  0  0  0  0  0
   -5.8435   -0.6784    1.2063 H   0  0  0  0  0  0  0  0  0  0  0  0
   -6.4117    0.8773    0.6025 H   0  0  0  0  0  0  0  0  0  0  0  0
    2.0351    3.1427   -0.5304 H   0  0  0  0  0  0  0  0  0  0  0  0
    4.9816   -0.6560    0.6616 H   0  0  0  0  0  0  0  0  0  0  0  0
    4.4215    3.4140   -0.5676 H   0  0  0  0  0  0  0  0  0  0  0  0
    5.9244    1.5320    0.0211 H   0  0  0  0  0  0  0  0  0  0  0  0
  1 24  1  0  0  0  0
  2 24  1  0  0  0  0
  3 24  1  0  0  0  0
  4 18  1  0  0  0  0
  4 24  1  0  0  0  0
  5 16  2  0  0  0  0
  6  9  1  0  0  0  0
  7  9  2  0  0  0  0
  8 14  1  0  0  0  0
  8 16  1  0  0  0  0
  8 28  1  0  0  0  0
  9 12  1  0  0  0  0
 10 13  2  0  0  0  0
 10 15  1  0  0  0  0
 10 16  1  0  0  0  0
 11 12  2  0  0  0  0
 11 17  1  0  0  0  0
 11 19  1  0  0  0  0
 12 13  1  0  0  0  0
 13 25  1  0  0  0  0
 14 18  1  0  0  0  0
 14 20  2  0  0  0  0
 15 17  2  0  0  0  0
 15 26  1  0  0  0  0
 17 27  1  0  0  0  0
 18 21  2  0  0  0  0
 19 29  1  0  0  0  0
 19 30  1  0  0  0  0
 19 31  1  0  0  0  0
 20 22  1  0  0  0  0
 20 32  1  0  0  0  0
 21 23  1  0  0  0  0
 21 33  1  0  0  0  0
 22 23  2  0  0  0  0
 22 34  1  0  0  0  0
 23 35  1  0  0  0  0
M  CHG  2   6  -1   9   1
M  END
> <PUBCHEM_COMPOUND_CID>
17396372

> <PUBCHEM_CONFORMER_RMSD>
0.8

> <PUBCHEM_CONFORMER_DIVERSEORDER>
4
23
19
31
15
7
37
34
12
17
32
21
6
29
10
11
24
28
18
30
27
2
35
25
13
1
22
14
16
5
36
3
33
8
20
9
26

> <PUBCHEM_MMFF94_PARTIAL_CHARGES>
32
1 -0.34
10 0.09
11 -0.14
12 0.13
13 -0.15
14 0.12
15 -0.15
16 0.54
17 -0.15
18 0.08
19 0.14
2 -0.34
20 -0.15
21 -0.15
22 -0.15
23 -0.15
24 1.3
25 0.15
26 0.15
27 0.15
28 0.37
3 -0.34
32 0.15
33 0.15
34 0.15
35 0.15
4 -0.36
5 -0.57
6 -0.52
7 -0.52
8 -0.55
9 0.91

> <PUBCHEM_EFFECTIVE_ROTOR_COUNT>
6

> <PUBCHEM_PHARMACOPHORE_FEATURES>
8
1 4 acceptor
1 5 acceptor
1 6 acceptor
1 6 anion
1 7 acceptor
1 8 donor
6 10 11 12 13 15 17 rings
6 14 18 20 21 22 23 rings

> <PUBCHEM_HEAVY_ATOM_COUNT>
24

> <PUBCHEM_ATOM_DEF_STEREO_COUNT>
0

> <PUBCHEM_ATOM_UDEF_STEREO_COUNT>
0

> <PUBCHEM_BOND_DEF_STEREO_COUNT>
0

> <PUBCHEM_BOND_UDEF_STEREO_COUNT>
0

> <PUBCHEM_ISOTOPIC_ATOM_COUNT>
0

> <PUBCHEM_COMPONENT_COUNT>
1

> <PUBCHEM_CACTVS_TAUTO_COUNT>
2

> <PUBCHEM_CONFORMER_ID>
0109729400000004

> <PUBCHEM_MMFF94_ENERGY>
84.0428

> <PUBCHEM_FEATURE_SELFOVERLAP>
40.675

> <PUBCHEM_SHAPE_FINGERPRINT>
10074138 170 16748504672577839760
10616163 171 18409448046748327335
11513181 2 18113052727198232238
11552529 35 18040437655469243121
12107183 9 17831574645526537377
12596599 1 17969771054982761882
12596602 18 16950843587804432161
12633257 1 18047186629169602235
12788726 201 17241318209334319369
12839892 36 18339098020623526880
13167823 11 18410011022455981537
13533116 47 18333454257487293977
13551218 46 18409725193162758395
13583140 156 17895489058738436665
13631057 29 18189898604412217329
14617045 38 18410003321821875137
14790565 3 18123746457505624036
14863182 85 18343012281965915060
15196674 1 18411700945952165258
15250474 111 18335994081612439759
17492 89 18339642364156278811
1813 80 17417804071777250757
18681886 176 18340488842936067592
20281475 54 18408611369902501481
20645477 70 18343586269452608352
21054139 6 18265338318013702900
21197605 99 18195801873594063595
21267235 1 18412536613454965409
21421861 104 18128822017763493504
21673915 165 18410013212836145720
221490 88 18412538847338885466
23559900 14 18337397161697372152
239999 70 18187355533286800820
33824 294 18411981369242364464
338550 245 18412259519813927686
3421961 26 18266742570461144234
4214541 1 18410856564299448889
4280585 95 17975970188146767646
4409770 3 4795310959090024069
445580 102 17840013049256080131
463206 1 17831868941223544207
5104073 3 18264205979581982833
5309563 4 17762895464516924187
6433294 58 18338515373375592294
6823239 73 18041829748959436510
9709674 26 18341890805194684394

> <PUBCHEM_SHAPE_MULTIPOLES>
438.65
11.38
3.73
0.8
4.11
2.05
-0.1
1.13
0.74
-1.79
-0.29
0.1
0.26
-0.61

> <PUBCHEM_SHAPE_SELFOVERLAP>
946.257

> <PUBCHEM_SHAPE_VOLUME>
241.1

> <PUBCHEM_COORDINATE_TYPE>
2
5
10

$$$$

