23724692
  -OEChem-07051213082D

106105  0     0  0  0  0  0  0999 V2000
    2.8660    0.7500    0.0000 O   0  0  0  0  0  0  0  0  0  0  0  0
   29.7128   -0.7500    0.0000 O   0  0  0  0  0  0  0  0  0  0  0  0
    6.3301   -1.2500    0.0000 O   0  0  0  0  0  0  0  0  0  0  0  0
   26.2487    1.2500    0.0000 O   0  0  0  0  0  0  0  0  0  0  0  0
    3.7320    0.2500    0.0000 C   0  0  0  0  0  0  0  0  0  0  0  0
   28.8468   -0.2500    0.0000 C   0  0  0  0  0  0  0  0  0  0  0  0
    4.5981   -0.2500    0.0000 C   0  0  0  0  0  0  0  0  0  0  0  0
   27.9808    0.2500    0.0000 C   0  0  0  0  0  0  0  0  0  0  0  0
   27.1147   -0.2500    0.0000 C   0  0  0  0  0  0  0  0  0  0  0  0
    5.4641    0.2500    0.0000 C   0  0  0  0  0  0  0  0  0  0  0  0
    3.2320   -0.6160    0.0000 C   0  0  0  0  0  0  0  0  0  0  0  0
   29.3468    0.6160    0.0000 C   0  0  0  0  0  0  0  0  0  0  0  0
    4.2320    1.1160    0.0000 C   0  0  0  0  0  0  0  0  0  0  0  0
   28.3468   -1.1160    0.0000 C   0  0  0  0  0  0  0  0  0  0  0  0
   26.2487    0.2500    0.0000 C   0  0  0  0  0  0  0  0  0  0  0  0
    6.3301   -0.2500    0.0000 C   0  0  0  0  0  0  0  0  0  0  0  0
    2.0000    0.2500    0.0000 C   0  0  0  0  0  0  0  0  0  0  0  0
   30.5788   -0.2500    0.0000 C   0  0  0  0  0  0  0  0  0  0  0  0
   25.3827   -0.2500    0.0000 C   0  0  0  0  0  0  0  0  0  0  0  0
    7.1962    0.2500    0.0000 C   0  0  0  0  0  0  0  0  0  0  0  0
    7.1962    1.2500    0.0000 C   0  0  0  0  0  0  0  0  0  0  0  0
   25.3827   -1.2500    0.0000 C   0  0  0  0  0  0  0  0  0  0  0  0
    8.0622   -0.2500    0.0000 C   0  0  0  0  0  0  0  0  0  0  0  0
   24.5167    0.2500    0.0000 C   0  0  0  0  0  0  0  0  0  0  0  0
   23.6506   -0.2500    0.0000 C   0  0  0  0  0  0  0  0  0  0  0  0
    8.9282    0.2500    0.0000 C   0  0  0  0  0  0  0  0  0  0  0  0
    9.7942   -0.2500    0.0000 C   0  0  0  0  0  0  0  0  0  0  0  0
   22.7846    0.2500    0.0000 C   0  0  0  0  0  0  0  0  0  0  0  0
   21.9186   -0.2500    0.0000 C   0  0  0  0  0  0  0  0  0  0  0  0
   10.6603    0.2500    0.0000 C   0  0  0  0  0  0  0  0  0  0  0  0
   21.9186   -1.2500    0.0000 C   0  0  0  0  0  0  0  0  0  0  0  0
   10.6603    1.2500    0.0000 C   0  0  0  0  0  0  0  0  0  0  0  0
   11.5263   -0.2500    0.0000 C   0  0  0  0  0  0  0  0  0  0  0  0
   21.0526    0.2500    0.0000 C   0  0  0  0  0  0  0  0  0  0  0  0
   20.1865   -0.2500    0.0000 C   0  0  0  0  0  0  0  0  0  0  0  0
   12.3923    0.2500    0.0000 C   0  0  0  0  0  0  0  0  0  0  0  0
   13.2583   -0.2500    0.0000 C   0  0  0  0  0  0  0  0  0  0  0  0
   19.3205    0.2500    0.0000 C   0  0  0  0  0  0  0  0  0  0  0  0
   14.1244    0.2500    0.0000 C   0  0  0  0  0  0  0  0  0  0  0  0
   18.4545   -0.2500    0.0000 C   0  0  0  0  0  0  0  0  0  0  0  0
   17.5885    0.2500    0.0000 C   0  0  0  0  0  0  0  0  0  0  0  0
   14.9904   -0.2500    0.0000 C   0  0  0  0  0  0  0  0  0  0  0  0
   18.4545   -1.2500    0.0000 C   0  0  0  0  0  0  0  0  0  0  0  0
   14.1244    1.2500    0.0000 C   0  0  0  0  0  0  0  0  0  0  0  0
   15.8564    0.2500    0.0000 C   0  0  0  0  0  0  0  0  0  0  0  0
   16.7224   -0.2500    0.0000 C   0  0  0  0  0  0  0  0  0  0  0  0
    4.1996   -0.7249    0.0000 H   0  0  0  0  0  0  0  0  0  0  0  0
    4.9966   -0.7249    0.0000 H   0  0  0  0  0  0  0  0  0  0  0  0
   28.3793    0.7249    0.0000 H   0  0  0  0  0  0  0  0  0  0  0  0
   27.5822    0.7249    0.0000 H   0  0  0  0  0  0  0  0  0  0  0  0
   26.7162   -0.7249    0.0000 H   0  0  0  0  0  0  0  0  0  0  0  0
   27.5133   -0.7249    0.0000 H   0  0  0  0  0  0  0  0  0  0  0  0
    5.8626    0.7249    0.0000 H   0  0  0  0  0  0  0  0  0  0  0  0
    5.0656    0.7249    0.0000 H   0  0  0  0  0  0  0  0  0  0  0  0
   29.8837    0.3060    0.0000 H   0  0  0  0  0  0  0  0  0  0  0  0
   29.6568    1.1530    0.0000 H   0  0  0  0  0  0  0  0  0  0  0  0
    4.7690    0.8060    0.0000 H   0  0  0  0  0  0  0  0  0  0  0  0
    4.5420    1.6530    0.0000 H   0  0  0  0  0  0  0  0  0  0  0  0
    3.6951    1.4260    0.0000 H   0  0  0  0  0  0  0  0  0  0  0  0
   27.8099   -0.8060    0.0000 H   0  0  0  0  0  0  0  0  0  0  0  0
   28.0368   -1.6530    0.0000 H   0  0  0  0  0  0  0  0  0  0  0  0
   28.8837   -1.4260    0.0000 H   0  0  0  0  0  0  0  0  0  0  0  0
    2.6951   -0.3060    0.0000 H   0  0  0  0  0  0  0  0  0  0  0  0
    2.9220   -1.1530    0.0000 H   0  0  0  0  0  0  0  0  0  0  0  0
    3.7690   -0.9260    0.0000 H   0  0  0  0  0  0  0  0  0  0  0  0
   28.8099    0.9260    0.0000 H   0  0  0  0  0  0  0  0  0  0  0  0
   30.8888   -0.7869    0.0000 H   0  0  0  0  0  0  0  0  0  0  0  0
   31.1158    0.0600    0.0000 H   0  0  0  0  0  0  0  0  0  0  0  0
   30.2688    0.2869    0.0000 H   0  0  0  0  0  0  0  0  0  0  0  0
    1.6900    0.7869    0.0000 H   0  0  0  0  0  0  0  0  0  0  0  0
    1.4631   -0.0600    0.0000 H   0  0  0  0  0  0  0  0  0  0  0  0
    2.3100   -0.2869    0.0000 H   0  0  0  0  0  0  0  0  0  0  0  0
   24.7627   -1.2500    0.0000 H   0  0  0  0  0  0  0  0  0  0  0  0
   25.3827   -1.8700    0.0000 H   0  0  0  0  0  0  0  0  0  0  0  0
   26.0027   -1.2500    0.0000 H   0  0  0  0  0  0  0  0  0  0  0  0
    7.8162    1.2500    0.0000 H   0  0  0  0  0  0  0  0  0  0  0  0
    7.1962    1.8700    0.0000 H   0  0  0  0  0  0  0  0  0  0  0  0
    6.5762    1.2500    0.0000 H   0  0  0  0  0  0  0  0  0  0  0  0
    8.0622   -0.8700    0.0000 H   0  0  0  0  0  0  0  0  0  0  0  0
   24.5167    0.8700    0.0000 H   0  0  0  0  0  0  0  0  0  0  0  0
   23.6506   -0.8700    0.0000 H   0  0  0  0  0  0  0  0  0  0  0  0
    8.9282    0.8700    0.0000 H   0  0  0  0  0  0  0  0  0  0  0  0
   22.7846    0.8700    0.0000 H   0  0  0  0  0  0  0  0  0  0  0  0
    9.7942   -0.8700    0.0000 H   0  0  0  0  0  0  0  0  0  0  0  0
   21.2986   -1.2500    0.0000 H   0  0  0  0  0  0  0  0  0  0  0  0
   21.9186   -1.8700    0.0000 H   0  0  0  0  0  0  0  0  0  0  0  0
   22.5386   -1.2500    0.0000 H   0  0  0  0  0  0  0  0  0  0  0  0
   11.2803    1.2500    0.0000 H   0  0  0  0  0  0  0  0  0  0  0  0
   10.6603    1.8700    0.0000 H   0  0  0  0  0  0  0  0  0  0  0  0
   10.0403    1.2500    0.0000 H   0  0  0  0  0  0  0  0  0  0  0  0
   21.0526    0.8700    0.0000 H   0  0  0  0  0  0  0  0  0  0  0  0
   11.5263   -0.8700    0.0000 H   0  0  0  0  0  0  0  0  0  0  0  0
   20.1865   -0.8700    0.0000 H   0  0  0  0  0  0  0  0  0  0  0  0
   12.3923    0.8700    0.0000 H   0  0  0  0  0  0  0  0  0  0  0  0
   19.3205    0.8700    0.0000 H   0  0  0  0  0  0  0  0  0  0  0  0
   13.2583   -0.8700    0.0000 H   0  0  0  0  0  0  0  0  0  0  0  0
   14.9904   -0.8700    0.0000 H   0  0  0  0  0  0  0  0  0  0  0  0
   17.5885    0.8700    0.0000 H   0  0  0  0  0  0  0  0  0  0  0  0
   17.8345   -1.2500    0.0000 H   0  0  0  0  0  0  0  0  0  0  0  0
   14.7444    1.2500    0.0000 H   0  0  0  0  0  0  0  0  0  0  0  0
   18.4545   -1.8700    0.0000 H   0  0  0  0  0  0  0  0  0  0  0  0
   19.0745   -1.2500    0.0000 H   0  0  0  0  0  0  0  0  0  0  0  0
   14.1244    1.8700    0.0000 H   0  0  0  0  0  0  0  0  0  0  0  0
   13.5044    1.2500    0.0000 H   0  0  0  0  0  0  0  0  0  0  0  0
   15.8564    0.8700    0.0000 H   0  0  0  0  0  0  0  0  0  0  0  0
   16.7224   -0.8700    0.0000 H   0  0  0  0  0  0  0  0  0  0  0  0
  1  5  1  0  0  0  0
  1 17  1  0  0  0  0
  2  6  1  0  0  0  0
  2 18  1  0  0  0  0
  3 16  2  0  0  0  0
  4 15  2  0  0  0  0
  5  7  1  0  0  0  0
  5 11  1  0  0  0  0
  5 13  1  0  0  0  0
  6  8  1  0  0  0  0
  6 12  1  0  0  0  0
  6 14  1  0  0  0  0
  7 10  1  0  0  0  0
  7 47  1  0  0  0  0
  7 48  1  0  0  0  0
  8  9  1  0  0  0  0
  8 49  1  0  0  0  0
  8 50  1  0  0  0  0
  9 15  1  0  0  0  0
  9 51  1  0  0  0  0
  9 52  1  0  0  0  0
 10 16  1  0  0  0  0
 10 53  1  0  0  0  0
 10 54  1  0  0  0  0
 11 63  1  0  0  0  0
 11 64  1  0  0  0  0
 11 65  1  0  0  0  0
 12 55  1  0  0  0  0
 12 56  1  0  0  0  0
 12 66  1  0  0  0  0
 13 57  1  0  0  0  0
 13 58  1  0  0  0  0
 13 59  1  0  0  0  0
 14 60  1  0  0  0  0
 14 61  1  0  0  0  0
 14 62  1  0  0  0  0
 15 19  1  0  0  0  0
 16 20  1  0  0  0  0
 17 70  1  0  0  0  0
 17 71  1  0  0  0  0
 17 72  1  0  0  0  0
 18 67  1  0  0  0  0
 18 68  1  0  0  0  0
 18 69  1  0  0  0  0
 19 22  1  0  0  0  0
 19 24  2  0  0  0  0
 20 21  1  0  0  0  0
 20 23  2  0  0  0  0
 21 76  1  0  0  0  0
 21 77  1  0  0  0  0
 21 78  1  0  0  0  0
 22 73  1  0  0  0  0
 22 74  1  0  0  0  0
 22 75  1  0  0  0  0
 23 26  1  0  0  0  0
 23 79  1  0  0  0  0
 24 25  1  0  0  0  0
 24 80  1  0  0  0  0
 25 28  2  0  0  0  0
 25 81  1  0  0  0  0
 26 27  2  0  0  0  0
 26 82  1  0  0  0  0
 27 30  1  0  0  0  0
 27 84  1  0  0  0  0
 28 29  1  0  0  0  0
 28 83  1  0  0  0  0
 29 31  1  0  0  0  0
 29 34  2  0  0  0  0
 30 32  1  0  0  0  0
 30 33  2  0  0  0  0
 31 85  1  0  0  0  0
 31 86  1  0  0  0  0
 31 87  1  0  0  0  0
 32 88  1  0  0  0  0
 32 89  1  0  0  0  0
 32 90  1  0  0  0  0
 33 36  1  0  0  0  0
 33 92  1  0  0  0  0
 34 35  1  0  0  0  0
 34 91  1  0  0  0  0
 35 38  2  0  0  0  0
 35 93  1  0  0  0  0
 36 37  2  0  0  0  0
 36 94  1  0  0  0  0
 37 39  1  0  0  0  0
 37 96  1  0  0  0  0
 38 40  1  0  0  0  0
 38 95  1  0  0  0  0
 39 42  2  0  0  0  0
 39 44  1  0  0  0  0
 40 41  2  0  0  0  0
 40 43  1  0  0  0  0
 41 46  1  0  0  0  0
 41 98  1  0  0  0  0
 42 45  1  0  0  0  0
 42 97  1  0  0  0  0
 43 99  1  0  0  0  0
 43101  1  0  0  0  0
 43102  1  0  0  0  0
 44100  1  0  0  0  0
 44103  1  0  0  0  0
 44104  1  0  0  0  0
 45 46  2  0  0  0  0
 45105  1  0  0  0  0
 46106  1  0  0  0  0
M  END
> <PUBCHEM_COMPOUND_CID>
23724692

> <PUBCHEM_COMPOUND_CANONICALIZED>
1

> <PUBCHEM_CACTVS_COMPLEXITY>
1220

> <PUBCHEM_CACTVS_HBOND_ACCEPTOR>
4

> <PUBCHEM_CACTVS_HBOND_DONOR>
0

> <PUBCHEM_CACTVS_ROTATABLE_BOND>
20

> <PUBCHEM_CACTVS_SUBSKEYS>
AAADcfB8OAAAAAAAAAAAAAAAAAAAAAAAAAAAAAAAAAAAAAAAAAAAGgAAAAAADESAgAICAAAABACIAqBSAAAAAAAgAAAICAEAAEgIABIAAQAAAAAEgAAIgYOKwEAMAAAAAAAAAAAAAAAAAAAAAAAAAAAAAA==

> <PUBCHEM_IUPAC_OPENEYE_NAME>
(6E,8E,10E,12E,14E,16E,18E,20E,22E,24E,26E)-2,31-dimethoxy-2,6,10,14,19,23,27,31-octamethyl-dotriaconta-6,8,10,12,14,16,18,20,22,24,26-undecaene-5,28-dione

> <PUBCHEM_IUPAC_CAS_NAME>
(6E,8E,10E,12E,14E,16E,18E,20E,22E,24E,26E)-2,31-dimethoxy-2,6,10,14,19,23,27,31-octamethyldotriaconta-6,8,10,12,14,16,18,20,22,24,26-undecaene-5,28-dione

> <PUBCHEM_IUPAC_NAME>
(6E,8E,10E,12E,14E,16E,18E,20E,22E,24E,26E)-2,31-dimethoxy-2,6,10,14,19,23,27,31-octamethyldotriaconta-6,8,10,12,14,16,18,20,22,24,26-undecaene-5,28-dione

> <PUBCHEM_IUPAC_SYSTEMATIC_NAME>
(6E,8E,10E,12E,14E,16E,18E,20E,22E,24E,26E)-2,31-dimethoxy-2,6,10,14,19,23,27,31-octamethyl-dotriaconta-6,8,10,12,14,16,18,20,22,24,26-undecaene-5,28-dione

> <PUBCHEM_IUPAC_TRADITIONAL_NAME>
(6E,8E,10E,12E,14E,16E,18E,20E,22E,24E,26E)-2,31-dimethoxy-2,6,10,14,19,23,27,31-octamethyl-dotriaconta-6,8,10,12,14,16,18,20,22,24,26-undecaene-5,28-dione

> <PUBCHEM_IUPAC_INCHI>
InChI=1S/C42H60O4/c1-33(21-15-23-35(3)25-17-27-37(5)39(43)29-31-41(7,8)45-11)19-13-14-20-34(2)22-16-24-36(4)26-18-28-38(6)40(44)30-32-42(9,10)46-12/h13-28H,29-32H2,1-12H3/b14-13+,21-15+,22-16+,25-17+,26-18+,33-19+,34-20+,35-23+,36-24+,37-27+,38-28+

> <PUBCHEM_IUPAC_INCHIKEY>
YYCQFETXOGJFMD-IDPZBRFSSA-N

> <PUBCHEM_XLOGP3_AA>
11.1

> <PUBCHEM_EXACT_MASS>
628.44916

> <PUBCHEM_MOLECULAR_FORMULA>
C42H60O4

> <PUBCHEM_MOLECULAR_WEIGHT>
628.9234

> <PUBCHEM_OPENEYE_CAN_SMILES>
CC(=CC=CC=C(C)C=CC=C(C)C=CC=C(C)C(=O)CCC(C)(C)OC)C=CC=C(C)C=CC=C(C)C(=O)CCC(C)(C)OC

> <PUBCHEM_OPENEYE_ISO_SMILES>
C/C(=C\C=C\C=C(\C=C\C=C(\C=C\C=C(\C(=O)CCC(OC)(C)C)/C)/C)/C)/C=C/C=C(/C=C/C=C(/C(=O)CCC(OC)(C)C)\C)\C

> <PUBCHEM_CACTVS_TPSA>
52.6

> <PUBCHEM_MONOISOTOPIC_WEIGHT>
628.44916

> <PUBCHEM_TOTAL_CHARGE>
0

> <PUBCHEM_HEAVY_ATOM_COUNT>
46

> <PUBCHEM_ATOM_DEF_STEREO_COUNT>
0

> <PUBCHEM_ATOM_UDEF_STEREO_COUNT>
0

> <PUBCHEM_BOND_DEF_STEREO_COUNT>
11

> <PUBCHEM_BOND_UDEF_STEREO_COUNT>
0

> <PUBCHEM_ISOTOPIC_ATOM_COUNT>
0

> <PUBCHEM_COMPONENT_COUNT>
1

> <PUBCHEM_CACTVS_TAUTO_COUNT>
3

> <PUBCHEM_COORDINATE_TYPE>
1
5
255

$$$$

