123658
  -OEChem-07051212453D

 30 29  0     1  0  0  0  0  0999 V2000
    3.6422    1.4686    0.1025 P   0  0  0  0  0  0  0  0  0  0  0  0
   -3.9590    1.1162   -0.0882 P   0  0  0  0  0  0  0  0  0  0  0  0
    1.9777   -2.0575   -1.6776 O   0  0  0  0  0  0  0  0  0  0  0  0
    2.6941    0.4451   -0.7122 O   0  0  0  0  0  0  0  0  0  0  0  0
    0.7568   -3.0253    0.6911 O   0  0  0  0  0  0  0  0  0  0  0  0
   -2.8742    0.1157    0.5825 O   0  0  0  0  0  0  0  0  0  0  0  0
   -1.1103   -1.4916    1.7823 O   0  0  0  0  0  0  0  0  0  0  0  0
    4.4074    0.5215    1.1668 O   0  0  0  0  0  0  0  0  0  0  0  0
    2.5846    2.2789    1.0190 O   0  0  0  0  0  0  0  0  0  0  0  0
    4.5319    2.3270   -0.7482 O   0  0  0  0  0  0  0  0  0  0  0  0
   -4.6484    0.2157   -1.2411 O   0  0  0  0  0  0  0  0  0  0  0  0
   -3.0357    2.1476   -0.9242 O   0  0  0  0  0  0  0  0  0  0  0  0
   -4.9100    1.7578    0.8794 O   0  0  0  0  0  0  0  0  0  0  0  0
    1.0320   -1.2738   -0.9450 C   0  0  1  0  0  0  0  0  0  0  0  0
    0.0469   -2.1940   -0.2156 C   0  0  2  0  0  0  0  0  0  0  0  0
    1.8220   -0.4021    0.0295 C   0  0  0  0  0  0  0  0  0  0  0  0
   -1.0180   -1.4186    0.5565 C   0  0  0  0  0  0  0  0  0  0  0  0
   -1.9401   -0.5312   -0.2576 C   0  0  0  0  0  0  0  0  0  0  0  0
    0.5157   -0.6458   -1.6784 H   0  0  0  0  0  0  0  0  0  0  0  0
   -0.4510   -2.8547   -0.9339 H   0  0  0  0  0  0  0  0  0  0  0  0
    1.1515    0.2169    0.6323 H   0  0  0  0  0  0  0  0  0  0  0  0
    2.4336   -1.0228    0.6921 H   0  0  0  0  0  0  0  0  0  0  0  0
   -1.3435    0.2253   -0.7716 H   0  0  0  0  0  0  0  0  0  0  0  0
   -2.4662   -1.1574   -0.9835 H   0  0  0  0  0  0  0  0  0  0  0  0
    2.5879   -1.4416   -2.1185 H   0  0  0  0  0  0  0  0  0  0  0  0
    0.1263   -3.6736    1.0489 H   0  0  0  0  0  0  0  0  0  0  0  0
    5.0948    0.9161    1.7447 H   0  0  0  0  0  0  0  0  0  0  0  0
    2.9031    3.0374    1.5533 H   0  0  0  0  0  0  0  0  0  0  0  0
   -5.4016    0.5882   -1.7472 H   0  0  0  0  0  0  0  0  0  0  0  0
   -3.4587    2.9200   -1.3563 H   0  0  0  0  0  0  0  0  0  0  0  0
  1  4  1  0  0  0  0
  1  8  1  0  0  0  0
  1  9  1  0  0  0  0
  1 10  2  0  0  0  0
  2  6  1  0  0  0  0
  2 11  1  0  0  0  0
  2 12  1  0  0  0  0
  2 13  2  0  0  0  0
  3 14  1  0  0  0  0
  3 25  1  0  0  0  0
  4 16  1  0  0  0  0
  5 15  1  0  0  0  0
  5 26  1  0  0  0  0
  6 18  1  0  0  0  0
  7 17  2  0  0  0  0
  8 27  1  0  0  0  0
  9 28  1  0  0  0  0
 11 29  1  0  0  0  0
 12 30  1  0  0  0  0
 14 15  1  0  0  0  0
 14 16  1  0  0  0  0
 14 19  1  0  0  0  0
 15 17  1  0  0  0  0
 15 20  1  0  0  0  0
 16 21  1  0  0  0  0
 16 22  1  0  0  0  0
 17 18  1  0  0  0  0
 18 23  1  0  0  0  0
 18 24  1  0  0  0  0
M  END
> <PUBCHEM_COMPOUND_CID>
123658

> <PUBCHEM_CONFORMER_RMSD>
0.8

> <PUBCHEM_CONFORMER_DIVERSEORDER>
1
8
204
362
326
352
52
153
17
407
199
143
249
309
372
45
298
225
53
376
191
359
46
81
209
16
234
24
92
432
194
288
388
48
146
353
280
11
341
113
217
100
395
205
344
6
230
336
291
62
162
369
220
163
110
120
12
187
386
7
286
181
335
30
252
78
176
307
294
207
152
436
197
262
339
164
416
231
251
20
90
319
334
239
3
82
423
106
383
253
332
71
263
310
108
26
27
285
271
131
435
316
57
232
97
237
198
409
318
173
229
83
244
243
35
394
166
284
414
292
331
422
19
21
312
182
18
398
141
429
254
33
122
289
73
373
4
5
433
246
13
218
180
290
156
300
368
357
64
10
84
55
9
426
260
94
411
159
67
410
275
233
222
349
276
117
301
34
425
2
170
387
268
391
40
107
277
367
206
438
405
25
42
86
68
160
240
248
355
60
293
399
265
101
148
257
374
142
264
420
281
412
15
192
236
75
215
59
330
235
158
303
98
188
389
371
157
51
161
63
282
65
434
406
58
213
47
385
54
119
408
431
273
61
403
415
296
171
37
400
321
397
419
74
36
165
361
177
287
302
23
80
424
174
356
76
183
328
130
261
49
327
137
348
274
266
390
175
226
202
151
77
116
125
104
124
111
384
272
350
150
317
315
196
322
250
320
185
311
223
306
32
115
269
279
190
227
345
377
224
278
154
140
402
360
132
325
144
172
238
22
364
109
31
365
127
123
214
208
184
128
38
308
105
129
404
72
337
338
178
44
381
39
211
347
147
295
242
358
270
245
396
195
145
168
29
370
212
200
99
201
88
418
221
91
380
14
149
267
283
241
96
333
421
346
135
366
56
126
340
413
393
41
363
354
169
297
155
133
256
66
138
70
186
50
103
28
139
343
392
259
95
437
382
43
219
323
167
228
417
134
427
121
193
299
203
247
93
258
401
329
342
314
255
87
89
136
112
85
304
324
305
114
428
189
313
69
210
216
378
379
351
179
79
102
375
118
430

> <PUBCHEM_MMFF94_PARTIAL_CHARGES>
24
1 1.51
10 -0.7
11 -0.77
12 -0.77
13 -0.7
14 0.28
15 0.34
16 0.28
17 0.45
18 0.34
2 1.51
25 0.4
26 0.4
27 0.5
28 0.5
29 0.5
3 -0.68
30 0.5
4 -0.55
5 -0.68
6 -0.55
7 -0.57
8 -0.77
9 -0.77

> <PUBCHEM_EFFECTIVE_ROTOR_COUNT>
8

> <PUBCHEM_PHARMACOPHORE_FEATURES>
13
1 10 acceptor
1 11 acceptor
1 12 acceptor
1 13 acceptor
1 3 acceptor
1 3 donor
1 5 acceptor
1 5 donor
1 7 acceptor
1 8 acceptor
1 9 acceptor
4 1 8 9 10 anion
4 2 11 12 13 anion

> <PUBCHEM_HEAVY_ATOM_COUNT>
18

> <PUBCHEM_ATOM_DEF_STEREO_COUNT>
2

> <PUBCHEM_ATOM_UDEF_STEREO_COUNT>
0

> <PUBCHEM_BOND_DEF_STEREO_COUNT>
0

> <PUBCHEM_BOND_UDEF_STEREO_COUNT>
0

> <PUBCHEM_ISOTOPIC_ATOM_COUNT>
0

> <PUBCHEM_COMPONENT_COUNT>
1

> <PUBCHEM_CACTVS_TAUTO_COUNT>
4

> <PUBCHEM_CONFORMER_ID>
0001E30A00000001

> <PUBCHEM_MMFF94_ENERGY>
-41.9954

> <PUBCHEM_FEATURE_SELFOVERLAP>
66.055

> <PUBCHEM_SHAPE_FINGERPRINT>
11715629 250 18270400628509116407
12006461 19 9439398034488089543
12077114 3 18340485543841190002
122479 349 18341048523659026154
12596602 18 15267052640575029060
12633257 1 17631472128080083834
13103583 49 12463295851226601029
13134695 92 17623301871506590239
14123255 352 18272091565111881173
14251732 17 18411423925415748802
14251764 30 12966857896229916992
14251764 38 18340490078921083196
14957384 54 18265620871154032712
15061688 2 18187650176279689346
17834072 32 18339356345305090148
18186145 218 18269265936730638527
19752476 56 18042962254051284777
21401589 2 18341889645865024033
21524375 3 18336272262254145870
23590187 32 18339919299511014476
25 1 18260263044905894312
328317 168 18409735040984749925
43658 37 18334577940779360171
474 4 18411420626606636673
84936 182 18337111284104603771

> <PUBCHEM_SHAPE_MULTIPOLES>
313.57
9.18
3.03
1.28
2.99
0.48
0.04
-8.97
-0.26
-1.22
0.08
-0.04
0.28
0.53

> <PUBCHEM_SHAPE_SELFOVERLAP>
581.506

> <PUBCHEM_SHAPE_VOLUME>
196.9

> <PUBCHEM_COORDINATE_TYPE>
2
5
10

$$$$

