6400629
  -OEChem-07051212462D

 12 11  0     0  0  0  0  0  0999 V2000
    5.1350   -0.4050    0.0000 O   0  0  0  0  0  0  0  0  0  0  0  0
    4.2690    1.0950    0.0000 O   0  0  0  0  0  0  0  0  0  0  0  0
    2.5369    1.0950    0.0000 O   0  0  0  0  0  0  0  0  0  0  0  0
    2.5369    0.0950    0.0000 N   0  0  0  0  0  0  0  0  0  0  0  0
    3.4030   -0.4050    0.0000 C   0  0  0  0  0  0  0  0  0  0  0  0
    3.4030   -1.4050    0.0000 C   0  0  0  0  0  0  0  0  0  0  0  0
    4.2690    0.0950    0.0000 C   0  0  0  0  0  0  0  0  0  0  0  0
    2.7830   -1.4050    0.0000 H   0  0  0  0  0  0  0  0  0  0  0  0
    3.4030   -2.0250    0.0000 H   0  0  0  0  0  0  0  0  0  0  0  0
    4.0230   -1.4050    0.0000 H   0  0  0  0  0  0  0  0  0  0  0  0
    5.6720   -0.0950    0.0000 H   0  0  0  0  0  0  0  0  0  0  0  0
    2.0000    1.4050    0.0000 H   0  0  0  0  0  0  0  0  0  0  0  0
  1  7  1  0  0  0  0
  1 11  1  0  0  0  0
  2  7  2  0  0  0  0
  3  4  1  0  0  0  0
  3 12  1  0  0  0  0
  4  5  2  0  0  0  0
  5  6  1  0  0  0  0
  5  7  1  0  0  0  0
  6  8  1  0  0  0  0
  6  9  1  0  0  0  0
  6 10  1  0  0  0  0
M  END
> <PUBCHEM_COMPOUND_CID>
6400629

> <PUBCHEM_COMPOUND_CANONICALIZED>
1

> <PUBCHEM_CACTVS_COMPLEXITY>
107

> <PUBCHEM_CACTVS_HBOND_ACCEPTOR>
4

> <PUBCHEM_CACTVS_HBOND_DONOR>
2

> <PUBCHEM_CACTVS_ROTATABLE_BOND>
1

> <PUBCHEM_CACTVS_SUBSKEYS>
AAADcYBCMAAAAAAAAAAAAAAAAAAAAAAAAAAAAAAAAAAAAAAAAAAAHgAECAAACAiBgAACCAAQAgAoAQCwCAQAAAAAAAAAAAEQAAAAAAAAAAAAQAAAAAAAAAAAAAAAAAAAAAAAAAAAAAAAAAAAAAAAAAAAAA==

> <PUBCHEM_IUPAC_OPENEYE_NAME>
(2Z)-2-hydroxyiminopropanoic acid

> <PUBCHEM_IUPAC_CAS_NAME>
(2Z)-2-hydroxyiminopropanoic acid

> <PUBCHEM_IUPAC_NAME>
(2Z)-2-hydroxyiminopropanoic acid

> <PUBCHEM_IUPAC_SYSTEMATIC_NAME>
(2Z)-2-hydroxyiminopropanoic acid

> <PUBCHEM_IUPAC_TRADITIONAL_NAME>
(2Z)-2-hydroximinopropionic acid

> <PUBCHEM_IUPAC_INCHI>
InChI=1S/C3H5NO3/c1-2(4-7)3(5)6/h7H,1H3,(H,5,6)/b4-2-

> <PUBCHEM_IUPAC_INCHIKEY>
MVGBKLTYYAYYGY-RQOWECAXSA-N

> <PUBCHEM_XLOGP3_AA>
0.5

> <PUBCHEM_EXACT_MASS>
103.026943

> <PUBCHEM_MOLECULAR_FORMULA>
C3H5NO3

> <PUBCHEM_MOLECULAR_WEIGHT>
103.0767

> <PUBCHEM_OPENEYE_CAN_SMILES>
CC(=NO)C(=O)O

> <PUBCHEM_OPENEYE_ISO_SMILES>
C/C(=N/O)/C(=O)O

> <PUBCHEM_CACTVS_TPSA>
69.9

> <PUBCHEM_MONOISOTOPIC_WEIGHT>
103.026943

> <PUBCHEM_TOTAL_CHARGE>
0

> <PUBCHEM_HEAVY_ATOM_COUNT>
7

> <PUBCHEM_ATOM_DEF_STEREO_COUNT>
0

> <PUBCHEM_ATOM_UDEF_STEREO_COUNT>
0

> <PUBCHEM_BOND_DEF_STEREO_COUNT>
1

> <PUBCHEM_BOND_UDEF_STEREO_COUNT>
0

> <PUBCHEM_ISOTOPIC_ATOM_COUNT>
0

> <PUBCHEM_COMPONENT_COUNT>
1

> <PUBCHEM_CACTVS_TAUTO_COUNT>
4

> <PUBCHEM_COORDINATE_TYPE>
1
5
255

$$$$

