5215
  -OEChem-07051212543D

 27 28  0     0  0  0  0  0  0999 V2000
    0.1398    2.1322   -0.1283 S   0  0  0  0  0  0  0  0  0  0  0  0
   -0.4247    3.2677    0.5914 O   0  0  0  0  0  0  0  0  0  0  0  0
    0.6069    2.3289   -1.4952 O   0  0  0  0  0  0  0  0  0  0  0  0
    1.4133    1.4731    0.8269 N   0  0  0  0  0  0  0  0  0  0  0  0
   -3.9120   -2.2199   -0.1088 N   0  0  0  0  0  0  0  0  0  0  0  0
    1.6710   -0.8093    1.3641 N   0  0  0  0  0  0  0  0  0  0  0  0
    2.5685    0.0813   -0.6873 N   0  0  0  0  0  0  0  0  0  0  0  0
   -1.0497    0.8542   -0.1226 C   0  0  0  0  0  0  0  0  0  0  0  0
   -2.0260    0.8146    0.8730 C   0  0  0  0  0  0  0  0  0  0  0  0
   -1.0239   -0.1274   -1.1134 C   0  0  0  0  0  0  0  0  0  0  0  0
   -2.9505   -1.1878   -0.1128 C   0  0  0  0  0  0  0  0  0  0  0  0
   -2.9763   -0.2065    0.8778 C   0  0  0  0  0  0  0  0  0  0  0  0
   -1.9743   -1.1484   -1.1085 C   0  0  0  0  0  0  0  0  0  0  0  0
    1.9145    0.1704    0.4806 C   0  0  0  0  0  0  0  0  0  0  0  0
    2.1542   -2.0175    1.0076 C   0  0  0  0  0  0  0  0  0  0  0  0
    3.0241   -1.1541   -0.9808 C   0  0  0  0  0  0  0  0  0  0  0  0
    2.8452   -2.2516   -0.1636 C   0  0  0  0  0  0  0  0  0  0  0  0
   -2.0610    1.5638    1.6588 H   0  0  0  0  0  0  0  0  0  0  0  0
   -0.2730   -0.1174   -1.8983 H   0  0  0  0  0  0  0  0  0  0  0  0
    1.3068    1.6038    1.8414 H   0  0  0  0  0  0  0  0  0  0  0  0
   -3.7310   -0.2274    1.6598 H   0  0  0  0  0  0  0  0  0  0  0  0
   -1.9434   -1.9077   -1.8857 H   0  0  0  0  0  0  0  0  0  0  0  0
   -4.6190   -2.2502    0.6136 H   0  0  0  0  0  0  0  0  0  0  0  0
   -3.8924   -2.9327   -0.8259 H   0  0  0  0  0  0  0  0  0  0  0  0
    1.9637   -2.8194    1.7129 H   0  0  0  0  0  0  0  0  0  0  0  0
    3.5544   -1.2408   -1.9231 H   0  0  0  0  0  0  0  0  0  0  0  0
    3.2213   -3.2316   -0.4246 H   0  0  0  0  0  0  0  0  0  0  0  0
  1  2  2  0  0  0  0
  1  3  2  0  0  0  0
  1  4  1  0  0  0  0
  1  8  1  0  0  0  0
  4 14  1  0  0  0  0
  4 20  1  0  0  0  0
  5 11  1  0  0  0  0
  5 23  1  0  0  0  0
  5 24  1  0  0  0  0
  6 14  1  0  0  0  0
  6 15  2  0  0  0  0
  7 14  2  0  0  0  0
  7 16  1  0  0  0  0
  8  9  2  0  0  0  0
  8 10  1  0  0  0  0
  9 12  1  0  0  0  0
  9 18  1  0  0  0  0
 10 13  2  0  0  0  0
 10 19  1  0  0  0  0
 11 12  2  0  0  0  0
 11 13  1  0  0  0  0
 12 21  1  0  0  0  0
 13 22  1  0  0  0  0
 15 17  1  0  0  0  0
 15 25  1  0  0  0  0
 16 17  2  0  0  0  0
 16 26  1  0  0  0  0
 17 27  1  0  0  0  0
M  END
> <PUBCHEM_COMPOUND_CID>
5215

> <PUBCHEM_CONFORMER_RMSD>
0.6

> <PUBCHEM_CONFORMER_DIVERSEORDER>
1
7
2
6
3
10
12
8
11
9
5
4

> <PUBCHEM_MMFF94_PARTIAL_CHARGES>
27
1 1.45
10 -0.15
11 0.1
12 -0.15
13 -0.15
14 0.82
15 0.16
16 0.16
17 -0.15
18 0.15
19 0.15
2 -0.65
20 0.42
21 0.15
22 0.15
23 0.4
24 0.4
25 0.15
26 0.15
27 0.15
3 -0.65
4 -0.76
5 -0.9
6 -0.62
7 -0.62
8 -0.01
9 -0.15

> <PUBCHEM_EFFECTIVE_ROTOR_COUNT>
3

> <PUBCHEM_PHARMACOPHORE_FEATURES>
8
1 2 acceptor
1 3 acceptor
1 4 donor
1 5 cation
1 5 donor
1 6 acceptor
6 6 7 14 15 16 17 rings
6 8 9 10 11 12 13 rings

> <PUBCHEM_HEAVY_ATOM_COUNT>
17

> <PUBCHEM_ATOM_DEF_STEREO_COUNT>
0

> <PUBCHEM_ATOM_UDEF_STEREO_COUNT>
0

> <PUBCHEM_BOND_DEF_STEREO_COUNT>
0

> <PUBCHEM_BOND_UDEF_STEREO_COUNT>
0

> <PUBCHEM_ISOTOPIC_ATOM_COUNT>
0

> <PUBCHEM_COMPONENT_COUNT>
1

> <PUBCHEM_CACTVS_TAUTO_COUNT>
2

> <PUBCHEM_CONFORMER_ID>
0000145F00000001

> <PUBCHEM_MMFF94_ENERGY>
45.5226

> <PUBCHEM_FEATURE_SELFOVERLAP>
40.613

> <PUBCHEM_SHAPE_FINGERPRINT>
10618630 7 18411702131521615266
12553582 1 18410853291249259947
13533116 47 18123176911052064243
14817 1 13533142921330629348
15276787 5 15502654965798706802
15375462 189 18342164579353185435
16752209 62 17908154517978127681
16945 1 18046921385064402109
18186145 218 11023832815864578923
18522851 12 18339628048951471674
18981168 100 9294427533687232832
20291156 8 18409725170939147331
20361792 2 18341057379718086351
20442098 301 17968100785151033407
20559304 39 18044654205141550425
20645476 183 17334771371761257860
20645477 70 18052266098719395999
21731516 1 18340208586874818530
22445834 79 18188490143001911571
2255824 54 18052816940648092525
23402539 116 18272650173597015230
23728640 28 17331981910424376850
2748010 2 18264791954633206333
49207404 50 8069185647827395695
5845 1 18118153383219244028
598444 67 17322378758824434407
7364860 26 18046625612078330897
81228 2 18122646090698931385
90525 40 17693090082118132226
94968 8 18342174419128872923

> <PUBCHEM_SHAPE_MULTIPOLES>
322.04
5.32
2.97
1.26
0.64
1.39
0.08
-4.56
-0.13
0.2
0.02
-0.2
0.03
-0.43

> <PUBCHEM_SHAPE_SELFOVERLAP>
674.516

> <PUBCHEM_SHAPE_VOLUME>
181.8

> <PUBCHEM_COORDINATE_TYPE>
2
5
10

$$$$

