444941
  -OEChem-07051212493D

 43 45  0     1  0  0  0  0  0999 V2000
    5.3481    1.4641   -0.2730 P   0  0  0  0  0  0  0  0  0  0  0  0
    1.2640    0.0694    0.1520 O   0  0  0  0  0  0  0  0  0  0  0  0
    0.0812   -2.4603    1.3078 O   0  0  0  0  0  0  0  0  0  0  0  0
    2.3340   -3.3611    0.0113 O   0  0  0  0  0  0  0  0  0  0  0  0
    4.0055    0.7272    0.2502 O   0  0  0  0  0  0  0  0  0  0  0  0
    5.0581    1.7214   -1.8430 O   0  0  0  0  0  0  0  0  0  0  0  0
    6.4344    0.2663   -0.2870 O   0  0  0  0  0  0  0  0  0  0  0  0
    5.7526    2.6775    0.5122 O   0  0  0  0  0  0  0  0  0  0  0  0
   -1.0928   -0.0145    0.5153 N   0  0  0  0  0  0  0  0  0  0  0  0
   -2.2189    0.8910    2.2134 N   0  0  0  0  0  0  0  0  0  0  0  0
    0.0287   -0.5778   -0.2266 C   0  0  2  0  0  0  0  0  0  0  0  0
    0.2505   -2.0788   -0.0544 C   0  0  1  0  0  0  0  0  0  0  0  0
    1.7133   -2.1768   -0.4407 C   0  0  1  0  0  0  0  0  0  0  0  0
    2.2921   -0.9372    0.2295 C   0  0  1  0  0  0  0  0  0  0  0  0
    3.5565   -0.4281   -0.4391 C   0  0  0  0  0  0  0  0  0  0  0  0
   -2.3792    0.1621    0.0603 C   0  0  0  0  0  0  0  0  0  0  0  0
   -1.0531    0.4385    1.8093 C   0  0  0  0  0  0  0  0  0  0  0  0
   -3.0587    0.7268    1.1360 C   0  0  0  0  0  0  0  0  0  0  0  0
   -2.9830   -0.1179   -1.1660 C   0  0  0  0  0  0  0  0  0  0  0  0
   -4.3405    0.1974   -1.2859 C   0  0  0  0  0  0  0  0  0  0  0  0
   -4.4221    1.0373    0.9979 C   0  0  0  0  0  0  0  0  0  0  0  0
   -5.0492    0.7649   -0.2244 C   0  0  0  0  0  0  0  0  0  0  0  0
   -5.0215   -0.0881   -2.5863 C   0  0  0  0  0  0  0  0  0  0  0  0
   -6.5001    1.0967   -0.3687 C   0  0  0  0  0  0  0  0  0  0  0  0
   -0.1209   -0.3319   -1.2847 H   0  0  0  0  0  0  0  0  0  0  0  0
   -0.4181   -2.6884   -0.6690 H   0  0  0  0  0  0  0  0  0  0  0  0
    1.8143   -2.1178   -1.5311 H   0  0  0  0  0  0  0  0  0  0  0  0
    2.4932   -1.1069    1.2949 H   0  0  0  0  0  0  0  0  0  0  0  0
    3.3494   -0.1537   -1.4786 H   0  0  0  0  0  0  0  0  0  0  0  0
    4.3346   -1.1972   -0.4176 H   0  0  0  0  0  0  0  0  0  0  0  0
    0.2237   -3.4208    1.3589 H   0  0  0  0  0  0  0  0  0  0  0  0
   -0.1524    0.4105    2.4077 H   0  0  0  0  0  0  0  0  0  0  0  0
    2.2985   -3.3731    0.9825 H   0  0  0  0  0  0  0  0  0  0  0  0
   -2.4238   -0.5611   -1.9828 H   0  0  0  0  0  0  0  0  0  0  0  0
   -4.9658    1.4782    1.8277 H   0  0  0  0  0  0  0  0  0  0  0  0
   -5.4096    0.8347   -3.0297 H   0  0  0  0  0  0  0  0  0  0  0  0
   -4.3343   -0.5313   -3.3158 H   0  0  0  0  0  0  0  0  0  0  0  0
   -5.8420   -0.7989   -2.4446 H   0  0  0  0  0  0  0  0  0  0  0  0
   -6.6510    1.8290   -1.1685 H   0  0  0  0  0  0  0  0  0  0  0  0
   -7.0827    0.1952   -0.5838 H   0  0  0  0  0  0  0  0  0  0  0  0
   -6.9098    1.5333    0.5489 H   0  0  0  0  0  0  0  0  0  0  0  0
    5.7141    2.2251   -2.3704 H   0  0  0  0  0  0  0  0  0  0  0  0
    7.3714    0.4776   -0.4854 H   0  0  0  0  0  0  0  0  0  0  0  0
  1  5  1  0  0  0  0
  1  6  1  0  0  0  0
  1  7  1  0  0  0  0
  1  8  2  0  0  0  0
  2 11  1  0  0  0  0
  2 14  1  0  0  0  0
  3 12  1  0  0  0  0
  3 31  1  0  0  0  0
  4 13  1  0  0  0  0
  4 33  1  0  0  0  0
  5 15  1  0  0  0  0
  6 42  1  0  0  0  0
  7 43  1  0  0  0  0
  9 11  1  0  0  0  0
  9 16  1  0  0  0  0
  9 17  1  0  0  0  0
 10 17  2  0  0  0  0
 10 18  1  0  0  0  0
 11 12  1  0  0  0  0
 11 25  1  0  0  0  0
 12 13  1  0  0  0  0
 12 26  1  0  0  0  0
 13 14  1  0  0  0  0
 13 27  1  0  0  0  0
 14 15  1  0  0  0  0
 14 28  1  0  0  0  0
 15 29  1  0  0  0  0
 15 30  1  0  0  0  0
 16 18  2  0  0  0  0
 16 19  1  0  0  0  0
 17 32  1  0  0  0  0
 18 21  1  0  0  0  0
 19 20  2  0  0  0  0
 19 34  1  0  0  0  0
 20 22  1  0  0  0  0
 20 23  1  0  0  0  0
 21 22  2  0  0  0  0
 21 35  1  0  0  0  0
 22 24  1  0  0  0  0
 23 36  1  0  0  0  0
 23 37  1  0  0  0  0
 23 38  1  0  0  0  0
 24 39  1  0  0  0  0
 24 40  1  0  0  0  0
 24 41  1  0  0  0  0
M  END
> <PUBCHEM_COMPOUND_CID>
444941

> <PUBCHEM_CONFORMER_RMSD>
0.8

> <PUBCHEM_CONFORMER_DIVERSEORDER>
1
31
30
37
43
17
39
40
23
9
6
11
47
10
29
26
42
5
36
28
27
2
18
3
44
38
35
22
16
13
21
32
33
41
34
4
20
46
7
12
25
45
24
14
8
15
19

> <PUBCHEM_MMFF94_PARTIAL_CHARGES>
31
1 1.51
10 -0.57
11 0.54
12 0.28
13 0.28
14 0.28
15 0.28
16 -0.15
17 0.04
18 0.23
19 -0.15
2 -0.56
20 -0.14
21 -0.15
22 -0.14
23 0.14
24 0.14
3 -0.68
31 0.4
32 0.15
33 0.4
34 0.15
35 0.15
4 -0.68
42 0.5
43 0.5
5 -0.55
6 -0.77
7 -0.77
8 -0.7
9 0.05

> <PUBCHEM_EFFECTIVE_ROTOR_COUNT>
5

> <PUBCHEM_PHARMACOPHORE_FEATURES>
13
1 2 acceptor
1 3 acceptor
1 3 donor
1 4 acceptor
1 4 donor
1 6 acceptor
1 7 acceptor
1 8 acceptor
3 9 10 17 cation
4 1 6 7 8 anion
5 2 11 12 13 14 rings
5 9 10 16 17 18 rings
6 16 18 19 20 21 22 rings

> <PUBCHEM_HEAVY_ATOM_COUNT>
24

> <PUBCHEM_ATOM_DEF_STEREO_COUNT>
4

> <PUBCHEM_ATOM_UDEF_STEREO_COUNT>
0

> <PUBCHEM_BOND_DEF_STEREO_COUNT>
0

> <PUBCHEM_BOND_UDEF_STEREO_COUNT>
0

> <PUBCHEM_ISOTOPIC_ATOM_COUNT>
0

> <PUBCHEM_COMPONENT_COUNT>
1

> <PUBCHEM_CACTVS_TAUTO_COUNT>
1

> <PUBCHEM_CONFORMER_ID>
0006CA0D00000001

> <PUBCHEM_MMFF94_ENERGY>
24.3964

> <PUBCHEM_FEATURE_SELFOVERLAP>
66.121

> <PUBCHEM_SHAPE_FINGERPRINT>
10319926 262 15554723369871889936
10692045 39 15481844505030559296
10763959 59 17775281669356780724
11128504 68 17821445759680046972
11725454 13 17346330283868933263
12236239 1 18040998488066857165
12403259 118 17488174899272301300
12553582 1 16950864578158998399
12633257 1 14764624205429934998
12788726 201 17095520764383631339
12969540 114 18273500056823769748
13257819 101 17560809822397309606
13583140 156 17203323373654807464
13631057 29 18263651654450717423
13690498 29 17313963922340113461
14251732 14 16515689896791759669
14251757 5 17095815308661117367
14251764 18 12319730371387533638
14251764 30 5400796193956885429
14466204 15 14548745031696825061
14528608 73 18186522094424095124
14767858 380 18041006107027688565
14951699 99 15625646225350515308
15183329 4 16877933962987465156
15537594 2 17603589638681945951
15842332 3 17533207811300818547
17980427 23 16056589911878582751
18335252 98 18412539904497062675
193927 3 7348899884049478620
19784866 140 6483364300383110908
204376 136 18343577434826160858
20554085 129 17895772729260503162
21033648 29 17275102851269654190
21049683 118 18197237883641238914
21267235 1 16588314848369061909
212916 134 15410894080599323547
21403212 168 18343027718484610842
2297311 6 15430036556959874857
23559900 14 18338233873141092938
23622692 88 13039185905154959643
238078 22 17240491290933081719
25147074 1 17750509761765008074
2838139 119 18407476665718903520
2916195 48 16989129768585390933
312425 54 13614246945403725420
474 4 18408880733366466352
495365 180 17203048607148481602
543368 44 18187366515302008845
56633871 153 11887688259775176456
6034566 193 17913754047383361916
633830 44 18263629826709078290

> <PUBCHEM_SHAPE_MULTIPOLES>
446.71
14.53
2.31
1.68
6.72
1.33
0.26
-9.97
5.85
3.66
-0.32
-1.89
-0.29
-1.24

> <PUBCHEM_SHAPE_SELFOVERLAP>
943.478

> <PUBCHEM_SHAPE_VOLUME>
254.5

> <PUBCHEM_COORDINATE_TYPE>
2
5
10

$$$$

