5281767
  -OEChem-07051212592D

 47 48  0     0  0  0  0  0  0999 V2000
    2.8660   -4.8450    0.0000 O   0  0  0  0  0  0  0  0  0  0  0  0
    8.9282    5.6550    0.0000 O   0  0  0  0  0  0  0  0  0  0  0  0
    4.5981   -5.8450    0.0000 O   0  0  0  0  0  0  0  0  0  0  0  0
   10.6603    4.6550    0.0000 O   0  0  0  0  0  0  0  0  0  0  0  0
    4.5981    0.1550    0.0000 O   0  0  0  0  0  0  0  0  0  0  0  0
    5.4641    1.6550    0.0000 O   0  0  0  0  0  0  0  0  0  0  0  0
    4.5981   -2.8450    0.0000 C   0  0  0  0  0  0  0  0  0  0  0  0
    8.0622    3.1550    0.0000 C   0  0  0  0  0  0  0  0  0  0  0  0
    3.7320   -3.3450    0.0000 C   0  0  0  0  0  0  0  0  0  0  0  0
    3.7320   -4.3450    0.0000 C   0  0  0  0  0  0  0  0  0  0  0  0
    8.0622    4.1550    0.0000 C   0  0  0  0  0  0  0  0  0  0  0  0
    8.9282    4.6550    0.0000 C   0  0  0  0  0  0  0  0  0  0  0  0
    5.4641   -3.3450    0.0000 C   0  0  0  0  0  0  0  0  0  0  0  0
    8.9282    2.6550    0.0000 C   0  0  0  0  0  0  0  0  0  0  0  0
    4.5981   -4.8450    0.0000 C   0  0  0  0  0  0  0  0  0  0  0  0
    9.7942    4.1550    0.0000 C   0  0  0  0  0  0  0  0  0  0  0  0
    5.4641   -4.3450    0.0000 C   0  0  0  0  0  0  0  0  0  0  0  0
    4.5981   -1.8450    0.0000 C   0  0  0  0  0  0  0  0  0  0  0  0
    9.7942    3.1550    0.0000 C   0  0  0  0  0  0  0  0  0  0  0  0
    7.1962    2.6550    0.0000 C   0  0  0  0  0  0  0  0  0  0  0  0
    5.4641   -1.3450    0.0000 C   0  0  0  0  0  0  0  0  0  0  0  0
    7.1962    1.6550    0.0000 C   0  0  0  0  0  0  0  0  0  0  0  0
    5.4641   -0.3450    0.0000 C   0  0  0  0  0  0  0  0  0  0  0  0
    6.3301    1.1550    0.0000 C   0  0  0  0  0  0  0  0  0  0  0  0
    6.3301    0.1550    0.0000 C   0  0  0  0  0  0  0  0  0  0  0  0
    2.0000   -4.3450    0.0000 C   0  0  0  0  0  0  0  0  0  0  0  0
    8.0622    6.1550    0.0000 C   0  0  0  0  0  0  0  0  0  0  0  0
    3.1951   -3.0350    0.0000 H   0  0  0  0  0  0  0  0  0  0  0  0
    7.5252    4.4650    0.0000 H   0  0  0  0  0  0  0  0  0  0  0  0
    6.0010   -3.0350    0.0000 H   0  0  0  0  0  0  0  0  0  0  0  0
    8.9282    2.0350    0.0000 H   0  0  0  0  0  0  0  0  0  0  0  0
    6.0010   -4.6550    0.0000 H   0  0  0  0  0  0  0  0  0  0  0  0
    4.0611   -1.5350    0.0000 H   0  0  0  0  0  0  0  0  0  0  0  0
   10.3312    2.8450    0.0000 H   0  0  0  0  0  0  0  0  0  0  0  0
    6.6592    2.9650    0.0000 H   0  0  0  0  0  0  0  0  0  0  0  0
    6.0010   -1.6550    0.0000 H   0  0  0  0  0  0  0  0  0  0  0  0
    7.7331    1.3450    0.0000 H   0  0  0  0  0  0  0  0  0  0  0  0
    6.8671   -0.1550    0.0000 H   0  0  0  0  0  0  0  0  0  0  0  0
    5.1350   -6.1550    0.0000 H   0  0  0  0  0  0  0  0  0  0  0  0
    2.3100   -3.8081    0.0000 H   0  0  0  0  0  0  0  0  0  0  0  0
    1.4631   -4.0350    0.0000 H   0  0  0  0  0  0  0  0  0  0  0  0
    1.6900   -4.8819    0.0000 H   0  0  0  0  0  0  0  0  0  0  0  0
   11.1972    4.3450    0.0000 H   0  0  0  0  0  0  0  0  0  0  0  0
    8.3722    6.6919    0.0000 H   0  0  0  0  0  0  0  0  0  0  0  0
    7.5252    6.4650    0.0000 H   0  0  0  0  0  0  0  0  0  0  0  0
    7.7522    5.6181    0.0000 H   0  0  0  0  0  0  0  0  0  0  0  0
    4.5981    0.7750    0.0000 H   0  0  0  0  0  0  0  0  0  0  0  0
  1 10  1  0  0  0  0
  1 26  1  0  0  0  0
  2 12  1  0  0  0  0
  2 27  1  0  0  0  0
  3 15  1  0  0  0  0
  3 39  1  0  0  0  0
  4 16  1  0  0  0  0
  4 43  1  0  0  0  0
  5 23  1  0  0  0  0
  5 47  1  0  0  0  0
  6 24  2  0  0  0  0
  7  9  2  0  0  0  0
  7 13  1  0  0  0  0
  7 18  1  0  0  0  0
  8 11  2  0  0  0  0
  8 14  1  0  0  0  0
  8 20  1  0  0  0  0
  9 10  1  0  0  0  0
  9 28  1  0  0  0  0
 10 15  2  0  0  0  0
 11 12  1  0  0  0  0
 11 29  1  0  0  0  0
 12 16  2  0  0  0  0
 13 17  2  0  0  0  0
 13 30  1  0  0  0  0
 14 19  2  0  0  0  0
 14 31  1  0  0  0  0
 15 17  1  0  0  0  0
 16 19  1  0  0  0  0
 17 32  1  0  0  0  0
 18 21  2  0  0  0  0
 18 33  1  0  0  0  0
 19 34  1  0  0  0  0
 20 22  2  0  0  0  0
 20 35  1  0  0  0  0
 21 23  1  0  0  0  0
 21 36  1  0  0  0  0
 22 24  1  0  0  0  0
 22 37  1  0  0  0  0
 23 25  2  0  0  0  0
 24 25  1  0  0  0  0
 25 38  1  0  0  0  0
 26 40  1  0  0  0  0
 26 41  1  0  0  0  0
 26 42  1  0  0  0  0
 27 44  1  0  0  0  0
 27 45  1  0  0  0  0
 27 46  1  0  0  0  0
M  END
> <PUBCHEM_COMPOUND_CID>
5281767

> <PUBCHEM_COMPOUND_CANONICALIZED>
1

> <PUBCHEM_CACTVS_COMPLEXITY>
567

> <PUBCHEM_CACTVS_HBOND_ACCEPTOR>
6

> <PUBCHEM_CACTVS_HBOND_DONOR>
3

> <PUBCHEM_CACTVS_ROTATABLE_BOND>
7

> <PUBCHEM_CACTVS_SUBSKEYS>
AAADceB4OAAAAAAAAAAAAAAAAAAAAAAAAAAwYAAAAAAAAAABQAAAGgAACAAADASAmAIyBoAABgCIAqBSAAACCAAgIAAIiAAGiMgNJiKGMRqAcCMkwBELuYeAwBAOIAABAAAAQABAAAIAAACAAAAAAAAAAA==

> <PUBCHEM_IUPAC_OPENEYE_NAME>
(1E,4Z,6E)-5-hydroxy-1,7-bis(4-hydroxy-3-methoxy-phenyl)hepta-1,4,6-trien-3-one

> <PUBCHEM_IUPAC_CAS_NAME>
(1E,4Z,6E)-5-hydroxy-1,7-bis(4-hydroxy-3-methoxyphenyl)-3-hepta-1,4,6-trienone

> <PUBCHEM_IUPAC_NAME>
(1E,4Z,6E)-5-hydroxy-1,7-bis(4-hydroxy-3-methoxyphenyl)hepta-1,4,6-trien-3-one

> <PUBCHEM_IUPAC_SYSTEMATIC_NAME>
(1E,4Z,6E)-1,7-bis(3-methoxy-4-oxidanyl-phenyl)-5-oxidanyl-hepta-1,4,6-trien-3-one

> <PUBCHEM_IUPAC_TRADITIONAL_NAME>
(1E,4Z,6E)-5-hydroxy-1,7-bis(4-hydroxy-3-methoxy-phenyl)hepta-1,4,6-trien-3-one

> <PUBCHEM_IUPAC_INCHI>
InChI=1S/C21H20O6/c1-26-20-11-14(5-9-18(20)24)3-7-16(22)13-17(23)8-4-15-6-10-19(25)21(12-15)27-2/h3-13,22,24-25H,1-2H3/b7-3+,8-4+,16-13-

> <PUBCHEM_IUPAC_INCHIKEY>
ZIUSSTSXXLLKKK-KOBPDPAPSA-N

> <PUBCHEM_XLOGP3_AA>
4

> <PUBCHEM_EXACT_MASS>
368.125988

> <PUBCHEM_MOLECULAR_FORMULA>
C21H20O6

> <PUBCHEM_MOLECULAR_WEIGHT>
368.3799

> <PUBCHEM_OPENEYE_CAN_SMILES>
COC1=C(C=CC(=C1)C=CC(=CC(=O)C=CC2=CC(=C(C=C2)O)OC)O)O

> <PUBCHEM_OPENEYE_ISO_SMILES>
COC1=C(C=CC(=C1)/C=C/C(=C/C(=O)/C=C/C2=CC(=C(C=C2)O)OC)/O)O

> <PUBCHEM_CACTVS_TPSA>
96.2

> <PUBCHEM_MONOISOTOPIC_WEIGHT>
368.125988

> <PUBCHEM_TOTAL_CHARGE>
0

> <PUBCHEM_HEAVY_ATOM_COUNT>
27

> <PUBCHEM_ATOM_DEF_STEREO_COUNT>
0

> <PUBCHEM_ATOM_UDEF_STEREO_COUNT>
0

> <PUBCHEM_BOND_DEF_STEREO_COUNT>
3

> <PUBCHEM_BOND_UDEF_STEREO_COUNT>
0

> <PUBCHEM_ISOTOPIC_ATOM_COUNT>
0

> <PUBCHEM_COMPONENT_COUNT>
1

> <PUBCHEM_CACTVS_TAUTO_COUNT>
51

> <PUBCHEM_COORDINATE_TYPE>
1
5
255

> <PUBCHEM_BONDANNOTATIONS>
10  15  8
11  12  8
12  16  8
13  17  8
14  19  8
15  17  8
16  19  8
7  13  8
7  9  8
8  11  8
8  14  8
9  10  8

$$$$

