13438
  -OEChem-06261214133D

 27 29  0     0  0  0  0  0  0999 V2000
    0.5567   -0.6840    0.0001 C   0  0  0  0  0  0  0  0  0  0  0  0
   -0.8745   -0.5255    0.0001 C   0  0  0  0  0  0  0  0  0  0  0  0
    1.3815    0.4711    0.0000 C   0  0  0  0  0  0  0  0  0  0  0  0
   -1.4259    0.7825    0.0000 C   0  0  0  0  0  0  0  0  0  0  0  0
    0.8013    1.7422    0.0002 C   0  0  0  0  0  0  0  0  0  0  0  0
   -0.5813    1.8955    0.0000 C   0  0  0  0  0  0  0  0  0  0  0  0
    1.2176   -1.9379    0.0001 C   0  0  0  0  0  0  0  0  0  0  0  0
    2.7816    0.3499   -0.0001 C   0  0  0  0  0  0  0  0  0  0  0  0
   -1.7946   -1.6039    0.0002 C   0  0  0  0  0  0  0  0  0  0  0  0
   -2.8186    0.9713   -0.0002 C   0  0  0  0  0  0  0  0  0  0  0  0
    1.6184    2.9990    0.0001 C   0  0  0  0  0  0  0  0  0  0  0  0
    2.6111   -2.0443    0.0000 C   0  0  0  0  0  0  0  0  0  0  0  0
    3.3933   -0.8999   -0.0003 C   0  0  0  0  0  0  0  0  0  0  0  0
   -3.1773   -1.4021    0.0001 C   0  0  0  0  0  0  0  0  0  0  0  0
   -3.6894   -0.1140   -0.0003 C   0  0  0  0  0  0  0  0  0  0  0  0
   -1.0136    2.8953    0.0000 H   0  0  0  0  0  0  0  0  0  0  0  0
    0.6565   -2.8688    0.0002 H   0  0  0  0  0  0  0  0  0  0  0  0
    3.4379    1.2165   -0.0002 H   0  0  0  0  0  0  0  0  0  0  0  0
   -1.4512   -2.6352    0.0003 H   0  0  0  0  0  0  0  0  0  0  0  0
   -3.2412    1.9745   -0.0003 H   0  0  0  0  0  0  0  0  0  0  0  0
    2.2462    3.0513    0.8960 H   0  0  0  0  0  0  0  0  0  0  0  0
    2.2456    3.0517   -0.8962 H   0  0  0  0  0  0  0  0  0  0  0  0
    0.9922    3.8984    0.0006 H   0  0  0  0  0  0  0  0  0  0  0  0
    3.0794   -3.0242    0.0000 H   0  0  0  0  0  0  0  0  0  0  0  0
    4.4762   -0.9779   -0.0005 H   0  0  0  0  0  0  0  0  0  0  0  0
   -3.8493   -2.2554    0.0002 H   0  0  0  0  0  0  0  0  0  0  0  0
   -4.7629    0.0479   -0.0004 H   0  0  0  0  0  0  0  0  0  0  0  0
  1  2  1  0  0  0  0
  1  3  1  0  0  0  0
  1  7  2  0  0  0  0
  2  4  1  0  0  0  0
  2  9  2  0  0  0  0
  3  5  1  0  0  0  0
  3  8  2  0  0  0  0
  4  6  1  0  0  0  0
  4 10  2  0  0  0  0
  5  6  2  0  0  0  0
  5 11  1  0  0  0  0
  6 16  1  0  0  0  0
  7 12  1  0  0  0  0
  7 17  1  0  0  0  0
  8 13  1  0  0  0  0
  8 18  1  0  0  0  0
  9 14  1  0  0  0  0
  9 19  1  0  0  0  0
 10 15  1  0  0  0  0
 10 20  1  0  0  0  0
 11 21  1  0  0  0  0
 11 22  1  0  0  0  0
 11 23  1  0  0  0  0
 12 13  2  0  0  0  0
 12 24  1  0  0  0  0
 13 25  1  0  0  0  0
 14 15  2  0  0  0  0
 14 26  1  0  0  0  0
 15 27  1  0  0  0  0
M  END
> <PUBCHEM_COMPOUND_CID>
13438

> <PUBCHEM_CONFORMER_RMSD>
0.4

> <PUBCHEM_CONFORMER_DIVERSEORDER>
1

> <PUBCHEM_MMFF94_PARTIAL_CHARGES>
20
10 -0.15
11 0.14
12 -0.15
13 -0.15
14 -0.15
15 -0.15
16 0.15
17 0.15
18 0.15
19 0.15
20 0.15
24 0.15
25 0.15
26 0.15
27 0.15
5 -0.14
6 -0.15
7 -0.15
8 -0.15
9 -0.15

> <PUBCHEM_EFFECTIVE_ROTOR_COUNT>
0

> <PUBCHEM_PHARMACOPHORE_FEATURES>
3
6 1 2 3 4 5 6 rings
6 1 3 7 8 12 13 rings
6 2 4 9 10 14 15 rings

> <PUBCHEM_HEAVY_ATOM_COUNT>
15

> <PUBCHEM_ATOM_DEF_STEREO_COUNT>
0

> <PUBCHEM_ATOM_UDEF_STEREO_COUNT>
0

> <PUBCHEM_BOND_DEF_STEREO_COUNT>
0

> <PUBCHEM_BOND_UDEF_STEREO_COUNT>
0

> <PUBCHEM_ISOTOPIC_ATOM_COUNT>
0

> <PUBCHEM_COMPONENT_COUNT>
1

> <PUBCHEM_CACTVS_TAUTO_COUNT>
1

> <PUBCHEM_CONFORMER_ID>
0000347E00000001

> <PUBCHEM_MMFF94_ENERGY>
53.3772

> <PUBCHEM_FEATURE_SELFOVERLAP>
15.272

> <PUBCHEM_SHAPE_FINGERPRINT>
10608611 8 18412831261402126589
10967382 1 18266459797829361990
11132069 177 18410299150368383530
11471102 20 18411142424389588039
12032990 46 18337949094701021926
12251169 10 18335412487516781155
12382932 28 18336830912939879818
12553582 1 18338512053212417482
13140716 1 18266459802119074473
13221675 6 18410855468834374807
13380535 76 17980486654825652536
13897977 150 18267587914150481885
14144814 61 18409729590470947075
14648413 74 18341049610169772657
14790565 3 17544463619457086800
15001771 113 18408879667871964937
15196674 1 18410855485903344263
15375462 189 18201152268994144811
15442244 35 18336825389712189849
15536298 74 18261392196261397904
16945 1 18410573985262396325
17990270 104 18411703157839282170
193761 8 17978229357427467462
19591789 44 16899323548033728946
19868273 325 18340204218908759798
200 152 18041290902483682455
20201158 50 18412265038520108347
20510252 161 17901672892721544472
20559304 39 18410853226861283892
20645477 70 18269001890820892319
21267235 1 18410565219176486691
21501502 16 18337950087191648301
221490 88 18269266872564250987
22721475 48 18411415133090140527
2334 1 17978509728418027105
23402539 116 18190756420781379103
23463225 33 18411136960943384494
23552423 10 18339923697509760365
23559900 14 18120662589719983058
2748010 2 18121784103615533292
3071541 12 18338230440923789132
3071541 158 18343865523815137212
335352 9 18266459999903977821
34934 24 18339371875653183090
352729 6 17258220094969977316
43471831 8 17907302048325947320
5104073 3 18410292531765843371
7364860 26 18336265626571877960
7832392 63 18336546126691096369
81228 2 17977092780284421464
84936 182 17898287204098647889
8809292 202 18272646840111900851
9709674 26 18410853222741039543

> <PUBCHEM_SHAPE_MULTIPOLES>
308.69
5.35
2.72
0.62
1.76
1.11
0
-1.74
0
-1.29
0
0
0
0

> <PUBCHEM_SHAPE_SELFOVERLAP>
695.375

> <PUBCHEM_SHAPE_VOLUME>
151

> <PUBCHEM_COORDINATE_TYPE>
2
5
10

$$$$

