46174008
  -OEChem-07051213112D

 48 47  0     1  0  0  0  0  0999 V2000
    3.7320   -1.3450    0.0000 P   0  0  3  0  0  0  0  0  0  0  0  0
    3.7320   -2.3450    0.0000 O   0  0  0  0  0  0  0  0  0  0  0  0
    4.7320   -1.3450    0.0000 O   0  0  0  0  0  0  0  0  0  0  0  0
    5.4641    2.6550    0.0000 O   0  0  0  0  0  0  0  0  0  0  0  0
    8.0622    0.1550    0.0000 O   0  0  0  0  0  0  0  0  0  0  0  0
    2.8660    0.1550    0.0000 O   0  0  0  0  0  0  0  0  0  0  0  0
   11.5263    1.1550    0.0000 O   0  0  0  0  0  0  0  0  0  0  0  0
   10.6603    2.6550    0.0000 O   0  0  0  0  0  0  0  0  0  0  0  0
    3.7320    1.6550    0.0000 N   0  0  0  0  0  0  0  0  0  0  0  0
    6.3301    1.1550    0.0000 N   0  0  0  0  0  0  0  0  0  0  0  0
    8.9282    1.6550    0.0000 N   0  0  0  0  0  0  0  0  0  0  0  0
    4.5981    0.1550    0.0000 C   0  0  0  0  0  0  0  0  0  0  0  0
    4.5981    1.1550    0.0000 C   0  0  1  0  0  0  0  0  0  0  0  0
    3.7320   -0.3450    0.0000 C   0  0  0  0  0  0  0  0  0  0  0  0
    5.4641    1.6550    0.0000 C   0  0  0  0  0  0  0  0  0  0  0  0
    7.1962    1.6550    0.0000 C   0  0  2  0  0  0  0  0  0  0  0  0
    2.7320   -1.3450    0.0000 C   0  0  0  0  0  0  0  0  0  0  0  0
    8.0622    1.1550    0.0000 C   0  0  0  0  0  0  0  0  0  0  0  0
    7.1962    2.6550    0.0000 C   0  0  0  0  0  0  0  0  0  0  0  0
    2.8660    1.1550    0.0000 C   0  0  0  0  0  0  0  0  0  0  0  0
    9.7942    1.1550    0.0000 C   0  0  1  0  0  0  0  0  0  0  0  0
    2.0000    1.6550    0.0000 C   0  0  0  0  0  0  0  0  0  0  0  0
    9.7942    0.1550    0.0000 C   0  0  0  0  0  0  0  0  0  0  0  0
   10.6603    1.6550    0.0000 C   0  0  0  0  0  0  0  0  0  0  0  0
    4.8101   -0.4276    0.0000 H   0  0  0  0  0  0  0  0  0  0  0  0
    5.2087    0.2627    0.0000 H   0  0  0  0  0  0  0  0  0  0  0  0
    4.5981    1.7750    0.0000 H   0  0  0  0  0  0  0  0  0  0  0  0
    3.5200    0.2376    0.0000 H   0  0  0  0  0  0  0  0  0  0  0  0
    3.1215   -0.4527    0.0000 H   0  0  0  0  0  0  0  0  0  0  0  0
    6.6592    1.9650    0.0000 H   0  0  0  0  0  0  0  0  0  0  0  0
    3.7320    2.2750    0.0000 H   0  0  0  0  0  0  0  0  0  0  0  0
    6.3301    0.5350    0.0000 H   0  0  0  0  0  0  0  0  0  0  0  0
    2.7320   -0.7250    0.0000 H   0  0  0  0  0  0  0  0  0  0  0  0
    2.1120   -1.3450    0.0000 H   0  0  0  0  0  0  0  0  0  0  0  0
    2.7320   -1.9650    0.0000 H   0  0  0  0  0  0  0  0  0  0  0  0
    7.8162    2.6550    0.0000 H   0  0  0  0  0  0  0  0  0  0  0  0
    7.1962    3.2750    0.0000 H   0  0  0  0  0  0  0  0  0  0  0  0
    6.5762    2.6550    0.0000 H   0  0  0  0  0  0  0  0  0  0  0  0
    8.9282    2.2750    0.0000 H   0  0  0  0  0  0  0  0  0  0  0  0
    9.2573    0.8450    0.0000 H   0  0  0  0  0  0  0  0  0  0  0  0
    3.1951   -2.6550    0.0000 H   0  0  0  0  0  0  0  0  0  0  0  0
    2.3100    2.1919    0.0000 H   0  0  0  0  0  0  0  0  0  0  0  0
    1.4631    1.9650    0.0000 H   0  0  0  0  0  0  0  0  0  0  0  0
    1.6900    1.1181    0.0000 H   0  0  0  0  0  0  0  0  0  0  0  0
    9.1742    0.1550    0.0000 H   0  0  0  0  0  0  0  0  0  0  0  0
    9.7942   -0.4650    0.0000 H   0  0  0  0  0  0  0  0  0  0  0  0
   10.4142    0.1550    0.0000 H   0  0  0  0  0  0  0  0  0  0  0  0
   12.0632    1.4650    0.0000 H   0  0  0  0  0  0  0  0  0  0  0  0
  1  2  1  0  0  0  0
  1  3  2  0  0  0  0
  1 14  1  0  0  0  0
  1 17  1  0  0  0  0
  2 41  1  0  0  0  0
  4 15  2  0  0  0  0
  5 18  2  0  0  0  0
  6 20  2  0  0  0  0
  7 24  1  0  0  0  0
  7 48  1  0  0  0  0
  8 24  2  0  0  0  0
 13  9  1  6  0  0  0
  9 20  1  0  0  0  0
  9 31  1  0  0  0  0
 10 15  1  0  0  0  0
 16 10  1  1  0  0  0
 10 32  1  0  0  0  0
 11 18  1  0  0  0  0
 21 11  1  6  0  0  0
 11 39  1  0  0  0  0
 12 13  1  0  0  0  0
 12 14  1  0  0  0  0
 12 25  1  0  0  0  0
 12 26  1  0  0  0  0
 13 15  1  0  0  0  0
 13 27  1  0  0  0  0
 14 28  1  0  0  0  0
 14 29  1  0  0  0  0
 16 18  1  0  0  0  0
 16 19  1  0  0  0  0
 16 30  1  0  0  0  0
 17 33  1  0  0  0  0
 17 34  1  0  0  0  0
 17 35  1  0  0  0  0
 19 36  1  0  0  0  0
 19 37  1  0  0  0  0
 19 38  1  0  0  0  0
 20 22  1  0  0  0  0
 21 23  1  0  0  0  0
 21 24  1  0  0  0  0
 21 40  1  0  0  0  0
 22 42  1  0  0  0  0
 22 43  1  0  0  0  0
 22 44  1  0  0  0  0
 23 45  1  0  0  0  0
 23 46  1  0  0  0  0
 23 47  1  0  0  0  0
M  END
> <PUBCHEM_COMPOUND_CID>
46174008

> <PUBCHEM_COMPOUND_CANONICALIZED>
1

> <PUBCHEM_CACTVS_COMPLEXITY>
552

> <PUBCHEM_CACTVS_HBOND_ACCEPTOR>
7

> <PUBCHEM_CACTVS_HBOND_DONOR>
5

> <PUBCHEM_CACTVS_ROTATABLE_BOND>
9

> <PUBCHEM_CACTVS_SUBSKEYS>
AAADceBzOAIAAAAAAAAAAAAAAAAAAAAAAAAAAAAAAAAAAAAAAAAAHggQCCAACCjJgAQCCALAAjAIQAGQGIAAAAAAAAAAAIGIAAACQBAAgCAUQAAAFgCQAAAAAAAAAAAAAAAAAAAAAAAAAAAAAAAAAAAAAA==

> <PUBCHEM_IUPAC_OPENEYE_NAME>
(2S)-2-[[(2S)-2-[[(2S)-2-acetamido-4-[hydroxy(methyl)phosphoryl]butanoyl]amino]propanoyl]amino]propanoic acid

> <PUBCHEM_IUPAC_CAS_NAME>
(2S)-2-[[(2S)-2-[[(2S)-2-acetamido-4-[hydroxy(methyl)phosphoryl]-1-oxobutyl]amino]-1-oxopropyl]amino]propanoic acid

> <PUBCHEM_IUPAC_NAME>
(2S)-2-[[(2S)-2-[[(2S)-2-acetamido-4-[hydroxy(methyl)phosphoryl]butanoyl]amino]propanoyl]amino]propanoic acid

> <PUBCHEM_IUPAC_SYSTEMATIC_NAME>
(2S)-2-[[(2S)-2-[[(2S)-2-acetamido-4-[methyl(oxidanyl)phosphoryl]butanoyl]amino]propanoyl]amino]propanoic acid

> <PUBCHEM_IUPAC_TRADITIONAL_NAME>
(2S)-2-[[(2S)-2-[[(2S)-2-acetamido-4-[hydroxy(methyl)phosphoryl]butanoyl]amino]propanoyl]amino]propionic acid

> <PUBCHEM_IUPAC_INCHI>
InChI=1S/C13H24N3O7P/c1-7(11(18)15-8(2)13(20)21)14-12(19)10(16-9(3)17)5-6-24(4,22)23/h7-8,10H,5-6H2,1-4H3,(H,14,19)(H,15,18)(H,16,17)(H,20,21)(H,22,23)/t7-,8-,10-/m0/s1

> <PUBCHEM_IUPAC_INCHIKEY>
KDOSWTYNZQCOFJ-NRPADANISA-N

> <PUBCHEM_XLOGP3_AA>
-2.3

> <PUBCHEM_EXACT_MASS>
365.135187

> <PUBCHEM_MOLECULAR_FORMULA>
C13H24N3O7P

> <PUBCHEM_MOLECULAR_WEIGHT>
365.319322

> <PUBCHEM_OPENEYE_CAN_SMILES>
CC(C(=O)NC(C)C(=O)O)NC(=O)C(CCP(=O)(C)O)NC(=O)C

> <PUBCHEM_OPENEYE_ISO_SMILES>
C[C@@H](C(=O)N[C@@H](C)C(=O)O)NC(=O)[C@H](CCP(=O)(C)O)NC(=O)C

> <PUBCHEM_CACTVS_TPSA>
162

> <PUBCHEM_MONOISOTOPIC_WEIGHT>
365.135187

> <PUBCHEM_TOTAL_CHARGE>
0

> <PUBCHEM_HEAVY_ATOM_COUNT>
24

> <PUBCHEM_ATOM_DEF_STEREO_COUNT>
3

> <PUBCHEM_ATOM_UDEF_STEREO_COUNT>
0

> <PUBCHEM_BOND_DEF_STEREO_COUNT>
0

> <PUBCHEM_BOND_UDEF_STEREO_COUNT>
0

> <PUBCHEM_ISOTOPIC_ATOM_COUNT>
0

> <PUBCHEM_COMPONENT_COUNT>
1

> <PUBCHEM_CACTVS_TAUTO_COUNT>
8

> <PUBCHEM_COORDINATE_TYPE>
1
5
255

> <PUBCHEM_BONDANNOTATIONS>
16  10  5
21  11  6
13  9  6

$$$$

