17396143
  -OEChem-06241222542D

 43 46  0     1  0  0  0  0  0999 V2000
    6.2781    1.5935    0.0000 S   0  0  0  0  0  0  0  0  0  0  0  0
    4.3211    1.1811    0.0000 O   0  0  0  0  0  0  0  0  0  0  0  0
    4.6783   -2.1232    0.0000 N   0  0  0  0  0  0  0  0  0  0  0  0
    7.9986    1.1293    0.0000 N   0  0  0  0  0  0  0  0  0  0  0  0
    7.6649    2.7125    0.0000 N   0  0  0  0  0  0  0  0  0  0  0  0
    8.6593    2.6063    0.0000 N   0  0  0  0  0  0  0  0  0  0  0  0
   11.5012    1.3976    0.0000 N   0  0  0  0  0  0  0  0  0  0  0  0
    4.6783   -0.5138    0.0000 C   0  0  0  0  0  0  0  0  0  0  0  0
    3.7320   -0.8185    0.0000 C   0  0  0  0  0  0  0  0  0  0  0  0
    5.9674    0.6430    0.0000 C   0  0  3  0  0  0  0  0  0  0  0  0
    3.7320   -1.8185    0.0000 C   0  0  0  0  0  0  0  0  0  0  0  0
    4.9889    0.4368    0.0000 C   0  0  0  0  0  0  0  0  0  0  0  0
    5.2619   -1.3185    0.0000 C   0  0  0  0  0  0  0  0  0  0  0  0
    2.8660   -0.3185    0.0000 C   0  0  0  0  0  0  0  0  0  0  0  0
    6.6353   -0.1013    0.0000 C   0  0  0  0  0  0  0  0  0  0  0  0
    7.2566    1.7997    0.0000 C   0  0  0  0  0  0  0  0  0  0  0  0
    2.8660   -2.3185    0.0000 C   0  0  0  0  0  0  0  0  0  0  0  0
    8.8655    1.6278    0.0000 C   0  0  0  0  0  0  0  0  0  0  0  0
    2.0000   -0.8185    0.0000 C   0  0  0  0  0  0  0  0  0  0  0  0
    2.0000   -1.8185    0.0000 C   0  0  0  0  0  0  0  0  0  0  0  0
    9.7783    1.2195    0.0000 C   0  0  0  0  0  0  0  0  0  0  0  0
    7.8923    0.1350    0.0000 C   0  0  0  0  0  0  0  0  0  0  0  0
    9.8811    0.2248    0.0000 C   0  0  0  0  0  0  0  0  0  0  0  0
   10.5884    1.8059    0.0000 C   0  0  0  0  0  0  0  0  0  0  0  0
   10.7940   -0.1835    0.0000 C   0  0  0  0  0  0  0  0  0  0  0  0
   11.6040    0.4028    0.0000 C   0  0  0  0  0  0  0  0  0  0  0  0
    6.5741    0.7708    0.0000 H   0  0  0  0  0  0  0  0  0  0  0  0
    5.8819   -1.3185    0.0000 H   0  0  0  0  0  0  0  0  0  0  0  0
    4.8709   -2.7125    0.0000 H   0  0  0  0  0  0  0  0  0  0  0  0
    2.8660    0.3015    0.0000 H   0  0  0  0  0  0  0  0  0  0  0  0
    6.1738   -0.5154    0.0000 H   0  0  0  0  0  0  0  0  0  0  0  0
    7.0494   -0.5628    0.0000 H   0  0  0  0  0  0  0  0  0  0  0  0
    7.0968    0.3127    0.0000 H   0  0  0  0  0  0  0  0  0  0  0  0
    2.8660   -2.9385    0.0000 H   0  0  0  0  0  0  0  0  0  0  0  0
    1.4631   -0.5085    0.0000 H   0  0  0  0  0  0  0  0  0  0  0  0
    1.4631   -2.1285    0.0000 H   0  0  0  0  0  0  0  0  0  0  0  0
    7.2758    0.2008    0.0000 H   0  0  0  0  0  0  0  0  0  0  0  0
    7.8265   -0.4815    0.0000 H   0  0  0  0  0  0  0  0  0  0  0  0
    8.5088    0.0691    0.0000 H   0  0  0  0  0  0  0  0  0  0  0  0
    9.3789   -0.1388    0.0000 H   0  0  0  0  0  0  0  0  0  0  0  0
   10.5246    2.4226    0.0000 H   0  0  0  0  0  0  0  0  0  0  0  0
   10.8577   -0.8003    0.0000 H   0  0  0  0  0  0  0  0  0  0  0  0
   12.1700    0.1497    0.0000 H   0  0  0  0  0  0  0  0  0  0  0  0
  1 10  1  0  0  0  0
  1 16  1  0  0  0  0
  2 12  2  0  0  0  0
  3 11  1  0  0  0  0
  3 13  1  0  0  0  0
  3 29  1  0  0  0  0
  4 16  1  0  0  0  0
  4 18  1  0  0  0  0
  4 22  1  0  0  0  0
  5  6  1  0  0  0  0
  5 16  2  0  0  0  0
  6 18  2  0  0  0  0
  7 24  1  0  0  0  0
  7 26  2  0  0  0  0
  8  9  1  0  0  0  0
  8 12  1  0  0  0  0
  8 13  2  0  0  0  0
  9 11  1  0  0  0  0
  9 14  2  0  0  0  0
 10 12  1  0  0  0  0
 10 15  1  0  0  0  0
 10 27  1  0  0  0  0
 11 17  2  0  0  0  0
 13 28  1  0  0  0  0
 14 19  1  0  0  0  0
 14 30  1  0  0  0  0
 15 31  1  0  0  0  0
 15 32  1  0  0  0  0
 15 33  1  0  0  0  0
 17 20  1  0  0  0  0
 17 34  1  0  0  0  0
 18 21  1  0  0  0  0
 19 20  2  0  0  0  0
 19 35  1  0  0  0  0
 20 36  1  0  0  0  0
 21 23  1  0  0  0  0
 21 24  2  0  0  0  0
 22 37  1  0  0  0  0
 22 38  1  0  0  0  0
 22 39  1  0  0  0  0
 23 25  2  0  0  0  0
 23 40  1  0  0  0  0
 24 41  1  0  0  0  0
 25 26  1  0  0  0  0
 25 42  1  0  0  0  0
 26 43  1  0  0  0  0
M  END
> <PUBCHEM_COMPOUND_CID>
17396143

> <PUBCHEM_COMPOUND_CANONICALIZED>
1

> <PUBCHEM_CACTVS_COMPLEXITY>
506

> <PUBCHEM_CACTVS_HBOND_ACCEPTOR>
5

> <PUBCHEM_CACTVS_HBOND_DONOR>
1

> <PUBCHEM_CACTVS_ROTATABLE_BOND>
5

> <PUBCHEM_CACTVS_SUBSKEYS>
AAADceB7oABAAAAAAAAAAAAAAAAAAWLAAAA8QAAAAAAAAFgB/gAAHgQYAAAADAzF3wS/0PfNkAiqA7Z3ZACS0Ct1ArAd2aE4ZNiIKPrg3ZGEIYhgmALIyccciMCOgAAAAAACAAAAAAAAAAQAAAAAAAAAAA==

> <PUBCHEM_IUPAC_OPENEYE_NAME>
1-(1H-indol-3-yl)-2-[[4-methyl-5-(3-pyridyl)-1,2,4-triazol-3-yl]sulfanyl]propan-1-one

> <PUBCHEM_IUPAC_CAS_NAME>
1-(1H-indol-3-yl)-2-[[4-methyl-5-(3-pyridinyl)-1,2,4-triazol-3-yl]thio]-1-propanone

> <PUBCHEM_IUPAC_NAME>
1-(1H-indol-3-yl)-2-[(4-methyl-5-pyridin-3-yl-1,2,4-triazol-3-yl)sulfanyl]propan-1-one

> <PUBCHEM_IUPAC_SYSTEMATIC_NAME>
1-(1H-indol-3-yl)-2-[(4-methyl-5-pyridin-3-yl-1,2,4-triazol-3-yl)sulfanyl]propan-1-one

> <PUBCHEM_IUPAC_TRADITIONAL_NAME>
1-(1H-indol-3-yl)-2-[[4-methyl-5-(3-pyridyl)-1,2,4-triazol-3-yl]thio]propan-1-one

> <PUBCHEM_IUPAC_INCHI>
InChI=1S/C19H17N5OS/c1-12(17(25)15-11-21-16-8-4-3-7-14(15)16)26-19-23-22-18(24(19)2)13-6-5-9-20-10-13/h3-12,21H,1-2H3

> <PUBCHEM_IUPAC_INCHIKEY>
QMCUILGCYAQRRW-UHFFFAOYSA-N

> <PUBCHEM_XLOGP3_AA>
2.8

> <PUBCHEM_EXACT_MASS>
363.115381

> <PUBCHEM_MOLECULAR_FORMULA>
C19H17N5OS

> <PUBCHEM_MOLECULAR_WEIGHT>
363.43618

> <PUBCHEM_OPENEYE_CAN_SMILES>
CC(C(=O)C1=CNC2=CC=CC=C21)SC3=NN=C(N3C)C4=CN=CC=C4

> <PUBCHEM_OPENEYE_ISO_SMILES>
CC(C(=O)C1=CNC2=CC=CC=C21)SC3=NN=C(N3C)C4=CN=CC=C4

> <PUBCHEM_CACTVS_TPSA>
102

> <PUBCHEM_MONOISOTOPIC_WEIGHT>
363.115381

> <PUBCHEM_TOTAL_CHARGE>
0

> <PUBCHEM_HEAVY_ATOM_COUNT>
26

> <PUBCHEM_ATOM_DEF_STEREO_COUNT>
0

> <PUBCHEM_ATOM_UDEF_STEREO_COUNT>
1

> <PUBCHEM_BOND_DEF_STEREO_COUNT>
0

> <PUBCHEM_BOND_UDEF_STEREO_COUNT>
0

> <PUBCHEM_ISOTOPIC_ATOM_COUNT>
0

> <PUBCHEM_COMPONENT_COUNT>
1

> <PUBCHEM_CACTVS_TAUTO_COUNT>
5

> <PUBCHEM_COORDINATE_TYPE>
1
5
255

> <PUBCHEM_BONDANNOTATIONS>
10  15  3
11  17  8
14  19  8
17  20  8
19  20  8
21  23  8
21  24  8
23  25  8
25  26  8
3  11  8
3  13  8
4  16  8
4  18  8
5  16  8
5  6  8
6  18  8
7  24  8
7  26  8
8  13  8
8  9  8
9  11  8
9  14  8

$$$$

