53309
  -OEChem-07051213012D

 40 41  0     1  0  0  0  0  0999 V2000
    2.0000   -0.5194    0.0000 Cl  0  0  0  0  0  0  0  0  0  0  0  0
    3.7320   -3.5194    0.0000 Cl  0  0  0  0  0  0  0  0  0  0  0  0
    5.4641   -0.5194    0.0000 O   0  0  0  0  0  0  0  0  0  0  0  0
    4.5981    1.9806    0.0000 N   0  0  0  0  0  0  0  0  0  0  0  0
    5.4071    2.5684    0.0000 N   0  0  0  0  0  0  0  0  0  0  0  0
    4.0981    3.5194    0.0000 N   0  0  0  0  0  0  0  0  0  0  0  0
    6.3301    0.9806    0.0000 C   0  0  0  0  0  0  0  0  0  0  0  0
    5.4641    0.4806    0.0000 C   0  0  3  0  0  0  0  0  0  0  0  0
    4.5981    0.9806    0.0000 C   0  0  3  0  0  0  0  0  0  0  0  0
    3.7320    0.4806    0.0000 C   0  0  0  0  0  0  0  0  0  0  0  0
    7.1962    1.4806    0.0000 C   0  0  0  0  0  0  0  0  0  0  0  0
    6.8301    0.1146    0.0000 C   0  0  0  0  0  0  0  0  0  0  0  0
    5.8301    1.8466    0.0000 C   0  0  0  0  0  0  0  0  0  0  0  0
    3.7320   -0.5194    0.0000 C   0  0  0  0  0  0  0  0  0  0  0  0
    3.7891    2.5684    0.0000 C   0  0  0  0  0  0  0  0  0  0  0  0
    2.8660   -1.0194    0.0000 C   0  0  0  0  0  0  0  0  0  0  0  0
    4.5981   -1.0194    0.0000 C   0  0  0  0  0  0  0  0  0  0  0  0
    5.0981    3.5194    0.0000 C   0  0  0  0  0  0  0  0  0  0  0  0
    2.8660   -2.0194    0.0000 C   0  0  0  0  0  0  0  0  0  0  0  0
    4.5981   -2.0194    0.0000 C   0  0  0  0  0  0  0  0  0  0  0  0
    3.7320   -2.5194    0.0000 C   0  0  0  0  0  0  0  0  0  0  0  0
    6.2002    0.0556    0.0000 H   0  0  0  0  0  0  0  0  0  0  0  0
    3.8620    1.4056    0.0000 H   0  0  0  0  0  0  0  0  0  0  0  0
    3.5200    1.0632    0.0000 H   0  0  0  0  0  0  0  0  0  0  0  0
    3.1215    0.3729    0.0000 H   0  0  0  0  0  0  0  0  0  0  0  0
    7.5062    0.9436    0.0000 H   0  0  0  0  0  0  0  0  0  0  0  0
    7.7331    1.7906    0.0000 H   0  0  0  0  0  0  0  0  0  0  0  0
    6.8862    2.0175    0.0000 H   0  0  0  0  0  0  0  0  0  0  0  0
    6.2932   -0.1954    0.0000 H   0  0  0  0  0  0  0  0  0  0  0  0
    7.1401   -0.4224    0.0000 H   0  0  0  0  0  0  0  0  0  0  0  0
    7.3671    0.4246    0.0000 H   0  0  0  0  0  0  0  0  0  0  0  0
    6.3671    2.1566    0.0000 H   0  0  0  0  0  0  0  0  0  0  0  0
    5.5201    2.3835    0.0000 H   0  0  0  0  0  0  0  0  0  0  0  0
    5.2932    1.5366    0.0000 H   0  0  0  0  0  0  0  0  0  0  0  0
    6.0010   -0.8294    0.0000 H   0  0  0  0  0  0  0  0  0  0  0  0
    3.1994    2.3768    0.0000 H   0  0  0  0  0  0  0  0  0  0  0  0
    5.1350   -0.7094    0.0000 H   0  0  0  0  0  0  0  0  0  0  0  0
    5.4625    4.0210    0.0000 H   0  0  0  0  0  0  0  0  0  0  0  0
    2.3291   -2.3294    0.0000 H   0  0  0  0  0  0  0  0  0  0  0  0
    5.1350   -2.3294    0.0000 H   0  0  0  0  0  0  0  0  0  0  0  0
  1 16  1  0  0  0  0
  2 21  1  0  0  0  0
  3  8  1  0  0  0  0
  3 35  1  0  0  0  0
  4  5  1  0  0  0  0
  4  9  1  0  0  0  0
  4 15  1  0  0  0  0
  5 18  2  0  0  0  0
  6 15  2  0  0  0  0
  6 18  1  0  0  0  0
  7  8  1  0  0  0  0
  7 11  1  0  0  0  0
  7 12  1  0  0  0  0
  7 13  1  0  0  0  0
  8  9  1  0  0  0  0
  8 22  1  0  0  0  0
  9 10  1  0  0  0  0
  9 23  1  0  0  0  0
 10 14  1  0  0  0  0
 10 24  1  0  0  0  0
 10 25  1  0  0  0  0
 11 26  1  0  0  0  0
 11 27  1  0  0  0  0
 11 28  1  0  0  0  0
 12 29  1  0  0  0  0
 12 30  1  0  0  0  0
 12 31  1  0  0  0  0
 13 32  1  0  0  0  0
 13 33  1  0  0  0  0
 13 34  1  0  0  0  0
 14 16  2  0  0  0  0
 14 17  1  0  0  0  0
 15 36  1  0  0  0  0
 16 19  1  0  0  0  0
 17 20  2  0  0  0  0
 17 37  1  0  0  0  0
 18 38  1  0  0  0  0
 19 21  2  0  0  0  0
 19 39  1  0  0  0  0
 20 21  1  0  0  0  0
 20 40  1  0  0  0  0
M  END
> <PUBCHEM_COMPOUND_CID>
53309

> <PUBCHEM_COMPOUND_CANONICALIZED>
1

> <PUBCHEM_CACTVS_COMPLEXITY>
337

> <PUBCHEM_CACTVS_HBOND_ACCEPTOR>
3

> <PUBCHEM_CACTVS_HBOND_DONOR>
1

> <PUBCHEM_CACTVS_ROTATABLE_BOND>
5

> <PUBCHEM_CACTVS_SUBSKEYS>
AAADceBzIAAGAAAAAAAAAAAAAAAAAWAAAAAwAAAAAAAAAAABwAAAHgIICAAADj7hmCY3EIYIEgCiAiBDJAASAAswhYAdyAAIAoiKOCKBmxGEYAAsgAIYiAeQwOAPBAAAAACBAAAIAAAAAQIAAAAAAAAAAA==

> <PUBCHEM_IUPAC_OPENEYE_NAME>
1-(2,4-dichlorophenyl)-4,4-dimethyl-2-(1,2,4-triazol-1-yl)pentan-3-ol

> <PUBCHEM_IUPAC_CAS_NAME>
1-(2,4-dichlorophenyl)-4,4-dimethyl-2-(1,2,4-triazol-1-yl)-3-pentanol

> <PUBCHEM_IUPAC_NAME>
1-(2,4-dichlorophenyl)-4,4-dimethyl-2-(1,2,4-triazol-1-yl)pentan-3-ol

> <PUBCHEM_IUPAC_SYSTEMATIC_NAME>
1-(2,4-dichlorophenyl)-4,4-dimethyl-2-(1,2,4-triazol-1-yl)pentan-3-ol

> <PUBCHEM_IUPAC_TRADITIONAL_NAME>
1-(2,4-dichlorophenyl)-4,4-dimethyl-2-(1,2,4-triazol-1-yl)pentan-3-ol

> <PUBCHEM_IUPAC_INCHI>
InChI=1S/C15H19Cl2N3O/c1-15(2,3)14(21)13(20-9-18-8-19-20)6-10-4-5-11(16)7-12(10)17/h4-5,7-9,13-14,21H,6H2,1-3H3

> <PUBCHEM_IUPAC_INCHIKEY>
URDNHJIVMYZFRT-UHFFFAOYSA-N

> <PUBCHEM_XLOGP3>
3.8

> <PUBCHEM_EXACT_MASS>
327.090518

> <PUBCHEM_MOLECULAR_FORMULA>
C15H19Cl2N3O

> <PUBCHEM_MOLECULAR_WEIGHT>
328.23686

> <PUBCHEM_OPENEYE_CAN_SMILES>
CC(C)(C)C(C(CC1=C(C=C(C=C1)Cl)Cl)N2C=NC=N2)O

> <PUBCHEM_OPENEYE_ISO_SMILES>
CC(C)(C)C(C(CC1=C(C=C(C=C1)Cl)Cl)N2C=NC=N2)O

> <PUBCHEM_CACTVS_TPSA>
50.9

> <PUBCHEM_MONOISOTOPIC_WEIGHT>
327.090518

> <PUBCHEM_TOTAL_CHARGE>
0

> <PUBCHEM_HEAVY_ATOM_COUNT>
21

> <PUBCHEM_ATOM_DEF_STEREO_COUNT>
0

> <PUBCHEM_ATOM_UDEF_STEREO_COUNT>
2

> <PUBCHEM_BOND_DEF_STEREO_COUNT>
0

> <PUBCHEM_BOND_UDEF_STEREO_COUNT>
0

> <PUBCHEM_ISOTOPIC_ATOM_COUNT>
0

> <PUBCHEM_COMPONENT_COUNT>
1

> <PUBCHEM_CACTVS_TAUTO_COUNT>
1

> <PUBCHEM_COORDINATE_TYPE>
1
5
255

> <PUBCHEM_BONDANNOTATIONS>
14  16  8
14  17  8
16  19  8
17  20  8
19  21  8
20  21  8
4  15  8
4  5  8
5  18  8
6  15  8
6  18  8
8  22  3
9  23  3

$$$$

