16559
  -OEChem-07051213012D

 35 37  0     0  0  0  0  0  0999 V2000
    5.4641    1.5600    0.0000 O   0  0  0  0  0  0  0  0  0  0  0  0
    3.7320   -1.4400    0.0000 O   0  0  0  0  0  0  0  0  0  0  0  0
    4.5981    0.0600    0.0000 N   0  0  0  0  0  0  0  0  0  0  0  0
    5.4641   -1.4400    0.0000 N   0  0  0  0  0  0  0  0  0  0  0  0
    3.7320    0.5600    0.0000 C   0  0  0  0  0  0  0  0  0  0  0  0
    3.7320    1.5600    0.0000 C   0  0  0  0  0  0  0  0  0  0  0  0
    2.8660    0.0600    0.0000 C   0  0  0  0  0  0  0  0  0  0  0  0
    2.8660    2.0600    0.0000 C   0  0  0  0  0  0  0  0  0  0  0  0
    2.0000    0.5600    0.0000 C   0  0  0  0  0  0  0  0  0  0  0  0
    2.0000    1.5600    0.0000 C   0  0  0  0  0  0  0  0  0  0  0  0
    6.3301    0.0600    0.0000 C   0  0  0  0  0  0  0  0  0  0  0  0
    6.3301   -0.9400    0.0000 C   0  0  0  0  0  0  0  0  0  0  0  0
    5.4641    0.5600    0.0000 C   0  0  0  0  0  0  0  0  0  0  0  0
    7.2764    0.3647    0.0000 C   0  0  0  0  0  0  0  0  0  0  0  0
    7.2764   -1.2447    0.0000 C   0  0  0  0  0  0  0  0  0  0  0  0
    7.8600   -0.4400    0.0000 C   0  0  0  0  0  0  0  0  0  0  0  0
    4.5981   -0.9400    0.0000 C   0  0  0  0  0  0  0  0  0  0  0  0
    3.7320   -0.0600    0.0000 H   0  0  0  0  0  0  0  0  0  0  0  0
    2.4675   -0.4149    0.0000 H   0  0  0  0  0  0  0  0  0  0  0  0
    3.2646   -0.4149    0.0000 H   0  0  0  0  0  0  0  0  0  0  0  0
    4.3426    1.4523    0.0000 H   0  0  0  0  0  0  0  0  0  0  0  0
    3.9441    2.1426    0.0000 H   0  0  0  0  0  0  0  0  0  0  0  0
    3.2646    2.5349    0.0000 H   0  0  0  0  0  0  0  0  0  0  0  0
    2.4675    2.5349    0.0000 H   0  0  0  0  0  0  0  0  0  0  0  0
    1.3894    0.6677    0.0000 H   0  0  0  0  0  0  0  0  0  0  0  0
    1.7880   -0.0226    0.0000 H   0  0  0  0  0  0  0  0  0  0  0  0
    1.7880    2.1426    0.0000 H   0  0  0  0  0  0  0  0  0  0  0  0
    1.3894    1.4523    0.0000 H   0  0  0  0  0  0  0  0  0  0  0  0
    7.8137    0.6740    0.0000 H   0  0  0  0  0  0  0  0  0  0  0  0
    7.0253    0.9316    0.0000 H   0  0  0  0  0  0  0  0  0  0  0  0
    7.0253   -1.8116    0.0000 H   0  0  0  0  0  0  0  0  0  0  0  0
    7.8137   -1.5540    0.0000 H   0  0  0  0  0  0  0  0  0  0  0  0
    8.3208   -0.8547    0.0000 H   0  0  0  0  0  0  0  0  0  0  0  0
    8.3208   -0.0253    0.0000 H   0  0  0  0  0  0  0  0  0  0  0  0
    5.4641   -2.0600    0.0000 H   0  0  0  0  0  0  0  0  0  0  0  0
  1 13  2  0  0  0  0
  2 17  2  0  0  0  0
  3  5  1  0  0  0  0
  3 13  1  0  0  0  0
  3 17  1  0  0  0  0
  4 12  1  0  0  0  0
  4 17  1  0  0  0  0
  4 35  1  0  0  0  0
  5  6  1  0  0  0  0
  5  7  1  0  0  0  0
  5 18  1  0  0  0  0
  6  8  1  0  0  0  0
  6 21  1  0  0  0  0
  6 22  1  0  0  0  0
  7  9  1  0  0  0  0
  7 19  1  0  0  0  0
  7 20  1  0  0  0  0
  8 10  1  0  0  0  0
  8 23  1  0  0  0  0
  8 24  1  0  0  0  0
  9 10  1  0  0  0  0
  9 25  1  0  0  0  0
  9 26  1  0  0  0  0
 10 27  1  0  0  0  0
 10 28  1  0  0  0  0
 11 12  2  0  0  0  0
 11 13  1  0  0  0  0
 11 14  1  0  0  0  0
 12 15  1  0  0  0  0
 14 16  1  0  0  0  0
 14 29  1  0  0  0  0
 14 30  1  0  0  0  0
 15 16  1  0  0  0  0
 15 31  1  0  0  0  0
 15 32  1  0  0  0  0
 16 33  1  0  0  0  0
 16 34  1  0  0  0  0
M  END
> <PUBCHEM_COMPOUND_CID>
16559

> <PUBCHEM_COMPOUND_CANONICALIZED>
1

> <PUBCHEM_CACTVS_COMPLEXITY>
394

> <PUBCHEM_CACTVS_HBOND_ACCEPTOR>
2

> <PUBCHEM_CACTVS_HBOND_DONOR>
1

> <PUBCHEM_CACTVS_ROTATABLE_BOND>
1

> <PUBCHEM_CACTVS_SUBSKEYS>
AAADceBzMAAAAAAAAAAAAAAAAAAAAQAAAAAwQAAAAAAAAFgAAAAAHgAQAAAADCjBgAQBAAPAAACIAgVQUACAAAAgAAAACAEIAEiAABIAgAAEAAAIlyKIAUMYCAAAAAAAAAAAAAAAAAAAAAAAAAAAAAAAAA==

> <PUBCHEM_IUPAC_OPENEYE_NAME>
3-cyclohexyl-1,5,6,7-tetrahydrocyclopenta[d]pyrimidine-2,4-dione

> <PUBCHEM_IUPAC_CAS_NAME>
3-cyclohexyl-1,5,6,7-tetrahydrocyclopenta[d]pyrimidine-2,4-dione

> <PUBCHEM_IUPAC_NAME>
3-cyclohexyl-1,5,6,7-tetrahydrocyclopenta[d]pyrimidine-2,4-dione

> <PUBCHEM_IUPAC_SYSTEMATIC_NAME>
3-cyclohexyl-1,5,6,7-tetrahydrocyclopenta[d]pyrimidine-2,4-dione

> <PUBCHEM_IUPAC_TRADITIONAL_NAME>
3-cyclohexyl-1,5,6,7-tetrahydrocyclopenta[d]pyrimidine-2,4-quinone

> <PUBCHEM_IUPAC_INCHI>
InChI=1S/C13H18N2O2/c16-12-10-7-4-8-11(10)14-13(17)15(12)9-5-2-1-3-6-9/h9H,1-8H2,(H,14,17)

> <PUBCHEM_IUPAC_INCHIKEY>
ZTMKADLOSYKWCA-UHFFFAOYSA-N

> <PUBCHEM_XLOGP3_AA>
1.7

> <PUBCHEM_EXACT_MASS>
234.136828

> <PUBCHEM_MOLECULAR_FORMULA>
C13H18N2O2

> <PUBCHEM_MOLECULAR_WEIGHT>
234.29422

> <PUBCHEM_OPENEYE_CAN_SMILES>
C1CCC(CC1)N2C(=O)C3=C(CCC3)NC2=O

> <PUBCHEM_OPENEYE_ISO_SMILES>
C1CCC(CC1)N2C(=O)C3=C(CCC3)NC2=O

> <PUBCHEM_CACTVS_TPSA>
49.4

> <PUBCHEM_MONOISOTOPIC_WEIGHT>
234.136828

> <PUBCHEM_TOTAL_CHARGE>
0

> <PUBCHEM_HEAVY_ATOM_COUNT>
17

> <PUBCHEM_ATOM_DEF_STEREO_COUNT>
0

> <PUBCHEM_ATOM_UDEF_STEREO_COUNT>
0

> <PUBCHEM_BOND_DEF_STEREO_COUNT>
0

> <PUBCHEM_BOND_UDEF_STEREO_COUNT>
0

> <PUBCHEM_ISOTOPIC_ATOM_COUNT>
0

> <PUBCHEM_COMPONENT_COUNT>
1

> <PUBCHEM_CACTVS_TAUTO_COUNT>
4

> <PUBCHEM_COORDINATE_TYPE>
1
5
255

> <PUBCHEM_BONDANNOTATIONS>
11  12  8
11  13  8
3  13  8
3  17  8
4  12  8
4  17  8

$$$$

