582731
  -OEChem-06241222433D

 64 67  0     1  0  0  0  0  0999 V2000
   -3.7299   -1.2808    0.9644 O   0  0  0  0  0  0  0  0  0  0  0  0
    1.4378   -1.9413   -0.2822 O   0  0  0  0  0  0  0  0  0  0  0  0
   -2.9519   -1.2333    3.1358 O   0  0  0  0  0  0  0  0  0  0  0  0
    0.3777   -3.9203    0.2472 O   0  0  0  0  0  0  0  0  0  0  0  0
   -2.8184   -0.6189   -2.6957 N   0  0  0  0  0  0  0  0  0  0  0  0
    2.8283    0.2231    2.5547 N   0  0  0  0  0  0  0  0  0  0  0  0
   -5.3235    1.8773    2.0008 N   0  0  0  0  0  0  0  0  0  0  0  0
    4.3854   -2.4786   -2.4293 N   0  0  0  0  0  0  0  0  0  0  0  0
   -4.5270    1.5720   -0.2878 C   0  0  0  0  0  0  0  0  0  0  0  0
    4.5648   -1.1946   -0.3595 C   0  0  0  0  0  0  0  0  0  0  0  0
   -4.4329    1.0646    1.1646 C   0  0  2  0  0  0  0  0  0  0  0  0
    3.6013   -1.7451   -1.4291 C   0  0  2  0  0  0  0  0  0  0  0  0
   -3.6072    0.8553   -1.2358 C   0  0  0  0  0  0  0  0  0  0  0  0
    3.8843   -0.3656    0.6931 C   0  0  0  0  0  0  0  0  0  0  0  0
   -2.2688    1.2180   -1.5553 C   0  0  0  0  0  0  0  0  0  0  0  0
    3.6654    1.0400    0.6549 C   0  0  0  0  0  0  0  0  0  0  0  0
   -4.8080   -0.4140    1.3315 C   0  0  0  0  0  0  0  0  0  0  0  0
    2.5172   -2.6754   -0.8688 C   0  0  0  0  0  0  0  0  0  0  0  0
   -1.7971    0.2770   -2.4731 C   0  0  0  0  0  0  0  0  0  0  0  0
    3.0014    1.3836    1.8344 C   0  0  0  0  0  0  0  0  0  0  0  0
   -3.9163   -0.2777   -1.9525 C   0  0  0  0  0  0  0  0  0  0  0  0
    3.3587   -0.8392    1.8732 C   0  0  0  0  0  0  0  0  0  0  0  0
   -1.4107    2.2597   -1.1504 C   0  0  0  0  0  0  0  0  0  0  0  0
    3.9694    2.0560   -0.2728 C   0  0  0  0  0  0  0  0  0  0  0  0
   -0.5051    0.3260   -3.0084 C   0  0  0  0  0  0  0  0  0  0  0  0
    2.6247    2.6977    2.1339 C   0  0  0  0  0  0  0  0  0  0  0  0
   -0.1156    2.3214   -1.6776 C   0  0  0  0  0  0  0  0  0  0  0  0
    3.5987    3.3751    0.0132 C   0  0  0  0  0  0  0  0  0  0  0  0
    0.3282    1.3682   -2.5922 C   0  0  0  0  0  0  0  0  0  0  0  0
    2.9368    3.6887    1.1987 C   0  0  0  0  0  0  0  0  0  0  0  0
   -1.8035   -2.5331    1.4269 C   0  0  0  0  0  0  0  0  0  0  0  0
   -0.6207   -1.7764    0.8265 C   0  0  0  0  0  0  0  0  0  0  0  0
   -2.8715   -1.6111    1.9750 C   0  0  0  0  0  0  0  0  0  0  0  0
    0.4279   -2.6982    0.2416 C   0  0  0  0  0  0  0  0  0  0  0  0
   -4.3003    2.6460   -0.3216 H   0  0  0  0  0  0  0  0  0  0  0  0
   -5.5587    1.4708   -0.6523 H   0  0  0  0  0  0  0  0  0  0  0  0
    5.3432   -0.5857   -0.8385 H   0  0  0  0  0  0  0  0  0  0  0  0
    5.0915   -2.0250    0.1309 H   0  0  0  0  0  0  0  0  0  0  0  0
   -3.4043    1.2143    1.5169 H   0  0  0  0  0  0  0  0  0  0  0  0
    3.1123   -0.8976   -1.9267 H   0  0  0  0  0  0  0  0  0  0  0  0
   -5.6645   -0.6684    0.6956 H   0  0  0  0  0  0  0  0  0  0  0  0
   -5.1287   -0.6372    2.3576 H   0  0  0  0  0  0  0  0  0  0  0  0
    2.9445   -3.3641   -0.1287 H   0  0  0  0  0  0  0  0  0  0  0  0
    2.0904   -3.2749   -1.6839 H   0  0  0  0  0  0  0  0  0  0  0  0
   -4.8178   -0.8725   -2.0022 H   0  0  0  0  0  0  0  0  0  0  0  0
    3.3133   -1.8356    2.2905 H   0  0  0  0  0  0  0  0  0  0  0  0
   -2.7643   -1.4138   -3.3176 H   0  0  0  0  0  0  0  0  0  0  0  0
    2.3743    0.1646    3.4557 H   0  0  0  0  0  0  0  0  0  0  0  0
   -1.7398    3.0097   -0.4368 H   0  0  0  0  0  0  0  0  0  0  0  0
    4.4826    1.8286   -1.2027 H   0  0  0  0  0  0  0  0  0  0  0  0
   -5.0507    2.8574    1.9398 H   0  0  0  0  0  0  0  0  0  0  0  0
   -5.2131    1.6109    2.9786 H   0  0  0  0  0  0  0  0  0  0  0  0
    5.0754   -1.8557   -2.8475 H   0  0  0  0  0  0  0  0  0  0  0  0
    3.7764   -2.7801   -3.1890 H   0  0  0  0  0  0  0  0  0  0  0  0
   -0.1578   -0.4168   -3.7186 H   0  0  0  0  0  0  0  0  0  0  0  0
    2.1087    2.9427    3.0561 H   0  0  0  0  0  0  0  0  0  0  0  0
    0.5504    3.1223   -1.3685 H   0  0  0  0  0  0  0  0  0  0  0  0
    3.8292    4.1625   -0.6994 H   0  0  0  0  0  0  0  0  0  0  0  0
    1.3391    1.4336   -2.9866 H   0  0  0  0  0  0  0  0  0  0  0  0
    2.6572    4.7197    1.4000 H   0  0  0  0  0  0  0  0  0  0  0  0
   -1.4687   -3.1797    2.2472 H   0  0  0  0  0  0  0  0  0  0  0  0
   -2.2581   -3.2054    0.6886 H   0  0  0  0  0  0  0  0  0  0  0  0
   -0.9754   -1.1139    0.0324 H   0  0  0  0  0  0  0  0  0  0  0  0
   -0.1490   -1.1618    1.6016 H   0  0  0  0  0  0  0  0  0  0  0  0
  1 17  1  0  0  0  0
  1 33  1  0  0  0  0
  2 18  1  0  0  0  0
  2 34  1  0  0  0  0
  3 33  2  0  0  0  0
  4 34  2  0  0  0  0
  5 19  1  0  0  0  0
  5 21  1  0  0  0  0
  5 47  1  0  0  0  0
  6 20  1  0  0  0  0
  6 22  1  0  0  0  0
  6 48  1  0  0  0  0
  7 11  1  0  0  0  0
  7 51  1  0  0  0  0
  7 52  1  0  0  0  0
  8 12  1  0  0  0  0
  8 53  1  0  0  0  0
  8 54  1  0  0  0  0
  9 11  1  0  0  0  0
  9 13  1  0  0  0  0
  9 35  1  0  0  0  0
  9 36  1  0  0  0  0
 10 12  1  0  0  0  0
 10 14  1  0  0  0  0
 10 37  1  0  0  0  0
 10 38  1  0  0  0  0
 11 17  1  0  0  0  0
 11 39  1  0  0  0  0
 12 18  1  0  0  0  0
 12 40  1  0  0  0  0
 13 15  1  0  0  0  0
 13 21  2  0  0  0  0
 14 16  1  0  0  0  0
 14 22  2  0  0  0  0
 15 19  1  0  0  0  0
 15 23  2  0  0  0  0
 16 20  1  0  0  0  0
 16 24  2  0  0  0  0
 17 41  1  0  0  0  0
 17 42  1  0  0  0  0
 18 43  1  0  0  0  0
 18 44  1  0  0  0  0
 19 25  2  0  0  0  0
 20 26  2  0  0  0  0
 21 45  1  0  0  0  0
 22 46  1  0  0  0  0
 23 27  1  0  0  0  0
 23 49  1  0  0  0  0
 24 28  1  0  0  0  0
 24 50  1  0  0  0  0
 25 29  1  0  0  0  0
 25 55  1  0  0  0  0
 26 30  1  0  0  0  0
 26 56  1  0  0  0  0
 27 29  2  0  0  0  0
 27 57  1  0  0  0  0
 28 30  2  0  0  0  0
 28 58  1  0  0  0  0
 29 59  1  0  0  0  0
 30 60  1  0  0  0  0
 31 32  1  0  0  0  0
 31 33  1  0  0  0  0
 31 61  1  0  0  0  0
 31 62  1  0  0  0  0
 32 34  1  0  0  0  0
 32 63  1  0  0  0  0
 32 64  1  0  0  0  0
M  END
> <PUBCHEM_COMPOUND_CID>
582731

> <PUBCHEM_CONFORMER_RMSD>
1.8

> <PUBCHEM_CONFORMER_DIVERSEORDER>
1
137
13
51
82
75
28
5
135
15
44
70
107
84
53
19
108
138
3
149
133
132
40
38
110
87
9
143
136
92
102
129
91
142
131
7
99
21
94
2
125
42
18
100
140
127
147
105
72
29
43
60
10
63
97
11
46
124
50
37
116
68
48
77
57
27
64
73
66
139
111
80
90
103
45
151
61
4
101
146
123
122
83
106
22
109
24
32
98
141
144
113
148
96
117
23
89
79
112
41
128
78
74
17
121
114
55
145
65
95
150
119
134
118
12
54
115
8
67
14
59
62
31
25
35
130
86
104
52
20
30
47
76
39
93
56
120
36
58
71
16
126
88
81
34
49
85
33
6
69
26

> <PUBCHEM_MMFF94_PARTIAL_CHARGES>
48
1 -0.43
10 0.18
11 0.27
12 0.27
13 -0.18
14 -0.18
17 0.28
18 0.28
19 -0.15
2 -0.43
20 -0.15
21 -0.3
22 -0.3
23 -0.15
24 -0.15
25 -0.15
26 -0.15
27 -0.15
28 -0.15
29 -0.15
3 -0.57
30 -0.15
31 0.06
32 0.06
33 0.66
34 0.66
4 -0.57
45 0.15
46 0.15
47 0.27
48 0.27
49 0.15
5 0.03
50 0.15
51 0.36
52 0.36
53 0.36
54 0.36
55 0.15
56 0.15
57 0.15
58 0.15
59 0.15
6 0.03
60 0.15
7 -0.99
8 -0.99
9 0.18

> <PUBCHEM_EFFECTIVE_ROTOR_COUNT>
13

> <PUBCHEM_PHARMACOPHORE_FEATURES>
14
1 3 acceptor
1 4 acceptor
1 5 cation
1 5 donor
1 6 cation
1 6 donor
1 7 cation
1 7 donor
1 8 cation
1 8 donor
5 5 13 15 19 21 rings
5 6 14 16 20 22 rings
6 15 19 23 25 27 29 rings
6 16 20 24 26 28 30 rings

> <PUBCHEM_HEAVY_ATOM_COUNT>
34

> <PUBCHEM_ATOM_DEF_STEREO_COUNT>
0

> <PUBCHEM_ATOM_UDEF_STEREO_COUNT>
2

> <PUBCHEM_BOND_DEF_STEREO_COUNT>
0

> <PUBCHEM_BOND_UDEF_STEREO_COUNT>
0

> <PUBCHEM_ISOTOPIC_ATOM_COUNT>
0

> <PUBCHEM_COMPONENT_COUNT>
1

> <PUBCHEM_CACTVS_TAUTO_COUNT>
1

> <PUBCHEM_CONFORMER_ID>
0008E44B00000001

> <PUBCHEM_MMFF94_ENERGY>
39.9374

> <PUBCHEM_FEATURE_SELFOVERLAP>
71.224

> <PUBCHEM_SHAPE_FINGERPRINT>
11112241 14 18339094726357665597
11513181 2 18191012418149545318
11595378 159 16343697772467880243
12100795 323 18196379117398456240
12422481 6 17632568328525801945
12633257 1 18269575925752484976
12786520 15 17971761226905965582
13726171 33 16987697155909660572
14279260 333 17613992315677136054
14289585 56 17172062252385781622
14904385 31 18267032652474006952
15001296 14 17201612507691937895
150020 26 16985212328556111042
161222 619 18269286672347655132
17921350 177 18271540744789533034
20764821 26 18270133335382847110
21860390 5 17460006635339517802
35225 105 17058680493049206714
392239 28 18343024427674323175
5081480 168 17823117043630304102
574716 61 17167871875901310347
6287921 2 18042708159770395302
6823239 73 17917703596218985516

> <PUBCHEM_SHAPE_MULTIPOLES>
656.3
10.43
4.15
3.29
3.27
0.29
-0.51
-2.21
3.18
-3.33
0.58
1.29
-0.13
2.87

> <PUBCHEM_SHAPE_SELFOVERLAP>
1407.88

> <PUBCHEM_SHAPE_VOLUME>
362.4

> <PUBCHEM_COORDINATE_TYPE>
2
5
10

$$$$

