9543295
  -OEChem-07051213113D

 19 18  0     0  0  0  0  0  0999 V2000
    0.6108    1.9032   -0.0651 Cl  0  0  0  0  0  0  0  0  0  0  0  0
    2.3867   -2.4502   -0.0333 Cl  0  0  0  0  0  0  0  0  0  0  0  0
   -2.9266   -0.9600   -1.2065 O   0  0  0  0  0  0  0  0  0  0  0  0
   -3.0291   -1.1327    1.0643 O   0  0  0  0  0  0  0  0  0  0  0  0
    2.9088    0.6788    1.1960 O   0  0  0  0  0  0  0  0  0  0  0  0
    2.9736    0.7806   -1.0685 O   0  0  0  0  0  0  0  0  0  0  0  0
   -1.7833    0.6534    0.0223 C   0  0  0  0  0  0  0  0  0  0  0  0
   -0.4404    0.5130    0.0026 C   0  0  0  0  0  0  0  0  0  0  0  0
   -2.5340    1.9570    0.0715 C   0  0  0  0  0  0  0  0  0  0  0  0
    0.2885   -0.7453    0.0112 C   0  0  0  0  0  0  0  0  0  0  0  0
   -2.6377   -0.5668    0.0563 C   0  0  0  0  0  0  0  0  0  0  0  0
    1.6247   -0.8930   -0.0083 C   0  0  0  0  0  0  0  0  0  0  0  0
    2.5578    0.2620   -0.0424 C   0  0  0  0  0  0  0  0  0  0  0  0
   -3.0178    2.1452   -0.8925 H   0  0  0  0  0  0  0  0  0  0  0  0
   -3.3130    1.9142    0.8409 H   0  0  0  0  0  0  0  0  0  0  0  0
   -1.9043    2.8177    0.3089 H   0  0  0  0  0  0  0  0  0  0  0  0
   -0.3117   -1.6527    0.0282 H   0  0  0  0  0  0  0  0  0  0  0  0
   -3.4905   -1.7625   -1.2211 H   0  0  0  0  0  0  0  0  0  0  0  0
    3.5262    1.4406    1.1661 H   0  0  0  0  0  0  0  0  0  0  0  0
  1  8  1  0  0  0  0
  2 12  1  0  0  0  0
  3 11  1  0  0  0  0
  3 18  1  0  0  0  0
  4 11  2  0  0  0  0
  5 13  1  0  0  0  0
  5 19  1  0  0  0  0
  6 13  2  0  0  0  0
  7  8  2  0  0  0  0
  7  9  1  0  0  0  0
  7 11  1  0  0  0  0
  8 10  1  0  0  0  0
  9 14  1  0  0  0  0
  9 15  1  0  0  0  0
  9 16  1  0  0  0  0
 10 12  2  0  0  0  0
 10 17  1  0  0  0  0
 12 13  1  0  0  0  0
M  END
> <PUBCHEM_COMPOUND_CID>
9543295

> <PUBCHEM_CONFORMER_RMSD>
0.6

> <PUBCHEM_CONFORMER_DIVERSEORDER>
1
3
2
4

> <PUBCHEM_MMFF94_PARTIAL_CHARGES>
16
1 -0.14
10 -0.15
11 0.71
12 0.15
13 0.71
17 0.15
18 0.5
19 0.5
2 -0.14
3 -0.65
4 -0.57
5 -0.65
6 -0.57
7 -0.12
8 0.14
9 0.14

> <PUBCHEM_EFFECTIVE_ROTOR_COUNT>
3

> <PUBCHEM_PHARMACOPHORE_FEATURES>
7
1 3 acceptor
1 4 acceptor
1 5 acceptor
1 6 acceptor
1 9 hydrophobe
3 3 4 11 anion
3 5 6 13 anion

> <PUBCHEM_HEAVY_ATOM_COUNT>
13

> <PUBCHEM_ATOM_DEF_STEREO_COUNT>
0

> <PUBCHEM_ATOM_UDEF_STEREO_COUNT>
0

> <PUBCHEM_BOND_DEF_STEREO_COUNT>
2

> <PUBCHEM_BOND_UDEF_STEREO_COUNT>
0

> <PUBCHEM_ISOTOPIC_ATOM_COUNT>
0

> <PUBCHEM_COMPONENT_COUNT>
1

> <PUBCHEM_CACTVS_TAUTO_COUNT>
1

> <PUBCHEM_CONFORMER_ID>
00919E7F00000001

> <PUBCHEM_MMFF94_ENERGY>
54.0094

> <PUBCHEM_FEATURE_SELFOVERLAP>
35.636

> <PUBCHEM_SHAPE_FINGERPRINT>
107287 299 18335689525571138018
10857977 72 18411986836155425217
12716758 59 18126850619137267081
12897270 3 18411982429582133493
12932764 1 18040151824915516395
13296908 3 18341608265256150523
13380535 21 18266727146817112569
14325111 11 18411135865848017260
14965852 173 18194401314875888450
16945 1 18338235951239774639
17990270 104 18341611546616218634
18186145 218 17275101764500548610
19973954 147 18340764952585313700
20201158 50 18343304730135647907
20525323 117 18411426115442959169
20645477 70 18336551620039086583
21501502 16 18338516459843555951
21524375 3 17759802946313818585
2334 1 18410854399292507587
23552423 10 18199746006485950234
2748010 2 18337954609391271582
3248919 1 18130792269264153075
7364860 26 18188776179445276874
8030462 33 18410013251480289063
81228 2 18199755906560180029
9939556 21 18194681690177187695

> <PUBCHEM_SHAPE_MULTIPOLES>
247.8
5.41
2.15
0.9
0.57
0.19
0
0.88
0.04
-0.34
0
0
0.05
-0.01

> <PUBCHEM_SHAPE_SELFOVERLAP>
480.946

> <PUBCHEM_SHAPE_VOLUME>
150.2

> <PUBCHEM_COORDINATE_TYPE>
2
5
10

$$$$

