5027
  -OEChem-06261200283D

 41 43  0     1  0  0  0  0  0999 V2000
   -1.0748    4.5836    0.7779 Cl  0  0  0  0  0  0  0  0  0  0  0  0
   -3.6097   -2.4521   -1.4558 S   0  0  0  0  0  0  0  0  0  0  0  0
    1.3522   -1.4271    0.9589 N   0  0  2  0  0  0  0  0  0  0  0  0
   -1.5412   -1.1427   -0.1873 N   0  0  0  0  0  0  0  0  0  0  0  0
   -3.1847    0.1512   -0.9408 N   0  0  0  0  0  0  0  0  0  0  0  0
    0.2569   -2.3976    1.0951 C   0  0  1  0  0  0  0  0  0  0  0  0
   -0.7925   -2.3722   -0.0264 C   0  0  0  0  0  0  0  0  0  0  0  0
    1.0319   -0.1101    1.5157 C   0  0  0  0  0  0  0  0  0  0  0  0
   -1.1886    0.1329    0.1816 C   0  0  0  0  0  0  0  0  0  0  0  0
   -0.0901    0.6726    0.8746 C   0  0  0  0  0  0  0  0  0  0  0  0
    1.9882   -1.3496   -0.3518 C   0  0  0  0  0  0  0  0  0  0  0  0
    0.8466   -3.8109    1.2153 C   0  0  0  0  0  0  0  0  0  0  0  0
   -2.2339    0.9189   -0.3134 C   0  0  0  0  0  0  0  0  0  0  0  0
   -2.7389   -1.0782   -0.8496 C   0  0  0  0  0  0  0  0  0  0  0  0
   -0.1105    2.0746    1.0499 C   0  0  0  0  0  0  0  0  0  0  0  0
   -2.2115    2.3110   -0.1313 C   0  0  0  0  0  0  0  0  0  0  0  0
    3.2766   -0.5830   -0.2906 C   0  0  0  0  0  0  0  0  0  0  0  0
   -1.1379    2.8767    0.5543 C   0  0  0  0  0  0  0  0  0  0  0  0
    3.6097    0.5448   -0.9476 C   0  0  0  0  0  0  0  0  0  0  0  0
    4.9243    1.2641   -0.8396 C   0  0  0  0  0  0  0  0  0  0  0  0
    2.6281    1.1929   -1.8890 C   0  0  0  0  0  0  0  0  0  0  0  0
   -0.2573   -2.2152    2.0495 H   0  0  0  0  0  0  0  0  0  0  0  0
   -0.3509   -2.6079   -1.0022 H   0  0  0  0  0  0  0  0  0  0  0  0
   -1.5166   -3.1631    0.2027 H   0  0  0  0  0  0  0  0  0  0  0  0
    1.9329    0.5137    1.5561 H   0  0  0  0  0  0  0  0  0  0  0  0
    0.7606   -0.2428    2.5727 H   0  0  0  0  0  0  0  0  0  0  0  0
    2.2638   -2.3570   -0.6865 H   0  0  0  0  0  0  0  0  0  0  0  0
    1.3048   -0.9727   -1.1142 H   0  0  0  0  0  0  0  0  0  0  0  0
    0.0621   -4.5310    1.4742 H   0  0  0  0  0  0  0  0  0  0  0  0
    1.3084   -4.1494    0.2822 H   0  0  0  0  0  0  0  0  0  0  0  0
    1.6027   -3.8545    2.0073 H   0  0  0  0  0  0  0  0  0  0  0  0
    0.7091    2.5430    1.5950 H   0  0  0  0  0  0  0  0  0  0  0  0
   -3.0189    2.9247   -0.5197 H   0  0  0  0  0  0  0  0  0  0  0  0
    4.0300   -1.0108    0.3711 H   0  0  0  0  0  0  0  0  0  0  0  0
   -4.6647   -1.7929   -1.9561 H   0  0  0  0  0  0  0  0  0  0  0  0
    5.6116    0.7447   -0.1638 H   0  0  0  0  0  0  0  0  0  0  0  0
    5.4053    1.3295   -1.8208 H   0  0  0  0  0  0  0  0  0  0  0  0
    4.7762    2.2771   -0.4522 H   0  0  0  0  0  0  0  0  0  0  0  0
    2.9144    0.9873   -2.9256 H   0  0  0  0  0  0  0  0  0  0  0  0
    1.5885    0.8940   -1.7538 H   0  0  0  0  0  0  0  0  0  0  0  0
    2.6417    2.2800   -1.7463 H   0  0  0  0  0  0  0  0  0  0  0  0
  1 18  1  0  0  0  0
  2 14  1  0  0  0  0
  2 35  1  0  0  0  0
  3  6  1  0  0  0  0
  3  8  1  0  0  0  0
  3 11  1  0  0  0  0
  4  7  1  0  0  0  0
  4  9  1  0  0  0  0
  4 14  1  0  0  0  0
  5 13  1  0  0  0  0
  5 14  2  0  0  0  0
  6  7  1  0  0  0  0
  6 12  1  0  0  0  0
  6 22  1  0  0  0  0
  7 23  1  0  0  0  0
  7 24  1  0  0  0  0
  8 10  1  0  0  0  0
  8 25  1  0  0  0  0
  8 26  1  0  0  0  0
  9 10  2  0  0  0  0
  9 13  1  0  0  0  0
 10 15  1  0  0  0  0
 11 17  1  0  0  0  0
 11 27  1  0  0  0  0
 11 28  1  0  0  0  0
 12 29  1  0  0  0  0
 12 30  1  0  0  0  0
 12 31  1  0  0  0  0
 13 16  2  0  0  0  0
 15 18  2  0  0  0  0
 15 32  1  0  0  0  0
 16 18  1  0  0  0  0
 16 33  1  0  0  0  0
 17 19  2  0  0  0  0
 17 34  1  0  0  0  0
 19 20  1  0  0  0  0
 19 21  1  0  0  0  0
 20 36  1  0  0  0  0
 20 37  1  0  0  0  0
 20 38  1  0  0  0  0
 21 39  1  0  0  0  0
 21 40  1  0  0  0  0
 21 41  1  0  0  0  0
M  END
> <PUBCHEM_COMPOUND_CID>
5027

> <PUBCHEM_CONFORMER_RMSD>
0.6

> <PUBCHEM_CONFORMER_DIVERSEORDER>
3
22
53
31
11
30
58
17
5
36
29
10
20
14
52
54
46
50
18
33
12
28
41
44
13
34
48
49
1
26
6
2
16
32
23
55
57
37
39
19
21
56
47
15
35
43
8
4
25
24
45
27
51
38
9
7
42
40

> <PUBCHEM_MMFF94_PARTIAL_CHARGES>
24
1 -0.18
10 -0.14
11 0.41
13 0.23
14 0.24
15 -0.15
16 -0.15
17 -0.29
18 0.18
19 -0.28
2 -0.24
20 0.14
21 0.14
3 -0.81
32 0.15
33 0.15
34 0.15
35 0.18
4 0.05
5 -0.57
6 0.27
7 0.26
8 0.41
9 -0.15

> <PUBCHEM_EFFECTIVE_ROTOR_COUNT>
2.8

> <PUBCHEM_PHARMACOPHORE_FEATURES>
6
1 3 cation
3 19 20 21 hydrophobe
3 4 5 14 cation
5 4 5 9 13 14 rings
6 9 10 13 15 16 18 rings
7 3 4 6 7 8 9 10 rings

> <PUBCHEM_HEAVY_ATOM_COUNT>
21

> <PUBCHEM_ATOM_DEF_STEREO_COUNT>
0

> <PUBCHEM_ATOM_UDEF_STEREO_COUNT>
1

> <PUBCHEM_BOND_DEF_STEREO_COUNT>
0

> <PUBCHEM_BOND_UDEF_STEREO_COUNT>
0

> <PUBCHEM_ISOTOPIC_ATOM_COUNT>
0

> <PUBCHEM_COMPONENT_COUNT>
1

> <PUBCHEM_CACTVS_TAUTO_COUNT>
2

> <PUBCHEM_CONFORMER_ID>
000013A300000003

> <PUBCHEM_MMFF94_ENERGY>
46.567

> <PUBCHEM_FEATURE_SELFOVERLAP>
30.591

> <PUBCHEM_SHAPE_FINGERPRINT>
11640471 11 18127116688098117484
12035758 1 17834955269813695954
121448 382 18409727353130388266
12293681 160 18340775840364286953
12553582 1 18336000700636993223
12788726 201 18410568457971860724
13009979 54 18198363916138620826
13140716 1 18264793028891911073
13149001 5 17835806296108418166
13583140 156 16477386524191320529
13965767 371 15960072998521995587
14790565 3 18117270574699800393
15420108 30 17619077565549834962
15475509 8 17894898638917300495
15848702 105 17987239936895511838
16945 1 18046933711857756259
17134986 127 17544184343292044076
17492 54 18199188373696734686
17980427 23 17397858020474290146
192875 21 18271804558871551292
19765921 60 17846503646603529003
20645476 183 17832985327434219825
20739085 24 15014844872827080809
20775438 99 16821109801399339646
20871999 31 18336267838506234087
22149856 69 16960698842224653889
22182313 1 17046553665837520003
22907989 373 17837452360100345156
2334 1 18120962541371123081
23419403 2 16679466315509195951
23557571 272 17822584922593378474
23558518 356 18267011937735539438
23559900 14 17462579621925514730
23598291 2 17765718313958834850
2748010 2 16899906285202338867
353137 74 18412821404298935106
394222 165 17417546773107866498
474 4 17987224724311000184
6992083 37 17115234118188964698
7832392 63 17691961983430601144
9981440 41 18342175536600910490

> <PUBCHEM_SHAPE_MULTIPOLES>
422.95
5.92
4.71
1.48
4.85
2.53
-0.14
-0.42
-4.19
-2.39
1.86
0.36
-0.33
-1.59

> <PUBCHEM_SHAPE_SELFOVERLAP>
881.489

> <PUBCHEM_SHAPE_VOLUME>
244.5

> <PUBCHEM_COORDINATE_TYPE>
2
5
10

$$$$

