442869
  -OEChem-07051213003D

 39 41  0     1  0  0  0  0  0999 V2000
   -0.1544    2.7354    0.1002 O   0  0  0  0  0  0  0  0  0  0  0  0
    0.6555   -1.8108   -0.7755 O   0  0  0  0  0  0  0  0  0  0  0  0
    1.9519    2.0393    0.6764 O   0  0  0  0  0  0  0  0  0  0  0  0
   -3.7008   -1.2560   -0.0852 N   0  0  0  0  0  0  0  0  0  0  0  0
   -5.4161    0.1050    0.2852 N   0  0  0  0  0  0  0  0  0  0  0  0
   -1.0461    0.6863   -0.6067 C   0  0  1  0  0  0  0  0  0  0  0  0
    0.4775    0.5866   -0.6138 C   0  0  2  0  0  0  0  0  0  0  0  0
   -1.7196    0.0928    0.6332 C   0  0  0  0  0  0  0  0  0  0  0  0
   -1.2411    2.1906   -0.6585 C   0  0  0  0  0  0  0  0  0  0  0  0
    1.0667   -0.6762   -0.0118 C   0  0  2  0  0  0  0  0  0  0  0  0
    0.8751    1.8335    0.1386 C   0  0  0  0  0  0  0  0  0  0  0  0
   -3.1928   -0.1089    0.4135 C   0  0  0  0  0  0  0  0  0  0  0  0
    2.5781   -0.6373    0.0377 C   0  0  0  0  0  0  0  0  0  0  0  0
   -4.2411    0.7200    0.6382 C   0  0  0  0  0  0  0  0  0  0  0  0
    3.2399   -1.3208    1.0435 C   0  0  0  0  0  0  0  0  0  0  0  0
    3.2681    0.0814   -0.9238 C   0  0  0  0  0  0  0  0  0  0  0  0
   -5.0556   -1.0830   -0.1468 C   0  0  0  0  0  0  0  0  0  0  0  0
   -2.9853   -2.4450   -0.4834 C   0  0  0  0  0  0  0  0  0  0  0  0
    4.6336   -1.2847    1.0891 C   0  0  0  0  0  0  0  0  0  0  0  0
    4.6618    0.1174   -0.8783 C   0  0  0  0  0  0  0  0  0  0  0  0
    5.3446   -0.5657    0.1281 C   0  0  0  0  0  0  0  0  0  0  0  0
   -1.4615    0.2176   -1.5074 H   0  0  0  0  0  0  0  0  0  0  0  0
    0.7752    0.7139   -1.6621 H   0  0  0  0  0  0  0  0  0  0  0  0
   -1.5686    0.7354    1.5103 H   0  0  0  0  0  0  0  0  0  0  0  0
   -1.3053   -0.8816    0.9024 H   0  0  0  0  0  0  0  0  0  0  0  0
   -1.1631    2.5748   -1.6819 H   0  0  0  0  0  0  0  0  0  0  0  0
   -2.1852    2.5394   -0.2339 H   0  0  0  0  0  0  0  0  0  0  0  0
    0.7224   -0.8082    1.0198 H   0  0  0  0  0  0  0  0  0  0  0  0
    1.1878   -2.5764   -0.4998 H   0  0  0  0  0  0  0  0  0  0  0  0
   -4.2342    1.7244    1.0359 H   0  0  0  0  0  0  0  0  0  0  0  0
    2.6961   -1.8858    1.7948 H   0  0  0  0  0  0  0  0  0  0  0  0
    2.7939    0.6007   -1.7475 H   0  0  0  0  0  0  0  0  0  0  0  0
   -5.7264   -1.8494   -0.5111 H   0  0  0  0  0  0  0  0  0  0  0  0
   -2.2406   -2.1724   -1.2345 H   0  0  0  0  0  0  0  0  0  0  0  0
   -2.5095   -2.8773    0.4001 H   0  0  0  0  0  0  0  0  0  0  0  0
   -3.6878   -3.1649   -0.9114 H   0  0  0  0  0  0  0  0  0  0  0  0
    5.1654   -1.8173    1.8721 H   0  0  0  0  0  0  0  0  0  0  0  0
    5.2165    0.6706   -1.6307 H   0  0  0  0  0  0  0  0  0  0  0  0
    6.4297   -0.5394    0.1625 H   0  0  0  0  0  0  0  0  0  0  0  0
  1  9  1  0  0  0  0
  1 11  1  0  0  0  0
  2 10  1  0  0  0  0
  2 29  1  0  0  0  0
  3 11  2  0  0  0  0
  4 12  1  0  0  0  0
  4 17  1  0  0  0  0
  4 18  1  0  0  0  0
  5 14  1  0  0  0  0
  5 17  2  0  0  0  0
  6  7  1  0  0  0  0
  6  8  1  0  0  0  0
  6  9  1  0  0  0  0
  6 22  1  0  0  0  0
  7 10  1  0  0  0  0
  7 11  1  0  0  0  0
  7 23  1  0  0  0  0
  8 12  1  0  0  0  0
  8 24  1  0  0  0  0
  8 25  1  0  0  0  0
  9 26  1  0  0  0  0
  9 27  1  0  0  0  0
 10 13  1  0  0  0  0
 10 28  1  0  0  0  0
 12 14  2  0  0  0  0
 13 15  2  0  0  0  0
 13 16  1  0  0  0  0
 14 30  1  0  0  0  0
 15 19  1  0  0  0  0
 15 31  1  0  0  0  0
 16 20  2  0  0  0  0
 16 32  1  0  0  0  0
 17 33  1  0  0  0  0
 18 34  1  0  0  0  0
 18 35  1  0  0  0  0
 18 36  1  0  0  0  0
 19 21  2  0  0  0  0
 19 37  1  0  0  0  0
 20 21  1  0  0  0  0
 20 38  1  0  0  0  0
 21 39  1  0  0  0  0
M  END
> <PUBCHEM_COMPOUND_CID>
442869

> <PUBCHEM_CONFORMER_RMSD>
0.8

> <PUBCHEM_CONFORMER_DIVERSEORDER>
2
14
15
10
8
5
13
6
11
1
9
3
7
12
4

> <PUBCHEM_MMFF94_PARTIAL_CHARGES>
28
1 -0.43
10 0.42
11 0.66
12 -0.33
13 -0.14
14 0.08
15 -0.15
16 -0.15
17 0.04
18 0.26
19 -0.15
2 -0.68
20 -0.15
21 -0.15
29 0.4
3 -0.57
30 0.15
31 0.15
32 0.15
33 0.15
37 0.15
38 0.15
39 0.15
4 0.05
5 -0.57
7 0.06
8 0.18
9 0.28

> <PUBCHEM_EFFECTIVE_ROTOR_COUNT>
4.8

> <PUBCHEM_PHARMACOPHORE_FEATURES>
7
1 2 acceptor
1 2 donor
1 3 acceptor
3 4 5 17 cation
5 1 6 7 9 11 rings
5 4 5 12 14 17 rings
6 13 15 16 19 20 21 rings

> <PUBCHEM_HEAVY_ATOM_COUNT>
21

> <PUBCHEM_ATOM_DEF_STEREO_COUNT>
3

> <PUBCHEM_ATOM_UDEF_STEREO_COUNT>
0

> <PUBCHEM_BOND_DEF_STEREO_COUNT>
0

> <PUBCHEM_BOND_UDEF_STEREO_COUNT>
0

> <PUBCHEM_ISOTOPIC_ATOM_COUNT>
0

> <PUBCHEM_COMPONENT_COUNT>
1

> <PUBCHEM_CACTVS_TAUTO_COUNT>
2

> <PUBCHEM_CONFORMER_ID>
0006C1F500000002

> <PUBCHEM_MMFF94_ENERGY>
51.4699

> <PUBCHEM_FEATURE_SELFOVERLAP>
35.52

> <PUBCHEM_SHAPE_FINGERPRINT>
10090160 65 17704070694629255738
10447042 23 18130795568136964902
10906281 52 18268688637069681777
11045977 3 17531253833061698386
11046707 91 18411418414619214981
11132069 177 18261107499811347470
11796584 16 17060621109460213091
12011746 2 18408881845356970119
12236239 1 18131630115037721190
12553582 1 18410583885119919711
12596599 1 17969203599429207995
12633257 1 18261384555751721561
12788726 201 18341604979569408600
12839892 36 18265626544452779562
12916748 109 9583518737075268919
13140716 1 18335425599561572155
13544653 18 18059849588580357392
13675066 3 16588023528240787416
13862211 1 18410576188470083350
14251752 14 17489315234616869525
14251764 18 18342451570028084377
14787075 74 18273494563961674154
14790565 3 18337102363700636244
15196674 1 18337107848273275999
15375462 189 18272936037307700514
15527383 91 18335421261929576201
15788980 27 17418375804743307767
15927050 60 17759239596959801580
1601671 61 18260824908296114254
17492 89 18055359295305801258
1813 80 17917136286483141703
18222031 100 18260269637543556743
19141452 34 18334294258416475183
200 152 17918274276944474426
20028762 73 17823141133738877759
20261772 1 18259708895514860814
20281475 54 18343022177042894685
20374829 77 18342459244469789585
21250096 35 18413389838814908147
21267235 1 18337662041120923943
21421861 104 17842838003770296395
221490 88 18125151633180727291
22182313 1 18197523799097824068
22950370 63 18413105065292803514
23402539 116 18202004356082479503
23557571 272 18042112318989225228
23559900 14 18261681359583120073
23622692 118 17970075444243110247
26918003 58 17346594179528781418
3004659 81 17989487450542741362
314194 84 18343300362090883987
335352 9 18410292511045211421
3411729 13 18042693789116505376
34934 24 18340207509318068555
351380 3 18272370879714877658
4325135 7 18343299254658935740
465052 167 18410849945432748054
5104073 3 18189327988495950995
5283173 99 17703239540989995333
5486654 2 18343576331420485782
76465 3 18342464741764190979
83771 10 18344147003128928405
8863177 126 17843106023300537371

> <PUBCHEM_SHAPE_MULTIPOLES>
404.6
11.05
2.28
0.96
1.41
0.69
-0.02
-4.65
-1.1
0.69
0.07
-0.54
-0.09
-0.74

> <PUBCHEM_SHAPE_SELFOVERLAP>
877.56

> <PUBCHEM_SHAPE_VOLUME>
224.7

> <PUBCHEM_COORDINATE_TYPE>
2
5
10

$$$$

