5281242
  -OEChem-07051212553D

 98 99  0     1  0  0  0  0  0999 V2000
   15.4988    1.0369    1.6894 O   0  0  0  0  0  0  0  0  0  0  0  0
  -15.4679    0.5215    0.5114 O   0  0  0  0  0  0  0  0  0  0  0  0
   12.4766    1.2191   -0.5665 C   0  0  0  0  0  0  0  0  0  0  0  0
  -12.5995    0.7329   -1.0427 C   0  0  0  0  0  0  0  0  0  0  0  0
   11.6218    0.3134    0.3908 C   0  0  2  0  0  0  0  0  0  0  0  0
  -11.7357   -0.4105   -0.4043 C   0  0  2  0  0  0  0  0  0  0  0  0
   13.7260    1.7003    0.2059 C   0  0  0  0  0  0  0  0  0  0  0  0
  -13.3060    1.5355    0.0806 C   0  0  0  0  0  0  0  0  0  0  0  0
   14.5922    0.5419    0.7062 C   0  0  2  0  0  0  0  0  0  0  0  0
  -14.1448    0.6635    1.0259 C   0  0  2  0  0  0  0  0  0  0  0  0
   12.4526   -0.6838    1.1976 C   0  0  0  0  0  0  0  0  0  0  0  0
  -12.5161   -1.2141    0.6266 C   0  0  0  0  0  0  0  0  0  0  0  0
   12.9146    0.4770   -1.8513 C   0  0  0  0  0  0  0  0  0  0  0  0
   11.6654    2.4622   -0.9926 C   0  0  0  0  0  0  0  0  0  0  0  0
  -11.7378    1.7038   -1.8807 C   0  0  0  0  0  0  0  0  0  0  0  0
  -13.6421    0.1206   -2.0104 C   0  0  0  0  0  0  0  0  0  0  0  0
   13.7882   -0.5653    1.3158 C   0  0  0  0  0  0  0  0  0  0  0  0
  -13.5949   -0.7125    1.2547 C   0  0  0  0  0  0  0  0  0  0  0  0
   10.4797   -0.3458   -0.3365 C   0  0  0  0  0  0  0  0  0  0  0  0
  -10.4569    0.0873    0.2173 C   0  0  0  0  0  0  0  0  0  0  0  0
   11.7264   -1.7787    1.9351 C   0  0  0  0  0  0  0  0  0  0  0  0
  -12.0327   -2.6112    0.9013 C   0  0  0  0  0  0  0  0  0  0  0  0
    9.1879   -0.1091   -0.0565 C   0  0  0  0  0  0  0  0  0  0  0  0
   -9.2353   -0.2783   -0.2006 C   0  0  0  0  0  0  0  0  0  0  0  0
    8.0240   -0.7096   -0.7116 C   0  0  0  0  0  0  0  0  0  0  0  0
   -7.9875    0.2115    0.3635 C   0  0  0  0  0  0  0  0  0  0  0  0
    8.2784   -1.6819   -1.8363 C   0  0  0  0  0  0  0  0  0  0  0  0
   -8.1795    1.2205    1.4653 C   0  0  0  0  0  0  0  0  0  0  0  0
    6.7926   -0.3478   -0.2930 C   0  0  0  0  0  0  0  0  0  0  0  0
   -6.7498   -0.1404   -0.0387 C   0  0  0  0  0  0  0  0  0  0  0  0
    5.5106   -0.8158   -0.7790 C   0  0  0  0  0  0  0  0  0  0  0  0
   -5.4848    0.3259    0.4986 C   0  0  0  0  0  0  0  0  0  0  0  0
    4.3240   -0.4016   -0.3040 C   0  0  0  0  0  0  0  0  0  0  0  0
   -4.2977   -0.0889    0.0240 C   0  0  0  0  0  0  0  0  0  0  0  0
    2.9980   -0.8106   -0.7791 C   0  0  0  0  0  0  0  0  0  0  0  0
   -2.9711    0.3174    0.5016 C   0  0  0  0  0  0  0  0  0  0  0  0
    2.9486   -1.8004   -1.9161 C   0  0  0  0  0  0  0  0  0  0  0  0
   -2.9205    1.3031    1.6424 C   0  0  0  0  0  0  0  0  0  0  0  0
    1.9121   -0.2834   -0.1735 C   0  0  0  0  0  0  0  0  0  0  0  0
   -1.8851   -0.2100   -0.1040 C   0  0  0  0  0  0  0  0  0  0  0  0
    0.5169   -0.5393   -0.4743 C   0  0  0  0  0  0  0  0  0  0  0  0
   -0.4898    0.0448    0.1974 C   0  0  0  0  0  0  0  0  0  0  0  0
   11.1930    0.9824    1.1540 H   0  0  0  0  0  0  0  0  0  0  0  0
  -11.4796   -1.0981   -1.2242 H   0  0  0  0  0  0  0  0  0  0  0  0
   13.4159    2.3236    1.0573 H   0  0  0  0  0  0  0  0  0  0  0  0
   14.3427    2.3613   -0.4178 H   0  0  0  0  0  0  0  0  0  0  0  0
  -13.9346    2.3178   -0.3643 H   0  0  0  0  0  0  0  0  0  0  0  0
  -12.5460    2.0558    0.6783 H   0  0  0  0  0  0  0  0  0  0  0  0
   15.1964    0.1349   -0.1116 H   0  0  0  0  0  0  0  0  0  0  0  0
  -14.2342    1.1717    1.9930 H   0  0  0  0  0  0  0  0  0  0  0  0
   13.3785   -0.4905   -1.6350 H   0  0  0  0  0  0  0  0  0  0  0  0
   12.0683    0.2941   -2.5226 H   0  0  0  0  0  0  0  0  0  0  0  0
   13.6415    1.0735   -2.4151 H   0  0  0  0  0  0  0  0  0  0  0  0
   11.3247    3.0313   -0.1203 H   0  0  0  0  0  0  0  0  0  0  0  0
   12.2728    3.1346   -1.6093 H   0  0  0  0  0  0  0  0  0  0  0  0
   10.7820    2.1893   -1.5795 H   0  0  0  0  0  0  0  0  0  0  0  0
  -12.3662    2.4376   -2.3989 H   0  0  0  0  0  0  0  0  0  0  0  0
  -11.0343    2.2696   -1.2606 H   0  0  0  0  0  0  0  0  0  0  0  0
  -11.1618    1.1643   -2.6409 H   0  0  0  0  0  0  0  0  0  0  0  0
  -14.2670   -0.6419   -1.5371 H   0  0  0  0  0  0  0  0  0  0  0  0
  -14.3090    0.8939   -2.4087 H   0  0  0  0  0  0  0  0  0  0  0  0
  -13.1462   -0.3578   -2.8632 H   0  0  0  0  0  0  0  0  0  0  0  0
   14.3413   -1.3008    1.8957 H   0  0  0  0  0  0  0  0  0  0  0  0
  -14.1251   -1.3271    1.9787 H   0  0  0  0  0  0  0  0  0  0  0  0
   10.7457   -1.0668   -1.1048 H   0  0  0  0  0  0  0  0  0  0  0  0
  -10.5911    0.7790    1.0434 H   0  0  0  0  0  0  0  0  0  0  0  0
   12.3918   -2.3392    2.6007 H   0  0  0  0  0  0  0  0  0  0  0  0
   11.2870   -2.4954    1.2343 H   0  0  0  0  0  0  0  0  0  0  0  0
   10.9292   -1.3553    2.5550 H   0  0  0  0  0  0  0  0  0  0  0  0
  -12.0302   -3.1996   -0.0219 H   0  0  0  0  0  0  0  0  0  0  0  0
  -12.6697   -3.1331    1.6234 H   0  0  0  0  0  0  0  0  0  0  0  0
  -11.0167   -2.5962    1.3080 H   0  0  0  0  0  0  0  0  0  0  0  0
   14.9791    1.3817    2.4359 H   0  0  0  0  0  0  0  0  0  0  0  0
  -15.8522    1.4118    0.4387 H   0  0  0  0  0  0  0  0  0  0  0  0
    8.9676    0.6075    0.7339 H   0  0  0  0  0  0  0  0  0  0  0  0
   -9.1444   -0.9793   -1.0272 H   0  0  0  0  0  0  0  0  0  0  0  0
    8.8394   -2.5492   -1.4702 H   0  0  0  0  0  0  0  0  0  0  0  0
    7.3735   -2.0713   -2.3057 H   0  0  0  0  0  0  0  0  0  0  0  0
    8.8575   -1.2015   -2.6332 H   0  0  0  0  0  0  0  0  0  0  0  0
   -7.2652    1.6419    1.8832 H   0  0  0  0  0  0  0  0  0  0  0  0
   -8.7496    2.0863    1.1064 H   0  0  0  0  0  0  0  0  0  0  0  0
   -8.7065    0.7706    2.3155 H   0  0  0  0  0  0  0  0  0  0  0  0
    6.7162    0.3747    0.5208 H   0  0  0  0  0  0  0  0  0  0  0  0
   -6.6702   -0.8619   -0.8518 H   0  0  0  0  0  0  0  0  0  0  0  0
    5.5288   -1.5374   -1.5868 H   0  0  0  0  0  0  0  0  0  0  0  0
   -5.4977    1.0296    1.3192 H   0  0  0  0  0  0  0  0  0  0  0  0
    4.3285    0.3248    0.5088 H   0  0  0  0  0  0  0  0  0  0  0  0
   -4.2995   -0.8015   -0.8011 H   0  0  0  0  0  0  0  0  0  0  0  0
    1.9358   -2.0657   -2.2260 H   0  0  0  0  0  0  0  0  0  0  0  0
    3.4423   -2.7366   -1.6322 H   0  0  0  0  0  0  0  0  0  0  0  0
    3.4482   -1.3928   -2.8021 H   0  0  0  0  0  0  0  0  0  0  0  0
   -3.4192    0.8919    2.5274 H   0  0  0  0  0  0  0  0  0  0  0  0
   -3.4148    2.2401    1.3624 H   0  0  0  0  0  0  0  0  0  0  0  0
   -1.9076    1.5676    1.9522 H   0  0  0  0  0  0  0  0  0  0  0  0
    2.0678    0.4240    0.6421 H   0  0  0  0  0  0  0  0  0  0  0  0
   -2.0408   -0.9154   -0.9214 H   0  0  0  0  0  0  0  0  0  0  0  0
    0.2823   -1.2313   -1.2760 H   0  0  0  0  0  0  0  0  0  0  0  0
   -0.2551    0.7368    0.9990 H   0  0  0  0  0  0  0  0  0  0  0  0
  1  9  1  0  0  0  0
  1 73  1  0  0  0  0
  2 10  1  0  0  0  0
  2 74  1  0  0  0  0
  3  5  1  0  0  0  0
  3  7  1  0  0  0  0
  3 13  1  0  0  0  0
  3 14  1  0  0  0  0
  4  6  1  0  0  0  0
  4  8  1  0  0  0  0
  4 15  1  0  0  0  0
  4 16  1  0  0  0  0
  5 11  1  0  0  0  0
  5 19  1  0  0  0  0
  5 43  1  0  0  0  0
  6 12  1  0  0  0  0
  6 20  1  0  0  0  0
  6 44  1  0  0  0  0
  7  9  1  0  0  0  0
  7 45  1  0  0  0  0
  7 46  1  0  0  0  0
  8 10  1  0  0  0  0
  8 47  1  0  0  0  0
  8 48  1  0  0  0  0
  9 17  1  0  0  0  0
  9 49  1  0  0  0  0
 10 18  1  0  0  0  0
 10 50  1  0  0  0  0
 11 17  2  0  0  0  0
 11 21  1  0  0  0  0
 12 18  2  0  0  0  0
 12 22  1  0  0  0  0
 13 51  1  0  0  0  0
 13 52  1  0  0  0  0
 13 53  1  0  0  0  0
 14 54  1  0  0  0  0
 14 55  1  0  0  0  0
 14 56  1  0  0  0  0
 15 57  1  0  0  0  0
 15 58  1  0  0  0  0
 15 59  1  0  0  0  0
 16 60  1  0  0  0  0
 16 61  1  0  0  0  0
 16 62  1  0  0  0  0
 17 63  1  0  0  0  0
 18 64  1  0  0  0  0
 19 23  2  0  0  0  0
 19 65  1  0  0  0  0
 20 24  2  0  0  0  0
 20 66  1  0  0  0  0
 21 67  1  0  0  0  0
 21 68  1  0  0  0  0
 21 69  1  0  0  0  0
 22 70  1  0  0  0  0
 22 71  1  0  0  0  0
 22 72  1  0  0  0  0
 23 25  1  0  0  0  0
 23 75  1  0  0  0  0
 24 26  1  0  0  0  0
 24 76  1  0  0  0  0
 25 27  1  0  0  0  0
 25 29  2  0  0  0  0
 26 28  1  0  0  0  0
 26 30  2  0  0  0  0
 27 77  1  0  0  0  0
 27 78  1  0  0  0  0
 27 79  1  0  0  0  0
 28 80  1  0  0  0  0
 28 81  1  0  0  0  0
 28 82  1  0  0  0  0
 29 31  1  0  0  0  0
 29 83  1  0  0  0  0
 30 32  1  0  0  0  0
 30 84  1  0  0  0  0
 31 33  2  0  0  0  0
 31 85  1  0  0  0  0
 32 34  2  0  0  0  0
 32 86  1  0  0  0  0
 33 35  1  0  0  0  0
 33 87  1  0  0  0  0
 34 36  1  0  0  0  0
 34 88  1  0  0  0  0
 35 37  1  0  0  0  0
 35 39  2  0  0  0  0
 36 38  1  0  0  0  0
 36 40  2  0  0  0  0
 37 89  1  0  0  0  0
 37 90  1  0  0  0  0
 37 91  1  0  0  0  0
 38 92  1  0  0  0  0
 38 93  1  0  0  0  0
 38 94  1  0  0  0  0
 39 41  1  0  0  0  0
 39 95  1  0  0  0  0
 40 42  1  0  0  0  0
 40 96  1  0  0  0  0
 41 42  2  0  0  0  0
 41 97  1  0  0  0  0
 42 98  1  0  0  0  0
M  END
> <PUBCHEM_COMPOUND_CID>
5281242

> <PUBCHEM_CONFORMER_RMSD>
1.2

> <PUBCHEM_CONFORMER_DIVERSEORDER>
1
53
94
145
123
49
107
165
97
143
180
74
185
3
8
58
128
2
157
50
76
40
166
36
27
138
28
87
118
109
103
117
44
16
20
101
168
129
110
141
21
48
25
175
72
95
39
65
133
4
18
75
86
67
93
82
46
10
59
71
42
91
139
131
155
187
176
37
149
144
130
62
47
105
45
153
151
56
89
81
88
120
66
6
162
106
134
179
24
38
41
124
7
35
127
112
164
147
159
100
30
181
173
122
14
140
78
142
135
51
69
150
33
85
126
156
108
137
188
68
189
29
54
9
98
178
99
83
11
12
161
125
61
152
167
148
183
102
52
31
114
55
60
80
172
136
158
5
73
13
121
57
182
104
174
119
169
186
19
22
77
111
23
43
17
146
90
92
70
177
115
64
132
84
184
26
154
63
15
96
163
170
160
116
32
171
79
113
34

> <PUBCHEM_MMFF94_PARTIAL_CHARGES>
52
1 -0.68
10 0.42
11 -0.28
12 -0.28
17 -0.29
18 -0.29
19 -0.29
2 -0.68
20 -0.29
21 0.14
22 0.14
23 -0.15
24 -0.15
25 -0.14
26 -0.14
27 0.14
28 0.14
29 -0.15
30 -0.15
31 -0.15
32 -0.15
33 -0.15
34 -0.15
35 -0.14
36 -0.14
37 0.14
38 0.14
39 -0.15
40 -0.15
41 -0.15
42 -0.15
5 0.28
6 0.28
63 0.15
64 0.15
65 0.15
66 0.15
73 0.4
74 0.4
75 0.15
76 0.15
83 0.15
84 0.15
85 0.15
86 0.15
87 0.15
88 0.15
9 0.42
95 0.15
96 0.15
97 0.15
98 0.15

> <PUBCHEM_EFFECTIVE_ROTOR_COUNT>
11.6

> <PUBCHEM_PHARMACOPHORE_FEATURES>
12
1 1 acceptor
1 1 donor
1 2 acceptor
1 2 donor
1 27 hydrophobe
1 28 hydrophobe
1 37 hydrophobe
1 38 hydrophobe
3 3 13 14 hydrophobe
3 4 15 16 hydrophobe
6 3 5 7 9 11 17 rings
6 4 6 8 10 12 18 rings

> <PUBCHEM_HEAVY_ATOM_COUNT>
42

> <PUBCHEM_ATOM_DEF_STEREO_COUNT>
4

> <PUBCHEM_ATOM_UDEF_STEREO_COUNT>
0

> <PUBCHEM_BOND_DEF_STEREO_COUNT>
9

> <PUBCHEM_BOND_UDEF_STEREO_COUNT>
0

> <PUBCHEM_ISOTOPIC_ATOM_COUNT>
0

> <PUBCHEM_COMPONENT_COUNT>
1

> <PUBCHEM_CACTVS_TAUTO_COUNT>
1

> <PUBCHEM_CONFORMER_ID>
005095DA00000001

> <PUBCHEM_MMFF94_ENERGY>
96.3361

> <PUBCHEM_FEATURE_SELFOVERLAP>
60.892

> <PUBCHEM_SHAPE_FINGERPRINT>
12013929 2 11167939156144171215
12559415 90 17917713525740470181
14251920 1 16702303455327487739
14251920 17 17676488346039985102
15061470 23 18408603686100448989
15219723 13 10879997951788701008
15274700 256 17917712414567774173
15343295 29 13830134989077251519
16728433 110 17676207961589550080
21057603 130 18114186320545951301
21362035 5 5905508256691805340
23528521 120 14201116809337418036
23581129 1 18411981364329978211
3092352 35 11527941254534578129
3991529 128 14345794950585632508
54131252 152 12823291279453735225
9663363 56 18060418018938591301

> <PUBCHEM_SHAPE_MULTIPOLES>
852.6
101.72
1.67
1.62
0.32
0.02
0.32
12.69
-19.19
-0.31
0.02
-1.5
-0.04
0.49

> <PUBCHEM_SHAPE_SELFOVERLAP>
1726.189

> <PUBCHEM_SHAPE_VOLUME>
494.7

> <PUBCHEM_COORDINATE_TYPE>
2
5
10

$$$$

