149755
  -OEChem-07051213122D

 76 80  0     1  0  0  0  0  0999 V2000
    5.9812    1.0246    0.0000 O   0  0  0  0  0  0  0  0  0  0  0  0
    4.0636   -1.5346    0.0000 O   0  0  0  0  0  0  0  0  0  0  0  0
    4.2493    1.0447    0.0000 O   0  0  0  0  0  0  0  0  0  0  0  0
    2.5405    3.0646    0.0000 O   0  0  0  0  0  0  0  0  0  0  0  0
    5.1210   -3.5545    0.0000 O   0  0  0  0  0  0  0  0  0  0  0  0
    7.7296    0.9901    0.0000 O   0  0  0  0  0  0  0  0  0  0  0  0
    6.8530   -3.5345    0.0000 O   0  0  0  0  0  0  0  0  0  0  0  0
    9.4780    1.0246    0.0000 O   0  0  0  0  0  0  0  0  0  0  0  0
    9.4780   -3.0445    0.0000 O   0  0  0  0  0  0  0  0  0  0  0  0
   11.3153    1.0677    0.0000 O   0  0  0  0  0  0  0  0  0  0  0  0
    4.2840    4.0445    0.0000 N   0  0  0  0  0  0  0  0  0  0  0  0
    5.0636   -1.5308    0.0000 C   0  0  2  0  0  0  0  0  0  0  0  0
    5.0636   -0.4891    0.0000 C   0  0  0  0  0  0  0  0  0  0  0  0
    5.9697   -2.0446    0.0000 C   0  0  1  0  0  0  0  0  0  0  0  0
    5.9697    0.0247    0.0000 C   0  0  1  0  0  0  0  0  0  0  0  0
    6.8636   -0.5099    0.0000 C   0  0  0  0  0  0  0  0  0  0  0  0
    6.8636   -1.5099    0.0000 C   0  0  0  0  0  0  0  0  0  0  0  0
    4.5669   -2.3987    0.0000 C   0  0  0  0  0  0  0  0  0  0  0  0
    5.1210    1.5346    0.0000 C   0  0  2  0  0  0  0  0  0  0  0  0
    4.2724    3.0445    0.0000 C   0  0  1  0  0  0  0  0  0  0  0  0
    5.1326    2.5346    0.0000 C   0  0  0  0  0  0  0  0  0  0  0  0
    3.4007    2.5546    0.0000 C   0  0  1  0  0  0  0  0  0  0  0  0
    3.3891    1.5547    0.0000 C   0  0  2  0  0  0  0  0  0  0  0  0
    7.7296   -0.0099    0.0000 C   0  0  0  0  0  0  0  0  0  0  0  0
    7.7296   -2.0100    0.0000 C   0  0  0  0  0  0  0  0  0  0  0  0
    5.9812   -3.0445    0.0000 C   0  0  0  0  0  0  0  0  0  0  0  0
    8.5957   -0.5099    0.0000 C   0  0  0  0  0  0  0  0  0  0  0  0
    8.5957   -1.5099    0.0000 C   0  0  0  0  0  0  0  0  0  0  0  0
    3.5670   -2.4026    0.0000 C   0  0  0  0  0  0  0  0  0  0  0  0
    2.5174    1.0647    0.0000 C   0  0  0  0  0  0  0  0  0  0  0  0
    9.4896    0.0247    0.0000 C   0  0  0  0  0  0  0  0  0  0  0  0
    9.4896   -2.0446    0.0000 C   0  0  0  0  0  0  0  0  0  0  0  0
    5.1557    4.5344    0.0000 C   0  0  0  0  0  0  0  0  0  0  0  0
    3.4238    4.5545    0.0000 C   0  0  0  0  0  0  0  0  0  0  0  0
   10.3957   -0.4891    0.0000 C   0  0  0  0  0  0  0  0  0  0  0  0
   10.3957   -1.5308    0.0000 C   0  0  0  0  0  0  0  0  0  0  0  0
    5.1326   -4.5545    0.0000 C   0  0  0  0  0  0  0  0  0  0  0  0
   11.3268    0.0678    0.0000 C   0  0  0  0  0  0  0  0  0  0  0  0
   11.3268   -2.0877    0.0000 C   0  0  0  0  0  0  0  0  0  0  0  0
   12.2706   -0.4674    0.0000 C   0  0  0  0  0  0  0  0  0  0  0  0
   12.2706   -1.5524    0.0000 C   0  0  0  0  0  0  0  0  0  0  0  0
    4.8545    0.0946    0.0000 H   0  0  0  0  0  0  0  0  0  0  0  0
    4.4527   -0.5952    0.0000 H   0  0  0  0  0  0  0  0  0  0  0  0
    5.4357   -2.3598    0.0000 H   0  0  0  0  0  0  0  0  0  0  0  0
    5.4357    0.3399    0.0000 H   0  0  0  0  0  0  0  0  0  0  0  0
    4.4616   -3.0097    0.0000 H   0  0  0  0  0  0  0  0  0  0  0  0
    5.1504   -2.6085    0.0000 H   0  0  0  0  0  0  0  0  0  0  0  0
    5.6615    1.8384    0.0000 H   0  0  0  0  0  0  0  0  0  0  0  0
    3.7391    3.3607    0.0000 H   0  0  0  0  0  0  0  0  0  0  0  0
    5.7419    2.4198    0.0000 H   0  0  0  0  0  0  0  0  0  0  0  0
    5.3514    3.1147    0.0000 H   0  0  0  0  0  0  0  0  0  0  0  0
    3.4078    3.1746    0.0000 H   0  0  0  0  0  0  0  0  0  0  0  0
    3.3819    0.9347    0.0000 H   0  0  0  0  0  0  0  0  0  0  0  0
    7.7296   -2.6300    0.0000 H   0  0  0  0  0  0  0  0  0  0  0  0
    3.7515   -0.9989    0.0000 H   0  0  0  0  0  0  0  0  0  0  0  0
    3.5646   -1.7826    0.0000 H   0  0  0  0  0  0  0  0  0  0  0  0
    2.9470   -2.4050    0.0000 H   0  0  0  0  0  0  0  0  0  0  0  0
    3.5693   -3.0226    0.0000 H   0  0  0  0  0  0  0  0  0  0  0  0
    2.2136    1.6052    0.0000 H   0  0  0  0  0  0  0  0  0  0  0  0
    1.9769    0.7609    0.0000 H   0  0  0  0  0  0  0  0  0  0  0  0
    2.8211    0.5242    0.0000 H   0  0  0  0  0  0  0  0  0  0  0  0
    2.0000    2.7608    0.0000 H   0  0  0  0  0  0  0  0  0  0  0  0
    5.4595    3.9939    0.0000 H   0  0  0  0  0  0  0  0  0  0  0  0
    5.6962    4.8382    0.0000 H   0  0  0  0  0  0  0  0  0  0  0  0
    4.8520    5.0749    0.0000 H   0  0  0  0  0  0  0  0  0  0  0  0
    3.7400    5.0878    0.0000 H   0  0  0  0  0  0  0  0  0  0  0  0
    2.8905    4.8706    0.0000 H   0  0  0  0  0  0  0  0  0  0  0  0
    3.1076    4.0211    0.0000 H   0  0  0  0  0  0  0  0  0  0  0  0
    8.2666    1.3000    0.0000 H   0  0  0  0  0  0  0  0  0  0  0  0
    4.5126   -4.5616    0.0000 H   0  0  0  0  0  0  0  0  0  0  0  0
    5.1398   -5.1744    0.0000 H   0  0  0  0  0  0  0  0  0  0  0  0
    5.7526   -4.5473    0.0000 H   0  0  0  0  0  0  0  0  0  0  0  0
   11.3197   -2.7076    0.0000 H   0  0  0  0  0  0  0  0  0  0  0  0
   12.8063   -0.1554    0.0000 H   0  0  0  0  0  0  0  0  0  0  0  0
   12.8063   -1.8645    0.0000 H   0  0  0  0  0  0  0  0  0  0  0  0
   11.8486    1.3839    0.0000 H   0  0  0  0  0  0  0  0  0  0  0  0
 15  1  1  6  0  0  0
 19  1  1  6  0  0  0
 12  2  1  6  0  0  0
  2 55  1  0  0  0  0
  3 19  1  0  0  0  0
  3 23  1  0  0  0  0
 22  4  1  1  0  0  0
  4 62  1  0  0  0  0
  5 26  1  0  0  0  0
  5 37  1  0  0  0  0
  6 24  1  0  0  0  0
  6 69  1  0  0  0  0
  7 26  2  0  0  0  0
  8 31  2  0  0  0  0
  9 32  2  0  0  0  0
 10 38  1  0  0  0  0
 10 76  1  0  0  0  0
 20 11  1  1  0  0  0
 11 33  1  0  0  0  0
 11 34  1  0  0  0  0
 12 13  1  0  0  0  0
 12 14  1  0  0  0  0
 12 18  1  0  0  0  0
 13 15  1  0  0  0  0
 13 42  1  0  0  0  0
 13 43  1  0  0  0  0
 14 17  1  0  0  0  0
 14 26  1  1  0  0  0
 14 44  1  0  0  0  0
 15 16  1  0  0  0  0
 15 45  1  0  0  0  0
 16 17  1  0  0  0  0
 16 24  2  0  0  0  0
 17 25  2  0  0  0  0
 18 29  1  0  0  0  0
 18 46  1  0  0  0  0
 18 47  1  0  0  0  0
 19 21  1  0  0  0  0
 19 48  1  0  0  0  0
 20 21  1  0  0  0  0
 20 22  1  0  0  0  0
 20 49  1  0  0  0  0
 21 50  1  0  0  0  0
 21 51  1  0  0  0  0
 22 23  1  0  0  0  0
 22 52  1  0  0  0  0
 23 30  1  1  0  0  0
 23 53  1  0  0  0  0
 24 27  1  0  0  0  0
 25 28  1  0  0  0  0
 25 54  1  0  0  0  0
 27 28  2  0  0  0  0
 27 31  1  0  0  0  0
 28 32  1  0  0  0  0
 29 56  1  0  0  0  0
 29 57  1  0  0  0  0
 29 58  1  0  0  0  0
 30 59  1  0  0  0  0
 30 60  1  0  0  0  0
 30 61  1  0  0  0  0
 31 35  1  0  0  0  0
 32 36  1  0  0  0  0
 33 63  1  0  0  0  0
 33 64  1  0  0  0  0
 33 65  1  0  0  0  0
 34 66  1  0  0  0  0
 34 67  1  0  0  0  0
 34 68  1  0  0  0  0
 35 36  2  0  0  0  0
 35 38  1  0  0  0  0
 36 39  1  0  0  0  0
 37 70  1  0  0  0  0
 37 71  1  0  0  0  0
 37 72  1  0  0  0  0
 38 40  2  0  0  0  0
 39 41  2  0  0  0  0
 39 73  1  0  0  0  0
 40 41  1  0  0  0  0
 40 74  1  0  0  0  0
 41 75  1  0  0  0  0
M  END
> <PUBCHEM_COMPOUND_CID>
149755

> <PUBCHEM_COMPOUND_CANONICALIZED>
1

> <PUBCHEM_CACTVS_COMPLEXITY>
1020

> <PUBCHEM_CACTVS_HBOND_ACCEPTOR>
11

> <PUBCHEM_CACTVS_HBOND_DONOR>
4

> <PUBCHEM_CACTVS_ROTATABLE_BOND>
6

> <PUBCHEM_CACTVS_SUBSKEYS>
AAADcfB6PAAAAAAAAAAAAAAAAAAAAAAAAAA0YMGCAAAAAADBQAAAHgAACAAADXzxmAcyDoMABgCIAqDSCAACAAAkIAAIiAEOCMgbNzaCtRqmcUAn4BEfuYfL7PzOwAADAAAYAADAAAYQADAAAAAAAAAAAA==

> <PUBCHEM_IUPAC_OPENEYE_NAME>
methyl (1R,2R,4S)-4-[(2R,4S,5S,6S)-4-(dimethylamino)-5-hydroxy-6-methyl-tetrahydropyran-2-yl]oxy-2-ethyl-2,5,7-trihydroxy-6,11-dioxo-3,4-dihydro-1H-tetracene-1-carboxylate

> <PUBCHEM_IUPAC_CAS_NAME>
(1R,2R,4S)-4-[[(2R,4S,5S,6S)-4-(dimethylamino)-5-hydroxy-6-methyl-2-oxanyl]oxy]-2-ethyl-2,5,7-trihydroxy-6,11-dioxo-3,4-dihydro-1H-tetracene-1-carboxylic acid methyl ester

> <PUBCHEM_IUPAC_NAME>
methyl (1R,2R,4S)-4-[(2R,4S,5S,6S)-4-(dimethylamino)-5-hydroxy-6-methyloxan-2-yl]oxy-2-ethyl-2,5,7-trihydroxy-6,11-dioxo-3,4-dihydro-1H-tetracene-1-carboxylate

> <PUBCHEM_IUPAC_SYSTEMATIC_NAME>
methyl (1R,2R,4S)-4-[(2R,4S,5S,6S)-4-(dimethylamino)-6-methyl-5-oxidanyl-oxan-2-yl]oxy-2-ethyl-2,5,7-tris(oxidanyl)-6,11-bis(oxidanylidene)-3,4-dihydro-1H-tetracene-1-carboxylate

> <PUBCHEM_IUPAC_TRADITIONAL_NAME>
(1R,2R,4S)-4-[(2R,4S,5S,6S)-4-(dimethylamino)-5-hydroxy-6-methyl-tetrahydropyran-2-yl]oxy-2-ethyl-2,5,7-trihydroxy-6,11-diketo-3,4-dihydro-1H-tetracene-1-carboxylic acid methyl ester

> <PUBCHEM_IUPAC_INCHI>
InChI=1S/C30H35NO10/c1-6-30(38)12-19(41-20-11-17(31(3)4)25(33)13(2)40-20)22-15(24(30)29(37)39-5)10-16-23(28(22)36)27(35)21-14(26(16)34)8-7-9-18(21)32/h7-10,13,17,19-20,24-25,32-33,36,38H,6,11-12H2,1-5H3/t13-,17-,19-,20-,24-,25+,30+/m0/s1

> <PUBCHEM_IUPAC_INCHIKEY>
LJZPVWKMAYDYAS-QKKPTTNWSA-N

> <PUBCHEM_XLOGP3_AA>
3.1

> <PUBCHEM_EXACT_MASS>
569.226096

> <PUBCHEM_MOLECULAR_FORMULA>
C30H35NO10

> <PUBCHEM_MOLECULAR_WEIGHT>
569.5996

> <PUBCHEM_OPENEYE_CAN_SMILES>
CCC1(CC(C2=C(C1C(=O)OC)C=C3C(=C2O)C(=O)C4=C(C3=O)C=CC=C4O)OC5CC(C(C(O5)C)O)N(C)C)O

> <PUBCHEM_OPENEYE_ISO_SMILES>
CC[C@]1(C[C@@H](C2=C([C@H]1C(=O)OC)C=C3C(=C2O)C(=O)C4=C(C3=O)C=CC=C4O)O[C@H]5C[C@@H]([C@@H]([C@@H](O5)C)O)N(C)C)O

> <PUBCHEM_CACTVS_TPSA>
163

> <PUBCHEM_MONOISOTOPIC_WEIGHT>
569.226096

> <PUBCHEM_TOTAL_CHARGE>
0

> <PUBCHEM_HEAVY_ATOM_COUNT>
41

> <PUBCHEM_ATOM_DEF_STEREO_COUNT>
7

> <PUBCHEM_ATOM_UDEF_STEREO_COUNT>
0

> <PUBCHEM_BOND_DEF_STEREO_COUNT>
0

> <PUBCHEM_BOND_UDEF_STEREO_COUNT>
0

> <PUBCHEM_ISOTOPIC_ATOM_COUNT>
0

> <PUBCHEM_COMPONENT_COUNT>
1

> <PUBCHEM_CACTVS_TAUTO_COUNT>
81

> <PUBCHEM_COORDINATE_TYPE>
1
5
255

> <PUBCHEM_BONDANNOTATIONS>
15  1  6
19  1  6
20  11  5
14  26  5
16  17  8
16  24  8
17  25  8
12  2  6
23  30  5
24  27  8
25  28  8
27  28  8
35  36  8
35  38  8
36  39  8
38  40  8
39  41  8
22  4  5
40  41  8

$$$$

