13336
  -OEChem-06261209053D

 34 35  0     0  0  0  0  0  0999 V2000
   -0.5307   -0.9299   -2.7603 S   0  0  0  0  0  0  0  0  0  0  0  0
    0.5276    0.8332   -2.7866 S   0  0  0  0  0  0  0  0  0  0  0  0
   -5.5809    1.4629    0.9769 F   0  0  0  0  0  0  0  0  0  0  0  0
   -5.6950   -0.6219    1.5642 F   0  0  0  0  0  0  0  0  0  0  0  0
   -4.2952    0.7106    2.5612 F   0  0  0  0  0  0  0  0  0  0  0  0
    5.5880   -1.4227    1.0212 F   0  0  0  0  0  0  0  0  0  0  0  0
    5.6968    0.6802    1.5404 F   0  0  0  0  0  0  0  0  0  0  0  0
    4.3017   -0.6231    2.5816 F   0  0  0  0  0  0  0  0  0  0  0  0
   -1.2019   -3.0642    0.9936 O   0  5  0  0  0  0  0  0  0  0  0  0
    1.1963    3.0901    0.8954 O   0  5  0  0  0  0  0  0  0  0  0  0
   -0.1490   -2.7260   -0.9027 O   0  0  0  0  0  0  0  0  0  0  0  0
    0.1426    2.6875   -0.9879 O   0  0  0  0  0  0  0  0  0  0  0  0
   -1.0407   -2.4294   -0.0743 N   0  3  0  0  0  0  0  0  0  0  0  0
    1.0360    2.4206   -0.1513 N   0  3  0  0  0  0  0  0  0  0  0  0
   -3.7544    0.0548    0.3405 C   0  0  0  0  0  0  0  0  0  0  0  0
    3.7570   -0.0412    0.3414 C   0  0  0  0  0  0  0  0  0  0  0  0
   -1.7787   -0.5782   -1.5245 C   0  0  0  0  0  0  0  0  0  0  0  0
    1.7726    0.5266   -1.5465 C   0  0  0  0  0  0  0  0  0  0  0  0
   -1.9027   -1.3315   -0.3570 C   0  0  0  0  0  0  0  0  0  0  0  0
    1.9008    1.3164   -0.3991 C   0  0  0  0  0  0  0  0  0  0  0  0
   -2.8906   -1.0150    0.5755 C   0  0  0  0  0  0  0  0  0  0  0  0
    2.8904    1.0331    0.5422 C   0  0  0  0  0  0  0  0  0  0  0  0
   -3.6305    0.8080   -0.8268 C   0  0  0  0  0  0  0  0  0  0  0  0
    3.6341   -0.8323   -0.8008 C   0  0  0  0  0  0  0  0  0  0  0  0
   -2.6427    0.4914   -1.7594 C   0  0  0  0  0  0  0  0  0  0  0  0
    2.6446   -0.5490   -1.7422 C   0  0  0  0  0  0  0  0  0  0  0  0
   -4.8105    0.3940    1.3375 C   0  0  0  0  0  0  0  0  0  0  0  0
    4.8150   -0.3450    1.3477 C   0  0  0  0  0  0  0  0  0  0  0  0
   -3.0149   -1.5807    1.4962 H   0  0  0  0  0  0  0  0  0  0  0  0
    3.0139    1.6288    1.4440 H   0  0  0  0  0  0  0  0  0  0  0  0
   -4.2954    1.6433   -1.0285 H   0  0  0  0  0  0  0  0  0  0  0  0
    4.3011   -1.6718   -0.9758 H   0  0  0  0  0  0  0  0  0  0  0  0
   -2.5787    1.0891   -2.6656 H   0  0  0  0  0  0  0  0  0  0  0  0
    2.5821   -1.1770   -2.6281 H   0  0  0  0  0  0  0  0  0  0  0  0
  1  2  1  0  0  0  0
  1 17  1  0  0  0  0
  2 18  1  0  0  0  0
  3 27  1  0  0  0  0
  4 27  1  0  0  0  0
  5 27  1  0  0  0  0
  6 28  1  0  0  0  0
  7 28  1  0  0  0  0
  8 28  1  0  0  0  0
  9 13  1  0  0  0  0
 10 14  1  0  0  0  0
 11 13  2  0  0  0  0
 12 14  2  0  0  0  0
 13 19  1  0  0  0  0
 14 20  1  0  0  0  0
 15 21  2  0  0  0  0
 15 23  1  0  0  0  0
 15 27  1  0  0  0  0
 16 22  2  0  0  0  0
 16 24  1  0  0  0  0
 16 28  1  0  0  0  0
 17 19  2  0  0  0  0
 17 25  1  0  0  0  0
 18 20  2  0  0  0  0
 18 26  1  0  0  0  0
 19 21  1  0  0  0  0
 20 22  1  0  0  0  0
 21 29  1  0  0  0  0
 22 30  1  0  0  0  0
 23 25  2  0  0  0  0
 23 31  1  0  0  0  0
 24 26  2  0  0  0  0
 24 32  1  0  0  0  0
 25 33  1  0  0  0  0
 26 34  1  0  0  0  0
M  CHG  4   9  -1  10  -1  13   1  14   1
M  END
> <PUBCHEM_COMPOUND_CID>
13336

> <PUBCHEM_CONFORMER_RMSD>
0.8

> <PUBCHEM_CONFORMER_DIVERSEORDER>
1
26
44
17
30
27
35
22
28
8
24
34
12
7
25
29
37
5
33
21
2
15
45
23
18
46
6
11
47
31
43
9
32
10
16
40
39
42
41
20
19
4
3
38
36
13
14

> <PUBCHEM_MMFF94_PARTIAL_CHARGES>
34
1 -0.1
10 -0.52
11 -0.52
12 -0.52
13 0.91
14 0.91
15 -0.14
16 -0.14
17 0.1
18 0.1
19 0.13
2 -0.1
20 0.13
21 -0.15
22 -0.15
23 -0.15
24 -0.15
25 -0.15
26 -0.15
27 1.16
28 1.16
29 0.15
3 -0.34
30 0.15
31 0.15
32 0.15
33 0.15
34 0.15
4 -0.34
5 -0.34
6 -0.34
7 -0.34
8 -0.34
9 -0.52

> <PUBCHEM_EFFECTIVE_ROTOR_COUNT>
7

> <PUBCHEM_PHARMACOPHORE_FEATURES>
8
1 10 acceptor
1 10 anion
1 11 acceptor
1 12 acceptor
1 9 acceptor
1 9 anion
6 15 17 19 21 23 25 rings
6 16 18 20 22 24 26 rings

> <PUBCHEM_HEAVY_ATOM_COUNT>
28

> <PUBCHEM_ATOM_DEF_STEREO_COUNT>
0

> <PUBCHEM_ATOM_UDEF_STEREO_COUNT>
0

> <PUBCHEM_BOND_DEF_STEREO_COUNT>
0

> <PUBCHEM_BOND_UDEF_STEREO_COUNT>
0

> <PUBCHEM_ISOTOPIC_ATOM_COUNT>
0

> <PUBCHEM_COMPONENT_COUNT>
1

> <PUBCHEM_CACTVS_TAUTO_COUNT>
1

> <PUBCHEM_CONFORMER_ID>
0000341800000001

> <PUBCHEM_MMFF94_ENERGY>
76.1078

> <PUBCHEM_FEATURE_SELFOVERLAP>
40.758

> <PUBCHEM_SHAPE_FINGERPRINT>
10498660 4 8142077671979198452
10692045 39 17531804778940743150
11370993 70 15719393940439347511
11640471 11 15719384006190535102
11954058 11 15482090680077011843
11961588 58 5472560170839380750
12403259 327 18339916013728943471
12422481 6 18121499325814091291
12633257 1 18410856525280051542
13103583 49 18410577262375034874
13965767 371 17386280016609230317
13994607 96 5399939751766222716
14251764 30 15769775762310609530
14466204 15 18337389465227221761
15238133 3 18335411357845781252
16110190 28 18272933778576902200
17974551 9 18194964045616913272
17980427 23 17386295289566201560
20715895 44 15575544916198653275
21033648 29 18339920536640781797
21403212 168 18335144249909163289
21475661 188 18115570669725201757
22950370 63 15697995262351082132
23379529 103 15769493218214083272
238 59 8790893977608349134
2818148 4 16987707983648982134
2838139 119 5328458172808505594
3472631 163 14562526297712664105
465052 167 16844991439368012587
474 4 17749937926046198349
7097593 13 17914611657514809421
7970288 3 15913321360745914139
8509985 295 18340193142362261285

> <PUBCHEM_SHAPE_MULTIPOLES>
506.84
10.96
2.6
2.49
0.05
0.54
-0.03
-9.56
-0.22
-0.02
0.03
0.01
-0.25
0.4

> <PUBCHEM_SHAPE_SELFOVERLAP>
1072.233

> <PUBCHEM_SHAPE_VOLUME>
290.9

> <PUBCHEM_COORDINATE_TYPE>
2
5
10

$$$$

