6414792
  -OEChem-07051213133D

 32 33  0     0  0  0  0  0  0999 V2000
   -3.5651    0.2438    0.0118 O   0  0  0  0  0  0  0  0  0  0  0  0
    5.6379   -1.9589    0.9463 O   0  0  0  0  0  0  0  0  0  0  0  0
    5.9386    1.9483   -0.9449 O   0  0  0  0  0  0  0  0  0  0  0  0
   -7.0283    0.7164    0.1213 O   0  5  0  0  0  0  0  0  0  0  0  0
   -5.3573    2.1308    0.2826 O   0  0  0  0  0  0  0  0  0  0  0  0
    4.8214    0.0814    0.0231 N   0  0  0  0  0  0  0  0  0  0  0  0
    2.8486    1.3291    0.2710 N   0  0  0  0  0  0  0  0  0  0  0  0
    2.7563   -1.0166   -0.2122 N   0  0  0  0  0  0  0  0  0  0  0  0
    1.4073   -0.9855   -0.2117 N   0  0  0  0  0  0  0  0  0  0  0  0
   -5.7831    0.9473    0.1340 N   0  3  0  0  0  0  0  0  0  0  0  0
    3.4279    0.1355    0.0278 C   0  0  0  0  0  0  0  0  0  0  0  0
    5.5368   -1.1666   -0.2306 C   0  0  0  0  0  0  0  0  0  0  0  0
    5.6338    1.2714    0.2688 C   0  0  0  0  0  0  0  0  0  0  0  0
   -2.8741   -0.9035   -0.1469 C   0  0  0  0  0  0  0  0  0  0  0  0
    0.7866    0.1842    0.0265 C   0  0  0  0  0  0  0  0  0  0  0  0
   -1.4407   -0.9156   -0.1685 C   0  0  0  0  0  0  0  0  0  0  0  0
   -0.6628    0.1813    0.0198 C   0  0  0  0  0  0  0  0  0  0  0  0
   -3.6995   -1.9813   -0.2763 C   0  0  0  0  0  0  0  0  0  0  0  0
    1.5071    1.3263    0.2646 C   0  0  0  0  0  0  0  0  0  0  0  0
   -4.8780   -0.1051   -0.0158 C   0  0  0  0  0  0  0  0  0  0  0  0
   -5.0135   -1.4627   -0.1908 C   0  0  0  0  0  0  0  0  0  0  0  0
    5.0520   -1.7615   -1.0126 H   0  0  0  0  0  0  0  0  0  0  0  0
    6.5548   -0.9665   -0.5844 H   0  0  0  0  0  0  0  0  0  0  0  0
    6.5824    0.9880    0.7396 H   0  0  0  0  0  0  0  0  0  0  0  0
    5.1434    1.9724    0.9534 H   0  0  0  0  0  0  0  0  0  0  0  0
   -0.9726   -1.8832   -0.3347 H   0  0  0  0  0  0  0  0  0  0  0  0
   -1.1374    1.1450    0.1935 H   0  0  0  0  0  0  0  0  0  0  0  0
   -3.4130   -3.0145   -0.4149 H   0  0  0  0  0  0  0  0  0  0  0  0
    1.0405    2.2851    0.4602 H   0  0  0  0  0  0  0  0  0  0  0  0
   -5.9403   -2.0157   -0.2502 H   0  0  0  0  0  0  0  0  0  0  0  0
    5.9686   -1.3745    1.6492 H   0  0  0  0  0  0  0  0  0  0  0  0
    6.4907    2.7145   -0.7134 H   0  0  0  0  0  0  0  0  0  0  0  0
  1 14  1  0  0  0  0
  1 20  1  0  0  0  0
  2 12  1  0  0  0  0
  2 31  1  0  0  0  0
  3 13  1  0  0  0  0
  3 32  1  0  0  0  0
  4 10  1  0  0  0  0
  5 10  2  0  0  0  0
  6 11  1  0  0  0  0
  6 12  1  0  0  0  0
  6 13  1  0  0  0  0
  7 11  2  0  0  0  0
  7 19  1  0  0  0  0
  8  9  2  0  0  0  0
  8 11  1  0  0  0  0
  9 15  1  0  0  0  0
 10 20  1  0  0  0  0
 12 22  1  0  0  0  0
 12 23  1  0  0  0  0
 13 24  1  0  0  0  0
 13 25  1  0  0  0  0
 14 16  1  0  0  0  0
 14 18  2  0  0  0  0
 15 17  1  0  0  0  0
 15 19  2  0  0  0  0
 16 17  2  0  0  0  0
 16 26  1  0  0  0  0
 17 27  1  0  0  0  0
 18 21  1  0  0  0  0
 18 28  1  0  0  0  0
 19 29  1  0  0  0  0
 20 21  2  0  0  0  0
 21 30  1  0  0  0  0
M  CHG  2   4  -1  10   1
M  END
> <PUBCHEM_COMPOUND_CID>
6414792

> <PUBCHEM_CONFORMER_RMSD>
0.8

> <PUBCHEM_CONFORMER_DIVERSEORDER>
1
11
9
2
7
13
3
10
8
4
5
6
12

> <PUBCHEM_MMFF94_PARTIAL_CHARGES>
28
1 -0.28
10 0.96
11 0.72
12 0.65
13 0.65
14 0.09
15 0.34
16 -0.11
17 -0.18
18 -0.15
19 0.16
2 -0.68
20 0.22
21 -0.15
26 0.15
27 0.15
28 0.15
29 0.15
3 -0.68
30 0.15
31 0.4
32 0.4
4 -0.52
5 -0.52
6 -0.84
7 -0.62
8 -0.31
9 -0.31

> <PUBCHEM_EFFECTIVE_ROTOR_COUNT>
6

> <PUBCHEM_PHARMACOPHORE_FEATURES>
11
1 1 acceptor
1 2 acceptor
1 2 donor
1 3 acceptor
1 3 donor
1 4 acceptor
1 4 anion
1 5 acceptor
4 6 7 8 11 cation
5 1 14 18 20 21 rings
6 7 8 9 11 15 19 rings

> <PUBCHEM_HEAVY_ATOM_COUNT>
21

> <PUBCHEM_ATOM_DEF_STEREO_COUNT>
0

> <PUBCHEM_ATOM_UDEF_STEREO_COUNT>
0

> <PUBCHEM_BOND_DEF_STEREO_COUNT>
1

> <PUBCHEM_BOND_UDEF_STEREO_COUNT>
0

> <PUBCHEM_ISOTOPIC_ATOM_COUNT>
0

> <PUBCHEM_COMPONENT_COUNT>
1

> <PUBCHEM_CACTVS_TAUTO_COUNT>
1

> <PUBCHEM_CONFORMER_ID>
0061E1C800000001

> <PUBCHEM_MMFF94_ENERGY>
54.4195

> <PUBCHEM_FEATURE_SELFOVERLAP>
55.91

> <PUBCHEM_SHAPE_FINGERPRINT>
10595046 47 18267585710663363206
11089746 13 17458634414757780265
11315181 36 17458059340106375435
11719270 70 17822293513368589606
11858739 19 17749384897456941110
12107183 9 17833550471984093787
12236239 1 18410856551108085163
12916748 109 15051736400031663222
13073987 5 18340769256089946434
13167372 99 18410011069726924152
13533116 47 4822948906346712284
13785724 45 17976257164844981598
1420 363 11240000061834064025
14251752 14 18409730698588164873
14251764 18 18335138675020286643
14341114 176 18341891896111180588
14933364 13 18411416198210498412
15048467 5 18411699867910372037
15183329 4 18334853943661761251
15196674 1 18409167688389306062
17844677 252 18337946780103844681
19489759 90 16298103203186689211
200 152 18040434365170873051
20281389 69 18342176687261819925
20621476 66 18409163346805357761
20645477 70 18410856569184987086
20681677 155 18272090474506796787
21065198 57 18337111138186693195
21267235 1 18337948992355094767
220451 1 18334571300702184142
22224240 67 15841550756908144225
23081809 10 18409453561380944534
23218964 4 18408887356063663795
23402539 116 18186526492707632519
23402655 69 18334859394007031863
23536379 177 18411982459599470890
23559900 14 18187936027870526401
29717793 49 17967809470931398222
300161 21 18408045104418697075
3004659 81 18411979179109769334
3545911 37 18334011696992204785
4072396 5 17894635881081251598
4073 2 18058726901678746530
4214541 1 18408041797694656359
4340502 62 16558756689826799778
4463277 17 18409729543363391804
5104073 3 18335702706604074803
542803 24 17989207018804915526
559249 180 18335143102852533231
6327066 14 18196941179180630949
6328613 192 18410852148793428773
9965369 4 18336266842237228297

> <PUBCHEM_SHAPE_MULTIPOLES>
377.92
17.98
1.93
0.67
2.8
0.06
0.01
2.92
-0.21
-0.15
-0.04
-0.45
-0.02
-0.94

> <PUBCHEM_SHAPE_SELFOVERLAP>
797.304

> <PUBCHEM_SHAPE_VOLUME>
208.8

> <PUBCHEM_COORDINATE_TYPE>
2
5
10

$$$$

