247304
  -OEChem-07051212503D

 45 48  0     1  0  0  0  0  0999 V2000
    5.2096    1.3567    0.2750 O   0  0  0  0  0  0  0  0  0  0  0  0
   -4.6052    2.1624   -0.1373 O   0  0  0  0  0  0  0  0  0  0  0  0
   -5.6218   -0.3491    0.4708 O   0  0  0  0  0  0  0  0  0  0  0  0
    2.8526    0.6418    0.1545 C   0  0  1  0  0  0  0  0  0  0  0  0
    2.2525   -0.6705   -0.3890 C   0  0  2  0  0  0  0  0  0  0  0  0
    0.7938   -0.8540    0.0287 C   0  0  1  0  0  0  0  0  0  0  0  0
   -0.0454    0.3199   -0.5612 C   0  0  2  0  0  0  0  0  0  0  0  0
    4.2941    0.4913   -0.3682 C   0  0  2  0  0  0  0  0  0  0  0  0
    2.0666    1.8119   -0.4494 C   0  0  0  0  0  0  0  0  0  0  0  0
    3.2825   -1.7240    0.0089 C   0  0  0  0  0  0  0  0  0  0  0  0
    0.5565    1.6953   -0.1658 C   0  0  0  0  0  0  0  0  0  0  0  0
    4.6310   -0.9905   -0.1112 C   0  0  0  0  0  0  0  0  0  0  0  0
    0.2053   -2.1795   -0.4578 C   0  0  0  0  0  0  0  0  0  0  0  0
    2.8503    0.7669    1.6995 C   0  0  0  0  0  0  0  0  0  0  0  0
   -1.5299    0.1496   -0.2496 C   0  0  0  0  0  0  0  0  0  0  0  0
   -1.1982   -2.3628    0.1118 C   0  0  0  0  0  0  0  0  0  0  0  0
   -2.0631   -1.1292    0.0239 C   0  0  0  0  0  0  0  0  0  0  0  0
   -2.4166    1.2391   -0.3146 C   0  0  0  0  0  0  0  0  0  0  0  0
   -3.4388   -1.2754    0.2753 C   0  0  0  0  0  0  0  0  0  0  0  0
   -3.7825    1.0781   -0.0720 C   0  0  0  0  0  0  0  0  0  0  0  0
   -4.2933   -0.1780    0.2278 C   0  0  0  0  0  0  0  0  0  0  0  0
    2.2668   -0.6331   -1.4913 H   0  0  0  0  0  0  0  0  0  0  0  0
    0.7219   -0.8441    1.1239 H   0  0  0  0  0  0  0  0  0  0  0  0
    0.0228    0.2580   -1.6585 H   0  0  0  0  0  0  0  0  0  0  0  0
    4.3368    0.6952   -1.4457 H   0  0  0  0  0  0  0  0  0  0  0  0
    2.2121    1.8380   -1.5374 H   0  0  0  0  0  0  0  0  0  0  0  0
    2.4405    2.7692   -0.0668 H   0  0  0  0  0  0  0  0  0  0  0  0
    3.2475   -2.6002   -0.6464 H   0  0  0  0  0  0  0  0  0  0  0  0
    3.1263   -2.0715    1.0361 H   0  0  0  0  0  0  0  0  0  0  0  0
    0.3581    1.8959    0.8939 H   0  0  0  0  0  0  0  0  0  0  0  0
    0.0645    2.4993   -0.7252 H   0  0  0  0  0  0  0  0  0  0  0  0
    5.2299   -1.1261    0.7964 H   0  0  0  0  0  0  0  0  0  0  0  0
    5.2199   -1.3911   -0.9439 H   0  0  0  0  0  0  0  0  0  0  0  0
    0.8258   -3.0277   -0.1479 H   0  0  0  0  0  0  0  0  0  0  0  0
    0.1685   -2.1950   -1.5548 H   0  0  0  0  0  0  0  0  0  0  0  0
    3.2946    1.7199    2.0097 H   0  0  0  0  0  0  0  0  0  0  0  0
    1.8439    0.7361    2.1250 H   0  0  0  0  0  0  0  0  0  0  0  0
    3.4253   -0.0280    2.1848 H   0  0  0  0  0  0  0  0  0  0  0  0
   -1.1200   -2.6433    1.1701 H   0  0  0  0  0  0  0  0  0  0  0  0
   -1.6830   -3.1946   -0.4135 H   0  0  0  0  0  0  0  0  0  0  0  0
    6.0987    1.1350   -0.0505 H   0  0  0  0  0  0  0  0  0  0  0  0
   -2.0506    2.2306   -0.5653 H   0  0  0  0  0  0  0  0  0  0  0  0
   -3.8440   -2.2582    0.5080 H   0  0  0  0  0  0  0  0  0  0  0  0
   -4.0781    2.9498   -0.3564 H   0  0  0  0  0  0  0  0  0  0  0  0
   -6.0610    0.5157    0.3941 H   0  0  0  0  0  0  0  0  0  0  0  0
  1  8  1  0  0  0  0
  1 41  1  0  0  0  0
  2 20  1  0  0  0  0
  2 44  1  0  0  0  0
  3 21  1  0  0  0  0
  3 45  1  0  0  0  0
  4  5  1  0  0  0  0
  4  8  1  0  0  0  0
  4  9  1  0  0  0  0
  4 14  1  0  0  0  0
  5  6  1  0  0  0  0
  5 10  1  0  0  0  0
  5 22  1  0  0  0  0
  6  7  1  0  0  0  0
  6 13  1  0  0  0  0
  6 23  1  0  0  0  0
  7 11  1  0  0  0  0
  7 15  1  0  0  0  0
  7 24  1  0  0  0  0
  8 12  1  0  0  0  0
  8 25  1  0  0  0  0
  9 11  1  0  0  0  0
  9 26  1  0  0  0  0
  9 27  1  0  0  0  0
 10 12  1  0  0  0  0
 10 28  1  0  0  0  0
 10 29  1  0  0  0  0
 11 30  1  0  0  0  0
 11 31  1  0  0  0  0
 12 32  1  0  0  0  0
 12 33  1  0  0  0  0
 13 16  1  0  0  0  0
 13 34  1  0  0  0  0
 13 35  1  0  0  0  0
 14 36  1  0  0  0  0
 14 37  1  0  0  0  0
 14 38  1  0  0  0  0
 15 17  1  0  0  0  0
 15 18  2  0  0  0  0
 16 17  1  0  0  0  0
 16 39  1  0  0  0  0
 16 40  1  0  0  0  0
 17 19  2  0  0  0  0
 18 20  1  0  0  0  0
 18 42  1  0  0  0  0
 19 21  1  0  0  0  0
 19 43  1  0  0  0  0
 20 21  2  0  0  0  0
M  END
> <PUBCHEM_COMPOUND_CID>
247304

> <PUBCHEM_CONFORMER_RMSD>
0.6

> <PUBCHEM_CONFORMER_DIVERSEORDER>
1

> <PUBCHEM_MMFF94_PARTIAL_CHARGES>
17
1 -0.68
15 -0.14
16 0.14
17 -0.14
18 -0.15
19 -0.15
2 -0.53
20 0.08
21 0.08
3 -0.53
41 0.4
42 0.15
43 0.15
44 0.45
45 0.45
7 0.14
8 0.28

> <PUBCHEM_EFFECTIVE_ROTOR_COUNT>
1.4

> <PUBCHEM_PHARMACOPHORE_FEATURES>
8
1 1 acceptor
1 1 donor
1 2 donor
1 3 donor
5 4 5 8 10 12 rings
6 15 17 18 19 20 21 rings
6 4 5 6 7 9 11 rings
6 6 7 13 15 16 17 rings

> <PUBCHEM_HEAVY_ATOM_COUNT>
21

> <PUBCHEM_ATOM_DEF_STEREO_COUNT>
5

> <PUBCHEM_ATOM_UDEF_STEREO_COUNT>
0

> <PUBCHEM_BOND_DEF_STEREO_COUNT>
0

> <PUBCHEM_BOND_UDEF_STEREO_COUNT>
0

> <PUBCHEM_ISOTOPIC_ATOM_COUNT>
0

> <PUBCHEM_COMPONENT_COUNT>
1

> <PUBCHEM_CACTVS_TAUTO_COUNT>
31

> <PUBCHEM_CONFORMER_ID>
0003C60800000001

> <PUBCHEM_MMFF94_ENERGY>
70.687

> <PUBCHEM_FEATURE_SELFOVERLAP>
40.697

> <PUBCHEM_SHAPE_FINGERPRINT>
10 15 18269841926442368592
10411042 1 17113538675992556583
10616163 171 18267018362737725494
10646746 165 18410009948661039775
10967382 1 18411136973970815206
11132069 177 18412830183085494087
12011746 2 18409162229754833598
12107183 9 17836085950087327337
12236239 1 17489870427294825589
12251169 10 18342176631015431311
12390115 104 18262220223196479793
12403259 226 18263929843702976105
12403259 415 18334298669100124377
12403260 363 18410577258528434621
12403814 3 17561370569058855869
12500047 106 18334299725672362154
12507560 40 18409729564526842501
12592029 89 18342173397079598827
12788726 201 17749381620312725968
13140716 1 18124596375186347656
13544592 145 18260820527888447454
13675066 3 18334014973334846353
14178342 30 18048898307335426266
14341114 176 18411692193040918115
14790565 3 18052813642725600284
14866123 147 17108460018682107874
15042514 8 18196647398795465299
15196674 1 18411418435867250207
15256400 18 18410854390813342885
15536298 74 18407759248369681222
1601671 61 18413387635882086572
16945 1 18194408788155900414
17349148 13 18408046204051501447
17804303 29 18411696582244332565
1813 80 16917065568513053220
18186145 218 17385727971525019186
192875 21 13840261459985998314
19591789 44 18268148841084895910
200 152 18041002838984785653
20510252 161 18335137622120582513
20645477 70 18114459054594561102
21033648 29 18187657898456983737
21267235 1 18412252948065922311
21279426 13 18192990637215063638
21421861 104 17845105124439156290
22854114 59 18408884036169936571
23402539 116 18334019388967389407
23558518 356 17697317313643240626
23559900 14 18336546118380827670
2748010 2 18339082691178586406
3004659 81 18271802471796948462
335352 9 18339360897769600478
34934 24 18410859828801050294
350125 39 18411695461875293485
351380 180 18411699872669374495
3545911 37 18408601444375121900
4214541 1 18412261757312741845
465052 167 17989199331066845323
495365 180 17240776055691341034
5104073 3 18412543253669110387
542803 24 17240479208551735697
69090 78 18335423443720299599
77779 3 18411980264929178758
7832392 63 18336831879560845806
9709674 26 18410849928274237847

> <PUBCHEM_SHAPE_MULTIPOLES>
414.56
10.17
2.26
0.83
2.78
0.33
0.22
-2.04
1.08
0.26
-0.14
-0.41
-0.11
0.43

> <PUBCHEM_SHAPE_SELFOVERLAP>
905.423

> <PUBCHEM_SHAPE_VOLUME>
224.6

> <PUBCHEM_COORDINATE_TYPE>
2
5
10

$$$$

