17395687
  -OEChem-06241222512D

 44 47  0     0  0  0  0  0  0999 V2000
    7.0468   -5.0352    0.0000 Cl  0  0  0  0  0  0  0  0  0  0  0  0
    7.0468   -0.0352    0.0000 S   0  0  0  0  0  0  0  0  0  0  0  0
    7.0468   -2.0352    0.0000 O   0  0  0  0  0  0  0  0  0  0  0  0
    7.8558    1.5526    0.0000 N   0  0  0  0  0  0  0  0  0  0  0  0
    5.3147   -2.0352    0.0000 N   0  0  0  0  0  0  0  0  0  0  0  0
    3.5827   -3.0352    0.0000 N   0  0  0  0  0  0  0  0  0  0  0  0
    6.5468    2.5036    0.0000 N   0  0  0  0  0  0  0  0  0  0  0  0
    6.2378    1.5526    0.0000 N   0  0  0  0  0  0  0  0  0  0  0  0
    3.4782   -2.0407    0.0000 N   0  0  0  0  0  0  0  0  0  0  0  0
    2.0000   -2.6988    0.0000 N   0  0  0  0  0  0  0  0  0  0  0  0
    9.3101    4.9307    0.0000 N   0  0  0  0  0  0  0  0  0  0  0  0
    5.3147   -3.0352    0.0000 C   0  0  0  0  0  0  0  0  0  0  0  0
    4.4487   -3.5352    0.0000 C   0  0  0  0  0  0  0  0  0  0  0  0
    7.5468    2.5036    0.0000 C   0  0  0  0  0  0  0  0  0  0  0  0
    7.0468    0.9648    0.0000 C   0  0  0  0  0  0  0  0  0  0  0  0
    8.1346    3.3126    0.0000 C   0  0  0  0  0  0  0  0  0  0  0  0
    6.1808   -0.5352    0.0000 C   0  0  0  0  0  0  0  0  0  0  0  0
    6.1808   -3.5352    0.0000 C   0  0  0  0  0  0  0  0  0  0  0  0
    4.4487   -4.5352    0.0000 C   0  0  0  0  0  0  0  0  0  0  0  0
    6.1808   -1.5352    0.0000 C   0  0  0  0  0  0  0  0  0  0  0  0
    8.8069    1.2436    0.0000 C   0  0  0  0  0  0  0  0  0  0  0  0
    6.1808   -4.5352    0.0000 C   0  0  0  0  0  0  0  0  0  0  0  0
    5.3147   -5.0352    0.0000 C   0  0  0  0  0  0  0  0  0  0  0  0
    7.7278    4.2262    0.0000 C   0  0  0  0  0  0  0  0  0  0  0  0
    9.1291    3.2081    0.0000 C   0  0  0  0  0  0  0  0  0  0  0  0
    2.6691   -3.4420    0.0000 C   0  0  0  0  0  0  0  0  0  0  0  0
    8.3156    5.0352    0.0000 C   0  0  0  0  0  0  0  0  0  0  0  0
    9.7169    4.0171    0.0000 C   0  0  0  0  0  0  0  0  0  0  0  0
    2.5000   -1.8328    0.0000 C   0  0  0  0  0  0  0  0  0  0  0  0
    4.7778   -1.7252    0.0000 H   0  0  0  0  0  0  0  0  0  0  0  0
    5.9687    0.0474    0.0000 H   0  0  0  0  0  0  0  0  0  0  0  0
    5.5702   -0.6429    0.0000 H   0  0  0  0  0  0  0  0  0  0  0  0
    6.7177   -3.2252    0.0000 H   0  0  0  0  0  0  0  0  0  0  0  0
    3.9118   -4.8452    0.0000 H   0  0  0  0  0  0  0  0  0  0  0  0
    8.6153    0.6539    0.0000 H   0  0  0  0  0  0  0  0  0  0  0  0
    9.3965    1.0520    0.0000 H   0  0  0  0  0  0  0  0  0  0  0  0
    8.9984    1.8332    0.0000 H   0  0  0  0  0  0  0  0  0  0  0  0
    5.3147   -5.6552    0.0000 H   0  0  0  0  0  0  0  0  0  0  0  0
    7.1112    4.2910    0.0000 H   0  0  0  0  0  0  0  0  0  0  0  0
    9.3813    2.6417    0.0000 H   0  0  0  0  0  0  0  0  0  0  0  0
    2.5402   -4.0484    0.0000 H   0  0  0  0  0  0  0  0  0  0  0  0
    8.0634    5.6016    0.0000 H   0  0  0  0  0  0  0  0  0  0  0  0
   10.3335    3.9523    0.0000 H   0  0  0  0  0  0  0  0  0  0  0  0
    2.2478   -1.2664    0.0000 H   0  0  0  0  0  0  0  0  0  0  0  0
  1 22  1  0  0  0  0
  2 15  1  0  0  0  0
  2 17  1  0  0  0  0
  3 20  2  0  0  0  0
  4 14  1  0  0  0  0
  4 15  1  0  0  0  0
  4 21  1  0  0  0  0
  5 12  1  0  0  0  0
  5 20  1  0  0  0  0
  5 30  1  0  0  0  0
  6  9  1  0  0  0  0
  6 13  1  0  0  0  0
  6 26  1  0  0  0  0
  7  8  1  0  0  0  0
  7 14  2  0  0  0  0
  8 15  2  0  0  0  0
  9 29  2  0  0  0  0
 10 26  2  0  0  0  0
 10 29  1  0  0  0  0
 11 27  2  0  0  0  0
 11 28  1  0  0  0  0
 12 13  2  0  0  0  0
 12 18  1  0  0  0  0
 13 19  1  0  0  0  0
 14 16  1  0  0  0  0
 16 24  2  0  0  0  0
 16 25  1  0  0  0  0
 17 20  1  0  0  0  0
 17 31  1  0  0  0  0
 17 32  1  0  0  0  0
 18 22  2  0  0  0  0
 18 33  1  0  0  0  0
 19 23  2  0  0  0  0
 19 34  1  0  0  0  0
 21 35  1  0  0  0  0
 21 36  1  0  0  0  0
 21 37  1  0  0  0  0
 22 23  1  0  0  0  0
 23 38  1  0  0  0  0
 24 27  1  0  0  0  0
 24 39  1  0  0  0  0
 25 28  2  0  0  0  0
 25 40  1  0  0  0  0
 26 41  1  0  0  0  0
 27 42  1  0  0  0  0
 28 43  1  0  0  0  0
 29 44  1  0  0  0  0
M  END
> <PUBCHEM_COMPOUND_CID>
17395687

> <PUBCHEM_COMPOUND_CANONICALIZED>
1

> <PUBCHEM_CACTVS_COMPLEXITY>
554

> <PUBCHEM_CACTVS_HBOND_ACCEPTOR>
7

> <PUBCHEM_CACTVS_HBOND_DONOR>
1

> <PUBCHEM_CACTVS_ROTATABLE_BOND>
6

> <PUBCHEM_CACTVS_SUBSKEYS>
AAADccB74ABEAAAAAAAAAAAAAAAAAWLAAAA8QAAAAAAAAAAB/AAAHgYYAAAADArF2yS/0JfMEAiqAjd3dACS1Ctxh7Ad2CA4dpiIaOLBm5GUIAhonALIyCcQAAAKAABAAAIAACAAAIAABAAAQAAAAAAAAA==

> <PUBCHEM_IUPAC_OPENEYE_NAME>
N-[5-chloro-2-(1,2,4-triazol-1-yl)phenyl]-2-[[4-methyl-5-(4-pyridyl)-1,2,4-triazol-3-yl]sulfanyl]acetamide

> <PUBCHEM_IUPAC_CAS_NAME>
N-[5-chloro-2-(1,2,4-triazol-1-yl)phenyl]-2-[(4-methyl-5-pyridin-4-yl-1,2,4-triazol-3-yl)thio]acetamide

> <PUBCHEM_IUPAC_NAME>
N-[5-chloro-2-(1,2,4-triazol-1-yl)phenyl]-2-[(4-methyl-5-pyridin-4-yl-1,2,4-triazol-3-yl)sulfanyl]acetamide

> <PUBCHEM_IUPAC_SYSTEMATIC_NAME>
N-[5-chloranyl-2-(1,2,4-triazol-1-yl)phenyl]-2-[(4-methyl-5-pyridin-4-yl-1,2,4-triazol-3-yl)sulfanyl]ethanamide

> <PUBCHEM_IUPAC_TRADITIONAL_NAME>
N-[5-chloro-2-(1,2,4-triazol-1-yl)phenyl]-2-[[4-methyl-5-(4-pyridyl)-1,2,4-triazol-3-yl]thio]acetamide

> <PUBCHEM_IUPAC_INCHI>
InChI=1S/C18H15ClN8OS/c1-26-17(12-4-6-20-7-5-12)24-25-18(26)29-9-16(28)23-14-8-13(19)2-3-15(14)27-11-21-10-22-27/h2-8,10-11H,9H2,1H3,(H,23,28)

> <PUBCHEM_IUPAC_INCHIKEY>
FHVZVRJNHXCZMX-UHFFFAOYSA-N

> <PUBCHEM_XLOGP3_AA>
2.1

> <PUBCHEM_EXACT_MASS>
426.077806

> <PUBCHEM_MOLECULAR_FORMULA>
C18H15ClN8OS

> <PUBCHEM_MOLECULAR_WEIGHT>
426.8827

> <PUBCHEM_OPENEYE_CAN_SMILES>
CN1C(=NN=C1SCC(=O)NC2=C(C=CC(=C2)Cl)N3C=NC=N3)C4=CC=NC=C4

> <PUBCHEM_OPENEYE_ISO_SMILES>
CN1C(=NN=C1SCC(=O)NC2=C(C=CC(=C2)Cl)N3C=NC=N3)C4=CC=NC=C4

> <PUBCHEM_CACTVS_TPSA>
129

> <PUBCHEM_MONOISOTOPIC_WEIGHT>
426.077806

> <PUBCHEM_TOTAL_CHARGE>
0

> <PUBCHEM_HEAVY_ATOM_COUNT>
29

> <PUBCHEM_ATOM_DEF_STEREO_COUNT>
0

> <PUBCHEM_ATOM_UDEF_STEREO_COUNT>
0

> <PUBCHEM_BOND_DEF_STEREO_COUNT>
0

> <PUBCHEM_BOND_UDEF_STEREO_COUNT>
0

> <PUBCHEM_ISOTOPIC_ATOM_COUNT>
0

> <PUBCHEM_COMPONENT_COUNT>
1

> <PUBCHEM_CACTVS_TAUTO_COUNT>
3

> <PUBCHEM_COORDINATE_TYPE>
1
5
255

> <PUBCHEM_BONDANNOTATIONS>
10  26  8
10  29  8
11  27  8
11  28  8
12  13  8
12  18  8
13  19  8
16  24  8
16  25  8
18  22  8
19  23  8
22  23  8
24  27  8
25  28  8
4  14  8
4  15  8
6  26  8
6  9  8
7  14  8
7  8  8
8  15  8
9  29  8

$$$$

