252381
  -OEChem-07051213063D

 35 37  0     0  0  0  0  0  0999 V2000
    5.5552    0.2351    0.0134 O   0  0  0  0  0  0  0  0  0  0  0  0
   -6.4319   -0.5809    0.0626 O   0  0  0  0  0  0  0  0  0  0  0  0
    0.9950    1.9538   -0.5895 C   0  0  0  0  0  0  0  0  0  0  0  0
   -0.3830    1.7607    0.0567 C   0  0  0  0  0  0  0  0  0  0  0  0
    1.9499    0.8401   -0.2478 C   0  0  0  0  0  0  0  0  0  0  0  0
   -0.8713    0.3296   -0.0030 C   0  0  0  0  0  0  0  0  0  0  0  0
    1.4511   -0.4514   -0.0001 C   0  0  0  0  0  0  0  0  0  0  0  0
    0.0027   -0.6951   -0.0243 C   0  0  0  0  0  0  0  0  0  0  0  0
   -2.3335    0.0897    0.0136 C   0  0  0  0  0  0  0  0  0  0  0  0
    3.3323    1.0621   -0.2495 C   0  0  0  0  0  0  0  0  0  0  0  0
    2.3428   -1.5012    0.2508 C   0  0  0  0  0  0  0  0  0  0  0  0
    4.2123    0.0122    0.0112 C   0  0  0  0  0  0  0  0  0  0  0  0
    3.7186   -1.2668    0.2606 C   0  0  0  0  0  0  0  0  0  0  0  0
   -2.8637   -1.0496   -0.5944 C   0  0  0  0  0  0  0  0  0  0  0  0
   -3.1847    1.0034    0.6382 C   0  0  0  0  0  0  0  0  0  0  0  0
   -4.2402   -1.2746   -0.5779 C   0  0  0  0  0  0  0  0  0  0  0  0
   -4.5613    0.7784    0.6547 C   0  0  0  0  0  0  0  0  0  0  0  0
   -5.0891   -0.3608    0.0466 C   0  0  0  0  0  0  0  0  0  0  0  0
    6.3987   -0.8846    0.2781 C   0  0  0  0  0  0  0  0  0  0  0  0
    1.4030    2.9203   -0.2704 H   0  0  0  0  0  0  0  0  0  0  0  0
    0.8886    1.9865   -1.6815 H   0  0  0  0  0  0  0  0  0  0  0  0
   -1.0781    2.4401   -0.4517 H   0  0  0  0  0  0  0  0  0  0  0  0
   -0.3367    2.0689    1.1098 H   0  0  0  0  0  0  0  0  0  0  0  0
   -0.3086   -1.7345   -0.0156 H   0  0  0  0  0  0  0  0  0  0  0  0
    3.7247    2.0544   -0.4587 H   0  0  0  0  0  0  0  0  0  0  0  0
    1.9773   -2.5073    0.4427 H   0  0  0  0  0  0  0  0  0  0  0  0
    4.3467   -2.1269    0.4663 H   0  0  0  0  0  0  0  0  0  0  0  0
   -2.2407   -1.7733   -1.1128 H   0  0  0  0  0  0  0  0  0  0  0  0
   -2.8077    1.8928    1.1356 H   0  0  0  0  0  0  0  0  0  0  0  0
   -4.6465   -2.1609   -1.0578 H   0  0  0  0  0  0  0  0  0  0  0  0
   -5.2118    1.4960    1.1475 H   0  0  0  0  0  0  0  0  0  0  0  0
    7.4327   -0.5263    0.2401 H   0  0  0  0  0  0  0  0  0  0  0  0
    6.2990   -1.6552   -0.4939 H   0  0  0  0  0  0  0  0  0  0  0  0
    6.2354   -1.2823    1.2855 H   0  0  0  0  0  0  0  0  0  0  0  0
   -6.8654    0.1501    0.5356 H   0  0  0  0  0  0  0  0  0  0  0  0
  1 12  1  0  0  0  0
  1 19  1  0  0  0  0
  2 18  1  0  0  0  0
  2 35  1  0  0  0  0
  3  4  1  0  0  0  0
  3  5  1  0  0  0  0
  3 20  1  0  0  0  0
  3 21  1  0  0  0  0
  4  6  1  0  0  0  0
  4 22  1  0  0  0  0
  4 23  1  0  0  0  0
  5  7  2  0  0  0  0
  5 10  1  0  0  0  0
  6  8  2  0  0  0  0
  6  9  1  0  0  0  0
  7  8  1  0  0  0  0
  7 11  1  0  0  0  0
  8 24  1  0  0  0  0
  9 14  2  0  0  0  0
  9 15  1  0  0  0  0
 10 12  2  0  0  0  0
 10 25  1  0  0  0  0
 11 13  2  0  0  0  0
 11 26  1  0  0  0  0
 12 13  1  0  0  0  0
 13 27  1  0  0  0  0
 14 16  1  0  0  0  0
 14 28  1  0  0  0  0
 15 17  2  0  0  0  0
 15 29  1  0  0  0  0
 16 18  2  0  0  0  0
 16 30  1  0  0  0  0
 17 18  1  0  0  0  0
 17 31  1  0  0  0  0
 19 32  1  0  0  0  0
 19 33  1  0  0  0  0
 19 34  1  0  0  0  0
M  END
> <PUBCHEM_COMPOUND_CID>
252381

> <PUBCHEM_CONFORMER_RMSD>
0.6

> <PUBCHEM_CONFORMER_DIVERSEORDER>
2
3
1

> <PUBCHEM_MMFF94_PARTIAL_CHARGES>
28
1 -0.36
10 -0.15
11 -0.15
12 0.08
13 -0.15
14 -0.15
15 -0.15
16 -0.15
17 -0.15
18 0.08
19 0.28
2 -0.53
24 0.15
25 0.15
26 0.15
27 0.15
28 0.15
29 0.15
3 0.14
30 0.15
31 0.15
35 0.45
4 0.14
5 -0.14
6 -0.17
7 0.03
8 -0.18
9 0.03

> <PUBCHEM_EFFECTIVE_ROTOR_COUNT>
2.4

> <PUBCHEM_PHARMACOPHORE_FEATURES>
5
1 1 acceptor
1 2 donor
6 3 4 5 6 7 8 rings
6 5 7 10 11 12 13 rings
6 9 14 15 16 17 18 rings

> <PUBCHEM_HEAVY_ATOM_COUNT>
19

> <PUBCHEM_ATOM_DEF_STEREO_COUNT>
0

> <PUBCHEM_ATOM_UDEF_STEREO_COUNT>
0

> <PUBCHEM_BOND_DEF_STEREO_COUNT>
0

> <PUBCHEM_BOND_UDEF_STEREO_COUNT>
0

> <PUBCHEM_ISOTOPIC_ATOM_COUNT>
0

> <PUBCHEM_COMPONENT_COUNT>
1

> <PUBCHEM_CACTVS_TAUTO_COUNT>
2

> <PUBCHEM_CONFORMER_ID>
0003D9DD00000002

> <PUBCHEM_MMFF94_ENERGY>
63.7602

> <PUBCHEM_FEATURE_SELFOVERLAP>
25.395

> <PUBCHEM_SHAPE_FINGERPRINT>
10906281 52 18270098181122742038
11315181 36 18187081741679353017
11806522 49 18412545418454075924
12107183 9 17614557468314920323
12236239 1 18333730216997859793
13167823 11 18407760326591121287
13288520 33 18409729564943606461
13583140 156 14707217616553454943
13760787 5 18060413595412459252
13862211 1 18343303686891105162
15196674 1 18339079396943821320
15788980 27 17989208148502731069
17834072 33 18408040688896898244
1813 80 18059563737116420844
19489759 90 16660361494007837947
200 152 18409450288599826177
20612939 158 18131347466780922317
20645477 70 18342739645346311415
21267235 1 18410848867448541870
21641784 216 17488729194961834236
221490 88 18127404549691093331
22224240 67 17022912241715774854
23035841 295 18408322207219122074
23402539 116 18408889546365064164
23522609 53 18124847240723359516
23557571 272 17603298288789347336
23559900 14 18265620888033260585
23622692 118 17824837650458136383
26918003 58 17989484117267974011
2871803 45 18131353037896466506
3004659 81 18131071532738985668
335352 9 18411981342860553374
34797466 226 16733256859998164304
351380 3 18413110567277901946
3545911 37 18408322185664975915
4214541 1 18408603682332943825
4463277 17 18411138039323164596
465052 167 18410851040665174486
5104073 3 18188203183589380531
542803 24 4895552987227242387
559249 180 18410013264961224741
602551 16 16081660967171502143
7495541 125 16805610209256407346
9971528 1 18271810077556535596
9981440 41 17257657720722172057

> <PUBCHEM_SHAPE_MULTIPOLES>
379.27
13.47
1.63
0.73
0.09
0.34
0
-3.94
1.14
0.27
-0.11
-0.22
0.03
-0.81

> <PUBCHEM_SHAPE_SELFOVERLAP>
830.669

> <PUBCHEM_SHAPE_VOLUME>
204.6

> <PUBCHEM_COORDINATE_TYPE>
2
5
10

$$$$

