5462259
  -OEChem-07051212492D

 22 21  0     1  0  0  0  0  0999 V2000
    2.5369    0.0000    0.0000 O   0  0  0  0  0  0  0  0  0  0  0  0
    5.1350    1.5000    0.0000 O   0  0  0  0  0  0  0  0  0  0  0  0
    3.4030    1.5000    0.0000 O   0  0  0  0  0  0  0  0  0  0  0  0
    6.8671    0.5000    0.0000 O   0  0  0  0  0  0  0  0  0  0  0  0
    6.0010   -1.0000    0.0000 O   0  0  0  0  0  0  0  0  0  0  0  0
    4.2690   -1.0000    0.0000 C   0  0  0  0  0  0  0  0  0  0  0  0
    4.2690    0.0000    0.0000 C   0  0  1  0  0  0  0  0  0  0  0  0
    3.4030   -1.5000    0.0000 C   0  0  0  0  0  0  0  0  0  0  0  0
    5.1350   -1.5000    0.0000 C   0  0  0  0  0  0  0  0  0  0  0  0
    5.1350    0.5000    0.0000 C   0  0  0  0  0  0  0  0  0  0  0  0
    3.4030    0.5000    0.0000 C   0  0  0  0  0  0  0  0  0  0  0  0
    6.0010    0.0000    0.0000 C   0  0  0  0  0  0  0  0  0  0  0  0
    4.2690   -1.6200    0.0000 H   0  0  0  0  0  0  0  0  0  0  0  0
    4.2690    0.6200    0.0000 H   0  0  0  0  0  0  0  0  0  0  0  0
    3.0930   -0.9631    0.0000 H   0  0  0  0  0  0  0  0  0  0  0  0
    2.8660   -1.8100    0.0000 H   0  0  0  0  0  0  0  0  0  0  0  0
    3.7130   -2.0369    0.0000 H   0  0  0  0  0  0  0  0  0  0  0  0
    4.8250   -2.0369    0.0000 H   0  0  0  0  0  0  0  0  0  0  0  0
    5.6720   -1.8100    0.0000 H   0  0  0  0  0  0  0  0  0  0  0  0
    5.4450   -0.9631    0.0000 H   0  0  0  0  0  0  0  0  0  0  0  0
    2.0000    0.3100    0.0000 H   0  0  0  0  0  0  0  0  0  0  0  0
    7.4040    0.1900    0.0000 H   0  0  0  0  0  0  0  0  0  0  0  0
  1 11  1  0  0  0  0
  1 21  1  0  0  0  0
  2 10  2  0  0  0  0
  3 11  2  0  0  0  0
  4 12  1  0  0  0  0
  4 22  1  0  0  0  0
  5 12  2  0  0  0  0
  6  7  1  0  0  0  0
  6  8  1  0  0  0  0
  6  9  1  0  0  0  0
  6 13  1  0  0  0  0
  7 10  1  6  0  0  0
  7 11  1  0  0  0  0
  7 14  1  0  0  0  0
  8 15  1  0  0  0  0
  8 16  1  0  0  0  0
  8 17  1  0  0  0  0
  9 18  1  0  0  0  0
  9 19  1  0  0  0  0
  9 20  1  0  0  0  0
 10 12  1  0  0  0  0
M  END
> <PUBCHEM_COMPOUND_CID>
5462259

> <PUBCHEM_COMPOUND_CANONICALIZED>
1

> <PUBCHEM_CACTVS_COMPLEXITY>
218

> <PUBCHEM_CACTVS_HBOND_ACCEPTOR>
5

> <PUBCHEM_CACTVS_HBOND_DONOR>
2

> <PUBCHEM_CACTVS_ROTATABLE_BOND>
4

> <PUBCHEM_CACTVS_SUBSKEYS>
AAADccBgOAAAAAAAAAAAAAAAAAAAAAAAAAAAAAAAAAAAAAAAAAAAGgAACAAADQSAgAACCAAAAgAIAICQCAIAAAAAAAAAAAFAAAAAABYIAAAAQAAEIAAAAADLAAAOgAAAAAAAAAAAAAAAAAAAAAAAAAAAAA==

> <PUBCHEM_IUPAC_OPENEYE_NAME>
(2S)-2-isopropyl-3-oxo-butanedioic acid

> <PUBCHEM_IUPAC_CAS_NAME>
(3S)-2-oxo-3-propan-2-ylbutanedioic acid

> <PUBCHEM_IUPAC_NAME>
(3S)-2-oxo-3-propan-2-ylbutanedioic acid

> <PUBCHEM_IUPAC_SYSTEMATIC_NAME>
(3S)-2-oxidanylidene-3-propan-2-yl-butanedioic acid

> <PUBCHEM_IUPAC_TRADITIONAL_NAME>
(2S)-2-isopropyl-3-keto-succinic acid

> <PUBCHEM_IUPAC_INCHI>
InChI=1S/C7H10O5/c1-3(2)4(6(9)10)5(8)7(11)12/h3-4H,1-2H3,(H,9,10)(H,11,12)/t4-/m0/s1

> <PUBCHEM_IUPAC_INCHIKEY>
HIIZAGQWABAMRR-BYPYZUCNSA-N

> <PUBCHEM_XLOGP3_AA>
0.7

> <PUBCHEM_EXACT_MASS>
174.052823

> <PUBCHEM_MOLECULAR_FORMULA>
C7H10O5

> <PUBCHEM_MOLECULAR_WEIGHT>
174.1513

> <PUBCHEM_OPENEYE_CAN_SMILES>
CC(C)C(C(=O)C(=O)O)C(=O)O

> <PUBCHEM_OPENEYE_ISO_SMILES>
CC(C)[C@@H](C(=O)C(=O)O)C(=O)O

> <PUBCHEM_CACTVS_TPSA>
91.7

> <PUBCHEM_MONOISOTOPIC_WEIGHT>
174.052823

> <PUBCHEM_TOTAL_CHARGE>
0

> <PUBCHEM_HEAVY_ATOM_COUNT>
12

> <PUBCHEM_ATOM_DEF_STEREO_COUNT>
1

> <PUBCHEM_ATOM_UDEF_STEREO_COUNT>
0

> <PUBCHEM_BOND_DEF_STEREO_COUNT>
0

> <PUBCHEM_BOND_UDEF_STEREO_COUNT>
0

> <PUBCHEM_ISOTOPIC_ATOM_COUNT>
0

> <PUBCHEM_COMPONENT_COUNT>
1

> <PUBCHEM_CACTVS_TAUTO_COUNT>
3

> <PUBCHEM_COORDINATE_TYPE>
1
5
255

> <PUBCHEM_BONDANNOTATIONS>
7  10  6

$$$$

