5281645
  -OEChem-07051212583D

 47 50  0     1  0  0  0  0  0999 V2000
   -2.1375    0.0125    0.9906 O   0  0  0  0  0  0  0  0  0  0  0  0
   -2.0812    0.7666   -2.6008 O   0  0  0  0  0  0  0  0  0  0  0  0
   -3.1679   -1.9608   -2.4718 O   0  0  0  0  0  0  0  0  0  0  0  0
   -4.7401   -2.3287   -0.0848 O   0  0  0  0  0  0  0  0  0  0  0  0
    0.4590   -0.4640   -0.0867 O   0  0  0  0  0  0  0  0  0  0  0  0
   -3.3339   -0.4309    3.4231 O   0  0  0  0  0  0  0  0  0  0  0  0
   -1.9244    3.6485   -0.0923 O   0  0  0  0  0  0  0  0  0  0  0  0
    2.8034    3.7847    0.1994 O   0  0  0  0  0  0  0  0  0  0  0  0
    4.0557    1.4663    0.1968 O   0  0  0  0  0  0  0  0  0  0  0  0
    5.0719   -3.5018    0.0926 O   0  0  0  0  0  0  0  0  0  0  0  0
   -2.0504   -0.0774   -1.4500 C   0  0  1  0  0  0  0  0  0  0  0  0
   -2.0084    0.8058   -0.1935 C   0  0  2  0  0  0  0  0  0  0  0  0
   -3.2958   -0.9682   -1.4521 C   0  0  2  0  0  0  0  0  0  0  0  0
   -3.4681   -1.6864   -0.1138 C   0  0  1  0  0  0  0  0  0  0  0  0
   -3.3757   -0.6968    1.0492 C   0  0  1  0  0  0  0  0  0  0  0  0
   -0.7094    1.5808   -0.0886 C   0  0  0  0  0  0  0  0  0  0  0  0
   -3.4353   -1.4040    2.3993 C   0  0  0  0  0  0  0  0  0  0  0  0
    0.5127    0.9073   -0.0372 C   0  0  0  0  0  0  0  0  0  0  0  0
   -0.7404    2.9750   -0.0435 C   0  0  0  0  0  0  0  0  0  0  0  0
    1.6983    1.6352    0.0593 C   0  0  0  0  0  0  0  0  0  0  0  0
    0.4483    3.6988    0.0531 C   0  0  0  0  0  0  0  0  0  0  0  0
    1.6724    3.0315    0.1049 C   0  0  0  0  0  0  0  0  0  0  0  0
    2.9738    0.9044    0.1121 C   0  0  0  0  0  0  0  0  0  0  0  0
    1.6396   -1.1636   -0.0383 C   0  0  0  0  0  0  0  0  0  0  0  0
    2.8948   -0.5634    0.0583 C   0  0  0  0  0  0  0  0  0  0  0  0
    4.0532   -1.3435    0.1027 C   0  0  0  0  0  0  0  0  0  0  0  0
    1.5415   -2.5555   -0.0909 C   0  0  0  0  0  0  0  0  0  0  0  0
    3.9486   -2.7336    0.0498 C   0  0  0  0  0  0  0  0  0  0  0  0
    2.6954   -3.3388   -0.0469 C   0  0  0  0  0  0  0  0  0  0  0  0
   -1.1847   -0.7289   -1.5751 H   0  0  0  0  0  0  0  0  0  0  0  0
   -2.8561    1.5014   -0.2216 H   0  0  0  0  0  0  0  0  0  0  0  0
   -4.1941   -0.3881   -1.6970 H   0  0  0  0  0  0  0  0  0  0  0  0
   -2.7035   -2.4672   -0.0184 H   0  0  0  0  0  0  0  0  0  0  0  0
   -4.1968    0.0321    1.0128 H   0  0  0  0  0  0  0  0  0  0  0  0
   -2.6029   -2.1051    2.5213 H   0  0  0  0  0  0  0  0  0  0  0  0
   -4.3758   -1.9464    2.5317 H   0  0  0  0  0  0  0  0  0  0  0  0
   -2.8714    1.3300   -2.5405 H   0  0  0  0  0  0  0  0  0  0  0  0
   -3.0328   -1.4945   -3.3146 H   0  0  0  0  0  0  0  0  0  0  0  0
   -5.4250   -1.6424   -0.1589 H   0  0  0  0  0  0  0  0  0  0  0  0
    0.4276    4.7855    0.0886 H   0  0  0  0  0  0  0  0  0  0  0  0
   -2.4965    0.0464    3.2932 H   0  0  0  0  0  0  0  0  0  0  0  0
   -1.7490    4.6042   -0.0497 H   0  0  0  0  0  0  0  0  0  0  0  0
    5.0327   -0.8786    0.1780 H   0  0  0  0  0  0  0  0  0  0  0  0
    0.5696   -3.0363   -0.1663 H   0  0  0  0  0  0  0  0  0  0  0  0
    3.5881    3.2160    0.2280 H   0  0  0  0  0  0  0  0  0  0  0  0
    2.6111   -4.4214   -0.0883 H   0  0  0  0  0  0  0  0  0  0  0  0
    5.8493   -2.9211    0.1594 H   0  0  0  0  0  0  0  0  0  0  0  0
  1 12  1  0  0  0  0
  1 15  1  0  0  0  0
  2 11  1  0  0  0  0
  2 37  1  0  0  0  0
  3 13  1  0  0  0  0
  3 38  1  0  0  0  0
  4 14  1  0  0  0  0
  4 39  1  0  0  0  0
  5 18  1  0  0  0  0
  5 24  1  0  0  0  0
  6 17  1  0  0  0  0
  6 41  1  0  0  0  0
  7 19  1  0  0  0  0
  7 42  1  0  0  0  0
  8 22  1  0  0  0  0
  8 45  1  0  0  0  0
  9 23  2  0  0  0  0
 10 28  1  0  0  0  0
 10 47  1  0  0  0  0
 11 12  1  0  0  0  0
 11 13  1  0  0  0  0
 11 30  1  0  0  0  0
 12 16  1  0  0  0  0
 12 31  1  0  0  0  0
 13 14  1  0  0  0  0
 13 32  1  0  0  0  0
 14 15  1  0  0  0  0
 14 33  1  0  0  0  0
 15 17  1  0  0  0  0
 15 34  1  0  0  0  0
 16 18  1  0  0  0  0
 16 19  2  0  0  0  0
 17 35  1  0  0  0  0
 17 36  1  0  0  0  0
 18 20  2  0  0  0  0
 19 21  1  0  0  0  0
 20 22  1  0  0  0  0
 20 23  1  0  0  0  0
 21 22  2  0  0  0  0
 21 40  1  0  0  0  0
 23 25  1  0  0  0  0
 24 25  2  0  0  0  0
 24 27  1  0  0  0  0
 25 26  1  0  0  0  0
 26 28  2  0  0  0  0
 26 43  1  0  0  0  0
 27 29  2  0  0  0  0
 27 44  1  0  0  0  0
 28 29  1  0  0  0  0
 29 46  1  0  0  0  0
M  END
> <PUBCHEM_COMPOUND_CID>
5281645

> <PUBCHEM_CONFORMER_RMSD>
0.8

> <PUBCHEM_CONFORMER_DIVERSEORDER>
2
5
4
7
1
3
6

> <PUBCHEM_MMFF94_PARTIAL_CHARGES>
40
1 -0.56
10 -0.53
11 0.28
12 0.42
13 0.28
14 0.28
15 0.28
16 -0.14
17 0.28
18 0.08
19 0.08
2 -0.68
20 0.09
21 -0.15
22 0.08
23 0.4
24 0.08
25 0.09
26 -0.15
27 -0.15
28 0.08
29 -0.15
3 -0.68
37 0.4
38 0.4
39 0.4
4 -0.68
40 0.15
41 0.4
42 0.45
43 0.15
44 0.15
45 0.45
46 0.15
47 0.45
5 -0.17
6 -0.68
7 -0.53
8 -0.53
9 -0.57

> <PUBCHEM_EFFECTIVE_ROTOR_COUNT>
3.2

> <PUBCHEM_PHARMACOPHORE_FEATURES>
18
1 1 acceptor
1 10 donor
1 2 acceptor
1 2 donor
1 3 acceptor
1 3 donor
1 4 acceptor
1 4 donor
1 5 acceptor
1 6 acceptor
1 6 donor
1 7 donor
1 8 donor
1 9 acceptor
6 1 11 12 13 14 15 rings
6 16 18 19 20 21 22 rings
6 24 25 26 27 28 29 rings
6 5 18 20 23 24 25 rings

> <PUBCHEM_HEAVY_ATOM_COUNT>
29

> <PUBCHEM_ATOM_DEF_STEREO_COUNT>
5

> <PUBCHEM_ATOM_UDEF_STEREO_COUNT>
0

> <PUBCHEM_BOND_DEF_STEREO_COUNT>
0

> <PUBCHEM_BOND_UDEF_STEREO_COUNT>
0

> <PUBCHEM_ISOTOPIC_ATOM_COUNT>
0

> <PUBCHEM_COMPONENT_COUNT>
1

> <PUBCHEM_CACTVS_TAUTO_COUNT>
36

> <PUBCHEM_CONFORMER_ID>
0050976D00000002

> <PUBCHEM_MMFF94_ENERGY>
91.2651

> <PUBCHEM_FEATURE_SELFOVERLAP>
91.413

> <PUBCHEM_SHAPE_FINGERPRINT>
10411042 1 18410576236100085726
10622 236 17751382602737510335
10967382 1 18194125118756875996
1100329 8 18050007989044962216
11049842 53 15121299257931227579
11578080 2 17387444343900168185
11582403 64 16114092038149773245
12107183 9 18262788684083137107
12156800 1 15606441321640413795
12236239 1 17389087959428399461
12539773 59 17531247206349198991
12553582 1 18409724080165199214
12596599 1 17821440253342284215
12788726 201 17764883780390743568
13009979 54 17603868853941791799
13140716 1 17904205832789574616
13544653 18 18343295972459947886
138480 1 18410295783277475684
13911987 19 17982173318701096388
13965767 371 17534583197842919025
14790565 3 17979338773466885412
14844126 61 17977961403071498306
17974551 9 18051655998461714201
1813 80 18188195589823775078
18927931 339 18120654901554742534
19315092 285 16808456844892698959
19591789 44 17907011777799650236
19930381 70 18267308633669814459
20028762 73 17612030378525895998
20101258 96 18265890444438502530
20645477 70 18198915703534797185
21285901 2 17559131878018231567
21796203 349 18122308438167220202
221490 88 18339644537921537270
23557571 272 17131281155779153701
23559900 14 18339376252414995596
238 59 17837525988334381639
3380486 145 18128527163879662363
3737641 26 18337655482658110910
5309563 4 18410855473135207979
6669772 16 18048873001841799292
9709674 26 18340495567962809308

> <PUBCHEM_SHAPE_MULTIPOLES>
538.11
8.2
4.84
1.71
1.54
2.68
0.5
-7.72
1
3.52
-0.01
-3.37
-0.83
0.3

> <PUBCHEM_SHAPE_SELFOVERLAP>
1196.724

> <PUBCHEM_SHAPE_VOLUME>
284.1

> <PUBCHEM_COORDINATE_TYPE>
2
5
10

$$$$

