38521
  -OEChem-07051212523D

 34 35  0     1  0  0  0  0  0999 V2000
    0.3477    0.0106    0.0157 O   0  0  0  0  0  0  0  0  0  0  0  0
    1.5665    2.0048    0.2378 O   0  0  0  0  0  0  0  0  0  0  0  0
   -2.4963   -0.3416    0.3899 N   0  0  0  0  0  0  0  0  0  0  0  0
   -4.3257   -1.7651    0.4431 N   0  0  0  0  0  0  0  0  0  0  0  0
   -4.4932    0.0873   -0.8744 N   0  0  0  0  0  0  0  0  0  0  0  0
    1.6688    0.5806    0.0665 C   0  0  0  0  0  0  0  0  0  0  0  0
    2.4344   -0.0022    1.2585 C   0  0  0  0  0  0  0  0  0  0  0  0
    2.3879    0.2802   -1.2525 C   0  0  0  0  0  0  0  0  0  0  0  0
    2.7203   -1.4925    1.0858 C   0  0  0  0  0  0  0  0  0  0  0  0
    2.6759   -1.2099   -1.4254 C   0  0  0  0  0  0  0  0  0  0  0  0
    3.4385   -1.7761   -0.2307 C   0  0  0  0  0  0  0  0  0  0  0  0
   -0.5191    1.0611    0.4505 C   0  0  1  0  0  0  0  0  0  0  0  0
    0.1943    2.3043   -0.0193 C   0  0  0  0  0  0  0  0  0  0  0  0
   -1.9026    0.8866   -0.1381 C   0  0  0  0  0  0  0  0  0  0  0  0
   -3.6974   -0.6280   -0.0075 C   0  0  0  0  0  0  0  0  0  0  0  0
    1.8603    0.1457    2.1816 H   0  0  0  0  0  0  0  0  0  0  0  0
    3.3776    0.5425    1.3942 H   0  0  0  0  0  0  0  0  0  0  0  0
    3.3266    0.8470   -1.2992 H   0  0  0  0  0  0  0  0  0  0  0  0
    1.7791    0.6247   -2.0977 H   0  0  0  0  0  0  0  0  0  0  0  0
    1.7795   -2.0556    1.1181 H   0  0  0  0  0  0  0  0  0  0  0  0
    3.3319   -1.8485    1.9225 H   0  0  0  0  0  0  0  0  0  0  0  0
    3.2570   -1.3677   -2.3410 H   0  0  0  0  0  0  0  0  0  0  0  0
    1.7333   -1.7567   -1.5499 H   0  0  0  0  0  0  0  0  0  0  0  0
    4.4430   -1.3361   -0.1989 H   0  0  0  0  0  0  0  0  0  0  0  0
    3.5677   -2.8572   -0.3546 H   0  0  0  0  0  0  0  0  0  0  0  0
   -0.5518    1.0244    1.5470 H   0  0  0  0  0  0  0  0  0  0  0  0
    0.0797    2.4725   -1.0959 H   0  0  0  0  0  0  0  0  0  0  0  0
   -0.1077    3.2060    0.5198 H   0  0  0  0  0  0  0  0  0  0  0  0
   -1.8281    0.8149   -1.2304 H   0  0  0  0  0  0  0  0  0  0  0  0
   -2.5190    1.7544    0.1246 H   0  0  0  0  0  0  0  0  0  0  0  0
   -3.8655   -2.3962    1.0900 H   0  0  0  0  0  0  0  0  0  0  0  0
   -5.2647   -2.0057    0.1449 H   0  0  0  0  0  0  0  0  0  0  0  0
   -5.4243   -0.2352   -1.1156 H   0  0  0  0  0  0  0  0  0  0  0  0
   -4.1851    0.9529   -1.3026 H   0  0  0  0  0  0  0  0  0  0  0  0
  1  6  1  0  0  0  0
  1 12  1  0  0  0  0
  2  6  1  0  0  0  0
  2 13  1  0  0  0  0
  3 14  1  0  0  0  0
  3 15  2  0  0  0  0
  4 15  1  0  0  0  0
  4 31  1  0  0  0  0
  4 32  1  0  0  0  0
  5 15  1  0  0  0  0
  5 33  1  0  0  0  0
  5 34  1  0  0  0  0
  6  7  1  0  0  0  0
  6  8  1  0  0  0  0
  7  9  1  0  0  0  0
  7 16  1  0  0  0  0
  7 17  1  0  0  0  0
  8 10  1  0  0  0  0
  8 18  1  0  0  0  0
  8 19  1  0  0  0  0
  9 11  1  0  0  0  0
  9 20  1  0  0  0  0
  9 21  1  0  0  0  0
 10 11  1  0  0  0  0
 10 22  1  0  0  0  0
 10 23  1  0  0  0  0
 11 24  1  0  0  0  0
 11 25  1  0  0  0  0
 12 13  1  0  0  0  0
 12 14  1  0  0  0  0
 12 26  1  0  0  0  0
 13 27  1  0  0  0  0
 13 28  1  0  0  0  0
 14 29  1  0  0  0  0
 14 30  1  0  0  0  0
M  END
> <PUBCHEM_COMPOUND_CID>
38521

> <PUBCHEM_CONFORMER_RMSD>
0.6

> <PUBCHEM_CONFORMER_DIVERSEORDER>
1
55
8
51
57
21
4
15
52
28
36
16
47
56
2
22
39
45
50
31
58
38
3
35
20
6
12
7
33
17
32
29
11
37
18
19
9
46
25
24
14
48
43
49
53
27
44
34
41
54
40
23
42
30
10
5
13
26

> <PUBCHEM_MMFF94_PARTIAL_CHARGES>
14
1 -0.56
12 0.28
13 0.28
14 0.25
15 0.55
2 -0.56
3 -0.7
31 0.4
32 0.4
33 0.4
34 0.4
4 -0.85
5 -0.85
6 0.56

> <PUBCHEM_EFFECTIVE_ROTOR_COUNT>
3.8

> <PUBCHEM_PHARMACOPHORE_FEATURES>
7
1 1 acceptor
1 2 acceptor
1 4 donor
1 5 donor
4 3 4 5 15 cation
5 1 2 6 12 13 rings
6 6 7 8 9 10 11 rings

> <PUBCHEM_HEAVY_ATOM_COUNT>
15

> <PUBCHEM_ATOM_DEF_STEREO_COUNT>
0

> <PUBCHEM_ATOM_UDEF_STEREO_COUNT>
1

> <PUBCHEM_BOND_DEF_STEREO_COUNT>
0

> <PUBCHEM_BOND_UDEF_STEREO_COUNT>
0

> <PUBCHEM_ISOTOPIC_ATOM_COUNT>
0

> <PUBCHEM_COMPONENT_COUNT>
1

> <PUBCHEM_CACTVS_TAUTO_COUNT>
2

> <PUBCHEM_CONFORMER_ID>
0000967900000001

> <PUBCHEM_MMFF94_ENERGY>
33.5772

> <PUBCHEM_FEATURE_SELFOVERLAP>
35.627

> <PUBCHEM_SHAPE_FINGERPRINT>
10498660 4 10447923967064725087
10618630 7 18335984254494781022
11543360 7 16056870308934169475
11715629 250 9511462212800631083
11806522 49 18343300392703741722
12251169 10 5256395085270113421
12346177 29 18042408109245180209
12363563 72 18409444816932953187
12553582 1 18339348768882131123
12707595 3 18410291398073642431
13296908 3 18411982430035736129
13583140 156 14346370051175412587
14252887 29 18260265226780890458
15848700 24 18334020518253683199
17357990 137 6843620389157242770
18186145 218 12535631587325395053
18915474 69 18272925046539254390
20281475 54 18412820283650171953
20361792 2 18409167735628691237
20539784 86 15864079779777697786
20645477 70 18337114467102715935
20671657 53 18412825798161489145
20871998 22 18334858346246099104
20871999 31 18270673293996329980
21501925 9 18333740121261165696
23557571 272 18264498449896464648
251288 83 17313116241028224158
276578 36 8646764495828779348
3060560 45 14549025372601715882
31174 14 17313682515507742728
32948 21 17988372563227269853
49207404 50 7565342076429178349
633830 44 13110691587843369951
7364860 26 18261393282999134104
81228 2 18118401993074953553
81539 233 18196655086322591116
94968 8 18412537691523184250
9882013 296 6050432726617622487

> <PUBCHEM_SHAPE_MULTIPOLES>
282.01
7.46
2.05
1.14
8.7
0.46
0.12
-4.98
0.7
-0.4
-0.14
-0.91
-0.24
0.27

> <PUBCHEM_SHAPE_SELFOVERLAP>
573.926

> <PUBCHEM_SHAPE_VOLUME>
161.6

> <PUBCHEM_COORDINATE_TYPE>
2
5
10

$$$$

