46173914
  -OEChem-07051213102D

 81 85  0     1  0  0  0  0  0999 V2000
    4.7950    0.6102    0.0000 O   0  0  0  0  0  0  0  0  0  0  0  0
    2.0000   -2.9421    0.0000 O   0  0  0  0  0  0  0  0  0  0  0  0
    9.9229   -0.3898    0.0000 O   0  0  0  0  0  0  0  0  0  0  0  0
   11.6619    3.3963    0.0000 O   0  0  0  0  0  0  0  0  0  0  0  0
    9.2713    3.2665    0.0000 O   0  0  0  0  0  0  0  0  0  0  0  0
    6.5271   -1.3898    0.0000 C   0  0  1  0  0  0  0  0  0  0  0  0
    5.6610   -0.8898    0.0000 C   0  0  2  0  0  0  0  0  0  0  0  0
    4.7510   -1.3966    0.0000 C   0  0  2  0  0  0  0  0  0  0  0  0
    7.3931   -0.8898    0.0000 C   0  0  2  0  0  0  0  0  0  0  0  0
    4.7430   -2.4382    0.0000 C   0  0  1  0  0  0  0  0  0  0  0  0
    6.5431   -2.4313    0.0000 C   0  0  0  0  0  0  0  0  0  0  0  0
    5.6451   -2.9590    0.0000 C   0  0  0  0  0  0  0  0  0  0  0  0
    5.6610    0.1102    0.0000 C   0  0  2  0  0  0  0  0  0  0  0  0
    3.8076   -2.9879    0.0000 C   0  0  0  0  0  0  0  0  0  0  0  0
    7.3931    0.1102    0.0000 C   0  0  0  0  0  0  0  0  0  0  0  0
    3.8242   -0.8325    0.0000 C   0  0  0  0  0  0  0  0  0  0  0  0
    6.5271    0.6102    0.0000 C   0  0  0  0  0  0  0  0  0  0  0  0
    7.1698   -2.1558    0.0000 C   0  0  0  0  0  0  0  0  0  0  0  0
    8.3393   -1.1945    0.0000 C   0  0  0  0  0  0  0  0  0  0  0  0
    4.7587   -0.3966    0.0000 C   0  0  0  0  0  0  0  0  0  0  0  0
    7.7352   -1.8294    0.0000 C   0  0  0  0  0  0  0  0  0  0  0  0
    2.8763   -1.3605    0.0000 C   0  0  0  0  0  0  0  0  0  0  0  0
    8.3393    0.4150    0.0000 C   0  0  0  0  0  0  0  0  0  0  0  0
    2.8680   -2.4454    0.0000 C   0  0  0  0  0  0  0  0  0  0  0  0
    8.9229   -0.3898    0.0000 C   0  0  0  0  0  0  0  0  0  0  0  0
    3.3109   -3.8559    0.0000 C   0  0  0  0  0  0  0  0  0  0  0  0
    4.3109   -3.8520    0.0000 C   0  0  0  0  0  0  0  0  0  0  0  0
    8.6500    1.3655    0.0000 C   0  0  3  0  0  0  0  0  0  0  0  0
    9.6285    1.5717    0.0000 C   0  0  0  0  0  0  0  0  0  0  0  0
    7.9821    2.1098    0.0000 C   0  0  0  0  0  0  0  0  0  0  0  0
    9.9391    2.5222    0.0000 C   0  0  1  0  0  0  0  0  0  0  0  0
   10.9176    2.7285    0.0000 C   0  0  2  0  0  0  0  0  0  0  0  0
   11.8682    2.4178    0.0000 C   0  0  0  0  0  0  0  0  0  0  0  0
   12.8467    2.6240    0.0000 C   0  0  0  0  0  0  0  0  0  0  0  0
   11.5575    1.4673    0.0000 C   0  0  0  0  0  0  0  0  0  0  0  0
    6.3972   -0.4648    0.0000 H   0  0  0  0  0  0  0  0  0  0  0  0
    4.7463   -3.2882    0.0000 H   0  0  0  0  0  0  0  0  0  0  0  0
    6.7612   -3.0117    0.0000 H   0  0  0  0  0  0  0  0  0  0  0  0
    7.1523   -2.3158    0.0000 H   0  0  0  0  0  0  0  0  0  0  0  0
    5.6610    0.7302    0.0000 H   0  0  0  0  0  0  0  0  0  0  0  0
    5.2478   -3.4350    0.0000 H   0  0  0  0  0  0  0  0  0  0  0  0
    6.0460   -3.4319    0.0000 H   0  0  0  0  0  0  0  0  0  0  0  0
    4.2324   -0.3659    0.0000 H   0  0  0  0  0  0  0  0  0  0  0  0
    3.4343   -0.3505    0.0000 H   0  0  0  0  0  0  0  0  0  0  0  0
    6.9256    1.0852    0.0000 H   0  0  0  0  0  0  0  0  0  0  0  0
    6.1285    1.0852    0.0000 H   0  0  0  0  0  0  0  0  0  0  0  0
    6.6949   -2.5543    0.0000 H   0  0  0  0  0  0  0  0  0  0  0  0
    7.5684   -2.6307    0.0000 H   0  0  0  0  0  0  0  0  0  0  0  0
    7.6448   -1.7573    0.0000 H   0  0  0  0  0  0  0  0  0  0  0  0
    8.0883   -1.7614    0.0000 H   0  0  0  0  0  0  0  0  0  0  0  0
    8.8767   -1.5037    0.0000 H   0  0  0  0  0  0  0  0  0  0  0  0
    5.3787   -0.4014    0.0000 H   0  0  0  0  0  0  0  0  0  0  0  0
    4.7635    0.2234    0.0000 H   0  0  0  0  0  0  0  0  0  0  0  0
    4.1388   -0.3918    0.0000 H   0  0  0  0  0  0  0  0  0  0  0  0
    7.1526   -2.0415    0.0000 H   0  0  0  0  0  0  0  0  0  0  0  0
    7.9473   -2.4120    0.0000 H   0  0  0  0  0  0  0  0  0  0  0  0
    8.3178   -1.6173    0.0000 H   0  0  0  0  0  0  0  0  0  0  0  0
    2.6718   -0.7752    0.0000 H   0  0  0  0  0  0  0  0  0  0  0  0
    2.2647   -1.4618    0.0000 H   0  0  0  0  0  0  0  0  0  0  0  0
    2.7728   -3.5479    0.0000 H   0  0  0  0  0  0  0  0  0  0  0  0
    3.0030   -4.3940    0.0000 H   0  0  0  0  0  0  0  0  0  0  0  0
    3.8490   -4.1638    0.0000 H   0  0  0  0  0  0  0  0  0  0  0  0
    3.7752   -4.1641    0.0000 H   0  0  0  0  0  0  0  0  0  0  0  0
    4.6230   -4.3877    0.0000 H   0  0  0  0  0  0  0  0  0  0  0  0
    4.8466   -3.5399    0.0000 H   0  0  0  0  0  0  0  0  0  0  0  0
    8.0433    1.2376    0.0000 H   0  0  0  0  0  0  0  0  0  0  0  0
    4.7950    1.2302    0.0000 H   0  0  0  0  0  0  0  0  0  0  0  0
    9.6490    0.9521    0.0000 H   0  0  0  0  0  0  0  0  0  0  0  0
   10.2423    1.4844    0.0000 H   0  0  0  0  0  0  0  0  0  0  0  0
    8.4436    2.5239    0.0000 H   0  0  0  0  0  0  0  0  0  0  0  0
    7.5681    2.5713    0.0000 H   0  0  0  0  0  0  0  0  0  0  0  0
    7.5207    1.6957    0.0000 H   0  0  0  0  0  0  0  0  0  0  0  0
   10.1317    3.1116    0.0000 H   0  0  0  0  0  0  0  0  0  0  0  0
   10.5331    3.4865    0.0000 H   0  0  0  0  0  0  0  0  0  0  0  0
    9.4639    3.8559    0.0000 H   0  0  0  0  0  0  0  0  0  0  0  0
   12.9745    2.0173    0.0000 H   0  0  0  0  0  0  0  0  0  0  0  0
   10.9682    1.6599    0.0000 H   0  0  0  0  0  0  0  0  0  0  0  0
   11.3649    0.8780    0.0000 H   0  0  0  0  0  0  0  0  0  0  0  0
   12.1468    1.2747    0.0000 H   0  0  0  0  0  0  0  0  0  0  0  0
   13.4533    2.7519    0.0000 H   0  0  0  0  0  0  0  0  0  0  0  0
   12.7188    3.2307    0.0000 H   0  0  0  0  0  0  0  0  0  0  0  0
 13  1  1  1  0  0  0
  1 67  1  0  0  0  0
  2 24  2  0  0  0  0
  3 25  2  0  0  0  0
  4 32  1  0  0  0  0
  4 33  1  0  0  0  0
 31  5  1  6  0  0  0
  5 75  1  0  0  0  0
  6  7  1  0  0  0  0
  6  9  1  0  0  0  0
  6 11  1  0  0  0  0
  6 18  1  6  0  0  0
  7  8  1  0  0  0  0
  7 13  1  0  0  0  0
  7 36  1  1  0  0  0
  8 10  1  0  0  0  0
  8 16  1  0  0  0  0
  8 20  1  1  0  0  0
  9 15  1  0  0  0  0
  9 19  1  0  0  0  0
  9 21  1  1  0  0  0
 10 12  1  0  0  0  0
 10 14  1  0  0  0  0
 10 37  1  6  0  0  0
 11 12  1  0  0  0  0
 11 38  1  0  0  0  0
 11 39  1  0  0  0  0
 12 41  1  0  0  0  0
 12 42  1  0  0  0  0
 13 17  1  0  0  0  0
 13 40  1  0  0  0  0
 14 24  1  0  0  0  0
 14 26  1  0  0  0  0
 14 27  1  0  0  0  0
 15 17  1  0  0  0  0
 15 23  2  0  0  0  0
 16 22  1  0  0  0  0
 16 43  1  0  0  0  0
 16 44  1  0  0  0  0
 17 45  1  0  0  0  0
 17 46  1  0  0  0  0
 18 47  1  0  0  0  0
 18 48  1  0  0  0  0
 18 49  1  0  0  0  0
 19 25  1  0  0  0  0
 19 50  1  0  0  0  0
 19 51  1  0  0  0  0
 20 52  1  0  0  0  0
 20 53  1  0  0  0  0
 20 54  1  0  0  0  0
 21 55  1  0  0  0  0
 21 56  1  0  0  0  0
 21 57  1  0  0  0  0
 22 24  1  0  0  0  0
 22 58  1  0  0  0  0
 22 59  1  0  0  0  0
 23 25  1  0  0  0  0
 23 28  1  0  0  0  0
 26 60  1  0  0  0  0
 26 61  1  0  0  0  0
 26 62  1  0  0  0  0
 27 63  1  0  0  0  0
 27 64  1  0  0  0  0
 27 65  1  0  0  0  0
 28 29  1  0  0  0  0
 28 30  1  0  0  0  0
 28 66  1  0  0  0  0
 29 31  1  0  0  0  0
 29 68  1  0  0  0  0
 29 69  1  0  0  0  0
 30 70  1  0  0  0  0
 30 71  1  0  0  0  0
 30 72  1  0  0  0  0
 31 32  1  0  0  0  0
 31 73  1  0  0  0  0
 32 33  1  0  0  0  0
 32 74  1  6  0  0  0
 33 34  1  0  0  0  0
 33 35  1  0  0  0  0
 34 76  1  0  0  0  0
 34 80  1  0  0  0  0
 34 81  1  0  0  0  0
 35 77  1  0  0  0  0
 35 78  1  0  0  0  0
 35 79  1  0  0  0  0
M  END
> <PUBCHEM_COMPOUND_CID>
46173914

> <PUBCHEM_COMPOUND_CANONICALIZED>
1

> <PUBCHEM_CACTVS_COMPLEXITY>
993

> <PUBCHEM_CACTVS_HBOND_ACCEPTOR>
5

> <PUBCHEM_CACTVS_HBOND_DONOR>
2

> <PUBCHEM_CACTVS_ROTATABLE_BOND>
4

> <PUBCHEM_CACTVS_SUBSKEYS>
AAADcfB4OAAAAAAAAAAAAAAAEgAAAQAAAAAwYMAAAAAAAEDAAAAAGgAACAAAD1SggAICAAAABgCIAoBQAAAAAAAgAAAACAEAAEgBEBIAAAACQAAFwAALAQOIzPDPgAAAAAAAAADAAAYAADAAAAAAAAAAAA==

> <PUBCHEM_IUPAC_OPENEYE_NAME>
(5R,8S,9S,10S,11S,14R)-17-[(3S)-3-[(2R)-3,3-dimethyloxiran-2-yl]-3-hydroxy-1-methyl-propyl]-11-hydroxy-4,4,8,10,14-pentamethyl-2,5,6,7,9,11,12,15-octahydro-1H-cyclopenta[a]phenanthrene-3,16-dione

> <PUBCHEM_IUPAC_CAS_NAME>
(5R,8S,9S,10S,11S,14R)-17-[(4S)-4-[(2R)-3,3-dimethyl-2-oxiranyl]-4-hydroxybutan-2-yl]-11-hydroxy-4,4,8,10,14-pentamethyl-2,5,6,7,9,11,12,15-octahydro-1H-cyclopenta[a]phenanthrene-3,16-dione

> <PUBCHEM_IUPAC_NAME>
(5R,8S,9S,10S,11S,14R)-17-[(4S)-4-[(2R)-3,3-dimethyloxiran-2-yl]-4-hydroxybutan-2-yl]-11-hydroxy-4,4,8,10,14-pentamethyl-2,5,6,7,9,11,12,15-octahydro-1H-cyclopenta[a]phenanthrene-3,16-dione

> <PUBCHEM_IUPAC_SYSTEMATIC_NAME>
(5R,8S,9S,10S,11S,14R)-17-[(4S)-4-[(2R)-3,3-dimethyloxiran-2-yl]-4-oxidanyl-butan-2-yl]-4,4,8,10,14-pentamethyl-11-oxidanyl-2,5,6,7,9,11,12,15-octahydro-1H-cyclopenta[a]phenanthrene-3,16-dione

> <PUBCHEM_IUPAC_TRADITIONAL_NAME>
(5R,8S,9S,10S,11S,14R)-17-[(3S)-3-[(2R)-3,3-dimethyloxiran-2-yl]-3-hydroxy-1-methyl-propyl]-11-hydroxy-4,4,8,10,14-pentamethyl-2,5,6,7,9,11,12,15-octahydro-1H-cyclopenta[a]phenanthrene-3,16-quinone

> <PUBCHEM_IUPAC_INCHI>
InChI=1S/C30H46O5/c1-16(13-19(32)25-27(4,5)35-25)23-17-14-18(31)24-28(6)11-10-22(34)26(2,3)21(28)9-12-29(24,7)30(17,8)15-20(23)33/h16,18-19,21,24-25,31-32H,9-15H2,1-8H3/t16?,18-,19-,21-,24-,25+,28-,29-,30-/m0/s1

> <PUBCHEM_IUPAC_INCHIKEY>
DORJGGFFCMZTHW-NKZIGPMOSA-N

> <PUBCHEM_XLOGP3_AA>
3.9

> <PUBCHEM_EXACT_MASS>
486.334525

> <PUBCHEM_MOLECULAR_FORMULA>
C30H46O5

> <PUBCHEM_MOLECULAR_WEIGHT>
486.68324

> <PUBCHEM_OPENEYE_CAN_SMILES>
CC(CC(C1C(O1)(C)C)O)C2=C3CC(C4C5(CCC(=O)C(C5CCC4(C3(CC2=O)C)C)(C)C)C)O

> <PUBCHEM_OPENEYE_ISO_SMILES>
CC(C[C@@H]([C@@H]1C(O1)(C)C)O)C2=C3C[C@@H]([C@H]4[C@]5(CCC(=O)C([C@@H]5CC[C@@]4([C@]3(CC2=O)C)C)(C)C)C)O

> <PUBCHEM_CACTVS_TPSA>
87.1

> <PUBCHEM_MONOISOTOPIC_WEIGHT>
486.334525

> <PUBCHEM_TOTAL_CHARGE>
0

> <PUBCHEM_HEAVY_ATOM_COUNT>
35

> <PUBCHEM_ATOM_DEF_STEREO_COUNT>
8

> <PUBCHEM_ATOM_UDEF_STEREO_COUNT>
1

> <PUBCHEM_BOND_DEF_STEREO_COUNT>
0

> <PUBCHEM_BOND_UDEF_STEREO_COUNT>
0

> <PUBCHEM_ISOTOPIC_ATOM_COUNT>
0

> <PUBCHEM_COMPONENT_COUNT>
1

> <PUBCHEM_CACTVS_TAUTO_COUNT>
10

> <PUBCHEM_COORDINATE_TYPE>
1
5
255

> <PUBCHEM_BONDANNOTATIONS>
13  1  5
10  37  6
28  30  3
32  74  6
31  5  6
6  18  6
7  36  5
8  20  5
9  21  5

$$$$

