17395276
  -OEChem-06241222492D

 51 53  0     1  0  0  0  0  0999 V2000
    2.0000   -1.7500    0.0000 F   0  0  0  0  0  0  0  0  0  0  0  0
   11.5263    3.7500    0.0000 F   0  0  0  0  0  0  0  0  0  0  0  0
    8.0622   -3.2500    0.0000 O   0  0  0  0  0  0  0  0  0  0  0  0
    9.7942   -0.2500    0.0000 O   0  0  0  0  0  0  0  0  0  0  0  0
    6.3301   -2.2500    0.0000 N   0  0  0  0  0  0  0  0  0  0  0  0
    8.9282   -1.7500    0.0000 N   0  0  0  0  0  0  0  0  0  0  0  0
   11.5263   -0.2500    0.0000 N   0  0  0  0  0  0  0  0  0  0  0  0
    5.4641   -1.7500    0.0000 C   0  0  3  0  0  0  0  0  0  0  0  0
    4.5981   -2.2500    0.0000 C   0  0  0  0  0  0  0  0  0  0  0  0
    7.1962   -1.7500    0.0000 C   0  0  0  0  0  0  0  0  0  0  0  0
    5.4641   -0.7500    0.0000 C   0  0  0  0  0  0  0  0  0  0  0  0
    3.7320   -1.7500    0.0000 C   0  0  0  0  0  0  0  0  0  0  0  0
    4.5981   -3.2500    0.0000 C   0  0  0  0  0  0  0  0  0  0  0  0
    8.0622   -2.2500    0.0000 C   0  0  0  0  0  0  0  0  0  0  0  0
    9.7942   -2.2500    0.0000 C   0  0  0  0  0  0  0  0  0  0  0  0
   10.6603   -1.7500    0.0000 C   0  0  0  0  0  0  0  0  0  0  0  0
    2.8660   -2.2500    0.0000 C   0  0  0  0  0  0  0  0  0  0  0  0
    3.7320   -3.7500    0.0000 C   0  0  0  0  0  0  0  0  0  0  0  0
    2.8660   -3.2500    0.0000 C   0  0  0  0  0  0  0  0  0  0  0  0
    9.7942   -3.2500    0.0000 C   0  0  0  0  0  0  0  0  0  0  0  0
   11.5263   -2.2500    0.0000 C   0  0  0  0  0  0  0  0  0  0  0  0
   10.6603   -0.7500    0.0000 C   0  0  0  0  0  0  0  0  0  0  0  0
   10.6603   -3.7500    0.0000 C   0  0  0  0  0  0  0  0  0  0  0  0
   11.5263   -3.2500    0.0000 C   0  0  0  0  0  0  0  0  0  0  0  0
   11.5263    0.7500    0.0000 C   0  0  0  0  0  0  0  0  0  0  0  0
   12.3923    1.2500    0.0000 C   0  0  0  0  0  0  0  0  0  0  0  0
   10.6603    1.2500    0.0000 C   0  0  0  0  0  0  0  0  0  0  0  0
   12.3923    2.2500    0.0000 C   0  0  0  0  0  0  0  0  0  0  0  0
   10.6603    2.2500    0.0000 C   0  0  0  0  0  0  0  0  0  0  0  0
   11.5263    2.7500    0.0000 C   0  0  0  0  0  0  0  0  0  0  0  0
    5.4641   -2.3700    0.0000 H   0  0  0  0  0  0  0  0  0  0  0  0
    6.3301   -2.8700    0.0000 H   0  0  0  0  0  0  0  0  0  0  0  0
    7.5947   -1.2750    0.0000 H   0  0  0  0  0  0  0  0  0  0  0  0
    6.7976   -1.2750    0.0000 H   0  0  0  0  0  0  0  0  0  0  0  0
    6.0841   -0.7500    0.0000 H   0  0  0  0  0  0  0  0  0  0  0  0
    5.4641   -0.1300    0.0000 H   0  0  0  0  0  0  0  0  0  0  0  0
    4.8441   -0.7500    0.0000 H   0  0  0  0  0  0  0  0  0  0  0  0
    3.7320   -1.1300    0.0000 H   0  0  0  0  0  0  0  0  0  0  0  0
    5.1350   -3.5600    0.0000 H   0  0  0  0  0  0  0  0  0  0  0  0
    8.9282   -1.1300    0.0000 H   0  0  0  0  0  0  0  0  0  0  0  0
    3.7320   -4.3700    0.0000 H   0  0  0  0  0  0  0  0  0  0  0  0
    2.3291   -3.5600    0.0000 H   0  0  0  0  0  0  0  0  0  0  0  0
    9.2573   -3.5600    0.0000 H   0  0  0  0  0  0  0  0  0  0  0  0
   12.0632   -1.9400    0.0000 H   0  0  0  0  0  0  0  0  0  0  0  0
   10.6603   -4.3700    0.0000 H   0  0  0  0  0  0  0  0  0  0  0  0
   12.0632   -3.5600    0.0000 H   0  0  0  0  0  0  0  0  0  0  0  0
   12.0632   -0.5600    0.0000 H   0  0  0  0  0  0  0  0  0  0  0  0
   12.9292    0.9400    0.0000 H   0  0  0  0  0  0  0  0  0  0  0  0
   10.1233    0.9400    0.0000 H   0  0  0  0  0  0  0  0  0  0  0  0
   12.9292    2.5600    0.0000 H   0  0  0  0  0  0  0  0  0  0  0  0
   10.1233    2.5600    0.0000 H   0  0  0  0  0  0  0  0  0  0  0  0
  1 17  1  0  0  0  0
  2 30  1  0  0  0  0
  3 14  2  0  0  0  0
  4 22  2  0  0  0  0
  5  8  1  0  0  0  0
  5 10  1  0  0  0  0
  5 32  1  0  0  0  0
  6 14  1  0  0  0  0
  6 15  1  0  0  0  0
  6 40  1  0  0  0  0
  7 22  1  0  0  0  0
  7 25  1  0  0  0  0
  7 47  1  0  0  0  0
  8  9  1  0  0  0  0
  8 11  1  0  0  0  0
  8 31  1  0  0  0  0
  9 12  2  0  0  0  0
  9 13  1  0  0  0  0
 10 14  1  0  0  0  0
 10 33  1  0  0  0  0
 10 34  1  0  0  0  0
 11 35  1  0  0  0  0
 11 36  1  0  0  0  0
 11 37  1  0  0  0  0
 12 17  1  0  0  0  0
 12 38  1  0  0  0  0
 13 18  2  0  0  0  0
 13 39  1  0  0  0  0
 15 16  1  0  0  0  0
 15 20  2  0  0  0  0
 16 21  2  0  0  0  0
 16 22  1  0  0  0  0
 17 19  2  0  0  0  0
 18 19  1  0  0  0  0
 18 41  1  0  0  0  0
 19 42  1  0  0  0  0
 20 23  1  0  0  0  0
 20 43  1  0  0  0  0
 21 24  1  0  0  0  0
 21 44  1  0  0  0  0
 23 24  2  0  0  0  0
 23 45  1  0  0  0  0
 24 46  1  0  0  0  0
 25 26  2  0  0  0  0
 25 27  1  0  0  0  0
 26 28  1  0  0  0  0
 26 48  1  0  0  0  0
 27 29  2  0  0  0  0
 27 49  1  0  0  0  0
 28 30  2  0  0  0  0
 28 50  1  0  0  0  0
 29 30  1  0  0  0  0
 29 51  1  0  0  0  0
M  END
> <PUBCHEM_COMPOUND_CID>
17395276

> <PUBCHEM_COMPOUND_CANONICALIZED>
1

> <PUBCHEM_CACTVS_COMPLEXITY>
569

> <PUBCHEM_CACTVS_HBOND_ACCEPTOR>
5

> <PUBCHEM_CACTVS_HBOND_DONOR>
3

> <PUBCHEM_CACTVS_ROTATABLE_BOND>
7

> <PUBCHEM_CACTVS_SUBSKEYS>
AAADceB7MYAAAAAAAAAAAAAAAAAAAAAAAAAwYMAAAAAAAAABUAAAHwAQAAAADCjBmAwywILAAACIAiVSUACCAAAlAgAIiIGIZMgIYDrA1bGUIYhglADIyccYiICOAAAAAAACAAAAAAAAAAQAAAAAAAAAAA==

> <PUBCHEM_IUPAC_OPENEYE_NAME>
N-(4-fluorophenyl)-2-[[2-[1-(3-fluorophenyl)ethylamino]acetyl]amino]benzamide

> <PUBCHEM_IUPAC_CAS_NAME>
N-(4-fluorophenyl)-2-[[2-[1-(3-fluorophenyl)ethylamino]-1-oxoethyl]amino]benzamide

> <PUBCHEM_IUPAC_NAME>
N-(4-fluorophenyl)-2-[[2-[1-(3-fluorophenyl)ethylamino]acetyl]amino]benzamide

> <PUBCHEM_IUPAC_SYSTEMATIC_NAME>
N-(4-fluorophenyl)-2-[2-[1-(3-fluorophenyl)ethylamino]ethanoylamino]benzamide

> <PUBCHEM_IUPAC_TRADITIONAL_NAME>
N-(4-fluorophenyl)-2-[[2-[1-(3-fluorophenyl)ethylamino]acetyl]amino]benzamide

> <PUBCHEM_IUPAC_INCHI>
InChI=1S/C23H21F2N3O2/c1-15(16-5-4-6-18(25)13-16)26-14-22(29)28-21-8-3-2-7-20(21)23(30)27-19-11-9-17(24)10-12-19/h2-13,15,26H,14H2,1H3,(H,27,30)(H,28,29)

> <PUBCHEM_IUPAC_INCHIKEY>
DRHVUOJEIXVYCD-UHFFFAOYSA-N

> <PUBCHEM_XLOGP3_AA>
4.2

> <PUBCHEM_EXACT_MASS>
409.160183

> <PUBCHEM_MOLECULAR_FORMULA>
C23H21F2N3O2

> <PUBCHEM_MOLECULAR_WEIGHT>
409.428546

> <PUBCHEM_OPENEYE_CAN_SMILES>
CC(C1=CC(=CC=C1)F)NCC(=O)NC2=CC=CC=C2C(=O)NC3=CC=C(C=C3)F

> <PUBCHEM_OPENEYE_ISO_SMILES>
CC(C1=CC(=CC=C1)F)NCC(=O)NC2=CC=CC=C2C(=O)NC3=CC=C(C=C3)F

> <PUBCHEM_CACTVS_TPSA>
70.2

> <PUBCHEM_MONOISOTOPIC_WEIGHT>
409.160183

> <PUBCHEM_TOTAL_CHARGE>
0

> <PUBCHEM_HEAVY_ATOM_COUNT>
30

> <PUBCHEM_ATOM_DEF_STEREO_COUNT>
0

> <PUBCHEM_ATOM_UDEF_STEREO_COUNT>
1

> <PUBCHEM_BOND_DEF_STEREO_COUNT>
0

> <PUBCHEM_BOND_UDEF_STEREO_COUNT>
0

> <PUBCHEM_ISOTOPIC_ATOM_COUNT>
0

> <PUBCHEM_COMPONENT_COUNT>
1

> <PUBCHEM_CACTVS_TAUTO_COUNT>
29

> <PUBCHEM_COORDINATE_TYPE>
1
5
255

> <PUBCHEM_BONDANNOTATIONS>
12  17  8
13  18  8
15  16  8
15  20  8
16  21  8
17  19  8
18  19  8
20  23  8
21  24  8
23  24  8
25  26  8
25  27  8
26  28  8
27  29  8
28  30  8
29  30  8
8  11  3
9  12  8
9  13  8

$$$$

