441260
  -OEChem-07051212532D

 21 20  0     1  0  0  0  0  0999 V2000
    7.7331   -0.0950    0.0000 P   0  0  0  0  0  0  0  0  0  0  0  0
    6.8671    0.4050    0.0000 O   0  0  0  0  0  0  0  0  0  0  0  0
    5.1350    1.4050    0.0000 O   0  0  0  0  0  0  0  0  0  0  0  0
    8.5991   -0.5950    0.0000 O   0  0  0  0  0  0  0  0  0  0  0  0
    8.2331    0.7710    0.0000 O   0  0  0  0  0  0  0  0  0  0  0  0
    2.5369   -0.0950    0.0000 O   0  0  0  0  0  0  0  0  0  0  0  0
    7.2331   -0.9610    0.0000 O   0  0  0  0  0  0  0  0  0  0  0  0
    3.4030    1.4050    0.0000 O   0  0  0  0  0  0  0  0  0  0  0  0
    4.2690   -1.0950    0.0000 N   0  0  0  0  0  0  0  0  0  0  0  0
    4.2690   -0.0950    0.0000 C   0  0  1  0  0  0  0  0  0  0  0  0
    5.1350    0.4050    0.0000 C   0  0  0  0  0  0  0  0  0  0  0  0
    6.0010   -0.0950    0.0000 C   0  0  0  0  0  0  0  0  0  0  0  0
    3.4030    0.4050    0.0000 C   0  0  0  0  0  0  0  0  0  0  0  0
    4.8059   -0.4050    0.0000 H   0  0  0  0  0  0  0  0  0  0  0  0
    5.6025   -0.5699    0.0000 H   0  0  0  0  0  0  0  0  0  0  0  0
    6.3996   -0.5699    0.0000 H   0  0  0  0  0  0  0  0  0  0  0  0
    3.7320   -1.4050    0.0000 H   0  0  0  0  0  0  0  0  0  0  0  0
    4.8059   -1.4050    0.0000 H   0  0  0  0  0  0  0  0  0  0  0  0
    9.1360   -0.2850    0.0000 H   0  0  0  0  0  0  0  0  0  0  0  0
    7.9231    1.3080    0.0000 H   0  0  0  0  0  0  0  0  0  0  0  0
    2.0000    0.2150    0.0000 H   0  0  0  0  0  0  0  0  0  0  0  0
  1  2  1  0  0  0  0
  1  4  1  0  0  0  0
  1  5  1  0  0  0  0
  1  7  2  0  0  0  0
  2 12  1  0  0  0  0
  3 11  2  0  0  0  0
  4 19  1  0  0  0  0
  5 20  1  0  0  0  0
  6 13  1  0  0  0  0
  6 21  1  0  0  0  0
  8 13  2  0  0  0  0
 10  9  1  6  0  0  0
  9 17  1  0  0  0  0
  9 18  1  0  0  0  0
 10 11  1  0  0  0  0
 10 13  1  0  0  0  0
 10 14  1  0  0  0  0
 11 12  1  0  0  0  0
 12 15  1  0  0  0  0
 12 16  1  0  0  0  0
M  END
> <PUBCHEM_COMPOUND_CID>
441260

> <PUBCHEM_COMPOUND_CANONICALIZED>
1

> <PUBCHEM_CACTVS_COMPLEXITY>
257

> <PUBCHEM_CACTVS_HBOND_ACCEPTOR>
8

> <PUBCHEM_CACTVS_HBOND_DONOR>
4

> <PUBCHEM_CACTVS_ROTATABLE_BOND>
5

> <PUBCHEM_CACTVS_SUBSKEYS>
AAADccBiOAIAAAAAAAAAAAAAAAAAAAAAAAAAAAAAAAAAAAAAAAAAHgAQCCAACCzhgAYACABAAxAIQICQCIIAAAAAAAAAAIHAAAACABQIAAAAQAAGIAAAAABCAAAAAAAAAAAAAAAAAAAAAAAAAAAAAAAAAA==

> <PUBCHEM_IUPAC_OPENEYE_NAME>
(2S)-2-amino-3-oxo-4-phosphonooxy-butanoic acid

> <PUBCHEM_IUPAC_CAS_NAME>
(2S)-2-amino-3-oxo-4-phosphonooxybutanoic acid

> <PUBCHEM_IUPAC_NAME>
(2S)-2-amino-3-oxo-4-phosphonooxybutanoic acid

> <PUBCHEM_IUPAC_SYSTEMATIC_NAME>
(2S)-2-azanyl-3-oxidanylidene-4-phosphonooxy-butanoic acid

> <PUBCHEM_IUPAC_TRADITIONAL_NAME>
(2S)-2-amino-3-keto-4-phosphonooxy-butyric acid

> <PUBCHEM_IUPAC_INCHI>
InChI=1S/C4H8NO7P/c5-3(4(7)8)2(6)1-12-13(9,10)11/h3H,1,5H2,(H,7,8)(H2,9,10,11)/t3-/m0/s1

> <PUBCHEM_IUPAC_INCHIKEY>
LMKSRFWSQAKTOE-VKHMYHEASA-N

> <PUBCHEM_XLOGP3_AA>
-5.2

> <PUBCHEM_EXACT_MASS>
213.003838

> <PUBCHEM_MOLECULAR_FORMULA>
C4H8NO7P

> <PUBCHEM_MOLECULAR_WEIGHT>
213.082582

> <PUBCHEM_OPENEYE_CAN_SMILES>
C(C(=O)C(C(=O)O)N)OP(=O)(O)O

> <PUBCHEM_OPENEYE_ISO_SMILES>
C(C(=O)[C@@H](C(=O)O)N)OP(=O)(O)O

> <PUBCHEM_CACTVS_TPSA>
147

> <PUBCHEM_MONOISOTOPIC_WEIGHT>
213.003838

> <PUBCHEM_TOTAL_CHARGE>
0

> <PUBCHEM_HEAVY_ATOM_COUNT>
13

> <PUBCHEM_ATOM_DEF_STEREO_COUNT>
1

> <PUBCHEM_ATOM_UDEF_STEREO_COUNT>
0

> <PUBCHEM_BOND_DEF_STEREO_COUNT>
0

> <PUBCHEM_BOND_UDEF_STEREO_COUNT>
0

> <PUBCHEM_ISOTOPIC_ATOM_COUNT>
0

> <PUBCHEM_COMPONENT_COUNT>
1

> <PUBCHEM_CACTVS_TAUTO_COUNT>
8

> <PUBCHEM_COORDINATE_TYPE>
1
5
255

> <PUBCHEM_BONDANNOTATIONS>
10  9  6

$$$$

