91664
  -OEChem-07051213112D

 27 27  0     0  0  0  0  0  0999 V2000
    2.0000    0.0000    0.0000 Cl  0  0  0  0  0  0  0  0  0  0  0  0
    5.4641    0.0000    0.0000 Cl  0  0  0  0  0  0  0  0  0  0  0  0
    5.0981    0.6340    0.0000 S   0  0  0  0  0  0  0  0  0  0  0  0
    4.5981    1.5000    0.0000 P   0  0  0  0  0  0  0  0  0  0  0  0
    3.7320    1.0000    0.0000 O   0  0  0  0  0  0  0  0  0  0  0  0
    5.4641    2.0000    0.0000 O   0  0  0  0  0  0  0  0  0  0  0  0
    4.0981    2.3660    0.0000 O   0  0  0  0  0  0  0  0  0  0  0  0
    3.7320    0.0000    0.0000 C   0  0  0  0  0  0  0  0  0  0  0  0
    3.7320   -2.0000    0.0000 C   0  0  0  0  0  0  0  0  0  0  0  0
    2.8660   -0.5000    0.0000 C   0  0  0  0  0  0  0  0  0  0  0  0
    4.5981   -0.5000    0.0000 C   0  0  0  0  0  0  0  0  0  0  0  0
    2.8660   -1.5000    0.0000 C   0  0  0  0  0  0  0  0  0  0  0  0
    4.5981   -1.5000    0.0000 C   0  0  0  0  0  0  0  0  0  0  0  0
    3.7320   -3.0000    0.0000 C   0  0  0  0  0  0  0  0  0  0  0  0
    5.4641    3.0000    0.0000 C   0  0  0  0  0  0  0  0  0  0  0  0
    3.0981    2.3660    0.0000 C   0  0  0  0  0  0  0  0  0  0  0  0
    2.3291   -1.8100    0.0000 H   0  0  0  0  0  0  0  0  0  0  0  0
    5.1350   -1.8100    0.0000 H   0  0  0  0  0  0  0  0  0  0  0  0
    3.1120   -3.0000    0.0000 H   0  0  0  0  0  0  0  0  0  0  0  0
    3.7320   -3.6200    0.0000 H   0  0  0  0  0  0  0  0  0  0  0  0
    4.3520   -3.0000    0.0000 H   0  0  0  0  0  0  0  0  0  0  0  0
    6.0841    3.0000    0.0000 H   0  0  0  0  0  0  0  0  0  0  0  0
    5.4641    3.6200    0.0000 H   0  0  0  0  0  0  0  0  0  0  0  0
    4.8441    3.0000    0.0000 H   0  0  0  0  0  0  0  0  0  0  0  0
    3.0981    2.9860    0.0000 H   0  0  0  0  0  0  0  0  0  0  0  0
    2.4781    2.3660    0.0000 H   0  0  0  0  0  0  0  0  0  0  0  0
    3.0981    1.7460    0.0000 H   0  0  0  0  0  0  0  0  0  0  0  0
  1 10  1  0  0  0  0
  2 11  1  0  0  0  0
  3  4  2  0  0  0  0
  4  5  1  0  0  0  0
  4  6  1  0  0  0  0
  4  7  1  0  0  0  0
  5  8  1  0  0  0  0
  6 15  1  0  0  0  0
  7 16  1  0  0  0  0
  8 10  2  0  0  0  0
  8 11  1  0  0  0  0
  9 12  2  0  0  0  0
  9 13  1  0  0  0  0
  9 14  1  0  0  0  0
 10 12  1  0  0  0  0
 11 13  2  0  0  0  0
 12 17  1  0  0  0  0
 13 18  1  0  0  0  0
 14 19  1  0  0  0  0
 14 20  1  0  0  0  0
 14 21  1  0  0  0  0
 15 22  1  0  0  0  0
 15 23  1  0  0  0  0
 15 24  1  0  0  0  0
 16 25  1  0  0  0  0
 16 26  1  0  0  0  0
 16 27  1  0  0  0  0
M  END
> <PUBCHEM_COMPOUND_CID>
91664

> <PUBCHEM_COMPOUND_CANONICALIZED>
1

> <PUBCHEM_CACTVS_COMPLEXITY>
260

> <PUBCHEM_CACTVS_HBOND_ACCEPTOR>
4

> <PUBCHEM_CACTVS_HBOND_DONOR>
0

> <PUBCHEM_CACTVS_ROTATABLE_BOND>
4

> <PUBCHEM_CACTVS_SUBSKEYS>
AAADccBwMAJGAAAAAAAAAAAAAAAAAAAAAAAwAAAAAAAAAAABAAAAGgIAACAADAaAmCIyBoAAARCAAiBCAAACAAAgJUAAiAAEC4gIJiKBExKAMAAkwBEIiAeAwAAOIAAAIACACABAAABAAQAQAAAAAAAAAA==

> <PUBCHEM_IUPAC_OPENEYE_NAME>
(2,6-dichloro-4-methyl-phenoxy)-dimethoxy-thioxo-$l^{5}-phosphane

> <PUBCHEM_IUPAC_CAS_NAME>
(2,6-dichloro-4-methylphenoxy)-dimethoxy-sulfanylidenephosphorane

> <PUBCHEM_IUPAC_NAME>
(2,6-dichloro-4-methylphenoxy)-dimethoxy-sulfanylidene-$l^{5}-phosphane

> <PUBCHEM_IUPAC_SYSTEMATIC_NAME>
[2,6-bis(chloranyl)-4-methyl-phenoxy]-dimethoxy-sulfanylidene-$l^{5}-phosphane

> <PUBCHEM_IUPAC_TRADITIONAL_NAME>
(2,6-dichloro-4-methyl-phenoxy)-dimethoxy-thioxo-phosphorane

> <PUBCHEM_IUPAC_INCHI>
InChI=1S/C9H11Cl2O3PS/c1-6-4-7(10)9(8(11)5-6)14-15(16,12-2)13-3/h4-5H,1-3H3

> <PUBCHEM_IUPAC_INCHIKEY>
OBZIQQJJIKNWNO-UHFFFAOYSA-N

> <PUBCHEM_XLOGP3_AA>
4.7

> <PUBCHEM_EXACT_MASS>
299.954357

> <PUBCHEM_MOLECULAR_FORMULA>
C9H11Cl2O3PS

> <PUBCHEM_MOLECULAR_WEIGHT>
301.126602

> <PUBCHEM_OPENEYE_CAN_SMILES>
CC1=CC(=C(C(=C1)Cl)OP(=S)(OC)OC)Cl

> <PUBCHEM_OPENEYE_ISO_SMILES>
CC1=CC(=C(C(=C1)Cl)OP(=S)(OC)OC)Cl

> <PUBCHEM_CACTVS_TPSA>
59.8

> <PUBCHEM_MONOISOTOPIC_WEIGHT>
299.954357

> <PUBCHEM_TOTAL_CHARGE>
0

> <PUBCHEM_HEAVY_ATOM_COUNT>
16

> <PUBCHEM_ATOM_DEF_STEREO_COUNT>
0

> <PUBCHEM_ATOM_UDEF_STEREO_COUNT>
0

> <PUBCHEM_BOND_DEF_STEREO_COUNT>
0

> <PUBCHEM_BOND_UDEF_STEREO_COUNT>
0

> <PUBCHEM_ISOTOPIC_ATOM_COUNT>
0

> <PUBCHEM_COMPONENT_COUNT>
1

> <PUBCHEM_CACTVS_TAUTO_COUNT>
1

> <PUBCHEM_COORDINATE_TYPE>
1
5
255

> <PUBCHEM_BONDANNOTATIONS>
10  12  8
11  13  8
8  10  8
8  11  8
9  12  8
9  13  8

$$$$

