255270
  -OEChem-07051213062D

 58 61  0     0  0  0  0  0  0999 V2000
    7.1962    3.0670    0.0000 O   0  0  0  0  0  0  0  0  0  0  0  0
   10.7263    3.0911    0.0000 O   0  0  0  0  0  0  0  0  0  0  0  0
    2.8660   -0.4330    0.0000 O   0  0  0  0  0  0  0  0  0  0  0  0
    7.1962   -2.9330    0.0000 O   0  0  0  0  0  0  0  0  0  0  0  0
   11.5981    1.5945    0.0000 O   0  0  0  0  0  0  0  0  0  0  0  0
    6.3301    2.5670    0.0000 C   0  0  0  0  0  0  0  0  0  0  0  0
    6.3301    1.5670    0.0000 C   0  0  0  0  0  0  0  0  0  0  0  0
    7.1962    1.0670    0.0000 C   0  0  0  0  0  0  0  0  0  0  0  0
    8.0622    1.5670    0.0000 C   0  0  0  0  0  0  0  0  0  0  0  0
    5.8301    3.4330    0.0000 C   0  0  0  0  0  0  0  0  0  0  0  0
    5.3301    2.5670    0.0000 C   0  0  0  0  0  0  0  0  0  0  0  0
    8.0622    2.5670    0.0000 C   0  0  0  0  0  0  0  0  0  0  0  0
    5.4641    1.0670    0.0000 C   0  0  0  0  0  0  0  0  0  0  0  0
    7.1962    0.0670    0.0000 C   0  0  0  0  0  0  0  0  0  0  0  0
    8.9561    1.0323    0.0000 C   0  0  0  0  0  0  0  0  0  0  0  0
    8.9561    3.1016    0.0000 C   0  0  0  0  0  0  0  0  0  0  0  0
    4.5981    1.5670    0.0000 C   0  0  0  0  0  0  0  0  0  0  0  0
    5.4641    0.0670    0.0000 C   0  0  0  0  0  0  0  0  0  0  0  0
    9.8622    2.5878    0.0000 C   0  0  0  0  0  0  0  0  0  0  0  0
    9.8622    1.5462    0.0000 C   0  0  0  0  0  0  0  0  0  0  0  0
    6.3301   -0.4330    0.0000 C   0  0  0  0  0  0  0  0  0  0  0  0
    8.0622   -0.4330    0.0000 C   0  0  0  0  0  0  0  0  0  0  0  0
    3.7320    1.0670    0.0000 C   0  0  0  0  0  0  0  0  0  0  0  0
    4.5981   -0.4330    0.0000 C   0  0  0  0  0  0  0  0  0  0  0  0
    3.7320    0.0670    0.0000 C   0  0  0  0  0  0  0  0  0  0  0  0
    6.3301   -1.4330    0.0000 C   0  0  0  0  0  0  0  0  0  0  0  0
    8.0622   -1.4330    0.0000 C   0  0  0  0  0  0  0  0  0  0  0  0
    7.1962   -1.9330    0.0000 C   0  0  0  0  0  0  0  0  0  0  0  0
   11.5942    2.5945    0.0000 C   0  0  0  0  0  0  0  0  0  0  0  0
    2.0000    0.0670    0.0000 C   0  0  0  0  0  0  0  0  0  0  0  0
    8.0622   -3.4330    0.0000 C   0  0  0  0  0  0  0  0  0  0  0  0
   12.4583    3.0978    0.0000 C   0  0  0  0  0  0  0  0  0  0  0  0
    6.3671    3.7430    0.0000 H   0  0  0  0  0  0  0  0  0  0  0  0
    5.5201    3.9700    0.0000 H   0  0  0  0  0  0  0  0  0  0  0  0
    5.2932    3.1230    0.0000 H   0  0  0  0  0  0  0  0  0  0  0  0
    5.3301    3.1870    0.0000 H   0  0  0  0  0  0  0  0  0  0  0  0
    4.7101    2.5670    0.0000 H   0  0  0  0  0  0  0  0  0  0  0  0
    5.3301    1.9470    0.0000 H   0  0  0  0  0  0  0  0  0  0  0  0
    8.9490    0.4124    0.0000 H   0  0  0  0  0  0  0  0  0  0  0  0
    8.9490    3.7216    0.0000 H   0  0  0  0  0  0  0  0  0  0  0  0
    4.5981    2.1870    0.0000 H   0  0  0  0  0  0  0  0  0  0  0  0
    6.0010   -0.2430    0.0000 H   0  0  0  0  0  0  0  0  0  0  0  0
   10.3979    1.2341    0.0000 H   0  0  0  0  0  0  0  0  0  0  0  0
    5.7932   -0.1230    0.0000 H   0  0  0  0  0  0  0  0  0  0  0  0
    8.5991   -0.1230    0.0000 H   0  0  0  0  0  0  0  0  0  0  0  0
    3.1951    1.3770    0.0000 H   0  0  0  0  0  0  0  0  0  0  0  0
    4.5981   -1.0530    0.0000 H   0  0  0  0  0  0  0  0  0  0  0  0
    5.7932   -1.7430    0.0000 H   0  0  0  0  0  0  0  0  0  0  0  0
    8.5991   -1.7430    0.0000 H   0  0  0  0  0  0  0  0  0  0  0  0
    2.3100    0.6039    0.0000 H   0  0  0  0  0  0  0  0  0  0  0  0
    1.4631    0.3770    0.0000 H   0  0  0  0  0  0  0  0  0  0  0  0
    1.6900   -0.4699    0.0000 H   0  0  0  0  0  0  0  0  0  0  0  0
    7.7522   -3.9700    0.0000 H   0  0  0  0  0  0  0  0  0  0  0  0
    8.5991   -3.7430    0.0000 H   0  0  0  0  0  0  0  0  0  0  0  0
    8.3722   -2.8961    0.0000 H   0  0  0  0  0  0  0  0  0  0  0  0
   12.7704    2.5621    0.0000 H   0  0  0  0  0  0  0  0  0  0  0  0
   12.9941    3.4099    0.0000 H   0  0  0  0  0  0  0  0  0  0  0  0
   12.1462    3.6336    0.0000 H   0  0  0  0  0  0  0  0  0  0  0  0
  1  6  1  0  0  0  0
  1 12  1  0  0  0  0
  2 19  1  0  0  0  0
  2 29  1  0  0  0  0
  3 25  1  0  0  0  0
  3 30  1  0  0  0  0
  4 28  1  0  0  0  0
  4 31  1  0  0  0  0
  5 29  2  0  0  0  0
  6  7  1  0  0  0  0
  6 10  1  0  0  0  0
  6 11  1  0  0  0  0
  7  8  2  0  0  0  0
  7 13  1  0  0  0  0
  8  9  1  0  0  0  0
  8 14  1  0  0  0  0
  9 12  2  0  0  0  0
  9 15  1  0  0  0  0
 10 33  1  0  0  0  0
 10 34  1  0  0  0  0
 10 35  1  0  0  0  0
 11 36  1  0  0  0  0
 11 37  1  0  0  0  0
 11 38  1  0  0  0  0
 12 16  1  0  0  0  0
 13 17  2  0  0  0  0
 13 18  1  0  0  0  0
 14 21  2  0  0  0  0
 14 22  1  0  0  0  0
 15 20  2  0  0  0  0
 15 39  1  0  0  0  0
 16 19  2  0  0  0  0
 16 40  1  0  0  0  0
 17 23  1  0  0  0  0
 17 41  1  0  0  0  0
 18 24  2  0  0  0  0
 18 42  1  0  0  0  0
 19 20  1  0  0  0  0
 20 43  1  0  0  0  0
 21 26  1  0  0  0  0
 21 44  1  0  0  0  0
 22 27  2  0  0  0  0
 22 45  1  0  0  0  0
 23 25  2  0  0  0  0
 23 46  1  0  0  0  0
 24 25  1  0  0  0  0
 24 47  1  0  0  0  0
 26 28  2  0  0  0  0
 26 48  1  0  0  0  0
 27 28  1  0  0  0  0
 27 49  1  0  0  0  0
 29 32  1  0  0  0  0
 30 50  1  0  0  0  0
 30 51  1  0  0  0  0
 30 52  1  0  0  0  0
 31 53  1  0  0  0  0
 31 54  1  0  0  0  0
 31 55  1  0  0  0  0
 32 56  1  0  0  0  0
 32 57  1  0  0  0  0
 32 58  1  0  0  0  0
M  END
> <PUBCHEM_COMPOUND_CID>
255270

> <PUBCHEM_COMPOUND_CANONICALIZED>
1

> <PUBCHEM_CACTVS_COMPLEXITY>
682

> <PUBCHEM_CACTVS_HBOND_ACCEPTOR>
5

> <PUBCHEM_CACTVS_HBOND_DONOR>
0

> <PUBCHEM_CACTVS_ROTATABLE_BOND>
6

> <PUBCHEM_CACTVS_SUBSKEYS>
AAADceB4OAAAAAAAAAAAAAAAAAAAAAAAAAAwYMEAAAAAAACBUAAAGgAAAAAADESAmAIyDoAABACIAiDSCAACCAAgIAAIiAAGCIgMJyKEMRqCOiClwBUIqAeA4OwOIAAACAAIAABAAAAQABAAAAAAAAAAAA==

> <PUBCHEM_IUPAC_OPENEYE_NAME>
[3,4-bis(4-methoxyphenyl)-2,2-dimethyl-chromen-7-yl] acetate

> <PUBCHEM_IUPAC_CAS_NAME>
acetic acid [3,4-bis(4-methoxyphenyl)-2,2-dimethyl-1-benzopyran-7-yl] ester

> <PUBCHEM_IUPAC_NAME>
[3,4-bis(4-methoxyphenyl)-2,2-dimethylchromen-7-yl] acetate

> <PUBCHEM_IUPAC_SYSTEMATIC_NAME>
[3,4-bis(4-methoxyphenyl)-2,2-dimethyl-chromen-7-yl] ethanoate

> <PUBCHEM_IUPAC_TRADITIONAL_NAME>
acetic acid [3,4-bis(4-methoxyphenyl)-2,2-dimethyl-chromen-7-yl] ester

> <PUBCHEM_IUPAC_INCHI>
InChI=1S/C27H26O5/c1-17(28)31-22-14-15-23-24(16-22)32-27(2,3)26(19-8-12-21(30-5)13-9-19)25(23)18-6-10-20(29-4)11-7-18/h6-16H,1-5H3

> <PUBCHEM_IUPAC_INCHIKEY>
YKTJCZCEEMQPMI-UHFFFAOYSA-N

> <PUBCHEM_XLOGP3_AA>
4.9

> <PUBCHEM_EXACT_MASS>
430.178024

> <PUBCHEM_MOLECULAR_FORMULA>
C27H26O5

> <PUBCHEM_MOLECULAR_WEIGHT>
430.49234

> <PUBCHEM_OPENEYE_CAN_SMILES>
CC(=O)OC1=CC2=C(C=C1)C(=C(C(O2)(C)C)C3=CC=C(C=C3)OC)C4=CC=C(C=C4)OC

> <PUBCHEM_OPENEYE_ISO_SMILES>
CC(=O)OC1=CC2=C(C=C1)C(=C(C(O2)(C)C)C3=CC=C(C=C3)OC)C4=CC=C(C=C4)OC

> <PUBCHEM_CACTVS_TPSA>
54

> <PUBCHEM_MONOISOTOPIC_WEIGHT>
430.178024

> <PUBCHEM_TOTAL_CHARGE>
0

> <PUBCHEM_HEAVY_ATOM_COUNT>
32

> <PUBCHEM_ATOM_DEF_STEREO_COUNT>
0

> <PUBCHEM_ATOM_UDEF_STEREO_COUNT>
0

> <PUBCHEM_BOND_DEF_STEREO_COUNT>
0

> <PUBCHEM_BOND_UDEF_STEREO_COUNT>
0

> <PUBCHEM_ISOTOPIC_ATOM_COUNT>
0

> <PUBCHEM_COMPONENT_COUNT>
1

> <PUBCHEM_CACTVS_TAUTO_COUNT>
1

> <PUBCHEM_COORDINATE_TYPE>
1
5
255

> <PUBCHEM_BONDANNOTATIONS>
12  16  8
13  17  8
13  18  8
14  21  8
14  22  8
15  20  8
16  19  8
17  23  8
18  24  8
19  20  8
21  26  8
22  27  8
23  25  8
24  25  8
26  28  8
27  28  8
9  12  8
9  15  8

$$$$

