17395746
  -OEChem-06241222523D

 39 42  0     0  0  0  0  0  0999 V2000
    2.9473   -1.3635    1.5907 S   0  0  0  0  0  0  0  0  0  0  0  0
    4.9705    0.0572    0.7152 N   0  0  0  0  0  0  0  0  0  0  0  0
   -2.6834   -0.2290   -0.1349 N   0  0  0  0  0  0  0  0  0  0  0  0
    2.8990    0.6141   -0.2394 N   0  0  0  0  0  0  0  0  0  0  0  0
    1.5088    0.4813   -0.2738 N   0  0  0  0  0  0  0  0  0  0  0  0
   -5.0527   -0.0210    0.3516 N   0  0  0  0  0  0  0  0  0  0  0  0
   -3.9782    1.7924   -0.2252 N   0  0  0  0  0  0  0  0  0  0  0  0
   -6.0043    0.9241    0.3860 N   0  0  0  0  0  0  0  0  0  0  0  0
    5.7120    1.0196   -0.0414 C   0  0  0  0  0  0  0  0  0  0  0  0
    6.1964    0.7153   -1.4287 C   0  0  0  0  0  0  0  0  0  0  0  0
    7.1793    0.8448   -0.3023 C   0  0  0  0  0  0  0  0  0  0  0  0
    3.6173   -0.0956    0.5799 C   0  0  0  0  0  0  0  0  0  0  0  0
   -0.5299   -0.7713   -0.1429 C   0  0  0  0  0  0  0  0  0  0  0  0
   -1.4196    0.2570    0.0764 C   0  0  0  0  0  0  0  0  0  0  0  0
    0.9509   -0.6636   -0.0191 C   0  0  0  0  0  0  0  0  0  0  0  0
    1.7174   -1.8941    0.3891 C   0  0  0  0  0  0  0  0  0  0  0  0
   -2.6138   -1.5518   -0.4867 C   0  0  0  0  0  0  0  0  0  0  0  0
   -1.2855   -1.9158   -0.4991 C   0  0  0  0  0  0  0  0  0  0  0  0
   -1.1646    1.6618    0.4712 C   0  0  0  0  0  0  0  0  0  0  0  0
   -3.8515    0.5031   -0.0126 C   0  0  0  0  0  0  0  0  0  0  0  0
   -3.8119   -2.3676   -0.7830 C   0  0  0  0  0  0  0  0  0  0  0  0
   -5.3034    2.0024    0.0290 C   0  0  0  0  0  0  0  0  0  0  0  0
    5.3872    2.0372    0.1542 H   0  0  0  0  0  0  0  0  0  0  0  0
    6.0213   -0.2746   -1.8319 H   0  0  0  0  0  0  0  0  0  0  0  0
    6.1593    1.5117   -2.1616 H   0  0  0  0  0  0  0  0  0  0  0  0
    7.8056    1.7281   -0.2783 H   0  0  0  0  0  0  0  0  0  0  0  0
    7.6633   -0.0583    0.0489 H   0  0  0  0  0  0  0  0  0  0  0  0
    5.4537   -0.5416    1.3790 H   0  0  0  0  0  0  0  0  0  0  0  0
    2.1981   -2.3320   -0.4910 H   0  0  0  0  0  0  0  0  0  0  0  0
    1.0682   -2.6414    0.8514 H   0  0  0  0  0  0  0  0  0  0  0  0
   -0.9073   -2.8994   -0.7429 H   0  0  0  0  0  0  0  0  0  0  0  0
   -0.1968    1.7813    0.9658 H   0  0  0  0  0  0  0  0  0  0  0  0
   -1.8979    2.0226    1.1996 H   0  0  0  0  0  0  0  0  0  0  0  0
   -1.1818    2.3187   -0.4043 H   0  0  0  0  0  0  0  0  0  0  0  0
   -4.3119   -2.6909    0.1345 H   0  0  0  0  0  0  0  0  0  0  0  0
   -4.5173   -1.8587   -1.4464 H   0  0  0  0  0  0  0  0  0  0  0  0
   -3.5132   -3.2833   -1.3080 H   0  0  0  0  0  0  0  0  0  0  0  0
   -5.3054   -0.9579    0.6367 H   0  0  0  0  0  0  0  0  0  0  0  0
   -5.7727    2.9718   -0.0480 H   0  0  0  0  0  0  0  0  0  0  0  0
  1 12  1  0  0  0  0
  1 16  1  0  0  0  0
  2  9  1  0  0  0  0
  2 12  1  0  0  0  0
  2 28  1  0  0  0  0
  3 14  1  0  0  0  0
  3 17  1  0  0  0  0
  3 20  1  0  0  0  0
  4  5  1  0  0  0  0
  4 12  2  0  0  0  0
  5 15  2  0  0  0  0
  6  8  1  0  0  0  0
  6 20  1  0  0  0  0
  6 38  1  0  0  0  0
  7 20  2  0  0  0  0
  7 22  1  0  0  0  0
  8 22  2  0  0  0  0
  9 10  1  0  0  0  0
  9 11  1  0  0  0  0
  9 23  1  0  0  0  0
 10 11  1  0  0  0  0
 10 24  1  0  0  0  0
 10 25  1  0  0  0  0
 11 26  1  0  0  0  0
 11 27  1  0  0  0  0
 13 14  2  0  0  0  0
 13 15  1  0  0  0  0
 13 18  1  0  0  0  0
 14 19  1  0  0  0  0
 15 16  1  0  0  0  0
 16 29  1  0  0  0  0
 16 30  1  0  0  0  0
 17 18  2  0  0  0  0
 17 21  1  0  0  0  0
 18 31  1  0  0  0  0
 19 32  1  0  0  0  0
 19 33  1  0  0  0  0
 19 34  1  0  0  0  0
 21 35  1  0  0  0  0
 21 36  1  0  0  0  0
 21 37  1  0  0  0  0
 22 39  1  0  0  0  0
M  END
> <PUBCHEM_COMPOUND_CID>
17395746

> <PUBCHEM_CONFORMER_RMSD>
0.8

> <PUBCHEM_CONFORMER_DIVERSEORDER>
1
24
11
7
25
26
17
28
13
15
9
20
3
22
5
27
21
12
4
6
23
16
2
18
10
8
14
19

> <PUBCHEM_MMFF94_PARTIAL_CHARGES>
31
1 -0.37
10 -0.2
11 -0.2
12 0.64
13 -0.09
14 -0.33
15 0.48
16 0.29
17 -0.33
18 -0.15
19 0.18
2 -0.62
20 0.11
21 0.18
22 0.37
23 0.1
24 0.1
25 0.1
26 0.1
27 0.1
28 0.4
3 0.38
31 0.15
38 0.27
39 0.15
4 -0.45
5 -0.45
6 0.3
7 -0.57
8 -0.71
9 0.07

> <PUBCHEM_EFFECTIVE_ROTOR_COUNT>
5

> <PUBCHEM_PHARMACOPHORE_FEATURES>
8
1 2 donor
1 5 acceptor
1 6 donor
3 2 4 12 cation
4 3 6 7 20 cation
5 3 13 14 17 18 rings
5 6 7 8 20 22 rings
6 1 4 5 12 15 16 rings

> <PUBCHEM_HEAVY_ATOM_COUNT>
22

> <PUBCHEM_ATOM_DEF_STEREO_COUNT>
0

> <PUBCHEM_ATOM_UDEF_STEREO_COUNT>
0

> <PUBCHEM_BOND_DEF_STEREO_COUNT>
0

> <PUBCHEM_BOND_UDEF_STEREO_COUNT>
0

> <PUBCHEM_ISOTOPIC_ATOM_COUNT>
0

> <PUBCHEM_COMPONENT_COUNT>
1

> <PUBCHEM_CACTVS_TAUTO_COUNT>
6

> <PUBCHEM_CONFORMER_ID>
0109702200000001

> <PUBCHEM_MMFF94_ENERGY>
60.1073

> <PUBCHEM_FEATURE_SELFOVERLAP>
40.594

> <PUBCHEM_SHAPE_FINGERPRINT>
10 15 18343295999189860985
10366900 7 16515688870078492907
10411042 1 17831864552131217839
106641 1 16487246647588483609
10730089 173 18408039611240038432
10912923 1 18060151916072053658
11056379 131 18188777119843194311
12236239 1 18272371979505761906
12390115 104 18260259759509348011
12403259 415 17531534174488835066
12403814 3 18059863900244883237
12596602 18 17561365123193578329
12616971 3 17916882291377415346
13631057 29 17630326337732294579
13760787 19 18411142432774138578
13914758 101 4967622637254305035
14251764 18 18413108364560845097
14341114 328 18202290212036803682
15048467 5 18341895203341603892
15183329 4 17894620488245289382
1577012 14 18272373049706817078
15778101 99 18407757036598576303
17980427 23 18201717314828245007
19427546 20 18339648850216610343
19784866 170 18408602569456359759
20281389 69 18413392042486890144
20645477 56 18334576850005327639
20681677 155 18411419488482683314
21033648 29 17531824450132889514
21065198 48 18343029890662194907
21267235 1 18263923242117046887
21781055 127 17169265051480727675
22224240 67 15985101894785708480
2297311 6 18040709221903550454
23081809 10 18201445749026907098
23198884 109 16081084892072291257
23402539 116 18261396615877425014
23557571 272 17968373450965138822
23559900 14 17748829596660750384
25147074 1 18341908393207697754
293599 30 18407759244042935434
300161 21 18341619217506969462
34797466 226 17677044617546237940
34934 24 18411141363364062131
3545911 37 18260265256708491666
4340502 62 16845566543451050418
474 4 17846776287365319808
5104073 3 18342469131384610434
542803 24 18202567272071651880
5758199 1 17846216627784245232
6327066 14 18268154322207185461
7062679 6 18412824698565556300

> <PUBCHEM_SHAPE_MULTIPOLES>
421.73
15.73
2.13
0.97
13.19
0.48
-0.07
-8.12
1.79
-2.31
0.11
0.99
0.22
-1.51

> <PUBCHEM_SHAPE_SELFOVERLAP>
899.315

> <PUBCHEM_SHAPE_VOLUME>
238.6

> <PUBCHEM_COORDINATE_TYPE>
2
5
10

$$$$

