11959
  -OEChem-06261206203D

 22 22  0     0  0  0  0  0  0999 V2000
    1.4958    1.3295   -0.3800 O   0  0  0  0  0  0  0  0  0  0  0  0
    1.7364   -0.8886    0.2516 N   0  0  0  0  0  0  0  0  0  0  0  0
   -0.4697    0.0976   -0.0371 C   0  0  0  0  0  0  0  0  0  0  0  0
    3.1813   -0.8995    0.2781 C   0  0  0  0  0  0  0  0  0  0  0  0
    0.9769    0.2395   -0.0799 C   0  0  0  0  0  0  0  0  0  0  0  0
   -1.2731    1.2113    0.2075 C   0  0  0  0  0  0  0  0  0  0  0  0
   -1.0539   -1.1526   -0.2404 C   0  0  0  0  0  0  0  0  0  0  0  0
    3.7534    0.4525   -0.0952 C   0  0  0  0  0  0  0  0  0  0  0  0
   -2.6607    1.0748    0.2490 C   0  0  0  0  0  0  0  0  0  0  0  0
   -2.4415   -1.2891   -0.1991 C   0  0  0  0  0  0  0  0  0  0  0  0
   -3.2448   -0.1754    0.0456 C   0  0  0  0  0  0  0  0  0  0  0  0
    3.4912   -1.1885    1.2871 H   0  0  0  0  0  0  0  0  0  0  0  0
    3.5189   -1.6734   -0.4180 H   0  0  0  0  0  0  0  0  0  0  0  0
    1.2786   -1.7443    0.5459 H   0  0  0  0  0  0  0  0  0  0  0  0
   -0.8376    2.1933    0.3729 H   0  0  0  0  0  0  0  0  0  0  0  0
   -0.4690   -2.0395   -0.4653 H   0  0  0  0  0  0  0  0  0  0  0  0
    3.5298    0.7443   -1.1266 H   0  0  0  0  0  0  0  0  0  0  0  0
    3.5013    1.2396    0.6230 H   0  0  0  0  0  0  0  0  0  0  0  0
    4.8479    0.3751   -0.0555 H   0  0  0  0  0  0  0  0  0  0  0  0
   -3.2865    1.9417    0.4402 H   0  0  0  0  0  0  0  0  0  0  0  0
   -2.8974   -2.2610   -0.3646 H   0  0  0  0  0  0  0  0  0  0  0  0
   -4.3253   -0.2814    0.0762 H   0  0  0  0  0  0  0  0  0  0  0  0
  1  5  2  0  0  0  0
  2  4  1  0  0  0  0
  2  5  1  0  0  0  0
  2 14  1  0  0  0  0
  3  5  1  0  0  0  0
  3  6  2  0  0  0  0
  3  7  1  0  0  0  0
  4  8  1  0  0  0  0
  4 12  1  0  0  0  0
  4 13  1  0  0  0  0
  6  9  1  0  0  0  0
  6 15  1  0  0  0  0
  7 10  2  0  0  0  0
  7 16  1  0  0  0  0
  8 17  1  0  0  0  0
  8 18  1  0  0  0  0
  8 19  1  0  0  0  0
  9 11  2  0  0  0  0
  9 20  1  0  0  0  0
 10 11  1  0  0  0  0
 10 21  1  0  0  0  0
 11 22  1  0  0  0  0
M  END
> <PUBCHEM_COMPOUND_CID>
11959

> <PUBCHEM_CONFORMER_RMSD>
0.6

> <PUBCHEM_CONFORMER_DIVERSEORDER>
1

> <PUBCHEM_MMFF94_PARTIAL_CHARGES>
16
1 -0.57
10 -0.15
11 -0.15
14 0.37
15 0.15
16 0.15
2 -0.73
20 0.15
21 0.15
22 0.15
3 0.09
4 0.3
5 0.54
6 -0.15
7 -0.15
9 -0.15

> <PUBCHEM_EFFECTIVE_ROTOR_COUNT>
3

> <PUBCHEM_PHARMACOPHORE_FEATURES>
3
1 1 acceptor
1 2 donor
6 3 6 7 9 10 11 rings

> <PUBCHEM_HEAVY_ATOM_COUNT>
11

> <PUBCHEM_ATOM_DEF_STEREO_COUNT>
0

> <PUBCHEM_ATOM_UDEF_STEREO_COUNT>
0

> <PUBCHEM_BOND_DEF_STEREO_COUNT>
0

> <PUBCHEM_BOND_UDEF_STEREO_COUNT>
0

> <PUBCHEM_ISOTOPIC_ATOM_COUNT>
0

> <PUBCHEM_COMPONENT_COUNT>
1

> <PUBCHEM_CACTVS_TAUTO_COUNT>
2

> <PUBCHEM_CONFORMER_ID>
00002EB700000001

> <PUBCHEM_MMFF94_ENERGY>
33.1833

> <PUBCHEM_FEATURE_SELFOVERLAP>
15.223

> <PUBCHEM_SHAPE_FINGERPRINT>
11062470 55 18408886239245540314
12932764 1 17775009028557812142
13024252 1 15554727785435607437
14144814 61 18411419531236891522
14325111 11 18409729586117794968
15669948 3 18260835864652256294
15775835 57 18412539946391505785
16945 1 18337102458157806871
20645464 45 17313099761270176071
20871998 184 18040996198633498127
23402539 116 18041288733609632997
23463225 33 18340490087874748306
23552423 10 18271243798844587053
369184 2 18260551121447695025
7364860 26 18190180088084682440
75552 356 18335139799526264715

> <PUBCHEM_SHAPE_MULTIPOLES>
215.52
5.9
1.42
0.64
3.26
0.01
0
-0.25
0.22
-0.38
-0.02
0.01
0
-0.34

> <PUBCHEM_SHAPE_SELFOVERLAP>
442.683

> <PUBCHEM_SHAPE_VOLUME>
124.4

> <PUBCHEM_COORDINATE_TYPE>
2
5
10

$$$$

