2966
  -OEChem-07051213043D

 26 27  0     0  0  0  0  0  0999 V2000
   -1.5756   -0.0105    0.2297 N   0  0  0  0  0  0  0  0  0  0  0  0
   -3.2923    1.4852    0.0724 N   0  0  0  0  0  0  0  0  0  0  0  0
   -3.5547   -0.6791   -0.8108 N   0  0  0  0  0  0  0  0  0  0  0  0
    0.0453   -1.8170    0.0616 C   0  0  0  0  0  0  0  0  0  0  0  0
   -1.1809   -1.2936    0.8022 C   0  0  0  0  0  0  0  0  0  0  0  0
   -0.5868    1.0665    0.3060 C   0  0  0  0  0  0  0  0  0  0  0  0
    1.1402   -0.7842    0.0094 C   0  0  0  0  0  0  0  0  0  0  0  0
    0.8316    0.5850    0.1031 C   0  0  0  0  0  0  0  0  0  0  0  0
    2.4688   -1.1845   -0.1876 C   0  0  0  0  0  0  0  0  0  0  0  0
    1.8673    1.5284    0.0295 C   0  0  0  0  0  0  0  0  0  0  0  0
   -2.8391    0.2207   -0.1983 C   0  0  0  0  0  0  0  0  0  0  0  0
    3.4882   -0.2361   -0.2640 C   0  0  0  0  0  0  0  0  0  0  0  0
    3.1880    1.1192   -0.1531 C   0  0  0  0  0  0  0  0  0  0  0  0
   -0.2247   -2.0838   -0.9677 H   0  0  0  0  0  0  0  0  0  0  0  0
    0.4031   -2.7239    0.5630 H   0  0  0  0  0  0  0  0  0  0  0  0
   -1.9861   -2.0350    0.7437 H   0  0  0  0  0  0  0  0  0  0  0  0
   -0.9565   -1.1560    1.8678 H   0  0  0  0  0  0  0  0  0  0  0  0
   -0.6542    1.5475    1.2894 H   0  0  0  0  0  0  0  0  0  0  0  0
   -0.7866    1.8179   -0.4688 H   0  0  0  0  0  0  0  0  0  0  0  0
    2.7162   -2.2390   -0.2809 H   0  0  0  0  0  0  0  0  0  0  0  0
    1.6472    2.5901    0.1119 H   0  0  0  0  0  0  0  0  0  0  0  0
    4.5160   -0.5546   -0.4116 H   0  0  0  0  0  0  0  0  0  0  0  0
    3.9819    1.8580   -0.2113 H   0  0  0  0  0  0  0  0  0  0  0  0
   -4.2226    1.7734   -0.2117 H   0  0  0  0  0  0  0  0  0  0  0  0
   -2.7740    2.1421    0.6442 H   0  0  0  0  0  0  0  0  0  0  0  0
   -4.4698   -0.2730   -1.0350 H   0  0  0  0  0  0  0  0  0  0  0  0
  1  5  1  0  0  0  0
  1  6  1  0  0  0  0
  1 11  1  0  0  0  0
  2 11  1  0  0  0  0
  2 24  1  0  0  0  0
  2 25  1  0  0  0  0
  3 11  2  0  0  0  0
  3 26  1  0  0  0  0
  4  5  1  0  0  0  0
  4  7  1  0  0  0  0
  4 14  1  0  0  0  0
  4 15  1  0  0  0  0
  5 16  1  0  0  0  0
  5 17  1  0  0  0  0
  6  8  1  0  0  0  0
  6 18  1  0  0  0  0
  6 19  1  0  0  0  0
  7  8  1  0  0  0  0
  7  9  2  0  0  0  0
  8 10  2  0  0  0  0
  9 12  1  0  0  0  0
  9 20  1  0  0  0  0
 10 13  1  0  0  0  0
 10 21  1  0  0  0  0
 12 13  2  0  0  0  0
 12 22  1  0  0  0  0
 13 23  1  0  0  0  0
M  END
> <PUBCHEM_COMPOUND_CID>
2966

> <PUBCHEM_CONFORMER_RMSD>
0.6

> <PUBCHEM_CONFORMER_DIVERSEORDER>
2
1

> <PUBCHEM_MMFF94_PARTIAL_CHARGES>
20
1 -0.79
10 -0.15
11 0.55
12 -0.15
13 -0.15
2 -0.85
20 0.15
21 0.15
22 0.15
23 0.15
24 0.4
25 0.4
26 0.4
3 -0.85
4 0.14
5 0.37
6 0.51
7 -0.14
8 -0.14
9 -0.15

> <PUBCHEM_EFFECTIVE_ROTOR_COUNT>
1.8

> <PUBCHEM_PHARMACOPHORE_FEATURES>
5
1 2 donor
1 3 donor
4 1 2 3 11 cation
6 1 4 5 6 7 8 rings
6 7 8 9 10 12 13 rings

> <PUBCHEM_HEAVY_ATOM_COUNT>
13

> <PUBCHEM_ATOM_DEF_STEREO_COUNT>
0

> <PUBCHEM_ATOM_UDEF_STEREO_COUNT>
0

> <PUBCHEM_BOND_DEF_STEREO_COUNT>
0

> <PUBCHEM_BOND_UDEF_STEREO_COUNT>
0

> <PUBCHEM_ISOTOPIC_ATOM_COUNT>
0

> <PUBCHEM_COMPONENT_COUNT>
1

> <PUBCHEM_CACTVS_TAUTO_COUNT>
1

> <PUBCHEM_CONFORMER_ID>
00000B9600000002

> <PUBCHEM_MMFF94_ENERGY>
40.2394

> <PUBCHEM_FEATURE_SELFOVERLAP>
25.434

> <PUBCHEM_SHAPE_FINGERPRINT>
10062212 137 18335432312780286443
10130415 120 18272375312648323114
10608611 8 18340205198140535552
11401426 45 18334583464207503672
11471102 20 18339364166202717605
12138202 97 17988082175428755979
124424 183 18131634487103483962
12932764 1 17385730166569746937
13380535 76 18411983529347241666
13705890 14 16805038515023858390
13897977 150 18412261705472310984
14144814 61 18412543214840460672
14251717 144 18409454690936114423
14325111 11 18410855455865024905
14897335 6 18337957783862622576
14911166 2 18410847781285884006
15219456 202 18341604876421342234
15775835 57 18410571812093282309
16945 1 18411125931820731330
18186145 218 18340770433021566925
200 152 17894352176457078702
20201158 50 18410290320037007026
20281407 28 7781520317034847431
20645476 183 17702645680309814502
20645477 70 18336270140914939263
21501502 16 18410576222861112865
23402539 116 18334866047343883596
23402655 69 18335707165043897605
23559900 14 18336257986874565380
25 1 18270399515674769013
2748010 2 18194391196138556994
528886 8 18411140233877126338
69090 78 18335706000970649079

> <PUBCHEM_SHAPE_MULTIPOLES>
252.59
5.73
1.75
0.72
1.53
0.11
0.01
-1.07
-1.08
-0.13
0.1
0.18
0.09
0.01

> <PUBCHEM_SHAPE_SELFOVERLAP>
536.259

> <PUBCHEM_SHAPE_VOLUME>
138.7

> <PUBCHEM_COORDINATE_TYPE>
2
5
10

$$$$

