10982109
  -OEChem-07051212583D

 54 57  0     1  0  0  0  0  0999 V2000
   -0.2439   -2.0498    0.1402 O   0  0  0  0  0  0  0  0  0  0  0  0
   -1.5378    0.2692   -0.7108 O   0  0  0  0  0  0  0  0  0  0  0  0
    3.6785    0.1204   -0.3913 O   0  0  0  0  0  0  0  0  0  0  0  0
    3.2119   -0.8524    1.6963 O   0  0  0  0  0  0  0  0  0  0  0  0
    1.5231   -3.8378   -0.7030 O   0  0  0  0  0  0  0  0  0  0  0  0
    3.3604    2.4365   -0.8486 O   0  0  0  0  0  0  0  0  0  0  0  0
   -2.7433   -1.2663   -1.9307 O   0  0  0  0  0  0  0  0  0  0  0  0
   -7.0593    1.3316    1.9467 O   0  0  0  0  0  0  0  0  0  0  0  0
    1.0771   -1.5736   -0.1306 C   0  0  1  0  0  0  0  0  0  0  0  0
   -0.0024   -1.5263   -1.1671 C   0  0  2  0  0  0  0  0  0  0  0  0
    1.3553   -0.1630    0.3342 C   0  0  2  0  0  0  0  0  0  0  0  0
    0.8720    0.6942   -0.8630 C   0  0  2  0  0  0  0  0  0  0  0  0
   -0.3505   -0.0844   -1.4109 C   0  0  2  0  0  0  0  0  0  0  0  0
    2.8026    0.1140    0.7318 C   0  0  2  0  0  0  0  0  0  0  0  0
    1.9601    0.8072   -1.9472 C   0  0  0  0  0  0  0  0  0  0  0  0
    2.1121   -2.6239   -0.2467 C   0  0  0  0  0  0  0  0  0  0  0  0
    3.3340    1.1094   -1.3631 C   0  0  2  0  0  0  0  0  0  0  0  0
   -2.6657   -0.4017   -1.0718 C   0  0  0  0  0  0  0  0  0  0  0  0
    4.5558   -0.6416    2.1034 C   0  0  0  0  0  0  0  0  0  0  0  0
    4.6291    2.7538   -0.2946 C   0  0  0  0  0  0  0  0  0  0  0  0
   -3.8291    0.0585   -0.2721 C   0  0  0  0  0  0  0  0  0  0  0  0
    4.9337   -1.6626    3.1207 C   0  0  0  0  0  0  0  0  0  0  0  0
    4.6136    4.1539    0.2151 C   0  0  0  0  0  0  0  0  0  0  0  0
   -5.0865    0.0146   -0.8389 C   0  0  0  0  0  0  0  0  0  0  0  0
   -3.6176    0.5152    1.0129 C   0  0  0  0  0  0  0  0  0  0  0  0
   -6.1799    0.4461   -0.0880 C   0  0  0  0  0  0  0  0  0  0  0  0
   -4.7110    0.9467    1.7636 C   0  0  0  0  0  0  0  0  0  0  0  0
   -5.9922    0.9122    1.2133 C   0  0  0  0  0  0  0  0  0  0  0  0
   -0.0049   -2.1712   -2.0295 H   0  0  0  0  0  0  0  0  0  0  0  0
    0.7162    0.0228    1.2088 H   0  0  0  0  0  0  0  0  0  0  0  0
    0.5930    1.6961   -0.5159 H   0  0  0  0  0  0  0  0  0  0  0  0
   -0.4935    0.1264   -2.4778 H   0  0  0  0  0  0  0  0  0  0  0  0
    2.8367    1.0957    1.2212 H   0  0  0  0  0  0  0  0  0  0  0  0
    2.0271   -0.1366   -2.5032 H   0  0  0  0  0  0  0  0  0  0  0  0
    1.6695    1.5863   -2.6620 H   0  0  0  0  0  0  0  0  0  0  0  0
    2.5495   -2.8627    0.7241 H   0  0  0  0  0  0  0  0  0  0  0  0
    2.9133   -2.3474   -0.9380 H   0  0  0  0  0  0  0  0  0  0  0  0
    4.0710    1.0411   -2.1723 H   0  0  0  0  0  0  0  0  0  0  0  0
    1.4464   -3.7829   -1.6706 H   0  0  0  0  0  0  0  0  0  0  0  0
    4.6583    0.3624    2.5306 H   0  0  0  0  0  0  0  0  0  0  0  0
    5.2329   -0.7294    1.2467 H   0  0  0  0  0  0  0  0  0  0  0  0
    5.3996    2.6531   -1.0678 H   0  0  0  0  0  0  0  0  0  0  0  0
    4.8788    2.0779    0.5289 H   0  0  0  0  0  0  0  0  0  0  0  0
    5.9658   -1.5252    3.4562 H   0  0  0  0  0  0  0  0  0  0  0  0
    4.2740   -1.6072    3.9933 H   0  0  0  0  0  0  0  0  0  0  0  0
    4.8313   -2.6748    2.7147 H   0  0  0  0  0  0  0  0  0  0  0  0
    5.5823    4.4317    0.6407 H   0  0  0  0  0  0  0  0  0  0  0  0
    4.3708    4.8593   -0.5867 H   0  0  0  0  0  0  0  0  0  0  0  0
    3.8460    4.2795    0.9863 H   0  0  0  0  0  0  0  0  0  0  0  0
   -5.2447   -0.3431   -1.8520 H   0  0  0  0  0  0  0  0  0  0  0  0
   -2.6324    0.5389    1.4688 H   0  0  0  0  0  0  0  0  0  0  0  0
   -7.1730    0.4146   -0.5283 H   0  0  0  0  0  0  0  0  0  0  0  0
   -4.5592    1.3056    2.7780 H   0  0  0  0  0  0  0  0  0  0  0  0
   -7.8659    1.2382    1.4112 H   0  0  0  0  0  0  0  0  0  0  0  0
  1  9  1  0  0  0  0
  1 10  1  0  0  0  0
  2 13  1  0  0  0  0
  2 18  1  0  0  0  0
  3 14  1  0  0  0  0
  3 17  1  0  0  0  0
  4 14  1  0  0  0  0
  4 19  1  0  0  0  0
  5 16  1  0  0  0  0
  5 39  1  0  0  0  0
  6 17  1  0  0  0  0
  6 20  1  0  0  0  0
  7 18  2  0  0  0  0
  8 28  1  0  0  0  0
  8 54  1  0  0  0  0
  9 10  1  0  0  0  0
  9 11  1  0  0  0  0
  9 16  1  0  0  0  0
 10 13  1  0  0  0  0
 10 29  1  0  0  0  0
 11 12  1  0  0  0  0
 11 14  1  0  0  0  0
 11 30  1  0  0  0  0
 12 13  1  0  0  0  0
 12 15  1  0  0  0  0
 12 31  1  0  0  0  0
 13 32  1  0  0  0  0
 14 33  1  0  0  0  0
 15 17  1  0  0  0  0
 15 34  1  0  0  0  0
 15 35  1  0  0  0  0
 16 36  1  0  0  0  0
 16 37  1  0  0  0  0
 17 38  1  0  0  0  0
 18 21  1  0  0  0  0
 19 22  1  0  0  0  0
 19 40  1  0  0  0  0
 19 41  1  0  0  0  0
 20 23  1  0  0  0  0
 20 42  1  0  0  0  0
 20 43  1  0  0  0  0
 21 24  2  0  0  0  0
 21 25  1  0  0  0  0
 22 44  1  0  0  0  0
 22 45  1  0  0  0  0
 22 46  1  0  0  0  0
 23 47  1  0  0  0  0
 23 48  1  0  0  0  0
 23 49  1  0  0  0  0
 24 26  1  0  0  0  0
 24 50  1  0  0  0  0
 25 27  2  0  0  0  0
 25 51  1  0  0  0  0
 26 28  2  0  0  0  0
 26 52  1  0  0  0  0
 27 28  1  0  0  0  0
 27 53  1  0  0  0  0
M  END
> <PUBCHEM_COMPOUND_CID>
10982109

> <PUBCHEM_CONFORMER_RMSD>
1

> <PUBCHEM_CONFORMER_DIVERSEORDER>
1
37
28
8
34
23
32
29
41
21
9
44
19
36
25
20
7
27
22
18
24
43
4
35
38
46
26
39
31
42
6
5
15
13
3
11
30
33
16
17
14
12
45
10
40
2

> <PUBCHEM_MMFF94_PARTIAL_CHARGES>
31
1 -0.3
10 -0.05
11 0.09
13 0.38
14 0.56
16 0.38
17 0.56
18 0.63
19 0.28
2 -0.43
20 0.28
21 0.09
24 -0.15
25 -0.15
26 -0.15
27 -0.15
28 0.08
29 0.1
3 -0.56
39 0.4
4 -0.56
5 -0.68
50 0.15
51 0.15
52 0.15
53 0.15
54 0.45
6 -0.56
7 -0.57
8 -0.53
9 -0.04

> <PUBCHEM_EFFECTIVE_ROTOR_COUNT>
9.2

> <PUBCHEM_PHARMACOPHORE_FEATURES>
11
1 1 acceptor
1 3 acceptor
1 4 acceptor
1 5 acceptor
1 5 donor
1 6 acceptor
1 7 acceptor
1 8 donor
6 1 9 10 11 12 13 rings
6 21 24 25 26 27 28 rings
6 3 11 12 14 15 17 rings

> <PUBCHEM_HEAVY_ATOM_COUNT>
28

> <PUBCHEM_ATOM_DEF_STEREO_COUNT>
7

> <PUBCHEM_ATOM_UDEF_STEREO_COUNT>
0

> <PUBCHEM_BOND_DEF_STEREO_COUNT>
0

> <PUBCHEM_BOND_UDEF_STEREO_COUNT>
0

> <PUBCHEM_ISOTOPIC_ATOM_COUNT>
0

> <PUBCHEM_COMPONENT_COUNT>
1

> <PUBCHEM_CACTVS_TAUTO_COUNT>
3

> <PUBCHEM_CONFORMER_ID>
00A792DD00000001

> <PUBCHEM_MMFF94_ENERGY>
80.7842

> <PUBCHEM_FEATURE_SELFOVERLAP>
55.966

> <PUBCHEM_SHAPE_FINGERPRINT>
10498660 4 16371001962517028201
11135609 201 17972029249933867585
11796584 16 14979125832975341387
12236239 1 18186513320285632877
12390115 104 18122612865169338660
12422481 6 18199485409440009766
12596602 18 18337944607156335353
12616971 3 18341342144903496383
12633257 1 18202008732786432451
13140716 1 18201449030065689378
13533116 47 17704072914647254689
13540713 5 18124335825960787838
13782708 43 15410624708624221043
13955234 65 18341043116126811182
14251764 75 18196363724289207380
14341114 328 18334856108968921581
14739800 52 16806187556046330395
14790565 3 18335698278472199653
14955137 171 18270689778882866634
15238133 3 17894633659971113144
15475509 35 16486981742922421978
15475509 8 18261662767080782222
15475509 84 18128547131262197068
19377110 9 18334853901698902043
19438510 23 17971476191892243232
20626108 58 11023837136395820917
20739085 24 18202279208409790700
21033648 144 18129673984387054973
221357 26 6338962101524024675
22182313 1 17980783836709047662
22849341 161 18270693073027609850
23559900 14 17559370622413059663
25147074 1 18194983867139423766
283562 15 16975906754171511794
3472631 163 17967805012497447429
38570 142 18263062358771919372
437795 51 17203607104201660858
465052 167 17489589012775088162
474 4 18407755924281129215
5104073 3 18200877275270809395
633830 44 18187925041064173436
7808743 9 17895187758471879293
8863177 126 16271926034230789091
960060 61 7709456126074826555
9896288 288 17695904437455500002

> <PUBCHEM_SHAPE_MULTIPOLES>
529.27
14.02
3.13
2.18
18.94
0.78
-1.2
7.82
-8.8
-6.42
0.09
-0.88
-0.57
-2.93

> <PUBCHEM_SHAPE_SELFOVERLAP>
1132.836

> <PUBCHEM_SHAPE_VOLUME>
291.8

> <PUBCHEM_COORDINATE_TYPE>
2
5
10

$$$$

