8814
  -OEChem-07051213043D

 37 37  0     0  0  0  0  0  0999 V2000
    4.2035    1.1372   -0.1030 O   0  0  0  0  0  0  0  0  0  0  0  0
   -0.8634   -1.3321    0.1400 C   0  0  0  0  0  0  0  0  0  0  0  0
   -2.3114    0.9989   -0.0345 C   0  0  0  0  0  0  0  0  0  0  0  0
   -1.9925   -0.3681    0.6562 C   0  0  0  0  0  0  0  0  0  0  0  0
    0.5216   -0.6574    0.0735 C   0  0  0  0  0  0  0  0  0  0  0  0
   -0.7442   -2.4855    1.1782 C   0  0  0  0  0  0  0  0  0  0  0  0
   -1.2913   -2.0066   -1.1806 C   0  0  0  0  0  0  0  0  0  0  0  0
   -3.4045    1.6939    0.8147 C   0  0  0  0  0  0  0  0  0  0  0  0
   -2.9017    0.8054   -1.4448 C   0  0  0  0  0  0  0  0  0  0  0  0
   -1.1117    1.9503   -0.1165 C   0  0  0  0  0  0  0  0  0  0  0  0
    1.0277   -0.1058    1.2209 C   0  0  0  0  0  0  0  0  0  0  0  0
    1.1767   -0.6433   -1.1299 C   0  0  0  0  0  0  0  0  0  0  0  0
    2.2803    0.5047    1.1607 C   0  0  0  0  0  0  0  0  0  0  0  0
    2.4295   -0.0328   -1.1901 C   0  0  0  0  0  0  0  0  0  0  0  0
    2.9814    0.5412   -0.0448 C   0  0  0  0  0  0  0  0  0  0  0  0
   -2.9277   -0.9473    0.6924 H   0  0  0  0  0  0  0  0  0  0  0  0
   -1.7758   -0.1385    1.7101 H   0  0  0  0  0  0  0  0  0  0  0  0
   -0.5494   -2.1266    2.1947 H   0  0  0  0  0  0  0  0  0  0  0  0
    0.0643   -3.1783    0.9138 H   0  0  0  0  0  0  0  0  0  0  0  0
   -1.6734   -3.0666    1.2234 H   0  0  0  0  0  0  0  0  0  0  0  0
   -0.6123   -2.8248   -1.4525 H   0  0  0  0  0  0  0  0  0  0  0  0
   -2.2898   -2.4502   -1.0835 H   0  0  0  0  0  0  0  0  0  0  0  0
   -1.3302   -1.3245   -2.0306 H   0  0  0  0  0  0  0  0  0  0  0  0
   -3.0500    1.8848    1.8341 H   0  0  0  0  0  0  0  0  0  0  0  0
   -4.3059    1.0742    0.8838 H   0  0  0  0  0  0  0  0  0  0  0  0
   -3.6978    2.6577    0.3827 H   0  0  0  0  0  0  0  0  0  0  0  0
   -3.6578    0.0133   -1.4590 H   0  0  0  0  0  0  0  0  0  0  0  0
   -3.3827    1.7252   -1.7991 H   0  0  0  0  0  0  0  0  0  0  0  0
   -2.1286    0.5674   -2.1793 H   0  0  0  0  0  0  0  0  0  0  0  0
   -1.4373    2.9489   -0.4348 H   0  0  0  0  0  0  0  0  0  0  0  0
   -0.6304    2.0768    0.8577 H   0  0  0  0  0  0  0  0  0  0  0  0
   -0.3749    1.6345   -0.8565 H   0  0  0  0  0  0  0  0  0  0  0  0
    0.4991   -0.1150    2.1675 H   0  0  0  0  0  0  0  0  0  0  0  0
    0.7983   -1.0734   -2.0477 H   0  0  0  0  0  0  0  0  0  0  0  0
    2.6984    0.9502    2.0595 H   0  0  0  0  0  0  0  0  0  0  0  0
    2.9714   -0.0073   -2.1316 H   0  0  0  0  0  0  0  0  0  0  0  0
    4.4293    1.4799    0.7789 H   0  0  0  0  0  0  0  0  0  0  0  0
  1 15  1  0  0  0  0
  1 37  1  0  0  0  0
  2  4  1  0  0  0  0
  2  5  1  0  0  0  0
  2  6  1  0  0  0  0
  2  7  1  0  0  0  0
  3  4  1  0  0  0  0
  3  8  1  0  0  0  0
  3  9  1  0  0  0  0
  3 10  1  0  0  0  0
  4 16  1  0  0  0  0
  4 17  1  0  0  0  0
  5 11  2  0  0  0  0
  5 12  1  0  0  0  0
  6 18  1  0  0  0  0
  6 19  1  0  0  0  0
  6 20  1  0  0  0  0
  7 21  1  0  0  0  0
  7 22  1  0  0  0  0
  7 23  1  0  0  0  0
  8 24  1  0  0  0  0
  8 25  1  0  0  0  0
  8 26  1  0  0  0  0
  9 27  1  0  0  0  0
  9 28  1  0  0  0  0
  9 29  1  0  0  0  0
 10 30  1  0  0  0  0
 10 31  1  0  0  0  0
 10 32  1  0  0  0  0
 11 13  1  0  0  0  0
 11 33  1  0  0  0  0
 12 14  2  0  0  0  0
 12 34  1  0  0  0  0
 13 15  2  0  0  0  0
 13 35  1  0  0  0  0
 14 15  1  0  0  0  0
 14 36  1  0  0  0  0
M  END
> <PUBCHEM_COMPOUND_CID>
8814

> <PUBCHEM_CONFORMER_RMSD>
0.6

> <PUBCHEM_CONFORMER_DIVERSEORDER>
1
5
4
3
2

> <PUBCHEM_MMFF94_PARTIAL_CHARGES>
13
1 -0.53
11 -0.15
12 -0.15
13 -0.15
14 -0.15
15 0.08
2 0.14
33 0.15
34 0.15
35 0.15
36 0.15
37 0.45
5 -0.14

> <PUBCHEM_EFFECTIVE_ROTOR_COUNT>
3

> <PUBCHEM_PHARMACOPHORE_FEATURES>
4
1 1 donor
3 2 6 7 hydrophobe
4 3 8 9 10 hydrophobe
6 5 11 12 13 14 15 rings

> <PUBCHEM_HEAVY_ATOM_COUNT>
15

> <PUBCHEM_ATOM_DEF_STEREO_COUNT>
0

> <PUBCHEM_ATOM_UDEF_STEREO_COUNT>
0

> <PUBCHEM_BOND_DEF_STEREO_COUNT>
0

> <PUBCHEM_BOND_UDEF_STEREO_COUNT>
0

> <PUBCHEM_ISOTOPIC_ATOM_COUNT>
0

> <PUBCHEM_COMPONENT_COUNT>
1

> <PUBCHEM_CACTVS_TAUTO_COUNT>
2

> <PUBCHEM_CONFORMER_ID>
0000226E00000001

> <PUBCHEM_MMFF94_ENERGY>
60.6732

> <PUBCHEM_FEATURE_SELFOVERLAP>
20.297

> <PUBCHEM_SHAPE_FINGERPRINT>
1 1 18122904497590865983
11471102 22 14045745906898761192
12138202 97 18260270728607798214
12251169 10 14979948172972471697
12423570 1 15107836918901508747
124424 183 18187085057705302674
12491281 212 18259706704780528005
12532896 13 18411695508613538123
13299463 15 16153437120703174927
13538477 17 17846217717782772410
13764800 53 18341600530135991393
13839132 238 18408320012205633548
14817 1 18054479492603048711
15375462 478 15697991959843179637
15775835 57 18338237166884493513
16945 1 17968673635019590891
18186145 218 18189048866349025564
18534176 82 18261956245562780246
19837323 101 18341607088282312659
20525323 117 18340204068658776990
20645476 183 17918273151457340683
21296965 12 18272654597070321959
21501502 16 18261399961541339110
21524375 3 18337676433213279179
21947302 44 18041837440860617878
22802520 49 18189318203885327294
23402539 116 18265903466684788375
23419403 2 17177372807659324807
23557571 272 18190166902571571828
23559900 14 18334572456987026258
25 1 17823125894882758377
2748010 2 18270383014558474631
276578 36 18199742703587404715
305870 269 18059861726316483922
430814 3 18059288872152517275
549884 4 17387134371683273849
6333449 129 18333732386024883661
6442390 28 18263902467644904267
7364860 26 17833831947135084979
81228 2 18197491823218909435

> <PUBCHEM_SHAPE_MULTIPOLES>
302.82
5.29
2.15
1.39
2.11
0.81
0.13
-3.45
0.34
-1.29
-0.24
-0.12
0.26
0.01

> <PUBCHEM_SHAPE_SELFOVERLAP>
615.427

> <PUBCHEM_SHAPE_VOLUME>
178.4

> <PUBCHEM_COORDINATE_TYPE>
2
5
10

$$$$

