73588
  -OEChem-07051212573D

 49 51  0     1  0  0  0  0  0999 V2000
    2.1580    2.8343    0.2692 O   0  0  0  0  0  0  0  0  0  0  0  0
   -0.8518   -2.8166   -0.0116 O   0  0  0  0  0  0  0  0  0  0  0  0
   -3.4319   -2.1202   -0.5047 O   0  0  0  0  0  0  0  0  0  0  0  0
    1.2307   -0.6535    0.4370 C   0  0  2  0  0  0  0  0  0  0  0  0
    2.0130    0.4678   -0.3382 C   0  0  2  0  0  0  0  0  0  0  0  0
    3.5788    0.3656   -0.3879 C   0  0  0  0  0  0  0  0  0  0  0  0
    1.7958   -2.0327   -0.0117 C   0  0  0  0  0  0  0  0  0  0  0  0
    3.9763   -1.0676   -0.8154 C   0  0  0  0  0  0  0  0  0  0  0  0
    3.3167   -2.1492    0.0219 C   0  0  0  0  0  0  0  0  0  0  0  0
   -0.2999   -0.4829    0.1429 C   0  0  0  0  0  0  0  0  0  0  0  0
    1.3691   -0.5541    1.9780 C   0  0  0  0  0  0  0  0  0  0  0  0
    1.4699    1.8389    0.0652 C   0  0  0  0  0  0  0  0  0  0  0  0
    4.2970    0.7206    0.9299 C   0  0  0  0  0  0  0  0  0  0  0  0
    4.1386    1.3138   -1.4818 C   0  0  0  0  0  0  0  0  0  0  0  0
   -0.8113    0.9043    0.1132 C   0  0  0  0  0  0  0  0  0  0  0  0
   -0.0019    1.9765    0.1306 C   0  0  0  0  0  0  0  0  0  0  0  0
   -1.1958   -1.4828   -0.0400 C   0  0  0  0  0  0  0  0  0  0  0  0
   -2.2435    1.1654    0.0985 C   0  0  0  0  0  0  0  0  0  0  0  0
   -3.1426    0.1910   -0.0833 C   0  0  0  0  0  0  0  0  0  0  0  0
   -2.6552   -1.2051   -0.2426 C   0  0  0  0  0  0  0  0  0  0  0  0
   -4.6182    0.4284   -0.1394 C   0  0  0  0  0  0  0  0  0  0  0  0
   -5.1127    1.0170    1.1795 C   0  0  0  0  0  0  0  0  0  0  0  0
   -4.9790    1.3414   -1.3095 C   0  0  0  0  0  0  0  0  0  0  0  0
    1.7012    0.3682   -1.3931 H   0  0  0  0  0  0  0  0  0  0  0  0
    1.4672   -2.2464   -1.0379 H   0  0  0  0  0  0  0  0  0  0  0  0
    1.4072   -2.8333    0.6289 H   0  0  0  0  0  0  0  0  0  0  0  0
    5.0657   -1.1925   -0.7692 H   0  0  0  0  0  0  0  0  0  0  0  0
    3.6967   -1.2284   -1.8658 H   0  0  0  0  0  0  0  0  0  0  0  0
    3.6858   -2.1210    1.0518 H   0  0  0  0  0  0  0  0  0  0  0  0
    3.6052   -3.1310   -0.3734 H   0  0  0  0  0  0  0  0  0  0  0  0
    0.6458   -1.2127    2.4761 H   0  0  0  0  0  0  0  0  0  0  0  0
    2.3488   -0.8675    2.3394 H   0  0  0  0  0  0  0  0  0  0  0  0
    1.1902    0.4587    2.3534 H   0  0  0  0  0  0  0  0  0  0  0  0
    5.3850    0.7029    0.7895 H   0  0  0  0  0  0  0  0  0  0  0  0
    4.0454    1.7221    1.2874 H   0  0  0  0  0  0  0  0  0  0  0  0
    4.0860    0.0203    1.7368 H   0  0  0  0  0  0  0  0  0  0  0  0
    3.6420    1.1482   -2.4445 H   0  0  0  0  0  0  0  0  0  0  0  0
    4.0181    2.3688   -1.2212 H   0  0  0  0  0  0  0  0  0  0  0  0
    5.2114    1.1453   -1.6351 H   0  0  0  0  0  0  0  0  0  0  0  0
   -0.3827    2.9936    0.1543 H   0  0  0  0  0  0  0  0  0  0  0  0
   -2.5731    2.1946    0.2146 H   0  0  0  0  0  0  0  0  0  0  0  0
   -5.1573   -0.5141   -0.2897 H   0  0  0  0  0  0  0  0  0  0  0  0
   -1.6619   -3.3373   -0.1473 H   0  0  0  0  0  0  0  0  0  0  0  0
   -4.7053    2.0160    1.3701 H   0  0  0  0  0  0  0  0  0  0  0  0
   -4.8439    0.3736    2.0250 H   0  0  0  0  0  0  0  0  0  0  0  0
   -6.2048    1.1080    1.1699 H   0  0  0  0  0  0  0  0  0  0  0  0
   -4.6145    0.9298   -2.2574 H   0  0  0  0  0  0  0  0  0  0  0  0
   -4.5641    2.3490   -1.1953 H   0  0  0  0  0  0  0  0  0  0  0  0
   -6.0670    1.4442   -1.3913 H   0  0  0  0  0  0  0  0  0  0  0  0
  1 12  2  0  0  0  0
  2 17  1  0  0  0  0
  2 43  1  0  0  0  0
  3 20  2  0  0  0  0
  4  5  1  0  0  0  0
  4  7  1  0  0  0  0
  4 10  1  0  0  0  0
  4 11  1  0  0  0  0
  5  6  1  0  0  0  0
  5 12  1  0  0  0  0
  5 24  1  0  0  0  0
  6  8  1  0  0  0  0
  6 13  1  0  0  0  0
  6 14  1  0  0  0  0
  7  9  1  0  0  0  0
  7 25  1  0  0  0  0
  7 26  1  0  0  0  0
  8  9  1  0  0  0  0
  8 27  1  0  0  0  0
  8 28  1  0  0  0  0
  9 29  1  0  0  0  0
  9 30  1  0  0  0  0
 10 15  1  0  0  0  0
 10 17  2  0  0  0  0
 11 31  1  0  0  0  0
 11 32  1  0  0  0  0
 11 33  1  0  0  0  0
 12 16  1  0  0  0  0
 13 34  1  0  0  0  0
 13 35  1  0  0  0  0
 13 36  1  0  0  0  0
 14 37  1  0  0  0  0
 14 38  1  0  0  0  0
 14 39  1  0  0  0  0
 15 16  2  0  0  0  0
 15 18  1  0  0  0  0
 16 40  1  0  0  0  0
 17 20  1  0  0  0  0
 18 19  2  0  0  0  0
 18 41  1  0  0  0  0
 19 20  1  0  0  0  0
 19 21  1  0  0  0  0
 21 22  1  0  0  0  0
 21 23  1  0  0  0  0
 21 42  1  0  0  0  0
 22 44  1  0  0  0  0
 22 45  1  0  0  0  0
 22 46  1  0  0  0  0
 23 47  1  0  0  0  0
 23 48  1  0  0  0  0
 23 49  1  0  0  0  0
M  END
> <PUBCHEM_COMPOUND_CID>
73588

> <PUBCHEM_CONFORMER_RMSD>
0.6

> <PUBCHEM_CONFORMER_DIVERSEORDER>
1

> <PUBCHEM_MMFF94_PARTIAL_CHARGES>
16
1 -0.57
10 -0.14
12 0.49
16 -0.14
17 0.09
18 -0.15
19 -0.12
2 -0.53
20 0.54
21 0.14
3 -0.57
4 0.14
40 0.15
41 0.15
43 0.45
5 0.06

> <PUBCHEM_EFFECTIVE_ROTOR_COUNT>
1.8

> <PUBCHEM_PHARMACOPHORE_FEATURES>
8
1 1 acceptor
1 2 donor
1 3 acceptor
3 21 22 23 hydrophobe
3 6 13 14 hydrophobe
6 10 15 17 18 19 20 rings
6 4 5 10 12 15 16 rings
6 4 5 6 7 8 9 rings

> <PUBCHEM_HEAVY_ATOM_COUNT>
23

> <PUBCHEM_ATOM_DEF_STEREO_COUNT>
2

> <PUBCHEM_ATOM_UDEF_STEREO_COUNT>
0

> <PUBCHEM_BOND_DEF_STEREO_COUNT>
0

> <PUBCHEM_BOND_UDEF_STEREO_COUNT>
0

> <PUBCHEM_ISOTOPIC_ATOM_COUNT>
0

> <PUBCHEM_COMPONENT_COUNT>
1

> <PUBCHEM_CACTVS_TAUTO_COUNT>
7

> <PUBCHEM_CONFORMER_ID>
00011F7400000001

> <PUBCHEM_MMFF94_ENERGY>
73.983

> <PUBCHEM_FEATURE_SELFOVERLAP>
40.631

> <PUBCHEM_SHAPE_FINGERPRINT>
10411042 1 17401769022269401191
10498660 4 18410577283823504143
10616163 171 18263923246021656727
10863032 1 18334010588342204622
10906281 52 18270669863051125072
10967382 1 18410292557625297450
11132069 177 18411425011456918593
11471102 20 18410858788743751028
11578080 2 17241898574873301394
116883 192 18190172589150495894
12236239 1 17989492926599319344
12553582 1 18337675320563444401
12644460 14 18272929466313459225
12788726 201 17750218361066479728
13140716 1 18267024951354623432
13221675 6 18412263934533898873
13583140 156 17203619202934557777
13944108 23 17046848885116325909
14790565 3 18264759047111366225
15099037 51 18409167740345482821
15196674 1 18410011022355611902
15475509 8 17607497396763151909
15536298 74 18334296474302906850
1601671 61 18411700988981219236
16752209 62 18265061412750663977
16945 1 18338228276623859704
17349148 13 17676205792989741797
17980427 23 17986119509452322500
18186145 218 18408326579606521225
19591789 44 18049437338130172521
19862831 5 18342175574406003637
20691752 17 17631465487506996161
20739085 24 18124574617151564753
21033648 29 17988371446520416237
21267235 1 18338505465049447334
21421861 104 18059585753625305698
221490 88 18339636729069645467
22393880 68 18190734246387346164
2334 1 17834393415424795104
23402539 116 18336273379277874342
23559900 14 18260267443458697068
2748010 2 17691120431838988498
2838139 119 16772940391002981724
3004659 81 18343020034297423222
335352 9 18410009974552267174
34934 24 18409172091052349508
350125 39 18267300031277685892
3680242 22 18342460391147008378
474 4 17632287931153112596
495365 180 17458359523802410746
5104073 3 18410576167058512210
543358 83 18410007749780176516
633830 44 17489584550161402334
7364860 26 18335143072607972448
7832392 63 18336829693200705638
9709674 26 18337389323081623398
9981440 41 17546730348592722992

> <PUBCHEM_SHAPE_MULTIPOLES>
455.72
9.49
2.6
1.13
6.48
0.47
0.19
-2.02
-1.48
-0.77
-0.16
-0.21
-0.18
-0.2

> <PUBCHEM_SHAPE_SELFOVERLAP>
975.508

> <PUBCHEM_SHAPE_VOLUME>
250.6

> <PUBCHEM_COORDINATE_TYPE>
2
5
10

$$$$

