12159
  -OEChem-06261206363D

 26 25  0     0  0  0  0  0  0999 V2000
   -3.8821    0.3386    0.2351 O   0  0  0  0  0  0  0  0  0  0  0  0
    0.9506    0.0174    0.1803 N   0  0  0  0  0  0  0  0  0  0  0  0
   -0.2843   -0.5979   -0.2907 C   0  0  0  0  0  0  0  0  0  0  0  0
   -1.4914    0.1965    0.1974 C   0  0  0  0  0  0  0  0  0  0  0  0
    1.0660    1.3892   -0.3183 C   0  0  0  0  0  0  0  0  0  0  0  0
    2.1113   -0.7724   -0.2343 C   0  0  0  0  0  0  0  0  0  0  0  0
   -2.7987   -0.4354   -0.2612 C   0  0  0  0  0  0  0  0  0  0  0  0
    2.3159    2.0652    0.2190 C   0  0  0  0  0  0  0  0  0  0  0  0
    2.0127   -2.2012    0.2727 C   0  0  0  0  0  0  0  0  0  0  0  0
   -0.3016   -0.6748   -1.3858 H   0  0  0  0  0  0  0  0  0  0  0  0
   -0.4060   -1.6084    0.1127 H   0  0  0  0  0  0  0  0  0  0  0  0
   -1.4881    0.2790    1.2919 H   0  0  0  0  0  0  0  0  0  0  0  0
   -1.5123    1.2198   -0.1896 H   0  0  0  0  0  0  0  0  0  0  0  0
    1.0597    1.4317   -1.4145 H   0  0  0  0  0  0  0  0  0  0  0  0
    0.2484    2.0171    0.0437 H   0  0  0  0  0  0  0  0  0  0  0  0
    2.2360   -0.7769   -1.3245 H   0  0  0  0  0  0  0  0  0  0  0  0
    3.0294   -0.3666    0.2027 H   0  0  0  0  0  0  0  0  0  0  0  0
   -2.8966   -1.4551    0.1247 H   0  0  0  0  0  0  0  0  0  0  0  0
   -2.8598   -0.4605   -1.3541 H   0  0  0  0  0  0  0  0  0  0  0  0
    2.4169    1.9323    1.3017 H   0  0  0  0  0  0  0  0  0  0  0  0
    3.2277    1.7089   -0.2702 H   0  0  0  0  0  0  0  0  0  0  0  0
    2.2621    3.1430    0.0271 H   0  0  0  0  0  0  0  0  0  0  0  0
    1.7442   -2.2404    1.3340 H   0  0  0  0  0  0  0  0  0  0  0  0
    1.2991   -2.8015   -0.3003 H   0  0  0  0  0  0  0  0  0  0  0  0
    2.9858   -2.6942    0.1663 H   0  0  0  0  0  0  0  0  0  0  0  0
   -4.7007   -0.0868   -0.0720 H   0  0  0  0  0  0  0  0  0  0  0  0
  1  7  1  0  0  0  0
  1 26  1  0  0  0  0
  2  3  1  0  0  0  0
  2  5  1  0  0  0  0
  2  6  1  0  0  0  0
  3  4  1  0  0  0  0
  3 10  1  0  0  0  0
  3 11  1  0  0  0  0
  4  7  1  0  0  0  0
  4 12  1  0  0  0  0
  4 13  1  0  0  0  0
  5  8  1  0  0  0  0
  5 14  1  0  0  0  0
  5 15  1  0  0  0  0
  6  9  1  0  0  0  0
  6 16  1  0  0  0  0
  6 17  1  0  0  0  0
  7 18  1  0  0  0  0
  7 19  1  0  0  0  0
  8 20  1  0  0  0  0
  8 21  1  0  0  0  0
  8 22  1  0  0  0  0
  9 23  1  0  0  0  0
  9 24  1  0  0  0  0
  9 25  1  0  0  0  0
M  END
> <PUBCHEM_COMPOUND_CID>
12159

> <PUBCHEM_CONFORMER_RMSD>
0.6

> <PUBCHEM_CONFORMER_DIVERSEORDER>
1
31
11
28
16
32
18
34
22
33
26
9
23
30
14
29
25
15
12
17
8
35
20
10
6
21
3
24
7
13
27
4
19
2
5

> <PUBCHEM_MMFF94_PARTIAL_CHARGES>
7
1 -0.68
2 -0.81
26 0.4
3 0.27
5 0.27
6 0.27
7 0.28

> <PUBCHEM_EFFECTIVE_ROTOR_COUNT>
5

> <PUBCHEM_PHARMACOPHORE_FEATURES>
3
1 1 acceptor
1 1 donor
1 2 cation

> <PUBCHEM_HEAVY_ATOM_COUNT>
9

> <PUBCHEM_ATOM_DEF_STEREO_COUNT>
0

> <PUBCHEM_ATOM_UDEF_STEREO_COUNT>
0

> <PUBCHEM_BOND_DEF_STEREO_COUNT>
0

> <PUBCHEM_BOND_UDEF_STEREO_COUNT>
0

> <PUBCHEM_ISOTOPIC_ATOM_COUNT>
0

> <PUBCHEM_COMPONENT_COUNT>
1

> <PUBCHEM_CACTVS_TAUTO_COUNT>
1

> <PUBCHEM_CONFORMER_ID>
00002F7F00000001

> <PUBCHEM_MMFF94_ENERGY>
7.6476

> <PUBCHEM_FEATURE_SELFOVERLAP>
15.223

> <PUBCHEM_SHAPE_FINGERPRINT>
12932741 1 17775279452684046539
12932764 1 17632585967660970219
14325111 11 18409166572161805431
14390081 3 18263079920924710729
161256 15 18342741853254757988
170605 34 18116147775151982236
19021347 4 17907583527966903402
20645477 70 18409171013316719623
20653091 64 18335698381708897378
20711985 344 17398932260382907118
20871998 22 18118966042877417670
21040471 1 17907295451720547172
23552333 60 18186798080205501616
23552423 10 18409452453490378615
23552449 11 18411141363300752042
528862 383 18410863135472258986

> <PUBCHEM_SHAPE_MULTIPOLES>
174.37
4.91
2.05
0.66
5.38
0.07
-0.02
-0.31
0.3
-2.47
0.16
-0.03
0
-0.1

> <PUBCHEM_SHAPE_SELFOVERLAP>
309.298

> <PUBCHEM_SHAPE_VOLUME>
115.5

> <PUBCHEM_COORDINATE_TYPE>
2
5
10

$$$$

