443289
  -OEChem-07051213012D

 86 89  0     1  0  0  0  0  0999 V2000
    8.1053    0.8985    0.0000 O   0  0  0  0  0  0  0  0  0  0  0  0
    9.9078    0.7490    0.0000 O   0  0  0  0  0  0  0  0  0  0  0  0
    5.5071    4.3984    0.0000 O   0  0  0  0  0  0  0  0  0  0  0  0
    7.9872    0.0018    0.0000 O   0  0  0  0  0  0  0  0  0  0  0  0
    6.3397    1.0608    0.0000 O   0  0  0  0  0  0  0  0  0  0  0  0
   10.9454   -2.0954    0.0000 O   0  0  0  0  0  0  0  0  0  0  0  0
   10.6686   -0.3856    0.0000 O   0  0  0  0  0  0  0  0  0  0  0  0
    8.9712    1.3984    0.0000 N   0  0  0  0  0  0  0  0  0  0  0  0
    6.3732    1.8984    0.0000 N   0  0  0  0  0  0  0  0  0  0  0  0
    7.7284   -0.9641    0.0000 N   0  0  0  0  0  0  0  0  0  0  0  0
    4.6411    2.8984    0.0000 N   0  0  0  0  0  0  0  0  0  0  0  0
    5.3482    0.1913    0.0000 N   0  0  0  0  0  0  0  0  0  0  0  0
    3.2235   -1.6535    0.0000 N   0  0  0  0  0  0  0  0  0  0  0  0
    8.1052    1.8984    0.0000 C   0  0  1  0  0  0  0  0  0  0  0  0
    8.3144    2.8702    0.0000 C   0  0  0  0  0  0  0  0  0  0  0  0
    9.3031    2.9733    0.0000 C   0  0  0  0  0  0  0  0  0  0  0  0
    9.7082    2.0655    0.0000 C   0  0  0  0  0  0  0  0  0  0  0  0
    7.2392    1.3984    0.0000 C   0  0  0  0  0  0  0  0  0  0  0  0
    8.9712    0.3984    0.0000 C   0  0  0  0  0  0  0  0  0  0  0  0
    6.3732    2.8984    0.0000 C   0  0  2  0  0  0  0  0  0  0  0  0
    8.6943   -0.7053    0.0000 C   0  0  1  0  0  0  0  0  0  0  0  0
    7.2392    3.3984    0.0000 C   0  0  0  0  0  0  0  0  0  0  0  0
    4.6411    1.8984    0.0000 C   0  0  1  0  0  0  0  0  0  0  0  0
    5.5071    3.3984    0.0000 C   0  0  0  0  0  0  0  0  0  0  0  0
    9.3263   -1.4802    0.0000 C   0  0  0  0  0  0  0  0  0  0  0  0
    6.0553   -0.5158    0.0000 C   0  0  1  0  0  0  0  0  0  0  0  0
    3.7172    1.5157    0.0000 C   0  0  0  0  0  0  0  0  0  0  0  0
    2.9239    2.1245    0.0000 C   0  0  0  0  0  0  0  0  0  0  0  0
    7.0212   -0.2570    0.0000 C   0  0  0  0  0  0  0  0  0  0  0  0
    5.7965   -1.4817    0.0000 C   0  0  0  0  0  0  0  0  0  0  0  0
    5.3482    1.1913    0.0000 C   0  0  0  0  0  0  0  0  0  0  0  0
    7.2392    4.3984    0.0000 C   0  0  0  0  0  0  0  0  0  0  0  0
    8.1052    3.8984    0.0000 C   0  0  0  0  0  0  0  0  0  0  0  0
    4.8306   -1.7405    0.0000 C   0  0  0  0  0  0  0  0  0  0  0  0
    2.0000    1.7418    0.0000 C   0  0  0  0  0  0  0  0  0  0  0  0
    3.0544    3.1159    0.0000 C   0  0  0  0  0  0  0  0  0  0  0  0
   10.3134   -1.3204    0.0000 C   0  0  0  0  0  0  0  0  0  0  0  0
    4.4751   -2.6689    0.0000 C   0  0  0  0  0  0  0  0  0  0  0  0
    4.0586   -1.1143    0.0000 C   0  0  0  0  0  0  0  0  0  0  0  0
    3.4766   -2.6148    0.0000 C   0  0  0  0  0  0  0  0  0  0  0  0
    4.9276   -3.5607    0.0000 C   0  0  0  0  0  0  0  0  0  0  0  0
    2.9305   -3.4526    0.0000 C   0  0  0  0  0  0  0  0  0  0  0  0
    4.3815   -4.3984    0.0000 C   0  0  0  0  0  0  0  0  0  0  0  0
    3.3830   -4.3444    0.0000 C   0  0  0  0  0  0  0  0  0  0  0  0
    7.4182    2.3989    0.0000 H   0  0  0  0  0  0  0  0  0  0  0  0
    8.3153    3.4902    0.0000 H   0  0  0  0  0  0  0  0  0  0  0  0
    7.6980    2.9363    0.0000 H   0  0  0  0  0  0  0  0  0  0  0  0
    9.8927    3.1650    0.0000 H   0  0  0  0  0  0  0  0  0  0  0  0
    9.1744    3.5798    0.0000 H   0  0  0  0  0  0  0  0  0  0  0  0
   10.0737    1.5647    0.0000 H   0  0  0  0  0  0  0  0  0  0  0  0
   10.2447    2.3763    0.0000 H   0  0  0  0  0  0  0  0  0  0  0  0
    6.9101    2.5884    0.0000 H   0  0  0  0  0  0  0  0  0  0  0  0
    8.5037   -1.2952    0.0000 H   0  0  0  0  0  0  0  0  0  0  0  0
    5.8362    1.5884    0.0000 H   0  0  0  0  0  0  0  0  0  0  0  0
    7.5492    2.8615    0.0000 H   0  0  0  0  0  0  0  0  0  0  0  0
    4.1256    2.2429    0.0000 H   0  0  0  0  0  0  0  0  0  0  0  0
    8.7850   -1.7827    0.0000 H   0  0  0  0  0  0  0  0  0  0  0  0
    9.5301   -2.0658    0.0000 H   0  0  0  0  0  0  0  0  0  0  0  0
    5.4564   -0.6763    0.0000 H   0  0  0  0  0  0  0  0  0  0  0  0
    7.5679   -1.5630    0.0000 H   0  0  0  0  0  0  0  0  0  0  0  0
    3.2601    1.0969    0.0000 H   0  0  0  0  0  0  0  0  0  0  0  0
    4.0504    0.9928    0.0000 H   0  0  0  0  0  0  0  0  0  0  0  0
    4.1042    3.2084    0.0000 H   0  0  0  0  0  0  0  0  0  0  0  0
    3.4967    2.3618    0.0000 H   0  0  0  0  0  0  0  0  0  0  0  0
    5.8505   -2.0994    0.0000 H   0  0  0  0  0  0  0  0  0  0  0  0
    6.4142   -1.5358    0.0000 H   0  0  0  0  0  0  0  0  0  0  0  0
    7.8592    4.3984    0.0000 H   0  0  0  0  0  0  0  0  0  0  0  0
    7.2392    5.0184    0.0000 H   0  0  0  0  0  0  0  0  0  0  0  0
    6.6192    4.3984    0.0000 H   0  0  0  0  0  0  0  0  0  0  0  0
    8.4152    3.3615    0.0000 H   0  0  0  0  0  0  0  0  0  0  0  0
    8.6422    4.2084    0.0000 H   0  0  0  0  0  0  0  0  0  0  0  0
    7.7952    4.4354    0.0000 H   0  0  0  0  0  0  0  0  0  0  0  0
    4.7754   -0.0460    0.0000 H   0  0  0  0  0  0  0  0  0  0  0  0
    1.7627    2.3146    0.0000 H   0  0  0  0  0  0  0  0  0  0  0  0
    1.4272    1.5046    0.0000 H   0  0  0  0  0  0  0  0  0  0  0  0
    2.2373    1.1690    0.0000 H   0  0  0  0  0  0  0  0  0  0  0  0
    3.6691    3.0350    0.0000 H   0  0  0  0  0  0  0  0  0  0  0  0
    3.1353    3.7306    0.0000 H   0  0  0  0  0  0  0  0  0  0  0  0
    2.4397    3.1969    0.0000 H   0  0  0  0  0  0  0  0  0  0  0  0
    4.0921   -0.4952    0.0000 H   0  0  0  0  0  0  0  0  0  0  0  0
    2.6454   -1.4293    0.0000 H   0  0  0  0  0  0  0  0  0  0  0  0
    5.5467   -3.5942    0.0000 H   0  0  0  0  0  0  0  0  0  0  0  0
    2.3114   -3.4190    0.0000 H   0  0  0  0  0  0  0  0  0  0  0  0
   11.5574   -1.9963    0.0000 H   0  0  0  0  0  0  0  0  0  0  0  0
    4.6620   -4.9513    0.0000 H   0  0  0  0  0  0  0  0  0  0  0  0
    3.0444   -4.8637    0.0000 H   0  0  0  0  0  0  0  0  0  0  0  0
  1 18  2  0  0  0  0
  2 19  2  0  0  0  0
  3 24  2  0  0  0  0
  4 29  2  0  0  0  0
  5 31  2  0  0  0  0
  6 37  1  0  0  0  0
  6 84  1  0  0  0  0
  7 37  2  0  0  0  0
  8 14  1  0  0  0  0
  8 17  1  0  0  0  0
  8 19  1  0  0  0  0
  9 18  1  0  0  0  0
  9 20  1  0  0  0  0
  9 54  1  0  0  0  0
 10 21  1  0  0  0  0
 10 29  1  0  0  0  0
 10 60  1  0  0  0  0
 11 23  1  0  0  0  0
 11 24  1  0  0  0  0
 11 63  1  0  0  0  0
 12 26  1  0  0  0  0
 12 31  1  0  0  0  0
 12 73  1  0  0  0  0
 13 39  1  0  0  0  0
 13 40  1  0  0  0  0
 13 81  1  0  0  0  0
 14 15  1  0  0  0  0
 14 18  1  0  0  0  0
 14 45  1  1  0  0  0
 15 16  1  0  0  0  0
 15 46  1  0  0  0  0
 15 47  1  0  0  0  0
 16 17  1  0  0  0  0
 16 48  1  0  0  0  0
 16 49  1  0  0  0  0
 17 50  1  0  0  0  0
 17 51  1  0  0  0  0
 19 21  1  0  0  0  0
 20 22  1  1  0  0  0
 20 24  1  0  0  0  0
 20 52  1  0  0  0  0
 21 25  1  1  0  0  0
 21 53  1  0  0  0  0
 22 32  1  0  0  0  0
 22 33  1  0  0  0  0
 22 55  1  0  0  0  0
 23 27  1  6  0  0  0
 23 31  1  0  0  0  0
 23 56  1  0  0  0  0
 25 37  1  0  0  0  0
 25 57  1  0  0  0  0
 25 58  1  0  0  0  0
 26 29  1  0  0  0  0
 26 30  1  1  0  0  0
 26 59  1  0  0  0  0
 27 28  1  0  0  0  0
 27 61  1  0  0  0  0
 27 62  1  0  0  0  0
 28 35  1  0  0  0  0
 28 36  1  0  0  0  0
 28 64  1  0  0  0  0
 30 34  1  0  0  0  0
 30 65  1  0  0  0  0
 30 66  1  0  0  0  0
 32 67  1  0  0  0  0
 32 68  1  0  0  0  0
 32 69  1  0  0  0  0
 33 70  1  0  0  0  0
 33 71  1  0  0  0  0
 33 72  1  0  0  0  0
 34 38  1  0  0  0  0
 34 39  2  0  0  0  0
 35 74  1  0  0  0  0
 35 75  1  0  0  0  0
 35 76  1  0  0  0  0
 36 77  1  0  0  0  0
 36 78  1  0  0  0  0
 36 79  1  0  0  0  0
 38 40  1  0  0  0  0
 38 41  2  0  0  0  0
 39 80  1  0  0  0  0
 40 42  2  0  0  0  0
 41 43  1  0  0  0  0
 41 82  1  0  0  0  0
 42 44  1  0  0  0  0
 42 83  1  0  0  0  0
 43 44  2  0  0  0  0
 43 85  1  0  0  0  0
 44 86  1  0  0  0  0
M  END
> <PUBCHEM_COMPOUND_CID>
443289

> <PUBCHEM_COMPOUND_CANONICALIZED>
1

> <PUBCHEM_CACTVS_COMPLEXITY>
1110

> <PUBCHEM_CACTVS_HBOND_ACCEPTOR>
7

> <PUBCHEM_CACTVS_HBOND_DONOR>
6

> <PUBCHEM_CACTVS_ROTATABLE_BOND>
7

> <PUBCHEM_CACTVS_SUBSKEYS>
AAADcfB7uAAAAAAAAAAAAAAAAAAAAWLAAAAwAAAAAAAAAFgB8AAAHgAQCAAADSjBngQ+yPPJkgCoAzX3XACCgCAxAiAI2aG4ZJgIYPrAkbGUYAhmlgDIyAc/icCOgAAAAAACAAAAAAAAAAQAAAAAAAAAAA==

> <PUBCHEM_IUPAC_OPENEYE_NAME>
2-[(3R,6R,9S,12R,15S)-6-(1H-indol-3-ylmethyl)-9-isobutyl-12-isopropyl-2,5,8,11,14-pentaoxo-1,4,7,10,13-pentazabicyclo[13.3.0]octadecan-3-yl]acetic acid

> <PUBCHEM_IUPAC_CAS_NAME>
2-[(3R,6R,9S,12R,15S)-6-(1H-indol-3-ylmethyl)-9-(2-methylpropyl)-2,5,8,11,14-pentaoxo-12-propan-2-yl-1,4,7,10,13-pentazabicyclo[13.3.0]octadecan-3-yl]acetic acid

> <PUBCHEM_IUPAC_NAME>
2-[(3R,6R,9S,12R,15S)-6-(1H-indol-3-ylmethyl)-9-(2-methylpropyl)-2,5,8,11,14-pentaoxo-12-propan-2-yl-1,4,7,10,13-pentazabicyclo[13.3.0]octadecan-3-yl]acetic acid

> <PUBCHEM_IUPAC_SYSTEMATIC_NAME>
2-[(3R,6R,9S,12R,15S)-6-(1H-indol-3-ylmethyl)-9-(2-methylpropyl)-2,5,8,11,14-pentakis(oxidanylidene)-12-propan-2-yl-1,4,7,10,13-pentazabicyclo[13.3.0]octadecan-3-yl]ethanoic acid

> <PUBCHEM_IUPAC_TRADITIONAL_NAME>
2-[(3R,6R,9S,12R,15S)-6-(1H-indol-3-ylmethyl)-9-isobutyl-12-isopropyl-2,5,8,11,14-pentaketo-1,4,7,10,13-pentazabicyclo[13.3.0]octadecan-3-yl]acetic acid

> <PUBCHEM_IUPAC_INCHI>
InChI=1S/C31H42N6O7/c1-16(2)12-21-27(40)33-22(13-18-15-32-20-9-6-5-8-19(18)20)28(41)35-23(14-25(38)39)31(44)37-11-7-10-24(37)29(42)36-26(17(3)4)30(43)34-21/h5-6,8-9,15-17,21-24,26,32H,7,10-14H2,1-4H3,(H,33,40)(H,34,43)(H,35,41)(H,36,42)(H,38,39)/t21-,22+,23+,24-,26+/m0/s1

> <PUBCHEM_IUPAC_INCHIKEY>
VYCMAAOURFJIHD-PJNXIOHISA-N

> <PUBCHEM_XLOGP3_AA>
2.2

> <PUBCHEM_EXACT_MASS>
610.311498

> <PUBCHEM_MOLECULAR_FORMULA>
C31H42N6O7

> <PUBCHEM_MOLECULAR_WEIGHT>
610.70118

> <PUBCHEM_OPENEYE_CAN_SMILES>
CC(C)CC1C(=O)NC(C(=O)NC(C(=O)N2CCCC2C(=O)NC(C(=O)N1)C(C)C)CC(=O)O)CC3=CNC4=CC=CC=C43

> <PUBCHEM_OPENEYE_ISO_SMILES>
CC(C)C[C@H]1C(=O)N[C@@H](C(=O)N[C@@H](C(=O)N2CCC[C@H]2C(=O)N[C@@H](C(=O)N1)C(C)C)CC(=O)O)CC3=CNC4=CC=CC=C43

> <PUBCHEM_CACTVS_TPSA>
190

> <PUBCHEM_MONOISOTOPIC_WEIGHT>
610.311498

> <PUBCHEM_TOTAL_CHARGE>
0

> <PUBCHEM_HEAVY_ATOM_COUNT>
44

> <PUBCHEM_ATOM_DEF_STEREO_COUNT>
5

> <PUBCHEM_ATOM_UDEF_STEREO_COUNT>
0

> <PUBCHEM_BOND_DEF_STEREO_COUNT>
0

> <PUBCHEM_BOND_UDEF_STEREO_COUNT>
0

> <PUBCHEM_ISOTOPIC_ATOM_COUNT>
0

> <PUBCHEM_COMPONENT_COUNT>
1

> <PUBCHEM_CACTVS_TAUTO_COUNT>
162

> <PUBCHEM_COORDINATE_TYPE>
1
5
255

> <PUBCHEM_BONDANNOTATIONS>
13  39  8
13  40  8
14  45  5
20  22  5
21  25  5
23  27  6
26  30  5
34  38  8
34  39  8
38  40  8
38  41  8
40  42  8
41  43  8
42  44  8
43  44  8

$$$$

