5280505
  -OEChem-07051212473D

 41 41  0     0  0  0  0  0  0999 V2000
   -4.5500    0.3282   -0.4413 O   0  0  0  0  0  0  0  0  0  0  0  0
   -4.6704   -1.6886    0.7275 O   0  0  0  0  0  0  0  0  0  0  0  0
    2.5583    0.9691    0.1196 C   0  0  0  0  0  0  0  0  0  0  0  0
    3.8571    0.4712   -0.5682 C   0  0  0  0  0  0  0  0  0  0  0  0
    1.4976   -0.1480    0.2045 C   0  0  0  0  0  0  0  0  0  0  0  0
    4.2975   -0.8856   -0.0439 C   0  0  0  0  0  0  0  0  0  0  0  0
    3.2144   -1.9248   -0.2972 C   0  0  0  0  0  0  0  0  0  0  0  0
    1.8055   -1.4500   -0.0152 C   0  0  0  0  0  0  0  0  0  0  0  0
    2.0475    2.1682   -0.7091 C   0  0  0  0  0  0  0  0  0  0  0  0
    2.8977    1.4659    1.5425 C   0  0  0  0  0  0  0  0  0  0  0  0
    0.0949    0.2950    0.5593 C   0  0  0  0  0  0  0  0  0  0  0  0
   -0.7707    0.5434   -0.6714 C   0  0  0  0  0  0  0  0  0  0  0  0
    0.7991   -2.5739   -0.0323 C   0  0  0  0  0  0  0  0  0  0  0  0
   -2.2168    0.8711   -0.3654 C   0  0  0  0  0  0  0  0  0  0  0  0
   -2.4700    2.1289    0.4181 C   0  0  0  0  0  0  0  0  0  0  0  0
   -3.2371    0.0799   -0.7317 C   0  0  0  0  0  0  0  0  0  0  0  0
   -5.1545   -0.6500    0.3043 C   0  0  0  0  0  0  0  0  0  0  0  0
    4.6682    1.1969   -0.4282 H   0  0  0  0  0  0  0  0  0  0  0  0
    3.7011    0.3918   -1.6531 H   0  0  0  0  0  0  0  0  0  0  0  0
    4.5203   -0.8288    1.0277 H   0  0  0  0  0  0  0  0  0  0  0  0
    5.2256   -1.1954   -0.5381 H   0  0  0  0  0  0  0  0  0  0  0  0
    3.4372   -2.8084    0.3134 H   0  0  0  0  0  0  0  0  0  0  0  0
    3.2631   -2.2434   -1.3466 H   0  0  0  0  0  0  0  0  0  0  0  0
    1.2022    2.6784   -0.2362 H   0  0  0  0  0  0  0  0  0  0  0  0
    2.8377    2.9215   -0.8189 H   0  0  0  0  0  0  0  0  0  0  0  0
    1.7564    1.8628   -1.7202 H   0  0  0  0  0  0  0  0  0  0  0  0
    3.7251    2.1847    1.5218 H   0  0  0  0  0  0  0  0  0  0  0  0
    2.0481    1.9730    2.0126 H   0  0  0  0  0  0  0  0  0  0  0  0
    3.1891    0.6423    2.2034 H   0  0  0  0  0  0  0  0  0  0  0  0
    0.1293    1.1948    1.1829 H   0  0  0  0  0  0  0  0  0  0  0  0
   -0.3823   -0.4498    1.2090 H   0  0  0  0  0  0  0  0  0  0  0  0
   -0.3795    1.3655   -1.2775 H   0  0  0  0  0  0  0  0  0  0  0  0
   -0.7349   -0.3365   -1.3274 H   0  0  0  0  0  0  0  0  0  0  0  0
   -0.2401   -2.2507    0.0517 H   0  0  0  0  0  0  0  0  0  0  0  0
    0.9976   -3.2650    0.7937 H   0  0  0  0  0  0  0  0  0  0  0  0
    0.8791   -3.1311   -0.9722 H   0  0  0  0  0  0  0  0  0  0  0  0
   -2.0886    2.0293    1.4391 H   0  0  0  0  0  0  0  0  0  0  0  0
   -3.5315    2.3865    0.4875 H   0  0  0  0  0  0  0  0  0  0  0  0
   -1.9655    2.9760   -0.0589 H   0  0  0  0  0  0  0  0  0  0  0  0
   -3.1069   -0.8370   -1.2921 H   0  0  0  0  0  0  0  0  0  0  0  0
   -6.1991   -0.3453    0.4766 H   0  0  0  0  0  0  0  0  0  0  0  0
  1 16  1  0  0  0  0
  1 17  1  0  0  0  0
  2 17  2  0  0  0  0
  3  4  1  0  0  0  0
  3  5  1  0  0  0  0
  3  9  1  0  0  0  0
  3 10  1  0  0  0  0
  4  6  1  0  0  0  0
  4 18  1  0  0  0  0
  4 19  1  0  0  0  0
  5  8  2  0  0  0  0
  5 11  1  0  0  0  0
  6  7  1  0  0  0  0
  6 20  1  0  0  0  0
  6 21  1  0  0  0  0
  7  8  1  0  0  0  0
  7 22  1  0  0  0  0
  7 23  1  0  0  0  0
  8 13  1  0  0  0  0
  9 24  1  0  0  0  0
  9 25  1  0  0  0  0
  9 26  1  0  0  0  0
 10 27  1  0  0  0  0
 10 28  1  0  0  0  0
 10 29  1  0  0  0  0
 11 12  1  0  0  0  0
 11 30  1  0  0  0  0
 11 31  1  0  0  0  0
 12 14  1  0  0  0  0
 12 32  1  0  0  0  0
 12 33  1  0  0  0  0
 13 34  1  0  0  0  0
 13 35  1  0  0  0  0
 13 36  1  0  0  0  0
 14 15  1  0  0  0  0
 14 16  2  0  0  0  0
 15 37  1  0  0  0  0
 15 38  1  0  0  0  0
 15 39  1  0  0  0  0
 16 40  1  0  0  0  0
 17 41  1  0  0  0  0
M  END
> <PUBCHEM_COMPOUND_CID>
5280505

> <PUBCHEM_CONFORMER_RMSD>
0.8

> <PUBCHEM_CONFORMER_DIVERSEORDER>
1
6
11
17
2
18
8
27
9
28
3
24
7
10
20
25
5
21
23
14
13
15
12
19
16
26
4
22

> <PUBCHEM_MMFF94_PARTIAL_CHARGES>
15
1 -0.23
11 0.14
12 0.14
13 0.14
14 -0.28
15 0.14
16 -0.07
17 0.66
2 -0.57
3 0.14
40 0.15
41 0.06
5 -0.28
7 0.14
8 -0.28

> <PUBCHEM_EFFECTIVE_ROTOR_COUNT>
5.8

> <PUBCHEM_PHARMACOPHORE_FEATURES>
4
1 15 hydrophobe
1 2 acceptor
3 3 9 10 hydrophobe
6 3 4 5 6 7 8 rings

> <PUBCHEM_HEAVY_ATOM_COUNT>
17

> <PUBCHEM_ATOM_DEF_STEREO_COUNT>
0

> <PUBCHEM_ATOM_UDEF_STEREO_COUNT>
0

> <PUBCHEM_BOND_DEF_STEREO_COUNT>
1

> <PUBCHEM_BOND_UDEF_STEREO_COUNT>
0

> <PUBCHEM_ISOTOPIC_ATOM_COUNT>
0

> <PUBCHEM_COMPONENT_COUNT>
1

> <PUBCHEM_CACTVS_TAUTO_COUNT>
1

> <PUBCHEM_CONFORMER_ID>
005092F900000001

> <PUBCHEM_MMFF94_ENERGY>
35.3029

> <PUBCHEM_FEATURE_SELFOVERLAP>
20.297

> <PUBCHEM_SHAPE_FINGERPRINT>
10616163 171 18409447003546288031
11552529 35 17605554345686301655
11615757 297 17894910741459835579
11806522 49 18341330071507671718
11961588 58 17631145539030919662
12596602 18 17023459730256546011
12616999 72 18273208682195576076
13464513 79 18413671318466420262
14251717 144 18411983602372020990
14341114 176 18409723002175568805
15477762 27 18411418449226853884
15880784 105 17676489394112628299
17834074 16 18411136948359305831
18186145 218 18201726205700697133
19050596 39 18334294314171935297
200 152 18335422378794938585
20261772 1 18261111820944307191
20645477 70 18187939425252681863
21079973 296 17988922224398948299
21267235 1 18336258033322919414
21673915 165 18264212400922242391
221490 88 18411414050753509922
23402539 116 17203332242498587790
23557571 272 17632582690653652165
23559900 14 18341337768416314989
2871803 45 18342462568880088719
3060560 45 18411705400323939902
312423 11 18261096504837624369
3286 77 18411141380818101588
3323516 105 18410012134820635387
350125 39 18410290277308698256
4214541 1 18339924926266344789
5104073 3 18335424628851432824
6333272 397 18341614767868304660
7495541 125 18273494576688320282
77779 3 18410011078480285101
9709674 26 18342452647532236107

> <PUBCHEM_SHAPE_MULTIPOLES>
338.11
9.59
2.4
0.94
10.64
0.47
0.16
2.09
0.35
-0.85
0.14
-0.21
-0.29
0.56

> <PUBCHEM_SHAPE_SELFOVERLAP>
669.794

> <PUBCHEM_SHAPE_VOLUME>
199

> <PUBCHEM_COORDINATE_TYPE>
2
5
10

$$$$

