11948
  -OEChem-06261206193D

 31 33  0     0  0  0  0  0  0999 V2000
   -0.0739    0.6202    0.8859 C   0  0  0  0  0  0  0  0  0  0  0  0
   -1.4278    0.5691    1.5100 C   0  0  0  0  0  0  0  0  0  0  0  0
    2.0300   -0.4717    0.3372 C   0  0  0  0  0  0  0  0  0  0  0  0
    2.4747    0.7161   -0.2905 C   0  0  0  0  0  0  0  0  0  0  0  0
    0.7528   -0.5033    0.9206 C   0  0  0  0  0  0  0  0  0  0  0  0
   -2.5226    0.1142    0.5662 C   0  0  0  0  0  0  0  0  0  0  0  0
    0.3634    1.7882    0.2682 C   0  0  0  0  0  0  0  0  0  0  0  0
    1.6292    1.8373   -0.3166 C   0  0  0  0  0  0  0  0  0  0  0  0
    2.8754   -1.5928    0.3629 C   0  0  0  0  0  0  0  0  0  0  0  0
    3.7516    0.7479   -0.8742 C   0  0  0  0  0  0  0  0  0  0  0  0
   -2.8152   -1.2345    0.4740 C   0  0  0  0  0  0  0  0  0  0  0  0
   -3.2032    1.0583   -0.1810 C   0  0  0  0  0  0  0  0  0  0  0  0
    4.1412   -1.5435   -0.2218 C   0  0  0  0  0  0  0  0  0  0  0  0
    4.5786   -0.3753   -0.8391 C   0  0  0  0  0  0  0  0  0  0  0  0
   -3.8227   -1.6534   -0.3950 C   0  0  0  0  0  0  0  0  0  0  0  0
   -4.2109    0.6395   -1.0499 C   0  0  0  0  0  0  0  0  0  0  0  0
   -4.5205   -0.7164   -1.1569 C   0  0  0  0  0  0  0  0  0  0  0  0
   -1.6875    1.5543    1.9223 H   0  0  0  0  0  0  0  0  0  0  0  0
   -1.4097   -0.0871    2.3915 H   0  0  0  0  0  0  0  0  0  0  0  0
    0.4034   -1.4129    1.4061 H   0  0  0  0  0  0  0  0  0  0  0  0
   -0.2701    2.6707    0.2341 H   0  0  0  0  0  0  0  0  0  0  0  0
    1.9505    2.7609   -0.7938 H   0  0  0  0  0  0  0  0  0  0  0  0
    2.5544   -2.5166    0.8397 H   0  0  0  0  0  0  0  0  0  0  0  0
    4.1141    1.6503   -1.3622 H   0  0  0  0  0  0  0  0  0  0  0  0
   -2.2781   -1.9717    1.0635 H   0  0  0  0  0  0  0  0  0  0  0  0
   -2.9700    2.1161   -0.1044 H   0  0  0  0  0  0  0  0  0  0  0  0
    4.7853   -2.4176   -0.1949 H   0  0  0  0  0  0  0  0  0  0  0  0
    5.5641   -0.3376   -1.2941 H   0  0  0  0  0  0  0  0  0  0  0  0
   -4.0639   -2.7091   -0.4783 H   0  0  0  0  0  0  0  0  0  0  0  0
   -4.7544    1.3691   -1.6431 H   0  0  0  0  0  0  0  0  0  0  0  0
   -5.3049   -1.0425   -1.8336 H   0  0  0  0  0  0  0  0  0  0  0  0
  1  2  1  0  0  0  0
  1  5  2  0  0  0  0
  1  7  1  0  0  0  0
  2  6  1  0  0  0  0
  2 18  1  0  0  0  0
  2 19  1  0  0  0  0
  3  4  1  0  0  0  0
  3  5  1  0  0  0  0
  3  9  2  0  0  0  0
  4  8  1  0  0  0  0
  4 10  2  0  0  0  0
  5 20  1  0  0  0  0
  6 11  2  0  0  0  0
  6 12  1  0  0  0  0
  7  8  2  0  0  0  0
  7 21  1  0  0  0  0
  8 22  1  0  0  0  0
  9 13  1  0  0  0  0
  9 23  1  0  0  0  0
 10 14  1  0  0  0  0
 10 24  1  0  0  0  0
 11 15  1  0  0  0  0
 11 25  1  0  0  0  0
 12 16  2  0  0  0  0
 12 26  1  0  0  0  0
 13 14  2  0  0  0  0
 13 27  1  0  0  0  0
 14 28  1  0  0  0  0
 15 17  2  0  0  0  0
 15 29  1  0  0  0  0
 16 17  1  0  0  0  0
 16 30  1  0  0  0  0
 17 31  1  0  0  0  0
M  END
> <PUBCHEM_COMPOUND_CID>
11948

> <PUBCHEM_CONFORMER_RMSD>
0.6

> <PUBCHEM_CONFORMER_DIVERSEORDER>
1
7
3
2
4
5
6

> <PUBCHEM_MMFF94_PARTIAL_CHARGES>
27
1 -0.14
10 -0.15
11 -0.15
12 -0.15
13 -0.15
14 -0.15
15 -0.15
16 -0.15
17 -0.15
2 0.29
20 0.15
21 0.15
22 0.15
23 0.15
24 0.15
25 0.15
26 0.15
27 0.15
28 0.15
29 0.15
30 0.15
31 0.15
5 -0.15
6 -0.14
7 -0.15
8 -0.15
9 -0.15

> <PUBCHEM_EFFECTIVE_ROTOR_COUNT>
2

> <PUBCHEM_PHARMACOPHORE_FEATURES>
3
6 1 3 4 5 7 8 rings
6 3 4 9 10 13 14 rings
6 6 11 12 15 16 17 rings

> <PUBCHEM_HEAVY_ATOM_COUNT>
17

> <PUBCHEM_ATOM_DEF_STEREO_COUNT>
0

> <PUBCHEM_ATOM_UDEF_STEREO_COUNT>
0

> <PUBCHEM_BOND_DEF_STEREO_COUNT>
0

> <PUBCHEM_BOND_UDEF_STEREO_COUNT>
0

> <PUBCHEM_ISOTOPIC_ATOM_COUNT>
0

> <PUBCHEM_COMPONENT_COUNT>
1

> <PUBCHEM_CACTVS_TAUTO_COUNT>
1

> <PUBCHEM_CONFORMER_ID>
00002EAC00000001

> <PUBCHEM_MMFF94_ENERGY>
49.0886

> <PUBCHEM_FEATURE_SELFOVERLAP>
15.249

> <PUBCHEM_SHAPE_FINGERPRINT>
10465860 228 10519717686833050856
10498660 4 15913059707196339455
11046707 91 17748825236873234371
11543360 7 18272088266666363143
11552529 35 7564472323644950709
11578080 2 17968395518555202752
11796584 16 17603303769473435975
11806522 49 18333730204666917504
12363563 72 16588025688899286531
12390115 104 7707159277056815586
12507560 40 8718561514253431187
12553582 1 18335974341731361290
12644460 14 14490766606970017322
12670546 177 18273214200843364662
12707595 3 17458065932685969833
12892183 10 7637401834824577247
13583140 156 14563378509297061042
13675066 3 10807937054967680632
13705890 14 18408886213544366904
14289901 80 15357690920623560808
14576447 43 18335983095228352430
15188451 53 14201695134719943221
15209294 21 10087635996484266531
15210252 30 16343706551323037932
16752209 62 17895201042794994331
1798214 20 18334860523630948950
1813 80 15502367902979873848
18186145 218 17060335231973062577
18915474 69 18334293158535621326
193927 3 17603856793446297167
19784866 9 10087649190845339804
19862831 5 18343584053222772203
200 152 18408882958054056568
20281475 54 18115020921952187202
20645477 70 18410288103833882422
20671657 53 18186801357445286257
20871999 31 18413671322698018931
21250096 35 18186523215114842010
21503847 285 10015592726568426624
21634736 98 18336265630771607438
21713013 43 18270127807944553591
221357 26 18271814514642445661
221490 88 18268705004889568027
22393880 68 18343308054224070175
22646028 28 17894347774279143559
231179 274 14979960263395048196
23379529 103 18043240254299850215
23402539 116 18411416254667454998
23402655 69 18202280342164975380
23403322 49 18113338604990439903
23559900 14 18187376410426572472
25 1 17346881190865912929
26918003 58 5545192831566448661
27216 239 10592045765406037727
2838139 119 15122360136771535382
3009799 131 17703794751913001794
3082319 5 18343304756037132001
3268164 11 15123219976043633123
339767 52 18187656816178050118
4028521 119 16845580833192352789
4280585 95 17615967051229427798
46194498 28 17774439357070283061
465052 167 17678174894051519239
4921388 177 17060049312280434667
5161694 15 18131637789748529807
5281201 14 17774999059859616621
602551 16 15791732984032394078
633830 44 17060616715523909269
93112 12 18343304747436589433
9709674 26 18198063582223925883
9882013 296 6122493610173257177

> <PUBCHEM_SHAPE_MULTIPOLES>
349.85
9.64
1.8
1.15
1.48
0.01
0.07
3.19
-4.17
-0.33
-0.06
0.48
-0.06
-0.34

> <PUBCHEM_SHAPE_SELFOVERLAP>
774.503

> <PUBCHEM_SHAPE_VOLUME>
173.4

> <PUBCHEM_COORDINATE_TYPE>
2
5
10

$$$$

