17395863
  -OEChem-06241222523D

 49 52  0     1  0  0  0  0  0999 V2000
    0.6209    1.6108    1.0565 O   0  0  0  0  0  0  0  0  0  0  0  0
    3.4566   -2.0334    0.8097 O   0  0  0  0  0  0  0  0  0  0  0  0
   -5.0952    2.1504    0.1619 O   0  0  0  0  0  0  0  0  0  0  0  0
    0.0099   -1.6754    0.0004 N   0  0  1  0  0  0  0  0  0  0  0  0
    1.7498   -0.4401    1.0275 N   0  0  0  0  0  0  0  0  0  0  0  0
    3.0538    1.4749    0.9494 C   0  0  2  0  0  0  0  0  0  0  0  0
    3.8405    0.3138    0.3318 C   0  0  1  0  0  0  0  0  0  0  0  0
   -1.3876   -2.1326    0.1346 C   0  0  2  0  0  0  0  0  0  0  0  0
    0.6216   -1.3162    1.2735 C   0  0  0  0  0  0  0  0  0  0  0  0
   -1.6000   -3.0930   -1.0502 C   0  0  0  0  0  0  0  0  0  0  0  0
    0.7336   -2.7541   -0.6729 C   0  0  0  0  0  0  0  0  0  0  0  0
   -0.2498   -3.1670   -1.7495 C   0  0  0  0  0  0  0  0  0  0  0  0
    1.6383    0.9375    0.9929 C   0  0  0  0  0  0  0  0  0  0  0  0
    3.0322   -0.8874    0.7751 C   0  0  0  0  0  0  0  0  0  0  0  0
    3.2154    2.8337    0.2760 C   0  0  0  0  0  0  0  0  0  0  0  0
    3.9030    0.3148   -1.2046 C   0  0  0  0  0  0  0  0  0  0  0  0
   -2.3781   -0.9873    0.1429 C   0  0  0  0  0  0  0  0  0  0  0  0
    3.4936    2.7804   -1.1905 C   0  0  0  0  0  0  0  0  0  0  0  0
    3.7996    1.6582   -1.8490 C   0  0  0  0  0  0  0  0  0  0  0  0
   -3.2453   -0.8220    1.2229 C   0  0  0  0  0  0  0  0  0  0  0  0
   -2.4240   -0.0981   -0.9309 C   0  0  0  0  0  0  0  0  0  0  0  0
   -4.1584    0.2322    1.2293 C   0  0  0  0  0  0  0  0  0  0  0  0
   -3.3372    0.9564   -0.9246 C   0  0  0  0  0  0  0  0  0  0  0  0
   -4.2045    1.1215    0.1555 C   0  0  0  0  0  0  0  0  0  0  0  0
   -5.0886    3.0220   -0.9678 C   0  0  0  0  0  0  0  0  0  0  0  0
    3.3418    1.5826    2.0060 H   0  0  0  0  0  0  0  0  0  0  0  0
    4.8471    0.2675    0.7620 H   0  0  0  0  0  0  0  0  0  0  0  0
   -1.4983   -2.7241    1.0551 H   0  0  0  0  0  0  0  0  0  0  0  0
    0.9519   -2.1955    1.8392 H   0  0  0  0  0  0  0  0  0  0  0  0
   -0.0861   -0.7597    1.8987 H   0  0  0  0  0  0  0  0  0  0  0  0
   -1.8643   -4.0874   -0.6686 H   0  0  0  0  0  0  0  0  0  0  0  0
   -2.3869   -2.7934   -1.7503 H   0  0  0  0  0  0  0  0  0  0  0  0
    0.9367   -3.5999   -0.0042 H   0  0  0  0  0  0  0  0  0  0  0  0
    1.6703   -2.4194   -1.1261 H   0  0  0  0  0  0  0  0  0  0  0  0
   -0.0434   -4.1656   -2.1456 H   0  0  0  0  0  0  0  0  0  0  0  0
   -0.2236   -2.4565   -2.5851 H   0  0  0  0  0  0  0  0  0  0  0  0
    4.0548    3.3624    0.7452 H   0  0  0  0  0  0  0  0  0  0  0  0
    2.3262    3.4522    0.4436 H   0  0  0  0  0  0  0  0  0  0  0  0
    3.1176   -0.3201   -1.6347 H   0  0  0  0  0  0  0  0  0  0  0  0
    4.8521   -0.1448   -1.5084 H   0  0  0  0  0  0  0  0  0  0  0  0
    3.4518    3.7169   -1.7397 H   0  0  0  0  0  0  0  0  0  0  0  0
    3.9821    1.7112   -2.9188 H   0  0  0  0  0  0  0  0  0  0  0  0
   -3.2208   -1.5065    2.0666 H   0  0  0  0  0  0  0  0  0  0  0  0
   -1.7554   -0.2106   -1.7804 H   0  0  0  0  0  0  0  0  0  0  0  0
   -4.8313    0.3560    2.0734 H   0  0  0  0  0  0  0  0  0  0  0  0
   -3.3190    1.6100   -1.7900 H   0  0  0  0  0  0  0  0  0  0  0  0
   -4.1342    3.5510   -1.0623 H   0  0  0  0  0  0  0  0  0  0  0  0
   -5.3624    2.4921   -1.8864 H   0  0  0  0  0  0  0  0  0  0  0  0
   -5.8588    3.7809   -0.7950 H   0  0  0  0  0  0  0  0  0  0  0  0
  1 13  2  0  0  0  0
  2 14  2  0  0  0  0
  3 24  1  0  0  0  0
  3 25  1  0  0  0  0
  4  8  1  0  0  0  0
  4  9  1  0  0  0  0
  4 11  1  0  0  0  0
  5  9  1  0  0  0  0
  5 13  1  0  0  0  0
  5 14  1  0  0  0  0
  6  7  1  0  0  0  0
  6 13  1  0  0  0  0
  6 15  1  0  0  0  0
  6 26  1  0  0  0  0
  7 14  1  0  0  0  0
  7 16  1  0  0  0  0
  7 27  1  0  0  0  0
  8 10  1  0  0  0  0
  8 17  1  0  0  0  0
  8 28  1  0  0  0  0
  9 29  1  0  0  0  0
  9 30  1  0  0  0  0
 10 12  1  0  0  0  0
 10 31  1  0  0  0  0
 10 32  1  0  0  0  0
 11 12  1  0  0  0  0
 11 33  1  0  0  0  0
 11 34  1  0  0  0  0
 12 35  1  0  0  0  0
 12 36  1  0  0  0  0
 15 18  1  0  0  0  0
 15 37  1  0  0  0  0
 15 38  1  0  0  0  0
 16 19  1  0  0  0  0
 16 39  1  0  0  0  0
 16 40  1  0  0  0  0
 17 20  2  0  0  0  0
 17 21  1  0  0  0  0
 18 19  2  0  0  0  0
 18 41  1  0  0  0  0
 19 42  1  0  0  0  0
 20 22  1  0  0  0  0
 20 43  1  0  0  0  0
 21 23  2  0  0  0  0
 21 44  1  0  0  0  0
 22 24  2  0  0  0  0
 22 45  1  0  0  0  0
 23 24  1  0  0  0  0
 23 46  1  0  0  0  0
 25 47  1  0  0  0  0
 25 48  1  0  0  0  0
 25 49  1  0  0  0  0
M  END
> <PUBCHEM_COMPOUND_CID>
17395863

> <PUBCHEM_CONFORMER_RMSD>
0.8

> <PUBCHEM_CONFORMER_DIVERSEORDER>
5
7
66
60
14
55
88
48
42
36
37
50
61
19
89
85
63
83
26
31
59
2
58
43
75
27
78
84
49
51
65
62
52
74
45
86
56
90
38
57
67
81
69
28
17
73
79
92
91
24
80
33
32
29
18
72
30
4
39
64
25
35
47
23
68
77
21
3
22
54
46
12
8
41
9
10
87
93
11
76
34
53
1
82
44
20
40
15
71
70
13
16
6

> <PUBCHEM_MMFF94_PARTIAL_CHARGES>
29
1 -0.57
11 0.27
13 0.57
14 0.57
15 0.14
16 0.14
17 -0.14
18 -0.29
19 -0.29
2 -0.57
20 -0.15
21 -0.15
22 -0.15
23 -0.15
24 0.08
25 0.28
3 -0.36
4 -0.81
41 0.15
42 0.15
43 0.15
44 0.15
45 0.15
46 0.15
5 -0.42
6 0.06
7 0.06
8 0.41
9 0.57

> <PUBCHEM_EFFECTIVE_ROTOR_COUNT>
5.6

> <PUBCHEM_PHARMACOPHORE_FEATURES>
8
1 1 acceptor
1 2 acceptor
1 3 acceptor
1 4 cation
5 4 8 10 11 12 rings
5 5 6 7 13 14 rings
6 17 20 21 22 23 24 rings
6 6 7 15 16 18 19 rings

> <PUBCHEM_HEAVY_ATOM_COUNT>
25

> <PUBCHEM_ATOM_DEF_STEREO_COUNT>
0

> <PUBCHEM_ATOM_UDEF_STEREO_COUNT>
3

> <PUBCHEM_BOND_DEF_STEREO_COUNT>
0

> <PUBCHEM_BOND_UDEF_STEREO_COUNT>
0

> <PUBCHEM_ISOTOPIC_ATOM_COUNT>
0

> <PUBCHEM_COMPONENT_COUNT>
1

> <PUBCHEM_CACTVS_TAUTO_COUNT>
3

> <PUBCHEM_CONFORMER_ID>
0109709700000005

> <PUBCHEM_MMFF94_ENERGY>
58.2277

> <PUBCHEM_FEATURE_SELFOVERLAP>
40.775

> <PUBCHEM_SHAPE_FINGERPRINT>
10498660 4 18125171428378831751
10763959 59 18197499738727234015
11720765 8 18115854361136841228
11796584 16 6915986911476158585
12173636 292 18191032200631734670
12403259 118 18343030999058812307
12422481 6 17986417580135081648
12633257 1 17631747083032883289
12788726 201 17977125469402739755
13544653 18 9727638297549145043
13583140 156 17703240627648447219
13944108 23 17906451378815119237
14251751 93 18267862783282738719
14840074 17 18265608781111413583
14950920 106 16845300427346403857
15163728 17 18263065747717062013
151778 21 18411978078685278103
15210252 30 17474652331757610997
15575132 122 18339923702448345231
16988056 13 17688596378211794685
17921350 177 18187921738535334300
20567600 9 18117268379654611077
20626108 58 6699807540545049506
21033650 10 18052525579247575004
21069387 34 5545209332340468718
21315759 227 7637391904982014833
21475661 188 18128259089617366829
21756936 100 17772462405336315720
21860390 5 17830180456292263903
21864079 5 17986395494880183476
22907989 373 17899143723951798631
238 59 17692861276420468229
26353 1 16307706066886783455
2637199 183 18411972542736216586
312425 83 17975391552782591948
3298306 158 18335139834334532621
338550 245 17830728021430991145
340366 18 18335420205610753958
3797600 57 10879991380883902810
392239 28 11671203152224199262
4394409 98 18119499177790441638
474 4 18189908698049567147
5048184 11 18339361859879398957
5081480 168 17319556265489535453
5161694 15 17386555861163286374
5252454 2 18336821970691576913
54672768 99 18338800138233928805
633830 44 17989491809591603850
7399639 24 16523857958379294112
7808743 9 18268142050799655724

> <PUBCHEM_SHAPE_MULTIPOLES>
486.92
9.79
3.95
1.57
4.62
0.5
-0.3
-9.03
-0.87
0.97
-1.64
-0.48
0.1
-0.38

> <PUBCHEM_SHAPE_SELFOVERLAP>
1050.505

> <PUBCHEM_SHAPE_VOLUME>
269.8

> <PUBCHEM_COORDINATE_TYPE>
2
5
10

$$$$

