442250
  -OEChem-07051212572D

 57 59  0     1  0  0  0  0  0999 V2000
    7.6155   -0.4658    0.0000 O   0  0  0  0  0  0  0  0  0  0  0  0
    6.1262    1.8666    0.0000 O   0  0  0  0  0  0  0  0  0  0  0  0
    4.0187   -0.7236    0.0000 O   0  0  0  0  0  0  0  0  0  0  0  0
    4.6960   -2.6497    0.0000 O   0  0  0  0  0  0  0  0  0  0  0  0
    6.5572   -3.6821    0.0000 O   0  0  0  0  0  0  0  0  0  0  0  0
    4.8715    3.1240    0.0000 O   0  0  0  0  0  0  0  0  0  0  0  0
    3.7320    2.8708    0.0000 O   0  0  0  0  0  0  0  0  0  0  0  0
    2.7316    0.4353    0.0000 O   0  0  0  0  0  0  0  0  0  0  0  0
    4.8770   -4.3722    0.0000 O   0  0  0  0  0  0  0  0  0  0  0  0
    2.0000    2.8737    0.0000 O   0  0  0  0  0  0  0  0  0  0  0  0
    6.6640   -0.7747    0.0000 C   0  0  1  0  0  0  0  0  0  0  0  0
    6.8719    0.2034    0.0000 C   0  0  1  0  0  0  0  0  0  0  0  0
    6.1288    0.8725    0.0000 C   0  0  2  0  0  0  0  0  0  0  0  0
    7.4071   -1.4439    0.0000 C   0  0  0  0  0  0  0  0  0  0  0  0
    6.4561   -1.7529    0.0000 C   0  0  0  0  0  0  0  0  0  0  0  0
    5.1777    0.5635    0.0000 C   0  0  0  0  0  0  0  0  0  0  0  0
    7.1992   -2.4220    0.0000 C   0  0  0  0  0  0  0  0  0  0  0  0
    4.9698   -0.4146    0.0000 C   0  0  2  0  0  0  0  0  0  0  0  0
    5.5050   -2.0619    0.0000 C   0  0  2  0  0  0  0  0  0  0  0  0
    5.7129   -1.0838    0.0000 C   0  0  0  0  0  0  0  0  0  0  0  0
    4.5955    1.3693    0.0000 C   0  0  0  0  0  0  0  0  0  0  0  0
    6.2482   -2.7310    0.0000 C   0  0  0  0  0  0  0  0  0  0  0  0
    5.1805    2.1730    0.0000 C   0  0  0  0  0  0  0  0  0  0  0  0
    4.5050   -2.0619    0.0000 C   0  0  0  0  0  0  0  0  0  0  0  0
    3.7303    1.8708    0.0000 C   0  0  0  0  0  0  0  0  0  0  0  0
    3.0406   -0.5157    0.0000 C   0  0  0  0  0  0  0  0  0  0  0  0
    4.2893   -3.5632    0.0000 C   0  0  0  0  0  0  0  0  0  0  0  0
    2.3714   -1.2589    0.0000 C   0  0  0  0  0  0  0  0  0  0  0  0
    3.2948   -3.6678    0.0000 C   0  0  0  0  0  0  0  0  0  0  0  0
    2.8669    3.3723    0.0000 C   0  0  0  0  0  0  0  0  0  0  0  0
    2.8686    4.3722    0.0000 C   0  0  0  0  0  0  0  0  0  0  0  0
    7.4406    0.8352    0.0000 H   0  0  0  0  0  0  0  0  0  0  0  0
    6.9048    1.2193    0.0000 H   0  0  0  0  0  0  0  0  0  0  0  0
    7.9820   -1.6761    0.0000 H   0  0  0  0  0  0  0  0  0  0  0  0
    7.7357   -0.9181    0.0000 H   0  0  0  0  0  0  0  0  0  0  0  0
    5.8496   -1.6240    0.0000 H   0  0  0  0  0  0  0  0  0  0  0  0
    6.3272   -2.3593    0.0000 H   0  0  0  0  0  0  0  0  0  0  0  0
    7.0625   -1.8818    0.0000 H   0  0  0  0  0  0  0  0  0  0  0  0
    7.2855   -3.0360    0.0000 H   0  0  0  0  0  0  0  0  0  0  0  0
    7.8188   -2.4437    0.0000 H   0  0  0  0  0  0  0  0  0  0  0  0
    4.5090    0.0002    0.0000 H   0  0  0  0  0  0  0  0  0  0  0  0
    6.2878   -1.3160    0.0000 H   0  0  0  0  0  0  0  0  0  0  0  0
    6.0415   -0.5580    0.0000 H   0  0  0  0  0  0  0  0  0  0  0  0
    4.5050   -1.4419    0.0000 H   0  0  0  0  0  0  0  0  0  0  0  0
    3.8850   -2.0619    0.0000 H   0  0  0  0  0  0  0  0  0  0  0  0
    4.5050   -2.6819    0.0000 H   0  0  0  0  0  0  0  0  0  0  0  0
    3.1199    1.9795    0.0000 H   0  0  0  0  0  0  0  0  0  0  0  0
    3.5173    1.2885    0.0000 H   0  0  0  0  0  0  0  0  0  0  0  0
    1.9107   -0.8440    0.0000 H   0  0  0  0  0  0  0  0  0  0  0  0
    1.9566   -1.7196    0.0000 H   0  0  0  0  0  0  0  0  0  0  0  0
    2.8322   -1.6737    0.0000 H   0  0  0  0  0  0  0  0  0  0  0  0
    3.2299   -3.0512    0.0000 H   0  0  0  0  0  0  0  0  0  0  0  0
    2.6782   -3.7326    0.0000 H   0  0  0  0  0  0  0  0  0  0  0  0
    3.3596   -4.2844    0.0000 H   0  0  0  0  0  0  0  0  0  0  0  0
    3.4886    4.3712    0.0000 H   0  0  0  0  0  0  0  0  0  0  0  0
    2.8697    4.9922    0.0000 H   0  0  0  0  0  0  0  0  0  0  0  0
    2.2486    4.3733    0.0000 H   0  0  0  0  0  0  0  0  0  0  0  0
  1 11  1  0  0  0  0
  1 12  1  0  0  0  0
  2 13  1  0  0  0  0
  2 23  1  0  0  0  0
 18  3  1  6  0  0  0
  3 26  1  0  0  0  0
 19  4  1  6  0  0  0
  4 27  1  0  0  0  0
  5 22  2  0  0  0  0
  6 23  2  0  0  0  0
  7 25  1  0  0  0  0
  7 30  1  0  0  0  0
  8 26  2  0  0  0  0
  9 27  2  0  0  0  0
 10 30  2  0  0  0  0
 11 12  1  0  0  0  0
 11 14  1  0  0  0  0
 11 15  1  1  0  0  0
 12 13  1  0  0  0  0
 12 32  1  6  0  0  0
 13 16  1  0  0  0  0
 13 33  1  1  0  0  0
 14 17  1  0  0  0  0
 14 34  1  0  0  0  0
 14 35  1  0  0  0  0
 15 36  1  0  0  0  0
 15 37  1  0  0  0  0
 15 38  1  0  0  0  0
 16 18  1  0  0  0  0
 16 21  2  0  0  0  0
 17 22  1  0  0  0  0
 17 39  1  0  0  0  0
 17 40  1  0  0  0  0
 18 20  1  0  0  0  0
 18 41  1  0  0  0  0
 19 20  1  0  0  0  0
 19 22  1  0  0  0  0
 19 24  1  0  0  0  0
 20 42  1  0  0  0  0
 20 43  1  0  0  0  0
 21 23  1  0  0  0  0
 21 25  1  0  0  0  0
 24 44  1  0  0  0  0
 24 45  1  0  0  0  0
 24 46  1  0  0  0  0
 25 47  1  0  0  0  0
 25 48  1  0  0  0  0
 26 28  1  0  0  0  0
 27 29  1  0  0  0  0
 28 49  1  0  0  0  0
 28 50  1  0  0  0  0
 28 51  1  0  0  0  0
 29 52  1  0  0  0  0
 29 53  1  0  0  0  0
 29 54  1  0  0  0  0
 30 31  1  0  0  0  0
 31 55  1  0  0  0  0
 31 56  1  0  0  0  0
 31 57  1  0  0  0  0
M  END
> <PUBCHEM_COMPOUND_CID>
442250

> <PUBCHEM_COMPOUND_CANONICALIZED>
1

> <PUBCHEM_CACTVS_COMPLEXITY>
873

> <PUBCHEM_CACTVS_HBOND_ACCEPTOR>
10

> <PUBCHEM_CACTVS_HBOND_DONOR>
0

> <PUBCHEM_CACTVS_ROTATABLE_BOND>
7

> <PUBCHEM_CACTVS_SUBSKEYS>
AAADceB4PAAAAAAAAAAAAAAAEgAAAQAAAAAAAAAAAAAAAADAAAAAGgAAAAAADFSggAICCAAABACIAoDQCAIAAAAgAAAACAFAAEgBBBYAIAQCEAAF4AAKIQPK7PzOAAAAAAAAAAAAAAAAAAAAAAAAAAAAAA==

> <PUBCHEM_IUPAC_INCHI>
InChI=1S/C21H26O10/c1-10(22)27-9-13-16-14(28-11(2)23)8-21(5,30-12(3)24)15(25)6-7-20(4)18(31-20)17(16)29-19(13)26/h14,17-18H,6-9H2,1-5H3/t14-,17-,18+,20+,21+/m0/s1

> <PUBCHEM_IUPAC_INCHIKEY>
JNLNEIIZZQABDP-ZBWGKUOUSA-N

> <PUBCHEM_XLOGP3_AA>
-0.5

> <PUBCHEM_EXACT_MASS>
438.152597

> <PUBCHEM_MOLECULAR_FORMULA>
C21H26O10

> <PUBCHEM_MOLECULAR_WEIGHT>
438.42514

> <PUBCHEM_OPENEYE_CAN_SMILES>
CC(=O)OCC1=C2C(CC(C(=O)CCC3(C(C2OC1=O)O3)C)(C)OC(=O)C)OC(=O)C

> <PUBCHEM_OPENEYE_ISO_SMILES>
CC(=O)OCC1=C2[C@H](C[C@@](C(=O)CC[C@@]3([C@@H]([C@H]2OC1=O)O3)C)(C)OC(=O)C)OC(=O)C

> <PUBCHEM_CACTVS_TPSA>
135

> <PUBCHEM_MONOISOTOPIC_WEIGHT>
438.152597

> <PUBCHEM_TOTAL_CHARGE>
0

> <PUBCHEM_HEAVY_ATOM_COUNT>
31

> <PUBCHEM_ATOM_DEF_STEREO_COUNT>
5

> <PUBCHEM_ATOM_UDEF_STEREO_COUNT>
0

> <PUBCHEM_BOND_DEF_STEREO_COUNT>
0

> <PUBCHEM_BOND_UDEF_STEREO_COUNT>
0

> <PUBCHEM_ISOTOPIC_ATOM_COUNT>
0

> <PUBCHEM_COMPONENT_COUNT>
1

> <PUBCHEM_CACTVS_TAUTO_COUNT>
2

> <PUBCHEM_COORDINATE_TYPE>
1
5
255

> <PUBCHEM_BONDANNOTATIONS>
11  15  5
12  32  6
13  33  5
18  3  6
19  4  6

$$$$

