46173770
  -OEChem-07051212532D

 58 65  0     1  0  0  0  0  0999 V2000
    7.7141    2.8707    0.0000 O   0  0  0  0  0  0  0  0  0  0  0  0
    9.9489   -1.1211    0.0000 O   0  0  0  0  0  0  0  0  0  0  0  0
    2.0000   -0.0099    0.0000 O   0  0  0  0  0  0  0  0  0  0  0  0
    6.8258   -0.4438    0.0000 N   0  0  0  0  0  0  0  0  0  0  0  0
    5.8258    1.2882    0.0000 N   0  0  0  0  0  0  0  0  0  0  0  0
   11.6396    0.2480    0.0000 N   0  0  0  0  0  0  0  0  0  0  0  0
    2.6370   -1.7076    0.0000 N   0  0  0  0  0  0  0  0  0  0  0  0
    8.1919    0.9222    0.0000 C   0  0  2  0  0  0  0  0  0  0  0  0
    8.4507    1.8881    0.0000 C   0  0  3  0  0  0  0  0  0  0  0  0
    9.8966   -0.1225    0.0000 C   0  0  1  0  0  0  0  0  0  0  0  0
   10.6737    0.5069    0.0000 C   0  0  1  0  0  0  0  0  0  0  0  0
   10.3153    1.4404    0.0000 C   0  0  0  0  0  0  0  0  0  0  0  0
    5.8258   -0.4438    0.0000 C   0  0  0  0  0  0  0  0  0  0  0  0
    5.3258    0.4222    0.0000 C   0  0  0  0  0  0  0  0  0  0  0  0
    5.3190   -1.3538    0.0000 C   0  0  0  0  0  0  0  0  0  0  0  0
    4.2843    0.4382    0.0000 C   0  0  0  0  0  0  0  0  0  0  0  0
    6.9718   -1.4269    0.0000 C   0  0  0  0  0  0  0  0  0  0  0  0
    7.9330   -0.0437    0.0000 C   0  0  0  0  0  0  0  0  0  0  0  0
    5.0475    1.9061    0.0000 C   0  0  0  0  0  0  0  0  0  0  0  0
    4.2774   -1.3619    0.0000 C   0  0  0  0  0  0  0  0  0  0  0  0
    6.1211   -1.9406    0.0000 C   0  0  0  0  0  0  0  0  0  0  0  0
    3.7566   -0.4598    0.0000 C   0  0  0  0  0  0  0  0  0  0  0  0
    4.1772    1.4263    0.0000 C   0  0  0  0  0  0  0  0  0  0  0  0
    3.5825   -2.1296    0.0000 C   0  0  0  0  0  0  0  0  0  0  0  0
    7.8859   -1.9127    0.0000 C   0  0  0  0  0  0  0  0  0  0  0  0
    2.7443   -0.6777    0.0000 C   0  0  0  0  0  0  0  0  0  0  0  0
    5.0838    2.9407    0.0000 C   0  0  0  0  0  0  0  0  0  0  0  0
    6.1255   -2.9758    0.0000 C   0  0  0  0  0  0  0  0  0  0  0  0
    3.2829    1.9477    0.0000 C   0  0  0  0  0  0  0  0  0  0  0  0
   12.3467    0.9551    0.0000 C   0  0  0  0  0  0  0  0  0  0  0  0
    7.9143   -2.9475    0.0000 C   0  0  0  0  0  0  0  0  0  0  0  0
    7.0281   -3.4826    0.0000 C   0  0  0  0  0  0  0  0  0  0  0  0
    4.2018    3.4826    0.0000 C   0  0  0  0  0  0  0  0  0  0  0  0
    3.2953    2.9828    0.0000 C   0  0  0  0  0  0  0  0  0  0  0  0
    8.7913    2.4062    0.0000 H   0  0  0  0  0  0  0  0  0  0  0  0
   10.4630   -0.3746    0.0000 H   0  0  0  0  0  0  0  0  0  0  0  0
   10.8026   -0.0996    0.0000 H   0  0  0  0  0  0  0  0  0  0  0  0
   10.9268    1.5428    0.0000 H   0  0  0  0  0  0  0  0  0  0  0  0
   10.3370    2.0601    0.0000 H   0  0  0  0  0  0  0  0  0  0  0  0
    7.3342    0.1167    0.0000 H   0  0  0  0  0  0  0  0  0  0  0  0
    7.7726   -0.6426    0.0000 H   0  0  0  0  0  0  0  0  0  0  0  0
    8.5319   -0.2042    0.0000 H   0  0  0  0  0  0  0  0  0  0  0  0
   11.8001   -0.3508    0.0000 H   0  0  0  0  0  0  0  0  0  0  0  0
    3.2718   -2.6661    0.0000 H   0  0  0  0  0  0  0  0  0  0  0  0
    4.0834   -2.4950    0.0000 H   0  0  0  0  0  0  0  0  0  0  0  0
   10.5013   -1.4026    0.0000 H   0  0  0  0  0  0  0  0  0  0  0  0
    8.4129   -1.5861    0.0000 H   0  0  0  0  0  0  0  0  0  0  0  0
    5.6302    3.2338    0.0000 H   0  0  0  0  0  0  0  0  0  0  0  0
    5.5911   -3.2902    0.0000 H   0  0  0  0  0  0  0  0  0  0  0  0
    2.1000   -2.0176    0.0000 H   0  0  0  0  0  0  0  0  0  0  0  0
    2.7435    1.6421    0.0000 H   0  0  0  0  0  0  0  0  0  0  0  0
   12.7851    0.5167    0.0000 H   0  0  0  0  0  0  0  0  0  0  0  0
   12.7851    1.3936    0.0000 H   0  0  0  0  0  0  0  0  0  0  0  0
   11.9083    1.3936    0.0000 H   0  0  0  0  0  0  0  0  0  0  0  0
    8.4584   -3.2448    0.0000 H   0  0  0  0  0  0  0  0  0  0  0  0
    7.0380   -4.1026    0.0000 H   0  0  0  0  0  0  0  0  0  0  0  0
    4.2164    4.1025    0.0000 H   0  0  0  0  0  0  0  0  0  0  0  0
    2.7634    3.3013    0.0000 H   0  0  0  0  0  0  0  0  0  0  0  0
  1  8  1  0  0  0  0
  1  9  1  0  0  0  0
 10  2  1  1  0  0  0
  2 46  1  0  0  0  0
  3 26  2  0  0  0  0
  4  8  1  0  0  0  0
  4 13  1  0  0  0  0
  4 17  1  0  0  0  0
  5  9  1  0  0  0  0
  5 14  1  0  0  0  0
  5 19  1  0  0  0  0
 11  6  1  1  0  0  0
  6 30  1  0  0  0  0
  6 43  1  0  0  0  0
  7 24  1  0  0  0  0
  7 26  1  0  0  0  0
  7 50  1  0  0  0  0
  8 10  1  0  0  0  0
  8 18  1  6  0  0  0
  9 12  1  0  0  0  0
  9 35  1  0  0  0  0
 10 11  1  0  0  0  0
 10 36  1  0  0  0  0
 11 12  1  0  0  0  0
 11 37  1  0  0  0  0
 12 38  1  0  0  0  0
 12 39  1  0  0  0  0
 13 14  2  0  0  0  0
 13 15  1  0  0  0  0
 14 16  1  0  0  0  0
 15 20  2  0  0  0  0
 15 21  1  0  0  0  0
 16 22  2  0  0  0  0
 16 23  1  0  0  0  0
 17 21  1  0  0  0  0
 17 25  2  0  0  0  0
 18 40  1  0  0  0  0
 18 41  1  0  0  0  0
 18 42  1  0  0  0  0
 19 23  1  0  0  0  0
 19 27  2  0  0  0  0
 20 22  1  0  0  0  0
 20 24  1  0  0  0  0
 21 28  2  0  0  0  0
 22 26  1  0  0  0  0
 23 29  2  0  0  0  0
 24 44  1  0  0  0  0
 24 45  1  0  0  0  0
 25 31  1  0  0  0  0
 25 47  1  0  0  0  0
 27 33  1  0  0  0  0
 27 48  1  0  0  0  0
 28 32  1  0  0  0  0
 28 49  1  0  0  0  0
 29 34  1  0  0  0  0
 29 51  1  0  0  0  0
 30 52  1  0  0  0  0
 30 53  1  0  0  0  0
 30 54  1  0  0  0  0
 31 32  2  0  0  0  0
 31 55  1  0  0  0  0
 32 56  1  0  0  0  0
 33 34  2  0  0  0  0
 33 57  1  0  0  0  0
 34 58  1  0  0  0  0
M  END
> <PUBCHEM_COMPOUND_CID>
46173770

> <PUBCHEM_COMPOUND_CANONICALIZED>
1

> <PUBCHEM_CACTVS_COMPLEXITY>
886

> <PUBCHEM_CACTVS_HBOND_ACCEPTOR>
4

> <PUBCHEM_CACTVS_HBOND_DONOR>
3

> <PUBCHEM_CACTVS_ROTATABLE_BOND>
1

> <PUBCHEM_CACTVS_SUBSKEYS>
AAADceB7sAAAAAAAAAAAAAAAAAAAAWLFgAA0YMEABYAAAFix/gAAHgAQCAAADDzhngYywPPMFgCoAyVyVACCgCQlEiAI2KE4dNgLcPLA1ZGeYQhmlgDbyQf82cOeyAACQAASACCQAASAACQAQAAAAAAAAA==

> <PUBCHEM_IUPAC_INCHI>
InChI=1S/C27H24N4O3/c1-27-25(32)16(28-2)11-19(34-27)30-17-9-5-3-7-13(17)21-22-15(12-29-26(22)33)20-14-8-4-6-10-18(14)31(27)24(20)23(21)30/h3-10,16,19,25,28,32H,11-12H2,1-2H3,(H,29,33)/t16-,19?,25-,27+/m1/s1

> <PUBCHEM_IUPAC_INCHIKEY>
YFYYWLWHOINTHH-GTDVCXGISA-N

> <PUBCHEM_XLOGP3_AA>
2.7

> <PUBCHEM_EXACT_MASS>
452.184841

> <PUBCHEM_MOLECULAR_FORMULA>
C27H24N4O3

> <PUBCHEM_MOLECULAR_WEIGHT>
452.50446

> <PUBCHEM_OPENEYE_CAN_SMILES>
CC12C(C(CC(O1)N3C4=CC=CC=C4C5=C6C(=C7C8=CC=CC=C8N2C7=C53)CNC6=O)NC)O

> <PUBCHEM_OPENEYE_ISO_SMILES>
C[C@@]12[C@@H]([C@@H](CC(O1)N3C4=CC=CC=C4C5=C6C(=C7C8=CC=CC=C8N2C7=C53)CNC6=O)NC)O

> <PUBCHEM_CACTVS_TPSA>
80.4

> <PUBCHEM_MONOISOTOPIC_WEIGHT>
452.184841

> <PUBCHEM_TOTAL_CHARGE>
0

> <PUBCHEM_HEAVY_ATOM_COUNT>
34

> <PUBCHEM_ATOM_DEF_STEREO_COUNT>
3

> <PUBCHEM_ATOM_UDEF_STEREO_COUNT>
1

> <PUBCHEM_BOND_DEF_STEREO_COUNT>
0

> <PUBCHEM_BOND_UDEF_STEREO_COUNT>
0

> <PUBCHEM_ISOTOPIC_ATOM_COUNT>
0

> <PUBCHEM_COMPONENT_COUNT>
1

> <PUBCHEM_CACTVS_TAUTO_COUNT>
2

> <PUBCHEM_COORDINATE_TYPE>
1
5
255

> <PUBCHEM_BONDANNOTATIONS>
13  14  8
13  15  8
14  16  8
15  20  8
15  21  8
16  22  8
16  23  8
17  21  8
17  25  8
19  23  8
19  27  8
10  2  5
20  22  8
21  28  8
23  29  8
25  31  8
27  33  8
28  32  8
29  34  8
31  32  8
33  34  8
4  13  8
4  17  8
5  14  8
5  19  8
11  6  5
8  18  6
9  12  3

$$$$

