123630
  -OEChem-07051212542D

 32 34  0     1  0  0  0  0  0999 V2000
    4.6650    1.4754    0.0000 S   0  0  0  0  0  0  0  0  0  0  0  0
    4.3560    2.4265    0.0000 O   0  0  0  0  0  0  0  0  0  0  0  0
    5.4740    2.0632    0.0000 O   0  0  0  0  0  0  0  0  0  0  0  0
    2.0000   -0.5463    0.0000 O   0  0  0  0  0  0  0  0  0  0  0  0
    4.3049   -1.8368    0.0000 O   0  0  0  0  0  0  0  0  0  0  0  0
    5.9521   -1.3016    0.0000 O   0  0  0  0  0  0  0  0  0  0  0  0
    3.7139    0.1664    0.0000 N   0  0  0  0  0  0  0  0  0  0  0  0
    6.9753    0.4854    0.0000 N   0  0  0  0  0  0  0  0  0  0  0  0
    7.8414   -0.0146    0.0000 N   0  0  0  0  0  0  0  0  0  0  0  0
    8.5845    0.6545    0.0000 N   0  0  0  0  0  0  0  0  0  0  0  0
    5.2528    0.6664    0.0000 C   0  0  2  0  0  0  0  0  0  0  0  0
    3.7139    1.1664    0.0000 C   0  0  1  0  0  0  0  0  0  0  0  0
    4.6650   -0.1426    0.0000 C   0  0  2  0  0  0  0  0  0  0  0  0
    2.7056    1.1705    0.0000 C   0  0  0  0  0  0  0  0  0  0  0  0
    2.7056    0.1623    0.0000 C   0  0  0  0  0  0  0  0  0  0  0  0
    6.0618    0.0786    0.0000 C   0  0  0  0  0  0  0  0  0  0  0  0
    6.0618    1.2542    0.0000 C   0  0  0  0  0  0  0  0  0  0  0  0
    4.9740   -1.0937    0.0000 C   0  0  0  0  0  0  0  0  0  0  0  0
    7.1832    1.4635    0.0000 C   0  0  0  0  0  0  0  0  0  0  0  0
    8.1778    1.5680    0.0000 C   0  0  0  0  0  0  0  0  0  0  0  0
    3.5827    2.0062    0.0000 H   0  0  0  0  0  0  0  0  0  0  0  0
    4.2266   -0.5810    0.0000 H   0  0  0  0  0  0  0  0  0  0  0  0
    2.7074    1.7905    0.0000 H   0  0  0  0  0  0  0  0  0  0  0  0
    2.0856    1.1714    0.0000 H   0  0  0  0  0  0  0  0  0  0  0  0
    5.6158   -0.3521    0.0000 H   0  0  0  0  0  0  0  0  0  0  0  0
    6.4085   -0.4354    0.0000 H   0  0  0  0  0  0  0  0  0  0  0  0
    6.4262    0.7526    0.0000 H   0  0  0  0  0  0  0  0  0  0  0  0
    6.5634    1.6186    0.0000 H   0  0  0  0  0  0  0  0  0  0  0  0
    5.6974    1.7558    0.0000 H   0  0  0  0  0  0  0  0  0  0  0  0
    4.4965   -2.4265    0.0000 H   0  0  0  0  0  0  0  0  0  0  0  0
    6.7684    1.9242    0.0000 H   0  0  0  0  0  0  0  0  0  0  0  0
    8.4878    2.1050    0.0000 H   0  0  0  0  0  0  0  0  0  0  0  0
  1  2  2  0  0  0  0
  1  3  2  0  0  0  0
  1 11  1  0  0  0  0
  1 12  1  0  0  0  0
  4 15  2  0  0  0  0
  5 18  1  0  0  0  0
  5 30  1  0  0  0  0
  6 18  2  0  0  0  0
  7 12  1  0  0  0  0
  7 13  1  0  0  0  0
  7 15  1  0  0  0  0
  8  9  1  0  0  0  0
  8 16  1  0  0  0  0
  8 19  1  0  0  0  0
  9 10  2  0  0  0  0
 10 20  1  0  0  0  0
 11 13  1  0  0  0  0
 11 16  1  0  0  0  0
 11 17  1  6  0  0  0
 12 14  1  0  0  0  0
 12 21  1  6  0  0  0
 13 18  1  6  0  0  0
 13 22  1  0  0  0  0
 14 15  1  0  0  0  0
 14 23  1  0  0  0  0
 14 24  1  0  0  0  0
 16 25  1  0  0  0  0
 16 26  1  0  0  0  0
 17 27  1  0  0  0  0
 17 28  1  0  0  0  0
 17 29  1  0  0  0  0
 19 20  2  0  0  0  0
 19 31  1  0  0  0  0
 20 32  1  0  0  0  0
M  END
> <PUBCHEM_COMPOUND_CID>
123630

> <PUBCHEM_COMPOUND_CANONICALIZED>
1

> <PUBCHEM_CACTVS_COMPLEXITY>
573

> <PUBCHEM_CACTVS_HBOND_ACCEPTOR>
7

> <PUBCHEM_CACTVS_HBOND_DONOR>
1

> <PUBCHEM_CACTVS_ROTATABLE_BOND>
3

> <PUBCHEM_CACTVS_SUBSKEYS>
AAADccBzuABAAAAAAAAAAAAAAABYAWLAAAAAAAAABYAAAAABgAAAHgQICAAADCjFwgSuiBMIAgqqABG3XHBIBARRkhAYQAGYMAACQBggwCAUQAAEBgCwAAAkAAAIAAAAAAAAAAAAAAAAAAAAAAAAAAAAAA==

> <PUBCHEM_IUPAC_OPENEYE_NAME>
(2S,3S,5R)-3-methyl-4,4,7-trioxo-3-(triazol-1-ylmethyl)-4$l^{6}-thia-1-azabicyclo[3.2.0]heptane-2-carboxylic acid

> <PUBCHEM_IUPAC_CAS_NAME>
(2S,3S,5R)-3-methyl-4,4,7-trioxo-3-(1-triazolylmethyl)-4$l^{6}-thia-1-azabicyclo[3.2.0]heptane-2-carboxylic acid

> <PUBCHEM_IUPAC_NAME>
(2S,3S,5R)-3-methyl-4,4,7-trioxo-3-(triazol-1-ylmethyl)-4$l^{6}-thia-1-azabicyclo[3.2.0]heptane-2-carboxylic acid

> <PUBCHEM_IUPAC_SYSTEMATIC_NAME>
(2S,3S,5R)-3-methyl-4,4,7-tris(oxidanylidene)-3-(1,2,3-triazol-1-ylmethyl)-4$l^{6}-thia-1-azabicyclo[3.2.0]heptane-2-carboxylic acid

> <PUBCHEM_IUPAC_TRADITIONAL_NAME>
(2S,3S,5R)-4,4,7-triketo-3-methyl-3-(triazol-1-ylmethyl)-4$l^{6}-thia-1-azabicyclo[3.2.0]heptane-2-carboxylic acid

> <PUBCHEM_IUPAC_INCHI>
InChI=1S/C10H12N4O5S/c1-10(5-13-3-2-11-12-13)8(9(16)17)14-6(15)4-7(14)20(10,18)19/h2-3,7-8H,4-5H2,1H3,(H,16,17)/t7-,8+,10+/m1/s1

> <PUBCHEM_IUPAC_INCHIKEY>
LPQZKKCYTLCDGQ-WEDXCCLWSA-N

> <PUBCHEM_XLOGP3_AA>
-2

> <PUBCHEM_EXACT_MASS>
300.052841

> <PUBCHEM_MOLECULAR_FORMULA>
C10H12N4O5S

> <PUBCHEM_MOLECULAR_WEIGHT>
300.29108

> <PUBCHEM_OPENEYE_CAN_SMILES>
CC1(C(N2C(S1(=O)=O)CC2=O)C(=O)O)CN3C=CN=N3

> <PUBCHEM_OPENEYE_ISO_SMILES>
C[C@@]1([C@@H](N2[C@H](S1(=O)=O)CC2=O)C(=O)O)CN3C=CN=N3

> <PUBCHEM_CACTVS_TPSA>
131

> <PUBCHEM_MONOISOTOPIC_WEIGHT>
300.052841

> <PUBCHEM_TOTAL_CHARGE>
0

> <PUBCHEM_HEAVY_ATOM_COUNT>
20

> <PUBCHEM_ATOM_DEF_STEREO_COUNT>
3

> <PUBCHEM_ATOM_UDEF_STEREO_COUNT>
0

> <PUBCHEM_BOND_DEF_STEREO_COUNT>
0

> <PUBCHEM_BOND_UDEF_STEREO_COUNT>
0

> <PUBCHEM_ISOTOPIC_ATOM_COUNT>
0

> <PUBCHEM_COMPONENT_COUNT>
1

> <PUBCHEM_CACTVS_TAUTO_COUNT>
2

> <PUBCHEM_COORDINATE_TYPE>
1
5
255

> <PUBCHEM_BONDANNOTATIONS>
10  20  8
11  17  6
12  21  6
13  18  6
19  20  8
8  19  8
8  9  8
9  10  8

$$$$

