1549095
  -OEChem-07051212442D

 25 25  0     0  0  0  0  0  0999 V2000
    2.8660   -2.1550    0.0000 O   0  0  0  0  0  0  0  0  0  0  0  0
    4.5981   -3.1550    0.0000 O   0  0  0  0  0  0  0  0  0  0  0  0
    6.3301    2.8450    0.0000 O   0  0  0  0  0  0  0  0  0  0  0  0
    4.5981   -0.1550    0.0000 C   0  0  0  0  0  0  0  0  0  0  0  0
    3.7320   -0.6550    0.0000 C   0  0  0  0  0  0  0  0  0  0  0  0
    3.7320   -1.6550    0.0000 C   0  0  0  0  0  0  0  0  0  0  0  0
    5.4641   -0.6550    0.0000 C   0  0  0  0  0  0  0  0  0  0  0  0
    4.5981   -2.1550    0.0000 C   0  0  0  0  0  0  0  0  0  0  0  0
    5.4641   -1.6550    0.0000 C   0  0  0  0  0  0  0  0  0  0  0  0
    4.5981    0.8450    0.0000 C   0  0  0  0  0  0  0  0  0  0  0  0
    5.4641    1.3450    0.0000 C   0  0  0  0  0  0  0  0  0  0  0  0
    5.4641    2.3450    0.0000 C   0  0  0  0  0  0  0  0  0  0  0  0
    2.0000   -1.6550    0.0000 C   0  0  0  0  0  0  0  0  0  0  0  0
    3.1951   -0.3450    0.0000 H   0  0  0  0  0  0  0  0  0  0  0  0
    6.0010   -0.3450    0.0000 H   0  0  0  0  0  0  0  0  0  0  0  0
    6.0010   -1.9650    0.0000 H   0  0  0  0  0  0  0  0  0  0  0  0
    4.0611    1.1550    0.0000 H   0  0  0  0  0  0  0  0  0  0  0  0
    6.0010    1.0350    0.0000 H   0  0  0  0  0  0  0  0  0  0  0  0
    5.2520    2.9276    0.0000 H   0  0  0  0  0  0  0  0  0  0  0  0
    4.8535    2.2373    0.0000 H   0  0  0  0  0  0  0  0  0  0  0  0
    2.3100   -1.1181    0.0000 H   0  0  0  0  0  0  0  0  0  0  0  0
    1.4631   -1.3450    0.0000 H   0  0  0  0  0  0  0  0  0  0  0  0
    1.6900   -2.1919    0.0000 H   0  0  0  0  0  0  0  0  0  0  0  0
    5.1350   -3.4650    0.0000 H   0  0  0  0  0  0  0  0  0  0  0  0
    6.3301    3.4650    0.0000 H   0  0  0  0  0  0  0  0  0  0  0  0
  1  6  1  0  0  0  0
  1 13  1  0  0  0  0
  2  8  1  0  0  0  0
  2 24  1  0  0  0  0
  3 12  1  0  0  0  0
  3 25  1  0  0  0  0
  4  5  2  0  0  0  0
  4  7  1  0  0  0  0
  4 10  1  0  0  0  0
  5  6  1  0  0  0  0
  5 14  1  0  0  0  0
  6  8  2  0  0  0  0
  7  9  2  0  0  0  0
  7 15  1  0  0  0  0
  8  9  1  0  0  0  0
  9 16  1  0  0  0  0
 10 11  2  0  0  0  0
 10 17  1  0  0  0  0
 11 12  1  0  0  0  0
 11 18  1  0  0  0  0
 12 19  1  0  0  0  0
 12 20  1  0  0  0  0
 13 21  1  0  0  0  0
 13 22  1  0  0  0  0
 13 23  1  0  0  0  0
M  END
> <PUBCHEM_COMPOUND_CID>
1549095

> <PUBCHEM_COMPOUND_CANONICALIZED>
1

> <PUBCHEM_CACTVS_COMPLEXITY>
168

> <PUBCHEM_CACTVS_HBOND_ACCEPTOR>
3

> <PUBCHEM_CACTVS_HBOND_DONOR>
2

> <PUBCHEM_CACTVS_ROTATABLE_BOND>
3

> <PUBCHEM_CACTVS_SUBSKEYS>
AAADccBwMAAAAAAAAAAAAAAAAAAAAAAAAAAwAAAAAAAAAAABAAAAGgAACAAADASgmAIyBoAABgCAAiBCAAACCAAgIAAIiAAGiIgNNiKGMRqAcCMkwBELuAeAwBAOIAABAAAAQABAAAIAAACAAAAAAAAAAA==

> <PUBCHEM_IUPAC_OPENEYE_NAME>
4-[(E)-3-hydroxyprop-1-enyl]-2-methoxy-phenol

> <PUBCHEM_IUPAC_CAS_NAME>
4-[(E)-3-hydroxyprop-1-enyl]-2-methoxyphenol

> <PUBCHEM_IUPAC_NAME>
4-[(E)-3-hydroxyprop-1-enyl]-2-methoxyphenol

> <PUBCHEM_IUPAC_SYSTEMATIC_NAME>
2-methoxy-4-[(E)-3-oxidanylprop-1-enyl]phenol

> <PUBCHEM_IUPAC_TRADITIONAL_NAME>
4-[(E)-3-hydroxyprop-1-enyl]-2-methoxy-phenol

> <PUBCHEM_IUPAC_INCHI>
InChI=1S/C10H12O3/c1-13-10-7-8(3-2-6-11)4-5-9(10)12/h2-5,7,11-12H,6H2,1H3/b3-2+

> <PUBCHEM_IUPAC_INCHIKEY>
JMFRWRFFLBVWSI-NSCUHMNNSA-N

> <PUBCHEM_XLOGP3>
1.4

> <PUBCHEM_EXACT_MASS>
180.078644

> <PUBCHEM_MOLECULAR_FORMULA>
C10H12O3

> <PUBCHEM_MOLECULAR_WEIGHT>
180.20048

> <PUBCHEM_OPENEYE_CAN_SMILES>
COC1=C(C=CC(=C1)C=CCO)O

> <PUBCHEM_OPENEYE_ISO_SMILES>
COC1=C(C=CC(=C1)/C=C/CO)O

> <PUBCHEM_CACTVS_TPSA>
49.7

> <PUBCHEM_MONOISOTOPIC_WEIGHT>
180.078644

> <PUBCHEM_TOTAL_CHARGE>
0

> <PUBCHEM_HEAVY_ATOM_COUNT>
13

> <PUBCHEM_ATOM_DEF_STEREO_COUNT>
0

> <PUBCHEM_ATOM_UDEF_STEREO_COUNT>
0

> <PUBCHEM_BOND_DEF_STEREO_COUNT>
1

> <PUBCHEM_BOND_UDEF_STEREO_COUNT>
0

> <PUBCHEM_ISOTOPIC_ATOM_COUNT>
0

> <PUBCHEM_COMPONENT_COUNT>
1

> <PUBCHEM_CACTVS_TAUTO_COUNT>
4

> <PUBCHEM_COORDINATE_TYPE>
1
5
255

> <PUBCHEM_BONDANNOTATIONS>
4  5  8
4  7  8
5  6  8
6  8  8
7  9  8
8  9  8

$$$$

