240051
  -OEChem-07051213063D

 52 54  0     1  0  0  0  0  0999 V2000
    2.6186   -2.6085    1.5052 O   0  0  0  0  0  0  0  0  0  0  0  0
   -3.3151    1.1765    1.5467 O   0  0  0  0  0  0  0  0  0  0  0  0
    2.3167    0.3789   -0.8830 C   0  0  1  0  0  0  0  0  0  0  0  0
    1.2417    1.4067   -0.3682 C   0  0  2  0  0  0  0  0  0  0  0  0
    2.8853   -0.6257    0.1996 C   0  0  1  0  0  0  0  0  0  0  0  0
    1.7623    2.0545    0.9456 C   0  0  0  0  0  0  0  0  0  0  0  0
    3.2903    0.1562    1.4738 C   0  0  0  0  0  0  0  0  0  0  0  0
    1.8477   -0.2715   -2.1976 C   0  0  0  0  0  0  0  0  0  0  0  0
    2.1766    1.0461    2.0054 C   0  0  0  0  0  0  0  0  0  0  0  0
   -0.1474    0.7625   -0.2799 C   0  0  0  0  0  0  0  0  0  0  0  0
    0.4514   -0.8827   -2.1544 C   0  0  0  0  0  0  0  0  0  0  0  0
    1.0897    2.5777   -1.3825 C   0  0  0  0  0  0  0  0  0  0  0  0
    1.9300   -1.7632    0.6094 C   0  0  0  0  0  0  0  0  0  0  0  0
    4.1717   -1.3008   -0.3400 C   0  0  0  0  0  0  0  0  0  0  0  0
   -0.5057   -0.2837   -1.1570 C   0  0  0  0  0  0  0  0  0  0  0  0
   -1.1266    1.2390    0.6134 C   0  0  0  0  0  0  0  0  0  0  0  0
   -1.8002   -0.8340   -1.1003 C   0  0  0  0  0  0  0  0  0  0  0  0
   -2.7437   -0.3566   -0.1963 C   0  0  0  0  0  0  0  0  0  0  0  0
   -2.4064    0.6819    0.6596 C   0  0  0  0  0  0  0  0  0  0  0  0
   -4.1051   -0.9664   -0.1652 C   0  0  0  0  0  0  0  0  0  0  0  0
   -5.2108    0.0447   -0.5217 C   0  0  0  0  0  0  0  0  0  0  0  0
   -4.4209   -1.6314    1.1877 C   0  0  0  0  0  0  0  0  0  0  0  0
    3.1893    0.9906   -1.1653 H   0  0  0  0  0  0  0  0  0  0  0  0
    1.0416    2.7587    1.3739 H   0  0  0  0  0  0  0  0  0  0  0  0
    2.6442    2.6684    0.7101 H   0  0  0  0  0  0  0  0  0  0  0  0
    4.1586    0.7905    1.2459 H   0  0  0  0  0  0  0  0  0  0  0  0
    3.6231   -0.5162    2.2735 H   0  0  0  0  0  0  0  0  0  0  0  0
    2.5622   -1.0207   -2.5546 H   0  0  0  0  0  0  0  0  0  0  0  0
    1.8550    0.4970   -2.9820 H   0  0  0  0  0  0  0  0  0  0  0  0
    2.5429    1.5851    2.8873 H   0  0  0  0  0  0  0  0  0  0  0  0
    1.3192    0.4536    2.3393 H   0  0  0  0  0  0  0  0  0  0  0  0
    0.5316   -1.9580   -1.9605 H   0  0  0  0  0  0  0  0  0  0  0  0
    0.0106   -0.7937   -3.1564 H   0  0  0  0  0  0  0  0  0  0  0  0
    2.0588    3.0408   -1.6013 H   0  0  0  0  0  0  0  0  0  0  0  0
    0.6506    2.2594   -2.3342 H   0  0  0  0  0  0  0  0  0  0  0  0
    0.4342    3.3622   -0.9836 H   0  0  0  0  0  0  0  0  0  0  0  0
    1.6532   -2.3817   -0.2447 H   0  0  0  0  0  0  0  0  0  0  0  0
    1.0223   -1.4050    1.0987 H   0  0  0  0  0  0  0  0  0  0  0  0
    4.8615   -0.5566   -0.7546 H   0  0  0  0  0  0  0  0  0  0  0  0
    4.7208   -1.8329    0.4455 H   0  0  0  0  0  0  0  0  0  0  0  0
    3.9505   -2.0248   -1.1310 H   0  0  0  0  0  0  0  0  0  0  0  0
   -0.9073    2.0663    1.2813 H   0  0  0  0  0  0  0  0  0  0  0  0
   -2.0574   -1.6475   -1.7764 H   0  0  0  0  0  0  0  0  0  0  0  0
    2.0097   -3.3249    1.7531 H   0  0  0  0  0  0  0  0  0  0  0  0
   -4.1552   -1.7615   -0.9217 H   0  0  0  0  0  0  0  0  0  0  0  0
   -2.9045    1.8939    2.0588 H   0  0  0  0  0  0  0  0  0  0  0  0
   -5.3526    0.8132    0.2434 H   0  0  0  0  0  0  0  0  0  0  0  0
   -6.1694   -0.4731   -0.6393 H   0  0  0  0  0  0  0  0  0  0  0  0
   -4.9873    0.5489   -1.4686 H   0  0  0  0  0  0  0  0  0  0  0  0
   -3.6323   -2.3390    1.4673 H   0  0  0  0  0  0  0  0  0  0  0  0
   -5.3612   -2.1904    1.1218 H   0  0  0  0  0  0  0  0  0  0  0  0
   -4.5306   -0.9112    2.0035 H   0  0  0  0  0  0  0  0  0  0  0  0
  1 13  1  0  0  0  0
  1 44  1  0  0  0  0
  2 19  1  0  0  0  0
  2 46  1  0  0  0  0
  3  4  1  0  0  0  0
  3  5  1  0  0  0  0
  3  8  1  0  0  0  0
  3 23  1  0  0  0  0
  4  6  1  0  0  0  0
  4 10  1  0  0  0  0
  4 12  1  0  0  0  0
  5  7  1  0  0  0  0
  5 13  1  0  0  0  0
  5 14  1  0  0  0  0
  6  9  1  0  0  0  0
  6 24  1  0  0  0  0
  6 25  1  0  0  0  0
  7  9  1  0  0  0  0
  7 26  1  0  0  0  0
  7 27  1  0  0  0  0
  8 11  1  0  0  0  0
  8 28  1  0  0  0  0
  8 29  1  0  0  0  0
  9 30  1  0  0  0  0
  9 31  1  0  0  0  0
 10 15  1  0  0  0  0
 10 16  2  0  0  0  0
 11 15  1  0  0  0  0
 11 32  1  0  0  0  0
 11 33  1  0  0  0  0
 12 34  1  0  0  0  0
 12 35  1  0  0  0  0
 12 36  1  0  0  0  0
 13 37  1  0  0  0  0
 13 38  1  0  0  0  0
 14 39  1  0  0  0  0
 14 40  1  0  0  0  0
 14 41  1  0  0  0  0
 15 17  2  0  0  0  0
 16 19  1  0  0  0  0
 16 42  1  0  0  0  0
 17 18  1  0  0  0  0
 17 43  1  0  0  0  0
 18 19  2  0  0  0  0
 18 20  1  0  0  0  0
 20 21  1  0  0  0  0
 20 22  1  0  0  0  0
 20 45  1  0  0  0  0
 21 47  1  0  0  0  0
 21 48  1  0  0  0  0
 21 49  1  0  0  0  0
 22 50  1  0  0  0  0
 22 51  1  0  0  0  0
 22 52  1  0  0  0  0
M  END
> <PUBCHEM_COMPOUND_CID>
240051

> <PUBCHEM_CONFORMER_RMSD>
0.6

> <PUBCHEM_CONFORMER_DIVERSEORDER>
3
36
50
18
17
49
34
10
31
40
7
27
32
44
38
16
8
42
33
14
2
47
19
13
25
35
28
1
6
23
45
4
48
22
43
9
24
37
26
41
20
12
29
30
11
46
39
21
5
15

> <PUBCHEM_MMFF94_PARTIAL_CHARGES>
16
1 -0.68
10 -0.14
11 0.14
13 0.28
15 -0.14
16 -0.15
17 -0.15
18 -0.14
19 0.08
2 -0.53
20 0.14
4 0.14
42 0.15
43 0.15
44 0.4
46 0.45

> <PUBCHEM_EFFECTIVE_ROTOR_COUNT>
3.2

> <PUBCHEM_PHARMACOPHORE_FEATURES>
7
1 1 acceptor
1 1 donor
1 2 donor
3 20 21 22 hydrophobe
6 10 15 16 17 18 19 rings
6 3 4 5 6 7 9 rings
6 3 4 8 10 11 15 rings

> <PUBCHEM_HEAVY_ATOM_COUNT>
22

> <PUBCHEM_ATOM_DEF_STEREO_COUNT>
0

> <PUBCHEM_ATOM_UDEF_STEREO_COUNT>
3

> <PUBCHEM_BOND_DEF_STEREO_COUNT>
0

> <PUBCHEM_BOND_UDEF_STEREO_COUNT>
0

> <PUBCHEM_ISOTOPIC_ATOM_COUNT>
0

> <PUBCHEM_COMPONENT_COUNT>
1

> <PUBCHEM_CACTVS_TAUTO_COUNT>
3

> <PUBCHEM_CONFORMER_ID>
0003A9B300000003

> <PUBCHEM_MMFF94_ENERGY>
80.0477

> <PUBCHEM_FEATURE_SELFOVERLAP>
35.59

> <PUBCHEM_SHAPE_FINGERPRINT>
10064457 181 18200315390422122730
10863032 1 18127673969000344780
10948715 1 15865493618713580080
11086676 242 18113909273026290350
11578080 2 18269010824200549996
11796584 16 17917992767856445619
12011746 2 18335703870608861222
12202030 40 17415865701665496666
12251169 10 17821738212508555740
12553582 1 18059564832259227792
12633257 1 17825109460982568266
12892183 10 18187655712323599280
13140716 1 17531813424540656735
13224815 77 16370722617664812841
13583140 156 18339654347610841733
14178342 30 17459735116007146809
14289901 80 18199463260805328081
14787075 74 16460277573269291878
15422964 175 18129679606710423234
16945 1 17679044616117159772
17349148 13 17676498237412952269
17804303 29 17749381611574643116
1813 80 18342455989280244348
18981168 100 15937232526067310435
19862831 5 12463575079845588719
20559304 39 17749378252636112365
20775530 9 17486230090314566586
21637258 2 18059862822118797746
21756936 100 17399526628370823528
2255824 54 18271233911809032756
23419403 2 12557979105589319940
23559900 14 18202282464137152509
2748010 2 17243278694137207957
2838139 119 7853268944638982570
3060560 45 14692573186891861656
394222 165 17975972064155802152
4340502 62 18057880239080949124
463206 1 16414936221784459859
5104073 3 17676760973616681771
5262128 65 15626211442403168119
5374978 207 17676203546832434025
7097593 13 18335987553209434723
7364860 26 16732971025191577988

> <PUBCHEM_SHAPE_MULTIPOLES>
441.01
7.81
2.15
1.93
8.57
0.29
0.2
-2.64
-2.37
-1.21
-0.37
-0.97
-0.15
-0.19

> <PUBCHEM_SHAPE_SELFOVERLAP>
935.338

> <PUBCHEM_SHAPE_VOLUME>
246.2

> <PUBCHEM_COORDINATE_TYPE>
2
5
10

$$$$

