6618
  -OEChem-07051213033D

 33 34  0     0  0  0  0  0  0999 V2000
    4.7085    2.1592    0.2570 Br  0  0  0  0  0  0  0  0  0  0  0  0
   -4.6926   -2.1470    0.3358 Br  0  0  0  0  0  0  0  0  0  0  0  0
    2.7609   -2.7403   -2.0228 Br  0  0  0  0  0  0  0  0  0  0  0  0
   -2.7351    2.6437   -2.1569 Br  0  0  0  0  0  0  0  0  0  0  0  0
    4.6921   -0.3742   -1.5211 O   0  0  0  0  0  0  0  0  0  0  0  0
   -4.6686    0.3028   -1.5558 O   0  0  0  0  0  0  0  0  0  0  0  0
    0.0053    0.0359    1.6014 C   0  0  0  0  0  0  0  0  0  0  0  0
    1.2432   -0.0725    0.7769 C   0  0  0  0  0  0  0  0  0  0  0  0
   -1.2901    0.1099    0.7265 C   0  0  0  0  0  0  0  0  0  0  0  0
   -0.0782    1.2971    2.5416 C   0  0  0  0  0  0  0  0  0  0  0  0
   -0.0346   -1.1725    2.6016 C   0  0  0  0  0  0  0  0  0  0  0  0
    1.4126   -1.1534   -0.0881 C   0  0  0  0  0  0  0  0  0  0  0  0
   -1.3949    1.1469   -0.1464 C   0  0  0  0  0  0  0  0  0  0  0  0
    2.2317    0.9073    0.8705 C   0  0  0  0  0  0  0  0  0  0  0  0
   -2.2182   -0.8680    0.9019 C   0  0  0  0  0  0  0  0  0  0  0  0
    3.3897    0.8059    0.0994 C   0  0  0  0  0  0  0  0  0  0  0  0
   -3.3729   -0.8021    0.1222 C   0  0  0  0  0  0  0  0  0  0  0  0
    2.5704   -1.2549   -0.8595 C   0  0  0  0  0  0  0  0  0  0  0  0
   -2.5496    1.2129   -0.9263 C   0  0  0  0  0  0  0  0  0  0  0  0
    3.5590   -0.2752   -0.7657 C   0  0  0  0  0  0  0  0  0  0  0  0
   -3.5386    0.2384   -0.7921 C   0  0  0  0  0  0  0  0  0  0  0  0
    0.7317    1.2961    3.2816 H   0  0  0  0  0  0  0  0  0  0  0  0
   -0.0233    2.2431    1.9907 H   0  0  0  0  0  0  0  0  0  0  0  0
   -1.0232    1.3092    3.1000 H   0  0  0  0  0  0  0  0  0  0  0  0
    0.8740   -1.1794    3.2187 H   0  0  0  0  0  0  0  0  0  0  0  0
   -0.8808   -1.1116    3.2970 H   0  0  0  0  0  0  0  0  0  0  0  0
   -0.0661   -2.1458    2.0980 H   0  0  0  0  0  0  0  0  0  0  0  0
    0.6437   -1.9183   -0.1685 H   0  0  0  0  0  0  0  0  0  0  0  0
   -0.6201    1.8990   -0.2519 H   0  0  0  0  0  0  0  0  0  0  0  0
    2.1332    1.7604    1.5333 H   0  0  0  0  0  0  0  0  0  0  0  0
   -2.1279   -1.6931    1.5946 H   0  0  0  0  0  0  0  0  0  0  0  0
    5.2607    0.3904   -1.3253 H   0  0  0  0  0  0  0  0  0  0  0  0
   -5.2381   -0.4522   -1.3277 H   0  0  0  0  0  0  0  0  0  0  0  0
  1 16  1  0  0  0  0
  2 17  1  0  0  0  0
  3 18  1  0  0  0  0
  4 19  1  0  0  0  0
  5 20  1  0  0  0  0
  5 32  1  0  0  0  0
  6 21  1  0  0  0  0
  6 33  1  0  0  0  0
  7  8  1  0  0  0  0
  7  9  1  0  0  0  0
  7 10  1  0  0  0  0
  7 11  1  0  0  0  0
  8 12  2  0  0  0  0
  8 14  1  0  0  0  0
  9 13  2  0  0  0  0
  9 15  1  0  0  0  0
 10 22  1  0  0  0  0
 10 23  1  0  0  0  0
 10 24  1  0  0  0  0
 11 25  1  0  0  0  0
 11 26  1  0  0  0  0
 11 27  1  0  0  0  0
 12 18  1  0  0  0  0
 12 28  1  0  0  0  0
 13 19  1  0  0  0  0
 13 29  1  0  0  0  0
 14 16  2  0  0  0  0
 14 30  1  0  0  0  0
 15 17  2  0  0  0  0
 15 31  1  0  0  0  0
 16 20  1  0  0  0  0
 17 21  1  0  0  0  0
 18 20  2  0  0  0  0
 19 21  2  0  0  0  0
M  END
> <PUBCHEM_COMPOUND_CID>
6618

> <PUBCHEM_CONFORMER_RMSD>
0.6

> <PUBCHEM_CONFORMER_DIVERSEORDER>
1
5
4
2
3

> <PUBCHEM_MMFF94_PARTIAL_CHARGES>
25
1 -0.11
12 -0.15
13 -0.15
14 -0.15
15 -0.15
16 0.11
17 0.11
18 0.11
19 0.11
2 -0.11
20 0.08
21 0.08
28 0.15
29 0.15
3 -0.11
30 0.15
31 0.15
32 0.45
33 0.45
4 -0.11
5 -0.53
6 -0.53
7 0.29
8 -0.14
9 -0.14

> <PUBCHEM_EFFECTIVE_ROTOR_COUNT>
2

> <PUBCHEM_PHARMACOPHORE_FEATURES>
9
1 1 hydrophobe
1 2 hydrophobe
1 3 hydrophobe
1 4 hydrophobe
1 5 donor
1 6 donor
3 7 10 11 hydrophobe
6 8 12 14 16 18 20 rings
6 9 13 15 17 19 21 rings

> <PUBCHEM_HEAVY_ATOM_COUNT>
21

> <PUBCHEM_ATOM_DEF_STEREO_COUNT>
0

> <PUBCHEM_ATOM_UDEF_STEREO_COUNT>
0

> <PUBCHEM_BOND_DEF_STEREO_COUNT>
0

> <PUBCHEM_BOND_UDEF_STEREO_COUNT>
0

> <PUBCHEM_ISOTOPIC_ATOM_COUNT>
0

> <PUBCHEM_COMPONENT_COUNT>
1

> <PUBCHEM_CACTVS_TAUTO_COUNT>
3

> <PUBCHEM_CONFORMER_ID>
000019DA00000001

> <PUBCHEM_MMFF94_ENERGY>
70.9388

> <PUBCHEM_FEATURE_SELFOVERLAP>
45.669

> <PUBCHEM_SHAPE_FINGERPRINT>
10498660 4 17846510239905965861
10646746 165 17846786225766889380
11582403 64 18123776187532283552
11640471 11 16271937055217116129
11725454 13 18196951993427838144
11759241 127 18269557143755024236
121448 382 17560522807150151203
12156800 1 16813179079734990247
12236239 1 15719940337594071899
12553582 1 15791731905647403559
12670546 177 18411138026026578942
12714826 92 15285635551057133985
12892183 10 9150871889402505534
13583140 156 18129655285038477496
13911987 19 17970058942910401280
13965767 371 16054092005932833940
14251757 17 18338800142428195412
14251764 38 17989207002100788020
14739800 52 16843879751814655524
15375462 189 16370720435199265795
15537594 2 16081360821929698727
15961568 22 17773313440116382284
17349148 13 15770058323850742211
1813 80 15719666576474064000
18186145 218 18342170102775963408
19784866 135 5544660637631325340
200 152 17676478463104063298
20291156 8 15719397251859132334
20361792 2 16226058807166549945
20645477 70 18187917375043752678
21033650 10 17559377240672488396
21524375 3 15841833364896345320
21713013 43 18334574646444654887
21731516 1 15792023319194248458
21864079 5 16414899950648598420
22393880 68 18270961357748681086
22907989 373 16341412922849210219
22950370 63 16081360822051043847
23114952 82 18335420213888834948
23402539 116 17775015530885116768
235170 7 18410293601101728446
23526113 38 18187940516111044979
23557571 272 18201154369570534799
23559900 14 18196104458688221514
3323516 105 18187082810772898763
3472631 163 17632583742593728501
46194498 28 18267023847669178653
474 4 15195289780277911785
603831 33 16805316708856674832
7399639 24 18337114449564312812
7970288 3 15719393936144381077
9981440 41 17060342890058358408

> <PUBCHEM_SHAPE_MULTIPOLES>
444.2
9.25
2.61
2.31
0.23
0.02
-0.43
0.03
4.02
0.03
1.46
-0.06
-0.02
2.93

> <PUBCHEM_SHAPE_SELFOVERLAP>
899.361

> <PUBCHEM_SHAPE_VOLUME>
273.1

> <PUBCHEM_COORDINATE_TYPE>
2
5
10

$$$$

