9566064
  -OEChem-07051213142D

 39 39  0     0  0  0  0  0  0999 V2000
    4.5981   -0.4778    0.0000 S   0  0  0  0  0  0  0  0  0  0  0  0
    2.8660    2.5222    0.0000 S   0  0  0  0  0  0  0  0  0  0  0  0
    3.7320   -1.9778    0.0000 Na  0  3  0  0  0  0  0  0  0  0  0  0
    2.0000    4.0222    0.0000 Na  0  3  0  0  0  0  0  0  0  0  0  0
    4.5981   -1.4778    0.0000 O   0  5  0  0  0  0  0  0  0  0  0  0
    3.5981   -0.4778    0.0000 O   0  0  0  0  0  0  0  0  0  0  0  0
    5.5981   -0.4778    0.0000 O   0  0  0  0  0  0  0  0  0  0  0  0
    8.1282    0.4980    0.0000 O   0  0  0  0  0  0  0  0  0  0  0  0
    2.0000    3.0222    0.0000 O   0  5  0  0  0  0  0  0  0  0  0  0
    3.3660    3.3882    0.0000 O   0  0  0  0  0  0  0  0  0  0  0  0
    2.3660    1.6562    0.0000 O   0  0  0  0  0  0  0  0  0  0  0  0
    6.3465   -0.5124    0.0000 N   0  0  0  0  0  0  0  0  0  0  0  0
    7.2067   -1.0224    0.0000 N   0  0  0  0  0  0  0  0  0  0  0  0
    5.4641    1.0222    0.0000 C   0  0  0  0  0  0  0  0  0  0  0  0
    5.4641    2.0222    0.0000 C   0  0  0  0  0  0  0  0  0  0  0  0
    4.5981    0.5222    0.0000 C   0  0  0  0  0  0  0  0  0  0  0  0
    3.7320    2.0222    0.0000 C   0  0  0  0  0  0  0  0  0  0  0  0
    6.3580    0.4875    0.0000 C   0  0  0  0  0  0  0  0  0  0  0  0
    4.5981    2.5222    0.0000 C   0  0  0  0  0  0  0  0  0  0  0  0
    3.7320    1.0222    0.0000 C   0  0  0  0  0  0  0  0  0  0  0  0
    6.3580    2.5568    0.0000 C   0  0  0  0  0  0  0  0  0  0  0  0
    7.2641    1.0014    0.0000 C   0  0  0  0  0  0  0  0  0  0  0  0
    7.2641    2.0430    0.0000 C   0  0  0  0  0  0  0  0  0  0  0  0
    7.1951   -2.0223    0.0000 C   0  0  0  0  0  0  0  0  0  0  0  0
    6.3233   -2.5123    0.0000 C   0  0  0  0  0  0  0  0  0  0  0  0
    8.0553   -2.5323    0.0000 C   0  0  0  0  0  0  0  0  0  0  0  0
    6.3118   -3.5122    0.0000 C   0  0  0  0  0  0  0  0  0  0  0  0
    8.0437   -3.5322    0.0000 C   0  0  0  0  0  0  0  0  0  0  0  0
    7.1720   -4.0222    0.0000 C   0  0  0  0  0  0  0  0  0  0  0  0
    4.5981    3.1422    0.0000 H   0  0  0  0  0  0  0  0  0  0  0  0
    3.1951    0.7122    0.0000 H   0  0  0  0  0  0  0  0  0  0  0  0
    6.3509    3.1768    0.0000 H   0  0  0  0  0  0  0  0  0  0  0  0
    7.7998    2.3551    0.0000 H   0  0  0  0  0  0  0  0  0  0  0  0
    7.7472   -0.7186    0.0000 H   0  0  0  0  0  0  0  0  0  0  0  0
    5.7900   -2.1961    0.0000 H   0  0  0  0  0  0  0  0  0  0  0  0
    8.5958   -2.2285    0.0000 H   0  0  0  0  0  0  0  0  0  0  0  0
    5.7713   -3.8160    0.0000 H   0  0  0  0  0  0  0  0  0  0  0  0
    8.5770   -3.8484    0.0000 H   0  0  0  0  0  0  0  0  0  0  0  0
    7.1648   -4.6422    0.0000 H   0  0  0  0  0  0  0  0  0  0  0  0
  1  5  1  0  0  0  0
  1  6  2  0  0  0  0
  1  7  2  0  0  0  0
  1 16  1  0  0  0  0
  2  9  1  0  0  0  0
  2 10  2  0  0  0  0
  2 11  2  0  0  0  0
  2 17  1  0  0  0  0
  8 22  2  0  0  0  0
 12 13  1  0  0  0  0
 12 18  2  0  0  0  0
 13 24  1  0  0  0  0
 13 34  1  0  0  0  0
 14 15  2  0  0  0  0
 14 16  1  0  0  0  0
 14 18  1  0  0  0  0
 15 19  1  0  0  0  0
 15 21  1  0  0  0  0
 16 20  2  0  0  0  0
 17 19  2  0  0  0  0
 17 20  1  0  0  0  0
 18 22  1  0  0  0  0
 19 30  1  0  0  0  0
 20 31  1  0  0  0  0
 21 23  2  0  0  0  0
 21 32  1  0  0  0  0
 22 23  1  0  0  0  0
 23 33  1  0  0  0  0
 24 25  2  0  0  0  0
 24 26  1  0  0  0  0
 25 27  1  0  0  0  0
 25 35  1  0  0  0  0
 26 28  2  0  0  0  0
 26 36  1  0  0  0  0
 27 29  2  0  0  0  0
 27 37  1  0  0  0  0
 28 29  1  0  0  0  0
 28 38  1  0  0  0  0
 29 39  1  0  0  0  0
M  CHG  4   3   1   4   1   5  -1   9  -1
M  END
> <PUBCHEM_COMPOUND_CID>
9566064

> <PUBCHEM_COMPOUND_CANONICALIZED>
1

> <PUBCHEM_CACTVS_COMPLEXITY>
820

> <PUBCHEM_CACTVS_HBOND_ACCEPTOR>
9

> <PUBCHEM_CACTVS_HBOND_DONOR>
1

> <PUBCHEM_CACTVS_ROTATABLE_BOND>
2

> <PUBCHEM_CACTVS_SUBSKEYS>
AAADccB7ODBgAAAAAAAAAAAAAAAAAAAAAAAwYIAAAAAAAACBQAAAHgQYAAAADAyB2AAwwYBiAAKoA6RyQHDSBEAgAgAYiBkgZNgIIDKAlZGAIABgmAAIyYcYiICOkAAAgEAUAAAgAAEAgCgAAAAAAAAAAA==

> <PUBCHEM_IUPAC_OPENEYE_NAME>
disodium (8Z)-7-oxo-8-(phenylhydrazono)naphthalene-1,3-disulfonate

> <PUBCHEM_IUPAC_CAS_NAME>
disodium (8Z)-7-oxo-8-(phenylhydrazinylidene)naphthalene-1,3-disulfonate

> <PUBCHEM_IUPAC_NAME>
disodium (8Z)-7-oxo-8-(phenylhydrazinylidene)naphthalene-1,3-disulfonate

> <PUBCHEM_IUPAC_SYSTEMATIC_NAME>
disodium (8Z)-7-oxidanylidene-8-(phenylhydrazinylidene)naphthalene-1,3-disulfonate

> <PUBCHEM_IUPAC_TRADITIONAL_NAME>
disodium (8Z)-7-keto-8-(phenylhydrazono)naphthalene-1,3-disulfonate

> <PUBCHEM_IUPAC_INCHI>
InChI=1S/C16H12N2O7S2.2Na/c19-13-7-6-10-8-12(26(20,21)22)9-14(27(23,24)25)15(10)16(13)18-17-11-4-2-1-3-5-11;;/h1-9,17H,(H,20,21,22)(H,23,24,25);;/q;2*+1/p-2/b18-16+;;

> <PUBCHEM_IUPAC_INCHIKEY>
AEOVEGJBKQQFOP-DDVLFWKVSA-L

> <PUBCHEM_EXACT_MASS>
451.972481

> <PUBCHEM_MOLECULAR_FORMULA>
C16H10N2Na2O7S2

> <PUBCHEM_MOLECULAR_WEIGHT>
452.369339

> <PUBCHEM_OPENEYE_CAN_SMILES>
C1=CC=C(C=C1)NN=C2C(=O)C=CC3=CC(=CC(=C32)S(=O)(=O)[O-])S(=O)(=O)[O-].[Na+].[Na+]

> <PUBCHEM_OPENEYE_ISO_SMILES>
C1=CC=C(C=C1)N/N=C/2\C(=O)C=CC3=CC(=CC(=C32)S(=O)(=O)[O-])S(=O)(=O)[O-].[Na+].[Na+]

> <PUBCHEM_CACTVS_TPSA>
173

> <PUBCHEM_MONOISOTOPIC_WEIGHT>
451.972481

> <PUBCHEM_TOTAL_CHARGE>
0

> <PUBCHEM_HEAVY_ATOM_COUNT>
29

> <PUBCHEM_ATOM_DEF_STEREO_COUNT>
0

> <PUBCHEM_ATOM_UDEF_STEREO_COUNT>
0

> <PUBCHEM_BOND_DEF_STEREO_COUNT>
1

> <PUBCHEM_BOND_UDEF_STEREO_COUNT>
0

> <PUBCHEM_ISOTOPIC_ATOM_COUNT>
0

> <PUBCHEM_COMPONENT_COUNT>
3

> <PUBCHEM_CACTVS_TAUTO_COUNT>
4

> <PUBCHEM_COORDINATE_TYPE>
1
5
255

> <PUBCHEM_BONDANNOTATIONS>
14  15  8
14  16  8
15  19  8
16  20  8
17  19  8
17  20  8
24  25  8
24  26  8
25  27  8
26  28  8
27  29  8
28  29  8

$$$$

