8771
  -OEChem-06261203053D

 49 48  0     1  0  0  0  0  0999 V2000
   -2.7171    1.9024    0.4869 S   0  0  0  0  0  0  0  0  0  0  0  0
   -2.1964    0.5258   -0.2150 O   0  0  0  0  0  0  0  0  0  0  0  0
   -3.4938    2.6792   -0.7191 O   0  0  0  0  0  0  0  0  0  0  0  0
   -3.7095    1.5321    1.4786 O   0  0  0  0  0  0  0  0  0  0  0  0
   -1.5697    2.7048    0.8682 O   0  0  0  0  0  0  0  0  0  0  0  0
    2.1160    0.8212   -0.1516 C   0  0  1  0  0  0  0  0  0  0  0  0
    0.6336    0.4394   -0.3740 C   0  0  0  0  0  0  0  0  0  0  0  0
   -0.1171   -0.1046    0.8515 C   0  0  0  0  0  0  0  0  0  0  0  0
   -1.5803   -0.4844    0.5873 C   0  0  2  0  0  0  0  0  0  0  0  0
    3.0289   -0.4051    0.0764 C   0  0  0  0  0  0  0  0  0  0  0  0
    2.5738    1.7316   -1.3139 C   0  0  0  0  0  0  0  0  0  0  0  0
   -1.7352   -1.8235   -0.1519 C   0  0  0  0  0  0  0  0  0  0  0  0
    4.4687   -0.0750    0.4844 C   0  0  0  0  0  0  0  0  0  0  0  0
   -3.1730   -2.2285   -0.5244 C   0  0  0  0  0  0  0  0  0  0  0  0
    2.6263    1.0331   -2.6651 C   0  0  0  0  0  0  0  0  0  0  0  0
    5.3106   -1.3217    0.7736 C   0  0  0  0  0  0  0  0  0  0  0  0
   -4.0759   -2.3664    0.7014 C   0  0  0  0  0  0  0  0  0  0  0  0
   -3.1523   -3.5492   -1.2998 C   0  0  0  0  0  0  0  0  0  0  0  0
    6.7623   -1.0111    1.1065 C   0  0  0  0  0  0  0  0  0  0  0  0
    2.1566    1.4351    0.7588 H   0  0  0  0  0  0  0  0  0  0  0  0
    0.1025    1.3229   -0.7455 H   0  0  0  0  0  0  0  0  0  0  0  0
    0.5811   -0.3091   -1.1730 H   0  0  0  0  0  0  0  0  0  0  0  0
   -0.0880    0.6685    1.6289 H   0  0  0  0  0  0  0  0  0  0  0  0
    0.4050   -0.9718    1.2701 H   0  0  0  0  0  0  0  0  0  0  0  0
   -2.0956   -0.5607    1.5518 H   0  0  0  0  0  0  0  0  0  0  0  0
    2.5973   -1.0185    0.8762 H   0  0  0  0  0  0  0  0  0  0  0  0
    3.0352   -1.0434   -0.8147 H   0  0  0  0  0  0  0  0  0  0  0  0
    1.9031    2.5968   -1.3878 H   0  0  0  0  0  0  0  0  0  0  0  0
    3.5647    2.1430   -1.0898 H   0  0  0  0  0  0  0  0  0  0  0  0
   -1.2774   -2.6160    0.4544 H   0  0  0  0  0  0  0  0  0  0  0  0
   -1.1614   -1.7761   -1.0862 H   0  0  0  0  0  0  0  0  0  0  0  0
    4.4575    0.5670    1.3735 H   0  0  0  0  0  0  0  0  0  0  0  0
    4.9544    0.4947   -0.3157 H   0  0  0  0  0  0  0  0  0  0  0  0
   -3.6021   -1.4627   -1.1821 H   0  0  0  0  0  0  0  0  0  0  0  0
    1.6494    0.6424   -2.9628 H   0  0  0  0  0  0  0  0  0  0  0  0
    3.3490    0.2126   -2.6708 H   0  0  0  0  0  0  0  0  0  0  0  0
    2.9401    1.7464   -3.4348 H   0  0  0  0  0  0  0  0  0  0  0  0
    5.2853   -1.9866   -0.0981 H   0  0  0  0  0  0  0  0  0  0  0  0
    4.8648   -1.8752    1.6085 H   0  0  0  0  0  0  0  0  0  0  0  0
   -3.6594   -3.0765    1.4236 H   0  0  0  0  0  0  0  0  0  0  0  0
   -4.2107   -1.4054    1.2064 H   0  0  0  0  0  0  0  0  0  0  0  0
   -5.0709   -2.7223    0.4130 H   0  0  0  0  0  0  0  0  0  0  0  0
   -2.7417   -4.3621   -0.6912 H   0  0  0  0  0  0  0  0  0  0  0  0
   -4.1635   -3.8348   -1.6086 H   0  0  0  0  0  0  0  0  0  0  0  0
   -2.5415   -3.4601   -2.2045 H   0  0  0  0  0  0  0  0  0  0  0  0
    7.2513   -0.4942    0.2747 H   0  0  0  0  0  0  0  0  0  0  0  0
    6.8306   -0.3747    1.9944 H   0  0  0  0  0  0  0  0  0  0  0  0
    7.3133   -1.9355    1.3053 H   0  0  0  0  0  0  0  0  0  0  0  0
   -3.8821    3.5526   -0.4768 H   0  0  0  0  0  0  0  0  0  0  0  0
  1  2  1  0  0  0  0
  1  3  1  0  0  0  0
  1  4  2  0  0  0  0
  1  5  2  0  0  0  0
  2  9  1  0  0  0  0
  3 49  1  0  0  0  0
  6  7  1  0  0  0  0
  6 10  1  0  0  0  0
  6 11  1  0  0  0  0
  6 20  1  0  0  0  0
  7  8  1  0  0  0  0
  7 21  1  0  0  0  0
  7 22  1  0  0  0  0
  8  9  1  0  0  0  0
  8 23  1  0  0  0  0
  8 24  1  0  0  0  0
  9 12  1  0  0  0  0
  9 25  1  0  0  0  0
 10 13  1  0  0  0  0
 10 26  1  0  0  0  0
 10 27  1  0  0  0  0
 11 15  1  0  0  0  0
 11 28  1  0  0  0  0
 11 29  1  0  0  0  0
 12 14  1  0  0  0  0
 12 30  1  0  0  0  0
 12 31  1  0  0  0  0
 13 16  1  0  0  0  0
 13 32  1  0  0  0  0
 13 33  1  0  0  0  0
 14 17  1  0  0  0  0
 14 18  1  0  0  0  0
 14 34  1  0  0  0  0
 15 35  1  0  0  0  0
 15 36  1  0  0  0  0
 15 37  1  0  0  0  0
 16 19  1  0  0  0  0
 16 38  1  0  0  0  0
 16 39  1  0  0  0  0
 17 40  1  0  0  0  0
 17 41  1  0  0  0  0
 17 42  1  0  0  0  0
 18 43  1  0  0  0  0
 18 44  1  0  0  0  0
 18 45  1  0  0  0  0
 19 46  1  0  0  0  0
 19 47  1  0  0  0  0
 19 48  1  0  0  0  0
M  END
> <PUBCHEM_COMPOUND_CID>
8771

> <PUBCHEM_CONFORMER_RMSD>
1.4

> <PUBCHEM_CONFORMER_DIVERSEORDER>
1
9
21
10
5
24
6
20
8
25
17
16
19
13
11
15
22
14
12
18
7
4
2
3
23

> <PUBCHEM_MMFF94_PARTIAL_CHARGES>
7
1 1.67
2 -0.46
3 -0.68
4 -0.65
49 0.5
5 -0.65
9 0.28

> <PUBCHEM_EFFECTIVE_ROTOR_COUNT>
11

> <PUBCHEM_PHARMACOPHORE_FEATURES>
11
1 15 hydrophobe
1 19 hydrophobe
1 3 acceptor
1 4 acceptor
1 5 acceptor
3 10 13 16 hydrophobe
3 14 17 18 hydrophobe
3 6 10 11 hydrophobe
4 1 3 4 5 anion
4 6 7 8 11 hydrophobe
5 6 10 11 13 16 hydrophobe

> <PUBCHEM_HEAVY_ATOM_COUNT>
19

> <PUBCHEM_ATOM_DEF_STEREO_COUNT>
0

> <PUBCHEM_ATOM_UDEF_STEREO_COUNT>
2

> <PUBCHEM_BOND_DEF_STEREO_COUNT>
0

> <PUBCHEM_BOND_UDEF_STEREO_COUNT>
0

> <PUBCHEM_ISOTOPIC_ATOM_COUNT>
0

> <PUBCHEM_COMPONENT_COUNT>
1

> <PUBCHEM_CACTVS_TAUTO_COUNT>
1

> <PUBCHEM_CONFORMER_ID>
0000224300000001

> <PUBCHEM_MMFF94_ENERGY>
19.7559

> <PUBCHEM_FEATURE_SELFOVERLAP>
63.129

> <PUBCHEM_SHAPE_FINGERPRINT>
10062212 137 18342457045362313618
12553582 1 18046051662967138743
12788726 201 18265878186586047851
13009979 54 18343577430694652260
13583140 156 17530978990184256034
14178342 30 18336542811134800814
15042514 8 18409725171313349729
15099037 8 18341895147591256194
15342816 4 17828478064152643991
15842332 3 18200013063489648204
1813 80 17900809454277414471
19141452 34 18268996552123620314
19784866 240 18131355181017030222
20600515 1 17968649523432595840
20645477 70 17059499513479891450
21524375 3 18199460142527722241
21728266 224 18335145263025605386
23402539 116 18260839232254827861
23532345 12 18272089388143405350
23557571 272 17749095682585087840
23558518 356 17916854725828773882
23559900 14 18263379018004622248
23598288 3 18413101745662930795
23598291 2 18060413599849572030
23622692 118 18338522937002625470
25147074 1 18200863003347640172
312423 11 18058719217871087454
5104073 3 18335425651802683656
53777708 50 18269828731838429308
559249 180 18342746259764720050
573450 72 18410577284182317354
5924683 9 18334584520606324562
7164475 11 18341049605806110237
7471813 234 18268155258103256652
7615 1 18200304429723267932

> <PUBCHEM_SHAPE_MULTIPOLES>
371.38
11.46
3.42
1.56
15.9
0.45
0.95
6.11
-3.28
-5.4
0.58
0.78
-0.37
-2.71

> <PUBCHEM_SHAPE_SELFOVERLAP>
677.905

> <PUBCHEM_SHAPE_VOLUME>
237.9

> <PUBCHEM_COORDINATE_TYPE>
2
5
10

$$$$

