15337591
  -OEChem-07051213083D

 40 42  0     0  0  0  0  0  0999 V2000
    2.2310    0.0296   -1.9050 O   0  0  0  0  0  0  0  0  0  0  0  0
   -1.0410    2.4880    0.0172 O   0  0  0  0  0  0  0  0  0  0  0  0
   -4.0341   -2.1384   -0.2255 O   0  0  0  0  0  0  0  0  0  0  0  0
   -5.2694    0.3179    0.1826 O   0  0  0  0  0  0  0  0  0  0  0  0
    0.8088   -0.2914    1.9058 O   0  0  0  0  0  0  0  0  0  0  0  0
    6.7235   -0.3439   -0.4152 O   0  0  0  0  0  0  0  0  0  0  0  0
   -1.1400    0.1014   -0.2499 C   0  0  0  0  0  0  0  0  0  0  0  0
    0.3204    0.0031   -0.4060 C   0  0  0  0  0  0  0  0  0  0  0  0
    2.6721   -0.2176    0.4687 C   0  0  0  0  0  0  0  0  0  0  0  0
    1.2274   -0.1744    0.7614 C   0  0  0  0  0  0  0  0  0  0  0  0
   -1.7657    1.3344   -0.0448 C   0  0  0  0  0  0  0  0  0  0  0  0
    3.1002   -0.1144   -0.8543 C   0  0  0  0  0  0  0  0  0  0  0  0
   -1.9112   -1.0626   -0.3089 C   0  0  0  0  0  0  0  0  0  0  0  0
   -3.2969   -0.9944   -0.1641 C   0  0  0  0  0  0  0  0  0  0  0  0
    0.8888    0.0898   -1.6180 C   0  0  0  0  0  0  0  0  0  0  0  0
   -3.1514    1.4026    0.1001 C   0  0  0  0  0  0  0  0  0  0  0  0
   -3.9169    0.2383    0.0404 C   0  0  0  0  0  0  0  0  0  0  0  0
    3.6038   -0.3640    1.4999 C   0  0  0  0  0  0  0  0  0  0  0  0
    4.4622   -0.1574   -1.1540 C   0  0  0  0  0  0  0  0  0  0  0  0
    4.9655   -0.4060    1.1976 C   0  0  0  0  0  0  0  0  0  0  0  0
    5.3940   -0.3031   -0.1262 C   0  0  0  0  0  0  0  0  0  0  0  0
   -0.5730    2.8893    1.3026 C   0  0  0  0  0  0  0  0  0  0  0  0
   -4.2620   -2.8292    1.0013 C   0  0  0  0  0  0  0  0  0  0  0  0
   -6.0362    0.5023   -1.0058 C   0  0  0  0  0  0  0  0  0  0  0  0
   -1.4374   -2.0292   -0.4681 H   0  0  0  0  0  0  0  0  0  0  0  0
    0.3299    0.2240   -2.5361 H   0  0  0  0  0  0  0  0  0  0  0  0
   -3.6350    2.3632    0.2596 H   0  0  0  0  0  0  0  0  0  0  0  0
    3.2908   -0.4462    2.5369 H   0  0  0  0  0  0  0  0  0  0  0  0
    4.7983   -0.0773   -2.1847 H   0  0  0  0  0  0  0  0  0  0  0  0
    5.6843   -0.5197    2.0050 H   0  0  0  0  0  0  0  0  0  0  0  0
    0.4663    2.5746    1.4282 H   0  0  0  0  0  0  0  0  0  0  0  0
   -1.1850    2.4800    2.1137 H   0  0  0  0  0  0  0  0  0  0  0  0
   -0.6112    3.9811    1.3544 H   0  0  0  0  0  0  0  0  0  0  0  0
   -4.8069   -2.1932    1.7063 H   0  0  0  0  0  0  0  0  0  0  0  0
   -3.3132   -3.1516    1.4417 H   0  0  0  0  0  0  0  0  0  0  0  0
   -4.8678   -3.7142    0.7887 H   0  0  0  0  0  0  0  0  0  0  0  0
   -5.8839   -0.3333   -1.6964 H   0  0  0  0  0  0  0  0  0  0  0  0
   -5.7687    1.4457   -1.4922 H   0  0  0  0  0  0  0  0  0  0  0  0
   -7.0933    0.5388   -0.7292 H   0  0  0  0  0  0  0  0  0  0  0  0
    7.2230   -0.4479    0.4128 H   0  0  0  0  0  0  0  0  0  0  0  0
  1 12  1  0  0  0  0
  1 15  1  0  0  0  0
  2 11  1  0  0  0  0
  2 22  1  0  0  0  0
  3 14  1  0  0  0  0
  3 23  1  0  0  0  0
  4 17  1  0  0  0  0
  4 24  1  0  0  0  0
  5 10  2  0  0  0  0
  6 21  1  0  0  0  0
  6 40  1  0  0  0  0
  7  8  1  0  0  0  0
  7 11  1  0  0  0  0
  7 13  2  0  0  0  0
  8 10  1  0  0  0  0
  8 15  2  0  0  0  0
  9 10  1  0  0  0  0
  9 12  2  0  0  0  0
  9 18  1  0  0  0  0
 11 16  2  0  0  0  0
 12 19  1  0  0  0  0
 13 14  1  0  0  0  0
 13 25  1  0  0  0  0
 14 17  2  0  0  0  0
 15 26  1  0  0  0  0
 16 17  1  0  0  0  0
 16 27  1  0  0  0  0
 18 20  2  0  0  0  0
 18 28  1  0  0  0  0
 19 21  2  0  0  0  0
 19 29  1  0  0  0  0
 20 21  1  0  0  0  0
 20 30  1  0  0  0  0
 22 31  1  0  0  0  0
 22 32  1  0  0  0  0
 22 33  1  0  0  0  0
 23 34  1  0  0  0  0
 23 35  1  0  0  0  0
 23 36  1  0  0  0  0
 24 37  1  0  0  0  0
 24 38  1  0  0  0  0
 24 39  1  0  0  0  0
M  END
> <PUBCHEM_COMPOUND_CID>
15337591

> <PUBCHEM_CONFORMER_RMSD>
0.8

> <PUBCHEM_CONFORMER_DIVERSEORDER>
1
4
7
2
5
6
3

> <PUBCHEM_MMFF94_PARTIAL_CHARGES>
31
1 -0.16
10 0.47
11 0.08
12 0.08
13 -0.15
14 0.08
15 -0.07
16 -0.15
17 0.08
18 -0.15
19 -0.15
2 -0.36
20 -0.15
21 0.08
22 0.28
23 0.28
24 0.28
25 0.15
26 0.15
27 0.15
28 0.15
29 0.15
3 -0.36
30 0.15
4 -0.36
40 0.45
5 -0.57
6 -0.53
7 0.03
8 -0.01
9 0.09

> <PUBCHEM_EFFECTIVE_ROTOR_COUNT>
4

> <PUBCHEM_PHARMACOPHORE_FEATURES>
9
1 1 acceptor
1 2 acceptor
1 3 acceptor
1 4 acceptor
1 5 acceptor
1 6 donor
6 1 8 9 10 12 15 rings
6 7 11 13 14 16 17 rings
6 9 12 18 19 20 21 rings

> <PUBCHEM_HEAVY_ATOM_COUNT>
24

> <PUBCHEM_ATOM_DEF_STEREO_COUNT>
0

> <PUBCHEM_ATOM_UDEF_STEREO_COUNT>
0

> <PUBCHEM_BOND_DEF_STEREO_COUNT>
0

> <PUBCHEM_BOND_UDEF_STEREO_COUNT>
0

> <PUBCHEM_ISOTOPIC_ATOM_COUNT>
0

> <PUBCHEM_COMPONENT_COUNT>
1

> <PUBCHEM_CACTVS_TAUTO_COUNT>
5

> <PUBCHEM_CONFORMER_ID>
00EA087700000001

> <PUBCHEM_MMFF94_ENERGY>
104.8842

> <PUBCHEM_FEATURE_SELFOVERLAP>
45.702

> <PUBCHEM_SHAPE_FINGERPRINT>
10 15 17677066676751439298
10366900 7 18040724692265032883
11045977 3 18261399909716570320
11315181 36 18272082795273790484
11796584 16 18273495667283349087
12011746 2 18114754806200630381
12107183 9 17478618262089073592
12236239 1 17847061099062127631
12403259 415 16805897281340616656
12596602 18 18201718419267666580
12616971 3 17131829863262494063
12741549 16 16733273437986177329
12788726 201 18341617082992977393
13140716 1 18264485097449445697
13533116 47 18270688687570945946
13540713 4 18123482579610532201
13583140 156 17968957391125095510
13782708 43 17240756337385651102
14386348 63 17676205779656323695
17349148 13 17489866042523619746
18186145 218 13039189186873827757
18927931 339 18333447638462727799
200 152 16917351445636082332
20511986 3 17632311089326816901
20600515 1 18335406989990999037
21033648 29 16878238548666094640
21267235 1 18410851045460963763
2297311 6 18260260867616048500
23175994 123 16805324387783440321
23366157 5 17912079448330516045
23402539 116 18413108350969262998
23557571 272 18113896117167410012
23559900 14 18411141307471529944
314173 85 18113330908229638841
335352 9 18410579483822816477
34797466 226 18334007290266342036
5104073 3 18337947879631355785
602551 16 18335141943032041166
7226269 152 18410576223578901365
7495541 125 18114181896128268560

> <PUBCHEM_SHAPE_MULTIPOLES>
458.69
12.87
1.98
1.43
4.27
0.35
0.03
-3.65
-1.02
-3.2
0.83
1.08
0.01
0.3

> <PUBCHEM_SHAPE_SELFOVERLAP>
1004.967

> <PUBCHEM_SHAPE_VOLUME>
249.1

> <PUBCHEM_COORDINATE_TYPE>
2
5
10

$$$$

