21319
  -OEChem-07051213023D

 47 50  0     1  0  0  0  0  0999 V2000
    2.3995   -1.2986    2.7486 Cl  0  0  0  0  0  0  0  0  0  0  0  0
   -1.3227    0.8798   -1.6011 S   0  0  0  0  0  0  0  0  0  0  0  0
    1.7465   -1.4785   -2.3245 F   0  0  0  0  0  0  0  0  0  0  0  0
   -1.7511    0.3290    2.7492 O   0  0  0  0  0  0  0  0  0  0  0  0
   -5.3699   -1.0317   -0.0297 O   0  0  0  0  0  0  0  0  0  0  0  0
   -5.1745    0.9172    1.1363 O   0  0  0  0  0  0  0  0  0  0  0  0
    1.4980    2.8665   -0.5440 O   0  0  0  0  0  0  0  0  0  0  0  0
    4.9816    0.4941   -0.4023 O   0  0  0  0  0  0  0  0  0  0  0  0
   -2.5674    1.0796    0.6658 N   0  0  0  0  0  0  0  0  0  0  0  0
    0.6071    1.1921    0.7664 N   0  0  0  0  0  0  0  0  0  0  0  0
    4.3139   -0.7181   -0.2768 N   0  0  0  0  0  0  0  0  0  0  0  0
   -1.6820    1.9239   -0.1417 C   0  0  1  0  0  0  0  0  0  0  0  0
   -2.9986    0.0752   -1.4863 C   0  0  0  0  0  0  0  0  0  0  0  0
   -3.2481   -0.0321    0.0335 C   0  0  2  0  0  0  0  0  0  0  0  0
   -0.6759    1.8640    1.0158 C   0  0  1  0  0  0  0  0  0  0  0  0
   -1.7179    0.9799    1.7296 C   0  0  0  0  0  0  0  0  0  0  0  0
   -4.0012    0.9638   -2.2351 C   0  0  0  0  0  0  0  0  0  0  0  0
   -2.9328   -1.3064   -2.1398 C   0  0  0  0  0  0  0  0  0  0  0  0
   -4.6823    0.0323    0.4521 C   0  0  0  0  0  0  0  0  0  0  0  0
    1.6198    1.7621   -0.0149 C   0  0  0  0  0  0  0  0  0  0  0  0
    2.8570    0.9810   -0.1469 C   0  0  0  0  0  0  0  0  0  0  0  0
    3.0279   -0.3901   -0.1233 C   0  0  0  0  0  0  0  0  0  0  0  0
    4.0849    1.5101   -0.3213 C   0  0  0  0  0  0  0  0  0  0  0  0
    2.0310   -1.4162    0.0376 C   0  0  0  0  0  0  0  0  0  0  0  0
    4.6309    2.8694   -0.4363 C   0  0  0  0  0  0  0  0  0  0  0  0
    1.6737   -1.8980    1.2972 C   0  0  0  0  0  0  0  0  0  0  0  0
    1.4167   -1.9292   -1.1049 C   0  0  0  0  0  0  0  0  0  0  0  0
    0.7023   -2.8924    1.4138 C   0  0  0  0  0  0  0  0  0  0  0  0
    0.4455   -2.9237   -0.9881 C   0  0  0  0  0  0  0  0  0  0  0  0
    0.0884   -3.4053    0.2712 C   0  0  0  0  0  0  0  0  0  0  0  0
   -2.1106    2.9076   -0.3539 H   0  0  0  0  0  0  0  0  0  0  0  0
   -2.8186   -0.9529    0.4508 H   0  0  0  0  0  0  0  0  0  0  0  0
   -0.5304    2.8222    1.5290 H   0  0  0  0  0  0  0  0  0  0  0  0
   -4.1039    1.9528   -1.7743 H   0  0  0  0  0  0  0  0  0  0  0  0
   -3.7029    1.1105   -3.2802 H   0  0  0  0  0  0  0  0  0  0  0  0
   -4.9977    0.5088   -2.2547 H   0  0  0  0  0  0  0  0  0  0  0  0
   -2.6295   -1.2413   -3.1913 H   0  0  0  0  0  0  0  0  0  0  0  0
   -2.2279   -1.9667   -1.6265 H   0  0  0  0  0  0  0  0  0  0  0  0
   -3.9107   -1.7995   -2.1171 H   0  0  0  0  0  0  0  0  0  0  0  0
    0.8020    0.3381    1.2727 H   0  0  0  0  0  0  0  0  0  0  0  0
   -6.3145   -1.0074    0.2337 H   0  0  0  0  0  0  0  0  0  0  0  0
    5.7234    2.8691   -0.3689 H   0  0  0  0  0  0  0  0  0  0  0  0
    4.3517    3.3139   -1.3966 H   0  0  0  0  0  0  0  0  0  0  0  0
    4.2479    3.5103    0.3640 H   0  0  0  0  0  0  0  0  0  0  0  0
    0.4108   -3.2779    2.3875 H   0  0  0  0  0  0  0  0  0  0  0  0
   -0.0307   -3.3239   -1.8782 H   0  0  0  0  0  0  0  0  0  0  0  0
   -0.6687   -4.1786    0.3617 H   0  0  0  0  0  0  0  0  0  0  0  0
  1 26  1  0  0  0  0
  2 12  1  0  0  0  0
  2 13  1  0  0  0  0
  3 27  1  0  0  0  0
  4 16  2  0  0  0  0
  5 19  1  0  0  0  0
  5 41  1  0  0  0  0
  6 19  2  0  0  0  0
  7 20  2  0  0  0  0
  8 11  1  0  0  0  0
  8 23  1  0  0  0  0
  9 12  1  0  0  0  0
  9 14  1  0  0  0  0
  9 16  1  0  0  0  0
 10 15  1  0  0  0  0
 10 20  1  0  0  0  0
 10 40  1  0  0  0  0
 11 22  2  0  0  0  0
 12 15  1  0  0  0  0
 12 31  1  0  0  0  0
 13 14  1  0  0  0  0
 13 17  1  0  0  0  0
 13 18  1  0  0  0  0
 14 19  1  0  0  0  0
 14 32  1  0  0  0  0
 15 16  1  0  0  0  0
 15 33  1  0  0  0  0
 17 34  1  0  0  0  0
 17 35  1  0  0  0  0
 17 36  1  0  0  0  0
 18 37  1  0  0  0  0
 18 38  1  0  0  0  0
 18 39  1  0  0  0  0
 20 21  1  0  0  0  0
 21 22  1  0  0  0  0
 21 23  2  0  0  0  0
 22 24  1  0  0  0  0
 23 25  1  0  0  0  0
 24 26  1  0  0  0  0
 24 27  2  0  0  0  0
 25 42  1  0  0  0  0
 25 43  1  0  0  0  0
 25 44  1  0  0  0  0
 26 28  2  0  0  0  0
 27 29  1  0  0  0  0
 28 30  1  0  0  0  0
 28 45  1  0  0  0  0
 29 30  2  0  0  0  0
 29 46  1  0  0  0  0
 30 47  1  0  0  0  0
M  END
> <PUBCHEM_COMPOUND_CID>
21319

> <PUBCHEM_CONFORMER_RMSD>
0.8

> <PUBCHEM_CONFORMER_DIVERSEORDER>
5
20
10
51
52
32
36
41
34
46
35
26
13
50
48
49
42
6
31
44
11
47
30
21
45
27
9
29
43
40
12
2
24
8
39
15
23
33
53
38
3
18
17
25
14
4
19
22
1
16
7
28
37

> <PUBCHEM_MMFF94_PARTIAL_CHARGES>
33
1 -0.18
10 -0.65
11 -0.41
12 0.44
13 0.23
14 0.36
15 0.28
16 0.58
19 0.66
2 -0.45
20 0.72
21 -0.09
22 0.23
23 -0.04
24 0.05
25 0.18
26 0.18
27 0.19
28 -0.15
29 -0.15
3 -0.19
30 -0.15
4 -0.57
40 0.37
41 0.5
45 0.15
46 0.15
47 0.15
5 -0.65
6 -0.57
7 -0.57
8 -0.02
9 -0.59

> <PUBCHEM_EFFECTIVE_ROTOR_COUNT>
5.8

> <PUBCHEM_PHARMACOPHORE_FEATURES>
12
1 10 donor
1 11 acceptor
1 4 acceptor
1 5 acceptor
1 6 acceptor
1 7 acceptor
3 13 17 18 hydrophobe
3 5 6 19 anion
4 9 12 15 16 rings
5 8 11 21 22 23 rings
6 24 26 27 28 29 30 rings
7 2 9 12 13 14 15 16 rings

> <PUBCHEM_HEAVY_ATOM_COUNT>
30

> <PUBCHEM_ATOM_DEF_STEREO_COUNT>
3

> <PUBCHEM_ATOM_UDEF_STEREO_COUNT>
0

> <PUBCHEM_BOND_DEF_STEREO_COUNT>
0

> <PUBCHEM_BOND_UDEF_STEREO_COUNT>
0

> <PUBCHEM_ISOTOPIC_ATOM_COUNT>
0

> <PUBCHEM_COMPONENT_COUNT>
1

> <PUBCHEM_CACTVS_TAUTO_COUNT>
2

> <PUBCHEM_CONFORMER_ID>
0000534700000005

> <PUBCHEM_MMFF94_ENERGY>
75.135

> <PUBCHEM_FEATURE_SELFOVERLAP>
64.681

> <PUBCHEM_SHAPE_FINGERPRINT>
10119406 146 18194661861669619110
11421498 54 17604137220508899849
11578080 2 16485556844213630076
12156800 1 17551193343393120231
12236239 1 17967243191693111120
12293681 4 17335339334321971890
12553582 1 17968109624515345409
12788726 201 16733254776965172993
13009979 54 17533779579281125090
13224815 77 18411703226785696639
14251764 3 17632858603062027880
14787075 74 18334294219640463399
15183329 4 17968959590708138253
17138139 8 17753349581540960791
17492 54 18267035967671086831
17980427 23 17769121234201735072
20775438 99 15659206399316466214
21421861 104 18266451203942947849
22393880 68 18271250533511673524
23419403 2 14782367948428585602
23557571 272 16343414098520544341
23559900 14 17827072119782986495
238 59 18343024393203866976
35225 105 17618187660588539519
3797600 57 18334020479620446807
4340502 62 18340471306283073291
463206 1 18334013848496636857
469060 322 16772119025013990535
513532 50 14833074396586543815
6287921 2 17750797842454453214
6669772 16 18342173346304641378

> <PUBCHEM_SHAPE_MULTIPOLES>
571.54
8.92
3.38
2.18
3.54
1.33
0.42
-3.46
-1.03
-2.66
-0.06
1.14
0.62
-0.79

> <PUBCHEM_SHAPE_SELFOVERLAP>
1228.142

> <PUBCHEM_SHAPE_VOLUME>
321.6

> <PUBCHEM_COORDINATE_TYPE>
2
5
10

$$$$

