11820
  -OEChem-06261206092D

 21 22  0     0  0  0  0  0  0999 V2000
    2.0000   -0.5173    0.0000 O   0  0  0  0  0  0  0  0  0  0  0  0
    3.7320   -0.5173    0.0000 N   0  0  0  0  0  0  0  0  0  0  0  0
    4.5981   -0.0173    0.0000 C   0  0  0  0  0  0  0  0  0  0  0  0
    4.5981    0.9827    0.0000 C   0  0  0  0  0  0  0  0  0  0  0  0
    3.7320    1.4827    0.0000 C   0  0  0  0  0  0  0  0  0  0  0  0
    5.4920   -0.5520    0.0000 C   0  0  0  0  0  0  0  0  0  0  0  0
    2.8660   -0.0173    0.0000 C   0  0  0  0  0  0  0  0  0  0  0  0
    5.4920    1.5173    0.0000 C   0  0  0  0  0  0  0  0  0  0  0  0
    2.8660    0.9827    0.0000 C   0  0  0  0  0  0  0  0  0  0  0  0
    3.7320   -1.5173    0.0000 C   0  0  0  0  0  0  0  0  0  0  0  0
    6.3981   -0.0381    0.0000 C   0  0  0  0  0  0  0  0  0  0  0  0
    6.3981    1.0035    0.0000 C   0  0  0  0  0  0  0  0  0  0  0  0
    3.7320    2.1027    0.0000 H   0  0  0  0  0  0  0  0  0  0  0  0
    5.4848   -1.1720    0.0000 H   0  0  0  0  0  0  0  0  0  0  0  0
    5.4848    2.1373    0.0000 H   0  0  0  0  0  0  0  0  0  0  0  0
    2.3291    1.2927    0.0000 H   0  0  0  0  0  0  0  0  0  0  0  0
    3.1120   -1.5173    0.0000 H   0  0  0  0  0  0  0  0  0  0  0  0
    3.7320   -2.1373    0.0000 H   0  0  0  0  0  0  0  0  0  0  0  0
    4.3520   -1.5173    0.0000 H   0  0  0  0  0  0  0  0  0  0  0  0
    6.9338   -0.3502    0.0000 H   0  0  0  0  0  0  0  0  0  0  0  0
    6.9338    1.3156    0.0000 H   0  0  0  0  0  0  0  0  0  0  0  0
  1  7  2  0  0  0  0
  2  3  1  0  0  0  0
  2  7  1  0  0  0  0
  2 10  1  0  0  0  0
  3  4  1  0  0  0  0
  3  6  2  0  0  0  0
  4  5  1  0  0  0  0
  4  8  2  0  0  0  0
  5  9  2  0  0  0  0
  5 13  1  0  0  0  0
  6 11  1  0  0  0  0
  6 14  1  0  0  0  0
  7  9  1  0  0  0  0
  8 12  1  0  0  0  0
  8 15  1  0  0  0  0
  9 16  1  0  0  0  0
 10 17  1  0  0  0  0
 10 18  1  0  0  0  0
 10 19  1  0  0  0  0
 11 12  2  0  0  0  0
 11 20  1  0  0  0  0
 12 21  1  0  0  0  0
M  END
> <PUBCHEM_COMPOUND_CID>
11820

> <PUBCHEM_COMPOUND_CANONICALIZED>
1

> <PUBCHEM_CACTVS_COMPLEXITY>
222

> <PUBCHEM_CACTVS_HBOND_ACCEPTOR>
1

> <PUBCHEM_CACTVS_HBOND_DONOR>
0

> <PUBCHEM_CACTVS_ROTATABLE_BOND>
0

> <PUBCHEM_CACTVS_SUBSKEYS>
AAADccByIAAAAAAAAAAAAAAAAAAAAAAAAAAwQAAAAAAAAACBAAAAHgAAAAAADAiBmAQywIMAAACIAiVSUACCAAAhAgAIiAAIZMgIICLAkZGEIAhghgDIyYcQgAAOAAAAAAACAAAAAAAAAAQAAAAAAAAAAA==

> <PUBCHEM_IUPAC_OPENEYE_NAME>
1-methylquinolin-2-one

> <PUBCHEM_IUPAC_CAS_NAME>
1-methyl-2-quinolinone

> <PUBCHEM_IUPAC_NAME>
1-methylquinolin-2-one

> <PUBCHEM_IUPAC_SYSTEMATIC_NAME>
1-methylquinolin-2-one

> <PUBCHEM_IUPAC_TRADITIONAL_NAME>
1-methylcarbostyril

> <PUBCHEM_IUPAC_INCHI>
InChI=1S/C10H9NO/c1-11-9-5-3-2-4-8(9)6-7-10(11)12/h2-7H,1H3

> <PUBCHEM_IUPAC_INCHIKEY>
QYEMNJMSULGQRD-UHFFFAOYSA-N

> <PUBCHEM_XLOGP3>
1.4

> <PUBCHEM_EXACT_MASS>
159.068414

> <PUBCHEM_MOLECULAR_FORMULA>
C10H9NO

> <PUBCHEM_MOLECULAR_WEIGHT>
159.18456

> <PUBCHEM_OPENEYE_CAN_SMILES>
CN1C(=O)C=CC2=CC=CC=C21

> <PUBCHEM_OPENEYE_ISO_SMILES>
CN1C(=O)C=CC2=CC=CC=C21

> <PUBCHEM_CACTVS_TPSA>
20.3

> <PUBCHEM_MONOISOTOPIC_WEIGHT>
159.068414

> <PUBCHEM_TOTAL_CHARGE>
0

> <PUBCHEM_HEAVY_ATOM_COUNT>
12

> <PUBCHEM_ATOM_DEF_STEREO_COUNT>
0

> <PUBCHEM_ATOM_UDEF_STEREO_COUNT>
0

> <PUBCHEM_BOND_DEF_STEREO_COUNT>
0

> <PUBCHEM_BOND_UDEF_STEREO_COUNT>
0

> <PUBCHEM_ISOTOPIC_ATOM_COUNT>
0

> <PUBCHEM_COMPONENT_COUNT>
1

> <PUBCHEM_CACTVS_TAUTO_COUNT>
1

> <PUBCHEM_COORDINATE_TYPE>
1
5
255

> <PUBCHEM_BONDANNOTATIONS>
11  12  8
2  3  8
2  7  8
3  4  8
3  6  8
4  5  8
4  8  8
5  9  8
6  11  8
7  9  8
8  12  8

$$$$

