28213
  -OEChem-07051213132D

 29 28  0     0  0  0  0  0  0999 V2000
    7.1962   -0.4330    0.0000 S   0  0  0  0  0  0  0  0  0  0  0  0
    4.5981    0.0670    0.0000 S   0  0  0  0  0  0  0  0  0  0  0  0
    3.7320   -0.4330    0.0000 P   0  0  0  0  0  0  0  0  0  0  0  0
    7.6962    0.4330    0.0000 O   0  0  0  0  0  0  0  0  0  0  0  0
    6.6962   -1.2990    0.0000 O   0  0  0  0  0  0  0  0  0  0  0  0
    2.8660   -0.9330    0.0000 O   0  0  0  0  0  0  0  0  0  0  0  0
    3.2320    0.4330    0.0000 O   0  0  0  0  0  0  0  0  0  0  0  0
    4.2320   -1.2990    0.0000 O   0  0  0  0  0  0  0  0  0  0  0  0
    6.3301    0.0670    0.0000 C   0  0  0  0  0  0  0  0  0  0  0  0
    8.0622   -0.9330    0.0000 C   0  0  0  0  0  0  0  0  0  0  0  0
    5.4641   -0.4330    0.0000 C   0  0  0  0  0  0  0  0  0  0  0  0
    8.9282   -0.4330    0.0000 C   0  0  0  0  0  0  0  0  0  0  0  0
    2.0000   -0.4330    0.0000 C   0  0  0  0  0  0  0  0  0  0  0  0
    3.7320    1.2990    0.0000 C   0  0  0  0  0  0  0  0  0  0  0  0
    6.7287    0.5419    0.0000 H   0  0  0  0  0  0  0  0  0  0  0  0
    5.9316    0.5419    0.0000 H   0  0  0  0  0  0  0  0  0  0  0  0
    7.6636   -1.4080    0.0000 H   0  0  0  0  0  0  0  0  0  0  0  0
    8.4607   -1.4080    0.0000 H   0  0  0  0  0  0  0  0  0  0  0  0
    5.0656   -0.9080    0.0000 H   0  0  0  0  0  0  0  0  0  0  0  0
    5.8626   -0.9080    0.0000 H   0  0  0  0  0  0  0  0  0  0  0  0
    9.2382   -0.9699    0.0000 H   0  0  0  0  0  0  0  0  0  0  0  0
    9.4651   -0.1230    0.0000 H   0  0  0  0  0  0  0  0  0  0  0  0
    8.6182    0.1039    0.0000 H   0  0  0  0  0  0  0  0  0  0  0  0
    2.3100    0.1039    0.0000 H   0  0  0  0  0  0  0  0  0  0  0  0
    1.4631   -0.1230    0.0000 H   0  0  0  0  0  0  0  0  0  0  0  0
    1.6900   -0.9699    0.0000 H   0  0  0  0  0  0  0  0  0  0  0  0
    4.2690    0.9890    0.0000 H   0  0  0  0  0  0  0  0  0  0  0  0
    4.0420    1.8360    0.0000 H   0  0  0  0  0  0  0  0  0  0  0  0
    3.1951    1.6090    0.0000 H   0  0  0  0  0  0  0  0  0  0  0  0
  1  4  2  0  0  0  0
  1  5  2  0  0  0  0
  1  9  1  0  0  0  0
  1 10  1  0  0  0  0
  2  3  1  0  0  0  0
  2 11  1  0  0  0  0
  3  6  1  0  0  0  0
  3  7  1  0  0  0  0
  3  8  2  0  0  0  0
  6 13  1  0  0  0  0
  7 14  1  0  0  0  0
  9 11  1  0  0  0  0
  9 15  1  0  0  0  0
  9 16  1  0  0  0  0
 10 12  1  0  0  0  0
 10 17  1  0  0  0  0
 10 18  1  0  0  0  0
 11 19  1  0  0  0  0
 11 20  1  0  0  0  0
 12 21  1  0  0  0  0
 12 22  1  0  0  0  0
 12 23  1  0  0  0  0
 13 24  1  0  0  0  0
 13 25  1  0  0  0  0
 13 26  1  0  0  0  0
 14 27  1  0  0  0  0
 14 28  1  0  0  0  0
 14 29  1  0  0  0  0
M  END
> <PUBCHEM_COMPOUND_CID>
28213

> <PUBCHEM_COMPOUND_CANONICALIZED>
1

> <PUBCHEM_CACTVS_COMPLEXITY>
286

> <PUBCHEM_CACTVS_HBOND_ACCEPTOR>
6

> <PUBCHEM_CACTVS_HBOND_DONOR>
0

> <PUBCHEM_CACTVS_ROTATABLE_BOND>
7

> <PUBCHEM_CACTVS_SUBSKEYS>
AAADccBgOAJgAAAAAAAAAAAAAAAAAAAAAAAAAAAAAAAAAAAAAAAAGgQAACAAAACEQAKCAAAAARoAQAAAAPBAAAAAABAAAAAAAAAAAAAAAAAAAAAAAAAgAAAAAAAAAAAAAAAAAAAAAAAAAAAAAAAAAAAAAA==

> <PUBCHEM_IUPAC_OPENEYE_NAME>
1-dimethoxyphosphorylsulfanyl-2-ethylsulfonyl-ethane

> <PUBCHEM_IUPAC_CAS_NAME>
1-(dimethoxyphosphorylthio)-2-ethylsulfonylethane

> <PUBCHEM_IUPAC_NAME>
1-dimethoxyphosphorylsulfanyl-2-ethylsulfonylethane

> <PUBCHEM_IUPAC_SYSTEMATIC_NAME>
1-dimethoxyphosphorylsulfanyl-2-ethylsulfonyl-ethane

> <PUBCHEM_IUPAC_TRADITIONAL_NAME>
1-(dimethoxyphosphorylthio)-2-esyl-ethane

> <PUBCHEM_IUPAC_INCHI>
InChI=1S/C6H15O5PS2/c1-4-14(8,9)6-5-13-12(7,10-2)11-3/h4-6H2,1-3H3

> <PUBCHEM_IUPAC_INCHIKEY>
PZIRJMYRYORVIT-UHFFFAOYSA-N

> <PUBCHEM_XLOGP3_AA>
-0.3

> <PUBCHEM_EXACT_MASS>
262.009852

> <PUBCHEM_MOLECULAR_FORMULA>
C6H15O5PS2

> <PUBCHEM_MOLECULAR_WEIGHT>
262.284062

> <PUBCHEM_OPENEYE_CAN_SMILES>
CCS(=O)(=O)CCSP(=O)(OC)OC

> <PUBCHEM_OPENEYE_ISO_SMILES>
CCS(=O)(=O)CCSP(=O)(OC)OC

> <PUBCHEM_CACTVS_TPSA>
103

> <PUBCHEM_MONOISOTOPIC_WEIGHT>
262.009852

> <PUBCHEM_TOTAL_CHARGE>
0

> <PUBCHEM_HEAVY_ATOM_COUNT>
14

> <PUBCHEM_ATOM_DEF_STEREO_COUNT>
0

> <PUBCHEM_ATOM_UDEF_STEREO_COUNT>
0

> <PUBCHEM_BOND_DEF_STEREO_COUNT>
0

> <PUBCHEM_BOND_UDEF_STEREO_COUNT>
0

> <PUBCHEM_ISOTOPIC_ATOM_COUNT>
0

> <PUBCHEM_COMPONENT_COUNT>
1

> <PUBCHEM_CACTVS_TAUTO_COUNT>
1

> <PUBCHEM_COORDINATE_TYPE>
1
5
255

$$$$

