442884
  -OEChem-07051213003D

 45 48  0     1  0  0  0  0  0999 V2000
   -3.3527   -0.5473    2.4408 O   0  0  0  0  0  0  0  0  0  0  0  0
    1.5027    2.4626    0.6350 O   0  0  0  0  0  0  0  0  0  0  0  0
    3.7323    2.3013    1.1845 O   0  0  0  0  0  0  0  0  0  0  0  0
   -1.7560   -1.3353    0.9545 N   0  0  0  0  0  0  0  0  0  0  0  0
   -1.6689   -0.6384   -1.3204 N   0  0  0  0  0  0  0  0  0  0  0  0
    4.9734    0.5904   -0.5914 N   0  0  0  0  0  0  0  0  0  0  0  0
   -0.0002   -2.2149   -0.3667 C   0  0  1  0  0  0  0  0  0  0  0  0
   -0.1708   -3.0501    0.9132 C   0  0  0  0  0  0  0  0  0  0  0  0
   -0.9918   -2.1759    1.8480 C   0  0  0  0  0  0  0  0  0  0  0  0
   -1.2106   -1.3208   -0.3245 C   0  0  0  0  0  0  0  0  0  0  0  0
    1.3143   -1.4674   -0.4221 C   0  0  0  0  0  0  0  0  0  0  0  0
   -2.8606   -0.5885    1.3194 C   0  0  0  0  0  0  0  0  0  0  0  0
   -3.4296    0.2047    0.1997 C   0  0  0  0  0  0  0  0  0  0  0  0
   -2.8136    0.1461   -1.0652 C   0  0  0  0  0  0  0  0  0  0  0  0
    1.4184   -0.1969    0.1432 C   0  0  0  0  0  0  0  0  0  0  0  0
    2.4202   -2.0500   -1.0398 C   0  0  0  0  0  0  0  0  0  0  0  0
    2.6301    0.4919    0.0907 C   0  0  0  0  0  0  0  0  0  0  0  0
    3.6320   -1.3613   -1.0922 C   0  0  0  0  0  0  0  0  0  0  0  0
    3.7371   -0.0902   -0.5272 C   0  0  0  0  0  0  0  0  0  0  0  0
   -4.5616    0.9983    0.4097 C   0  0  0  0  0  0  0  0  0  0  0  0
   -3.3573    0.8991   -2.1115 C   0  0  0  0  0  0  0  0  0  0  0  0
   -5.0878    1.7407   -0.6463 C   0  0  0  0  0  0  0  0  0  0  0  0
   -4.4878    1.6916   -1.9036 C   0  0  0  0  0  0  0  0  0  0  0  0
    2.7072    1.8183    0.6898 C   0  0  0  0  0  0  0  0  0  0  0  0
    6.2308   -0.0882   -0.6103 C   0  0  0  0  0  0  0  0  0  0  0  0
    1.4507    3.7800    1.1928 C   0  0  0  0  0  0  0  0  0  0  0  0
   -0.0835   -2.8543   -1.2545 H   0  0  0  0  0  0  0  0  0  0  0  0
    0.7693   -3.3781    1.3677 H   0  0  0  0  0  0  0  0  0  0  0  0
   -0.7520   -3.9499    0.6720 H   0  0  0  0  0  0  0  0  0  0  0  0
   -1.6529   -2.7481    2.5055 H   0  0  0  0  0  0  0  0  0  0  0  0
   -0.3587   -1.5286    2.4642 H   0  0  0  0  0  0  0  0  0  0  0  0
    0.5666    0.2474    0.6493 H   0  0  0  0  0  0  0  0  0  0  0  0
    2.3501   -3.0395   -1.4836 H   0  0  0  0  0  0  0  0  0  0  0  0
    4.4710   -1.8403   -1.5885 H   0  0  0  0  0  0  0  0  0  0  0  0
   -5.0435    1.0500    1.3819 H   0  0  0  0  0  0  0  0  0  0  0  0
   -2.9018    0.8735   -3.0986 H   0  0  0  0  0  0  0  0  0  0  0  0
   -5.9671    2.3589   -0.4894 H   0  0  0  0  0  0  0  0  0  0  0  0
   -4.9005    2.2717   -2.7241 H   0  0  0  0  0  0  0  0  0  0  0  0
    4.9767    1.5693   -0.3277 H   0  0  0  0  0  0  0  0  0  0  0  0
    6.3068   -0.8181    0.2025 H   0  0  0  0  0  0  0  0  0  0  0  0
    7.0416    0.6358   -0.4790 H   0  0  0  0  0  0  0  0  0  0  0  0
    6.4020   -0.5925   -1.5665 H   0  0  0  0  0  0  0  0  0  0  0  0
    2.1385    4.4427    0.6594 H   0  0  0  0  0  0  0  0  0  0  0  0
    1.6935    3.7476    2.2590 H   0  0  0  0  0  0  0  0  0  0  0  0
    0.4325    4.1595    1.0745 H   0  0  0  0  0  0  0  0  0  0  0  0
  1 12  2  0  0  0  0
  2 24  1  0  0  0  0
  2 26  1  0  0  0  0
  3 24  2  0  0  0  0
  4  9  1  0  0  0  0
  4 10  1  0  0  0  0
  4 12  1  0  0  0  0
  5 10  2  0  0  0  0
  5 14  1  0  0  0  0
  6 19  1  0  0  0  0
  6 25  1  0  0  0  0
  6 39  1  0  0  0  0
  7  8  1  0  0  0  0
  7 10  1  0  0  0  0
  7 11  1  0  0  0  0
  7 27  1  0  0  0  0
  8  9  1  0  0  0  0
  8 28  1  0  0  0  0
  8 29  1  0  0  0  0
  9 30  1  0  0  0  0
  9 31  1  0  0  0  0
 11 15  2  0  0  0  0
 11 16  1  0  0  0  0
 12 13  1  0  0  0  0
 13 14  1  0  0  0  0
 13 20  2  0  0  0  0
 14 21  2  0  0  0  0
 15 17  1  0  0  0  0
 15 32  1  0  0  0  0
 16 18  2  0  0  0  0
 16 33  1  0  0  0  0
 17 19  2  0  0  0  0
 17 24  1  0  0  0  0
 18 19  1  0  0  0  0
 18 34  1  0  0  0  0
 20 22  1  0  0  0  0
 20 35  1  0  0  0  0
 21 23  1  0  0  0  0
 21 36  1  0  0  0  0
 22 23  2  0  0  0  0
 22 37  1  0  0  0  0
 23 38  1  0  0  0  0
 25 40  1  0  0  0  0
 25 41  1  0  0  0  0
 25 42  1  0  0  0  0
 26 43  1  0  0  0  0
 26 44  1  0  0  0  0
 26 45  1  0  0  0  0
M  END
> <PUBCHEM_COMPOUND_CID>
442884

> <PUBCHEM_CONFORMER_RMSD>
0.8

> <PUBCHEM_CONFORMER_DIVERSEORDER>
1
31
22
5
3
26
23
33
11
17
20
35
6
34
9
2
21
12
8
36
30
16
15
10
27
19
25
29
28
13
24
4
18
32
7
14

> <PUBCHEM_MMFF94_PARTIAL_CHARGES>
33
1 -0.57
10 0.45
11 -0.14
12 0.54
13 0.09
14 0.18
15 -0.15
16 -0.15
17 0.09
18 -0.15
19 0.1
2 -0.43
20 -0.15
21 -0.15
22 -0.15
23 -0.15
24 0.63
25 0.37
26 0.28
3 -0.57
32 0.15
33 0.15
34 0.15
35 0.15
36 0.15
37 0.15
38 0.15
39 0.4
4 -0.42
5 -0.63
6 -0.87
7 0.2
9 0.3

> <PUBCHEM_EFFECTIVE_ROTOR_COUNT>
4.6

> <PUBCHEM_PHARMACOPHORE_FEATURES>
8
1 1 acceptor
1 3 acceptor
1 6 cation
1 6 donor
5 4 7 8 9 10 rings
6 11 15 16 17 18 19 rings
6 13 14 20 21 22 23 rings
6 4 5 10 12 13 14 rings

> <PUBCHEM_HEAVY_ATOM_COUNT>
26

> <PUBCHEM_ATOM_DEF_STEREO_COUNT>
0

> <PUBCHEM_ATOM_UDEF_STEREO_COUNT>
1

> <PUBCHEM_BOND_DEF_STEREO_COUNT>
0

> <PUBCHEM_BOND_UDEF_STEREO_COUNT>
0

> <PUBCHEM_ISOTOPIC_ATOM_COUNT>
0

> <PUBCHEM_COMPONENT_COUNT>
1

> <PUBCHEM_CACTVS_TAUTO_COUNT>
6

> <PUBCHEM_CONFORMER_ID>
0006C20400000001

> <PUBCHEM_MMFF94_ENERGY>
89.4502

> <PUBCHEM_FEATURE_SELFOVERLAP>
40.727

> <PUBCHEM_SHAPE_FINGERPRINT>
10165383 225 18131062770878984583
10366900 7 18201161044081705405
11595378 159 15195285378273959509
11640471 11 16371826548191801955
11725454 13 18201162143562087199
12100795 323 18053391998004136237
12403259 415 18411979131084153963
12596602 18 14692273024786908461
12769317 202 18340777051576628647
12788726 201 18264489662741406888
13402501 40 18342177790667631653
13583140 156 18411411791801510275
13726171 33 17058622222890773772
13761468 95 16398604819127595820
14341114 328 14476945813932257102
14347329 18 17989209265400437436
14931854 50 18263367056283618685
15295992 7 18343305876733660363
18219364 16 18412256225310338787
20554085 129 17417265337461178797
20567600 254 17917441955569793247
21033648 144 18115590340305723708
21033648 29 18272092681877243964
21475661 188 18342744030845439949
22122407 14 17971175162235246657
23536364 44 17762331822835872294
238 59 18262534644729817181
25 1 18410858797349769783
25019877 29 14723775892944425372
350125 39 18046897191535066958
3524813 1 18271810154723138981
4169191 19 17606120585990964920
474 4 18259707800129161203
508706 21 18201158741615321967
5265222 85 17631147738339615366
574716 61 17676500444836537157
7226269 152 18412545423297526640
7399639 24 17471290648297288002
7808743 9 17774993549469395118
9981440 41 17392788885096469888

> <PUBCHEM_SHAPE_MULTIPOLES>
502.52
10.56
3.26
1.78
2.85
1.23
0.19
5.39
-3.29
1.24
1.38
-1.65
0.02
2.51

> <PUBCHEM_SHAPE_SELFOVERLAP>
1110.268

> <PUBCHEM_SHAPE_VOLUME>
270.8

> <PUBCHEM_COORDINATE_TYPE>
2
5
10

$$$$

