7059596
  -OEChem-07051213113D

 30 30  0     1  0  0  0  0  0999 V2000
   -0.3464    2.2040   -1.1731 O   0  0  0  0  0  0  0  0  0  0  0  0
   -2.0008   -0.8119    0.2346 N   0  0  0  0  0  0  0  0  0  0  0  0
   -1.7553    0.6214    0.0310 C   0  0  2  0  0  0  0  0  0  0  0  0
   -0.5652    0.8106   -0.9365 C   0  0  2  0  0  0  0  0  0  0  0  0
   -1.5068    1.2570    1.4002 C   0  0  0  0  0  0  0  0  0  0  0  0
    0.7392    0.2460   -0.4155 C   0  0  0  0  0  0  0  0  0  0  0  0
   -2.2448   -1.4695   -1.0464 C   0  0  0  0  0  0  0  0  0  0  0  0
   -3.1307   -1.0076    1.1386 C   0  0  0  0  0  0  0  0  0  0  0  0
    1.5732    1.0557    0.3356 C   0  0  0  0  0  0  0  0  0  0  0  0
    1.0686   -1.0675   -0.7013 C   0  0  0  0  0  0  0  0  0  0  0  0
    2.7751    0.5355    0.8159 C   0  0  0  0  0  0  0  0  0  0  0  0
    2.2704   -1.5876   -0.2209 C   0  0  0  0  0  0  0  0  0  0  0  0
    3.1236   -0.7861    0.5377 C   0  0  0  0  0  0  0  0  0  0  0  0
   -2.6305    1.1185   -0.4111 H   0  0  0  0  0  0  0  0  0  0  0  0
   -0.7767    0.4148   -1.9338 H   0  0  0  0  0  0  0  0  0  0  0  0
   -2.4350    1.3691    1.9717 H   0  0  0  0  0  0  0  0  0  0  0  0
   -0.7995    0.6861    2.0125 H   0  0  0  0  0  0  0  0  0  0  0  0
   -1.1084    2.2722    1.2939 H   0  0  0  0  0  0  0  0  0  0  0  0
   -2.4297   -2.5378   -0.8763 H   0  0  0  0  0  0  0  0  0  0  0  0
   -1.4445   -1.4468   -1.7811 H   0  0  0  0  0  0  0  0  0  0  0  0
   -3.1399   -1.0640   -1.5353 H   0  0  0  0  0  0  0  0  0  0  0  0
   -3.4059   -2.0689    1.1794 H   0  0  0  0  0  0  0  0  0  0  0  0
   -4.0216   -0.4496    0.8273 H   0  0  0  0  0  0  0  0  0  0  0  0
   -2.8841   -0.7464    2.1726 H   0  0  0  0  0  0  0  0  0  0  0  0
    1.3264    2.0848    0.5778 H   0  0  0  0  0  0  0  0  0  0  0  0
    0.4607   -1.7135   -1.3177 H   0  0  0  0  0  0  0  0  0  0  0  0
    0.3469    2.2889   -1.8505 H   0  0  0  0  0  0  0  0  0  0  0  0
    3.4388    1.1587    1.4081 H   0  0  0  0  0  0  0  0  0  0  0  0
    2.5468   -2.6138   -0.4448 H   0  0  0  0  0  0  0  0  0  0  0  0
    4.0600   -1.1907    0.9104 H   0  0  0  0  0  0  0  0  0  0  0  0
  1  4  1  0  0  0  0
  1 27  1  0  0  0  0
  2  3  1  0  0  0  0
  2  7  1  0  0  0  0
  2  8  1  0  0  0  0
  3  4  1  0  0  0  0
  3  5  1  0  0  0  0
  3 14  1  0  0  0  0
  4  6  1  0  0  0  0
  4 15  1  0  0  0  0
  5 16  1  0  0  0  0
  5 17  1  0  0  0  0
  5 18  1  0  0  0  0
  6  9  2  0  0  0  0
  6 10  1  0  0  0  0
  7 19  1  0  0  0  0
  7 20  1  0  0  0  0
  7 21  1  0  0  0  0
  8 22  1  0  0  0  0
  8 23  1  0  0  0  0
  8 24  1  0  0  0  0
  9 11  1  0  0  0  0
  9 25  1  0  0  0  0
 10 12  2  0  0  0  0
 10 26  1  0  0  0  0
 11 13  2  0  0  0  0
 11 28  1  0  0  0  0
 12 13  1  0  0  0  0
 12 29  1  0  0  0  0
 13 30  1  0  0  0  0
M  END
> <PUBCHEM_COMPOUND_CID>
7059596

> <PUBCHEM_CONFORMER_RMSD>
0.6

> <PUBCHEM_CONFORMER_DIVERSEORDER>
2
1
3
4

> <PUBCHEM_MMFF94_PARTIAL_CHARGES>
18
1 -0.68
10 -0.15
11 -0.15
12 -0.15
13 -0.15
2 -0.81
25 0.15
26 0.15
27 0.4
28 0.15
29 0.15
3 0.27
30 0.15
4 0.42
6 -0.14
7 0.27
8 0.27
9 -0.15

> <PUBCHEM_EFFECTIVE_ROTOR_COUNT>
3

> <PUBCHEM_PHARMACOPHORE_FEATURES>
4
1 1 acceptor
1 1 donor
1 2 cation
6 6 9 10 11 12 13 rings

> <PUBCHEM_HEAVY_ATOM_COUNT>
13

> <PUBCHEM_ATOM_DEF_STEREO_COUNT>
2

> <PUBCHEM_ATOM_UDEF_STEREO_COUNT>
0

> <PUBCHEM_BOND_DEF_STEREO_COUNT>
0

> <PUBCHEM_BOND_UDEF_STEREO_COUNT>
0

> <PUBCHEM_ISOTOPIC_ATOM_COUNT>
0

> <PUBCHEM_COMPONENT_COUNT>
1

> <PUBCHEM_CACTVS_TAUTO_COUNT>
1

> <PUBCHEM_CONFORMER_ID>
006BB88C00000002

> <PUBCHEM_MMFF94_ENERGY>
44.7921

> <PUBCHEM_FEATURE_SELFOVERLAP>
20.297

> <PUBCHEM_SHAPE_FINGERPRINT>
11031198 65 6771603481128082347
11132069 177 18261405407744259346
11471102 22 18335138683167259322
12138202 97 17699870693022646684
12251169 10 18186518821405645722
12382932 28 18188489210798881808
12423570 1 8158238426928237037
12696612 119 18260265248424570680
13764800 53 13840258170178303075
15076042 46 17749664211584813401
16945 1 18113898234464473988
17844478 74 18411983580923460604
20361792 2 17632287965307057359
20711985 344 17773334506582165653
21028194 46 6699811990189047621
22445834 79 18261387870928754595
23388829 49 18191873309968095509
23557571 272 12965985811335793205
2748010 2 18191313873640820326
305870 269 6338966507553789284
369184 2 17822299006356739433
5084963 1 18410303509997468224
81228 2 17987527068275735845

> <PUBCHEM_SHAPE_MULTIPOLES>
256.68
4.64
1.85
1.24
0.46
0.11
0.03
-1.68
1.68
-0.23
-0.3
-0.56
0.25
0.03

> <PUBCHEM_SHAPE_SELFOVERLAP>
520.663

> <PUBCHEM_SHAPE_VOLUME>
151.3

> <PUBCHEM_COORDINATE_TYPE>
2
5
10

$$$$

