443250
  -OEChem-07051213013D

 16 15  0     1  0  0  0  0  0999 V2000
    1.8916    0.0485    0.0458 S   0  0  0  0  0  0  0  0  0  0  0  0
   -0.6509   -1.5935    0.2646 O   0  0  0  0  0  0  0  0  0  0  0  0
    2.6826    0.7890   -1.1730 O   0  0  0  0  0  0  0  0  0  0  0  0
    2.0410   -1.3869   -0.1033 O   0  0  0  0  0  0  0  0  0  0  0  0
    2.2148    0.7220    1.2896 O   0  0  0  0  0  0  0  0  0  0  0  0
   -2.4279    1.5043    0.1936 O   0  0  0  0  0  0  0  0  0  0  0  0
   -3.0203   -0.5849   -0.4828 O   0  0  0  0  0  0  0  0  0  0  0  0
    0.2533    0.5047   -0.4362 C   0  0  0  0  0  0  0  0  0  0  0  0
   -0.7934   -0.1883    0.4217 C   0  0  1  0  0  0  0  0  0  0  0  0
   -2.1909    0.1851   -0.0199 C   0  0  0  0  0  0  0  0  0  0  0  0
    0.1410    0.2058   -1.4850 H   0  0  0  0  0  0  0  0  0  0  0  0
    0.1770    1.5943   -0.3701 H   0  0  0  0  0  0  0  0  0  0  0  0
   -0.6713    0.0469    1.4843 H   0  0  0  0  0  0  0  0  0  0  0  0
   -1.2576   -2.0214    0.8927 H   0  0  0  0  0  0  0  0  0  0  0  0
    2.5890    0.3659   -2.0589 H   0  0  0  0  0  0  0  0  0  0  0  0
   -3.3355    1.7612   -0.0757 H   0  0  0  0  0  0  0  0  0  0  0  0
  1  3  1  0  0  0  0
  1  4  2  0  0  0  0
  1  5  2  0  0  0  0
  1  8  1  0  0  0  0
  2  9  1  0  0  0  0
  2 14  1  0  0  0  0
  3 15  1  0  0  0  0
  6 10  1  0  0  0  0
  6 16  1  0  0  0  0
  7 10  2  0  0  0  0
  8  9  1  0  0  0  0
  8 11  1  0  0  0  0
  8 12  1  0  0  0  0
  9 10  1  0  0  0  0
  9 13  1  0  0  0  0
M  END
> <PUBCHEM_COMPOUND_CID>
443250

> <PUBCHEM_CONFORMER_RMSD>
0.6

> <PUBCHEM_CONFORMER_DIVERSEORDER>
1
3
2
4
5

> <PUBCHEM_MMFF94_PARTIAL_CHARGES>
13
1 1.38
10 0.66
14 0.4
15 0.5
16 0.5
2 -0.68
3 -0.68
4 -0.65
5 -0.65
6 -0.65
7 -0.57
8 0.11
9 0.34

> <PUBCHEM_EFFECTIVE_ROTOR_COUNT>
3

> <PUBCHEM_PHARMACOPHORE_FEATURES>
9
1 2 acceptor
1 2 donor
1 3 acceptor
1 4 acceptor
1 5 acceptor
1 6 acceptor
1 7 acceptor
3 6 7 10 anion
4 1 3 4 5 anion

> <PUBCHEM_HEAVY_ATOM_COUNT>
10

> <PUBCHEM_ATOM_DEF_STEREO_COUNT>
1

> <PUBCHEM_ATOM_UDEF_STEREO_COUNT>
0

> <PUBCHEM_BOND_DEF_STEREO_COUNT>
0

> <PUBCHEM_BOND_UDEF_STEREO_COUNT>
0

> <PUBCHEM_ISOTOPIC_ATOM_COUNT>
0

> <PUBCHEM_COMPONENT_COUNT>
1

> <PUBCHEM_CACTVS_TAUTO_COUNT>
1

> <PUBCHEM_CONFORMER_ID>
0006C37200000001

> <PUBCHEM_MMFF94_ENERGY>
5.6761

> <PUBCHEM_FEATURE_SELFOVERLAP>
45.794

> <PUBCHEM_SHAPE_FINGERPRINT>
12897270 3 17967535666317839613
12932741 1 17676763172016937878
12932764 1 17967530173007175663
14325111 11 18411980286562251261
14390081 3 18260271845288739073
15310529 11 17531256045170036093
19973954 147 18041000656566893241
21040471 1 18411981355872035922
23235685 24 18343301444443247580
23552423 10 18271524315980605435
3248919 1 18131353003104088049
369184 2 17967256399007040595
5084963 1 18340770441553388071
8030462 33 18408602560913625215

> <PUBCHEM_SHAPE_MULTIPOLES>
174.43
4.39
1.3
0.89
0.76
0.23
0.06
-0.59
-0.44
0.12
0.03
-0.54
-0.18
-0.13

> <PUBCHEM_SHAPE_SELFOVERLAP>
324.925

> <PUBCHEM_SHAPE_VOLUME>
108.8

> <PUBCHEM_COORDINATE_TYPE>
2
5
10

$$$$

