18779
  -OEChem-07051213143D

 33 36  0     0  0  0  0  0  0999 V2000
    0.1485   -0.7103    0.0002 C   0  0  0  0  0  0  0  0  0  0  0  0
   -0.6306    0.4836    0.0002 C   0  0  0  0  0  0  0  0  0  0  0  0
    1.5922   -0.6483    0.0002 C   0  0  0  0  0  0  0  0  0  0  0  0
    2.2306    0.6149   -0.0002 C   0  0  0  0  0  0  0  0  0  0  0  0
   -2.0743    0.4215    0.0002 C   0  0  0  0  0  0  0  0  0  0  0  0
   -2.7129   -0.8416   -0.0003 C   0  0  0  0  0  0  0  0  0  0  0  0
    0.0698    1.7069    0.0002 C   0  0  0  0  0  0  0  0  0  0  0  0
   -0.5520   -1.9338    0.0000 C   0  0  0  0  0  0  0  0  0  0  0  0
    3.6329    0.7184   -0.0001 C   0  0  0  0  0  0  0  0  0  0  0  0
    1.4613    1.7736   -0.0002 C   0  0  0  0  0  0  0  0  0  0  0  0
   -1.9435   -2.0005   -0.0004 C   0  0  0  0  0  0  0  0  0  0  0  0
    2.4483   -1.7814    0.0005 C   0  0  0  0  0  0  0  0  0  0  0  0
   -2.9305    1.5547    0.0007 C   0  0  0  0  0  0  0  0  0  0  0  0
    4.4351   -0.4173    0.0000 C   0  0  0  0  0  0  0  0  0  0  0  0
    3.8421   -1.6692    0.0004 C   0  0  0  0  0  0  0  0  0  0  0  0
   -4.1152   -0.9450   -0.0005 C   0  0  0  0  0  0  0  0  0  0  0  0
    4.3398    2.0403   -0.0007 C   0  0  0  0  0  0  0  0  0  0  0  0
   -4.3243    1.4426    0.0004 C   0  0  0  0  0  0  0  0  0  0  0  0
   -4.9173    0.1907   -0.0002 C   0  0  0  0  0  0  0  0  0  0  0  0
   -0.4544    2.6591    0.0002 H   0  0  0  0  0  0  0  0  0  0  0  0
   -0.0285   -2.8863   -0.0001 H   0  0  0  0  0  0  0  0  0  0  0  0
    1.9028    2.7669   -0.0003 H   0  0  0  0  0  0  0  0  0  0  0  0
   -2.4142   -2.9820   -0.0007 H   0  0  0  0  0  0  0  0  0  0  0  0
    2.0462   -2.7911    0.0008 H   0  0  0  0  0  0  0  0  0  0  0  0
   -2.5284    2.5645    0.0012 H   0  0  0  0  0  0  0  0  0  0  0  0
    5.5192   -0.3463   -0.0001 H   0  0  0  0  0  0  0  0  0  0  0  0
    4.4573   -2.5643    0.0005 H   0  0  0  0  0  0  0  0  0  0  0  0
   -4.5981   -1.9207   -0.0010 H   0  0  0  0  0  0  0  0  0  0  0  0
    4.0836    2.6157    0.8952 H   0  0  0  0  0  0  0  0  0  0  0  0
    4.0835    2.6149   -0.8972 H   0  0  0  0  0  0  0  0  0  0  0  0
    5.4296    1.9237   -0.0007 H   0  0  0  0  0  0  0  0  0  0  0  0
   -4.9398    2.3374    0.0006 H   0  0  0  0  0  0  0  0  0  0  0  0
   -5.9987    0.0963   -0.0004 H   0  0  0  0  0  0  0  0  0  0  0  0
  1  2  2  0  0  0  0
  1  3  1  0  0  0  0
  1  8  1  0  0  0  0
  2  5  1  0  0  0  0
  2  7  1  0  0  0  0
  3  4  1  0  0  0  0
  3 12  2  0  0  0  0
  4  9  2  0  0  0  0
  4 10  1  0  0  0  0
  5  6  1  0  0  0  0
  5 13  2  0  0  0  0
  6 11  1  0  0  0  0
  6 16  2  0  0  0  0
  7 10  2  0  0  0  0
  7 20  1  0  0  0  0
  8 11  2  0  0  0  0
  8 21  1  0  0  0  0
  9 14  1  0  0  0  0
  9 17  1  0  0  0  0
 10 22  1  0  0  0  0
 11 23  1  0  0  0  0
 12 15  1  0  0  0  0
 12 24  1  0  0  0  0
 13 18  1  0  0  0  0
 13 25  1  0  0  0  0
 14 15  2  0  0  0  0
 14 26  1  0  0  0  0
 15 27  1  0  0  0  0
 16 19  1  0  0  0  0
 16 28  1  0  0  0  0
 17 29  1  0  0  0  0
 17 30  1  0  0  0  0
 17 31  1  0  0  0  0
 18 19  2  0  0  0  0
 18 32  1  0  0  0  0
 19 33  1  0  0  0  0
M  END
> <PUBCHEM_COMPOUND_CID>
18779

> <PUBCHEM_CONFORMER_RMSD>
0.4

> <PUBCHEM_CONFORMER_DIVERSEORDER>
1

> <PUBCHEM_MMFF94_PARTIAL_CHARGES>
24
10 -0.15
11 -0.15
12 -0.15
13 -0.15
14 -0.15
15 -0.15
16 -0.15
17 0.14
18 -0.15
19 -0.15
20 0.15
21 0.15
22 0.15
23 0.15
24 0.15
25 0.15
26 0.15
27 0.15
28 0.15
32 0.15
33 0.15
7 -0.15
8 -0.15
9 -0.14

> <PUBCHEM_EFFECTIVE_ROTOR_COUNT>
0

> <PUBCHEM_PHARMACOPHORE_FEATURES>
4
6 1 2 3 4 7 10 rings
6 1 2 5 6 8 11 rings
6 3 4 9 12 14 15 rings
6 5 6 13 16 18 19 rings

> <PUBCHEM_HEAVY_ATOM_COUNT>
19

> <PUBCHEM_ATOM_DEF_STEREO_COUNT>
0

> <PUBCHEM_ATOM_UDEF_STEREO_COUNT>
0

> <PUBCHEM_BOND_DEF_STEREO_COUNT>
0

> <PUBCHEM_BOND_UDEF_STEREO_COUNT>
0

> <PUBCHEM_ISOTOPIC_ATOM_COUNT>
0

> <PUBCHEM_COMPONENT_COUNT>
1

> <PUBCHEM_CACTVS_TAUTO_COUNT>
1

> <PUBCHEM_CONFORMER_ID>
0000495B00000001

> <PUBCHEM_MMFF94_ENERGY>
73.2165

> <PUBCHEM_FEATURE_SELFOVERLAP>
20.367

> <PUBCHEM_SHAPE_FINGERPRINT>
10062212 137 18333739022081983695
10411042 1 17041761461878111531
10608611 8 18410295787424866824
10616163 171 18265893553741896638
10967382 1 18410856585457092102
1100329 8 16753532210437274819
11132069 177 18410016549994066808
11471102 20 18410577283934267396
11578080 2 16880206494292108747
12107183 9 17760646271098736025
12236239 1 17967252005735622549
12403259 226 18337678525279382513
12403259 415 18272936067900141789
12403814 3 17775291555817588333
12788726 201 17676475189991415848
13140716 1 18339922713746127947
13675066 3 18202559570894635841
138480 1 17834394905425824354
13862211 1 18410862100237759403
14178342 30 18048898298666104130
14341114 176 18341040866138370051
14790565 3 18265044907249640633
14866123 147 17035557999793156330
15196674 1 18410573985183125639
15375358 24 18408885126838604078
15442244 35 18410293657142018162
15536298 74 18407760339465252746
16945 1 18194402186601119303
17492 89 18410011000870998903
17804303 29 18409727361467231933
1813 80 17060619996989771836
18186145 218 17846502555734810326
19591789 44 18268149931906043895
200 152 17967819340650089125
20510252 161 18333729139351699353
20645477 70 18334574668019848038
21267235 1 18410566306035197730
21279426 13 18194119844067278653
21421861 104 17916317193876951994
21452121 103 18334586707361655672
221490 88 18341324483755375595
23402539 116 18261119594570998567
23402655 69 18334577940494530244
23463225 33 18411699902459806542
23559900 14 18334859467728597798
2748010 2 18411135852778479734
3004659 81 18342737451387799222
335352 9 18338799038954059118
34934 24 18337114471302665986
350125 39 18411701015484252516
3545911 37 18410853243977934004
4214541 1 18410574011164101377
474 4 17631728258360127228
495365 180 17458358415922258194
5104073 3 18411699880789727171
69090 78 18408606963403075919
7364860 26 18335421223454101688
77779 3 18410855468850004171
9709674 26 18410288086359010335
9981440 41 17405427698096280200

> <PUBCHEM_SHAPE_MULTIPOLES>
391.01
9.39
2.33
0.62
1.3
0.06
0
-1.38
0
-0.7
0
0
0
0

> <PUBCHEM_SHAPE_SELFOVERLAP>
894.669

> <PUBCHEM_SHAPE_VOLUME>
186.5

> <PUBCHEM_COORDINATE_TYPE>
2
5
10

$$$$

