92119
  -OEChem-07051212573D

 36 38  0     1  0  0  0  0  0999 V2000
   -1.4790    1.5552   -0.3675 O   0  0  0  0  0  0  0  0  0  0  0  0
    1.1485    2.9369   -0.1201 O   0  0  0  0  0  0  0  0  0  0  0  0
   -3.4254    1.4792    0.8561 O   0  0  0  0  0  0  0  0  0  0  0  0
    0.7093    0.5284    0.0605 C   0  0  2  0  0  0  0  0  0  0  0  0
    1.7329   -0.5177   -0.4494 C   0  0  2  0  0  0  0  0  0  0  0  0
   -0.5214    0.5926   -0.8759 C   0  0  1  0  0  0  0  0  0  0  0  0
   -1.3531   -0.6735   -1.1133 C   0  0  1  0  0  0  0  0  0  0  0  0
    1.6008   -1.9706    0.0445 C   0  0  2  0  0  0  0  0  0  0  0  0
   -0.6482   -2.0325   -1.2356 C   0  0  0  0  0  0  0  0  0  0  0  0
    0.1587   -2.5095   -0.0261 C   0  0  0  0  0  0  0  0  0  0  0  0
    1.5649    1.7880   -0.0824 C   0  0  0  0  0  0  0  0  0  0  0  0
    0.3699    0.4742    1.5604 C   0  0  0  0  0  0  0  0  0  0  0  0
    3.0689    0.1445   -0.2546 C   0  0  0  0  0  0  0  0  0  0  0  0
   -2.4179   -0.5077   -0.0804 C   0  0  0  0  0  0  0  0  0  0  0  0
    3.0024    1.4671   -0.0956 C   0  0  0  0  0  0  0  0  0  0  0  0
    2.2082   -2.2736    1.4189 C   0  0  0  0  0  0  0  0  0  0  0  0
   -2.5419    0.9331    0.2209 C   0  0  0  0  0  0  0  0  0  0  0  0
   -3.1774   -1.4140    0.5395 C   0  0  0  0  0  0  0  0  0  0  0  0
    1.6386   -0.5746   -1.5464 H   0  0  0  0  0  0  0  0  0  0  0  0
   -0.1977    0.9759   -1.8532 H   0  0  0  0  0  0  0  0  0  0  0  0
   -1.8714   -0.5254   -2.0741 H   0  0  0  0  0  0  0  0  0  0  0  0
    2.1886   -2.5732   -0.6652 H   0  0  0  0  0  0  0  0  0  0  0  0
   -0.0131   -2.0357   -2.1302 H   0  0  0  0  0  0  0  0  0  0  0  0
   -1.4193   -2.7895   -1.4338 H   0  0  0  0  0  0  0  0  0  0  0  0
   -0.3862   -2.3080    0.9004 H   0  0  0  0  0  0  0  0  0  0  0  0
    0.2260   -3.6051   -0.0801 H   0  0  0  0  0  0  0  0  0  0  0  0
    1.2743    0.4455    2.1788 H   0  0  0  0  0  0  0  0  0  0  0  0
   -0.1753    1.3717    1.8769 H   0  0  0  0  0  0  0  0  0  0  0  0
   -0.2451   -0.3860    1.8265 H   0  0  0  0  0  0  0  0  0  0  0  0
    4.0065   -0.3886   -0.3407 H   0  0  0  0  0  0  0  0  0  0  0  0
    3.8080    2.1738   -0.0077 H   0  0  0  0  0  0  0  0  0  0  0  0
    2.1833   -3.3527    1.6102 H   0  0  0  0  0  0  0  0  0  0  0  0
    3.2557   -1.9634    1.4763 H   0  0  0  0  0  0  0  0  0  0  0  0
    1.6630   -1.7929    2.2336 H   0  0  0  0  0  0  0  0  0  0  0  0
   -3.0843   -2.4713    0.3176 H   0  0  0  0  0  0  0  0  0  0  0  0
   -3.9139   -1.1290    1.2834 H   0  0  0  0  0  0  0  0  0  0  0  0
  1  6  1  0  0  0  0
  1 17  1  0  0  0  0
  2 11  2  0  0  0  0
  3 17  2  0  0  0  0
  4  5  1  0  0  0  0
  4  6  1  0  0  0  0
  4 11  1  0  0  0  0
  4 12  1  0  0  0  0
  5  8  1  0  0  0  0
  5 13  1  0  0  0  0
  5 19  1  0  0  0  0
  6  7  1  0  0  0  0
  6 20  1  0  0  0  0
  7  9  1  0  0  0  0
  7 14  1  0  0  0  0
  7 21  1  0  0  0  0
  8 10  1  0  0  0  0
  8 16  1  0  0  0  0
  8 22  1  0  0  0  0
  9 10  1  0  0  0  0
  9 23  1  0  0  0  0
  9 24  1  0  0  0  0
 10 25  1  0  0  0  0
 10 26  1  0  0  0  0
 11 15  1  0  0  0  0
 12 27  1  0  0  0  0
 12 28  1  0  0  0  0
 12 29  1  0  0  0  0
 13 15  2  0  0  0  0
 13 30  1  0  0  0  0
 14 17  1  0  0  0  0
 14 18  2  0  0  0  0
 15 31  1  0  0  0  0
 16 32  1  0  0  0  0
 16 33  1  0  0  0  0
 16 34  1  0  0  0  0
 18 35  1  0  0  0  0
 18 36  1  0  0  0  0
M  END
> <PUBCHEM_COMPOUND_CID>
92119

> <PUBCHEM_CONFORMER_RMSD>
0.6

> <PUBCHEM_CONFORMER_DIVERSEORDER>
1
2

> <PUBCHEM_MMFF94_PARTIAL_CHARGES>
17
1 -0.43
11 0.49
13 -0.29
14 -0.12
15 -0.14
17 0.71
18 -0.3
2 -0.57
3 -0.57
30 0.15
31 0.15
35 0.15
36 0.15
4 0.06
5 0.14
6 0.28
7 0.14

> <PUBCHEM_EFFECTIVE_ROTOR_COUNT>
0.8

> <PUBCHEM_PHARMACOPHORE_FEATURES>
5
1 2 acceptor
1 3 acceptor
5 1 6 7 14 17 rings
5 4 5 11 13 15 rings
7 4 5 6 7 8 9 10 rings

> <PUBCHEM_HEAVY_ATOM_COUNT>
18

> <PUBCHEM_ATOM_DEF_STEREO_COUNT>
5

> <PUBCHEM_ATOM_UDEF_STEREO_COUNT>
0

> <PUBCHEM_BOND_DEF_STEREO_COUNT>
0

> <PUBCHEM_BOND_UDEF_STEREO_COUNT>
0

> <PUBCHEM_ISOTOPIC_ATOM_COUNT>
0

> <PUBCHEM_COMPONENT_COUNT>
1

> <PUBCHEM_CACTVS_TAUTO_COUNT>
3

> <PUBCHEM_CONFORMER_ID>
000167D700000001

> <PUBCHEM_MMFF94_ENERGY>
58.493

> <PUBCHEM_FEATURE_SELFOVERLAP>
25.446

> <PUBCHEM_SHAPE_FINGERPRINT>
10863032 1 18412539933569959387
10948715 1 18335413539245769768
10967382 1 18338233889660799437
10980938 120 18338514243630037660
12202030 40 16486970743184343099
12251169 10 18267301113530316851
12382932 28 18120383304348158618
12491281 212 18124590877902762164
12553582 1 17980203307180215434
12633257 1 18197773521691895995
12696612 119 18338238274801582455
12808571 1 18336261232646020567
13132413 78 18335435573002985338
13140716 1 18265902538844946578
13172582 1 18190190159587481382
13221675 6 18336826385975875526
14178342 30 18337403672551301592
14223421 5 18412823560562733583
14787075 74 17691684485615205831
15209289 33 18267019458280985270
15375462 189 18057884839006877458
15490181 7 18266190443334802348
15775835 57 18408315592605203621
16945 1 18191025612383556406
17990270 104 18337106894659024815
19591789 44 18411412908756472030
20511035 2 18115604766926836479
21501502 16 18411139177526395283
22344851 341 18408882923731423354
22445834 79 18412263917596752751
22802520 49 17758103809758369934
2334 1 18410300232684324398
23463225 33 18339645671233617262
2748010 2 18265060300147990526
353137 74 18122076311778709822
528862 383 18411984688645429246
528886 8 18409732876152550888
7364860 26 18336543923230455262
81228 2 17187574840945204144
90525 40 18260265243876409135

> <PUBCHEM_SHAPE_MULTIPOLES>
352.82
4.56
2.86
1.14
1.44
0.34
0.19
-0.82
0.72
-0.84
0.2
0.06
0.33
-0.65

> <PUBCHEM_SHAPE_SELFOVERLAP>
763.367

> <PUBCHEM_SHAPE_VOLUME>
194.3

> <PUBCHEM_COORDINATE_TYPE>
2
5
10

$$$$

