61220
  -OEChem-07051213132D

 24 22  0     0  0  0  0  0  0999 V2000
    5.1962    3.0000    0.0000 Cl  0  0  0  0  0  0  0  0  0  0  0  0
    0.0000    3.0000    0.0000 Cl  0  0  0  0  0  0  0  0  0  0  0  0
    1.7320    0.0000    0.0000 Cl  0  0  0  0  0  0  0  0  0  0  0  0
    2.0981    5.4750    0.0000 Cl  0  0  0  0  0  0  0  0  0  0  0  0
    2.5981    2.5000    0.0000 N   0  0  0  0  0  0  0  0  0  0  0  0
    3.4641    3.0000    0.0000 C   0  0  0  0  0  0  0  0  0  0  0  0
    1.7320    3.0000    0.0000 C   0  0  0  0  0  0  0  0  0  0  0  0
    2.5981    1.5000    0.0000 C   0  0  0  0  0  0  0  0  0  0  0  0
    4.3301    2.5000    0.0000 C   0  0  0  0  0  0  0  0  0  0  0  0
    0.8660    2.5000    0.0000 C   0  0  0  0  0  0  0  0  0  0  0  0
    1.7320    1.0000    0.0000 C   0  0  0  0  0  0  0  0  0  0  0  0
    3.8626    3.4750    0.0000 H   0  0  0  0  0  0  0  0  0  0  0  0
    3.0656    3.4750    0.0000 H   0  0  0  0  0  0  0  0  0  0  0  0
    2.1306    3.4750    0.0000 H   0  0  0  0  0  0  0  0  0  0  0  0
    1.3335    3.4750    0.0000 H   0  0  0  0  0  0  0  0  0  0  0  0
    2.8101    0.9174    0.0000 H   0  0  0  0  0  0  0  0  0  0  0  0
    3.2087    1.6077    0.0000 H   0  0  0  0  0  0  0  0  0  0  0  0
    3.9316    2.0250    0.0000 H   0  0  0  0  0  0  0  0  0  0  0  0
    4.7287    2.0250    0.0000 H   0  0  0  0  0  0  0  0  0  0  0  0
    0.4675    2.0250    0.0000 H   0  0  0  0  0  0  0  0  0  0  0  0
    1.2646    2.0250    0.0000 H   0  0  0  0  0  0  0  0  0  0  0  0
    1.5200    1.5826    0.0000 H   0  0  0  0  0  0  0  0  0  0  0  0
    1.1215    0.8923    0.0000 H   0  0  0  0  0  0  0  0  0  0  0  0
    3.0981    5.4750    0.0000 H   0  0  0  0  0  0  0  0  0  0  0  0
  1  9  1  0  0  0  0
  2 10  1  0  0  0  0
  3 11  1  0  0  0  0
  4 24  1  0  0  0  0
  5  6  1  0  0  0  0
  5  7  1  0  0  0  0
  5  8  1  0  0  0  0
  6  9  1  0  0  0  0
  6 12  1  0  0  0  0
  6 13  1  0  0  0  0
  7 10  1  0  0  0  0
  7 14  1  0  0  0  0
  7 15  1  0  0  0  0
  8 11  1  0  0  0  0
  8 16  1  0  0  0  0
  8 17  1  0  0  0  0
  9 18  1  0  0  0  0
  9 19  1  0  0  0  0
 10 20  1  0  0  0  0
 10 21  1  0  0  0  0
 11 22  1  0  0  0  0
 11 23  1  0  0  0  0
M  END
> <PUBCHEM_COMPOUND_CID>
61220

> <PUBCHEM_COMPOUND_CANONICALIZED>
1

> <PUBCHEM_CACTVS_COMPLEXITY>
55.7

> <PUBCHEM_CACTVS_HBOND_ACCEPTOR>
1

> <PUBCHEM_CACTVS_HBOND_DONOR>
1

> <PUBCHEM_CACTVS_ROTATABLE_BOND>
6

> <PUBCHEM_CACTVS_SUBSKEYS>
AAADccBiAAAHAAAAAAAAAAAAAAAAAAAAAAAAAAAAAAAAAAAAAAAAHAIAAAAAAAPBAEQAAAMAAAAAAAAAAAAAAAAAAAAAAAAIAAAAAAAAAABAAAAAAACAAAAAAAAAAAAAAAAAAAAAAAAAAAAAAAAAAAAAAA==

> <PUBCHEM_IUPAC_OPENEYE_NAME>
2-chloro-N,N-bis(2-chloroethyl)ethanamine hydrochloride

> <PUBCHEM_IUPAC_CAS_NAME>
2-chloro-N,N-bis(2-chloroethyl)ethanamine hydrochloride

> <PUBCHEM_IUPAC_NAME>
2-chloro-N,N-bis(2-chloroethyl)ethanamine hydrochloride

> <PUBCHEM_IUPAC_SYSTEMATIC_NAME>
2-chloranyl-N,N-bis(2-chloroethyl)ethanamine hydrochloride

> <PUBCHEM_IUPAC_TRADITIONAL_NAME>
tris(2-chloroethyl)amine hydrochloride

> <PUBCHEM_IUPAC_INCHI>
InChI=1S/C6H12Cl3N.ClH/c7-1-4-10(5-2-8)6-3-9;/h1-6H2;1H

> <PUBCHEM_IUPAC_INCHIKEY>
VEAUDLLZYJVHRI-UHFFFAOYSA-N

> <PUBCHEM_EXACT_MASS>
240.97726

> <PUBCHEM_MOLECULAR_FORMULA>
C6H13Cl4N

> <PUBCHEM_MOLECULAR_WEIGHT>
240.98612

> <PUBCHEM_OPENEYE_CAN_SMILES>
C(CCl)N(CCCl)CCCl.Cl

> <PUBCHEM_OPENEYE_ISO_SMILES>
C(CCl)N(CCCl)CCCl.Cl

> <PUBCHEM_CACTVS_TPSA>
3.2

> <PUBCHEM_MONOISOTOPIC_WEIGHT>
238.98021

> <PUBCHEM_TOTAL_CHARGE>
0

> <PUBCHEM_HEAVY_ATOM_COUNT>
11

> <PUBCHEM_ATOM_DEF_STEREO_COUNT>
0

> <PUBCHEM_ATOM_UDEF_STEREO_COUNT>
0

> <PUBCHEM_BOND_DEF_STEREO_COUNT>
0

> <PUBCHEM_BOND_UDEF_STEREO_COUNT>
0

> <PUBCHEM_ISOTOPIC_ATOM_COUNT>
0

> <PUBCHEM_COMPONENT_COUNT>
2

> <PUBCHEM_CACTVS_TAUTO_COUNT>
1

> <PUBCHEM_COORDINATE_TYPE>
1
5
255

$$$$

