5281590
  -OEChem-07051212582D

 83 87  0     1  0  0  0  0  0999 V2000
    2.8660    1.2786    0.0000 O   0  0  0  0  0  0  0  0  0  0  0  0
    6.7909    0.6653    0.0000 O   0  0  0  0  0  0  0  0  0  0  0  0
    3.7226    0.7620    0.0000 O   0  0  0  0  0  0  0  0  0  0  0  0
    3.7118   -2.1846    0.0000 O   0  0  0  0  0  0  0  0  0  0  0  0
    5.4641    1.7786    0.0000 N   0  0  0  0  0  0  0  0  0  0  0  0
    8.0765    2.1974    0.0000 N   0  0  0  0  0  0  0  0  0  0  0  0
    5.4641   -0.2214    0.0000 N   0  0  0  0  0  0  0  0  0  0  0  0
    7.1621   -4.1622    0.0000 N   0  0  0  0  0  0  0  0  0  0  0  0
    4.5981   -2.7214    0.0000 N   0  0  0  0  0  0  0  0  0  0  0  0
    7.0917    2.3710    0.0000 C   0  0  1  0  0  0  0  0  0  0  0  0
    6.7497    3.3107    0.0000 C   0  0  0  0  0  0  0  0  0  0  0  0
    4.5981    1.2786    0.0000 C   0  0  1  0  0  0  0  0  0  0  0  0
    3.7320    1.7786    0.0000 C   0  0  1  0  0  0  0  0  0  0  0  0
    6.4489    1.6050    0.0000 C   0  0  0  0  0  0  0  0  0  0  0  0
    5.4641   -1.2214    0.0000 C   0  0  1  0  0  0  0  0  0  0  0  0
    4.5981    0.2786    0.0000 C   0  0  0  0  0  0  0  0  0  0  0  0
    6.3301   -1.7214    0.0000 C   0  0  0  0  0  0  0  0  0  0  0  0
    7.3925    4.0768    0.0000 C   0  0  0  0  0  0  0  0  0  0  0  0
    5.7649    3.4844    0.0000 C   0  0  0  0  0  0  0  0  0  0  0  0
    3.7320    2.7786    0.0000 C   0  0  0  0  0  0  0  0  0  0  0  0
    6.8302   -2.5873    0.0000 C   0  0  0  0  0  0  0  0  0  0  0  0
    8.7193    2.9634    0.0000 C   0  0  0  0  0  0  0  0  0  0  0  0
    8.4185    1.2577    0.0000 C   0  0  0  0  0  0  0  0  0  0  0  0
    7.8188   -2.6904    0.0000 C   0  0  0  0  0  0  0  0  0  0  0  0
    4.5981   -1.7214    0.0000 C   0  0  0  0  0  0  0  0  0  0  0  0
    8.0251   -3.6690    0.0000 C   0  0  0  0  0  0  0  0  0  0  0  0
    6.4251   -3.4952    0.0000 C   0  0  0  0  0  0  0  0  0  0  0  0
    4.5981    3.2786    0.0000 C   0  0  0  0  0  0  0  0  0  0  0  0
    2.8660    3.2786    0.0000 C   0  0  0  0  0  0  0  0  0  0  0  0
    2.8660    0.2786    0.0000 C   0  0  0  0  0  0  0  0  0  0  0  0
    8.5632   -2.0226    0.0000 C   0  0  0  0  0  0  0  0  0  0  0  0
    8.9756   -3.9796    0.0000 C   0  0  0  0  0  0  0  0  0  0  0  0
    4.5981    4.2786    0.0000 C   0  0  0  0  0  0  0  0  0  0  0  0
    2.8660    4.2786    0.0000 C   0  0  0  0  0  0  0  0  0  0  0  0
    3.7320   -0.2214    0.0000 C   0  0  0  0  0  0  0  0  0  0  0  0
    2.0000   -0.2214    0.0000 C   0  0  0  0  0  0  0  0  0  0  0  0
    9.5137   -2.3333    0.0000 C   0  0  0  0  0  0  0  0  0  0  0  0
    3.7320    4.7786    0.0000 C   0  0  0  0  0  0  0  0  0  0  0  0
    9.7199   -3.3118    0.0000 C   0  0  0  0  0  0  0  0  0  0  0  0
    2.8660   -1.7214    0.0000 C   0  0  0  0  0  0  0  0  0  0  0  0
    3.7320   -3.2214    0.0000 C   0  0  0  0  0  0  0  0  0  0  0  0
    3.7320   -1.2214    0.0000 C   0  0  0  0  0  0  0  0  0  0  0  0
    2.0000   -1.2214    0.0000 C   0  0  0  0  0  0  0  0  0  0  0  0
    2.8660   -2.7214    0.0000 C   0  0  0  0  0  0  0  0  0  0  0  0
    7.3038    1.7884    0.0000 H   0  0  0  0  0  0  0  0  0  0  0  0
    6.3511    2.8358    0.0000 H   0  0  0  0  0  0  0  0  0  0  0  0
    5.1350    0.9686    0.0000 H   0  0  0  0  0  0  0  0  0  0  0  0
    4.2690    2.0886    0.0000 H   0  0  0  0  0  0  0  0  0  0  0  0
    5.4641    2.3986    0.0000 H   0  0  0  0  0  0  0  0  0  0  0  0
    6.0010   -0.9114    0.0000 H   0  0  0  0  0  0  0  0  0  0  0  0
    6.9407   -1.6137    0.0000 H   0  0  0  0  0  0  0  0  0  0  0  0
    5.8917   -2.1598    0.0000 H   0  0  0  0  0  0  0  0  0  0  0  0
    7.8674    3.6782    0.0000 H   0  0  0  0  0  0  0  0  0  0  0  0
    7.7910    4.5517    0.0000 H   0  0  0  0  0  0  0  0  0  0  0  0
    6.9175    4.4753    0.0000 H   0  0  0  0  0  0  0  0  0  0  0  0
    5.8725    4.0949    0.0000 H   0  0  0  0  0  0  0  0  0  0  0  0
    5.1543    3.5920    0.0000 H   0  0  0  0  0  0  0  0  0  0  0  0
    5.6572    2.8738    0.0000 H   0  0  0  0  0  0  0  0  0  0  0  0
    6.0747   -0.1137    0.0000 H   0  0  0  0  0  0  0  0  0  0  0  0
    9.1942    2.5649    0.0000 H   0  0  0  0  0  0  0  0  0  0  0  0
    9.1178    3.4384    0.0000 H   0  0  0  0  0  0  0  0  0  0  0  0
    8.2444    3.3620    0.0000 H   0  0  0  0  0  0  0  0  0  0  0  0
    7.8359    1.0456    0.0000 H   0  0  0  0  0  0  0  0  0  0  0  0
    8.6306    0.6751    0.0000 H   0  0  0  0  0  0  0  0  0  0  0  0
    9.0011    1.4697    0.0000 H   0  0  0  0  0  0  0  0  0  0  0  0
    5.8184   -3.6230    0.0000 H   0  0  0  0  0  0  0  0  0  0  0  0
    5.1350    2.9686    0.0000 H   0  0  0  0  0  0  0  0  0  0  0  0
    2.3291    2.9686    0.0000 H   0  0  0  0  0  0  0  0  0  0  0  0
    7.0952   -4.7786    0.0000 H   0  0  0  0  0  0  0  0  0  0  0  0
    8.4353   -1.4159    0.0000 H   0  0  0  0  0  0  0  0  0  0  0  0
    4.9081   -3.2583    0.0000 H   0  0  0  0  0  0  0  0  0  0  0  0
    9.1035   -4.5863    0.0000 H   0  0  0  0  0  0  0  0  0  0  0  0
    5.1350    4.5886    0.0000 H   0  0  0  0  0  0  0  0  0  0  0  0
    2.3291    4.5886    0.0000 H   0  0  0  0  0  0  0  0  0  0  0  0
    4.2690    0.0886    0.0000 H   0  0  0  0  0  0  0  0  0  0  0  0
    1.4631    0.0886    0.0000 H   0  0  0  0  0  0  0  0  0  0  0  0
    9.9751   -1.9192    0.0000 H   0  0  0  0  0  0  0  0  0  0  0  0
    3.7320    5.3986    0.0000 H   0  0  0  0  0  0  0  0  0  0  0  0
   10.3092   -3.5044    0.0000 H   0  0  0  0  0  0  0  0  0  0  0  0
    3.7320   -3.8414    0.0000 H   0  0  0  0  0  0  0  0  0  0  0  0
    4.2690   -1.5314    0.0000 H   0  0  0  0  0  0  0  0  0  0  0  0
    1.4631   -1.5314    0.0000 H   0  0  0  0  0  0  0  0  0  0  0  0
    2.3291   -3.0314    0.0000 H   0  0  0  0  0  0  0  0  0  0  0  0
  1 13  1  0  0  0  0
  1 30  1  0  0  0  0
  2 14  2  0  0  0  0
  3 16  2  0  0  0  0
  4 25  2  0  0  0  0
 12  5  1  6  0  0  0
  5 14  1  0  0  0  0
  5 49  1  0  0  0  0
 10  6  1  6  0  0  0
  6 22  1  0  0  0  0
  6 23  1  0  0  0  0
  7 15  1  0  0  0  0
  7 16  1  0  0  0  0
  7 59  1  0  0  0  0
  8 26  1  0  0  0  0
  8 27  1  0  0  0  0
  8 69  1  0  0  0  0
  9 25  1  0  0  0  0
  9 41  1  0  0  0  0
  9 71  1  0  0  0  0
 10 11  1  0  0  0  0
 10 14  1  0  0  0  0
 10 45  1  0  0  0  0
 11 18  1  0  0  0  0
 11 19  1  0  0  0  0
 11 46  1  0  0  0  0
 12 13  1  0  0  0  0
 12 16  1  0  0  0  0
 12 47  1  0  0  0  0
 13 20  1  6  0  0  0
 13 48  1  0  0  0  0
 15 17  1  1  0  0  0
 15 25  1  0  0  0  0
 15 50  1  0  0  0  0
 17 21  1  0  0  0  0
 17 51  1  0  0  0  0
 17 52  1  0  0  0  0
 18 53  1  0  0  0  0
 18 54  1  0  0  0  0
 18 55  1  0  0  0  0
 19 56  1  0  0  0  0
 19 57  1  0  0  0  0
 19 58  1  0  0  0  0
 20 28  2  0  0  0  0
 20 29  1  0  0  0  0
 21 24  1  0  0  0  0
 21 27  2  0  0  0  0
 22 60  1  0  0  0  0
 22 61  1  0  0  0  0
 22 62  1  0  0  0  0
 23 63  1  0  0  0  0
 23 64  1  0  0  0  0
 23 65  1  0  0  0  0
 24 26  1  0  0  0  0
 24 31  2  0  0  0  0
 26 32  2  0  0  0  0
 27 66  1  0  0  0  0
 28 33  1  0  0  0  0
 28 67  1  0  0  0  0
 29 34  2  0  0  0  0
 29 68  1  0  0  0  0
 30 35  2  0  0  0  0
 30 36  1  0  0  0  0
 31 37  1  0  0  0  0
 31 70  1  0  0  0  0
 32 39  1  0  0  0  0
 32 72  1  0  0  0  0
 33 38  2  0  0  0  0
 33 73  1  0  0  0  0
 34 38  1  0  0  0  0
 34 74  1  0  0  0  0
 35 42  1  0  0  0  0
 35 75  1  0  0  0  0
 36 43  2  0  0  0  0
 36 76  1  0  0  0  0
 37 39  2  0  0  0  0
 37 77  1  0  0  0  0
 38 78  1  0  0  0  0
 39 79  1  0  0  0  0
 40 42  2  0  0  0  0
 40 43  1  0  0  0  0
 40 44  1  0  0  0  0
 41 44  2  0  0  0  0
 41 80  1  0  0  0  0
 42 81  1  0  0  0  0
 43 82  1  0  0  0  0
 44 83  1  0  0  0  0
M  END
> <PUBCHEM_COMPOUND_CID>
5281590

> <PUBCHEM_COMPOUND_CANONICALIZED>
1

> <PUBCHEM_CACTVS_COMPLEXITY>
1000

> <PUBCHEM_CACTVS_HBOND_ACCEPTOR>
5

> <PUBCHEM_CACTVS_HBOND_DONOR>
4

> <PUBCHEM_CACTVS_ROTATABLE_BOND>
7

> <PUBCHEM_CACTVS_SUBSKEYS>
AAADcfB/uAAAAAAAAAAAAAAAAAAAAWAAAAAwYMAAAAAAAFgB9AAAHgAQAAAADTzhngY+xvPJlACoAzV3VACCiCAxIiAI2aG+bJgOZvbEsbuXOCjm9hHY6AeYyeCOoAAAAAACAABAAAAAAAQAAAAAAAAAAA==

> <PUBCHEM_IUPAC_OPENEYE_NAME>
(2S)-2-(dimethylamino)-N-[(2Z,6S,9S,10R)-6-(1H-indol-3-ylmethyl)-5,8-dioxo-10-phenyl-11-oxa-4,7-diazabicyclo[10.2.2]hexadeca-1(14),2,12,15-tetraen-9-yl]-3-methyl-butanamide

> <PUBCHEM_IUPAC_CAS_NAME>
(2S)-2-(dimethylamino)-N-[(2Z,6S,9S,10R)-6-(1H-indol-3-ylmethyl)-5,8-dioxo-10-phenyl-11-oxa-4,7-diazabicyclo[10.2.2]hexadeca-1(14),2,12,15-tetraen-9-yl]-3-methylbutanamide

> <PUBCHEM_IUPAC_NAME>
(2S)-2-(dimethylamino)-N-[(2Z,6S,9S,10R)-6-(1H-indol-3-ylmethyl)-5,8-dioxo-10-phenyl-11-oxa-4,7-diazabicyclo[10.2.2]hexadeca-1(14),2,12,15-tetraen-9-yl]-3-methylbutanamide

> <PUBCHEM_IUPAC_SYSTEMATIC_NAME>
(2S)-2-(dimethylamino)-N-[(2Z,6S,9S,10R)-6-(1H-indol-3-ylmethyl)-5,8-bis(oxidanylidene)-10-phenyl-11-oxa-4,7-diazabicyclo[10.2.2]hexadeca-1(14),2,12,15-tetraen-9-yl]-3-methyl-butanamide

> <PUBCHEM_IUPAC_TRADITIONAL_NAME>
(2S)-2-(dimethylamino)-N-[(2Z,6S,9S,10R)-6-(1H-indol-3-ylmethyl)-5,8-diketo-10-phenyl-11-oxa-4,7-diazabicyclo[10.2.2]hexadeca-1(14),2,12,15-tetraen-9-yl]-3-methyl-butyramide

> <PUBCHEM_IUPAC_INCHI>
InChI=1S/C35H39N5O4/c1-22(2)31(40(3)4)35(43)39-30-32(24-10-6-5-7-11-24)44-26-16-14-23(15-17-26)18-19-36-33(41)29(38-34(30)42)20-25-21-37-28-13-9-8-12-27(25)28/h5-19,21-22,29-32,37H,20H2,1-4H3,(H,36,41)(H,38,42)(H,39,43)/b19-18-/t29-,30-,31-,32+/m0/s1

> <PUBCHEM_IUPAC_INCHIKEY>
BDHCXPWIDHVEQN-LKTJRWEVSA-N

> <PUBCHEM_XLOGP3_AA>
5.1

> <PUBCHEM_EXACT_MASS>
593.300205

> <PUBCHEM_MOLECULAR_FORMULA>
C35H39N5O4

> <PUBCHEM_MOLECULAR_WEIGHT>
593.71526

> <PUBCHEM_OPENEYE_CAN_SMILES>
CC(C)C(C(=O)NC1C(OC2=CC=C(C=C2)C=CNC(=O)C(NC1=O)CC3=CNC4=CC=CC=C43)C5=CC=CC=C5)N(C)C

> <PUBCHEM_OPENEYE_ISO_SMILES>
CC(C)[C@@H](C(=O)N[C@H]1[C@H](OC2=CC=C(C=C2)/C=C\NC(=O)[C@@H](NC1=O)CC3=CNC4=CC=CC=C43)C5=CC=CC=C5)N(C)C

> <PUBCHEM_CACTVS_TPSA>
116

> <PUBCHEM_MONOISOTOPIC_WEIGHT>
593.300205

> <PUBCHEM_TOTAL_CHARGE>
0

> <PUBCHEM_HEAVY_ATOM_COUNT>
44

> <PUBCHEM_ATOM_DEF_STEREO_COUNT>
4

> <PUBCHEM_ATOM_UDEF_STEREO_COUNT>
0

> <PUBCHEM_BOND_DEF_STEREO_COUNT>
1

> <PUBCHEM_BOND_UDEF_STEREO_COUNT>
0

> <PUBCHEM_ISOTOPIC_ATOM_COUNT>
0

> <PUBCHEM_COMPONENT_COUNT>
1

> <PUBCHEM_CACTVS_TAUTO_COUNT>
18

> <PUBCHEM_COORDINATE_TYPE>
1
5
255

> <PUBCHEM_BONDANNOTATIONS>
13  20  6
15  17  5
20  28  8
20  29  8
21  24  8
21  27  8
24  26  8
24  31  8
26  32  8
28  33  8
29  34  8
30  35  8
30  36  8
31  37  8
32  39  8
33  38  8
34  38  8
35  42  8
36  43  8
37  39  8
40  42  8
40  43  8
12  5  6
10  6  6
8  26  8
8  27  8

$$$$

