39327
  -OEChem-07051213133D

 35 36  0     0  0  0  0  0  0999 V2000
    1.9110    2.0355    2.6388 Cl  0  0  0  0  0  0  0  0  0  0  0  0
    4.8314   -1.5376   -1.7356 F   0  0  0  0  0  0  0  0  0  0  0  0
    5.9130   -0.3121   -0.3099 F   0  0  0  0  0  0  0  0  0  0  0  0
    4.7896   -2.0417    0.3793 F   0  0  0  0  0  0  0  0  0  0  0  0
    0.1413    2.2068    0.2148 O   0  0  0  0  0  0  0  0  0  0  0  0
   -2.7687   -1.4739    1.0311 O   0  0  0  0  0  0  0  0  0  0  0  0
   -5.6736    0.3403   -1.1852 O   0  5  0  0  0  0  0  0  0  0  0  0
   -5.0245   -1.3688    0.0299 O   0  0  0  0  0  0  0  0  0  0  0  0
   -4.8089   -0.2516   -0.4966 N   0  3  0  0  0  0  0  0  0  0  0  0
   -1.0864    1.5923    0.0406 C   0  0  0  0  0  0  0  0  0  0  0  0
   -2.5509   -0.2594    0.4513 C   0  0  0  0  0  0  0  0  0  0  0  0
    1.2585    1.4399    0.0663 C   0  0  0  0  0  0  0  0  0  0  0  0
   -1.3132    0.3596    0.6266 C   0  0  0  0  0  0  0  0  0  0  0  0
   -3.5415    0.3647   -0.3072 C   0  0  0  0  0  0  0  0  0  0  0  0
    3.5273   -0.1428   -0.2944 C   0  0  0  0  0  0  0  0  0  0  0  0
   -2.0568    2.2262   -0.7150 C   0  0  0  0  0  0  0  0  0  0  0  0
   -3.2944    1.6074   -0.8903 C   0  0  0  0  0  0  0  0  0  0  0  0
    2.1667    1.2743    1.1120 C   0  0  0  0  0  0  0  0  0  0  0  0
    1.4845    0.8141   -1.1597 C   0  0  0  0  0  0  0  0  0  0  0  0
    3.3012    0.4829    0.9316 C   0  0  0  0  0  0  0  0  0  0  0  0
    2.6189    0.0229   -1.3400 C   0  0  0  0  0  0  0  0  0  0  0  0
   -1.9062   -2.5405    0.6425 C   0  0  0  0  0  0  0  0  0  0  0  0
    4.7399   -0.9889   -0.4880 C   0  0  0  0  0  0  0  0  0  0  0  0
   -2.6581   -3.8495    0.7573 C   0  0  0  0  0  0  0  0  0  0  0  0
   -0.5588   -0.1213    1.2426 H   0  0  0  0  0  0  0  0  0  0  0  0
   -1.8652    3.1936   -1.1696 H   0  0  0  0  0  0  0  0  0  0  0  0
   -4.0400    2.1254   -1.4882 H   0  0  0  0  0  0  0  0  0  0  0  0
    0.7937    0.9407   -1.9892 H   0  0  0  0  0  0  0  0  0  0  0  0
    4.0130    0.3497    1.7432 H   0  0  0  0  0  0  0  0  0  0  0  0
    2.7789   -0.4544   -2.3028 H   0  0  0  0  0  0  0  0  0  0  0  0
   -1.5608   -2.4121   -0.3910 H   0  0  0  0  0  0  0  0  0  0  0  0
   -1.0355   -2.5536    1.3069 H   0  0  0  0  0  0  0  0  0  0  0  0
   -2.0139   -4.6936    0.4959 H   0  0  0  0  0  0  0  0  0  0  0  0
   -3.0320   -3.9924    1.7764 H   0  0  0  0  0  0  0  0  0  0  0  0
   -3.5293   -3.8550    0.0944 H   0  0  0  0  0  0  0  0  0  0  0  0
  1 18  1  0  0  0  0
  2 23  1  0  0  0  0
  3 23  1  0  0  0  0
  4 23  1  0  0  0  0
  5 10  1  0  0  0  0
  5 12  1  0  0  0  0
  6 11  1  0  0  0  0
  6 22  1  0  0  0  0
  7  9  1  0  0  0  0
  8  9  2  0  0  0  0
  9 14  1  0  0  0  0
 10 13  2  0  0  0  0
 10 16  1  0  0  0  0
 11 13  1  0  0  0  0
 11 14  2  0  0  0  0
 12 18  2  0  0  0  0
 12 19  1  0  0  0  0
 13 25  1  0  0  0  0
 14 17  1  0  0  0  0
 15 20  2  0  0  0  0
 15 21  1  0  0  0  0
 15 23  1  0  0  0  0
 16 17  2  0  0  0  0
 16 26  1  0  0  0  0
 17 27  1  0  0  0  0
 18 20  1  0  0  0  0
 19 21  2  0  0  0  0
 19 28  1  0  0  0  0
 20 29  1  0  0  0  0
 21 30  1  0  0  0  0
 22 24  1  0  0  0  0
 22 31  1  0  0  0  0
 22 32  1  0  0  0  0
 24 33  1  0  0  0  0
 24 34  1  0  0  0  0
 24 35  1  0  0  0  0
M  CHG  2   7  -1   9   1
M  END
> <PUBCHEM_COMPOUND_CID>
39327

> <PUBCHEM_CONFORMER_RMSD>
0.8

> <PUBCHEM_CONFORMER_DIVERSEORDER>
1
2
12
27
25
10
7
5
22
16
9
11
3
6
20
4
13
19
18
15
14
8
24
23
21
17
26

> <PUBCHEM_MMFF94_PARTIAL_CHARGES>
29
1 -0.18
10 0.08
11 0.08
12 0.08
13 -0.15
14 0.13
15 -0.14
16 -0.15
17 -0.15
18 0.18
19 -0.15
2 -0.34
20 -0.15
21 -0.15
22 0.28
23 1.16
25 0.15
26 0.15
27 0.15
28 0.15
29 0.15
3 -0.34
30 0.15
4 -0.34
5 -0.17
6 -0.36
7 -0.52
8 -0.52
9 0.91

> <PUBCHEM_EFFECTIVE_ROTOR_COUNT>
6

> <PUBCHEM_PHARMACOPHORE_FEATURES>
7
1 5 acceptor
1 6 acceptor
1 7 acceptor
1 7 anion
1 8 acceptor
6 10 11 13 14 16 17 rings
6 12 15 18 19 20 21 rings

> <PUBCHEM_HEAVY_ATOM_COUNT>
24

> <PUBCHEM_ATOM_DEF_STEREO_COUNT>
0

> <PUBCHEM_ATOM_UDEF_STEREO_COUNT>
0

> <PUBCHEM_BOND_DEF_STEREO_COUNT>
0

> <PUBCHEM_BOND_UDEF_STEREO_COUNT>
0

> <PUBCHEM_ISOTOPIC_ATOM_COUNT>
0

> <PUBCHEM_COMPONENT_COUNT>
1

> <PUBCHEM_CACTVS_TAUTO_COUNT>
1

> <PUBCHEM_CONFORMER_ID>
0000999F00000001

> <PUBCHEM_MMFF94_ENERGY>
76.8399

> <PUBCHEM_FEATURE_SELFOVERLAP>
35.625

> <PUBCHEM_SHAPE_FINGERPRINT>
10366900 7 18186798088948416844
11796584 16 18194404618048364284
12236239 1 16702308961644723656
12363563 72 17749664177483882036
12555020 224 18341899589057198775
12596602 18 14345804846332804926
12633257 1 16950556645250002718
13402501 40 18407758140257822879
13533116 47 17894913971544423609
13544592 145 18408890607612519361
13544653 18 17822004363501201888
14294032 229 17629493158039705757
14341114 176 6771867372619511604
14386348 63 18335138670050196616
15163728 17 15911661248991960103
15840311 113 11814794054243873023
15961568 22 8574418855409151034
16752209 62 18060149755824881281
1813 80 16370711652724751576
19862831 5 16630521825913283688
200 152 17313391153273976493
20028762 73 16660658331507691142
20403669 9 18335134310774611278
20645476 183 16272208570549783137
21307412 95 18409443700537278207
21781051 124 17846210026520011299
23557571 272 18124886663757891977
23559900 14 18340210691308936956
2838139 119 11095880432825321118
3004659 81 18060702779697165100
3286 77 17822010904087807233
44062 13 18271804567292927235
574716 61 16701440283118479486
633830 44 15625931011583428260
9709674 26 18265620888022515905
9862886 166 18411699877096230078

> <PUBCHEM_SHAPE_MULTIPOLES>
445.5
11.19
3
1.52
2.36
2.41
-0.55
5.28
3.21
-1.78
-0.9
1.11
-0.52
2.3

> <PUBCHEM_SHAPE_SELFOVERLAP>
950.662

> <PUBCHEM_SHAPE_VOLUME>
249.8

> <PUBCHEM_COORDINATE_TYPE>
2
5
10

$$$$

