8686
  -OEChem-07051213132D

 28 28  0     0  0  0  0  0  0999 V2000
    7.1962    3.8170    0.0000 Cl  0  0  0  0  0  0  0  0  0  0  0  0
    5.8301    4.1830    0.0000 Cl  0  0  0  0  0  0  0  0  0  0  0  0
    2.0000   -1.1830    0.0000 Cl  0  0  0  0  0  0  0  0  0  0  0  0
    5.4641   -3.1830    0.0000 Cl  0  0  0  0  0  0  0  0  0  0  0  0
    3.7320   -4.1830    0.0000 Cl  0  0  0  0  0  0  0  0  0  0  0  0
    3.7320   -0.1830    0.0000 O   0  0  0  0  0  0  0  0  0  0  0  0
    5.4641    1.8170    0.0000 O   0  0  0  0  0  0  0  0  0  0  0  0
    4.5981    3.3170    0.0000 O   0  0  0  0  0  0  0  0  0  0  0  0
    4.5981    0.3170    0.0000 C   0  0  0  0  0  0  0  0  0  0  0  0
    4.5981    1.3170    0.0000 C   0  0  0  0  0  0  0  0  0  0  0  0
    3.7320   -1.1830    0.0000 C   0  0  0  0  0  0  0  0  0  0  0  0
    6.3301    3.3170    0.0000 C   0  0  0  0  0  0  0  0  0  0  0  0
    5.4641    2.8170    0.0000 C   0  0  0  0  0  0  0  0  0  0  0  0
    2.8660   -1.6830    0.0000 C   0  0  0  0  0  0  0  0  0  0  0  0
    4.5981   -1.6830    0.0000 C   0  0  0  0  0  0  0  0  0  0  0  0
    6.8301    2.4510    0.0000 C   0  0  0  0  0  0  0  0  0  0  0  0
    4.5981   -2.6830    0.0000 C   0  0  0  0  0  0  0  0  0  0  0  0
    2.8660   -2.6830    0.0000 C   0  0  0  0  0  0  0  0  0  0  0  0
    3.7320   -3.1830    0.0000 C   0  0  0  0  0  0  0  0  0  0  0  0
    4.8101   -0.2656    0.0000 H   0  0  0  0  0  0  0  0  0  0  0  0
    5.2087    0.4246    0.0000 H   0  0  0  0  0  0  0  0  0  0  0  0
    4.3860    1.8996    0.0000 H   0  0  0  0  0  0  0  0  0  0  0  0
    3.9875    1.2093    0.0000 H   0  0  0  0  0  0  0  0  0  0  0  0
    5.1350   -1.3730    0.0000 H   0  0  0  0  0  0  0  0  0  0  0  0
    6.2932    2.1410    0.0000 H   0  0  0  0  0  0  0  0  0  0  0  0
    7.1401    1.9140    0.0000 H   0  0  0  0  0  0  0  0  0  0  0  0
    7.3671    2.7610    0.0000 H   0  0  0  0  0  0  0  0  0  0  0  0
    2.3291   -2.9930    0.0000 H   0  0  0  0  0  0  0  0  0  0  0  0
  1 12  1  0  0  0  0
  2 12  1  0  0  0  0
  3 14  1  0  0  0  0
  4 17  1  0  0  0  0
  5 19  1  0  0  0  0
  6  9  1  0  0  0  0
  6 11  1  0  0  0  0
  7 10  1  0  0  0  0
  7 13  1  0  0  0  0
  8 13  2  0  0  0  0
  9 10  1  0  0  0  0
  9 20  1  0  0  0  0
  9 21  1  0  0  0  0
 10 22  1  0  0  0  0
 10 23  1  0  0  0  0
 11 14  1  0  0  0  0
 11 15  2  0  0  0  0
 12 13  1  0  0  0  0
 12 16  1  0  0  0  0
 14 18  2  0  0  0  0
 15 17  1  0  0  0  0
 15 24  1  0  0  0  0
 16 25  1  0  0  0  0
 16 26  1  0  0  0  0
 16 27  1  0  0  0  0
 17 19  2  0  0  0  0
 18 19  1  0  0  0  0
 18 28  1  0  0  0  0
M  END
> <PUBCHEM_COMPOUND_CID>
8686

> <PUBCHEM_COMPOUND_CANONICALIZED>
1

> <PUBCHEM_CACTVS_COMPLEXITY>
313

> <PUBCHEM_CACTVS_HBOND_ACCEPTOR>
3

> <PUBCHEM_CACTVS_HBOND_DONOR>
0

> <PUBCHEM_CACTVS_ROTATABLE_BOND>
6

> <PUBCHEM_CACTVS_SUBSKEYS>
AAADccBwMAAHAAAAAAAAAAAAAAAAAAAAAAAwAAAAAAAAAAABAAAAGgIAAAAACAagkKIyDoAABACIACDSCAACCAAgJUAAikEGC4hNJiOFMhqCOCCkwBEKqAeAQAAAACAQAQCACAQAQCACAQAQCAAAAAAAAA==

> <PUBCHEM_IUPAC_OPENEYE_NAME>
2-(2,4,5-trichlorophenoxy)ethyl 2,2-dichloropropanoate

> <PUBCHEM_IUPAC_CAS_NAME>
2,2-dichloropropanoic acid 2-(2,4,5-trichlorophenoxy)ethyl ester

> <PUBCHEM_IUPAC_NAME>
2-(2,4,5-trichlorophenoxy)ethyl 2,2-dichloropropanoate

> <PUBCHEM_IUPAC_SYSTEMATIC_NAME>
2-[2,4,5-tris(chloranyl)phenoxy]ethyl 2,2-bis(chloranyl)propanoate

> <PUBCHEM_IUPAC_TRADITIONAL_NAME>
2,2-dichloropropionic acid 2-(2,4,5-trichlorophenoxy)ethyl ester

> <PUBCHEM_IUPAC_INCHI>
InChI=1S/C11H9Cl5O3/c1-11(15,16)10(17)19-3-2-18-9-5-7(13)6(12)4-8(9)14/h4-5H,2-3H2,1H3

> <PUBCHEM_IUPAC_INCHIKEY>
KMHZPJNVPCAUMN-UHFFFAOYSA-N

> <PUBCHEM_XLOGP3_AA>
5.2

> <PUBCHEM_EXACT_MASS>
365.896482

> <PUBCHEM_MOLECULAR_FORMULA>
C11H9Cl5O3

> <PUBCHEM_MOLECULAR_WEIGHT>
366.45236

> <PUBCHEM_OPENEYE_CAN_SMILES>
CC(C(=O)OCCOC1=CC(=C(C=C1Cl)Cl)Cl)(Cl)Cl

> <PUBCHEM_OPENEYE_ISO_SMILES>
CC(C(=O)OCCOC1=CC(=C(C=C1Cl)Cl)Cl)(Cl)Cl

> <PUBCHEM_CACTVS_TPSA>
35.5

> <PUBCHEM_MONOISOTOPIC_WEIGHT>
363.899433

> <PUBCHEM_TOTAL_CHARGE>
0

> <PUBCHEM_HEAVY_ATOM_COUNT>
19

> <PUBCHEM_ATOM_DEF_STEREO_COUNT>
0

> <PUBCHEM_ATOM_UDEF_STEREO_COUNT>
0

> <PUBCHEM_BOND_DEF_STEREO_COUNT>
0

> <PUBCHEM_BOND_UDEF_STEREO_COUNT>
0

> <PUBCHEM_ISOTOPIC_ATOM_COUNT>
0

> <PUBCHEM_COMPONENT_COUNT>
1

> <PUBCHEM_CACTVS_TAUTO_COUNT>
1

> <PUBCHEM_COORDINATE_TYPE>
1
5
255

> <PUBCHEM_BONDANNOTATIONS>
11  14  8
11  15  8
14  18  8
15  17  8
17  19  8
18  19  8

$$$$

