443522
  -OEChem-07051213023D

 28 28  0     1  0  0  0  0  0999 V2000
   -1.8982   -0.8657   -1.3414 O   0  0  0  0  0  0  0  0  0  0  0  0
   -1.7692    2.0501    0.1004 O   0  0  0  0  0  0  0  0  0  0  0  0
    1.1063    0.0465    0.3946 C   0  0  2  0  0  0  0  0  0  0  0  0
   -1.8326   -0.3698   -0.0090 C   0  0  1  0  0  0  0  0  0  0  0  0
    0.4859   -1.3574    0.3752 C   0  0  0  0  0  0  0  0  0  0  0  0
   -0.9751   -1.3200    0.8347 C   0  0  0  0  0  0  0  0  0  0  0  0
    0.3049    1.0095   -0.4821 C   0  0  0  0  0  0  0  0  0  0  0  0
   -1.1576    0.9983   -0.0848 C   0  0  0  0  0  0  0  0  0  0  0  0
    2.5387    0.0158   -0.0425 C   0  0  0  0  0  0  0  0  0  0  0  0
   -3.2494   -0.2817    0.5538 C   0  0  0  0  0  0  0  0  0  0  0  0
    3.5492    0.4666    0.9700 C   0  0  0  0  0  0  0  0  0  0  0  0
    2.8972   -0.3922   -1.2690 C   0  0  0  0  0  0  0  0  0  0  0  0
    1.0523    0.4130    1.4297 H   0  0  0  0  0  0  0  0  0  0  0  0
    1.0461   -2.0151    1.0528 H   0  0  0  0  0  0  0  0  0  0  0  0
    0.5529   -1.8192   -0.6165 H   0  0  0  0  0  0  0  0  0  0  0  0
   -1.3773   -2.3391    0.7762 H   0  0  0  0  0  0  0  0  0  0  0  0
   -1.0053   -1.0162    1.8891 H   0  0  0  0  0  0  0  0  0  0  0  0
    0.3601    0.7668   -1.5490 H   0  0  0  0  0  0  0  0  0  0  0  0
    0.6856    2.0313   -0.3609 H   0  0  0  0  0  0  0  0  0  0  0  0
   -3.8812    0.3546   -0.0770 H   0  0  0  0  0  0  0  0  0  0  0  0
   -3.7237   -1.2693    0.5725 H   0  0  0  0  0  0  0  0  0  0  0  0
   -3.2571    0.1306    1.5683 H   0  0  0  0  0  0  0  0  0  0  0  0
   -1.0029   -0.9873   -1.6942 H   0  0  0  0  0  0  0  0  0  0  0  0
    3.3554    1.5031    1.2652 H   0  0  0  0  0  0  0  0  0  0  0  0
    3.5012   -0.1657    1.8626 H   0  0  0  0  0  0  0  0  0  0  0  0
    4.5721    0.4171    0.5820 H   0  0  0  0  0  0  0  0  0  0  0  0
    3.9395   -0.4090   -1.5707 H   0  0  0  0  0  0  0  0  0  0  0  0
    2.1708   -0.7206   -2.0043 H   0  0  0  0  0  0  0  0  0  0  0  0
  1  4  1  0  0  0  0
  1 23  1  0  0  0  0
  2  8  2  0  0  0  0
  3  5  1  0  0  0  0
  3  7  1  0  0  0  0
  3  9  1  0  0  0  0
  3 13  1  0  0  0  0
  4  6  1  0  0  0  0
  4  8  1  0  0  0  0
  4 10  1  0  0  0  0
  5  6  1  0  0  0  0
  5 14  1  0  0  0  0
  5 15  1  0  0  0  0
  6 16  1  0  0  0  0
  6 17  1  0  0  0  0
  7  8  1  0  0  0  0
  7 18  1  0  0  0  0
  7 19  1  0  0  0  0
  9 11  1  0  0  0  0
  9 12  2  0  0  0  0
 10 20  1  0  0  0  0
 10 21  1  0  0  0  0
 10 22  1  0  0  0  0
 11 24  1  0  0  0  0
 11 25  1  0  0  0  0
 11 26  1  0  0  0  0
 12 27  1  0  0  0  0
 12 28  1  0  0  0  0
M  END
> <PUBCHEM_COMPOUND_CID>
443522

> <PUBCHEM_CONFORMER_RMSD>
0.6

> <PUBCHEM_CONFORMER_DIVERSEORDER>
3
8
4
5
7
1
2
6

> <PUBCHEM_MMFF94_PARTIAL_CHARGES>
12
1 -0.68
11 0.14
12 -0.3
2 -0.57
23 0.4
27 0.15
28 0.15
3 0.14
4 0.34
7 0.06
8 0.45
9 -0.28

> <PUBCHEM_EFFECTIVE_ROTOR_COUNT>
2

> <PUBCHEM_PHARMACOPHORE_FEATURES>
4
1 1 acceptor
1 1 donor
1 2 acceptor
6 3 4 5 6 7 8 rings

> <PUBCHEM_HEAVY_ATOM_COUNT>
12

> <PUBCHEM_ATOM_DEF_STEREO_COUNT>
2

> <PUBCHEM_ATOM_UDEF_STEREO_COUNT>
0

> <PUBCHEM_BOND_DEF_STEREO_COUNT>
0

> <PUBCHEM_BOND_UDEF_STEREO_COUNT>
0

> <PUBCHEM_ISOTOPIC_ATOM_COUNT>
0

> <PUBCHEM_COMPONENT_COUNT>
1

> <PUBCHEM_CACTVS_TAUTO_COUNT>
2

> <PUBCHEM_CONFORMER_ID>
0006C48200000003

> <PUBCHEM_MMFF94_ENERGY>
21.3017

> <PUBCHEM_FEATURE_SELFOVERLAP>
20.297

> <PUBCHEM_SHAPE_FINGERPRINT>
10353120 184 18343012277095700775
11206711 2 18343867731660273613
12423570 1 13006321932445604701
12716758 59 18262795297610046764
12932764 1 18040713688627379238
13024252 1 11887957657271473963
13380535 21 18123174973166504369
14325111 11 18341332283758772440
14614273 12 18058463156063075085
15219456 202 17967252039863239372
15310529 11 15429751782899635218
15775835 57 17821727217413565398
16945 1 18341891874652148843
17846911 113 18341900670776702875
20645464 45 18259990379128582512
20645476 183 16916210084169136690
20653085 51 17968085482066201536
21040471 1 18199465635458084128
22802520 49 18118392067573746254
23235685 24 18202002122804961123
23402539 116 18339095803829778918
23552423 10 17844245344283619730
23559900 14 18192145109502132038
2748010 2 18127126609319408399
3248919 1 17988924479066789858
369184 2 16515680043936354586
5084963 1 18261662740329874112
528886 8 18413108342505935379
8030462 33 18343866645065208806

> <PUBCHEM_SHAPE_MULTIPOLES>
235.22
4.97
1.45
1.07
1.95
0.3
-0.22
0.09
0.37
-0.71
0.13
0.4
-0.15
0.13

> <PUBCHEM_SHAPE_SELFOVERLAP>
471.437

> <PUBCHEM_SHAPE_VOLUME>
138.9

> <PUBCHEM_COORDINATE_TYPE>
2
5
10

$$$$

