442244
  -OEChem-07051212572D

 39 41  0     1  0  0  0  0  0999 V2000
    5.1482    2.3615    0.0000 O   0  0  0  0  0  0  0  0  0  0  0  0
    5.7812   -0.8470    0.0000 O   0  0  0  0  0  0  0  0  0  0  0  0
    6.8881    2.7197    0.0000 O   0  0  0  0  0  0  0  0  0  0  0  0
    2.5503   -2.7197    0.0000 O   0  0  0  0  0  0  0  0  0  0  0  0
    5.2219    0.7515    0.0000 C   0  0  2  0  0  0  0  0  0  0  0  0
    3.1974   -0.2235    0.0000 C   0  0  2  0  0  0  0  0  0  0  0  0
    4.5984    1.5333    0.0000 C   0  0  1  0  0  0  0  0  0  0  0  0
    2.9749    0.7515    0.0000 C   0  0  2  0  0  0  0  0  0  0  0  0
    4.9994   -0.2235    0.0000 C   0  0  1  0  0  0  0  0  0  0  0  0
    3.5984    1.5333    0.0000 C   0  0  0  0  0  0  0  0  0  0  0  0
    4.0984   -0.6573    0.0000 C   0  0  0  0  0  0  0  0  0  0  0  0
    6.1517    1.1032    0.0000 C   0  0  1  0  0  0  0  0  0  0  0  0
    2.5124   -0.9438    0.0000 C   0  0  0  0  0  0  0  0  0  0  0  0
    3.9624   -1.6421    0.0000 C   0  0  0  0  0  0  0  0  0  0  0  0
    6.1062    2.0962    0.0000 C   0  0  0  0  0  0  0  0  0  0  0  0
    2.0000    0.9740    0.0000 C   0  0  0  0  0  0  0  0  0  0  0  0
    2.9842   -1.8187    0.0000 C   0  0  0  0  0  0  0  0  0  0  0  0
    6.9872    0.5537    0.0000 C   0  0  0  0  0  0  0  0  0  0  0  0
    4.6840   -2.3344    0.0000 C   0  0  0  0  0  0  0  0  0  0  0  0
    5.8627    0.1930    0.0000 H   0  0  0  0  0  0  0  0  0  0  0  0
    2.3778    0.0016    0.0000 H   0  0  0  0  0  0  0  0  0  0  0  0
    4.1966    2.2823    0.0000 H   0  0  0  0  0  0  0  0  0  0  0  0
    2.7702    1.3367    0.0000 H   0  0  0  0  0  0  0  0  0  0  0  0
    5.5846   -0.0187    0.0000 H   0  0  0  0  0  0  0  0  0  0  0  0
    3.7364    2.1378    0.0000 H   0  0  0  0  0  0  0  0  0  0  0  0
    3.0398    1.8023    0.0000 H   0  0  0  0  0  0  0  0  0  0  0  0
    6.6905    1.4098    0.0000 H   0  0  0  0  0  0  0  0  0  0  0  0
    2.1105   -0.4716    0.0000 H   0  0  0  0  0  0  0  0  0  0  0  0
    2.0006   -1.2938    0.0000 H   0  0  0  0  0  0  0  0  0  0  0  0
    2.1380    1.5784    0.0000 H   0  0  0  0  0  0  0  0  0  0  0  0
    1.3955    1.1120    0.0000 H   0  0  0  0  0  0  0  0  0  0  0  0
    1.8620    0.3695    0.0000 H   0  0  0  0  0  0  0  0  0  0  0  0
    6.6466    0.0357    0.0000 H   0  0  0  0  0  0  0  0  0  0  0  0
    7.5052    0.2131    0.0000 H   0  0  0  0  0  0  0  0  0  0  0  0
    7.3279    1.0718    0.0000 H   0  0  0  0  0  0  0  0  0  0  0  0
    6.3584   -0.6204    0.0000 H   0  0  0  0  0  0  0  0  0  0  0  0
    4.2548   -2.7818    0.0000 H   0  0  0  0  0  0  0  0  0  0  0  0
    5.1314   -2.7636    0.0000 H   0  0  0  0  0  0  0  0  0  0  0  0
    5.1132   -1.8870    0.0000 H   0  0  0  0  0  0  0  0  0  0  0  0
  1  7  1  0  0  0  0
  1 15  1  0  0  0  0
  9  2  1  6  0  0  0
  2 36  1  0  0  0  0
  3 15  2  0  0  0  0
  4 17  2  0  0  0  0
  5  7  1  0  0  0  0
  5  9  1  0  0  0  0
  5 12  1  0  0  0  0
  5 20  1  6  0  0  0
  6  8  1  0  0  0  0
  6 11  1  0  0  0  0
  6 13  1  0  0  0  0
  6 21  1  1  0  0  0
  7 10  1  0  0  0  0
  7 22  1  6  0  0  0
  8 10  1  0  0  0  0
  8 16  1  1  0  0  0
  8 23  1  0  0  0  0
  9 11  1  0  0  0  0
  9 24  1  0  0  0  0
 10 25  1  0  0  0  0
 10 26  1  0  0  0  0
 11 14  2  0  0  0  0
 12 15  1  0  0  0  0
 12 18  1  1  0  0  0
 12 27  1  0  0  0  0
 13 17  1  0  0  0  0
 13 28  1  0  0  0  0
 13 29  1  0  0  0  0
 14 17  1  0  0  0  0
 14 19  1  0  0  0  0
 16 30  1  0  0  0  0
 16 31  1  0  0  0  0
 16 32  1  0  0  0  0
 18 33  1  0  0  0  0
 18 34  1  0  0  0  0
 18 35  1  0  0  0  0
 19 37  1  0  0  0  0
 19 38  1  0  0  0  0
 19 39  1  0  0  0  0
M  END
> <PUBCHEM_COMPOUND_CID>
442244

> <PUBCHEM_COMPOUND_CANONICALIZED>
1

> <PUBCHEM_CACTVS_COMPLEXITY>
479

> <PUBCHEM_CACTVS_HBOND_ACCEPTOR>
4

> <PUBCHEM_CACTVS_HBOND_DONOR>
1

> <PUBCHEM_CACTVS_ROTATABLE_BOND>
0

> <PUBCHEM_CACTVS_SUBSKEYS>
AAADceBwOAAAAAAAAAAAAAAAAAAAASIAAAAAAAAABgAAAACQAAAAGgAACAAADRSggAICCAAABgCIAoDQCAAAAAAgAAAACAEAAEgAFBIAAAACUAAFgAAIEQPKzPDOgAAAAAAAAAAAAAAAAAAAAAAAAAAAAA==

> <PUBCHEM_IUPAC_OPENEYE_NAME>
(1S,3aR,5S,5aR,9S,9aS)-9-hydroxy-1,5,8-trimethyl-1,3a,4,5,5a,6,9,9a-octahydroazuleno[6,5-b]furan-2,7-dione

> <PUBCHEM_IUPAC_CAS_NAME>
(1S,3aR,5S,5aR,9S,9aS)-9-hydroxy-1,5,8-trimethyl-1,3a,4,5,5a,6,9,9a-octahydroazuleno[6,5-b]furan-2,7-dione

> <PUBCHEM_IUPAC_NAME>
(1S,3aR,5S,5aR,9S,9aS)-9-hydroxy-1,5,8-trimethyl-1,3a,4,5,5a,6,9,9a-octahydroazuleno[6,5-b]furan-2,7-dione

> <PUBCHEM_IUPAC_SYSTEMATIC_NAME>
(1S,3aR,5S,5aR,9S,9aS)-1,5,8-trimethyl-9-oxidanyl-1,3a,4,5,5a,6,9,9a-octahydroazuleno[6,5-b]furan-2,7-dione

> <PUBCHEM_IUPAC_TRADITIONAL_NAME>
(1S,3aR,5S,5aR,9S,9aS)-9-hydroxy-1,5,8-trimethyl-1,3a,4,5,5a,6,9,9a-octahydroazuleno[6,5-b]furan-2,7-quinone

> <PUBCHEM_IUPAC_INCHI>
InChI=1S/C15H20O4/c1-6-4-11-13(8(3)15(18)19-11)14(17)12-7(2)10(16)5-9(6)12/h6,8-9,11,13-14,17H,4-5H2,1-3H3/t6-,8-,9+,11+,13+,14+/m0/s1

> <PUBCHEM_IUPAC_INCHIKEY>
BFWXQSLJSDLIAA-GSGOXJSYSA-N

> <PUBCHEM_XLOGP3_AA>
0.8

> <PUBCHEM_EXACT_MASS>
264.136159

> <PUBCHEM_MOLECULAR_FORMULA>
C15H20O4

> <PUBCHEM_MOLECULAR_WEIGHT>
264.3169

> <PUBCHEM_OPENEYE_CAN_SMILES>
CC1CC2C(C(C(=O)O2)C)C(C3=C(C(=O)CC13)C)O

> <PUBCHEM_OPENEYE_ISO_SMILES>
C[C@H]1C[C@@H]2[C@@H]([C@@H](C(=O)O2)C)[C@@H](C3=C(C(=O)C[C@H]13)C)O

> <PUBCHEM_CACTVS_TPSA>
63.6

> <PUBCHEM_MONOISOTOPIC_WEIGHT>
264.136159

> <PUBCHEM_TOTAL_CHARGE>
0

> <PUBCHEM_HEAVY_ATOM_COUNT>
19

> <PUBCHEM_ATOM_DEF_STEREO_COUNT>
6

> <PUBCHEM_ATOM_UDEF_STEREO_COUNT>
0

> <PUBCHEM_BOND_DEF_STEREO_COUNT>
0

> <PUBCHEM_BOND_UDEF_STEREO_COUNT>
0

> <PUBCHEM_ISOTOPIC_ATOM_COUNT>
0

> <PUBCHEM_COMPONENT_COUNT>
1

> <PUBCHEM_CACTVS_TAUTO_COUNT>
20

> <PUBCHEM_COORDINATE_TYPE>
1
5
255

> <PUBCHEM_BONDANNOTATIONS>
12  18  5
9  2  6
5  20  6
6  21  5
7  22  6
8  16  5

$$$$

