441722
  -OEChem-07051212553D

 96103  0     1  0  0  0  0  0999 V2000
    1.8743   -2.2454   -0.6775 O   0  0  0  0  0  0  0  0  0  0  0  0
    3.7889   -2.4535    1.2933 O   0  0  0  0  0  0  0  0  0  0  0  0
    1.6978   -1.2489    2.4653 O   0  0  0  0  0  0  0  0  0  0  0  0
    2.7704    3.1668   -1.3511 O   0  0  0  0  0  0  0  0  0  0  0  0
    6.3279   -1.0707    1.9002 O   0  0  0  0  0  0  0  0  0  0  0  0
    7.1025   -1.2535   -0.8490 O   0  0  0  0  0  0  0  0  0  0  0  0
   -2.6685    0.9461    0.8487 O   0  0  0  0  0  0  0  0  0  0  0  0
   -3.8566    0.0627    2.6116 O   0  0  0  0  0  0  0  0  0  0  0  0
   -3.4472   -0.6854   -2.0183 O   0  0  0  0  0  0  0  0  0  0  0  0
   -6.3447   -2.4385    1.1691 O   0  0  0  0  0  0  0  0  0  0  0  0
    0.8302    0.3800   -1.6210 N   0  0  2  0  0  0  0  0  0  0  0  0
   -5.0796   -1.1593   -0.3722 N   0  0  0  0  0  0  0  0  0  0  0  0
    2.2201    1.3043    0.2063 C   0  0  2  0  0  0  0  0  0  0  0  0
    1.0960    0.7580    1.1734 C   0  0  2  0  0  0  0  0  0  0  0  0
    2.1007    0.2064   -0.8837 C   0  0  1  0  0  0  0  0  0  0  0  0
    3.6625    1.2624    0.8527 C   0  0  1  0  0  0  0  0  0  0  0  0
    2.2640   -1.0697    0.0225 C   0  0  2  0  0  0  0  0  0  0  0  0
    4.1368   -0.0798    1.4279 C   0  0  1  0  0  0  0  0  0  0  0  0
    3.7453   -1.2494    0.4999 C   0  0  1  0  0  0  0  0  0  0  0  0
    1.2800   -0.7918    1.1905 C   0  0  1  0  0  0  0  0  0  0  0  0
   -0.3022    1.0672    0.5438 C   0  0  2  0  0  0  0  0  0  0  0  0
    1.9617    2.7866   -0.2395 C   0  0  2  0  0  0  0  0  0  0  0  0
    4.8414    1.6616   -0.0783 C   0  0  0  0  0  0  0  0  0  0  0  0
    5.9562    0.6262    0.1535 C   0  0  1  0  0  0  0  0  0  0  0  0
    5.6468    0.1146    1.5494 C   0  0  2  0  0  0  0  0  0  0  0  0
    4.7189   -1.5010   -0.6919 C   0  0  0  0  0  0  0  0  0  0  0  0
   -0.4065    0.3242   -0.8277 C   0  0  0  0  0  0  0  0  0  0  0  0
   -0.4675    2.5910    0.3713 C   0  0  0  0  0  0  0  0  0  0  0  0
    5.8808   -0.5072   -0.8805 C   0  0  2  0  0  0  0  0  0  0  0  0
    0.5348    3.1837   -0.5896 C   0  0  0  0  0  0  0  0  0  0  0  0
   -1.4495    0.6098    1.4719 C   0  0  0  0  0  0  0  0  0  0  0  0
    0.7363   -0.4152   -2.8376 C   0  0  0  0  0  0  0  0  0  0  0  0
    0.7515   -0.9233    3.4764 C   0  0  0  0  0  0  0  0  0  0  0  0
   -0.4141    0.0535   -3.7123 C   0  0  0  0  0  0  0  0  0  0  0  0
    2.6975    4.5641   -1.5893 C   0  0  0  0  0  0  0  0  0  0  0  0
    7.1362   -2.2234   -1.8820 C   0  0  0  0  0  0  0  0  0  0  0  0
   -3.8102    0.6174    1.5246 C   0  0  0  0  0  0  0  0  0  0  0  0
   -5.0197    1.0218    0.7645 C   0  0  0  0  0  0  0  0  0  0  0  0
   -5.6048    0.1519   -0.1343 C   0  0  0  0  0  0  0  0  0  0  0  0
   -5.5271    2.2870    0.9937 C   0  0  0  0  0  0  0  0  0  0  0  0
   -6.7413    0.5617   -0.8316 C   0  0  0  0  0  0  0  0  0  0  0  0
   -6.6635    2.6968    0.2964 C   0  0  0  0  0  0  0  0  0  0  0  0
   -7.2707    1.8342   -0.6162 C   0  0  0  0  0  0  0  0  0  0  0  0
   -4.1138   -1.4478   -1.3311 C   0  0  0  0  0  0  0  0  0  0  0  0
   -5.4595   -2.2920    0.3374 C   0  0  0  0  0  0  0  0  0  0  0  0
   -3.9897   -2.9513   -1.4092 C   0  0  2  0  0  0  0  0  0  0  0  0
   -4.5613   -3.4198   -0.0840 C   0  0  0  0  0  0  0  0  0  0  0  0
   -2.5615   -3.4134   -1.6361 C   0  0  0  0  0  0  0  0  0  0  0  0
    1.2042    1.2550    2.1402 H   0  0  0  0  0  0  0  0  0  0  0  0
    2.9146    0.2958   -1.6080 H   0  0  0  0  0  0  0  0  0  0  0  0
    3.6583    1.9780    1.6890 H   0  0  0  0  0  0  0  0  0  0  0  0
    3.7525   -0.2340    2.4404 H   0  0  0  0  0  0  0  0  0  0  0  0
    0.3602   -1.3466    0.9887 H   0  0  0  0  0  0  0  0  0  0  0  0
    2.2520    3.4089    0.6203 H   0  0  0  0  0  0  0  0  0  0  0  0
    4.5822    1.7036   -1.1378 H   0  0  0  0  0  0  0  0  0  0  0  0
    5.1963    2.6596    0.2073 H   0  0  0  0  0  0  0  0  0  0  0  0
    6.9498    1.0869    0.1141 H   0  0  0  0  0  0  0  0  0  0  0  0
    5.8837    0.8804    2.2989 H   0  0  0  0  0  0  0  0  0  0  0  0
    5.0815   -2.5279   -0.5870 H   0  0  0  0  0  0  0  0  0  0  0  0
    4.1747   -1.5080   -1.6424 H   0  0  0  0  0  0  0  0  0  0  0  0
   -0.7099   -0.7193   -0.6811 H   0  0  0  0  0  0  0  0  0  0  0  0
   -1.2230    0.7969   -1.3857 H   0  0  0  0  0  0  0  0  0  0  0  0
   -0.3646    3.0842    1.3474 H   0  0  0  0  0  0  0  0  0  0  0  0
   -1.4683    2.8478    0.0032 H   0  0  0  0  0  0  0  0  0  0  0  0
    5.8117   -0.0476   -1.8760 H   0  0  0  0  0  0  0  0  0  0  0  0
    0.4139    4.2736   -0.5435 H   0  0  0  0  0  0  0  0  0  0  0  0
    0.2874    2.9186   -1.6245 H   0  0  0  0  0  0  0  0  0  0  0  0
   -1.3792    1.1085    2.4463 H   0  0  0  0  0  0  0  0  0  0  0  0
   -1.4409   -0.4716    1.6254 H   0  0  0  0  0  0  0  0  0  0  0  0
    2.3450   -2.2817   -1.5251 H   0  0  0  0  0  0  0  0  0  0  0  0
    3.3999   -3.1713    0.7645 H   0  0  0  0  0  0  0  0  0  0  0  0
    1.6596   -0.3094   -3.4197 H   0  0  0  0  0  0  0  0  0  0  0  0
    0.6015   -1.4811   -2.6300 H   0  0  0  0  0  0  0  0  0  0  0  0
    5.9648   -1.3763    2.7487 H   0  0  0  0  0  0  0  0  0  0  0  0
    1.0876   -1.4137    4.3959 H   0  0  0  0  0  0  0  0  0  0  0  0
    0.6996    0.1428    3.6991 H   0  0  0  0  0  0  0  0  0  0  0  0
   -0.2342   -1.3330    3.2435 H   0  0  0  0  0  0  0  0  0  0  0  0
   -1.3861   -0.2423   -3.3159 H   0  0  0  0  0  0  0  0  0  0  0  0
   -0.4013    1.1400   -3.8509 H   0  0  0  0  0  0  0  0  0  0  0  0
   -0.3285   -0.4029   -4.7048 H   0  0  0  0  0  0  0  0  0  0  0  0
    1.8009    4.8243   -2.1592 H   0  0  0  0  0  0  0  0  0  0  0  0
    2.7620    5.1482   -0.6656 H   0  0  0  0  0  0  0  0  0  0  0  0
    3.5560    4.8352   -2.2118 H   0  0  0  0  0  0  0  0  0  0  0  0
    6.6251   -1.8972   -2.7940 H   0  0  0  0  0  0  0  0  0  0  0  0
    6.7453   -3.1855   -1.5404 H   0  0  0  0  0  0  0  0  0  0  0  0
    8.1873   -2.3911   -2.1376 H   0  0  0  0  0  0  0  0  0  0  0  0
   -5.0593    2.9639    1.7028 H   0  0  0  0  0  0  0  0  0  0  0  0
   -7.2229   -0.1018   -1.5453 H   0  0  0  0  0  0  0  0  0  0  0  0
   -7.0756    3.6875    0.4640 H   0  0  0  0  0  0  0  0  0  0  0  0
   -8.1554    2.1535   -1.1592 H   0  0  0  0  0  0  0  0  0  0  0  0
   -4.6268   -3.2892   -2.2359 H   0  0  0  0  0  0  0  0  0  0  0  0
   -3.7926   -3.5557    0.6843 H   0  0  0  0  0  0  0  0  0  0  0  0
   -5.1317   -4.3459   -0.1977 H   0  0  0  0  0  0  0  0  0  0  0  0
   -2.1864   -3.0592   -2.6023 H   0  0  0  0  0  0  0  0  0  0  0  0
   -1.8882   -3.0252   -0.8638 H   0  0  0  0  0  0  0  0  0  0  0  0
   -2.5000   -4.5063   -1.6274 H   0  0  0  0  0  0  0  0  0  0  0  0
  1 17  1  0  0  0  0
  1 70  1  0  0  0  0
  2 19  1  0  0  0  0
  2 71  1  0  0  0  0
  3 20  1  0  0  0  0
  3 33  1  0  0  0  0
  4 22  1  0  0  0  0
  4 35  1  0  0  0  0
  5 25  1  0  0  0  0
  5 74  1  0  0  0  0
  6 29  1  0  0  0  0
  6 36  1  0  0  0  0
  7 31  1  0  0  0  0
  7 37  1  0  0  0  0
  8 37  2  0  0  0  0
  9 44  2  0  0  0  0
 10 45  2  0  0  0  0
 11 15  1  0  0  0  0
 11 27  1  0  0  0  0
 11 32  1  0  0  0  0
 12 39  1  0  0  0  0
 12 44  1  0  0  0  0
 12 45  1  0  0  0  0
 13 14  1  0  0  0  0
 13 15  1  0  0  0  0
 13 16  1  0  0  0  0
 13 22  1  0  0  0  0
 14 20  1  0  0  0  0
 14 21  1  0  0  0  0
 14 49  1  0  0  0  0
 15 17  1  0  0  0  0
 15 50  1  0  0  0  0
 16 18  1  0  0  0  0
 16 23  1  0  0  0  0
 16 51  1  0  0  0  0
 17 19  1  0  0  0  0
 17 20  1  0  0  0  0
 18 19  1  0  0  0  0
 18 25  1  0  0  0  0
 18 52  1  0  0  0  0
 19 26  1  0  0  0  0
 20 53  1  0  0  0  0
 21 27  1  0  0  0  0
 21 28  1  0  0  0  0
 21 31  1  0  0  0  0
 22 30  1  0  0  0  0
 22 54  1  0  0  0  0
 23 24  1  0  0  0  0
 23 55  1  0  0  0  0
 23 56  1  0  0  0  0
 24 25  1  0  0  0  0
 24 29  1  0  0  0  0
 24 57  1  0  0  0  0
 25 58  1  0  0  0  0
 26 29  1  0  0  0  0
 26 59  1  0  0  0  0
 26 60  1  0  0  0  0
 27 61  1  0  0  0  0
 27 62  1  0  0  0  0
 28 30  1  0  0  0  0
 28 63  1  0  0  0  0
 28 64  1  0  0  0  0
 29 65  1  0  0  0  0
 30 66  1  0  0  0  0
 30 67  1  0  0  0  0
 31 68  1  0  0  0  0
 31 69  1  0  0  0  0
 32 34  1  0  0  0  0
 32 72  1  0  0  0  0
 32 73  1  0  0  0  0
 33 75  1  0  0  0  0
 33 76  1  0  0  0  0
 33 77  1  0  0  0  0
 34 78  1  0  0  0  0
 34 79  1  0  0  0  0
 34 80  1  0  0  0  0
 35 81  1  0  0  0  0
 35 82  1  0  0  0  0
 35 83  1  0  0  0  0
 36 84  1  0  0  0  0
 36 85  1  0  0  0  0
 36 86  1  0  0  0  0
 37 38  1  0  0  0  0
 38 39  1  0  0  0  0
 38 40  2  0  0  0  0
 39 41  2  0  0  0  0
 40 42  1  0  0  0  0
 40 87  1  0  0  0  0
 41 43  1  0  0  0  0
 41 88  1  0  0  0  0
 42 43  2  0  0  0  0
 42 89  1  0  0  0  0
 43 90  1  0  0  0  0
 44 46  1  0  0  0  0
 45 47  1  0  0  0  0
 46 47  1  0  0  0  0
 46 48  1  0  0  0  0
 46 91  1  0  0  0  0
 47 92  1  0  0  0  0
 47 93  1  0  0  0  0
 48 94  1  0  0  0  0
 48 95  1  0  0  0  0
 48 96  1  0  0  0  0
M  END
> <PUBCHEM_COMPOUND_CID>
441722

> <PUBCHEM_CONFORMER_RMSD>
1.2

> <PUBCHEM_CONFORMER_DIVERSEORDER>
1
10
6
28
22
27
14
32
15
21
4
20
13
25
31
18
34
8
17
12
30
11
2
7
23
19
29
5
9
16
33
26
3
24

> <PUBCHEM_MMFF94_PARTIAL_CHARGES>
43
1 -0.68
10 -0.57
11 -0.81
12 -0.24
15 0.27
17 0.28
19 0.28
2 -0.68
20 0.28
22 0.28
25 0.28
27 0.27
29 0.28
3 -0.56
31 0.28
32 0.27
33 0.28
35 0.28
36 0.28
37 0.63
38 0.09
39 0.12
4 -0.56
40 -0.15
41 -0.15
42 -0.15
43 -0.15
44 0.57
45 0.57
46 0.06
47 0.06
5 -0.68
6 -0.56
7 -0.43
70 0.4
71 0.4
74 0.4
8 -0.57
87 0.15
88 0.15
89 0.15
9 -0.57
90 0.15

> <PUBCHEM_EFFECTIVE_ROTOR_COUNT>
11.6

> <PUBCHEM_PHARMACOPHORE_FEATURES>
19
1 1 acceptor
1 1 donor
1 10 acceptor
1 11 cation
1 2 acceptor
1 2 donor
1 3 acceptor
1 4 acceptor
1 5 acceptor
1 5 donor
1 6 acceptor
1 8 acceptor
1 9 acceptor
5 12 44 45 46 47 rings
6 13 14 21 22 28 30 rings
6 38 39 40 41 42 43 rings
8 11 13 14 15 17 20 21 27 rings
8 13 14 15 16 17 18 19 20 rings
8 16 18 19 23 24 25 26 29 rings

> <PUBCHEM_HEAVY_ATOM_COUNT>
48

> <PUBCHEM_ATOM_DEF_STEREO_COUNT>
13

> <PUBCHEM_ATOM_UDEF_STEREO_COUNT>
1

> <PUBCHEM_BOND_DEF_STEREO_COUNT>
0

> <PUBCHEM_BOND_UDEF_STEREO_COUNT>
0

> <PUBCHEM_ISOTOPIC_ATOM_COUNT>
0

> <PUBCHEM_COMPONENT_COUNT>
1

> <PUBCHEM_CACTVS_TAUTO_COUNT>
4

> <PUBCHEM_CONFORMER_ID>
0006BD7A00000001

> <PUBCHEM_MMFF94_ENERGY>
251.9875

> <PUBCHEM_FEATURE_SELFOVERLAP>
97.92

> <PUBCHEM_SHAPE_FINGERPRINT>
11146851 88 18186525406550794781
11578080 2 16342561840118619788
11621639 179 17416139493574119173
117089 54 17978224955746515723
12422481 6 17530687597785168132
13726171 33 17753024152354856441
13782708 43 17203065035893695424
13811026 1 17894635871900551215
14068700 675 18343584057761112048
14117953 113 18334857277168644525
14675019 173 18335978748974825996
14955137 171 18040435490837744696
15001296 14 18339370681910893753
15064981 113 18261679285425698613
15361156 5 17917419926514239845
15406563 5 18339923715296161065
15444296 121 18337949091002270725
20511986 3 18341626910094239801
21223535 225 17489041452206655037
23559900 14 18260835882370072497
23576562 1 18271235032774580229
24771293 8 18340211783159415688
249057 3 18410014356031104705
4144715 1 18267299842135893387
77296 10 18262516996530135929

> <PUBCHEM_SHAPE_MULTIPOLES>
919.16
17.79
3.9
2.54
7.29
0.81
0.15
-3.54
-0.17
1.98
1.57
-0.79
-0.61
-1.04

> <PUBCHEM_SHAPE_SELFOVERLAP>
2030.549

> <PUBCHEM_SHAPE_VOLUME>
484.5

> <PUBCHEM_COORDINATE_TYPE>
2
5
10

$$$$

