53297388
  -OEChem-07051213123D

 43 45  0     0  0  0  0  0  0999 V2000
    0.3713    2.1665   -0.4893 O   0  0  0  0  0  0  0  0  0  0  0  0
   -2.1413    2.2150   -0.1510 O   0  0  0  0  0  0  0  0  0  0  0  0
   -4.6603    2.4637    0.1767 O   0  0  0  0  0  0  0  0  0  0  0  0
    3.3640    0.5033   -1.8002 O   0  0  0  0  0  0  0  0  0  0  0  0
    4.5036   -3.0334    0.4186 O   0  0  0  0  0  0  0  0  0  0  0  0
    3.1961   -1.5998    1.5975 O   0  0  0  0  0  0  0  0  0  0  0  0
    5.5204    1.0835   -0.1731 O   0  0  0  0  0  0  0  0  0  0  0  0
   -1.0661   -1.2224   -0.2184 C   0  0  0  0  0  0  0  0  0  0  0  0
   -2.3703   -1.9470   -0.0286 C   0  0  0  0  0  0  0  0  0  0  0  0
   -0.9839    0.1734   -0.2616 C   0  0  0  0  0  0  0  0  0  0  0  0
   -3.5854   -1.0722    0.1131 C   0  0  0  0  0  0  0  0  0  0  0  0
   -3.5121    0.3242    0.0720 C   0  0  0  0  0  0  0  0  0  0  0  0
    1.3427   -1.3441   -0.5373 C   0  0  0  0  0  0  0  0  0  0  0  0
    0.1112   -1.9740   -0.3580 C   0  0  0  0  0  0  0  0  0  0  0  0
    1.4129    0.0455   -0.5792 C   0  0  0  0  0  0  0  0  0  0  0  0
    0.2529    0.8066   -0.4419 C   0  0  0  0  0  0  0  0  0  0  0  0
   -2.2065    0.9926   -0.1166 C   0  0  0  0  0  0  0  0  0  0  0  0
    2.5676   -2.1878   -0.6804 C   0  0  0  0  0  0  0  0  0  0  0  0
   -4.8385   -1.6787    0.2929 C   0  0  0  0  0  0  0  0  0  0  0  0
   -4.6704    1.1005    0.2083 C   0  0  0  0  0  0  0  0  0  0  0  0
    2.7024    0.7038   -0.7661 C   0  0  0  0  0  0  0  0  0  0  0  0
   -5.9921   -0.9065    0.4289 C   0  0  0  0  0  0  0  0  0  0  0  0
   -5.9075    0.4823    0.3866 C   0  0  0  0  0  0  0  0  0  0  0  0
    3.2231    1.6664    0.3065 C   0  0  0  0  0  0  0  0  0  0  0  0
    3.4244   -2.2204    0.5684 C   0  0  0  0  0  0  0  0  0  0  0  0
    4.7272    1.7589    0.4804 C   0  0  0  0  0  0  0  0  0  0  0  0
    5.2146    2.7002    1.5519 C   0  0  0  0  0  0  0  0  0  0  0  0
   -2.5233   -2.6071   -0.8921 H   0  0  0  0  0  0  0  0  0  0  0  0
   -2.2887   -2.5671    0.8734 H   0  0  0  0  0  0  0  0  0  0  0  0
    0.0533   -3.0602   -0.3224 H   0  0  0  0  0  0  0  0  0  0  0  0
    3.1760   -1.8715   -1.5324 H   0  0  0  0  0  0  0  0  0  0  0  0
    2.2762   -3.2254   -0.8904 H   0  0  0  0  0  0  0  0  0  0  0  0
   -4.9203   -2.7626    0.3280 H   0  0  0  0  0  0  0  0  0  0  0  0
   -6.9552   -1.3889    0.5677 H   0  0  0  0  0  0  0  0  0  0  0  0
   -6.8106    1.0774    0.4932 H   0  0  0  0  0  0  0  0  0  0  0  0
    2.8633    2.6690    0.0526 H   0  0  0  0  0  0  0  0  0  0  0  0
    2.8029    1.3678    1.2734 H   0  0  0  0  0  0  0  0  0  0  0  0
   -0.4812    2.5987   -0.3364 H   0  0  0  0  0  0  0  0  0  0  0  0
   -3.7609    2.7994    0.0481 H   0  0  0  0  0  0  0  0  0  0  0  0
    4.8700    2.3524    2.5288 H   0  0  0  0  0  0  0  0  0  0  0  0
    6.3077    2.7291    1.5487 H   0  0  0  0  0  0  0  0  0  0  0  0
    4.8373    3.7067    1.3548 H   0  0  0  0  0  0  0  0  0  0  0  0
    5.0598   -3.0541    1.2263 H   0  0  0  0  0  0  0  0  0  0  0  0
  1 16  1  0  0  0  0
  1 38  1  0  0  0  0
  2 17  2  0  0  0  0
  3 20  1  0  0  0  0
  3 39  1  0  0  0  0
  4 21  2  0  0  0  0
  5 25  1  0  0  0  0
  5 43  1  0  0  0  0
  6 25  2  0  0  0  0
  7 26  2  0  0  0  0
  8  9  1  0  0  0  0
  8 10  1  0  0  0  0
  8 14  2  0  0  0  0
  9 11  1  0  0  0  0
  9 28  1  0  0  0  0
  9 29  1  0  0  0  0
 10 16  2  0  0  0  0
 10 17  1  0  0  0  0
 11 12  2  0  0  0  0
 11 19  1  0  0  0  0
 12 17  1  0  0  0  0
 12 20  1  0  0  0  0
 13 14  1  0  0  0  0
 13 15  2  0  0  0  0
 13 18  1  0  0  0  0
 14 30  1  0  0  0  0
 15 16  1  0  0  0  0
 15 21  1  0  0  0  0
 18 25  1  0  0  0  0
 18 31  1  0  0  0  0
 18 32  1  0  0  0  0
 19 22  2  0  0  0  0
 19 33  1  0  0  0  0
 20 23  2  0  0  0  0
 21 24  1  0  0  0  0
 22 23  1  0  0  0  0
 22 34  1  0  0  0  0
 23 35  1  0  0  0  0
 24 26  1  0  0  0  0
 24 36  1  0  0  0  0
 24 37  1  0  0  0  0
 26 27  1  0  0  0  0
 27 40  1  0  0  0  0
 27 41  1  0  0  0  0
 27 42  1  0  0  0  0
M  END
> <PUBCHEM_COMPOUND_CID>
53297388

> <PUBCHEM_CONFORMER_RMSD>
0.8

> <PUBCHEM_CONFORMER_DIVERSEORDER>
1
30
16
31
6
29
14
24
20
32
2
27
28
23
25
26
18
19
10
11
17
9
22
7
13
15
5
12
4
8
21
3

> <PUBCHEM_MMFF94_PARTIAL_CHARGES>
34
1 -0.53
10 0.09
11 -0.14
12 0.09
13 -0.14
14 -0.15
15 0.09
16 0.08
17 0.4
18 0.2
19 -0.15
2 -0.57
20 0.08
21 0.42
22 -0.15
23 -0.15
24 0.12
25 0.66
26 0.45
27 0.06
3 -0.53
30 0.15
33 0.15
34 0.15
35 0.15
38 0.45
39 0.45
4 -0.57
43 0.5
5 -0.65
6 -0.57
7 -0.57
8 -0.14
9 0.29

> <PUBCHEM_EFFECTIVE_ROTOR_COUNT>
5.2

> <PUBCHEM_PHARMACOPHORE_FEATURES>
12
1 1 donor
1 2 acceptor
1 24 anion
1 3 donor
1 4 acceptor
1 5 acceptor
1 6 acceptor
1 7 acceptor
3 5 6 25 anion
6 11 12 19 20 22 23 rings
6 8 10 13 14 15 16 rings
6 8 9 10 11 12 17 rings

> <PUBCHEM_HEAVY_ATOM_COUNT>
27

> <PUBCHEM_ATOM_DEF_STEREO_COUNT>
0

> <PUBCHEM_ATOM_UDEF_STEREO_COUNT>
0

> <PUBCHEM_BOND_DEF_STEREO_COUNT>
0

> <PUBCHEM_BOND_UDEF_STEREO_COUNT>
0

> <PUBCHEM_ISOTOPIC_ATOM_COUNT>
0

> <PUBCHEM_COMPONENT_COUNT>
1

> <PUBCHEM_CACTVS_TAUTO_COUNT>
998

> <PUBCHEM_CONFORMER_ID>
032D40EC00000001

> <PUBCHEM_MMFF94_ENERGY>
77.5659

> <PUBCHEM_FEATURE_SELFOVERLAP>
60.996

> <PUBCHEM_SHAPE_FINGERPRINT>
10 15 18266464209304828536
10006869 2 18187368761026709129
1100329 8 17614272694772112568
12107183 9 17979635967912240305
12236239 1 17632017442354864573
12422481 6 18198651937330740800
12788726 201 17313096488426236097
13073987 5 18411978066554685395
13140716 1 18339924947139554135
13402501 40 18187646838768866944
13533116 47 18413107290186447162
14178342 30 18126005966637379686
14739800 52 18041569057176555560
14849402 71 18342175558233781096
14955137 171 18116996796520417622
15196674 1 18411696617221294807
15927050 60 18264209115589064558
16992610 120 18055905504452909028
17492 89 18412821391747297571
1813 80 16773797012795792646
20511986 3 18342189860105767519
20691752 17 17131829902001530454
20739085 24 18272363213298228014
21130935 74 18410005551527814827
21267235 1 18341037627744208335
21421861 104 18131080354797062450
21452121 103 18408887330494411066
21792934 111 18342177813060138505
21859007 373 17486790828902779173
22182313 1 17845388776394242566
23559900 14 18046342200161476119
239999 70 18187353312630453332
3004659 81 18200868582104125183
3411729 13 18410577258776406426
34797466 226 17385714786481718837
34934 24 18335984164342919399
350125 39 18340203093933400462
3680242 22 18339915000485998305
4073 2 18130498643988791635
4340502 62 18334575711781199260
5104073 3 18339352055001423091
5265222 85 17977377232665894588

> <PUBCHEM_SHAPE_MULTIPOLES>
514.56
13.14
3.1
1
4.75
0.33
0.05
-3.51
3.61
-2.77
0.58
-1.18
-0.07
0.47

> <PUBCHEM_SHAPE_SELFOVERLAP>
1134.535

> <PUBCHEM_SHAPE_VOLUME>
273.7

> <PUBCHEM_COORDINATE_TYPE>
2
5
10

$$$$

