4143
  -OEChem-06251223553D

 41 43  0     0  0  0  0  0  0999 V2000
   -2.9716    1.8246   -0.4276 S   0  0  0  0  0  0  0  0  0  0  0  0
   -4.3191    2.0359    0.0879 O   0  0  0  0  0  0  0  0  0  0  0  0
   -2.7133    2.0727   -1.8408 O   0  0  0  0  0  0  0  0  0  0  0  0
    3.6209   -0.3544   -1.2823 O   0  0  0  0  0  0  0  0  0  0  0  0
    5.1192   -1.7536    0.4791 O   0  0  0  0  0  0  0  0  0  0  0  0
   -1.8809    2.7535    0.5295 N   0  0  0  0  0  0  0  0  0  0  0  0
    4.7810   -0.4143    0.7138 N   0  0  0  0  0  0  0  0  0  0  0  0
   -2.5110    0.1821   -0.0553 C   0  0  0  0  0  0  0  0  0  0  0  0
   -1.1561   -1.7807   -0.5346 C   0  0  0  0  0  0  0  0  0  0  0  0
   -1.7711   -2.4604    0.5437 C   0  0  0  0  0  0  0  0  0  0  0  0
   -1.5372   -0.4597   -0.8208 C   0  0  0  0  0  0  0  0  0  0  0  0
   -0.4748    2.4730    0.4180 C   0  0  0  0  0  0  0  0  0  0  0  0
   -3.1158   -0.4863    1.0050 C   0  0  0  0  0  0  0  0  0  0  0  0
   -2.7493   -1.7988    1.3039 C   0  0  0  0  0  0  0  0  0  0  0  0
    2.2424    1.9293    0.2024 C   0  0  0  0  0  0  0  0  0  0  0  0
   -0.1776   -2.4420   -1.2946 C   0  0  0  0  0  0  0  0  0  0  0  0
    0.1579    2.6093   -0.8120 C   0  0  0  0  0  0  0  0  0  0  0  0
    0.2362    2.0679    1.5412 C   0  0  0  0  0  0  0  0  0  0  0  0
   -1.3899   -3.7815    0.8298 C   0  0  0  0  0  0  0  0  0  0  0  0
    1.5215    2.3363   -0.9202 C   0  0  0  0  0  0  0  0  0  0  0  0
    1.5998    1.7951    1.4331 C   0  0  0  0  0  0  0  0  0  0  0  0
    3.7010    1.6394    0.0877 C   0  0  0  0  0  0  0  0  0  0  0  0
    0.1888   -3.7547   -0.9963 C   0  0  0  0  0  0  0  0  0  0  0  0
   -0.4163   -4.4232    0.0638 C   0  0  0  0  0  0  0  0  0  0  0  0
    4.0153    0.1906   -0.2545 C   0  0  0  0  0  0  0  0  0  0  0  0
   -1.0690    0.0558   -1.6564 H   0  0  0  0  0  0  0  0  0  0  0  0
   -2.2000    2.9831    1.4799 H   0  0  0  0  0  0  0  0  0  0  0  0
   -3.8708   -0.0039    1.6195 H   0  0  0  0  0  0  0  0  0  0  0  0
   -3.2339   -2.3013    2.1384 H   0  0  0  0  0  0  0  0  0  0  0  0
    0.3099   -1.9385   -2.1270 H   0  0  0  0  0  0  0  0  0  0  0  0
   -0.3727    2.9526   -1.6939 H   0  0  0  0  0  0  0  0  0  0  0  0
   -0.2560    1.9578    2.5036 H   0  0  0  0  0  0  0  0  0  0  0  0
   -1.8494   -4.3232    1.6540 H   0  0  0  0  0  0  0  0  0  0  0  0
    2.0115    2.4491   -1.8837 H   0  0  0  0  0  0  0  0  0  0  0  0
    2.1502    1.4764    2.3144 H   0  0  0  0  0  0  0  0  0  0  0  0
    4.2084    1.9376    1.0141 H   0  0  0  0  0  0  0  0  0  0  0  0
    4.1519    2.2614   -0.6966 H   0  0  0  0  0  0  0  0  0  0  0  0
    0.9474   -4.2545   -1.5916 H   0  0  0  0  0  0  0  0  0  0  0  0
   -0.1304   -5.4450    0.2957 H   0  0  0  0  0  0  0  0  0  0  0  0
    5.2222    0.0375    1.5064 H   0  0  0  0  0  0  0  0  0  0  0  0
    4.4117   -2.1990    0.9754 H   0  0  0  0  0  0  0  0  0  0  0  0
  1  2  2  0  0  0  0
  1  3  2  0  0  0  0
  1  6  1  0  0  0  0
  1  8  1  0  0  0  0
  4 25  2  0  0  0  0
  5  7  1  0  0  0  0
  5 41  1  0  0  0  0
  6 12  1  0  0  0  0
  6 27  1  0  0  0  0
  7 25  1  0  0  0  0
  7 40  1  0  0  0  0
  8 11  2  0  0  0  0
  8 13  1  0  0  0  0
  9 10  1  0  0  0  0
  9 11  1  0  0  0  0
  9 16  2  0  0  0  0
 10 14  1  0  0  0  0
 10 19  2  0  0  0  0
 11 26  1  0  0  0  0
 12 17  2  0  0  0  0
 12 18  1  0  0  0  0
 13 14  2  0  0  0  0
 13 28  1  0  0  0  0
 14 29  1  0  0  0  0
 15 20  2  0  0  0  0
 15 21  1  0  0  0  0
 15 22  1  0  0  0  0
 16 23  1  0  0  0  0
 16 30  1  0  0  0  0
 17 20  1  0  0  0  0
 17 31  1  0  0  0  0
 18 21  2  0  0  0  0
 18 32  1  0  0  0  0
 19 24  1  0  0  0  0
 19 33  1  0  0  0  0
 20 34  1  0  0  0  0
 21 35  1  0  0  0  0
 22 25  1  0  0  0  0
 22 36  1  0  0  0  0
 22 37  1  0  0  0  0
 23 24  2  0  0  0  0
 23 38  1  0  0  0  0
 24 39  1  0  0  0  0
M  END
> <PUBCHEM_COMPOUND_CID>
4143

> <PUBCHEM_CONFORMER_RMSD>
0.8

> <PUBCHEM_CONFORMER_DIVERSEORDER>
1
46
18
20
62
15
89
6
67
98
95
39
82
80
33
72
68
21
8
45
28
60
2
75
34
9
74
5
26
92
12
51
27
63
3
19
96
94
32
10
65
90
37
99
70
30
41
100
59
13
55
42
7
58
17
44
16
22
73
4
66
93
61
50
24
97
84
23
71
14
31
48
29
11
52
88
78
47
83
69
77
87
25
81
79
64
86
43
36
54
40
91
76
35
49
101
53
85
38
57
56

> <PUBCHEM_MMFF94_PARTIAL_CHARGES>
37
1 1.45
11 -0.15
12 0.2
13 -0.15
14 -0.15
15 -0.14
16 -0.15
17 -0.15
18 -0.15
19 -0.15
2 -0.65
20 -0.15
21 -0.15
22 0.2
23 -0.15
24 -0.15
25 0.57
26 0.15
27 0.42
28 0.15
29 0.15
3 -0.65
30 0.15
31 0.15
32 0.15
33 0.15
34 0.15
35 0.15
38 0.15
39 0.15
4 -0.57
40 0.37
41 0.4
5 -0.44
6 -0.76
7 -0.39
8 -0.01

> <PUBCHEM_EFFECTIVE_ROTOR_COUNT>
6

> <PUBCHEM_PHARMACOPHORE_FEATURES>
8
1 2 acceptor
1 3 acceptor
1 4 acceptor
1 6 donor
1 7 donor
6 12 15 17 18 20 21 rings
6 8 9 10 11 13 14 rings
6 9 10 16 19 23 24 rings

> <PUBCHEM_HEAVY_ATOM_COUNT>
25

> <PUBCHEM_ATOM_DEF_STEREO_COUNT>
0

> <PUBCHEM_ATOM_UDEF_STEREO_COUNT>
0

> <PUBCHEM_BOND_DEF_STEREO_COUNT>
0

> <PUBCHEM_BOND_UDEF_STEREO_COUNT>
0

> <PUBCHEM_ISOTOPIC_ATOM_COUNT>
0

> <PUBCHEM_COMPONENT_COUNT>
1

> <PUBCHEM_CACTVS_TAUTO_COUNT>
3

> <PUBCHEM_CONFORMER_ID>
0000102F00000001

> <PUBCHEM_MMFF94_ENERGY>
61.4862

> <PUBCHEM_FEATURE_SELFOVERLAP>
40.639

> <PUBCHEM_SHAPE_FINGERPRINT>
107951 10 17703790366292483153
11014199 57 17473541353026467038
12156800 1 16195876139395009475
12403259 327 16665680746363121147
12422481 6 18198033985820450809
12553582 1 17257652214267233455
12633257 1 17899671510728398979
13122387 1 18409444752872784914
13140716 1 18408317804714159033
13726171 33 17977345470781607652
14251757 5 18265593452167126982
15403338 16 16913987081831597171
16110190 28 18338231566916857672
16719943 64 18338519763386128354
16728300 4 17844825852000440490
17627616 140 17116055449750794390
17859628 97 18338801237681798424
19930381 70 17979352285353987443
20291156 8 17041476116828976731
20775530 9 17976817580461119554
21344244 246 18194138527897761439
23419403 2 17478566512197384081
238918 7 18187929555571361806
25265897 201 17826832198256455378
3027735 51 18047753990186701632
3298306 158 18194971961489838733
340366 18 18131067134492632284
5265222 85 18411128169636596492
5283178 26 18261099738794790267
5309563 4 17257652214594956542
532947 4 18122062263346840463
7097593 13 17399502438687003739

> <PUBCHEM_SHAPE_MULTIPOLES>
484.9
7.02
5.5
1.37
8.12
3.47
0.04
1.37
-1.03
-2.82
0.44
-0.19
-0.18
0.61

> <PUBCHEM_SHAPE_SELFOVERLAP>
1040.895

> <PUBCHEM_SHAPE_VOLUME>
266.3

> <PUBCHEM_COORDINATE_TYPE>
2
5
10

$$$$

