4213
  -OEChem-06251223582D

 31 32  0     1  0  0  0  0  0999 V2000
    5.0298   -1.5122    0.0000 O   0  0  0  0  0  0  0  0  0  0  0  0
    2.4608   -1.2031    0.0000 O   0  0  0  0  0  0  0  0  0  0  0  0
    3.1330   -3.2722    0.0000 O   0  0  0  0  0  0  0  0  0  0  0  0
    6.3031   -3.1677    0.0000 O   0  0  0  0  0  0  0  0  0  0  0  0
    5.9809    0.3544    0.0000 O   0  0  0  0  0  0  0  0  0  0  0  0
    6.3031    2.3190    0.0000 O   0  0  0  0  0  0  0  0  0  0  0  0
    4.2208    0.0756    0.0000 N   0  0  0  0  0  0  0  0  0  0  0  0
    3.7208    1.6145    0.0000 N   0  0  0  0  0  0  0  0  0  0  0  0
    4.9019    3.3370    0.0000 N   0  0  0  0  0  0  0  0  0  0  0  0
    3.4118   -1.5122    0.0000 C   0  0  3  0  0  0  0  0  0  0  0  0
    3.7208   -2.4632    0.0000 C   0  0  3  0  0  0  0  0  0  0  0  0
    4.2208   -0.9244    0.0000 C   0  0  3  0  0  0  0  0  0  0  0  0
    4.7208   -2.4632    0.0000 C   0  0  3  0  0  0  0  0  0  0  0  0
    5.3086   -3.2722    0.0000 C   0  0  0  0  0  0  0  0  0  0  0  0
    5.0298    0.6634    0.0000 C   0  0  0  0  0  0  0  0  0  0  0  0
    3.4118    0.6634    0.0000 C   0  0  0  0  0  0  0  0  0  0  0  0
    4.7208    1.6145    0.0000 C   0  0  0  0  0  0  0  0  0  0  0  0
    5.3086    2.4235    0.0000 C   0  0  0  0  0  0  0  0  0  0  0  0
    3.2788   -0.6726    0.0000 H   0  0  0  0  0  0  0  0  0  0  0  0
    2.8813   -2.3302    0.0000 H   0  0  0  0  0  0  0  0  0  0  0  0
    3.4635   -0.5385    0.0000 H   0  0  0  0  0  0  0  0  0  0  0  0
    5.5604   -2.3302    0.0000 H   0  0  0  0  0  0  0  0  0  0  0  0
    4.7514   -3.5440    0.0000 H   0  0  0  0  0  0  0  0  0  0  0  0
    5.4795   -3.8682    0.0000 H   0  0  0  0  0  0  0  0  0  0  0  0
    2.0000   -1.6180    0.0000 H   0  0  0  0  0  0  0  0  0  0  0  0
    3.3852   -3.8386    0.0000 H   0  0  0  0  0  0  0  0  0  0  0  0
    2.8222    0.4718    0.0000 H   0  0  0  0  0  0  0  0  0  0  0  0
    6.6676   -3.6693    0.0000 H   0  0  0  0  0  0  0  0  0  0  0  0
    6.4416    0.7693    0.0000 H   0  0  0  0  0  0  0  0  0  0  0  0
    5.2663    3.8386    0.0000 H   0  0  0  0  0  0  0  0  0  0  0  0
    4.2853    3.4018    0.0000 H   0  0  0  0  0  0  0  0  0  0  0  0
  1 12  1  0  0  0  0
  1 13  1  0  0  0  0
  2 10  1  0  0  0  0
  2 25  1  0  0  0  0
  3 11  1  0  0  0  0
  3 26  1  0  0  0  0
  4 14  1  0  0  0  0
  4 28  1  0  0  0  0
  5 15  1  0  0  0  0
  5 29  1  0  0  0  0
  6 18  2  0  0  0  0
  7 12  1  0  0  0  0
  7 15  1  0  0  0  0
  7 16  1  0  0  0  0
  8 16  2  0  0  0  0
  8 17  1  0  0  0  0
  9 18  1  0  0  0  0
  9 30  1  0  0  0  0
  9 31  1  0  0  0  0
 10 11  1  0  0  0  0
 10 12  1  0  0  0  0
 10 19  1  0  0  0  0
 11 13  1  0  0  0  0
 11 20  1  0  0  0  0
 12 21  1  0  0  0  0
 13 14  1  0  0  0  0
 13 22  1  0  0  0  0
 14 23  1  0  0  0  0
 14 24  1  0  0  0  0
 15 17  2  0  0  0  0
 16 27  1  0  0  0  0
 17 18  1  0  0  0  0
M  END
> <PUBCHEM_COMPOUND_CID>
4213

> <PUBCHEM_COMPOUND_CANONICALIZED>
1

> <PUBCHEM_CACTVS_COMPLEXITY>
329

> <PUBCHEM_CACTVS_HBOND_ACCEPTOR>
7

> <PUBCHEM_CACTVS_HBOND_DONOR>
5

> <PUBCHEM_CACTVS_ROTATABLE_BOND>
3

> <PUBCHEM_CACTVS_SUBSKEYS>
AAADccBzOAAAAAAAAAAAAAAAAAAAAWJAAAAAAAAAAAAAAAABgAAAHgAQCAAACBzhlgYFlBdMFgCoAQVxdASAgC0XcKABUAGtVESDWA5SyCAeQMAPIALTAGDwMAIAAAAAAAAAAAAAAAAAAAAAAAAAAAAAAA==

> <PUBCHEM_IUPAC_OPENEYE_NAME>
1-[3,4-dihydroxy-5-(hydroxymethyl)tetrahydrofuran-2-yl]-5-hydroxy-imidazole-4-carboxamide

> <PUBCHEM_IUPAC_CAS_NAME>
1-[3,4-dihydroxy-5-(hydroxymethyl)-2-oxolanyl]-5-hydroxy-4-imidazolecarboxamide

> <PUBCHEM_IUPAC_NAME>
1-[3,4-dihydroxy-5-(hydroxymethyl)oxolan-2-yl]-5-hydroxyimidazole-4-carboxamide

> <PUBCHEM_IUPAC_SYSTEMATIC_NAME>
1-[5-(hydroxymethyl)-3,4-bis(oxidanyl)oxolan-2-yl]-5-oxidanyl-imidazole-4-carboxamide

> <PUBCHEM_IUPAC_TRADITIONAL_NAME>
1-(3,4-dihydroxy-5-methylol-tetrahydrofuran-2-yl)-5-hydroxy-imidazole-4-carboxamide

> <PUBCHEM_IUPAC_INCHI>
InChI=1S/C9H13N3O6/c10-7(16)4-8(17)12(2-11-4)9-6(15)5(14)3(1-13)18-9/h2-3,5-6,9,13-15,17H,1H2,(H2,10,16)

> <PUBCHEM_IUPAC_INCHIKEY>
HZQDCMWJEBCWBR-UHFFFAOYSA-N

> <PUBCHEM_XLOGP3_AA>
-1.9

> <PUBCHEM_EXACT_MASS>
259.080435

> <PUBCHEM_MOLECULAR_FORMULA>
C9H13N3O6

> <PUBCHEM_MOLECULAR_WEIGHT>
259.21602

> <PUBCHEM_OPENEYE_CAN_SMILES>
C1=NC(=C(N1C2C(C(C(O2)CO)O)O)O)C(=O)N

> <PUBCHEM_OPENEYE_ISO_SMILES>
C1=NC(=C(N1C2C(C(C(O2)CO)O)O)O)C(=O)N

> <PUBCHEM_CACTVS_TPSA>
151

> <PUBCHEM_MONOISOTOPIC_WEIGHT>
259.080435

> <PUBCHEM_TOTAL_CHARGE>
0

> <PUBCHEM_HEAVY_ATOM_COUNT>
18

> <PUBCHEM_ATOM_DEF_STEREO_COUNT>
0

> <PUBCHEM_ATOM_UDEF_STEREO_COUNT>
4

> <PUBCHEM_BOND_DEF_STEREO_COUNT>
0

> <PUBCHEM_BOND_UDEF_STEREO_COUNT>
0

> <PUBCHEM_ISOTOPIC_ATOM_COUNT>
0

> <PUBCHEM_COMPONENT_COUNT>
1

> <PUBCHEM_CACTVS_TAUTO_COUNT>
5

> <PUBCHEM_COORDINATE_TYPE>
1
5
255

> <PUBCHEM_BONDANNOTATIONS>
10  19  3
11  20  3
12  21  3
13  22  3
15  17  8
7  15  8
7  16  8
8  16  8
8  17  8

$$$$

