21589070
  -OEChem-07051213152D

 48 52  0     1  0  0  0  0  0999 V2000
    5.9131    0.8566    0.0000 O   0  0  0  0  0  0  0  0  0  0  0  0
    3.0296   -0.8310    0.0000 O   0  0  0  0  0  0  0  0  0  0  0  0
    3.7019   -2.9001    0.0000 O   0  0  0  0  0  0  0  0  0  0  0  0
    2.7364    1.2083    0.0000 N   0  0  0  0  0  0  0  0  0  0  0  0
    4.2896   -2.0911    0.0000 N   0  0  0  0  0  0  0  0  0  0  0  0
    3.7399    2.4666    0.0000 C   0  0  2  0  0  0  0  0  0  0  0  0
    4.2896    1.6384    0.0000 C   0  0  1  0  0  0  0  0  0  0  0  0
    3.6662    0.8566    0.0000 C   0  0  2  0  0  0  0  0  0  0  0  0
    4.7896   -0.5522    0.0000 C   0  0  2  0  0  0  0  0  0  0  0  0
    5.6906   -0.1184    0.0000 C   0  0  1  0  0  0  0  0  0  0  0  0
    2.7818    2.2013    0.0000 C   0  0  1  0  0  0  0  0  0  0  0  0
    3.9690    0.6110    0.0000 C   0  0  0  0  0  0  0  0  0  0  0  0
    3.8887   -0.1184    0.0000 C   0  0  0  0  0  0  0  0  0  0  0  0
    5.2896    1.6384    0.0000 C   0  0  0  0  0  0  0  0  0  0  0  0
    5.5987   -1.1400    0.0000 C   0  0  0  0  0  0  0  0  0  0  0  0
    2.0000    2.8248    0.0000 C   0  0  0  0  0  0  0  0  0  0  0  0
    3.9806   -1.1400    0.0000 C   0  0  0  0  0  0  0  0  0  0  0  0
    5.2896   -2.0911    0.0000 C   0  0  0  0  0  0  0  0  0  0  0  0
    2.1490    3.8136    0.0000 C   0  0  0  0  0  0  0  0  0  0  0  0
    6.6141   -0.9078    0.0000 C   0  0  0  0  0  0  0  0  0  0  0  0
    5.9746   -2.8758    0.0000 C   0  0  0  0  0  0  0  0  0  0  0  0
    7.3170   -1.6765    0.0000 C   0  0  0  0  0  0  0  0  0  0  0  0
    6.9951   -2.6671    0.0000 C   0  0  0  0  0  0  0  0  0  0  0  0
    4.1086   -3.8136    0.0000 C   0  0  0  0  0  0  0  0  0  0  0  0
    3.6357    3.3102    0.0000 H   0  0  0  0  0  0  0  0  0  0  0  0
    4.8196    2.3030    0.0000 H   0  0  0  0  0  0  0  0  0  0  0  0
    3.1362    0.1920    0.0000 H   0  0  0  0  0  0  0  0  0  0  0  0
    6.4564    0.2504    0.0000 H   0  0  0  0  0  0  0  0  0  0  0  0
    2.2172    1.9452    0.0000 H   0  0  0  0  0  0  0  0  0  0  0  0
    3.3498    0.6430    0.0000 H   0  0  0  0  0  0  0  0  0  0  0  0
    3.8300    0.0068    0.0000 H   0  0  0  0  0  0  0  0  0  0  0  0
    3.2687   -0.1184    0.0000 H   0  0  0  0  0  0  0  0  0  0  0  0
    3.7507   -0.7228    0.0000 H   0  0  0  0  0  0  0  0  0  0  0  0
    2.2184    0.8676    0.0000 H   0  0  0  0  0  0  0  0  0  0  0  0
    5.8482    1.9074    0.0000 H   0  0  0  0  0  0  0  0  0  0  0  0
    5.1517    2.2429    0.0000 H   0  0  0  0  0  0  0  0  0  0  0  0
    1.4123    3.0223    0.0000 H   0  0  0  0  0  0  0  0  0  0  0  0
    1.7035    2.2803    0.0000 H   0  0  0  0  0  0  0  0  0  0  0  0
    2.7621    3.7212    0.0000 H   0  0  0  0  0  0  0  0  0  0  0  0
    2.2414    4.4267    0.0000 H   0  0  0  0  0  0  0  0  0  0  0  0
    1.5360    3.9060    0.0000 H   0  0  0  0  0  0  0  0  0  0  0  0
    6.7988   -0.3159    0.0000 H   0  0  0  0  0  0  0  0  0  0  0  0
    5.7762   -3.4632    0.0000 H   0  0  0  0  0  0  0  0  0  0  0  0
    7.9230   -1.5452    0.0000 H   0  0  0  0  0  0  0  0  0  0  0  0
    7.4082   -3.1295    0.0000 H   0  0  0  0  0  0  0  0  0  0  0  0
    3.5422   -4.0658    0.0000 H   0  0  0  0  0  0  0  0  0  0  0  0
    4.3608   -4.3800    0.0000 H   0  0  0  0  0  0  0  0  0  0  0  0
    4.6750   -3.5615    0.0000 H   0  0  0  0  0  0  0  0  0  0  0  0
  1 10  1  0  0  0  0
  1 14  1  0  0  0  0
  2 17  2  0  0  0  0
  3  5  1  0  0  0  0
  3 24  1  0  0  0  0
  4  8  1  0  0  0  0
  4 11  1  0  0  0  0
  4 34  1  0  0  0  0
  5 17  1  0  0  0  0
  5 18  1  0  0  0  0
  6  7  1  0  0  0  0
  6 11  1  0  0  0  0
  6 12  1  0  0  0  0
  6 25  1  6  0  0  0
  7  8  1  0  0  0  0
  7 14  1  0  0  0  0
  7 26  1  1  0  0  0
  8 13  1  0  0  0  0
  8 27  1  1  0  0  0
  9 10  1  0  0  0  0
  9 13  1  0  0  0  0
  9 15  1  0  0  0  0
  9 17  1  6  0  0  0
 10 12  1  0  0  0  0
 10 28  1  6  0  0  0
 11 16  1  6  0  0  0
 11 29  1  0  0  0  0
 12 30  1  0  0  0  0
 12 31  1  0  0  0  0
 13 32  1  0  0  0  0
 13 33  1  0  0  0  0
 14 35  1  0  0  0  0
 14 36  1  0  0  0  0
 15 18  1  0  0  0  0
 15 20  2  0  0  0  0
 16 19  1  0  0  0  0
 16 37  1  0  0  0  0
 16 38  1  0  0  0  0
 18 21  2  0  0  0  0
 19 39  1  0  0  0  0
 19 40  1  0  0  0  0
 19 41  1  0  0  0  0
 20 22  1  0  0  0  0
 20 42  1  0  0  0  0
 21 23  1  0  0  0  0
 21 43  1  0  0  0  0
 22 23  2  0  0  0  0
 22 44  1  0  0  0  0
 23 45  1  0  0  0  0
 24 46  1  0  0  0  0
 24 47  1  0  0  0  0
 24 48  1  0  0  0  0
M  END
> <PUBCHEM_COMPOUND_CID>
21589070

> <PUBCHEM_COMPOUND_CANONICALIZED>
1

> <PUBCHEM_CACTVS_COMPLEXITY>
541

> <PUBCHEM_CACTVS_HBOND_ACCEPTOR>
4

> <PUBCHEM_CACTVS_HBOND_DONOR>
1

> <PUBCHEM_CACTVS_ROTATABLE_BOND>
2

> <PUBCHEM_CACTVS_SUBSKEYS>
AAADceB7MAAAAAAAAAAAAAAAAAAAAWLAAAA0QAAABogWAFgBAAAAHgAUAAAADzzhmAYywILQBACIAiVSUACCAAAhAgAoiIEIZIgIIDbAlZGGIAhm9AHIyAe82POPgAAAAAACAAAAAAAAAAQAAAAAAAAAAA==

> <PUBCHEM_IUPAC_INCHI>
InChI=1S/C19H24N2O3/c1-3-14-11-8-17-19(9-15(20-14)12(11)10-24-17)13-6-4-5-7-16(13)21(23-2)18(19)22/h4-7,11-12,14-15,17,20H,3,8-10H2,1-2H3/t11-,12+,14-,15+,17-,19+/m1/s1

> <PUBCHEM_IUPAC_INCHIKEY>
LDBVYQSHIPCQPT-CTSQFDBHSA-N

> <PUBCHEM_XLOGP3_AA>
1.9

> <PUBCHEM_EXACT_MASS>
328.178693

> <PUBCHEM_MOLECULAR_FORMULA>
C19H24N2O3

> <PUBCHEM_MOLECULAR_WEIGHT>
328.40546

> <PUBCHEM_OPENEYE_CAN_SMILES>
CCC1C2CC3C4(CC(C2CO3)N1)C5=CC=CC=C5N(C4=O)OC

> <PUBCHEM_OPENEYE_ISO_SMILES>
CC[C@@H]1[C@@H]2C[C@@H]3[C@]4(C[C@@H]([C@H]2CO3)N1)C5=CC=CC=C5N(C4=O)OC

> <PUBCHEM_CACTVS_TPSA>
50.8

> <PUBCHEM_MONOISOTOPIC_WEIGHT>
328.178693

> <PUBCHEM_TOTAL_CHARGE>
0

> <PUBCHEM_HEAVY_ATOM_COUNT>
24

> <PUBCHEM_ATOM_DEF_STEREO_COUNT>
6

> <PUBCHEM_ATOM_UDEF_STEREO_COUNT>
0

> <PUBCHEM_BOND_DEF_STEREO_COUNT>
0

> <PUBCHEM_BOND_UDEF_STEREO_COUNT>
0

> <PUBCHEM_ISOTOPIC_ATOM_COUNT>
0

> <PUBCHEM_COMPONENT_COUNT>
1

> <PUBCHEM_CACTVS_TAUTO_COUNT>
1

> <PUBCHEM_COORDINATE_TYPE>
1
5
255

> <PUBCHEM_BONDANNOTATIONS>
10  28  6
11  16  6
15  18  8
15  20  8
18  21  8
20  22  8
21  23  8
22  23  8
6  25  6
7  26  5
8  27  5
9  17  6

$$$$

