5281586
  -OEChem-07051212583D

 82 85  0     1  0  0  0  0  0999 V2000
    0.4475   -2.7819   -0.1744 O   0  0  0  0  0  0  0  0  0  0  0  0
   -2.9118    0.6294    0.3441 O   0  0  0  0  0  0  0  0  0  0  0  0
    0.8653    0.6354   -1.7011 O   0  0  0  0  0  0  0  0  0  0  0  0
    5.0095    2.5745   -0.2235 O   0  0  0  0  0  0  0  0  0  0  0  0
   -4.0628   -1.7669   -1.3393 N   0  0  0  0  0  0  0  0  0  0  0  0
   -1.2906   -0.6211   -0.7511 N   0  0  0  0  0  0  0  0  0  0  0  0
    1.7495    1.0251    0.4054 N   0  0  0  0  0  0  0  0  0  0  0  0
    4.2388    0.4522   -0.7172 N   0  0  0  0  0  0  0  0  0  0  0  0
   -3.5044   -0.4691   -1.7276 C   0  0  1  0  0  0  0  0  0  0  0  0
   -4.6346    0.5537   -1.9261 C   0  0  0  0  0  0  0  0  0  0  0  0
   -4.2156    1.8317   -2.6845 C   0  0  0  0  0  0  0  0  0  0  0  0
   -0.2258   -0.4175    0.2033 C   0  0  1  0  0  0  0  0  0  0  0  0
    0.2784   -1.7441    0.8250 C   0  0  1  0  0  0  0  0  0  0  0  0
   -2.5575   -0.0751   -0.5994 C   0  0  0  0  0  0  0  0  0  0  0  0
   -5.3855    2.7911   -2.9072 C   0  0  0  0  0  0  0  0  0  0  0  0
   -3.1022    2.5468   -1.9136 C   0  0  0  0  0  0  0  0  0  0  0  0
    0.8501    0.4431   -0.4855 C   0  0  0  0  0  0  0  0  0  0  0  0
   -0.6873   -2.2494    1.8901 C   0  0  0  0  0  0  0  0  0  0  0  0
    2.6410    2.1344    0.0420 C   0  0  1  0  0  0  0  0  0  0  0  0
   -4.5973   -2.4608   -2.5092 C   0  0  0  0  0  0  0  0  0  0  0  0
   -5.1025   -1.5907   -0.3273 C   0  0  0  0  0  0  0  0  0  0  0  0
    2.5853    3.2066    1.1269 C   0  0  0  0  0  0  0  0  0  0  0  0
   -1.7314   -3.1040    1.5362 C   0  0  0  0  0  0  0  0  0  0  0  0
   -0.5273   -1.8570    3.2192 C   0  0  0  0  0  0  0  0  0  0  0  0
    4.1002    1.7454   -0.2572 C   0  0  0  0  0  0  0  0  0  0  0  0
    1.7341   -2.8327   -0.6422 C   0  0  0  0  0  0  0  0  0  0  0  0
    1.1801    3.6927    1.3549 C   0  0  0  0  0  0  0  0  0  0  0  0
   -2.6153   -3.5662    2.5113 C   0  0  0  0  0  0  0  0  0  0  0  0
   -1.4111   -2.3192    4.1942 C   0  0  0  0  0  0  0  0  0  0  0  0
   -2.4552   -3.1737    3.8403 C   0  0  0  0  0  0  0  0  0  0  0  0
    2.7972   -3.1426    0.2076 C   0  0  0  0  0  0  0  0  0  0  0  0
    1.9545   -2.4692   -1.9694 C   0  0  0  0  0  0  0  0  0  0  0  0
    0.3683    3.0623    2.2980 C   0  0  0  0  0  0  0  0  0  0  0  0
    0.6885    4.7735    0.6227 C   0  0  0  0  0  0  0  0  0  0  0  0
    4.3000   -2.2631   -1.4550 C   0  0  0  0  0  0  0  0  0  0  0  0
    4.0917   -2.8472   -0.1980 C   0  0  0  0  0  0  0  0  0  0  0  0
    3.2497   -2.1752   -2.3802 C   0  0  0  0  0  0  0  0  0  0  0  0
    5.3931   -0.1085   -1.2284 C   0  0  0  0  0  0  0  0  0  0  0  0
    5.4708   -1.3941   -1.6231 C   0  0  0  0  0  0  0  0  0  0  0  0
   -0.9348    3.5130    2.5090 C   0  0  0  0  0  0  0  0  0  0  0  0
   -0.6145    5.2242    0.8338 C   0  0  0  0  0  0  0  0  0  0  0  0
   -1.4262    4.5940    1.7768 C   0  0  0  0  0  0  0  0  0  0  0  0
   -2.9159   -0.5592   -2.6502 H   0  0  0  0  0  0  0  0  0  0  0  0
   -5.4544    0.1226   -2.5127 H   0  0  0  0  0  0  0  0  0  0  0  0
   -5.0675    0.8735   -0.9688 H   0  0  0  0  0  0  0  0  0  0  0  0
   -3.8253    1.5452   -3.6692 H   0  0  0  0  0  0  0  0  0  0  0  0
   -0.6103    0.2167    1.0140 H   0  0  0  0  0  0  0  0  0  0  0  0
    1.2265   -1.5476    1.3428 H   0  0  0  0  0  0  0  0  0  0  0  0
   -1.0848   -1.1764   -1.5765 H   0  0  0  0  0  0  0  0  0  0  0  0
   -6.1847    2.3003   -3.4726 H   0  0  0  0  0  0  0  0  0  0  0  0
   -5.0672    3.6721   -3.4743 H   0  0  0  0  0  0  0  0  0  0  0  0
   -5.8051    3.1324   -1.9548 H   0  0  0  0  0  0  0  0  0  0  0  0
   -2.1589    1.9970   -1.9412 H   0  0  0  0  0  0  0  0  0  0  0  0
   -2.8881    3.5146   -2.3839 H   0  0  0  0  0  0  0  0  0  0  0  0
   -3.3882    2.7588   -0.8790 H   0  0  0  0  0  0  0  0  0  0  0  0
    2.2615    2.5581   -0.8980 H   0  0  0  0  0  0  0  0  0  0  0  0
    1.7727    0.6954    1.3657 H   0  0  0  0  0  0  0  0  0  0  0  0
   -3.8171   -2.6029   -3.2657 H   0  0  0  0  0  0  0  0  0  0  0  0
   -5.4455   -1.9543   -2.9800 H   0  0  0  0  0  0  0  0  0  0  0  0
   -4.9311   -3.4655   -2.2242 H   0  0  0  0  0  0  0  0  0  0  0  0
   -4.7634   -1.0295    0.5485 H   0  0  0  0  0  0  0  0  0  0  0  0
   -5.3754   -2.5797    0.0629 H   0  0  0  0  0  0  0  0  0  0  0  0
   -6.0338   -1.1502   -0.7009 H   0  0  0  0  0  0  0  0  0  0  0  0
    2.9954    2.8179    2.0691 H   0  0  0  0  0  0  0  0  0  0  0  0
    3.2234    4.0607    0.8651 H   0  0  0  0  0  0  0  0  0  0  0  0
   -1.8832   -3.4169    0.5070 H   0  0  0  0  0  0  0  0  0  0  0  0
    0.2798   -1.1886    3.5073 H   0  0  0  0  0  0  0  0  0  0  0  0
   -3.4304   -4.2289    2.2351 H   0  0  0  0  0  0  0  0  0  0  0  0
   -1.2874   -2.0125    5.2287 H   0  0  0  0  0  0  0  0  0  0  0  0
   -3.1443   -3.5325    4.5993 H   0  0  0  0  0  0  0  0  0  0  0  0
    3.4140   -0.1360   -0.6672 H   0  0  0  0  0  0  0  0  0  0  0  0
    2.6184   -3.4852    1.2228 H   0  0  0  0  0  0  0  0  0  0  0  0
    1.1203   -2.2768   -2.6380 H   0  0  0  0  0  0  0  0  0  0  0  0
    0.7379    2.2240    2.8825 H   0  0  0  0  0  0  0  0  0  0  0  0
    1.3104    5.2710   -0.1168 H   0  0  0  0  0  0  0  0  0  0  0  0
    4.9024   -2.9287    0.5222 H   0  0  0  0  0  0  0  0  0  0  0  0
    3.4045   -1.7279   -3.3592 H   0  0  0  0  0  0  0  0  0  0  0  0
    6.2536    0.5464   -1.3067 H   0  0  0  0  0  0  0  0  0  0  0  0
    6.3810   -1.8217   -2.0254 H   0  0  0  0  0  0  0  0  0  0  0  0
   -1.5668    3.0223    3.2434 H   0  0  0  0  0  0  0  0  0  0  0  0
   -0.9977    6.0648    0.2627 H   0  0  0  0  0  0  0  0  0  0  0  0
   -2.4412    4.9439    1.9403 H   0  0  0  0  0  0  0  0  0  0  0  0
  1 13  1  0  0  0  0
  1 26  1  0  0  0  0
  2 14  2  0  0  0  0
  3 17  2  0  0  0  0
  4 25  2  0  0  0  0
  5  9  1  0  0  0  0
  5 20  1  0  0  0  0
  5 21  1  0  0  0  0
  6 12  1  0  0  0  0
  6 14  1  0  0  0  0
  6 49  1  0  0  0  0
  7 17  1  0  0  0  0
  7 19  1  0  0  0  0
  7 57  1  0  0  0  0
  8 25  1  0  0  0  0
  8 38  1  0  0  0  0
  8 71  1  0  0  0  0
  9 10  1  0  0  0  0
  9 14  1  0  0  0  0
  9 43  1  0  0  0  0
 10 11  1  0  0  0  0
 10 44  1  0  0  0  0
 10 45  1  0  0  0  0
 11 15  1  0  0  0  0
 11 16  1  0  0  0  0
 11 46  1  0  0  0  0
 12 13  1  0  0  0  0
 12 17  1  0  0  0  0
 12 47  1  0  0  0  0
 13 18  1  0  0  0  0
 13 48  1  0  0  0  0
 15 50  1  0  0  0  0
 15 51  1  0  0  0  0
 15 52  1  0  0  0  0
 16 53  1  0  0  0  0
 16 54  1  0  0  0  0
 16 55  1  0  0  0  0
 18 23  2  0  0  0  0
 18 24  1  0  0  0  0
 19 22  1  0  0  0  0
 19 25  1  0  0  0  0
 19 56  1  0  0  0  0
 20 58  1  0  0  0  0
 20 59  1  0  0  0  0
 20 60  1  0  0  0  0
 21 61  1  0  0  0  0
 21 62  1  0  0  0  0
 21 63  1  0  0  0  0
 22 27  1  0  0  0  0
 22 64  1  0  0  0  0
 22 65  1  0  0  0  0
 23 28  1  0  0  0  0
 23 66  1  0  0  0  0
 24 29  2  0  0  0  0
 24 67  1  0  0  0  0
 26 31  2  0  0  0  0
 26 32  1  0  0  0  0
 27 33  2  0  0  0  0
 27 34  1  0  0  0  0
 28 30  2  0  0  0  0
 28 68  1  0  0  0  0
 29 30  1  0  0  0  0
 29 69  1  0  0  0  0
 30 70  1  0  0  0  0
 31 36  1  0  0  0  0
 31 72  1  0  0  0  0
 32 37  2  0  0  0  0
 32 73  1  0  0  0  0
 33 40  1  0  0  0  0
 33 74  1  0  0  0  0
 34 41  2  0  0  0  0
 34 75  1  0  0  0  0
 35 36  2  0  0  0  0
 35 37  1  0  0  0  0
 35 39  1  0  0  0  0
 36 76  1  0  0  0  0
 37 77  1  0  0  0  0
 38 39  2  0  0  0  0
 38 78  1  0  0  0  0
 39 79  1  0  0  0  0
 40 42  2  0  0  0  0
 40 80  1  0  0  0  0
 41 42  1  0  0  0  0
 41 81  1  0  0  0  0
 42 82  1  0  0  0  0
M  END
> <PUBCHEM_COMPOUND_CID>
5281586

> <PUBCHEM_CONFORMER_RMSD>
1.2

> <PUBCHEM_CONFORMER_DIVERSEORDER>
1
22
29
25
8
23
11
6
16
15
9
14
10
30
27
20
2
12
24
13
7
28
31
19
17
26
18
21
5
3
4

> <PUBCHEM_MMFF94_PARTIAL_CHARGES>
57
1 -0.36
12 0.36
13 0.42
14 0.57
17 0.57
18 -0.14
19 0.36
2 -0.57
20 0.27
21 0.27
22 0.14
23 -0.15
24 -0.15
25 0.57
26 0.08
27 -0.14
28 -0.15
29 -0.15
3 -0.57
30 -0.15
31 -0.15
32 -0.15
33 -0.15
34 -0.15
35 0.03
36 -0.15
37 -0.15
38 -0.04
39 -0.18
4 -0.57
40 -0.15
41 -0.15
42 -0.15
49 0.37
5 -0.81
57 0.37
6 -0.73
66 0.15
67 0.15
68 0.15
69 0.15
7 -0.73
70 0.15
71 0.37
72 0.15
73 0.15
74 0.15
75 0.15
76 0.15
77 0.15
78 0.15
79 0.15
8 -0.54
80 0.15
81 0.15
82 0.15
9 0.33

> <PUBCHEM_EFFECTIVE_ROTOR_COUNT>
10.2

> <PUBCHEM_PHARMACOPHORE_FEATURES>
12
1 1 acceptor
1 2 acceptor
1 3 acceptor
1 4 acceptor
1 5 cation
1 6 donor
1 7 donor
1 8 donor
3 11 15 16 hydrophobe
6 18 23 24 28 29 30 rings
6 26 31 32 35 36 37 rings
6 27 33 34 40 41 42 rings

> <PUBCHEM_HEAVY_ATOM_COUNT>
42

> <PUBCHEM_ATOM_DEF_STEREO_COUNT>
4

> <PUBCHEM_ATOM_UDEF_STEREO_COUNT>
0

> <PUBCHEM_BOND_DEF_STEREO_COUNT>
1

> <PUBCHEM_BOND_UDEF_STEREO_COUNT>
0

> <PUBCHEM_ISOTOPIC_ATOM_COUNT>
0

> <PUBCHEM_COMPONENT_COUNT>
1

> <PUBCHEM_CACTVS_TAUTO_COUNT>
8

> <PUBCHEM_CONFORMER_ID>
0050973200000001

> <PUBCHEM_MMFF94_ENERGY>
147.4243

> <PUBCHEM_FEATURE_SELFOVERLAP>
60.896

> <PUBCHEM_SHAPE_FINGERPRINT>
10675989 125 18334583425870140724
11285246 1 18336261361632287088
11445158 3 17396673425243719762
12786520 15 17899940960249978183
12788726 201 18192147324850428318
13636023 20 17823442451120733678
15219648 46 17405979043839722233
15324884 4 17406278729112471667
15351339 4 18123770895822072045
15419008 47 17985243223753272563
15775530 1 18128245693045119995
15815584 197 18044358449673147388
15968369 153 18043226098693492032
17909252 39 17750812110636055516
19319366 153 17191764482589581649
20764821 26 18118377610866776376
56638632 10 17609476247579623448

> <PUBCHEM_SHAPE_MULTIPOLES>
820.94
9.96
7.09
3.82
1.85
6.86
2.58
-1.92
-10.4
-1.05
4.84
-4.32
-2.16
3.6

> <PUBCHEM_SHAPE_SELFOVERLAP>
1740.338

> <PUBCHEM_SHAPE_VOLUME>
454.8

> <PUBCHEM_COORDINATE_TYPE>
2
5
10

$$$$

