352542
  -OEChem-07051212563D

 52 56  0     1  0  0  0  0  0999 V2000
    0.0520   -2.3064    0.4815 O   0  0  0  0  0  0  0  0  0  0  0  0
   -1.4161    1.3347    2.1653 O   0  0  0  0  0  0  0  0  0  0  0  0
   -2.8214   -1.0147   -2.3050 O   0  0  0  0  0  0  0  0  0  0  0  0
   -1.1846    3.1142    0.6455 O   0  0  0  0  0  0  0  0  0  0  0  0
    2.0634   -2.5320    1.4707 O   0  0  0  0  0  0  0  0  0  0  0  0
    3.1013    0.2206    1.9223 O   0  0  0  0  0  0  0  0  0  0  0  0
   -0.7774   -0.0190    0.2761 C   0  0  1  0  0  0  0  0  0  0  0  0
    0.6474    0.5040   -0.1608 C   0  0  1  0  0  0  0  0  0  0  0  0
   -1.9729    0.8926   -0.1150 C   0  0  1  0  0  0  0  0  0  0  0  0
    1.7476   -0.6038    0.0506 C   0  0  2  0  0  0  0  0  0  0  0  0
   -0.8375   -1.4558   -0.2688 C   0  0  2  0  0  0  0  0  0  0  0  0
   -3.3830    0.1747   -0.2244 C   0  0  0  0  0  0  0  0  0  0  0  0
   -0.8472    0.0643    1.8161 C   0  0  0  0  0  0  0  0  0  0  0  0
    0.7161    1.0554   -1.6142 C   0  0  0  0  0  0  0  0  0  0  0  0
    2.4595   -0.9947   -1.2705 C   0  0  0  0  0  0  0  0  0  0  0  0
   -2.2234   -2.0888   -0.2560 C   0  0  0  0  0  0  0  0  0  0  0  0
   -3.2418   -1.1893   -0.9510 C   0  0  2  0  0  0  0  0  0  0  0  0
   -1.9469    1.9622    0.9917 C   0  0  1  0  0  0  0  0  0  0  0  0
    3.1783    0.2969   -1.6598 C   0  0  1  0  0  0  0  0  0  0  0  0
    2.1472    1.3438   -2.1072 C   0  0  0  0  0  0  0  0  0  0  0  0
    1.3127   -1.8812    0.7490 C   0  0  0  0  0  0  0  0  0  0  0  0
    2.9205    0.1008    0.7219 C   0  0  0  0  0  0  0  0  0  0  0  0
    3.7999    0.6720   -0.3393 C   0  0  0  0  0  0  0  0  0  0  0  0
   -4.3204    1.1011   -1.0444 C   0  0  0  0  0  0  0  0  0  0  0  0
   -4.1109   -0.0745    1.1223 C   0  0  0  0  0  0  0  0  0  0  0  0
    4.9377    1.3229   -0.0966 C   0  0  0  0  0  0  0  0  0  0  0  0
    0.8944    1.3593    0.4844 H   0  0  0  0  0  0  0  0  0  0  0  0
   -1.7905    1.3536   -1.0900 H   0  0  0  0  0  0  0  0  0  0  0  0
   -0.4996   -1.4905   -1.3113 H   0  0  0  0  0  0  0  0  0  0  0  0
   -1.4737   -0.7169    2.2533 H   0  0  0  0  0  0  0  0  0  0  0  0
    0.1264   -0.0058    2.3103 H   0  0  0  0  0  0  0  0  0  0  0  0
    0.1449    1.9829   -1.7143 H   0  0  0  0  0  0  0  0  0  0  0  0
    0.2455    0.3466   -2.3061 H   0  0  0  0  0  0  0  0  0  0  0  0
    1.7708   -1.3509   -2.0442 H   0  0  0  0  0  0  0  0  0  0  0  0
    3.1854   -1.8047   -1.1055 H   0  0  0  0  0  0  0  0  0  0  0  0
   -2.1623   -3.0528   -0.7787 H   0  0  0  0  0  0  0  0  0  0  0  0
   -2.5290   -2.3379    0.7656 H   0  0  0  0  0  0  0  0  0  0  0  0
   -4.2130   -1.6978   -0.9851 H   0  0  0  0  0  0  0  0  0  0  0  0
   -2.9368    2.3508    1.2356 H   0  0  0  0  0  0  0  0  0  0  0  0
    3.9367    0.1302   -2.4314 H   0  0  0  0  0  0  0  0  0  0  0  0
    2.1225    1.3736   -3.2040 H   0  0  0  0  0  0  0  0  0  0  0  0
    2.4515    2.3479   -1.7853 H   0  0  0  0  0  0  0  0  0  0  0  0
   -4.4926    2.0537   -0.5319 H   0  0  0  0  0  0  0  0  0  0  0  0
   -3.9023    1.3302   -2.0307 H   0  0  0  0  0  0  0  0  0  0  0  0
   -5.2970    0.6294   -1.2040 H   0  0  0  0  0  0  0  0  0  0  0  0
   -4.3813    0.8557    1.6306 H   0  0  0  0  0  0  0  0  0  0  0  0
   -5.0525   -0.6123    0.9539 H   0  0  0  0  0  0  0  0  0  0  0  0
   -3.5308   -0.6758    1.8219 H   0  0  0  0  0  0  0  0  0  0  0  0
   -2.7832   -1.8945   -2.7173 H   0  0  0  0  0  0  0  0  0  0  0  0
   -0.5053    2.8708    0.0013 H   0  0  0  0  0  0  0  0  0  0  0  0
    5.5484    1.6913   -0.9138 H   0  0  0  0  0  0  0  0  0  0  0  0
    5.2857    1.5049    0.9142 H   0  0  0  0  0  0  0  0  0  0  0  0
  1 11  1  0  0  0  0
  1 21  1  0  0  0  0
  2 13  1  0  0  0  0
  2 18  1  0  0  0  0
  3 17  1  0  0  0  0
  3 49  1  0  0  0  0
  4 18  1  0  0  0  0
  4 50  1  0  0  0  0
  5 21  2  0  0  0  0
  6 22  2  0  0  0  0
  7  8  1  0  0  0  0
  7  9  1  0  0  0  0
  7 11  1  0  0  0  0
  7 13  1  0  0  0  0
  8 10  1  0  0  0  0
  8 14  1  0  0  0  0
  8 27  1  0  0  0  0
  9 12  1  0  0  0  0
  9 18  1  0  0  0  0
  9 28  1  0  0  0  0
 10 15  1  0  0  0  0
 10 21  1  0  0  0  0
 10 22  1  0  0  0  0
 11 16  1  0  0  0  0
 11 29  1  0  0  0  0
 12 17  1  0  0  0  0
 12 24  1  0  0  0  0
 12 25  1  0  0  0  0
 13 30  1  0  0  0  0
 13 31  1  0  0  0  0
 14 20  1  0  0  0  0
 14 32  1  0  0  0  0
 14 33  1  0  0  0  0
 15 19  1  0  0  0  0
 15 34  1  0  0  0  0
 15 35  1  0  0  0  0
 16 17  1  0  0  0  0
 16 36  1  0  0  0  0
 16 37  1  0  0  0  0
 17 38  1  0  0  0  0
 18 39  1  0  0  0  0
 19 20  1  0  0  0  0
 19 23  1  0  0  0  0
 19 40  1  0  0  0  0
 20 41  1  0  0  0  0
 20 42  1  0  0  0  0
 22 23  1  0  0  0  0
 23 26  2  0  0  0  0
 24 43  1  0  0  0  0
 24 44  1  0  0  0  0
 24 45  1  0  0  0  0
 25 46  1  0  0  0  0
 25 47  1  0  0  0  0
 25 48  1  0  0  0  0
 26 51  1  0  0  0  0
 26 52  1  0  0  0  0
M  END
> <PUBCHEM_COMPOUND_CID>
352542

> <PUBCHEM_CONFORMER_RMSD>
0.6

> <PUBCHEM_CONFORMER_DIVERSEORDER>
1
2

> <PUBCHEM_MMFF94_PARTIAL_CHARGES>
20
1 -0.43
10 0.12
11 0.28
13 0.28
17 0.28
18 0.56
19 0.14
2 -0.56
21 0.66
22 0.49
23 -0.12
26 -0.3
3 -0.68
4 -0.68
49 0.4
5 -0.57
50 0.4
51 0.15
52 0.15
6 -0.57

> <PUBCHEM_EFFECTIVE_ROTOR_COUNT>
2

> <PUBCHEM_PHARMACOPHORE_FEATURES>
12
1 2 acceptor
1 3 acceptor
1 3 donor
1 4 acceptor
1 4 donor
1 5 acceptor
1 6 acceptor
3 12 24 25 hydrophobe
5 2 7 9 13 18 rings
6 1 7 8 10 11 21 rings
6 7 9 11 12 16 17 rings
8 8 10 14 15 19 20 22 23 rings

> <PUBCHEM_HEAVY_ATOM_COUNT>
26

> <PUBCHEM_ATOM_DEF_STEREO_COUNT>
8

> <PUBCHEM_ATOM_UDEF_STEREO_COUNT>
0

> <PUBCHEM_BOND_DEF_STEREO_COUNT>
0

> <PUBCHEM_BOND_UDEF_STEREO_COUNT>
0

> <PUBCHEM_ISOTOPIC_ATOM_COUNT>
0

> <PUBCHEM_COMPONENT_COUNT>
1

> <PUBCHEM_CACTVS_TAUTO_COUNT>
1

> <PUBCHEM_CONFORMER_ID>
0005611E00000001

> <PUBCHEM_MMFF94_ENERGY>
111.7951

> <PUBCHEM_FEATURE_SELFOVERLAP>
61.134

> <PUBCHEM_SHAPE_FINGERPRINT>
10366900 7 17240203222638285332
10498660 4 18334858311712209405
10863032 1 16950282892682623166
10948715 1 17203321174362519466
11578080 2 18050040875483102989
11640471 11 18341887515307751276
121448 382 18340199683613543746
12236239 1 18273497853357873117
12403814 3 17561368349088440207
12592029 89 17917981768191655163
12788726 201 17967816106445290001
128620 24 18411130325255790029
13009979 54 18267317588798667379
13134695 92 16629980866650990580
13140716 1 18125992772181134153
13224815 77 18409725170928409507
13583140 156 16200159737849447835
14787075 74 18118127965486455744
14790565 3 17970054742448236497
15238133 3 16128653085236848844
16752209 62 17824263915709562557
16945 1 18340496594607601619
17349148 13 18131634478323528418
17980427 23 18265335002304680172
18981168 100 17773004588737992410
19862831 5 18333728030880780726
20691752 17 18265351533543689729
20715895 44 17768828794400987869
23402539 116 18334579001799903820
23419403 2 16894887108999909564
23557571 272 17604425185191945191
23559900 14 18113613491666432892
296302 2 18410577253822049620
34934 24 18333732425043696653
350125 39 18120646087621798891
4340502 62 17417517091190004171
469060 322 17915164733760683259
474 4 17846493729613765100
81228 2 18040983034463407025

> <PUBCHEM_SHAPE_MULTIPOLES>
499.85
7.35
2.3
1.91
1.08
0.28
0.06
-1.79
1.04
-0.31
-0.41
-0.04
-0.28
-1.05

> <PUBCHEM_SHAPE_SELFOVERLAP>
1105.379

> <PUBCHEM_SHAPE_VOLUME>
262.8

> <PUBCHEM_COORDINATE_TYPE>
2
5
10

$$$$

