165003
  -OEChem-07051213022D

 71 76  0     1  0  0  0  0  0999 V2000
   10.3215    2.1227    0.0000 O   0  0  0  0  0  0  0  0  0  0  0  0
   12.0954    1.0986    0.0000 O   0  0  0  0  0  0  0  0  0  0  0  0
    8.5774   -1.9466    0.0000 N   0  0  3  0  0  0  0  0  0  0  0  0
    6.8192    1.0984    0.0000 N   0  0  0  0  0  0  0  0  0  0  0  0
    4.0705    0.7890    0.0000 N   0  0  0  0  0  0  0  0  0  0  0  0
    6.7774   -0.9257    0.0000 C   0  0  2  0  0  0  0  0  0  0  0  0
    6.7774   -1.9674    0.0000 C   0  0  2  0  0  0  0  0  0  0  0  0
    8.5774   -0.9465    0.0000 C   0  0  1  0  0  0  0  0  0  0  0  0
    7.6834   -0.4119    0.0000 C   0  0  0  0  0  0  0  0  0  0  0  0
    7.6834   -2.4812    0.0000 C   0  0  0  0  0  0  0  0  0  0  0  0
    5.9133   -0.4224    0.0000 C   0  0  0  0  0  0  0  0  0  0  0  0
    5.9171    0.5776    0.0000 C   0  0  2  0  0  0  0  0  0  0  0  0
    5.9133   -2.4707    0.0000 C   0  0  0  0  0  0  0  0  0  0  0  0
    9.4434   -2.4465    0.0000 C   0  0  0  0  0  0  0  0  0  0  0  0
    9.4434   -0.4465    0.0000 C   0  0  0  0  0  0  0  0  0  0  0  0
   10.3094   -1.9466    0.0000 C   0  0  0  0  0  0  0  0  0  0  0  0
   10.3094   -0.9465    0.0000 C   0  0  0  0  0  0  0  0  0  0  0  0
    5.0191    1.1054    0.0000 C   0  0  0  0  0  0  0  0  0  0  0  0
    5.9171   -3.4707    0.0000 C   0  0  0  0  0  0  0  0  0  0  0  0
    5.0114    2.1053    0.0000 C   0  0  0  0  0  0  0  0  0  0  0  0
    9.4274    0.5950    0.0000 C   0  0  0  0  0  0  0  0  0  0  0  0
    6.8112    2.1400    0.0000 C   0  0  0  0  0  0  0  0  0  0  0  0
    5.9012    2.6469    0.0000 C   0  0  0  0  0  0  0  0  0  0  0  0
   11.2194   -0.4397    0.0000 C   0  0  0  0  0  0  0  0  0  0  0  0
    4.0580    2.4070    0.0000 C   0  0  0  0  0  0  0  0  0  0  0  0
   10.3254    1.1227    0.0000 C   0  0  0  0  0  0  0  0  0  0  0  0
    3.4765    1.5935    0.0000 C   0  0  0  0  0  0  0  0  0  0  0  0
   11.2275    0.6019    0.0000 C   0  0  0  0  0  0  0  0  0  0  0  0
    3.6417    3.3618    0.0000 C   0  0  0  0  0  0  0  0  0  0  0  0
    2.4383    1.6784    0.0000 C   0  0  0  0  0  0  0  0  0  0  0  0
    2.6057    3.4707    0.0000 C   0  0  0  0  0  0  0  0  0  0  0  0
    2.0000    2.6233    0.0000 C   0  0  0  0  0  0  0  0  0  0  0  0
   11.1856    2.6260    0.0000 C   0  0  0  0  0  0  0  0  0  0  0  0
   12.9595    0.5952    0.0000 C   0  0  0  0  0  0  0  0  0  0  0  0
    6.7810   -0.3057    0.0000 H   0  0  0  0  0  0  0  0  0  0  0  0
    6.2398   -1.6584    0.0000 H   0  0  0  0  0  0  0  0  0  0  0  0
    8.5839   -0.0966    0.0000 H   0  0  0  0  0  0  0  0  0  0  0  0
    8.0881    0.0579    0.0000 H   0  0  0  0  0  0  0  0  0  0  0  0
    7.2898    0.0671    0.0000 H   0  0  0  0  0  0  0  0  0  0  0  0
    7.2898   -2.9602    0.0000 H   0  0  0  0  0  0  0  0  0  0  0  0
    8.0881   -2.9510    0.0000 H   0  0  0  0  0  0  0  0  0  0  0  0
    5.3031   -0.3124    0.0000 H   0  0  0  0  0  0  0  0  0  0  0  0
    5.6990   -1.0042    0.0000 H   0  0  0  0  0  0  0  0  0  0  0  0
    6.4535    0.2666    0.0000 H   0  0  0  0  0  0  0  0  0  0  0  0
    5.6990   -1.8889    0.0000 H   0  0  0  0  0  0  0  0  0  0  0  0
    5.3031   -2.5807    0.0000 H   0  0  0  0  0  0  0  0  0  0  0  0
    9.0449   -2.9215    0.0000 H   0  0  0  0  0  0  0  0  0  0  0  0
    9.8419   -2.9215    0.0000 H   0  0  0  0  0  0  0  0  0  0  0  0
   10.5215   -2.5292    0.0000 H   0  0  0  0  0  0  0  0  0  0  0  0
   10.9200   -1.8389    0.0000 H   0  0  0  0  0  0  0  0  0  0  0  0
    7.3574    0.7905    0.0000 H   0  0  0  0  0  0  0  0  0  0  0  0
    5.2972   -3.4731    0.0000 H   0  0  0  0  0  0  0  0  0  0  0  0
    5.9195   -4.0907    0.0000 H   0  0  0  0  0  0  0  0  0  0  0  0
    6.5371   -3.4683    0.0000 H   0  0  0  0  0  0  0  0  0  0  0  0
    8.8869    0.8987    0.0000 H   0  0  0  0  0  0  0  0  0  0  0  0
    7.4228    2.0386    0.0000 H   0  0  0  0  0  0  0  0  0  0  0  0
    7.0157    2.7253    0.0000 H   0  0  0  0  0  0  0  0  0  0  0  0
    6.2911    3.1289    0.0000 H   0  0  0  0  0  0  0  0  0  0  0  0
    5.4930    3.1135    0.0000 H   0  0  0  0  0  0  0  0  0  0  0  0
   11.7528   -0.7559    0.0000 H   0  0  0  0  0  0  0  0  0  0  0  0
    3.8834    0.1979    0.0000 H   0  0  0  0  0  0  0  0  0  0  0  0
    4.0080    3.8620    0.0000 H   0  0  0  0  0  0  0  0  0  0  0  0
    2.0836    1.1698    0.0000 H   0  0  0  0  0  0  0  0  0  0  0  0
    2.3514    4.0361    0.0000 H   0  0  0  0  0  0  0  0  0  0  0  0
    1.3827    2.6810    0.0000 H   0  0  0  0  0  0  0  0  0  0  0  0
   11.4977    2.0903    0.0000 H   0  0  0  0  0  0  0  0  0  0  0  0
   11.7214    2.9381    0.0000 H   0  0  0  0  0  0  0  0  0  0  0  0
   10.8736    3.1618    0.0000 H   0  0  0  0  0  0  0  0  0  0  0  0
   12.6474    0.0595    0.0000 H   0  0  0  0  0  0  0  0  0  0  0  0
   13.4952    0.2832    0.0000 H   0  0  0  0  0  0  0  0  0  0  0  0
   13.2716    1.1310    0.0000 H   0  0  0  0  0  0  0  0  0  0  0  0
  1 26  1  0  0  0  0
  1 33  1  0  0  0  0
  2 28  1  0  0  0  0
  2 34  1  0  0  0  0
  3  8  1  0  0  0  0
  3 10  1  0  0  0  0
  3 14  1  0  0  0  0
  4 12  1  0  0  0  0
  4 22  1  0  0  0  0
  4 51  1  0  0  0  0
  5 18  1  0  0  0  0
  5 27  1  0  0  0  0
  5 61  1  0  0  0  0
  6  7  1  0  0  0  0
  6  9  1  0  0  0  0
  6 11  1  1  0  0  0
  6 35  1  0  0  0  0
  7 10  1  0  0  0  0
  7 13  1  6  0  0  0
  7 36  1  0  0  0  0
  8  9  1  0  0  0  0
  8 15  1  0  0  0  0
  8 37  1  6  0  0  0
  9 38  1  0  0  0  0
  9 39  1  0  0  0  0
 10 40  1  0  0  0  0
 10 41  1  0  0  0  0
 12 11  1  6  0  0  0
 11 42  1  0  0  0  0
 11 43  1  0  0  0  0
 12 18  1  0  0  0  0
 12 44  1  0  0  0  0
 13 19  1  0  0  0  0
 13 45  1  0  0  0  0
 13 46  1  0  0  0  0
 14 16  1  0  0  0  0
 14 47  1  0  0  0  0
 14 48  1  0  0  0  0
 15 17  1  0  0  0  0
 15 21  2  0  0  0  0
 16 17  1  0  0  0  0
 16 49  1  0  0  0  0
 16 50  1  0  0  0  0
 17 24  2  0  0  0  0
 18 20  2  0  0  0  0
 19 52  1  0  0  0  0
 19 53  1  0  0  0  0
 19 54  1  0  0  0  0
 20 23  1  0  0  0  0
 20 25  1  0  0  0  0
 21 26  1  0  0  0  0
 21 55  1  0  0  0  0
 22 23  1  0  0  0  0
 22 56  1  0  0  0  0
 22 57  1  0  0  0  0
 23 58  1  0  0  0  0
 23 59  1  0  0  0  0
 24 28  1  0  0  0  0
 24 60  1  0  0  0  0
 25 27  1  0  0  0  0
 25 29  2  0  0  0  0
 26 28  2  0  0  0  0
 27 30  2  0  0  0  0
 29 31  1  0  0  0  0
 29 62  1  0  0  0  0
 30 32  1  0  0  0  0
 30 63  1  0  0  0  0
 31 32  2  0  0  0  0
 31 64  1  0  0  0  0
 32 65  1  0  0  0  0
 33 66  1  0  0  0  0
 33 67  1  0  0  0  0
 33 68  1  0  0  0  0
 34 69  1  0  0  0  0
 34 70  1  0  0  0  0
 34 71  1  0  0  0  0
M  END
> <PUBCHEM_COMPOUND_CID>
165003

> <PUBCHEM_COMPOUND_CANONICALIZED>
1

> <PUBCHEM_CACTVS_COMPLEXITY>
690

> <PUBCHEM_CACTVS_HBOND_ACCEPTOR>
4

> <PUBCHEM_CACTVS_HBOND_DONOR>
2

> <PUBCHEM_CACTVS_ROTATABLE_BOND>
5

> <PUBCHEM_CACTVS_SUBSKEYS>
AAADcfB7MAAAAAAAAAAAAAAAAAAAAWAAAAA8eLECAAAAAFix9AAAHgAQAAAADSzBngYyxvPJlACgAyRiRACCiCAhIiAImaA+7JgNZuLEsZuUMCpk0BHK6Aew0PMOoAABAAASQABAAAIAACSAAAAAAAAAAA==

> <PUBCHEM_IUPAC_OPENEYE_NAME>
(2S,3R,11bS)-3-ethyl-9,10-dimethoxy-2-[[(1R)-2,3,4,9-tetrahydro-1H-pyrido[3,4-b]indol-1-yl]methyl]-2,3,4,6,7,11b-hexahydro-1H-benzo[a]quinolizine

> <PUBCHEM_IUPAC_CAS_NAME>
(2S,3R,11bS)-3-ethyl-9,10-dimethoxy-2-[[(1R)-2,3,4,9-tetrahydro-1H-pyrido[3,4-b]indol-1-yl]methyl]-2,3,4,6,7,11b-hexahydro-1H-benzo[a]quinolizine

> <PUBCHEM_IUPAC_NAME>
(2S,3R,11bS)-3-ethyl-9,10-dimethoxy-2-[[(1R)-2,3,4,9-tetrahydro-1H-pyrido[3,4-b]indol-1-yl]methyl]-2,3,4,6,7,11b-hexahydro-1H-benzo[a]quinolizine

> <PUBCHEM_IUPAC_SYSTEMATIC_NAME>
(2S,3R,11bS)-3-ethyl-9,10-dimethoxy-2-[[(1R)-2,3,4,9-tetrahydro-1H-pyrido[3,4-b]indol-1-yl]methyl]-2,3,4,6,7,11b-hexahydro-1H-benzo[a]quinolizine

> <PUBCHEM_IUPAC_TRADITIONAL_NAME>
(2S,3R,11bS)-3-ethyl-9,10-dimethoxy-2-[[(1R)-2,3,4,9-tetrahydro-1H-$b-carbolin-1-yl]methyl]-2,3,4,6,7,11b-hexahydro-1H-benzo[a]quinolizine

> <PUBCHEM_IUPAC_INCHI>
InChI=1S/C29H37N3O2/c1-4-18-17-32-12-10-19-15-27(33-2)28(34-3)16-23(19)26(32)14-20(18)13-25-29-22(9-11-30-25)21-7-5-6-8-24(21)31-29/h5-8,15-16,18,20,25-26,30-31H,4,9-14,17H2,1-3H3/t18-,20-,25+,26-/m0/s1

> <PUBCHEM_IUPAC_INCHIKEY>
AVJZNOIWPGXYKM-LXFCCGDJSA-N

> <PUBCHEM_XLOGP3_AA>
5

> <PUBCHEM_EXACT_MASS>
459.288577

> <PUBCHEM_MOLECULAR_FORMULA>
C29H37N3O2

> <PUBCHEM_MOLECULAR_WEIGHT>
459.62298

> <PUBCHEM_OPENEYE_CAN_SMILES>
CCC1CN2CCC3=CC(=C(C=C3C2CC1CC4C5=C(CCN4)C6=CC=CC=C6N5)OC)OC

> <PUBCHEM_OPENEYE_ISO_SMILES>
CC[C@H]1CN2CCC3=CC(=C(C=C3[C@@H]2C[C@@H]1C[C@@H]4C5=C(CCN4)C6=CC=CC=C6N5)OC)OC

> <PUBCHEM_CACTVS_TPSA>
49.5

> <PUBCHEM_MONOISOTOPIC_WEIGHT>
459.288577

> <PUBCHEM_TOTAL_CHARGE>
0

> <PUBCHEM_HEAVY_ATOM_COUNT>
34

> <PUBCHEM_ATOM_DEF_STEREO_COUNT>
4

> <PUBCHEM_ATOM_UDEF_STEREO_COUNT>
0

> <PUBCHEM_BOND_DEF_STEREO_COUNT>
0

> <PUBCHEM_BOND_UDEF_STEREO_COUNT>
0

> <PUBCHEM_ISOTOPIC_ATOM_COUNT>
0

> <PUBCHEM_COMPONENT_COUNT>
1

> <PUBCHEM_CACTVS_TAUTO_COUNT>
1

> <PUBCHEM_COORDINATE_TYPE>
1
5
255

> <PUBCHEM_BONDANNOTATIONS>
12  11  6
15  17  8
15  21  8
17  24  8
18  20  8
20  25  8
21  26  8
24  28  8
25  27  8
25  29  8
26  28  8
27  30  8
29  31  8
30  32  8
31  32  8
5  18  8
5  27  8
6  11  5
7  13  6
8  37  6

$$$$

