17395851
  -OEChem-06241222522D

 45 47  0     0  0  0  0  0  0999 V2000
    6.9926    0.5497    0.0000 O   0  0  0  0  0  0  0  0  0  0  0  0
    5.6184    1.6042    0.0000 N   0  0  0  0  0  0  0  0  0  0  0  0
    3.5661   -2.4931    0.0000 N   0  0  0  0  0  0  0  0  0  0  0  0
    3.8501   -3.4520    0.0000 N   0  0  0  0  0  0  0  0  0  0  0  0
    4.6184    4.0184    0.0000 C   0  0  0  0  0  0  0  0  0  0  0  0
    3.9113    3.3113    0.0000 C   0  0  0  0  0  0  0  0  0  0  0  0
    5.6184    4.0184    0.0000 C   0  0  0  0  0  0  0  0  0  0  0  0
    3.9113    2.3113    0.0000 C   0  0  0  0  0  0  0  0  0  0  0  0
    6.3255    3.3113    0.0000 C   0  0  0  0  0  0  0  0  0  0  0  0
    4.6184    1.6042    0.0000 C   0  0  0  0  0  0  0  0  0  0  0  0
    6.3255    2.3113    0.0000 C   0  0  0  0  0  0  0  0  0  0  0  0
    6.0011    0.6803    0.0000 C   0  0  0  0  0  0  0  0  0  0  0  0
    5.3924   -0.1131    0.0000 C   0  0  0  0  0  0  0  0  0  0  0  0
    5.7750   -1.0370    0.0000 C   0  0  0  0  0  0  0  0  0  0  0  0
    4.4009    0.0174    0.0000 C   0  0  0  0  0  0  0  0  0  0  0  0
    4.1748   -1.6998    0.0000 C   0  0  0  0  0  0  0  0  0  0  0  0
    5.1663   -1.8303    0.0000 C   0  0  0  0  0  0  0  0  0  0  0  0
    3.7921   -0.7759    0.0000 C   0  0  0  0  0  0  0  0  0  0  0  0
    2.5664   -2.4670    0.0000 C   0  0  0  0  0  0  0  0  0  0  0  0
    2.2326   -3.4096    0.0000 C   0  0  0  0  0  0  0  0  0  0  0  0
    2.0000   -1.6428    0.0000 C   0  0  0  0  0  0  0  0  0  0  0  0
    3.0260   -4.0184    0.0000 C   0  0  0  0  0  0  0  0  0  0  0  0
    4.7789    4.6172    0.0000 H   0  0  0  0  0  0  0  0  0  0  0  0
    4.0815    4.3284    0.0000 H   0  0  0  0  0  0  0  0  0  0  0  0
    6.1554    4.3284    0.0000 H   0  0  0  0  0  0  0  0  0  0  0  0
    5.4580    4.6172    0.0000 H   0  0  0  0  0  0  0  0  0  0  0  0
    3.6013    3.8482    0.0000 H   0  0  0  0  0  0  0  0  0  0  0  0
    3.3124    3.1508    0.0000 H   0  0  0  0  0  0  0  0  0  0  0  0
    6.9244    3.1508    0.0000 H   0  0  0  0  0  0  0  0  0  0  0  0
    6.6355    3.8482    0.0000 H   0  0  0  0  0  0  0  0  0  0  0  0
    3.3124    2.4717    0.0000 H   0  0  0  0  0  0  0  0  0  0  0  0
    3.6013    1.7743    0.0000 H   0  0  0  0  0  0  0  0  0  0  0  0
    4.0815    1.2942    0.0000 H   0  0  0  0  0  0  0  0  0  0  0  0
    4.7789    1.0053    0.0000 H   0  0  0  0  0  0  0  0  0  0  0  0
    6.6355    1.7743    0.0000 H   0  0  0  0  0  0  0  0  0  0  0  0
    6.9244    2.4717    0.0000 H   0  0  0  0  0  0  0  0  0  0  0  0
    6.3897   -1.1179    0.0000 H   0  0  0  0  0  0  0  0  0  0  0  0
    4.1636    0.5903    0.0000 H   0  0  0  0  0  0  0  0  0  0  0  0
    5.4035   -2.4031    0.0000 H   0  0  0  0  0  0  0  0  0  0  0  0
    3.1774   -0.6950    0.0000 H   0  0  0  0  0  0  0  0  0  0  0  0
    1.6381   -3.5857    0.0000 H   0  0  0  0  0  0  0  0  0  0  0  0
    2.5110   -1.2917    0.0000 H   0  0  0  0  0  0  0  0  0  0  0  0
    1.6488   -1.1319    0.0000 H   0  0  0  0  0  0  0  0  0  0  0  0
    1.4890   -1.9940    0.0000 H   0  0  0  0  0  0  0  0  0  0  0  0
    3.0097   -4.6382    0.0000 H   0  0  0  0  0  0  0  0  0  0  0  0
  1 12  2  0  0  0  0
  2 10  1  0  0  0  0
  2 11  1  0  0  0  0
  2 12  1  0  0  0  0
  3  4  1  0  0  0  0
  3 16  1  0  0  0  0
  3 19  1  0  0  0  0
  4 22  2  0  0  0  0
  5  6  1  0  0  0  0
  5  7  1  0  0  0  0
  5 23  1  0  0  0  0
  5 24  1  0  0  0  0
  6  8  1  0  0  0  0
  6 27  1  0  0  0  0
  6 28  1  0  0  0  0
  7  9  1  0  0  0  0
  7 25  1  0  0  0  0
  7 26  1  0  0  0  0
  8 10  1  0  0  0  0
  8 31  1  0  0  0  0
  8 32  1  0  0  0  0
  9 11  1  0  0  0  0
  9 29  1  0  0  0  0
  9 30  1  0  0  0  0
 10 33  1  0  0  0  0
 10 34  1  0  0  0  0
 11 35  1  0  0  0  0
 11 36  1  0  0  0  0
 12 13  1  0  0  0  0
 13 14  2  0  0  0  0
 13 15  1  0  0  0  0
 14 17  1  0  0  0  0
 14 37  1  0  0  0  0
 15 18  2  0  0  0  0
 15 38  1  0  0  0  0
 16 17  2  0  0  0  0
 16 18  1  0  0  0  0
 17 39  1  0  0  0  0
 18 40  1  0  0  0  0
 19 20  2  0  0  0  0
 19 21  1  0  0  0  0
 20 22  1  0  0  0  0
 20 41  1  0  0  0  0
 21 42  1  0  0  0  0
 21 43  1  0  0  0  0
 21 44  1  0  0  0  0
 22 45  1  0  0  0  0
M  END
> <PUBCHEM_COMPOUND_CID>
17395851

> <PUBCHEM_COMPOUND_CANONICALIZED>
1

> <PUBCHEM_CACTVS_COMPLEXITY>
357

> <PUBCHEM_CACTVS_HBOND_ACCEPTOR>
2

> <PUBCHEM_CACTVS_HBOND_DONOR>
0

> <PUBCHEM_CACTVS_ROTATABLE_BOND>
2

> <PUBCHEM_CACTVS_SUBSKEYS>
AAADceB7IAAAAAAAAAAAAAAAAAAAAWAAAAAwAAAAAAAWAAABwAAAHgAIAAAADAjBngQ+wJMIAACqAzV3VACSBCAlggAYmCE4ZNgIIPLA1dGEpQhgjgDIyYcYiQCeCAAAAAAAAAAQAAAAAAAAAAAAAAAAAA==

> <PUBCHEM_IUPAC_OPENEYE_NAME>
azocan-1-yl-[4-(5-methylpyrazol-1-yl)phenyl]methanone

> <PUBCHEM_IUPAC_CAS_NAME>
1-azocanyl-[4-(5-methyl-1-pyrazolyl)phenyl]methanone

> <PUBCHEM_IUPAC_NAME>
azocan-1-yl-[4-(5-methylpyrazol-1-yl)phenyl]methanone

> <PUBCHEM_IUPAC_SYSTEMATIC_NAME>
azocan-1-yl-[4-(5-methylpyrazol-1-yl)phenyl]methanone

> <PUBCHEM_IUPAC_TRADITIONAL_NAME>
azocan-1-yl-[4-(5-methylpyrazol-1-yl)phenyl]methanone

> <PUBCHEM_IUPAC_INCHI>
InChI=1S/C18H23N3O/c1-15-11-12-19-21(15)17-9-7-16(8-10-17)18(22)20-13-5-3-2-4-6-14-20/h7-12H,2-6,13-14H2,1H3

> <PUBCHEM_IUPAC_INCHIKEY>
FJSUITYVVZQWNR-UHFFFAOYSA-N

> <PUBCHEM_XLOGP3_AA>
3.5

> <PUBCHEM_EXACT_MASS>
297.184112

> <PUBCHEM_MOLECULAR_FORMULA>
C18H23N3O

> <PUBCHEM_MOLECULAR_WEIGHT>
297.39472

> <PUBCHEM_OPENEYE_CAN_SMILES>
CC1=CC=NN1C2=CC=C(C=C2)C(=O)N3CCCCCCC3

> <PUBCHEM_OPENEYE_ISO_SMILES>
CC1=CC=NN1C2=CC=C(C=C2)C(=O)N3CCCCCCC3

> <PUBCHEM_CACTVS_TPSA>
38.1

> <PUBCHEM_MONOISOTOPIC_WEIGHT>
297.184112

> <PUBCHEM_TOTAL_CHARGE>
0

> <PUBCHEM_HEAVY_ATOM_COUNT>
22

> <PUBCHEM_ATOM_DEF_STEREO_COUNT>
0

> <PUBCHEM_ATOM_UDEF_STEREO_COUNT>
0

> <PUBCHEM_BOND_DEF_STEREO_COUNT>
0

> <PUBCHEM_BOND_UDEF_STEREO_COUNT>
0

> <PUBCHEM_ISOTOPIC_ATOM_COUNT>
0

> <PUBCHEM_COMPONENT_COUNT>
1

> <PUBCHEM_CACTVS_TAUTO_COUNT>
1

> <PUBCHEM_COORDINATE_TYPE>
1
5
255

> <PUBCHEM_BONDANNOTATIONS>
13  14  8
13  15  8
14  17  8
15  18  8
16  17  8
16  18  8
19  20  8
20  22  8
3  19  8
3  4  8
4  22  8

$$$$

