189481
  -OEChem-07051213152D

 54 55  0     1  0  0  0  0  0999 V2000
    8.5458   -0.2714    0.0000 O   0  0  0  0  0  0  0  0  0  0  0  0
    6.6353   -3.3292    0.0000 O   0  0  0  0  0  0  0  0  0  0  0  0
    9.2136   -1.0157    0.0000 O   0  0  0  0  0  0  0  0  0  0  0  0
    6.8994    0.2666    0.0000 N   0  0  0  0  0  0  0  0  0  0  0  0
    6.2781   -1.6344    0.0000 N   0  0  0  0  0  0  0  0  0  0  0  0
    4.6783   -5.3511    0.0000 N   0  0  0  0  0  0  0  0  0  0  0  0
    5.8279    5.3511    0.0000 N   0  0  0  0  0  0  0  0  0  0  0  0
    9.5708   -2.7106    0.0000 N   0  0  0  0  0  0  0  0  0  0  0  0
    7.2566   -1.4282    0.0000 C   0  0  2  0  0  0  0  0  0  0  0  0
    6.5422    1.9615    0.0000 C   0  0  0  0  0  0  0  0  0  0  0  0
    6.8529    2.9120    0.0000 C   0  0  0  0  0  0  0  0  0  0  0  0
    7.2101    1.2172    0.0000 C   0  0  0  0  0  0  0  0  0  0  0  0
    6.1851    3.6563    0.0000 C   0  0  0  0  0  0  0  0  0  0  0  0
    4.6783   -3.7416    0.0000 C   0  0  0  0  0  0  0  0  0  0  0  0
    7.5673   -0.4777    0.0000 C   0  0  0  0  0  0  0  0  0  0  0  0
    4.9889   -2.7911    0.0000 C   0  0  0  0  0  0  0  0  0  0  0  0
    7.9244   -2.1725    0.0000 C   0  0  0  0  0  0  0  0  0  0  0  0
    3.7320   -4.0464    0.0000 C   0  0  0  0  0  0  0  0  0  0  0  0
    5.9674   -2.5849    0.0000 C   0  0  0  0  0  0  0  0  0  0  0  0
    3.7320   -5.0464    0.0000 C   0  0  0  0  0  0  0  0  0  0  0  0
    6.4957    4.6068    0.0000 C   0  0  0  0  0  0  0  0  0  0  0  0
    5.2619   -4.5464    0.0000 C   0  0  0  0  0  0  0  0  0  0  0  0
    2.8660   -3.5464    0.0000 C   0  0  0  0  0  0  0  0  0  0  0  0
    2.8660   -5.5464    0.0000 C   0  0  0  0  0  0  0  0  0  0  0  0
    8.9030   -1.9663    0.0000 C   0  0  0  0  0  0  0  0  0  0  0  0
    2.0000   -4.0464    0.0000 C   0  0  0  0  0  0  0  0  0  0  0  0
    2.0000   -5.0464    0.0000 C   0  0  0  0  0  0  0  0  0  0  0  0
    7.0640   -2.0175    0.0000 H   0  0  0  0  0  0  0  0  0  0  0  0
    5.9953    2.2535    0.0000 H   0  0  0  0  0  0  0  0  0  0  0  0
    6.1597    1.4736    0.0000 H   0  0  0  0  0  0  0  0  0  0  0  0
    7.3998    2.6200    0.0000 H   0  0  0  0  0  0  0  0  0  0  0  0
    7.2355    3.3999    0.0000 H   0  0  0  0  0  0  0  0  0  0  0  0
    7.7570    0.9252    0.0000 H   0  0  0  0  0  0  0  0  0  0  0  0
    7.5926    1.7051    0.0000 H   0  0  0  0  0  0  0  0  0  0  0  0
    5.6381    3.9483    0.0000 H   0  0  0  0  0  0  0  0  0  0  0  0
    5.8025    3.1684    0.0000 H   0  0  0  0  0  0  0  0  0  0  0  0
    4.9684   -2.1715    0.0000 H   0  0  0  0  0  0  0  0  0  0  0  0
    4.3751   -2.7038    0.0000 H   0  0  0  0  0  0  0  0  0  0  0  0
    7.3981   -2.5001    0.0000 H   0  0  0  0  0  0  0  0  0  0  0  0
    8.1557   -2.7477    0.0000 H   0  0  0  0  0  0  0  0  0  0  0  0
    6.2928    0.1388    0.0000 H   0  0  0  0  0  0  0  0  0  0  0  0
    5.8640   -1.1729    0.0000 H   0  0  0  0  0  0  0  0  0  0  0  0
    7.0426    4.3148    0.0000 H   0  0  0  0  0  0  0  0  0  0  0  0
    6.8783    5.0947    0.0000 H   0  0  0  0  0  0  0  0  0  0  0  0
    5.8819   -4.5464    0.0000 H   0  0  0  0  0  0  0  0  0  0  0  0
    4.8709   -5.9404    0.0000 H   0  0  0  0  0  0  0  0  0  0  0  0
    2.8660   -2.9264    0.0000 H   0  0  0  0  0  0  0  0  0  0  0  0
    2.8660   -6.1664    0.0000 H   0  0  0  0  0  0  0  0  0  0  0  0
    1.4631   -3.7364    0.0000 H   0  0  0  0  0  0  0  0  0  0  0  0
    1.4631   -5.3564    0.0000 H   0  0  0  0  0  0  0  0  0  0  0  0
    6.0205    5.9404    0.0000 H   0  0  0  0  0  0  0  0  0  0  0  0
    5.2212    5.2233    0.0000 H   0  0  0  0  0  0  0  0  0  0  0  0
   10.1775   -2.5827    0.0000 H   0  0  0  0  0  0  0  0  0  0  0  0
    9.3782   -3.2999    0.0000 H   0  0  0  0  0  0  0  0  0  0  0  0
  1 15  2  0  0  0  0
  2 19  2  0  0  0  0
  3 25  2  0  0  0  0
  4 12  1  0  0  0  0
  4 15  1  0  0  0  0
  4 41  1  0  0  0  0
  9  5  1  6  0  0  0
  5 19  1  0  0  0  0
  5 42  1  0  0  0  0
  6 20  1  0  0  0  0
  6 22  1  0  0  0  0
  6 46  1  0  0  0  0
  7 21  1  0  0  0  0
  7 51  1  0  0  0  0
  7 52  1  0  0  0  0
  8 25  1  0  0  0  0
  8 53  1  0  0  0  0
  8 54  1  0  0  0  0
  9 15  1  0  0  0  0
  9 17  1  0  0  0  0
  9 28  1  0  0  0  0
 10 11  1  0  0  0  0
 10 12  1  0  0  0  0
 10 29  1  0  0  0  0
 10 30  1  0  0  0  0
 11 13  1  0  0  0  0
 11 31  1  0  0  0  0
 11 32  1  0  0  0  0
 12 33  1  0  0  0  0
 12 34  1  0  0  0  0
 13 21  1  0  0  0  0
 13 35  1  0  0  0  0
 13 36  1  0  0  0  0
 14 16  1  0  0  0  0
 14 18  1  0  0  0  0
 14 22  2  0  0  0  0
 16 19  1  0  0  0  0
 16 37  1  0  0  0  0
 16 38  1  0  0  0  0
 17 25  1  0  0  0  0
 17 39  1  0  0  0  0
 17 40  1  0  0  0  0
 18 20  1  0  0  0  0
 18 23  2  0  0  0  0
 20 24  2  0  0  0  0
 21 43  1  0  0  0  0
 21 44  1  0  0  0  0
 22 45  1  0  0  0  0
 23 26  1  0  0  0  0
 23 47  1  0  0  0  0
 24 27  1  0  0  0  0
 24 48  1  0  0  0  0
 26 27  2  0  0  0  0
 26 49  1  0  0  0  0
 27 50  1  0  0  0  0
M  END
> <PUBCHEM_COMPOUND_CID>
189481

> <PUBCHEM_COMPOUND_CANONICALIZED>
1

> <PUBCHEM_CACTVS_COMPLEXITY>
514

> <PUBCHEM_CACTVS_HBOND_ACCEPTOR>
4

> <PUBCHEM_CACTVS_HBOND_DONOR>
5

> <PUBCHEM_CACTVS_ROTATABLE_BOND>
11

> <PUBCHEM_CACTVS_SUBSKEYS>
AAADceB7sAAAAAAAAAAAAAAAAAAAAWAAAAAwAAAAAAAAAFgB8AAAHgAQAAAADCjBngQ8wPLJkACoAzV3VACCgCAxAiAI2aG4ZJgIYPrA1bGUIAhglgDIyAcdicCegAAAAAACAAAAAAAAAAQAAAAAAAAAAA==

> <PUBCHEM_IUPAC_OPENEYE_NAME>
(2S)-N-(5-aminopentyl)-2-[[2-(1H-indol-3-yl)acetyl]amino]butanediamide

> <PUBCHEM_IUPAC_CAS_NAME>
(2S)-N-(5-aminopentyl)-2-[[2-(1H-indol-3-yl)-1-oxoethyl]amino]butanediamide

> <PUBCHEM_IUPAC_NAME>
(2S)-N-(5-aminopentyl)-2-[[2-(1H-indol-3-yl)acetyl]amino]butanediamide

> <PUBCHEM_IUPAC_SYSTEMATIC_NAME>
(2S)-N-(5-azanylpentyl)-2-[2-(1H-indol-3-yl)ethanoylamino]butanediamide

> <PUBCHEM_IUPAC_TRADITIONAL_NAME>
(2S)-N-(5-aminopentyl)-2-[[2-(1H-indol-3-yl)acetyl]amino]succinamide

> <PUBCHEM_IUPAC_INCHI>
InChI=1S/C19H27N5O3/c20-8-4-1-5-9-22-19(27)16(11-17(21)25)24-18(26)10-13-12-23-15-7-3-2-6-14(13)15/h2-3,6-7,12,16,23H,1,4-5,8-11,20H2,(H2,21,25)(H,22,27)(H,24,26)/t16-/m0/s1

> <PUBCHEM_IUPAC_INCHIKEY>
OGOAWQZTZZGJEU-INIZCTEOSA-N

> <PUBCHEM_XLOGP3_AA>
-0.4

> <PUBCHEM_EXACT_MASS>
373.21139

> <PUBCHEM_MOLECULAR_FORMULA>
C19H27N5O3

> <PUBCHEM_MOLECULAR_WEIGHT>
373.44938

> <PUBCHEM_OPENEYE_CAN_SMILES>
C1=CC=C2C(=C1)C(=CN2)CC(=O)NC(CC(=O)N)C(=O)NCCCCCN

> <PUBCHEM_OPENEYE_ISO_SMILES>
C1=CC=C2C(=C1)C(=CN2)CC(=O)N[C@@H](CC(=O)N)C(=O)NCCCCCN

> <PUBCHEM_CACTVS_TPSA>
143

> <PUBCHEM_MONOISOTOPIC_WEIGHT>
373.21139

> <PUBCHEM_TOTAL_CHARGE>
0

> <PUBCHEM_HEAVY_ATOM_COUNT>
27

> <PUBCHEM_ATOM_DEF_STEREO_COUNT>
1

> <PUBCHEM_ATOM_UDEF_STEREO_COUNT>
0

> <PUBCHEM_BOND_DEF_STEREO_COUNT>
0

> <PUBCHEM_BOND_UDEF_STEREO_COUNT>
0

> <PUBCHEM_ISOTOPIC_ATOM_COUNT>
0

> <PUBCHEM_COMPONENT_COUNT>
1

> <PUBCHEM_CACTVS_TAUTO_COUNT>
12

> <PUBCHEM_COORDINATE_TYPE>
1
5
255

> <PUBCHEM_BONDANNOTATIONS>
14  18  8
14  22  8
18  20  8
18  23  8
20  24  8
23  26  8
24  27  8
26  27  8
9  5  6
6  20  8
6  22  8

$$$$

