656523
  -OEChem-07051212552D

 52 52  0     1  0  0  0  0  0999 V2000
    6.0010   -1.3450    0.0000 S   0  0  0  0  0  0  0  0  0  0  0  0
    3.4030    4.1550    0.0000 S   0  0  3  0  0  0  0  0  0  0  0  0
    7.7331    1.6550    0.0000 S   0  0  0  0  0  0  0  0  0  0  0  0
    4.2690   -1.3450    0.0000 O   0  0  0  0  0  0  0  0  0  0  0  0
    4.2690   -4.3450    0.0000 O   0  0  0  0  0  0  0  0  0  0  0  0
    2.5369   -3.3450    0.0000 O   0  0  0  0  0  0  0  0  0  0  0  0
    6.0010   -3.3450    0.0000 O   0  0  0  0  0  0  0  0  0  0  0  0
    2.5369   -0.3450    0.0000 O   0  0  0  0  0  0  0  0  0  0  0  0
    6.8671    1.1550    0.0000 O   0  0  0  0  0  0  0  0  0  0  0  0
    4.2690    4.6550    0.0000 O   0  0  0  0  0  0  0  0  0  0  0  0
    8.5991    2.1550    0.0000 O   0  0  0  0  0  0  0  0  0  0  0  0
    7.2331    2.5210    0.0000 O   0  0  0  0  0  0  0  0  0  0  0  0
    8.2331    0.7890    0.0000 O   0  0  0  0  0  0  0  0  0  0  0  0
    6.8671    0.1550    0.0000 N   0  0  0  0  0  0  0  0  0  0  0  0
    4.2690   -3.3450    0.0000 C   0  0  1  0  0  0  0  0  0  0  0  0
    3.4030   -2.8450    0.0000 C   0  0  1  0  0  0  0  0  0  0  0  0
    5.1350   -2.8450    0.0000 C   0  0  2  0  0  0  0  0  0  0  0  0
    3.4030   -1.8450    0.0000 C   0  0  1  0  0  0  0  0  0  0  0  0
    5.1350   -1.8450    0.0000 C   0  0  2  0  0  0  0  0  0  0  0  0
    2.5369   -1.3450    0.0000 C   0  0  0  0  0  0  0  0  0  0  0  0
    6.0010   -0.3450    0.0000 C   0  0  0  0  0  0  0  0  0  0  0  0
    5.1350    0.1550    0.0000 C   0  0  0  0  0  0  0  0  0  0  0  0
    5.1350    1.1550    0.0000 C   0  0  0  0  0  0  0  0  0  0  0  0
    4.2690    1.6550    0.0000 C   0  0  0  0  0  0  0  0  0  0  0  0
    4.2690    2.6550    0.0000 C   0  0  0  0  0  0  0  0  0  0  0  0
    3.4030    3.1550    0.0000 C   0  0  0  0  0  0  0  0  0  0  0  0
    2.5369    4.6550    0.0000 C   0  0  0  0  0  0  0  0  0  0  0  0
    4.8059   -3.6550    0.0000 H   0  0  0  0  0  0  0  0  0  0  0  0
    3.4030   -3.4650    0.0000 H   0  0  0  0  0  0  0  0  0  0  0  0
    5.1350   -3.4650    0.0000 H   0  0  0  0  0  0  0  0  0  0  0  0
    3.4030   -1.2250    0.0000 H   0  0  0  0  0  0  0  0  0  0  0  0
    5.1350   -1.2250    0.0000 H   0  0  0  0  0  0  0  0  0  0  0  0
    1.9264   -1.2373    0.0000 H   0  0  0  0  0  0  0  0  0  0  0  0
    2.3249   -1.9276    0.0000 H   0  0  0  0  0  0  0  0  0  0  0  0
    3.7320   -4.6550    0.0000 H   0  0  0  0  0  0  0  0  0  0  0  0
    2.0000   -3.0350    0.0000 H   0  0  0  0  0  0  0  0  0  0  0  0
    6.5380   -3.0350    0.0000 H   0  0  0  0  0  0  0  0  0  0  0  0
    4.5244    0.2627    0.0000 H   0  0  0  0  0  0  0  0  0  0  0  0
    4.9230   -0.4276    0.0000 H   0  0  0  0  0  0  0  0  0  0  0  0
    5.7456    1.0473    0.0000 H   0  0  0  0  0  0  0  0  0  0  0  0
    5.3471    1.7376    0.0000 H   0  0  0  0  0  0  0  0  0  0  0  0
    3.6584    1.7627    0.0000 H   0  0  0  0  0  0  0  0  0  0  0  0
    4.0569    1.0724    0.0000 H   0  0  0  0  0  0  0  0  0  0  0  0
    4.8796    2.5473    0.0000 H   0  0  0  0  0  0  0  0  0  0  0  0
    4.4810    3.2376    0.0000 H   0  0  0  0  0  0  0  0  0  0  0  0
    2.0000   -0.0350    0.0000 H   0  0  0  0  0  0  0  0  0  0  0  0
    2.7924    3.2627    0.0000 H   0  0  0  0  0  0  0  0  0  0  0  0
    3.1909    2.5724    0.0000 H   0  0  0  0  0  0  0  0  0  0  0  0
    2.8469    5.1919    0.0000 H   0  0  0  0  0  0  0  0  0  0  0  0
    2.0000    4.9650    0.0000 H   0  0  0  0  0  0  0  0  0  0  0  0
    2.2269    4.1181    0.0000 H   0  0  0  0  0  0  0  0  0  0  0  0
    8.5991    2.7750    0.0000 H   0  0  0  0  0  0  0  0  0  0  0  0
 19  1  1  1  0  0  0
  1 21  1  0  0  0  0
  2 10  2  0  0  0  0
  2 26  1  0  0  0  0
  2 27  1  0  0  0  0
  3  9  1  0  0  0  0
  3 11  1  0  0  0  0
  3 12  2  0  0  0  0
  3 13  2  0  0  0  0
  4 18  1  0  0  0  0
  4 19  1  0  0  0  0
 15  5  1  1  0  0  0
  5 35  1  0  0  0  0
 16  6  1  6  0  0  0
  6 36  1  0  0  0  0
 17  7  1  6  0  0  0
  7 37  1  0  0  0  0
  8 20  1  0  0  0  0
  8 46  1  0  0  0  0
  9 14  1  0  0  0  0
 11 52  1  0  0  0  0
 14 21  2  3  0  0  0
 15 16  1  0  0  0  0
 15 17  1  0  0  0  0
 15 28  1  0  0  0  0
 16 18  1  0  0  0  0
 16 29  1  0  0  0  0
 17 19  1  0  0  0  0
 17 30  1  0  0  0  0
 18 20  1  1  0  0  0
 18 31  1  0  0  0  0
 19 32  1  0  0  0  0
 20 33  1  0  0  0  0
 20 34  1  0  0  0  0
 21 22  1  0  0  0  0
 22 23  1  0  0  0  0
 22 38  1  0  0  0  0
 22 39  1  0  0  0  0
 23 24  1  0  0  0  0
 23 40  1  0  0  0  0
 23 41  1  0  0  0  0
 24 25  1  0  0  0  0
 24 42  1  0  0  0  0
 24 43  1  0  0  0  0
 25 26  1  0  0  0  0
 25 44  1  0  0  0  0
 25 45  1  0  0  0  0
 26 47  1  0  0  0  0
 26 48  1  0  0  0  0
 27 49  1  0  0  0  0
 27 50  1  0  0  0  0
 27 51  1  0  0  0  0
M  END
> <PUBCHEM_COMPOUND_CID>
656523

> <PUBCHEM_COMPOUND_CANONICALIZED>
1

> <PUBCHEM_CACTVS_COMPLEXITY>
608

> <PUBCHEM_CACTVS_HBOND_ACCEPTOR>
13

> <PUBCHEM_CACTVS_HBOND_DONOR>
5

> <PUBCHEM_CACTVS_ROTATABLE_BOND>
11

> <PUBCHEM_CACTVS_SUBSKEYS>
AAADceByPABgAAAAAAAAAAAAAAAAAAAAAAAkAAAAAAAAAAAAAAAAHgQECAAACBSlwAKCAAAQBoogAAAgAHBAAAAAABAAAAAwAAABEAIgAAACQAAFAAAjAAHAYAQAAAAAAAAAAAAAAAAAAAAAAAAAAAAAAA==

> <PUBCHEM_IUPAC_OPENEYE_NAME>
[(2S,3R,4S,5S,6R)-3,4,5-trihydroxy-6-(hydroxymethyl)tetrahydropyran-2-yl] 6-methylsulfinyl-N-sulfooxy-hexanimidothioate

> <PUBCHEM_IUPAC_CAS_NAME>
6-methylsulfinyl-N-sulfooxyhexanimidothioic acid [(2S,3R,4S,5S,6R)-3,4,5-trihydroxy-6-(hydroxymethyl)-2-oxanyl] ester

> <PUBCHEM_IUPAC_NAME>
[(2S,3R,4S,5S,6R)-3,4,5-trihydroxy-6-(hydroxymethyl)oxan-2-yl] 6-methylsulfinyl-N-sulfooxyhexanimidothioate

> <PUBCHEM_IUPAC_SYSTEMATIC_NAME>
[(2S,3R,4S,5S,6R)-6-(hydroxymethyl)-3,4,5-tris(oxidanyl)oxan-2-yl] 6-methylsulfinyl-N-sulfooxy-hexanimidothioate

> <PUBCHEM_IUPAC_TRADITIONAL_NAME>
6-methylsulfinyl-N-sulfoxy-hexanimidothioic acid [(2S,3R,4S,5S,6R)-3,4,5-trihydroxy-6-methylol-tetrahydropyran-2-yl] ester

> <PUBCHEM_IUPAC_INCHI>
InChI=1S/C13H25NO10S3/c1-26(19)6-4-2-3-5-9(14-24-27(20,21)22)25-13-12(18)11(17)10(16)8(7-15)23-13/h8,10-13,15-18H,2-7H2,1H3,(H,20,21,22)/t8-,10-,11+,12-,13+,26?/m1/s1

> <PUBCHEM_IUPAC_INCHIKEY>
HUCGRJSHMZWRQQ-LJBAHSCYSA-N

> <PUBCHEM_XLOGP3_AA>
-1.7

> <PUBCHEM_EXACT_MASS>
451.064059

> <PUBCHEM_MOLECULAR_FORMULA>
C13H25NO10S3

> <PUBCHEM_MOLECULAR_WEIGHT>
451.5333

> <PUBCHEM_OPENEYE_CAN_SMILES>
CS(=O)CCCCCC(=NOS(=O)(=O)O)SC1C(C(C(C(O1)CO)O)O)O

> <PUBCHEM_OPENEYE_ISO_SMILES>
CS(=O)CCCCCC(=NOS(=O)(=O)O)S[C@H]1[C@@H]([C@H]([C@@H]([C@H](O1)CO)O)O)O

> <PUBCHEM_CACTVS_TPSA>
236

> <PUBCHEM_MONOISOTOPIC_WEIGHT>
451.064059

> <PUBCHEM_TOTAL_CHARGE>
0

> <PUBCHEM_HEAVY_ATOM_COUNT>
27

> <PUBCHEM_ATOM_DEF_STEREO_COUNT>
5

> <PUBCHEM_ATOM_UDEF_STEREO_COUNT>
1

> <PUBCHEM_BOND_DEF_STEREO_COUNT>
0

> <PUBCHEM_BOND_UDEF_STEREO_COUNT>
1

> <PUBCHEM_ISOTOPIC_ATOM_COUNT>
0

> <PUBCHEM_COMPONENT_COUNT>
1

> <PUBCHEM_CACTVS_TAUTO_COUNT>
2

> <PUBCHEM_COORDINATE_TYPE>
1
5
255

> <PUBCHEM_BONDANNOTATIONS>
19  1  5
14  21  1
18  20  5
2  26  3
15  5  5
16  6  6
17  7  6

$$$$

