13002
  -OEChem-07051213133D

  9  9  0     1  0  0  0  0  0999 V2000
    1.4291    0.6190   -0.1427 O   0  0  0  0  0  0  0  0  0  0  0  0
   -2.0261   -0.2607   -0.0294 O   0  0  0  0  0  0  0  0  0  0  0  0
    0.2927    0.0662    0.5079 C   0  0  2  0  0  0  0  0  0  0  0  0
    1.2989   -0.8085   -0.1475 C   0  0  0  0  0  0  0  0  0  0  0  0
   -0.9947    0.3839   -0.1882 C   0  0  0  0  0  0  0  0  0  0  0  0
    0.2659    0.0924    1.5899 H   0  0  0  0  0  0  0  0  0  0  0  0
    1.9755   -1.3728    0.4811 H   0  0  0  0  0  0  0  0  0  0  0  0
    1.0485   -1.2852   -1.0864 H   0  0  0  0  0  0  0  0  0  0  0  0
   -0.9713    1.2566   -0.8627 H   0  0  0  0  0  0  0  0  0  0  0  0
  1  3  1  0  0  0  0
  1  4  1  0  0  0  0
  2  5  2  0  0  0  0
  3  4  1  0  0  0  0
  3  5  1  0  0  0  0
  3  6  1  0  0  0  0
  4  7  1  0  0  0  0
  4  8  1  0  0  0  0
  5  9  1  0  0  0  0
M  END
> <PUBCHEM_COMPOUND_CID>
13002

> <PUBCHEM_CONFORMER_RMSD>
0.4

> <PUBCHEM_CONFORMER_DIVERSEORDER>
2
1

> <PUBCHEM_MMFF94_PARTIAL_CHARGES>
9
1 -0.3
2 -0.57
3 0.05
4 -0.05
5 0.51
6 0.1
7 0.1
8 0.1
9 0.06

> <PUBCHEM_EFFECTIVE_ROTOR_COUNT>
1.6

> <PUBCHEM_PHARMACOPHORE_FEATURES>
2
1 1 acceptor
1 2 acceptor

> <PUBCHEM_HEAVY_ATOM_COUNT>
5

> <PUBCHEM_ATOM_DEF_STEREO_COUNT>
0

> <PUBCHEM_ATOM_UDEF_STEREO_COUNT>
1

> <PUBCHEM_BOND_DEF_STEREO_COUNT>
0

> <PUBCHEM_BOND_UDEF_STEREO_COUNT>
0

> <PUBCHEM_ISOTOPIC_ATOM_COUNT>
0

> <PUBCHEM_COMPONENT_COUNT>
1

> <PUBCHEM_CACTVS_TAUTO_COUNT>
2

> <PUBCHEM_CONFORMER_ID>
000032CA00000002

> <PUBCHEM_MMFF94_ENERGY>
4.7233

> <PUBCHEM_FEATURE_SELFOVERLAP>
10.149

> <PUBCHEM_SHAPE_FINGERPRINT>
139733 1 11095868380825211634
20096714 4 18271805687846329060
21015797 1 9870878261510600616
24536 1 18338249252896012585
29004967 10 18408319994925609146
5460574 1 9295290542687620849
5943 1 11770320294072326376

> <PUBCHEM_SHAPE_MULTIPOLES>
91.16
2.2
0.82
0.65
0.7
0.04
0.04
0.23
-0.16
-0.2
-0.03
-0.03
0
0.02

> <PUBCHEM_SHAPE_SELFOVERLAP>
169.424

> <PUBCHEM_SHAPE_VOLUME>
58.2

> <PUBCHEM_COORDINATE_TYPE>
2
5
10

$$$$

