442552
  -OEChem-07051212582D

 33 34  0     1  0  0  0  0  0999 V2000
    2.8660    0.6224    0.0000 N   0  0  3  0  0  0  0  0  0  0  0  0
    4.5981   -0.3776    0.0000 C   0  0  1  0  0  0  0  0  0  0  0  0
    4.5981    0.6224    0.0000 C   0  0  2  0  0  0  0  0  0  0  0  0
    5.5443    0.9271    0.0000 C   0  0  2  0  0  0  0  0  0  0  0  0
    3.7320   -0.8776    0.0000 C   0  0  1  0  0  0  0  0  0  0  0  0
    5.5443   -0.6824    0.0000 C   0  0  0  0  0  0  0  0  0  0  0  0
    6.1279    0.1224    0.0000 C   0  0  0  0  0  0  0  0  0  0  0  0
    3.7320    1.1224    0.0000 C   0  0  0  0  0  0  0  0  0  0  0  0
    2.8660   -0.3776    0.0000 C   0  0  0  0  0  0  0  0  0  0  0  0
    5.8550    1.8776    0.0000 C   0  0  0  0  0  0  0  0  0  0  0  0
    3.7320   -1.8776    0.0000 C   0  0  0  0  0  0  0  0  0  0  0  0
    2.0000    1.1224    0.0000 C   0  0  0  0  0  0  0  0  0  0  0  0
    4.6880   -1.2228    0.0000 H   0  0  0  0  0  0  0  0  0  0  0  0
    4.6880    1.4676    0.0000 H   0  0  0  0  0  0  0  0  0  0  0  0
    5.1068    1.3665    0.0000 H   0  0  0  0  0  0  0  0  0  0  0  0
    4.2690   -1.1876    0.0000 H   0  0  0  0  0  0  0  0  0  0  0  0
    5.2933   -1.2493    0.0000 H   0  0  0  0  0  0  0  0  0  0  0  0
    6.0817   -0.9916    0.0000 H   0  0  0  0  0  0  0  0  0  0  0  0
    6.5888   -0.2924    0.0000 H   0  0  0  0  0  0  0  0  0  0  0  0
    6.5888    0.5371    0.0000 H   0  0  0  0  0  0  0  0  0  0  0  0
    4.1306    1.5973    0.0000 H   0  0  0  0  0  0  0  0  0  0  0  0
    3.3335    1.5973    0.0000 H   0  0  0  0  0  0  0  0  0  0  0  0
    2.2554   -0.2700    0.0000 H   0  0  0  0  0  0  0  0  0  0  0  0
    2.6540   -0.9602    0.0000 H   0  0  0  0  0  0  0  0  0  0  0  0
    6.4443    1.6850    0.0000 H   0  0  0  0  0  0  0  0  0  0  0  0
    6.0476    2.4670    0.0000 H   0  0  0  0  0  0  0  0  0  0  0  0
    5.2656    2.0702    0.0000 H   0  0  0  0  0  0  0  0  0  0  0  0
    3.1120   -1.8776    0.0000 H   0  0  0  0  0  0  0  0  0  0  0  0
    3.7320   -2.4976    0.0000 H   0  0  0  0  0  0  0  0  0  0  0  0
    4.3520   -1.8776    0.0000 H   0  0  0  0  0  0  0  0  0  0  0  0
    2.3100    1.6593    0.0000 H   0  0  0  0  0  0  0  0  0  0  0  0
    1.4631    1.4324    0.0000 H   0  0  0  0  0  0  0  0  0  0  0  0
    1.6900    0.5854    0.0000 H   0  0  0  0  0  0  0  0  0  0  0  0
  1  8  1  0  0  0  0
  1  9  1  0  0  0  0
  1 12  1  0  0  0  0
  2  3  1  0  0  0  0
  2  5  1  0  0  0  0
  2  6  1  0  0  0  0
  2 13  1  1  0  0  0
  3  4  1  0  0  0  0
  3  8  1  0  0  0  0
  3 14  1  6  0  0  0
  4  7  1  0  0  0  0
  4 10  1  1  0  0  0
  4 15  1  0  0  0  0
  5  9  1  0  0  0  0
  5 11  1  6  0  0  0
  5 16  1  0  0  0  0
  6  7  1  0  0  0  0
  6 17  1  0  0  0  0
  6 18  1  0  0  0  0
  7 19  1  0  0  0  0
  7 20  1  0  0  0  0
  8 21  1  0  0  0  0
  8 22  1  0  0  0  0
  9 23  1  0  0  0  0
  9 24  1  0  0  0  0
 10 25  1  0  0  0  0
 10 26  1  0  0  0  0
 10 27  1  0  0  0  0
 11 28  1  0  0  0  0
 11 29  1  0  0  0  0
 11 30  1  0  0  0  0
 12 31  1  0  0  0  0
 12 32  1  0  0  0  0
 12 33  1  0  0  0  0
M  END
> <PUBCHEM_COMPOUND_CID>
442552

> <PUBCHEM_COMPOUND_CANONICALIZED>
1

> <PUBCHEM_CACTVS_COMPLEXITY>
166

> <PUBCHEM_CACTVS_HBOND_ACCEPTOR>
1

> <PUBCHEM_CACTVS_HBOND_DONOR>
0

> <PUBCHEM_CACTVS_ROTATABLE_BOND>
0

> <PUBCHEM_CACTVS_SUBSKEYS>
AAADceByAAAAAAAAAAAAAAAAAAAAAYAAAAAsAAAAAAAAAFgAAAAAHAAAAAAADQDBAAQCAAMAAAAAAAAAAAAAAAAAAAAAAAAIAAAAAAIAgAAEAAAAAACAAAEQgMAOgAAAAAAAAAAAAAAAAAAAAQAACAAAAA==

> <PUBCHEM_IUPAC_OPENEYE_NAME>
(4S,4aR,7S,7aS)-2,4,7-trimethyl-1,3,4,4a,5,6,7,7a-octahydrocyclopenta[c]pyridine

> <PUBCHEM_IUPAC_CAS_NAME>
(4S,4aR,7S,7aS)-2,4,7-trimethyl-1,3,4,4a,5,6,7,7a-octahydrocyclopenta[c]pyridine

> <PUBCHEM_IUPAC_NAME>
(4S,4aR,7S,7aS)-2,4,7-trimethyl-1,3,4,4a,5,6,7,7a-octahydrocyclopenta[c]pyridine

> <PUBCHEM_IUPAC_SYSTEMATIC_NAME>
(4S,4aR,7S,7aS)-2,4,7-trimethyl-1,3,4,4a,5,6,7,7a-octahydrocyclopenta[c]pyridine

> <PUBCHEM_IUPAC_TRADITIONAL_NAME>
(4S,4aR,7S,7aS)-2,4,7-trimethyl-1,3,4,4a,5,6,7,7a-octahydro-2-pyrindine

> <PUBCHEM_IUPAC_INCHI>
InChI=1S/C11H21N/c1-8-4-5-10-9(2)6-12(3)7-11(8)10/h8-11H,4-7H2,1-3H3/t8-,9+,10+,11-/m0/s1

> <PUBCHEM_IUPAC_INCHIKEY>
HGTMGCDIPYGVKA-ZDCRXTMVSA-N

> <PUBCHEM_XLOGP3_AA>
3

> <PUBCHEM_EXACT_MASS>
167.1674

> <PUBCHEM_MOLECULAR_FORMULA>
C11H21N

> <PUBCHEM_MOLECULAR_WEIGHT>
167.29114

> <PUBCHEM_OPENEYE_CAN_SMILES>
CC1CCC2C1CN(CC2C)C

> <PUBCHEM_OPENEYE_ISO_SMILES>
C[C@H]1CC[C@H]2[C@H]1CN(C[C@H]2C)C

> <PUBCHEM_CACTVS_TPSA>
3.2

> <PUBCHEM_MONOISOTOPIC_WEIGHT>
167.1674

> <PUBCHEM_TOTAL_CHARGE>
0

> <PUBCHEM_HEAVY_ATOM_COUNT>
12

> <PUBCHEM_ATOM_DEF_STEREO_COUNT>
4

> <PUBCHEM_ATOM_UDEF_STEREO_COUNT>
0

> <PUBCHEM_BOND_DEF_STEREO_COUNT>
0

> <PUBCHEM_BOND_UDEF_STEREO_COUNT>
0

> <PUBCHEM_ISOTOPIC_ATOM_COUNT>
0

> <PUBCHEM_COMPONENT_COUNT>
1

> <PUBCHEM_CACTVS_TAUTO_COUNT>
1

> <PUBCHEM_COORDINATE_TYPE>
1
5
255

> <PUBCHEM_BONDANNOTATIONS>
2  13  5
3  14  6
4  10  5
5  11  6

$$$$

