48041
  -OEChem-07051212522D

 54 56  0     1  0  0  0  0  0999 V2000
    8.9282   -1.0000    0.0000 O   0  0  0  0  0  0  0  0  0  0  0  0
    8.0622    3.5000    0.0000 O   0  0  0  0  0  0  0  0  0  0  0  0
    2.8660   -2.5000    0.0000 N   0  0  3  0  0  0  0  0  0  0  0  0
    7.1962   -1.0000    0.0000 N   0  0  0  0  0  0  0  0  0  0  0  0
    3.7320   -2.0000    0.0000 C   0  0  3  0  0  0  0  0  0  0  0  0
    3.7320   -1.0000    0.0000 C   0  0  0  0  0  0  0  0  0  0  0  0
    2.8660   -0.5000    0.0000 C   0  0  0  0  0  0  0  0  0  0  0  0
    2.0000   -2.0000    0.0000 C   0  0  0  0  0  0  0  0  0  0  0  0
    2.0000   -1.0000    0.0000 C   0  0  0  0  0  0  0  0  0  0  0  0
    4.5981   -2.5000    0.0000 C   0  0  0  0  0  0  0  0  0  0  0  0
    5.4641   -2.0000    0.0000 C   0  0  0  0  0  0  0  0  0  0  0  0
    2.8660   -3.5000    0.0000 C   0  0  0  0  0  0  0  0  0  0  0  0
    6.3301   -2.5000    0.0000 C   0  0  0  0  0  0  0  0  0  0  0  0
    7.1962   -2.0000    0.0000 C   0  0  0  0  0  0  0  0  0  0  0  0
    6.3301   -3.5000    0.0000 C   0  0  0  0  0  0  0  0  0  0  0  0
    8.0622   -2.5000    0.0000 C   0  0  0  0  0  0  0  0  0  0  0  0
    7.1962   -4.0000    0.0000 C   0  0  0  0  0  0  0  0  0  0  0  0
    8.0622   -3.5000    0.0000 C   0  0  0  0  0  0  0  0  0  0  0  0
    8.0622   -0.5000    0.0000 C   0  0  0  0  0  0  0  0  0  0  0  0
    8.0622    0.5000    0.0000 C   0  0  0  0  0  0  0  0  0  0  0  0
    8.9282    1.0000    0.0000 C   0  0  0  0  0  0  0  0  0  0  0  0
    7.1962    1.0000    0.0000 C   0  0  0  0  0  0  0  0  0  0  0  0
    8.9282    2.0000    0.0000 C   0  0  0  0  0  0  0  0  0  0  0  0
    7.1962    2.0000    0.0000 C   0  0  0  0  0  0  0  0  0  0  0  0
    8.0622    2.5000    0.0000 C   0  0  0  0  0  0  0  0  0  0  0  0
    8.9282    4.0000    0.0000 C   0  0  0  0  0  0  0  0  0  0  0  0
    3.7320   -2.6200    0.0000 H   0  0  0  0  0  0  0  0  0  0  0  0
    4.3426   -1.1077    0.0000 H   0  0  0  0  0  0  0  0  0  0  0  0
    3.9441   -0.4174    0.0000 H   0  0  0  0  0  0  0  0  0  0  0  0
    3.2646   -0.0251    0.0000 H   0  0  0  0  0  0  0  0  0  0  0  0
    2.4675   -0.0251    0.0000 H   0  0  0  0  0  0  0  0  0  0  0  0
    1.3894   -1.8923    0.0000 H   0  0  0  0  0  0  0  0  0  0  0  0
    1.7880   -2.5826    0.0000 H   0  0  0  0  0  0  0  0  0  0  0  0
    4.1996   -2.9750    0.0000 H   0  0  0  0  0  0  0  0  0  0  0  0
    4.9966   -2.9750    0.0000 H   0  0  0  0  0  0  0  0  0  0  0  0
    1.7880   -0.4174    0.0000 H   0  0  0  0  0  0  0  0  0  0  0  0
    1.3894   -1.1077    0.0000 H   0  0  0  0  0  0  0  0  0  0  0  0
    5.8626   -1.5250    0.0000 H   0  0  0  0  0  0  0  0  0  0  0  0
    5.0656   -1.5250    0.0000 H   0  0  0  0  0  0  0  0  0  0  0  0
    2.2460   -3.5000    0.0000 H   0  0  0  0  0  0  0  0  0  0  0  0
    2.8660   -4.1200    0.0000 H   0  0  0  0  0  0  0  0  0  0  0  0
    3.4860   -3.5000    0.0000 H   0  0  0  0  0  0  0  0  0  0  0  0
    5.7932   -3.8100    0.0000 H   0  0  0  0  0  0  0  0  0  0  0  0
    8.5991   -2.1900    0.0000 H   0  0  0  0  0  0  0  0  0  0  0  0
    7.1962   -4.6200    0.0000 H   0  0  0  0  0  0  0  0  0  0  0  0
    6.6592   -0.6900    0.0000 H   0  0  0  0  0  0  0  0  0  0  0  0
    8.5991   -3.8100    0.0000 H   0  0  0  0  0  0  0  0  0  0  0  0
    9.4651    0.6900    0.0000 H   0  0  0  0  0  0  0  0  0  0  0  0
    6.6592    0.6900    0.0000 H   0  0  0  0  0  0  0  0  0  0  0  0
    9.4651    2.3100    0.0000 H   0  0  0  0  0  0  0  0  0  0  0  0
    6.6592    2.3100    0.0000 H   0  0  0  0  0  0  0  0  0  0  0  0
    9.2382    3.4631    0.0000 H   0  0  0  0  0  0  0  0  0  0  0  0
    9.4651    4.3100    0.0000 H   0  0  0  0  0  0  0  0  0  0  0  0
    8.6182    4.5369    0.0000 H   0  0  0  0  0  0  0  0  0  0  0  0
  1 19  2  0  0  0  0
  2 25  1  0  0  0  0
  2 26  1  0  0  0  0
  3  5  1  0  0  0  0
  3  8  1  0  0  0  0
  3 12  1  0  0  0  0
  4 14  1  0  0  0  0
  4 19  1  0  0  0  0
  4 46  1  0  0  0  0
  5  6  1  0  0  0  0
  5 10  1  0  0  0  0
  5 27  1  0  0  0  0
  6  7  1  0  0  0  0
  6 28  1  0  0  0  0
  6 29  1  0  0  0  0
  7  9  1  0  0  0  0
  7 30  1  0  0  0  0
  7 31  1  0  0  0  0
  8  9  1  0  0  0  0
  8 32  1  0  0  0  0
  8 33  1  0  0  0  0
  9 36  1  0  0  0  0
  9 37  1  0  0  0  0
 10 11  1  0  0  0  0
 10 34  1  0  0  0  0
 10 35  1  0  0  0  0
 11 13  1  0  0  0  0
 11 38  1  0  0  0  0
 11 39  1  0  0  0  0
 12 40  1  0  0  0  0
 12 41  1  0  0  0  0
 12 42  1  0  0  0  0
 13 14  1  0  0  0  0
 13 15  2  0  0  0  0
 14 16  2  0  0  0  0
 15 17  1  0  0  0  0
 15 43  1  0  0  0  0
 16 18  1  0  0  0  0
 16 44  1  0  0  0  0
 17 18  2  0  0  0  0
 17 45  1  0  0  0  0
 18 47  1  0  0  0  0
 19 20  1  0  0  0  0
 20 21  2  0  0  0  0
 20 22  1  0  0  0  0
 21 23  1  0  0  0  0
 21 48  1  0  0  0  0
 22 24  2  0  0  0  0
 22 49  1  0  0  0  0
 23 25  2  0  0  0  0
 23 50  1  0  0  0  0
 24 25  1  0  0  0  0
 24 51  1  0  0  0  0
 26 52  1  0  0  0  0
 26 53  1  0  0  0  0
 26 54  1  0  0  0  0
M  END
> <PUBCHEM_COMPOUND_CID>
48041

> <PUBCHEM_COMPOUND_CANONICALIZED>
1

> <PUBCHEM_CACTVS_COMPLEXITY>
434

> <PUBCHEM_CACTVS_HBOND_ACCEPTOR>
3

> <PUBCHEM_CACTVS_HBOND_DONOR>
1

> <PUBCHEM_CACTVS_ROTATABLE_BOND>
6

> <PUBCHEM_CACTVS_SUBSKEYS>
AAADceB7MAAAAAAAAAAAAAAAAAAAAAAAAAA8YIAAAAAAAAABQAAAHgAQAAAADCzBmAYyxoPABACIAiVSUACCCAAlIgAIiAEObMgMJjLEtZuEMShk1BHI6YeY3MLOIAAAAAACAABAAAAAAAQAAAAAAAAAAA==

> <PUBCHEM_IUPAC_OPENEYE_NAME>
4-methoxy-N-[2-[2-(1-methyl-2-piperidyl)ethyl]phenyl]benzamide

> <PUBCHEM_IUPAC_CAS_NAME>
4-methoxy-N-[2-[2-(1-methyl-2-piperidinyl)ethyl]phenyl]benzamide

> <PUBCHEM_IUPAC_NAME>
4-methoxy-N-[2-[2-(1-methylpiperidin-2-yl)ethyl]phenyl]benzamide

> <PUBCHEM_IUPAC_SYSTEMATIC_NAME>
4-methoxy-N-[2-[2-(1-methylpiperidin-2-yl)ethyl]phenyl]benzamide

> <PUBCHEM_IUPAC_TRADITIONAL_NAME>
4-methoxy-N-[2-[2-(1-methyl-2-piperidyl)ethyl]phenyl]benzamide

> <PUBCHEM_IUPAC_INCHI>
InChI=1S/C22H28N2O2/c1-24-16-6-5-8-19(24)13-10-17-7-3-4-9-21(17)23-22(25)18-11-14-20(26-2)15-12-18/h3-4,7,9,11-12,14-15,19H,5-6,8,10,13,16H2,1-2H3,(H,23,25)

> <PUBCHEM_IUPAC_INCHIKEY>
PJWPNDMDCLXCOM-UHFFFAOYSA-N

> <PUBCHEM_XLOGP3_AA>
4.3

> <PUBCHEM_EXACT_MASS>
352.215078

> <PUBCHEM_MOLECULAR_FORMULA>
C22H28N2O2

> <PUBCHEM_MOLECULAR_WEIGHT>
352.46992

> <PUBCHEM_OPENEYE_CAN_SMILES>
CN1CCCCC1CCC2=CC=CC=C2NC(=O)C3=CC=C(C=C3)OC

> <PUBCHEM_OPENEYE_ISO_SMILES>
CN1CCCCC1CCC2=CC=CC=C2NC(=O)C3=CC=C(C=C3)OC

> <PUBCHEM_CACTVS_TPSA>
41.6

> <PUBCHEM_MONOISOTOPIC_WEIGHT>
352.215078

> <PUBCHEM_TOTAL_CHARGE>
0

> <PUBCHEM_HEAVY_ATOM_COUNT>
26

> <PUBCHEM_ATOM_DEF_STEREO_COUNT>
0

> <PUBCHEM_ATOM_UDEF_STEREO_COUNT>
1

> <PUBCHEM_BOND_DEF_STEREO_COUNT>
0

> <PUBCHEM_BOND_UDEF_STEREO_COUNT>
0

> <PUBCHEM_ISOTOPIC_ATOM_COUNT>
0

> <PUBCHEM_COMPONENT_COUNT>
1

> <PUBCHEM_CACTVS_TAUTO_COUNT>
2

> <PUBCHEM_COORDINATE_TYPE>
1
5
255

> <PUBCHEM_BONDANNOTATIONS>
13  14  8
13  15  8
14  16  8
15  17  8
16  18  8
17  18  8
20  21  8
20  22  8
21  23  8
22  24  8
23  25  8
24  25  8
5  10  3

$$$$

