23675312
  -OEChem-07051212542D

 45 46  0     1  0  0  0  0  0999 V2000
    6.3301   -0.8549    0.0000 S   0  0  0  0  0  0  0  0  0  0  0  0
   11.5486   -1.2625    0.0000 S   0  0  0  0  0  0  0  0  0  0  0  0
    5.4641    3.6450    0.0000 Na  0  3  0  0  0  0  0  0  0  0  0  0
    8.9101    1.3578    0.0000 O   0  0  0  0  0  0  0  0  0  0  0  0
    3.7320    0.6451    0.0000 O   0  0  0  0  0  0  0  0  0  0  0  0
    5.4641    2.6450    0.0000 O   0  5  0  0  0  0  0  0  0  0  0  0
    7.1962    2.6450    0.0000 O   0  0  0  0  0  0  0  0  0  0  0  0
   10.1373    0.1546    0.0000 O   0  0  0  0  0  0  0  0  0  0  0  0
    2.8660    2.1450    0.0000 O   0  0  0  0  0  0  0  0  0  0  0  0
    7.1962    0.6451    0.0000 N   0  0  0  0  0  0  0  0  0  0  0  0
    8.9101   -1.0676    0.0000 N   0  0  0  0  0  0  0  0  0  0  0  0
   13.6656   -3.3882    0.0000 N   0  0  0  0  0  0  0  0  0  0  0  0
    7.1962   -0.3549    0.0000 C   0  0  1  0  0  0  0  0  0  0  0  0
    8.2044   -0.3591    0.0000 C   0  0  1  0  0  0  0  0  0  0  0  0
    8.2044    0.6492    0.0000 C   0  0  0  0  0  0  0  0  0  0  0  0
    6.3301    1.1450    0.0000 C   0  0  0  0  0  0  0  0  0  0  0  0
    5.4641    0.6451    0.0000 C   0  0  0  0  0  0  0  0  0  0  0  0
    5.4641   -0.3549    0.0000 C   0  0  0  0  0  0  0  0  0  0  0  0
    4.5981    1.1450    0.0000 C   0  0  0  0  0  0  0  0  0  0  0  0
    6.3301    2.1450    0.0000 C   0  0  0  0  0  0  0  0  0  0  0  0
    9.8765   -0.8108    0.0000 C   0  0  0  0  0  0  0  0  0  0  0  0
   10.5822   -1.5194    0.0000 C   0  0  0  0  0  0  0  0  0  0  0  0
    2.8660    1.1450    0.0000 C   0  0  0  0  0  0  0  0  0  0  0  0
   12.2543   -1.9711    0.0000 C   0  0  0  0  0  0  0  0  0  0  0  0
    2.0000    0.6451    0.0000 C   0  0  0  0  0  0  0  0  0  0  0  0
   13.2208   -1.7143    0.0000 C   0  0  0  0  0  0  0  0  0  0  0  0
   11.9935   -2.9365    0.0000 C   0  0  0  0  0  0  0  0  0  0  0  0
   13.9264   -2.4228    0.0000 C   0  0  0  0  0  0  0  0  0  0  0  0
   12.6991   -3.6450    0.0000 C   0  0  0  0  0  0  0  0  0  0  0  0
    7.4145   -1.1764    0.0000 H   0  0  0  0  0  0  0  0  0  0  0  0
    7.9654   -0.9312    0.0000 H   0  0  0  0  0  0  0  0  0  0  0  0
    4.8535   -0.2473    0.0000 H   0  0  0  0  0  0  0  0  0  0  0  0
    5.2520   -0.9376    0.0000 H   0  0  0  0  0  0  0  0  0  0  0  0
    8.7484   -1.6662    0.0000 H   0  0  0  0  0  0  0  0  0  0  0  0
    4.9966    1.6200    0.0000 H   0  0  0  0  0  0  0  0  0  0  0  0
    4.1996    1.6200    0.0000 H   0  0  0  0  0  0  0  0  0  0  0  0
   10.0736   -1.8740    0.0000 H   0  0  0  0  0  0  0  0  0  0  0  0
   10.8431   -2.0818    0.0000 H   0  0  0  0  0  0  0  0  0  0  0  0
    1.6900    1.1820    0.0000 H   0  0  0  0  0  0  0  0  0  0  0  0
    1.4631    0.3351    0.0000 H   0  0  0  0  0  0  0  0  0  0  0  0
    2.3100    0.1081    0.0000 H   0  0  0  0  0  0  0  0  0  0  0  0
   13.3825   -1.1157    0.0000 H   0  0  0  0  0  0  0  0  0  0  0  0
   11.3943   -3.0957    0.0000 H   0  0  0  0  0  0  0  0  0  0  0  0
   14.5256   -2.2636    0.0000 H   0  0  0  0  0  0  0  0  0  0  0  0
   12.5375   -4.2436    0.0000 H   0  0  0  0  0  0  0  0  0  0  0  0
  1 13  1  0  0  0  0
  1 18  1  0  0  0  0
  2 22  1  0  0  0  0
  2 24  1  0  0  0  0
  4 15  2  0  0  0  0
  5 19  1  0  0  0  0
  5 23  1  0  0  0  0
  6 20  1  0  0  0  0
  7 20  2  0  0  0  0
  8 21  2  0  0  0  0
  9 23  2  0  0  0  0
 10 13  1  0  0  0  0
 10 15  1  0  0  0  0
 10 16  1  0  0  0  0
 14 11  1  1  0  0  0
 11 21  1  0  0  0  0
 11 34  1  0  0  0  0
 12 28  2  0  0  0  0
 12 29  1  0  0  0  0
 13 14  1  0  0  0  0
 13 30  1  6  0  0  0
 14 15  1  0  0  0  0
 14 31  1  0  0  0  0
 16 17  2  0  0  0  0
 16 20  1  0  0  0  0
 17 18  1  0  0  0  0
 17 19  1  0  0  0  0
 18 32  1  0  0  0  0
 18 33  1  0  0  0  0
 19 35  1  0  0  0  0
 19 36  1  0  0  0  0
 21 22  1  0  0  0  0
 22 37  1  0  0  0  0
 22 38  1  0  0  0  0
 23 25  1  0  0  0  0
 24 26  2  0  0  0  0
 24 27  1  0  0  0  0
 25 39  1  0  0  0  0
 25 40  1  0  0  0  0
 25 41  1  0  0  0  0
 26 28  1  0  0  0  0
 26 42  1  0  0  0  0
 27 29  2  0  0  0  0
 27 43  1  0  0  0  0
 28 44  1  0  0  0  0
 29 45  1  0  0  0  0
M  CHG  2   3   1   6  -1
M  END
> <PUBCHEM_COMPOUND_CID>
23675312

> <PUBCHEM_COMPOUND_CANONICALIZED>
1

> <PUBCHEM_CACTVS_COMPLEXITY>
713

> <PUBCHEM_CACTVS_HBOND_ACCEPTOR>
9

> <PUBCHEM_CACTVS_HBOND_DONOR>
1

> <PUBCHEM_CACTVS_ROTATABLE_BOND>
8

> <PUBCHEM_CACTVS_SUBSKEYS>
AAADceB7OCBgAAAAAAAAAAAAAABYAAAAAAAsQAAAAAAQAAABgAAAHgQQAAAADCjl0ga+iZPIFAioAjX3XACCgCBxCjAI2Lm4ZNgKZGrgsbGWMAxglgD46QYQAAAAAAAAAAAAAAAAAAAAAAAAAAAAAAAAAA==

> <PUBCHEM_IUPAC_OPENEYE_NAME>
sodium (6R,7R)-3-(acetoxymethyl)-8-oxo-7-[[2-(4-pyridylsulfanyl)acetyl]amino]-5-thia-1-azabicyclo[4.2.0]oct-2-ene-2-carboxylate

> <PUBCHEM_IUPAC_CAS_NAME>
sodium (6R,7R)-3-(acetyloxymethyl)-8-oxo-7-[[1-oxo-2-(pyridin-4-ylthio)ethyl]amino]-5-thia-1-azabicyclo[4.2.0]oct-2-ene-2-carboxylate

> <PUBCHEM_IUPAC_NAME>
sodium (6R,7R)-3-(acetyloxymethyl)-8-oxo-7-[(2-pyridin-4-ylsulfanylacetyl)amino]-5-thia-1-azabicyclo[4.2.0]oct-2-ene-2-carboxylate

> <PUBCHEM_IUPAC_SYSTEMATIC_NAME>
sodium (6R,7R)-3-(acetyloxymethyl)-8-oxidanylidene-7-(2-pyridin-4-ylsulfanylethanoylamino)-5-thia-1-azabicyclo[4.2.0]oct-2-ene-2-carboxylate

> <PUBCHEM_IUPAC_TRADITIONAL_NAME>
sodium (6R,7R)-3-(acetoxymethyl)-8-keto-7-[[2-(4-pyridylthio)acetyl]amino]-5-thia-1-azabicyclo[4.2.0]oct-2-ene-2-carboxylate

> <PUBCHEM_IUPAC_INCHI>
InChI=1S/C17H17N3O6S2.Na/c1-9(21)26-6-10-7-28-16-13(15(23)20(16)14(10)17(24)25)19-12(22)8-27-11-2-4-18-5-3-11;/h2-5,13,16H,6-8H2,1H3,(H,19,22)(H,24,25);/q;+1/p-1/t13-,16-;/m1./s1

> <PUBCHEM_IUPAC_INCHIKEY>
VGEOUKPOQQEQSX-OALZAMAHSA-M

> <PUBCHEM_EXACT_MASS>
445.037822

> <PUBCHEM_MOLECULAR_FORMULA>
C17H16N3NaO6S2

> <PUBCHEM_MOLECULAR_WEIGHT>
445.445209

> <PUBCHEM_OPENEYE_CAN_SMILES>
CC(=O)OCC1=C(N2C(C(C2=O)NC(=O)CSC3=CC=NC=C3)SC1)C(=O)[O-].[Na+]

> <PUBCHEM_OPENEYE_ISO_SMILES>
CC(=O)OCC1=C(N2[C@@H]([C@@H](C2=O)NC(=O)CSC3=CC=NC=C3)SC1)C(=O)[O-].[Na+]

> <PUBCHEM_CACTVS_TPSA>
179

> <PUBCHEM_MONOISOTOPIC_WEIGHT>
445.037822

> <PUBCHEM_TOTAL_CHARGE>
0

> <PUBCHEM_HEAVY_ATOM_COUNT>
29

> <PUBCHEM_ATOM_DEF_STEREO_COUNT>
2

> <PUBCHEM_ATOM_UDEF_STEREO_COUNT>
0

> <PUBCHEM_BOND_DEF_STEREO_COUNT>
0

> <PUBCHEM_BOND_UDEF_STEREO_COUNT>
0

> <PUBCHEM_ISOTOPIC_ATOM_COUNT>
0

> <PUBCHEM_COMPONENT_COUNT>
2

> <PUBCHEM_CACTVS_TAUTO_COUNT>
4

> <PUBCHEM_NONSTANDARDBOND>
3  6  7

> <PUBCHEM_COORDINATE_TYPE>
1
5
255

> <PUBCHEM_BONDANNOTATIONS>
14  11  5
12  28  8
12  29  8
13  30  6
24  26  8
24  27  8
26  28  8
27  29  8

$$$$

