247929
  -OEChem-07051213053D

 51 54  0     1  0  0  0  0  0999 V2000
    5.5058   -0.1474   -0.5388 O   0  0  0  0  0  0  0  0  0  0  0  0
   -5.8758   -0.3894    1.2976 O   0  0  0  0  0  0  0  0  0  0  0  0
    2.2675   -0.2382   -0.0687 C   0  0  1  0  0  0  0  0  0  0  0  0
    1.3720    0.9271    0.4033 C   0  0  2  0  0  0  0  0  0  0  0  0
    0.0145    0.9612   -0.3063 C   0  0  1  0  0  0  0  0  0  0  0  0
   -0.7415   -0.3797   -0.0120 C   0  0  2  0  0  0  0  0  0  0  0  0
    3.5268    0.0558    0.7763 C   0  0  2  0  0  0  0  0  0  0  0  0
    1.5507   -1.5492    0.2793 C   0  0  0  0  0  0  0  0  0  0  0  0
    2.2913    2.1401    0.3070 C   0  0  0  0  0  0  0  0  0  0  0  0
    0.1447   -1.6136   -0.3453 C   0  0  0  0  0  0  0  0  0  0  0  0
   -2.1739   -0.4096   -0.6661 C   0  0  1  0  0  0  0  0  0  0  0  0
    3.6664    1.5919    0.7290 C   0  0  0  0  0  0  0  0  0  0  0  0
   -0.8210    2.1713    0.1378 C   0  0  0  0  0  0  0  0  0  0  0  0
    2.5949   -0.2068   -1.5847 C   0  0  0  0  0  0  0  0  0  0  0  0
   -2.2029    2.1694   -0.5078 C   0  0  0  0  0  0  0  0  0  0  0  0
   -2.9099    0.8647   -0.2374 C   0  0  0  0  0  0  0  0  0  0  0  0
    4.7644   -0.6445    0.3076 C   0  0  0  0  0  0  0  0  0  0  0  0
   -2.1172   -0.4661   -2.2092 C   0  0  0  0  0  0  0  0  0  0  0  0
   -2.9300   -1.6559   -0.2273 C   0  0  0  0  0  0  0  0  0  0  0  0
   -4.0940    0.8633    0.3953 C   0  0  0  0  0  0  0  0  0  0  0  0
   -4.1078   -1.6627    0.4045 C   0  0  0  0  0  0  0  0  0  0  0  0
    5.0581   -1.9851    0.9245 C   0  0  0  0  0  0  0  0  0  0  0  0
   -4.7830   -0.3965    0.7412 C   0  0  0  0  0  0  0  0  0  0  0  0
    1.1614    0.7905    1.4776 H   0  0  0  0  0  0  0  0  0  0  0  0
    0.1770    1.0600   -1.3849 H   0  0  0  0  0  0  0  0  0  0  0  0
   -0.8948   -0.4161    1.0797 H   0  0  0  0  0  0  0  0  0  0  0  0
    3.3566   -0.2258    1.8247 H   0  0  0  0  0  0  0  0  0  0  0  0
    1.4552   -1.6508    1.3681 H   0  0  0  0  0  0  0  0  0  0  0  0
    2.1302   -2.4131   -0.0642 H   0  0  0  0  0  0  0  0  0  0  0  0
    1.9703    2.9545    0.9643 H   0  0  0  0  0  0  0  0  0  0  0  0
    2.3309    2.5340   -0.7146 H   0  0  0  0  0  0  0  0  0  0  0  0
    0.2386   -1.7307   -1.4295 H   0  0  0  0  0  0  0  0  0  0  0  0
   -0.3316   -2.5288    0.0229 H   0  0  0  0  0  0  0  0  0  0  0  0
    4.4363    1.9511    0.0384 H   0  0  0  0  0  0  0  0  0  0  0  0
    3.9360    1.9685    1.7228 H   0  0  0  0  0  0  0  0  0  0  0  0
   -0.3088    3.1025   -0.1313 H   0  0  0  0  0  0  0  0  0  0  0  0
   -0.9264    2.1720    1.2307 H   0  0  0  0  0  0  0  0  0  0  0  0
    3.1956   -1.0783   -1.8699 H   0  0  0  0  0  0  0  0  0  0  0  0
    1.6999   -0.2304   -2.2117 H   0  0  0  0  0  0  0  0  0  0  0  0
    3.1588    0.6858   -1.8736 H   0  0  0  0  0  0  0  0  0  0  0  0
   -2.1150    2.3263   -1.5890 H   0  0  0  0  0  0  0  0  0  0  0  0
   -2.7741    3.0222   -0.1211 H   0  0  0  0  0  0  0  0  0  0  0  0
   -1.6961   -1.4121   -2.5685 H   0  0  0  0  0  0  0  0  0  0  0  0
   -3.1212   -0.3805   -2.6449 H   0  0  0  0  0  0  0  0  0  0  0  0
   -1.5136    0.3383   -2.6399 H   0  0  0  0  0  0  0  0  0  0  0  0
   -2.4978   -2.6227   -0.4749 H   0  0  0  0  0  0  0  0  0  0  0  0
   -4.5829    1.7844    0.6951 H   0  0  0  0  0  0  0  0  0  0  0  0
   -4.5993   -2.5909    0.6716 H   0  0  0  0  0  0  0  0  0  0  0  0
    5.0913   -1.8932    2.0130 H   0  0  0  0  0  0  0  0  0  0  0  0
    4.2997   -2.7114    0.6292 H   0  0  0  0  0  0  0  0  0  0  0  0
    6.0338   -2.3385    0.5786 H   0  0  0  0  0  0  0  0  0  0  0  0
  1 17  2  0  0  0  0
  2 23  2  0  0  0  0
  3  4  1  0  0  0  0
  3  7  1  0  0  0  0
  3  8  1  0  0  0  0
  3 14  1  0  0  0  0
  4  5  1  0  0  0  0
  4  9  1  0  0  0  0
  4 24  1  0  0  0  0
  5  6  1  0  0  0  0
  5 13  1  0  0  0  0
  5 25  1  0  0  0  0
  6 10  1  0  0  0  0
  6 11  1  0  0  0  0
  6 26  1  0  0  0  0
  7 12  1  0  0  0  0
  7 17  1  0  0  0  0
  7 27  1  0  0  0  0
  8 10  1  0  0  0  0
  8 28  1  0  0  0  0
  8 29  1  0  0  0  0
  9 12  1  0  0  0  0
  9 30  1  0  0  0  0
  9 31  1  0  0  0  0
 10 32  1  0  0  0  0
 10 33  1  0  0  0  0
 11 16  1  0  0  0  0
 11 18  1  0  0  0  0
 11 19  1  0  0  0  0
 12 34  1  0  0  0  0
 12 35  1  0  0  0  0
 13 15  1  0  0  0  0
 13 36  1  0  0  0  0
 13 37  1  0  0  0  0
 14 38  1  0  0  0  0
 14 39  1  0  0  0  0
 14 40  1  0  0  0  0
 15 16  1  0  0  0  0
 15 41  1  0  0  0  0
 15 42  1  0  0  0  0
 16 20  2  0  0  0  0
 17 22  1  0  0  0  0
 18 43  1  0  0  0  0
 18 44  1  0  0  0  0
 18 45  1  0  0  0  0
 19 21  2  0  0  0  0
 19 46  1  0  0  0  0
 20 23  1  0  0  0  0
 20 47  1  0  0  0  0
 21 23  1  0  0  0  0
 21 48  1  0  0  0  0
 22 49  1  0  0  0  0
 22 50  1  0  0  0  0
 22 51  1  0  0  0  0
M  END
> <PUBCHEM_COMPOUND_CID>
247929

> <PUBCHEM_CONFORMER_RMSD>
0.6

> <PUBCHEM_CONFORMER_DIVERSEORDER>
1
2

> <PUBCHEM_MMFF94_PARTIAL_CHARGES>
15
1 -0.57
11 0.28
15 0.14
16 -0.28
17 0.45
19 -0.29
2 -0.57
20 -0.14
21 -0.14
22 0.06
23 0.54
46 0.15
47 0.15
48 0.15
7 0.06

> <PUBCHEM_EFFECTIVE_ROTOR_COUNT>
2.4

> <PUBCHEM_PHARMACOPHORE_FEATURES>
6
1 1 acceptor
1 2 acceptor
5 3 4 7 9 12 rings
6 11 16 19 20 21 23 rings
6 3 4 5 6 8 10 rings
6 5 6 11 13 15 16 rings

> <PUBCHEM_HEAVY_ATOM_COUNT>
23

> <PUBCHEM_ATOM_DEF_STEREO_COUNT>
6

> <PUBCHEM_ATOM_UDEF_STEREO_COUNT>
0

> <PUBCHEM_BOND_DEF_STEREO_COUNT>
0

> <PUBCHEM_BOND_UDEF_STEREO_COUNT>
0

> <PUBCHEM_ISOTOPIC_ATOM_COUNT>
0

> <PUBCHEM_COMPONENT_COUNT>
1

> <PUBCHEM_CACTVS_TAUTO_COUNT>
9

> <PUBCHEM_CONFORMER_ID>
0003C87900000001

> <PUBCHEM_MMFF94_ENERGY>
70.784

> <PUBCHEM_FEATURE_SELFOVERLAP>
30.549

> <PUBCHEM_SHAPE_FINGERPRINT>
10014705 185 7565336552652758091
10062212 137 17968391069126546454
11578080 2 16771277061136822031
12011746 2 18411142442149738461
12236239 1 17704350000568042276
12403259 226 18412272730949285088
12403259 415 18408329878078374032
12403814 3 18186526488470778397
12553582 1 18338811064545859512
12633257 1 17168146706473676825
12788726 201 17676471844591726448
13140716 1 18263926548967207451
13224815 77 18410580556493768053
13583140 156 18340779233720786461
13675066 3 18113342994146193136
14223421 5 18339361980364920885
14341114 176 18411698790137123544
15196674 1 18409733928203293160
15209289 33 18344148098303397626
15788980 27 18272093802757946878
16945 1 18337113479065227933
17349148 13 17561081432060916434
17804303 29 18409449180593378188
1813 80 17418094282759437997
18186145 218 18342751688792961308
19141452 34 17894629223755310047
19591789 44 18410297977842499986
200 152 13183022908668324347
20028762 73 18114188488439754247
20261772 1 18260832578949215283
20739085 24 18339354176061723484
21267235 1 18411411817312195035
221490 88 18411703166967442912
22182313 1 17896312708789770012
22950370 63 18342454824642435048
23402539 116 18260277347484639278
23503953 91 16877948213245685196
23522609 53 18124563536078392804
23559900 14 18412554201472643112
2838139 119 13985767668337562411
296302 2 6916261844911663869
335352 9 18337677511055008909
350125 39 18410853274190735968
4340502 62 14923937938488966231
465052 167 18342168960262142386
5104073 3 18334298643134837152
7495541 125 18272087184725059728

> <PUBCHEM_SHAPE_MULTIPOLES>
461.59
10.9
2.2
1.19
1.09
0.5
-0.49
-3.23
3.37
0.26
0.24
-0.37
-0.19
0.07

> <PUBCHEM_SHAPE_SELFOVERLAP>
994.936

> <PUBCHEM_SHAPE_VOLUME>
252.8

> <PUBCHEM_COORDINATE_TYPE>
2
5
10

$$$$

