5281433
  -OEChem-07051212572D

 49 50  0     1  0  0  0  0  0999 V2000
    2.0949    1.6919    0.0000 O   0  0  0  0  0  0  0  0  0  0  0  0
    5.4300    1.5248    0.0000 O   0  0  0  0  0  0  0  0  0  0  0  0
    6.2960   -1.9752    0.0000 O   0  0  0  0  0  0  0  0  0  0  0  0
    2.0000    3.4657    0.0000 O   0  0  0  0  0  0  0  0  0  0  0  0
    5.4300    3.2569    0.0000 O   0  0  0  0  0  0  0  0  0  0  0  0
    5.4300   -3.4752    0.0000 O   0  0  0  0  0  0  0  0  0  0  0  0
    3.6979    1.5248    0.0000 C   0  0  2  0  0  0  0  0  0  0  0  0
    2.8319    1.0248    0.0000 C   0  0  2  0  0  0  0  0  0  0  0  0
    4.5640    1.0248    0.0000 C   0  0  1  0  0  0  0  0  0  0  0  0
    2.8319    0.0248    0.0000 C   0  0  0  0  0  0  0  0  0  0  0  0
    3.4887    2.4967    0.0000 C   0  0  0  0  0  0  0  0  0  0  0  0
    4.5640    0.0248    0.0000 C   0  0  0  0  0  0  0  0  0  0  0  0
    3.6979   -0.4752    0.0000 C   0  0  0  0  0  0  0  0  0  0  0  0
    2.5000    2.5997    0.0000 C   0  0  0  0  0  0  0  0  0  0  0  0
    5.4300   -1.4752    0.0000 C   0  0  1  0  0  0  0  0  0  0  0  0
    5.4300   -0.4752    0.0000 C   0  0  0  0  0  0  0  0  0  0  0  0
    4.5640   -1.9752    0.0000 C   0  0  0  0  0  0  0  0  0  0  0  0
    3.6979   -1.4752    0.0000 C   0  0  0  0  0  0  0  0  0  0  0  0
    3.6949    3.4752    0.0000 C   0  0  0  0  0  0  0  0  0  0  0  0
    5.1544    0.0550    0.0000 C   0  0  0  0  0  0  0  0  0  0  0  0
    6.2960    0.0248    0.0000 C   0  0  0  0  0  0  0  0  0  0  0  0
    5.9300    2.3909    0.0000 C   0  0  0  0  0  0  0  0  0  0  0  0
    6.2960   -2.9752    0.0000 C   0  0  0  0  0  0  0  0  0  0  0  0
    6.9300    2.3909    0.0000 C   0  0  0  0  0  0  0  0  0  0  0  0
    7.1620   -3.4752    0.0000 C   0  0  0  0  0  0  0  0  0  0  0  0
    4.3849    2.0254    0.0000 H   0  0  0  0  0  0  0  0  0  0  0  0
    2.0549    0.6801    0.0000 H   0  0  0  0  0  0  0  0  0  0  0  0
    5.1009    0.7148    0.0000 H   0  0  0  0  0  0  0  0  0  0  0  0
    2.2213    0.1325    0.0000 H   0  0  0  0  0  0  0  0  0  0  0  0
    2.6198   -0.5578    0.0000 H   0  0  0  0  0  0  0  0  0  0  0  0
    3.9534    0.1327    0.0000 H   0  0  0  0  0  0  0  0  0  0  0  0
    5.4300   -2.0952    0.0000 H   0  0  0  0  0  0  0  0  0  0  0  0
    4.1654   -2.4501    0.0000 H   0  0  0  0  0  0  0  0  0  0  0  0
    4.9625   -2.4501    0.0000 H   0  0  0  0  0  0  0  0  0  0  0  0
    3.1610   -1.7852    0.0000 H   0  0  0  0  0  0  0  0  0  0  0  0
    4.2843    3.6678    0.0000 H   0  0  0  0  0  0  0  0  0  0  0  0
    3.2335    3.8892    0.0000 H   0  0  0  0  0  0  0  0  0  0  0  0
    5.3665   -0.5276    0.0000 H   0  0  0  0  0  0  0  0  0  0  0  0
    5.7371    0.2670    0.0000 H   0  0  0  0  0  0  0  0  0  0  0  0
    4.9424    0.6376    0.0000 H   0  0  0  0  0  0  0  0  0  0  0  0
    6.6060   -0.5121    0.0000 H   0  0  0  0  0  0  0  0  0  0  0  0
    6.8329    0.3348    0.0000 H   0  0  0  0  0  0  0  0  0  0  0  0
    5.9860    0.5618    0.0000 H   0  0  0  0  0  0  0  0  0  0  0  0
    6.9300    1.7709    0.0000 H   0  0  0  0  0  0  0  0  0  0  0  0
    7.5500    2.3909    0.0000 H   0  0  0  0  0  0  0  0  0  0  0  0
    6.9300    3.0109    0.0000 H   0  0  0  0  0  0  0  0  0  0  0  0
    6.8520   -4.0121    0.0000 H   0  0  0  0  0  0  0  0  0  0  0  0
    7.6990   -3.7852    0.0000 H   0  0  0  0  0  0  0  0  0  0  0  0
    7.4720   -2.9382    0.0000 H   0  0  0  0  0  0  0  0  0  0  0  0
  1  8  1  0  0  0  0
  1 14  1  0  0  0  0
  9  2  1  6  0  0  0
  2 22  1  0  0  0  0
 15  3  1  6  0  0  0
  3 23  1  0  0  0  0
  4 14  2  0  0  0  0
  5 22  2  0  0  0  0
  6 23  2  0  0  0  0
  7  8  1  0  0  0  0
  7  9  1  0  0  0  0
  7 11  1  0  0  0  0
  7 26  1  6  0  0  0
  8 10  1  0  0  0  0
  8 27  1  1  0  0  0
  9 12  1  0  0  0  0
  9 28  1  0  0  0  0
 10 13  1  0  0  0  0
 10 29  1  0  0  0  0
 10 30  1  0  0  0  0
 11 14  1  0  0  0  0
 11 19  2  0  0  0  0
 12 16  2  0  0  0  0
 12 31  1  0  0  0  0
 13 18  2  0  0  0  0
 13 20  1  0  0  0  0
 15 16  1  0  0  0  0
 15 17  1  0  0  0  0
 15 32  1  0  0  0  0
 16 21  1  0  0  0  0
 17 18  1  0  0  0  0
 17 33  1  0  0  0  0
 17 34  1  0  0  0  0
 18 35  1  0  0  0  0
 19 36  1  0  0  0  0
 19 37  1  0  0  0  0
 20 38  1  0  0  0  0
 20 39  1  0  0  0  0
 20 40  1  0  0  0  0
 21 41  1  0  0  0  0
 21 42  1  0  0  0  0
 21 43  1  0  0  0  0
 22 24  1  0  0  0  0
 23 25  1  0  0  0  0
 24 44  1  0  0  0  0
 24 45  1  0  0  0  0
 24 46  1  0  0  0  0
 25 47  1  0  0  0  0
 25 48  1  0  0  0  0
 25 49  1  0  0  0  0
M  END
> <PUBCHEM_COMPOUND_CID>
5281433

> <PUBCHEM_COMPOUND_CANONICALIZED>
1

> <PUBCHEM_CACTVS_COMPLEXITY>
657

> <PUBCHEM_CACTVS_HBOND_ACCEPTOR>
6

> <PUBCHEM_CACTVS_HBOND_DONOR>
0

> <PUBCHEM_CACTVS_ROTATABLE_BOND>
4

> <PUBCHEM_CACTVS_SUBSKEYS>
AAADceB4OAAAAAAAAAAAAAAAAAAAASAAAAAAAAAAAAAAAACAAAAAGgAAAAAADRSggAICCAAABACIAiDSCAAAAAAgAAAACAEAAEgABBIAIQACEAAFwAAIIIPKyCCOAAAAAAAAAAAAAAAAAAAAAAAAAAAAAA==

> <PUBCHEM_IUPAC_OPENEYE_NAME>
[(3aR,4R,5E,7R,9E,11aS)-4-acetoxy-6,10-dimethyl-3-methylene-2-oxo-3a,4,7,8,11,11a-hexahydrocyclodeca[b]furan-7-yl] acetate

> <PUBCHEM_IUPAC_CAS_NAME>
acetic acid [(3aR,4R,5E,7R,9E,11aS)-4-acetyloxy-6,10-dimethyl-3-methylene-2-oxo-3a,4,7,8,11,11a-hexahydrocyclodeca[b]furan-7-yl] ester

> <PUBCHEM_IUPAC_NAME>
[(3aR,4R,5E,7R,9E,11aS)-4-acetyloxy-6,10-dimethyl-3-methylidene-2-oxo-3a,4,7,8,11,11a-hexahydrocyclodeca[b]furan-7-yl] acetate

> <PUBCHEM_IUPAC_SYSTEMATIC_NAME>
[(3aR,4R,5E,7R,9E,11aS)-4-acetyloxy-6,10-dimethyl-3-methylidene-2-oxidanylidene-3a,4,7,8,11,11a-hexahydrocyclodeca[b]furan-7-yl] ethanoate

> <PUBCHEM_IUPAC_TRADITIONAL_NAME>
acetic acid [(3aR,4R,5E,7R,9E,11aS)-4-acetoxy-2-keto-6,10-dimethyl-3-methylene-3a,4,7,8,11,11a-hexahydrocyclodeca[b]furan-7-yl] ester

> <PUBCHEM_IUPAC_INCHI>
InChI=1S/C19H24O6/c1-10-6-7-15(23-13(4)20)11(2)9-17(24-14(5)21)18-12(3)19(22)25-16(18)8-10/h6,9,15-18H,3,7-8H2,1-2,4-5H3/b10-6+,11-9+/t15-,16+,17-,18-/m1/s1

> <PUBCHEM_IUPAC_INCHIKEY>
DEBBYPCBXVYUCZ-WZLFHOKTSA-N

> <PUBCHEM_XLOGP3_AA>
1.9

> <PUBCHEM_EXACT_MASS>
348.157288

> <PUBCHEM_MOLECULAR_FORMULA>
C19H24O6

> <PUBCHEM_MOLECULAR_WEIGHT>
348.39026

> <PUBCHEM_OPENEYE_CAN_SMILES>
CC1=CCC(C(=CC(C2C(C1)OC(=O)C2=C)OC(=O)C)C)OC(=O)C

> <PUBCHEM_OPENEYE_ISO_SMILES>
C/C/1=C\C[C@H](/C(=C/[C@H]([C@H]2[C@H](C1)OC(=O)C2=C)OC(=O)C)/C)OC(=O)C

> <PUBCHEM_CACTVS_TPSA>
78.9

> <PUBCHEM_MONOISOTOPIC_WEIGHT>
348.157288

> <PUBCHEM_TOTAL_CHARGE>
0

> <PUBCHEM_HEAVY_ATOM_COUNT>
25

> <PUBCHEM_ATOM_DEF_STEREO_COUNT>
4

> <PUBCHEM_ATOM_UDEF_STEREO_COUNT>
0

> <PUBCHEM_BOND_DEF_STEREO_COUNT>
2

> <PUBCHEM_BOND_UDEF_STEREO_COUNT>
0

> <PUBCHEM_ISOTOPIC_ATOM_COUNT>
0

> <PUBCHEM_COMPONENT_COUNT>
1

> <PUBCHEM_CACTVS_TAUTO_COUNT>
1

> <PUBCHEM_COORDINATE_TYPE>
1
5
255

> <PUBCHEM_BONDANNOTATIONS>
9  2  6
15  3  6
7  26  6
8  27  5

$$$$

