443464
  -OEChem-07051213023D

 46 50  0     1  0  0  0  0  0999 V2000
   -1.3698    1.4379   -0.8506 O   0  0  0  0  0  0  0  0  0  0  0  0
    4.2067    0.6159   -1.4954 O   0  0  0  0  0  0  0  0  0  0  0  0
    0.2439   -3.3320   -0.9324 O   0  0  0  0  0  0  0  0  0  0  0  0
   -3.0820    0.8243   -2.2669 O   0  0  0  0  0  0  0  0  0  0  0  0
   -0.4715   -3.0312    1.2108 O   0  0  0  0  0  0  0  0  0  0  0  0
    1.0234   -0.3285    0.0108 C   0  0  1  0  0  0  0  0  0  0  0  0
    0.5585    1.0323    0.6482 C   0  0  2  0  0  0  0  0  0  0  0  0
   -0.9632    1.0424    0.4811 C   0  0  2  0  0  0  0  0  0  0  0  0
   -1.3670   -0.4230    0.5333 C   0  0  2  0  0  0  0  0  0  0  0  0
   -0.2662   -1.1355   -0.2746 C   0  0  2  0  0  0  0  0  0  0  0  0
    1.8801   -0.0737   -1.2407 C   0  0  0  0  0  0  0  0  0  0  0  0
    3.0975    0.6194   -0.6157 C   0  0  2  0  0  0  0  0  0  0  0  0
   -2.7550   -0.3041   -0.1077 C   0  0  2  0  0  0  0  0  0  0  0  0
    2.0713   -1.0066    0.9291 C   0  0  0  0  0  0  0  0  0  0  0  0
    1.2563    2.2715    0.0669 C   0  0  0  0  0  0  0  0  0  0  0  0
    2.7513    2.0625   -0.2071 C   0  0  0  0  0  0  0  0  0  0  0  0
   -1.7426    1.8829    1.5131 C   0  0  0  0  0  0  0  0  0  0  0  0
    3.3304   -0.2406    0.6130 C   0  0  0  0  0  0  0  0  0  0  0  0
   -2.4593    0.6802   -1.2277 C   0  0  0  0  0  0  0  0  0  0  0  0
   -0.1885   -2.5817    0.1104 C   0  0  0  0  0  0  0  0  0  0  0  0
   -3.6789    0.4719    0.8161 C   0  0  0  0  0  0  0  0  0  0  0  0
   -3.2004    1.4791    1.5698 C   0  0  0  0  0  0  0  0  0  0  0  0
   -3.3452   -1.6175   -0.5898 C   0  0  0  0  0  0  0  0  0  0  0  0
    4.4703   -0.3461    1.3059 C   0  0  0  0  0  0  0  0  0  0  0  0
    0.7780    1.0002    1.7245 H   0  0  0  0  0  0  0  0  0  0  0  0
   -1.4115   -0.7958    1.5653 H   0  0  0  0  0  0  0  0  0  0  0  0
   -0.5044   -1.0877   -1.3453 H   0  0  0  0  0  0  0  0  0  0  0  0
    1.3822    0.5436   -1.9970 H   0  0  0  0  0  0  0  0  0  0  0  0
    2.1644   -1.0101   -1.7399 H   0  0  0  0  0  0  0  0  0  0  0  0
    2.2361   -2.0547    0.6553 H   0  0  0  0  0  0  0  0  0  0  0  0
    1.8014   -0.9553    1.9886 H   0  0  0  0  0  0  0  0  0  0  0  0
    1.1161    3.1302    0.7343 H   0  0  0  0  0  0  0  0  0  0  0  0
    0.7878    2.5594   -0.8821 H   0  0  0  0  0  0  0  0  0  0  0  0
    3.0627    2.7666   -0.9897 H   0  0  0  0  0  0  0  0  0  0  0  0
    3.3263    2.3540    0.6817 H   0  0  0  0  0  0  0  0  0  0  0  0
   -1.6835    2.9459    1.2530 H   0  0  0  0  0  0  0  0  0  0  0  0
   -1.3177    1.7520    2.5148 H   0  0  0  0  0  0  0  0  0  0  0  0
   -4.7344    0.2213    0.8556 H   0  0  0  0  0  0  0  0  0  0  0  0
   -3.8645    2.0316    2.2263 H   0  0  0  0  0  0  0  0  0  0  0  0
   -2.7401   -2.0689   -1.3830 H   0  0  0  0  0  0  0  0  0  0  0  0
   -3.4281   -2.3382    0.2308 H   0  0  0  0  0  0  0  0  0  0  0  0
   -4.3480   -1.4716   -1.0084 H   0  0  0  0  0  0  0  0  0  0  0  0
    3.9311    1.0444   -2.3237 H   0  0  0  0  0  0  0  0  0  0  0  0
    5.3512    0.2222    1.0282 H   0  0  0  0  0  0  0  0  0  0  0  0
    4.5413   -1.0018    2.1670 H   0  0  0  0  0  0  0  0  0  0  0  0
    0.3038   -4.2828   -0.6992 H   0  0  0  0  0  0  0  0  0  0  0  0
  1  8  1  0  0  0  0
  1 19  1  0  0  0  0
  2 12  1  0  0  0  0
  2 43  1  0  0  0  0
  3 20  1  0  0  0  0
  3 46  1  0  0  0  0
  4 19  2  0  0  0  0
  5 20  2  0  0  0  0
  6  7  1  0  0  0  0
  6 10  1  0  0  0  0
  6 11  1  0  0  0  0
  6 14  1  0  0  0  0
  7  8  1  0  0  0  0
  7 15  1  0  0  0  0
  7 25  1  0  0  0  0
  8  9  1  0  0  0  0
  8 17  1  0  0  0  0
  9 10  1  0  0  0  0
  9 13  1  0  0  0  0
  9 26  1  0  0  0  0
 10 20  1  0  0  0  0
 10 27  1  0  0  0  0
 11 12  1  0  0  0  0
 11 28  1  0  0  0  0
 11 29  1  0  0  0  0
 12 16  1  0  0  0  0
 12 18  1  0  0  0  0
 13 19  1  0  0  0  0
 13 21  1  0  0  0  0
 13 23  1  0  0  0  0
 14 18  1  0  0  0  0
 14 30  1  0  0  0  0
 14 31  1  0  0  0  0
 15 16  1  0  0  0  0
 15 32  1  0  0  0  0
 15 33  1  0  0  0  0
 16 34  1  0  0  0  0
 16 35  1  0  0  0  0
 17 22  1  0  0  0  0
 17 36  1  0  0  0  0
 17 37  1  0  0  0  0
 18 24  2  0  0  0  0
 21 22  2  0  0  0  0
 21 38  1  0  0  0  0
 22 39  1  0  0  0  0
 23 40  1  0  0  0  0
 23 41  1  0  0  0  0
 23 42  1  0  0  0  0
 24 44  1  0  0  0  0
 24 45  1  0  0  0  0
M  END
> <PUBCHEM_COMPOUND_CID>
443464

> <PUBCHEM_CONFORMER_RMSD>
0.6

> <PUBCHEM_CONFORMER_DIVERSEORDER>
1
2

> <PUBCHEM_MMFF94_PARTIAL_CHARGES>
23
1 -0.43
10 0.06
12 0.42
13 0.2
14 0.14
17 0.14
18 -0.28
19 0.66
2 -0.68
20 0.66
21 -0.29
22 -0.29
24 -0.3
3 -0.65
38 0.15
39 0.15
4 -0.57
43 0.4
44 0.15
45 0.15
46 0.5
5 -0.57
8 0.28

> <PUBCHEM_EFFECTIVE_ROTOR_COUNT>
2.4

> <PUBCHEM_PHARMACOPHORE_FEATURES>
9
1 2 acceptor
1 2 donor
1 3 acceptor
1 4 acceptor
1 5 acceptor
3 3 5 20 anion
5 6 7 8 9 10 rings
8 1 8 9 13 17 19 21 22 rings
8 6 7 11 12 14 15 16 18 rings

> <PUBCHEM_HEAVY_ATOM_COUNT>
24

> <PUBCHEM_ATOM_DEF_STEREO_COUNT>
6

> <PUBCHEM_ATOM_UDEF_STEREO_COUNT>
1

> <PUBCHEM_BOND_DEF_STEREO_COUNT>
0

> <PUBCHEM_BOND_UDEF_STEREO_COUNT>
0

> <PUBCHEM_ISOTOPIC_ATOM_COUNT>
0

> <PUBCHEM_COMPONENT_COUNT>
1

> <PUBCHEM_CACTVS_TAUTO_COUNT>
1

> <PUBCHEM_CONFORMER_ID>
0006C44800000001

> <PUBCHEM_MMFF94_ENERGY>
90.9891

> <PUBCHEM_FEATURE_SELFOVERLAP>
45.894

> <PUBCHEM_SHAPE_FINGERPRINT>
10863032 1 18129379293959543354
10967382 1 18336538429856384003
11132069 177 18335137626267544913
11578080 2 17842593719274532868
121448 382 18263662730558963039
12173636 292 18334285449143450777
12403814 3 17989766687894056397
12553582 1 18410005563800604536
12592029 89 17916875728166181715
12788726 201 18042959870629070779
13140716 1 18408602526849500769
13172582 1 18411135870148331008
13224815 77 18342735208639521121
13538477 17 18271244903068082442
13583140 156 17275387573342146640
14178342 30 18189053255842421665
14289901 80 15936700302172904160
15209289 33 18261945306159647705
15309172 13 18413103974434368601
16752209 62 18334572400066131874
16945 1 18335702805646693637
17349148 13 18334585641835128498
17357779 13 17616540553806205767
17492 54 18129662976586575551
17980427 23 17894923905872987616
1813 80 17488463165151716586
18186145 218 18409166601836556780
18219364 16 18201159948527531973
192875 21 18262533553602739904
200 152 18261407628237005285
20028762 73 17896879842601552687
20510252 161 18041832909612085697
20600515 1 18260270742062614000
20691752 17 18198042858669073622
21524375 3 18341613706837653618
2334 1 18264770961149613609
23402539 116 18114185254713585548
23419403 2 16172075857043962708
23557571 272 16443358562944688161
23559900 14 18261384530604474956
238 59 18054541155384759661
2748010 2 17831579777943305504
34934 24 17749955599794793617
352729 6 18336256830399883906
4340502 62 18198605792323341025
469060 322 16983198787541640193
474 4 18337100276150929385
633830 44 18113893879473514324
7364860 26 17827069924575007378
74978 22 18339074874775957280
81228 2 17765997199117654563
9709674 26 18042675101444170492

> <PUBCHEM_SHAPE_MULTIPOLES>
464.56
6.56
2.69
1.51
2.64
1.72
0.27
-1.37
0
-0.44
-0.31
-0.39
-0.26
-0.75

> <PUBCHEM_SHAPE_SELFOVERLAP>
1051.468

> <PUBCHEM_SHAPE_VOLUME>
245.3

> <PUBCHEM_COORDINATE_TYPE>
2
5
10

$$$$

