4037
  -OEChem-07051212523D

 30 31  0     0  0  0  0  0  0999 V2000
    1.3615   -0.4334   -2.4629 Cl  0  0  0  0  0  0  0  0  0  0  0  0
    0.9436    1.1817    2.7219 Cl  0  0  0  0  0  0  0  0  0  0  0  0
   -3.8813    1.5631   -1.3395 O   0  0  0  0  0  0  0  0  0  0  0  0
   -2.0978    2.4822   -0.2914 O   0  0  0  0  0  0  0  0  0  0  0  0
   -0.1023    0.5398   -0.0358 N   0  0  0  0  0  0  0  0  0  0  0  0
    1.2812    0.3546    0.1396 C   0  0  0  0  0  0  0  0  0  0  0  0
   -1.2109   -0.3184    0.1391 C   0  0  0  0  0  0  0  0  0  0  0  0
    3.4491   -0.2795   -0.7416 C   0  0  0  0  0  0  0  0  0  0  0  0
    2.0775   -0.0974   -0.9194 C   0  0  0  0  0  0  0  0  0  0  0  0
   -2.5087    0.1282   -0.1102 C   0  0  0  0  0  0  0  0  0  0  0  0
    1.8756    0.6217    1.3784 C   0  0  0  0  0  0  0  0  0  0  0  0
    4.0337   -0.0113    0.4960 C   0  0  0  0  0  0  0  0  0  0  0  0
   -0.9943   -1.6284    0.5669 C   0  0  0  0  0  0  0  0  0  0  0  0
    3.2471    0.4393    1.5560 C   0  0  0  0  0  0  0  0  0  0  0  0
   -3.5896   -0.7353    0.0681 C   0  0  0  0  0  0  0  0  0  0  0  0
    4.3324   -0.7606   -1.8478 C   0  0  0  0  0  0  0  0  0  0  0  0
   -2.0752   -2.4917    0.7451 C   0  0  0  0  0  0  0  0  0  0  0  0
   -3.3728   -2.0452    0.4958 C   0  0  0  0  0  0  0  0  0  0  0  0
   -2.7688    1.4905   -0.5581 C   0  0  0  0  0  0  0  0  0  0  0  0
   -0.3238    1.4643   -0.3906 H   0  0  0  0  0  0  0  0  0  0  0  0
    5.1004   -0.1475    0.6536 H   0  0  0  0  0  0  0  0  0  0  0  0
    0.0049   -2.0044    0.7691 H   0  0  0  0  0  0  0  0  0  0  0  0
    3.7184    0.6437    2.5140 H   0  0  0  0  0  0  0  0  0  0  0  0
   -4.6141   -0.4155   -0.1033 H   0  0  0  0  0  0  0  0  0  0  0  0
    4.3100   -0.0620   -2.6907 H   0  0  0  0  0  0  0  0  0  0  0  0
    5.3772   -0.8448   -1.5286 H   0  0  0  0  0  0  0  0  0  0  0  0
    4.0197   -1.7540   -2.1864 H   0  0  0  0  0  0  0  0  0  0  0  0
   -1.9068   -3.5114    1.0788 H   0  0  0  0  0  0  0  0  0  0  0  0
   -4.2145   -2.7168    0.6380 H   0  0  0  0  0  0  0  0  0  0  0  0
   -4.0563    2.4802   -1.6408 H   0  0  0  0  0  0  0  0  0  0  0  0
  1  9  1  0  0  0  0
  2 11  1  0  0  0  0
  3 19  1  0  0  0  0
  3 30  1  0  0  0  0
  4 19  2  0  0  0  0
  5  6  1  0  0  0  0
  5  7  1  0  0  0  0
  5 20  1  0  0  0  0
  6  9  1  0  0  0  0
  6 11  2  0  0  0  0
  7 10  1  0  0  0  0
  7 13  2  0  0  0  0
  8  9  2  0  0  0  0
  8 12  1  0  0  0  0
  8 16  1  0  0  0  0
 10 15  2  0  0  0  0
 10 19  1  0  0  0  0
 11 14  1  0  0  0  0
 12 14  2  0  0  0  0
 12 21  1  0  0  0  0
 13 17  1  0  0  0  0
 13 22  1  0  0  0  0
 14 23  1  0  0  0  0
 15 18  1  0  0  0  0
 15 24  1  0  0  0  0
 16 25  1  0  0  0  0
 16 26  1  0  0  0  0
 16 27  1  0  0  0  0
 17 18  2  0  0  0  0
 17 28  1  0  0  0  0
 18 29  1  0  0  0  0
M  END
> <PUBCHEM_COMPOUND_CID>
4037

> <PUBCHEM_CONFORMER_RMSD>
0.6

> <PUBCHEM_CONFORMER_DIVERSEORDER>
1
8
18
17
16
15
6
13
14
3
7
20
19
11
5
9
4
10
12
2

> <PUBCHEM_MMFF94_PARTIAL_CHARGES>
27
1 -0.18
10 0.09
11 0.18
12 -0.15
13 -0.15
14 -0.15
15 -0.15
16 0.14
17 -0.15
18 -0.15
19 0.63
2 -0.18
20 0.4
21 0.15
22 0.15
23 0.15
24 0.15
28 0.15
29 0.15
3 -0.65
30 0.5
4 -0.57
5 -0.6
6 0.1
7 0.1
8 -0.14
9 0.18

> <PUBCHEM_EFFECTIVE_ROTOR_COUNT>
3

> <PUBCHEM_PHARMACOPHORE_FEATURES>
7
1 3 acceptor
1 4 acceptor
1 5 cation
1 5 donor
3 3 4 19 anion
6 6 8 9 11 12 14 rings
6 7 10 13 15 17 18 rings

> <PUBCHEM_HEAVY_ATOM_COUNT>
19

> <PUBCHEM_ATOM_DEF_STEREO_COUNT>
0

> <PUBCHEM_ATOM_UDEF_STEREO_COUNT>
0

> <PUBCHEM_BOND_DEF_STEREO_COUNT>
0

> <PUBCHEM_BOND_UDEF_STEREO_COUNT>
0

> <PUBCHEM_ISOTOPIC_ATOM_COUNT>
0

> <PUBCHEM_COMPONENT_COUNT>
1

> <PUBCHEM_CACTVS_TAUTO_COUNT>
2

> <PUBCHEM_CONFORMER_ID>
00000FC500000001

> <PUBCHEM_MMFF94_ENERGY>
75.9659

> <PUBCHEM_FEATURE_SELFOVERLAP>
35.58

> <PUBCHEM_SHAPE_FINGERPRINT>
11543360 7 18200576022359726910
11582403 64 16601048377385891593
11640471 11 17203608224312470477
11725454 13 17609824989812059561
11796584 16 18339921645143841982
12236239 1 17060344019528826032
12500047 106 18342184396363937510
12596599 1 16415760825504167826
12714826 92 18337096891574496146
12788726 201 17632005348217498587
13009979 54 17489321801299975824
13134695 92 17167581592373709840
13296908 3 17967527961178301866
13538477 17 17846787303539800145
13583140 156 18188225242357055498
14294032 229 17987806349536989293
15653759 3 18333729091790352842
16752209 62 18059871527885488539
16945 1 18342739602528221595
17357779 13 17313095402195096128
18186145 218 18260264182945588392
18219364 16 17312827039289128094
19049666 15 18187363284969345378
19422 9 17060344023897757114
200 152 15791735221588976957
20600515 1 18270131097694537641
20645476 183 17060335219589372395
20645477 70 17240483624126327886
21618674 53 17203598311417142448
21639500 275 16443638886928140392
22112679 90 17346326989681784436
23175994 123 17676194784561203512
23402539 116 18339373993678656903
23526113 38 17894920671408419264
23557571 272 18339644430125498280
23559900 14 18410009983732993310
23598291 2 16773805826121515310
3286 77 17386276585326174643
474 4 14636019759531830706
6049 1 18260265205158503824
6992083 37 17346606312753162461
7615 1 17060349491343567404
77492 1 17060344019576305352
81228 2 18341331081447407219

> <PUBCHEM_SHAPE_MULTIPOLES>
378.03
7.62
2.11
1.94
1.27
0.7
0.02
-1.95
-0.02
2.46
-0.14
-3.15
-0.2
0.94

> <PUBCHEM_SHAPE_SELFOVERLAP>
797.174

> <PUBCHEM_SHAPE_VOLUME>
213.7

> <PUBCHEM_COORDINATE_TYPE>
2
5
10

$$$$

