443853
  -OEChem-07051213033D

 28 28  0     0  0  0  0  0  0999 V2000
   -0.9066   -2.2739   -0.1441 O   0  0  0  0  0  0  0  0  0  0  0  0
    3.6678    2.1559   -0.1411 O   0  0  0  0  0  0  0  0  0  0  0  0
   -1.0904    0.4008   -1.1279 C   0  0  0  0  0  0  0  0  0  0  0  0
    0.1661   -0.1628   -0.5126 C   0  0  0  0  0  0  0  0  0  0  0  0
   -1.9860    1.0469   -0.1087 C   0  0  0  0  0  0  0  0  0  0  0  0
    0.1908   -1.4715   -0.0538 C   0  0  0  0  0  0  0  0  0  0  0  0
    1.2860    0.6508   -0.4187 C   0  0  0  0  0  0  0  0  0  0  0  0
   -3.2487    0.7091    0.2160 C   0  0  0  0  0  0  0  0  0  0  0  0
    2.4561    0.1441    0.1469 C   0  0  0  0  0  0  0  0  0  0  0  0
    1.3609   -1.9781    0.5116 C   0  0  0  0  0  0  0  0  0  0  0  0
    2.4937   -1.1702    0.6121 C   0  0  0  0  0  0  0  0  0  0  0  0
   -4.0932    1.3994    1.2492 C   0  0  0  0  0  0  0  0  0  0  0  0
   -3.9336   -0.4368   -0.4806 C   0  0  0  0  0  0  0  0  0  0  0  0
    3.6371    0.9863    0.2518 C   0  0  0  0  0  0  0  0  0  0  0  0
   -0.8112    1.1764   -1.8549 H   0  0  0  0  0  0  0  0  0  0  0  0
   -1.5762   -0.3602   -1.7429 H   0  0  0  0  0  0  0  0  0  0  0  0
   -1.5473    1.8945    0.4175 H   0  0  0  0  0  0  0  0  0  0  0  0
    1.2463    1.6745   -0.7824 H   0  0  0  0  0  0  0  0  0  0  0  0
    1.4042   -3.0002    0.8781 H   0  0  0  0  0  0  0  0  0  0  0  0
    3.3980   -1.5793    1.0553 H   0  0  0  0  0  0  0  0  0  0  0  0
   -3.5598    2.2370    1.7105 H   0  0  0  0  0  0  0  0  0  0  0  0
   -5.0066    1.7946    0.7933 H   0  0  0  0  0  0  0  0  0  0  0  0
   -4.3713    0.7011    2.0451 H   0  0  0  0  0  0  0  0  0  0  0  0
   -3.2796   -1.1053   -1.0396 H   0  0  0  0  0  0  0  0  0  0  0  0
   -4.4400   -1.0674    0.2596 H   0  0  0  0  0  0  0  0  0  0  0  0
   -4.6938   -0.0517   -1.1685 H   0  0  0  0  0  0  0  0  0  0  0  0
    4.5318    0.5299    0.7083 H   0  0  0  0  0  0  0  0  0  0  0  0
   -0.6938   -3.1464    0.2293 H   0  0  0  0  0  0  0  0  0  0  0  0
  1  6  1  0  0  0  0
  1 28  1  0  0  0  0
  2 14  2  0  0  0  0
  3  4  1  0  0  0  0
  3  5  1  0  0  0  0
  3 15  1  0  0  0  0
  3 16  1  0  0  0  0
  4  6  2  0  0  0  0
  4  7  1  0  0  0  0
  5  8  2  0  0  0  0
  5 17  1  0  0  0  0
  6 10  1  0  0  0  0
  7  9  2  0  0  0  0
  7 18  1  0  0  0  0
  8 12  1  0  0  0  0
  8 13  1  0  0  0  0
  9 11  1  0  0  0  0
  9 14  1  0  0  0  0
 10 11  2  0  0  0  0
 10 19  1  0  0  0  0
 11 20  1  0  0  0  0
 12 21  1  0  0  0  0
 12 22  1  0  0  0  0
 12 23  1  0  0  0  0
 13 24  1  0  0  0  0
 13 25  1  0  0  0  0
 13 26  1  0  0  0  0
 14 27  1  0  0  0  0
M  END
> <PUBCHEM_COMPOUND_CID>
443853

> <PUBCHEM_CONFORMER_RMSD>
0.6

> <PUBCHEM_CONFORMER_DIVERSEORDER>
1
19
23
16
9
12
25
4
7
27
20
14
24
22
10
17
13
21
26
18
2
11
8
3
5
6
15

> <PUBCHEM_MMFF94_PARTIAL_CHARGES>
20
1 -0.53
10 -0.15
11 -0.15
12 0.14
13 0.14
14 0.42
17 0.15
18 0.15
19 0.15
2 -0.57
20 0.15
27 0.06
28 0.45
3 0.28
4 -0.14
5 -0.29
6 0.08
7 -0.15
8 -0.28
9 0.09

> <PUBCHEM_EFFECTIVE_ROTOR_COUNT>
3

> <PUBCHEM_PHARMACOPHORE_FEATURES>
4
1 1 donor
1 2 acceptor
3 8 12 13 hydrophobe
6 4 6 7 9 10 11 rings

> <PUBCHEM_HEAVY_ATOM_COUNT>
14

> <PUBCHEM_ATOM_DEF_STEREO_COUNT>
0

> <PUBCHEM_ATOM_UDEF_STEREO_COUNT>
0

> <PUBCHEM_BOND_DEF_STEREO_COUNT>
0

> <PUBCHEM_BOND_UDEF_STEREO_COUNT>
0

> <PUBCHEM_ISOTOPIC_ATOM_COUNT>
0

> <PUBCHEM_COMPONENT_COUNT>
1

> <PUBCHEM_CACTVS_TAUTO_COUNT>
5

> <PUBCHEM_CONFORMER_ID>
0006C5CD00000001

> <PUBCHEM_MMFF94_ENERGY>
28.8186

> <PUBCHEM_FEATURE_SELFOVERLAP>
20.297

> <PUBCHEM_SHAPE_FINGERPRINT>
10219947 1 18130788988051648397
10465860 228 18189610721159522361
10498660 4 14924786886462915921
10610426 29 12607405459844533645
10980938 120 18341898510603415944
11132069 177 18060421287503473533
11471102 22 18129376175660299163
12251169 10 18267303321259506019
12346645 44 18408040706256095973
12390115 104 18123454000413322052
12644460 14 18131355249962867010
13380535 21 18341048541134437438
13380535 76 18341055129424482250
14325111 11 18410859884134452325
14445660 50 18334572486508712385
14787075 74 18117280246817606601
14897335 6 18339931428498469894
15309172 13 18342740732178356391
15501101 241 18130506456428502548
15775835 57 18333448759475448425
16945 1 18197798776083882198
18186145 218 18334575793063811724
19422 9 18040721406572808007
201361 129 18262512731558844257
20279233 1 16845291666029395921
204376 136 18342737373313652788
20645477 70 18127706022209659615
20671657 1 18411138065214372086
21501502 16 18338528451751449238
21524375 3 18336835203849474766
22854114 59 18343022198554810253
2748010 2 17913789472199551836
276578 36 18411132554533694592
458136 41 18341317985633425822
4990 188 17968085443817567588
6333272 397 18339924818290743112
633830 44 18187359973755399237
7364860 26 18336828705717313606
9882013 296 18202567267555326913

> <PUBCHEM_SHAPE_MULTIPOLES>
276.37
7.1
2.07
0.92
3.48
0.51
0.05
-3.63
1.59
-1.11
0.22
0.53
-0.12
-0.79

> <PUBCHEM_SHAPE_SELFOVERLAP>
568.196

> <PUBCHEM_SHAPE_VOLUME>
159.4

> <PUBCHEM_COORDINATE_TYPE>
2
5
10

$$$$

