2242
  -OEChem-07051213002D

 39 39  0     1  0  0  0  0  0999 V2000
    5.4641   -0.8100    0.0000 O   0  0  0  0  0  0  0  0  0  0  0  0
    5.4641    0.1900    0.0000 O   0  0  0  0  0  0  0  0  0  0  0  0
    4.5981   -2.3100    0.0000 O   0  0  0  0  0  0  0  0  0  0  0  0
    6.3301    3.6900    0.0000 O   0  0  0  0  0  0  0  0  0  0  0  0
    4.5981    3.6900    0.0000 O   0  0  0  0  0  0  0  0  0  0  0  0
    3.7320    0.1900    0.0000 N   0  0  0  0  0  0  0  0  0  0  0  0
    3.7320    2.1900    0.0000 N   0  0  0  0  0  0  0  0  0  0  0  0
    3.7320   -0.8100    0.0000 C   0  0  3  0  0  0  0  0  0  0  0  0
    2.8660   -1.3100    0.0000 C   0  0  0  0  0  0  0  0  0  0  0  0
    4.5981    1.6900    0.0000 C   0  0  3  0  0  0  0  0  0  0  0  0
    2.8660   -2.3100    0.0000 C   0  0  0  0  0  0  0  0  0  0  0  0
    4.5981    0.6900    0.0000 C   0  0  0  0  0  0  0  0  0  0  0  0
    4.5981   -1.3100    0.0000 C   0  0  0  0  0  0  0  0  0  0  0  0
    5.4641    2.1900    0.0000 C   0  0  0  0  0  0  0  0  0  0  0  0
    2.0000   -2.8100    0.0000 C   0  0  0  0  0  0  0  0  0  0  0  0
    3.7320   -2.8100    0.0000 C   0  0  0  0  0  0  0  0  0  0  0  0
    2.0000   -3.8100    0.0000 C   0  0  0  0  0  0  0  0  0  0  0  0
    3.7320   -3.8100    0.0000 C   0  0  0  0  0  0  0  0  0  0  0  0
    5.4641    3.1900    0.0000 C   0  0  0  0  0  0  0  0  0  0  0  0
    2.8660   -4.3100    0.0000 C   0  0  0  0  0  0  0  0  0  0  0  0
    6.3301   -1.3100    0.0000 C   0  0  0  0  0  0  0  0  0  0  0  0
    4.4682   -0.3850    0.0000 H   0  0  0  0  0  0  0  0  0  0  0  0
    2.6540   -0.7274    0.0000 H   0  0  0  0  0  0  0  0  0  0  0  0
    2.2554   -1.4177    0.0000 H   0  0  0  0  0  0  0  0  0  0  0  0
    3.1951    0.5000    0.0000 H   0  0  0  0  0  0  0  0  0  0  0  0
    4.5981    2.5400    0.0000 H   0  0  0  0  0  0  0  0  0  0  0  0
    5.6762    1.6074    0.0000 H   0  0  0  0  0  0  0  0  0  0  0  0
    6.0747    2.2977    0.0000 H   0  0  0  0  0  0  0  0  0  0  0  0
    1.4631   -2.5000    0.0000 H   0  0  0  0  0  0  0  0  0  0  0  0
    4.2690   -2.5000    0.0000 H   0  0  0  0  0  0  0  0  0  0  0  0
    3.7320    2.8100    0.0000 H   0  0  0  0  0  0  0  0  0  0  0  0
    3.1951    1.8800    0.0000 H   0  0  0  0  0  0  0  0  0  0  0  0
    1.4631   -4.1200    0.0000 H   0  0  0  0  0  0  0  0  0  0  0  0
    4.2690   -4.1200    0.0000 H   0  0  0  0  0  0  0  0  0  0  0  0
    2.8660   -4.9300    0.0000 H   0  0  0  0  0  0  0  0  0  0  0  0
    6.0201   -1.8469    0.0000 H   0  0  0  0  0  0  0  0  0  0  0  0
    6.8671   -1.6200    0.0000 H   0  0  0  0  0  0  0  0  0  0  0  0
    6.6401   -0.7731    0.0000 H   0  0  0  0  0  0  0  0  0  0  0  0
    6.3301    4.3100    0.0000 H   0  0  0  0  0  0  0  0  0  0  0  0
  1 13  1  0  0  0  0
  1 21  1  0  0  0  0
  2 12  2  0  0  0  0
  3 13  2  0  0  0  0
  4 19  1  0  0  0  0
  4 39  1  0  0  0  0
  5 19  2  0  0  0  0
  6  8  1  0  0  0  0
  6 12  1  0  0  0  0
  6 25  1  0  0  0  0
  7 10  1  0  0  0  0
  7 31  1  0  0  0  0
  7 32  1  0  0  0  0
  8  9  1  0  0  0  0
  8 13  1  0  0  0  0
  8 22  1  0  0  0  0
  9 11  1  0  0  0  0
  9 23  1  0  0  0  0
  9 24  1  0  0  0  0
 10 12  1  0  0  0  0
 10 14  1  0  0  0  0
 10 26  1  0  0  0  0
 11 15  2  0  0  0  0
 11 16  1  0  0  0  0
 14 19  1  0  0  0  0
 14 27  1  0  0  0  0
 14 28  1  0  0  0  0
 15 17  1  0  0  0  0
 15 29  1  0  0  0  0
 16 18  2  0  0  0  0
 16 30  1  0  0  0  0
 17 20  2  0  0  0  0
 17 33  1  0  0  0  0
 18 20  1  0  0  0  0
 18 34  1  0  0  0  0
 20 35  1  0  0  0  0
 21 36  1  0  0  0  0
 21 37  1  0  0  0  0
 21 38  1  0  0  0  0
M  END
> <PUBCHEM_COMPOUND_CID>
2242

> <PUBCHEM_COMPOUND_CANONICALIZED>
1

> <PUBCHEM_CACTVS_COMPLEXITY>
380

> <PUBCHEM_CACTVS_HBOND_ACCEPTOR>
6

> <PUBCHEM_CACTVS_HBOND_DONOR>
3

> <PUBCHEM_CACTVS_ROTATABLE_BOND>
8

> <PUBCHEM_CACTVS_SUBSKEYS>
AAADceBzOAAAAAAAAAAAAAAAAAAAAAAAAAAwAAAAAAAAAAABAAAAHgAQCAAADCjBmAYyCILABgCIAiHSGAACAAAgAAAIiIGIAIgKYDqAkTGVYAAmlgCYiAe/yKCOAAAAAAAAAAAAAAAAAAAAAAAAAAAAAA==

> <PUBCHEM_IUPAC_OPENEYE_NAME>
3-amino-4-[(1-benzyl-2-methoxy-2-oxo-ethyl)amino]-4-oxo-butanoic acid

> <PUBCHEM_IUPAC_CAS_NAME>
3-amino-4-[(1-methoxy-1-oxo-3-phenylpropan-2-yl)amino]-4-oxobutanoic acid

> <PUBCHEM_IUPAC_NAME>
3-amino-4-[(1-methoxy-1-oxo-3-phenylpropan-2-yl)amino]-4-oxobutanoic acid

> <PUBCHEM_IUPAC_SYSTEMATIC_NAME>
3-azanyl-4-[(1-methoxy-1-oxidanylidene-3-phenyl-propan-2-yl)amino]-4-oxidanylidene-butanoic acid

> <PUBCHEM_IUPAC_TRADITIONAL_NAME>
3-amino-4-[(1-benzyl-2-keto-2-methoxy-ethyl)amino]-4-keto-butyric acid

> <PUBCHEM_IUPAC_INCHI>
InChI=1S/C14H18N2O5/c1-21-14(20)11(7-9-5-3-2-4-6-9)16-13(19)10(15)8-12(17)18/h2-6,10-11H,7-8,15H2,1H3,(H,16,19)(H,17,18)

> <PUBCHEM_IUPAC_INCHIKEY>
IAOZJIPTCAWIRG-UHFFFAOYSA-N

> <PUBCHEM_XLOGP3>
-2.7

> <PUBCHEM_EXACT_MASS>
294.121572

> <PUBCHEM_MOLECULAR_FORMULA>
C14H18N2O5

> <PUBCHEM_MOLECULAR_WEIGHT>
294.30312

> <PUBCHEM_OPENEYE_CAN_SMILES>
COC(=O)C(CC1=CC=CC=C1)NC(=O)C(CC(=O)O)N

> <PUBCHEM_OPENEYE_ISO_SMILES>
COC(=O)C(CC1=CC=CC=C1)NC(=O)C(CC(=O)O)N

> <PUBCHEM_CACTVS_TPSA>
119

> <PUBCHEM_MONOISOTOPIC_WEIGHT>
294.121572

> <PUBCHEM_TOTAL_CHARGE>
0

> <PUBCHEM_HEAVY_ATOM_COUNT>
21

> <PUBCHEM_ATOM_DEF_STEREO_COUNT>
0

> <PUBCHEM_ATOM_UDEF_STEREO_COUNT>
2

> <PUBCHEM_BOND_DEF_STEREO_COUNT>
0

> <PUBCHEM_BOND_UDEF_STEREO_COUNT>
0

> <PUBCHEM_ISOTOPIC_ATOM_COUNT>
0

> <PUBCHEM_COMPONENT_COUNT>
1

> <PUBCHEM_CACTVS_TAUTO_COUNT>
2

> <PUBCHEM_COORDINATE_TYPE>
1
5
255

> <PUBCHEM_BONDANNOTATIONS>
10  26  3
11  15  8
11  16  8
15  17  8
16  18  8
17  20  8
18  20  8
8  22  3

$$$$

