101818
  -OEChem-07051213073D

 66 69  0     1  0  0  0  0  0999 V2000
   -0.2282    1.5674    1.5034 O   0  0  0  0  0  0  0  0  0  0  0  0
    6.3214    1.1896    1.7143 O   0  0  0  0  0  0  0  0  0  0  0  0
   -7.2628    1.2567   -0.8353 O   0  0  0  0  0  0  0  0  0  0  0  0
   -6.3293   -0.8044   -1.0264 O   0  0  0  0  0  0  0  0  0  0  0  0
    3.2159    0.1230   -1.0646 C   0  0  2  0  0  0  0  0  0  0  0  0
    1.9953    0.3200   -0.0843 C   0  0  2  0  0  0  0  0  0  0  0  0
   -0.9926   -0.0202   -0.2268 C   0  0  1  0  0  0  0  0  0  0  0  0
    4.1723   -0.9843   -0.5039 C   0  0  2  0  0  0  0  0  0  0  0  0
    1.2943   -1.0066    0.2113 C   0  0  0  0  0  0  0  0  0  0  0  0
   -0.0428   -1.1534    0.1228 C   0  0  0  0  0  0  0  0  0  0  0  0
   -2.2031   -0.3881    0.6703 C   0  0  2  0  0  0  0  0  0  0  0  0
   -0.3576    1.3534    0.0981 C   0  0  2  0  0  0  0  0  0  0  0  0
    1.0410    1.4658   -0.5172 C   0  0  0  0  0  0  0  0  0  0  0  0
    4.0300    1.4341   -1.2561 C   0  0  0  0  0  0  0  0  0  0  0  0
    3.4222   -2.2966   -0.2142 C   0  0  0  0  0  0  0  0  0  0  0  0
    2.2072   -2.1104    0.6921 C   0  0  0  0  0  0  0  0  0  0  0  0
   -0.8274   -2.3735    0.5446 C   0  0  0  0  0  0  0  0  0  0  0  0
   -2.2850   -1.9143    0.5656 C   0  0  0  0  0  0  0  0  0  0  0  0
    4.9539   -0.5199    0.7413 C   0  0  0  0  0  0  0  0  0  0  0  0
    2.7276   -0.3083   -2.4749 C   0  0  0  0  0  0  0  0  0  0  0  0
   -3.5165    0.2970    0.3188 C   0  0  1  0  0  0  0  0  0  0  0  0
   -1.3306   -0.0969   -1.7348 C   0  0  0  0  0  0  0  0  0  0  0  0
    4.7844    1.8789   -0.0085 C   0  0  0  0  0  0  0  0  0  0  0  0
    5.7125    0.7799    0.4943 C   0  0  1  0  0  0  0  0  0  0  0  0
   -4.6417   -0.2048    1.2466 C   0  0  0  0  0  0  0  0  0  0  0  0
   -3.3491    1.8182    0.3880 C   0  0  0  0  0  0  0  0  0  0  0  0
   -5.9870    0.4848    1.0112 C   0  0  0  0  0  0  0  0  0  0  0  0
   -6.5244    0.2127   -0.3758 C   0  0  0  0  0  0  0  0  0  0  0  0
    2.3955    0.6393    0.8882 H   0  0  0  0  0  0  0  0  0  0  0  0
    4.9249   -1.2098   -1.2736 H   0  0  0  0  0  0  0  0  0  0  0  0
   -1.9646   -0.1573    1.7198 H   0  0  0  0  0  0  0  0  0  0  0  0
   -0.9231    2.1935   -0.3003 H   0  0  0  0  0  0  0  0  0  0  0  0
    1.4890    2.4183   -0.2044 H   0  0  0  0  0  0  0  0  0  0  0  0
    0.9456    1.5174   -1.6048 H   0  0  0  0  0  0  0  0  0  0  0  0
    3.3839    2.2505   -1.5979 H   0  0  0  0  0  0  0  0  0  0  0  0
    4.7655    1.2848   -2.0590 H   0  0  0  0  0  0  0  0  0  0  0  0
    4.1050   -3.0231    0.2436 H   0  0  0  0  0  0  0  0  0  0  0  0
    3.0981   -2.7485   -1.1600 H   0  0  0  0  0  0  0  0  0  0  0  0
    2.5357   -1.8707    1.7104 H   0  0  0  0  0  0  0  0  0  0  0  0
    1.6871   -3.0719    0.7596 H   0  0  0  0  0  0  0  0  0  0  0  0
   -0.6955   -3.2028   -0.1571 H   0  0  0  0  0  0  0  0  0  0  0  0
   -0.5276   -2.6973    1.5473 H   0  0  0  0  0  0  0  0  0  0  0  0
   -2.7999   -2.2354   -0.3475 H   0  0  0  0  0  0  0  0  0  0  0  0
   -2.8122   -2.3647    1.4133 H   0  0  0  0  0  0  0  0  0  0  0  0
    4.2938   -0.3931    1.6075 H   0  0  0  0  0  0  0  0  0  0  0  0
    5.6675   -1.2988    1.0410 H   0  0  0  0  0  0  0  0  0  0  0  0
    3.5734   -0.6063   -3.1059 H   0  0  0  0  0  0  0  0  0  0  0  0
    2.0344   -1.1538   -2.4397 H   0  0  0  0  0  0  0  0  0  0  0  0
    2.2216    0.5089   -2.9985 H   0  0  0  0  0  0  0  0  0  0  0  0
   -3.8010    0.0415   -0.7087 H   0  0  0  0  0  0  0  0  0  0  0  0
   -0.4272   -0.0945   -2.3543 H   0  0  0  0  0  0  0  0  0  0  0  0
   -1.8747   -1.0102   -1.9972 H   0  0  0  0  0  0  0  0  0  0  0  0
   -1.9417    0.7521   -2.0564 H   0  0  0  0  0  0  0  0  0  0  0  0
    5.3730    2.7774   -0.2314 H   0  0  0  0  0  0  0  0  0  0  0  0
    4.0877    2.1799    0.7829 H   0  0  0  0  0  0  0  0  0  0  0  0
    6.5121    0.6130   -0.2373 H   0  0  0  0  0  0  0  0  0  0  0  0
   -4.7839   -1.2840    1.1186 H   0  0  0  0  0  0  0  0  0  0  0  0
   -4.3533   -0.0453    2.2933 H   0  0  0  0  0  0  0  0  0  0  0  0
    0.2592    0.8247    1.8952 H   0  0  0  0  0  0  0  0  0  0  0  0
   -2.8332    2.1392    1.2973 H   0  0  0  0  0  0  0  0  0  0  0  0
   -2.8424    2.1996   -0.4986 H   0  0  0  0  0  0  0  0  0  0  0  0
   -4.3037    2.3475    0.3639 H   0  0  0  0  0  0  0  0  0  0  0  0
    6.9200    0.4776    1.9979 H   0  0  0  0  0  0  0  0  0  0  0  0
   -6.7223    0.0764    1.7153 H   0  0  0  0  0  0  0  0  0  0  0  0
   -5.9443    1.5586    1.2053 H   0  0  0  0  0  0  0  0  0  0  0  0
   -7.6113    1.0889   -1.7367 H   0  0  0  0  0  0  0  0  0  0  0  0
  1 12  1  0  0  0  0
  1 59  1  0  0  0  0
  2 24  1  0  0  0  0
  2 63  1  0  0  0  0
  3 28  1  0  0  0  0
  3 66  1  0  0  0  0
  4 28  2  0  0  0  0
  5  6  1  0  0  0  0
  5  8  1  0  0  0  0
  5 14  1  0  0  0  0
  5 20  1  0  0  0  0
  6  9  1  0  0  0  0
  6 13  1  0  0  0  0
  6 29  1  0  0  0  0
  7 10  1  0  0  0  0
  7 11  1  0  0  0  0
  7 12  1  0  0  0  0
  7 22  1  0  0  0  0
  8 15  1  0  0  0  0
  8 19  1  0  0  0  0
  8 30  1  0  0  0  0
  9 10  2  0  0  0  0
  9 16  1  0  0  0  0
 10 17  1  0  0  0  0
 11 18  1  0  0  0  0
 11 21  1  0  0  0  0
 11 31  1  0  0  0  0
 12 13  1  0  0  0  0
 12 32  1  0  0  0  0
 13 33  1  0  0  0  0
 13 34  1  0  0  0  0
 14 23  1  0  0  0  0
 14 35  1  0  0  0  0
 14 36  1  0  0  0  0
 15 16  1  0  0  0  0
 15 37  1  0  0  0  0
 15 38  1  0  0  0  0
 16 39  1  0  0  0  0
 16 40  1  0  0  0  0
 17 18  1  0  0  0  0
 17 41  1  0  0  0  0
 17 42  1  0  0  0  0
 18 43  1  0  0  0  0
 18 44  1  0  0  0  0
 19 24  1  0  0  0  0
 19 45  1  0  0  0  0
 19 46  1  0  0  0  0
 20 47  1  0  0  0  0
 20 48  1  0  0  0  0
 20 49  1  0  0  0  0
 21 25  1  0  0  0  0
 21 26  1  0  0  0  0
 21 50  1  0  0  0  0
 22 51  1  0  0  0  0
 22 52  1  0  0  0  0
 22 53  1  0  0  0  0
 23 24  1  0  0  0  0
 23 54  1  0  0  0  0
 23 55  1  0  0  0  0
 24 56  1  0  0  0  0
 25 27  1  0  0  0  0
 25 57  1  0  0  0  0
 25 58  1  0  0  0  0
 26 60  1  0  0  0  0
 26 61  1  0  0  0  0
 26 62  1  0  0  0  0
 27 28  1  0  0  0  0
 27 64  1  0  0  0  0
 27 65  1  0  0  0  0
M  END
> <PUBCHEM_COMPOUND_CID>
101818

> <PUBCHEM_CONFORMER_RMSD>
0.8

> <PUBCHEM_CONFORMER_DIVERSEORDER>
1
3
2

> <PUBCHEM_MMFF94_PARTIAL_CHARGES>
17
1 -0.68
10 -0.28
12 0.28
16 0.14
17 0.14
2 -0.68
24 0.28
27 0.06
28 0.66
3 -0.65
4 -0.57
59 0.4
6 0.14
63 0.4
66 0.5
7 0.14
9 -0.28

> <PUBCHEM_EFFECTIVE_ROTOR_COUNT>
6.2

> <PUBCHEM_PHARMACOPHORE_FEATURES>
12
1 1 acceptor
1 1 donor
1 2 acceptor
1 2 donor
1 26 hydrophobe
1 3 acceptor
1 4 acceptor
3 3 4 28 anion
5 7 10 11 17 18 rings
6 5 6 8 9 15 16 rings
6 5 8 14 19 23 24 rings
6 6 7 9 10 12 13 rings

> <PUBCHEM_HEAVY_ATOM_COUNT>
28

> <PUBCHEM_ATOM_DEF_STEREO_COUNT>
8

> <PUBCHEM_ATOM_UDEF_STEREO_COUNT>
0

> <PUBCHEM_BOND_DEF_STEREO_COUNT>
0

> <PUBCHEM_BOND_UDEF_STEREO_COUNT>
0

> <PUBCHEM_ISOTOPIC_ATOM_COUNT>
0

> <PUBCHEM_COMPONENT_COUNT>
1

> <PUBCHEM_CACTVS_TAUTO_COUNT>
1

> <PUBCHEM_CONFORMER_ID>
00018DBA00000001

> <PUBCHEM_MMFF94_ENERGY>
81.3191

> <PUBCHEM_FEATURE_SELFOVERLAP>
61.091

> <PUBCHEM_SHAPE_FINGERPRINT>
10 15 17989208114554722280
10076449 9 10735884989143415544
10906281 52 18188191140126600345
12236239 1 17967532398106300487
12403814 3 17489588935106720895
12422481 6 17489588952355155430
12516196 113 18040434391199243809
12596602 18 17676483973378403267
12616971 3 16630522882533280479
12788726 201 17968360347062286056
13140716 1 18197774393459525848
13224815 77 18336540543692501910
13533116 47 18262794185514704190
14787075 74 18334010614486386179
14790565 3 18339069510404119729
15131766 46 16197877070327204244
15142383 8 17060626602564946748
15183329 4 18272364296178670933
15788980 27 16200432446655385006
17980427 23 18057607565014221092
19319366 153 18412831299751526987
20511986 3 18337120007278510487
20715895 44 18273495671561972510
21033648 29 17561366201762813933
21150785 3 16225768493400234537
21267235 1 18269822255064845538
21792934 111 18270973456249158088
21859007 373 17346052167752016189
22149856 69 18268123484357220699
22182313 1 17631741585327233438
23559900 14 18263063506155538662
24771293 8 18114180817606908536
2838139 119 17489594454968014621
3004659 81 17917983988916444662
335352 9 18341608231571801670
34797466 226 15864065438702749696
34934 24 18261388914964380094
350125 39 18130499829695092694
3633792 109 18341336690801542853
3680242 22 18272086115399470930
4072396 5 18273498961965844258
42630746 31 18412260649364088774
4340502 62 18413386536080035410
5104073 3 18270954777753035809
6004065 56 18260834739824394817

> <PUBCHEM_SHAPE_MULTIPOLES>
552.75
15.01
2.14
1.45
14.74
0.63
-0.45
-4.69
1.11
-1.13
0.28
-0.65
-0.22
0.28

> <PUBCHEM_SHAPE_SELFOVERLAP>
1167.361

> <PUBCHEM_SHAPE_VOLUME>
306.6

> <PUBCHEM_COORDINATE_TYPE>
2
5
10

$$$$

