6121984
  -OEChem-07051212472D

 39 39  0     1  0  0  0  0  0999 V2000
    6.0010    1.3450    0.0000 O   0  0  0  0  0  0  0  0  0  0  0  0
    7.7331    4.3450    0.0000 O   0  0  0  0  0  0  0  0  0  0  0  0
    5.1350    3.8450    0.0000 O   0  0  0  0  0  0  0  0  0  0  0  0
    6.0010    4.3450    0.0000 O   0  0  0  0  0  0  0  0  0  0  0  0
    9.4651    2.3450    0.0000 O   0  0  0  0  0  0  0  0  0  0  0  0
    4.2690    2.3450    0.0000 O   0  0  0  0  0  0  0  0  0  0  0  0
    8.5991    3.8450    0.0000 O   0  0  0  0  0  0  0  0  0  0  0  0
    4.2690    1.3450    0.0000 O   0  0  0  0  0  0  0  0  0  0  0  0
    2.5369   -3.6550    0.0000 O   0  0  0  0  0  0  0  0  0  0  0  0
    4.2690   -4.6550    0.0000 O   0  0  0  0  0  0  0  0  0  0  0  0
    6.8671    2.8450    0.0000 C   0  0  3  0  0  0  0  0  0  0  0  0
    6.0010    2.3450    0.0000 C   0  0  3  0  0  0  0  0  0  0  0  0
    7.7331    2.3450    0.0000 C   0  0  0  0  0  0  0  0  0  0  0  0
    6.8671    3.8450    0.0000 C   0  0  0  0  0  0  0  0  0  0  0  0
    5.1350    2.8450    0.0000 C   0  0  0  0  0  0  0  0  0  0  0  0
    8.5991    2.8450    0.0000 C   0  0  0  0  0  0  0  0  0  0  0  0
    5.1350    0.8450    0.0000 C   0  0  0  0  0  0  0  0  0  0  0  0
    5.1350   -0.1550    0.0000 C   0  0  0  0  0  0  0  0  0  0  0  0
    4.2690   -1.6550    0.0000 C   0  0  0  0  0  0  0  0  0  0  0  0
    4.2690   -0.6550    0.0000 C   0  0  0  0  0  0  0  0  0  0  0  0
    3.4030   -2.1550    0.0000 C   0  0  0  0  0  0  0  0  0  0  0  0
    5.1350   -2.1550    0.0000 C   0  0  0  0  0  0  0  0  0  0  0  0
    3.4030   -3.1550    0.0000 C   0  0  0  0  0  0  0  0  0  0  0  0
    5.1350   -3.1550    0.0000 C   0  0  0  0  0  0  0  0  0  0  0  0
    4.2690   -3.6550    0.0000 C   0  0  0  0  0  0  0  0  0  0  0  0
    6.3301    3.1550    0.0000 H   0  0  0  0  0  0  0  0  0  0  0  0
    6.5380    2.0350    0.0000 H   0  0  0  0  0  0  0  0  0  0  0  0
    7.3346    1.8700    0.0000 H   0  0  0  0  0  0  0  0  0  0  0  0
    8.1316    1.8700    0.0000 H   0  0  0  0  0  0  0  0  0  0  0  0
    7.7331    4.9650    0.0000 H   0  0  0  0  0  0  0  0  0  0  0  0
    5.6720   -0.4650    0.0000 H   0  0  0  0  0  0  0  0  0  0  0  0
    3.7320   -0.3450    0.0000 H   0  0  0  0  0  0  0  0  0  0  0  0
    4.5981    4.1550    0.0000 H   0  0  0  0  0  0  0  0  0  0  0  0
   10.0021    2.6550    0.0000 H   0  0  0  0  0  0  0  0  0  0  0  0
    2.8660   -1.8450    0.0000 H   0  0  0  0  0  0  0  0  0  0  0  0
    5.6720   -1.8450    0.0000 H   0  0  0  0  0  0  0  0  0  0  0  0
    5.6720   -3.4650    0.0000 H   0  0  0  0  0  0  0  0  0  0  0  0
    2.0000   -3.3450    0.0000 H   0  0  0  0  0  0  0  0  0  0  0  0
    4.8059   -4.9650    0.0000 H   0  0  0  0  0  0  0  0  0  0  0  0
  1 12  1  0  0  0  0
  1 17  1  0  0  0  0
  2 14  1  0  0  0  0
  2 30  1  0  0  0  0
  3 15  1  0  0  0  0
  3 33  1  0  0  0  0
  4 14  2  0  0  0  0
  5 16  1  0  0  0  0
  5 34  1  0  0  0  0
  6 15  2  0  0  0  0
  7 16  2  0  0  0  0
  8 17  2  0  0  0  0
  9 23  1  0  0  0  0
  9 38  1  0  0  0  0
 10 25  1  0  0  0  0
 10 39  1  0  0  0  0
 11 12  1  0  0  0  0
 11 13  1  0  0  0  0
 11 14  1  0  0  0  0
 11 26  1  0  0  0  0
 12 15  1  0  0  0  0
 12 27  1  0  0  0  0
 13 16  1  0  0  0  0
 13 28  1  0  0  0  0
 13 29  1  0  0  0  0
 17 18  1  0  0  0  0
 18 20  2  0  0  0  0
 18 31  1  0  0  0  0
 19 20  1  0  0  0  0
 19 21  2  0  0  0  0
 19 22  1  0  0  0  0
 20 32  1  0  0  0  0
 21 23  1  0  0  0  0
 21 35  1  0  0  0  0
 22 24  2  0  0  0  0
 22 36  1  0  0  0  0
 23 25  2  0  0  0  0
 24 25  1  0  0  0  0
 24 37  1  0  0  0  0
M  END
> <PUBCHEM_COMPOUND_CID>
6121984

> <PUBCHEM_COMPOUND_CANONICALIZED>
1

> <PUBCHEM_CACTVS_COMPLEXITY>
555

> <PUBCHEM_CACTVS_HBOND_ACCEPTOR>
10

> <PUBCHEM_CACTVS_HBOND_DONOR>
5

> <PUBCHEM_CACTVS_ROTATABLE_BOND>
9

> <PUBCHEM_CACTVS_SUBSKEYS>
AAADccBwPAAAAAAAAAAAAAAAAAAAAAAAAAAwAAAAAAAAAAABAAAAGgAACAAADRSgmAIwDoAABgCIAiDSCAICAAAgIAAIiAFGiMgJJjaCMRaCcAEl4BELuYfL5hAOIAABAAAAQABAAAIAAACAAAAAAAAAAA==

> <PUBCHEM_IUPAC_OPENEYE_NAME>
1-[(E)-3-(3,4-dihydroxyphenyl)prop-2-enoyl]oxypropane-1,2,3-tricarboxylic acid

> <PUBCHEM_IUPAC_CAS_NAME>
1-[(E)-3-(3,4-dihydroxyphenyl)-1-oxoprop-2-enoxy]propane-1,2,3-tricarboxylic acid

> <PUBCHEM_IUPAC_NAME>
1-[(E)-3-(3,4-dihydroxyphenyl)prop-2-enoyl]oxypropane-1,2,3-tricarboxylic acid

> <PUBCHEM_IUPAC_SYSTEMATIC_NAME>
1-[(E)-3-[3,4-bis(oxidanyl)phenyl]prop-2-enoyl]oxypropane-1,2,3-tricarboxylic acid

> <PUBCHEM_IUPAC_TRADITIONAL_NAME>
1-[(E)-3-(3,4-dihydroxyphenyl)acryloyl]oxypropane-1,2,3-tricarboxylic acid

> <PUBCHEM_IUPAC_INCHI>
InChI=1S/C15H14O10/c16-9-3-1-7(5-10(9)17)2-4-12(20)25-13(15(23)24)8(14(21)22)6-11(18)19/h1-5,8,13,16-17H,6H2,(H,18,19)(H,21,22)(H,23,24)/b4-2+

> <PUBCHEM_IUPAC_INCHIKEY>
KYSQDMNDMYECNZ-DUXPYHPUSA-N

> <PUBCHEM_XLOGP3_AA>
0.1

> <PUBCHEM_EXACT_MASS>
354.058697

> <PUBCHEM_MOLECULAR_FORMULA>
C15H14O10

> <PUBCHEM_MOLECULAR_WEIGHT>
354.26566

> <PUBCHEM_OPENEYE_CAN_SMILES>
C1=CC(=C(C=C1C=CC(=O)OC(C(CC(=O)O)C(=O)O)C(=O)O)O)O

> <PUBCHEM_OPENEYE_ISO_SMILES>
C1=CC(=C(C=C1/C=C/C(=O)OC(C(CC(=O)O)C(=O)O)C(=O)O)O)O

> <PUBCHEM_CACTVS_TPSA>
179

> <PUBCHEM_MONOISOTOPIC_WEIGHT>
354.058697

> <PUBCHEM_TOTAL_CHARGE>
0

> <PUBCHEM_HEAVY_ATOM_COUNT>
25

> <PUBCHEM_ATOM_DEF_STEREO_COUNT>
0

> <PUBCHEM_ATOM_UDEF_STEREO_COUNT>
2

> <PUBCHEM_BOND_DEF_STEREO_COUNT>
1

> <PUBCHEM_BOND_UDEF_STEREO_COUNT>
0

> <PUBCHEM_ISOTOPIC_ATOM_COUNT>
0

> <PUBCHEM_COMPONENT_COUNT>
1

> <PUBCHEM_CACTVS_TAUTO_COUNT>
16

> <PUBCHEM_COORDINATE_TYPE>
1
5
255

> <PUBCHEM_BONDANNOTATIONS>
11  13  3
12  15  3
19  21  8
19  22  8
21  23  8
22  24  8
23  25  8
24  25  8

$$$$

