442374
  -OEChem-07051212572D

 41 42  0     1  0  0  0  0  0999 V2000
    5.5606    2.3843    0.0000 O   0  0  0  0  0  0  0  0  0  0  0  0
    9.8612   -1.0892    0.0000 O   0  0  0  0  0  0  0  0  0  0  0  0
    6.0384   -1.2963    0.0000 C   0  0  3  0  0  0  0  0  0  0  0  0
    6.2972   -0.3304    0.0000 C   0  0  3  0  0  0  0  0  0  0  0  0
    5.5606    0.6522    0.0000 C   0  0  3  0  0  0  0  0  0  0  0  0
    3.6942   -1.1382    0.0000 C   0  0  3  0  0  0  0  0  0  0  0  0
    4.5032   -2.5395    0.0000 C   0  0  0  0  0  0  0  0  0  0  0  0
    3.5897   -2.1328    0.0000 C   0  0  0  0  0  0  0  0  0  0  0  0
    7.8703   -2.0552    0.0000 C   0  0  0  0  0  0  0  0  0  0  0  0
    8.1291   -1.0892    0.0000 C   0  0  0  0  0  0  0  0  0  0  0  0
    2.9511   -0.4691    0.0000 C   0  0  0  0  0  0  0  0  0  0  0  0
    5.7796   -2.2623    0.0000 C   0  0  0  0  0  0  0  0  0  0  0  0
    5.0606    1.5182    0.0000 C   0  0  0  0  0  0  0  0  0  0  0  0
    8.3703   -2.9212    0.0000 C   0  0  0  0  0  0  0  0  0  0  0  0
    2.0000   -0.7781    0.0000 C   0  0  0  0  0  0  0  0  0  0  0  0
    3.1590    0.5091    0.0000 C   0  0  0  0  0  0  0  0  0  0  0  0
    8.9952   -0.5892    0.0000 C   0  0  0  0  0  0  0  0  0  0  0  0
    6.2688   -0.9498    0.0000 H   0  0  0  0  0  0  0  0  0  0  0  0
    6.0780    0.9938    0.0000 H   0  0  0  0  0  0  0  0  0  0  0  0
    3.1154   -1.3604    0.0000 H   0  0  0  0  0  0  0  0  0  0  0  0
    4.1655   -3.0595    0.0000 H   0  0  0  0  0  0  0  0  0  0  0  0
    4.9640   -2.9543    0.0000 H   0  0  0  0  0  0  0  0  0  0  0  0
    2.9832   -2.0038    0.0000 H   0  0  0  0  0  0  0  0  0  0  0  0
    3.3981   -2.7224    0.0000 H   0  0  0  0  0  0  0  0  0  0  0  0
    2.4903   -0.0542    0.0000 H   0  0  0  0  0  0  0  0  0  0  0  0
    5.1807   -2.1018    0.0000 H   0  0  0  0  0  0  0  0  0  0  0  0
    5.6191   -2.8611    0.0000 H   0  0  0  0  0  0  0  0  0  0  0  0
    6.3784   -2.4227    0.0000 H   0  0  0  0  0  0  0  0  0  0  0  0
    4.5856    1.9168    0.0000 H   0  0  0  0  0  0  0  0  0  0  0  0
    4.5856    1.1197    0.0000 H   0  0  0  0  0  0  0  0  0  0  0  0
    7.8334   -3.2312    0.0000 H   0  0  0  0  0  0  0  0  0  0  0  0
    8.6803   -3.4581    0.0000 H   0  0  0  0  0  0  0  0  0  0  0  0
    8.9073   -2.6112    0.0000 H   0  0  0  0  0  0  0  0  0  0  0  0
    1.8084   -0.1885    0.0000 H   0  0  0  0  0  0  0  0  0  0  0  0
    1.4103   -0.9697    0.0000 H   0  0  0  0  0  0  0  0  0  0  0  0
    3.7654    0.3801    0.0000 H   0  0  0  0  0  0  0  0  0  0  0  0
    3.2879    1.1155    0.0000 H   0  0  0  0  0  0  0  0  0  0  0  0
    2.5525    0.6380    0.0000 H   0  0  0  0  0  0  0  0  0  0  0  0
    2.1916   -1.3678    0.0000 H   0  0  0  0  0  0  0  0  0  0  0  0
    8.9952    0.0308    0.0000 H   0  0  0  0  0  0  0  0  0  0  0  0
    5.2506    2.9212    0.0000 H   0  0  0  0  0  0  0  0  0  0  0  0
  1 13  1  0  0  0  0
  1 41  1  0  0  0  0
  2 17  2  0  0  0  0
  3  5  1  0  0  0  0
  3  7  1  0  0  0  0
  3  9  1  0  0  0  0
  3 12  1  0  0  0  0
  4  5  1  0  0  0  0
  4  6  1  0  0  0  0
  4 10  1  0  0  0  0
  4 18  1  0  0  0  0
  5 13  1  0  0  0  0
  5 19  1  0  0  0  0
  6  8  1  0  0  0  0
  6 11  1  0  0  0  0
  6 20  1  0  0  0  0
  7  8  1  0  0  0  0
  7 21  1  0  0  0  0
  7 22  1  0  0  0  0
  8 23  1  0  0  0  0
  8 24  1  0  0  0  0
  9 10  2  0  0  0  0
  9 14  1  0  0  0  0
 10 17  1  0  0  0  0
 11 15  1  0  0  0  0
 11 16  1  0  0  0  0
 11 25  1  0  0  0  0
 12 26  1  0  0  0  0
 12 27  1  0  0  0  0
 12 28  1  0  0  0  0
 13 29  1  0  0  0  0
 13 30  1  0  0  0  0
 14 31  1  0  0  0  0
 14 32  1  0  0  0  0
 14 33  1  0  0  0  0
 15 34  1  0  0  0  0
 15 35  1  0  0  0  0
 15 39  1  0  0  0  0
 16 36  1  0  0  0  0
 16 37  1  0  0  0  0
 16 38  1  0  0  0  0
 17 40  1  0  0  0  0
M  END
> <PUBCHEM_COMPOUND_CID>
442374

> <PUBCHEM_COMPOUND_CANONICALIZED>
1

> <PUBCHEM_CACTVS_COMPLEXITY>
356

> <PUBCHEM_CACTVS_HBOND_ACCEPTOR>
2

> <PUBCHEM_CACTVS_HBOND_DONOR>
1

> <PUBCHEM_CACTVS_ROTATABLE_BOND>
3

> <PUBCHEM_CACTVS_SUBSKEYS>
AAADceBwMAAAAAAAAAAAAAAAAAAAAQAAAAAwAAAABAAAAAAAAAAAGgAACAAADwCggAICAAAAAgCIAghQgAAAAAAgAAAACAEAAEgAEBIAAAAAQAAEgAAIAQOIzPCPgAAAAAAAAACAAAQAACAAAAAAAAAAAA==

> <PUBCHEM_IUPAC_OPENEYE_NAME>
8-(hydroxymethyl)-2-isopropyl-5,6-dimethyl-bicyclo[3.2.1]oct-6-ene-7-carbaldehyde

> <PUBCHEM_IUPAC_CAS_NAME>
8-(hydroxymethyl)-5,6-dimethyl-2-propan-2-yl-7-bicyclo[3.2.1]oct-6-enecarboxaldehyde

> <PUBCHEM_IUPAC_NAME>
8-(hydroxymethyl)-5,6-dimethyl-2-propan-2-ylbicyclo[3.2.1]oct-6-ene-7-carbaldehyde

> <PUBCHEM_IUPAC_SYSTEMATIC_NAME>
8-(hydroxymethyl)-5,6-dimethyl-2-propan-2-yl-bicyclo[3.2.1]oct-6-ene-7-carbaldehyde

> <PUBCHEM_IUPAC_TRADITIONAL_NAME>
2-isopropyl-5,6-dimethyl-8-methylol-bicyclo[3.2.1]oct-6-ene-7-carbaldehyde

> <PUBCHEM_IUPAC_INCHI>
InChI=1S/C15H24O2/c1-9(2)11-5-6-15(4)10(3)12(7-16)14(11)13(15)8-17/h7,9,11,13-14,17H,5-6,8H2,1-4H3

> <PUBCHEM_IUPAC_INCHIKEY>
JNDNSKMAFGPBFU-UHFFFAOYSA-N

> <PUBCHEM_XLOGP3_AA>
2.6

> <PUBCHEM_EXACT_MASS>
236.17763

> <PUBCHEM_MOLECULAR_FORMULA>
C15H24O2

> <PUBCHEM_MOLECULAR_WEIGHT>
236.34986

> <PUBCHEM_OPENEYE_CAN_SMILES>
CC1=C(C2C(CCC1(C2CO)C)C(C)C)C=O

> <PUBCHEM_OPENEYE_ISO_SMILES>
CC1=C(C2C(CCC1(C2CO)C)C(C)C)C=O

> <PUBCHEM_CACTVS_TPSA>
37.3

> <PUBCHEM_MONOISOTOPIC_WEIGHT>
236.17763

> <PUBCHEM_TOTAL_CHARGE>
0

> <PUBCHEM_HEAVY_ATOM_COUNT>
17

> <PUBCHEM_ATOM_DEF_STEREO_COUNT>
0

> <PUBCHEM_ATOM_UDEF_STEREO_COUNT>
4

> <PUBCHEM_BOND_DEF_STEREO_COUNT>
0

> <PUBCHEM_BOND_UDEF_STEREO_COUNT>
0

> <PUBCHEM_ISOTOPIC_ATOM_COUNT>
0

> <PUBCHEM_COMPONENT_COUNT>
1

> <PUBCHEM_CACTVS_TAUTO_COUNT>
1

> <PUBCHEM_COORDINATE_TYPE>
1
5
255

> <PUBCHEM_BONDANNOTATIONS>
3  12  3
4  10  3
5  13  3
6  11  3

$$$$

