442576
  -OEChem-07051212582D

 84 86  0     1  0  0  0  0  0999 V2000
    2.8660    0.3100    0.0000 O   0  0  0  0  0  0  0  0  0  0  0  0
    4.5981    2.3100    0.0000 O   0  0  0  0  0  0  0  0  0  0  0  0
    3.7226   -0.2067    0.0000 O   0  0  0  0  0  0  0  0  0  0  0  0
    3.7118   -3.1532    0.0000 O   0  0  0  0  0  0  0  0  0  0  0  0
    2.0000   -4.1900    0.0000 O   0  0  0  0  0  0  0  0  0  0  0  0
    5.4641    0.8100    0.0000 N   0  0  0  0  0  0  0  0  0  0  0  0
    7.1962    1.8100    0.0000 N   0  0  0  0  0  0  0  0  0  0  0  0
    5.4641   -1.1900    0.0000 N   0  0  0  0  0  0  0  0  0  0  0  0
    4.5981   -3.6900    0.0000 N   0  0  0  0  0  0  0  0  0  0  0  0
    3.7321    0.8100    0.0000 C   0  0  2  0  0  0  0  0  0  0  0  0
    4.5981    0.3100    0.0000 C   0  0  1  0  0  0  0  0  0  0  0  0
    6.3301    2.3100    0.0000 C   0  0  1  0  0  0  0  0  0  0  0  0
    6.3301    3.3100    0.0000 C   0  0  2  0  0  0  0  0  0  0  0  0
    3.0893    1.5760    0.0000 C   0  0  0  0  0  0  0  0  0  0  0  0
    5.4641    1.8100    0.0000 C   0  0  0  0  0  0  0  0  0  0  0  0
    7.1962    3.8100    0.0000 C   0  0  0  0  0  0  0  0  0  0  0  0
    4.5981   -0.6900    0.0000 C   0  0  0  0  0  0  0  0  0  0  0  0
    5.4641    3.8100    0.0000 C   0  0  0  0  0  0  0  0  0  0  0  0
    2.1045    1.4024    0.0000 C   0  0  0  0  0  0  0  0  0  0  0  0
    3.4313    2.5157    0.0000 C   0  0  0  0  0  0  0  0  0  0  0  0
    5.4641   -2.1900    0.0000 C   0  0  1  0  0  0  0  0  0  0  0  0
    7.1962    4.8100    0.0000 C   0  0  0  0  0  0  0  0  0  0  0  0
    8.0622    2.3100    0.0000 C   0  0  0  0  0  0  0  0  0  0  0  0
    7.1962    0.8100    0.0000 C   0  0  0  0  0  0  0  0  0  0  0  0
    6.3301   -2.6900    0.0000 C   0  0  0  0  0  0  0  0  0  0  0  0
    2.8660   -0.6900    0.0000 C   0  0  0  0  0  0  0  0  0  0  0  0
    4.5981   -2.6900    0.0000 C   0  0  0  0  0  0  0  0  0  0  0  0
    2.8660   -3.6900    0.0000 C   0  0  3  0  0  0  0  0  0  0  0  0
    3.7321   -4.1900    0.0000 C   0  0  0  0  0  0  0  0  0  0  0  0
    2.8660   -2.6900    0.0000 C   0  0  0  0  0  0  0  0  0  0  0  0
    3.7321   -1.1900    0.0000 C   0  0  0  0  0  0  0  0  0  0  0  0
    2.0000   -1.1900    0.0000 C   0  0  0  0  0  0  0  0  0  0  0  0
    7.1962   -2.1900    0.0000 C   0  0  0  0  0  0  0  0  0  0  0  0
    3.7321   -2.1900    0.0000 C   0  0  0  0  0  0  0  0  0  0  0  0
    2.0000   -2.1900    0.0000 C   0  0  0  0  0  0  0  0  0  0  0  0
    8.0622   -2.6900    0.0000 C   0  0  0  0  0  0  0  0  0  0  0  0
    7.1962   -1.1900    0.0000 C   0  0  0  0  0  0  0  0  0  0  0  0
    8.9282   -2.1900    0.0000 C   0  0  0  0  0  0  0  0  0  0  0  0
    8.0622   -0.6900    0.0000 C   0  0  0  0  0  0  0  0  0  0  0  0
    8.9282   -1.1900    0.0000 C   0  0  0  0  0  0  0  0  0  0  0  0
    3.1215    0.9177    0.0000 H   0  0  0  0  0  0  0  0  0  0  0  0
    5.1350    0.0000    0.0000 H   0  0  0  0  0  0  0  0  0  0  0  0
    6.8671    2.6200    0.0000 H   0  0  0  0  0  0  0  0  0  0  0  0
    6.3301    3.9300    0.0000 H   0  0  0  0  0  0  0  0  0  0  0  0
    2.6907    2.0510    0.0000 H   0  0  0  0  0  0  0  0  0  0  0  0
    6.0010    0.5000    0.0000 H   0  0  0  0  0  0  0  0  0  0  0  0
    7.4082    3.2274    0.0000 H   0  0  0  0  0  0  0  0  0  0  0  0
    7.8067    3.9177    0.0000 H   0  0  0  0  0  0  0  0  0  0  0  0
    5.7741    4.3469    0.0000 H   0  0  0  0  0  0  0  0  0  0  0  0
    4.9272    4.1200    0.0000 H   0  0  0  0  0  0  0  0  0  0  0  0
    5.1541    3.2731    0.0000 H   0  0  0  0  0  0  0  0  0  0  0  0
    1.9968    2.0130    0.0000 H   0  0  0  0  0  0  0  0  0  0  0  0
    1.4939    1.2947    0.0000 H   0  0  0  0  0  0  0  0  0  0  0  0
    2.2121    0.7918    0.0000 H   0  0  0  0  0  0  0  0  0  0  0  0
    4.0139    2.3037    0.0000 H   0  0  0  0  0  0  0  0  0  0  0  0
    3.6433    3.0983    0.0000 H   0  0  0  0  0  0  0  0  0  0  0  0
    2.8487    2.7278    0.0000 H   0  0  0  0  0  0  0  0  0  0  0  0
    6.0010   -1.8800    0.0000 H   0  0  0  0  0  0  0  0  0  0  0  0
    6.0010   -0.8800    0.0000 H   0  0  0  0  0  0  0  0  0  0  0  0
    7.8162    4.8100    0.0000 H   0  0  0  0  0  0  0  0  0  0  0  0
    7.1962    5.4300    0.0000 H   0  0  0  0  0  0  0  0  0  0  0  0
    6.5762    4.8100    0.0000 H   0  0  0  0  0  0  0  0  0  0  0  0
    6.5762    0.8100    0.0000 H   0  0  0  0  0  0  0  0  0  0  0  0
    7.1962    0.1900    0.0000 H   0  0  0  0  0  0  0  0  0  0  0  0
    7.8162    0.8100    0.0000 H   0  0  0  0  0  0  0  0  0  0  0  0
    8.3722    1.7731    0.0000 H   0  0  0  0  0  0  0  0  0  0  0  0
    8.5991    2.6200    0.0000 H   0  0  0  0  0  0  0  0  0  0  0  0
    7.7522    2.8469    0.0000 H   0  0  0  0  0  0  0  0  0  0  0  0
    5.9316   -3.1650    0.0000 H   0  0  0  0  0  0  0  0  0  0  0  0
    6.7287   -3.1650    0.0000 H   0  0  0  0  0  0  0  0  0  0  0  0
    2.8660   -4.3100    0.0000 H   0  0  0  0  0  0  0  0  0  0  0  0
    3.3335   -4.6650    0.0000 H   0  0  0  0  0  0  0  0  0  0  0  0
    4.1306   -4.6650    0.0000 H   0  0  0  0  0  0  0  0  0  0  0  0
    4.2690   -0.8800    0.0000 H   0  0  0  0  0  0  0  0  0  0  0  0
    1.4631   -0.8800    0.0000 H   0  0  0  0  0  0  0  0  0  0  0  0
    5.1350   -4.0000    0.0000 H   0  0  0  0  0  0  0  0  0  0  0  0
    4.2690   -2.5000    0.0000 H   0  0  0  0  0  0  0  0  0  0  0  0
    1.4631   -2.5000    0.0000 H   0  0  0  0  0  0  0  0  0  0  0  0
    8.0622   -3.3100    0.0000 H   0  0  0  0  0  0  0  0  0  0  0  0
    6.6592   -0.8800    0.0000 H   0  0  0  0  0  0  0  0  0  0  0  0
    2.0000   -4.8100    0.0000 H   0  0  0  0  0  0  0  0  0  0  0  0
    9.4652   -2.5000    0.0000 H   0  0  0  0  0  0  0  0  0  0  0  0
    8.0622   -0.0700    0.0000 H   0  0  0  0  0  0  0  0  0  0  0  0
    9.4651   -0.8800    0.0000 H   0  0  0  0  0  0  0  0  0  0  0  0
  1 10  1  0  0  0  0
  1 26  1  0  0  0  0
  2 15  2  0  0  0  0
  3 17  2  0  0  0  0
  4 27  2  0  0  0  0
  5 28  1  0  0  0  0
  5 81  1  0  0  0  0
 11  6  1  6  0  0  0
  6 15  1  0  0  0  0
  6 46  1  0  0  0  0
 12  7  1  6  0  0  0
  7 23  1  0  0  0  0
  7 24  1  0  0  0  0
  8 17  1  0  0  0  0
  8 21  1  0  0  0  0
  8 59  1  0  0  0  0
  9 27  1  0  0  0  0
  9 29  1  0  0  0  0
  9 76  1  0  0  0  0
 10 11  1  0  0  0  0
 10 14  1  1  0  0  0
 10 41  1  0  0  0  0
 11 17  1  0  0  0  0
 11 42  1  0  0  0  0
 12 13  1  0  0  0  0
 12 15  1  0  0  0  0
 12 43  1  0  0  0  0
 13 16  1  0  0  0  0
 13 18  1  1  0  0  0
 13 44  1  0  0  0  0
 14 19  1  0  0  0  0
 14 20  1  0  0  0  0
 14 45  1  0  0  0  0
 16 22  1  0  0  0  0
 16 47  1  0  0  0  0
 16 48  1  0  0  0  0
 18 49  1  0  0  0  0
 18 50  1  0  0  0  0
 18 51  1  0  0  0  0
 19 52  1  0  0  0  0
 19 53  1  0  0  0  0
 19 54  1  0  0  0  0
 20 55  1  0  0  0  0
 20 56  1  0  0  0  0
 20 57  1  0  0  0  0
 21 25  1  1  0  0  0
 21 27  1  0  0  0  0
 21 58  1  0  0  0  0
 22 60  1  0  0  0  0
 22 61  1  0  0  0  0
 22 62  1  0  0  0  0
 23 66  1  0  0  0  0
 23 67  1  0  0  0  0
 23 68  1  0  0  0  0
 24 63  1  0  0  0  0
 24 64  1  0  0  0  0
 24 65  1  0  0  0  0
 25 33  1  0  0  0  0
 25 69  1  0  0  0  0
 25 70  1  0  0  0  0
 26 31  2  0  0  0  0
 26 32  1  0  0  0  0
 28 29  1  0  0  0  0
 28 30  1  0  0  0  0
 28 71  1  0  0  0  0
 29 72  1  0  0  0  0
 29 73  1  0  0  0  0
 30 34  2  0  0  0  0
 30 35  1  0  0  0  0
 31 34  1  0  0  0  0
 31 74  1  0  0  0  0
 32 35  2  0  0  0  0
 32 75  1  0  0  0  0
 33 36  2  0  0  0  0
 33 37  1  0  0  0  0
 34 77  1  0  0  0  0
 35 78  1  0  0  0  0
 36 38  1  0  0  0  0
 36 79  1  0  0  0  0
 37 39  2  0  0  0  0
 37 80  1  0  0  0  0
 38 40  2  0  0  0  0
 38 82  1  0  0  0  0
 39 40  1  0  0  0  0
 39 83  1  0  0  0  0
 40 84  1  0  0  0  0
M  END
> <PUBCHEM_COMPOUND_CID>
442576

> <PUBCHEM_COMPOUND_CANONICALIZED>
1

> <PUBCHEM_CACTVS_COMPLEXITY>
823

> <PUBCHEM_CACTVS_HBOND_ACCEPTOR>
6

> <PUBCHEM_CACTVS_HBOND_DONOR>
4

> <PUBCHEM_CACTVS_ROTATABLE_BOND>
8

> <PUBCHEM_CACTVS_SUBSKEYS>
AAADcfB7uAAAAAAAAAAAAAAAAAAAAAAAAAAwYAAAAAAAAAABQAAAHgAQCAAADTzhmAYyBoPABgCIAiFSEAACCAAgIAAIiIGOCIgOdjaEsTuXeCCm9hGYuAeY6KyOIAAAAAAAAABAAAAAAAAAAAAAAAAAAA==

> <PUBCHEM_IUPAC_OPENEYE_NAME>
(2S,3S)-N-[(6S,9S,10S)-6-benzyl-2-hydroxy-10-isopropyl-5,8-dioxo-11-oxa-4,7-diazabicyclo[10.2.2]hexadeca-1(14),12,15-trien-9-yl]-2-(dimethylamino)-3-methyl-pentanamide

> <PUBCHEM_IUPAC_CAS_NAME>
(2S,3S)-2-(dimethylamino)-N-[(6S,9S,10S)-2-hydroxy-5,8-dioxo-6-(phenylmethyl)-10-propan-2-yl-11-oxa-4,7-diazabicyclo[10.2.2]hexadeca-1(14),12,15-trien-9-yl]-3-methylpentanamide

> <PUBCHEM_IUPAC_NAME>
(2S,3S)-N-[(6S,9S,10S)-6-benzyl-2-hydroxy-5,8-dioxo-10-propan-2-yl-11-oxa-4,7-diazabicyclo[10.2.2]hexadeca-1(14),12,15-trien-9-yl]-2-(dimethylamino)-3-methylpentanamide

> <PUBCHEM_IUPAC_SYSTEMATIC_NAME>
(2S,3S)-2-(dimethylamino)-3-methyl-N-[(6S,9S,10S)-2-oxidanyl-5,8-bis(oxidanylidene)-6-(phenylmethyl)-10-propan-2-yl-11-oxa-4,7-diazabicyclo[10.2.2]hexadeca-1(14),12,15-trien-9-yl]pentanamide

> <PUBCHEM_IUPAC_TRADITIONAL_NAME>
(2S,3S)-N-[(6S,9S,10S)-6-benzyl-2-hydroxy-10-isopropyl-5,8-diketo-11-oxa-4,7-diazabicyclo[10.2.2]hexadeca-1(14),12,15-trien-9-yl]-2-(dimethylamino)-3-methyl-valeramide

> <PUBCHEM_IUPAC_INCHI>
InChI=1S/C31H44N4O5/c1-7-20(4)27(35(5)6)31(39)34-26-28(19(2)3)40-23-15-13-22(14-16-23)25(36)18-32-29(37)24(33-30(26)38)17-21-11-9-8-10-12-21/h8-16,19-20,24-28,36H,7,17-18H2,1-6H3,(H,32,37)(H,33,38)(H,34,39)/t20-,24-,25?,26-,27-,28-/m0/s1

> <PUBCHEM_IUPAC_INCHIKEY>
STKZKAJIJHJDCQ-CVCFRWPJSA-N

> <PUBCHEM_XLOGP3_AA>
4

> <PUBCHEM_EXACT_MASS>
552.331171

> <PUBCHEM_MOLECULAR_FORMULA>
C31H44N4O5

> <PUBCHEM_MOLECULAR_WEIGHT>
552.70486

> <PUBCHEM_OPENEYE_CAN_SMILES>
CCC(C)C(C(=O)NC1C(OC2=CC=C(C=C2)C(CNC(=O)C(NC1=O)CC3=CC=CC=C3)O)C(C)C)N(C)C

> <PUBCHEM_OPENEYE_ISO_SMILES>
CC[C@H](C)[C@@H](C(=O)N[C@H]1[C@@H](OC2=CC=C(C=C2)C(CNC(=O)[C@@H](NC1=O)CC3=CC=CC=C3)O)C(C)C)N(C)C

> <PUBCHEM_CACTVS_TPSA>
120

> <PUBCHEM_MONOISOTOPIC_WEIGHT>
552.331171

> <PUBCHEM_TOTAL_CHARGE>
0

> <PUBCHEM_HEAVY_ATOM_COUNT>
40

> <PUBCHEM_ATOM_DEF_STEREO_COUNT>
5

> <PUBCHEM_ATOM_UDEF_STEREO_COUNT>
1

> <PUBCHEM_BOND_DEF_STEREO_COUNT>
0

> <PUBCHEM_BOND_UDEF_STEREO_COUNT>
0

> <PUBCHEM_ISOTOPIC_ATOM_COUNT>
0

> <PUBCHEM_COMPONENT_COUNT>
1

> <PUBCHEM_CACTVS_TAUTO_COUNT>
18

> <PUBCHEM_COORDINATE_TYPE>
1
5
255

> <PUBCHEM_BONDANNOTATIONS>
10  14  5
13  18  5
21  25  5
26  31  8
26  32  8
30  34  8
30  35  8
31  34  8
32  35  8
33  36  8
33  37  8
36  38  8
37  39  8
38  40  8
39  40  8
28  5  3
11  6  6
12  7  6

$$$$

