31356
  -OEChem-07051213133D

 35 34  0     1  0  0  0  0  0999 V2000
   -4.0249   -1.2974    0.6217 Br  0  0  0  0  0  0  0  0  0  0  0  0
    2.6664   -0.4133   -1.8322 Br  0  0  0  0  0  0  0  0  0  0  0  0
   -1.0241    2.2302   -1.9585 Br  0  0  0  0  0  0  0  0  0  0  0  0
   -4.4067   -4.0529   -1.4740 Br  0  0  0  0  0  0  0  0  0  0  0  0
    6.0865   -1.0563   -1.6902 Br  0  0  0  0  0  0  0  0  0  0  0  0
   -1.8539    5.5298   -1.2134 Br  0  0  0  0  0  0  0  0  0  0  0  0
    0.3077   -0.2486    1.6474 P   0  0  0  0  0  0  0  0  0  0  0  0
   -0.9912   -1.1615    1.3217 O   0  0  0  0  0  0  0  0  0  0  0  0
    1.5488   -1.0666    1.0025 O   0  0  0  0  0  0  0  0  0  0  0  0
    0.1623    1.0281    0.6604 O   0  0  0  0  0  0  0  0  0  0  0  0
    0.4741    0.0987    3.0997 O   0  0  0  0  0  0  0  0  0  0  0  0
   -1.2650   -1.5604   -0.0106 C   0  0  0  0  0  0  0  0  0  0  0  0
    2.8307   -0.4618    1.0063 C   0  0  0  0  0  0  0  0  0  0  0  0
   -0.9194    1.9205    0.8662 C   0  0  0  0  0  0  0  0  0  0  0  0
   -2.5348   -2.4063   -0.0443 C   0  0  2  0  0  0  0  0  0  0  0  0
    3.6332   -0.9482   -0.1973 C   0  0  2  0  0  0  0  0  0  0  0  0
   -0.8654    3.0424   -0.1671 C   0  0  2  0  0  0  0  0  0  0  0  0
   -2.8507   -2.8733   -1.4561 C   0  0  0  0  0  0  0  0  0  0  0  0
    5.0253   -0.3380   -0.2168 C   0  0  0  0  0  0  0  0  0  0  0  0
   -1.9990    4.0349    0.0345 C   0  0  0  0  0  0  0  0  0  0  0  0
   -0.4190   -2.1485   -0.3815 H   0  0  0  0  0  0  0  0  0  0  0  0
   -1.3682   -0.6746   -0.6434 H   0  0  0  0  0  0  0  0  0  0  0  0
    2.7340    0.6302    0.9974 H   0  0  0  0  0  0  0  0  0  0  0  0
    3.3323   -0.7464    1.9372 H   0  0  0  0  0  0  0  0  0  0  0  0
   -0.8370    2.3381    1.8756 H   0  0  0  0  0  0  0  0  0  0  0  0
   -1.8628    1.3683    0.8021 H   0  0  0  0  0  0  0  0  0  0  0  0
   -2.4713   -3.2357    0.6681 H   0  0  0  0  0  0  0  0  0  0  0  0
    3.6535   -2.0426   -0.2377 H   0  0  0  0  0  0  0  0  0  0  0  0
    0.1187    3.5232   -0.1713 H   0  0  0  0  0  0  0  0  0  0  0  0
   -3.0847   -2.0474   -2.1349 H   0  0  0  0  0  0  0  0  0  0  0  0
   -2.0298   -3.4613   -1.8766 H   0  0  0  0  0  0  0  0  0  0  0  0
    5.0120    0.7480   -0.3506 H   0  0  0  0  0  0  0  0  0  0  0  0
    5.5817   -0.5803    0.6933 H   0  0  0  0  0  0  0  0  0  0  0  0
   -2.9862    3.5926   -0.1311 H   0  0  0  0  0  0  0  0  0  0  0  0
   -1.9686    4.4802    1.0332 H   0  0  0  0  0  0  0  0  0  0  0  0
  1 15  1  0  0  0  0
  2 16  1  0  0  0  0
  3 17  1  0  0  0  0
  4 18  1  0  0  0  0
  5 19  1  0  0  0  0
  6 20  1  0  0  0  0
  7  8  1  0  0  0  0
  7  9  1  0  0  0  0
  7 10  1  0  0  0  0
  7 11  2  0  0  0  0
  8 12  1  0  0  0  0
  9 13  1  0  0  0  0
 10 14  1  0  0  0  0
 12 15  1  0  0  0  0
 12 21  1  0  0  0  0
 12 22  1  0  0  0  0
 13 16  1  0  0  0  0
 13 23  1  0  0  0  0
 13 24  1  0  0  0  0
 14 17  1  0  0  0  0
 14 25  1  0  0  0  0
 14 26  1  0  0  0  0
 15 18  1  0  0  0  0
 15 27  1  0  0  0  0
 16 19  1  0  0  0  0
 16 28  1  0  0  0  0
 17 20  1  0  0  0  0
 17 29  1  0  0  0  0
 18 30  1  0  0  0  0
 18 31  1  0  0  0  0
 19 32  1  0  0  0  0
 19 33  1  0  0  0  0
 20 34  1  0  0  0  0
 20 35  1  0  0  0  0
M  END
> <PUBCHEM_COMPOUND_CID>
31356

> <PUBCHEM_CONFORMER_RMSD>
1.2

> <PUBCHEM_CONFORMER_DIVERSEORDER>
1
173
254
56
446
325
64
321
58
95
259
261
144
256
409
384
374
22
57
46
391
304
143
347
62
32
453
455
387
30
337
120
358
177
476
88
184
89
123
474
160
288
324
14
421
180
190
267
331
404
108
273
371
386
71
202
410
436
411
129
296
157
24
186
425
289
370
234
65
372
7
385
131
336
419
91
139
395
233
439
175
110
270
454
63
322
399
307
470
393
162
49
456
266
79
359
20
458
44
9
43
4
341
3
354
381
306
462
40
53
214
414
274
430
461
119
74
283
203
352
226
291
216
437
382
335
83
263
227
23
459
10
279
146
168
300
463
132
210
407
313
314
380
401
229
375
208
309
153
397
235
473
426
199
330
42
126
179
188
467
285
247
475
376
172
90
41
185
249
369
98
305
319
241
55
207
301
60
51
102
373
251
189
329
350
113
99
6
479
19
465
424
405
85
181
344
163
182
37
328
140
115
269
107
429
349
442
148
165
438
167
35
34
2
339
250
101
338
224
276
394
200
106
287
206
332
125
343
67
225
21
232
327
379
77
457
240
260
124
171
138
362
33
134
45
59
5
198
396
464
12
242
353
111
412
193
17
149
334
323
448
137
433
432
368
418
219
114
211
159
170
351
450
161
299
25
360
292
423
434
152
428
431
192
272
151
471
355
147
443
278
69
81
282
262
26
284
16
166
158
365
392
246
122
54
96
50
320
346
286
36
76
78
245
248
451
112
400
169
257
178
52
135
75
150
194
271
420
364
345
252
265
87
217
220
195
228
317
136
416
70
11
398
326
402
209
92
297
221
406
72
48
13
38
127
295
212
118
141
82
298
197
183
174
236
280
258
477
80
361
215
68
100
310
243
315
383
222
117
408
237
142
130
103
452
213
47
28
84
460
223
468
105
104
109
15
39
156
187
403
268
390
27
61
238
277
441
318
294
363
31
415
444
275
348
440
311
205
255
342
145
378
427
389
316
29
253
449
230
128
435
231
303
176
94
417
201
469
302
8
388
196
191
116
239
164
466
244
367
356
264
445
73
377
86
340
155
357
293
422
154
66
290
308
121
472
18
447
204
312
133
333
413
93
97
478
366
218
281

> <PUBCHEM_MMFF94_PARTIAL_CHARGES>
20
1 -0.23
10 -0.55
11 -0.7
12 0.28
13 0.28
14 0.28
15 0.23
16 0.23
17 0.23
18 0.23
19 0.23
2 -0.23
20 0.23
3 -0.23
4 -0.23
5 -0.23
6 -0.23
7 1.51
8 -0.55
9 -0.55

> <PUBCHEM_EFFECTIVE_ROTOR_COUNT>
12

> <PUBCHEM_PHARMACOPHORE_FEATURES>
7
1 1 hydrophobe
1 11 acceptor
1 2 hydrophobe
1 3 hydrophobe
1 4 hydrophobe
1 5 hydrophobe
1 6 hydrophobe

> <PUBCHEM_HEAVY_ATOM_COUNT>
20

> <PUBCHEM_ATOM_DEF_STEREO_COUNT>
0

> <PUBCHEM_ATOM_UDEF_STEREO_COUNT>
3

> <PUBCHEM_BOND_DEF_STEREO_COUNT>
0

> <PUBCHEM_BOND_UDEF_STEREO_COUNT>
0

> <PUBCHEM_ISOTOPIC_ATOM_COUNT>
0

> <PUBCHEM_COMPONENT_COUNT>
1

> <PUBCHEM_CACTVS_TAUTO_COUNT>
1

> <PUBCHEM_CONFORMER_ID>
00007A7C00000001

> <PUBCHEM_MMFF94_ENERGY>
24.8612

> <PUBCHEM_FEATURE_SELFOVERLAP>
35.521

> <PUBCHEM_SHAPE_FINGERPRINT>
12617007 42 18048610226445767483
12788726 201 18271807959868211138
13009979 54 17897150335388429403
14004458 79 18338528498636938795
14251757 5 18339370750841237517
15878777 1 11991106162861380169
17539 30 18409733979795492348
1813 80 18190180083504884959
20600515 1 17532626028200172751
21285901 2 18114454660832363823
21365058 113 18195243313582392175
22620623 9 18335142024509267098
23419403 2 17458924651320095312
23557571 272 18410852162031303926
23598288 3 18127699433249890267
3057174 1 17616538801205763429
3388396 114 17910929393812548740
6438718 38 17914310597893378188
6786 2 17759517060183570935

> <PUBCHEM_SHAPE_MULTIPOLES>
427.62
9.29
6.44
2.27
13.48
9.81
0.57
-10.59
-5.04
-11.33
-4.04
0.38
-0.26
-0.47

> <PUBCHEM_SHAPE_SELFOVERLAP>
711.219

> <PUBCHEM_SHAPE_VOLUME>
299.8

> <PUBCHEM_COORDINATE_TYPE>
2
5
10

$$$$

