3545
  -OEChem-06251223292D

 34 36  0     0  0  0  0  0  0999 V2000
    3.0000    0.2927    0.0000 S   0  0  0  0  0  0  0  0  0  0  0  0
    2.0000    0.2927    0.0000 O   0  0  0  0  0  0  0  0  0  0  0  0
    4.0000    0.2927    0.0000 O   0  0  0  0  0  0  0  0  0  0  0  0
    3.0000   -0.7073    0.0000 N   0  0  0  0  0  0  0  0  0  0  0  0
    3.0000   -2.7073    0.0000 N   0  0  0  0  0  0  0  0  0  0  0  0
    5.6660    2.8135    0.0000 N   0  0  0  0  0  0  0  0  0  0  0  0
    2.1340   -1.2073    0.0000 C   0  0  0  0  0  0  0  0  0  0  0  0
    3.8660   -1.2073    0.0000 C   0  0  0  0  0  0  0  0  0  0  0  0
    2.1340   -2.2073    0.0000 C   0  0  0  0  0  0  0  0  0  0  0  0
    3.8660   -2.2073    0.0000 C   0  0  0  0  0  0  0  0  0  0  0  0
    3.0000    1.2927    0.0000 C   0  0  0  0  0  0  0  0  0  0  0  0
    3.8660    1.7927    0.0000 C   0  0  0  0  0  0  0  0  0  0  0  0
    2.1340    1.7927    0.0000 C   0  0  0  0  0  0  0  0  0  0  0  0
    3.8660    2.7927    0.0000 C   0  0  0  0  0  0  0  0  0  0  0  0
    2.1340    2.7927    0.0000 C   0  0  0  0  0  0  0  0  0  0  0  0
    4.7600    1.2580    0.0000 C   0  0  0  0  0  0  0  0  0  0  0  0
    3.0000    3.2927    0.0000 C   0  0  0  0  0  0  0  0  0  0  0  0
    4.7600    3.3273    0.0000 C   0  0  0  0  0  0  0  0  0  0  0  0
    5.6660    1.7718    0.0000 C   0  0  0  0  0  0  0  0  0  0  0  0
    1.9219   -0.6247    0.0000 H   0  0  0  0  0  0  0  0  0  0  0  0
    1.5234   -1.3150    0.0000 H   0  0  0  0  0  0  0  0  0  0  0  0
    4.4766   -1.3150    0.0000 H   0  0  0  0  0  0  0  0  0  0  0  0
    4.0781   -0.6247    0.0000 H   0  0  0  0  0  0  0  0  0  0  0  0
    1.5234   -2.0997    0.0000 H   0  0  0  0  0  0  0  0  0  0  0  0
    1.9219   -2.7899    0.0000 H   0  0  0  0  0  0  0  0  0  0  0  0
    4.0781   -2.7899    0.0000 H   0  0  0  0  0  0  0  0  0  0  0  0
    4.4766   -2.0997    0.0000 H   0  0  0  0  0  0  0  0  0  0  0  0
    3.0000   -3.3273    0.0000 H   0  0  0  0  0  0  0  0  0  0  0  0
    1.5970    1.4827    0.0000 H   0  0  0  0  0  0  0  0  0  0  0  0
    1.5970    3.1027    0.0000 H   0  0  0  0  0  0  0  0  0  0  0  0
    4.7528    0.6380    0.0000 H   0  0  0  0  0  0  0  0  0  0  0  0
    3.0000    3.9127    0.0000 H   0  0  0  0  0  0  0  0  0  0  0  0
    4.7528    3.9473    0.0000 H   0  0  0  0  0  0  0  0  0  0  0  0
    6.2018    1.4598    0.0000 H   0  0  0  0  0  0  0  0  0  0  0  0
  1  2  2  0  0  0  0
  1  3  2  0  0  0  0
  1  4  1  0  0  0  0
  1 11  1  0  0  0  0
  4  7  1  0  0  0  0
  4  8  1  0  0  0  0
  5  9  1  0  0  0  0
  5 10  1  0  0  0  0
  5 28  1  0  0  0  0
  6 18  2  0  0  0  0
  6 19  1  0  0  0  0
  7  9  1  0  0  0  0
  7 20  1  0  0  0  0
  7 21  1  0  0  0  0
  8 10  1  0  0  0  0
  8 22  1  0  0  0  0
  8 23  1  0  0  0  0
  9 24  1  0  0  0  0
  9 25  1  0  0  0  0
 10 26  1  0  0  0  0
 10 27  1  0  0  0  0
 11 12  1  0  0  0  0
 11 13  2  0  0  0  0
 12 14  2  0  0  0  0
 12 16  1  0  0  0  0
 13 15  1  0  0  0  0
 13 29  1  0  0  0  0
 14 17  1  0  0  0  0
 14 18  1  0  0  0  0
 15 17  2  0  0  0  0
 15 30  1  0  0  0  0
 16 19  2  0  0  0  0
 16 31  1  0  0  0  0
 17 32  1  0  0  0  0
 18 33  1  0  0  0  0
 19 34  1  0  0  0  0
M  END
> <PUBCHEM_COMPOUND_CID>
3545

> <PUBCHEM_COMPOUND_CANONICALIZED>
1

> <PUBCHEM_CACTVS_COMPLEXITY>
401

> <PUBCHEM_CACTVS_HBOND_ACCEPTOR>
5

> <PUBCHEM_CACTVS_HBOND_DONOR>
1

> <PUBCHEM_CACTVS_ROTATABLE_BOND>
2

> <PUBCHEM_CACTVS_SUBSKEYS>
AAADccBzMABAAAAAAAAAAAAAAAAAAAAAAAA8WIAAAAAAAACx8AAAHAQQQAAADADBWgQ8gdLIEAKgAjBnRHDCgDAxAiAI2Lg4ZJgIYOLAkZGUIAhgkADIyAcQgIAOgAAAgAAUAAAAAAEAACgAAAAAAAAAAA==

> <PUBCHEM_IUPAC_OPENEYE_NAME>
5-piperazin-1-ylsulfonylisoquinoline

> <PUBCHEM_IUPAC_CAS_NAME>
5-(1-piperazinylsulfonyl)isoquinoline

> <PUBCHEM_IUPAC_NAME>
5-piperazin-1-ylsulfonylisoquinoline

> <PUBCHEM_IUPAC_SYSTEMATIC_NAME>
5-piperazin-1-ylsulfonylisoquinoline

> <PUBCHEM_IUPAC_TRADITIONAL_NAME>
5-piperazinosulfonylisoquinoline

> <PUBCHEM_IUPAC_INCHI>
InChI=1S/C13H15N3O2S/c17-19(18,16-8-6-14-7-9-16)13-3-1-2-11-10-15-5-4-12(11)13/h1-5,10,14H,6-9H2

> <PUBCHEM_IUPAC_INCHIKEY>
UPTYCYWTFGTCCG-UHFFFAOYSA-N

> <PUBCHEM_XLOGP3_AA>
0.6

> <PUBCHEM_EXACT_MASS>
277.088498

> <PUBCHEM_MOLECULAR_FORMULA>
C13H15N3O2S

> <PUBCHEM_MOLECULAR_WEIGHT>
277.3421

> <PUBCHEM_OPENEYE_CAN_SMILES>
C1CN(CCN1)S(=O)(=O)C2=CC=CC3=C2C=CN=C3

> <PUBCHEM_OPENEYE_ISO_SMILES>
C1CN(CCN1)S(=O)(=O)C2=CC=CC3=C2C=CN=C3

> <PUBCHEM_CACTVS_TPSA>
70.7

> <PUBCHEM_MONOISOTOPIC_WEIGHT>
277.088498

> <PUBCHEM_TOTAL_CHARGE>
0

> <PUBCHEM_HEAVY_ATOM_COUNT>
19

> <PUBCHEM_ATOM_DEF_STEREO_COUNT>
0

> <PUBCHEM_ATOM_UDEF_STEREO_COUNT>
0

> <PUBCHEM_BOND_DEF_STEREO_COUNT>
0

> <PUBCHEM_BOND_UDEF_STEREO_COUNT>
0

> <PUBCHEM_ISOTOPIC_ATOM_COUNT>
0

> <PUBCHEM_COMPONENT_COUNT>
1

> <PUBCHEM_CACTVS_TAUTO_COUNT>
1

> <PUBCHEM_COORDINATE_TYPE>
1
5
255

> <PUBCHEM_BONDANNOTATIONS>
11  12  8
11  13  8
12  14  8
12  16  8
13  15  8
14  17  8
14  18  8
15  17  8
16  19  8
6  18  8
6  19  8

$$$$

