53297422
  -OEChem-07051213132D

 92 95  0     1  0  0  0  0  0999 V2000
    7.1962   -6.0600    0.0000 S   0  0  0  0  0  0  0  0  0  0  0  0
   13.2583    6.4400    0.0000 S   0  0  0  0  0  0  0  0  0  0  0  0
    8.0622   -7.5600    0.0000 Na  0  3  0  0  0  0  0  0  0  0  0  0
    8.0622   -6.5600    0.0000 O   0  5  0  0  0  0  0  0  0  0  0  0
   14.1244    6.9400    0.0000 O   0  0  0  0  0  0  0  0  0  0  0  0
    6.6962   -6.9260    0.0000 O   0  0  0  0  0  0  0  0  0  0  0  0
    7.6962   -5.1940    0.0000 O   0  0  0  0  0  0  0  0  0  0  0  0
   12.7583    7.3060    0.0000 O   0  0  0  0  0  0  0  0  0  0  0  0
   13.7583    5.5740    0.0000 O   0  0  0  0  0  0  0  0  0  0  0  0
    6.3301   -2.5600    0.0000 N   0  0  3  0  0  0  0  0  0  0  0  0
    9.7942    3.4400    0.0000 N   0  0  3  0  0  0  0  0  0  0  0  0
    2.8660    3.4400    0.0000 N   0  3  0  0  0  0  0  0  0  0  0  0
    6.3301    1.4400    0.0000 C   0  0  0  0  0  0  0  0  0  0  0  0
    6.3301   -1.5600    0.0000 C   0  0  0  0  0  0  0  0  0  0  0  0
    6.3301    0.4400    0.0000 C   0  0  0  0  0  0  0  0  0  0  0  0
    5.4641   -3.0600    0.0000 C   0  0  0  0  0  0  0  0  0  0  0  0
    7.1962    1.9400    0.0000 C   0  0  0  0  0  0  0  0  0  0  0  0
    8.9282    2.9400    0.0000 C   0  0  0  0  0  0  0  0  0  0  0  0
    9.7942    4.4400    0.0000 C   0  0  0  0  0  0  0  0  0  0  0  0
    7.1962   -3.0600    0.0000 C   0  0  0  0  0  0  0  0  0  0  0  0
   10.6603    2.9400    0.0000 C   0  0  0  0  0  0  0  0  0  0  0  0
    5.4641    1.9400    0.0000 C   0  0  0  0  0  0  0  0  0  0  0  0
    7.1962   -1.0600    0.0000 C   0  0  0  0  0  0  0  0  0  0  0  0
    5.4641   -1.0600    0.0000 C   0  0  0  0  0  0  0  0  0  0  0  0
    7.1962   -0.0600    0.0000 C   0  0  0  0  0  0  0  0  0  0  0  0
    5.4641   -0.0600    0.0000 C   0  0  0  0  0  0  0  0  0  0  0  0
    5.4641   -4.0600    0.0000 C   0  0  0  0  0  0  0  0  0  0  0  0
    8.0622    1.4400    0.0000 C   0  0  0  0  0  0  0  0  0  0  0  0
    7.1962    2.9400    0.0000 C   0  0  0  0  0  0  0  0  0  0  0  0
    8.9282    1.9400    0.0000 C   0  0  0  0  0  0  0  0  0  0  0  0
    8.0622    3.4400    0.0000 C   0  0  0  0  0  0  0  0  0  0  0  0
   10.6603    4.9400    0.0000 C   0  0  0  0  0  0  0  0  0  0  0  0
    8.0622   -2.5600    0.0000 C   0  0  0  0  0  0  0  0  0  0  0  0
    5.4641    2.9400    0.0000 C   0  0  0  0  0  0  0  0  0  0  0  0
    4.5981    1.4400    0.0000 C   0  0  0  0  0  0  0  0  0  0  0  0
   10.6603    1.9400    0.0000 C   0  0  0  0  0  0  0  0  0  0  0  0
    6.3301   -4.5600    0.0000 C   0  0  0  0  0  0  0  0  0  0  0  0
    4.5981   -4.5600    0.0000 C   0  0  0  0  0  0  0  0  0  0  0  0
   11.5263    4.4400    0.0000 C   0  0  0  0  0  0  0  0  0  0  0  0
   10.6603    5.9400    0.0000 C   0  0  0  0  0  0  0  0  0  0  0  0
    3.7320    2.9400    0.0000 C   0  0  0  0  0  0  0  0  0  0  0  0
    6.3301   -5.5600    0.0000 C   0  0  0  0  0  0  0  0  0  0  0  0
    4.5981    3.4400    0.0000 C   0  0  0  0  0  0  0  0  0  0  0  0
    3.7320    1.9400    0.0000 C   0  0  0  0  0  0  0  0  0  0  0  0
   12.3923    5.9400    0.0000 C   0  0  0  0  0  0  0  0  0  0  0  0
   12.3923    4.9400    0.0000 C   0  0  0  0  0  0  0  0  0  0  0  0
   11.5263    6.4400    0.0000 C   0  0  0  0  0  0  0  0  0  0  0  0
    4.5981   -5.5600    0.0000 C   0  0  0  0  0  0  0  0  0  0  0  0
    5.4641   -6.0600    0.0000 C   0  0  0  0  0  0  0  0  0  0  0  0
    2.8660    4.4400    0.0000 C   0  0  0  0  0  0  0  0  0  0  0  0
    2.0000    2.9400    0.0000 C   0  0  0  0  0  0  0  0  0  0  0  0
    5.2520   -2.4774    0.0000 H   0  0  0  0  0  0  0  0  0  0  0  0
    4.8535   -3.1677    0.0000 H   0  0  0  0  0  0  0  0  0  0  0  0
    9.5822    5.0226    0.0000 H   0  0  0  0  0  0  0  0  0  0  0  0
    9.1836    4.3323    0.0000 H   0  0  0  0  0  0  0  0  0  0  0  0
    6.7976   -3.5350    0.0000 H   0  0  0  0  0  0  0  0  0  0  0  0
    7.5947   -3.5350    0.0000 H   0  0  0  0  0  0  0  0  0  0  0  0
   11.2708    2.8323    0.0000 H   0  0  0  0  0  0  0  0  0  0  0  0
   10.8723    3.5226    0.0000 H   0  0  0  0  0  0  0  0  0  0  0  0
    7.7331   -1.3700    0.0000 H   0  0  0  0  0  0  0  0  0  0  0  0
    4.9272   -1.3700    0.0000 H   0  0  0  0  0  0  0  0  0  0  0  0
    7.7331    0.2500    0.0000 H   0  0  0  0  0  0  0  0  0  0  0  0
    4.9272    0.2500    0.0000 H   0  0  0  0  0  0  0  0  0  0  0  0
    8.0622    0.8200    0.0000 H   0  0  0  0  0  0  0  0  0  0  0  0
    6.6592    3.2500    0.0000 H   0  0  0  0  0  0  0  0  0  0  0  0
    9.4651    1.6300    0.0000 H   0  0  0  0  0  0  0  0  0  0  0  0
    8.0622    4.0600    0.0000 H   0  0  0  0  0  0  0  0  0  0  0  0
    8.3722   -3.0969    0.0000 H   0  0  0  0  0  0  0  0  0  0  0  0
    8.5991   -2.2500    0.0000 H   0  0  0  0  0  0  0  0  0  0  0  0
    7.7522   -2.0231    0.0000 H   0  0  0  0  0  0  0  0  0  0  0  0
    6.0010    3.2500    0.0000 H   0  0  0  0  0  0  0  0  0  0  0  0
    4.5981    0.8200    0.0000 H   0  0  0  0  0  0  0  0  0  0  0  0
   10.0403    1.9400    0.0000 H   0  0  0  0  0  0  0  0  0  0  0  0
   10.6603    1.3200    0.0000 H   0  0  0  0  0  0  0  0  0  0  0  0
   11.2803    1.9400    0.0000 H   0  0  0  0  0  0  0  0  0  0  0  0
    6.8671   -4.2500    0.0000 H   0  0  0  0  0  0  0  0  0  0  0  0
    4.0611   -4.2500    0.0000 H   0  0  0  0  0  0  0  0  0  0  0  0
   11.5263    3.8200    0.0000 H   0  0  0  0  0  0  0  0  0  0  0  0
   10.1233    6.2500    0.0000 H   0  0  0  0  0  0  0  0  0  0  0  0
    3.1951    1.6300    0.0000 H   0  0  0  0  0  0  0  0  0  0  0  0
    4.5981    4.0600    0.0000 H   0  0  0  0  0  0  0  0  0  0  0  0
   12.9292    4.6300    0.0000 H   0  0  0  0  0  0  0  0  0  0  0  0
   11.5263    7.0600    0.0000 H   0  0  0  0  0  0  0  0  0  0  0  0
    4.0611   -5.8700    0.0000 H   0  0  0  0  0  0  0  0  0  0  0  0
    5.4641   -6.6800    0.0000 H   0  0  0  0  0  0  0  0  0  0  0  0
    3.4860    4.4400    0.0000 H   0  0  0  0  0  0  0  0  0  0  0  0
    2.8660    5.0600    0.0000 H   0  0  0  0  0  0  0  0  0  0  0  0
    2.2460    4.4400    0.0000 H   0  0  0  0  0  0  0  0  0  0  0  0
    1.6900    3.4769    0.0000 H   0  0  0  0  0  0  0  0  0  0  0  0
    1.4631    2.6300    0.0000 H   0  0  0  0  0  0  0  0  0  0  0  0
    2.3100    2.4031    0.0000 H   0  0  0  0  0  0  0  0  0  0  0  0
   14.1244    7.5600    0.0000 H   0  0  0  0  0  0  0  0  0  0  0  0
  1  4  1  0  0  0  0
  1  6  2  0  0  0  0
  1  7  2  0  0  0  0
  1 42  1  0  0  0  0
  2  5  1  0  0  0  0
  2  8  2  0  0  0  0
  2  9  2  0  0  0  0
  2 45  1  0  0  0  0
  5 92  1  0  0  0  0
 10 14  1  0  0  0  0
 10 16  1  0  0  0  0
 10 20  1  0  0  0  0
 11 18  1  0  0  0  0
 11 19  1  0  0  0  0
 11 21  1  0  0  0  0
 12 41  2  0  0  0  0
 12 50  1  0  0  0  0
 12 51  1  0  0  0  0
 13 15  1  0  0  0  0
 13 17  1  0  0  0  0
 13 22  2  0  0  0  0
 14 23  2  0  0  0  0
 14 24  1  0  0  0  0
 15 25  2  0  0  0  0
 15 26  1  0  0  0  0
 16 27  1  0  0  0  0
 16 52  1  0  0  0  0
 16 53  1  0  0  0  0
 17 28  2  0  0  0  0
 17 29  1  0  0  0  0
 18 30  2  0  0  0  0
 18 31  1  0  0  0  0
 19 32  1  0  0  0  0
 19 54  1  0  0  0  0
 19 55  1  0  0  0  0
 20 33  1  0  0  0  0
 20 56  1  0  0  0  0
 20 57  1  0  0  0  0
 21 36  1  0  0  0  0
 21 58  1  0  0  0  0
 21 59  1  0  0  0  0
 22 34  1  0  0  0  0
 22 35  1  0  0  0  0
 23 25  1  0  0  0  0
 23 60  1  0  0  0  0
 24 26  2  0  0  0  0
 24 61  1  0  0  0  0
 25 62  1  0  0  0  0
 26 63  1  0  0  0  0
 27 37  2  0  0  0  0
 27 38  1  0  0  0  0
 28 30  1  0  0  0  0
 28 64  1  0  0  0  0
 29 31  2  0  0  0  0
 29 65  1  0  0  0  0
 30 66  1  0  0  0  0
 31 67  1  0  0  0  0
 32 39  2  0  0  0  0
 32 40  1  0  0  0  0
 33 68  1  0  0  0  0
 33 69  1  0  0  0  0
 33 70  1  0  0  0  0
 34 43  2  0  0  0  0
 34 71  1  0  0  0  0
 35 44  2  0  0  0  0
 35 72  1  0  0  0  0
 36 73  1  0  0  0  0
 36 74  1  0  0  0  0
 36 75  1  0  0  0  0
 37 42  1  0  0  0  0
 37 76  1  0  0  0  0
 38 48  2  0  0  0  0
 38 77  1  0  0  0  0
 39 46  1  0  0  0  0
 39 78  1  0  0  0  0
 40 47  2  0  0  0  0
 40 79  1  0  0  0  0
 41 43  1  0  0  0  0
 41 44  1  0  0  0  0
 42 49  2  0  0  0  0
 43 81  1  0  0  0  0
 44 80  1  0  0  0  0
 45 46  2  0  0  0  0
 45 47  1  0  0  0  0
 46 82  1  0  0  0  0
 47 83  1  0  0  0  0
 48 49  1  0  0  0  0
 48 84  1  0  0  0  0
 49 85  1  0  0  0  0
 50 86  1  0  0  0  0
 50 87  1  0  0  0  0
 50 88  1  0  0  0  0
 51 89  1  0  0  0  0
 51 90  1  0  0  0  0
 51 91  1  0  0  0  0
M  CHG  3   3   1   4  -1  12   1
M  END
> <PUBCHEM_COMPOUND_CID>
53297422

> <PUBCHEM_COMPOUND_CANONICALIZED>
1

> <PUBCHEM_CACTVS_COMPLEXITY>
1450

> <PUBCHEM_CACTVS_HBOND_ACCEPTOR>
8

> <PUBCHEM_CACTVS_HBOND_DONOR>
1

> <PUBCHEM_CACTVS_ROTATABLE_BOND>
12

> <PUBCHEM_CACTVS_SUBSKEYS>
AAADcfB/OCBgAAAAAAAAAAAAAAAAAAAAAAAwYMGCAAAAAAABVAAAHAQACAAADAjBWAQywYMAAIKgAyRiRHDCAEAhAgAIiBgYZJgIICLAkZGEIAhggADIyAcQgMAOGAAAgAAAAAAwAAEAAAAAAAAAAAAAAA==

> <PUBCHEM_IUPAC_OPENEYE_NAME>
sodium 3-[[4-[(4-dimethyliminiocyclohexa-2,5-dien-1-ylidene)-[4-[ethyl-[(4-sulfophenyl)methyl]amino]phenyl]methyl]-N-ethyl-anilino]methyl]benzenesulfonate

> <PUBCHEM_IUPAC_CAS_NAME>
sodium 3-[[4-[(4-dimethyliminio-1-cyclohexa-2,5-dienylidene)-[4-[ethyl-[(4-sulfophenyl)methyl]amino]phenyl]methyl]-N-ethylanilino]methyl]benzenesulfonate

> <PUBCHEM_IUPAC_NAME>
sodium 3-[[4-[(4-dimethylazaniumylidenecyclohexa-2,5-dien-1-ylidene)-[4-[ethyl-[(4-sulfophenyl)methyl]amino]phenyl]methyl]-N-ethylanilino]methyl]benzenesulfonate

> <PUBCHEM_IUPAC_SYSTEMATIC_NAME>
sodium 3-[[[4-[(4-dimethylazaniumylidenecyclohexa-2,5-dien-1-ylidene)-[4-[ethyl-[(4-sulfophenyl)methyl]amino]phenyl]methyl]phenyl]-ethyl-amino]methyl]benzenesulfonate

> <PUBCHEM_IUPAC_TRADITIONAL_NAME>
sodium 3-[[4-[(4-dimethyliminiocyclohexa-2,5-dien-1-ylidene)-[4-[ethyl-(4-sulfobenzyl)amino]phenyl]methyl]-N-ethyl-anilino]methyl]besylate

> <PUBCHEM_IUPAC_INCHI>
InChI=1S/C39H41N3O6S2.Na/c1-5-41(27-29-10-24-37(25-11-29)49(43,44)45)35-20-14-32(15-21-35)39(31-12-18-34(19-13-31)40(3)4)33-16-22-36(23-17-33)42(6-2)28-30-8-7-9-38(26-30)50(46,47)48;/h7-26H,5-6,27-28H2,1-4H3,(H-,43,44,45,46,47,48);/q;+1

> <PUBCHEM_IUPAC_INCHIKEY>
CIGATVLAEMOWGZ-UHFFFAOYSA-N

> <PUBCHEM_EXACT_MASS>
734.233447

> <PUBCHEM_MOLECULAR_FORMULA>
C39H41N3NaO6S2+

> <PUBCHEM_MOLECULAR_WEIGHT>
734.879109

> <PUBCHEM_OPENEYE_CAN_SMILES>
CCN(CC1=CC=C(C=C1)S(=O)(=O)O)C2=CC=C(C=C2)C(=C3C=CC(=[N+](C)C)C=C3)C4=CC=C(C=C4)N(CC)CC5=CC(=CC=C5)S(=O)(=O)[O-].[Na+]

> <PUBCHEM_OPENEYE_ISO_SMILES>
CCN(CC1=CC=C(C=C1)S(=O)(=O)O)C2=CC=C(C=C2)C(=C3C=CC(=[N+](C)C)C=C3)C4=CC=C(C=C4)N(CC)CC5=CC(=CC=C5)S(=O)(=O)[O-].[Na+]

> <PUBCHEM_CACTVS_TPSA>
138

> <PUBCHEM_MONOISOTOPIC_WEIGHT>
734.233447

> <PUBCHEM_TOTAL_CHARGE>
1

> <PUBCHEM_HEAVY_ATOM_COUNT>
51

> <PUBCHEM_ATOM_DEF_STEREO_COUNT>
0

> <PUBCHEM_ATOM_UDEF_STEREO_COUNT>
0

> <PUBCHEM_BOND_DEF_STEREO_COUNT>
0

> <PUBCHEM_BOND_UDEF_STEREO_COUNT>
0

> <PUBCHEM_ISOTOPIC_ATOM_COUNT>
0

> <PUBCHEM_COMPONENT_COUNT>
2

> <PUBCHEM_CACTVS_TAUTO_COUNT>
1

> <PUBCHEM_NONSTANDARDBOND>
3  4  7

> <PUBCHEM_COORDINATE_TYPE>
1
5
255

> <PUBCHEM_BONDANNOTATIONS>
14  23  8
14  24  8
15  25  8
15  26  8
17  28  8
17  29  8
18  30  8
18  31  8
23  25  8
24  26  8
27  37  8
27  38  8
28  30  8
29  31  8
32  39  8
32  40  8
37  42  8
38  48  8
39  46  8
40  47  8
42  49  8
45  46  8
45  47  8
48  49  8

$$$$

