442001
  -OEChem-07051212563D

 41 44  0     1  0  0  0  0  0999 V2000
   -4.2673    0.2893   -0.7208 O   0  0  0  0  0  0  0  0  0  0  0  0
    1.0458    3.2685   -1.0087 O   0  0  0  0  0  0  0  0  0  0  0  0
    0.7903    2.5276    1.1319 O   0  0  0  0  0  0  0  0  0  0  0  0
   -0.6412    0.2599   -0.3644 C   0  0  2  0  0  0  0  0  0  0  0  0
   -0.3438   -1.2340   -0.7308 C   0  0  2  0  0  0  0  0  0  0  0  0
   -1.8965    0.6643   -1.1358 C   0  0  0  0  0  0  0  0  0  0  0  0
   -2.9662   -0.1455   -0.3794 C   0  0  2  0  0  0  0  0  0  0  0  0
    0.6905    0.9717   -0.7076 C   0  0  2  0  0  0  0  0  0  0  0  0
   -1.1119    0.4466    1.1156 C   0  0  0  0  0  0  0  0  0  0  0  0
   -1.4179   -2.2012   -0.2468 C   0  0  0  0  0  0  0  0  0  0  0  0
   -2.8084   -1.6634   -0.6354 C   0  0  0  0  0  0  0  0  0  0  0  0
   -2.5973    0.1762    1.0511 C   0  0  0  0  0  0  0  0  0  0  0  0
    1.0677   -1.3538   -0.2443 C   0  0  0  0  0  0  0  0  0  0  0  0
    1.6779   -0.0826   -0.2550 C   0  0  0  0  0  0  0  0  0  0  0  0
    0.8426    2.3121   -0.0700 C   0  0  0  0  0  0  0  0  0  0  0  0
    3.0179    0.0537    0.0713 C   0  0  0  0  0  0  0  0  0  0  0  0
    1.7738   -2.4901    0.1108 C   0  0  0  0  0  0  0  0  0  0  0  0
   -3.4294    0.2717    2.0942 C   0  0  0  0  0  0  0  0  0  0  0  0
    3.7338   -1.0878    0.4414 C   0  0  0  0  0  0  0  0  0  0  0  0
    3.1163   -2.3481    0.4647 C   0  0  0  0  0  0  0  0  0  0  0  0
    3.7232    1.3650    0.0180 C   0  0  0  0  0  0  0  0  0  0  0  0
   -0.2951   -1.3280   -1.8274 H   0  0  0  0  0  0  0  0  0  0  0  0
   -1.8607    0.4057   -2.2002 H   0  0  0  0  0  0  0  0  0  0  0  0
   -2.0889    1.7438   -1.0759 H   0  0  0  0  0  0  0  0  0  0  0  0
    0.7868    1.0701   -1.7976 H   0  0  0  0  0  0  0  0  0  0  0  0
   -1.0383    1.4701    1.4790 H   0  0  0  0  0  0  0  0  0  0  0  0
   -0.6008   -0.2246    1.8125 H   0  0  0  0  0  0  0  0  0  0  0  0
   -1.3585   -2.3415    0.8393 H   0  0  0  0  0  0  0  0  0  0  0  0
   -1.2671   -3.1946   -0.6856 H   0  0  0  0  0  0  0  0  0  0  0  0
   -2.9895   -1.8611   -1.7003 H   0  0  0  0  0  0  0  0  0  0  0  0
   -3.5811   -2.2275   -0.0976 H   0  0  0  0  0  0  0  0  0  0  0  0
   -4.9092   -0.3201   -0.3182 H   0  0  0  0  0  0  0  0  0  0  0  0
    1.3077   -3.4693    0.1068 H   0  0  0  0  0  0  0  0  0  0  0  0
   -4.4924    0.0860    1.9904 H   0  0  0  0  0  0  0  0  0  0  0  0
   -3.0581    0.5338    3.0793 H   0  0  0  0  0  0  0  0  0  0  0  0
    4.7855   -1.0185    0.7100 H   0  0  0  0  0  0  0  0  0  0  0  0
    3.6943   -3.2235    0.7486 H   0  0  0  0  0  0  0  0  0  0  0  0
    3.4591    1.9824    0.8814 H   0  0  0  0  0  0  0  0  0  0  0  0
    4.8112    1.2329    0.0315 H   0  0  0  0  0  0  0  0  0  0  0  0
    3.4917    1.8992   -0.9087 H   0  0  0  0  0  0  0  0  0  0  0  0
    1.1488    4.1581   -0.6084 H   0  0  0  0  0  0  0  0  0  0  0  0
  1  7  1  0  0  0  0
  1 32  1  0  0  0  0
  2 15  1  0  0  0  0
  2 41  1  0  0  0  0
  3 15  2  0  0  0  0
  4  5  1  0  0  0  0
  4  6  1  0  0  0  0
  4  8  1  0  0  0  0
  4  9  1  0  0  0  0
  5 10  1  0  0  0  0
  5 13  1  0  0  0  0
  5 22  1  0  0  0  0
  6  7  1  0  0  0  0
  6 23  1  0  0  0  0
  6 24  1  0  0  0  0
  7 11  1  0  0  0  0
  7 12  1  0  0  0  0
  8 14  1  0  0  0  0
  8 15  1  0  0  0  0
  8 25  1  0  0  0  0
  9 12  1  0  0  0  0
  9 26  1  0  0  0  0
  9 27  1  0  0  0  0
 10 11  1  0  0  0  0
 10 28  1  0  0  0  0
 10 29  1  0  0  0  0
 11 30  1  0  0  0  0
 11 31  1  0  0  0  0
 12 18  2  0  0  0  0
 13 14  1  0  0  0  0
 13 17  2  0  0  0  0
 14 16  2  0  0  0  0
 16 19  1  0  0  0  0
 16 21  1  0  0  0  0
 17 20  1  0  0  0  0
 17 33  1  0  0  0  0
 18 34  1  0  0  0  0
 18 35  1  0  0  0  0
 19 20  2  0  0  0  0
 19 36  1  0  0  0  0
 20 37  1  0  0  0  0
 21 38  1  0  0  0  0
 21 39  1  0  0  0  0
 21 40  1  0  0  0  0
M  END
> <PUBCHEM_COMPOUND_CID>
442001

> <PUBCHEM_CONFORMER_RMSD>
0.6

> <PUBCHEM_CONFORMER_DIVERSEORDER>
1

> <PUBCHEM_MMFF94_PARTIAL_CHARGES>
24
1 -0.68
12 -0.28
13 -0.14
14 -0.14
15 0.66
16 -0.14
17 -0.15
18 -0.3
19 -0.15
2 -0.65
20 -0.15
21 0.14
3 -0.57
32 0.4
33 0.15
34 0.15
35 0.15
36 0.15
37 0.15
41 0.5
5 0.14
7 0.42
8 0.2
9 0.14

> <PUBCHEM_EFFECTIVE_ROTOR_COUNT>
2

> <PUBCHEM_PHARMACOPHORE_FEATURES>
8
1 1 acceptor
1 1 donor
1 2 acceptor
1 3 acceptor
3 2 3 15 anion
5 4 5 8 13 14 rings
6 13 14 16 17 19 20 rings
8 4 5 6 7 9 10 11 12 rings

> <PUBCHEM_HEAVY_ATOM_COUNT>
21

> <PUBCHEM_ATOM_DEF_STEREO_COUNT>
4

> <PUBCHEM_ATOM_UDEF_STEREO_COUNT>
0

> <PUBCHEM_BOND_DEF_STEREO_COUNT>
0

> <PUBCHEM_BOND_UDEF_STEREO_COUNT>
0

> <PUBCHEM_ISOTOPIC_ATOM_COUNT>
0

> <PUBCHEM_COMPONENT_COUNT>
1

> <PUBCHEM_CACTVS_TAUTO_COUNT>
1

> <PUBCHEM_CONFORMER_ID>
0006BE9100000001

> <PUBCHEM_MMFF94_ENERGY>
80.7951

> <PUBCHEM_FEATURE_SELFOVERLAP>
40.8

> <PUBCHEM_SHAPE_FINGERPRINT>
104564 63 18119802762567362916
10863032 1 18335143050837801730
10967382 1 18411425007494436230
10980938 120 18411418397645126102
11132069 177 18408896143762151258
11578080 2 17462607009982369961
11582403 64 16117182778056920781
11640471 11 17750212807905302905
12236239 1 17822015332356942159
12382932 28 18335420196598338682
12507560 14 18263087759097555879
12553582 1 18339072804596517246
13027679 85 18410862100147699092
13132413 78 18408040701982416268
13134695 92 18342742935375617541
13140716 1 18121493561957690097
13172582 1 18335413620887227535
13965767 371 17318990008258335209
14178342 30 18263653870247023642
14223421 5 18122068873423022998
14787075 74 17030241379803991392
14790565 3 18053940659086706084
14955137 171 18192119699552104890
15309172 13 18409442613646651691
15375462 189 18412255142947003194
16945 1 18341885273350595149
17349148 13 17822015302740538247
17980427 23 17385730209445917945
200 152 18113913645298080623
20739085 24 18122035827353856105
21197605 99 17615110519166257817
21267235 1 18409727395727276318
21501502 16 18192710042849073175
22112679 90 17967813872592355318
2255824 54 18196929976955837212
23184049 59 18264479749297407123
2334 1 17833548990125385140
23388829 49 18335134310642716336
23463225 33 18410860988141754350
23526113 38 17846509157120513465
23559900 14 18336840696769774410
2748010 2 18122906692176333532
296302 2 18202565072631820895
34934 24 18411146835310633350
350125 39 17907572532444424140
474 4 18267583511851331456
5104073 3 18411141320430441547
568465 68 17845633928611315859
6992083 37 18334292114927165991
7364860 26 18264214616697475518
77492 1 17894352197963635103
81228 2 17693647525870875452
90316 7 18267316510972281386

> <PUBCHEM_SHAPE_MULTIPOLES>
414.56
6.15
2.84
1.22
0.41
0.76
-0.42
-1.1
-1.03
-1.92
0.24
1.08
0.29
-0.59

> <PUBCHEM_SHAPE_SELFOVERLAP>
929.258

> <PUBCHEM_SHAPE_VOLUME>
222

> <PUBCHEM_COORDINATE_TYPE>
2
5
10

$$$$

