29354
  -OEChem-07051213042D

 32 32  0     0  0  0  0  0  0999 V2000
    2.8660   -0.0950    0.0000 O   0  0  0  0  0  0  0  0  0  0  0  0
    2.8660   -4.0950    0.0000 O   0  0  0  0  0  0  0  0  0  0  0  0
    4.5981    1.9050    0.0000 C   0  0  0  0  0  0  0  0  0  0  0  0
    4.5981    2.9050    0.0000 C   0  0  0  0  0  0  0  0  0  0  0  0
    3.7320    1.4050    0.0000 C   0  0  0  0  0  0  0  0  0  0  0  0
    5.4641    3.4050    0.0000 C   0  0  0  0  0  0  0  0  0  0  0  0
    3.7320    0.4050    0.0000 C   0  0  0  0  0  0  0  0  0  0  0  0
    5.4641    4.4050    0.0000 C   0  0  0  0  0  0  0  0  0  0  0  0
    2.8660   -1.0950    0.0000 C   0  0  0  0  0  0  0  0  0  0  0  0
    2.0000   -1.5950    0.0000 C   0  0  0  0  0  0  0  0  0  0  0  0
    3.7320   -1.5950    0.0000 C   0  0  0  0  0  0  0  0  0  0  0  0
    2.0000   -2.5950    0.0000 C   0  0  0  0  0  0  0  0  0  0  0  0
    3.7320   -2.5950    0.0000 C   0  0  0  0  0  0  0  0  0  0  0  0
    2.8660   -3.0950    0.0000 C   0  0  0  0  0  0  0  0  0  0  0  0
    4.8101    1.3224    0.0000 H   0  0  0  0  0  0  0  0  0  0  0  0
    5.2087    2.0127    0.0000 H   0  0  0  0  0  0  0  0  0  0  0  0
    4.3860    3.4876    0.0000 H   0  0  0  0  0  0  0  0  0  0  0  0
    3.9875    2.7973    0.0000 H   0  0  0  0  0  0  0  0  0  0  0  0
    3.5200    1.9876    0.0000 H   0  0  0  0  0  0  0  0  0  0  0  0
    3.1215    1.2973    0.0000 H   0  0  0  0  0  0  0  0  0  0  0  0
    5.6762    2.8224    0.0000 H   0  0  0  0  0  0  0  0  0  0  0  0
    6.0747    3.5127    0.0000 H   0  0  0  0  0  0  0  0  0  0  0  0
    3.9441   -0.1776    0.0000 H   0  0  0  0  0  0  0  0  0  0  0  0
    4.3426    0.5127    0.0000 H   0  0  0  0  0  0  0  0  0  0  0  0
    6.0841    4.4050    0.0000 H   0  0  0  0  0  0  0  0  0  0  0  0
    5.4641    5.0250    0.0000 H   0  0  0  0  0  0  0  0  0  0  0  0
    4.8441    4.4050    0.0000 H   0  0  0  0  0  0  0  0  0  0  0  0
    1.4631   -1.2850    0.0000 H   0  0  0  0  0  0  0  0  0  0  0  0
    4.2690   -1.2850    0.0000 H   0  0  0  0  0  0  0  0  0  0  0  0
    1.4631   -2.9050    0.0000 H   0  0  0  0  0  0  0  0  0  0  0  0
    4.2690   -2.9050    0.0000 H   0  0  0  0  0  0  0  0  0  0  0  0
    2.3291   -4.4050    0.0000 H   0  0  0  0  0  0  0  0  0  0  0  0
  1  7  1  0  0  0  0
  1  9  1  0  0  0  0
  2 14  1  0  0  0  0
  2 32  1  0  0  0  0
  3  4  1  0  0  0  0
  3  5  1  0  0  0  0
  3 15  1  0  0  0  0
  3 16  1  0  0  0  0
  4  6  1  0  0  0  0
  4 17  1  0  0  0  0
  4 18  1  0  0  0  0
  5  7  1  0  0  0  0
  5 19  1  0  0  0  0
  5 20  1  0  0  0  0
  6  8  1  0  0  0  0
  6 21  1  0  0  0  0
  6 22  1  0  0  0  0
  7 23  1  0  0  0  0
  7 24  1  0  0  0  0
  8 25  1  0  0  0  0
  8 26  1  0  0  0  0
  8 27  1  0  0  0  0
  9 10  2  0  0  0  0
  9 11  1  0  0  0  0
 10 12  1  0  0  0  0
 10 28  1  0  0  0  0
 11 13  2  0  0  0  0
 11 29  1  0  0  0  0
 12 14  2  0  0  0  0
 12 30  1  0  0  0  0
 13 14  1  0  0  0  0
 13 31  1  0  0  0  0
M  END
> <PUBCHEM_COMPOUND_CID>
29354

> <PUBCHEM_COMPOUND_CANONICALIZED>
1

> <PUBCHEM_CACTVS_COMPLEXITY>
128

> <PUBCHEM_CACTVS_HBOND_ACCEPTOR>
2

> <PUBCHEM_CACTVS_HBOND_DONOR>
1

> <PUBCHEM_CACTVS_ROTATABLE_BOND>
6

> <PUBCHEM_CACTVS_SUBSKEYS>
AAADceBwMAAAAAAAAAAAAAAAAAAAAAAAAAAwAAAAAAAAAAABAAAAGgAACAAACASgkAIyBoAABgCAACBCAAACCAAgIAAIiAAGCIgMJiKGMRqCeCCkwBEIuAfAQAAAAQAAAAAAAAACAAAAAAAAAAAAAAAAAA==

> <PUBCHEM_IUPAC_OPENEYE_NAME>
4-hexoxyphenol

> <PUBCHEM_IUPAC_CAS_NAME>
4-hexoxyphenol

> <PUBCHEM_IUPAC_NAME>
4-hexoxyphenol

> <PUBCHEM_IUPAC_SYSTEMATIC_NAME>
4-hexoxyphenol

> <PUBCHEM_IUPAC_TRADITIONAL_NAME>
4-hexoxyphenol

> <PUBCHEM_IUPAC_INCHI>
InChI=1S/C12H18O2/c1-2-3-4-5-10-14-12-8-6-11(13)7-9-12/h6-9,13H,2-5,10H2,1H3

> <PUBCHEM_IUPAC_INCHIKEY>
XIIIHRLCKLSYNH-UHFFFAOYSA-N

> <PUBCHEM_XLOGP3>
4

> <PUBCHEM_EXACT_MASS>
194.13068

> <PUBCHEM_MOLECULAR_FORMULA>
C12H18O2

> <PUBCHEM_MOLECULAR_WEIGHT>
194.27012

> <PUBCHEM_OPENEYE_CAN_SMILES>
CCCCCCOC1=CC=C(C=C1)O

> <PUBCHEM_OPENEYE_ISO_SMILES>
CCCCCCOC1=CC=C(C=C1)O

> <PUBCHEM_CACTVS_TPSA>
29.5

> <PUBCHEM_MONOISOTOPIC_WEIGHT>
194.13068

> <PUBCHEM_TOTAL_CHARGE>
0

> <PUBCHEM_HEAVY_ATOM_COUNT>
14

> <PUBCHEM_ATOM_DEF_STEREO_COUNT>
0

> <PUBCHEM_ATOM_UDEF_STEREO_COUNT>
0

> <PUBCHEM_BOND_DEF_STEREO_COUNT>
0

> <PUBCHEM_BOND_UDEF_STEREO_COUNT>
0

> <PUBCHEM_ISOTOPIC_ATOM_COUNT>
0

> <PUBCHEM_COMPONENT_COUNT>
1

> <PUBCHEM_CACTVS_TAUTO_COUNT>
2

> <PUBCHEM_COORDINATE_TYPE>
1
5
255

> <PUBCHEM_BONDANNOTATIONS>
10  12  8
11  13  8
12  14  8
13  14  8
9  10  8
9  11  8

$$$$

