13096
  -OEChem-06261207453D

 29 29  0     0  0  0  0  0  0999 V2000
    6.5059   -0.6501    1.4196 Cl  0  0  0  0  0  0  0  0  0  0  0  0
    5.7054    1.4099   -0.4697 Cl  0  0  0  0  0  0  0  0  0  0  0  0
    5.4865   -1.4039   -1.1966 Cl  0  0  0  0  0  0  0  0  0  0  0  0
    0.8111    0.3984   -0.9242 O   0  0  0  0  0  0  0  0  0  0  0  0
    2.9401    0.0639   -0.2688 O   0  0  0  0  0  0  0  0  0  0  0  0
   -5.3127   -1.7025   -0.1400 O   0  0  0  0  0  0  0  0  0  0  0  0
    1.2582   -0.2067    1.2840 O   0  0  0  0  0  0  0  0  0  0  0  0
   -4.5967    0.5000    0.3013 N   0  0  0  0  0  0  0  0  0  0  0  0
   -3.2365    0.4742   -0.0075 C   0  0  0  0  0  0  0  0  0  0  0  0
   -0.5157    0.4229   -0.6222 C   0  0  0  0  0  0  0  0  0  0  0  0
   -2.6463   -0.7052   -0.4616 C   0  0  0  0  0  0  0  0  0  0  0  0
   -2.4664    1.6280    0.1393 C   0  0  0  0  0  0  0  0  0  0  0  0
   -1.2860   -0.7308   -0.7689 C   0  0  0  0  0  0  0  0  0  0  0  0
   -1.1060    1.6024   -0.1681 C   0  0  0  0  0  0  0  0  0  0  0  0
    3.9140   -0.2690    0.7257 C   0  0  0  0  0  0  0  0  0  0  0  0
   -5.5227   -0.5486    0.2195 C   0  0  0  0  0  0  0  0  0  0  0  0
    5.3260   -0.2277    0.1413 C   0  0  0  0  0  0  0  0  0  0  0  0
    1.6435    0.0561    0.1517 C   0  0  0  0  0  0  0  0  0  0  0  0
   -6.9017   -0.1113    0.6453 C   0  0  0  0  0  0  0  0  0  0  0  0
   -3.1767   -1.6368   -0.6008 H   0  0  0  0  0  0  0  0  0  0  0  0
   -2.9130    2.5541    0.4923 H   0  0  0  0  0  0  0  0  0  0  0  0
   -0.8314   -1.6522   -1.1233 H   0  0  0  0  0  0  0  0  0  0  0  0
   -0.5120    2.5049   -0.0523 H   0  0  0  0  0  0  0  0  0  0  0  0
   -4.9514    1.3974    0.6259 H   0  0  0  0  0  0  0  0  0  0  0  0
    3.6924   -1.2727    1.1120 H   0  0  0  0  0  0  0  0  0  0  0  0
    3.8260    0.4442    1.5559 H   0  0  0  0  0  0  0  0  0  0  0  0
   -6.8813    0.2079    1.6911 H   0  0  0  0  0  0  0  0  0  0  0  0
   -7.6033   -0.9437    0.5409 H   0  0  0  0  0  0  0  0  0  0  0  0
   -7.2393    0.7173    0.0164 H   0  0  0  0  0  0  0  0  0  0  0  0
  1 17  1  0  0  0  0
  2 17  1  0  0  0  0
  3 17  1  0  0  0  0
  4 10  1  0  0  0  0
  4 18  1  0  0  0  0
  5 15  1  0  0  0  0
  5 18  1  0  0  0  0
  6 16  2  0  0  0  0
  7 18  2  0  0  0  0
  8  9  1  0  0  0  0
  8 16  1  0  0  0  0
  8 24  1  0  0  0  0
  9 11  2  0  0  0  0
  9 12  1  0  0  0  0
 10 13  2  0  0  0  0
 10 14  1  0  0  0  0
 11 13  1  0  0  0  0
 11 20  1  0  0  0  0
 12 14  2  0  0  0  0
 12 21  1  0  0  0  0
 13 22  1  0  0  0  0
 14 23  1  0  0  0  0
 15 17  1  0  0  0  0
 15 25  1  0  0  0  0
 15 26  1  0  0  0  0
 16 19  1  0  0  0  0
 19 27  1  0  0  0  0
 19 28  1  0  0  0  0
 19 29  1  0  0  0  0
M  END
> <PUBCHEM_COMPOUND_CID>
13096

> <PUBCHEM_CONFORMER_RMSD>
0.8

> <PUBCHEM_CONFORMER_DIVERSEORDER>
1
7
55
10
5
48
21
25
12
6
56
51
42
29
41
37
28
22
49
8
33
50
44
35
34
17
46
24
18
57
11
26
36
54
15
4
16
39
31
14
32
2
52
13
47
53
38
30
40
9
3
19
20
45
43
27
23

> <PUBCHEM_MMFF94_PARTIAL_CHARGES>
24
1 -0.29
10 0.08
11 -0.15
12 -0.15
13 -0.15
14 -0.15
15 0.28
16 0.57
17 0.87
18 0.87
19 0.06
2 -0.29
20 0.15
21 0.15
22 0.15
23 0.15
24 0.37
3 -0.29
4 -0.23
5 -0.43
6 -0.57
7 -0.57
8 -0.55
9 0.12

> <PUBCHEM_EFFECTIVE_ROTOR_COUNT>
7

> <PUBCHEM_PHARMACOPHORE_FEATURES>
3
1 6 acceptor
1 8 donor
6 9 10 11 12 13 14 rings

> <PUBCHEM_HEAVY_ATOM_COUNT>
19

> <PUBCHEM_ATOM_DEF_STEREO_COUNT>
0

> <PUBCHEM_ATOM_UDEF_STEREO_COUNT>
0

> <PUBCHEM_BOND_DEF_STEREO_COUNT>
0

> <PUBCHEM_BOND_UDEF_STEREO_COUNT>
0

> <PUBCHEM_ISOTOPIC_ATOM_COUNT>
0

> <PUBCHEM_COMPONENT_COUNT>
1

> <PUBCHEM_CACTVS_TAUTO_COUNT>
2

> <PUBCHEM_CONFORMER_ID>
0000332800000001

> <PUBCHEM_MMFF94_ENERGY>
50.3541

> <PUBCHEM_FEATURE_SELFOVERLAP>
15.223

> <PUBCHEM_SHAPE_FINGERPRINT>
10 15 17967542255251307250
106641 1 18113900416893429587
10968037 39 18272931600943846805
117890 112 9655575206121883182
12236239 1 18131633391401559212
12670543 26 11671790376778759289
12916748 109 18409166636670801808
13073987 5 17386004035628836194
13288520 33 18343584040997214133
13533116 47 17489594493659455154
13668630 136 16271930441257663722
13862211 1 17917713500075868906
1420 363 18342173375393375506
14251764 18 15285367205753086200
14341114 176 17894911836877092360
15048467 5 6844200948212742546
15183329 4 10015588315278336974
15716309 27 18344146986165168267
17834072 33 18202002122852420940
17834076 25 8862943870606410745
17844677 252 18411695526352732380
18006028 8 18409732855289735125
1813 80 17846210094711623372
18222031 100 15482670195882538236
187816 3 12103846765564737301
200 152 16773800307447320661
20281389 69 7493008448842957723
21150785 3 17846489332342766286
21267235 1 18412819200864784684
22224240 67 17095245813383121743
2297311 6 18260540160749522404
23035841 295 18273214196986338107
23081809 10 16916784132518225252
23198884 109 10087642594197546427
23402539 116 18259990358044103863
23559900 14 17203040764933791909
29717793 49 14764629746417872290
34797466 226 18041269999031204060
4325135 7 18342736296031177268
4340502 62 18041000652947159094
4463277 17 18342175561922301253
5104073 3 17896599681530568562

> <PUBCHEM_SHAPE_MULTIPOLES>
368.16
17.89
1.4
1.06
1.64
0.19
0.12
-4.23
3.49
-0.02
-0.23
1.31
-0.2
-0.17

> <PUBCHEM_SHAPE_SELFOVERLAP>
725.877

> <PUBCHEM_SHAPE_VOLUME>
219.1

> <PUBCHEM_COORDINATE_TYPE>
2
5
10

$$$$

