56928064
  -OEChem-07051212493D

 27 26  0     1  0  0  0  0  0999 V2000
    0.2476   -3.2426    0.1057 O   0  0  0  0  0  0  0  0  0  0  0  0
    2.4477   -3.0534   -0.4375 O   0  0  0  0  0  0  0  0  0  0  0  0
    3.3282    3.3897   -0.0331 O   0  0  0  0  0  0  0  0  0  0  0  0
   -1.8012   -1.0444   -0.4692 O   0  0  0  0  0  0  0  0  0  0  0  0
   -4.2196   -0.5796   -0.0012 O   0  0  0  0  0  0  0  0  0  0  0  0
   -3.7463    1.6221    0.4571 O   0  0  0  0  0  0  0  0  0  0  0  0
    2.5218   -0.7276    1.0992 N   0  0  0  0  0  0  0  0  0  0  0  0
    0.9097   -0.1877   -0.6660 C   0  0  0  0  0  0  0  0  0  0  0  0
    1.2519   -1.1371    0.4946 C   0  0  1  0  0  0  0  0  0  0  0  0
    0.3195    1.1484   -0.2204 C   0  0  0  0  0  0  0  0  0  0  0  0
    1.4197   -2.5636    0.0081 C   0  0  0  0  0  0  0  0  0  0  0  0
   -1.0137    1.2061   -0.0195 C   0  0  0  0  0  0  0  0  0  0  0  0
    1.2281    2.2785   -0.0441 C   0  0  0  0  0  0  0  0  0  0  0  0
   -2.0145    0.1175   -0.1718 C   0  0  0  0  0  0  0  0  0  0  0  0
    2.5537    2.2766   -0.2290 C   0  0  0  0  0  0  0  0  0  0  0  0
   -3.4325    0.4970    0.1271 C   0  0  0  0  0  0  0  0  0  0  0  0
    1.7941   -0.0339   -1.2991 H   0  0  0  0  0  0  0  0  0  0  0  0
    0.2413   -0.6845   -1.3791 H   0  0  0  0  0  0  0  0  0  0  0  0
    0.4806   -1.1250    1.2736 H   0  0  0  0  0  0  0  0  0  0  0  0
    2.7591   -1.3678    1.8568 H   0  0  0  0  0  0  0  0  0  0  0  0
    2.4121    0.1850    1.5390 H   0  0  0  0  0  0  0  0  0  0  0  0
   -1.4209    2.1656    0.2935 H   0  0  0  0  0  0  0  0  0  0  0  0
    0.7623    3.2086    0.2777 H   0  0  0  0  0  0  0  0  0  0  0  0
    3.1574    1.4417   -0.5503 H   0  0  0  0  0  0  0  0  0  0  0  0
    0.3317   -4.1654   -0.2164 H   0  0  0  0  0  0  0  0  0  0  0  0
    4.2466    3.1370   -0.2325 H   0  0  0  0  0  0  0  0  0  0  0  0
   -5.1588   -0.3794    0.1989 H   0  0  0  0  0  0  0  0  0  0  0  0
  1 11  1  0  0  0  0
  1 25  1  0  0  0  0
  2 11  2  0  0  0  0
  3 15  1  0  0  0  0
  3 26  1  0  0  0  0
  4 14  2  0  0  0  0
  5 16  1  0  0  0  0
  5 27  1  0  0  0  0
  6 16  2  0  0  0  0
  7  9  1  0  0  0  0
  7 20  1  0  0  0  0
  7 21  1  0  0  0  0
  8  9  1  0  0  0  0
  8 10  1  0  0  0  0
  8 17  1  0  0  0  0
  8 18  1  0  0  0  0
  9 11  1  0  0  0  0
  9 19  1  0  0  0  0
 10 12  2  0  0  0  0
 10 13  1  0  0  0  0
 12 14  1  0  0  0  0
 12 22  1  0  0  0  0
 13 15  2  0  0  0  0
 13 23  1  0  0  0  0
 14 16  1  0  0  0  0
 15 24  1  0  0  0  0
M  END
> <PUBCHEM_COMPOUND_CID>
56928064

> <PUBCHEM_CONFORMER_RMSD>
0.8

> <PUBCHEM_CONFORMER_DIVERSEORDER>
2
8
10
26
12
47
21
24
7
15
39
44
19
43
23
6
38
36
4
34
11
31
46
45
48
14
35
40
33
16
3
1
9
42
27
13
32
17
25
5
28
37
29
20
30
18
22
41

> <PUBCHEM_MMFF94_PARTIAL_CHARGES>
24
1 -0.65
10 -0.14
11 0.66
12 -0.14
13 -0.15
14 0.56
15 -0.07
16 0.72
2 -0.57
20 0.36
21 0.36
22 0.15
23 0.15
24 0.15
25 0.5
26 0.45
27 0.5
3 -0.53
4 -0.57
5 -0.65
6 -0.57
7 -0.99
8 0.14
9 0.33

> <PUBCHEM_EFFECTIVE_ROTOR_COUNT>
6

> <PUBCHEM_PHARMACOPHORE_FEATURES>
10
1 1 acceptor
1 2 acceptor
1 3 donor
1 4 acceptor
1 5 acceptor
1 6 acceptor
1 7 cation
1 7 donor
3 1 2 11 anion
3 5 6 16 anion

> <PUBCHEM_HEAVY_ATOM_COUNT>
16

> <PUBCHEM_ATOM_DEF_STEREO_COUNT>
1

> <PUBCHEM_ATOM_UDEF_STEREO_COUNT>
0

> <PUBCHEM_BOND_DEF_STEREO_COUNT>
2

> <PUBCHEM_BOND_UDEF_STEREO_COUNT>
0

> <PUBCHEM_ISOTOPIC_ATOM_COUNT>
0

> <PUBCHEM_COMPONENT_COUNT>
1

> <PUBCHEM_CACTVS_TAUTO_COUNT>
8

> <PUBCHEM_CONFORMER_ID>
0364A74000000002

> <PUBCHEM_MMFF94_ENERGY>
32.2577

> <PUBCHEM_FEATURE_SELFOVERLAP>
50.872

> <PUBCHEM_SHAPE_FINGERPRINT>
12346645 44 18266459806541233037
12553582 1 17979355592447533579
13380535 76 18199469861711262697
15442244 35 18120651585655016209
15502708 68 18340773650026249236
16945 1 18339088197363466045
19021347 4 18123185697583875796
201361 129 18335976510875020393
20559304 39 18410007779913649229
20645477 70 18342747316954045439
20671657 1 18408878559849316023
20871998 22 18195530526075727434
21524375 3 17984707714250920576
2255824 54 18410008861965677183
23419403 2 17343817964545773908
23530152 11 18267302023905082550
23558518 356 17046271095707575704
23598291 2 18114471097624570669
2748010 2 18126551341246755854
305870 269 18339923705952391685
3071541 12 18410005571999856765
3091708 16 9258555850750898712
43471831 8 18267305339498580637
54173680 148 17186158665758310732
6138700 20 18337943572427913284
7364860 26 18410008866255532108
81228 2 17330575639600638776
81539 233 18271247110127677173

> <PUBCHEM_SHAPE_MULTIPOLES>
289.08
5.67
3.91
0.73
5.58
1.12
0.04
-2.21
0.5
-4.57
-0.14
-0.18
0.08
-0.27

> <PUBCHEM_SHAPE_SELFOVERLAP>
575.839

> <PUBCHEM_SHAPE_VOLUME>
168.3

> <PUBCHEM_COORDINATE_TYPE>
2
5
10

$$$$

