17395376
  -OEChem-06241222493D

 41 43  0     1  0  0  0  0  0999 V2000
    0.3496    0.2218   -0.4176 O   0  0  0  0  0  0  0  0  0  0  0  0
   -1.9582   -1.1022   -0.3674 O   0  0  0  0  0  0  0  0  0  0  0  0
    1.5881    1.6507    0.8787 O   0  0  0  0  0  0  0  0  0  0  0  0
   -6.6228    0.1814    0.7164 O   0  0  0  0  0  0  0  0  0  0  0  0
    3.8634   -1.8390   -1.0291 N   0  0  0  0  0  0  0  0  0  0  0  0
   -3.1961    0.8060    0.2181 N   0  0  0  0  0  0  0  0  0  0  0  0
   -5.5429    1.0555    0.6880 N   0  0  0  0  0  0  0  0  0  0  0  0
   -0.8189    1.0039   -0.1462 C   0  0  1  0  0  0  0  0  0  0  0  0
   -0.9332    2.1201   -1.1893 C   0  0  0  0  0  0  0  0  0  0  0  0
    4.0113   -0.0333    0.2726 C   0  0  0  0  0  0  0  0  0  0  0  0
    2.6632   -0.1886   -0.1559 C   0  0  0  0  0  0  0  0  0  0  0  0
    4.7432   -1.0814   -0.2893 C   0  0  0  0  0  0  0  0  0  0  0  0
   -2.0497    0.0976   -0.1229 C   0  0  0  0  0  0  0  0  0  0  0  0
    2.6040   -1.3072   -0.9547 C   0  0  0  0  0  0  0  0  0  0  0  0
    1.5334    0.6400    0.1568 C   0  0  0  0  0  0  0  0  0  0  0  0
   -1.0949    1.6100   -2.6170 C   0  0  0  0  0  0  0  0  0  0  0  0
    4.6811    0.9014    1.0869 C   0  0  0  0  0  0  0  0  0  0  0  0
    6.1170   -1.2424   -0.0766 C   0  0  0  0  0  0  0  0  0  0  0  0
    6.0551    0.7530    1.3085 C   0  0  0  0  0  0  0  0  0  0  0  0
    6.7600   -0.3031    0.7347 C   0  0  0  0  0  0  0  0  0  0  0  0
   -4.4938    0.2980    0.3551 C   0  0  0  0  0  0  0  0  0  0  0  0
   -4.8474   -1.0487    0.1629 C   0  0  0  0  0  0  0  0  0  0  0  0
   -6.1960   -1.0685    0.4021 C   0  0  0  0  0  0  0  0  0  0  0  0
   -7.2154   -2.1249    0.3850 C   0  0  0  0  0  0  0  0  0  0  0  0
   -0.7524    1.4454    0.8571 H   0  0  0  0  0  0  0  0  0  0  0  0
   -1.7714    2.7863   -0.9579 H   0  0  0  0  0  0  0  0  0  0  0  0
   -0.0260    2.7358   -1.1578 H   0  0  0  0  0  0  0  0  0  0  0  0
    1.7856   -1.7797   -1.4805 H   0  0  0  0  0  0  0  0  0  0  0  0
    4.1122   -2.6677   -1.5515 H   0  0  0  0  0  0  0  0  0  0  0  0
   -1.1318    2.4538   -3.3136 H   0  0  0  0  0  0  0  0  0  0  0  0
   -2.0209    1.0394   -2.7360 H   0  0  0  0  0  0  0  0  0  0  0  0
   -0.2554    0.9714   -2.9090 H   0  0  0  0  0  0  0  0  0  0  0  0
    4.1528    1.7324    1.5447 H   0  0  0  0  0  0  0  0  0  0  0  0
    6.6667   -2.0644   -0.5229 H   0  0  0  0  0  0  0  0  0  0  0  0
   -3.1228    1.8002    0.4155 H   0  0  0  0  0  0  0  0  0  0  0  0
    6.5770    1.4709    1.9358 H   0  0  0  0  0  0  0  0  0  0  0  0
    7.8268   -0.3993    0.9201 H   0  0  0  0  0  0  0  0  0  0  0  0
   -4.2431   -1.9008   -0.1079 H   0  0  0  0  0  0  0  0  0  0  0  0
   -6.7773   -3.0927    0.1222 H   0  0  0  0  0  0  0  0  0  0  0  0
   -7.9949   -1.8956   -0.3482 H   0  0  0  0  0  0  0  0  0  0  0  0
   -7.6857   -2.2218    1.3684 H   0  0  0  0  0  0  0  0  0  0  0  0
  1  8  1  0  0  0  0
  1 15  1  0  0  0  0
  2 13  2  0  0  0  0
  3 15  2  0  0  0  0
  4  7  1  0  0  0  0
  4 23  1  0  0  0  0
  5 12  1  0  0  0  0
  5 14  1  0  0  0  0
  5 29  1  0  0  0  0
  6 13  1  0  0  0  0
  6 21  1  0  0  0  0
  6 35  1  0  0  0  0
  7 21  2  0  0  0  0
  8  9  1  0  0  0  0
  8 13  1  0  0  0  0
  8 25  1  0  0  0  0
  9 16  1  0  0  0  0
  9 26  1  0  0  0  0
  9 27  1  0  0  0  0
 10 11  1  0  0  0  0
 10 12  1  0  0  0  0
 10 17  2  0  0  0  0
 11 14  2  0  0  0  0
 11 15  1  0  0  0  0
 12 18  2  0  0  0  0
 14 28  1  0  0  0  0
 16 30  1  0  0  0  0
 16 31  1  0  0  0  0
 16 32  1  0  0  0  0
 17 19  1  0  0  0  0
 17 33  1  0  0  0  0
 18 20  1  0  0  0  0
 18 34  1  0  0  0  0
 19 20  2  0  0  0  0
 19 36  1  0  0  0  0
 20 37  1  0  0  0  0
 21 22  1  0  0  0  0
 22 23  2  0  0  0  0
 22 38  1  0  0  0  0
 23 24  1  0  0  0  0
 24 39  1  0  0  0  0
 24 40  1  0  0  0  0
 24 41  1  0  0  0  0
M  END
> <PUBCHEM_COMPOUND_CID>
17395376

> <PUBCHEM_CONFORMER_RMSD>
0.8

> <PUBCHEM_CONFORMER_DIVERSEORDER>
1
58
189
188
224
43
214
2
133
175
102
61
225
38
267
41
72
222
250
99
101
260
281
56
92
184
69
153
237
71
31
236
103
151
208
274
282
213
36
180
254
16
155
259
215
243
229
134
113
6
257
172
34
291
289
163
192
204
199
141
241
76
111
171
119
270
85
152
187
75
245
195
66
160
78
255
26
176
96
144
228
9
55
148
206
52
105
147
129
271
5
137
145
164
70
32
166
280
24
247
11
230
227
54
249
221
253
123
232
276
261
104
4
81
50
57
60
37
248
205
73
201
269
112
138
177
63
100
170
139
19
40
284
196
45
46
12
277
238
47
131
235
3
211
209
256
136
202
127
157
13
33
142
49
68
44
231
207
266
169
220
109
246
252
159
181
62
240
168
258
203
156
154
162
108
79
86
120
165
83
190
262
244
94
88
186
275
218
283
77
21
65
121
51
106
114
288
95
185
183
20
118
272
125
82
150
265
80
87
239
107
59
251
210
290
242
191
25
122
178
64
15
182
149
67
179
29
194
173
48
174
115
198
23
28
268
193
264
116
212
97
167
98
35
110
84
10
226
124
17
74
22
128
140
219
53
161
143
292
200
217
90
146
30
216
263
223
14
91
273
117
278
197
286
126
233
39
42
8
135
287
132
130
89
279
7
158
18
27
285
234
93

> <PUBCHEM_MMFF94_PARTIAL_CHARGES>
29
1 -0.43
11 -0.09
12 -0.15
13 0.57
14 -0.3
15 0.81
17 -0.15
18 -0.15
19 -0.15
2 -0.57
20 -0.15
21 0.35
22 -0.15
23 -0.04
24 0.18
28 0.15
29 0.27
3 -0.57
33 0.15
34 0.15
35 0.37
36 0.15
37 0.15
38 0.15
4 -0.02
5 0.03
6 -0.49
7 -0.41
8 0.34

> <PUBCHEM_EFFECTIVE_ROTOR_COUNT>
7

> <PUBCHEM_PHARMACOPHORE_FEATURES>
9
1 16 hydrophobe
1 2 acceptor
1 3 acceptor
1 5 cation
1 5 donor
1 6 donor
5 4 7 21 22 23 rings
5 5 10 11 12 14 rings
6 10 12 17 18 19 20 rings

> <PUBCHEM_HEAVY_ATOM_COUNT>
24

> <PUBCHEM_ATOM_DEF_STEREO_COUNT>
0

> <PUBCHEM_ATOM_UDEF_STEREO_COUNT>
1

> <PUBCHEM_BOND_DEF_STEREO_COUNT>
0

> <PUBCHEM_BOND_UDEF_STEREO_COUNT>
0

> <PUBCHEM_ISOTOPIC_ATOM_COUNT>
0

> <PUBCHEM_COMPONENT_COUNT>
1

> <PUBCHEM_CACTVS_TAUTO_COUNT>
6

> <PUBCHEM_CONFORMER_ID>
01096EB000000001

> <PUBCHEM_MMFF94_ENERGY>
36.2504

> <PUBCHEM_FEATURE_SELFOVERLAP>
45.76

> <PUBCHEM_SHAPE_FINGERPRINT>
10 15 18261398823822950704
106641 1 18041282079956257178
10763959 59 9223225252311632258
12516196 113 18260828193988183337
12596602 18 17676201394706036331
12730499 353 18040151838650127830
13073987 5 17895470427137891833
13402501 40 18409166619111546818
13533116 47 6988053323150985292
13668630 136 15123789613261004426
13685833 64 18410571773665475491
13690498 29 13685718478669710961
13782708 43 18271247248104745962
13862211 1 17775286054064565811
14251764 18 17967533446078333799
14294032 229 16341746238123642653
14341114 176 17749104495657363409
14556957 393 15410604938974667327
14849402 71 17531815619290408416
15188451 53 16702031893910769472
15475509 35 17915476076699821010
1813 80 17918270952687546597
18222031 100 17775283842288400605
18335252 114 12031795729863229795
19141452 34 18334014964914080879
21130935 74 18260545657991611418
21267235 1 17968090967731104678
21424621 283 7060390231923284383
21623969 137 18113334223733596318
21637258 2 17489592251085054933
22224240 67 18041005016433322154
23522609 53 18055602188122046884
23557571 272 18130507547973025908
23622692 88 15430040954463235952
29717793 49 14476964510404937690
3004659 81 17346593062963832966
312425 54 18335129943135542139
314173 85 18060415828937975229
3383291 50 18129655302171894243
3663271 9 17675918820391842603
4073 2 18338233761144739802
4325135 7 18272084981770944436
4340502 62 17749105582511170118
5104073 3 18116438235806645810
5385378 56 5400534466986769885
5969126 39 17418381306981666453

> <PUBCHEM_SHAPE_MULTIPOLES>
455.49
19.36
1.86
1.29
11.13
0.11
0.56
-9.3
-6.76
1.21
0.61
-0.6
0.58
1.36

> <PUBCHEM_SHAPE_SELFOVERLAP>
983.824

> <PUBCHEM_SHAPE_VOLUME>
250.5

> <PUBCHEM_COORDINATE_TYPE>
2
5
10

$$$$

