11954080
  -OEChem-07051213063D

 54 57  0     1  0  0  0  0  0999 V2000
    4.5928   -0.8262   -0.0538 O   0  0  0  0  0  0  0  0  0  0  0  0
   -4.3950    0.7241   -0.1260 O   0  0  0  0  0  0  0  0  0  0  0  0
    6.6058    0.0787    0.3994 O   0  0  0  0  0  0  0  0  0  0  0  0
   -5.9126   -0.4945    1.1185 O   0  0  0  0  0  0  0  0  0  0  0  0
   -1.1484   -0.8989    0.2162 C   0  0  1  0  0  0  0  0  0  0  0  0
    0.2950   -0.8577   -0.2948 C   0  0  1  0  0  0  0  0  0  0  0  0
   -1.9596    0.3454   -0.1973 C   0  0  2  0  0  0  0  0  0  0  0  0
    0.9936    0.4086    0.3003 C   0  0  1  0  0  0  0  0  0  0  0  0
    2.4981    0.4980   -0.1300 C   0  0  2  0  0  0  0  0  0  0  0  0
   -1.3035    1.5782    0.4392 C   0  0  0  0  0  0  0  0  0  0  0  0
    0.1784    1.7015    0.0386 C   0  0  0  0  0  0  0  0  0  0  0  0
   -3.3267   -0.0390    0.4006 C   0  0  2  0  0  0  0  0  0  0  0  0
   -2.0492   -2.0627   -0.1881 C   0  0  0  0  0  0  0  0  0  0  0  0
    1.0622   -2.1378    0.0687 C   0  0  0  0  0  0  0  0  0  0  0  0
    3.1939   -0.8142    0.2874 C   0  0  1  0  0  0  0  0  0  0  0  0
   -3.4736   -1.5362    0.0649 C   0  0  0  0  0  0  0  0  0  0  0  0
    2.5355   -2.0534   -0.3166 C   0  0  0  0  0  0  0  0  0  0  0  0
    3.2424    1.5957    0.6546 C   0  0  0  0  0  0  0  0  0  0  0  0
   -2.0821    0.5586   -1.7278 C   0  0  0  0  0  0  0  0  0  0  0  0
    2.6434    0.7712   -1.6467 C   0  0  0  0  0  0  0  0  0  0  0  0
    4.7435    1.5753    0.4015 C   0  0  0  0  0  0  0  0  0  0  0  0
    5.3886    0.2139    0.2934 C   0  0  0  0  0  0  0  0  0  0  0  0
   -5.6485    0.3923    0.3180 C   0  0  0  0  0  0  0  0  0  0  0  0
   -6.6740    1.2794   -0.3203 C   0  0  0  0  0  0  0  0  0  0  0  0
   -1.0930   -0.9278    1.3176 H   0  0  0  0  0  0  0  0  0  0  0  0
    0.2806   -0.7913   -1.3876 H   0  0  0  0  0  0  0  0  0  0  0  0
    0.9896    0.2773    1.3944 H   0  0  0  0  0  0  0  0  0  0  0  0
   -1.3632    1.5130    1.5334 H   0  0  0  0  0  0  0  0  0  0  0  0
   -1.8396    2.4918    0.1555 H   0  0  0  0  0  0  0  0  0  0  0  0
    0.2411    1.9849   -1.0165 H   0  0  0  0  0  0  0  0  0  0  0  0
    0.6091    2.5339    0.6063 H   0  0  0  0  0  0  0  0  0  0  0  0
   -3.3030    0.0932    1.4916 H   0  0  0  0  0  0  0  0  0  0  0  0
   -1.8459   -2.9627    0.4012 H   0  0  0  0  0  0  0  0  0  0  0  0
   -1.9199   -2.3221   -1.2448 H   0  0  0  0  0  0  0  0  0  0  0  0
    0.6130   -3.0024   -0.4335 H   0  0  0  0  0  0  0  0  0  0  0  0
    0.9841   -2.3236    1.1476 H   0  0  0  0  0  0  0  0  0  0  0  0
    3.1476   -0.9256    1.3806 H   0  0  0  0  0  0  0  0  0  0  0  0
   -4.1072   -1.7123   -0.8118 H   0  0  0  0  0  0  0  0  0  0  0  0
   -3.9241   -2.0768    0.9049 H   0  0  0  0  0  0  0  0  0  0  0  0
    3.0593   -2.9534    0.0288 H   0  0  0  0  0  0  0  0  0  0  0  0
    2.6472   -2.0545   -1.4075 H   0  0  0  0  0  0  0  0  0  0  0  0
    3.0689    1.4583    1.7305 H   0  0  0  0  0  0  0  0  0  0  0  0
    2.8589    2.5922    0.4074 H   0  0  0  0  0  0  0  0  0  0  0  0
   -1.1125    0.6789   -2.2179 H   0  0  0  0  0  0  0  0  0  0  0  0
   -2.5886   -0.2735   -2.2267 H   0  0  0  0  0  0  0  0  0  0  0  0
   -2.6617    1.4634   -1.9452 H   0  0  0  0  0  0  0  0  0  0  0  0
    2.3102    1.7832   -1.8999 H   0  0  0  0  0  0  0  0  0  0  0  0
    3.6807    0.6858   -1.9861 H   0  0  0  0  0  0  0  0  0  0  0  0
    2.0623    0.0736   -2.2552 H   0  0  0  0  0  0  0  0  0  0  0  0
    5.2411    2.1219    1.2109 H   0  0  0  0  0  0  0  0  0  0  0  0
    4.9628    2.1037   -0.5339 H   0  0  0  0  0  0  0  0  0  0  0  0
   -6.6482    1.1528   -1.4055 H   0  0  0  0  0  0  0  0  0  0  0  0
   -6.4827    2.3206   -0.0491 H   0  0  0  0  0  0  0  0  0  0  0  0
   -7.6688    1.0017    0.0397 H   0  0  0  0  0  0  0  0  0  0  0  0
  1 15  1  0  0  0  0
  1 22  1  0  0  0  0
  2 12  1  0  0  0  0
  2 23  1  0  0  0  0
  3 22  2  0  0  0  0
  4 23  2  0  0  0  0
  5  6  1  0  0  0  0
  5  7  1  0  0  0  0
  5 13  1  0  0  0  0
  5 25  1  0  0  0  0
  6  8  1  0  0  0  0
  6 14  1  0  0  0  0
  6 26  1  0  0  0  0
  7 10  1  0  0  0  0
  7 12  1  0  0  0  0
  7 19  1  0  0  0  0
  8  9  1  0  0  0  0
  8 11  1  0  0  0  0
  8 27  1  0  0  0  0
  9 15  1  0  0  0  0
  9 18  1  0  0  0  0
  9 20  1  0  0  0  0
 10 11  1  0  0  0  0
 10 28  1  0  0  0  0
 10 29  1  0  0  0  0
 11 30  1  0  0  0  0
 11 31  1  0  0  0  0
 12 16  1  0  0  0  0
 12 32  1  0  0  0  0
 13 16  1  0  0  0  0
 13 33  1  0  0  0  0
 13 34  1  0  0  0  0
 14 17  1  0  0  0  0
 14 35  1  0  0  0  0
 14 36  1  0  0  0  0
 15 17  1  0  0  0  0
 15 37  1  0  0  0  0
 16 38  1  0  0  0  0
 16 39  1  0  0  0  0
 17 40  1  0  0  0  0
 17 41  1  0  0  0  0
 18 21  1  0  0  0  0
 18 42  1  0  0  0  0
 18 43  1  0  0  0  0
 19 44  1  0  0  0  0
 19 45  1  0  0  0  0
 19 46  1  0  0  0  0
 20 47  1  0  0  0  0
 20 48  1  0  0  0  0
 20 49  1  0  0  0  0
 21 22  1  0  0  0  0
 21 50  1  0  0  0  0
 21 51  1  0  0  0  0
 23 24  1  0  0  0  0
 24 52  1  0  0  0  0
 24 53  1  0  0  0  0
 24 54  1  0  0  0  0
M  END
> <PUBCHEM_COMPOUND_CID>
11954080

> <PUBCHEM_CONFORMER_RMSD>
0.8

> <PUBCHEM_CONFORMER_DIVERSEORDER>
1
2

> <PUBCHEM_MMFF94_PARTIAL_CHARGES>
10
1 -0.43
12 0.28
15 0.28
2 -0.43
21 0.06
22 0.66
23 0.66
24 0.06
3 -0.57
4 -0.57

> <PUBCHEM_EFFECTIVE_ROTOR_COUNT>
4

> <PUBCHEM_PHARMACOPHORE_FEATURES>
6
1 3 acceptor
1 4 acceptor
5 5 7 12 13 16 rings
6 1 9 15 18 21 22 rings
6 5 6 7 8 10 11 rings
6 6 8 9 14 15 17 rings

> <PUBCHEM_HEAVY_ATOM_COUNT>
24

> <PUBCHEM_ATOM_DEF_STEREO_COUNT>
7

> <PUBCHEM_ATOM_UDEF_STEREO_COUNT>
0

> <PUBCHEM_BOND_DEF_STEREO_COUNT>
0

> <PUBCHEM_BOND_UDEF_STEREO_COUNT>
0

> <PUBCHEM_ISOTOPIC_ATOM_COUNT>
0

> <PUBCHEM_COMPONENT_COUNT>
1

> <PUBCHEM_CACTVS_TAUTO_COUNT>
1

> <PUBCHEM_CONFORMER_ID>
00B667A000000001

> <PUBCHEM_MMFF94_ENERGY>
80.5703

> <PUBCHEM_FEATURE_SELFOVERLAP>
30.542

> <PUBCHEM_SHAPE_FINGERPRINT>
10 15 18273218569368696480
10366900 7 5906051460595700502
10906281 52 18337935840384155403
11089746 13 17385446509707634057
12236239 1 18411419492413348203
12403259 415 18342750598061620540
12403814 3 17847065467513288437
12616971 3 17346597430871700631
12788726 201 17241041119386972249
12838862 33 18337410295422520168
13140716 1 18193555575659377361
13402501 40 18411982455320275858
13533116 47 17968377960744174306
13583140 156 4678816168733869151
14341114 176 18413105091426818578
14790565 3 18337669698588637833
15142383 8 17274831280603774085
15196674 1 18337391543563566314
15788980 27 18060701667163433248
1813 80 17060616702802499359
19141452 34 18410856525670610399
200 152 18041002825430061551
20645477 56 18342745117577336101
21033648 29 18270419242328418284
21150785 3 16805330981370668125
21236236 1 18334860459987590055
21267235 1 18410005568448551514
21279426 13 18193555795267192493
21421861 104 18059022799097634602
22182313 1 18059300988466100559
23402539 116 18187090516186619502
23557571 272 17561085847055474277
23559900 14 18334863779437965416
300161 21 18334298664815472495
3004659 81 18344144808669464120
335352 9 18408604756132498086
34934 24 18335706035414783431
350125 39 18412825785413821692
3545911 37 18411136943705363042
3633792 109 18188772881142398249
4073 2 18059289864216370018
42630746 31 18334293193079943526
4340502 62 18412541016023056691
5104073 3 18339083687674387578
542803 24 17989488498424811476
7495541 125 14404892570917791181

> <PUBCHEM_SHAPE_MULTIPOLES>
470.43
13.47
2.02
0.97
5.46
0.6
-0.35
-3.38
2.15
-0.29
0.04
0.13
-0.18
0.42

> <PUBCHEM_SHAPE_SELFOVERLAP>
1001.511

> <PUBCHEM_SHAPE_VOLUME>
258.7

> <PUBCHEM_COORDINATE_TYPE>
2
5
10

$$$$

