49787032
  -OEChem-07051213112D

 71 71  0     1  0  0  0  0  0999 V2000
    8.9562   -5.7094    0.0000 Cl  0  0  0  0  0  0  0  0  0  0  0  0
    2.0280    4.2906    0.0000 O   0  0  0  0  0  0  0  0  0  0  0  0
    2.0000    7.5694    0.0000 O   0  0  0  0  0  0  0  0  0  0  0  0
    4.6261    5.7906    0.0000 O   0  0  0  0  0  0  0  0  0  0  0  0
    3.7601    1.2906    0.0000 O   0  0  0  0  0  0  0  0  0  0  0  0
    3.7601    7.2906    0.0000 N   0  0  0  0  0  0  0  0  0  0  0  0
    4.6261    2.7906    0.0000 N   0  0  0  0  0  0  0  0  0  0  0  0
    7.2242   -1.7094    0.0000 C   0  0  3  0  0  0  0  0  0  0  0  0
    7.2242   -2.7094    0.0000 C   0  0  0  0  0  0  0  0  0  0  0  0
    8.0902   -3.2094    0.0000 C   0  0  0  0  0  0  0  0  0  0  0  0
    8.0902   -4.2094    0.0000 C   0  0  0  0  0  0  0  0  0  0  0  0
    7.2242   -4.7094    0.0000 C   0  0  0  0  0  0  0  0  0  0  0  0
    6.3582   -1.2094    0.0000 C   0  0  0  0  0  0  0  0  0  0  0  0
    8.0902   -1.2094    0.0000 C   0  0  0  0  0  0  0  0  0  0  0  0
    7.2242   -5.7094    0.0000 C   0  0  0  0  0  0  0  0  0  0  0  0
    6.3582   -0.2094    0.0000 C   0  0  0  0  0  0  0  0  0  0  0  0
    4.5691    7.8784    0.0000 C   0  0  2  0  0  0  0  0  0  0  0  0
    5.4921    0.2906    0.0000 C   0  0  0  0  0  0  0  0  0  0  0  0
    5.4921    1.2906    0.0000 C   0  0  0  0  0  0  0  0  0  0  0  0
    8.9562   -4.7094    0.0000 C   0  0  0  0  0  0  0  0  0  0  0  0
    6.3582   -6.2094    0.0000 C   0  0  0  0  0  0  0  0  0  0  0  0
    4.2601    8.8294    0.0000 C   0  0  0  0  0  0  0  0  0  0  0  0
    5.5202    7.5694    0.0000 C   0  0  0  0  0  0  0  0  0  0  0  0
    2.9511    7.8784    0.0000 C   0  0  0  0  0  0  0  0  0  0  0  0
    3.7601    3.2906    0.0000 C   0  0  0  0  0  0  0  0  0  0  0  0
    3.7601    4.2906    0.0000 C   0  0  0  0  0  0  0  0  0  0  0  0
    4.6261    1.7906    0.0000 C   0  0  0  0  0  0  0  0  0  0  0  0
    3.2601    8.8294    0.0000 C   0  0  0  0  0  0  0  0  0  0  0  0
    3.7601    6.2906    0.0000 C   0  0  0  0  0  0  0  0  0  0  0  0
    2.8940    4.7906    0.0000 C   0  0  0  0  0  0  0  0  0  0  0  0
    2.8940    5.7906    0.0000 C   0  0  0  0  0  0  0  0  0  0  0  0
    6.3582   -7.2094    0.0000 C   0  0  0  0  0  0  0  0  0  0  0  0
    2.0280    3.2906    0.0000 C   0  0  0  0  0  0  0  0  0  0  0  0
    6.3582   -8.2094    0.0000 C   0  0  0  0  0  0  0  0  0  0  0  0
    7.2242   -1.0894    0.0000 H   0  0  0  0  0  0  0  0  0  0  0  0
    6.6136   -2.6018    0.0000 H   0  0  0  0  0  0  0  0  0  0  0  0
    7.0121   -3.2920    0.0000 H   0  0  0  0  0  0  0  0  0  0  0  0
    8.7008   -3.3171    0.0000 H   0  0  0  0  0  0  0  0  0  0  0  0
    8.3023   -2.6268    0.0000 H   0  0  0  0  0  0  0  0  0  0  0  0
    7.0121   -4.1268    0.0000 H   0  0  0  0  0  0  0  0  0  0  0  0
    6.6136   -4.8171    0.0000 H   0  0  0  0  0  0  0  0  0  0  0  0
    5.8212   -1.5194    0.0000 H   0  0  0  0  0  0  0  0  0  0  0  0
    8.4002   -1.7464    0.0000 H   0  0  0  0  0  0  0  0  0  0  0  0
    8.6271   -0.8994    0.0000 H   0  0  0  0  0  0  0  0  0  0  0  0
    7.7802   -0.6725    0.0000 H   0  0  0  0  0  0  0  0  0  0  0  0
    7.4362   -6.2920    0.0000 H   0  0  0  0  0  0  0  0  0  0  0  0
    7.8348   -5.6018    0.0000 H   0  0  0  0  0  0  0  0  0  0  0  0
    6.8951    0.1006    0.0000 H   0  0  0  0  0  0  0  0  0  0  0  0
    4.6661    7.2660    0.0000 H   0  0  0  0  0  0  0  0  0  0  0  0
    4.8815    0.3982    0.0000 H   0  0  0  0  0  0  0  0  0  0  0  0
    5.2801   -0.2920    0.0000 H   0  0  0  0  0  0  0  0  0  0  0  0
    6.1027    1.1829    0.0000 H   0  0  0  0  0  0  0  0  0  0  0  0
    5.7042    1.8732    0.0000 H   0  0  0  0  0  0  0  0  0  0  0  0
    9.4932   -4.3994    0.0000 H   0  0  0  0  0  0  0  0  0  0  0  0
    6.1461   -5.6268    0.0000 H   0  0  0  0  0  0  0  0  0  0  0  0
    5.7476   -6.3171    0.0000 H   0  0  0  0  0  0  0  0  0  0  0  0
    4.6245    9.3310    0.0000 H   0  0  0  0  0  0  0  0  0  0  0  0
    5.3286    6.9797    0.0000 H   0  0  0  0  0  0  0  0  0  0  0  0
    6.1098    7.3778    0.0000 H   0  0  0  0  0  0  0  0  0  0  0  0
    5.7117    8.1590    0.0000 H   0  0  0  0  0  0  0  0  0  0  0  0
    3.1495    3.3982    0.0000 H   0  0  0  0  0  0  0  0  0  0  0  0
    3.5480    2.7080    0.0000 H   0  0  0  0  0  0  0  0  0  0  0  0
    4.3707    4.1829    0.0000 H   0  0  0  0  0  0  0  0  0  0  0  0
    3.9721    4.8732    0.0000 H   0  0  0  0  0  0  0  0  0  0  0  0
    2.8956    9.3310    0.0000 H   0  0  0  0  0  0  0  0  0  0  0  0
    5.1630    3.1006    0.0000 H   0  0  0  0  0  0  0  0  0  0  0  0
    2.3571    6.1006    0.0000 H   0  0  0  0  0  0  0  0  0  0  0  0
    1.4080    3.2906    0.0000 H   0  0  0  0  0  0  0  0  0  0  0  0
    2.0280    2.6706    0.0000 H   0  0  0  0  0  0  0  0  0  0  0  0
    2.6480    3.2906    0.0000 H   0  0  0  0  0  0  0  0  0  0  0  0
    6.3582   -8.8294    0.0000 H   0  0  0  0  0  0  0  0  0  0  0  0
  1 20  1  0  0  0  0
  2 30  1  0  0  0  0
  2 33  1  0  0  0  0
  3 24  2  0  0  0  0
  4 29  2  0  0  0  0
  5 27  2  0  0  0  0
  6 17  1  0  0  0  0
  6 24  1  0  0  0  0
  6 29  1  0  0  0  0
  7 25  1  0  0  0  0
  7 27  1  0  0  0  0
  7 66  1  0  0  0  0
  8  9  1  0  0  0  0
  8 13  1  0  0  0  0
  8 14  1  0  0  0  0
  8 35  1  0  0  0  0
  9 10  1  0  0  0  0
  9 36  1  0  0  0  0
  9 37  1  0  0  0  0
 10 11  1  0  0  0  0
 10 38  1  0  0  0  0
 10 39  1  0  0  0  0
 11 12  1  0  0  0  0
 11 20  2  0  0  0  0
 12 15  1  0  0  0  0
 12 40  1  0  0  0  0
 12 41  1  0  0  0  0
 13 16  2  0  0  0  0
 13 42  1  0  0  0  0
 14 43  1  0  0  0  0
 14 44  1  0  0  0  0
 14 45  1  0  0  0  0
 15 21  1  0  0  0  0
 15 46  1  0  0  0  0
 15 47  1  0  0  0  0
 16 18  1  0  0  0  0
 16 48  1  0  0  0  0
 17 22  1  0  0  0  0
 17 23  1  6  0  0  0
 17 49  1  0  0  0  0
 18 19  1  0  0  0  0
 18 50  1  0  0  0  0
 18 51  1  0  0  0  0
 19 27  1  0  0  0  0
 19 52  1  0  0  0  0
 19 53  1  0  0  0  0
 20 54  1  0  0  0  0
 21 32  1  0  0  0  0
 21 55  1  0  0  0  0
 21 56  1  0  0  0  0
 22 28  2  0  0  0  0
 22 57  1  0  0  0  0
 23 58  1  0  0  0  0
 23 59  1  0  0  0  0
 23 60  1  0  0  0  0
 24 28  1  0  0  0  0
 25 26  1  0  0  0  0
 25 61  1  0  0  0  0
 25 62  1  0  0  0  0
 26 30  1  0  0  0  0
 26 63  1  0  0  0  0
 26 64  1  0  0  0  0
 28 65  1  0  0  0  0
 29 31  1  0  0  0  0
 30 31  2  0  0  0  0
 31 67  1  0  0  0  0
 32 34  3  0  0  0  0
 33 68  1  0  0  0  0
 33 69  1  0  0  0  0
 33 70  1  0  0  0  0
 34 71  1  0  0  0  0
M  END
> <PUBCHEM_COMPOUND_CID>
49787032

> <PUBCHEM_COMPOUND_CANONICALIZED>
1

> <PUBCHEM_CACTVS_COMPLEXITY>
863

> <PUBCHEM_CACTVS_HBOND_ACCEPTOR>
4

> <PUBCHEM_CACTVS_HBOND_DONOR>
1

> <PUBCHEM_CACTVS_ROTATABLE_BOND>
15

> <PUBCHEM_CACTVS_SUBSKEYS>
AAADcfB7OAAEAAAAAAAAAAAAAAAAAQAAAAAAAAAAAAAAAAAAAAAAHgIQAAAADS/BgEYCAAPABADIGiFSEAiACAAgIAAICIEIAEgAABIAgQAEAAACliCIAYMAgMAMAAAAAAAAAAAAAAAAAAAAAAAAAAAAAA==

> <PUBCHEM_IUPAC_OPENEYE_NAME>
(E,9E)-9-(chloromethylene)-N-[(E)-3-methoxy-5-[(2S)-2-methyl-5-oxo-2H-pyrrol-1-yl]-5-oxo-pent-3-enyl]-6-methyl-tetradec-4-en-13-ynamide

> <PUBCHEM_IUPAC_CAS_NAME>
(E,9E)-9-(chloromethylidene)-N-[(E)-3-methoxy-5-[(2S)-2-methyl-5-oxo-2H-pyrrol-1-yl]-5-oxopent-3-enyl]-6-methyltetradec-4-en-13-ynamide

> <PUBCHEM_IUPAC_NAME>
(E,9E)-9-(chloromethylidene)-N-[(E)-3-methoxy-5-[(2S)-2-methyl-5-oxo-2H-pyrrol-1-yl]-5-oxopent-3-enyl]-6-methyltetradec-4-en-13-ynamide

> <PUBCHEM_IUPAC_SYSTEMATIC_NAME>
(E,9E)-9-(chloranylmethylidene)-N-[(E)-3-methoxy-5-[(2S)-2-methyl-5-oxidanylidene-2H-pyrrol-1-yl]-5-oxidanylidene-pent-3-enyl]-6-methyl-tetradec-4-en-13-ynamide

> <PUBCHEM_IUPAC_TRADITIONAL_NAME>
(E,9E)-9-(chloromethylene)-N-[(E)-5-keto-5-[(5S)-2-keto-5-methyl-3-pyrrolin-1-yl]-3-methoxy-pent-3-enyl]-6-methyl-tetradec-4-en-13-ynamide

> <PUBCHEM_IUPAC_INCHI>
InChI=1S/C27H37ClN2O4/c1-5-6-7-11-23(20-28)15-13-21(2)10-8-9-12-25(31)29-18-17-24(34-4)19-27(33)30-22(3)14-16-26(30)32/h1,8,10,14,16,19-22H,6-7,9,11-13,15,17-18H2,2-4H3,(H,29,31)/b10-8+,23-20+,24-19+/t21?,22-/m0/s1

> <PUBCHEM_IUPAC_INCHIKEY>
KZVHAGNFWJIOMX-YIEYWENTSA-N

> <PUBCHEM_XLOGP3_AA>
4.9

> <PUBCHEM_EXACT_MASS>
488.244185

> <PUBCHEM_MOLECULAR_FORMULA>
C27H37ClN2O4

> <PUBCHEM_MOLECULAR_WEIGHT>
489.04668

> <PUBCHEM_OPENEYE_CAN_SMILES>
CC1C=CC(=O)N1C(=O)C=C(CCNC(=O)CCC=CC(C)CCC(=CCl)CCCC#C)OC

> <PUBCHEM_OPENEYE_ISO_SMILES>
C[C@H]1C=CC(=O)N1C(=O)/C=C(\CCNC(=O)CC/C=C/C(C)CC/C(=C/Cl)/CCCC#C)/OC

> <PUBCHEM_CACTVS_TPSA>
75.7

> <PUBCHEM_MONOISOTOPIC_WEIGHT>
488.244185

> <PUBCHEM_TOTAL_CHARGE>
0

> <PUBCHEM_HEAVY_ATOM_COUNT>
34

> <PUBCHEM_ATOM_DEF_STEREO_COUNT>
1

> <PUBCHEM_ATOM_UDEF_STEREO_COUNT>
1

> <PUBCHEM_BOND_DEF_STEREO_COUNT>
3

> <PUBCHEM_BOND_UDEF_STEREO_COUNT>
0

> <PUBCHEM_ISOTOPIC_ATOM_COUNT>
0

> <PUBCHEM_COMPONENT_COUNT>
1

> <PUBCHEM_CACTVS_TAUTO_COUNT>
2

> <PUBCHEM_COORDINATE_TYPE>
1
5
255

> <PUBCHEM_BONDANNOTATIONS>
17  23  6
8  14  3

$$$$

