4306
  -OEChem-06261200023D

 43 44  0     0  0  0  0  0  0999 V2000
   -6.1130    0.2270    1.7315 Cl  0  0  0  0  0  0  0  0  0  0  0  0
    0.3506    1.7519   -0.6912 S   0  0  0  0  0  0  0  0  0  0  0  0
    0.7180    1.2891   -2.0159 O   0  0  0  0  0  0  0  0  0  0  0  0
    0.2978    3.1724   -0.4032 O   0  0  0  0  0  0  0  0  0  0  0  0
    1.3373    0.9916    0.4656 N   0  0  0  0  0  0  0  0  0  0  0  0
    8.9383   -0.4487   -0.3636 N   0  0  0  0  0  0  0  0  0  0  0  0
    3.9597   -0.4226    0.2219 C   0  0  0  0  0  0  0  0  0  0  0  0
    2.7813   -0.9177    1.0672 C   0  0  0  0  0  0  0  0  0  0  0  0
    5.3210   -0.8998    0.7379 C   0  0  0  0  0  0  0  0  0  0  0  0
    1.4332   -0.4839    0.4993 C   0  0  0  0  0  0  0  0  0  0  0  0
    6.4981   -0.4338   -0.1228 C   0  0  0  0  0  0  0  0  0  0  0  0
   -1.2412    1.0879   -0.3038 C   0  0  0  0  0  0  0  0  0  0  0  0
    7.8274   -0.9180    0.4561 C   0  0  0  0  0  0  0  0  0  0  0  0
   -1.6543   -0.0798   -0.9221 C   0  0  0  0  0  0  0  0  0  0  0  0
   -2.9159   -0.6205   -0.6252 C   0  0  0  0  0  0  0  0  0  0  0  0
   -3.7502    0.0409    0.3073 C   0  0  0  0  0  0  0  0  0  0  0  0
   -2.0418    1.7464    0.6084 C   0  0  0  0  0  0  0  0  0  0  0  0
   -3.2983    1.2234    0.9154 C   0  0  0  0  0  0  0  0  0  0  0  0
   -3.3677   -1.8033   -1.2329 C   0  0  0  0  0  0  0  0  0  0  0  0
   -5.0117   -0.5001    0.6046 C   0  0  0  0  0  0  0  0  0  0  0  0
   -4.6240   -2.3264   -0.9257 C   0  0  0  0  0  0  0  0  0  0  0  0
   -5.4445   -1.6761   -0.0088 C   0  0  0  0  0  0  0  0  0  0  0  0
    3.8302   -0.7674   -0.8116 H   0  0  0  0  0  0  0  0  0  0  0  0
    3.9628    0.6737    0.1917 H   0  0  0  0  0  0  0  0  0  0  0  0
    2.8891   -0.5398    2.0914 H   0  0  0  0  0  0  0  0  0  0  0  0
    2.8063   -2.0124    1.1238 H   0  0  0  0  0  0  0  0  0  0  0  0
    5.3216   -1.9959    0.7847 H   0  0  0  0  0  0  0  0  0  0  0  0
    5.4576   -0.5392    1.7651 H   0  0  0  0  0  0  0  0  0  0  0  0
    1.3132   -0.8994   -0.5063 H   0  0  0  0  0  0  0  0  0  0  0  0
    0.6316   -0.8734    1.1354 H   0  0  0  0  0  0  0  0  0  0  0  0
    6.3736   -0.8122   -1.1451 H   0  0  0  0  0  0  0  0  0  0  0  0
    6.4943    0.6619   -0.1809 H   0  0  0  0  0  0  0  0  0  0  0  0
    1.4867    1.4663    1.3648 H   0  0  0  0  0  0  0  0  0  0  0  0
    7.9539   -0.5408    1.4766 H   0  0  0  0  0  0  0  0  0  0  0  0
    7.8453   -2.0125    0.5000 H   0  0  0  0  0  0  0  0  0  0  0  0
   -1.0105   -0.5883   -1.6358 H   0  0  0  0  0  0  0  0  0  0  0  0
   -1.7194    2.6578    1.1023 H   0  0  0  0  0  0  0  0  0  0  0  0
   -3.8989    1.7680    1.6389 H   0  0  0  0  0  0  0  0  0  0  0  0
   -2.7432   -2.3287   -1.9524 H   0  0  0  0  0  0  0  0  0  0  0  0
    9.8117   -0.8229    0.0047 H   0  0  0  0  0  0  0  0  0  0  0  0
    8.8463   -0.8166   -1.3097 H   0  0  0  0  0  0  0  0  0  0  0  0
   -4.9613   -3.2420   -1.4028 H   0  0  0  0  0  0  0  0  0  0  0  0
   -6.4199   -2.1006    0.2167 H   0  0  0  0  0  0  0  0  0  0  0  0
  1 20  1  0  0  0  0
  2  3  2  0  0  0  0
  2  4  2  0  0  0  0
  2  5  1  0  0  0  0
  2 12  1  0  0  0  0
  5 10  1  0  0  0  0
  5 33  1  0  0  0  0
  6 13  1  0  0  0  0
  6 40  1  0  0  0  0
  6 41  1  0  0  0  0
  7  8  1  0  0  0  0
  7  9  1  0  0  0  0
  7 23  1  0  0  0  0
  7 24  1  0  0  0  0
  8 10  1  0  0  0  0
  8 25  1  0  0  0  0
  8 26  1  0  0  0  0
  9 11  1  0  0  0  0
  9 27  1  0  0  0  0
  9 28  1  0  0  0  0
 10 29  1  0  0  0  0
 10 30  1  0  0  0  0
 11 13  1  0  0  0  0
 11 31  1  0  0  0  0
 11 32  1  0  0  0  0
 12 14  2  0  0  0  0
 12 17  1  0  0  0  0
 13 34  1  0  0  0  0
 13 35  1  0  0  0  0
 14 15  1  0  0  0  0
 14 36  1  0  0  0  0
 15 16  2  0  0  0  0
 15 19  1  0  0  0  0
 16 18  1  0  0  0  0
 16 20  1  0  0  0  0
 17 18  2  0  0  0  0
 17 37  1  0  0  0  0
 18 38  1  0  0  0  0
 19 21  2  0  0  0  0
 19 39  1  0  0  0  0
 20 22  2  0  0  0  0
 21 22  1  0  0  0  0
 21 42  1  0  0  0  0
 22 43  1  0  0  0  0
M  END
> <PUBCHEM_COMPOUND_CID>
4306

> <PUBCHEM_CONFORMER_RMSD>
0.8

> <PUBCHEM_CONFORMER_DIVERSEORDER>
1
39
77
49
142
102
175
155
86
98
191
158
99
134
23
190
16
4
183
13
169
52
97
186
67
157
58
31
147
69
51
119
101
137
112
127
63
55
180
188
151
128
177
187
148
140
29
18
168
70
118
174
83
125
68
9
123
64
41
182
85
36
138
34
105
60
26
131
166
3
185
56
82
92
189
181
111
161
162
25
75
95
152
22
88
120
159
117
47
108
89
141
81
173
110
115
32
24
150
145
136
61
144
71
132
42
54
17
109
129
73
184
14
176
126
72
76
113
90
40
121
74
163
114
192
153
45
143
27
93
94
107
135
116
48
122
165
10
53
7
104
37
78
106
35
156
154
30
146
87
57
139
59
65
33
12
103
2
28
11
38
133
80
21
100
171
96
43
149
84
130
167
91
44
6
66
20
160
8
172
5
15
50
124
46
79
170
62
178
179
19
164

> <PUBCHEM_MMFF94_PARTIAL_CHARGES>
25
1 -0.18
10 0.36
12 -0.01
13 0.27
14 -0.15
17 -0.15
18 -0.15
19 -0.15
2 1.45
20 0.18
21 -0.15
22 -0.15
3 -0.65
33 0.42
36 0.15
37 0.15
38 0.15
39 0.15
4 -0.65
40 0.36
41 0.36
42 0.15
43 0.15
5 -0.91
6 -0.99

> <PUBCHEM_EFFECTIVE_ROTOR_COUNT>
8

> <PUBCHEM_PHARMACOPHORE_FEATURES>
8
1 3 acceptor
1 4 acceptor
1 5 donor
1 6 cation
1 6 donor
4 7 8 9 11 hydrophobe
6 12 14 15 16 17 18 rings
6 15 16 19 20 21 22 rings

> <PUBCHEM_HEAVY_ATOM_COUNT>
22

> <PUBCHEM_ATOM_DEF_STEREO_COUNT>
0

> <PUBCHEM_ATOM_UDEF_STEREO_COUNT>
0

> <PUBCHEM_BOND_DEF_STEREO_COUNT>
0

> <PUBCHEM_BOND_UDEF_STEREO_COUNT>
0

> <PUBCHEM_ISOTOPIC_ATOM_COUNT>
0

> <PUBCHEM_COMPONENT_COUNT>
1

> <PUBCHEM_CACTVS_TAUTO_COUNT>
1

> <PUBCHEM_CONFORMER_ID>
000010D200000001

> <PUBCHEM_MMFF94_ENERGY>
25.6087

> <PUBCHEM_FEATURE_SELFOVERLAP>
40.639

> <PUBCHEM_SHAPE_FINGERPRINT>
10299344 5 18335137592720378034
11089746 13 9799683806219203306
11135609 201 11455071198333763231
11315181 36 18408323289234174889
11524674 6 16009034973267912374
12166972 35 17418373589347311596
12553582 1 18272666644321880979
12633257 1 15864356779382765395
13288520 33 18410014334023057019
13914758 101 11023831682715723832
14123256 10 17846497041751046514
14251764 30 18260270767869119770
14556957 393 16630233818918778862
14767858 380 17918272052795162198
15415430 10 18412830183016928749
15537594 2 18341897419492338811
15716309 27 18411981382180020506
17780758 139 18040154028597678003
1813 80 18201430406765163023
19784866 240 18272091557112582431
21267235 1 18411981334344549435
21403212 168 5617259199884958660
21756936 100 9223230771708046101
23035841 295 18407760339760970378
23402539 116 17775005738787060224
23522609 53 18195781112471467912
23559900 14 18265063431554013905
335352 9 18411708699354669453
351380 3 18342742909605781179
3737641 26 18267305511540573866
4325135 7 18413106178459460054
445580 167 18202561753793096372
4938544 92 18188208826670713049
5104073 3 17969771987723440443
559249 180 18409168805951130671
5969126 39 17489595584164631492
9953998 17 17894632560607152514

> <PUBCHEM_SHAPE_MULTIPOLES>
436.77
18.95
2.2
1.3
42.85
0.77
-0.1
-10.49
4.28
-2.05
-0.62
-1.02
0.1
-1.64

> <PUBCHEM_SHAPE_SELFOVERLAP>
882.88

> <PUBCHEM_SHAPE_VOLUME>
255.8

> <PUBCHEM_COORDINATE_TYPE>
2
5
10

$$$$

