15586712
  -OEChem-07051213112D

 53 55  0     1  0  0  0  0  0999 V2000
    2.3038   -2.5790    0.0000 O   0  0  0  0  0  0  0  0  0  0  0  0
    4.6876   -0.1610    0.0000 C   0  0  1  0  0  0  0  0  0  0  0  0
    4.6876   -1.1610    0.0000 C   0  0  2  0  0  0  0  0  0  0  0  0
    5.5536    0.3390    0.0000 C   0  0  2  0  0  0  0  0  0  0  0  0
    3.7937   -1.6957    0.0000 C   0  0  1  0  0  0  0  0  0  0  0  0
    3.7937    0.3736    0.0000 C   0  0  0  0  0  0  0  0  0  0  0  0
    5.5536   -1.6610    0.0000 C   0  0  0  0  0  0  0  0  0  0  0  0
    2.8876   -1.1818    0.0000 C   0  0  0  0  0  0  0  0  0  0  0  0
    6.4196   -0.1610    0.0000 C   0  0  0  0  0  0  0  0  0  0  0  0
    2.8876   -0.1402    0.0000 C   0  0  0  0  0  0  0  0  0  0  0  0
    5.5376    1.3805    0.0000 C   0  0  0  0  0  0  0  0  0  0  0  0
    4.6876    0.8390    0.0000 C   0  0  0  0  0  0  0  0  0  0  0  0
    7.3377    1.3874    0.0000 C   0  0  1  0  0  0  0  0  0  0  0  0
    7.3296    0.3458    0.0000 C   0  0  0  0  0  0  0  0  0  0  0  0
    6.4196   -1.1610    0.0000 C   0  0  0  0  0  0  0  0  0  0  0  0
    6.4356    1.9082    0.0000 C   0  0  0  0  0  0  0  0  0  0  0  0
    3.3037   -2.5674    0.0000 C   0  0  0  0  0  0  0  0  0  0  0  0
    4.3036   -2.5559    0.0000 C   0  0  0  0  0  0  0  0  0  0  0  0
    8.3377    1.3836    0.0000 C   0  0  0  0  0  0  0  0  0  0  0  0
    7.8410    2.2515    0.0000 C   0  0  0  0  0  0  0  0  0  0  0  0
    7.3444    3.1195    0.0000 C   0  0  0  0  0  0  0  0  0  0  0  0
    4.6941   -2.0110    0.0000 H   0  0  0  0  0  0  0  0  0  0  0  0
    6.2864    0.7696    0.0000 H   0  0  0  0  0  0  0  0  0  0  0  0
    4.1982    0.8434    0.0000 H   0  0  0  0  0  0  0  0  0  0  0  0
    3.4000    0.8527    0.0000 H   0  0  0  0  0  0  0  0  0  0  0  0
    5.1551   -2.1360    0.0000 H   0  0  0  0  0  0  0  0  0  0  0  0
    5.9521   -2.1360    0.0000 H   0  0  0  0  0  0  0  0  0  0  0  0
    2.2767   -1.0757    0.0000 H   0  0  0  0  0  0  0  0  0  0  0  0
    2.6785   -1.7655    0.0000 H   0  0  0  0  0  0  0  0  0  0  0  0
    2.6785    0.4435    0.0000 H   0  0  0  0  0  0  0  0  0  0  0  0
    2.2767   -0.2463    0.0000 H   0  0  0  0  0  0  0  0  0  0  0  0
    5.3195    1.9609    0.0000 H   0  0  0  0  0  0  0  0  0  0  0  0
    4.9284    1.2650    0.0000 H   0  0  0  0  0  0  0  0  0  0  0  0
    5.3076    0.8390    0.0000 H   0  0  0  0  0  0  0  0  0  0  0  0
    4.6876    1.4590    0.0000 H   0  0  0  0  0  0  0  0  0  0  0  0
    4.0676    0.8390    0.0000 H   0  0  0  0  0  0  0  0  0  0  0  0
    7.5342   -0.2395    0.0000 H   0  0  0  0  0  0  0  0  0  0  0  0
    7.9413    0.4472    0.0000 H   0  0  0  0  0  0  0  0  0  0  0  0
    6.9566   -1.4710    0.0000 H   0  0  0  0  0  0  0  0  0  0  0  0
    6.8329    2.3842    0.0000 H   0  0  0  0  0  0  0  0  0  0  0  0
    6.0346    2.3811    0.0000 H   0  0  0  0  0  0  0  0  0  0  0  0
    3.2031   -3.1792    0.0000 H   0  0  0  0  0  0  0  0  0  0  0  0
    3.8887   -2.7727    0.0000 H   0  0  0  0  0  0  0  0  0  0  0  0
    3.7703   -2.8721    0.0000 H   0  0  0  0  0  0  0  0  0  0  0  0
    4.6198   -3.0892    0.0000 H   0  0  0  0  0  0  0  0  0  0  0  0
    4.8370   -2.2397    0.0000 H   0  0  0  0  0  0  0  0  0  0  0  0
    8.3353    0.7636    0.0000 H   0  0  0  0  0  0  0  0  0  0  0  0
    8.9577    1.3812    0.0000 H   0  0  0  0  0  0  0  0  0  0  0  0
    8.3401    2.0036    0.0000 H   0  0  0  0  0  0  0  0  0  0  0  0
    8.4610    2.2491    0.0000 H   0  0  0  0  0  0  0  0  0  0  0  0
    2.0000   -3.1195    0.0000 H   0  0  0  0  0  0  0  0  0  0  0  0
    7.6564    3.6552    0.0000 H   0  0  0  0  0  0  0  0  0  0  0  0
    6.7244    3.1219    0.0000 H   0  0  0  0  0  0  0  0  0  0  0  0
  1 17  1  0  0  0  0
  1 51  1  0  0  0  0
  2  3  1  0  0  0  0
  2  4  1  0  0  0  0
  2  6  1  0  0  0  0
  2 12  1  1  0  0  0
  3  5  1  0  0  0  0
  3  7  1  0  0  0  0
  3 22  1  6  0  0  0
  4  9  1  0  0  0  0
  4 11  1  0  0  0  0
  4 23  1  6  0  0  0
  5  8  1  0  0  0  0
  5 17  1  0  0  0  0
  5 18  1  1  0  0  0
  6 10  1  0  0  0  0
  6 24  1  0  0  0  0
  6 25  1  0  0  0  0
  7 15  1  0  0  0  0
  7 26  1  0  0  0  0
  7 27  1  0  0  0  0
  8 10  1  0  0  0  0
  8 28  1  0  0  0  0
  8 29  1  0  0  0  0
  9 14  1  0  0  0  0
  9 15  2  0  0  0  0
 10 30  1  0  0  0  0
 10 31  1  0  0  0  0
 11 16  1  0  0  0  0
 11 32  1  0  0  0  0
 11 33  1  0  0  0  0
 12 34  1  0  0  0  0
 12 35  1  0  0  0  0
 12 36  1  0  0  0  0
 13 14  1  0  0  0  0
 13 16  1  0  0  0  0
 13 19  1  1  0  0  0
 13 20  1  0  0  0  0
 14 37  1  0  0  0  0
 14 38  1  0  0  0  0
 15 39  1  0  0  0  0
 16 40  1  0  0  0  0
 16 41  1  0  0  0  0
 17 42  1  0  0  0  0
 17 43  1  0  0  0  0
 18 44  1  0  0  0  0
 18 45  1  0  0  0  0
 18 46  1  0  0  0  0
 19 47  1  0  0  0  0
 19 48  1  0  0  0  0
 19 49  1  0  0  0  0
 20 21  2  0  0  0  0
 20 50  1  0  0  0  0
 21 52  1  0  0  0  0
 21 53  1  0  0  0  0
M  END
> <PUBCHEM_COMPOUND_CID>
15586712

> <PUBCHEM_COMPOUND_CANONICALIZED>
1

> <PUBCHEM_CACTVS_COMPLEXITY>
465

> <PUBCHEM_CACTVS_HBOND_ACCEPTOR>
1

> <PUBCHEM_CACTVS_HBOND_DONOR>
1

> <PUBCHEM_CACTVS_ROTATABLE_BOND>
2

> <PUBCHEM_CACTVS_SUBSKEYS>
AAADcfB4IAAAAAAAAAAAAAAAAAAAAAAAAAAwYIAAAAAAAACAAAAAGgAACAAADwCggAICAAAAAgCAAiBCAAAAAAAgAAAICAAAAAgAEAIAAQAAQAAEgAAIAAOAwPAPgAAAAAAAAACAAAQAACAAAAAAAAAAAA==

> <PUBCHEM_IUPAC_OPENEYE_NAME>
[(1R,4aR,4bS,7S,10aR)-1,4a,7-trimethyl-7-vinyl-3,4,4b,5,6,8,10,10a-octahydro-2H-phenanthren-1-yl]methanol

> <PUBCHEM_IUPAC_CAS_NAME>
[(1R,4aR,4bS,7S,10aR)-7-ethenyl-1,4a,7-trimethyl-3,4,4b,5,6,8,10,10a-octahydro-2H-phenanthren-1-yl]methanol

> <PUBCHEM_IUPAC_NAME>
[(1R,4aR,4bS,7S,10aR)-7-ethenyl-1,4a,7-trimethyl-3,4,4b,5,6,8,10,10a-octahydro-2H-phenanthren-1-yl]methanol

> <PUBCHEM_IUPAC_SYSTEMATIC_NAME>
[(1R,4aR,4bS,7S,10aR)-7-ethenyl-1,4a,7-trimethyl-3,4,4b,5,6,8,10,10a-octahydro-2H-phenanthren-1-yl]methanol

> <PUBCHEM_IUPAC_TRADITIONAL_NAME>
[(1R,4aR,4bS,7S,10aR)-1,4a,7-trimethyl-7-vinyl-3,4,4b,5,6,8,10,10a-octahydro-2H-phenanthren-1-yl]methanol

> <PUBCHEM_IUPAC_INCHI>
InChI=1S/C20H32O/c1-5-18(2)12-9-16-15(13-18)7-8-17-19(3,14-21)10-6-11-20(16,17)4/h5,7,16-17,21H,1,6,8-14H2,2-4H3/t16-,17-,18-,19-,20+/m0/s1

> <PUBCHEM_IUPAC_INCHIKEY>
DUEINKIQNGZKPL-VYJAJWGXSA-N

> <PUBCHEM_XLOGP3_AA>
5.4

> <PUBCHEM_EXACT_MASS>
288.245316

> <PUBCHEM_MOLECULAR_FORMULA>
C20H32O

> <PUBCHEM_MOLECULAR_WEIGHT>
288.46748

> <PUBCHEM_OPENEYE_CAN_SMILES>
CC1(CCC2C(=CCC3C2(CCCC3(C)CO)C)C1)C=C

> <PUBCHEM_OPENEYE_ISO_SMILES>
C[C@@]1(CC[C@H]2C(=CC[C@@H]3[C@@]2(CCC[C@@]3(C)CO)C)C1)C=C

> <PUBCHEM_CACTVS_TPSA>
20.2

> <PUBCHEM_MONOISOTOPIC_WEIGHT>
288.245316

> <PUBCHEM_TOTAL_CHARGE>
0

> <PUBCHEM_HEAVY_ATOM_COUNT>
21

> <PUBCHEM_ATOM_DEF_STEREO_COUNT>
5

> <PUBCHEM_ATOM_UDEF_STEREO_COUNT>
0

> <PUBCHEM_BOND_DEF_STEREO_COUNT>
0

> <PUBCHEM_BOND_UDEF_STEREO_COUNT>
0

> <PUBCHEM_ISOTOPIC_ATOM_COUNT>
0

> <PUBCHEM_COMPONENT_COUNT>
1

> <PUBCHEM_CACTVS_TAUTO_COUNT>
1

> <PUBCHEM_COORDINATE_TYPE>
1
5
255

> <PUBCHEM_BONDANNOTATIONS>
13  19  5
2  12  5
3  22  6
4  23  6
5  18  5

$$$$

