6233
  -OEChem-06261201113D

 18 18  0     0  0  0  0  0  0999 V2000
   -3.5294    0.8350   -1.4654 Cl  0  0  0  0  0  0  0  0  0  0  0  0
   -3.6711   -1.6398    0.0050 Cl  0  0  0  0  0  0  0  0  0  0  0  0
   -3.5232    0.8470    1.4613 Cl  0  0  0  0  0  0  0  0  0  0  0  0
    3.5304    0.8356    1.4644 Cl  0  0  0  0  0  0  0  0  0  0  0  0
    3.6708   -1.6399   -0.0050 Cl  0  0  0  0  0  0  0  0  0  0  0  0
    3.5225    0.8464   -1.4621 Cl  0  0  0  0  0  0  0  0  0  0  0  0
   -1.3949   -0.0106    0.0009 C   0  0  0  0  0  0  0  0  0  0  0  0
    1.3949   -0.0103   -0.0002 C   0  0  0  0  0  0  0  0  0  0  0  0
   -0.6977    1.1975    0.0007 C   0  0  0  0  0  0  0  0  0  0  0  0
    0.6971    1.1976    0.0000 C   0  0  0  0  0  0  0  0  0  0  0  0
   -0.6973   -1.2186    0.0006 C   0  0  0  0  0  0  0  0  0  0  0  0
    0.6976   -1.2185    0.0001 C   0  0  0  0  0  0  0  0  0  0  0  0
   -2.8861   -0.0107    0.0006 C   0  0  0  0  0  0  0  0  0  0  0  0
    2.8863   -0.0106   -0.0008 C   0  0  0  0  0  0  0  0  0  0  0  0
   -1.2187    2.1512    0.0003 H   0  0  0  0  0  0  0  0  0  0  0  0
    1.2180    2.1514    0.0002 H   0  0  0  0  0  0  0  0  0  0  0  0
   -1.1799   -2.1892    0.0004 H   0  0  0  0  0  0  0  0  0  0  0  0
    1.1801   -2.1891    0.0001 H   0  0  0  0  0  0  0  0  0  0  0  0
  1 13  1  0  0  0  0
  2 13  1  0  0  0  0
  3 13  1  0  0  0  0
  4 14  1  0  0  0  0
  5 14  1  0  0  0  0
  6 14  1  0  0  0  0
  7  9  2  0  0  0  0
  7 11  1  0  0  0  0
  7 13  1  0  0  0  0
  8 10  2  0  0  0  0
  8 12  1  0  0  0  0
  8 14  1  0  0  0  0
  9 10  1  0  0  0  0
  9 15  1  0  0  0  0
 10 16  1  0  0  0  0
 11 12  2  0  0  0  0
 11 17  1  0  0  0  0
 12 18  1  0  0  0  0
M  END
> <PUBCHEM_COMPOUND_CID>
6233

> <PUBCHEM_CONFORMER_RMSD>
0.6

> <PUBCHEM_CONFORMER_DIVERSEORDER>
1
2

> <PUBCHEM_MMFF94_PARTIAL_CHARGES>
18
1 -0.29
10 -0.15
11 -0.15
12 -0.15
13 1.01
14 1.01
15 0.15
16 0.15
17 0.15
18 0.15
2 -0.29
3 -0.29
4 -0.29
5 -0.29
6 -0.29
7 -0.14
8 -0.14
9 -0.15

> <PUBCHEM_EFFECTIVE_ROTOR_COUNT>
2

> <PUBCHEM_PHARMACOPHORE_FEATURES>
1
6 7 8 9 10 11 12 rings

> <PUBCHEM_HEAVY_ATOM_COUNT>
14

> <PUBCHEM_ATOM_DEF_STEREO_COUNT>
0

> <PUBCHEM_ATOM_UDEF_STEREO_COUNT>
0

> <PUBCHEM_BOND_DEF_STEREO_COUNT>
0

> <PUBCHEM_BOND_UDEF_STEREO_COUNT>
0

> <PUBCHEM_ISOTOPIC_ATOM_COUNT>
0

> <PUBCHEM_COMPONENT_COUNT>
1

> <PUBCHEM_CACTVS_TAUTO_COUNT>
1

> <PUBCHEM_CONFORMER_ID>
0000185900000001

> <PUBCHEM_MMFF94_ENERGY>
36.2165

> <PUBCHEM_FEATURE_SELFOVERLAP>
5.074

> <PUBCHEM_SHAPE_FINGERPRINT>
11132069 177 18341338846062508329
11543360 7 17632291233561015406
12032990 46 18410854364911813123
124424 183 17275118248880533757
12932764 1 18410575084663117892
13296908 3 18272370892583636750
13571099 22 18340773723035028990
13675066 3 18272940422669516402
13760787 19 15626220255686439913
13760787 5 18343293786363552055
14144814 61 18333732420352993075
14289901 80 15697707121553888392
14325111 11 18410573985156764866
15309172 13 18410851070983029683
16945 1 18410855460128356676
18186145 218 18187079559556469448
19422 9 18410567388081905351
200 152 18041009401911312791
20279233 1 18410586079779415136
20281475 54 18410569587104966022
20645476 183 17917138395713361070
20645477 70 18341898549126694782
21501925 9 18339086977613865963
23402539 116 17095530633770006032
23463225 33 18340767130402881590
23493267 7 17346034601298819153
23532345 42 18337958883184417856
23557571 272 18201996668560388679
23559900 14 18341055207150547026
2748010 2 18120094974603441988
3286 77 17967540103219548914
5104073 3 18334858324565723538
633830 44 17530959193994335828

> <PUBCHEM_SHAPE_MULTIPOLES>
299.33
7.93
1.65
1.28
0
0.5
0
0.2
0
0
0
0
-0.54
0

> <PUBCHEM_SHAPE_SELFOVERLAP>
561.41

> <PUBCHEM_SHAPE_VOLUME>
180.9

> <PUBCHEM_COORDINATE_TYPE>
2
5
10

$$$$

