5732
  -OEChem-07051212533D

 44 46  0     0  0  0  0  0  0999 V2000
   -0.3553   -1.9444   -1.4582 O   0  0  0  0  0  0  0  0  0  0  0  0
   -1.8657    0.5312    0.2029 N   0  0  0  0  0  0  0  0  0  0  0  0
   -0.4996    2.2015   -0.3847 N   0  0  0  0  0  0  0  0  0  0  0  0
    0.1982   -3.6172    0.0469 N   0  0  0  0  0  0  0  0  0  0  0  0
   -0.5870    0.0650    0.3721 C   0  0  0  0  0  0  0  0  0  0  0  0
    0.2307    1.1077    0.0050 C   0  0  0  0  0  0  0  0  0  0  0  0
   -1.7599    1.8388   -0.2599 C   0  0  0  0  0  0  0  0  0  0  0  0
   -0.2761   -1.2962    0.8546 C   0  0  0  0  0  0  0  0  0  0  0  0
    1.6614    1.0782    0.0175 C   0  0  0  0  0  0  0  0  0  0  0  0
   -3.0792   -0.1132    0.4274 C   0  0  0  0  0  0  0  0  0  0  0  0
   -4.2303    0.5443    0.1910 C   0  0  0  0  0  0  0  0  0  0  0  0
   -2.9766    2.5357   -0.5105 C   0  0  0  0  0  0  0  0  0  0  0  0
   -0.1508   -2.3047   -0.2956 C   0  0  0  0  0  0  0  0  0  0  0  0
   -4.1557    1.9207   -0.2964 C   0  0  0  0  0  0  0  0  0  0  0  0
    2.3652    0.6615   -1.1154 C   0  0  0  0  0  0  0  0  0  0  0  0
    2.3619    1.4660    1.1627 C   0  0  0  0  0  0  0  0  0  0  0  0
   -5.5857   -0.0511    0.3980 C   0  0  0  0  0  0  0  0  0  0  0  0
    4.4554    1.0202    0.0420 C   0  0  0  0  0  0  0  0  0  0  0  0
    3.7598    0.6324   -1.1032 C   0  0  0  0  0  0  0  0  0  0  0  0
    3.7564    1.4371    1.1748 C   0  0  0  0  0  0  0  0  0  0  0  0
    0.3496   -4.6739   -0.9509 C   0  0  0  0  0  0  0  0  0  0  0  0
    0.4369   -4.0288    1.4251 C   0  0  0  0  0  0  0  0  0  0  0  0
    5.9463    0.9893    0.0551 C   0  0  0  0  0  0  0  0  0  0  0  0
   -1.0368   -1.6460    1.5595 H   0  0  0  0  0  0  0  0  0  0  0  0
    0.6805   -1.2717    1.3901 H   0  0  0  0  0  0  0  0  0  0  0  0
   -3.0627   -1.1357    0.7839 H   0  0  0  0  0  0  0  0  0  0  0  0
   -2.9399    3.5571   -0.8723 H   0  0  0  0  0  0  0  0  0  0  0  0
   -5.0855    2.4477   -0.4859 H   0  0  0  0  0  0  0  0  0  0  0  0
    1.8385    0.3554   -2.0165 H   0  0  0  0  0  0  0  0  0  0  0  0
    1.8325    1.7932    2.0546 H   0  0  0  0  0  0  0  0  0  0  0  0
   -6.1529    0.5289    1.1337 H   0  0  0  0  0  0  0  0  0  0  0  0
   -5.5246   -1.0819    0.7636 H   0  0  0  0  0  0  0  0  0  0  0  0
   -6.1480   -0.0650   -0.5416 H   0  0  0  0  0  0  0  0  0  0  0  0
    4.2930    0.3039   -1.9914 H   0  0  0  0  0  0  0  0  0  0  0  0
    4.2870    1.7400    2.0737 H   0  0  0  0  0  0  0  0  0  0  0  0
    1.3695   -5.0654   -0.8991 H   0  0  0  0  0  0  0  0  0  0  0  0
   -0.3656   -5.4719   -0.7322 H   0  0  0  0  0  0  0  0  0  0  0  0
    0.1631   -4.2920   -1.9577 H   0  0  0  0  0  0  0  0  0  0  0  0
    0.2796   -3.2481    2.1669 H   0  0  0  0  0  0  0  0  0  0  0  0
   -0.2361   -4.8599    1.6586 H   0  0  0  0  0  0  0  0  0  0  0  0
    1.4717   -4.3760    1.5049 H   0  0  0  0  0  0  0  0  0  0  0  0
    6.3543    1.1768   -0.9440 H   0  0  0  0  0  0  0  0  0  0  0  0
    6.3518    1.7625    0.7165 H   0  0  0  0  0  0  0  0  0  0  0  0
    6.2988    0.0123    0.4002 H   0  0  0  0  0  0  0  0  0  0  0  0
  1 13  2  0  0  0  0
  2  5  1  0  0  0  0
  2  7  1  0  0  0  0
  2 10  1  0  0  0  0
  3  6  1  0  0  0  0
  3  7  2  0  0  0  0
  4 13  1  0  0  0  0
  4 21  1  0  0  0  0
  4 22  1  0  0  0  0
  5  6  2  0  0  0  0
  5  8  1  0  0  0  0
  6  9  1  0  0  0  0
  7 12  1  0  0  0  0
  8 13  1  0  0  0  0
  8 24  1  0  0  0  0
  8 25  1  0  0  0  0
  9 15  2  0  0  0  0
  9 16  1  0  0  0  0
 10 11  2  0  0  0  0
 10 26  1  0  0  0  0
 11 14  1  0  0  0  0
 11 17  1  0  0  0  0
 12 14  2  0  0  0  0
 12 27  1  0  0  0  0
 14 28  1  0  0  0  0
 15 19  1  0  0  0  0
 15 29  1  0  0  0  0
 16 20  2  0  0  0  0
 16 30  1  0  0  0  0
 17 31  1  0  0  0  0
 17 32  1  0  0  0  0
 17 33  1  0  0  0  0
 18 19  2  0  0  0  0
 18 20  1  0  0  0  0
 18 23  1  0  0  0  0
 19 34  1  0  0  0  0
 20 35  1  0  0  0  0
 21 36  1  0  0  0  0
 21 37  1  0  0  0  0
 21 38  1  0  0  0  0
 22 39  1  0  0  0  0
 22 40  1  0  0  0  0
 22 41  1  0  0  0  0
 23 42  1  0  0  0  0
 23 43  1  0  0  0  0
 23 44  1  0  0  0  0
M  END
> <PUBCHEM_COMPOUND_CID>
5732

> <PUBCHEM_CONFORMER_RMSD>
0.6

> <PUBCHEM_CONFORMER_DIVERSEORDER>
1
23
16
15
9
21
7
17
5
20
8
10
18
13
6
19
14
22
2
4
12
11
3

> <PUBCHEM_MMFF94_PARTIAL_CHARGES>
30
1 -0.57
10 -0.18
11 -0.14
12 -0.11
13 0.57
14 -0.15
15 -0.15
16 -0.15
17 0.14
18 -0.14
19 -0.15
2 0.33
20 -0.15
21 0.3
22 0.3
23 0.14
26 0.15
27 0.15
28 0.15
29 0.15
3 -0.57
30 0.15
34 0.15
35 0.15
4 -0.66
5 -0.33
6 0.17
7 0.14
8 0.24
9 0.05

> <PUBCHEM_EFFECTIVE_ROTOR_COUNT>
4

> <PUBCHEM_PHARMACOPHORE_FEATURES>
5
1 1 acceptor
3 2 3 7 cation
5 2 3 5 6 7 rings
6 2 7 10 11 12 14 rings
6 9 15 16 18 19 20 rings

> <PUBCHEM_HEAVY_ATOM_COUNT>
23

> <PUBCHEM_ATOM_DEF_STEREO_COUNT>
0

> <PUBCHEM_ATOM_UDEF_STEREO_COUNT>
0

> <PUBCHEM_BOND_DEF_STEREO_COUNT>
0

> <PUBCHEM_BOND_UDEF_STEREO_COUNT>
0

> <PUBCHEM_ISOTOPIC_ATOM_COUNT>
0

> <PUBCHEM_COMPONENT_COUNT>
1

> <PUBCHEM_CACTVS_TAUTO_COUNT>
1

> <PUBCHEM_CONFORMER_ID>
0000166400000001

> <PUBCHEM_MMFF94_ENERGY>
58.3681

> <PUBCHEM_FEATURE_SELFOVERLAP>
25.487

> <PUBCHEM_SHAPE_FINGERPRINT>
11488393 25 18192980733000088131
116883 192 17614845115223230655
11963148 33 18201159846066366523
12236239 1 17203330009517085352
12500047 106 18337112276875265992
12553582 1 17114934497434708298
12592029 89 18410854407998461195
12788726 201 17766270981881933778
12839892 36 18341628039375155139
13004483 165 17542237761408802134
13257819 37 18199163166644483398
133893 2 17907845550667543656
13540713 4 17913482721963263541
14863182 85 18271228483460812039
14866123 147 18337677390949502818
15042514 8 18125716794931588347
15927050 60 18409450280580552278
18681886 176 18272653402848718304
19591789 44 18409730681266143519
20028762 73 18189894206935827975
20197701 30 18410577300998228502
20567600 347 18342734143746367483
20602899 9 18260258629689992562
20642791 13 17613453150587019482
20905425 154 17977942711135825644
21033648 29 18262252048641010248
22224240 67 18334293133377695537
22956985 138 17843127153854149683
23366157 5 17841988089950703929
23402539 116 18335989692087460524
23558518 356 17836375843638157912
23559900 14 17835245923536365963
23728640 28 18340769222199713074
238918 7 18336250254847502611
283562 15 18334008436617045353
3298306 158 18337955713598884182
3383291 50 18261107539347683814
3729539 64 18116418436108125086
3759504 43 18343299228319269998
43471831 8 18341050821477033657
465052 167 17631720574758645385
474229 33 18413387614364870009
5265222 85 18339913845688356932
5385378 56 18265043812032545217
6138700 20 18195240255792556374
6669772 16 18259982708554960334
69090 78 18260549983023197548
7364860 26 18121503724055774195
81228 2 17831314795598936963

> <PUBCHEM_SHAPE_MULTIPOLES>
452.52
9.19
4.46
1.13
1.57
8.26
-0.02
-7.33
-0.54
-0.28
0.3
0.61
0.46
0.55

> <PUBCHEM_SHAPE_SELFOVERLAP>
977.285

> <PUBCHEM_SHAPE_VOLUME>
252.4

> <PUBCHEM_COORDINATE_TYPE>
2
5
10

$$$$

