5324473
  -OEChem-07051213103D

 39 40  0     0  0  0  0  0  0999 V2000
    8.3892    2.1084   -0.0358 O   0  0  0  0  0  0  0  0  0  0  0  0
   -8.4105    2.0715    0.0172 O   0  0  0  0  0  0  0  0  0  0  0  0
    1.3102   -2.6256   -0.0218 O   0  0  0  0  0  0  0  0  0  0  0  0
   -1.3675   -2.5554    0.0031 O   0  0  0  0  0  0  0  0  0  0  0  0
    4.9469   -0.1753   -0.0163 C   0  0  0  0  0  0  0  0  0  0  0  0
   -4.9294   -0.1530    0.0152 C   0  0  0  0  0  0  0  0  0  0  0  0
    4.8818    1.1456   -0.4277 C   0  0  0  0  0  0  0  0  0  0  0  0
    6.1418   -0.7472    0.3889 C   0  0  0  0  0  0  0  0  0  0  0  0
   -4.8929    1.1632    0.4453 C   0  0  0  0  0  0  0  0  0  0  0  0
   -6.1088   -0.7393   -0.4143 C   0  0  0  0  0  0  0  0  0  0  0  0
    3.7190   -0.9908   -0.0087 C   0  0  0  0  0  0  0  0  0  0  0  0
   -3.6878   -0.9472    0.0137 C   0  0  0  0  0  0  0  0  0  0  0  0
    6.0443    1.9164   -0.4345 C   0  0  0  0  0  0  0  0  0  0  0  0
    7.3043    0.0238    0.3823 C   0  0  0  0  0  0  0  0  0  0  0  0
    7.2555    1.3557   -0.0293 C   0  0  0  0  0  0  0  0  0  0  0  0
   -6.0683    1.9141    0.4461 C   0  0  0  0  0  0  0  0  0  0  0  0
   -7.2843    0.0115   -0.4137 C   0  0  0  0  0  0  0  0  0  0  0  0
   -7.2641    1.3383    0.0165 C   0  0  0  0  0  0  0  0  0  0  0  0
    2.4727   -0.4880    0.0002 C   0  0  0  0  0  0  0  0  0  0  0  0
   -2.4508   -0.4292    0.0291 C   0  0  0  0  0  0  0  0  0  0  0  0
    1.2271   -1.2462    0.0108 C   0  0  0  0  0  0  0  0  0  0  0  0
   -1.2680   -1.3353    0.0149 C   0  0  0  0  0  0  0  0  0  0  0  0
    0.0396   -0.6161    0.0189 C   0  0  0  0  0  0  0  0  0  0  0  0
    3.9702    1.6193   -0.7768 H   0  0  0  0  0  0  0  0  0  0  0  0
    6.1960   -1.7828    0.7138 H   0  0  0  0  0  0  0  0  0  0  0  0
   -3.9909    1.6455    0.8085 H   0  0  0  0  0  0  0  0  0  0  0  0
   -6.1403   -1.7712   -0.7538 H   0  0  0  0  0  0  0  0  0  0  0  0
    3.8927   -2.0626    0.0087 H   0  0  0  0  0  0  0  0  0  0  0  0
   -3.8284   -2.0254   -0.0121 H   0  0  0  0  0  0  0  0  0  0  0  0
    6.0018    2.9518   -0.7616 H   0  0  0  0  0  0  0  0  0  0  0  0
    8.2416   -0.4247    0.7005 H   0  0  0  0  0  0  0  0  0  0  0  0
   -6.0479    2.9458    0.7868 H   0  0  0  0  0  0  0  0  0  0  0  0
   -8.2092   -0.4485   -0.7510 H   0  0  0  0  0  0  0  0  0  0  0  0
    2.3239    0.5892    0.0233 H   0  0  0  0  0  0  0  0  0  0  0  0
   -2.2592    0.6373    0.0275 H   0  0  0  0  0  0  0  0  0  0  0  0
   -0.0001    0.4703    0.0313 H   0  0  0  0  0  0  0  0  0  0  0  0
    9.1320    1.5619    0.2737 H   0  0  0  0  0  0  0  0  0  0  0  0
   -9.1394    1.5168   -0.3101 H   0  0  0  0  0  0  0  0  0  0  0  0
    2.1725   -2.8997   -0.3692 H   0  0  0  0  0  0  0  0  0  0  0  0
  1 15  1  0  0  0  0
  1 37  1  0  0  0  0
  2 18  1  0  0  0  0
  2 38  1  0  0  0  0
  3 21  1  0  0  0  0
  3 39  1  0  0  0  0
  4 22  2  0  0  0  0
  5  7  2  0  0  0  0
  5  8  1  0  0  0  0
  5 11  1  0  0  0  0
  6  9  2  0  0  0  0
  6 10  1  0  0  0  0
  6 12  1  0  0  0  0
  7 13  1  0  0  0  0
  7 24  1  0  0  0  0
  8 14  2  0  0  0  0
  8 25  1  0  0  0  0
  9 16  1  0  0  0  0
  9 26  1  0  0  0  0
 10 17  2  0  0  0  0
 10 27  1  0  0  0  0
 11 19  2  0  0  0  0
 11 28  1  0  0  0  0
 12 20  2  0  0  0  0
 12 29  1  0  0  0  0
 13 15  2  0  0  0  0
 13 30  1  0  0  0  0
 14 15  1  0  0  0  0
 14 31  1  0  0  0  0
 16 18  2  0  0  0  0
 16 32  1  0  0  0  0
 17 18  1  0  0  0  0
 17 33  1  0  0  0  0
 19 21  1  0  0  0  0
 19 34  1  0  0  0  0
 20 22  1  0  0  0  0
 20 35  1  0  0  0  0
 21 23  2  0  0  0  0
 22 23  1  0  0  0  0
 23 36  1  0  0  0  0
M  END
> <PUBCHEM_COMPOUND_CID>
5324473

> <PUBCHEM_CONFORMER_RMSD>
0.8

> <PUBCHEM_CONFORMER_DIVERSEORDER>
1
18
15
6
21
13
12
2
10
14
9
16
5
17
4
19
11
3
8
7
20

> <PUBCHEM_MMFF94_PARTIAL_CHARGES>
39
1 -0.53
10 -0.15
11 -0.18
12 -0.18
13 -0.15
14 -0.15
15 0.08
16 -0.15
17 -0.15
18 0.08
19 -0.15
2 -0.53
20 -0.14
21 0.08
22 0.54
23 -0.14
24 0.15
25 0.15
26 0.15
27 0.15
28 0.15
29 0.15
3 -0.53
30 0.15
31 0.15
32 0.15
33 0.15
34 0.15
35 0.15
36 0.15
37 0.45
38 0.45
39 0.45
4 -0.57
5 0.03
6 0.03
7 -0.15
8 -0.15
9 -0.15

> <PUBCHEM_EFFECTIVE_ROTOR_COUNT>
5

> <PUBCHEM_PHARMACOPHORE_FEATURES>
6
1 1 donor
1 2 donor
1 3 donor
1 4 acceptor
6 5 7 8 13 14 15 rings
6 6 9 10 16 17 18 rings

> <PUBCHEM_HEAVY_ATOM_COUNT>
23

> <PUBCHEM_ATOM_DEF_STEREO_COUNT>
0

> <PUBCHEM_ATOM_UDEF_STEREO_COUNT>
0

> <PUBCHEM_BOND_DEF_STEREO_COUNT>
3

> <PUBCHEM_BOND_UDEF_STEREO_COUNT>
0

> <PUBCHEM_ISOTOPIC_ATOM_COUNT>
0

> <PUBCHEM_COMPONENT_COUNT>
1

> <PUBCHEM_CACTVS_TAUTO_COUNT>
35

> <PUBCHEM_CONFORMER_ID>
00513EB900000001

> <PUBCHEM_MMFF94_ENERGY>
66.8223

> <PUBCHEM_FEATURE_SELFOVERLAP>
30.446

> <PUBCHEM_SHAPE_FINGERPRINT>
10 15 17989485229643417457
10411042 1 17832989344211057839
106641 1 17989201539476464603
11315181 36 18413390930886614135
11421887 21 18187919633680307040
11991303 11 16370734686127316093
125118 31 18413386544833766676
13167372 99 18411699902934553728
13248334 5 18122061171978189863
13540713 5 15408898342225502818
13668630 136 7204772579475274281
13685833 64 9655577409408502990
14178184 131 10879406423634933281
14251757 52 18341897389838608648
14251764 18 18342740697607641108
14347424 109 18343308085333365906
14556957 393 15213287582975533089
14729087 3 18410857654861731305
14933364 13 18410855464423181059
15048467 5 18410856559650540450
15183329 4 17821726139260704088
15419008 145 18058179482844220360
15419008 91 9078554720543303386
15461852 350 17967253062102620031
155225 1 18409730659786214209
15690457 1 10303808774546020545
1577012 14 18410298007733314695
16989713 51 17314240956331794023
17134984 74 5256402791137976844
1768 4 18336255809152300809
1818759 1 7492999691995465821
20157964 124 18408884058098947454
20281389 69 18131635603367511614
20526848 3 18410854364911501313
20554085 129 17822587061793917874
20621476 66 18411699872532347886
21095123 293 17703502230207138380
21150785 3 16298105380323462999
21298829 104 18410570686722563180
21585482 111 18199187463560125349
22224240 67 17632297869322774891
22288116 15 17531540789276476831
22956985 138 12029858489766187264
23035841 295 9655576314328797695
23524908 199 17822282527680276230
23559900 14 8502070952000121215
23576562 1 17241621510886486365
3103668 31 15793161163721972431
312425 54 16773795875046424738
33532 11 8935005862844161932
395649 100 18271529690225019455
397830 11 15625361429710157425
4073 2 18272647926607225866
465052 167 11095887064782386050
543368 44 18409448112053577431
5470011 282 5978098059844281552
5758199 1 18202563986021185739
5937810 71 17385996308909480889
6327066 14 18335420157785546679
6328613 192 18410011022355488617
636775 72 18410575076269206769

> <PUBCHEM_SHAPE_MULTIPOLES>
449.85
28.18
2.28
0.66
0.03
0.08
0
19.94
0.13
-0.06
0
0.02
0.05
-0.9

> <PUBCHEM_SHAPE_SELFOVERLAP>
960.207

> <PUBCHEM_SHAPE_VOLUME>
249

> <PUBCHEM_COORDINATE_TYPE>
2
5
10

$$$$

