53297411
  -OEChem-07051213123D

 55 55  0     1  0  0  0  0  0999 V2000
    4.1017   -1.9125   -0.9165 O   0  0  0  0  0  0  0  0  0  0  0  0
   -3.0408   -1.0853   -0.4239 O   0  0  0  0  0  0  0  0  0  0  0  0
    0.5486   -2.6366    1.1929 O   0  0  0  0  0  0  0  0  0  0  0  0
    1.7489    3.7193   -0.8694 O   0  0  0  0  0  0  0  0  0  0  0  0
   -2.0170   -1.7637    1.5292 O   0  0  0  0  0  0  0  0  0  0  0  0
    2.9830   -0.4908    0.6944 C   0  0  2  0  0  0  0  0  0  0  0  0
    2.9546   -1.8493   -0.0665 C   0  0  1  0  0  0  0  0  0  0  0  0
    3.1909    0.7244   -0.2475 C   0  0  0  0  0  0  0  0  0  0  0  0
    1.6619   -2.0934   -0.8860 C   0  0  2  0  0  0  0  0  0  0  0  0
    2.9798    2.0922    0.4458 C   0  0  1  0  0  0  0  0  0  0  0  0
    4.1066   -0.5350    1.7458 C   0  0  0  0  0  0  0  0  0  0  0  0
    0.4367   -2.2766    0.0208 C   0  0  0  0  0  0  0  0  0  0  0  0
    1.7725   -3.3314   -1.7816 C   0  0  0  0  0  0  0  0  0  0  0  0
    4.1936    3.0005    0.2401 C   0  0  0  0  0  0  0  0  0  0  0  0
    1.7163    2.7699   -0.0903 C   0  0  0  0  0  0  0  0  0  0  0  0
   -0.9251   -2.0632   -0.6226 C   0  0  0  0  0  0  0  0  0  0  0  0
   -4.0800   -0.3602    0.2839 C   0  0  1  0  0  0  0  0  0  0  0  0
   -4.3138    0.9725   -0.4787 C   0  0  2  0  0  0  0  0  0  0  0  0
    0.4236    2.1885    0.3693 C   0  0  0  0  0  0  0  0  0  0  0  0
   -2.0335   -1.6435    0.3127 C   0  0  0  0  0  0  0  0  0  0  0  0
   -3.0571    1.8011   -0.6983 C   0  0  0  0  0  0  0  0  0  0  0  0
   -5.3121   -1.2592    0.3159 C   0  0  0  0  0  0  0  0  0  0  0  0
   -5.3828    1.8460    0.1796 C   0  0  0  0  0  0  0  0  0  0  0  0
   -0.7117    2.4257   -0.3005 C   0  0  0  0  0  0  0  0  0  0  0  0
   -1.9448    1.7606    0.0514 C   0  0  0  0  0  0  0  0  0  0  0  0
    2.0362   -0.3719    1.2328 H   0  0  0  0  0  0  0  0  0  0  0  0
    3.0551   -2.6700    0.6558 H   0  0  0  0  0  0  0  0  0  0  0  0
    4.2041    0.6725   -0.6668 H   0  0  0  0  0  0  0  0  0  0  0  0
    2.5122    0.6426   -1.1036 H   0  0  0  0  0  0  0  0  0  0  0  0
    1.4817   -1.2299   -1.5348 H   0  0  0  0  0  0  0  0  0  0  0  0
    2.8424    1.9787    1.5274 H   0  0  0  0  0  0  0  0  0  0  0  0
    5.0985   -0.5592    1.2832 H   0  0  0  0  0  0  0  0  0  0  0  0
    4.0070   -1.4192    2.3846 H   0  0  0  0  0  0  0  0  0  0  0  0
    4.0715    0.3387    2.4035 H   0  0  0  0  0  0  0  0  0  0  0  0
    1.9628   -4.2313   -1.1863 H   0  0  0  0  0  0  0  0  0  0  0  0
    2.5827   -3.2239   -2.5097 H   0  0  0  0  0  0  0  0  0  0  0  0
    0.8484   -3.4991   -2.3447 H   0  0  0  0  0  0  0  0  0  0  0  0
    4.3919    3.1705   -0.8240 H   0  0  0  0  0  0  0  0  0  0  0  0
    5.0893    2.5571    0.6875 H   0  0  0  0  0  0  0  0  0  0  0  0
    4.0323    3.9782    0.7073 H   0  0  0  0  0  0  0  0  0  0  0  0
    4.8891   -1.9889   -0.3525 H   0  0  0  0  0  0  0  0  0  0  0  0
   -1.2221   -2.9923   -1.1180 H   0  0  0  0  0  0  0  0  0  0  0  0
   -0.8107   -1.2718   -1.3722 H   0  0  0  0  0  0  0  0  0  0  0  0
   -3.7750   -0.1476    1.3160 H   0  0  0  0  0  0  0  0  0  0  0  0
   -4.6634    0.7076   -1.4869 H   0  0  0  0  0  0  0  0  0  0  0  0
    0.4572    1.5082    1.2139 H   0  0  0  0  0  0  0  0  0  0  0  0
   -3.0679    2.4243   -1.5916 H   0  0  0  0  0  0  0  0  0  0  0  0
   -5.6727   -1.4659   -0.6976 H   0  0  0  0  0  0  0  0  0  0  0  0
   -6.1254   -0.8151    0.8959 H   0  0  0  0  0  0  0  0  0  0  0  0
   -5.0650   -2.2280    0.7640 H   0  0  0  0  0  0  0  0  0  0  0  0
   -6.3593    1.3521    0.1739 H   0  0  0  0  0  0  0  0  0  0  0  0
   -5.1235    2.0748    1.2193 H   0  0  0  0  0  0  0  0  0  0  0  0
   -5.5008    2.7963   -0.3537 H   0  0  0  0  0  0  0  0  0  0  0  0
   -0.7224    3.0740   -1.1720 H   0  0  0  0  0  0  0  0  0  0  0  0
   -1.9184    1.1488    0.9479 H   0  0  0  0  0  0  0  0  0  0  0  0
  1  7  1  0  0  0  0
  1 41  1  0  0  0  0
  2 17  1  0  0  0  0
  2 20  1  0  0  0  0
  3 12  2  0  0  0  0
  4 15  2  0  0  0  0
  5 20  2  0  0  0  0
  6  7  1  0  0  0  0
  6  8  1  0  0  0  0
  6 11  1  0  0  0  0
  6 26  1  0  0  0  0
  7  9  1  0  0  0  0
  7 27  1  0  0  0  0
  8 10  1  0  0  0  0
  8 28  1  0  0  0  0
  8 29  1  0  0  0  0
  9 12  1  0  0  0  0
  9 13  1  0  0  0  0
  9 30  1  0  0  0  0
 10 14  1  0  0  0  0
 10 15  1  0  0  0  0
 10 31  1  0  0  0  0
 11 32  1  0  0  0  0
 11 33  1  0  0  0  0
 11 34  1  0  0  0  0
 12 16  1  0  0  0  0
 13 35  1  0  0  0  0
 13 36  1  0  0  0  0
 13 37  1  0  0  0  0
 14 38  1  0  0  0  0
 14 39  1  0  0  0  0
 14 40  1  0  0  0  0
 15 19  1  0  0  0  0
 16 20  1  0  0  0  0
 16 42  1  0  0  0  0
 16 43  1  0  0  0  0
 17 18  1  0  0  0  0
 17 22  1  0  0  0  0
 17 44  1  0  0  0  0
 18 21  1  0  0  0  0
 18 23  1  0  0  0  0
 18 45  1  0  0  0  0
 19 24  2  0  0  0  0
 19 46  1  0  0  0  0
 21 25  2  0  0  0  0
 21 47  1  0  0  0  0
 22 48  1  0  0  0  0
 22 49  1  0  0  0  0
 22 50  1  0  0  0  0
 23 51  1  0  0  0  0
 23 52  1  0  0  0  0
 23 53  1  0  0  0  0
 24 25  1  0  0  0  0
 24 54  1  0  0  0  0
 25 55  1  0  0  0  0
M  END
> <PUBCHEM_COMPOUND_CID>
53297411

> <PUBCHEM_CONFORMER_RMSD>
0.6

> <PUBCHEM_CONFORMER_DIVERSEORDER>
1
10
11
13
14
16
7
3
8
5
2
15
12
9
4
6

> <PUBCHEM_MMFF94_PARTIAL_CHARGES>
23
1 -0.68
10 0.06
12 0.45
15 0.49
16 0.12
17 0.28
18 0.14
19 -0.14
2 -0.43
20 0.66
21 -0.29
24 -0.15
25 -0.15
3 -0.57
4 -0.57
41 0.4
46 0.15
47 0.15
5 -0.57
54 0.15
55 0.15
7 0.28
9 0.06

> <PUBCHEM_EFFECTIVE_ROTOR_COUNT>
1.8

> <PUBCHEM_PHARMACOPHORE_FEATURES>
6
1 1 acceptor
1 1 donor
1 16 anion
1 3 acceptor
1 4 acceptor
1 5 acceptor

> <PUBCHEM_HEAVY_ATOM_COUNT>
25

> <PUBCHEM_ATOM_DEF_STEREO_COUNT>
6

> <PUBCHEM_ATOM_UDEF_STEREO_COUNT>
0

> <PUBCHEM_BOND_DEF_STEREO_COUNT>
2

> <PUBCHEM_BOND_UDEF_STEREO_COUNT>
0

> <PUBCHEM_ISOTOPIC_ATOM_COUNT>
0

> <PUBCHEM_COMPONENT_COUNT>
1

> <PUBCHEM_CACTVS_TAUTO_COUNT>
35

> <PUBCHEM_CONFORMER_ID>
032D410300000001

> <PUBCHEM_MMFF94_ENERGY>
52.7729

> <PUBCHEM_FEATURE_SELFOVERLAP>
30.452

> <PUBCHEM_SHAPE_FINGERPRINT>
10498660 4 18124033696238151471
10616163 171 18196372511575562257
10759866 29 18059573521616747660
10871710 139 17256805599088507478
11112241 14 17315955175920010945
11221954 11 18340765931948834962
11370993 70 18265900154985486585
11513181 2 18114741513013359566
12422481 6 18194146061386807280
12633257 1 18271816755892479624
12645989 146 18117561940442985630
12978246 48 18337395950347731313
13122387 1 17907300205774629124
13140716 1 18411989048185077400
13402501 40 18411418453131476470
138480 1 18265614462656378740
14114211 80 17902202560735933925
14178342 30 17830747800140387736
14251764 38 18341051809530443329
14617045 38 18267858389689905013
14790565 3 17836361554293189148
14930077 153 17049896228932163204
15006816 218 18410011014087437221
15196674 1 18411420600968779641
15210252 30 18129361843845017412
15238133 3 18131071588668856994
17093844 170 18337398252555794440
19930381 70 18409730694530678231
20567600 299 18187653478740450377
20621476 13 18409726253101789000
20642791 35 18266455589431610741
21141583 151 17905601455977850855
21197605 99 18338515219268368755
21475661 188 18412549833485472275
21623110 236 18408318900537318705
21860390 5 18333728056777289582
23227448 37 18336550434770524511
23559900 14 18335983172236921100
27425 322 16702020834180695285
3014063 31 18337951315251744613
3298306 158 18338517439571327685
338550 245 18270680857545034236
3680242 22 18127131003239673401
474 4 18335420123526281802
5081480 168 17753854416307782462
5265222 85 17907285564574768868
5939293 188 18411705387349210914
6287921 2 18040995184915604191
6443956 14 18339357577681213749
9709674 26 18341047432895504121

> <PUBCHEM_SHAPE_MULTIPOLES>
485.14
9.73
4.7
1.16
8.19
1
-0.1
2.04
-1.17
-3.17
1.12
-0.71
-0.72
0.94

> <PUBCHEM_SHAPE_SELFOVERLAP>
962.535

> <PUBCHEM_SHAPE_VOLUME>
285.7

> <PUBCHEM_COORDINATE_TYPE>
2
5
10

$$$$

