17396478
  -OEChem-06241222562D

 40 42  0     1  0  0  0  0  0999 V2000
    8.0622    2.4827    0.0000 O   0  0  0  0  0  0  0  0  0  0  0  0
    8.0622    0.4827    0.0000 O   0  0  0  0  0  0  0  0  0  0  0  0
    5.4641    0.9827    0.0000 O   0  0  0  0  0  0  0  0  0  0  0  0
    2.8660    0.4827    0.0000 O   0  0  0  0  0  0  0  0  0  0  0  0
    6.3301   -0.5173    0.0000 N   0  0  0  0  0  0  0  0  0  0  0  0
    7.1962    1.9827    0.0000 C   0  0  3  0  0  0  0  0  0  0  0  0
    7.1962    0.9827    0.0000 C   0  0  3  0  0  0  0  0  0  0  0  0
    6.3301    2.4827    0.0000 C   0  0  0  0  0  0  0  0  0  0  0  0
    6.3301    0.4827    0.0000 C   0  0  0  0  0  0  0  0  0  0  0  0
    8.9282    1.9827    0.0000 C   0  0  0  0  0  0  0  0  0  0  0  0
    8.9282    0.9827    0.0000 C   0  0  0  0  0  0  0  0  0  0  0  0
    9.8222    2.5173    0.0000 C   0  0  0  0  0  0  0  0  0  0  0  0
    9.8222    0.4480    0.0000 C   0  0  0  0  0  0  0  0  0  0  0  0
    5.4641   -1.0173    0.0000 C   0  0  0  0  0  0  0  0  0  0  0  0
   10.7282    2.0035    0.0000 C   0  0  0  0  0  0  0  0  0  0  0  0
   10.7282    0.9619    0.0000 C   0  0  0  0  0  0  0  0  0  0  0  0
    4.5981   -0.5173    0.0000 C   0  0  0  0  0  0  0  0  0  0  0  0
    5.4641   -2.0173    0.0000 C   0  0  0  0  0  0  0  0  0  0  0  0
    3.7320   -1.0173    0.0000 C   0  0  0  0  0  0  0  0  0  0  0  0
    4.5981   -2.5173    0.0000 C   0  0  0  0  0  0  0  0  0  0  0  0
    3.7320   -2.0173    0.0000 C   0  0  0  0  0  0  0  0  0  0  0  0
    2.8660   -0.5173    0.0000 C   0  0  0  0  0  0  0  0  0  0  0  0
    2.0000   -1.0173    0.0000 C   0  0  0  0  0  0  0  0  0  0  0  0
    7.1962    2.6027    0.0000 H   0  0  0  0  0  0  0  0  0  0  0  0
    7.1962    0.3627    0.0000 H   0  0  0  0  0  0  0  0  0  0  0  0
    6.6401    3.0196    0.0000 H   0  0  0  0  0  0  0  0  0  0  0  0
    5.7932    2.7927    0.0000 H   0  0  0  0  0  0  0  0  0  0  0  0
    6.0201    1.9457    0.0000 H   0  0  0  0  0  0  0  0  0  0  0  0
    6.8671   -0.8273    0.0000 H   0  0  0  0  0  0  0  0  0  0  0  0
    9.8150    3.1373    0.0000 H   0  0  0  0  0  0  0  0  0  0  0  0
    9.8150   -0.1720    0.0000 H   0  0  0  0  0  0  0  0  0  0  0  0
   11.2639    0.6498    0.0000 H   0  0  0  0  0  0  0  0  0  0  0  0
   11.2639    2.3156    0.0000 H   0  0  0  0  0  0  0  0  0  0  0  0
    4.5981    0.1027    0.0000 H   0  0  0  0  0  0  0  0  0  0  0  0
    6.0010   -2.3273    0.0000 H   0  0  0  0  0  0  0  0  0  0  0  0
    4.5981   -3.1373    0.0000 H   0  0  0  0  0  0  0  0  0  0  0  0
    3.1951   -2.3273    0.0000 H   0  0  0  0  0  0  0  0  0  0  0  0
    1.6900   -0.4804    0.0000 H   0  0  0  0  0  0  0  0  0  0  0  0
    1.4631   -1.3273    0.0000 H   0  0  0  0  0  0  0  0  0  0  0  0
    2.3100   -1.5543    0.0000 H   0  0  0  0  0  0  0  0  0  0  0  0
  1  6  1  0  0  0  0
  1 10  1  0  0  0  0
  2  7  1  0  0  0  0
  2 11  1  0  0  0  0
  3  9  2  0  0  0  0
  4 22  2  0  0  0  0
  5  9  1  0  0  0  0
  5 14  1  0  0  0  0
  5 29  1  0  0  0  0
  6  7  1  0  0  0  0
  6  8  1  0  0  0  0
  6 24  1  0  0  0  0
  7  9  1  0  0  0  0
  7 25  1  0  0  0  0
  8 26  1  0  0  0  0
  8 27  1  0  0  0  0
  8 28  1  0  0  0  0
 10 11  1  0  0  0  0
 10 12  2  0  0  0  0
 11 13  2  0  0  0  0
 12 15  1  0  0  0  0
 12 30  1  0  0  0  0
 13 16  1  0  0  0  0
 13 31  1  0  0  0  0
 14 17  1  0  0  0  0
 14 18  2  0  0  0  0
 15 16  2  0  0  0  0
 15 33  1  0  0  0  0
 16 32  1  0  0  0  0
 17 19  2  0  0  0  0
 17 34  1  0  0  0  0
 18 20  1  0  0  0  0
 18 35  1  0  0  0  0
 19 21  1  0  0  0  0
 19 22  1  0  0  0  0
 20 21  2  0  0  0  0
 20 36  1  0  0  0  0
 21 37  1  0  0  0  0
 22 23  1  0  0  0  0
 23 38  1  0  0  0  0
 23 39  1  0  0  0  0
 23 40  1  0  0  0  0
M  END
> <PUBCHEM_COMPOUND_CID>
17396478

> <PUBCHEM_COMPOUND_CANONICALIZED>
1

> <PUBCHEM_CACTVS_COMPLEXITY>
452

> <PUBCHEM_CACTVS_HBOND_ACCEPTOR>
4

> <PUBCHEM_CACTVS_HBOND_DONOR>
1

> <PUBCHEM_CACTVS_ROTATABLE_BOND>
3

> <PUBCHEM_CACTVS_SUBSKEYS>
AAADceB6OAAAAAAAAAAAAAAAAAAAAAAAAAA0YIAAAAAAAACRQAAAHgAQAAAADByhmAIyxoLABACIAqVSUAKCCAAlIgAIiAFG7MgPJjbEtZ+HOSrm9BHa6YecyICOAAAAQAAAQAAAAACAAACAAAAAAAAAAA==

> <PUBCHEM_IUPAC_OPENEYE_NAME>
N-(3-acetylphenyl)-2-methyl-2,3-dihydro-1,4-benzodioxine-3-carboxamide

> <PUBCHEM_IUPAC_CAS_NAME>
N-(3-acetylphenyl)-2-methyl-2,3-dihydro-1,4-benzodioxin-3-carboxamide

> <PUBCHEM_IUPAC_NAME>
N-(3-acetylphenyl)-2-methyl-2,3-dihydro-1,4-benzodioxine-3-carboxamide

> <PUBCHEM_IUPAC_SYSTEMATIC_NAME>
N-(3-ethanoylphenyl)-2-methyl-2,3-dihydro-1,4-benzodioxine-3-carboxamide

> <PUBCHEM_IUPAC_TRADITIONAL_NAME>
N-(3-acetylphenyl)-2-methyl-2,3-dihydro-1,4-benzodioxin-3-carboxamide

> <PUBCHEM_IUPAC_INCHI>
InChI=1S/C18H17NO4/c1-11(20)13-6-5-7-14(10-13)19-18(21)17-12(2)22-15-8-3-4-9-16(15)23-17/h3-10,12,17H,1-2H3,(H,19,21)

> <PUBCHEM_IUPAC_INCHIKEY>
SPOSRXKOQMQOBV-UHFFFAOYSA-N

> <PUBCHEM_XLOGP3_AA>
2.7

> <PUBCHEM_EXACT_MASS>
311.115758

> <PUBCHEM_MOLECULAR_FORMULA>
C18H17NO4

> <PUBCHEM_MOLECULAR_WEIGHT>
311.33188

> <PUBCHEM_OPENEYE_CAN_SMILES>
CC1C(OC2=CC=CC=C2O1)C(=O)NC3=CC=CC(=C3)C(=O)C

> <PUBCHEM_OPENEYE_ISO_SMILES>
CC1C(OC2=CC=CC=C2O1)C(=O)NC3=CC=CC(=C3)C(=O)C

> <PUBCHEM_CACTVS_TPSA>
64.6

> <PUBCHEM_MONOISOTOPIC_WEIGHT>
311.115758

> <PUBCHEM_TOTAL_CHARGE>
0

> <PUBCHEM_HEAVY_ATOM_COUNT>
23

> <PUBCHEM_ATOM_DEF_STEREO_COUNT>
0

> <PUBCHEM_ATOM_UDEF_STEREO_COUNT>
2

> <PUBCHEM_BOND_DEF_STEREO_COUNT>
0

> <PUBCHEM_BOND_UDEF_STEREO_COUNT>
0

> <PUBCHEM_ISOTOPIC_ATOM_COUNT>
0

> <PUBCHEM_COMPONENT_COUNT>
1

> <PUBCHEM_CACTVS_TAUTO_COUNT>
6

> <PUBCHEM_COORDINATE_TYPE>
1
5
255

> <PUBCHEM_BONDANNOTATIONS>
10  11  8
10  12  8
11  13  8
12  15  8
13  16  8
14  17  8
14  18  8
15  16  8
17  19  8
18  20  8
19  21  8
20  21  8
6  8  3
7  9  3

$$$$

