10048
  -OEChem-06261204162D

 28 29  0     1  0  0  0  0  0999 V2000
    2.2412   -2.4545    0.0000 Cl  0  0  0  0  0  0  0  0  0  0  0  0
    4.2320   -0.4886    0.0000 C   0  0  3  0  0  0  0  0  0  0  0  0
    3.7543    1.4600    0.0000 C   0  0  0  0  0  0  0  0  0  0  0  0
    4.4909    0.4774    0.0000 C   0  0  3  0  0  0  0  0  0  0  0  0
    2.5000   -1.4886    0.0000 C   0  0  3  0  0  0  0  0  0  0  0  0
    6.0640   -1.2474    0.0000 C   0  0  0  0  0  0  0  0  0  0  0  0
    2.0000   -0.6225    0.0000 C   0  0  0  0  0  0  0  0  0  0  0  0
    6.3228   -0.2815    0.0000 C   0  0  0  0  0  0  0  0  0  0  0  0
    3.9732   -1.4545    0.0000 C   0  0  0  0  0  0  0  0  0  0  0  0
    3.8588    2.4545    0.0000 C   0  0  0  0  0  0  0  0  0  0  0  0
    2.8407    1.8667    0.0000 C   0  0  0  0  0  0  0  0  0  0  0  0
    4.5007   -0.3726    0.0000 H   0  0  0  0  0  0  0  0  0  0  0  0
    3.1744   -2.0060    0.0000 H   0  0  0  0  0  0  0  0  0  0  0  0
    5.8520   -1.8300    0.0000 H   0  0  0  0  0  0  0  0  0  0  0  0
    6.6553   -1.4338    0.0000 H   0  0  0  0  0  0  0  0  0  0  0  0
    1.7294   -0.0647    0.0000 H   0  0  0  0  0  0  0  0  0  0  0  0
    1.4523   -0.9131    0.0000 H   0  0  0  0  0  0  0  0  0  0  0  0
    6.9141   -0.4679    0.0000 H   0  0  0  0  0  0  0  0  0  0  0  0
    6.5349    0.3011    0.0000 H   0  0  0  0  0  0  0  0  0  0  0  0
    3.3744   -1.2940    0.0000 H   0  0  0  0  0  0  0  0  0  0  0  0
    3.8128   -2.0534    0.0000 H   0  0  0  0  0  0  0  0  0  0  0  0
    4.5721   -1.6150    0.0000 H   0  0  0  0  0  0  0  0  0  0  0  0
    4.4754    2.3897    0.0000 H   0  0  0  0  0  0  0  0  0  0  0  0
    3.9236    3.0711    0.0000 H   0  0  0  0  0  0  0  0  0  0  0  0
    3.2422    2.5193    0.0000 H   0  0  0  0  0  0  0  0  0  0  0  0
    3.0929    2.4331    0.0000 H   0  0  0  0  0  0  0  0  0  0  0  0
    2.2743    2.1189    0.0000 H   0  0  0  0  0  0  0  0  0  0  0  0
    2.5885    1.3003    0.0000 H   0  0  0  0  0  0  0  0  0  0  0  0
  1  5  1  0  0  0  0
  2  3  1  0  0  0  0
  2  5  1  0  0  0  0
  2  6  1  0  0  0  0
  2  9  1  0  0  0  0
  3  4  1  0  0  0  0
  3 10  1  0  0  0  0
  3 11  1  0  0  0  0
  4  7  1  0  0  0  0
  4  8  1  0  0  0  0
  4 12  1  0  0  0  0
  5  7  1  0  0  0  0
  5 13  1  0  0  0  0
  6  8  1  0  0  0  0
  6 14  1  0  0  0  0
  6 15  1  0  0  0  0
  7 16  1  0  0  0  0
  7 17  1  0  0  0  0
  8 18  1  0  0  0  0
  8 19  1  0  0  0  0
  9 20  1  0  0  0  0
  9 21  1  0  0  0  0
  9 22  1  0  0  0  0
 10 23  1  0  0  0  0
 10 24  1  0  0  0  0
 10 25  1  0  0  0  0
 11 26  1  0  0  0  0
 11 27  1  0  0  0  0
 11 28  1  0  0  0  0
M  END
> <PUBCHEM_COMPOUND_CID>
10048

> <PUBCHEM_COMPOUND_CANONICALIZED>
1

> <PUBCHEM_CACTVS_COMPLEXITY>
185

> <PUBCHEM_CACTVS_HBOND_ACCEPTOR>
0

> <PUBCHEM_CACTVS_HBOND_DONOR>
0

> <PUBCHEM_CACTVS_ROTATABLE_BOND>
0

> <PUBCHEM_CACTVS_SUBSKEYS>
AAADceBwAAAEAAAAAAAAAAAAAAAAAYMAAAAwAAAAAAAAAAAAAAAAGAIAAAAADwOAAEACAAAAAAAAAAAAAAAAAAAAAAAAAAAAAgAAAAIBAAAAAAAAAAAAAAEAgMAPgAAAAAAAAACAAABAAAIAARAACIAAAA==

> <PUBCHEM_IUPAC_OPENEYE_NAME>
2-chloro-1,7,7-trimethyl-norbornane

> <PUBCHEM_IUPAC_CAS_NAME>
3-chloro-4,7,7-trimethylbicyclo[2.2.1]heptane

> <PUBCHEM_IUPAC_NAME>
3-chloro-4,7,7-trimethylbicyclo[2.2.1]heptane

> <PUBCHEM_IUPAC_SYSTEMATIC_NAME>
3-chloranyl-4,7,7-trimethyl-bicyclo[2.2.1]heptane

> <PUBCHEM_IUPAC_TRADITIONAL_NAME>
2-chloro-1,7,7-trimethyl-norbornane

> <PUBCHEM_IUPAC_INCHI>
InChI=1S/C10H17Cl/c1-9(2)7-4-5-10(9,3)8(11)6-7/h7-8H,4-6H2,1-3H3

> <PUBCHEM_IUPAC_INCHIKEY>
XXZAOMJCZBZKPV-UHFFFAOYSA-N

> <PUBCHEM_XLOGP3>
4

> <PUBCHEM_EXACT_MASS>
172.101878

> <PUBCHEM_MOLECULAR_FORMULA>
C10H17Cl

> <PUBCHEM_MOLECULAR_WEIGHT>
172.69498

> <PUBCHEM_OPENEYE_CAN_SMILES>
CC1(C2CCC1(C(C2)Cl)C)C

> <PUBCHEM_OPENEYE_ISO_SMILES>
CC1(C2CCC1(C(C2)Cl)C)C

> <PUBCHEM_CACTVS_TPSA>
0

> <PUBCHEM_MONOISOTOPIC_WEIGHT>
172.101878

> <PUBCHEM_TOTAL_CHARGE>
0

> <PUBCHEM_HEAVY_ATOM_COUNT>
11

> <PUBCHEM_ATOM_DEF_STEREO_COUNT>
0

> <PUBCHEM_ATOM_UDEF_STEREO_COUNT>
3

> <PUBCHEM_BOND_DEF_STEREO_COUNT>
0

> <PUBCHEM_BOND_UDEF_STEREO_COUNT>
0

> <PUBCHEM_ISOTOPIC_ATOM_COUNT>
0

> <PUBCHEM_COMPONENT_COUNT>
1

> <PUBCHEM_CACTVS_TAUTO_COUNT>
1

> <PUBCHEM_COORDINATE_TYPE>
1
5
255

> <PUBCHEM_BONDANNOTATIONS>
2  9  3
4  12  3
5  13  3

$$$$

