442667
  -OEChem-07051212592D

 29 32  0     0  0  0  0  0  0999 V2000
    5.9065   -0.7228    0.0000 O   0  0  0  0  0  0  0  0  0  0  0  0
    8.0505    1.3457    0.0000 O   0  0  0  0  0  0  0  0  0  0  0  0
    2.4170    0.1814    0.0000 O   0  0  0  0  0  0  0  0  0  0  0  0
   10.6901   -0.9985    0.0000 O   0  0  0  0  0  0  0  0  0  0  0  0
    6.4033    0.8105    0.0000 C   0  0  0  0  0  0  0  0  0  0  0  0
    6.7123   -0.1406    0.0000 C   0  0  0  0  0  0  0  0  0  0  0  0
    5.4092    0.8079    0.0000 C   0  0  0  0  0  0  0  0  0  0  0  0
    7.6904   -0.3485    0.0000 C   0  0  0  0  0  0  0  0  0  0  0  0
    7.0724    1.5536    0.0000 C   0  0  0  0  0  0  0  0  0  0  0  0
    5.1028   -0.1378    0.0000 C   0  0  0  0  0  0  0  0  0  0  0  0
    8.3596    0.3946    0.0000 C   0  0  0  0  0  0  0  0  0  0  0  0
    4.7276    1.5874    0.0000 C   0  0  0  0  0  0  0  0  0  0  0  0
    7.9970   -1.3440    0.0000 C   0  0  0  0  0  0  0  0  0  0  0  0
    4.0936   -0.3696    0.0000 C   0  0  0  0  0  0  0  0  0  0  0  0
    9.3816    0.1938    0.0000 C   0  0  0  0  0  0  0  0  0  0  0  0
    3.7133    1.3790    0.0000 C   0  0  0  0  0  0  0  0  0  0  0  0
    3.3942    0.3940    0.0000 C   0  0  0  0  0  0  0  0  0  0  0  0
    9.0142   -1.5684    0.0000 C   0  0  0  0  0  0  0  0  0  0  0  0
    9.7112   -0.7943    0.0000 C   0  0  0  0  0  0  0  0  0  0  0  0
    7.3046    2.1285    0.0000 H   0  0  0  0  0  0  0  0  0  0  0  0
    6.5466    1.8822    0.0000 H   0  0  0  0  0  0  0  0  0  0  0  0
    4.9255    2.1750    0.0000 H   0  0  0  0  0  0  0  0  0  0  0  0
    7.5768   -1.7999    0.0000 H   0  0  0  0  0  0  0  0  0  0  0  0
    3.9094   -0.9615    0.0000 H   0  0  0  0  0  0  0  0  0  0  0  0
    9.7912    0.6593    0.0000 H   0  0  0  0  0  0  0  0  0  0  0  0
    3.2998    1.8410    0.0000 H   0  0  0  0  0  0  0  0  0  0  0  0
    9.2035   -2.1588    0.0000 H   0  0  0  0  0  0  0  0  0  0  0  0
    2.0000    0.6402    0.0000 H   0  0  0  0  0  0  0  0  0  0  0  0
   10.8840   -1.5874    0.0000 H   0  0  0  0  0  0  0  0  0  0  0  0
  1  6  1  0  0  0  0
  1 10  1  0  0  0  0
  2  9  1  0  0  0  0
  2 11  1  0  0  0  0
  3 17  1  0  0  0  0
  3 28  1  0  0  0  0
  4 19  1  0  0  0  0
  4 29  1  0  0  0  0
  5  6  2  0  0  0  0
  5  7  1  0  0  0  0
  5  9  1  0  0  0  0
  6  8  1  0  0  0  0
  7 10  2  0  0  0  0
  7 12  1  0  0  0  0
  8 11  2  0  0  0  0
  8 13  1  0  0  0  0
  9 20  1  0  0  0  0
  9 21  1  0  0  0  0
 10 14  1  0  0  0  0
 11 15  1  0  0  0  0
 12 16  2  0  0  0  0
 12 22  1  0  0  0  0
 13 18  2  0  0  0  0
 13 23  1  0  0  0  0
 14 17  2  0  0  0  0
 14 24  1  0  0  0  0
 15 19  2  0  0  0  0
 15 25  1  0  0  0  0
 16 17  1  0  0  0  0
 16 26  1  0  0  0  0
 18 19  1  0  0  0  0
 18 27  1  0  0  0  0
M  END
> <PUBCHEM_COMPOUND_CID>
442667

> <PUBCHEM_COMPOUND_CANONICALIZED>
1

> <PUBCHEM_CACTVS_COMPLEXITY>
347

> <PUBCHEM_CACTVS_HBOND_ACCEPTOR>
4

> <PUBCHEM_CACTVS_HBOND_DONOR>
2

> <PUBCHEM_CACTVS_ROTATABLE_BOND>
0

> <PUBCHEM_CACTVS_SUBSKEYS>
AAADccBwOAAAAAAAAAAAAAAAAAAAASAAAAA0YIAAAAAAAEiR9AAAGgAACAAADASgmAIwBsAABkCIAqBSAAACCAAkIAAIiAEGCMgMJzaGNRqCeWCl4BUIuYfK7PzOoAAACAAIAABAAAAQABAAAAAAAAAAAA==

> <PUBCHEM_IUPAC_OPENEYE_NAME>
6H-benzofuro[3,2-c]chromene-3,9-diol

> <PUBCHEM_IUPAC_CAS_NAME>
6H-benzofuro[3,2-c][1]benzopyran-3,9-diol

> <PUBCHEM_IUPAC_NAME>
6H-[1]benzofuro[3,2-c]chromene-3,9-diol

> <PUBCHEM_IUPAC_SYSTEMATIC_NAME>
6H-[1]benzofuro[3,2-c]chromene-3,9-diol

> <PUBCHEM_IUPAC_TRADITIONAL_NAME>
6H-benzofuro[3,2-c]chromene-3,9-diol

> <PUBCHEM_IUPAC_INCHI>
InChI=1S/C15H10O4/c16-8-2-4-11-13(5-8)18-7-12-10-3-1-9(17)6-14(10)19-15(11)12/h1-6,16-17H,7H2

> <PUBCHEM_IUPAC_INCHIKEY>
WYIDBNAGSMCMET-UHFFFAOYSA-N

> <PUBCHEM_XLOGP3_AA>
2.8

> <PUBCHEM_EXACT_MASS>
254.057909

> <PUBCHEM_MOLECULAR_FORMULA>
C15H10O4

> <PUBCHEM_MOLECULAR_WEIGHT>
254.2375

> <PUBCHEM_OPENEYE_CAN_SMILES>
C1C2=C(C3=C(O1)C=C(C=C3)O)OC4=C2C=CC(=C4)O

> <PUBCHEM_OPENEYE_ISO_SMILES>
C1C2=C(C3=C(O1)C=C(C=C3)O)OC4=C2C=CC(=C4)O

> <PUBCHEM_CACTVS_TPSA>
62.8

> <PUBCHEM_MONOISOTOPIC_WEIGHT>
254.057909

> <PUBCHEM_TOTAL_CHARGE>
0

> <PUBCHEM_HEAVY_ATOM_COUNT>
19

> <PUBCHEM_ATOM_DEF_STEREO_COUNT>
0

> <PUBCHEM_ATOM_UDEF_STEREO_COUNT>
0

> <PUBCHEM_BOND_DEF_STEREO_COUNT>
0

> <PUBCHEM_BOND_UDEF_STEREO_COUNT>
0

> <PUBCHEM_ISOTOPIC_ATOM_COUNT>
0

> <PUBCHEM_COMPONENT_COUNT>
1

> <PUBCHEM_CACTVS_TAUTO_COUNT>
11

> <PUBCHEM_COORDINATE_TYPE>
1
5
255

> <PUBCHEM_BONDANNOTATIONS>
1  10  8
1  6  8
10  14  8
11  15  8
12  16  8
13  18  8
14  17  8
15  19  8
16  17  8
18  19  8
5  6  8
5  7  8
7  10  8
7  12  8
8  11  8
8  13  8

$$$$

