253602
  -OEChem-07051213012D

 38 39  0     1  0  0  0  0  0999 V2000
    4.8535    0.4104    0.0000 O   0  0  0  0  0  0  0  0  0  0  0  0
    6.3092    2.0272    0.0000 O   0  0  0  0  0  0  0  0  0  0  0  0
    6.5477    0.7705    0.0000 O   0  0  0  0  0  0  0  0  0  0  0  0
    2.8660   -2.7047    0.0000 O   0  0  0  0  0  0  0  0  0  0  0  0
    3.8366    2.7898    0.0000 N   0  0  0  0  0  0  0  0  0  0  0  0
    3.7320    1.7953    0.0000 C   0  0  1  0  0  0  0  0  0  0  0  0
    4.6456    1.3886    0.0000 C   0  0  1  0  0  0  0  0  0  0  0  0
    5.3147    2.1317    0.0000 C   0  0  2  0  0  0  0  0  0  0  0  0
    4.8147    2.9977    0.0000 C   0  0  0  0  0  0  0  0  0  0  0  0
    2.8660    1.2953    0.0000 C   0  0  0  0  0  0  0  0  0  0  0  0
    2.8660    0.2953    0.0000 C   0  0  0  0  0  0  0  0  0  0  0  0
    2.0000   -0.2047    0.0000 C   0  0  0  0  0  0  0  0  0  0  0  0
    3.7320   -0.2047    0.0000 C   0  0  0  0  0  0  0  0  0  0  0  0
    5.8046    0.1014    0.0000 C   0  0  0  0  0  0  0  0  0  0  0  0
    2.0000   -1.2047    0.0000 C   0  0  0  0  0  0  0  0  0  0  0  0
    3.7320   -1.2047    0.0000 C   0  0  0  0  0  0  0  0  0  0  0  0
    2.8660   -1.7047    0.0000 C   0  0  0  0  0  0  0  0  0  0  0  0
    6.0125   -0.8767    0.0000 C   0  0  0  0  0  0  0  0  0  0  0  0
    2.0000   -3.2047    0.0000 C   0  0  0  0  0  0  0  0  0  0  0  0
    3.2121    2.1330    0.0000 H   0  0  0  0  0  0  0  0  0  0  0  0
    4.1638    0.9984    0.0000 H   0  0  0  0  0  0  0  0  0  0  0  0
    5.5369    1.5529    0.0000 H   0  0  0  0  0  0  0  0  0  0  0  0
    5.3811    3.2499    0.0000 H   0  0  0  0  0  0  0  0  0  0  0  0
    4.6231    3.5874    0.0000 H   0  0  0  0  0  0  0  0  0  0  0  0
    3.3758    3.2047    0.0000 H   0  0  0  0  0  0  0  0  0  0  0  0
    2.6540    1.8779    0.0000 H   0  0  0  0  0  0  0  0  0  0  0  0
    2.2554    1.1877    0.0000 H   0  0  0  0  0  0  0  0  0  0  0  0
    6.6737    2.5288    0.0000 H   0  0  0  0  0  0  0  0  0  0  0  0
    1.4631    0.1053    0.0000 H   0  0  0  0  0  0  0  0  0  0  0  0
    4.2690    0.1053    0.0000 H   0  0  0  0  0  0  0  0  0  0  0  0
    1.4631   -1.5147    0.0000 H   0  0  0  0  0  0  0  0  0  0  0  0
    4.2690   -1.5147    0.0000 H   0  0  0  0  0  0  0  0  0  0  0  0
    5.4060   -1.0056    0.0000 H   0  0  0  0  0  0  0  0  0  0  0  0
    6.1414   -1.4832    0.0000 H   0  0  0  0  0  0  0  0  0  0  0  0
    6.6189   -0.7478    0.0000 H   0  0  0  0  0  0  0  0  0  0  0  0
    1.6900   -2.6678    0.0000 H   0  0  0  0  0  0  0  0  0  0  0  0
    1.4631   -3.5147    0.0000 H   0  0  0  0  0  0  0  0  0  0  0  0
    2.3100   -3.7416    0.0000 H   0  0  0  0  0  0  0  0  0  0  0  0
  7  1  1  1  0  0  0
  1 14  1  0  0  0  0
  8  2  1  6  0  0  0
  2 28  1  0  0  0  0
  3 14  2  0  0  0  0
  4 17  1  0  0  0  0
  4 19  1  0  0  0  0
  5  6  1  0  0  0  0
  5  9  1  0  0  0  0
  5 25  1  0  0  0  0
  6  7  1  0  0  0  0
  6 10  1  1  0  0  0
  6 20  1  0  0  0  0
  7  8  1  0  0  0  0
  7 21  1  0  0  0  0
  8  9  1  0  0  0  0
  8 22  1  0  0  0  0
  9 23  1  0  0  0  0
  9 24  1  0  0  0  0
 10 11  1  0  0  0  0
 10 26  1  0  0  0  0
 10 27  1  0  0  0  0
 11 12  2  0  0  0  0
 11 13  1  0  0  0  0
 12 15  1  0  0  0  0
 12 29  1  0  0  0  0
 13 16  2  0  0  0  0
 13 30  1  0  0  0  0
 14 18  1  0  0  0  0
 15 17  2  0  0  0  0
 15 31  1  0  0  0  0
 16 17  1  0  0  0  0
 16 32  1  0  0  0  0
 18 33  1  0  0  0  0
 18 34  1  0  0  0  0
 18 35  1  0  0  0  0
 19 36  1  0  0  0  0
 19 37  1  0  0  0  0
 19 38  1  0  0  0  0
M  END
> <PUBCHEM_COMPOUND_CID>
253602

> <PUBCHEM_COMPOUND_CANONICALIZED>
1

> <PUBCHEM_CACTVS_COMPLEXITY>
302

> <PUBCHEM_CACTVS_HBOND_ACCEPTOR>
5

> <PUBCHEM_CACTVS_HBOND_DONOR>
2

> <PUBCHEM_CACTVS_ROTATABLE_BOND>
5

> <PUBCHEM_CACTVS_SUBSKEYS>
AAADceByOAAAAAAAAAAAAAAAAAAAAWAAAAAwAAAAAAAAAAABAAAAHgAQCAAADDzhmAYyDoLABgCIAiDSCAACCAAgIAAIiIAOCIgPNiKEsRuHcCAm0BGbqAeQwPAOIAAAAAAAAABAAAAAAAAAAAAAAAAAAA==

> <PUBCHEM_IUPAC_OPENEYE_NAME>
[(2R,3S,4S)-4-hydroxy-2-[(4-methoxyphenyl)methyl]pyrrolidin-3-yl] acetate

> <PUBCHEM_IUPAC_CAS_NAME>
acetic acid [(2R,3S,4S)-4-hydroxy-2-[(4-methoxyphenyl)methyl]-3-pyrrolidinyl] ester

> <PUBCHEM_IUPAC_NAME>
[(2R,3S,4S)-4-hydroxy-2-[(4-methoxyphenyl)methyl]pyrrolidin-3-yl] acetate

> <PUBCHEM_IUPAC_SYSTEMATIC_NAME>
[(2R,3S,4S)-2-[(4-methoxyphenyl)methyl]-4-oxidanyl-pyrrolidin-3-yl] ethanoate

> <PUBCHEM_IUPAC_TRADITIONAL_NAME>
acetic acid [(2R,3S,4S)-4-hydroxy-2-p-anisyl-pyrrolidin-3-yl] ester

> <PUBCHEM_IUPAC_INCHI>
InChI=1S/C14H19NO4/c1-9(16)19-14-12(15-8-13(14)17)7-10-3-5-11(18-2)6-4-10/h3-6,12-15,17H,7-8H2,1-2H3/t12-,13+,14+/m1/s1

> <PUBCHEM_IUPAC_INCHIKEY>
YKJYKKNCCRKFSL-RDBSUJKOSA-N

> <PUBCHEM_XLOGP3_AA>
0.9

> <PUBCHEM_EXACT_MASS>
265.131408

> <PUBCHEM_MOLECULAR_FORMULA>
C14H19NO4

> <PUBCHEM_MOLECULAR_WEIGHT>
265.30496

> <PUBCHEM_OPENEYE_CAN_SMILES>
CC(=O)OC1C(CNC1CC2=CC=C(C=C2)OC)O

> <PUBCHEM_OPENEYE_ISO_SMILES>
CC(=O)O[C@@H]1[C@H](CN[C@@H]1CC2=CC=C(C=C2)OC)O

> <PUBCHEM_CACTVS_TPSA>
67.8

> <PUBCHEM_MONOISOTOPIC_WEIGHT>
265.131408

> <PUBCHEM_TOTAL_CHARGE>
0

> <PUBCHEM_HEAVY_ATOM_COUNT>
19

> <PUBCHEM_ATOM_DEF_STEREO_COUNT>
3

> <PUBCHEM_ATOM_UDEF_STEREO_COUNT>
0

> <PUBCHEM_BOND_DEF_STEREO_COUNT>
0

> <PUBCHEM_BOND_UDEF_STEREO_COUNT>
0

> <PUBCHEM_ISOTOPIC_ATOM_COUNT>
0

> <PUBCHEM_COMPONENT_COUNT>
1

> <PUBCHEM_CACTVS_TAUTO_COUNT>
1

> <PUBCHEM_COORDINATE_TYPE>
1
5
255

> <PUBCHEM_BONDANNOTATIONS>
7  1  5
11  12  8
11  13  8
12  15  8
13  16  8
15  17  8
16  17  8
8  2  6
6  10  5

$$$$

