5459797
  -OEChem-07051212503D

 45 45  0     1  0  0  0  0  0999 V2000
    1.1129    0.4760    0.2428 O   0  0  0  0  0  0  0  0  0  0  0  0
   -3.7629    2.5709   -1.1079 O   0  0  0  0  0  0  0  0  0  0  0  0
   -2.0104    2.5256    0.3443 O   0  0  0  0  0  0  0  0  0  0  0  0
    2.1976    1.4067    0.1344 C   0  0  2  0  0  0  0  0  0  0  0  0
    1.8764    0.4465   -0.9621 C   0  0  1  0  0  0  0  0  0  0  0  0
    2.6631   -0.8180   -1.1293 C   0  0  0  0  0  0  0  0  0  0  0  0
    3.3292    1.1202    1.0483 C   0  0  0  0  0  0  0  0  0  0  0  0
    1.7840    2.8299    0.0931 C   0  0  0  0  0  0  0  0  0  0  0  0
    1.7871   -2.0434   -1.4115 C   0  0  0  0  0  0  0  0  0  0  0  0
    4.6679    1.5751    0.4775 C   0  0  0  0  0  0  0  0  0  0  0  0
    0.7828   -2.3528   -0.3216 C   0  0  0  0  0  0  0  0  0  0  0  0
   -0.5539   -2.3680   -0.4913 C   0  0  0  0  0  0  0  0  0  0  0  0
    1.3749   -2.7080    1.0183 C   0  0  0  0  0  0  0  0  0  0  0  0
   -1.6093   -2.7087    0.5236 C   0  0  0  0  0  0  0  0  0  0  0  0
   -2.9032   -1.9358    0.2531 C   0  0  0  0  0  0  0  0  0  0  0  0
   -2.7163   -0.4424    0.4078 C   0  0  0  0  0  0  0  0  0  0  0  0
   -2.2141   -0.0105    1.7634 C   0  0  0  0  0  0  0  0  0  0  0  0
   -2.9816    0.4880   -0.5282 C   0  0  0  0  0  0  0  0  0  0  0  0
   -2.8240    1.9489   -0.3549 C   0  0  0  0  0  0  0  0  0  0  0  0
    1.4075    0.7971   -1.8707 H   0  0  0  0  0  0  0  0  0  0  0  0
    3.3148   -1.0565   -0.2871 H   0  0  0  0  0  0  0  0  0  0  0  0
    3.3369   -0.6764   -1.9838 H   0  0  0  0  0  0  0  0  0  0  0  0
    3.3895    0.0709    1.3527 H   0  0  0  0  0  0  0  0  0  0  0  0
    3.1678    1.6576    1.9926 H   0  0  0  0  0  0  0  0  0  0  0  0
    1.5676    3.2096    1.0972 H   0  0  0  0  0  0  0  0  0  0  0  0
    2.5636    3.4559   -0.3517 H   0  0  0  0  0  0  0  0  0  0  0  0
    0.8783    2.9652   -0.5089 H   0  0  0  0  0  0  0  0  0  0  0  0
    2.4292   -2.9198   -1.5641 H   0  0  0  0  0  0  0  0  0  0  0  0
    1.2597   -1.8840   -2.3610 H   0  0  0  0  0  0  0  0  0  0  0  0
    5.4759    1.3343    1.1756 H   0  0  0  0  0  0  0  0  0  0  0  0
    4.6850    2.6559    0.3066 H   0  0  0  0  0  0  0  0  0  0  0  0
    4.8825    1.0809   -0.4750 H   0  0  0  0  0  0  0  0  0  0  0  0
   -0.9226   -2.1533   -1.4940 H   0  0  0  0  0  0  0  0  0  0  0  0
    1.6116   -1.8068    1.5908 H   0  0  0  0  0  0  0  0  0  0  0  0
    2.3018   -3.2769    0.8823 H   0  0  0  0  0  0  0  0  0  0  0  0
    0.7244   -3.3434    1.6254 H   0  0  0  0  0  0  0  0  0  0  0  0
   -1.2708   -2.5324    1.5487 H   0  0  0  0  0  0  0  0  0  0  0  0
   -1.8300   -3.7797    0.4376 H   0  0  0  0  0  0  0  0  0  0  0  0
   -3.6760   -2.2703    0.9565 H   0  0  0  0  0  0  0  0  0  0  0  0
   -3.2791   -2.1706   -0.7511 H   0  0  0  0  0  0  0  0  0  0  0  0
   -1.1212    0.0235    1.7818 H   0  0  0  0  0  0  0  0  0  0  0  0
   -2.6102    0.9573    2.0830 H   0  0  0  0  0  0  0  0  0  0  0  0
   -2.5428   -0.7169    2.5349 H   0  0  0  0  0  0  0  0  0  0  0  0
   -3.3814    0.1673   -1.4873 H   0  0  0  0  0  0  0  0  0  0  0  0
   -3.7095    3.5472   -1.0283 H   0  0  0  0  0  0  0  0  0  0  0  0
  1  4  1  0  0  0  0
  1  5  1  0  0  0  0
  2 19  1  0  0  0  0
  2 45  1  0  0  0  0
  3 19  2  0  0  0  0
  4  5  1  0  0  0  0
  4  7  1  0  0  0  0
  4  8  1  0  0  0  0
  5  6  1  0  0  0  0
  5 20  1  0  0  0  0
  6  9  1  0  0  0  0
  6 21  1  0  0  0  0
  6 22  1  0  0  0  0
  7 10  1  0  0  0  0
  7 23  1  0  0  0  0
  7 24  1  0  0  0  0
  8 25  1  0  0  0  0
  8 26  1  0  0  0  0
  8 27  1  0  0  0  0
  9 11  1  0  0  0  0
  9 28  1  0  0  0  0
  9 29  1  0  0  0  0
 10 30  1  0  0  0  0
 10 31  1  0  0  0  0
 10 32  1  0  0  0  0
 11 12  2  0  0  0  0
 11 13  1  0  0  0  0
 12 14  1  0  0  0  0
 12 33  1  0  0  0  0
 13 34  1  0  0  0  0
 13 35  1  0  0  0  0
 13 36  1  0  0  0  0
 14 15  1  0  0  0  0
 14 37  1  0  0  0  0
 14 38  1  0  0  0  0
 15 16  1  0  0  0  0
 15 39  1  0  0  0  0
 15 40  1  0  0  0  0
 16 17  1  0  0  0  0
 16 18  2  0  0  0  0
 17 41  1  0  0  0  0
 17 42  1  0  0  0  0
 17 43  1  0  0  0  0
 18 19  1  0  0  0  0
 18 44  1  0  0  0  0
M  END
> <PUBCHEM_COMPOUND_CID>
5459797

> <PUBCHEM_CONFORMER_RMSD>
0.8

> <PUBCHEM_CONFORMER_DIVERSEORDER>
11
8
416
310
162
112
88
199
422
315
114
254
322
368
402
126
415
266
421
335
406
261
180
360
429
17
352
257
251
383
419
351
286
229
278
142
273
412
292
133
248
374
189
314
300
367
316
370
365
373
38
399
167
135
280
376
265
7
312
100
386
105
339
236
148
202
4
388
308
336
99
279
143
250
226
29
96
131
26
84
431
13
372
82
219
330
393
19
220
283
31
260
83
157
277
245
149
206
237
232
209
362
307
174
165
80
190
344
290
10
295
86
35
341
56
327
34
263
326
231
414
32
116
183
66
158
334
216
390
234
154
195
147
215
137
55
221
37
274
410
3
343
302
85
95
417
355
186
12
325
262
268
243
123
247
28
205
109
246
285
153
363
211
425
400
173
152
44
287
391
117
213
144
22
281
411
67
222
204
128
377
75
258
298
113
160
187
293
79
413
271
207
194
5
357
129
192
347
136
306
178
218
371
309
146
303
179
430
318
264
255
384
104
223
284
382
169
331
198
432
305
389
120
62
289
294
70
78
15
241
369
87
319
115
338
350
110
321
240
98
333
18
275
296
208
54
380
25
235
2
14
364
323
63
435
40
166
239
196
188
358
159
46
272
407
76
210
214
253
230
375
212
77
359
155
92
9
65
68
27
337
122
299
97
342
227
340
356
381
108
200
140
297
156
242
93
405
348
434
282
138
73
424
24
329
50
151
184
53
228
60
23
90
64
354
134
304
175
49
191
379
225
433
324
224
124
366
59
39
345
72
130
197
346
125
320
168
172
288
71
301
163
41
249
270
291
395
313
426
182
244
106
21
164
256
398
161
101
6
193
69
397
177
203
74
392
107
150
317
170
176
45
361
238
428
401
111
408
418
33
276
403
94
269
127
328
57
89
51
102
427
1
396
103
252
311
145
353
394
43
423
404
81
30
409
181
378
91
52
349
47
139
141
233
387
171
118
385
20
185
420
61
201
332
16
119
259
36
267
217
132
121
48
58
42

> <PUBCHEM_MMFF94_PARTIAL_CHARGES>
22
1 -0.3
11 -0.28
12 -0.29
13 0.14
14 0.14
15 0.14
16 -0.28
17 0.14
18 -0.14
19 0.71
2 -0.65
20 0.1
3 -0.57
33 0.15
4 -0.04
44 0.15
45 0.5
5 -0.05
6 0.09
7 0.09
8 0.09
9 0.14

> <PUBCHEM_EFFECTIVE_ROTOR_COUNT>
8.6

> <PUBCHEM_PHARMACOPHORE_FEATURES>
8
1 1 acceptor
1 10 hydrophobe
1 13 hydrophobe
1 17 hydrophobe
1 2 acceptor
1 3 acceptor
3 2 3 19 anion
4 12 14 15 16 hydrophobe

> <PUBCHEM_HEAVY_ATOM_COUNT>
19

> <PUBCHEM_ATOM_DEF_STEREO_COUNT>
2

> <PUBCHEM_ATOM_UDEF_STEREO_COUNT>
0

> <PUBCHEM_BOND_DEF_STEREO_COUNT>
2

> <PUBCHEM_BOND_UDEF_STEREO_COUNT>
0

> <PUBCHEM_ISOTOPIC_ATOM_COUNT>
0

> <PUBCHEM_COMPONENT_COUNT>
1

> <PUBCHEM_CACTVS_TAUTO_COUNT>
1

> <PUBCHEM_CONFORMER_ID>
00534F550000000B

> <PUBCHEM_MMFF94_ENERGY>
32.2678

> <PUBCHEM_FEATURE_SELFOVERLAP>
40.676

> <PUBCHEM_SHAPE_FINGERPRINT>
10759866 29 17913770518751954484
11370993 70 18410302423133657861
12077114 3 18339931406981292440
12403259 226 17828200996007420898
128993 33 18197188491058183373
13140716 1 18050843313149773729
13294875 104 18128256894356698954
14251751 93 18340212877873993634
14251757 17 18114724002700426198
14251764 3 17532393984033954896
14386348 128 18265306517680171759
14614273 12 18262794047859356123
17093844 170 18267590298021322860
17492 54 17403461771616162959
18219364 16 18123729101478840723
18981168 100 18409447007392875315
21279426 13 18335129935031092646
21524375 3 18118119173989529386
22749437 52 18408887334356790177
23402539 116 17828490162964974030
238 59 18263657297778534605
2748010 2 18338503244303071831
2803657 2 17614545365096988730
3524813 1 18339629114287652663
5262128 65 17461148035624940263
5939293 188 17977388557317812679
8050 44 18334008367844307399
9862522 239 18190194411910929610

> <PUBCHEM_SHAPE_MULTIPOLES>
373.4
6.76
3.99
1.26
1.85
0.1
-0.09
-4.13
-0.49
-1.22
0.29
0.06
0.21
1.37

> <PUBCHEM_SHAPE_SELFOVERLAP>
731.71

> <PUBCHEM_SHAPE_VOLUME>
225.7

> <PUBCHEM_COORDINATE_TYPE>
2
5
10

$$$$

