11954032
  -OEChem-07051213053D

 38 40  0     1  0  0  0  0  0999 V2000
    5.4576    1.1825   -0.2716 O   0  0  0  0  0  0  0  0  0  0  0  0
   -5.9366    0.2603    0.0888 O   0  0  0  0  0  0  0  0  0  0  0  0
    0.4228   -1.1138    0.6939 C   0  0  2  0  0  0  0  0  0  0  0  0
   -0.3341    0.0848    0.1261 C   0  0  0  0  0  0  0  0  0  0  0  0
    1.8458   -0.6613    0.5076 C   0  0  0  0  0  0  0  0  0  0  0  0
    0.4920    1.0672   -0.2956 C   0  0  0  0  0  0  0  0  0  0  0  0
    1.8675    0.6138   -0.0730 C   0  0  0  0  0  0  0  0  0  0  0  0
    0.1275   -2.4147   -0.0467 C   0  0  0  0  0  0  0  0  0  0  0  0
   -1.7812    0.1299    0.1163 C   0  0  0  0  0  0  0  0  0  0  0  0
    3.0185   -1.3223    0.8391 C   0  0  0  0  0  0  0  0  0  0  0  0
    3.0727    1.2460   -0.3418 C   0  0  0  0  0  0  0  0  0  0  0  0
    0.1736    2.3934   -0.8856 C   0  0  0  0  0  0  0  0  0  0  0  0
    0.3847   -2.2760   -1.5352 C   0  0  0  0  0  0  0  0  0  0  0  0
    4.2331   -0.6898    0.5699 C   0  0  0  0  0  0  0  0  0  0  0  0
    4.2601    0.5842   -0.0173 C   0  0  0  0  0  0  0  0  0  0  0  0
   -2.4924   -0.3192   -1.0006 C   0  0  0  0  0  0  0  0  0  0  0  0
   -2.4774    0.6237    1.2237 C   0  0  0  0  0  0  0  0  0  0  0  0
   -3.8866   -0.2750   -1.0099 C   0  0  0  0  0  0  0  0  0  0  0  0
   -3.8716    0.6678    1.2144 C   0  0  0  0  0  0  0  0  0  0  0  0
   -4.5761    0.2186    0.0976 C   0  0  0  0  0  0  0  0  0  0  0  0
    0.2087   -1.2188    1.7645 H   0  0  0  0  0  0  0  0  0  0  0  0
   -0.9186   -2.7025    0.1130 H   0  0  0  0  0  0  0  0  0  0  0  0
    0.7387   -3.2336    0.3514 H   0  0  0  0  0  0  0  0  0  0  0  0
    2.9998   -2.3059    1.2960 H   0  0  0  0  0  0  0  0  0  0  0  0
    3.1012    2.2333   -0.7924 H   0  0  0  0  0  0  0  0  0  0  0  0
    0.5791    3.1986   -0.2642 H   0  0  0  0  0  0  0  0  0  0  0  0
   -0.9045    2.5587   -0.9743 H   0  0  0  0  0  0  0  0  0  0  0  0
    0.6025    2.4808   -1.8893 H   0  0  0  0  0  0  0  0  0  0  0  0
   -0.0464   -1.3967   -2.0097 H   0  0  0  0  0  0  0  0  0  0  0  0
    1.4601   -2.2608   -1.7451 H   0  0  0  0  0  0  0  0  0  0  0  0
   -0.0174   -3.1533   -2.0542 H   0  0  0  0  0  0  0  0  0  0  0  0
    5.1602   -1.1983    0.8227 H   0  0  0  0  0  0  0  0  0  0  0  0
   -1.9931   -0.6858   -1.8901 H   0  0  0  0  0  0  0  0  0  0  0  0
   -1.9435    0.9777    2.1026 H   0  0  0  0  0  0  0  0  0  0  0  0
   -4.4240   -0.6231   -1.8880 H   0  0  0  0  0  0  0  0  0  0  0  0
   -4.4032    1.0530    2.0802 H   0  0  0  0  0  0  0  0  0  0  0  0
    6.1735    0.5890    0.0136 H   0  0  0  0  0  0  0  0  0  0  0  0
   -6.2570   -0.0893   -0.7605 H   0  0  0  0  0  0  0  0  0  0  0  0
  1 15  1  0  0  0  0
  1 37  1  0  0  0  0
  2 20  1  0  0  0  0
  2 38  1  0  0  0  0
  3  4  1  0  0  0  0
  3  5  1  0  0  0  0
  3  8  1  0  0  0  0
  3 21  1  0  0  0  0
  4  6  2  0  0  0  0
  4  9  1  0  0  0  0
  5  7  2  0  0  0  0
  5 10  1  0  0  0  0
  6  7  1  0  0  0  0
  6 12  1  0  0  0  0
  7 11  1  0  0  0  0
  8 13  1  0  0  0  0
  8 22  1  0  0  0  0
  8 23  1  0  0  0  0
  9 16  2  0  0  0  0
  9 17  1  0  0  0  0
 10 14  2  0  0  0  0
 10 24  1  0  0  0  0
 11 15  2  0  0  0  0
 11 25  1  0  0  0  0
 12 26  1  0  0  0  0
 12 27  1  0  0  0  0
 12 28  1  0  0  0  0
 13 29  1  0  0  0  0
 13 30  1  0  0  0  0
 13 31  1  0  0  0  0
 14 15  1  0  0  0  0
 14 32  1  0  0  0  0
 16 18  1  0  0  0  0
 16 33  1  0  0  0  0
 17 19  2  0  0  0  0
 17 34  1  0  0  0  0
 18 20  2  0  0  0  0
 18 35  1  0  0  0  0
 19 20  1  0  0  0  0
 19 36  1  0  0  0  0
M  END
> <PUBCHEM_COMPOUND_CID>
11954032

> <PUBCHEM_CONFORMER_RMSD>
0.6

> <PUBCHEM_CONFORMER_DIVERSEORDER>
1
2

> <PUBCHEM_MMFF94_PARTIAL_CHARGES>
27
1 -0.53
10 -0.15
11 -0.15
12 0.14
14 -0.15
15 0.08
16 -0.15
17 -0.15
18 -0.15
19 -0.15
2 -0.53
20 0.08
24 0.15
25 0.15
3 0.28
32 0.15
33 0.15
34 0.15
35 0.15
36 0.15
37 0.45
38 0.45
4 -0.17
5 -0.14
6 -0.17
7 0.03
9 0.03

> <PUBCHEM_EFFECTIVE_ROTOR_COUNT>
2.2

> <PUBCHEM_PHARMACOPHORE_FEATURES>
6
1 1 donor
1 13 hydrophobe
1 2 donor
5 3 4 5 6 7 rings
6 5 7 10 11 14 15 rings
6 9 16 17 18 19 20 rings

> <PUBCHEM_HEAVY_ATOM_COUNT>
20

> <PUBCHEM_ATOM_DEF_STEREO_COUNT>
1

> <PUBCHEM_ATOM_UDEF_STEREO_COUNT>
0

> <PUBCHEM_BOND_DEF_STEREO_COUNT>
0

> <PUBCHEM_BOND_UDEF_STEREO_COUNT>
0

> <PUBCHEM_ISOTOPIC_ATOM_COUNT>
0

> <PUBCHEM_COMPONENT_COUNT>
1

> <PUBCHEM_CACTVS_TAUTO_COUNT>
16

> <PUBCHEM_CONFORMER_ID>
00B6677000000001

> <PUBCHEM_MMFF94_ENERGY>
61.7985

> <PUBCHEM_FEATURE_SELFOVERLAP>
30.529

> <PUBCHEM_SHAPE_FINGERPRINT>
10382601 240 18264756843439319259
10906281 52 18200575004257837681
11471102 20 18202284706152266024
12236239 1 18259704506242588617
12592029 89 18411982493959625043
13134695 92 18202849846186022405
13140716 1 18127412242389185088
13583140 156 17632292324540685675
13760787 5 18342464754796772846
14386348 63 17203888574223891073
14787075 74 17274249535867950384
14790565 3 18412536605166172476
14993402 34 18408888408320004484
15196674 1 18200598110749243572
15309172 13 18412263938902875146
1601671 61 18407761447366524012
16945 1 18201158849284858154
18186145 218 17894923905413531904
18785283 64 17130409195334269437
200 152 18410860962719928273
204376 136 18342737403436647594
20602899 9 16877933902689644110
20645477 70 18130513032060745722
20691752 17 18194664067995360063
21033648 29 17131848546613019781
21267235 1 18272650199393270866
23175994 123 17561079224495569373
23184049 59 18413669110605271116
23402539 116 17967818219167960780
23557571 272 16199870686808929327
23559900 14 16515683325840085932
296302 2 18131633395923171899
34797466 226 16515682195857869136
34934 24 18271811164583629328
350125 39 17983284929113899539
4340502 62 16415482649156954768
465052 167 18272366498985450834
474 4 18409726257581398755
5104073 3 18271532975240946810
542803 24 18259703410920472233
69090 78 18336268968409680222
7495541 125 16558455406060291437
77492 1 18186804681939474433
8272917 22 18342176725584216275
9999458 23 17203605969713031286

> <PUBCHEM_SHAPE_MULTIPOLES>
399.85
9.63
1.95
1.13
3.3
0.49
-0.07
-2.3
0.95
-1.13
-0.58
0.52
0.18
-0.77

> <PUBCHEM_SHAPE_SELFOVERLAP>
881.365

> <PUBCHEM_SHAPE_VOLUME>
218.9

> <PUBCHEM_COORDINATE_TYPE>
2
5
10

$$$$

