17396167
  -OEChem-06241222552D

 45 46  0     1  0  0  0  0  0999 V2000
    4.5981    1.0375    0.0000 O   0  0  0  0  0  0  0  0  0  0  0  0
    7.2318    3.9625    0.0000 O   0  0  0  0  0  0  0  0  0  0  0  0
    2.8660   -1.9625    0.0000 O   0  0  0  0  0  0  0  0  0  0  0  0
    7.2437    0.6308    0.0000 N   0  0  0  0  0  0  0  0  0  0  0  0
    4.5981   -0.9625    0.0000 N   0  0  0  0  0  0  0  0  0  0  0  0
    6.3301    1.0375    0.0000 C   0  0  0  0  0  0  0  0  0  0  0  0
    5.4641   -0.4625    0.0000 C   0  0  3  0  0  0  0  0  0  0  0  0
    6.4347    2.0320    0.0000 C   0  0  0  0  0  0  0  0  0  0  0  0
    7.4128    2.2399    0.0000 C   0  0  0  0  0  0  0  0  0  0  0  0
    7.9128    1.3739    0.0000 C   0  0  0  0  0  0  0  0  0  0  0  0
    5.4641    0.5375    0.0000 C   0  0  0  0  0  0  0  0  0  0  0  0
    6.3301   -0.9625    0.0000 C   0  0  0  0  0  0  0  0  0  0  0  0
    5.6915    2.7012    0.0000 C   0  0  0  0  0  0  0  0  0  0  0  0
    8.9073    1.2694    0.0000 C   0  0  0  0  0  0  0  0  0  0  0  0
    7.8195    3.1535    0.0000 C   0  0  0  0  0  0  0  0  0  0  0  0
    4.5981   -1.9625    0.0000 C   0  0  0  0  0  0  0  0  0  0  0  0
    3.7320   -2.4625    0.0000 C   0  0  0  0  0  0  0  0  0  0  0  0
    8.8141    3.2580    0.0000 C   0  0  0  0  0  0  0  0  0  0  0  0
    5.4641   -2.4625    0.0000 C   0  0  0  0  0  0  0  0  0  0  0  0
    3.7320   -3.4625    0.0000 C   0  0  0  0  0  0  0  0  0  0  0  0
    5.4641   -3.4625    0.0000 C   0  0  0  0  0  0  0  0  0  0  0  0
    4.5981   -3.9625    0.0000 C   0  0  0  0  0  0  0  0  0  0  0  0
    2.0000   -2.4625    0.0000 C   0  0  0  0  0  0  0  0  0  0  0  0
    5.4641   -1.0825    0.0000 H   0  0  0  0  0  0  0  0  0  0  0  0
    7.3726    0.0243    0.0000 H   0  0  0  0  0  0  0  0  0  0  0  0
    4.0611   -0.6525    0.0000 H   0  0  0  0  0  0  0  0  0  0  0  0
    6.0201   -1.4994    0.0000 H   0  0  0  0  0  0  0  0  0  0  0  0
    6.8671   -1.2725    0.0000 H   0  0  0  0  0  0  0  0  0  0  0  0
    6.6401   -0.4256    0.0000 H   0  0  0  0  0  0  0  0  0  0  0  0
    6.1064    3.1619    0.0000 H   0  0  0  0  0  0  0  0  0  0  0  0
    5.2308    3.1160    0.0000 H   0  0  0  0  0  0  0  0  0  0  0  0
    5.2766    2.2404    0.0000 H   0  0  0  0  0  0  0  0  0  0  0  0
    8.8425    0.6528    0.0000 H   0  0  0  0  0  0  0  0  0  0  0  0
    9.5239    1.2046    0.0000 H   0  0  0  0  0  0  0  0  0  0  0  0
    8.9721    1.8860    0.0000 H   0  0  0  0  0  0  0  0  0  0  0  0
    8.8789    2.6414    0.0000 H   0  0  0  0  0  0  0  0  0  0  0  0
    9.4307    3.3228    0.0000 H   0  0  0  0  0  0  0  0  0  0  0  0
    8.7492    3.8746    0.0000 H   0  0  0  0  0  0  0  0  0  0  0  0
    6.0010   -2.1525    0.0000 H   0  0  0  0  0  0  0  0  0  0  0  0
    3.1951   -3.7725    0.0000 H   0  0  0  0  0  0  0  0  0  0  0  0
    6.0010   -3.7725    0.0000 H   0  0  0  0  0  0  0  0  0  0  0  0
    4.5981   -4.5825    0.0000 H   0  0  0  0  0  0  0  0  0  0  0  0
    1.6900   -1.9256    0.0000 H   0  0  0  0  0  0  0  0  0  0  0  0
    1.4631   -2.7725    0.0000 H   0  0  0  0  0  0  0  0  0  0  0  0
    2.3100   -2.9994    0.0000 H   0  0  0  0  0  0  0  0  0  0  0  0
  1 11  2  0  0  0  0
  2 15  2  0  0  0  0
  3 17  1  0  0  0  0
  3 23  1  0  0  0  0
  4  6  1  0  0  0  0
  4 10  1  0  0  0  0
  4 25  1  0  0  0  0
  5  7  1  0  0  0  0
  5 16  1  0  0  0  0
  5 26  1  0  0  0  0
  6  8  2  0  0  0  0
  6 11  1  0  0  0  0
  7 11  1  0  0  0  0
  7 12  1  0  0  0  0
  7 24  1  0  0  0  0
  8  9  1  0  0  0  0
  8 13  1  0  0  0  0
  9 10  2  0  0  0  0
  9 15  1  0  0  0  0
 10 14  1  0  0  0  0
 12 27  1  0  0  0  0
 12 28  1  0  0  0  0
 12 29  1  0  0  0  0
 13 30  1  0  0  0  0
 13 31  1  0  0  0  0
 13 32  1  0  0  0  0
 14 33  1  0  0  0  0
 14 34  1  0  0  0  0
 14 35  1  0  0  0  0
 15 18  1  0  0  0  0
 16 17  1  0  0  0  0
 16 19  2  0  0  0  0
 17 20  2  0  0  0  0
 18 36  1  0  0  0  0
 18 37  1  0  0  0  0
 18 38  1  0  0  0  0
 19 21  1  0  0  0  0
 19 39  1  0  0  0  0
 20 22  1  0  0  0  0
 20 40  1  0  0  0  0
 21 22  2  0  0  0  0
 21 41  1  0  0  0  0
 22 42  1  0  0  0  0
 23 43  1  0  0  0  0
 23 44  1  0  0  0  0
 23 45  1  0  0  0  0
M  END
> <PUBCHEM_COMPOUND_CID>
17396167

> <PUBCHEM_COMPOUND_CANONICALIZED>
1

> <PUBCHEM_CACTVS_COMPLEXITY>
440

> <PUBCHEM_CACTVS_HBOND_ACCEPTOR>
4

> <PUBCHEM_CACTVS_HBOND_DONOR>
2

> <PUBCHEM_CACTVS_ROTATABLE_BOND>
6

> <PUBCHEM_CACTVS_SUBSKEYS>
AAADceB7MAAAAAAAAAAAAAAAAAAAAWAAAAAwAAAAAAAAAAABwAAAHgAQAAAADCzBngYyxpLJlACoA6RyRACCiCAnIiAImaG/bNgOJnrE9buFMahk0BHY6Uecy8C+gAAAAAAAEAAAAAAAAAAgAAAAAAAAAA==

> <PUBCHEM_IUPAC_OPENEYE_NAME>
1-(4-acetyl-3,5-dimethyl-1H-pyrrol-2-yl)-2-(2-methoxyanilino)propan-1-one

> <PUBCHEM_IUPAC_CAS_NAME>
1-(4-acetyl-3,5-dimethyl-1H-pyrrol-2-yl)-2-(2-methoxyanilino)-1-propanone

> <PUBCHEM_IUPAC_NAME>
1-(4-acetyl-3,5-dimethyl-1H-pyrrol-2-yl)-2-(2-methoxyanilino)propan-1-one

> <PUBCHEM_IUPAC_SYSTEMATIC_NAME>
1-(4-ethanoyl-3,5-dimethyl-1H-pyrrol-2-yl)-2-[(2-methoxyphenyl)amino]propan-1-one

> <PUBCHEM_IUPAC_TRADITIONAL_NAME>
1-(4-acetyl-3,5-dimethyl-1H-pyrrol-2-yl)-2-(o-anisidino)propan-1-one

> <PUBCHEM_IUPAC_INCHI>
InChI=1S/C18H22N2O3/c1-10-16(13(4)21)11(2)20-17(10)18(22)12(3)19-14-8-6-7-9-15(14)23-5/h6-9,12,19-20H,1-5H3

> <PUBCHEM_IUPAC_INCHIKEY>
MNDILFFVCDJTTG-UHFFFAOYSA-N

> <PUBCHEM_XLOGP3_AA>
3.3

> <PUBCHEM_EXACT_MASS>
314.163043

> <PUBCHEM_MOLECULAR_FORMULA>
C18H22N2O3

> <PUBCHEM_MOLECULAR_WEIGHT>
314.37888

> <PUBCHEM_OPENEYE_CAN_SMILES>
CC1=C(NC(=C1C(=O)C)C)C(=O)C(C)NC2=CC=CC=C2OC

> <PUBCHEM_OPENEYE_ISO_SMILES>
CC1=C(NC(=C1C(=O)C)C)C(=O)C(C)NC2=CC=CC=C2OC

> <PUBCHEM_CACTVS_TPSA>
71.2

> <PUBCHEM_MONOISOTOPIC_WEIGHT>
314.163043

> <PUBCHEM_TOTAL_CHARGE>
0

> <PUBCHEM_HEAVY_ATOM_COUNT>
23

> <PUBCHEM_ATOM_DEF_STEREO_COUNT>
0

> <PUBCHEM_ATOM_UDEF_STEREO_COUNT>
1

> <PUBCHEM_BOND_DEF_STEREO_COUNT>
0

> <PUBCHEM_BOND_UDEF_STEREO_COUNT>
0

> <PUBCHEM_ISOTOPIC_ATOM_COUNT>
0

> <PUBCHEM_COMPONENT_COUNT>
1

> <PUBCHEM_CACTVS_TAUTO_COUNT>
144

> <PUBCHEM_COORDINATE_TYPE>
1
5
255

> <PUBCHEM_BONDANNOTATIONS>
16  17  8
16  19  8
17  20  8
19  21  8
20  22  8
21  22  8
4  10  8
4  6  8
6  8  8
7  12  3
8  9  8
9  10  8

$$$$

