5469789
  -OEChem-07051213103D

 42 41  0     1  0  0  0  0  0999 V2000
    3.8855    2.4416    1.1424 O   0  0  0  0  0  0  0  0  0  0  0  0
   -0.8519   -2.8924   -0.1681 C   0  0  0  0  0  0  0  0  0  0  0  0
   -1.6809   -1.6056   -0.1890 C   0  0  0  0  0  0  0  0  0  0  0  0
    0.6059   -2.6637    0.2447 C   0  0  0  0  0  0  0  0  0  0  0  0
   -3.1391   -1.8288   -0.6122 C   0  0  0  0  0  0  0  0  0  0  0  0
    1.4417   -3.9448    0.2469 C   0  0  0  0  0  0  0  0  0  0  0  0
   -4.0076   -0.5666   -0.6676 C   0  0  0  0  0  0  0  0  0  0  0  0
    2.8585   -3.6812    0.7337 C   0  0  0  0  0  0  0  0  0  0  0  0
   -4.1434    0.1069    0.6671 C   0  0  0  0  0  0  0  0  0  0  0  0
   -3.8197    1.3899    0.8882 C   0  0  0  0  0  0  0  0  0  0  0  0
   -3.2835    2.3090   -0.1664 C   0  0  0  0  0  0  0  0  0  0  0  0
   -1.8171    2.2415   -0.1789 C   0  0  0  0  0  0  0  0  0  0  0  0
   -0.6181    2.1794   -0.1764 C   0  0  0  0  0  0  0  0  0  0  0  0
    3.4125    1.9154   -0.0944 C   0  0  2  0  0  0  0  0  0  0  0  0
    0.7509    2.0960   -0.1575 C   0  0  0  0  0  0  0  0  0  0  0  0
    1.9486    2.0146   -0.1314 C   0  0  0  0  0  0  0  0  0  0  0  0
    3.8296    0.4794   -0.2077 C   0  0  0  0  0  0  0  0  0  0  0  0
    4.6280    0.0096   -1.1735 C   0  0  0  0  0  0  0  0  0  0  0  0
   -0.8753   -3.3519   -1.1640 H   0  0  0  0  0  0  0  0  0  0  0  0
   -1.3140   -3.6082    0.5227 H   0  0  0  0  0  0  0  0  0  0  0  0
   -1.6494   -1.1512    0.8081 H   0  0  0  0  0  0  0  0  0  0  0  0
   -1.2161   -0.8928   -0.8805 H   0  0  0  0  0  0  0  0  0  0  0  0
    1.0637   -1.9351   -0.4360 H   0  0  0  0  0  0  0  0  0  0  0  0
    0.6252   -2.2156    1.2460 H   0  0  0  0  0  0  0  0  0  0  0  0
   -3.6002   -2.5518    0.0734 H   0  0  0  0  0  0  0  0  0  0  0  0
   -3.1512   -2.2969   -1.6047 H   0  0  0  0  0  0  0  0  0  0  0  0
    1.4759   -4.3678   -0.7636 H   0  0  0  0  0  0  0  0  0  0  0  0
    0.9723   -4.6921    0.8969 H   0  0  0  0  0  0  0  0  0  0  0  0
   -5.0128   -0.8536   -1.0005 H   0  0  0  0  0  0  0  0  0  0  0  0
   -3.6034    0.0810   -1.4490 H   0  0  0  0  0  0  0  0  0  0  0  0
    3.4368   -4.6104    0.7366 H   0  0  0  0  0  0  0  0  0  0  0  0
    2.8565   -3.2789    1.7518 H   0  0  0  0  0  0  0  0  0  0  0  0
    3.3692   -2.9659    0.0817 H   0  0  0  0  0  0  0  0  0  0  0  0
   -4.5361   -0.4833    1.4908 H   0  0  0  0  0  0  0  0  0  0  0  0
   -3.9528    1.7961    1.8878 H   0  0  0  0  0  0  0  0  0  0  0  0
   -3.5988    3.3301    0.0818 H   0  0  0  0  0  0  0  0  0  0  0  0
   -3.7019    2.1160   -1.1581 H   0  0  0  0  0  0  0  0  0  0  0  0
    3.8485    2.5225   -0.8949 H   0  0  0  0  0  0  0  0  0  0  0  0
    3.4725   -0.2169    0.5484 H   0  0  0  0  0  0  0  0  0  0  0  0
    3.5459    1.8851    1.8647 H   0  0  0  0  0  0  0  0  0  0  0  0
    4.9005   -1.0399   -1.1986 H   0  0  0  0  0  0  0  0  0  0  0  0
    5.0207    0.6564   -1.9501 H   0  0  0  0  0  0  0  0  0  0  0  0
  1 14  1  0  0  0  0
  1 40  1  0  0  0  0
  2  3  1  0  0  0  0
  2  4  1  0  0  0  0
  2 19  1  0  0  0  0
  2 20  1  0  0  0  0
  3  5  1  0  0  0  0
  3 21  1  0  0  0  0
  3 22  1  0  0  0  0
  4  6  1  0  0  0  0
  4 23  1  0  0  0  0
  4 24  1  0  0  0  0
  5  7  1  0  0  0  0
  5 25  1  0  0  0  0
  5 26  1  0  0  0  0
  6  8  1  0  0  0  0
  6 27  1  0  0  0  0
  6 28  1  0  0  0  0
  7  9  1  0  0  0  0
  7 29  1  0  0  0  0
  7 30  1  0  0  0  0
  8 31  1  0  0  0  0
  8 32  1  0  0  0  0
  8 33  1  0  0  0  0
  9 10  2  0  0  0  0
  9 34  1  0  0  0  0
 10 11  1  0  0  0  0
 10 35  1  0  0  0  0
 11 12  1  0  0  0  0
 11 36  1  0  0  0  0
 11 37  1  0  0  0  0
 12 13  3  0  0  0  0
 13 15  1  0  0  0  0
 14 16  1  0  0  0  0
 14 17  1  0  0  0  0
 14 38  1  0  0  0  0
 15 16  3  0  0  0  0
 17 18  2  0  0  0  0
 17 39  1  0  0  0  0
 18 41  1  0  0  0  0
 18 42  1  0  0  0  0
M  END
> <PUBCHEM_COMPOUND_CID>
5469789

> <PUBCHEM_CONFORMER_RMSD>
1

> <PUBCHEM_CONFORMER_DIVERSEORDER>
1
70
8
647
112
646
19
126
444
498
193
632
110
311
395
476
349
66
219
468
44
531
16
46
472
82
197
547
438
433
490
504
11
228
109
217
622
54
525
419
118
79
128
95
635
225
161
108
452
72
393
397
518
88
14
259
636
629
343
187
103
481
309
4
137
667
290
101
80
2
277
358
247
45
293
91
15
553
570
177
604
189
49
497
429
6
244
561
65
142
610
43
61
345
337
179
30
542
470
351
252
57
7
323
534
87
554
37
130
52
39
3
35
569
638
529
120
50
624
51
93
5
12
38
20
22
9

> <PUBCHEM_MMFF94_PARTIAL_CHARGES>
16
1 -0.68
10 -0.29
11 0.34
12 -0.2
14 0.62
16 -0.2
17 -0.29
18 -0.3
34 0.15
35 0.15
39 0.15
40 0.4
41 0.15
42 0.15
7 0.14
9 -0.29

> <PUBCHEM_EFFECTIVE_ROTOR_COUNT>
8

> <PUBCHEM_PHARMACOPHORE_FEATURES>
4
1 1 acceptor
1 1 donor
1 18 hydrophobe
1 8 hydrophobe

> <PUBCHEM_HEAVY_ATOM_COUNT>
18

> <PUBCHEM_ATOM_DEF_STEREO_COUNT>
1

> <PUBCHEM_ATOM_UDEF_STEREO_COUNT>
0

> <PUBCHEM_BOND_DEF_STEREO_COUNT>
1

> <PUBCHEM_BOND_UDEF_STEREO_COUNT>
0

> <PUBCHEM_ISOTOPIC_ATOM_COUNT>
0

> <PUBCHEM_COMPONENT_COUNT>
1

> <PUBCHEM_CACTVS_TAUTO_COUNT>
1

> <PUBCHEM_CONFORMER_ID>
0053765D00000001

> <PUBCHEM_MMFF94_ENERGY>
1.5907

> <PUBCHEM_FEATURE_SELFOVERLAP>
20.297

> <PUBCHEM_SHAPE_FINGERPRINT>
1100329 8 17907299106389523943
11458722 379 18410286999768733701
12038231 1 18339079276864228094
14022349 108 18265601268928380169
14251740 79 18187629324197708016
14251757 5 17837754644151517132
15006816 218 18410571820609298813
16120349 306 18338527343280362720
16719943 64 18268713823148484122
17093844 170 18337677391434084772
18336668 15 17770493454942091550
19591789 44 18410853265500119892
21673915 165 18336266730299514204
338550 245 18270677684027951814
5282940 2 18340483469003013107
6433294 58 18266739271736525606

> <PUBCHEM_SHAPE_MULTIPOLES>
364.56
9.04
5.37
0.91
1.29
4.37
-0.02
-2.76
0.12
3.33
-0.77
0.19
-0.03
-0.69

> <PUBCHEM_SHAPE_SELFOVERLAP>
685.657

> <PUBCHEM_SHAPE_VOLUME>
222.6

> <PUBCHEM_COORDINATE_TYPE>
2
5
10

$$$$

