441991
  -OEChem-07051212563D

 51 55  0     1  0  0  0  0  0999 V2000
    0.4085   -1.2994    2.7767 O   0  0  0  0  0  0  0  0  0  0  0  0
    4.3327   -2.3315   -0.3686 O   0  0  0  0  0  0  0  0  0  0  0  0
    1.8861    3.4633   -0.7369 O   0  0  0  0  0  0  0  0  0  0  0  0
   -0.2393    3.7739    0.1264 O   0  0  0  0  0  0  0  0  0  0  0  0
    1.0844   -1.8531   -1.2636 N   0  0  2  0  0  0  0  0  0  0  0  0
   -1.8873    1.5665   -0.5543 N   0  0  0  0  0  0  0  0  0  0  0  0
    0.3915   -1.3225   -0.0741 C   0  0  2  0  0  0  0  0  0  0  0  0
   -0.7651   -0.5171   -0.7126 C   0  0  2  0  0  0  0  0  0  0  0  0
    1.4074   -0.4894    0.7481 C   0  0  2  0  0  0  0  0  0  0  0  0
   -0.7957   -0.9943   -2.1933 C   0  0  0  0  0  0  0  0  0  0  0  0
    1.7897    0.8011   -0.0476 C   0  0  0  0  0  0  0  0  0  0  0  0
   -0.6169    1.0229   -0.6320 C   0  0  0  0  0  0  0  0  0  0  0  0
    0.0558   -2.2531   -2.2022 C   0  0  0  0  0  0  0  0  0  0  0  0
    2.6711   -1.3384    1.0476 C   0  0  0  0  0  0  0  0  0  0  0  0
   -2.1616   -0.6892   -0.1417 C   0  0  0  0  0  0  0  0  0  0  0  0
    0.7944   -0.1074    2.1181 C   0  0  2  0  0  0  0  0  0  0  0  0
    0.5709    1.6124   -0.4110 C   0  0  0  0  0  0  0  0  0  0  0  0
    2.0687   -2.8629   -0.9485 C   0  0  0  0  0  0  0  0  0  0  0  0
    3.1356   -2.1588   -0.1405 C   0  0  0  0  0  0  0  0  0  0  0  0
   -2.7835    0.5788   -0.1296 C   0  0  0  0  0  0  0  0  0  0  0  0
    1.7897    0.6570    2.9597 C   0  0  0  0  0  0  0  0  0  0  0  0
   -2.8463   -1.8260    0.2466 C   0  0  0  0  0  0  0  0  0  0  0  0
    0.6634    3.0723   -0.2986 C   0  0  0  0  0  0  0  0  0  0  0  0
   -4.1059    0.7239    0.2384 C   0  0  0  0  0  0  0  0  0  0  0  0
   -4.1771   -1.6812    0.6454 C   0  0  0  0  0  0  0  0  0  0  0  0
   -4.8019   -0.4207    0.6363 C   0  0  0  0  0  0  0  0  0  0  0  0
    2.1309    4.8728   -0.6883 C   0  0  0  0  0  0  0  0  0  0  0  0
   -0.0024   -2.1622    0.5136 H   0  0  0  0  0  0  0  0  0  0  0  0
   -0.3404   -0.2442   -2.8551 H   0  0  0  0  0  0  0  0  0  0  0  0
   -1.7998   -1.2019   -2.5809 H   0  0  0  0  0  0  0  0  0  0  0  0
    2.3103    0.5381   -0.9781 H   0  0  0  0  0  0  0  0  0  0  0  0
    2.5125    1.3972    0.5175 H   0  0  0  0  0  0  0  0  0  0  0  0
   -0.5118   -3.1237   -1.8528 H   0  0  0  0  0  0  0  0  0  0  0  0
    0.4518   -2.4585   -3.2014 H   0  0  0  0  0  0  0  0  0  0  0  0
    2.5035   -2.0641    1.8519 H   0  0  0  0  0  0  0  0  0  0  0  0
    3.5112   -0.6977    1.3404 H   0  0  0  0  0  0  0  0  0  0  0  0
   -0.1108    0.4964    2.0050 H   0  0  0  0  0  0  0  0  0  0  0  0
    2.5332   -3.2480   -1.8627 H   0  0  0  0  0  0  0  0  0  0  0  0
    1.6641   -3.7027   -0.3739 H   0  0  0  0  0  0  0  0  0  0  0  0
   -2.0402    2.5475   -0.3778 H   0  0  0  0  0  0  0  0  0  0  0  0
    2.0960    1.6108    2.5261 H   0  0  0  0  0  0  0  0  0  0  0  0
    1.3250    0.8969    3.9250 H   0  0  0  0  0  0  0  0  0  0  0  0
    2.6755    0.0718    3.2233 H   0  0  0  0  0  0  0  0  0  0  0  0
   -2.3805   -2.8046    0.2259 H   0  0  0  0  0  0  0  0  0  0  0  0
    0.0262   -1.0535    3.6362 H   0  0  0  0  0  0  0  0  0  0  0  0
   -4.5925    1.6930    0.2345 H   0  0  0  0  0  0  0  0  0  0  0  0
   -4.7439   -2.5558    0.9543 H   0  0  0  0  0  0  0  0  0  0  0  0
   -5.8417   -0.3381    0.9418 H   0  0  0  0  0  0  0  0  0  0  0  0
    3.1403    5.0557   -1.0662 H   0  0  0  0  0  0  0  0  0  0  0  0
    2.0716    5.2317    0.3437 H   0  0  0  0  0  0  0  0  0  0  0  0
    1.4159    5.4035   -1.3241 H   0  0  0  0  0  0  0  0  0  0  0  0
  1 16  1  0  0  0  0
  1 45  1  0  0  0  0
  2 19  2  0  0  0  0
  3 23  1  0  0  0  0
  3 27  1  0  0  0  0
  4 23  2  0  0  0  0
  5  7  1  0  0  0  0
  5 13  1  0  0  0  0
  5 18  1  0  0  0  0
  6 12  1  0  0  0  0
  6 20  1  0  0  0  0
  6 40  1  0  0  0  0
  7  8  1  0  0  0  0
  7  9  1  0  0  0  0
  7 28  1  0  0  0  0
  8 10  1  0  0  0  0
  8 12  1  0  0  0  0
  8 15  1  0  0  0  0
  9 11  1  0  0  0  0
  9 14  1  0  0  0  0
  9 16  1  0  0  0  0
 10 13  1  0  0  0  0
 10 29  1  0  0  0  0
 10 30  1  0  0  0  0
 11 17  1  0  0  0  0
 11 31  1  0  0  0  0
 11 32  1  0  0  0  0
 12 17  2  0  0  0  0
 13 33  1  0  0  0  0
 13 34  1  0  0  0  0
 14 19  1  0  0  0  0
 14 35  1  0  0  0  0
 14 36  1  0  0  0  0
 15 20  1  0  0  0  0
 15 22  2  0  0  0  0
 16 21  1  0  0  0  0
 16 37  1  0  0  0  0
 17 23  1  0  0  0  0
 18 19  1  0  0  0  0
 18 38  1  0  0  0  0
 18 39  1  0  0  0  0
 20 24  2  0  0  0  0
 21 41  1  0  0  0  0
 21 42  1  0  0  0  0
 21 43  1  0  0  0  0
 22 25  1  0  0  0  0
 22 44  1  0  0  0  0
 24 26  1  0  0  0  0
 24 46  1  0  0  0  0
 25 26  2  0  0  0  0
 25 47  1  0  0  0  0
 26 48  1  0  0  0  0
 27 49  1  0  0  0  0
 27 50  1  0  0  0  0
 27 51  1  0  0  0  0
M  END
> <PUBCHEM_COMPOUND_CID>
441991

> <PUBCHEM_CONFORMER_RMSD>
0.8

> <PUBCHEM_CONFORMER_DIVERSEORDER>
1
5
3
6
2
4

> <PUBCHEM_MMFF94_PARTIAL_CHARGES>
30
1 -0.68
11 0.14
12 -0.04
13 0.27
14 0.06
15 -0.14
16 0.28
17 -0.12
18 0.33
19 0.45
2 -0.57
20 0.1
22 -0.15
23 0.71
24 -0.15
25 -0.15
26 -0.15
27 0.28
3 -0.43
4 -0.57
40 0.4
44 0.15
45 0.4
46 0.15
47 0.15
48 0.15
5 -0.81
6 -0.6
7 0.27
8 0.28

> <PUBCHEM_EFFECTIVE_ROTOR_COUNT>
4.2

> <PUBCHEM_PHARMACOPHORE_FEATURES>
12
1 1 acceptor
1 1 donor
1 2 acceptor
1 4 acceptor
1 5 cation
1 6 cation
1 6 donor
5 5 7 8 10 13 rings
5 6 8 12 15 20 rings
6 15 20 22 24 25 26 rings
6 5 7 9 14 18 19 rings
6 7 8 9 11 12 17 rings

> <PUBCHEM_HEAVY_ATOM_COUNT>
27

> <PUBCHEM_ATOM_DEF_STEREO_COUNT>
4

> <PUBCHEM_ATOM_UDEF_STEREO_COUNT>
0

> <PUBCHEM_BOND_DEF_STEREO_COUNT>
0

> <PUBCHEM_BOND_UDEF_STEREO_COUNT>
0

> <PUBCHEM_ISOTOPIC_ATOM_COUNT>
0

> <PUBCHEM_COMPONENT_COUNT>
1

> <PUBCHEM_CACTVS_TAUTO_COUNT>
9

> <PUBCHEM_CONFORMER_ID>
0006BE8700000001

> <PUBCHEM_MMFF94_ENERGY>
106.6877

> <PUBCHEM_FEATURE_SELFOVERLAP>
61.454

> <PUBCHEM_SHAPE_FINGERPRINT>
10165383 225 17605294911937831824
10863032 1 18411691080407316831
10948715 1 17906443329850305173
12156800 1 15939186396853412856
12160290 23 17472451075193385432
12592029 89 18121202204461528764
12716301 132 17328610799304584410
12788726 201 17912352423471573602
13140716 1 18265616661431844204
138480 1 18411412912555502252
14022347 108 18054521471544593841
14223421 5 18129101109333943655
14713325 29 17759520358918992102
14787075 74 17917419922197796662
14790565 3 17978782420224502445
14955137 171 18338804403579604656
15324884 4 18118429412045197044
16945 1 18268434520871246319
19591789 44 17906445524452090572
20600515 1 18046331192217662573
21033648 29 17678760023009900083
21756936 100 17335060057809678300
23352939 185 18188755254422288854
23419403 2 16812387865144339347
23559900 14 18410858759375467999
2748010 2 18191895476320619020
298252 57 17758663460939784197
3052486 1 17693363856524858493
3411729 13 18200027314502599609
350125 39 17169574937903620663
394222 165 17899387853897375363
4340502 62 17127341485563502155
6287921 2 18191034408386901434
7364860 26 18339636729312245117
81228 2 17833861599373311029

> <PUBCHEM_SHAPE_MULTIPOLES>
522.21
5.92
4.41
2
6.03
5.09
-1.12
-1.78
-1.28
-4.87
1.88
-0.87
-0.76
-0.1

> <PUBCHEM_SHAPE_SELFOVERLAP>
1165.117

> <PUBCHEM_SHAPE_VOLUME>
278.7

> <PUBCHEM_COORDINATE_TYPE>
2
5
10

$$$$

