40413
  -OEChem-07051213003D

 39 41  0     1  0  0  0  0  0999 V2000
   -0.5476    1.8483   -0.5671 O   0  0  0  0  0  0  0  0  0  0  0  0
    1.6186    0.6504   -1.5112 O   0  0  0  0  0  0  0  0  0  0  0  0
    2.6248    0.5039    0.6050 N   0  0  0  0  0  0  0  0  0  0  0  0
    0.4764    1.5798    0.3896 C   0  0  1  0  0  0  0  0  0  0  0  0
   -3.1101   -0.7391   -0.0890 C   0  0  0  0  0  0  0  0  0  0  0  0
   -4.2620    0.0664    0.0762 C   0  0  0  0  0  0  0  0  0  0  0  0
   -1.7599    1.2669   -0.3567 C   0  0  0  0  0  0  0  0  0  0  0  0
   -1.8665   -0.1231   -0.3042 C   0  0  0  0  0  0  0  0  0  0  0  0
   -4.1363    1.4639    0.0207 C   0  0  0  0  0  0  0  0  0  0  0  0
   -2.8928    2.0588   -0.1945 C   0  0  0  0  0  0  0  0  0  0  0  0
    1.6335    0.8635   -0.3022 C   0  0  0  0  0  0  0  0  0  0  0  0
    0.9253    2.8868    1.0262 C   0  0  0  0  0  0  0  0  0  0  0  0
   -3.2356   -2.1368   -0.0332 C   0  0  0  0  0  0  0  0  0  0  0  0
   -5.5057   -0.5497    0.2914 C   0  0  0  0  0  0  0  0  0  0  0  0
   -4.4792   -2.7318    0.1815 C   0  0  0  0  0  0  0  0  0  0  0  0
   -5.6119   -1.9399    0.3433 C   0  0  0  0  0  0  0  0  0  0  0  0
    3.8392   -0.1707    0.3342 C   0  0  0  0  0  0  0  0  0  0  0  0
    4.7052   -0.4517    1.3778 C   0  0  0  0  0  0  0  0  0  0  0  0
    4.1354   -0.5361   -0.9686 C   0  0  0  0  0  0  0  0  0  0  0  0
    5.9020   -1.1168    1.1111 C   0  0  0  0  0  0  0  0  0  0  0  0
    5.3320   -1.2013   -1.2351 C   0  0  0  0  0  0  0  0  0  0  0  0
    6.2153   -1.4917   -0.1953 C   0  0  0  0  0  0  0  0  0  0  0  0
    0.1095    0.9231    1.1910 H   0  0  0  0  0  0  0  0  0  0  0  0
   -0.9784   -0.7372   -0.4419 H   0  0  0  0  0  0  0  0  0  0  0  0
   -5.0083    2.1028    0.1450 H   0  0  0  0  0  0  0  0  0  0  0  0
   -2.8152    3.1420   -0.2338 H   0  0  0  0  0  0  0  0  0  0  0  0
    1.3764    3.5467    0.2764 H   0  0  0  0  0  0  0  0  0  0  0  0
    1.6557    2.7352    1.8260 H   0  0  0  0  0  0  0  0  0  0  0  0
    0.0661    3.4231    1.4435 H   0  0  0  0  0  0  0  0  0  0  0  0
   -2.3636   -2.7757   -0.1569 H   0  0  0  0  0  0  0  0  0  0  0  0
   -6.4045    0.0496    0.4207 H   0  0  0  0  0  0  0  0  0  0  0  0
    2.4706    0.7270    1.5855 H   0  0  0  0  0  0  0  0  0  0  0  0
   -4.5625   -3.8140    0.2223 H   0  0  0  0  0  0  0  0  0  0  0  0
   -6.5797   -2.4038    0.5104 H   0  0  0  0  0  0  0  0  0  0  0  0
    4.4709   -0.1642    2.3990 H   0  0  0  0  0  0  0  0  0  0  0  0
    3.5072   -0.3457   -1.8259 H   0  0  0  0  0  0  0  0  0  0  0  0
    6.5898   -1.3430    1.9206 H   0  0  0  0  0  0  0  0  0  0  0  0
    5.5778   -1.4933   -2.2521 H   0  0  0  0  0  0  0  0  0  0  0  0
    7.1471   -2.0095   -0.4030 H   0  0  0  0  0  0  0  0  0  0  0  0
  1  4  1  0  0  0  0
  1  7  1  0  0  0  0
  2 11  2  0  0  0  0
  3 11  1  0  0  0  0
  3 17  1  0  0  0  0
  3 32  1  0  0  0  0
  4 11  1  0  0  0  0
  4 12  1  0  0  0  0
  4 23  1  0  0  0  0
  5  6  1  0  0  0  0
  5  8  1  0  0  0  0
  5 13  2  0  0  0  0
  6  9  1  0  0  0  0
  6 14  2  0  0  0  0
  7  8  2  0  0  0  0
  7 10  1  0  0  0  0
  8 24  1  0  0  0  0
  9 10  2  0  0  0  0
  9 25  1  0  0  0  0
 10 26  1  0  0  0  0
 12 27  1  0  0  0  0
 12 28  1  0  0  0  0
 12 29  1  0  0  0  0
 13 15  1  0  0  0  0
 13 30  1  0  0  0  0
 14 16  1  0  0  0  0
 14 31  1  0  0  0  0
 15 16  2  0  0  0  0
 15 33  1  0  0  0  0
 16 34  1  0  0  0  0
 17 18  2  0  0  0  0
 17 19  1  0  0  0  0
 18 20  1  0  0  0  0
 18 35  1  0  0  0  0
 19 21  2  0  0  0  0
 19 36  1  0  0  0  0
 20 22  2  0  0  0  0
 20 37  1  0  0  0  0
 21 22  1  0  0  0  0
 21 38  1  0  0  0  0
 22 39  1  0  0  0  0
M  END
> <PUBCHEM_COMPOUND_CID>
40413

> <PUBCHEM_CONFORMER_RMSD>
0.8

> <PUBCHEM_CONFORMER_DIVERSEORDER>
1
73
59
63
27
34
33
24
66
45
13
3
61
50
70
42
67
46
22
43
18
6
49
68
41
52
38
35
79
26
9
80
57
7
29
36
64
62
19
56
12
76
30
77
31
40
14
32
5
2
23
58
65
69
21
78
15
47
17
28
4
37
75
53
71
20
16
72
8
60
55
54
48
51
39
25
10
44
74
11

> <PUBCHEM_MMFF94_PARTIAL_CHARGES>
32
1 -0.36
10 -0.15
11 0.57
13 -0.15
14 -0.15
15 -0.15
16 -0.15
17 0.12
18 -0.15
19 -0.15
2 -0.57
20 -0.15
21 -0.15
22 -0.15
24 0.15
25 0.15
26 0.15
3 -0.55
30 0.15
31 0.15
32 0.37
33 0.15
34 0.15
35 0.15
36 0.15
37 0.15
38 0.15
39 0.15
4 0.34
7 0.08
8 -0.15
9 -0.15

> <PUBCHEM_EFFECTIVE_ROTOR_COUNT>
5

> <PUBCHEM_PHARMACOPHORE_FEATURES>
6
1 1 acceptor
1 2 acceptor
1 3 donor
6 17 18 19 20 21 22 rings
6 5 6 13 14 15 16 rings
6 5 6 7 8 9 10 rings

> <PUBCHEM_HEAVY_ATOM_COUNT>
22

> <PUBCHEM_ATOM_DEF_STEREO_COUNT>
0

> <PUBCHEM_ATOM_UDEF_STEREO_COUNT>
1

> <PUBCHEM_BOND_DEF_STEREO_COUNT>
0

> <PUBCHEM_BOND_UDEF_STEREO_COUNT>
0

> <PUBCHEM_ISOTOPIC_ATOM_COUNT>
0

> <PUBCHEM_COMPONENT_COUNT>
1

> <PUBCHEM_CACTVS_TAUTO_COUNT>
2

> <PUBCHEM_CONFORMER_ID>
00009DDD00000001

> <PUBCHEM_MMFF94_ENERGY>
73.9437

> <PUBCHEM_FEATURE_SELFOVERLAP>
30.481

> <PUBCHEM_SHAPE_FINGERPRINT>
11524674 6 17603589642723875175
11545043 162 18260553337308123664
11796584 16 18341054128712686236
11809386 21 18059861692114702475
12236239 1 17846494872470743700
12516196 113 18333169458047614752
12633257 1 18115289113022345265
12760667 363 18408326566911478071
13288520 33 18412544323290234461
13402501 40 18334010605596427174
13740256 8 18409448085535077232
14123256 34 18412255125588110602
14216079 64 18410575051163813711
14251751 18 18411419496845537114
14251752 14 17632584876770737621
14420673 8 18409725188409264387
15348495 7 17894636924246420074
15352361 1 18410292501627211791
15537594 2 17988641943043208259
17138139 8 17917435302523430146
17492 89 18051693248908503315
17780758 139 18040714788107397993
17804303 29 18410011027136031741
17844677 252 18410570699908216936
17857418 61 18272934920600359530
1813 80 17488754371775285909
193927 3 18341605997355039330
1979834 28 17095510791042367166
20374829 77 18342459240042823549
20403669 9 18409445869068299375
21033648 29 17023200360574116219
21054139 6 17989207079863314514
21267235 1 18343297038513911067
21403212 168 18261382413264856129
21623969 137 17458345264954314174
22061861 79 14045743755273237602
22950370 63 18412541016060038380
23198884 109 14405188391496525855
23522609 53 18056164021357558581
23559900 14 18339368448892175841
2916195 48 10519691277226769478
3004659 81 18272928324126445294
312425 54 17968933214089646106
316301 35 18267587913929027011
335352 9 18412265043680148389
3421961 26 18261957328005724720
351380 3 18060702796929879266
397830 11 18262534615113705992
44062 13 18412828001511191541
4409770 3 17985557882027510373
465052 167 18187079560194558878
5104073 3 18188203209296341985
5486654 36 18411129234803816569
559249 180 18272655679676334943
5718773 13 18263367984914536527
636775 8 18188479303481137414
7970288 3 18342742922680989922
86090 222 17241585339173256070
8863177 126 18336266743226360906

> <PUBCHEM_SHAPE_MULTIPOLES>
436.03
15.67
2.71
1.06
9.98
0.34
-0.02
-11.56
1.52
-2.57
0.34
1.47
0
0.64

> <PUBCHEM_SHAPE_SELFOVERLAP>
949.682

> <PUBCHEM_SHAPE_VOLUME>
237.4

> <PUBCHEM_COORDINATE_TYPE>
2
5
10

$$$$

