6441228
  -OEChem-07051213092D

 74 75  0     1  0  0  0  0  0999 V2000
    5.6103    0.5199    0.0000 O   0  0  0  0  0  0  0  0  0  0  0  0
    3.7320    4.6762    0.0000 N   0  3  2  0  0  0  0  0  0  0  0  0
    5.9674    2.2147    0.0000 N   0  0  0  0  0  0  0  0  0  0  0  0
    3.7320    3.6762    0.0000 C   0  0  1  0  0  0  0  0  0  0  0  0
    4.6783    3.3715    0.0000 C   0  0  1  0  0  0  0  0  0  0  0  0
    4.6783    4.9810    0.0000 C   0  0  0  0  0  0  0  0  0  0  0  0
    5.2619    4.1762    0.0000 C   0  0  0  0  0  0  0  0  0  0  0  0
    2.8660    5.1762    0.0000 C   0  0  0  0  0  0  0  0  0  0  0  0
    2.8660    3.1762    0.0000 C   0  0  0  0  0  0  0  0  0  0  0  0
    2.0000    4.6762    0.0000 C   0  0  0  0  0  0  0  0  0  0  0  0
    2.0000    3.6762    0.0000 C   0  0  0  0  0  0  0  0  0  0  0  0
    3.7320    5.6762    0.0000 C   0  0  0  0  0  0  0  0  0  0  0  0
    4.9889    2.4210    0.0000 C   0  0  0  0  0  0  0  0  0  0  0  0
    6.2781    1.2642    0.0000 C   0  0  0  0  0  0  0  0  0  0  0  0
    7.2566    1.0580    0.0000 C   0  0  0  0  0  0  0  0  0  0  0  0
    7.5673    0.1075    0.0000 C   0  0  0  0  0  0  0  0  0  0  0  0
    8.5458   -0.0987    0.0000 C   0  0  2  0  0  0  0  0  0  0  0  0
    8.8564   -1.0493    0.0000 C   0  0  0  0  0  0  0  0  0  0  0  0
    9.2136    0.6456    0.0000 C   0  0  0  0  0  0  0  0  0  0  0  0
    9.8349   -1.2555    0.0000 C   0  0  0  0  0  0  0  0  0  0  0  0
   10.1456   -2.2060    0.0000 C   0  0  0  0  0  0  0  0  0  0  0  0
   11.1241   -2.4122    0.0000 C   0  0  0  0  0  0  0  0  0  0  0  0
   11.4348   -3.3627    0.0000 C   0  0  0  0  0  0  0  0  0  0  0  0
   11.7920   -1.6679    0.0000 C   0  0  0  0  0  0  0  0  0  0  0  0
   12.4133   -3.5690    0.0000 C   0  0  0  0  0  0  0  0  0  0  0  0
   12.7239   -4.5195    0.0000 C   0  0  0  0  0  0  0  0  0  0  0  0
   13.7024   -4.7257    0.0000 C   0  0  0  0  0  0  0  0  0  0  0  0
   14.0131   -5.6762    0.0000 C   0  0  0  0  0  0  0  0  0  0  0  0
   14.3703   -3.9814    0.0000 C   0  0  0  0  0  0  0  0  0  0  0  0
    3.8220    2.8310    0.0000 H   0  0  0  0  0  0  0  0  0  0  0  0
    5.2908    3.2753    0.0000 H   0  0  0  0  0  0  0  0  0  0  0  0
    5.2156    5.2902    0.0000 H   0  0  0  0  0  0  0  0  0  0  0  0
    4.4272    5.5479    0.0000 H   0  0  0  0  0  0  0  0  0  0  0  0
    5.7227    3.7615    0.0000 H   0  0  0  0  0  0  0  0  0  0  0  0
    5.7227    4.5909    0.0000 H   0  0  0  0  0  0  0  0  0  0  0  0
    3.2646    5.6512    0.0000 H   0  0  0  0  0  0  0  0  0  0  0  0
    2.4675    5.6512    0.0000 H   0  0  0  0  0  0  0  0  0  0  0  0
    2.4675    2.7013    0.0000 H   0  0  0  0  0  0  0  0  0  0  0  0
    3.2646    2.7013    0.0000 H   0  0  0  0  0  0  0  0  0  0  0  0
    1.7880    5.2588    0.0000 H   0  0  0  0  0  0  0  0  0  0  0  0
    1.3894    4.5686    0.0000 H   0  0  0  0  0  0  0  0  0  0  0  0
    1.3894    3.7839    0.0000 H   0  0  0  0  0  0  0  0  0  0  0  0
    1.7880    3.0936    0.0000 H   0  0  0  0  0  0  0  0  0  0  0  0
    4.3520    5.6762    0.0000 H   0  0  0  0  0  0  0  0  0  0  0  0
    3.7320    6.2962    0.0000 H   0  0  0  0  0  0  0  0  0  0  0  0
    3.1120    5.6762    0.0000 H   0  0  0  0  0  0  0  0  0  0  0  0
    4.3751    2.3336    0.0000 H   0  0  0  0  0  0  0  0  0  0  0  0
    4.9684    1.8013    0.0000 H   0  0  0  0  0  0  0  0  0  0  0  0
    6.3815    2.6762    0.0000 H   0  0  0  0  0  0  0  0  0  0  0  0
    7.6707    1.5195    0.0000 H   0  0  0  0  0  0  0  0  0  0  0  0
    7.1532   -0.3540    0.0000 H   0  0  0  0  0  0  0  0  0  0  0  0
    8.3532    0.4906    0.0000 H   0  0  0  0  0  0  0  0  0  0  0  0
    8.2426   -1.1366    0.0000 H   0  0  0  0  0  0  0  0  0  0  0  0
    8.8359   -1.6689    0.0000 H   0  0  0  0  0  0  0  0  0  0  0  0
    9.6751    0.2315    0.0000 H   0  0  0  0  0  0  0  0  0  0  0  0
    9.6277    1.1070    0.0000 H   0  0  0  0  0  0  0  0  0  0  0  0
    8.7522    1.0596    0.0000 H   0  0  0  0  0  0  0  0  0  0  0  0
   10.4488   -1.1681    0.0000 H   0  0  0  0  0  0  0  0  0  0  0  0
    9.8555   -0.6358    0.0000 H   0  0  0  0  0  0  0  0  0  0  0  0
    9.7315   -2.6675    0.0000 H   0  0  0  0  0  0  0  0  0  0  0  0
   10.8210   -3.4501    0.0000 H   0  0  0  0  0  0  0  0  0  0  0  0
   11.4142   -3.9824    0.0000 H   0  0  0  0  0  0  0  0  0  0  0  0
   13.0271   -3.4816    0.0000 H   0  0  0  0  0  0  0  0  0  0  0  0
   12.4338   -2.9493    0.0000 H   0  0  0  0  0  0  0  0  0  0  0  0
   12.2534   -2.0820    0.0000 H   0  0  0  0  0  0  0  0  0  0  0  0
   12.2060   -1.2064    0.0000 H   0  0  0  0  0  0  0  0  0  0  0  0
   11.3305   -1.2538    0.0000 H   0  0  0  0  0  0  0  0  0  0  0  0
   12.3099   -4.9809    0.0000 H   0  0  0  0  0  0  0  0  0  0  0  0
   13.4238   -5.8688    0.0000 H   0  0  0  0  0  0  0  0  0  0  0  0
   14.2057   -6.2655    0.0000 H   0  0  0  0  0  0  0  0  0  0  0  0
   14.6024   -5.4836    0.0000 H   0  0  0  0  0  0  0  0  0  0  0  0
   14.8318   -4.3954    0.0000 H   0  0  0  0  0  0  0  0  0  0  0  0
   14.7844   -3.5199    0.0000 H   0  0  0  0  0  0  0  0  0  0  0  0
   13.9088   -3.5673    0.0000 H   0  0  0  0  0  0  0  0  0  0  0  0
  1 14  2  0  0  0  0
  2  4  1  0  0  0  0
  2  6  1  0  0  0  0
  2  8  1  0  0  0  0
  2 12  1  6  0  0  0
  3 13  1  0  0  0  0
  3 14  1  0  0  0  0
  3 49  1  0  0  0  0
  4  5  1  0  0  0  0
  4  9  1  0  0  0  0
  4 30  1  6  0  0  0
  5  7  1  0  0  0  0
  5 13  1  1  0  0  0
  5 31  1  0  0  0  0
  6  7  1  0  0  0  0
  6 32  1  0  0  0  0
  6 33  1  0  0  0  0
  7 34  1  0  0  0  0
  7 35  1  0  0  0  0
  8 10  1  0  0  0  0
  8 36  1  0  0  0  0
  8 37  1  0  0  0  0
  9 11  1  0  0  0  0
  9 38  1  0  0  0  0
  9 39  1  0  0  0  0
 10 11  1  0  0  0  0
 10 40  1  0  0  0  0
 10 41  1  0  0  0  0
 11 42  1  0  0  0  0
 11 43  1  0  0  0  0
 12 44  1  0  0  0  0
 12 45  1  0  0  0  0
 12 46  1  0  0  0  0
 13 47  1  0  0  0  0
 13 48  1  0  0  0  0
 14 15  1  0  0  0  0
 15 16  2  0  0  0  0
 15 50  1  0  0  0  0
 16 17  1  0  0  0  0
 16 51  1  0  0  0  0
 17 18  1  0  0  0  0
 17 19  1  1  0  0  0
 17 52  1  0  0  0  0
 18 20  1  0  0  0  0
 18 53  1  0  0  0  0
 18 54  1  0  0  0  0
 19 55  1  0  0  0  0
 19 56  1  0  0  0  0
 19 57  1  0  0  0  0
 20 21  1  0  0  0  0
 20 58  1  0  0  0  0
 20 59  1  0  0  0  0
 21 22  2  0  0  0  0
 21 60  1  0  0  0  0
 22 23  1  0  0  0  0
 22 24  1  0  0  0  0
 23 25  1  0  0  0  0
 23 61  1  0  0  0  0
 23 62  1  0  0  0  0
 24 65  1  0  0  0  0
 24 66  1  0  0  0  0
 24 67  1  0  0  0  0
 25 26  1  0  0  0  0
 25 63  1  0  0  0  0
 25 64  1  0  0  0  0
 26 27  2  0  0  0  0
 26 68  1  0  0  0  0
 27 28  1  0  0  0  0
 27 29  1  0  0  0  0
 28 69  1  0  0  0  0
 28 70  1  0  0  0  0
 28 71  1  0  0  0  0
 29 72  1  0  0  0  0
 29 73  1  0  0  0  0
 29 74  1  0  0  0  0
M  CHG  1   2   1
M  END
> <PUBCHEM_COMPOUND_CID>
6441228

> <PUBCHEM_COMPOUND_CANONICALIZED>
1

> <PUBCHEM_CACTVS_COMPLEXITY>
614

> <PUBCHEM_CACTVS_HBOND_ACCEPTOR>
1

> <PUBCHEM_CACTVS_HBOND_DONOR>
1

> <PUBCHEM_CACTVS_ROTATABLE_BOND>
10

> <PUBCHEM_CACTVS_SUBSKEYS>
AAADcfB7IAAAAAAAAAAAAAAAAAAAAWAAAAAsAAAAAAAAAFgAAAAAHgAQAAAADSjBgAQCAAPAAACIAiFSEACAAAAgAAAICIAIAEgAAAIAwQAEAAAAlgCIAYMQgMAOAAAAAAAAAAAAAAAAAAAAAAAAAAAAAA==

> <PUBCHEM_IUPAC_OPENEYE_NAME>
(2E,4S,7E)-N-[[(1S,4S,8aR)-4-methyl-1,2,3,5,6,7,8,8a-octahydroindolizin-4-ium-1-yl]methyl]-4,8,12-trimethyl-trideca-2,7,11-trienamide

> <PUBCHEM_IUPAC_CAS_NAME>
(2E,4S,7E)-N-[[(1S,4S,8aR)-4-methyl-1,2,3,5,6,7,8,8a-octahydroindolizin-4-ium-1-yl]methyl]-4,8,12-trimethyltrideca-2,7,11-trienamide

> <PUBCHEM_IUPAC_NAME>
(2E,4S,7E)-N-[[(1S,4S,8aR)-4-methyl-1,2,3,5,6,7,8,8a-octahydroindolizin-4-ium-1-yl]methyl]-4,8,12-trimethyltrideca-2,7,11-trienamide

> <PUBCHEM_IUPAC_SYSTEMATIC_NAME>
(2E,4S,7E)-N-[[(1S,4S,8aR)-4-methyl-1,2,3,5,6,7,8,8a-octahydroindolizin-4-ium-1-yl]methyl]-4,8,12-trimethyl-trideca-2,7,11-trienamide

> <PUBCHEM_IUPAC_TRADITIONAL_NAME>
(2E,4S,7E)-N-[[(1S,4S,8aR)-4-methylindolizidin-4-ium-1-yl]methyl]-4,8,12-trimethyl-trideca-2,7,11-trienamide

> <PUBCHEM_IUPAC_INCHI>
InChI=1S/C26H44N2O/c1-21(2)10-8-11-22(3)12-9-13-23(4)15-16-26(29)27-20-24-17-19-28(5)18-7-6-14-25(24)28/h10,12,15-16,23-25H,6-9,11,13-14,17-20H2,1-5H3/p+1/b16-15+,22-12+/t23-,24-,25+,28-/m0/s1

> <PUBCHEM_IUPAC_INCHIKEY>
IUUKDWXSYSAIGO-FECFPVQQSA-O

> <PUBCHEM_XLOGP3_AA>
6.3

> <PUBCHEM_EXACT_MASS>
401.353189

> <PUBCHEM_MOLECULAR_FORMULA>
C26H45N2O+

> <PUBCHEM_MOLECULAR_WEIGHT>
401.6483

> <PUBCHEM_OPENEYE_CAN_SMILES>
CC(CCC=C(C)CCC=C(C)C)C=CC(=O)NCC1CC[N+]2(C1CCCC2)C

> <PUBCHEM_OPENEYE_ISO_SMILES>
C[C@@H](CC/C=C(\C)/CCC=C(C)C)/C=C/C(=O)NC[C@@H]1CC[N@+]2([C@@H]1CCCC2)C

> <PUBCHEM_CACTVS_TPSA>
29.1

> <PUBCHEM_MONOISOTOPIC_WEIGHT>
401.353189

> <PUBCHEM_TOTAL_CHARGE>
1

> <PUBCHEM_HEAVY_ATOM_COUNT>
29

> <PUBCHEM_ATOM_DEF_STEREO_COUNT>
4

> <PUBCHEM_ATOM_UDEF_STEREO_COUNT>
0

> <PUBCHEM_BOND_DEF_STEREO_COUNT>
2

> <PUBCHEM_BOND_UDEF_STEREO_COUNT>
0

> <PUBCHEM_ISOTOPIC_ATOM_COUNT>
0

> <PUBCHEM_COMPONENT_COUNT>
1

> <PUBCHEM_CACTVS_TAUTO_COUNT>
2

> <PUBCHEM_COORDINATE_TYPE>
1
5
255

> <PUBCHEM_BONDANNOTATIONS>
17  19  5
2  12  6
4  30  6
5  13  5

$$$$

