15415
  -OEChem-07051212532D

 38 37  0     1  0  0  0  0  0999 V2000
    4.5981    1.6340    0.0000 S   0  0  0  0  0  0  0  0  0  0  0  0
    3.7320    1.1340    0.0000 P   0  0  0  0  0  0  0  0  0  0  0  0
    7.1962    1.1340    0.0000 O   0  0  0  0  0  0  0  0  0  0  0  0
    6.3301   -1.3660    0.0000 O   0  0  0  0  0  0  0  0  0  0  0  0
    2.8660    0.6340    0.0000 O   0  0  0  0  0  0  0  0  0  0  0  0
    3.2320    2.0000    0.0000 O   0  0  0  0  0  0  0  0  0  0  0  0
    6.3301    2.6340    0.0000 O   0  0  0  0  0  0  0  0  0  0  0  0
    4.2320    0.2679    0.0000 O   0  0  0  0  0  0  0  0  0  0  0  0
    7.1962    0.1340    0.0000 O   0  0  0  0  0  0  0  0  0  0  0  0
    5.4641    1.1340    0.0000 C   0  0  3  0  0  0  0  0  0  0  0  0
    5.4641    0.1340    0.0000 C   0  0  0  0  0  0  0  0  0  0  0  0
    6.3301    1.6340    0.0000 C   0  0  0  0  0  0  0  0  0  0  0  0
    6.3301   -0.3660    0.0000 C   0  0  0  0  0  0  0  0  0  0  0  0
    8.0622    1.6340    0.0000 C   0  0  0  0  0  0  0  0  0  0  0  0
    7.1962   -1.8660    0.0000 C   0  0  0  0  0  0  0  0  0  0  0  0
    8.9282    1.1340    0.0000 C   0  0  0  0  0  0  0  0  0  0  0  0
    7.1962   -2.8660    0.0000 C   0  0  0  0  0  0  0  0  0  0  0  0
    2.0000    1.1340    0.0000 C   0  0  0  0  0  0  0  0  0  0  0  0
    3.7320    2.8660    0.0000 C   0  0  0  0  0  0  0  0  0  0  0  0
    4.9272    0.8240    0.0000 H   0  0  0  0  0  0  0  0  0  0  0  0
    4.8535    0.2416    0.0000 H   0  0  0  0  0  0  0  0  0  0  0  0
    5.2520   -0.4486    0.0000 H   0  0  0  0  0  0  0  0  0  0  0  0
    8.4607    2.1089    0.0000 H   0  0  0  0  0  0  0  0  0  0  0  0
    7.6636    2.1089    0.0000 H   0  0  0  0  0  0  0  0  0  0  0  0
    7.8067   -1.9737    0.0000 H   0  0  0  0  0  0  0  0  0  0  0  0
    7.4082   -1.2834    0.0000 H   0  0  0  0  0  0  0  0  0  0  0  0
    8.6182    0.5970    0.0000 H   0  0  0  0  0  0  0  0  0  0  0  0
    9.4651    0.8240    0.0000 H   0  0  0  0  0  0  0  0  0  0  0  0
    9.2382    1.6709    0.0000 H   0  0  0  0  0  0  0  0  0  0  0  0
    6.5762   -2.8660    0.0000 H   0  0  0  0  0  0  0  0  0  0  0  0
    7.1962   -3.4860    0.0000 H   0  0  0  0  0  0  0  0  0  0  0  0
    7.8162   -2.8660    0.0000 H   0  0  0  0  0  0  0  0  0  0  0  0
    2.3100    1.6709    0.0000 H   0  0  0  0  0  0  0  0  0  0  0  0
    1.4631    1.4440    0.0000 H   0  0  0  0  0  0  0  0  0  0  0  0
    1.6900    0.5970    0.0000 H   0  0  0  0  0  0  0  0  0  0  0  0
    4.2690    2.5560    0.0000 H   0  0  0  0  0  0  0  0  0  0  0  0
    4.0420    3.4030    0.0000 H   0  0  0  0  0  0  0  0  0  0  0  0
    3.1951    3.1760    0.0000 H   0  0  0  0  0  0  0  0  0  0  0  0
  1  2  1  0  0  0  0
  1 10  1  0  0  0  0
  2  5  1  0  0  0  0
  2  6  1  0  0  0  0
  2  8  2  0  0  0  0
  3 12  1  0  0  0  0
  3 14  1  0  0  0  0
  4 13  1  0  0  0  0
  4 15  1  0  0  0  0
  5 18  1  0  0  0  0
  6 19  1  0  0  0  0
  7 12  2  0  0  0  0
  9 13  2  0  0  0  0
 10 11  1  0  0  0  0
 10 12  1  0  0  0  0
 10 20  1  0  0  0  0
 11 13  1  0  0  0  0
 11 21  1  0  0  0  0
 11 22  1  0  0  0  0
 14 16  1  0  0  0  0
 14 23  1  0  0  0  0
 14 24  1  0  0  0  0
 15 17  1  0  0  0  0
 15 25  1  0  0  0  0
 15 26  1  0  0  0  0
 16 27  1  0  0  0  0
 16 28  1  0  0  0  0
 16 29  1  0  0  0  0
 17 30  1  0  0  0  0
 17 31  1  0  0  0  0
 17 32  1  0  0  0  0
 18 33  1  0  0  0  0
 18 34  1  0  0  0  0
 18 35  1  0  0  0  0
 19 36  1  0  0  0  0
 19 37  1  0  0  0  0
 19 38  1  0  0  0  0
M  END
> <PUBCHEM_COMPOUND_CID>
15415

> <PUBCHEM_COMPOUND_CANONICALIZED>
1

> <PUBCHEM_CACTVS_COMPLEXITY>
339

> <PUBCHEM_CACTVS_HBOND_ACCEPTOR>
8

> <PUBCHEM_CACTVS_HBOND_DONOR>
0

> <PUBCHEM_CACTVS_ROTATABLE_BOND>
11

> <PUBCHEM_CACTVS_SUBSKEYS>
AAADceBwOAJAAAAAAAAAAAAAAAAAAAAAAAAAAAAAAAAAAAAAAAAAGgQAACAACACkwAKCCAAABRAIQACQCIAAAAAAAAAAAAEAAAAAABAAAAACAAAEAAAAAABDAAAAAAAAAAAAAAAAAAAAAAAAAAAAAAAAAA==

> <PUBCHEM_IUPAC_OPENEYE_NAME>
diethyl 2-dimethoxyphosphorylsulfanylbutanedioate

> <PUBCHEM_IUPAC_CAS_NAME>
2-(dimethoxyphosphorylthio)butanedioic acid diethyl ester

> <PUBCHEM_IUPAC_NAME>
diethyl 2-dimethoxyphosphorylsulfanylbutanedioate

> <PUBCHEM_IUPAC_SYSTEMATIC_NAME>
diethyl 2-dimethoxyphosphorylsulfanylbutanedioate

> <PUBCHEM_IUPAC_TRADITIONAL_NAME>
2-(dimethoxyphosphorylthio)succinic acid diethyl ester

> <PUBCHEM_IUPAC_INCHI>
InChI=1S/C10H19O7PS/c1-5-16-9(11)7-8(10(12)17-6-2)19-18(13,14-3)15-4/h8H,5-7H2,1-4H3

> <PUBCHEM_IUPAC_INCHIKEY>
WSORODGWGUUOBO-UHFFFAOYSA-N

> <PUBCHEM_XLOGP3>
0.6

> <PUBCHEM_EXACT_MASS>
314.058911

> <PUBCHEM_MOLECULAR_FORMULA>
C10H19O7PS

> <PUBCHEM_MOLECULAR_WEIGHT>
314.292422

> <PUBCHEM_OPENEYE_CAN_SMILES>
CCOC(=O)CC(C(=O)OCC)SP(=O)(OC)OC

> <PUBCHEM_OPENEYE_ISO_SMILES>
CCOC(=O)CC(C(=O)OCC)SP(=O)(OC)OC

> <PUBCHEM_CACTVS_TPSA>
113

> <PUBCHEM_MONOISOTOPIC_WEIGHT>
314.058911

> <PUBCHEM_TOTAL_CHARGE>
0

> <PUBCHEM_HEAVY_ATOM_COUNT>
19

> <PUBCHEM_ATOM_DEF_STEREO_COUNT>
0

> <PUBCHEM_ATOM_UDEF_STEREO_COUNT>
1

> <PUBCHEM_BOND_DEF_STEREO_COUNT>
0

> <PUBCHEM_BOND_UDEF_STEREO_COUNT>
0

> <PUBCHEM_ISOTOPIC_ATOM_COUNT>
0

> <PUBCHEM_COMPONENT_COUNT>
1

> <PUBCHEM_CACTVS_TAUTO_COUNT>
1

> <PUBCHEM_COORDINATE_TYPE>
1
5
255

> <PUBCHEM_BONDANNOTATIONS>
10  11  3

$$$$

