13946
  -OEChem-07051212473D

 23 27  0     1  0  0  0  0  0999 V2000
   -0.7186    1.6402    2.4577 Cl  0  0  0  0  0  0  0  0  0  0  0  0
   -0.7185   -1.6407    2.4573 Cl  0  0  0  0  0  0  0  0  0  0  0  0
    0.4094    1.6422   -2.6500 Cl  0  0  0  0  0  0  0  0  0  0  0  0
    0.4080   -1.6411   -2.6511 Cl  0  0  0  0  0  0  0  0  0  0  0  0
   -1.9285    2.7461   -0.4799 Cl  0  0  0  0  0  0  0  0  0  0  0  0
   -1.9281   -2.7459   -0.4789 Cl  0  0  0  0  0  0  0  0  0  0  0  0
    1.6126    2.7728    0.2948 Cl  0  0  0  0  0  0  0  0  0  0  0  0
    1.6115   -2.7732    0.2924 Cl  0  0  0  0  0  0  0  0  0  0  0  0
    3.2310    0.0002   -0.8381 Cl  0  0  0  0  0  0  0  0  0  0  0  0
    2.6016   -0.0009    2.0031 Cl  0  0  0  0  0  0  0  0  0  0  0  0
   -3.1960    0.0005    0.4939 O   0  0  0  0  0  0  0  0  0  0  0  0
   -0.3706    0.7871    0.9431 C   0  0  1  0  0  0  0  0  0  0  0  0
   -0.3708   -0.7873    0.9428 C   0  0  2  0  0  0  0  0  0  0  0  0
    0.0885    0.7866   -1.1311 C   0  0  2  0  0  0  0  0  0  0  0  0
    0.0882   -0.7863   -1.1314 C   0  0  1  0  0  0  0  0  0  0  0  0
   -1.1986    1.1283   -0.3272 C   0  0  0  0  0  0  0  0  0  0  0  0
   -1.1988   -1.1279   -0.3275 C   0  0  0  0  0  0  0  0  0  0  0  0
    0.9258    1.1267    0.1418 C   0  0  0  0  0  0  0  0  0  0  0  0
    0.9254   -1.1272    0.1415 C   0  0  0  0  0  0  0  0  0  0  0  0
   -2.1969    0.0003   -0.5155 C   0  0  0  0  0  0  0  0  0  0  0  0
    1.9234   -0.0004    0.3625 C   0  0  0  0  0  0  0  0  0  0  0  0
   -2.6610   -0.0046   -1.5080 H   0  0  0  0  0  0  0  0  0  0  0  0
   -3.6975    0.8284    0.4009 H   0  0  0  0  0  0  0  0  0  0  0  0
  1 12  1  0  0  0  0
  2 13  1  0  0  0  0
  3 14  1  0  0  0  0
  4 15  1  0  0  0  0
  5 16  1  0  0  0  0
  6 17  1  0  0  0  0
  7 18  1  0  0  0  0
  8 19  1  0  0  0  0
  9 21  1  0  0  0  0
 10 21  1  0  0  0  0
 11 20  1  0  0  0  0
 11 23  1  0  0  0  0
 12 13  1  0  0  0  0
 12 16  1  0  0  0  0
 12 18  1  0  0  0  0
 13 17  1  0  0  0  0
 13 19  1  0  0  0  0
 14 15  1  0  0  0  0
 14 16  1  0  0  0  0
 14 18  1  0  0  0  0
 15 17  1  0  0  0  0
 15 19  1  0  0  0  0
 16 20  1  0  0  0  0
 17 20  1  0  0  0  0
 18 21  1  0  0  0  0
 19 21  1  0  0  0  0
 20 22  1  0  0  0  0
M  END
> <PUBCHEM_COMPOUND_CID>
13946

> <PUBCHEM_CONFORMER_RMSD>
0.6

> <PUBCHEM_CONFORMER_DIVERSEORDER>
1

> <PUBCHEM_MMFF94_PARTIAL_CHARGES>
22
1 -0.29
10 -0.29
11 -0.68
12 0.29
13 0.29
14 0.29
15 0.29
16 0.29
17 0.29
18 0.29
19 0.29
2 -0.29
20 0.28
21 0.58
23 0.4
3 -0.29
4 -0.29
5 -0.29
6 -0.29
7 -0.29
8 -0.29
9 -0.29

> <PUBCHEM_EFFECTIVE_ROTOR_COUNT>
0.4

> <PUBCHEM_PHARMACOPHORE_FEATURES>
3
1 11 acceptor
1 11 donor
10 12 13 14 15 16 17 18 19 20 21 rings

> <PUBCHEM_HEAVY_ATOM_COUNT>
21

> <PUBCHEM_ATOM_DEF_STEREO_COUNT>
0

> <PUBCHEM_ATOM_UDEF_STEREO_COUNT>
4

> <PUBCHEM_BOND_DEF_STEREO_COUNT>
0

> <PUBCHEM_BOND_UDEF_STEREO_COUNT>
0

> <PUBCHEM_ISOTOPIC_ATOM_COUNT>
0

> <PUBCHEM_COMPONENT_COUNT>
1

> <PUBCHEM_CACTVS_TAUTO_COUNT>
1

> <PUBCHEM_CONFORMER_ID>
0000367A00000001

> <PUBCHEM_MMFF94_ENERGY>
50.5751

> <PUBCHEM_FEATURE_SELFOVERLAP>
15.223

> <PUBCHEM_SHAPE_FINGERPRINT>
10863032 1 18126568061564904244
10948715 1 17984695881594661428
12423570 1 9272483879883304550
13024252 1 15050901956373379520
13140716 1 18267031548318453275
144361 1 18338502097646978596
14817 1 5385015289809533097
16945 1 18338812159831065807
20511035 2 18055343652490816925
22344851 12 15544046334439798686
22344851 262 18060131024981548767
22344851 341 18191594055505177690
2334 1 17907307554516121247
23419403 2 15542382756061498731
23559900 14 18188493614237904710
2748010 2 18049451631770719189

> <PUBCHEM_SHAPE_MULTIPOLES>
445
3.16
3.06
2.46
0.55
0
-0.08
0
0.33
-0.48
-0.2
0.28
0
0

> <PUBCHEM_SHAPE_SELFOVERLAP>
932.813

> <PUBCHEM_SHAPE_VOLUME>
265.8

> <PUBCHEM_COORDINATE_TYPE>
2
5
10

$$$$

