1986
  -OEChem-07051212523D

 19 19  0     0  0  0  0  0  0999 V2000
   -3.0413    0.1096   -0.0849 S   0  0  0  0  0  0  0  0  0  0  0  0
   -0.3004    1.2561   -0.0551 S   0  0  0  0  0  0  0  0  0  0  0  0
   -3.2804    1.4106   -0.7138 O   0  0  0  0  0  0  0  0  0  0  0  0
   -3.5976   -1.1019   -0.6884 O   0  0  0  0  0  0  0  0  0  0  0  0
    3.6277   -1.2076    0.0479 O   0  0  0  0  0  0  0  0  0  0  0  0
    2.2730    0.7117   -0.0033 N   0  0  0  0  0  0  0  0  0  0  0  0
   -0.6907   -1.2763   -0.0231 N   0  0  0  0  0  0  0  0  0  0  0  0
   -3.6357    0.2114    1.5313 N   0  0  0  0  0  0  0  0  0  0  0  0
    0.6830   -1.1093   -0.0015 N   0  0  0  0  0  0  0  0  0  0  0  0
   -1.3219   -0.1220   -0.0519 C   0  0  0  0  0  0  0  0  0  0  0  0
    1.0438    0.1727   -0.0151 C   0  0  0  0  0  0  0  0  0  0  0  0
    3.5294    0.0106    0.0277 C   0  0  0  0  0  0  0  0  0  0  0  0
    4.7111    0.9345    0.0303 C   0  0  0  0  0  0  0  0  0  0  0  0
    2.3074    1.7278   -0.0193 H   0  0  0  0  0  0  0  0  0  0  0  0
   -3.5872   -0.6498    2.0909 H   0  0  0  0  0  0  0  0  0  0  0  0
   -3.3608    1.0446    2.0673 H   0  0  0  0  0  0  0  0  0  0  0  0
    4.7401    1.4957   -0.9076 H   0  0  0  0  0  0  0  0  0  0  0  0
    5.6329    0.3553    0.1301 H   0  0  0  0  0  0  0  0  0  0  0  0
    4.6367    1.6310    0.8699 H   0  0  0  0  0  0  0  0  0  0  0  0
  1  3  2  0  0  0  0
  1  4  2  0  0  0  0
  1  8  1  0  0  0  0
  1 10  1  0  0  0  0
  2 10  1  0  0  0  0
  2 11  1  0  0  0  0
  5 12  2  0  0  0  0
  6 11  1  0  0  0  0
  6 12  1  0  0  0  0
  6 14  1  0  0  0  0
  7  9  1  0  0  0  0
  7 10  2  0  0  0  0
  8 15  1  0  0  0  0
  8 16  1  0  0  0  0
  9 11  2  0  0  0  0
 12 13  1  0  0  0  0
 13 17  1  0  0  0  0
 13 18  1  0  0  0  0
 13 19  1  0  0  0  0
M  END
> <PUBCHEM_COMPOUND_CID>
1986

> <PUBCHEM_CONFORMER_RMSD>
0.6

> <PUBCHEM_CONFORMER_DIVERSEORDER>
1
9
10
5
3
6
4
8
7
2

> <PUBCHEM_MMFF94_PARTIAL_CHARGES>
16
1 1.5
10 0.32
11 0.44
12 0.57
13 0.06
14 0.37
15 0.42
16 0.42
2 -0.08
3 -0.65
4 -0.65
5 -0.57
6 -0.49
7 -0.34
8 -0.98
9 -0.34

> <PUBCHEM_EFFECTIVE_ROTOR_COUNT>
3

> <PUBCHEM_PHARMACOPHORE_FEATURES>
7
1 3 acceptor
1 4 acceptor
1 5 acceptor
1 6 donor
1 7 acceptor
1 8 donor
5 2 7 9 10 11 rings

> <PUBCHEM_HEAVY_ATOM_COUNT>
13

> <PUBCHEM_ATOM_DEF_STEREO_COUNT>
0

> <PUBCHEM_ATOM_UDEF_STEREO_COUNT>
0

> <PUBCHEM_BOND_DEF_STEREO_COUNT>
0

> <PUBCHEM_BOND_UDEF_STEREO_COUNT>
0

> <PUBCHEM_ISOTOPIC_ATOM_COUNT>
0

> <PUBCHEM_COMPONENT_COUNT>
1

> <PUBCHEM_CACTVS_TAUTO_COUNT>
3

> <PUBCHEM_CONFORMER_ID>
000007C200000001

> <PUBCHEM_MMFF94_ENERGY>
16.5666

> <PUBCHEM_FEATURE_SELFOVERLAP>
35.538

> <PUBCHEM_SHAPE_FINGERPRINT>
10219947 1 18413669114794684996
10680689 15 18343016696580137981
11062470 55 17458343026949006088
11132069 177 18408329894941361704
11401426 45 18410582781355418661
12032990 46 18342452647046582034
13675066 3 18202280307936936800
14123238 8 18334295336131266244
14325111 11 18411703196683885348
18186145 218 18040713667031301424
190213 19 16988843878023317564
19026448 4 16271929307000980178
19026448 5 16588024636416033956
200 152 18041007211388152127
20645477 70 18337958999370555334
20671657 1 17972880259086495328
22485316 2 18409453591630078388
23402539 116 18334867120959230596
23402655 69 18334863843598542348
23557571 272 14056990616632288041
23559900 14 18260551126396757512
449060 50 18341327808629839708

> <PUBCHEM_SHAPE_MULTIPOLES>
237.7
8.33
1.33
0.8
4.15
0.02
-0.19
-0.73
-0.34
-0.06
0.14
-0.77
-0.07
-0.04

> <PUBCHEM_SHAPE_SELFOVERLAP>
455.708

> <PUBCHEM_SHAPE_VOLUME>
146.5

> <PUBCHEM_COORDINATE_TYPE>
2
5
10

$$$$

