441444
  -OEChem-07051212553D

 25 25  0     1  0  0  0  0  0999 V2000
   -1.2109    1.3365    1.2723 O   0  0  0  0  0  0  0  0  0  0  0  0
   -2.7951    1.3826   -0.3511 O   0  0  0  0  0  0  0  0  0  0  0  0
   -3.0638   -1.3394   -0.1067 N   0  0  0  0  0  0  0  0  0  0  0  0
   -0.7125   -1.1393   -0.7781 C   0  0  0  0  0  0  0  0  0  0  0  0
    0.6271   -0.5441   -0.4587 C   0  0  0  0  0  0  0  0  0  0  0  0
   -1.7753   -0.7501    0.2537 C   0  0  1  0  0  0  0  0  0  0  0  0
    1.5019   -1.3426    0.4783 C   0  0  0  0  0  0  0  0  0  0  0  0
    1.0252    0.6316   -0.9768 C   0  0  0  0  0  0  0  0  0  0  0  0
    2.3559    1.2623   -0.6831 C   0  0  0  0  0  0  0  0  0  0  0  0
    2.8318   -0.7103    0.7697 C   0  0  0  0  0  0  0  0  0  0  0  0
    3.2166    0.4619    0.2473 C   0  0  0  0  0  0  0  0  0  0  0  0
   -2.0009    0.7508    0.3332 C   0  0  0  0  0  0  0  0  0  0  0  0
   -1.0289   -0.8033   -1.7758 H   0  0  0  0  0  0  0  0  0  0  0  0
   -0.6240   -2.2313   -0.8478 H   0  0  0  0  0  0  0  0  0  0  0  0
   -1.5049   -1.1178    1.2508 H   0  0  0  0  0  0  0  0  0  0  0  0
    1.6817   -2.3336    0.0448 H   0  0  0  0  0  0  0  0  0  0  0  0
    0.9761   -1.4876    1.4292 H   0  0  0  0  0  0  0  0  0  0  0  0
    0.3683    1.1772   -1.6493 H   0  0  0  0  0  0  0  0  0  0  0  0
    2.1874    2.2526   -0.2451 H   0  0  0  0  0  0  0  0  0  0  0  0
    2.8940    1.4068   -1.6267 H   0  0  0  0  0  0  0  0  0  0  0  0
    3.5045   -1.2401    1.4380 H   0  0  0  0  0  0  0  0  0  0  0  0
    4.1938    0.8624    0.5009 H   0  0  0  0  0  0  0  0  0  0  0  0
   -3.7416   -1.1631    0.6343 H   0  0  0  0  0  0  0  0  0  0  0  0
   -2.9711   -2.3526   -0.1695 H   0  0  0  0  0  0  0  0  0  0  0  0
   -1.3576    2.3052    1.3201 H   0  0  0  0  0  0  0  0  0  0  0  0
  1 12  1  0  0  0  0
  1 25  1  0  0  0  0
  2 12  2  0  0  0  0
  3  6  1  0  0  0  0
  3 23  1  0  0  0  0
  3 24  1  0  0  0  0
  4  5  1  0  0  0  0
  4  6  1  0  0  0  0
  4 13  1  0  0  0  0
  4 14  1  0  0  0  0
  5  7  1  0  0  0  0
  5  8  2  0  0  0  0
  6 12  1  0  0  0  0
  6 15  1  0  0  0  0
  7 10  1  0  0  0  0
  7 16  1  0  0  0  0
  7 17  1  0  0  0  0
  8  9  1  0  0  0  0
  8 18  1  0  0  0  0
  9 11  1  0  0  0  0
  9 19  1  0  0  0  0
  9 20  1  0  0  0  0
 10 11  2  0  0  0  0
 10 21  1  0  0  0  0
 11 22  1  0  0  0  0
M  END
> <PUBCHEM_COMPOUND_CID>
441444

> <PUBCHEM_CONFORMER_RMSD>
0.6

> <PUBCHEM_CONFORMER_DIVERSEORDER>
1
2
5
7
4
3
9
8
6

> <PUBCHEM_MMFF94_PARTIAL_CHARGES>
18
1 -0.65
10 -0.29
11 -0.29
12 0.66
18 0.15
2 -0.57
21 0.15
22 0.15
23 0.36
24 0.36
25 0.5
3 -0.99
4 0.14
5 -0.28
6 0.33
7 0.28
8 -0.29
9 0.28

> <PUBCHEM_EFFECTIVE_ROTOR_COUNT>
3.4

> <PUBCHEM_PHARMACOPHORE_FEATURES>
6
1 1 acceptor
1 2 acceptor
1 3 cation
1 3 donor
3 1 2 12 anion
6 5 7 8 9 10 11 rings

> <PUBCHEM_HEAVY_ATOM_COUNT>
12

> <PUBCHEM_ATOM_DEF_STEREO_COUNT>
1

> <PUBCHEM_ATOM_UDEF_STEREO_COUNT>
0

> <PUBCHEM_BOND_DEF_STEREO_COUNT>
0

> <PUBCHEM_BOND_UDEF_STEREO_COUNT>
0

> <PUBCHEM_ISOTOPIC_ATOM_COUNT>
0

> <PUBCHEM_COMPONENT_COUNT>
1

> <PUBCHEM_CACTVS_TAUTO_COUNT>
1

> <PUBCHEM_CONFORMER_ID>
0006BC6400000001

> <PUBCHEM_MMFF94_ENERGY>
3.0533

> <PUBCHEM_FEATURE_SELFOVERLAP>
30.504

> <PUBCHEM_SHAPE_FINGERPRINT>
11031198 65 5400530142102148354
12251169 10 18272370914079487800
12696612 119 18202841058919817860
12932764 1 18130212843810981132
13764800 53 17677031538948647065
13839132 238 17459459121202983792
14144814 61 18272090491570315694
15775835 57 18412255134272880164
16945 1 18198053690502682526
21028194 46 18261108556573612814
22802520 49 16517062198914513612
230 275 18040991890685899636
23402539 116 17603876576144608527
23557571 272 17313103008080971943
369184 2 18060137639415735779
5084963 1 18342458118987839486
81228 2 16156831188581531094

> <PUBCHEM_SHAPE_MULTIPOLES>
230.23
4.95
1.6
1
0.12
0.07
-0.05
0.38
-0.55
0.36
-0.02
-0.1
0.13
-0.59

> <PUBCHEM_SHAPE_SELFOVERLAP>
461.704

> <PUBCHEM_SHAPE_VOLUME>
133.9

> <PUBCHEM_COORDINATE_TYPE>
2
5
10

$$$$

