12443
  -OEChem-06261206563D

 15 16  0     0  0  0  0  0  0999 V2000
    0.5132    3.3217   -0.0014 Br  0  0  0  0  0  0  0  0  0  0  0  0
    0.5139   -3.3215    0.0010 Br  0  0  0  0  0  0  0  0  0  0  0  0
    3.4444    1.6700    0.0010 Br  0  0  0  0  0  0  0  0  0  0  0  0
    3.4446   -1.6698   -0.0012 Br  0  0  0  0  0  0  0  0  0  0  0  0
   -2.7182   -0.0002    0.0003 O   0  0  0  0  0  0  0  0  0  0  0  0
   -2.3974    2.2764    0.0010 O   0  0  0  0  0  0  0  0  0  0  0  0
   -2.3970   -2.2768   -0.0011 O   0  0  0  0  0  0  0  0  0  0  0  0
   -0.5935    0.6855   -0.0002 C   0  0  0  0  0  0  0  0  0  0  0  0
   -0.5933   -0.6856   -0.0002 C   0  0  0  0  0  0  0  0  0  0  0  0
    0.5774    1.4177    0.0000 C   0  0  0  0  0  0  0  0  0  0  0  0
    0.5777   -1.4175    0.0003 C   0  0  0  0  0  0  0  0  0  0  0  0
    1.7790    0.7042    0.0002 C   0  0  0  0  0  0  0  0  0  0  0  0
    1.7791   -0.7038    0.0004 C   0  0  0  0  0  0  0  0  0  0  0  0
   -1.9652    1.1425    0.0001 C   0  0  0  0  0  0  0  0  0  0  0  0
   -1.9649   -1.1429   -0.0001 C   0  0  0  0  0  0  0  0  0  0  0  0
  1 10  1  0  0  0  0
  2 11  1  0  0  0  0
  3 12  1  0  0  0  0
  4 13  1  0  0  0  0
  5 14  1  0  0  0  0
  5 15  1  0  0  0  0
  6 14  2  0  0  0  0
  7 15  2  0  0  0  0
  8  9  2  0  0  0  0
  8 10  1  0  0  0  0
  8 14  1  0  0  0  0
  9 11  1  0  0  0  0
  9 15  1  0  0  0  0
 10 12  2  0  0  0  0
 11 13  2  0  0  0  0
 12 13  1  0  0  0  0
M  END
> <PUBCHEM_COMPOUND_CID>
12443

> <PUBCHEM_CONFORMER_RMSD>
0.4

> <PUBCHEM_CONFORMER_DIVERSEORDER>
1

> <PUBCHEM_MMFF94_PARTIAL_CHARGES>
15
1 -0.11
10 0.11
11 0.11
12 0.11
13 0.11
14 0.63
15 0.63
2 -0.11
3 -0.11
4 -0.11
5 -0.3
6 -0.57
7 -0.57
8 0.09
9 0.09

> <PUBCHEM_EFFECTIVE_ROTOR_COUNT>
0.2

> <PUBCHEM_PHARMACOPHORE_FEATURES>
8
1 1 hydrophobe
1 2 hydrophobe
1 3 hydrophobe
1 4 hydrophobe
1 6 acceptor
1 7 acceptor
5 5 8 9 14 15 rings
6 8 9 10 11 12 13 rings

> <PUBCHEM_HEAVY_ATOM_COUNT>
15

> <PUBCHEM_ATOM_DEF_STEREO_COUNT>
0

> <PUBCHEM_ATOM_UDEF_STEREO_COUNT>
0

> <PUBCHEM_BOND_DEF_STEREO_COUNT>
0

> <PUBCHEM_BOND_UDEF_STEREO_COUNT>
0

> <PUBCHEM_ISOTOPIC_ATOM_COUNT>
0

> <PUBCHEM_COMPONENT_COUNT>
1

> <PUBCHEM_CACTVS_TAUTO_COUNT>
1

> <PUBCHEM_CONFORMER_ID>
0000309B00000001

> <PUBCHEM_MMFF94_ENERGY>
42.8914

> <PUBCHEM_FEATURE_SELFOVERLAP>
40.692

> <PUBCHEM_SHAPE_FINGERPRINT>
10967382 1 17906453577663138468
12423570 1 8760334348588549113
13140716 1 18410855507715661344
14790565 3 17907837540844388017
15536298 74 18334576841705491330
16945 1 18410575093537850119
193761 8 18410575088958046215
19591789 44 18338507646676477939
20510252 161 18189612748574269808
20588541 1 18121217851022165286
21501502 16 18410573985367715974
2334 1 18410573955424264198
23402539 116 17974014955085749734
23463225 33 18412828010243498930
23526114 1 18410575085032311630
23552423 10 18341894112456801510
23559900 14 18190178083105173190
2748010 2 18410575089237608156
335352 9 18050286165665514356
7364860 26 18407759240285921346

> <PUBCHEM_SHAPE_MULTIPOLES>
314.85
4.49
4.01
0.64
1.4
0
0
0
0
0.44
0
0.11
0
0

> <PUBCHEM_SHAPE_SELFOVERLAP>
637.959

> <PUBCHEM_SHAPE_VOLUME>
193.5

> <PUBCHEM_COORDINATE_TYPE>
2
5
10

$$$$

