1369
  -OEChem-07051213013D

 34 36  0     0  0  0  0  0  0999 V2000
   -0.8066   -2.2923   -0.0622 S   0  0  0  0  0  0  0  0  0  0  0  0
   -0.3782   -2.4218    1.5062 O   0  0  0  0  0  0  0  0  0  0  0  0
   -1.5903   -3.4672   -0.3959 O   0  0  0  0  0  0  0  0  0  0  0  0
    0.3672   -1.9268   -0.8315 O   0  0  0  0  0  0  0  0  0  0  0  0
    0.8857   -0.1021    0.4181 N   0  0  0  0  0  0  0  0  0  0  0  0
   -1.5231    0.4399    0.0659 C   0  0  0  0  0  0  0  0  0  0  0  0
   -2.5179    1.4440   -0.0080 C   0  0  0  0  0  0  0  0  0  0  0  0
   -0.1924    0.8090    0.3206 C   0  0  0  0  0  0  0  0  0  0  0  0
   -1.8886   -0.9038   -0.1171 C   0  0  0  0  0  0  0  0  0  0  0  0
   -2.1524    2.7877    0.1753 C   0  0  0  0  0  0  0  0  0  0  0  0
   -3.8487    1.0748   -0.2625 C   0  0  0  0  0  0  0  0  0  0  0  0
    0.1528    2.1489    0.4999 C   0  0  0  0  0  0  0  0  0  0  0  0
   -3.2157   -1.2524   -0.3695 C   0  0  0  0  0  0  0  0  0  0  0  0
   -0.8253    3.1364    0.4274 C   0  0  0  0  0  0  0  0  0  0  0  0
   -4.1938   -0.2650   -0.4420 C   0  0  0  0  0  0  0  0  0  0  0  0
    2.2565    0.0148    0.1312 C   0  0  0  0  0  0  0  0  0  0  0  0
    3.1911   -0.7368    0.8484 C   0  0  0  0  0  0  0  0  0  0  0  0
    2.6923    0.8839   -0.8726 C   0  0  0  0  0  0  0  0  0  0  0  0
    4.5517   -0.6201    0.5640 C   0  0  0  0  0  0  0  0  0  0  0  0
    4.0529    1.0004   -1.1570 C   0  0  0  0  0  0  0  0  0  0  0  0
    4.9826    0.2484   -0.4386 C   0  0  0  0  0  0  0  0  0  0  0  0
   -2.9006    3.5759    0.1249 H   0  0  0  0  0  0  0  0  0  0  0  0
   -4.6299    1.8297   -0.3232 H   0  0  0  0  0  0  0  0  0  0  0  0
    1.1654    2.4638    0.7364 H   0  0  0  0  0  0  0  0  0  0  0  0
   -3.5492   -2.2750   -0.5128 H   0  0  0  0  0  0  0  0  0  0  0  0
    0.7025   -0.8220    1.1105 H   0  0  0  0  0  0  0  0  0  0  0  0
   -0.5579    4.1786    0.5758 H   0  0  0  0  0  0  0  0  0  0  0  0
   -5.2274   -0.5362   -0.6370 H   0  0  0  0  0  0  0  0  0  0  0  0
    2.8704   -1.4182    1.6326 H   0  0  0  0  0  0  0  0  0  0  0  0
    1.9916    1.4613   -1.4696 H   0  0  0  0  0  0  0  0  0  0  0  0
    5.2757   -1.2059    1.1229 H   0  0  0  0  0  0  0  0  0  0  0  0
    4.3883    1.6715   -1.9423 H   0  0  0  0  0  0  0  0  0  0  0  0
   -1.1183   -2.5914    2.1353 H   0  0  0  0  0  0  0  0  0  0  0  0
    6.0418    0.3380   -0.6612 H   0  0  0  0  0  0  0  0  0  0  0  0
  1  2  1  0  0  0  0
  1  3  2  0  0  0  0
  1  4  2  0  0  0  0
  1  9  1  0  0  0  0
  2 33  1  0  0  0  0
  5  8  1  0  0  0  0
  5 16  1  0  0  0  0
  5 26  1  0  0  0  0
  6  7  2  0  0  0  0
  6  8  1  0  0  0  0
  6  9  1  0  0  0  0
  7 10  1  0  0  0  0
  7 11  1  0  0  0  0
  8 12  2  0  0  0  0
  9 13  2  0  0  0  0
 10 14  2  0  0  0  0
 10 22  1  0  0  0  0
 11 15  2  0  0  0  0
 11 23  1  0  0  0  0
 12 14  1  0  0  0  0
 12 24  1  0  0  0  0
 13 15  1  0  0  0  0
 13 25  1  0  0  0  0
 14 27  1  0  0  0  0
 15 28  1  0  0  0  0
 16 17  2  0  0  0  0
 16 18  1  0  0  0  0
 17 19  1  0  0  0  0
 17 29  1  0  0  0  0
 18 20  2  0  0  0  0
 18 30  1  0  0  0  0
 19 21  2  0  0  0  0
 19 31  1  0  0  0  0
 20 21  1  0  0  0  0
 20 32  1  0  0  0  0
 21 34  1  0  0  0  0
M  END
> <PUBCHEM_COMPOUND_CID>
1369

> <PUBCHEM_CONFORMER_RMSD>
0.6

> <PUBCHEM_CONFORMER_DIVERSEORDER>
1
3
2

> <PUBCHEM_MMFF94_PARTIAL_CHARGES>
32
1 1.49
10 -0.15
11 -0.15
12 -0.15
13 -0.15
14 -0.15
15 -0.15
16 0.1
17 -0.15
18 -0.15
19 -0.15
2 -0.68
20 -0.15
21 -0.15
22 0.15
23 0.15
24 0.15
25 0.15
26 0.4
27 0.15
28 0.15
29 0.15
3 -0.65
30 0.15
31 0.15
32 0.15
33 0.5
34 0.15
4 -0.65
5 -0.6
8 0.1
9 -0.01

> <PUBCHEM_EFFECTIVE_ROTOR_COUNT>
3

> <PUBCHEM_PHARMACOPHORE_FEATURES>
9
1 2 acceptor
1 3 acceptor
1 4 acceptor
1 5 cation
1 5 donor
4 1 2 3 4 anion
6 16 17 18 19 20 21 rings
6 6 7 8 10 12 14 rings
6 6 7 9 11 13 15 rings

> <PUBCHEM_HEAVY_ATOM_COUNT>
21

> <PUBCHEM_ATOM_DEF_STEREO_COUNT>
0

> <PUBCHEM_ATOM_UDEF_STEREO_COUNT>
0

> <PUBCHEM_BOND_DEF_STEREO_COUNT>
0

> <PUBCHEM_BOND_UDEF_STEREO_COUNT>
0

> <PUBCHEM_ISOTOPIC_ATOM_COUNT>
0

> <PUBCHEM_COMPONENT_COUNT>
1

> <PUBCHEM_CACTVS_TAUTO_COUNT>
1

> <PUBCHEM_CONFORMER_ID>
0000055900000001

> <PUBCHEM_MMFF94_ENERGY>
93.3287

> <PUBCHEM_FEATURE_SELFOVERLAP>
45.752

> <PUBCHEM_SHAPE_FINGERPRINT>
10319926 262 18189642530816140538
10411042 1 18049163259298960703
10616163 171 18410289190645568934
10693767 8 17897188869998630775
10759866 29 18201997733707106750
10967382 1 18337114462728581665
1100329 8 18337390440353115745
11578080 2 17026003913430151595
11680986 33 17975139738506843097
12173636 292 18337677528351175884
12236239 1 18131634500099090480
12403814 3 17704075105360104965
12553582 1 18336831870749358547
12788726 201 18334846234380763224
13140716 1 18191585255486446963
13538477 17 18342459210331519334
13583140 156 17131541799821846960
13862211 1 18335989683966764327
14115302 16 18271522009804681348
14787075 74 17988359257176461507
14790565 3 18336816589688996369
15042514 8 18410853222703999403
16752209 62 18410582811367416304
16945 1 18334579010373942411
17492 54 18341620287191131877
17492 89 18340205322800634490
19591789 44 18338798901789379459
200 152 18272652350697203708
20028762 73 17896601670744713151
20510252 161 18260829349213209672
20645476 183 18202561752632644167
20715895 44 17912375521763961549
20775438 99 16672790124261949335
20871999 31 18409448063859761349
20905425 154 18044942508926383863
21029758 27 18341889646049535785
21267235 1 18411410709210535114
21524375 3 18342175630356642578
2334 1 17760374288432291491
23366157 5 17767398350541199019
23402539 116 18334866025420706340
23557571 272 18113334207244914480
23558518 356 18051122898209057161
23559900 14 18334014965636754136
3084891 72 18408889542017771439
3178227 256 18340474588091709891
335352 9 18336550426744507951
350125 39 18048590718471817222
43471831 8 18195250137884271139
559249 180 18269840981596938354
7364860 26 17471014047675772410
90525 40 18340486784743996496
9709674 26 18334286591984397574

> <PUBCHEM_SHAPE_MULTIPOLES>
413.43
7.98
3.24
0.94
7.06
0.43
-0.03
-0.54
1.43
-2.5
-0.31
0.5
0.14
-0.72

> <PUBCHEM_SHAPE_SELFOVERLAP>
905.034

> <PUBCHEM_SHAPE_VOLUME>
222.7

> <PUBCHEM_COORDINATE_TYPE>
2
5
10

$$$$

