9769
  -OEChem-06261204023D

 19 18  0     0  0  0  0  0  0999 V2000
   -3.4501    0.6669    0.5556 F   0  0  0  0  0  0  0  0  0  0  0  0
    3.4901   -0.7488    0.3288 O   0  0  0  0  0  0  0  0  0  0  0  0
   -0.7275    0.2737   -0.2563 C   0  0  0  0  0  0  0  0  0  0  0  0
    0.6973   -0.2350   -0.0153 C   0  0  0  0  0  0  0  0  0  0  0  0
   -1.7559   -0.8410   -0.0536 C   0  0  0  0  0  0  0  0  0  0  0  0
    1.7483    0.8490   -0.2389 C   0  0  0  0  0  0  0  0  0  0  0  0
   -3.1706   -0.3478   -0.3048 C   0  0  0  0  0  0  0  0  0  0  0  0
    3.1684    0.3831   -0.0156 C   0  0  0  0  0  0  0  0  0  0  0  0
   -0.9391    1.1045    0.4274 H   0  0  0  0  0  0  0  0  0  0  0  0
   -0.8079    0.6659   -1.2773 H   0  0  0  0  0  0  0  0  0  0  0  0
    0.7814   -0.6190    1.0092 H   0  0  0  0  0  0  0  0  0  0  0  0
    0.9024   -1.0818   -0.6823 H   0  0  0  0  0  0  0  0  0  0  0  0
   -1.6848   -1.2092    0.9764 H   0  0  0  0  0  0  0  0  0  0  0  0
   -1.5391   -1.6806   -0.7235 H   0  0  0  0  0  0  0  0  0  0  0  0
    1.5718    1.6911    0.4391 H   0  0  0  0  0  0  0  0  0  0  0  0
    1.6882    1.2250   -1.2662 H   0  0  0  0  0  0  0  0  0  0  0  0
   -3.2916    0.0286   -1.3248 H   0  0  0  0  0  0  0  0  0  0  0  0
   -3.8987   -1.1458   -0.1336 H   0  0  0  0  0  0  0  0  0  0  0  0
    3.9402    1.1539   -0.1842 H   0  0  0  0  0  0  0  0  0  0  0  0
  1  7  1  0  0  0  0
  2  8  2  0  0  0  0
  3  4  1  0  0  0  0
  3  5  1  0  0  0  0
  3  9  1  0  0  0  0
  3 10  1  0  0  0  0
  4  6  1  0  0  0  0
  4 11  1  0  0  0  0
  4 12  1  0  0  0  0
  5  7  1  0  0  0  0
  5 13  1  0  0  0  0
  5 14  1  0  0  0  0
  6  8  1  0  0  0  0
  6 15  1  0  0  0  0
  6 16  1  0  0  0  0
  7 17  1  0  0  0  0
  7 18  1  0  0  0  0
  8 19  1  0  0  0  0
M  END
> <PUBCHEM_COMPOUND_CID>
9769

> <PUBCHEM_CONFORMER_RMSD>
0.6

> <PUBCHEM_CONFORMER_DIVERSEORDER>
1
59
50
29
46
54
8
4
53
5
55
30
11
24
57
48
41
9
52
27
49
12
51
17
56
16
31
58
10
28
6
43
7
40
25
18
13
45
42
44
26
20
2
3
23
37
47
32
22
15
35
21
38
34
39
14
19
36
33

> <PUBCHEM_MMFF94_PARTIAL_CHARGES>
6
1 -0.34
19 0.06
2 -0.57
6 0.06
7 0.34
8 0.45

> <PUBCHEM_EFFECTIVE_ROTOR_COUNT>
5

> <PUBCHEM_PHARMACOPHORE_FEATURES>
2
1 2 acceptor
4 3 4 5 6 hydrophobe

> <PUBCHEM_HEAVY_ATOM_COUNT>
8

> <PUBCHEM_ATOM_DEF_STEREO_COUNT>
0

> <PUBCHEM_ATOM_UDEF_STEREO_COUNT>
0

> <PUBCHEM_BOND_DEF_STEREO_COUNT>
0

> <PUBCHEM_BOND_UDEF_STEREO_COUNT>
0

> <PUBCHEM_ISOTOPIC_ATOM_COUNT>
0

> <PUBCHEM_COMPONENT_COUNT>
1

> <PUBCHEM_CACTVS_TAUTO_COUNT>
2

> <PUBCHEM_CONFORMER_ID>
0000262900000001

> <PUBCHEM_MMFF94_ENERGY>
0.174

> <PUBCHEM_FEATURE_SELFOVERLAP>
10.148

> <PUBCHEM_SHAPE_FINGERPRINT>
11062470 55 15791449326874627873
12932764 1 15913059668008766326
14325111 11 18410856521043177702
14390081 3 17894910711521775321
190213 19 17989208126985625001
21293036 1 12535623882185753526
3248919 1 15502644958419119822
5460574 1 8790893985855431148

> <PUBCHEM_SHAPE_MULTIPOLES>
151.49
6.53
0.92
0.66
0.03
0.02
-0.01
0.15
0.58
-0.1
0.02
0.11
-0.02
-0.3

> <PUBCHEM_SHAPE_SELFOVERLAP>
269.211

> <PUBCHEM_SHAPE_VOLUME>
97.9

> <PUBCHEM_COORDINATE_TYPE>
2
5
10

$$$$

