443231
  -OEChem-07051213013D

 21 20  0     0  0  0  0  0  0999 V2000
   -3.1396    0.1988    0.0170 S   0  0  0  0  0  0  0  0  0  0  0  0
    1.0920   -0.8306    0.0092 S   0  0  0  0  0  0  0  0  0  0  0  0
   -4.1788   -1.0338   -0.2294 O   0  0  0  0  0  0  0  0  0  0  0  0
   -3.1696    1.0738   -1.1403 O   0  0  0  0  0  0  0  0  0  0  0  0
   -3.3323    0.7099    1.3615 O   0  0  0  0  0  0  0  0  0  0  0  0
    4.0248   -1.1664   -0.0053 O   0  0  0  0  0  0  0  0  0  0  0  0
   -1.6489   -0.7483   -0.0215 C   0  0  0  0  0  0  0  0  0  0  0  0
   -0.4304    0.1554    0.0097 C   0  0  0  0  0  0  0  0  0  0  0  0
    2.2859    0.5265    0.0001 C   0  0  0  0  0  0  0  0  0  0  0  0
    3.7152    0.0241   -0.0022 C   0  0  0  0  0  0  0  0  0  0  0  0
    4.7817    1.0906    0.0011 C   0  0  0  0  0  0  0  0  0  0  0  0
   -1.6740   -1.4248    0.8394 H   0  0  0  0  0  0  0  0  0  0  0  0
   -1.6673   -1.3396   -0.9437 H   0  0  0  0  0  0  0  0  0  0  0  0
   -0.4462    0.7828    0.9072 H   0  0  0  0  0  0  0  0  0  0  0  0
   -0.4253    0.8164   -0.8633 H   0  0  0  0  0  0  0  0  0  0  0  0
    2.1358    1.1340   -0.8972 H   0  0  0  0  0  0  0  0  0  0  0  0
    2.1404    1.1405    0.8937 H   0  0  0  0  0  0  0  0  0  0  0  0
    5.7708    0.6244   -0.0039 H   0  0  0  0  0  0  0  0  0  0  0  0
    4.6804    1.7126   -0.8916 H   0  0  0  0  0  0  0  0  0  0  0  0
    4.6846    1.7028    0.9011 H   0  0  0  0  0  0  0  0  0  0  0  0
   -4.1815   -1.4111   -1.1404 H   0  0  0  0  0  0  0  0  0  0  0  0
  1  3  1  0  0  0  0
  1  4  2  0  0  0  0
  1  5  2  0  0  0  0
  1  7  1  0  0  0  0
  2  8  1  0  0  0  0
  2  9  1  0  0  0  0
  3 21  1  0  0  0  0
  6 10  2  0  0  0  0
  7  8  1  0  0  0  0
  7 12  1  0  0  0  0
  7 13  1  0  0  0  0
  8 14  1  0  0  0  0
  8 15  1  0  0  0  0
  9 10  1  0  0  0  0
  9 16  1  0  0  0  0
  9 17  1  0  0  0  0
 10 11  1  0  0  0  0
 11 18  1  0  0  0  0
 11 19  1  0  0  0  0
 11 20  1  0  0  0  0
M  END
> <PUBCHEM_COMPOUND_CID>
443231

> <PUBCHEM_CONFORMER_RMSD>
0.6

> <PUBCHEM_CONFORMER_DIVERSEORDER>
1
27
48
9
4
19
47
40
34
24
5
26
35
44
41
15
39
10
46
22
11
32
29
23
6
8
18
37
45
33
3
42
12
25
16
14
21
31
13
7
30
17
38
2
36
43
20
28

> <PUBCHEM_MMFF94_PARTIAL_CHARGES>
12
1 1.38
10 0.45
11 0.06
2 -0.46
21 0.5
3 -0.68
4 -0.65
5 -0.65
6 -0.57
7 0.11
8 0.23
9 0.29

> <PUBCHEM_EFFECTIVE_ROTOR_COUNT>
5

> <PUBCHEM_PHARMACOPHORE_FEATURES>
5
1 3 acceptor
1 4 acceptor
1 5 acceptor
1 6 acceptor
4 1 3 4 5 anion

> <PUBCHEM_HEAVY_ATOM_COUNT>
11

> <PUBCHEM_ATOM_DEF_STEREO_COUNT>
0

> <PUBCHEM_ATOM_UDEF_STEREO_COUNT>
0

> <PUBCHEM_BOND_DEF_STEREO_COUNT>
0

> <PUBCHEM_BOND_UDEF_STEREO_COUNT>
0

> <PUBCHEM_ISOTOPIC_ATOM_COUNT>
0

> <PUBCHEM_COMPONENT_COUNT>
1

> <PUBCHEM_CACTVS_TAUTO_COUNT>
3

> <PUBCHEM_CONFORMER_ID>
0006C35F00000001

> <PUBCHEM_MMFF94_ENERGY>
10.9815

> <PUBCHEM_FEATURE_SELFOVERLAP>
25.426

> <PUBCHEM_SHAPE_FINGERPRINT>
10680689 15 17989201560007048659
11062470 55 18259702289981350568
14123238 8 18409448055438306862
14325111 11 18411419501399058110
17834072 33 18262521390460650894
17834076 25 16081082667316070492
18186145 218 18408879659651067958
190213 19 18260269659166040602
1986462 14 18408321090390273863
20645477 70 18260261988972187462
20719005 15 18410012126278153982
20828058 21 16989123166935644486
22485316 2 18343024393388463642
23402539 116 18409174315449867628
23402655 69 18259703389735734012
449060 50 18342173337276753108
90127 26 17846493764253253524

> <PUBCHEM_SHAPE_MULTIPOLES>
210.6
10.07
1.17
0.82
3.61
0.06
-0.07
-1.28
0.02
0.21
0.06
-0.72
-0.2
-0.03

> <PUBCHEM_SHAPE_SELFOVERLAP>
368.87

> <PUBCHEM_SHAPE_VOLUME>
139

> <PUBCHEM_COORDINATE_TYPE>
2
5
10

$$$$

