11954194
  -OEChem-07051213073D

 40 40  0     1  0  0  0  0  0999 V2000
    0.0948   -1.0551   -1.3479 O   0  0  0  0  0  0  0  0  0  0  0  0
    3.4712   -2.5556    0.4779 O   0  0  0  0  0  0  0  0  0  0  0  0
    4.3448    1.6256    0.6807 O   0  0  0  0  0  0  0  0  0  0  0  0
   -5.6332   -0.3392   -0.7186 O   0  0  0  0  0  0  0  0  0  0  0  0
   -3.6960   -1.5333   -0.6142 O   0  0  0  0  0  0  0  0  0  0  0  0
    1.7298   -0.9203    0.4345 C   0  0  2  0  0  0  0  0  0  0  0  0
    0.7346   -0.1105   -0.4765 C   0  0  1  0  0  0  0  0  0  0  0  0
    2.6205    0.0555    1.2301 C   0  0  0  0  0  0  0  0  0  0  0  0
    2.6322   -1.8606   -0.4127 C   0  0  0  0  0  0  0  0  0  0  0  0
    1.4783    0.9268   -1.3178 C   0  0  0  0  0  0  0  0  0  0  0  0
    0.9813   -1.8326    1.4357 C   0  0  0  0  0  0  0  0  0  0  0  0
    3.2975    1.0759    0.3419 C   0  0  0  0  0  0  0  0  0  0  0  0
   -0.3448    0.5833    0.3219 C   0  0  0  0  0  0  0  0  0  0  0  0
    2.6523    1.4588   -0.9372 C   0  0  0  0  0  0  0  0  0  0  0  0
    0.8360    1.3818   -2.6031 C   0  0  0  0  0  0  0  0  0  0  0  0
   -1.6511    0.2930    0.2107 C   0  0  0  0  0  0  0  0  0  0  0  0
   -2.7583    0.9182    0.9413 C   0  0  0  0  0  0  0  0  0  0  0  0
   -2.4057    1.9871    1.9435 C   0  0  0  0  0  0  0  0  0  0  0  0
   -4.0083    0.4825    0.6854 C   0  0  0  0  0  0  0  0  0  0  0  0
   -4.3759   -0.5812   -0.2756 C   0  0  0  0  0  0  0  0  0  0  0  0
    3.3940   -0.4722    1.7985 H   0  0  0  0  0  0  0  0  0  0  0  0
    2.0282    0.6150    1.9646 H   0  0  0  0  0  0  0  0  0  0  0  0
    3.2450   -1.3348   -1.1511 H   0  0  0  0  0  0  0  0  0  0  0  0
    2.0401   -2.6108   -0.9461 H   0  0  0  0  0  0  0  0  0  0  0  0
    0.3378   -1.2548    2.1080 H   0  0  0  0  0  0  0  0  0  0  0  0
    0.3501   -2.5614    0.9151 H   0  0  0  0  0  0  0  0  0  0  0  0
    1.6673   -2.3890    2.0841 H   0  0  0  0  0  0  0  0  0  0  0  0
   -0.0151    1.3393    1.0299 H   0  0  0  0  0  0  0  0  0  0  0  0
    3.1655    2.2018   -1.5385 H   0  0  0  0  0  0  0  0  0  0  0  0
    0.7099   -1.2943   -2.0613 H   0  0  0  0  0  0  0  0  0  0  0  0
   -0.1833    1.7364   -2.4204 H   0  0  0  0  0  0  0  0  0  0  0  0
    0.7973    0.5641   -3.3292 H   0  0  0  0  0  0  0  0  0  0  0  0
    1.3873    2.2058   -3.0693 H   0  0  0  0  0  0  0  0  0  0  0  0
   -1.8964   -0.4346   -0.5434 H   0  0  0  0  0  0  0  0  0  0  0  0
    4.2772   -2.0274    0.6052 H   0  0  0  0  0  0  0  0  0  0  0  0
   -3.3038    2.3757    2.4364 H   0  0  0  0  0  0  0  0  0  0  0  0
   -1.9116    2.8341    1.4558 H   0  0  0  0  0  0  0  0  0  0  0  0
   -1.7518    1.5905    2.7274 H   0  0  0  0  0  0  0  0  0  0  0  0
   -4.8410    0.9523    1.2046 H   0  0  0  0  0  0  0  0  0  0  0  0
   -5.9352   -1.0210   -1.3561 H   0  0  0  0  0  0  0  0  0  0  0  0
  1  7  1  0  0  0  0
  1 30  1  0  0  0  0
  2  9  1  0  0  0  0
  2 35  1  0  0  0  0
  3 12  2  0  0  0  0
  4 20  1  0  0  0  0
  4 40  1  0  0  0  0
  5 20  2  0  0  0  0
  6  7  1  0  0  0  0
  6  8  1  0  0  0  0
  6  9  1  0  0  0  0
  6 11  1  0  0  0  0
  7 10  1  0  0  0  0
  7 13  1  0  0  0  0
  8 12  1  0  0  0  0
  8 21  1  0  0  0  0
  8 22  1  0  0  0  0
  9 23  1  0  0  0  0
  9 24  1  0  0  0  0
 10 14  2  0  0  0  0
 10 15  1  0  0  0  0
 11 25  1  0  0  0  0
 11 26  1  0  0  0  0
 11 27  1  0  0  0  0
 12 14  1  0  0  0  0
 13 16  2  0  0  0  0
 13 28  1  0  0  0  0
 14 29  1  0  0  0  0
 15 31  1  0  0  0  0
 15 32  1  0  0  0  0
 15 33  1  0  0  0  0
 16 17  1  0  0  0  0
 16 34  1  0  0  0  0
 17 18  1  0  0  0  0
 17 19  2  0  0  0  0
 18 36  1  0  0  0  0
 18 37  1  0  0  0  0
 18 38  1  0  0  0  0
 19 20  1  0  0  0  0
 19 39  1  0  0  0  0
M  END
> <PUBCHEM_COMPOUND_CID>
11954194

> <PUBCHEM_CONFORMER_RMSD>
0.6

> <PUBCHEM_CONFORMER_DIVERSEORDER>
8
9
11
43
47
32
28
16
52
39
45
1
30
25
23
29
19
7
21
3
20
50
33
42
2
34
13
4
22
48
26
15
31
5
35
27
40
53
17
44
14
12
37
6
46
49
36
10
24
41
38
18
51

> <PUBCHEM_MMFF94_PARTIAL_CHARGES>
25
1 -0.68
10 -0.28
12 0.49
13 -0.29
14 -0.14
15 0.14
16 -0.15
17 -0.14
18 0.14
19 -0.14
2 -0.68
20 0.71
28 0.15
29 0.15
3 -0.57
30 0.4
34 0.15
35 0.4
39 0.15
4 -0.65
40 0.5
5 -0.57
7 0.56
8 0.06
9 0.28

> <PUBCHEM_EFFECTIVE_ROTOR_COUNT>
4.6

> <PUBCHEM_PHARMACOPHORE_FEATURES>
10
1 1 acceptor
1 1 donor
1 18 hydrophobe
1 2 acceptor
1 2 donor
1 3 acceptor
1 4 acceptor
1 5 acceptor
3 4 5 20 anion
6 6 7 8 10 12 14 rings

> <PUBCHEM_HEAVY_ATOM_COUNT>
20

> <PUBCHEM_ATOM_DEF_STEREO_COUNT>
2

> <PUBCHEM_ATOM_UDEF_STEREO_COUNT>
0

> <PUBCHEM_BOND_DEF_STEREO_COUNT>
2

> <PUBCHEM_BOND_UDEF_STEREO_COUNT>
0

> <PUBCHEM_ISOTOPIC_ATOM_COUNT>
0

> <PUBCHEM_COMPONENT_COUNT>
1

> <PUBCHEM_CACTVS_TAUTO_COUNT>
5

> <PUBCHEM_CONFORMER_ID>
00B6681200000008

> <PUBCHEM_MMFF94_ENERGY>
58.8189

> <PUBCHEM_FEATURE_SELFOVERLAP>
50.8

> <PUBCHEM_SHAPE_FINGERPRINT>
10447042 23 18113913645540433487
10498660 4 17676198100714195777
11578080 2 18197234717533649800
12011746 2 17418374692890031968
12236239 1 18410578353423302655
12707595 3 16558734750384803953
13134695 92 16487264235474253764
13224815 77 17530961402124425713
13583140 156 17605581991651827400
14289901 80 18260265269730544225
14787075 74 18263651653759081753
15375358 24 16845575305411317017
16945 1 18201430368590732180
17349148 13 18059290963827776025
17357779 13 17274824704750134365
18186145 218 17060047169054616081
192875 21 17989486290796355837
19784866 140 6049626775920742692
20279233 1 16559029385415752793
20600515 1 14979960276237759124
20645477 70 17418084412929619265
21069387 34 18130500920674775763
23557571 272 17168132460531691753
23559900 14 16879895585935861429
23598291 2 18269541905348064765
2748010 2 17630345236173095060
312423 11 18263346123039583883
3286 77 18187933936004850450
4340502 62 18202002075982483187
474 4 18201715102951793704
5104073 3 18260259785548060891
6442390 28 14490765498488887341
7615 1 18338502145234951905
81228 2 14747955321147728468
9971528 1 17988643029527567429
9999458 23 18263086522495426472

> <PUBCHEM_SHAPE_MULTIPOLES>
382.24
8.41
2.13
1.74
9.23
0.7
-0.31
0.54
0.45
-1.84
0.07
0.08
-0.78
-1.19

> <PUBCHEM_SHAPE_SELFOVERLAP>
785.725

> <PUBCHEM_SHAPE_VOLUME>
217.4

> <PUBCHEM_COORDINATE_TYPE>
2
5
10

$$$$

