441449
  -OEChem-07051212542D

 52 51  0     1  0  0  0  0  0999 V2000
    8.5991   -1.0950    0.0000 O   0  0  0  0  0  0  0  0  0  0  0  0
    2.5369    0.4050    0.0000 O   0  0  0  0  0  0  0  0  0  0  0  0
   17.2594   -0.0950    0.0000 O   0  0  0  0  0  0  0  0  0  0  0  0
   16.3933    1.4050    0.0000 O   0  0  0  0  0  0  0  0  0  0  0  0
    8.5991   -0.0950    0.0000 C   0  0  3  0  0  0  0  0  0  0  0  0
    9.4651    0.4050    0.0000 C   0  0  0  0  0  0  0  0  0  0  0  0
   10.3312   -0.0950    0.0000 C   0  0  0  0  0  0  0  0  0  0  0  0
    7.7331    0.4050    0.0000 C   0  0  0  0  0  0  0  0  0  0  0  0
   11.1972    0.4050    0.0000 C   0  0  0  0  0  0  0  0  0  0  0  0
    6.8671   -0.0950    0.0000 C   0  0  0  0  0  0  0  0  0  0  0  0
   12.0632   -0.0950    0.0000 C   0  0  0  0  0  0  0  0  0  0  0  0
    6.0010    0.4050    0.0000 C   0  0  0  0  0  0  0  0  0  0  0  0
   12.9292    0.4050    0.0000 C   0  0  0  0  0  0  0  0  0  0  0  0
   13.7953   -0.0950    0.0000 C   0  0  0  0  0  0  0  0  0  0  0  0
    5.1350   -0.0950    0.0000 C   0  0  0  0  0  0  0  0  0  0  0  0
   14.6613    0.4050    0.0000 C   0  0  0  0  0  0  0  0  0  0  0  0
    4.2690    0.4050    0.0000 C   0  0  0  0  0  0  0  0  0  0  0  0
   15.5273   -0.0950    0.0000 C   0  0  0  0  0  0  0  0  0  0  0  0
    3.4030   -0.0950    0.0000 C   0  0  0  0  0  0  0  0  0  0  0  0
   16.3933    0.4050    0.0000 C   0  0  0  0  0  0  0  0  0  0  0  0
    7.8630   -0.5200    0.0000 H   0  0  0  0  0  0  0  0  0  0  0  0
    9.8637    0.8799    0.0000 H   0  0  0  0  0  0  0  0  0  0  0  0
    9.0666    0.8799    0.0000 H   0  0  0  0  0  0  0  0  0  0  0  0
    9.9326   -0.5699    0.0000 H   0  0  0  0  0  0  0  0  0  0  0  0
   10.7297   -0.5699    0.0000 H   0  0  0  0  0  0  0  0  0  0  0  0
    8.1316    0.8799    0.0000 H   0  0  0  0  0  0  0  0  0  0  0  0
    7.3346    0.8799    0.0000 H   0  0  0  0  0  0  0  0  0  0  0  0
   11.5957    0.8799    0.0000 H   0  0  0  0  0  0  0  0  0  0  0  0
   10.7987    0.8799    0.0000 H   0  0  0  0  0  0  0  0  0  0  0  0
    6.4685   -0.5699    0.0000 H   0  0  0  0  0  0  0  0  0  0  0  0
    7.2656   -0.5699    0.0000 H   0  0  0  0  0  0  0  0  0  0  0  0
   11.6647   -0.5699    0.0000 H   0  0  0  0  0  0  0  0  0  0  0  0
   12.4617   -0.5699    0.0000 H   0  0  0  0  0  0  0  0  0  0  0  0
    6.3996    0.8799    0.0000 H   0  0  0  0  0  0  0  0  0  0  0  0
    5.6025    0.8799    0.0000 H   0  0  0  0  0  0  0  0  0  0  0  0
   13.3278    0.8799    0.0000 H   0  0  0  0  0  0  0  0  0  0  0  0
   12.5307    0.8799    0.0000 H   0  0  0  0  0  0  0  0  0  0  0  0
   13.3967   -0.5699    0.0000 H   0  0  0  0  0  0  0  0  0  0  0  0
   14.1938   -0.5699    0.0000 H   0  0  0  0  0  0  0  0  0  0  0  0
    4.7365   -0.5699    0.0000 H   0  0  0  0  0  0  0  0  0  0  0  0
    5.5335   -0.5699    0.0000 H   0  0  0  0  0  0  0  0  0  0  0  0
   15.0598    0.8799    0.0000 H   0  0  0  0  0  0  0  0  0  0  0  0
   14.2628    0.8799    0.0000 H   0  0  0  0  0  0  0  0  0  0  0  0
    4.6675    0.8799    0.0000 H   0  0  0  0  0  0  0  0  0  0  0  0
    3.8705    0.8799    0.0000 H   0  0  0  0  0  0  0  0  0  0  0  0
    8.0622   -1.4050    0.0000 H   0  0  0  0  0  0  0  0  0  0  0  0
   15.1288   -0.5699    0.0000 H   0  0  0  0  0  0  0  0  0  0  0  0
   15.9258   -0.5699    0.0000 H   0  0  0  0  0  0  0  0  0  0  0  0
    3.0044   -0.5699    0.0000 H   0  0  0  0  0  0  0  0  0  0  0  0
    3.8015   -0.5699    0.0000 H   0  0  0  0  0  0  0  0  0  0  0  0
    2.0000    0.0950    0.0000 H   0  0  0  0  0  0  0  0  0  0  0  0
   17.7963    0.2150    0.0000 H   0  0  0  0  0  0  0  0  0  0  0  0
  1  5  1  0  0  0  0
  1 46  1  0  0  0  0
  2 19  1  0  0  0  0
  2 51  1  0  0  0  0
  3 20  1  0  0  0  0
  3 52  1  0  0  0  0
  4 20  2  0  0  0  0
  5  6  1  0  0  0  0
  5  8  1  0  0  0  0
  5 21  1  0  0  0  0
  6  7  1  0  0  0  0
  6 22  1  0  0  0  0
  6 23  1  0  0  0  0
  7  9  1  0  0  0  0
  7 24  1  0  0  0  0
  7 25  1  0  0  0  0
  8 10  1  0  0  0  0
  8 26  1  0  0  0  0
  8 27  1  0  0  0  0
  9 11  1  0  0  0  0
  9 28  1  0  0  0  0
  9 29  1  0  0  0  0
 10 12  1  0  0  0  0
 10 30  1  0  0  0  0
 10 31  1  0  0  0  0
 11 13  1  0  0  0  0
 11 32  1  0  0  0  0
 11 33  1  0  0  0  0
 12 15  1  0  0  0  0
 12 34  1  0  0  0  0
 12 35  1  0  0  0  0
 13 14  1  0  0  0  0
 13 36  1  0  0  0  0
 13 37  1  0  0  0  0
 14 16  1  0  0  0  0
 14 38  1  0  0  0  0
 14 39  1  0  0  0  0
 15 17  1  0  0  0  0
 15 40  1  0  0  0  0
 15 41  1  0  0  0  0
 16 18  1  0  0  0  0
 16 42  1  0  0  0  0
 16 43  1  0  0  0  0
 17 19  1  0  0  0  0
 17 44  1  0  0  0  0
 17 45  1  0  0  0  0
 18 20  1  0  0  0  0
 18 47  1  0  0  0  0
 18 48  1  0  0  0  0
 19 49  1  0  0  0  0
 19 50  1  0  0  0  0
M  END
> <PUBCHEM_COMPOUND_CID>
441449

> <PUBCHEM_COMPOUND_CANONICALIZED>
1

> <PUBCHEM_CACTVS_COMPLEXITY>
219

> <PUBCHEM_CACTVS_HBOND_ACCEPTOR>
4

> <PUBCHEM_CACTVS_HBOND_DONOR>
3

> <PUBCHEM_CACTVS_ROTATABLE_BOND>
15

> <PUBCHEM_CACTVS_SUBSKEYS>
AAADcfB4OAAAAAAAAAAAAAAAAAAAAAAAAAAAAAAAAAAAAAAAAAAAGgAACAAACBSggAIACAAAAgAIAACQCAAAAAAAAAAAAAEAAAAAEBIAAAAAQAAEAAAAAAGIyKCAAAAAAAAAAAAAAAAAAAAAAAAAAAAAAA==

> <PUBCHEM_IUPAC_OPENEYE_NAME>
10,16-dihydroxyhexadecanoic acid

> <PUBCHEM_IUPAC_CAS_NAME>
10,16-dihydroxyhexadecanoic acid

> <PUBCHEM_IUPAC_NAME>
10,16-dihydroxyhexadecanoic acid

> <PUBCHEM_IUPAC_SYSTEMATIC_NAME>
10,16-bis(oxidanyl)hexadecanoic acid

> <PUBCHEM_IUPAC_TRADITIONAL_NAME>
10,16-dihydroxypalmitic acid

> <PUBCHEM_IUPAC_INCHI>
InChI=1S/C16H32O4/c17-14-10-6-5-8-12-15(18)11-7-3-1-2-4-9-13-16(19)20/h15,17-18H,1-14H2,(H,19,20)

> <PUBCHEM_IUPAC_INCHIKEY>
VJZBXAQGWLMYMS-UHFFFAOYSA-N

> <PUBCHEM_XLOGP3_AA>
3.6

> <PUBCHEM_EXACT_MASS>
288.23006

> <PUBCHEM_MOLECULAR_FORMULA>
C16H32O4

> <PUBCHEM_MOLECULAR_WEIGHT>
288.42288

> <PUBCHEM_OPENEYE_CAN_SMILES>
C(CCCCC(=O)O)CCCC(CCCCCCO)O

> <PUBCHEM_OPENEYE_ISO_SMILES>
C(CCCCC(=O)O)CCCC(CCCCCCO)O

> <PUBCHEM_CACTVS_TPSA>
77.8

> <PUBCHEM_MONOISOTOPIC_WEIGHT>
288.23006

> <PUBCHEM_TOTAL_CHARGE>
0

> <PUBCHEM_HEAVY_ATOM_COUNT>
20

> <PUBCHEM_ATOM_DEF_STEREO_COUNT>
0

> <PUBCHEM_ATOM_UDEF_STEREO_COUNT>
1

> <PUBCHEM_BOND_DEF_STEREO_COUNT>
0

> <PUBCHEM_BOND_UDEF_STEREO_COUNT>
0

> <PUBCHEM_ISOTOPIC_ATOM_COUNT>
0

> <PUBCHEM_COMPONENT_COUNT>
1

> <PUBCHEM_CACTVS_TAUTO_COUNT>
1

> <PUBCHEM_COORDINATE_TYPE>
1
5
255

> <PUBCHEM_BONDANNOTATIONS>
5  21  3

$$$$

