7606
  -OEChem-06261202123D

 60 60  0     0  0  0  0  0  0999 V2000
   -1.4405   -1.7122   -2.1107 Cl  0  0  0  0  0  0  0  0  0  0  0  0
   -2.3479   -2.9549    0.7364 Cl  0  0  0  0  0  0  0  0  0  0  0  0
    3.8509   -0.3270    0.0324 N   0  3  0  0  0  0  0  0  0  0  0  0
    3.0369    0.6826   -0.6835 C   0  0  0  0  0  0  0  0  0  0  0  0
    3.4514    2.0921   -0.2796 C   0  0  0  0  0  0  0  0  0  0  0  0
    3.4423   -1.7501   -0.3761 C   0  0  0  0  0  0  0  0  0  0  0  0
    2.6458    3.2319   -0.9141 C   0  0  0  0  0  0  0  0  0  0  0  0
    5.3435   -0.1522   -0.2844 C   0  0  0  0  0  0  0  0  0  0  0  0
    3.6698   -0.1988    1.5522 C   0  0  0  0  0  0  0  0  0  0  0  0
    1.1345    3.1972   -0.6673 C   0  0  0  0  0  0  0  0  0  0  0  0
    0.7603    3.1803    0.8170 C   0  0  0  0  0  0  0  0  0  0  0  0
   -0.7582    3.2375    1.0037 C   0  0  0  0  0  0  0  0  0  0  0  0
    1.9947   -2.0443   -0.1138 C   0  0  0  0  0  0  0  0  0  0  0  0
   -1.4936    2.0488    0.3780 C   0  0  0  0  0  0  0  0  0  0  0  0
   -3.0134    2.1186    0.5432 C   0  0  0  0  0  0  0  0  0  0  0  0
   -3.6909    0.8736   -0.0340 C   0  0  0  0  0  0  0  0  0  0  0  0
    1.0403   -1.7836   -1.0971 C   0  0  0  0  0  0  0  0  0  0  0  0
    1.6033   -2.5790    1.1136 C   0  0  0  0  0  0  0  0  0  0  0  0
   -5.2068    0.9229    0.1643 C   0  0  0  0  0  0  0  0  0  0  0  0
   -5.8871   -0.3045   -0.4416 C   0  0  0  0  0  0  0  0  0  0  0  0
   -0.3054   -2.0579   -0.8533 C   0  0  0  0  0  0  0  0  0  0  0  0
    0.2575   -2.8531    1.3576 C   0  0  0  0  0  0  0  0  0  0  0  0
   -0.6968   -2.5927    0.3742 C   0  0  0  0  0  0  0  0  0  0  0  0
   -7.3905   -0.2754   -0.2169 C   0  0  0  0  0  0  0  0  0  0  0  0
    1.9873    0.5419   -0.4169 H   0  0  0  0  0  0  0  0  0  0  0  0
    3.1595    0.5331   -1.7626 H   0  0  0  0  0  0  0  0  0  0  0  0
    4.4917    2.2777   -0.5683 H   0  0  0  0  0  0  0  0  0  0  0  0
    3.4046    2.2344    0.8037 H   0  0  0  0  0  0  0  0  0  0  0  0
    4.0878   -2.4555    0.1631 H   0  0  0  0  0  0  0  0  0  0  0  0
    3.6716   -1.8567   -1.4444 H   0  0  0  0  0  0  0  0  0  0  0  0
    3.0431    4.1861   -0.5454 H   0  0  0  0  0  0  0  0  0  0  0  0
    2.8185    3.2252   -1.9977 H   0  0  0  0  0  0  0  0  0  0  0  0
    5.8814   -1.0119    0.1278 H   0  0  0  0  0  0  0  0  0  0  0  0
    5.7210    0.7583    0.1869 H   0  0  0  0  0  0  0  0  0  0  0  0
    5.4634   -0.1173   -1.3711 H   0  0  0  0  0  0  0  0  0  0  0  0
    4.2355    0.6653    1.9121 H   0  0  0  0  0  0  0  0  0  0  0  0
    4.0809   -1.0941    2.0289 H   0  0  0  0  0  0  0  0  0  0  0  0
    2.6089   -0.0736    1.7847 H   0  0  0  0  0  0  0  0  0  0  0  0
    0.6861    4.0763   -1.1468 H   0  0  0  0  0  0  0  0  0  0  0  0
    0.7301    2.3209   -1.1824 H   0  0  0  0  0  0  0  0  0  0  0  0
    1.1429    2.2755    1.3014 H   0  0  0  0  0  0  0  0  0  0  0  0
    1.2159    4.0392    1.3233 H   0  0  0  0  0  0  0  0  0  0  0  0
   -0.9778    3.2707    2.0778 H   0  0  0  0  0  0  0  0  0  0  0  0
   -1.1426    4.1712    0.5752 H   0  0  0  0  0  0  0  0  0  0  0  0
   -1.2852    1.9907   -0.6951 H   0  0  0  0  0  0  0  0  0  0  0  0
   -1.1181    1.1208    0.8269 H   0  0  0  0  0  0  0  0  0  0  0  0
   -3.2597    2.2093    1.6080 H   0  0  0  0  0  0  0  0  0  0  0  0
   -3.3970    3.0165    0.0440 H   0  0  0  0  0  0  0  0  0  0  0  0
   -3.4610    0.7935   -1.1032 H   0  0  0  0  0  0  0  0  0  0  0  0
   -3.2888   -0.0209    0.4539 H   0  0  0  0  0  0  0  0  0  0  0  0
    1.3482   -1.3741   -2.0568 H   0  0  0  0  0  0  0  0  0  0  0  0
    2.3342   -2.8005    1.8862 H   0  0  0  0  0  0  0  0  0  0  0  0
   -5.4342    0.9792    1.2358 H   0  0  0  0  0  0  0  0  0  0  0  0
   -5.6099    1.8314   -0.2997 H   0  0  0  0  0  0  0  0  0  0  0  0
   -5.6835   -0.3501   -1.5177 H   0  0  0  0  0  0  0  0  0  0  0  0
   -5.4755   -1.2170    0.0052 H   0  0  0  0  0  0  0  0  0  0  0  0
   -0.0294   -3.2721    2.3188 H   0  0  0  0  0  0  0  0  0  0  0  0
   -7.6275   -0.2640    0.8518 H   0  0  0  0  0  0  0  0  0  0  0  0
   -7.8569   -1.1615   -0.6588 H   0  0  0  0  0  0  0  0  0  0  0  0
   -7.8389    0.6104   -0.6781 H   0  0  0  0  0  0  0  0  0  0  0  0
  1 21  1  0  0  0  0
  2 23  1  0  0  0  0
  3  4  1  0  0  0  0
  3  6  1  0  0  0  0
  3  8  1  0  0  0  0
  3  9  1  0  0  0  0
  4  5  1  0  0  0  0
  4 25  1  0  0  0  0
  4 26  1  0  0  0  0
  5  7  1  0  0  0  0
  5 27  1  0  0  0  0
  5 28  1  0  0  0  0
  6 13  1  0  0  0  0
  6 29  1  0  0  0  0
  6 30  1  0  0  0  0
  7 10  1  0  0  0  0
  7 31  1  0  0  0  0
  7 32  1  0  0  0  0
  8 33  1  0  0  0  0
  8 34  1  0  0  0  0
  8 35  1  0  0  0  0
  9 36  1  0  0  0  0
  9 37  1  0  0  0  0
  9 38  1  0  0  0  0
 10 11  1  0  0  0  0
 10 39  1  0  0  0  0
 10 40  1  0  0  0  0
 11 12  1  0  0  0  0
 11 41  1  0  0  0  0
 11 42  1  0  0  0  0
 12 14  1  0  0  0  0
 12 43  1  0  0  0  0
 12 44  1  0  0  0  0
 13 17  2  0  0  0  0
 13 18  1  0  0  0  0
 14 15  1  0  0  0  0
 14 45  1  0  0  0  0
 14 46  1  0  0  0  0
 15 16  1  0  0  0  0
 15 47  1  0  0  0  0
 15 48  1  0  0  0  0
 16 19  1  0  0  0  0
 16 49  1  0  0  0  0
 16 50  1  0  0  0  0
 17 21  1  0  0  0  0
 17 51  1  0  0  0  0
 18 22  2  0  0  0  0
 18 52  1  0  0  0  0
 19 20  1  0  0  0  0
 19 53  1  0  0  0  0
 19 54  1  0  0  0  0
 20 24  1  0  0  0  0
 20 55  1  0  0  0  0
 20 56  1  0  0  0  0
 21 23  2  0  0  0  0
 22 23  1  0  0  0  0
 22 57  1  0  0  0  0
 24 58  1  0  0  0  0
 24 59  1  0  0  0  0
 24 60  1  0  0  0  0
M  CHG  1   3   1
M  END
> <PUBCHEM_COMPOUND_CID>
7606

> <PUBCHEM_CONFORMER_RMSD>
1.6

> <PUBCHEM_CONFORMER_DIVERSEORDER>
1
25
54
14
39
35
72
30
32
36
31
56
6
16
71
62
7
5
24
40
76
63
13
73
48
29
57
75
20
34
27
10
66
68
55
12
65
26
43
28
15
64
9
41
69
59
2
8
45
58
11
74
60
50
33
42
77
3
47
61
44
70
67
21
23
53
17
49
19
52
18
46
51
22
38
4
37

> <PUBCHEM_MMFF94_PARTIAL_CHARGES>
16
1 -0.18
13 -0.14
17 -0.15
18 -0.15
2 -0.18
21 0.18
22 -0.15
23 0.18
3 -1.01
4 0.5
51 0.15
52 0.15
57 0.15
6 0.65
8 0.5
9 0.5

> <PUBCHEM_EFFECTIVE_ROTOR_COUNT>
13

> <PUBCHEM_PHARMACOPHORE_FEATURES>
3
1 24 hydrophobe
1 3 cation
6 13 17 18 21 22 23 rings

> <PUBCHEM_HEAVY_ATOM_COUNT>
24

> <PUBCHEM_ATOM_DEF_STEREO_COUNT>
0

> <PUBCHEM_ATOM_UDEF_STEREO_COUNT>
0

> <PUBCHEM_BOND_DEF_STEREO_COUNT>
0

> <PUBCHEM_BOND_UDEF_STEREO_COUNT>
0

> <PUBCHEM_ISOTOPIC_ATOM_COUNT>
0

> <PUBCHEM_COMPONENT_COUNT>
1

> <PUBCHEM_CACTVS_TAUTO_COUNT>
1

> <PUBCHEM_CONFORMER_ID>
00001DB600000001

> <PUBCHEM_MMFF94_ENERGY>
43.4195

> <PUBCHEM_FEATURE_SELFOVERLAP>
15.223

> <PUBCHEM_SHAPE_FINGERPRINT>
1100329 8 18411138004557010408
12838863 1 18340498849439377002
13122387 1 18338507552292770584
13140716 1 18338805524776811880
13402501 40 18411417293944026257
1361 2 18341892965954241497
14787075 74 18411983576918884255
14931854 50 18411410743591594108
15968369 153 17970071033137071419
20028762 73 18261110798325099702
21197605 99 18336542708145224015
22113638 7 18408889516290243820
3298306 158 18337956663208876961
338550 245 18339082566936024381
3680242 22 18341331197168911819
392239 28 18341601617221939187
437795 70 18116129212851981974
463206 1 18335703802232392561
484989 97 18198611160420875171
6287921 2 17462549925930045701

> <PUBCHEM_SHAPE_MULTIPOLES>
492.67
11.21
5.03
1.35
17.52
1.88
0.16
1.37
0.93
-1.46
-0.76
-0.28
-0.52
-0.93

> <PUBCHEM_SHAPE_SELFOVERLAP>
939.72

> <PUBCHEM_SHAPE_VOLUME>
304.5

> <PUBCHEM_COORDINATE_TYPE>
2
5
10

$$$$

