108079
  -OEChem-07051212542D

 28 28  0     1  0  0  0  0  0999 V2000
    3.3660    2.1651    0.0000 O   0  0  0  0  0  0  0  0  0  0  0  0
    4.8660    1.2990    0.0000 O   0  0  0  0  0  0  0  0  0  0  0  0
    7.8660   -2.1651    0.0000 O   0  0  0  0  0  0  0  0  0  0  0  0
    7.8660   -0.4330    0.0000 O   0  0  0  0  0  0  0  0  0  0  0  0
    3.3660    0.4330    0.0000 N   0  0  0  0  0  0  0  0  0  0  0  0
    5.8660   -2.1651    0.0000 N   0  0  0  0  0  0  0  0  0  0  0  0
    2.8660    1.2990    0.0000 C   0  0  0  0  0  0  0  0  0  0  0  0
    2.0000    0.7990    0.0000 C   0  0  0  0  0  0  0  0  0  0  0  0
    2.0000    1.7990    0.0000 C   0  0  0  0  0  0  0  0  0  0  0  0
    4.3660    0.4330    0.0000 C   0  0  0  0  0  0  0  0  0  0  0  0
    4.8660   -0.4330    0.0000 C   0  0  0  0  0  0  0  0  0  0  0  0
    5.8660   -0.4330    0.0000 C   0  0  0  0  0  0  0  0  0  0  0  0
    6.3660   -1.2990    0.0000 C   0  0  1  0  0  0  0  0  0  0  0  0
    7.3660   -1.2990    0.0000 C   0  0  0  0  0  0  0  0  0  0  0  0
    1.3894    0.6914    0.0000 H   0  0  0  0  0  0  0  0  0  0  0  0
    2.2120    0.2164    0.0000 H   0  0  0  0  0  0  0  0  0  0  0  0
    2.2120    2.3816    0.0000 H   0  0  0  0  0  0  0  0  0  0  0  0
    1.3894    1.9067    0.0000 H   0  0  0  0  0  0  0  0  0  0  0  0
    3.0560   -0.1039    0.0000 H   0  0  0  0  0  0  0  0  0  0  0  0
    3.0560    2.7020    0.0000 H   0  0  0  0  0  0  0  0  0  0  0  0
    4.2834   -0.6451    0.0000 H   0  0  0  0  0  0  0  0  0  0  0  0
    4.9737   -1.0436    0.0000 H   0  0  0  0  0  0  0  0  0  0  0  0
    6.4486   -0.2210    0.0000 H   0  0  0  0  0  0  0  0  0  0  0  0
    5.7584    0.1776    0.0000 H   0  0  0  0  0  0  0  0  0  0  0  0
    5.7460   -1.2990    0.0000 H   0  0  0  0  0  0  0  0  0  0  0  0
    6.1760   -2.7020    0.0000 H   0  0  0  0  0  0  0  0  0  0  0  0
    5.2460   -2.1651    0.0000 H   0  0  0  0  0  0  0  0  0  0  0  0
    8.4860   -2.1651    0.0000 H   0  0  0  0  0  0  0  0  0  0  0  0
  1  7  1  0  0  0  0
  1 20  1  0  0  0  0
  2 10  2  0  0  0  0
  3 14  1  0  0  0  0
  3 28  1  0  0  0  0
  4 14  2  0  0  0  0
  5  7  1  0  0  0  0
  5 10  1  0  0  0  0
  5 19  1  0  0  0  0
 13  6  1  1  0  0  0
  6 26  1  0  0  0  0
  6 27  1  0  0  0  0
  7  8  1  0  0  0  0
  7  9  1  0  0  0  0
  8  9  1  0  0  0  0
  8 15  1  0  0  0  0
  8 16  1  0  0  0  0
  9 17  1  0  0  0  0
  9 18  1  0  0  0  0
 10 11  1  0  0  0  0
 11 12  1  0  0  0  0
 11 21  1  0  0  0  0
 11 22  1  0  0  0  0
 12 13  1  0  0  0  0
 12 23  1  0  0  0  0
 12 24  1  0  0  0  0
 13 14  1  0  0  0  0
 13 25  1  0  0  0  0
M  END
> <PUBCHEM_COMPOUND_CID>
108079

> <PUBCHEM_COMPOUND_CANONICALIZED>
1

> <PUBCHEM_CACTVS_COMPLEXITY>
250

> <PUBCHEM_CACTVS_HBOND_ACCEPTOR>
5

> <PUBCHEM_CACTVS_HBOND_DONOR>
4

> <PUBCHEM_CACTVS_ROTATABLE_BOND>
5

> <PUBCHEM_CACTVS_SUBSKEYS>
AAADccBzOAAAAAAAAAAAAAAAGAAAAAAAAAAAAAAAAAAAAAAAAAAAHgAQCAAACCzBgAQACALAAgAIAAGQGAAAAAAAAAAAAIGAAAECABIAgAAEQAAEFACAAACcFwIAAAAAAAAAAAAAAAAAAAAAAAAAAAAAAA==

> <PUBCHEM_IUPAC_OPENEYE_NAME>
(2S)-2-amino-5-[(1-hydroxycyclopropyl)amino]-5-oxo-pentanoic acid

> <PUBCHEM_IUPAC_CAS_NAME>
(2S)-2-amino-5-[(1-hydroxycyclopropyl)amino]-5-oxopentanoic acid

> <PUBCHEM_IUPAC_NAME>
(2S)-2-amino-5-[(1-hydroxycyclopropyl)amino]-5-oxopentanoic acid

> <PUBCHEM_IUPAC_SYSTEMATIC_NAME>
(2S)-2-azanyl-5-[(1-oxidanylcyclopropyl)amino]-5-oxidanylidene-pentanoic acid

> <PUBCHEM_IUPAC_TRADITIONAL_NAME>
(2S)-2-amino-5-[(1-hydroxycyclopropyl)amino]-5-keto-valeric acid

> <PUBCHEM_IUPAC_INCHI>
InChI=1S/C8H14N2O4/c9-5(7(12)13)1-2-6(11)10-8(14)3-4-8/h5,14H,1-4,9H2,(H,10,11)(H,12,13)/t5-/m0/s1

> <PUBCHEM_IUPAC_INCHIKEY>
OEEZRBUCLFMTLD-YFKPBYRVSA-N

> <PUBCHEM_XLOGP3_AA>
-3.4

> <PUBCHEM_EXACT_MASS>
202.095357

> <PUBCHEM_MOLECULAR_FORMULA>
C8H14N2O4

> <PUBCHEM_MOLECULAR_WEIGHT>
202.20776

> <PUBCHEM_OPENEYE_CAN_SMILES>
C1CC1(NC(=O)CCC(C(=O)O)N)O

> <PUBCHEM_OPENEYE_ISO_SMILES>
C1CC1(NC(=O)CC[C@@H](C(=O)O)N)O

> <PUBCHEM_CACTVS_TPSA>
113

> <PUBCHEM_MONOISOTOPIC_WEIGHT>
202.095357

> <PUBCHEM_TOTAL_CHARGE>
0

> <PUBCHEM_HEAVY_ATOM_COUNT>
14

> <PUBCHEM_ATOM_DEF_STEREO_COUNT>
1

> <PUBCHEM_ATOM_UDEF_STEREO_COUNT>
0

> <PUBCHEM_BOND_DEF_STEREO_COUNT>
0

> <PUBCHEM_BOND_UDEF_STEREO_COUNT>
0

> <PUBCHEM_ISOTOPIC_ATOM_COUNT>
0

> <PUBCHEM_COMPONENT_COUNT>
1

> <PUBCHEM_CACTVS_TAUTO_COUNT>
2

> <PUBCHEM_COORDINATE_TYPE>
1
5
255

> <PUBCHEM_BONDANNOTATIONS>
13  6  5

$$$$

