12991
  -OEChem-06261207373D

 11 10  0     0  0  0  0  0  0999 V2000
   -2.2056    0.6469    0.0000 O   0  0  0  0  0  0  0  0  0  0  0  0
   -1.4709   -0.5689   -0.0001 C   0  0  0  0  0  0  0  0  0  0  0  0
    2.5737    0.2443   -0.0001 C   0  0  0  0  0  0  0  0  0  0  0  0
   -0.0374   -0.2790    0.0001 C   0  0  0  0  0  0  0  0  0  0  0  0
    1.1401   -0.0432    0.0002 C   0  0  0  0  0  0  0  0  0  0  0  0
   -1.7499   -1.1429    0.8888 H   0  0  0  0  0  0  0  0  0  0  0  0
   -1.7498   -1.1427   -0.8892 H   0  0  0  0  0  0  0  0  0  0  0  0
    3.1514   -0.6569   -0.2264 H   0  0  0  0  0  0  0  0  0  0  0  0
    2.8960    0.6178    0.9765 H   0  0  0  0  0  0  0  0  0  0  0  0
    2.8186    1.0018   -0.7507 H   0  0  0  0  0  0  0  0  0  0  0  0
   -3.1489    0.4107   -0.0001 H   0  0  0  0  0  0  0  0  0  0  0  0
  1  2  1  0  0  0  0
  1 11  1  0  0  0  0
  2  4  1  0  0  0  0
  2  6  1  0  0  0  0
  2  7  1  0  0  0  0
  3  5  1  0  0  0  0
  3  8  1  0  0  0  0
  3  9  1  0  0  0  0
  3 10  1  0  0  0  0
  4  5  3  0  0  0  0
M  END
> <PUBCHEM_COMPOUND_CID>
12991

> <PUBCHEM_CONFORMER_RMSD>
0.4

> <PUBCHEM_CONFORMER_DIVERSEORDER>
1

> <PUBCHEM_MMFF94_PARTIAL_CHARGES>
6
1 -0.68
11 0.4
2 0.48
3 0.2
4 -0.2
5 -0.2

> <PUBCHEM_EFFECTIVE_ROTOR_COUNT>
0

> <PUBCHEM_PHARMACOPHORE_FEATURES>
3
1 1 acceptor
1 1 donor
1 3 hydrophobe

> <PUBCHEM_HEAVY_ATOM_COUNT>
5

> <PUBCHEM_ATOM_DEF_STEREO_COUNT>
0

> <PUBCHEM_ATOM_UDEF_STEREO_COUNT>
0

> <PUBCHEM_BOND_DEF_STEREO_COUNT>
0

> <PUBCHEM_BOND_UDEF_STEREO_COUNT>
0

> <PUBCHEM_ISOTOPIC_ATOM_COUNT>
0

> <PUBCHEM_COMPONENT_COUNT>
1

> <PUBCHEM_CACTVS_TAUTO_COUNT>
1

> <PUBCHEM_CONFORMER_ID>
000032BF00000001

> <PUBCHEM_MMFF94_ENERGY>
0.7388

> <PUBCHEM_FEATURE_SELFOVERLAP>
15.223

> <PUBCHEM_SHAPE_FINGERPRINT>
14390081 3 18261115144990251960
16714656 1 18409165506482473373
20096714 4 18413107242798972588
29004967 10 14345788323366640262
5460574 1 9223237342485704194

> <PUBCHEM_SHAPE_MULTIPOLES>
97.03
3.46
0.75
0.6
0.67
0
0
0.59
0
-0.22
0
0.04
-0.01
0

> <PUBCHEM_SHAPE_SELFOVERLAP>
168.087

> <PUBCHEM_SHAPE_VOLUME>
64

> <PUBCHEM_COORDINATE_TYPE>
2
5
10

$$$$

