12815
  -OEChem-06261207243D

 13 13  0     0  0  0  0  0  0999 V2000
    1.7112    2.4570   -0.1645 Cl  0  0  0  0  0  0  0  0  0  0  0  0
   -1.7158    2.4538   -0.1645 Cl  0  0  0  0  0  0  0  0  0  0  0  0
    0.0010   -1.1407   -1.6506 F   0  0  0  0  0  0  0  0  0  0  0  0
    0.0021   -2.3226    0.1783 F   0  0  0  0  0  0  0  0  0  0  0  0
    1.4775   -0.5044    1.4642 F   0  0  0  0  0  0  0  0  0  0  0  0
    2.2965   -0.5563   -0.5623 F   0  0  0  0  0  0  0  0  0  0  0  0
   -1.4765   -0.5070    1.4642 F   0  0  0  0  0  0  0  0  0  0  0  0
   -2.2955   -0.5603   -0.5624 F   0  0  0  0  0  0  0  0  0  0  0  0
    0.0010   -1.0669   -0.2933 C   0  0  0  0  0  0  0  0  0  0  0  0
    1.1995   -0.2534    0.1623 C   0  0  0  0  0  0  0  0  0  0  0  0
   -1.1991   -0.2556    0.1624 C   0  0  0  0  0  0  0  0  0  0  0  0
    0.6675    1.1289   -0.0169 C   0  0  0  0  0  0  0  0  0  0  0  0
   -0.6696    1.1277   -0.0169 C   0  0  0  0  0  0  0  0  0  0  0  0
  1 12  1  0  0  0  0
  2 13  1  0  0  0  0
  3  9  1  0  0  0  0
  4  9  1  0  0  0  0
  5 10  1  0  0  0  0
  6 10  1  0  0  0  0
  7 11  1  0  0  0  0
  8 11  1  0  0  0  0
  9 10  1  0  0  0  0
  9 11  1  0  0  0  0
 10 12  1  0  0  0  0
 11 13  1  0  0  0  0
 12 13  2  0  0  0  0
M  END
> <PUBCHEM_COMPOUND_CID>
12815

> <PUBCHEM_CONFORMER_RMSD>
0.4

> <PUBCHEM_CONFORMER_DIVERSEORDER>
1

> <PUBCHEM_MMFF94_PARTIAL_CHARGES>
11
1 -0.14
10 0.82
11 0.82
2 -0.14
3 -0.34
4 -0.34
5 -0.34
6 -0.34
7 -0.34
8 -0.34
9 0.68

> <PUBCHEM_EFFECTIVE_ROTOR_COUNT>
0.6

> <PUBCHEM_PHARMACOPHORE_FEATURES>
1
5 9 10 11 12 13 rings

> <PUBCHEM_HEAVY_ATOM_COUNT>
13

> <PUBCHEM_ATOM_DEF_STEREO_COUNT>
0

> <PUBCHEM_ATOM_UDEF_STEREO_COUNT>
0

> <PUBCHEM_BOND_DEF_STEREO_COUNT>
0

> <PUBCHEM_BOND_UDEF_STEREO_COUNT>
0

> <PUBCHEM_ISOTOPIC_ATOM_COUNT>
0

> <PUBCHEM_COMPONENT_COUNT>
1

> <PUBCHEM_CACTVS_TAUTO_COUNT>
1

> <PUBCHEM_CONFORMER_ID>
0000320F00000001

> <PUBCHEM_MMFF94_ENERGY>
16.8496

> <PUBCHEM_FEATURE_SELFOVERLAP>
5.074

> <PUBCHEM_SHAPE_FINGERPRINT>
12423570 1 8687829579746063135
13024252 1 17846503642583010794
16945 1 18412263934523375387
18185500 45 17760093916829711228
21040471 1 17833277793074154297
241688 4 16896518191344722961
2748010 2 18410855477435190332
369184 2 17406282023136557840
5084963 1 18040715865753798594

> <PUBCHEM_SHAPE_MULTIPOLES>
227.63
2.51
2.36
1.04
1.17
0
-0.07
0
0.21
0.66
0
-0.36
0
0

> <PUBCHEM_SHAPE_SELFOVERLAP>
477.243

> <PUBCHEM_SHAPE_VOLUME>
133.3

> <PUBCHEM_COORDINATE_TYPE>
2
5
10

$$$$

