582865
  -OEChem-06241222443D

 57 56  0     1  0  0  0  0  0999 V2000
    2.8860   -2.1511   -0.6496 Si  0  0  0  0  0  0  0  0  0  0  0  0
    2.3772   -0.8425    0.2610 O   0  0  0  0  0  0  0  0  0  0  0  0
    3.2471    0.2796    0.4233 C   0  0  1  0  0  0  0  0  0  0  0  0
    2.3845    1.5041    0.7625 C   0  0  0  0  0  0  0  0  0  0  0  0
    1.3028    1.7996   -0.2781 C   0  0  0  0  0  0  0  0  0  0  0  0
    0.3947    2.9739    0.1045 C   0  0  0  0  0  0  0  0  0  0  0  0
   -0.6570    3.3752   -0.9352 C   0  0  0  0  0  0  0  0  0  0  0  0
   -1.6255    2.2670   -1.3615 C   0  0  0  0  0  0  0  0  0  0  0  0
   -2.5046    1.7598   -0.2156 C   0  0  0  0  0  0  0  0  0  0  0  0
    4.2715   -0.0593    1.5119 C   0  0  0  0  0  0  0  0  0  0  0  0
   -3.4775    0.6562   -0.6431 C   0  0  0  0  0  0  0  0  0  0  0  0
   -4.3733    0.1640    0.4959 C   0  0  0  0  0  0  0  0  0  0  0  0
   -5.3319   -0.9274    0.0144 C   0  0  0  0  0  0  0  0  0  0  0  0
    3.8174   -1.5373   -2.1682 C   0  0  0  0  0  0  0  0  0  0  0  0
    1.4281   -3.1827   -1.2400 C   0  0  0  0  0  0  0  0  0  0  0  0
    4.0447   -3.2596    0.3336 C   0  0  0  0  0  0  0  0  0  0  0  0
    5.2478    1.0835    1.7651 C   0  0  0  0  0  0  0  0  0  0  0  0
   -6.2499   -1.3979    1.1424 C   0  0  0  0  0  0  0  0  0  0  0  0
   -7.1822   -2.5049    0.6765 C   0  0  0  0  0  0  0  0  0  0  0  0
    3.7688    0.5155   -0.5129 H   0  0  0  0  0  0  0  0  0  0  0  0
    3.0139    2.3941    0.8710 H   0  0  0  0  0  0  0  0  0  0  0  0
    1.8916    1.3347    1.7286 H   0  0  0  0  0  0  0  0  0  0  0  0
    0.6825    0.9076   -0.4169 H   0  0  0  0  0  0  0  0  0  0  0  0
    1.7790    2.0103   -1.2433 H   0  0  0  0  0  0  0  0  0  0  0  0
    1.0250    3.8521    0.2957 H   0  0  0  0  0  0  0  0  0  0  0  0
   -0.1005    2.7498    1.0567 H   0  0  0  0  0  0  0  0  0  0  0  0
   -1.2307    4.2250   -0.5453 H   0  0  0  0  0  0  0  0  0  0  0  0
   -0.1378    3.7380   -1.8310 H   0  0  0  0  0  0  0  0  0  0  0  0
   -1.0726    1.4324   -1.8069 H   0  0  0  0  0  0  0  0  0  0  0  0
   -2.2731    2.6635   -2.1535 H   0  0  0  0  0  0  0  0  0  0  0  0
   -1.8744    1.3677    0.5906 H   0  0  0  0  0  0  0  0  0  0  0  0
   -3.0722    2.5997    0.2031 H   0  0  0  0  0  0  0  0  0  0  0  0
    3.7609   -0.3278    2.4449 H   0  0  0  0  0  0  0  0  0  0  0  0
    4.8709   -0.9267    1.2346 H   0  0  0  0  0  0  0  0  0  0  0  0
   -2.9055   -0.1890   -1.0457 H   0  0  0  0  0  0  0  0  0  0  0  0
   -4.1059    1.0316   -1.4603 H   0  0  0  0  0  0  0  0  0  0  0  0
   -3.7507   -0.2238    1.3111 H   0  0  0  0  0  0  0  0  0  0  0  0
   -4.9469    1.0072    0.8992 H   0  0  0  0  0  0  0  0  0  0  0  0
   -4.7553   -1.7773   -0.3706 H   0  0  0  0  0  0  0  0  0  0  0  0
   -5.9386   -0.5458   -0.8159 H   0  0  0  0  0  0  0  0  0  0  0  0
    4.7695   -1.0771   -1.8887 H   0  0  0  0  0  0  0  0  0  0  0  0
    4.0329   -2.3724   -2.8417 H   0  0  0  0  0  0  0  0  0  0  0  0
    3.2198   -0.8022   -2.7153 H   0  0  0  0  0  0  0  0  0  0  0  0
    0.8699   -3.5806   -0.3874 H   0  0  0  0  0  0  0  0  0  0  0  0
    0.7476   -2.5742   -1.8430 H   0  0  0  0  0  0  0  0  0  0  0  0
    1.7714   -4.0234   -1.8501 H   0  0  0  0  0  0  0  0  0  0  0  0
    3.7092   -3.3471    1.3710 H   0  0  0  0  0  0  0  0  0  0  0  0
    4.0628   -4.2632   -0.1028 H   0  0  0  0  0  0  0  0  0  0  0  0
    5.0705   -2.8823    0.3241 H   0  0  0  0  0  0  0  0  0  0  0  0
    5.7233    1.4113    0.8353 H   0  0  0  0  0  0  0  0  0  0  0  0
    6.0368    0.7544    2.4496 H   0  0  0  0  0  0  0  0  0  0  0  0
    4.7537    1.9419    2.2291 H   0  0  0  0  0  0  0  0  0  0  0  0
   -5.6493   -1.7651    1.9827 H   0  0  0  0  0  0  0  0  0  0  0  0
   -6.8463   -0.5561    1.5130 H   0  0  0  0  0  0  0  0  0  0  0  0
   -6.6157   -3.3756    0.3310 H   0  0  0  0  0  0  0  0  0  0  0  0
   -7.8301   -2.8256    1.4983 H   0  0  0  0  0  0  0  0  0  0  0  0
   -7.8195   -2.1614   -0.1445 H   0  0  0  0  0  0  0  0  0  0  0  0
  1  2  1  0  0  0  0
  1 14  1  0  0  0  0
  1 15  1  0  0  0  0
  1 16  1  0  0  0  0
  2  3  1  0  0  0  0
  3  4  1  0  0  0  0
  3 10  1  0  0  0  0
  3 20  1  0  0  0  0
  4  5  1  0  0  0  0
  4 21  1  0  0  0  0
  4 22  1  0  0  0  0
  5  6  1  0  0  0  0
  5 23  1  0  0  0  0
  5 24  1  0  0  0  0
  6  7  1  0  0  0  0
  6 25  1  0  0  0  0
  6 26  1  0  0  0  0
  7  8  1  0  0  0  0
  7 27  1  0  0  0  0
  7 28  1  0  0  0  0
  8  9  1  0  0  0  0
  8 29  1  0  0  0  0
  8 30  1  0  0  0  0
  9 11  1  0  0  0  0
  9 31  1  0  0  0  0
  9 32  1  0  0  0  0
 10 17  1  0  0  0  0
 10 33  1  0  0  0  0
 10 34  1  0  0  0  0
 11 12  1  0  0  0  0
 11 35  1  0  0  0  0
 11 36  1  0  0  0  0
 12 13  1  0  0  0  0
 12 37  1  0  0  0  0
 12 38  1  0  0  0  0
 13 18  1  0  0  0  0
 13 39  1  0  0  0  0
 13 40  1  0  0  0  0
 14 41  1  0  0  0  0
 14 42  1  0  0  0  0
 14 43  1  0  0  0  0
 15 44  1  0  0  0  0
 15 45  1  0  0  0  0
 15 46  1  0  0  0  0
 16 47  1  0  0  0  0
 16 48  1  0  0  0  0
 16 49  1  0  0  0  0
 17 50  1  0  0  0  0
 17 51  1  0  0  0  0
 17 52  1  0  0  0  0
 18 19  1  0  0  0  0
 18 53  1  0  0  0  0
 18 54  1  0  0  0  0
 19 55  1  0  0  0  0
 19 56  1  0  0  0  0
 19 57  1  0  0  0  0
M  END
> <PUBCHEM_COMPOUND_CID>
582865

> <PUBCHEM_CONFORMER_RMSD>
1.4

> <PUBCHEM_CONFORMER_DIVERSEORDER>
2
14
4
62
56
47
1
40
60
39
53
48
25
32
42
12
35
36
8
45
6
24
9
33
43
46
13
19
5
50
59
26
49
57
44
23
10
41
21
58
11
29
16
54
27
7
20
22
38
37
30
31
3
18
52
17
51
55
15
34
28
61

> <PUBCHEM_MMFF94_PARTIAL_CHARGES>
6
1 0.54
14 -0.08
15 -0.08
16 -0.08
2 -0.58
3 0.28

> <PUBCHEM_EFFECTIVE_ROTOR_COUNT>
13

> <PUBCHEM_PHARMACOPHORE_FEATURES>
2
1 17 hydrophobe
1 19 hydrophobe

> <PUBCHEM_HEAVY_ATOM_COUNT>
19

> <PUBCHEM_ATOM_DEF_STEREO_COUNT>
0

> <PUBCHEM_ATOM_UDEF_STEREO_COUNT>
1

> <PUBCHEM_BOND_DEF_STEREO_COUNT>
0

> <PUBCHEM_BOND_UDEF_STEREO_COUNT>
0

> <PUBCHEM_ISOTOPIC_ATOM_COUNT>
0

> <PUBCHEM_COMPONENT_COUNT>
1

> <PUBCHEM_CACTVS_TAUTO_COUNT>
1

> <PUBCHEM_CONFORMER_ID>
0008E4D100000002

> <PUBCHEM_MMFF94_ENERGY>
9.8123

> <PUBCHEM_FEATURE_SELFOVERLAP>
10.149

> <PUBCHEM_SHAPE_FINGERPRINT>
108634 29 18131627889680445906
11828532 37 17345465974026881187
12596602 18 16588025676098852179
12892183 10 17894629283769184297
13533116 47 18191577568043723713
13911882 115 18334863852657955672
14251740 57 18334565829172201719
15003188 105 17918000481111197194
1768 124 18262797338411135055
17859628 70 18339357444943292397
1979834 28 18262797367889765713
20765182 20 18264747910345258427
21197605 99 18194402191144526555
21315759 227 18053105304752476246
21585482 310 17987787515841697203
221490 88 18046637973653351408
25222932 49 17988376883247198435
373842 8 17905885878284185215
484989 97 18190736626432867246
5309563 4 18410288142736546999
8217 86 18264192772921141574

> <PUBCHEM_SHAPE_MULTIPOLES>
403.35
14.73
4.57
1.59
26.54
0.04
-0.17
12.48
6.63
-0.51
-1.14
-1.65
0.12
3.41

> <PUBCHEM_SHAPE_SELFOVERLAP>
717.172

> <PUBCHEM_SHAPE_VOLUME>
262.7

> <PUBCHEM_COORDINATE_TYPE>
2
5
10

$$$$

