443686
  -OEChem-07051213023D

 47 50  0     1  0  0  0  0  0999 V2000
   -1.0934   -1.8372   -1.4765 O   0  0  0  0  0  0  0  0  0  0  0  0
   -3.1117   -1.6104    1.5682 O   0  0  0  0  0  0  0  0  0  0  0  0
   -3.7575   -0.6759   -1.8831 O   0  0  0  0  0  0  0  0  0  0  0  0
    3.9290   -1.9057    0.2617 O   0  0  0  0  0  0  0  0  0  0  0  0
    4.8720    0.6679   -0.1683 O   0  0  0  0  0  0  0  0  0  0  0  0
   -1.0300    2.1042    0.2445 N   0  0  2  0  0  0  0  0  0  0  0  0
   -1.4353    0.8597   -0.4074 C   0  0  1  0  0  0  0  0  0  0  0  0
   -0.7293   -0.2661    0.3421 C   0  0  1  0  0  0  0  0  0  0  0  0
   -1.3532   -1.6117   -0.0939 C   0  0  1  0  0  0  0  0  0  0  0  0
   -2.9150    0.8574   -0.2829 C   0  0  0  0  0  0  0  0  0  0  0  0
   -2.8883   -1.6135    0.1584 C   0  0  2  0  0  0  0  0  0  0  0  0
   -3.6479   -0.4255   -0.4825 C   0  0  2  0  0  0  0  0  0  0  0  0
    0.7739   -0.0457    0.1707 C   0  0  0  0  0  0  0  0  0  0  0  0
   -2.1437    3.0331    0.0655 C   0  0  0  0  0  0  0  0  0  0  0  0
    0.3137    2.4739   -0.1572 C   0  0  0  0  0  0  0  0  0  0  0  0
   -3.3309    2.1035   -0.0195 C   0  0  0  0  0  0  0  0  0  0  0  0
    1.2645    1.2807   -0.0262 C   0  0  0  0  0  0  0  0  0  0  0  0
    1.6889   -1.0998    0.2766 C   0  0  0  0  0  0  0  0  0  0  0  0
    2.6426    1.4993   -0.1510 C   0  0  0  0  0  0  0  0  0  0  0  0
    3.0592   -0.8607    0.1565 C   0  0  0  0  0  0  0  0  0  0  0  0
    3.5340    0.4319   -0.0593 C   0  0  0  0  0  0  0  0  0  0  0  0
   -4.4919   -1.7378    1.8724 C   0  0  0  0  0  0  0  0  0  0  0  0
    4.2723   -2.5856   -0.9435 C   0  0  0  0  0  0  0  0  0  0  0  0
    5.5779    0.9641    1.0349 C   0  0  0  0  0  0  0  0  0  0  0  0
   -1.1837    0.8573   -1.4800 H   0  0  0  0  0  0  0  0  0  0  0  0
   -0.9140   -0.1667    1.4236 H   0  0  0  0  0  0  0  0  0  0  0  0
   -0.9066   -2.4355    0.4748 H   0  0  0  0  0  0  0  0  0  0  0  0
   -3.2761   -2.5533   -0.2593 H   0  0  0  0  0  0  0  0  0  0  0  0
   -4.6724   -0.3129   -0.1219 H   0  0  0  0  0  0  0  0  0  0  0  0
   -2.0652    3.6223   -0.8550 H   0  0  0  0  0  0  0  0  0  0  0  0
   -2.2274    3.7016    0.9269 H   0  0  0  0  0  0  0  0  0  0  0  0
    0.6720    3.2865    0.4849 H   0  0  0  0  0  0  0  0  0  0  0  0
    0.3337    2.8179   -1.1989 H   0  0  0  0  0  0  0  0  0  0  0  0
   -4.3598    2.4115    0.0895 H   0  0  0  0  0  0  0  0  0  0  0  0
    1.3466   -2.1142    0.4612 H   0  0  0  0  0  0  0  0  0  0  0  0
   -0.1334   -1.9316   -1.5916 H   0  0  0  0  0  0  0  0  0  0  0  0
    3.0198    2.5055   -0.3185 H   0  0  0  0  0  0  0  0  0  0  0  0
   -4.2905   -1.4814   -1.9965 H   0  0  0  0  0  0  0  0  0  0  0  0
   -5.0142   -2.4156    1.1893 H   0  0  0  0  0  0  0  0  0  0  0  0
   -4.9749   -0.7572    1.9025 H   0  0  0  0  0  0  0  0  0  0  0  0
   -4.5691   -2.1569    2.8805 H   0  0  0  0  0  0  0  0  0  0  0  0
    4.9733   -3.3877   -0.6967 H   0  0  0  0  0  0  0  0  0  0  0  0
    4.7568   -1.9018   -1.6475 H   0  0  0  0  0  0  0  0  0  0  0  0
    3.3816   -3.0277   -1.4014 H   0  0  0  0  0  0  0  0  0  0  0  0
    5.5029    0.1312    1.7411 H   0  0  0  0  0  0  0  0  0  0  0  0
    5.1901    1.8803    1.4914 H   0  0  0  0  0  0  0  0  0  0  0  0
    6.6314    1.1167    0.7851 H   0  0  0  0  0  0  0  0  0  0  0  0
  1  9  1  0  0  0  0
  1 36  1  0  0  0  0
  2 11  1  0  0  0  0
  2 22  1  0  0  0  0
  3 12  1  0  0  0  0
  3 38  1  0  0  0  0
  4 20  1  0  0  0  0
  4 23  1  0  0  0  0
  5 21  1  0  0  0  0
  5 24  1  0  0  0  0
  6  7  1  0  0  0  0
  6 14  1  0  0  0  0
  6 15  1  0  0  0  0
  7  8  1  0  0  0  0
  7 10  1  0  0  0  0
  7 25  1  0  0  0  0
  8  9  1  0  0  0  0
  8 13  1  0  0  0  0
  8 26  1  0  0  0  0
  9 11  1  0  0  0  0
  9 27  1  0  0  0  0
 10 12  1  0  0  0  0
 10 16  2  0  0  0  0
 11 12  1  0  0  0  0
 11 28  1  0  0  0  0
 12 29  1  0  0  0  0
 13 17  1  0  0  0  0
 13 18  2  0  0  0  0
 14 16  1  0  0  0  0
 14 30  1  0  0  0  0
 14 31  1  0  0  0  0
 15 17  1  0  0  0  0
 15 32  1  0  0  0  0
 15 33  1  0  0  0  0
 16 34  1  0  0  0  0
 17 19  2  0  0  0  0
 18 20  1  0  0  0  0
 18 35  1  0  0  0  0
 19 21  1  0  0  0  0
 19 37  1  0  0  0  0
 20 21  2  0  0  0  0
 22 39  1  0  0  0  0
 22 40  1  0  0  0  0
 22 41  1  0  0  0  0
 23 42  1  0  0  0  0
 23 43  1  0  0  0  0
 23 44  1  0  0  0  0
 24 45  1  0  0  0  0
 24 46  1  0  0  0  0
 24 47  1  0  0  0  0
M  END
> <PUBCHEM_COMPOUND_CID>
443686

> <PUBCHEM_CONFORMER_RMSD>
0.8

> <PUBCHEM_CONFORMER_DIVERSEORDER>
1
2

> <PUBCHEM_MMFF94_PARTIAL_CHARGES>
29
1 -0.68
10 -0.28
11 0.28
12 0.42
13 -0.14
14 0.41
15 0.41
16 -0.29
17 -0.14
18 -0.15
19 -0.15
2 -0.56
20 0.08
21 0.08
22 0.28
23 0.28
24 0.28
3 -0.68
34 0.15
35 0.15
36 0.4
37 0.15
38 0.4
4 -0.36
5 -0.36
6 -0.81
7 0.41
8 0.14
9 0.28

> <PUBCHEM_EFFECTIVE_ROTOR_COUNT>
4

> <PUBCHEM_PHARMACOPHORE_FEATURES>
12
1 1 acceptor
1 1 donor
1 2 acceptor
1 3 acceptor
1 3 donor
1 4 acceptor
1 5 acceptor
1 6 cation
5 6 7 10 14 16 rings
6 13 17 18 19 20 21 rings
6 6 7 8 13 15 17 rings
6 7 8 9 10 11 12 rings

> <PUBCHEM_HEAVY_ATOM_COUNT>
24

> <PUBCHEM_ATOM_DEF_STEREO_COUNT>
5

> <PUBCHEM_ATOM_UDEF_STEREO_COUNT>
0

> <PUBCHEM_BOND_DEF_STEREO_COUNT>
0

> <PUBCHEM_BOND_UDEF_STEREO_COUNT>
0

> <PUBCHEM_ISOTOPIC_ATOM_COUNT>
0

> <PUBCHEM_COMPONENT_COUNT>
1

> <PUBCHEM_CACTVS_TAUTO_COUNT>
1

> <PUBCHEM_CONFORMER_ID>
0006C52600000001

> <PUBCHEM_MMFF94_ENERGY>
102.2814

> <PUBCHEM_FEATURE_SELFOVERLAP>
61.138

> <PUBCHEM_SHAPE_FINGERPRINT>
10616163 171 18409166602026149116
10906281 52 18336817698038023805
10967382 1 17979073782310198141
1100329 8 17406839956599865379
11405975 8 18265895942191859530
11552529 35 15575574426591767070
121448 382 16773798082369308441
12422481 6 18190999370560529259
12553582 1 18265329517256337622
13140716 1 18265326394678106536
13224815 77 18407763638116180784
13544653 18 18410573967976863295
13583140 156 5256417105852367959
14787075 74 17700404789290931635
14790565 3 17831295365099435553
15196674 1 18337393841582014300
15442244 35 18338801246683189460
15536298 74 18336267950650156596
16752209 62 18335997440287057327
16945 1 18193842535652235645
17349148 13 17988927730578767584
17492 89 18412823612134451066
18186145 218 17775566480948060182
18927931 339 18410291398121108894
200 152 18261401013665615981
20775438 99 17034493217656325087
21267235 1 18412256208140992906
221490 88 18411693314370247674
22182313 1 18189318199442498270
2334 1 18410294709451534957
23402539 116 18334869298180764525
23557571 272 18336253596853538388
23558518 356 18272359918942104769
23559900 14 18262805198121600272
2748010 2 18410016537394345805
335352 9 18122063371147963132
34934 24 18341622550354423832
350125 39 18341043008710541257
4214541 1 18337956800352275404
5104073 3 18338237171559113816
90525 40 18260268555327855919
9709674 26 18409730698799135374

> <PUBCHEM_SHAPE_MULTIPOLES>
459.58
9.57
3.02
1.14
7.82
0.67
0.06
-2.54
1.46
-0.76
-0.02
-1.01
-0.66
1.24

> <PUBCHEM_SHAPE_SELFOVERLAP>
1000.238

> <PUBCHEM_SHAPE_VOLUME>
252.1

> <PUBCHEM_COORDINATE_TYPE>
2
5
10

$$$$

