51090948
  -OEChem-06241223013D

 50 53  0     0  0  0  0  0  0999 V2000
   -1.7100    2.2708   -1.7160 O   0  0  0  0  0  0  0  0  0  0  0  0
    3.6168   -0.2072    0.0697 N   0  0  0  0  0  0  0  0  0  0  0  0
   -0.1661    1.6592   -0.0699 N   0  0  0  0  0  0  0  0  0  0  0  0
    2.5418    0.7425    0.3558 C   0  0  0  0  0  0  0  0  0  0  0  0
    2.1320    1.4772   -0.9282 C   0  0  0  0  0  0  0  0  0  0  0  0
    1.3393    0.0084    0.9659 C   0  0  0  0  0  0  0  0  0  0  0  0
    4.0516   -0.8783    1.3026 C   0  0  0  0  0  0  0  0  0  0  0  0
    4.7405    0.4722   -0.5901 C   0  0  0  0  0  0  0  0  0  0  0  0
    0.9407    2.4004   -0.6748 C   0  0  0  0  0  0  0  0  0  0  0  0
    0.1701    0.9677    1.1818 C   0  0  0  0  0  0  0  0  0  0  0  0
    5.1422   -1.9111    1.0137 C   0  0  0  0  0  0  0  0  0  0  0  0
    5.8537   -0.5162   -0.9407 C   0  0  0  0  0  0  0  0  0  0  0  0
    6.3266   -1.2793    0.2914 C   0  0  0  0  0  0  0  0  0  0  0  0
   -1.4278    1.6919   -0.6679 C   0  0  0  0  0  0  0  0  0  0  0  0
   -2.5242    0.9690   -0.0114 C   0  0  0  0  0  0  0  0  0  0  0  0
   -2.8184   -0.3744   -0.2957 C   0  0  0  0  0  0  0  0  0  0  0  0
   -3.2776    1.6804    0.9228 C   0  0  0  0  0  0  0  0  0  0  0  0
   -3.8918   -1.0052    0.3771 C   0  0  0  0  0  0  0  0  0  0  0  0
   -2.0709   -1.1057   -1.2332 C   0  0  0  0  0  0  0  0  0  0  0  0
   -4.3331    1.0602    1.5846 C   0  0  0  0  0  0  0  0  0  0  0  0
   -4.6394   -0.2740    1.3145 C   0  0  0  0  0  0  0  0  0  0  0  0
   -4.1860   -2.3487    0.0928 C   0  0  0  0  0  0  0  0  0  0  0  0
   -2.3772   -2.4397   -1.5033 C   0  0  0  0  0  0  0  0  0  0  0  0
   -3.4327   -3.0600   -0.8416 C   0  0  0  0  0  0  0  0  0  0  0  0
    2.8896    1.4943    1.0797 H   0  0  0  0  0  0  0  0  0  0  0  0
    2.9259    2.1247   -1.3124 H   0  0  0  0  0  0  0  0  0  0  0  0
    1.8695    0.7558   -1.7133 H   0  0  0  0  0  0  0  0  0  0  0  0
    1.0204   -0.8104    0.3077 H   0  0  0  0  0  0  0  0  0  0  0  0
    1.5633   -0.4187    1.9476 H   0  0  0  0  0  0  0  0  0  0  0  0
    3.2440   -1.4498    1.7670 H   0  0  0  0  0  0  0  0  0  0  0  0
    4.4157   -0.1521    2.0411 H   0  0  0  0  0  0  0  0  0  0  0  0
    5.1420    1.2785    0.0375 H   0  0  0  0  0  0  0  0  0  0  0  0
    4.4547    0.9026   -1.5534 H   0  0  0  0  0  0  0  0  0  0  0  0
    0.4337    1.7370    1.9175 H   0  0  0  0  0  0  0  0  0  0  0  0
    0.6275    2.8685   -1.6136 H   0  0  0  0  0  0  0  0  0  0  0  0
    1.2153    3.2048    0.0179 H   0  0  0  0  0  0  0  0  0  0  0  0
   -0.6824    0.4158    1.5831 H   0  0  0  0  0  0  0  0  0  0  0  0
    4.7292   -2.7208    0.3984 H   0  0  0  0  0  0  0  0  0  0  0  0
    5.4821   -2.3644    1.9519 H   0  0  0  0  0  0  0  0  0  0  0  0
    6.6984    0.0194   -1.3889 H   0  0  0  0  0  0  0  0  0  0  0  0
    5.4911   -1.2283   -1.6933 H   0  0  0  0  0  0  0  0  0  0  0  0
    7.0471   -2.0520    0.0022 H   0  0  0  0  0  0  0  0  0  0  0  0
    6.8453   -0.5919    0.9708 H   0  0  0  0  0  0  0  0  0  0  0  0
   -3.0508    2.7205    1.1441 H   0  0  0  0  0  0  0  0  0  0  0  0
   -1.2381   -0.6598   -1.7719 H   0  0  0  0  0  0  0  0  0  0  0  0
   -4.9191    1.6144    2.3120 H   0  0  0  0  0  0  0  0  0  0  0  0
   -5.4689   -0.7385    1.8437 H   0  0  0  0  0  0  0  0  0  0  0  0
   -5.0066   -2.8538    0.5981 H   0  0  0  0  0  0  0  0  0  0  0  0
   -1.7910   -2.9943   -2.2303 H   0  0  0  0  0  0  0  0  0  0  0  0
   -3.6706   -4.0986   -1.0523 H   0  0  0  0  0  0  0  0  0  0  0  0
  1 14  2  0  0  0  0
  2  4  1  0  0  0  0
  2  7  1  0  0  0  0
  2  8  1  0  0  0  0
  3  9  1  0  0  0  0
  3 10  1  0  0  0  0
  3 14  1  0  0  0  0
  4  5  1  0  0  0  0
  4  6  1  0  0  0  0
  4 25  1  0  0  0  0
  5  9  1  0  0  0  0
  5 26  1  0  0  0  0
  5 27  1  0  0  0  0
  6 10  1  0  0  0  0
  6 28  1  0  0  0  0
  6 29  1  0  0  0  0
  7 11  1  0  0  0  0
  7 30  1  0  0  0  0
  7 31  1  0  0  0  0
  8 12  1  0  0  0  0
  8 32  1  0  0  0  0
  8 33  1  0  0  0  0
  9 35  1  0  0  0  0
  9 36  1  0  0  0  0
 10 34  1  0  0  0  0
 10 37  1  0  0  0  0
 11 13  1  0  0  0  0
 11 38  1  0  0  0  0
 11 39  1  0  0  0  0
 12 13  1  0  0  0  0
 12 40  1  0  0  0  0
 12 41  1  0  0  0  0
 13 42  1  0  0  0  0
 13 43  1  0  0  0  0
 14 15  1  0  0  0  0
 15 16  1  0  0  0  0
 15 17  2  0  0  0  0
 16 18  1  0  0  0  0
 16 19  2  0  0  0  0
 17 20  1  0  0  0  0
 17 44  1  0  0  0  0
 18 21  1  0  0  0  0
 18 22  2  0  0  0  0
 19 23  1  0  0  0  0
 19 45  1  0  0  0  0
 20 21  2  0  0  0  0
 20 46  1  0  0  0  0
 21 47  1  0  0  0  0
 22 24  1  0  0  0  0
 22 48  1  0  0  0  0
 23 24  2  0  0  0  0
 23 49  1  0  0  0  0
 24 50  1  0  0  0  0
M  END
> <PUBCHEM_COMPOUND_CID>
51090948

> <PUBCHEM_CONFORMER_RMSD>
0.8

> <PUBCHEM_CONFORMER_DIVERSEORDER>
1
22
18
26
17
24
11
16
10
27
21
28
20
29
15
7
13
23
6
12
8
5
3
9
14
19
4
2
25

> <PUBCHEM_MMFF94_PARTIAL_CHARGES>
24
1 -0.57
10 0.3
14 0.54
15 0.09
17 -0.15
19 -0.15
2 -0.81
20 -0.15
21 -0.15
22 -0.15
23 -0.15
24 -0.15
3 -0.66
4 0.27
44 0.15
45 0.15
46 0.15
47 0.15
48 0.15
49 0.15
50 0.15
7 0.27
8 0.27
9 0.3

> <PUBCHEM_EFFECTIVE_ROTOR_COUNT>
5.4

> <PUBCHEM_PHARMACOPHORE_FEATURES>
6
1 1 acceptor
1 2 cation
6 15 16 17 18 20 21 rings
6 16 18 19 22 23 24 rings
6 2 7 8 11 12 13 rings
6 3 4 5 6 9 10 rings

> <PUBCHEM_HEAVY_ATOM_COUNT>
24

> <PUBCHEM_ATOM_DEF_STEREO_COUNT>
0

> <PUBCHEM_ATOM_UDEF_STEREO_COUNT>
0

> <PUBCHEM_BOND_DEF_STEREO_COUNT>
0

> <PUBCHEM_BOND_UDEF_STEREO_COUNT>
0

> <PUBCHEM_ISOTOPIC_ATOM_COUNT>
0

> <PUBCHEM_COMPONENT_COUNT>
1

> <PUBCHEM_CACTVS_TAUTO_COUNT>
1

> <PUBCHEM_CONFORMER_ID>
030B960400000001

> <PUBCHEM_MMFF94_ENERGY>
56.6231

> <PUBCHEM_FEATURE_SELFOVERLAP>
30.472

> <PUBCHEM_SHAPE_FINGERPRINT>
10042902 136 18336829671842310214
10291535 26 9583511036404531829
10369192 42 17318478409662737064
10622 236 18046076951798173975
10928967 22 18271536350790588938
11036077 4 18186518834754777891
11089746 13 8862936161709924202
11112241 14 15502665926745234990
11370993 144 17167584899282113426
11524674 6 17458347485009216887
12107183 9 18336252527333413633
12174731 88 17840041959077017442
12422481 6 18187638150250272718
12553582 1 18202292385173911904
12633257 1 17386834042206023475
13004483 165 15794854360442333295
13009979 54 18264198128682094657
13103583 49 18187637016120164448
13167823 11 18411136935679898480
13383661 66 16551133556284066971
14251751 18 18335427880943574106
14251751 93 18271533107836546234
14251764 30 17988353755175610315
14420673 8 18187634860326481510
14480069 147 17274265083755642170
14767858 380 17846203433734285820
15209289 33 18343581828472067035
15348495 7 17530690896594344930
15537594 2 18343578564529101874
16110190 28 18335136484180699364
17349148 13 17346318232924054000
17780758 139 18113339729986905208
1813 80 18131339813217539004
19141452 34 18408602595373902049
19319366 153 16752684964130361447
19377110 9 18341901745315443272
19438510 23 14853265845710050227
20554085 129 17241603009032188473
20775530 9 17977114461306634271
21033648 144 12030626992289602238
21033648 29 14924207336070628273
21403212 168 18188764076654458417
22950370 63 18413103961892279928
23402539 116 17775285010545904712
235170 7 14836126580577082034
23522609 53 18053629647604115340
23559900 14 18115598036961419761
23566358 27 18198334053072794829
23598288 3 17987243402823454061
312425 83 12103027667597794904
3472631 163 10375335317706302955
351380 3 18344144804506502242
441001 317 10375870770793259114
46194498 28 14476379505894762870
463206 1 18271520914714822858
484985 159 18336276686598196327
5104073 3 18041284288075713536
5486654 36 18336823104884443235
559249 180 18411138061035157097
5924683 9 16878238458751551159
602551 16 18113337496846685862
7970288 3 18272373018614333778
9981440 41 15069170303809798097

> <PUBCHEM_SHAPE_MULTIPOLES>
478.08
12.97
2.88
1.47
16.39
0.95
0
7.21
-2.56
-2.48
0.9
-0.45
-0.06
-1.77

> <PUBCHEM_SHAPE_SELFOVERLAP>
1029.995

> <PUBCHEM_SHAPE_VOLUME>
261.3

> <PUBCHEM_COORDINATE_TYPE>
2
5
10

$$$$

