34280
  -OEChem-07051213133D

 43 44  0     0  0  0  0  0  0999 V2000
   -1.1523    2.7645   -0.2019 O   0  0  0  0  0  0  0  0  0  0  0  0
    1.7181   -2.5414    0.7316 O   0  0  0  0  0  0  0  0  0  0  0  0
   -0.2708   -3.5376    0.2103 O   0  0  0  0  0  0  0  0  0  0  0  0
   -1.6921    0.5730    0.1008 N   0  0  0  0  0  0  0  0  0  0  0  0
    0.1434    1.4541    1.2317 N   0  0  0  0  0  0  0  0  0  0  0  0
   -2.3296   -1.5719   -0.1613 N   0  0  0  0  0  0  0  0  0  0  0  0
   -0.0613   -1.2043    0.3903 N   0  0  0  0  0  0  0  0  0  0  0  0
    7.1736    0.2176   -1.9338 N   0  0  0  0  0  0  0  0  0  0  0  0
    2.2934    2.5420    0.6889 C   0  0  0  0  0  0  0  0  0  0  0  0
    3.0953    1.2364    0.6869 C   0  0  0  0  0  0  0  0  0  0  0  0
    1.0826    2.4848    1.6146 C   0  0  0  0  0  0  0  0  0  0  0  0
    4.2951    1.3259   -0.2633 C   0  0  0  0  0  0  0  0  0  0  0  0
   -3.0524    0.5848   -0.2162 C   0  0  0  0  0  0  0  0  0  0  0  0
   -0.8902    1.7058    0.3510 C   0  0  0  0  0  0  0  0  0  0  0  0
   -3.4045   -0.7561   -0.3706 C   0  0  0  0  0  0  0  0  0  0  0  0
   -1.3347   -0.7628    0.1170 C   0  0  0  0  0  0  0  0  0  0  0  0
    5.1087    0.0320   -0.3166 C   0  0  0  0  0  0  0  0  0  0  0  0
   -3.9954    1.6114   -0.3839 C   0  0  0  0  0  0  0  0  0  0  0  0
   -4.7273   -1.1024   -0.6998 C   0  0  0  0  0  0  0  0  0  0  0  0
   -5.3074    1.2504   -0.7112 C   0  0  0  0  0  0  0  0  0  0  0  0
   -5.6700   -0.0848   -0.8671 C   0  0  0  0  0  0  0  0  0  0  0  0
    6.2622    0.1365   -1.2204 C   0  0  0  0  0  0  0  0  0  0  0  0
    0.3837   -2.5240    0.4204 C   0  0  0  0  0  0  0  0  0  0  0  0
    2.3317   -3.8338    0.8025 C   0  0  0  0  0  0  0  0  0  0  0  0
    2.9419    3.3679    1.0050 H   0  0  0  0  0  0  0  0  0  0  0  0
    1.9622    2.7657   -0.3327 H   0  0  0  0  0  0  0  0  0  0  0  0
    3.4435    1.0133    1.7023 H   0  0  0  0  0  0  0  0  0  0  0  0
    2.4678    0.4022    0.3661 H   0  0  0  0  0  0  0  0  0  0  0  0
    0.5710    3.4536    1.6148 H   0  0  0  0  0  0  0  0  0  0  0  0
    1.3978    2.2721    2.6418 H   0  0  0  0  0  0  0  0  0  0  0  0
    4.9446    2.1533    0.0506 H   0  0  0  0  0  0  0  0  0  0  0  0
    3.9418    1.5742   -1.2728 H   0  0  0  0  0  0  0  0  0  0  0  0
    0.1561    0.6009    1.7806 H   0  0  0  0  0  0  0  0  0  0  0  0
    4.4649   -0.7926   -0.6445 H   0  0  0  0  0  0  0  0  0  0  0  0
    5.4603   -0.2211    0.6904 H   0  0  0  0  0  0  0  0  0  0  0  0
   -3.7310    2.6560   -0.2608 H   0  0  0  0  0  0  0  0  0  0  0  0
   -5.0157   -2.1419   -0.8227 H   0  0  0  0  0  0  0  0  0  0  0  0
   -6.0558    2.0277   -0.8444 H   0  0  0  0  0  0  0  0  0  0  0  0
   -6.6954   -0.3393   -1.1211 H   0  0  0  0  0  0  0  0  0  0  0  0
    0.6544   -0.5019    0.5190 H   0  0  0  0  0  0  0  0  0  0  0  0
    3.3868   -3.6946    1.0522 H   0  0  0  0  0  0  0  0  0  0  0  0
    2.2636   -4.3387   -0.1657 H   0  0  0  0  0  0  0  0  0  0  0  0
    1.8607   -4.4334    1.5872 H   0  0  0  0  0  0  0  0  0  0  0  0
  1 14  2  0  0  0  0
  2 23  1  0  0  0  0
  2 24  1  0  0  0  0
  3 23  2  0  0  0  0
  4 13  1  0  0  0  0
  4 14  1  0  0  0  0
  4 16  1  0  0  0  0
  5 11  1  0  0  0  0
  5 14  1  0  0  0  0
  5 33  1  0  0  0  0
  6 15  1  0  0  0  0
  6 16  2  0  0  0  0
  7 16  1  0  0  0  0
  7 23  1  0  0  0  0
  7 40  1  0  0  0  0
  8 22  3  0  0  0  0
  9 10  1  0  0  0  0
  9 11  1  0  0  0  0
  9 25  1  0  0  0  0
  9 26  1  0  0  0  0
 10 12  1  0  0  0  0
 10 27  1  0  0  0  0
 10 28  1  0  0  0  0
 11 29  1  0  0  0  0
 11 30  1  0  0  0  0
 12 17  1  0  0  0  0
 12 31  1  0  0  0  0
 12 32  1  0  0  0  0
 13 15  1  0  0  0  0
 13 18  2  0  0  0  0
 15 19  2  0  0  0  0
 17 22  1  0  0  0  0
 17 34  1  0  0  0  0
 17 35  1  0  0  0  0
 18 20  1  0  0  0  0
 18 36  1  0  0  0  0
 19 21  1  0  0  0  0
 19 37  1  0  0  0  0
 20 21  2  0  0  0  0
 20 38  1  0  0  0  0
 21 39  1  0  0  0  0
 24 41  1  0  0  0  0
 24 42  1  0  0  0  0
 24 43  1  0  0  0  0
M  END
> <PUBCHEM_COMPOUND_CID>
34280

> <PUBCHEM_CONFORMER_RMSD>
1

> <PUBCHEM_CONFORMER_DIVERSEORDER>
4
148
250
85
191
160
60
176
240
86
153
93
76
117
110
235
104
213
209
82
242
102
103
95
227
64
244
124
130
68
225
200
125
149
248
143
46
202
21
206
114
150
245
147
175
83
163
48
157
168
182
94
65
80
113
100
137
36
236
74
230
187
173
84
197
120
184
231
177
3
96
212
39
81
237
205
204
249
193
28
89
42
116
251
111
170
99
78
222
232
154
71
195
11
233
109
87
156
92
192
129
91
77
122
121
158
190
9
6
159
178
155
136
43
123
218
238
179
214
146
142
98
32
67
199
7
224
144
115
180
24
201
145
119
198
1
106
210
138
118
18
139
61
126
239
35
31
229
132
112
34
216
165
133
22
217
88
56
189
220
207
219
185
72
164
194
167
247
2
107
174
131
234
33
171
37
20
181
161
135
151
16
169
101
15
13
188
41
172
208
5
152
215
23
223
90
141
203
52
51
134
162
29
241
54
50
166
26
73
183
243
17
226
228
14
27
62
58
128
108
211
40
97
69
19
38
25
12
30
253
8
105
47
79
45
186
55
140
10
44
66
59
70
252
63
75
196
49
127
246
221
57
53

> <PUBCHEM_MMFF94_PARTIAL_CHARGES>
27
1 -0.57
11 0.3
13 -0.15
14 0.64
15 0.23
16 0.25
17 0.2
18 -0.15
19 -0.15
2 -0.43
20 -0.15
21 -0.15
22 0.36
23 0.78
24 0.28
3 -0.57
33 0.37
36 0.15
37 0.15
38 0.15
39 0.15
4 0.29
40 0.37
5 -0.73
6 -0.57
7 -0.49
8 -0.56

> <PUBCHEM_EFFECTIVE_ROTOR_COUNT>
10

> <PUBCHEM_PHARMACOPHORE_FEATURES>
8
1 1 acceptor
1 3 acceptor
1 5 donor
1 7 donor
1 8 acceptor
4 9 10 12 17 hydrophobe
5 4 6 13 15 16 rings
6 13 15 18 19 20 21 rings

> <PUBCHEM_HEAVY_ATOM_COUNT>
24

> <PUBCHEM_ATOM_DEF_STEREO_COUNT>
0

> <PUBCHEM_ATOM_UDEF_STEREO_COUNT>
0

> <PUBCHEM_BOND_DEF_STEREO_COUNT>
0

> <PUBCHEM_BOND_UDEF_STEREO_COUNT>
0

> <PUBCHEM_ISOTOPIC_ATOM_COUNT>
0

> <PUBCHEM_COMPONENT_COUNT>
1

> <PUBCHEM_CACTVS_TAUTO_COUNT>
6

> <PUBCHEM_CONFORMER_ID>
000085E800000004

> <PUBCHEM_MMFF94_ENERGY>
43.2198

> <PUBCHEM_FEATURE_SELFOVERLAP>
40.702

> <PUBCHEM_SHAPE_FINGERPRINT>
10693767 8 17968393263934274831
11458722 379 18409166597704944368
11578080 2 17629776814299665333
12954195 1 18114177583723368169
13402501 40 18260827073397306012
13544592 145 18261959531287095664
138480 1 18193008229443448899
14931854 50 18337099155897760014
15183329 4 18411135853311573900
17492 54 18343299280133171490
19591789 44 18266186024077387363
20465049 17 18410293571321995154
20832881 197 17894909594593395689
21133410 230 17771876407966854354
21279426 13 18334018271901878405
21781051 124 18129941165997908939
22393880 68 18261968361981949173
23366157 5 18201453518438006083
23559900 14 18189338983296438056
3004659 81 18411136918817105524
3298306 158 18409457968006736591
474144 1 18059307564620706746
5265222 85 18199176296829180948
6138700 20 18334856134559286484
9709674 26 17974011643824395296

> <PUBCHEM_SHAPE_MULTIPOLES>
451.4
13.16
3.81
1.17
10.8
3.01
0.12
-2.39
8.9
1.67
-1.56
1.46
-0.28
-0.05

> <PUBCHEM_SHAPE_SELFOVERLAP>
937.194

> <PUBCHEM_SHAPE_VOLUME>
255

> <PUBCHEM_COORDINATE_TYPE>
2
5
10

$$$$

