71203
  -OEChem-07051212563D

 44 48  0     1  0  0  0  0  0999 V2000
   -0.5277   -3.1329    0.0847 O   0  0  0  0  0  0  0  0  0  0  0  0
    1.7874    1.8888   -0.2801 N   0  0  2  0  0  0  0  0  0  0  0  0
   -0.6673   -0.8856   -0.2304 N   0  0  0  0  0  0  0  0  0  0  0  0
    2.2030   -0.6263   -0.1520 C   0  0  1  0  0  0  0  0  0  0  0  0
    1.3644    0.5373   -0.7319 C   0  0  1  0  0  0  0  0  0  0  0  0
    2.3525   -0.4804    1.3804 C   0  0  0  0  0  0  0  0  0  0  0  0
   -0.0889    0.3319   -0.4644 C   0  0  0  0  0  0  0  0  0  0  0  0
    1.5213   -1.9718   -0.5076 C   0  0  0  0  0  0  0  0  0  0  0  0
    3.6066   -0.6283   -0.8035 C   0  0  0  0  0  0  0  0  0  0  0  0
    2.8201    0.9199    1.7730 C   0  0  0  0  0  0  0  0  0  0  0  0
    1.9158    1.9999    1.1810 C   0  0  0  0  0  0  0  0  0  0  0  0
    0.8702    2.9255   -0.8236 C   0  0  0  0  0  0  0  0  0  0  0  0
   -1.0206    1.3330   -0.3583 C   0  0  0  0  0  0  0  0  0  0  0  0
   -0.6264    2.7685   -0.4373 C   0  0  0  0  0  0  0  0  0  0  0  0
    0.0492   -2.0854   -0.1658 C   0  0  0  0  0  0  0  0  0  0  0  0
   -2.2681    0.7104   -0.1102 C   0  0  0  0  0  0  0  0  0  0  0  0
   -2.0344   -0.6755   -0.0391 C   0  0  0  0  0  0  0  0  0  0  0  0
    4.4079   -1.7943   -0.3018 C   0  0  0  0  0  0  0  0  0  0  0  0
   -3.5771    1.1997    0.0811 C   0  0  0  0  0  0  0  0  0  0  0  0
   -3.0886   -1.5745    0.2041 C   0  0  0  0  0  0  0  0  0  0  0  0
   -4.6212    0.3037    0.3217 C   0  0  0  0  0  0  0  0  0  0  0  0
   -4.3783   -1.0634    0.3799 C   0  0  0  0  0  0  0  0  0  0  0  0
    1.4803    0.5161   -1.8261 H   0  0  0  0  0  0  0  0  0  0  0  0
    3.0011   -1.2354    1.8309 H   0  0  0  0  0  0  0  0  0  0  0  0
    1.3768   -0.6442    1.8582 H   0  0  0  0  0  0  0  0  0  0  0  0
    1.9971   -2.7994    0.0309 H   0  0  0  0  0  0  0  0  0  0  0  0
    1.6068   -2.1748   -1.5830 H   0  0  0  0  0  0  0  0  0  0  0  0
    4.1477    0.3041   -0.6107 H   0  0  0  0  0  0  0  0  0  0  0  0
    3.5154   -0.7038   -1.8947 H   0  0  0  0  0  0  0  0  0  0  0  0
    2.8156    1.0075    2.8661 H   0  0  0  0  0  0  0  0  0  0  0  0
    3.8567    1.0815    1.4569 H   0  0  0  0  0  0  0  0  0  0  0  0
    0.9414    1.9470    1.6815 H   0  0  0  0  0  0  0  0  0  0  0  0
    2.3444    2.9781    1.4307 H   0  0  0  0  0  0  0  0  0  0  0  0
    0.9501    2.8964   -1.9190 H   0  0  0  0  0  0  0  0  0  0  0  0
    1.2191    3.9253   -0.5368 H   0  0  0  0  0  0  0  0  0  0  0  0
   -1.2504    3.2954   -1.1677 H   0  0  0  0  0  0  0  0  0  0  0  0
   -0.7984    3.2334    0.5410 H   0  0  0  0  0  0  0  0  0  0  0  0
    4.6261   -1.7612    0.7672 H   0  0  0  0  0  0  0  0  0  0  0  0
    3.9858   -2.7690   -0.5567 H   0  0  0  0  0  0  0  0  0  0  0  0
    5.3889   -1.7714   -0.7939 H   0  0  0  0  0  0  0  0  0  0  0  0
   -3.7799    2.2664    0.0398 H   0  0  0  0  0  0  0  0  0  0  0  0
   -2.9270   -2.6455    0.2587 H   0  0  0  0  0  0  0  0  0  0  0  0
   -5.6303    0.6802    0.4651 H   0  0  0  0  0  0  0  0  0  0  0  0
   -5.2018   -1.7475    0.5682 H   0  0  0  0  0  0  0  0  0  0  0  0
  1 15  2  0  0  0  0
  2  5  1  0  0  0  0
  2 11  1  0  0  0  0
  2 12  1  0  0  0  0
  3  7  1  0  0  0  0
  3 15  1  0  0  0  0
  3 17  1  0  0  0  0
  4  5  1  0  0  0  0
  4  6  1  0  0  0  0
  4  8  1  0  0  0  0
  4  9  1  0  0  0  0
  5  7  1  0  0  0  0
  5 23  1  0  0  0  0
  6 10  1  0  0  0  0
  6 24  1  0  0  0  0
  6 25  1  0  0  0  0
  7 13  2  0  0  0  0
  8 15  1  0  0  0  0
  8 26  1  0  0  0  0
  8 27  1  0  0  0  0
  9 18  1  0  0  0  0
  9 28  1  0  0  0  0
  9 29  1  0  0  0  0
 10 11  1  0  0  0  0
 10 30  1  0  0  0  0
 10 31  1  0  0  0  0
 11 32  1  0  0  0  0
 11 33  1  0  0  0  0
 12 14  1  0  0  0  0
 12 34  1  0  0  0  0
 12 35  1  0  0  0  0
 13 14  1  0  0  0  0
 13 16  1  0  0  0  0
 14 36  1  0  0  0  0
 14 37  1  0  0  0  0
 16 17  1  0  0  0  0
 16 19  2  0  0  0  0
 17 20  2  0  0  0  0
 18 38  1  0  0  0  0
 18 39  1  0  0  0  0
 18 40  1  0  0  0  0
 19 21  1  0  0  0  0
 19 41  1  0  0  0  0
 20 22  1  0  0  0  0
 20 42  1  0  0  0  0
 21 22  2  0  0  0  0
 21 43  1  0  0  0  0
 22 44  1  0  0  0  0
M  END
> <PUBCHEM_COMPOUND_CID>
71203

> <PUBCHEM_CONFORMER_RMSD>
0.6

> <PUBCHEM_CONFORMER_DIVERSEORDER>
1

> <PUBCHEM_MMFF94_PARTIAL_CHARGES>
20
1 -0.57
11 0.27
12 0.27
13 -0.18
14 0.18
15 0.52
17 -0.15
19 -0.15
2 -0.81
20 -0.15
21 -0.15
22 -0.15
3 0.29
41 0.15
42 0.15
43 0.15
44 0.15
5 0.45
7 -0.33
8 0.06

> <PUBCHEM_EFFECTIVE_ROTOR_COUNT>
2.2

> <PUBCHEM_PHARMACOPHORE_FEATURES>
8
1 1 acceptor
1 18 hydrophobe
1 2 cation
5 3 7 13 16 17 rings
6 16 17 19 20 21 22 rings
6 2 4 5 6 10 11 rings
6 2 5 7 12 13 14 rings
6 3 4 5 7 8 15 rings

> <PUBCHEM_HEAVY_ATOM_COUNT>
22

> <PUBCHEM_ATOM_DEF_STEREO_COUNT>
2

> <PUBCHEM_ATOM_UDEF_STEREO_COUNT>
0

> <PUBCHEM_BOND_DEF_STEREO_COUNT>
0

> <PUBCHEM_BOND_UDEF_STEREO_COUNT>
0

> <PUBCHEM_ISOTOPIC_ATOM_COUNT>
0

> <PUBCHEM_COMPONENT_COUNT>
1

> <PUBCHEM_CACTVS_TAUTO_COUNT>
1

> <PUBCHEM_CONFORMER_ID>
0001162300000001

> <PUBCHEM_MMFF94_ENERGY>
58.8014

> <PUBCHEM_FEATURE_SELFOVERLAP>
41.05

> <PUBCHEM_SHAPE_FINGERPRINT>
10863032 1 18114744824132093224
10967382 1 18267580213400623421
11132069 177 18411707569261169139
11640471 11 13841419207354636434
11680986 33 18267017250245990355
12011746 2 18338517555128937975
12035758 1 18187940482126113426
12236239 1 17489299850197164862
12403259 226 18336551624133307566
12553582 1 18271530887443845259
12714826 92 17560527299633344373
13140716 1 18410290311594713737
13172582 1 18340778048040722077
13224815 77 18261681385241848407
13583140 156 17058673784547491827
14178342 30 17832157021548056978
14790565 3 18340190947645113852
15196674 1 18411414016393375503
15209289 33 18334291019573368482
15536298 74 18261672593058723549
1601671 61 18337946908567592295
16945 1 18268158728041329245
17349148 13 18338251383806420567
17357779 13 18265346168644376925
17492 54 17986646261062326532
17492 89 18194962942344016035
17804303 29 18336543905960791814
1813 80 17632581547839163540
19591789 44 18411416249892745254
20028762 73 18188770544612514447
20510252 161 18192148424578106566
20511035 2 18042965363876528694
20645477 70 18199753544728411917
20691752 17 17988650653221118067
20739085 24 18198600234177372897
20905425 154 17977665642927910102
21033648 29 17967829265976723521
21267235 1 18339629110420238967
21421861 104 17555166218327698635
21756936 100 16812944880165946240
221490 88 18198891531580408419
22149856 69 18117262681261976219
22182313 1 18340788003875641492
23175994 123 17386283320072031166
23184049 59 18409455760578013361
2334 1 18339362946706292725
23402539 116 18336831982550643838
23419403 2 16530675037460728093
23558518 356 17264123961484138636
23559900 14 18410291393699761877
2748010 2 18339654390038437869
3286 77 17676206879030769026
335352 9 18339919424497427173
350125 39 18410004455545931477
484989 97 17045980283682960589
5104073 3 18336818707339105547
5939293 188 18411982416671241117
7364860 26 18337667490975623268
9709674 26 18197775505998642699

> <PUBCHEM_SHAPE_MULTIPOLES>
436.92
7.01
3.06
1.06
3.68
0.48
-0.37
-2.25
-0.95
-0.64
0.37
-0.89
0.32
0.66

> <PUBCHEM_SHAPE_SELFOVERLAP>
979.73

> <PUBCHEM_SHAPE_VOLUME>
229.4

> <PUBCHEM_COORDINATE_TYPE>
2
5
10

$$$$

