254631
  -OEChem-07051213073D

 59 62  0     1  0  0  0  0  0999 V2000
   -3.2728   -0.1015    1.8632 O   0  0  0  0  0  0  0  0  0  0  0  0
    0.4709    2.5503   -0.7558 O   0  0  0  0  0  0  0  0  0  0  0  0
   -5.7735    0.0345    0.6899 O   0  0  0  0  0  0  0  0  0  0  0  0
    4.7936    0.4882    2.4393 O   0  0  0  0  0  0  0  0  0  0  0  0
   -1.2001   -1.0625    0.1213 C   0  0  2  0  0  0  0  0  0  0  0  0
   -2.0626    0.1648   -0.2603 C   0  0  1  0  0  0  0  0  0  0  0  0
    0.1861   -1.0488   -0.5378 C   0  0  1  0  0  0  0  0  0  0  0  0
    0.9495    0.2345   -0.1100 C   0  0  1  0  0  0  0  0  0  0  0  0
    2.3857    0.3285   -0.7439 C   0  0  2  0  0  0  0  0  0  0  0  0
   -3.3987   -0.2220    0.4396 C   0  0  1  0  0  0  0  0  0  0  0  0
    3.1814   -1.0083   -0.5115 C   0  0  2  0  0  0  0  0  0  0  0  0
   -2.1186   -2.2506   -0.1592 C   0  0  0  0  0  0  0  0  0  0  0  0
    0.9952   -2.2914   -0.1532 C   0  0  0  0  0  0  0  0  0  0  0  0
   -1.3541    1.4129    0.2758 C   0  0  0  0  0  0  0  0  0  0  0  0
   -3.5411   -1.7313    0.1304 C   0  0  0  0  0  0  0  0  0  0  0  0
    2.3660   -2.2747   -0.8113 C   0  0  0  0  0  0  0  0  0  0  0  0
    0.0610    1.4900   -0.2849 C   0  0  0  0  0  0  0  0  0  0  0  0
    3.1538    1.5251   -0.0873 C   0  0  0  0  0  0  0  0  0  0  0  0
   -2.2678    0.3267   -1.7909 C   0  0  0  0  0  0  0  0  0  0  0  0
    3.7869   -1.0441    0.8999 C   0  0  0  0  0  0  0  0  0  0  0  0
    2.3133    0.5639   -2.2735 C   0  0  0  0  0  0  0  0  0  0  0  0
   -4.6348    0.5709    0.0265 C   0  0  2  0  0  0  0  0  0  0  0  0
    4.6380    1.2461    0.1421 C   0  0  0  0  0  0  0  0  0  0  0  0
    4.8408    0.0542    1.0813 C   0  0  1  0  0  0  0  0  0  0  0  0
   -4.4982    2.0444    0.3701 C   0  0  0  0  0  0  0  0  0  0  0  0
   -1.0304   -1.0525    1.2103 H   0  0  0  0  0  0  0  0  0  0  0  0
    0.0579   -1.0603   -1.6257 H   0  0  0  0  0  0  0  0  0  0  0  0
    1.0885    0.1731    0.9807 H   0  0  0  0  0  0  0  0  0  0  0  0
    4.0310   -1.0380   -1.2100 H   0  0  0  0  0  0  0  0  0  0  0  0
   -1.8750   -3.1081    0.4768 H   0  0  0  0  0  0  0  0  0  0  0  0
   -2.0415   -2.5811   -1.2013 H   0  0  0  0  0  0  0  0  0  0  0  0
    0.4687   -3.1993   -0.4698 H   0  0  0  0  0  0  0  0  0  0  0  0
    1.1037   -2.3549    0.9364 H   0  0  0  0  0  0  0  0  0  0  0  0
   -1.2708    1.4074    1.3682 H   0  0  0  0  0  0  0  0  0  0  0  0
   -1.8621    2.3352   -0.0113 H   0  0  0  0  0  0  0  0  0  0  0  0
   -4.1655   -1.9078   -0.7533 H   0  0  0  0  0  0  0  0  0  0  0  0
   -3.9817   -2.2881    0.9651 H   0  0  0  0  0  0  0  0  0  0  0  0
    2.9274   -3.1652   -0.5034 H   0  0  0  0  0  0  0  0  0  0  0  0
    2.2348   -2.3668   -1.8969 H   0  0  0  0  0  0  0  0  0  0  0  0
    2.7059    1.7813    0.8813 H   0  0  0  0  0  0  0  0  0  0  0  0
    3.0613    2.4258   -0.7065 H   0  0  0  0  0  0  0  0  0  0  0  0
   -2.7693   -0.5358   -2.2402 H   0  0  0  0  0  0  0  0  0  0  0  0
   -2.8714    1.2114   -2.0186 H   0  0  0  0  0  0  0  0  0  0  0  0
   -1.3240    0.4617   -2.3280 H   0  0  0  0  0  0  0  0  0  0  0  0
    3.0015   -0.9630    1.6609 H   0  0  0  0  0  0  0  0  0  0  0  0
    4.2679   -2.0136    1.0829 H   0  0  0  0  0  0  0  0  0  0  0  0
    1.7978   -0.2477   -2.7945 H   0  0  0  0  0  0  0  0  0  0  0  0
    1.7956    1.4928   -2.5279 H   0  0  0  0  0  0  0  0  0  0  0  0
    3.3197    0.6362   -2.7024 H   0  0  0  0  0  0  0  0  0  0  0  0
   -4.8377    0.4669   -1.0439 H   0  0  0  0  0  0  0  0  0  0  0  0
    5.1184    1.0463   -0.8233 H   0  0  0  0  0  0  0  0  0  0  0  0
    5.1133    2.1410    0.5607 H   0  0  0  0  0  0  0  0  0  0  0  0
    5.8429   -0.3573    0.9172 H   0  0  0  0  0  0  0  0  0  0  0  0
   -4.0469   -0.5179    2.2775 H   0  0  0  0  0  0  0  0  0  0  0  0
   -3.8779    2.5786   -0.3511 H   0  0  0  0  0  0  0  0  0  0  0  0
   -5.4850    2.5226    0.3465 H   0  0  0  0  0  0  0  0  0  0  0  0
   -4.1093    2.2112    1.3795 H   0  0  0  0  0  0  0  0  0  0  0  0
   -5.7474    0.3177    1.6195 H   0  0  0  0  0  0  0  0  0  0  0  0
    3.9271    0.8998    2.5964 H   0  0  0  0  0  0  0  0  0  0  0  0
  1 10  1  0  0  0  0
  1 54  1  0  0  0  0
  2 17  2  0  0  0  0
  3 22  1  0  0  0  0
  3 58  1  0  0  0  0
  4 24  1  0  0  0  0
  4 59  1  0  0  0  0
  5  6  1  0  0  0  0
  5  7  1  0  0  0  0
  5 12  1  0  0  0  0
  5 26  1  0  0  0  0
  6 10  1  0  0  0  0
  6 14  1  0  0  0  0
  6 19  1  0  0  0  0
  7  8  1  0  0  0  0
  7 13  1  0  0  0  0
  7 27  1  0  0  0  0
  8  9  1  0  0  0  0
  8 17  1  0  0  0  0
  8 28  1  0  0  0  0
  9 11  1  0  0  0  0
  9 18  1  0  0  0  0
  9 21  1  0  0  0  0
 10 15  1  0  0  0  0
 10 22  1  0  0  0  0
 11 16  1  0  0  0  0
 11 20  1  0  0  0  0
 11 29  1  0  0  0  0
 12 15  1  0  0  0  0
 12 30  1  0  0  0  0
 12 31  1  0  0  0  0
 13 16  1  0  0  0  0
 13 32  1  0  0  0  0
 13 33  1  0  0  0  0
 14 17  1  0  0  0  0
 14 34  1  0  0  0  0
 14 35  1  0  0  0  0
 15 36  1  0  0  0  0
 15 37  1  0  0  0  0
 16 38  1  0  0  0  0
 16 39  1  0  0  0  0
 18 23  1  0  0  0  0
 18 40  1  0  0  0  0
 18 41  1  0  0  0  0
 19 42  1  0  0  0  0
 19 43  1  0  0  0  0
 19 44  1  0  0  0  0
 20 24  1  0  0  0  0
 20 45  1  0  0  0  0
 20 46  1  0  0  0  0
 21 47  1  0  0  0  0
 21 48  1  0  0  0  0
 21 49  1  0  0  0  0
 22 25  1  0  0  0  0
 22 50  1  0  0  0  0
 23 24  1  0  0  0  0
 23 51  1  0  0  0  0
 23 52  1  0  0  0  0
 24 53  1  0  0  0  0
 25 55  1  0  0  0  0
 25 56  1  0  0  0  0
 25 57  1  0  0  0  0
M  END
> <PUBCHEM_COMPOUND_CID>
254631

> <PUBCHEM_CONFORMER_RMSD>
0.6

> <PUBCHEM_CONFORMER_DIVERSEORDER>
1
4
3
2

> <PUBCHEM_MMFF94_PARTIAL_CHARGES>
13
1 -0.68
10 0.28
14 0.06
17 0.45
2 -0.57
22 0.28
24 0.28
3 -0.68
4 -0.68
54 0.4
58 0.4
59 0.4
8 0.06

> <PUBCHEM_EFFECTIVE_ROTOR_COUNT>
3

> <PUBCHEM_PHARMACOPHORE_FEATURES>
11
1 1 acceptor
1 1 donor
1 2 acceptor
1 3 acceptor
1 3 donor
1 4 acceptor
1 4 donor
5 5 6 10 12 15 rings
6 5 6 7 8 14 17 rings
6 7 8 9 11 13 16 rings
6 9 11 18 20 23 24 rings

> <PUBCHEM_HEAVY_ATOM_COUNT>
25

> <PUBCHEM_ATOM_DEF_STEREO_COUNT>
9

> <PUBCHEM_ATOM_UDEF_STEREO_COUNT>
0

> <PUBCHEM_BOND_DEF_STEREO_COUNT>
0

> <PUBCHEM_BOND_UDEF_STEREO_COUNT>
0

> <PUBCHEM_ISOTOPIC_ATOM_COUNT>
0

> <PUBCHEM_COMPONENT_COUNT>
1

> <PUBCHEM_CACTVS_TAUTO_COUNT>
3

> <PUBCHEM_CONFORMER_ID>
0003E2A700000001

> <PUBCHEM_MMFF94_ENERGY>
99.8055

> <PUBCHEM_FEATURE_SELFOVERLAP>
55.934

> <PUBCHEM_SHAPE_FINGERPRINT>
10062212 137 18270685264128439783
10967382 1 18410848893250000887
11112241 14 17169294570795870680
11132069 177 18410853261152638943
11796584 16 16272204206293292066
11961588 58 5472841689266930730
12236239 1 17917709072639722564
12403814 3 17775005678720718039
12422481 6 18270969075482768680
12553582 1 18339909455287476293
12596602 18 17240482516167450067
12633257 1 18060419092691055506
13140716 1 18266458698423443729
13224815 77 18334855009014299158
13533116 47 17822285850935657095
13583140 156 17531252720918337011
13675066 3 18201433688136085259
14081887 123 18187086156626184488
14178342 30 18336266738873624463
14223421 5 18265899244990035414
14341114 328 18202289082845214826
14790565 3 18123743154865580212
15142383 8 16128385916474369541
15196674 1 18410008823306015079
15238133 3 18201146754462001285
15375358 24 18335420179460355839
15536298 74 18261105317983772470
15788980 27 17060064739290940277
1601671 61 18408880720545069300
16945 1 18337379487595420623
17349148 13 18341336621343321710
17980427 23 18270126695421254828
1813 80 17060334145441263116
19784866 170 18409165515431155998
20511986 3 18042423437961938495
20715895 44 18198912607148726869
20775438 99 11237142297949019889
20775530 9 15265404584946646234
21267235 1 18338783607126333127
21421861 104 17987243398892224282
21452121 103 18261395597949355906
21756936 100 17679880211043320472
21859007 373 17487351567011353061
22149856 69 18190999323812196531
22182313 1 18198346353879554397
23366157 5 17699846224415126372
23402539 116 18335710416096581918
23503953 91 18412265016876246026
23557571 272 17968649402898847454
23559900 14 18260537953389319254
2748010 2 18124027094451216831
2838139 119 15575576626606760760
296302 2 16950285095947929422
3004659 81 17988915686968003036
335352 9 18338793536842555223
34797466 226 15502374483096513785
34934 24 18407760339470716071
350125 39 18264203776854271566
3680242 22 18270962461222544802
394222 165 17414977081775148788
4072396 5 18341619225827839779
4340502 62 18260827103282839179
474 4 18040153981411163880
495365 180 17531245097398963454
5104073 3 18342173341154918251
6004065 56 18189351099652004405
653340 110 18121218946239637993
6786 2 13537621889721659902
7064713 232 18335145280242073322
9709674 26 18409158922377256215
9777508 108 17834114525776635032

> <PUBCHEM_SHAPE_MULTIPOLES>
491.01
10.2
2.32
1.45
2.15
0.38
0.01
-2.01
4.18
0.14
-0.25
-1.08
-0.22
0.11

> <PUBCHEM_SHAPE_SELFOVERLAP>
1046.441

> <PUBCHEM_SHAPE_VOLUME>
271

> <PUBCHEM_COORDINATE_TYPE>
2
5
10

$$$$

