119066
  -OEChem-07051212573D

 45 47  0     1  0  0  0  0  0999 V2000
   -3.2472    1.0577   -0.2028 O   0  0  0  0  0  0  0  0  0  0  0  0
   -5.0101   -0.1466    1.6438 O   0  0  0  0  0  0  0  0  0  0  0  0
    1.5285    1.7707   -0.1607 O   0  0  0  0  0  0  0  0  0  0  0  0
    3.7932    2.0517   -0.1407 O   0  0  0  0  0  0  0  0  0  0  0  0
   -3.9920   -0.1449   -0.5304 C   0  0  2  0  0  0  0  0  0  0  0  0
   -5.3005   -0.1400    0.2429 C   0  0  0  0  0  0  0  0  0  0  0  0
   -3.1220   -1.3696   -0.2083 C   0  0  0  0  0  0  0  0  0  0  0  0
   -1.7882   -0.7287   -0.2468 C   0  0  0  0  0  0  0  0  0  0  0  0
   -1.9379    0.6507   -0.2160 C   0  0  0  0  0  0  0  0  0  0  0  0
   -6.1377   -1.3806   -0.0793 C   0  0  0  0  0  0  0  0  0  0  0  0
   -6.1012    1.1308   -0.0486 C   0  0  0  0  0  0  0  0  0  0  0  0
   -0.5319   -1.3132   -0.2463 C   0  0  0  0  0  0  0  0  0  0  0  0
    0.5888   -0.4748   -0.2236 C   0  0  0  0  0  0  0  0  0  0  0  0
   -0.8534    1.5029   -0.1805 C   0  0  0  0  0  0  0  0  0  0  0  0
    4.4124   -0.7054   -0.1989 C   0  0  0  0  0  0  0  0  0  0  0  0
    0.4104    0.9130   -0.1899 C   0  0  0  0  0  0  0  0  0  0  0  0
    3.0061   -0.1877   -0.1983 C   0  0  0  0  0  0  0  0  0  0  0  0
    1.9433   -1.0028   -0.2252 C   0  0  0  0  0  0  0  0  0  0  0  0
    2.8338    1.2875   -0.1647 C   0  0  0  0  0  0  0  0  0  0  0  0
    4.3783   -2.2459   -0.2561 C   0  0  0  0  0  0  0  0  0  0  0  0
    5.1370   -0.1832   -1.4554 C   0  0  0  0  0  0  0  0  0  0  0  0
    5.2219   -0.2919    1.0245 C   0  0  0  0  0  0  0  0  0  0  0  0
    4.7683   -0.0497    2.2616 C   0  0  0  0  0  0  0  0  0  0  0  0
   -4.1913   -0.1075   -1.6116 H   0  0  0  0  0  0  0  0  0  0  0  0
   -3.2405   -2.1549   -0.9605 H   0  0  0  0  0  0  0  0  0  0  0  0
   -3.2974   -1.7848    0.7890 H   0  0  0  0  0  0  0  0  0  0  0  0
   -7.0925   -1.3547    0.4590 H   0  0  0  0  0  0  0  0  0  0  0  0
   -6.3521   -1.4535   -1.1506 H   0  0  0  0  0  0  0  0  0  0  0  0
   -5.6391   -2.3011    0.2422 H   0  0  0  0  0  0  0  0  0  0  0  0
   -5.5680    2.0284    0.2839 H   0  0  0  0  0  0  0  0  0  0  0  0
   -7.0513    1.1265    0.4985 H   0  0  0  0  0  0  0  0  0  0  0  0
   -6.3229    1.2306   -1.1162 H   0  0  0  0  0  0  0  0  0  0  0  0
   -0.4307   -2.3941   -0.2566 H   0  0  0  0  0  0  0  0  0  0  0  0
   -0.9779    2.5791   -0.1501 H   0  0  0  0  0  0  0  0  0  0  0  0
    1.9971   -2.0836   -0.2482 H   0  0  0  0  0  0  0  0  0  0  0  0
   -5.8543   -0.1559    2.1265 H   0  0  0  0  0  0  0  0  0  0  0  0
    3.9003   -2.6968    0.6229 H   0  0  0  0  0  0  0  0  0  0  0  0
    5.4023   -2.6447   -0.2695 H   0  0  0  0  0  0  0  0  0  0  0  0
    3.9043   -2.6258   -1.1698 H   0  0  0  0  0  0  0  0  0  0  0  0
    6.0811   -0.7213   -1.6116 H   0  0  0  0  0  0  0  0  0  0  0  0
    5.4006    0.8779   -1.4045 H   0  0  0  0  0  0  0  0  0  0  0  0
    4.5333   -0.3355   -2.3588 H   0  0  0  0  0  0  0  0  0  0  0  0
    6.3023   -0.2454    0.8891 H   0  0  0  0  0  0  0  0  0  0  0  0
    5.4604    0.2097    3.0557 H   0  0  0  0  0  0  0  0  0  0  0  0
    3.7158   -0.1114    2.5128 H   0  0  0  0  0  0  0  0  0  0  0  0
  1  5  1  0  0  0  0
  1  9  1  0  0  0  0
  2  6  1  0  0  0  0
  2 36  1  0  0  0  0
  3 16  1  0  0  0  0
  3 19  1  0  0  0  0
  4 19  2  0  0  0  0
  5  6  1  0  0  0  0
  5  7  1  0  0  0  0
  5 24  1  0  0  0  0
  6 10  1  0  0  0  0
  6 11  1  0  0  0  0
  7  8  1  0  0  0  0
  7 25  1  0  0  0  0
  7 26  1  0  0  0  0
  8  9  2  0  0  0  0
  8 12  1  0  0  0  0
  9 14  1  0  0  0  0
 10 27  1  0  0  0  0
 10 28  1  0  0  0  0
 10 29  1  0  0  0  0
 11 30  1  0  0  0  0
 11 31  1  0  0  0  0
 11 32  1  0  0  0  0
 12 13  2  0  0  0  0
 12 33  1  0  0  0  0
 13 16  1  0  0  0  0
 13 18  1  0  0  0  0
 14 16  2  0  0  0  0
 14 34  1  0  0  0  0
 15 17  1  0  0  0  0
 15 20  1  0  0  0  0
 15 21  1  0  0  0  0
 15 22  1  0  0  0  0
 17 18  2  0  0  0  0
 17 19  1  0  0  0  0
 18 35  1  0  0  0  0
 20 37  1  0  0  0  0
 20 38  1  0  0  0  0
 20 39  1  0  0  0  0
 21 40  1  0  0  0  0
 21 41  1  0  0  0  0
 21 42  1  0  0  0  0
 22 23  2  0  0  0  0
 22 43  1  0  0  0  0
 23 44  1  0  0  0  0
 23 45  1  0  0  0  0
M  END
> <PUBCHEM_COMPOUND_CID>
119066

> <PUBCHEM_CONFORMER_RMSD>
0.6

> <PUBCHEM_CONFORMER_DIVERSEORDER>
1
42
14
44
19
34
31
37
32
41
6
13
30
8
43
16
35
29
3
39
5
40
23
11
33
38
2
26
28
24
36
18
25
7
12
17
15
10
21
4
20
9
22
27

> <PUBCHEM_MMFF94_PARTIAL_CHARGES>
26
1 -0.36
12 -0.15
13 0.03
14 -0.15
15 0.28
16 0.08
17 -0.12
18 -0.18
19 0.71
2 -0.68
22 -0.29
23 -0.3
3 -0.23
33 0.15
34 0.15
35 0.15
36 0.4
4 -0.57
43 0.15
44 0.15
45 0.15
5 0.28
6 0.28
7 0.14
8 -0.14
9 0.08

> <PUBCHEM_EFFECTIVE_ROTOR_COUNT>
3.6

> <PUBCHEM_PHARMACOPHORE_FEATURES>
10
1 1 acceptor
1 2 acceptor
1 2 donor
1 23 hydrophobe
1 4 acceptor
3 15 20 21 hydrophobe
3 6 10 11 hydrophobe
5 1 5 7 8 9 rings
6 3 13 16 17 18 19 rings
6 8 9 12 13 14 16 rings

> <PUBCHEM_HEAVY_ATOM_COUNT>
23

> <PUBCHEM_ATOM_DEF_STEREO_COUNT>
0

> <PUBCHEM_ATOM_UDEF_STEREO_COUNT>
1

> <PUBCHEM_BOND_DEF_STEREO_COUNT>
0

> <PUBCHEM_BOND_UDEF_STEREO_COUNT>
0

> <PUBCHEM_ISOTOPIC_ATOM_COUNT>
0

> <PUBCHEM_COMPONENT_COUNT>
1

> <PUBCHEM_CACTVS_TAUTO_COUNT>
1

> <PUBCHEM_CONFORMER_ID>
0001D11A00000001

> <PUBCHEM_MMFF94_ENERGY>
83.1466

> <PUBCHEM_FEATURE_SELFOVERLAP>
50.879

> <PUBCHEM_SHAPE_FINGERPRINT>
11578080 2 16880207602319850386
11796584 16 17203324524400412627
12107183 9 17758951915385784659
12236239 1 17632576062944061975
12403259 415 18260555545190656992
12516196 113 18041000630807372393
12596602 18 16732985314743229739
12616971 3 18411990130363595406
13140716 1 18266746783455082258
13533116 47 16877938378182443670
13675066 3 18040723571294282372
13782708 43 17704356571821065259
13862211 1 18413393133244955519
14251764 18 18341054029986408684
14341114 176 18408316700685679942
15142383 8 17632306716960400052
15183329 4 18411418427831314125
15196674 1 18410292484906109821
15475509 35 16916521310637333472
15788980 27 18273213088932027461
17349148 13 18411698789857477061
17844677 252 18341325639508091437
1813 80 17561362894063119868
19141452 34 18187087230399923447
200 152 18186239537268314407
20028762 73 18261676987032755911
20645477 70 18413389834862890750
21033648 29 18059590074304694789
21130935 74 18187083974857326395
21267235 1 18410003351575630910
21279426 13 18267587003553962725
21682296 61 18263354957566480183
21792934 111 18263375848133810097
21859007 373 17985853598714705045
23081809 10 17775283863694509415
23402539 116 18333736823380163469
23503953 91 18261682484494987378
23522609 53 18125689444427451421
23559900 14 18335983073953976020
23569943 247 17825374447639073070
239999 70 18187078456430369830
3004659 81 18272367568790717860
335352 9 18410011048135803271
3411729 13 18266466391538715264
34797466 226 14562809911298245129
350125 39 18411416241186987045
3545911 37 18261111881136847358
3680242 22 18271811267156819546
4073 2 18059007268200382371
4214541 1 18410572894968457269
4340502 62 14707203314507596901
4463277 17 18411696595271802197
465052 167 17988923375265534770
5104073 3 18339080372117591683
5374978 207 18412268320223158784
542803 24 17418371398228103535
7495541 125 17632573829608540732
8863177 126 17630873924898310963
9981440 41 17328875292034198929

> <PUBCHEM_SHAPE_MULTIPOLES>
449.85
14.8
1.76
1.11
9.46
0.08
-0.55
-2.15
-2.36
-0.57
0.21
-1.33
-0.03
0.11

> <PUBCHEM_SHAPE_SELFOVERLAP>
977.858

> <PUBCHEM_SHAPE_VOLUME>
247.6

> <PUBCHEM_COORDINATE_TYPE>
2
5
10

$$$$

