47205726
  -OEChem-06241223003D

 33 34  0     0  0  0  0  0  0999 V2000
   -3.4251   -2.9593    0.0836 F   0  0  0  0  0  0  0  0  0  0  0  0
    3.3576    0.7569    1.5700 O   0  0  0  0  0  0  0  0  0  0  0  0
    0.6614   -0.7498   -0.4349 O   0  0  0  0  0  0  0  0  0  0  0  0
    2.7824    0.8858   -0.6844 N   0  0  0  0  0  0  0  0  0  0  0  0
   -0.8458    1.0471   -0.2385 N   0  0  0  0  0  0  0  0  0  0  0  0
    4.8973   -0.0778   -0.0006 C   0  0  0  0  0  0  0  0  0  0  0  0
    4.8749   -1.3147   -0.8502 C   0  0  0  0  0  0  0  0  0  0  0  0
    5.2592   -1.4055    0.5975 C   0  0  0  0  0  0  0  0  0  0  0  0
    3.6057    0.5632    0.3856 C   0  0  0  0  0  0  0  0  0  0  0  0
    1.4982    1.5056   -0.5367 C   0  0  0  0  0  0  0  0  0  0  0  0
    0.4147    0.4514   -0.4000 C   0  0  0  0  0  0  0  0  0  0  0  0
   -2.0835    0.4188   -0.0815 C   0  0  0  0  0  0  0  0  0  0  0  0
   -3.2517    1.1665    0.0684 C   0  0  0  0  0  0  0  0  0  0  0  0
   -2.1420   -0.9749   -0.0761 C   0  0  0  0  0  0  0  0  0  0  0  0
   -4.4781    0.5205    0.2239 C   0  0  0  0  0  0  0  0  0  0  0  0
   -3.2198    2.6604    0.0656 C   0  0  0  0  0  0  0  0  0  0  0  0
   -3.3686   -1.6209    0.0792 C   0  0  0  0  0  0  0  0  0  0  0  0
   -4.5366   -0.8732    0.2292 C   0  0  0  0  0  0  0  0  0  0  0  0
    5.7153    0.6180   -0.1575 H   0  0  0  0  0  0  0  0  0  0  0  0
    4.5597   -1.8826    1.2730 H   0  0  0  0  0  0  0  0  0  0  0  0
    6.3011   -1.5864    0.8319 H   0  0  0  0  0  0  0  0  0  0  0  0
    5.6586   -1.4325   -1.5887 H   0  0  0  0  0  0  0  0  0  0  0  0
    3.9223   -1.7417   -1.1395 H   0  0  0  0  0  0  0  0  0  0  0  0
    3.0956    0.6701   -1.6264 H   0  0  0  0  0  0  0  0  0  0  0  0
    1.4950    2.1479    0.3498 H   0  0  0  0  0  0  0  0  0  0  0  0
    1.3080    2.1097   -1.4289 H   0  0  0  0  0  0  0  0  0  0  0  0
   -0.8578    2.0636   -0.2357 H   0  0  0  0  0  0  0  0  0  0  0  0
   -1.2883   -1.6275   -0.1857 H   0  0  0  0  0  0  0  0  0  0  0  0
   -5.3980    1.0870    0.3419 H   0  0  0  0  0  0  0  0  0  0  0  0
   -2.6023    3.0342    0.8890 H   0  0  0  0  0  0  0  0  0  0  0  0
   -2.8290    3.0358   -0.8860 H   0  0  0  0  0  0  0  0  0  0  0  0
   -4.2205    3.0879    0.1938 H   0  0  0  0  0  0  0  0  0  0  0  0
   -5.4913   -1.3767    0.3499 H   0  0  0  0  0  0  0  0  0  0  0  0
  1 17  1  0  0  0  0
  2  9  2  0  0  0  0
  3 11  2  0  0  0  0
  4  9  1  0  0  0  0
  4 10  1  0  0  0  0
  4 24  1  0  0  0  0
  5 11  1  0  0  0  0
  5 12  1  0  0  0  0
  5 27  1  0  0  0  0
  6  7  1  0  0  0  0
  6  8  1  0  0  0  0
  6  9  1  0  0  0  0
  6 19  1  0  0  0  0
  7  8  1  0  0  0  0
  7 22  1  0  0  0  0
  7 23  1  0  0  0  0
  8 20  1  0  0  0  0
  8 21  1  0  0  0  0
 10 11  1  0  0  0  0
 10 25  1  0  0  0  0
 10 26  1  0  0  0  0
 12 13  2  0  0  0  0
 12 14  1  0  0  0  0
 13 15  1  0  0  0  0
 13 16  1  0  0  0  0
 14 17  2  0  0  0  0
 14 28  1  0  0  0  0
 15 18  2  0  0  0  0
 15 29  1  0  0  0  0
 16 30  1  0  0  0  0
 16 31  1  0  0  0  0
 16 32  1  0  0  0  0
 17 18  1  0  0  0  0
 18 33  1  0  0  0  0
M  END
> <PUBCHEM_COMPOUND_CID>
47205726

> <PUBCHEM_CONFORMER_RMSD>
0.8

> <PUBCHEM_CONFORMER_DIVERSEORDER>
1
50
4
47
7
37
17
11
42
53
57
22
18
41
24
49
10
33
48
20
55
46
36
13
56
58
59
8
25
35
5
43
29
15
19
23
27
28
2
45
31
12
38
52
16
51
9
26
3
14
6
32
34
30
54
44
21
40
39

> <PUBCHEM_MMFF94_PARTIAL_CHARGES>
28
1 -0.19
10 0.36
11 0.57
12 0.12
13 -0.14
14 -0.15
15 -0.15
16 0.14
17 0.19
18 -0.15
19 0.1
2 -0.57
20 0.1
21 0.1
22 0.1
23 0.1
24 0.37
27 0.37
28 0.15
29 0.15
3 -0.57
33 0.15
4 -0.73
5 -0.55
6 -0.1
7 -0.2
8 -0.2
9 0.63

> <PUBCHEM_EFFECTIVE_ROTOR_COUNT>
6.6

> <PUBCHEM_PHARMACOPHORE_FEATURES>
5
1 2 acceptor
1 3 acceptor
1 4 donor
1 5 donor
6 12 13 14 15 17 18 rings

> <PUBCHEM_HEAVY_ATOM_COUNT>
18

> <PUBCHEM_ATOM_DEF_STEREO_COUNT>
0

> <PUBCHEM_ATOM_UDEF_STEREO_COUNT>
0

> <PUBCHEM_BOND_DEF_STEREO_COUNT>
0

> <PUBCHEM_BOND_UDEF_STEREO_COUNT>
0

> <PUBCHEM_ISOTOPIC_ATOM_COUNT>
0

> <PUBCHEM_COMPONENT_COUNT>
1

> <PUBCHEM_CACTVS_TAUTO_COUNT>
4

> <PUBCHEM_CONFORMER_ID>
02D04D5E00000001

> <PUBCHEM_MMFF94_ENERGY>
44.5256

> <PUBCHEM_FEATURE_SELFOVERLAP>
25.371

> <PUBCHEM_SHAPE_FINGERPRINT>
11128504 68 16774069675180190998
11405975 8 18260828202483256944
11545043 162 18261114092833924048
12107183 9 17909552001667893992
12403259 226 18335707079155425785
12507560 40 18187653487852643824
12555020 224 18341341032886969983
12670546 177 11743833660138559928
13167823 11 18343864411660953498
13583140 156 17676778591039279276
13675066 3 18113623382723148044
14341114 176 18408880733097713904
14420673 8 18266454494036089470
14528608 73 9079107861249245802
15042514 8 18340481154907242731
15196674 1 18411699876932602390
15256400 18 18409445916449901358
17492 89 18197775505460669843
17804303 29 18410291406373790525
17834072 33 18201151071278595740
17844677 252 18410287017371070032
17857418 61 18341618122295895542
1813 80 17203323433937246134
20281475 54 18272652337933510996
21033648 29 17458642141182608168
21065198 57 18335422361319897696
21065199 12 18260835856389310912
21065201 7 18411144644829833376
21267235 1 18342729707313948595
22950370 63 18202280338402563196
2306618 200 18259976090126200233
23402539 116 18335426768552416733
23559900 14 18408609132256305792
26918003 58 18113620105573287560
2916195 48 10015284812079231214
312423 11 17988347179311466157
351380 3 17704072897546194794
42 15 18408040719373048044
4214541 1 18411136969464968156
5104073 3 18334853887864240272
559249 180 18272374230010544171
573450 72 18342460347981089537
5924683 9 17822864074056566527
633830 44 16917062257188485724
77779 3 18410855451976310972
9709674 26 18199463264472846954

> <PUBCHEM_SHAPE_MULTIPOLES>
341.46
12.35
2.25
0.84
9.45
0.44
-0.13
3.71
-1.29
-2.35
0.01
0.78
-0.06
0.17

> <PUBCHEM_SHAPE_SELFOVERLAP>
710.343

> <PUBCHEM_SHAPE_VOLUME>
195.2

> <PUBCHEM_COORDINATE_TYPE>
2
5
10

$$$$

