189661
  -OEChem-07051212483D

 30 31  0     0  0  0  0  0  0999 V2000
    3.7987   -0.5604    0.0005 O   0  0  0  0  0  0  0  0  0  0  0  0
    5.5354    0.9690   -0.0024 O   0  0  0  0  0  0  0  0  0  0  0  0
    2.9526    0.5272   -0.0006 N   0  0  0  0  0  0  0  0  0  0  0  0
   -1.2282    0.1229    0.0015 C   0  0  0  0  0  0  0  0  0  0  0  0
   -2.6684   -0.0165    0.0006 C   0  0  0  0  0  0  0  0  0  0  0  0
   -0.6488    1.3783    0.1852 C   0  0  0  0  0  0  0  0  0  0  0  0
   -0.4191   -0.9984   -0.1834 C   0  0  0  0  0  0  0  0  0  0  0  0
    1.5486    0.3914   -0.0006 C   0  0  0  0  0  0  0  0  0  0  0  0
    0.7396    1.5126    0.1842 C   0  0  0  0  0  0  0  0  0  0  0  0
    0.9693   -0.8640   -0.1843 C   0  0  0  0  0  0  0  0  0  0  0  0
   -3.3457   -0.2661    1.1941 C   0  0  0  0  0  0  0  0  0  0  0  0
   -3.3793    0.0989   -1.1938 C   0  0  0  0  0  0  0  0  0  0  0  0
   -4.7342   -0.4003    1.1932 C   0  0  0  0  0  0  0  0  0  0  0  0
   -4.7677   -0.0351   -1.1948 C   0  0  0  0  0  0  0  0  0  0  0  0
   -5.4451   -0.2849   -0.0012 C   0  0  0  0  0  0  0  0  0  0  0  0
    5.1094   -0.1784    0.0002 C   0  0  0  0  0  0  0  0  0  0  0  0
    5.9829   -1.3964    0.0015 C   0  0  0  0  0  0  0  0  0  0  0  0
   -1.2649    2.2626    0.3303 H   0  0  0  0  0  0  0  0  0  0  0  0
   -0.8547   -1.9842   -0.3289 H   0  0  0  0  0  0  0  0  0  0  0  0
    1.1791    2.4963    0.3285 H   0  0  0  0  0  0  0  0  0  0  0  0
    1.5777   -1.7521   -0.3326 H   0  0  0  0  0  0  0  0  0  0  0  0
   -2.8069   -0.3589    2.1341 H   0  0  0  0  0  0  0  0  0  0  0  0
   -2.8670    0.2934   -2.1331 H   0  0  0  0  0  0  0  0  0  0  0  0
   -5.2617   -0.5947    2.1225 H   0  0  0  0  0  0  0  0  0  0  0  0
   -5.3215    0.0547   -2.1247 H   0  0  0  0  0  0  0  0  0  0  0  0
   -6.5262   -0.3894   -0.0020 H   0  0  0  0  0  0  0  0  0  0  0  0
    3.3535    1.4355    0.2051 H   0  0  0  0  0  0  0  0  0  0  0  0
    5.7956   -1.9881   -0.8980 H   0  0  0  0  0  0  0  0  0  0  0  0
    7.0328   -1.0897    0.0043 H   0  0  0  0  0  0  0  0  0  0  0  0
    5.7914   -1.9890    0.8996 H   0  0  0  0  0  0  0  0  0  0  0  0
  1  3  1  0  0  0  0
  1 16  1  0  0  0  0
  2 16  2  0  0  0  0
  3  8  1  0  0  0  0
  3 27  1  0  0  0  0
  4  5  1  0  0  0  0
  4  6  2  0  0  0  0
  4  7  1  0  0  0  0
  5 11  2  0  0  0  0
  5 12  1  0  0  0  0
  6  9  1  0  0  0  0
  6 18  1  0  0  0  0
  7 10  2  0  0  0  0
  7 19  1  0  0  0  0
  8  9  2  0  0  0  0
  8 10  1  0  0  0  0
  9 20  1  0  0  0  0
 10 21  1  0  0  0  0
 11 13  1  0  0  0  0
 11 22  1  0  0  0  0
 12 14  2  0  0  0  0
 12 23  1  0  0  0  0
 13 15  2  0  0  0  0
 13 24  1  0  0  0  0
 14 15  1  0  0  0  0
 14 25  1  0  0  0  0
 15 26  1  0  0  0  0
 16 17  1  0  0  0  0
 17 28  1  0  0  0  0
 17 29  1  0  0  0  0
 17 30  1  0  0  0  0
M  END
> <PUBCHEM_COMPOUND_CID>
189661

> <PUBCHEM_CONFORMER_RMSD>
0.6

> <PUBCHEM_CONFORMER_DIVERSEORDER>
1
13
14
5
9
8
12
4
2
11
10
6
3
7

> <PUBCHEM_MMFF94_PARTIAL_CHARGES>
25
1 -0.13
10 -0.15
11 -0.15
12 -0.15
13 -0.15
14 -0.15
15 -0.15
16 0.66
17 0.06
18 0.15
19 0.15
2 -0.57
20 0.15
21 0.15
22 0.15
23 0.15
24 0.15
25 0.15
26 0.15
27 0.4
3 -0.52
6 -0.15
7 -0.15
8 0.1
9 -0.15

> <PUBCHEM_EFFECTIVE_ROTOR_COUNT>
4

> <PUBCHEM_PHARMACOPHORE_FEATURES>
3
1 2 acceptor
6 4 6 7 8 9 10 rings
6 5 11 12 13 14 15 rings

> <PUBCHEM_HEAVY_ATOM_COUNT>
17

> <PUBCHEM_ATOM_DEF_STEREO_COUNT>
0

> <PUBCHEM_ATOM_UDEF_STEREO_COUNT>
0

> <PUBCHEM_BOND_DEF_STEREO_COUNT>
0

> <PUBCHEM_BOND_UDEF_STEREO_COUNT>
0

> <PUBCHEM_ISOTOPIC_ATOM_COUNT>
0

> <PUBCHEM_COMPONENT_COUNT>
1

> <PUBCHEM_CACTVS_TAUTO_COUNT>
1

> <PUBCHEM_CONFORMER_ID>
0002E4DD00000001

> <PUBCHEM_MMFF94_ENERGY>
51.9841

> <PUBCHEM_FEATURE_SELFOVERLAP>
15.223

> <PUBCHEM_SHAPE_FINGERPRINT>
10912923 1 17240483589703194802
11287383 113 17060053718695145444
11401426 45 18259988167051671853
12107183 9 15651238672219940402
12236239 1 17603304847583969359
13288520 33 17385725794419640213
13533116 47 18260830432420706738
13690532 89 18410293618650914228
13760787 19 16271934813217632417
13760787 5 18408321060130479868
13862211 1 18334861627648689966
14123238 8 17240201032268105430
1420 363 18272085011308149042
14251718 22 16271924904617329802
14251731 8 17561083605087599195
14573314 32 17132119077743930518
17834072 33 16805326565516468688
17844677 252 17489301997279945004
17862501 102 17312823770877025153
1813 80 18187912997992251580
19489759 90 16630528444457536149
200 152 18260270754646536129
20645477 70 18341334491688915334
21236236 1 18336827601641985409
21267235 1 18337102463086043214
21682296 61 18264764544690565134
2297311 6 16917345944373664077
23175994 123 18272649039335557885
23402539 116 17312824887631987921
23536379 177 15913332407333252768
23557571 272 17060341859376541581
23559900 14 17274821311747419812
26918003 58 18413102858064605611
34797466 226 16773502326937801958
42788 4 18343584044711906724
4463277 17 18408322193959712848
5104073 3 17386009399336581531
542803 24 16732982016133947424

> <PUBCHEM_SHAPE_MULTIPOLES>
333.13
13.61
1.19
0.96
11.67
0.17
0
-3.14
-0.05
1.03
0.05
-1.42
-0.06
0.22

> <PUBCHEM_SHAPE_SELFOVERLAP>
711.189

> <PUBCHEM_SHAPE_VOLUME>
185.6

> <PUBCHEM_COORDINATE_TYPE>
2
5
10

$$$$

