11799
  -OEChem-07051213053D

 36 36  0     0  0  0  0  0  0999 V2000
    2.6478   -0.2366   -0.1308 O   0  0  0  0  0  0  0  0  0  0  0  0
   -1.7238   -0.9555    0.3092 O   0  0  0  0  0  0  0  0  0  0  0  0
    1.0150   -0.8592   -1.6292 O   0  0  0  0  0  0  0  0  0  0  0  0
   -1.8596   -0.1943   -1.8590 O   0  0  0  0  0  0  0  0  0  0  0  0
    3.1616   -1.5671   -0.0064 C   0  0  0  0  0  0  0  0  0  0  0  0
   -2.9395   -1.7055    0.2130 C   0  0  0  0  0  0  0  0  0  0  0  0
    0.7045    1.0526   -0.2387 C   0  0  0  0  0  0  0  0  0  0  0  0
   -0.6901    1.0720   -0.2117 C   0  0  0  0  0  0  0  0  0  0  0  0
    1.4357   -0.0999   -0.7484 C   0  0  0  0  0  0  0  0  0  0  0  0
   -1.4724   -0.0595   -0.6924 C   0  0  0  0  0  0  0  0  0  0  0  0
    4.5225   -1.5169    0.6713 C   0  0  0  0  0  0  0  0  0  0  0  0
    2.1702   -2.4156    0.7752 C   0  0  0  0  0  0  0  0  0  0  0  0
   -3.0297   -2.6660    1.3890 C   0  0  0  0  0  0  0  0  0  0  0  0
   -4.1186   -0.7453    0.1737 C   0  0  0  0  0  0  0  0  0  0  0  0
    1.4263    2.1509    0.2288 C   0  0  0  0  0  0  0  0  0  0  0  0
   -1.3626    2.1896    0.2829 C   0  0  0  0  0  0  0  0  0  0  0  0
    0.7536    3.2684    0.7233 C   0  0  0  0  0  0  0  0  0  0  0  0
   -0.6408    3.2878    0.7503 C   0  0  0  0  0  0  0  0  0  0  0  0
    3.2979   -1.9861   -1.0111 H   0  0  0  0  0  0  0  0  0  0  0  0
   -2.9132   -2.2993   -0.7090 H   0  0  0  0  0  0  0  0  0  0  0  0
    4.9590   -2.5157    0.7660 H   0  0  0  0  0  0  0  0  0  0  0  0
    5.2105   -0.8867    0.0976 H   0  0  0  0  0  0  0  0  0  0  0  0
    4.4454   -1.0702    1.6687 H   0  0  0  0  0  0  0  0  0  0  0  0
    2.5817   -3.4099    0.9775 H   0  0  0  0  0  0  0  0  0  0  0  0
    1.2280   -2.5568    0.2373 H   0  0  0  0  0  0  0  0  0  0  0  0
    1.9206   -1.9431    1.7319 H   0  0  0  0  0  0  0  0  0  0  0  0
   -3.9375   -3.2748    1.3393 H   0  0  0  0  0  0  0  0  0  0  0  0
   -2.1608   -3.3328    1.4032 H   0  0  0  0  0  0  0  0  0  0  0  0
   -3.0227   -2.1211    2.3395 H   0  0  0  0  0  0  0  0  0  0  0  0
   -5.0673   -1.2915    0.2024 H   0  0  0  0  0  0  0  0  0  0  0  0
   -4.1252   -0.1298   -0.7306 H   0  0  0  0  0  0  0  0  0  0  0  0
   -4.0905   -0.0570    1.0259 H   0  0  0  0  0  0  0  0  0  0  0  0
    2.5127    2.1747    0.2090 H   0  0  0  0  0  0  0  0  0  0  0  0
   -2.4491    2.2170    0.3089 H   0  0  0  0  0  0  0  0  0  0  0  0
    1.3153    4.1250    1.0843 H   0  0  0  0  0  0  0  0  0  0  0  0
   -1.1643    4.1583    1.1344 H   0  0  0  0  0  0  0  0  0  0  0  0
  1  5  1  0  0  0  0
  1  9  1  0  0  0  0
  2  6  1  0  0  0  0
  2 10  1  0  0  0  0
  3  9  2  0  0  0  0
  4 10  2  0  0  0  0
  5 11  1  0  0  0  0
  5 12  1  0  0  0  0
  5 19  1  0  0  0  0
  6 13  1  0  0  0  0
  6 14  1  0  0  0  0
  6 20  1  0  0  0  0
  7  8  1  0  0  0  0
  7  9  1  0  0  0  0
  7 15  2  0  0  0  0
  8 10  1  0  0  0  0
  8 16  2  0  0  0  0
 11 21  1  0  0  0  0
 11 22  1  0  0  0  0
 11 23  1  0  0  0  0
 12 24  1  0  0  0  0
 12 25  1  0  0  0  0
 12 26  1  0  0  0  0
 13 27  1  0  0  0  0
 13 28  1  0  0  0  0
 13 29  1  0  0  0  0
 14 30  1  0  0  0  0
 14 31  1  0  0  0  0
 14 32  1  0  0  0  0
 15 17  1  0  0  0  0
 15 33  1  0  0  0  0
 16 18  1  0  0  0  0
 16 34  1  0  0  0  0
 17 18  2  0  0  0  0
 17 35  1  0  0  0  0
 18 36  1  0  0  0  0
M  END
> <PUBCHEM_COMPOUND_CID>
11799

> <PUBCHEM_CONFORMER_RMSD>
0.8

> <PUBCHEM_CONFORMER_DIVERSEORDER>
1
30
15
7
14
27
21
4
6
17
3
33
19
18
34
5
10
2
28
20
11
26
37
12
8
36
13
38
25
31
23
22
32
29
16
9
35
24

> <PUBCHEM_MMFF94_PARTIAL_CHARGES>
18
1 -0.43
10 0.63
15 -0.15
16 -0.15
17 -0.15
18 -0.15
2 -0.43
3 -0.57
33 0.15
34 0.15
35 0.15
36 0.15
4 -0.57
5 0.28
6 0.28
7 0.09
8 0.09
9 0.63

> <PUBCHEM_EFFECTIVE_ROTOR_COUNT>
6

> <PUBCHEM_PHARMACOPHORE_FEATURES>
5
1 3 acceptor
1 4 acceptor
3 5 11 12 hydrophobe
3 6 13 14 hydrophobe
6 7 8 15 16 17 18 rings

> <PUBCHEM_HEAVY_ATOM_COUNT>
18

> <PUBCHEM_ATOM_DEF_STEREO_COUNT>
0

> <PUBCHEM_ATOM_UDEF_STEREO_COUNT>
0

> <PUBCHEM_BOND_DEF_STEREO_COUNT>
0

> <PUBCHEM_BOND_UDEF_STEREO_COUNT>
0

> <PUBCHEM_ISOTOPIC_ATOM_COUNT>
0

> <PUBCHEM_COMPONENT_COUNT>
1

> <PUBCHEM_CACTVS_TAUTO_COUNT>
1

> <PUBCHEM_CONFORMER_ID>
00002E1700000001

> <PUBCHEM_MMFF94_ENERGY>
55.3412

> <PUBCHEM_FEATURE_SELFOVERLAP>
25.373

> <PUBCHEM_SHAPE_FINGERPRINT>
10382601 240 17900243218077945265
108231 29 18413109429391318930
10906281 52 18115583893249089405
11265709 11 18410571807608352450
11357001 24 18192714659611920656
114674 6 17697873666337771491
11578080 2 17846230963636526524
12202030 40 17916591908343068487
12506688 2 18271519810544230731
12507560 14 18334576819925206639
12553582 1 18337654391325324875
12633257 1 18264188297670934723
12788726 201 18265882739082492265
12824470 246 17917711343939086866
13027679 85 18412549824805581119
13032168 30 18059291071650786810
13140716 1 18261674873934817048
13533116 47 18124024625842800771
14022347 108 17975097093818596805
14115302 16 18131345358157273111
14178342 30 18053108603767394330
14787075 74 18128255589303475050
14790565 3 17833262026186907744
14817 1 10946104735261459173
15042514 8 18048873284275457536
15502708 68 17686898315593802801
16945 1 18046922471527851116
17841504 4 18337953381262720319
19049666 15 18270403763930226689
19591789 44 17474386877383707276
20510252 161 17611190751079319880
20645476 183 17550916597296578468
20645477 70 18116992174903290903
20832881 197 18342176661834940331
20871998 184 17897170332296918004
21041028 32 18407759231232081480
21524375 3 16888912298511579085
21650355 55 18266180715387065616
21731228 192 17180807875162833080
23184049 29 18410566327298706336
23402539 116 17899998310558411341
23419403 2 18198930061447054876
23500284 5 18269836569900549986
23557571 272 18190174775463104518
23728640 28 17762342813303735026
2748010 2 18187374220162426540
3071541 236 17905608053126803636
3091708 16 9714233073052655105
31174 14 18194680363354364967
392239 28 18340497698973418722
458136 41 17693364543302771077
81228 2 17972591358010713245
9709674 26 17828207928206092630

> <PUBCHEM_SHAPE_MULTIPOLES>
346.95
5.95
3.89
1.18
1.11
2.36
-0.3
-6.25
1.29
-0.12
1.87
-0.3
-0.3
0.29

> <PUBCHEM_SHAPE_SELFOVERLAP>
712.491

> <PUBCHEM_SHAPE_VOLUME>
201.8

> <PUBCHEM_COORDINATE_TYPE>
2
5
10

$$$$

