441145
  -OEChem-07051212522D

109113  0     1  0  0  0  0  0999 V2000
    8.1266    2.2500    0.0000 O   0  0  0  0  0  0  0  0  0  0  0  0
    5.5878    1.7500    0.0000 O   0  0  0  0  0  0  0  0  0  0  0  0
   10.6655    2.7500    0.0000 O   0  0  0  0  0  0  0  0  0  0  0  0
    4.5000    0.0749    0.0000 O   0  0  0  0  0  0  0  0  0  0  0  0
   13.3391    2.6220    0.0000 O   0  0  0  0  0  0  0  0  0  0  0  0
    3.0000    2.6730    0.0000 O   0  0  0  0  0  0  0  0  0  0  0  0
   14.7359    2.4008    0.0000 O   0  0  0  0  0  0  0  0  0  0  0  0
    4.5000   -1.6571    0.0000 O   0  0  0  0  0  0  0  0  0  0  0  0
   15.7304    2.5053    0.0000 O   0  0  0  0  0  0  0  0  0  0  0  0
    3.0000   -4.2552    0.0000 O   0  0  0  0  0  0  0  0  0  0  0  0
    4.5000   -3.3892    0.0000 O   0  0  0  0  0  0  0  0  0  0  0  0
    9.0777    1.9410    0.0000 C   0  0  2  0  0  0  0  0  0  0  0  0
    6.5388    1.4410    0.0000 C   0  0  2  0  0  0  0  0  0  0  0  0
    7.5388    1.4410    0.0000 C   0  0  1  0  0  0  0  0  0  0  0  0
   10.0777    1.9410    0.0000 C   0  0  1  0  0  0  0  0  0  0  0  0
    9.0777    0.9410    0.0000 C   0  0  0  0  0  0  0  0  0  0  0  0
    5.0000    0.9410    0.0000 C   0  0  2  0  0  0  0  0  0  0  0  0
    8.1266    0.6320    0.0000 C   0  0  0  0  0  0  0  0  0  0  0  0
   10.6655    1.1320    0.0000 C   0  0  2  0  0  0  0  0  0  0  0  0
    6.5388    0.4410    0.0000 C   0  0  0  0  0  0  0  0  0  0  0  0
    5.5878    0.1320    0.0000 C   0  0  0  0  0  0  0  0  0  0  0  0
   11.6165    2.4410    0.0000 C   0  0  2  0  0  0  0  0  0  0  0  0
   11.6165    1.4410    0.0000 C   0  0  0  0  0  0  0  0  0  0  0  0
    9.3867    2.8920    0.0000 C   0  0  0  0  0  0  0  0  0  0  0  0
    4.5000    1.8070    0.0000 C   0  0  0  0  0  0  0  0  0  0  0  0
   12.4255    3.0288    0.0000 C   0  0  2  0  0  0  0  0  0  0  0  0
    3.5000    0.0749    0.0000 C   0  0  1  0  0  0  0  0  0  0  0  0
    6.8479    2.3920    0.0000 C   0  0  0  0  0  0  0  0  0  0  0  0
    3.0000    0.9410    0.0000 C   0  0  1  0  0  0  0  0  0  0  0  0
    3.5000    1.8070    0.0000 C   0  0  1  0  0  0  0  0  0  0  0  0
   12.3210    4.0233    0.0000 C   0  0  2  0  0  0  0  0  0  0  0  0
   10.3565    0.1809    0.0000 C   0  0  0  0  0  0  0  0  0  0  0  0
    3.0000   -0.7911    0.0000 C   0  0  2  0  0  0  0  0  0  0  0  0
   13.1300    4.6111    0.0000 C   0  0  0  0  0  0  0  0  0  0  0  0
    8.7176    3.6352    0.0000 C   0  0  0  0  0  0  0  0  0  0  0  0
   14.0436    4.2043    0.0000 C   0  0  2  0  0  0  0  0  0  0  0  0
   14.1481    3.2098    0.0000 C   0  0  2  0  0  0  0  0  0  0  0  0
    2.0000    0.9410    0.0000 C   0  0  0  0  0  0  0  0  0  0  0  0
    3.5000   -1.6571    0.0000 C   0  0  2  0  0  0  0  0  0  0  0  0
   11.4075    4.4300    0.0000 C   0  0  0  0  0  0  0  0  0  0  0  0
    2.0000   -0.7911    0.0000 C   0  0  0  0  0  0  0  0  0  0  0  0
   14.8526    4.7921    0.0000 C   0  0  0  0  0  0  0  0  0  0  0  0
   15.1426    3.3143    0.0000 C   0  0  0  0  0  0  0  0  0  0  0  0
    3.0000   -2.5231    0.0000 C   0  0  2  0  0  0  0  0  0  0  0  0
    2.0000   -2.5231    0.0000 C   0  0  0  0  0  0  0  0  0  0  0  0
    3.5000   -3.3892    0.0000 C   0  0  0  0  0  0  0  0  0  0  0  0
    5.0000   -2.5231    0.0000 C   0  0  0  0  0  0  0  0  0  0  0  0
    7.1530    2.1983    0.0000 H   0  0  0  0  0  0  0  0  0  0  0  0
    9.6918    2.6983    0.0000 H   0  0  0  0  0  0  0  0  0  0  0  0
    9.2066    0.3345    0.0000 H   0  0  0  0  0  0  0  0  0  0  0  0
    9.6943    1.0058    0.0000 H   0  0  0  0  0  0  0  0  0  0  0  0
    7.5897    0.3220    0.0000 H   0  0  0  0  0  0  0  0  0  0  0  0
    8.3788    0.0656    0.0000 H   0  0  0  0  0  0  0  0  0  0  0  0
   11.1039    0.6936    0.0000 H   0  0  0  0  0  0  0  0  0  0  0  0
    6.6678   -0.1655    0.0000 H   0  0  0  0  0  0  0  0  0  0  0  0
    7.1554    0.5058    0.0000 H   0  0  0  0  0  0  0  0  0  0  0  0
    5.0508   -0.1780    0.0000 H   0  0  0  0  0  0  0  0  0  0  0  0
    5.8400   -0.4344    0.0000 H   0  0  0  0  0  0  0  0  0  0  0  0
   11.4836    3.2805    0.0000 H   0  0  0  0  0  0  0  0  0  0  0  0
   11.7454    0.8345    0.0000 H   0  0  0  0  0  0  0  0  0  0  0  0
   12.2331    1.5058    0.0000 H   0  0  0  0  0  0  0  0  0  0  0  0
    9.9341    2.6010    0.0000 H   0  0  0  0  0  0  0  0  0  0  0  0
    9.7684    3.3806    0.0000 H   0  0  0  0  0  0  0  0  0  0  0  0
    5.0826    2.0190    0.0000 H   0  0  0  0  0  0  0  0  0  0  0  0
    4.3923    2.4176    0.0000 H   0  0  0  0  0  0  0  0  0  0  0  0
   11.6490    3.3745    0.0000 H   0  0  0  0  0  0  0  0  0  0  0  0
    3.9250   -0.6612    0.0000 H   0  0  0  0  0  0  0  0  0  0  0  0
    7.4375    2.2004    0.0000 H   0  0  0  0  0  0  0  0  0  0  0  0
    7.0394    2.9817    0.0000 H   0  0  0  0  0  0  0  0  0  0  0  0
    6.2582    2.5836    0.0000 H   0  0  0  0  0  0  0  0  0  0  0  0
    2.6900    0.4040    0.0000 H   0  0  0  0  0  0  0  0  0  0  0  0
    2.8800    1.8070    0.0000 H   0  0  0  0  0  0  0  0  0  0  0  0
   11.8194    3.6588    0.0000 H   0  0  0  0  0  0  0  0  0  0  0  0
    9.7668    0.3725    0.0000 H   0  0  0  0  0  0  0  0  0  0  0  0
   10.1649   -0.4088    0.0000 H   0  0  0  0  0  0  0  0  0  0  0  0
   10.9461   -0.0107    0.0000 H   0  0  0  0  0  0  0  0  0  0  0  0
    2.6900   -1.3280    0.0000 H   0  0  0  0  0  0  0  0  0  0  0  0
   13.4767    5.1251    0.0000 H   0  0  0  0  0  0  0  0  0  0  0  0
   12.6840    5.0418    0.0000 H   0  0  0  0  0  0  0  0  0  0  0  0
    9.1783    4.0500    0.0000 H   0  0  0  0  0  0  0  0  0  0  0  0
    8.3027    4.0959    0.0000 H   0  0  0  0  0  0  0  0  0  0  0  0
    8.2568    3.2203    0.0000 H   0  0  0  0  0  0  0  0  0  0  0  0
   13.9788    4.8209    0.0000 H   0  0  0  0  0  0  0  0  0  0  0  0
    2.0000    1.5610    0.0000 H   0  0  0  0  0  0  0  0  0  0  0  0
    1.3800    0.9410    0.0000 H   0  0  0  0  0  0  0  0  0  0  0  0
    2.0000    0.3210    0.0000 H   0  0  0  0  0  0  0  0  0  0  0  0
    3.8100   -1.1202    0.0000 H   0  0  0  0  0  0  0  0  0  0  0  0
   11.6596    4.9964    0.0000 H   0  0  0  0  0  0  0  0  0  0  0  0
   10.8411    4.6822    0.0000 H   0  0  0  0  0  0  0  0  0  0  0  0
   11.1553    3.8636    0.0000 H   0  0  0  0  0  0  0  0  0  0  0  0
    2.0000   -0.1711    0.0000 H   0  0  0  0  0  0  0  0  0  0  0  0
    1.3800   -0.7911    0.0000 H   0  0  0  0  0  0  0  0  0  0  0  0
    2.0000   -1.4111    0.0000 H   0  0  0  0  0  0  0  0  0  0  0  0
    2.3800    2.6730    0.0000 H   0  0  0  0  0  0  0  0  0  0  0  0
   15.2170    4.2905    0.0000 H   0  0  0  0  0  0  0  0  0  0  0  0
   15.3542    5.1565    0.0000 H   0  0  0  0  0  0  0  0  0  0  0  0
   14.4882    5.2937    0.0000 H   0  0  0  0  0  0  0  0  0  0  0  0
   15.6999    3.5861    0.0000 H   0  0  0  0  0  0  0  0  0  0  0  0
   14.9717    3.9103    0.0000 H   0  0  0  0  0  0  0  0  0  0  0  0
    2.6900   -1.9862    0.0000 H   0  0  0  0  0  0  0  0  0  0  0  0
   14.4837    1.8344    0.0000 H   0  0  0  0  0  0  0  0  0  0  0  0
    2.0000   -1.9031    0.0000 H   0  0  0  0  0  0  0  0  0  0  0  0
    1.3800   -2.5231    0.0000 H   0  0  0  0  0  0  0  0  0  0  0  0
    2.0000   -3.1431    0.0000 H   0  0  0  0  0  0  0  0  0  0  0  0
   16.3470    2.5701    0.0000 H   0  0  0  0  0  0  0  0  0  0  0  0
    4.4631   -2.8331    0.0000 H   0  0  0  0  0  0  0  0  0  0  0  0
    5.3100   -3.0601    0.0000 H   0  0  0  0  0  0  0  0  0  0  0  0
    5.5369   -2.2131    0.0000 H   0  0  0  0  0  0  0  0  0  0  0  0
    3.3100   -4.7921    0.0000 H   0  0  0  0  0  0  0  0  0  0  0  0
  1 12  1  0  0  0  0
  1 14  1  0  0  0  0
  2 13  1  0  0  0  0
  2 17  1  0  0  0  0
  3 15  1  0  0  0  0
  3 22  1  0  0  0  0
 17  4  1  1  0  0  0
  4 27  1  0  0  0  0
  5 26  1  0  0  0  0
  5 37  1  0  0  0  0
 30  6  1  1  0  0  0
  6 94  1  0  0  0  0
 37  7  1  1  0  0  0
  7101  1  0  0  0  0
 39  8  1  1  0  0  0
  8 47  1  0  0  0  0
  9 43  1  0  0  0  0
  9105  1  0  0  0  0
 10 46  1  0  0  0  0
 10109  1  0  0  0  0
 11 46  2  0  0  0  0
 12 15  1  0  0  0  0
 12 16  1  0  0  0  0
 12 24  1  1  0  0  0
 13 14  1  0  0  0  0
 13 20  1  0  0  0  0
 13 28  1  1  0  0  0
 14 18  1  0  0  0  0
 14 48  1  1  0  0  0
 15 19  1  0  0  0  0
 15 49  1  1  0  0  0
 16 18  1  0  0  0  0
 16 50  1  0  0  0  0
 16 51  1  0  0  0  0
 17 21  1  0  0  0  0
 17 25  1  0  0  0  0
 18 52  1  0  0  0  0
 18 53  1  0  0  0  0
 19 23  1  0  0  0  0
 19 32  1  6  0  0  0
 19 54  1  0  0  0  0
 20 21  1  0  0  0  0
 20 55  1  0  0  0  0
 20 56  1  0  0  0  0
 21 57  1  0  0  0  0
 21 58  1  0  0  0  0
 22 23  1  0  0  0  0
 22 26  1  0  0  0  0
 22 59  1  6  0  0  0
 23 60  1  0  0  0  0
 23 61  1  0  0  0  0
 24 35  1  0  0  0  0
 24 62  1  0  0  0  0
 24 63  1  0  0  0  0
 25 30  1  0  0  0  0
 25 64  1  0  0  0  0
 25 65  1  0  0  0  0
 26 31  1  0  0  0  0
 26 66  1  1  0  0  0
 27 29  1  0  0  0  0
 27 33  1  0  0  0  0
 27 67  1  1  0  0  0
 28 68  1  0  0  0  0
 28 69  1  0  0  0  0
 28 70  1  0  0  0  0
 29 30  1  0  0  0  0
 29 38  1  6  0  0  0
 29 71  1  0  0  0  0
 30 72  1  0  0  0  0
 31 34  1  0  0  0  0
 31 40  1  1  0  0  0
 31 73  1  0  0  0  0
 32 74  1  0  0  0  0
 32 75  1  0  0  0  0
 32 76  1  0  0  0  0
 33 39  1  0  0  0  0
 33 41  1  6  0  0  0
 33 77  1  0  0  0  0
 34 36  1  0  0  0  0
 34 78  1  0  0  0  0
 34 79  1  0  0  0  0
 35 80  1  0  0  0  0
 35 81  1  0  0  0  0
 35 82  1  0  0  0  0
 36 37  1  0  0  0  0
 36 42  1  1  0  0  0
 36 83  1  0  0  0  0
 37 43  1  0  0  0  0
 38 84  1  0  0  0  0
 38 85  1  0  0  0  0
 38 86  1  0  0  0  0
 39 44  1  0  0  0  0
 39 87  1  0  0  0  0
 40 88  1  0  0  0  0
 40 89  1  0  0  0  0
 40 90  1  0  0  0  0
 41 91  1  0  0  0  0
 41 92  1  0  0  0  0
 41 93  1  0  0  0  0
 42 95  1  0  0  0  0
 42 96  1  0  0  0  0
 42 97  1  0  0  0  0
 43 98  1  0  0  0  0
 43 99  1  0  0  0  0
 44 45  1  1  0  0  0
 44 46  1  0  0  0  0
 44100  1  0  0  0  0
 45102  1  0  0  0  0
 45103  1  0  0  0  0
 45104  1  0  0  0  0
 47106  1  0  0  0  0
 47107  1  0  0  0  0
 47108  1  0  0  0  0
M  END
> <PUBCHEM_COMPOUND_CID>
441145

> <PUBCHEM_COMPOUND_CANONICALIZED>
1

> <PUBCHEM_CACTVS_COMPLEXITY>
1110

> <PUBCHEM_CACTVS_HBOND_ACCEPTOR>
11

> <PUBCHEM_CACTVS_HBOND_DONOR>
4

> <PUBCHEM_CACTVS_ROTATABLE_BOND>
10

> <PUBCHEM_CACTVS_SUBSKEYS>
AAADcfB8PAAAAAAAAAAAAAAAAAAAASJEgAAkSAAAAAAAAAAAAAAAGgAACAAADVSggAICCAAABgAIAACQCAAAAAAAAAAAAAEAAAAREBYAAAAiQAAFIAAHAAHI7PzOAAAAAAAAAAAAAAAAAAAAAAAAAAAAAA==

> <PUBCHEM_IUPAC_OPENEYE_NAME>
(2S,3R,4S)-4-[(2S,6R,7S,8R,9S)-2-[(2R,5S)-5-ethyl-5-[(2R,3S,5R)-5-[(2S,3S,5R,6R)-6-hydroxy-6-(hydroxymethyl)-3,5-dimethyl-tetrahydropyran-2-yl]-3-methyl-tetrahydrofuran-2-yl]tetrahydrofuran-2-yl]-9-hydroxy-2,8-dimethyl-1,6-dioxaspiro[4.5]decan-7-yl]-3-methoxy-2-methyl-pentanoic acid

> <PUBCHEM_IUPAC_CAS_NAME>
(2S,3R,4S)-4-[(2S,6R,7S,8R,9S)-2-[(2R,5S)-5-ethyl-5-[(2R,3S,5R)-5-[(2S,3S,5R,6R)-6-hydroxy-6-(hydroxymethyl)-3,5-dimethyl-2-oxanyl]-3-methyl-2-oxolanyl]-2-oxolanyl]-9-hydroxy-2,8-dimethyl-1,6-dioxaspiro[4.5]decan-7-yl]-3-methoxy-2-methylpentanoic acid

> <PUBCHEM_IUPAC_NAME>
(2S,3R,4S)-4-[(2S,6R,7S,8R,9S)-2-[(2R,5S)-5-ethyl-5-[(2R,3S,5R)-5-[(2S,3S,5R,6R)-6-hydroxy-6-(hydroxymethyl)-3,5-dimethyloxan-2-yl]-3-methyloxolan-2-yl]oxolan-2-yl]-9-hydroxy-2,8-dimethyl-1,6-dioxaspiro[4.5]decan-7-yl]-3-methoxy-2-methylpentanoic acid

> <PUBCHEM_IUPAC_SYSTEMATIC_NAME>
(2S,3R,4S)-4-[(2S,6R,7S,8R,9S)-2-[(2R,5S)-5-ethyl-5-[(2R,3S,5R)-5-[(2S,3S,5R,6R)-6-(hydroxymethyl)-3,5-dimethyl-6-oxidanyl-oxan-2-yl]-3-methyl-oxolan-2-yl]oxolan-2-yl]-2,8-dimethyl-9-oxidanyl-1,6-dioxaspiro[4.5]decan-7-yl]-3-methoxy-2-methyl-pentanoic acid

> <PUBCHEM_IUPAC_TRADITIONAL_NAME>
(2S,3R,4S)-4-[(2S,6R,7S,8R,9S)-2-[(2R,5S)-5-ethyl-5-[(2R,3S,5R)-5-[(2S,3S,5R,6R)-6-hydroxy-3,5-dimethyl-6-methylol-tetrahydropyran-2-yl]-3-methyl-tetrahydrofuran-2-yl]tetrahydrofuran-2-yl]-9-hydroxy-2,8-dimethyl-1,6-dioxaspiro[4.5]decan-7-yl]-3-methoxy-2-methyl-valeric acid

> <PUBCHEM_IUPAC_INCHI>
InChI=1S/C36H62O11/c1-10-34(31-20(3)16-26(43-31)28-19(2)15-21(4)36(41,18-37)46-28)12-11-27(44-34)33(8)13-14-35(47-33)17-25(38)22(5)30(45-35)23(6)29(42-9)24(7)32(39)40/h19-31,37-38,41H,10-18H2,1-9H3,(H,39,40)/t19-,20-,21+,22+,23-,24-,25-,26+,27+,28-,29+,30-,31+,33-,34-,35+,36-/m0/s1

> <PUBCHEM_IUPAC_INCHIKEY>
GAOZTHIDHYLHMS-KEOBGNEYSA-N

> <PUBCHEM_XLOGP3_AA>
4.2

> <PUBCHEM_EXACT_MASS>
670.429213

> <PUBCHEM_MOLECULAR_FORMULA>
C36H62O11

> <PUBCHEM_MOLECULAR_WEIGHT>
670.87088

> <PUBCHEM_OPENEYE_CAN_SMILES>
CCC1(CCC(O1)C2(CCC3(O2)CC(C(C(O3)C(C)C(C(C)C(=O)O)OC)C)O)C)C4C(CC(O4)C5C(CC(C(O5)(CO)O)C)C)C

> <PUBCHEM_OPENEYE_ISO_SMILES>
CC[C@]1(CC[C@@H](O1)[C@@]2(CC[C@@]3(O2)C[C@@H]([C@H]([C@H](O3)[C@@H](C)[C@H]([C@H](C)C(=O)O)OC)C)O)C)[C@H]4[C@H](C[C@@H](O4)[C@@H]5[C@H](C[C@H]([C@@](O5)(CO)O)C)C)C

> <PUBCHEM_CACTVS_TPSA>
153

> <PUBCHEM_MONOISOTOPIC_WEIGHT>
670.429213

> <PUBCHEM_TOTAL_CHARGE>
0

> <PUBCHEM_HEAVY_ATOM_COUNT>
47

> <PUBCHEM_ATOM_DEF_STEREO_COUNT>
17

> <PUBCHEM_ATOM_UDEF_STEREO_COUNT>
0

> <PUBCHEM_BOND_DEF_STEREO_COUNT>
0

> <PUBCHEM_BOND_UDEF_STEREO_COUNT>
0

> <PUBCHEM_ISOTOPIC_ATOM_COUNT>
0

> <PUBCHEM_COMPONENT_COUNT>
1

> <PUBCHEM_CACTVS_TAUTO_COUNT>
1

> <PUBCHEM_COORDINATE_TYPE>
1
5
255

> <PUBCHEM_BONDANNOTATIONS>
12  24  5
13  28  5
14  48  5
15  49  5
19  32  6
22  59  6
26  66  5
27  67  5
29  38  6
31  40  5
33  41  6
36  42  5
17  4  5
44  45  5
30  6  5
37  7  5
39  8  5

$$$$

