9340
  -OEChem-06261203383D

 39 41  0     1  0  0  0  0  0999 V2000
    5.5351   -0.0995    0.5336 Cl  0  0  0  0  0  0  0  0  0  0  0  0
   -1.0191    1.1964    0.0667 N   0  0  0  0  0  0  0  0  0  0  0  0
   -2.3941    3.7479    0.0637 N   0  0  0  0  0  0  0  0  0  0  0  0
   -0.3584    0.0708   -0.5909 C   0  0  1  0  0  0  0  0  0  0  0  0
   -2.4179    1.3063   -0.3664 C   0  0  0  0  0  0  0  0  0  0  0  0
   -0.2980    2.4492   -0.1929 C   0  0  0  0  0  0  0  0  0  0  0  0
   -3.1049    2.4922    0.3153 C   0  0  0  0  0  0  0  0  0  0  0  0
   -0.9975    3.6282    0.4881 C   0  0  0  0  0  0  0  0  0  0  0  0
    1.1355    0.0285   -0.3054 C   0  0  0  0  0  0  0  0  0  0  0  0
   -1.0320   -1.2581   -0.2821 C   0  0  0  0  0  0  0  0  0  0  0  0
    1.9961    0.6970   -1.1520 C   0  0  0  0  0  0  0  0  0  0  0  0
    1.5855   -0.6781    0.7915 C   0  0  0  0  0  0  0  0  0  0  0  0
   -0.9834   -2.2656   -1.2240 C   0  0  0  0  0  0  0  0  0  0  0  0
   -1.6712   -1.4166    0.9308 C   0  0  0  0  0  0  0  0  0  0  0  0
    3.3657    0.6573   -0.8909 C   0  0  0  0  0  0  0  0  0  0  0  0
    2.9553   -0.7179    1.0528 C   0  0  0  0  0  0  0  0  0  0  0  0
   -1.6006   -3.4841   -0.9410 C   0  0  0  0  0  0  0  0  0  0  0  0
   -2.2884   -2.6351    1.2137 C   0  0  0  0  0  0  0  0  0  0  0  0
    3.8453   -0.0501    0.2116 C   0  0  0  0  0  0  0  0  0  0  0  0
   -2.2530   -3.6688    0.2778 C   0  0  0  0  0  0  0  0  0  0  0  0
   -0.4671    0.2122   -1.6788 H   0  0  0  0  0  0  0  0  0  0  0  0
   -3.0206    0.4247   -0.1331 H   0  0  0  0  0  0  0  0  0  0  0  0
   -2.4728    1.4409   -1.4561 H   0  0  0  0  0  0  0  0  0  0  0  0
   -0.2164    2.6506   -1.2693 H   0  0  0  0  0  0  0  0  0  0  0  0
    0.7063    2.4392    0.2416 H   0  0  0  0  0  0  0  0  0  0  0  0
   -4.1296    2.5871   -0.0612 H   0  0  0  0  0  0  0  0  0  0  0  0
   -3.1824    2.3202    1.3963 H   0  0  0  0  0  0  0  0  0  0  0  0
   -0.9521    3.5231    1.5795 H   0  0  0  0  0  0  0  0  0  0  0  0
   -0.4726    4.5579    0.2414 H   0  0  0  0  0  0  0  0  0  0  0  0
   -2.4158    3.9406   -0.9382 H   0  0  0  0  0  0  0  0  0  0  0  0
    1.6395    1.2396   -2.0222 H   0  0  0  0  0  0  0  0  0  0  0  0
    0.9297   -1.1907    1.4848 H   0  0  0  0  0  0  0  0  0  0  0  0
   -0.4764   -2.1318   -2.1748 H   0  0  0  0  0  0  0  0  0  0  0  0
   -1.6936   -0.6448    1.6942 H   0  0  0  0  0  0  0  0  0  0  0  0
    4.0478    1.1796   -1.5567 H   0  0  0  0  0  0  0  0  0  0  0  0
    3.3147   -1.2686    1.9183 H   0  0  0  0  0  0  0  0  0  0  0  0
   -1.5723   -4.2893   -1.6693 H   0  0  0  0  0  0  0  0  0  0  0  0
   -2.7907   -2.7817    2.1654 H   0  0  0  0  0  0  0  0  0  0  0  0
   -2.7321   -4.6181    0.4989 H   0  0  0  0  0  0  0  0  0  0  0  0
  1 19  1  0  0  0  0
  2  4  1  0  0  0  0
  2  5  1  0  0  0  0
  2  6  1  0  0  0  0
  3  7  1  0  0  0  0
  3  8  1  0  0  0  0
  3 30  1  0  0  0  0
  4  9  1  0  0  0  0
  4 10  1  0  0  0  0
  4 21  1  0  0  0  0
  5  7  1  0  0  0  0
  5 22  1  0  0  0  0
  5 23  1  0  0  0  0
  6  8  1  0  0  0  0
  6 24  1  0  0  0  0
  6 25  1  0  0  0  0
  7 26  1  0  0  0  0
  7 27  1  0  0  0  0
  8 28  1  0  0  0  0
  8 29  1  0  0  0  0
  9 11  2  0  0  0  0
  9 12  1  0  0  0  0
 10 13  2  0  0  0  0
 10 14  1  0  0  0  0
 11 15  1  0  0  0  0
 11 31  1  0  0  0  0
 12 16  2  0  0  0  0
 12 32  1  0  0  0  0
 13 17  1  0  0  0  0
 13 33  1  0  0  0  0
 14 18  2  0  0  0  0
 14 34  1  0  0  0  0
 15 19  2  0  0  0  0
 15 35  1  0  0  0  0
 16 19  1  0  0  0  0
 16 36  1  0  0  0  0
 17 20  2  0  0  0  0
 17 37  1  0  0  0  0
 18 20  1  0  0  0  0
 18 38  1  0  0  0  0
 20 39  1  0  0  0  0
M  END
> <PUBCHEM_COMPOUND_CID>
9340

> <PUBCHEM_CONFORMER_RMSD>
0.6

> <PUBCHEM_CONFORMER_DIVERSEORDER>
1
5
8
2
7
6
3
4

> <PUBCHEM_MMFF94_PARTIAL_CHARGES>
30
1 -0.18
10 -0.14
11 -0.15
12 -0.15
13 -0.15
14 -0.15
15 -0.15
16 -0.15
17 -0.15
18 -0.15
19 0.18
2 -0.81
20 -0.15
3 -0.9
30 0.36
31 0.15
32 0.15
33 0.15
34 0.15
35 0.15
36 0.15
37 0.15
38 0.15
39 0.15
4 0.56
5 0.27
6 0.27
7 0.27
8 0.27
9 -0.14

> <PUBCHEM_EFFECTIVE_ROTOR_COUNT>
4.2

> <PUBCHEM_PHARMACOPHORE_FEATURES>
6
1 2 cation
1 3 cation
1 3 donor
6 10 13 14 17 18 20 rings
6 2 3 5 6 7 8 rings
6 9 11 12 15 16 19 rings

> <PUBCHEM_HEAVY_ATOM_COUNT>
20

> <PUBCHEM_ATOM_DEF_STEREO_COUNT>
0

> <PUBCHEM_ATOM_UDEF_STEREO_COUNT>
1

> <PUBCHEM_BOND_DEF_STEREO_COUNT>
0

> <PUBCHEM_BOND_UDEF_STEREO_COUNT>
0

> <PUBCHEM_ISOTOPIC_ATOM_COUNT>
0

> <PUBCHEM_COMPONENT_COUNT>
1

> <PUBCHEM_CACTVS_TAUTO_COUNT>
1

> <PUBCHEM_CONFORMER_ID>
0000247C00000001

> <PUBCHEM_MMFF94_ENERGY>
60.8225

> <PUBCHEM_FEATURE_SELFOVERLAP>
30.448

> <PUBCHEM_SHAPE_FINGERPRINT>
10090160 65 18124321768548814765
10319926 262 18263103097427694242
10411042 1 18122065291062095758
1100329 8 18339643343741527689
11357001 24 18412260610229452210
11578080 2 17606687911766305553
12553582 1 18049715222688875398
12643181 29 18121491626231206694
12788726 201 18198888250109252250
13004483 165 18265339395549684883
13134695 92 17834960767403443935
13140716 1 18338233743769418712
13149001 5 17979389424157879205
13538477 17 18344144800132420092
13583140 156 17677066672366937426
136203 1 18410293601180862369
13955234 65 17328293062262573601
14178342 30 18341907302955599506
14844126 61 18339091406142237210
15042514 8 18411694374779004187
15490181 8 18051688038616774951
15906896 17 18411141363464412423
16945 1 18340195362549045421
1813 80 17901370213417745662
200 152 17843974650060125610
20361792 2 17975698285808023894
20510252 161 18261954171136131865
20600515 1 17897703410900313147
20832881 197 17912647908721924387
21041028 32 18125434215984531235
21524375 3 18047481306944560341
21731228 192 18122621918607035408
22112679 90 18048858728620644335
22224240 67 18261950877550577785
23366157 5 17188681486566757045
23402539 116 18261123967106000101
23419403 2 17461176356829005779
23557571 272 18260266326799030524
23558518 356 18267306615209798119
23559900 14 18260552277637994338
23598288 3 18340198601228927350
23728640 28 18339367456216433218
25147074 1 17917704683410032020
266924 1 17986936467739321828
3091708 16 9345802098420179505
352729 6 18410564119812266501
43471831 8 17978511167580516749
474229 33 18339359781637415145
497634 4 15154380203899319548
5104073 3 18341909485210196304
6138700 20 17111282478090285870
7364860 26 17183336219299065983
7471813 234 18049732810458295630
81228 2 18337971007745173585
90316 7 18264478495130163211
9981440 41 18051413164963269913

> <PUBCHEM_SHAPE_MULTIPOLES>
403.5
6.51
4.78
1.12
10.44
2.02
-0.03
-1.4
1.19
-7.01
0.24
0.08
-0.52
-0.44

> <PUBCHEM_SHAPE_SELFOVERLAP>
857.921

> <PUBCHEM_SHAPE_VOLUME>
224.8

> <PUBCHEM_COORDINATE_TYPE>
2
5
10

$$$$

