5702198
  -OEChem-07051212522D

 11  8  0     0  0  0  0  0  0999 V2000
    0.8660    1.6800    0.0000 Pt  0  0  0  0  0  0  0  0  0  0  0  0
    1.7320    2.1800    0.0000 Cl  0  0  0  0  0  0  0  0  0  0  0  0
    0.0000    2.1800    0.0000 Cl  0  0  0  0  0  0  0  0  0  0  0  0
    4.2690    0.6200    0.0000 N   0  0  0  0  0  0  0  0  0  0  0  0
    4.2690    3.5500    0.0000 N   0  0  0  0  0  0  0  0  0  0  0  0
    4.8059    0.9300    0.0000 H   0  0  0  0  0  0  0  0  0  0  0  0
    3.7320    0.9300    0.0000 H   0  0  0  0  0  0  0  0  0  0  0  0
    4.2690    0.0000    0.0000 H   0  0  0  0  0  0  0  0  0  0  0  0
    4.8059    3.8600    0.0000 H   0  0  0  0  0  0  0  0  0  0  0  0
    3.7320    3.8600    0.0000 H   0  0  0  0  0  0  0  0  0  0  0  0
    4.2690    2.9300    0.0000 H   0  0  0  0  0  0  0  0  0  0  0  0
  1  2  1  0  0  0  0
  1  3  1  0  0  0  0
  4  6  1  0  0  0  0
  4  7  1  0  0  0  0
  4  8  1  0  0  0  0
  5  9  1  0  0  0  0
  5 10  1  0  0  0  0
  5 11  1  0  0  0  0
M  END
> <PUBCHEM_COMPOUND_CID>
5702198

> <PUBCHEM_COMPOUND_CANONICALIZED>
1

> <PUBCHEM_CACTVS_COMPLEXITY>
2.8

> <PUBCHEM_CACTVS_HBOND_ACCEPTOR>
2

> <PUBCHEM_CACTVS_HBOND_DONOR>
2

> <PUBCHEM_CACTVS_ROTATABLE_BOND>
0

> <PUBCHEM_CACTVS_SUBSKEYS>
AAADcYADAAAGAAAAAAAABAAAAAAAAAAAAAAAAAAAAAAAAAAAAAAAAAAQAAAAAAAAAAAAAAAAAAAAAAAAAAAAAAAAAAAAAAAAAAAAAAAAAAAAAAAAAAAAAAAAAAAAAAAAAAAAAAAAAAAAAAAAAAAAAAAAAA==

> <PUBCHEM_IUPAC_OPENEYE_NAME>
ammonia; dichloroplatinum

> <PUBCHEM_IUPAC_CAS_NAME>
ammonia; dichloroplatinum

> <PUBCHEM_IUPAC_NAME>
azane; dichloroplatinum

> <PUBCHEM_IUPAC_SYSTEMATIC_NAME>
azane; bis(chloranyl)platinum

> <PUBCHEM_IUPAC_TRADITIONAL_NAME>
ammonia; dichloroplatinum

> <PUBCHEM_IUPAC_INCHI>
InChI=1S/2ClH.2H3N.Pt/h2*1H;2*1H3;/q;;;;+2/p-2

> <PUBCHEM_IUPAC_INCHIKEY>
LXZZYRPGZAFOLE-UHFFFAOYSA-L

> <PUBCHEM_EXACT_MASS>
298.955595

> <PUBCHEM_MOLECULAR_FORMULA>
Cl2H6N2Pt

> <PUBCHEM_MOLECULAR_WEIGHT>
300.05104

> <PUBCHEM_OPENEYE_CAN_SMILES>
N.N.Cl[Pt]Cl

> <PUBCHEM_OPENEYE_ISO_SMILES>
N.N.Cl[Pt]Cl

> <PUBCHEM_CACTVS_TPSA>
2

> <PUBCHEM_MONOISOTOPIC_WEIGHT>
298.955595

> <PUBCHEM_TOTAL_CHARGE>
0

> <PUBCHEM_HEAVY_ATOM_COUNT>
5

> <PUBCHEM_ATOM_DEF_STEREO_COUNT>
0

> <PUBCHEM_ATOM_UDEF_STEREO_COUNT>
0

> <PUBCHEM_BOND_DEF_STEREO_COUNT>
0

> <PUBCHEM_BOND_UDEF_STEREO_COUNT>
0

> <PUBCHEM_ISOTOPIC_ATOM_COUNT>
0

> <PUBCHEM_COMPONENT_COUNT>
3

> <PUBCHEM_CACTVS_TAUTO_COUNT>
1

> <PUBCHEM_COORDINATE_TYPE>
1
5
255

$$$$

