440226
  -OEChem-07051212493D

 20 21  0     0  0  0  0  0  0999 V2000
   -1.1208    3.0198    0.0206 O   0  0  0  0  0  0  0  0  0  0  0  0
    1.8145   -2.3788    0.0058 O   0  0  0  0  0  0  0  0  0  0  0  0
   -0.8084   -2.4473    0.0031 O   0  0  0  0  0  0  0  0  0  0  0  0
   -3.1561   -1.2208   -0.0001 O   0  0  0  0  0  0  0  0  0  0  0  0
    0.4153   -0.3989   -0.0007 C   0  0  0  0  0  0  0  0  0  0  0  0
    0.2978    1.0000   -0.0049 C   0  0  0  0  0  0  0  0  0  0  0  0
   -1.0310    1.6382   -0.0082 C   0  0  0  0  0  0  0  0  0  0  0  0
    1.6678   -1.0240    0.0021 C   0  0  0  0  0  0  0  0  0  0  0  0
   -0.8047   -1.2262    0.0006 C   0  0  0  0  0  0  0  0  0  0  0  0
    1.4787    1.7595   -0.0061 C   0  0  0  0  0  0  0  0  0  0  0  0
   -2.1688    0.9311   -0.0072 C   0  0  0  0  0  0  0  0  0  0  0  0
   -2.1408   -0.5418   -0.0026 C   0  0  0  0  0  0  0  0  0  0  0  0
    2.8253   -0.2499    0.0008 C   0  0  0  0  0  0  0  0  0  0  0  0
    2.7313    1.1390   -0.0033 C   0  0  0  0  0  0  0  0  0  0  0  0
    1.4431    2.8466   -0.0098 H   0  0  0  0  0  0  0  0  0  0  0  0
   -3.1447    1.4045    0.0000 H   0  0  0  0  0  0  0  0  0  0  0  0
    3.8086   -0.7127    0.0028 H   0  0  0  0  0  0  0  0  0  0  0  0
    3.6337    1.7438   -0.0045 H   0  0  0  0  0  0  0  0  0  0  0  0
   -2.0592    3.2753    0.0232 H   0  0  0  0  0  0  0  0  0  0  0  0
    2.7607   -2.6030    0.0071 H   0  0  0  0  0  0  0  0  0  0  0  0
  1  7  1  0  0  0  0
  1 19  1  0  0  0  0
  2  8  1  0  0  0  0
  2 20  1  0  0  0  0
  3  9  2  0  0  0  0
  4 12  2  0  0  0  0
  5  6  2  0  0  0  0
  5  8  1  0  0  0  0
  5  9  1  0  0  0  0
  6  7  1  0  0  0  0
  6 10  1  0  0  0  0
  7 11  2  0  0  0  0
  8 13  2  0  0  0  0
  9 12  1  0  0  0  0
 10 14  2  0  0  0  0
 10 15  1  0  0  0  0
 11 12  1  0  0  0  0
 11 16  1  0  0  0  0
 13 14  1  0  0  0  0
 13 17  1  0  0  0  0
 14 18  1  0  0  0  0
M  END
> <PUBCHEM_COMPOUND_CID>
440226

> <PUBCHEM_CONFORMER_RMSD>
0.4

> <PUBCHEM_CONFORMER_DIVERSEORDER>
1

> <PUBCHEM_MMFF94_PARTIAL_CHARGES>
20
1 -0.53
10 -0.15
11 -0.14
12 0.56
13 -0.15
14 -0.15
15 0.15
16 0.15
17 0.15
18 0.15
19 0.45
2 -0.53
20 0.45
3 -0.57
4 -0.57
5 0.09
6 0.03
7 0.05
8 0.08
9 0.48

> <PUBCHEM_EFFECTIVE_ROTOR_COUNT>
0

> <PUBCHEM_PHARMACOPHORE_FEATURES>
6
1 1 donor
1 2 donor
1 3 acceptor
1 4 acceptor
6 5 6 7 9 11 12 rings
6 5 6 8 10 13 14 rings

> <PUBCHEM_HEAVY_ATOM_COUNT>
14

> <PUBCHEM_ATOM_DEF_STEREO_COUNT>
0

> <PUBCHEM_ATOM_UDEF_STEREO_COUNT>
0

> <PUBCHEM_BOND_DEF_STEREO_COUNT>
0

> <PUBCHEM_BOND_UDEF_STEREO_COUNT>
0

> <PUBCHEM_ISOTOPIC_ATOM_COUNT>
0

> <PUBCHEM_COMPONENT_COUNT>
1

> <PUBCHEM_CACTVS_TAUTO_COUNT>
15

> <PUBCHEM_CONFORMER_ID>
0006B7A200000001

> <PUBCHEM_MMFF94_ENERGY>
35.6684

> <PUBCHEM_FEATURE_SELFOVERLAP>
30.476

> <PUBCHEM_SHAPE_FINGERPRINT>
10967382 1 18266459793550205957
11206711 2 18411695517176923900
12382932 28 18193841444376848546
12524768 44 18337387141153522615
13140716 1 18194684752731495768
16945 1 18410573976777852836
193761 8 18266458900165379364
19973954 147 18338516459938533980
20510252 161 18333450932681739592
20588541 1 18268710498316178699
21501502 16 18338796818313502920
2334 1 17185595715746704649
23402539 116 18261686860882201839
23419403 2 15964365234229343985
23463225 33 18269559351431387456
23552423 10 18342735243141528364
23559900 14 17613434867893338638
241688 4 18411419505520023889
2748010 2 18194402422993021844
2897 32 18412543232099379548
528886 8 18193561060401010682
66348 1 18267304420375507836

> <PUBCHEM_SHAPE_MULTIPOLES>
264.64
3.89
2.75
0.59
0.07
0.31
0
-0.41
0
-0.33
0.01
0.03
0.02
-0.01

> <PUBCHEM_SHAPE_SELFOVERLAP>
586.599

> <PUBCHEM_SHAPE_VOLUME>
139.9

> <PUBCHEM_COORDINATE_TYPE>
2
5
10

$$$$

