17395813
  -OEChem-06241222523D

 41 42  0     1  0  0  0  0  0999 V2000
    0.4578   -1.1959    0.5241 O   0  0  0  0  0  0  0  0  0  0  0  0
    2.9277   -2.4608    0.2956 O   0  0  0  0  0  0  0  0  0  0  0  0
   -1.8776   -0.2906    1.3837 O   0  0  0  0  0  0  0  0  0  0  0  0
   -6.1967    0.6770   -0.8531 O   0  0  0  0  0  0  0  0  0  0  0  0
    5.1049    2.9186   -0.8386 O   0  0  0  0  0  0  0  0  0  0  0  0
   -2.8396   -0.3725   -0.7580 N   0  0  0  0  0  0  0  0  0  0  0  0
   -5.0586    0.1997   -1.4920 N   0  0  0  0  0  0  0  0  0  0  0  0
   -0.5517   -1.0698   -0.4637 C   0  0  2  0  0  0  0  0  0  0  0  0
    1.6045   -0.4660    0.3375 C   0  0  0  0  0  0  0  0  0  0  0  0
   -1.8243   -0.5254    0.1799 C   0  0  0  0  0  0  0  0  0  0  0  0
    2.8401   -1.1034    0.2242 C   0  0  0  0  0  0  0  0  0  0  0  0
   -0.7913   -2.4416   -1.0743 C   0  0  0  0  0  0  0  0  0  0  0  0
    3.9221    1.0408   -0.0395 C   0  0  0  0  0  0  0  0  0  0  0  0
    1.5278    0.9248    0.2621 C   0  0  0  0  0  0  0  0  0  0  0  0
    3.9988   -0.3500    0.0356 C   0  0  0  0  0  0  0  0  0  0  0  0
    2.6866    1.6782    0.0738 C   0  0  0  0  0  0  0  0  0  0  0  0
   -4.1430    0.0835   -0.5259 C   0  0  0  0  0  0  0  0  0  0  0  0
    5.1299    1.8263   -0.2370 C   0  0  0  0  0  0  0  0  0  0  0  0
   -4.6411    0.4692    0.7306 C   0  0  0  0  0  0  0  0  0  0  0  0
   -5.9356    0.8334    0.4699 C   0  0  0  0  0  0  0  0  0  0  0  0
    6.4686    1.3244    0.2933 C   0  0  0  0  0  0  0  0  0  0  0  0
   -7.0373    1.3339    1.3012 C   0  0  0  0  0  0  0  0  0  0  0  0
    4.2279   -3.0339    0.1705 C   0  0  0  0  0  0  0  0  0  0  0  0
   -0.2558   -0.3806   -1.2666 H   0  0  0  0  0  0  0  0  0  0  0  0
   -1.1813   -3.1387   -0.3235 H   0  0  0  0  0  0  0  0  0  0  0  0
   -1.4982   -2.4136   -1.9083 H   0  0  0  0  0  0  0  0  0  0  0  0
    0.1496   -2.8669   -1.4409 H   0  0  0  0  0  0  0  0  0  0  0  0
    0.5743    1.4367    0.3594 H   0  0  0  0  0  0  0  0  0  0  0  0
    4.9763   -0.8046   -0.0758 H   0  0  0  0  0  0  0  0  0  0  0  0
    2.6080    2.7612    0.0238 H   0  0  0  0  0  0  0  0  0  0  0  0
   -2.6492   -0.5877   -1.7328 H   0  0  0  0  0  0  0  0  0  0  0  0
   -4.1627    0.4922    1.6976 H   0  0  0  0  0  0  0  0  0  0  0  0
    6.9559    0.7083   -0.4662 H   0  0  0  0  0  0  0  0  0  0  0  0
    6.3324    0.7552    1.2169 H   0  0  0  0  0  0  0  0  0  0  0  0
    7.1034    2.1840    0.5287 H   0  0  0  0  0  0  0  0  0  0  0  0
   -7.3630    2.3198    0.9556 H   0  0  0  0  0  0  0  0  0  0  0  0
   -7.8931    0.6534    1.2564 H   0  0  0  0  0  0  0  0  0  0  0  0
   -6.7321    1.4259    2.3482 H   0  0  0  0  0  0  0  0  0  0  0  0
    4.6617   -2.8397   -0.8163 H   0  0  0  0  0  0  0  0  0  0  0  0
    4.8879   -2.7222    0.9873 H   0  0  0  0  0  0  0  0  0  0  0  0
    4.1100   -4.1193    0.2559 H   0  0  0  0  0  0  0  0  0  0  0  0
  1  8  1  0  0  0  0
  1  9  1  0  0  0  0
  2 11  1  0  0  0  0
  2 23  1  0  0  0  0
  3 10  2  0  0  0  0
  4  7  1  0  0  0  0
  4 20  1  0  0  0  0
  5 18  2  0  0  0  0
  6 10  1  0  0  0  0
  6 17  1  0  0  0  0
  6 31  1  0  0  0  0
  7 17  2  0  0  0  0
  8 10  1  0  0  0  0
  8 12  1  0  0  0  0
  8 24  1  0  0  0  0
  9 11  2  0  0  0  0
  9 14  1  0  0  0  0
 11 15  1  0  0  0  0
 12 25  1  0  0  0  0
 12 26  1  0  0  0  0
 12 27  1  0  0  0  0
 13 15  2  0  0  0  0
 13 16  1  0  0  0  0
 13 18  1  0  0  0  0
 14 16  2  0  0  0  0
 14 28  1  0  0  0  0
 15 29  1  0  0  0  0
 16 30  1  0  0  0  0
 17 19  1  0  0  0  0
 18 21  1  0  0  0  0
 19 20  2  0  0  0  0
 19 32  1  0  0  0  0
 20 22  1  0  0  0  0
 21 33  1  0  0  0  0
 21 34  1  0  0  0  0
 21 35  1  0  0  0  0
 22 36  1  0  0  0  0
 22 37  1  0  0  0  0
 22 38  1  0  0  0  0
 23 39  1  0  0  0  0
 23 40  1  0  0  0  0
 23 41  1  0  0  0  0
M  END
> <PUBCHEM_COMPOUND_CID>
17395813

> <PUBCHEM_CONFORMER_RMSD>
0.8

> <PUBCHEM_CONFORMER_DIVERSEORDER>
1
42
37
12
160
108
17
63
112
201
147
45
120
101
124
36
48
139
89
78
221
158
204
57
206
223
182
196
227
53
220
134
43
106
145
146
66
8
79
198
236
184
190
232
61
156
138
135
127
177
81
28
25
82
173
72
197
151
35
31
230
142
93
114
86
77
216
189
40
90
183
170
105
191
39
168
115
103
51
6
235
150
119
141
229
133
50
11
30
34
9
128
186
215
65
233
213
219
32
113
19
44
104
10
149
94
164
187
109
56
58
88
167
210
188
117
98
174
21
62
194
16
71
209
74
110
226
97
172
178
199
116
49
161
231
137
166
179
136
155
83
157
55
100
195
4
140
47
208
85
193
29
200
125
212
111
84
95
131
122
148
102
121
23
152
7
33
203
41
214
126
5
211
107
237
171
54
162
75
60
67
69
59
38
118
87
143
80
192
181
70
205
169
13
176
99
234
2
130
22
92
165
218
225
73
14
224
144
3
18
222
20
159
76
123
185
64
52
15
202
163
217
129
175
46
207
180
154
228
27
153
24
26
91
96
68
132

> <PUBCHEM_MMFF94_PARTIAL_CHARGES>
27
1 -0.36
10 0.57
11 0.08
13 0.09
14 -0.15
15 -0.15
16 -0.15
17 0.35
18 0.42
19 -0.15
2 -0.36
20 -0.04
21 0.06
22 0.18
23 0.28
28 0.15
29 0.15
3 -0.57
30 0.15
31 0.37
32 0.15
4 -0.02
5 -0.57
6 -0.49
7 -0.41
8 0.34
9 0.08

> <PUBCHEM_EFFECTIVE_ROTOR_COUNT>
7

> <PUBCHEM_PHARMACOPHORE_FEATURES>
7
1 1 acceptor
1 2 acceptor
1 3 acceptor
1 5 acceptor
1 6 donor
5 4 7 17 19 20 rings
6 9 11 13 14 15 16 rings

> <PUBCHEM_HEAVY_ATOM_COUNT>
23

> <PUBCHEM_ATOM_DEF_STEREO_COUNT>
0

> <PUBCHEM_ATOM_UDEF_STEREO_COUNT>
1

> <PUBCHEM_BOND_DEF_STEREO_COUNT>
0

> <PUBCHEM_BOND_UDEF_STEREO_COUNT>
0

> <PUBCHEM_ISOTOPIC_ATOM_COUNT>
0

> <PUBCHEM_COMPONENT_COUNT>
1

> <PUBCHEM_CACTVS_TAUTO_COUNT>
6

> <PUBCHEM_CONFORMER_ID>
0109706500000001

> <PUBCHEM_MMFF94_ENERGY>
67.7209

> <PUBCHEM_FEATURE_SELFOVERLAP>
35.534

> <PUBCHEM_SHAPE_FINGERPRINT>
10 15 17060055913170524781
10411042 1 17907860953375938874
10554248 39 17823707554367933941
10595046 47 18335424560780743303
11089746 13 17749393624825296160
11796584 16 5039659357845945037
12236239 1 17967254217348400387
12403259 415 17846500387314207951
12616971 3 18187089502959647751
12730499 353 18130783473408858826
12788726 201 17458335377295995041
13167372 99 18189614015985280513
13533116 47 18261114114287674450
13785724 45 17685771724076744374
13955234 65 17988086719662807746
14251764 75 18337386050231848980
14341114 176 18201152243719985345
15081414 286 18272932730262393940
15183329 4 17458063781414152961
15475509 35 16271656701638418522
1577012 14 18040155141490235369
17844677 252 18269835479453389589
17980427 26 17680457488817626436
18335252 98 18341327791750936979
20157964 124 18412265055720998587
20612939 158 18409450318659504295
21033648 144 18342463642732747935
21033650 10 15574978594664652651
21298829 104 18333730208682946656
21421861 104 18201453505864483746
21637258 2 9223237316847931773
23081809 10 17967540094925084823
23402655 69 18261395511886349814
25147074 1 18263100863222611318
2838139 119 18341057341164094797
29717793 49 17530959211780593886
3004659 81 17895474834054392814
335352 9 18410855461262519686
34934 24 18335987480616762874
397830 11 17988066821637955219
4072396 5 18340218427594187016
4073 2 18201714016689351051
4340502 62 17275103933601497578
5104073 3 18271533008952429682
5385378 56 18412547617888756002
8272917 22 18409448111500189870

> <PUBCHEM_SHAPE_MULTIPOLES>
434.02
16.97
2.61
1.03
16.41
1.02
-0.05
-10.57
0.78
-4.7
-0.23
1.26
-0.04
-1.48

> <PUBCHEM_SHAPE_SELFOVERLAP>
913.084

> <PUBCHEM_SHAPE_VOLUME>
245.9

> <PUBCHEM_COORDINATE_TYPE>
2
5
10

$$$$

