441294
  -OEChem-07051212533D

 54 59  0     1  0  0  0  0  0999 V2000
   -0.3322    0.4851   -1.6786 O   0  0  0  0  0  0  0  0  0  0  0  0
    0.3875    2.7261    0.7763 O   0  0  0  0  0  0  0  0  0  0  0  0
    0.2879   -1.8026   -1.6531 O   0  0  0  0  0  0  0  0  0  0  0  0
   -3.3764   -0.3780    1.5531 O   0  0  0  0  0  0  0  0  0  0  0  0
   -2.9269    2.0551   -0.1639 O   0  0  0  0  0  0  0  0  0  0  0  0
   -1.1352   -1.7592    1.1157 O   0  0  0  0  0  0  0  0  0  0  0  0
    1.6653   -2.0687    1.5692 O   0  0  0  0  0  0  0  0  0  0  0  0
   -0.4969    3.2946   -1.2504 O   0  0  0  0  0  0  0  0  0  0  0  0
    0.5793   -3.7735   -0.5218 O   0  0  0  0  0  0  0  0  0  0  0  0
   -4.8905   -1.4278    0.1908 O   0  0  0  0  0  0  0  0  0  0  0  0
    0.1267    0.3371    0.6826 C   0  0  2  0  0  0  0  0  0  0  0  0
    1.2929   -0.3246   -0.1001 C   0  0  2  0  0  0  0  0  0  0  0  0
   -0.7019    1.0172   -0.4169 C   0  0  2  0  0  0  0  0  0  0  0  0
    0.7285    1.5163    1.4659 C   0  0  1  0  0  0  0  0  0  0  0  0
    2.4401    0.7262    0.0029 C   0  0  1  0  0  0  0  0  0  0  0  0
   -2.1926    0.8364   -0.0768 C   0  0  1  0  0  0  0  0  0  0  0  0
   -0.8994   -0.4314    1.5459 C   0  0  1  0  0  0  0  0  0  0  0  0
    0.7430   -0.4484   -1.5149 C   0  0  2  0  0  0  0  0  0  0  0  0
   -2.1860    0.3906    1.3753 C   0  0  2  0  0  0  0  0  0  0  0  0
    2.2362    1.3231    1.3949 C   0  0  0  0  0  0  0  0  0  0  0  0
    1.7202   -1.7536    0.2049 C   0  0  2  0  0  0  0  0  0  0  0  0
   -0.2735    2.4638   -0.3826 C   0  0  0  0  0  0  0  0  0  0  0  0
    3.8726    0.2488   -0.1984 C   0  0  0  0  0  0  0  0  0  0  0  0
   -2.9612   -0.2868   -0.7742 C   0  0  1  0  0  0  0  0  0  0  0  0
    0.8131   -2.5836   -0.6647 C   0  0  0  0  0  0  0  0  0  0  0  0
   -3.8759   -0.7626    0.3349 C   0  0  0  0  0  0  0  0  0  0  0  0
    4.8497    1.4191    0.0156 C   0  0  0  0  0  0  0  0  0  0  0  0
    4.1989   -0.8687    0.8090 C   0  0  0  0  0  0  0  0  0  0  0  0
    4.0473   -0.2963   -1.6274 C   0  0  0  0  0  0  0  0  0  0  0  0
   -3.7404    0.1262   -2.0131 C   0  0  0  0  0  0  0  0  0  0  0  0
    0.3852    1.6054    2.5012 H   0  0  0  0  0  0  0  0  0  0  0  0
    2.2548    1.5202   -0.7359 H   0  0  0  0  0  0  0  0  0  0  0  0
   -0.6104   -0.4807    2.6009 H   0  0  0  0  0  0  0  0  0  0  0  0
    1.4638   -0.2610   -2.3131 H   0  0  0  0  0  0  0  0  0  0  0  0
   -2.2085    1.2437    2.0637 H   0  0  0  0  0  0  0  0  0  0  0  0
    2.5440    0.6722    2.2148 H   0  0  0  0  0  0  0  0  0  0  0  0
    2.7495    2.2838    1.5052 H   0  0  0  0  0  0  0  0  0  0  0  0
    2.6507   -2.0933   -0.2226 H   0  0  0  0  0  0  0  0  0  0  0  0
   -2.3076   -1.1285   -1.0248 H   0  0  0  0  0  0  0  0  0  0  0  0
   -3.7992    1.9207    0.2440 H   0  0  0  0  0  0  0  0  0  0  0  0
   -1.8124   -2.1411    1.6997 H   0  0  0  0  0  0  0  0  0  0  0  0
    4.5803    2.2793   -0.6076 H   0  0  0  0  0  0  0  0  0  0  0  0
    5.8723    1.1300   -0.2553 H   0  0  0  0  0  0  0  0  0  0  0  0
    4.8823    1.7512    1.0585 H   0  0  0  0  0  0  0  0  0  0  0  0
    4.3655   -1.8582    0.3714 H   0  0  0  0  0  0  0  0  0  0  0  0
    3.6095   -0.9189    1.7194 H   0  0  0  0  0  0  0  0  0  0  0  0
    5.2048   -0.6659    1.2116 H   0  0  0  0  0  0  0  0  0  0  0  0
    3.4576   -1.1841   -1.8578 H   0  0  0  0  0  0  0  0  0  0  0  0
    5.0946   -0.5737   -1.8011 H   0  0  0  0  0  0  0  0  0  0  0  0
    3.7968    0.4714   -2.3689 H   0  0  0  0  0  0  0  0  0  0  0  0
   -4.5499    0.8252   -1.7770 H   0  0  0  0  0  0  0  0  0  0  0  0
   -3.0813    0.5929   -2.7517 H   0  0  0  0  0  0  0  0  0  0  0  0
   -4.2041   -0.7496   -2.4804 H   0  0  0  0  0  0  0  0  0  0  0  0
    1.2771   -1.3422    2.0763 H   0  0  0  0  0  0  0  0  0  0  0  0
  1 13  1  0  0  0  0
  1 18  1  0  0  0  0
  2 14  1  0  0  0  0
  2 22  1  0  0  0  0
  3 18  1  0  0  0  0
  3 25  1  0  0  0  0
  4 19  1  0  0  0  0
  4 26  1  0  0  0  0
  5 16  1  0  0  0  0
  5 40  1  0  0  0  0
  6 17  1  0  0  0  0
  6 41  1  0  0  0  0
  7 21  1  0  0  0  0
  7 54  1  0  0  0  0
  8 22  2  0  0  0  0
  9 25  2  0  0  0  0
 10 26  2  0  0  0  0
 11 12  1  0  0  0  0
 11 13  1  0  0  0  0
 11 14  1  0  0  0  0
 11 17  1  0  0  0  0
 12 15  1  0  0  0  0
 12 18  1  0  0  0  0
 12 21  1  0  0  0  0
 13 16  1  0  0  0  0
 13 22  1  0  0  0  0
 14 20  1  0  0  0  0
 14 31  1  0  0  0  0
 15 20  1  0  0  0  0
 15 23  1  0  0  0  0
 15 32  1  0  0  0  0
 16 19  1  0  0  0  0
 16 24  1  0  0  0  0
 17 19  1  0  0  0  0
 17 33  1  0  0  0  0
 18 34  1  0  0  0  0
 19 35  1  0  0  0  0
 20 36  1  0  0  0  0
 20 37  1  0  0  0  0
 21 25  1  0  0  0  0
 21 38  1  0  0  0  0
 23 27  1  0  0  0  0
 23 28  1  0  0  0  0
 23 29  1  0  0  0  0
 24 26  1  0  0  0  0
 24 30  1  0  0  0  0
 24 39  1  0  0  0  0
 27 42  1  0  0  0  0
 27 43  1  0  0  0  0
 27 44  1  0  0  0  0
 28 45  1  0  0  0  0
 28 46  1  0  0  0  0
 28 47  1  0  0  0  0
 29 48  1  0  0  0  0
 29 49  1  0  0  0  0
 29 50  1  0  0  0  0
 30 51  1  0  0  0  0
 30 52  1  0  0  0  0
 30 53  1  0  0  0  0
M  END
> <PUBCHEM_COMPOUND_CID>
441294

> <PUBCHEM_CONFORMER_RMSD>
0.8

> <PUBCHEM_CONFORMER_DIVERSEORDER>
2
4
1
3

> <PUBCHEM_MMFF94_PARTIAL_CHARGES>
24
1 -0.56
10 -0.57
13 0.34
14 0.28
16 0.28
17 0.28
18 0.56
19 0.28
2 -0.43
21 0.34
22 0.66
24 0.06
25 0.66
26 0.66
3 -0.43
4 -0.43
40 0.4
41 0.4
5 -0.68
54 0.4
6 -0.68
7 -0.68
8 -0.57
9 -0.57

> <PUBCHEM_EFFECTIVE_ROTOR_COUNT>
2.8

> <PUBCHEM_PHARMACOPHORE_FEATURES>
17
1 1 acceptor
1 10 acceptor
1 5 acceptor
1 5 donor
1 6 acceptor
1 6 donor
1 7 acceptor
1 7 donor
1 8 acceptor
1 9 acceptor
4 23 27 28 29 hydrophobe
5 1 11 12 13 18 rings
5 11 12 14 15 20 rings
5 11 13 16 17 19 rings
5 2 11 13 14 22 rings
5 3 12 18 21 25 rings
5 4 16 19 24 26 rings

> <PUBCHEM_HEAVY_ATOM_COUNT>
30

> <PUBCHEM_ATOM_DEF_STEREO_COUNT>
7

> <PUBCHEM_ATOM_UDEF_STEREO_COUNT>
4

> <PUBCHEM_BOND_DEF_STEREO_COUNT>
0

> <PUBCHEM_BOND_UDEF_STEREO_COUNT>
0

> <PUBCHEM_ISOTOPIC_ATOM_COUNT>
0

> <PUBCHEM_COMPONENT_COUNT>
1

> <PUBCHEM_CACTVS_TAUTO_COUNT>
6

> <PUBCHEM_CONFORMER_ID>
0006BBCE00000002

> <PUBCHEM_MMFF94_ENERGY>
148.7144

> <PUBCHEM_FEATURE_SELFOVERLAP>
89.618

> <PUBCHEM_SHAPE_FINGERPRINT>
10863032 1 17988649656577565992
10906281 52 18200290179201309441
10948715 1 18412263943403395368
1100329 8 18119249450187965062
11370993 70 17275390906136587242
11578080 2 17128455634075761588
12011746 2 18411135792648865983
12035758 1 18264489477556361320
12236239 1 16950275183290082393
12788726 201 16736079520942284145
12969540 114 18339648836998983236
13140716 1 17980184302281772899
13224815 77 18409164445873510012
13583140 156 17489307430571647784
13911987 19 18341045216571288172
13965767 371 16231340938689070073
14223421 5 18194962074474882772
14787075 74 17895474713668415496
14790565 3 18335129865441827120
14955137 171 17677031465628357913
15209289 33 17821723910109256426
15848702 151 16950830501344997284
16945 1 18131347509988901840
17349148 13 17489581290238961670
17492 54 18336274435623343812
17980427 23 17632566141670199428
1813 80 18262222361726417460
18981168 100 5760217598506865034
19591789 44 18334580139892572446
20028762 73 17677896721351258815
20691752 17 18118994440968563598
20905425 154 18267868461387934842
21330990 113 18410288129471707052
21421861 104 17981877850525132955
22393880 68 18041576805155080533
23227448 37 18049435951600093316
23419403 2 15975885917186637267
23559900 14 18051417563262734682
238 59 18267329623301597453
2748010 2 18267582395180862288
296302 2 17418089931756866340
3493558 16 16917068854115926316
9709674 26 18051697946821724054

> <PUBCHEM_SHAPE_MULTIPOLES>
558.69
6.97
2.87
1.69
0.3
0.45
0.18
0.39
0.45
0.39
0.29
-0.35
0.06
0.41

> <PUBCHEM_SHAPE_SELFOVERLAP>
1281.492

> <PUBCHEM_SHAPE_VOLUME>
289.2

> <PUBCHEM_COORDINATE_TYPE>
2
5
10

$$$$

