4479243
  -OEChem-07051212553D

 26 26  0     1  0  0  0  0  0999 V2000
    2.0443    0.3275   -1.2214 O   0  5  0  0  0  0  0  0  0  0  0  0
    2.6566    0.4363    0.9803 O   0  0  0  0  0  0  0  0  0  0  0  0
   -0.3991   -0.9467    0.0365 N   0  3  0  0  0  0  0  0  0  0  0  0
    0.3751    0.3307    0.4375 C   0  0  2  0  0  0  0  0  0  0  0  0
   -1.8750   -0.8182    0.4468 C   0  0  0  0  0  0  0  0  0  0  0  0
   -0.2798    1.5821   -0.1485 C   0  0  0  0  0  0  0  0  0  0  0  0
   -2.5185    0.4318   -0.1379 C   0  0  0  0  0  0  0  0  0  0  0  0
   -1.7497    1.6902    0.2348 C   0  0  0  0  0  0  0  0  0  0  0  0
    0.1904   -2.1393    0.8049 C   0  0  0  0  0  0  0  0  0  0  0  0
   -0.2802   -1.2631   -1.4558 C   0  0  0  0  0  0  0  0  0  0  0  0
    1.8358    0.3685    0.0228 C   0  0  0  0  0  0  0  0  0  0  0  0
    0.3078    0.3815    1.5332 H   0  0  0  0  0  0  0  0  0  0  0  0
   -1.9020   -0.7810    1.5427 H   0  0  0  0  0  0  0  0  0  0  0  0
   -2.3960   -1.7236    0.1157 H   0  0  0  0  0  0  0  0  0  0  0  0
   -0.1919    1.6180   -1.2408 H   0  0  0  0  0  0  0  0  0  0  0  0
    0.2427    2.4757    0.2178 H   0  0  0  0  0  0  0  0  0  0  0  0
   -3.5475    0.5135    0.2310 H   0  0  0  0  0  0  0  0  0  0  0  0
   -2.5875    0.3493   -1.2286 H   0  0  0  0  0  0  0  0  0  0  0  0
   -2.1989    2.5595   -0.2587 H   0  0  0  0  0  0  0  0  0  0  0  0
   -1.8325    1.8615    1.3153 H   0  0  0  0  0  0  0  0  0  0  0  0
   -0.3863   -3.0324    0.5460 H   0  0  0  0  0  0  0  0  0  0  0  0
    1.2365   -2.2655    0.5122 H   0  0  0  0  0  0  0  0  0  0  0  0
    0.1157   -1.9337    1.8768 H   0  0  0  0  0  0  0  0  0  0  0  0
    0.7282   -1.6228   -1.6741 H   0  0  0  0  0  0  0  0  0  0  0  0
   -0.9894   -2.0651   -1.6860 H   0  0  0  0  0  0  0  0  0  0  0  0
   -0.5253   -0.3795   -2.0466 H   0  0  0  0  0  0  0  0  0  0  0  0
  1 11  1  0  0  0  0
  2 11  2  0  0  0  0
  3  4  1  0  0  0  0
  3  5  1  0  0  0  0
  3  9  1  0  0  0  0
  3 10  1  0  0  0  0
  4  6  1  0  0  0  0
  4 11  1  0  0  0  0
  4 12  1  0  0  0  0
  5  7  1  0  0  0  0
  5 13  1  0  0  0  0
  5 14  1  0  0  0  0
  6  8  1  0  0  0  0
  6 15  1  0  0  0  0
  6 16  1  0  0  0  0
  7  8  1  0  0  0  0
  7 17  1  0  0  0  0
  7 18  1  0  0  0  0
  8 19  1  0  0  0  0
  8 20  1  0  0  0  0
  9 21  1  0  0  0  0
  9 22  1  0  0  0  0
  9 23  1  0  0  0  0
 10 24  1  0  0  0  0
 10 25  1  0  0  0  0
 10 26  1  0  0  0  0
M  CHG  2   1  -1   3   1
M  END
> <PUBCHEM_COMPOUND_CID>
4479243

> <PUBCHEM_CONFORMER_RMSD>
0.6

> <PUBCHEM_CONFORMER_DIVERSEORDER>
3
7
1
2
6
5
4

> <PUBCHEM_MMFF94_PARTIAL_CHARGES>
8
1 -0.9
10 0.5
11 0.91
2 -0.9
3 -1.01
4 0.4
5 0.5
9 0.5

> <PUBCHEM_EFFECTIVE_ROTOR_COUNT>
2.2

> <PUBCHEM_PHARMACOPHORE_FEATURES>
5
1 1 acceptor
1 2 acceptor
1 3 cation
3 1 2 11 anion
6 3 4 5 6 7 8 rings

> <PUBCHEM_HEAVY_ATOM_COUNT>
11

> <PUBCHEM_ATOM_DEF_STEREO_COUNT>
0

> <PUBCHEM_ATOM_UDEF_STEREO_COUNT>
1

> <PUBCHEM_BOND_DEF_STEREO_COUNT>
0

> <PUBCHEM_BOND_UDEF_STEREO_COUNT>
0

> <PUBCHEM_ISOTOPIC_ATOM_COUNT>
0

> <PUBCHEM_COMPONENT_COUNT>
1

> <PUBCHEM_CACTVS_TAUTO_COUNT>
1

> <PUBCHEM_CONFORMER_ID>
0044590B00000003

> <PUBCHEM_MMFF94_ENERGY>
28.0157

> <PUBCHEM_FEATURE_SELFOVERLAP>
25.425

> <PUBCHEM_SHAPE_FINGERPRINT>
12423570 1 6931214481452882734
12524768 44 18045494210181160604
13024252 1 18059587836151479218
137420 1 10108312385643344111
15775835 57 18334861657423213432
16945 1 18410851045160296393
20511035 2 17978521058731645073
20871998 184 18044092362962637470
21040471 1 18411415158796757768
23552423 10 18128249193506217235
2748010 2 18124308569934387685
29004967 10 16370441150782294664
369184 2 18336840692638383120
5084963 1 18336251431593967496
528862 383 17914910956526761531
54338 74 17979099109637052928

> <PUBCHEM_SHAPE_MULTIPOLES>
209.66
3.01
1.92
1.08
0.39
0.46
0.3
-0.98
-0.26
-0.39
-0.19
0.34
0.31
-0.03

> <PUBCHEM_SHAPE_SELFOVERLAP>
409.779

> <PUBCHEM_SHAPE_VOLUME>
126.8

> <PUBCHEM_COORDINATE_TYPE>
2
5
10

$$$$

