5281679
  -OEChem-07051212582D

 35 37  0     0  0  0  0  0  0999 V2000
    6.8671    0.2704    0.0000 O   0  0  0  0  0  0  0  0  0  0  0  0
    8.6155   -2.7642    0.0000 O   0  0  0  0  0  0  0  0  0  0  0  0
    5.1350   -1.7296    0.0000 O   0  0  0  0  0  0  0  0  0  0  0  0
   10.3972    0.2945    0.0000 O   0  0  0  0  0  0  0  0  0  0  0  0
    6.8671   -2.7296    0.0000 O   0  0  0  0  0  0  0  0  0  0  0  0
    4.2690    2.7704    0.0000 O   0  0  0  0  0  0  0  0  0  0  0  0
    2.5369    1.7704    0.0000 O   0  0  0  0  0  0  0  0  0  0  0  0
    7.7331   -1.2296    0.0000 C   0  0  0  0  0  0  0  0  0  0  0  0
    7.7331   -0.2296    0.0000 C   0  0  0  0  0  0  0  0  0  0  0  0
    8.6270   -1.7643    0.0000 C   0  0  0  0  0  0  0  0  0  0  0  0
    6.0010   -0.2296    0.0000 C   0  0  0  0  0  0  0  0  0  0  0  0
    9.5331   -1.2504    0.0000 C   0  0  0  0  0  0  0  0  0  0  0  0
    6.8671   -1.7296    0.0000 C   0  0  0  0  0  0  0  0  0  0  0  0
    6.0010   -1.2296    0.0000 C   0  0  0  0  0  0  0  0  0  0  0  0
    8.6270    0.3051    0.0000 C   0  0  0  0  0  0  0  0  0  0  0  0
    5.1350    0.2704    0.0000 C   0  0  0  0  0  0  0  0  0  0  0  0
    9.5331   -0.2088    0.0000 C   0  0  0  0  0  0  0  0  0  0  0  0
   10.3972   -1.7538    0.0000 C   0  0  0  0  0  0  0  0  0  0  0  0
    5.1350    1.2704    0.0000 C   0  0  0  0  0  0  0  0  0  0  0  0
    4.2690   -0.2296    0.0000 C   0  0  0  0  0  0  0  0  0  0  0  0
    4.2690    1.7704    0.0000 C   0  0  0  0  0  0  0  0  0  0  0  0
    3.4030    0.2704    0.0000 C   0  0  0  0  0  0  0  0  0  0  0  0
    3.4030    1.2704    0.0000 C   0  0  0  0  0  0  0  0  0  0  0  0
    8.6199    0.9250    0.0000 H   0  0  0  0  0  0  0  0  0  0  0  0
   10.0851   -2.2895    0.0000 H   0  0  0  0  0  0  0  0  0  0  0  0
   10.9329   -2.0658    0.0000 H   0  0  0  0  0  0  0  0  0  0  0  0
   10.7093   -1.2180    0.0000 H   0  0  0  0  0  0  0  0  0  0  0  0
    5.6720    1.5804    0.0000 H   0  0  0  0  0  0  0  0  0  0  0  0
    4.2690   -0.8496    0.0000 H   0  0  0  0  0  0  0  0  0  0  0  0
    2.8660   -0.0396    0.0000 H   0  0  0  0  0  0  0  0  0  0  0  0
    9.1488   -3.0804    0.0000 H   0  0  0  0  0  0  0  0  0  0  0  0
    5.1350   -2.3496    0.0000 H   0  0  0  0  0  0  0  0  0  0  0  0
   10.3948    0.9145    0.0000 H   0  0  0  0  0  0  0  0  0  0  0  0
    3.7320    3.0804    0.0000 H   0  0  0  0  0  0  0  0  0  0  0  0
    2.0000    1.4604    0.0000 H   0  0  0  0  0  0  0  0  0  0  0  0
  1  9  1  0  0  0  0
  1 11  1  0  0  0  0
  2 10  1  0  0  0  0
  2 31  1  0  0  0  0
  3 14  1  0  0  0  0
  3 32  1  0  0  0  0
  4 17  1  0  0  0  0
  4 33  1  0  0  0  0
  5 13  2  0  0  0  0
  6 21  1  0  0  0  0
  6 34  1  0  0  0  0
  7 23  1  0  0  0  0
  7 35  1  0  0  0  0
  8  9  2  0  0  0  0
  8 10  1  0  0  0  0
  8 13  1  0  0  0  0
  9 15  1  0  0  0  0
 10 12  2  0  0  0  0
 11 14  2  0  0  0  0
 11 16  1  0  0  0  0
 12 17  1  0  0  0  0
 12 18  1  0  0  0  0
 13 14  1  0  0  0  0
 15 17  2  0  0  0  0
 15 24  1  0  0  0  0
 16 19  2  0  0  0  0
 16 20  1  0  0  0  0
 18 25  1  0  0  0  0
 18 26  1  0  0  0  0
 18 27  1  0  0  0  0
 19 21  1  0  0  0  0
 19 28  1  0  0  0  0
 20 22  2  0  0  0  0
 20 29  1  0  0  0  0
 21 23  2  0  0  0  0
 22 23  1  0  0  0  0
 22 30  1  0  0  0  0
M  END
> <PUBCHEM_COMPOUND_CID>
5281679

> <PUBCHEM_COMPOUND_CANONICALIZED>
1

> <PUBCHEM_CACTVS_COMPLEXITY>
517

> <PUBCHEM_CACTVS_HBOND_ACCEPTOR>
7

> <PUBCHEM_CACTVS_HBOND_DONOR>
5

> <PUBCHEM_CACTVS_ROTATABLE_BOND>
1

> <PUBCHEM_CACTVS_SUBSKEYS>
AAADccB4OAAAAAAAAAAAAAAAAAAAAAAAAAAwYIAAAAAAAACBQAAAGgAACAAADASAmAAyBoAABgCIAqBSAAICCAAkIAAIiAFGiMgNJzaGNRqCeWGl4BUJuQfI7PzOIAADCAAIQABAAAYQABCAAAAAAAAAAA==

> <PUBCHEM_IUPAC_OPENEYE_NAME>
2-(3,4-dihydroxyphenyl)-3,5,7-trihydroxy-6-methyl-chromen-4-one

> <PUBCHEM_IUPAC_CAS_NAME>
2-(3,4-dihydroxyphenyl)-3,5,7-trihydroxy-6-methyl-1-benzopyran-4-one

> <PUBCHEM_IUPAC_NAME>
2-(3,4-dihydroxyphenyl)-3,5,7-trihydroxy-6-methylchromen-4-one

> <PUBCHEM_IUPAC_SYSTEMATIC_NAME>
2-[3,4-bis(oxidanyl)phenyl]-6-methyl-3,5,7-tris(oxidanyl)chromen-4-one

> <PUBCHEM_IUPAC_TRADITIONAL_NAME>
2-(3,4-dihydroxyphenyl)-3,5,7-trihydroxy-6-methyl-chromone

> <PUBCHEM_IUPAC_INCHI>
InChI=1S/C16H12O7/c1-6-9(18)5-11-12(13(6)20)14(21)15(22)16(23-11)7-2-3-8(17)10(19)4-7/h2-5,17-20,22H,1H3

> <PUBCHEM_IUPAC_INCHIKEY>
DTFXGVGIKNSCQQ-UHFFFAOYSA-N

> <PUBCHEM_XLOGP3_AA>
2.5

> <PUBCHEM_EXACT_MASS>
316.058303

> <PUBCHEM_MOLECULAR_FORMULA>
C16H12O7

> <PUBCHEM_MOLECULAR_WEIGHT>
316.26228

> <PUBCHEM_OPENEYE_CAN_SMILES>
CC1=C(C=C2C(=C1O)C(=O)C(=C(O2)C3=CC(=C(C=C3)O)O)O)O

> <PUBCHEM_OPENEYE_ISO_SMILES>
CC1=C(C=C2C(=C1O)C(=O)C(=C(O2)C3=CC(=C(C=C3)O)O)O)O

> <PUBCHEM_CACTVS_TPSA>
127

> <PUBCHEM_MONOISOTOPIC_WEIGHT>
316.058303

> <PUBCHEM_TOTAL_CHARGE>
0

> <PUBCHEM_HEAVY_ATOM_COUNT>
23

> <PUBCHEM_ATOM_DEF_STEREO_COUNT>
0

> <PUBCHEM_ATOM_UDEF_STEREO_COUNT>
0

> <PUBCHEM_BOND_DEF_STEREO_COUNT>
0

> <PUBCHEM_BOND_UDEF_STEREO_COUNT>
0

> <PUBCHEM_ISOTOPIC_ATOM_COUNT>
0

> <PUBCHEM_COMPONENT_COUNT>
1

> <PUBCHEM_CACTVS_TAUTO_COUNT>
904

> <PUBCHEM_COORDINATE_TYPE>
1
5
255

> <PUBCHEM_BONDANNOTATIONS>
1  11  8
1  9  8
10  12  8
11  14  8
12  17  8
13  14  8
15  17  8
16  19  8
16  20  8
19  21  8
20  22  8
21  23  8
22  23  8
8  10  8
8  13  8
8  9  8
9  15  8

$$$$

