5517
  -OEChem-06261200432D

 44 47  0     1  0  0  0  0  0999 V2000
    8.6651    2.5242    0.0000 F   0  0  0  0  0  0  0  0  0  0  0  0
    3.4030   -0.5000    0.0000 F   0  0  0  0  0  0  0  0  0  0  0  0
    5.1350   -3.5000    0.0000 F   0  0  0  0  0  0  0  0  0  0  0  0
    5.1350    3.5000    0.0000 O   0  0  0  0  0  0  0  0  0  0  0  0
    2.5369    2.0000    0.0000 O   0  0  0  0  0  0  0  0  0  0  0  0
    3.4030    3.5000    0.0000 O   0  0  0  0  0  0  0  0  0  0  0  0
    8.6651    0.4758    0.0000 N   0  0  3  0  0  0  0  0  0  0  0  0
   10.1464   -1.6458    0.0000 N   0  0  0  0  0  0  0  0  0  0  0  0
    6.8950    0.4653    0.0000 N   0  0  0  0  0  0  0  0  0  0  0  0
    5.1350    0.5000    0.0000 N   0  0  0  0  0  0  0  0  0  0  0  0
    9.7432   -0.7307    0.0000 C   0  0  3  0  0  0  0  0  0  0  0  0
   10.2465    0.1333    0.0000 C   0  0  0  0  0  0  0  0  0  0  0  0
    8.7658   -0.5191    0.0000 C   0  0  0  0  0  0  0  0  0  0  0  0
    9.5802    0.8791    0.0000 C   0  0  0  0  0  0  0  0  0  0  0  0
    7.8010    0.9792    0.0000 C   0  0  0  0  0  0  0  0  0  0  0  0
    7.8010    2.0208    0.0000 C   0  0  0  0  0  0  0  0  0  0  0  0
    6.0010    1.0000    0.0000 C   0  0  0  0  0  0  0  0  0  0  0  0
    6.0010    2.0000    0.0000 C   0  0  0  0  0  0  0  0  0  0  0  0
    6.8950    2.5347    0.0000 C   0  0  0  0  0  0  0  0  0  0  0  0
    5.1350    2.5000    0.0000 C   0  0  0  0  0  0  0  0  0  0  0  0
    4.2690    1.0000    0.0000 C   0  0  0  0  0  0  0  0  0  0  0  0
    4.2690    2.0000    0.0000 C   0  0  0  0  0  0  0  0  0  0  0  0
    5.1350   -0.5000    0.0000 C   0  0  0  0  0  0  0  0  0  0  0  0
    4.2690   -1.0000    0.0000 C   0  0  0  0  0  0  0  0  0  0  0  0
    6.0010   -1.0000    0.0000 C   0  0  0  0  0  0  0  0  0  0  0  0
    3.4030    2.5000    0.0000 C   0  0  0  0  0  0  0  0  0  0  0  0
    4.2690   -2.0000    0.0000 C   0  0  0  0  0  0  0  0  0  0  0  0
    6.0010   -2.0000    0.0000 C   0  0  0  0  0  0  0  0  0  0  0  0
    5.1350   -2.5000    0.0000 C   0  0  0  0  0  0  0  0  0  0  0  0
    9.3511   -1.2111    0.0000 H   0  0  0  0  0  0  0  0  0  0  0  0
   10.7467   -0.2330    0.0000 H   0  0  0  0  0  0  0  0  0  0  0  0
   10.6631    0.5925    0.0000 H   0  0  0  0  0  0  0  0  0  0  0  0
    8.1458   -0.5167    0.0000 H   0  0  0  0  0  0  0  0  0  0  0  0
    8.6986   -1.1354    0.0000 H   0  0  0  0  0  0  0  0  0  0  0  0
   10.0832    1.2416    0.0000 H   0  0  0  0  0  0  0  0  0  0  0  0
    9.2723    1.4172    0.0000 H   0  0  0  0  0  0  0  0  0  0  0  0
   10.7627   -1.7130    0.0000 H   0  0  0  0  0  0  0  0  0  0  0  0
    9.7800   -2.1460    0.0000 H   0  0  0  0  0  0  0  0  0  0  0  0
    6.8878    3.1546    0.0000 H   0  0  0  0  0  0  0  0  0  0  0  0
    3.7320    0.6900    0.0000 H   0  0  0  0  0  0  0  0  0  0  0  0
    6.5380   -0.6900    0.0000 H   0  0  0  0  0  0  0  0  0  0  0  0
    3.7320   -2.3100    0.0000 H   0  0  0  0  0  0  0  0  0  0  0  0
    6.5380   -2.3100    0.0000 H   0  0  0  0  0  0  0  0  0  0  0  0
    2.0000    2.3100    0.0000 H   0  0  0  0  0  0  0  0  0  0  0  0
  1 16  1  0  0  0  0
  2 24  1  0  0  0  0
  3 29  1  0  0  0  0
  4 20  2  0  0  0  0
  5 26  1  0  0  0  0
  5 44  1  0  0  0  0
  6 26  2  0  0  0  0
  7 13  1  0  0  0  0
  7 14  1  0  0  0  0
  7 15  1  0  0  0  0
  8 11  1  0  0  0  0
  8 37  1  0  0  0  0
  8 38  1  0  0  0  0
  9 15  1  0  0  0  0
  9 17  2  0  0  0  0
 10 17  1  0  0  0  0
 10 21  1  0  0  0  0
 10 23  1  0  0  0  0
 11 12  1  0  0  0  0
 11 13  1  0  0  0  0
 11 30  1  0  0  0  0
 12 14  1  0  0  0  0
 12 31  1  0  0  0  0
 12 32  1  0  0  0  0
 13 33  1  0  0  0  0
 13 34  1  0  0  0  0
 14 35  1  0  0  0  0
 14 36  1  0  0  0  0
 15 16  2  0  0  0  0
 16 19  1  0  0  0  0
 17 18  1  0  0  0  0
 18 19  2  0  0  0  0
 18 20  1  0  0  0  0
 19 39  1  0  0  0  0
 20 22  1  0  0  0  0
 21 22  2  0  0  0  0
 21 40  1  0  0  0  0
 22 26  1  0  0  0  0
 23 24  2  0  0  0  0
 23 25  1  0  0  0  0
 24 27  1  0  0  0  0
 25 28  2  0  0  0  0
 25 41  1  0  0  0  0
 27 29  2  0  0  0  0
 27 42  1  0  0  0  0
 28 29  1  0  0  0  0
 28 43  1  0  0  0  0
M  END
> <PUBCHEM_COMPOUND_CID>
5517

> <PUBCHEM_COMPOUND_CANONICALIZED>
1

> <PUBCHEM_CACTVS_COMPLEXITY>
708

> <PUBCHEM_CACTVS_HBOND_ACCEPTOR>
10

> <PUBCHEM_CACTVS_HBOND_DONOR>
2

> <PUBCHEM_CACTVS_ROTATABLE_BOND>
3

> <PUBCHEM_CACTVS_SUBSKEYS>
AAADccB7sYAAAAAAAAAAAAAAAAAAAWAAAAA8QIAAAAAAAACBwAAAHwAQCAAADCzBmgwx+JNIEgCoAqb2bACCgCklAiAJmKEoZNiIZP7I3ZGUYYhssALI2eeY2SKOAAAAAAAAAAAAAAAAAAAAAAAAAAAAAA==

> <PUBCHEM_IUPAC_OPENEYE_NAME>
7-(3-aminopyrrolidin-1-yl)-1-(2,4-difluorophenyl)-6-fluoro-4-oxo-1,8-naphthyridine-3-carboxylic acid

> <PUBCHEM_IUPAC_CAS_NAME>
7-(3-amino-1-pyrrolidinyl)-1-(2,4-difluorophenyl)-6-fluoro-4-oxo-1,8-naphthyridine-3-carboxylic acid

> <PUBCHEM_IUPAC_NAME>
7-(3-aminopyrrolidin-1-yl)-1-(2,4-difluorophenyl)-6-fluoro-4-oxo-1,8-naphthyridine-3-carboxylic acid

> <PUBCHEM_IUPAC_SYSTEMATIC_NAME>
7-(3-azanylpyrrolidin-1-yl)-1-[2,4-bis(fluoranyl)phenyl]-6-fluoranyl-4-oxidanylidene-1,8-naphthyridine-3-carboxylic acid

> <PUBCHEM_IUPAC_TRADITIONAL_NAME>
7-(3-aminopyrrolidino)-1-(2,4-difluorophenyl)-6-fluoro-4-keto-1,8-naphthyridine-3-carboxylic acid

> <PUBCHEM_IUPAC_INCHI>
InChI=1S/C19H15F3N4O3/c20-9-1-2-15(13(21)5-9)26-8-12(19(28)29)16(27)11-6-14(22)18(24-17(11)26)25-4-3-10(23)7-25/h1-2,5-6,8,10H,3-4,7,23H2,(H,28,29)

> <PUBCHEM_IUPAC_INCHIKEY>
WUWFMDMBOJLQIV-UHFFFAOYSA-N

> <PUBCHEM_XLOGP3>
0.4

> <PUBCHEM_EXACT_MASS>
404.109625

> <PUBCHEM_MOLECULAR_FORMULA>
C19H15F3N4O3

> <PUBCHEM_MOLECULAR_WEIGHT>
404.34261

> <PUBCHEM_OPENEYE_CAN_SMILES>
C1CN(CC1N)C2=C(C=C3C(=O)C(=CN(C3=N2)C4=C(C=C(C=C4)F)F)C(=O)O)F

> <PUBCHEM_OPENEYE_ISO_SMILES>
C1CN(CC1N)C2=C(C=C3C(=O)C(=CN(C3=N2)C4=C(C=C(C=C4)F)F)C(=O)O)F

> <PUBCHEM_CACTVS_TPSA>
99.8

> <PUBCHEM_MONOISOTOPIC_WEIGHT>
404.109625

> <PUBCHEM_TOTAL_CHARGE>
0

> <PUBCHEM_HEAVY_ATOM_COUNT>
29

> <PUBCHEM_ATOM_DEF_STEREO_COUNT>
0

> <PUBCHEM_ATOM_UDEF_STEREO_COUNT>
1

> <PUBCHEM_BOND_DEF_STEREO_COUNT>
0

> <PUBCHEM_BOND_UDEF_STEREO_COUNT>
0

> <PUBCHEM_ISOTOPIC_ATOM_COUNT>
0

> <PUBCHEM_COMPONENT_COUNT>
1

> <PUBCHEM_CACTVS_TAUTO_COUNT>
1

> <PUBCHEM_COORDINATE_TYPE>
1
5
255

> <PUBCHEM_BONDANNOTATIONS>
10  17  8
10  21  8
15  16  8
16  19  8
17  18  8
18  19  8
18  20  8
20  22  8
21  22  8
23  24  8
23  25  8
24  27  8
25  28  8
27  29  8
28  29  8
11  8  3
9  15  8
9  17  8

$$$$

