582806
  -OEChem-06241222443D

 42 45  0     0  0  0  0  0  0999 V2000
    3.4824   -1.9228    0.2665 S   0  0  0  0  0  0  0  0  0  0  0  0
   -1.7458   -1.9955    1.0144 S   0  0  0  0  0  0  0  0  0  0  0  0
    0.8744    2.2148   -0.2660 O   0  0  0  0  0  0  0  0  0  0  0  0
   -0.3505    0.2573    0.2397 N   0  0  0  0  0  0  0  0  0  0  0  0
    0.8086   -1.8408    0.5538 N   0  0  0  0  0  0  0  0  0  0  0  0
    3.3778    0.5946   -0.1747 C   0  0  0  0  0  0  0  0  0  0  0  0
    4.1134    1.8448   -0.4851 C   0  0  0  0  0  0  0  0  0  0  0  0
    5.5948    1.4341   -0.2105 C   0  0  0  0  0  0  0  0  0  0  0  0
    5.6556   -0.1227   -0.2925 C   0  0  0  0  0  0  0  0  0  0  0  0
    4.2322   -0.4683   -0.0741 C   0  0  0  0  0  0  0  0  0  0  0  0
    2.0365    0.2141    0.0341 C   0  0  0  0  0  0  0  0  0  0  0  0
    1.9414   -1.1449    0.2902 C   0  0  0  0  0  0  0  0  0  0  0  0
    0.8276    1.0166   -0.0019 C   0  0  0  0  0  0  0  0  0  0  0  0
   -0.2841   -1.1329    0.5338 C   0  0  0  0  0  0  0  0  0  0  0  0
   -1.5972    0.9628    0.1275 C   0  0  0  0  0  0  0  0  0  0  0  0
   -2.2466    1.0127   -1.0984 C   0  0  0  0  0  0  0  0  0  0  0  0
   -2.1347    1.5843    1.2464 C   0  0  0  0  0  0  0  0  0  0  0  0
   -3.4567    1.6977   -1.2077 C   0  0  0  0  0  0  0  0  0  0  0  0
   -3.3449    2.2691    1.1370 C   0  0  0  0  0  0  0  0  0  0  0  0
   -4.0060    2.3258   -0.0900 C   0  0  0  0  0  0  0  0  0  0  0  0
   -1.7318   -3.2802   -0.2502 C   0  0  0  0  0  0  0  0  0  0  0  0
   -5.3003    3.0575   -0.2066 C   0  0  0  0  0  0  0  0  0  0  0  0
   -2.9057   -4.1891   -0.0747 C   0  0  0  0  0  0  0  0  0  0  0  0
   -3.8405   -4.3891   -1.0110 C   0  0  0  0  0  0  0  0  0  0  0  0
    3.9800    2.1167   -1.5374 H   0  0  0  0  0  0  0  0  0  0  0  0
    3.8129    2.6837    0.1485 H   0  0  0  0  0  0  0  0  0  0  0  0
    6.2942    1.9148   -0.9016 H   0  0  0  0  0  0  0  0  0  0  0  0
    5.8682    1.7481    0.8057 H   0  0  0  0  0  0  0  0  0  0  0  0
    6.3243   -0.5338    0.4685 H   0  0  0  0  0  0  0  0  0  0  0  0
    5.9860   -0.4422   -1.2861 H   0  0  0  0  0  0  0  0  0  0  0  0
   -1.8261    0.5251   -1.9737 H   0  0  0  0  0  0  0  0  0  0  0  0
   -1.6262    1.5453    2.2059 H   0  0  0  0  0  0  0  0  0  0  0  0
   -3.9632    1.7328   -2.1686 H   0  0  0  0  0  0  0  0  0  0  0  0
   -3.7636    2.7529    2.0155 H   0  0  0  0  0  0  0  0  0  0  0  0
   -1.7343   -2.8101   -1.2397 H   0  0  0  0  0  0  0  0  0  0  0  0
   -0.8169   -3.8757   -0.1645 H   0  0  0  0  0  0  0  0  0  0  0  0
   -5.4283    3.4767   -1.2104 H   0  0  0  0  0  0  0  0  0  0  0  0
   -6.1347    2.3798   -0.0004 H   0  0  0  0  0  0  0  0  0  0  0  0
   -5.3457    3.8949    0.4981 H   0  0  0  0  0  0  0  0  0  0  0  0
   -2.9861   -4.7405    0.8593 H   0  0  0  0  0  0  0  0  0  0  0  0
   -4.6622   -5.0733   -0.8293 H   0  0  0  0  0  0  0  0  0  0  0  0
   -3.8049   -3.8784   -1.9669 H   0  0  0  0  0  0  0  0  0  0  0  0
  1 10  1  0  0  0  0
  1 12  1  0  0  0  0
  2 14  1  0  0  0  0
  2 21  1  0  0  0  0
  3 13  2  0  0  0  0
  4 13  1  0  0  0  0
  4 14  1  0  0  0  0
  4 15  1  0  0  0  0
  5 12  1  0  0  0  0
  5 14  2  0  0  0  0
  6  7  1  0  0  0  0
  6 10  2  0  0  0  0
  6 11  1  0  0  0  0
  7  8  1  0  0  0  0
  7 25  1  0  0  0  0
  7 26  1  0  0  0  0
  8  9  1  0  0  0  0
  8 27  1  0  0  0  0
  8 28  1  0  0  0  0
  9 10  1  0  0  0  0
  9 29  1  0  0  0  0
  9 30  1  0  0  0  0
 11 12  2  0  0  0  0
 11 13  1  0  0  0  0
 15 16  2  0  0  0  0
 15 17  1  0  0  0  0
 16 18  1  0  0  0  0
 16 31  1  0  0  0  0
 17 19  2  0  0  0  0
 17 32  1  0  0  0  0
 18 20  2  0  0  0  0
 18 33  1  0  0  0  0
 19 20  1  0  0  0  0
 19 34  1  0  0  0  0
 20 22  1  0  0  0  0
 21 23  1  0  0  0  0
 21 35  1  0  0  0  0
 21 36  1  0  0  0  0
 22 37  1  0  0  0  0
 22 38  1  0  0  0  0
 22 39  1  0  0  0  0
 23 24  2  0  0  0  0
 23 40  1  0  0  0  0
 24 41  1  0  0  0  0
 24 42  1  0  0  0  0
M  END
> <PUBCHEM_COMPOUND_CID>
582806

> <PUBCHEM_CONFORMER_RMSD>
0.8

> <PUBCHEM_CONFORMER_DIVERSEORDER>
1
6
4
3
5
2
7

> <PUBCHEM_MMFF94_PARTIAL_CHARGES>
30
1 -0.08
10 -0.14
11 -0.09
12 0.17
13 0.72
14 0.65
15 0.12
16 -0.15
17 -0.15
18 -0.15
19 -0.15
2 -0.37
20 -0.14
21 0.37
22 0.14
23 -0.29
24 -0.3
3 -0.57
31 0.15
32 0.15
33 0.15
34 0.15
4 -0.24
40 0.15
41 0.15
42 0.15
5 -0.58
6 -0.18
7 0.18
9 0.18

> <PUBCHEM_EFFECTIVE_ROTOR_COUNT>
4.6

> <PUBCHEM_PHARMACOPHORE_FEATURES>
6
1 24 hydrophobe
1 3 acceptor
5 1 6 10 11 12 rings
5 6 7 8 9 10 rings
6 15 16 17 18 19 20 rings
6 4 5 11 12 13 14 rings

> <PUBCHEM_HEAVY_ATOM_COUNT>
24

> <PUBCHEM_ATOM_DEF_STEREO_COUNT>
0

> <PUBCHEM_ATOM_UDEF_STEREO_COUNT>
0

> <PUBCHEM_BOND_DEF_STEREO_COUNT>
0

> <PUBCHEM_BOND_UDEF_STEREO_COUNT>
0

> <PUBCHEM_ISOTOPIC_ATOM_COUNT>
0

> <PUBCHEM_COMPONENT_COUNT>
1

> <PUBCHEM_CACTVS_TAUTO_COUNT>
1

> <PUBCHEM_CONFORMER_ID>
0008E49600000001

> <PUBCHEM_MMFF94_ENERGY>
88.7914

> <PUBCHEM_FEATURE_SELFOVERLAP>
30.705

> <PUBCHEM_SHAPE_FINGERPRINT>
10050765 1 18410575059890547578
10411042 1 17906169555798059123
1100329 8 18198067078491296618
11045515 52 17978793407199011003
12236239 1 17969790867952040073
12403260 363 18198909098492189896
12788726 201 18197227957260355739
13134695 92 17544476350077249447
13140716 1 18271804670487882018
13540713 5 18201447969535841298
13583140 156 15985112924478404708
13590594 115 18051687743029715435
13631057 29 18265054622264677926
138480 1 16969422405441952043
14251757 5 18337400331710648223
14790565 3 18122060064108053953
16087824 20 18410855418624453019
16988056 13 17401788324200148007
17138139 8 17827118153733082671
17539 30 18264211318558614391
17980427 23 17417522502954461236
19427546 20 18339918204383713078
21033648 144 18411429405942277084
21033648 29 18058741319868699884
21049683 271 17407113258375325775
21236236 1 18340767048845832818
21307412 95 17898829496061248622
21344244 181 17970059148936943655
21478907 32 18194120716299515427
21641784 216 17985818233810811702
23227448 37 18412824681454077204
23419403 2 17242741874785719835
23558518 356 17986668165089619352
23598288 3 18334305236089679254
23929065 36 18191607258440322464
25147074 1 18130801053042447362
266924 87 17979919302383235173
283562 15 18198064668597782138
335352 9 18269551805886076582
34797466 226 15719689709484684624
34934 24 18272369806632150800
350125 39 18269545053290431241
38695281 34 18195531621819941117
469060 322 16558750092530725079
474 4 18265894846410988729
5104073 3 18272091570430157560
5969126 39 18118409440595412278
633830 44 17972029516401486453
7164475 11 18195524796679025542
8272917 22 17834676372529524969

> <PUBCHEM_SHAPE_MULTIPOLES>
485.78
10.91
4.84
1
8.34
5.47
-0.03
-5.08
1.86
-8.73
0.72
-0.83
-0.06
-1

> <PUBCHEM_SHAPE_SELFOVERLAP>
1037.398

> <PUBCHEM_SHAPE_VOLUME>
272.9

> <PUBCHEM_COORDINATE_TYPE>
2
5
10

$$$$

