441972
  -OEChem-07051212563D

 51 55  0     1  0  0  0  0  0999 V2000
    0.6468   -3.0231    1.2227 O   0  0  0  0  0  0  0  0  0  0  0  0
    1.6306   -4.3319   -0.4615 O   0  0  0  0  0  0  0  0  0  0  0  0
   -3.7212   -1.5405    0.7793 O   0  0  0  0  0  0  0  0  0  0  0  0
   -2.5053   -0.6401    2.5316 O   0  0  0  0  0  0  0  0  0  0  0  0
    5.3086    2.3506    1.5169 O   0  0  0  0  0  0  0  0  0  0  0  0
   -3.6415    3.4482   -0.7725 O   0  0  0  0  0  0  0  0  0  0  0  0
   -2.1094    4.8769    0.1094 O   0  0  0  0  0  0  0  0  0  0  0  0
    1.1567   -0.4310   -0.7946 N   0  0  0  0  0  0  0  0  0  0  0  0
   -2.0019    1.4963   -0.9252 N   0  0  0  0  0  0  0  0  0  0  0  0
   -0.0518   -2.6919   -1.1266 C   0  0  1  0  0  0  0  0  0  0  0  0
   -1.4309   -2.1197   -0.6649 C   0  0  2  0  0  0  0  0  0  0  0  0
    1.0746   -1.6842   -1.5440 C   0  0  1  0  0  0  0  0  0  0  0  0
   -1.8866   -0.8882   -1.4751 C   0  0  0  0  0  0  0  0  0  0  0  0
    0.4371   -3.6796   -0.0328 C   0  0  2  0  0  0  0  0  0  0  0  0
    0.1343    0.4944   -0.7130 C   0  0  0  0  0  0  0  0  0  0  0  0
   -1.2188    0.3900   -1.0565 C   0  0  0  0  0  0  0  0  0  0  0  0
   -1.4610   -1.9284    0.8382 C   0  0  0  0  0  0  0  0  0  0  0  0
    2.3116    0.0781   -0.2242 C   0  0  0  0  0  0  0  0  0  0  0  0
    1.0870   -1.4008   -3.0570 C   0  0  0  0  0  0  0  0  0  0  0  0
    0.6705    1.6610   -0.1703 C   0  0  0  0  0  0  0  0  0  0  0  0
    2.0347    1.3947    0.1553 C   0  0  0  0  0  0  0  0  0  0  0  0
   -0.4613   -2.3262    1.6356 C   0  0  0  0  0  0  0  0  0  0  0  0
   -0.1565    2.7855   -0.0296 C   0  0  0  0  0  0  0  0  0  0  0  0
    3.5838   -0.4887   -0.0298 C   0  0  0  0  0  0  0  0  0  0  0  0
   -2.5998   -1.2872    1.5005 C   0  0  0  0  0  0  0  0  0  0  0  0
    3.0583    2.1672    0.7463 C   0  0  0  0  0  0  0  0  0  0  0  0
   -1.4708    2.6371   -0.4377 C   0  0  0  0  0  0  0  0  0  0  0  0
    4.5788    0.2947    0.5617 C   0  0  0  0  0  0  0  0  0  0  0  0
    4.3222    1.6058    0.9442 C   0  0  0  0  0  0  0  0  0  0  0  0
   -2.3913    3.7562   -0.3292 C   0  0  0  0  0  0  0  0  0  0  0  0
   -4.9274   -0.9753    1.3028 C   0  0  0  0  0  0  0  0  0  0  0  0
   -0.2419   -3.3095   -2.0170 H   0  0  0  0  0  0  0  0  0  0  0  0
   -2.1607   -2.9150   -0.8824 H   0  0  0  0  0  0  0  0  0  0  0  0
    2.0293   -2.1901   -1.3735 H   0  0  0  0  0  0  0  0  0  0  0  0
   -2.9711   -0.7585   -1.3803 H   0  0  0  0  0  0  0  0  0  0  0  0
   -1.7243   -1.0546   -2.5445 H   0  0  0  0  0  0  0  0  0  0  0  0
   -0.3153   -4.4693    0.1059 H   0  0  0  0  0  0  0  0  0  0  0  0
    1.9808   -0.8270   -3.3301 H   0  0  0  0  0  0  0  0  0  0  0  0
    1.1118   -2.3351   -3.6278 H   0  0  0  0  0  0  0  0  0  0  0  0
    0.2257   -0.8202   -3.3931 H   0  0  0  0  0  0  0  0  0  0  0  0
   -0.4042   -2.1498    2.7014 H   0  0  0  0  0  0  0  0  0  0  0  0
    0.2242    3.7139    0.3816 H   0  0  0  0  0  0  0  0  0  0  0  0
    3.8061   -1.5094   -0.3227 H   0  0  0  0  0  0  0  0  0  0  0  0
    1.6655   -5.1919   -0.0096 H   0  0  0  0  0  0  0  0  0  0  0  0
    2.8647    3.1931    1.0491 H   0  0  0  0  0  0  0  0  0  0  0  0
    5.5631   -0.1413    0.7160 H   0  0  0  0  0  0  0  0  0  0  0  0
    6.1157    1.8114    1.5796 H   0  0  0  0  0  0  0  0  0  0  0  0
   -5.7501   -1.2567    0.6401 H   0  0  0  0  0  0  0  0  0  0  0  0
   -4.8531    0.1162    1.3266 H   0  0  0  0  0  0  0  0  0  0  0  0
   -5.1293   -1.3716    2.3025 H   0  0  0  0  0  0  0  0  0  0  0  0
   -4.2541    4.2106   -0.6950 H   0  0  0  0  0  0  0  0  0  0  0  0
  1 14  1  0  0  0  0
  1 22  1  0  0  0  0
  2 14  1  0  0  0  0
  2 44  1  0  0  0  0
  3 25  1  0  0  0  0
  3 31  1  0  0  0  0
  4 25  2  0  0  0  0
  5 29  1  0  0  0  0
  5 47  1  0  0  0  0
  6 30  1  0  0  0  0
  6 51  1  0  0  0  0
  7 30  2  0  0  0  0
  8 12  1  0  0  0  0
  8 15  1  0  0  0  0
  8 18  1  0  0  0  0
  9 16  1  0  0  0  0
  9 27  2  0  0  0  0
 10 11  1  0  0  0  0
 10 12  1  0  0  0  0
 10 14  1  0  0  0  0
 10 32  1  0  0  0  0
 11 13  1  0  0  0  0
 11 17  1  0  0  0  0
 11 33  1  0  0  0  0
 12 19  1  0  0  0  0
 12 34  1  0  0  0  0
 13 16  1  0  0  0  0
 13 35  1  0  0  0  0
 13 36  1  0  0  0  0
 14 37  1  0  0  0  0
 15 16  2  0  0  0  0
 15 20  1  0  0  0  0
 17 22  2  0  0  0  0
 17 25  1  0  0  0  0
 18 21  2  0  0  0  0
 18 24  1  0  0  0  0
 19 38  1  0  0  0  0
 19 39  1  0  0  0  0
 19 40  1  0  0  0  0
 20 21  1  0  0  0  0
 20 23  2  0  0  0  0
 21 26  1  0  0  0  0
 22 41  1  0  0  0  0
 23 27  1  0  0  0  0
 23 42  1  0  0  0  0
 24 28  2  0  0  0  0
 24 43  1  0  0  0  0
 26 29  2  0  0  0  0
 26 45  1  0  0  0  0
 27 30  1  0  0  0  0
 28 29  1  0  0  0  0
 28 46  1  0  0  0  0
 31 48  1  0  0  0  0
 31 49  1  0  0  0  0
 31 50  1  0  0  0  0
M  END
> <PUBCHEM_COMPOUND_CID>
441972

> <PUBCHEM_CONFORMER_RMSD>
0.8

> <PUBCHEM_CONFORMER_DIVERSEORDER>
1
6
4
5
2
3

> <PUBCHEM_MMFF94_PARTIAL_CHARGES>
35
1 -0.36
11 0.14
12 0.26
13 0.14
14 0.56
15 -0.15
16 0.17
17 -0.12
18 -0.15
2 -0.68
22 -0.07
23 -0.15
24 -0.15
25 0.71
26 -0.15
27 0.4
28 -0.15
29 0.08
3 -0.43
30 0.63
31 0.28
4 -0.57
41 0.15
42 0.15
43 0.15
44 0.4
45 0.15
46 0.15
47 0.45
5 -0.53
51 0.5
6 -0.65
7 -0.57
8 0.05
9 -0.62

> <PUBCHEM_EFFECTIVE_ROTOR_COUNT>
3.8

> <PUBCHEM_PHARMACOPHORE_FEATURES>
15
1 1 acceptor
1 2 acceptor
1 2 donor
1 4 acceptor
1 5 donor
1 6 acceptor
1 7 acceptor
1 8 cation
1 9 acceptor
3 6 7 30 anion
5 8 15 18 20 21 rings
6 1 10 11 14 17 22 rings
6 18 21 24 26 28 29 rings
6 9 15 16 20 23 27 rings
7 8 10 11 12 13 15 16 rings

> <PUBCHEM_HEAVY_ATOM_COUNT>
31

> <PUBCHEM_ATOM_DEF_STEREO_COUNT>
4

> <PUBCHEM_ATOM_UDEF_STEREO_COUNT>
0

> <PUBCHEM_BOND_DEF_STEREO_COUNT>
0

> <PUBCHEM_BOND_UDEF_STEREO_COUNT>
0

> <PUBCHEM_ISOTOPIC_ATOM_COUNT>
0

> <PUBCHEM_COMPONENT_COUNT>
1

> <PUBCHEM_CACTVS_TAUTO_COUNT>
3

> <PUBCHEM_CONFORMER_ID>
0006BE7400000001

> <PUBCHEM_MMFF94_ENERGY>
87.6547

> <PUBCHEM_FEATURE_SELFOVERLAP>
76.563

> <PUBCHEM_SHAPE_FINGERPRINT>
10006869 2 18340499962257483683
12553582 1 18051973615414224196
12633257 1 17983292625531815802
12788726 201 18197519345485282928
12930653 34 18340771545307378612
131258 38 16337230161806096858
13140716 1 17764313842995361168
13965767 371 18043222722210829002
14142880 1 17825108095183409342
14790565 3 16685687326377413773
14856354 85 17836086672712620300
15420108 30 18187077335212355199
16945 1 18051695447488127822
17980427 23 17682668524679863559
20600515 1 18047461227872055901
20691752 17 17979313634948871083
20905425 154 18195792184543138063
23419403 2 17608054831983664740
23558518 356 18339365291674566813
3380486 145 17622175563482382673
4340502 62 17984702474918398853
5171179 24 18192141822691737331
5265222 85 18411408502826720022
5951187 136 14857457218036142321
6004065 56 18194405477427179031
7097593 13 17404859254926315186
9981440 41 18192174730868069280

> <PUBCHEM_SHAPE_MULTIPOLES>
586.92
6.78
5.39
1.86
4.48
2.76
-0.31
2.97
4.19
-2.67
-0.58
-0.5
-1.05
1.84

> <PUBCHEM_SHAPE_SELFOVERLAP>
1314.451

> <PUBCHEM_SHAPE_VOLUME>
306.4

> <PUBCHEM_COORDINATE_TYPE>
2
5
10

$$$$

