441813
  -OEChem-07051212563D

 84 87  0     1  0  0  0  0  0999 V2000
   -1.9433   -2.3419    2.4202 O   0  0  0  0  0  0  0  0  0  0  0  0
   -5.2088    3.5164    1.3689 O   0  0  0  0  0  0  0  0  0  0  0  0
    6.9450   -0.0676    0.4328 O   0  0  0  0  0  0  0  0  0  0  0  0
    7.5311    2.5317   -0.1925 O   0  0  0  0  0  0  0  0  0  0  0  0
   -0.3131   -0.9294   -1.1521 C   0  0  2  0  0  0  0  0  0  0  0  0
    0.4979   -1.6831   -0.0370 C   0  0  1  0  0  0  0  0  0  0  0  0
   -1.7683   -1.4923   -1.1819 C   0  0  1  0  0  0  0  0  0  0  0  0
   -2.5088   -1.4547    0.2139 C   0  0  2  0  0  0  0  0  0  0  0  0
    1.9340   -1.1782   -0.3204 C   0  0  2  0  0  0  0  0  0  0  0  0
    0.5575   -1.2484   -2.3893 C   0  0  0  0  0  0  0  0  0  0  0  0
   -0.0892   -1.3260    1.3253 C   0  0  0  0  0  0  0  0  0  0  0  0
    2.0141   -1.2037   -1.8685 C   0  0  0  0  0  0  0  0  0  0  0  0
   -3.1579   -0.0524    0.5229 C   0  0  1  0  0  0  0  0  0  0  0  0
   -1.5424   -1.7846    1.3939 C   0  0  0  0  0  0  0  0  0  0  0  0
   -2.6524   -0.9291   -2.3108 C   0  0  0  0  0  0  0  0  0  0  0  0
   -0.2981    0.6264   -1.0325 C   0  0  0  0  0  0  0  0  0  0  0  0
    0.4842   -3.2447   -0.1530 C   0  0  0  0  0  0  0  0  0  0  0  0
    3.0845   -1.9325    0.3362 C   0  0  1  0  0  0  0  0  0  0  0  0
   -3.7240    0.6826   -0.6903 C   0  0  0  0  0  0  0  0  0  0  0  0
   -3.5871   -2.5743    0.1736 C   0  0  0  0  0  0  0  0  0  0  0  0
   -4.2530   -0.1133    1.6121 C   0  0  0  0  0  0  0  0  0  0  0  0
   -3.4984    0.2445   -1.9422 C   0  0  0  0  0  0  0  0  0  0  0  0
   -4.5593    1.9523   -0.4156 C   0  0  0  0  0  0  0  0  0  0  0  0
   -4.7220    1.2696    2.0645 C   0  0  0  0  0  0  0  0  0  0  0  0
   -4.3933    2.3836    1.0695 C   0  0  2  0  0  0  0  0  0  0  0  0
    4.4334   -1.3284   -0.1062 C   0  0  0  0  0  0  0  0  0  0  0  0
    2.9164   -1.9196    1.8583 C   0  0  0  0  0  0  0  0  0  0  0  0
   -6.0450    1.6794   -0.7424 C   0  0  0  0  0  0  0  0  0  0  0  0
   -4.0870    3.1318   -1.3030 C   0  0  0  0  0  0  0  0  0  0  0  0
    4.5658    0.1716    0.2008 C   0  0  0  0  0  0  0  0  0  0  0  0
    5.9401    0.7233   -0.2103 C   0  0  1  0  0  0  0  0  0  0  0  0
    6.1682    2.2171    0.1321 C   0  0  0  0  0  0  0  0  0  0  0  0
    5.9982    2.5259    1.6224 C   0  0  0  0  0  0  0  0  0  0  0  0
    5.2810    3.1482   -0.6994 C   0  0  0  0  0  0  0  0  0  0  0  0
   -1.6533   -2.5484   -1.4612 H   0  0  0  0  0  0  0  0  0  0  0  0
    1.9719   -0.1390    0.0228 H   0  0  0  0  0  0  0  0  0  0  0  0
    0.4131   -0.5397   -3.2123 H   0  0  0  0  0  0  0  0  0  0  0  0
    0.3343   -2.2439   -2.7903 H   0  0  0  0  0  0  0  0  0  0  0  0
   -0.0455   -0.2567    1.5479 H   0  0  0  0  0  0  0  0  0  0  0  0
    0.4140   -1.8352    2.1473 H   0  0  0  0  0  0  0  0  0  0  0  0
    2.5556   -2.0782   -2.2469 H   0  0  0  0  0  0  0  0  0  0  0  0
    2.5290   -0.3113   -2.2412 H   0  0  0  0  0  0  0  0  0  0  0  0
   -2.3697    0.5841    0.9404 H   0  0  0  0  0  0  0  0  0  0  0  0
   -3.3303   -1.7180   -2.6626 H   0  0  0  0  0  0  0  0  0  0  0  0
   -2.0367   -0.6651   -3.1779 H   0  0  0  0  0  0  0  0  0  0  0  0
    0.7023    1.0548   -1.1535 H   0  0  0  0  0  0  0  0  0  0  0  0
   -0.8932    1.0900   -1.8253 H   0  0  0  0  0  0  0  0  0  0  0  0
   -0.6661    0.9950   -0.0778 H   0  0  0  0  0  0  0  0  0  0  0  0
    0.9359   -3.6032   -1.0829 H   0  0  0  0  0  0  0  0  0  0  0  0
    1.0295   -3.7169    0.6696 H   0  0  0  0  0  0  0  0  0  0  0  0
   -0.5223   -3.6691   -0.1076 H   0  0  0  0  0  0  0  0  0  0  0  0
    3.1035   -2.9791    0.0085 H   0  0  0  0  0  0  0  0  0  0  0  0
   -3.1377   -3.5408   -0.0839 H   0  0  0  0  0  0  0  0  0  0  0  0
   -4.0764   -2.7224    1.1421 H   0  0  0  0  0  0  0  0  0  0  0  0
   -4.3695   -2.3616   -0.5618 H   0  0  0  0  0  0  0  0  0  0  0  0
   -3.9061   -0.6622    2.4940 H   0  0  0  0  0  0  0  0  0  0  0  0
   -5.1272   -0.6579    1.2331 H   0  0  0  0  0  0  0  0  0  0  0  0
   -3.9439    0.7656   -2.7852 H   0  0  0  0  0  0  0  0  0  0  0  0
   -5.7964    1.2347    2.2852 H   0  0  0  0  0  0  0  0  0  0  0  0
   -4.2503    1.5198    3.0240 H   0  0  0  0  0  0  0  0  0  0  0  0
   -3.3565    2.7041    1.2358 H   0  0  0  0  0  0  0  0  0  0  0  0
    5.2347   -1.8834    0.3976 H   0  0  0  0  0  0  0  0  0  0  0  0
    4.5892   -1.4920   -1.1791 H   0  0  0  0  0  0  0  0  0  0  0  0
    2.5780   -0.9503    2.2374 H   0  0  0  0  0  0  0  0  0  0  0  0
    3.8767   -2.1326    2.3435 H   0  0  0  0  0  0  0  0  0  0  0  0
    2.2454   -2.7086    2.2027 H   0  0  0  0  0  0  0  0  0  0  0  0
   -6.1743    1.3727   -1.7872 H   0  0  0  0  0  0  0  0  0  0  0  0
   -6.6621    2.5732   -0.6011 H   0  0  0  0  0  0  0  0  0  0  0  0
   -6.4638    0.8824   -0.1195 H   0  0  0  0  0  0  0  0  0  0  0  0
   -3.0167    3.3249   -1.1642 H   0  0  0  0  0  0  0  0  0  0  0  0
   -4.6246    4.0559   -1.0620 H   0  0  0  0  0  0  0  0  0  0  0  0
   -4.2561    2.9430   -2.3686 H   0  0  0  0  0  0  0  0  0  0  0  0
    3.8014    0.7486   -0.3243 H   0  0  0  0  0  0  0  0  0  0  0  0
    4.4208    0.3133    1.2765 H   0  0  0  0  0  0  0  0  0  0  0  0
   -6.1358    3.2285    1.4114 H   0  0  0  0  0  0  0  0  0  0  0  0
    6.0813    0.5722   -1.2879 H   0  0  0  0  0  0  0  0  0  0  0  0
    7.8097    0.2844    0.1613 H   0  0  0  0  0  0  0  0  0  0  0  0
    4.9616    2.4121    1.9530 H   0  0  0  0  0  0  0  0  0  0  0  0
    6.6345    1.8786    2.2358 H   0  0  0  0  0  0  0  0  0  0  0  0
    6.3101    3.5542    1.8410 H   0  0  0  0  0  0  0  0  0  0  0  0
    5.5614    4.1961   -0.5412 H   0  0  0  0  0  0  0  0  0  0  0  0
    5.4077    2.9535   -1.7704 H   0  0  0  0  0  0  0  0  0  0  0  0
    4.2215    3.0364   -0.4503 H   0  0  0  0  0  0  0  0  0  0  0  0
    7.6584    2.3631   -1.1420 H   0  0  0  0  0  0  0  0  0  0  0  0
  1 14  2  0  0  0  0
  2 25  1  0  0  0  0
  2 75  1  0  0  0  0
  3 31  1  0  0  0  0
  3 77  1  0  0  0  0
  4 32  1  0  0  0  0
  4 84  1  0  0  0  0
  5  6  1  0  0  0  0
  5  7  1  0  0  0  0
  5 10  1  0  0  0  0
  5 16  1  0  0  0  0
  6  9  1  0  0  0  0
  6 11  1  0  0  0  0
  6 17  1  0  0  0  0
  7  8  1  0  0  0  0
  7 15  1  0  0  0  0
  7 35  1  0  0  0  0
  8 13  1  0  0  0  0
  8 14  1  0  0  0  0
  8 20  1  0  0  0  0
  9 12  1  0  0  0  0
  9 18  1  0  0  0  0
  9 36  1  0  0  0  0
 10 12  1  0  0  0  0
 10 37  1  0  0  0  0
 10 38  1  0  0  0  0
 11 14  1  0  0  0  0
 11 39  1  0  0  0  0
 11 40  1  0  0  0  0
 12 41  1  0  0  0  0
 12 42  1  0  0  0  0
 13 19  1  0  0  0  0
 13 21  1  0  0  0  0
 13 43  1  0  0  0  0
 15 22  1  0  0  0  0
 15 44  1  0  0  0  0
 15 45  1  0  0  0  0
 16 46  1  0  0  0  0
 16 47  1  0  0  0  0
 16 48  1  0  0  0  0
 17 49  1  0  0  0  0
 17 50  1  0  0  0  0
 17 51  1  0  0  0  0
 18 26  1  0  0  0  0
 18 27  1  0  0  0  0
 18 52  1  0  0  0  0
 19 22  2  0  0  0  0
 19 23  1  0  0  0  0
 20 53  1  0  0  0  0
 20 54  1  0  0  0  0
 20 55  1  0  0  0  0
 21 24  1  0  0  0  0
 21 56  1  0  0  0  0
 21 57  1  0  0  0  0
 22 58  1  0  0  0  0
 23 25  1  0  0  0  0
 23 28  1  0  0  0  0
 23 29  1  0  0  0  0
 24 25  1  0  0  0  0
 24 59  1  0  0  0  0
 24 60  1  0  0  0  0
 25 61  1  0  0  0  0
 26 30  1  0  0  0  0
 26 62  1  0  0  0  0
 26 63  1  0  0  0  0
 27 64  1  0  0  0  0
 27 65  1  0  0  0  0
 27 66  1  0  0  0  0
 28 67  1  0  0  0  0
 28 68  1  0  0  0  0
 28 69  1  0  0  0  0
 29 70  1  0  0  0  0
 29 71  1  0  0  0  0
 29 72  1  0  0  0  0
 30 31  1  0  0  0  0
 30 73  1  0  0  0  0
 30 74  1  0  0  0  0
 31 32  1  0  0  0  0
 31 76  1  0  0  0  0
 32 33  1  0  0  0  0
 32 34  1  0  0  0  0
 33 78  1  0  0  0  0
 33 79  1  0  0  0  0
 33 80  1  0  0  0  0
 34 81  1  0  0  0  0
 34 82  1  0  0  0  0
 34 83  1  0  0  0  0
M  END
> <PUBCHEM_COMPOUND_CID>
441813

> <PUBCHEM_CONFORMER_RMSD>
1

> <PUBCHEM_CONFORMER_DIVERSEORDER>
2
1
3
4
5
6

> <PUBCHEM_MMFF94_PARTIAL_CHARGES>
19
1 -0.57
11 0.06
13 0.14
14 0.45
15 0.14
19 -0.28
2 -0.68
22 -0.29
23 0.14
25 0.28
3 -0.68
31 0.28
32 0.28
4 -0.68
58 0.15
75 0.4
77 0.4
8 0.06
84 0.4

> <PUBCHEM_EFFECTIVE_ROTOR_COUNT>
6.8

> <PUBCHEM_PHARMACOPHORE_FEATURES>
14
1 1 acceptor
1 2 acceptor
1 2 donor
1 27 hydrophobe
1 3 acceptor
1 3 donor
1 4 acceptor
1 4 donor
3 23 28 29 hydrophobe
3 32 33 34 hydrophobe
5 5 6 9 10 12 rings
6 13 19 21 23 24 25 rings
6 5 6 7 8 11 14 rings
6 7 8 13 15 19 22 rings

> <PUBCHEM_HEAVY_ATOM_COUNT>
34

> <PUBCHEM_ATOM_DEF_STEREO_COUNT>
8

> <PUBCHEM_ATOM_UDEF_STEREO_COUNT>
1

> <PUBCHEM_BOND_DEF_STEREO_COUNT>
0

> <PUBCHEM_BOND_UDEF_STEREO_COUNT>
0

> <PUBCHEM_ISOTOPIC_ATOM_COUNT>
0

> <PUBCHEM_COMPONENT_COUNT>
1

> <PUBCHEM_CACTVS_TAUTO_COUNT>
2

> <PUBCHEM_CONFORMER_ID>
0006BDD500000002

> <PUBCHEM_MMFF94_ENERGY>
142.4767

> <PUBCHEM_FEATURE_SELFOVERLAP>
71.163

> <PUBCHEM_SHAPE_FINGERPRINT>
10554248 39 16950554537270464878
11112241 14 18272373117877823543
11135609 201 18334573512462525427
11578080 2 17822275925387549023
11796584 16 10375330915469936046
12422481 6 16558750139479680246
131258 38 11738989121966299025
13383661 66 6914819324533060637
13690498 29 16227472658723610510
13782708 43 9511460014009444900
13911987 19 17240199924177410983
14211702 104 10159700213984640448
14251751 18 9655578521963171392
14739800 52 18270971244572998752
14790565 3 18409730630296124820
14848178 5 10664100039102020748
14951699 99 18272077306316415156
15082195 135 17603881021504363980
15163728 17 17894908555137067254
15183329 4 16732980895685845700
15475509 35 11959144416604515076
15575132 122 17895192152207364752
15840311 113 18338514265426900949
17980427 23 17917710175834849846
18393751 57 18272926112182033835
19438510 23 18335700567615428249
20691028 202 18336827592978302177
21033648 144 18271817829713438439
21033648 29 17274550935171716685
21033650 10 14707201158666200451
21756936 100 18263366906666150766
22122407 14 18335984190682383464
22393880 68 5111426633717452011
23379529 103 7708873389128289173
23559900 14 18190736642863864494
23569914 152 8140144584714571729
23569914 2 17830219858476335560
249057 25 18116457953743551670
25122255 55 10159702399869611296
27425 322 18190457362930998103
2748736 6 18336837416111541120
2838139 119 18187087248033226064
3552219 110 17461147765591295739
392239 28 17846504695224434420
4144715 1 18338506457582804474
4258327 124 18259710008365051941
44062 13 8358273539563394754
474113 269 13686290246069639241
484985 159 11672064134453697617
5104073 3 17917718998203993338
6034566 193 18260830392916642903
6608658 132 16370997555268861448

> <PUBCHEM_SHAPE_MULTIPOLES>
676.23
15.91
3.9
2.12
21.94
2.04
0
17.71
2.86
0.26
0.66
-1.72
-0.37
-0.03

> <PUBCHEM_SHAPE_SELFOVERLAP>
1416.93

> <PUBCHEM_SHAPE_VOLUME>
380.6

> <PUBCHEM_COORDINATE_TYPE>
2
5
10

$$$$

