18772487
  -OEChem-07051213122D

 40 40  0     1  0  0  0  0  0999 V2000
    5.2464    1.6307    0.0000 S   0  0  0  0  0  0  0  0  0  0  0  0
    5.2464    0.6307    0.0000 P   0  0  3  0  0  0  0  0  0  0  0  0
    6.2464    0.6307    0.0000 O   0  0  0  0  0  0  0  0  0  0  0  0
    4.2464    0.6307    0.0000 O   0  0  0  0  0  0  0  0  0  0  0  0
    5.2464   -0.3693    0.0000 N   0  0  0  0  0  0  0  0  0  0  0  0
    4.7464   -1.9081    0.0000 N   0  0  0  0  0  0  0  0  0  0  0  0
    3.4863   -0.6481    0.0000 N   0  0  0  0  0  0  0  0  0  0  0  0
    2.0000   -1.9863    0.0000 N   0  0  0  0  0  0  0  0  0  0  0  0
    6.0554   -0.9571    0.0000 C   0  0  0  0  0  0  0  0  0  0  0  0
    5.7464   -1.9081    0.0000 C   0  0  0  0  0  0  0  0  0  0  0  0
    4.4374   -0.9571    0.0000 C   0  0  0  0  0  0  0  0  0  0  0  0
    4.1586   -2.7172    0.0000 C   0  0  0  0  0  0  0  0  0  0  0  0
    4.5653   -3.6307    0.0000 C   0  0  0  0  0  0  0  0  0  0  0  0
    6.1124    2.1307    0.0000 C   0  0  0  0  0  0  0  0  0  0  0  0
    6.7464    1.4967    0.0000 C   0  0  0  0  0  0  0  0  0  0  0  0
    6.1124    3.1307    0.0000 C   0  0  0  0  0  0  0  0  0  0  0  0
    7.7464    1.4967    0.0000 C   0  0  0  0  0  0  0  0  0  0  0  0
    6.9784    3.6307    0.0000 C   0  0  0  0  0  0  0  0  0  0  0  0
    2.7431   -1.3172    0.0000 C   0  0  0  0  0  0  0  0  0  0  0  0
    6.6218   -1.2093    0.0000 H   0  0  0  0  0  0  0  0  0  0  0  0
    6.3654   -0.4201    0.0000 H   0  0  0  0  0  0  0  0  0  0  0  0
    5.6816   -2.5247    0.0000 H   0  0  0  0  0  0  0  0  0  0  0  0
    6.3528   -2.0370    0.0000 H   0  0  0  0  0  0  0  0  0  0  0  0
    3.7279   -2.2712    0.0000 H   0  0  0  0  0  0  0  0  0  0  0  0
    3.6446   -3.0639    0.0000 H   0  0  0  0  0  0  0  0  0  0  0  0
    3.9989   -3.8829    0.0000 H   0  0  0  0  0  0  0  0  0  0  0  0
    4.8175   -4.1971    0.0000 H   0  0  0  0  0  0  0  0  0  0  0  0
    5.1317   -3.3785    0.0000 H   0  0  0  0  0  0  0  0  0  0  0  0
    6.3244    1.5481    0.0000 H   0  0  0  0  0  0  0  0  0  0  0  0
    6.7230    2.2384    0.0000 H   0  0  0  0  0  0  0  0  0  0  0  0
    6.8540    2.1073    0.0000 H   0  0  0  0  0  0  0  0  0  0  0  0
    6.1638    1.7088    0.0000 H   0  0  0  0  0  0  0  0  0  0  0  0
    5.9003    3.7133    0.0000 H   0  0  0  0  0  0  0  0  0  0  0  0
    5.5018    3.0230    0.0000 H   0  0  0  0  0  0  0  0  0  0  0  0
    7.2884    3.0938    0.0000 H   0  0  0  0  0  0  0  0  0  0  0  0
    7.5154    3.9407    0.0000 H   0  0  0  0  0  0  0  0  0  0  0  0
    6.6684    4.1676    0.0000 H   0  0  0  0  0  0  0  0  0  0  0  0
    7.7464    0.8767    0.0000 H   0  0  0  0  0  0  0  0  0  0  0  0
    8.3664    1.4967    0.0000 H   0  0  0  0  0  0  0  0  0  0  0  0
    7.7464    2.1167    0.0000 H   0  0  0  0  0  0  0  0  0  0  0  0
  1  2  1  0  0  0  0
  1 14  1  0  0  0  0
  2  3  1  0  0  0  0
  2  4  2  0  0  0  0
  2  5  1  0  0  0  0
  3 15  1  0  0  0  0
  5  9  1  0  0  0  0
  5 11  1  0  0  0  0
  6 10  1  0  0  0  0
  6 11  1  0  0  0  0
  6 12  1  0  0  0  0
  7 11  2  0  0  0  0
  7 19  1  0  0  0  0
  8 19  3  0  0  0  0
  9 10  1  0  0  0  0
  9 20  1  0  0  0  0
  9 21  1  0  0  0  0
 10 22  1  0  0  0  0
 10 23  1  0  0  0  0
 12 13  1  0  0  0  0
 12 24  1  0  0  0  0
 12 25  1  0  0  0  0
 13 26  1  0  0  0  0
 13 27  1  0  0  0  0
 13 28  1  0  0  0  0
 14 16  1  0  0  0  0
 14 29  1  0  0  0  0
 14 30  1  0  0  0  0
 15 17  1  0  0  0  0
 15 31  1  0  0  0  0
 15 32  1  0  0  0  0
 16 18  1  0  0  0  0
 16 33  1  0  0  0  0
 16 34  1  0  0  0  0
 17 38  1  0  0  0  0
 17 39  1  0  0  0  0
 17 40  1  0  0  0  0
 18 35  1  0  0  0  0
 18 36  1  0  0  0  0
 18 37  1  0  0  0  0
M  END
> <PUBCHEM_COMPOUND_CID>
18772487

> <PUBCHEM_COMPOUND_CANONICALIZED>
1

> <PUBCHEM_CACTVS_COMPLEXITY>
420

> <PUBCHEM_CACTVS_HBOND_ACCEPTOR>
5

> <PUBCHEM_CACTVS_HBOND_DONOR>
0

> <PUBCHEM_CACTVS_ROTATABLE_BOND>
7

> <PUBCHEM_CACTVS_SUBSKEYS>
AAADceBzsAJAAAAAAAAAAAAAAAAAAWAAAAAAAAAAAAAAAAAAAAAAHgQAgCAACADlwAaDAAMAARAwQAAAJIAAAAEAAAABAAAIAACAQAAACAAQAAAIAAKAAAAAAAAAAAAAAAAAAAAAAAAAAAAAAAAAAAAAAA==

> <PUBCHEM_IUPAC_OPENEYE_NAME>
[1-[ethoxy(propylsulfanyl)phosphoryl]-3-ethyl-imidazolidin-2-ylidene]cyanamide

> <PUBCHEM_IUPAC_CAS_NAME>
[1-[ethoxy-(propylthio)phosphoryl]-3-ethyl-2-imidazolidinylidene]cyanamide

> <PUBCHEM_IUPAC_NAME>
[1-[ethoxy(propylsulfanyl)phosphoryl]-3-ethylimidazolidin-2-ylidene]cyanamide

> <PUBCHEM_IUPAC_SYSTEMATIC_NAME>
[1-[ethoxy(propylsulfanyl)phosphoryl]-3-ethyl-imidazolidin-2-ylidene]cyanamide

> <PUBCHEM_IUPAC_TRADITIONAL_NAME>
[1-[ethoxy-(propylthio)phosphoryl]-3-ethyl-imidazolidin-2-ylidene]cyanamide

> <PUBCHEM_IUPAC_INCHI>
InChI=1S/C11H21N4O2PS/c1-4-9-19-18(16,17-6-3)15-8-7-14(5-2)11(15)13-10-12/h4-9H2,1-3H3

> <PUBCHEM_IUPAC_INCHIKEY>
PPCUNNLZTNMXFO-UHFFFAOYSA-N

> <PUBCHEM_XLOGP3_AA>
1.3

> <PUBCHEM_EXACT_MASS>
304.112284

> <PUBCHEM_MOLECULAR_FORMULA>
C11H21N4O2PS

> <PUBCHEM_MOLECULAR_WEIGHT>
304.348802

> <PUBCHEM_OPENEYE_CAN_SMILES>
CCCSP(=O)(N1CCN(C1=NC#N)CC)OCC

> <PUBCHEM_OPENEYE_ISO_SMILES>
CCCSP(=O)(N1CCN(C1=NC#N)CC)OCC

> <PUBCHEM_CACTVS_TPSA>
94.2

> <PUBCHEM_MONOISOTOPIC_WEIGHT>
304.112284

> <PUBCHEM_TOTAL_CHARGE>
0

> <PUBCHEM_HEAVY_ATOM_COUNT>
19

> <PUBCHEM_ATOM_DEF_STEREO_COUNT>
0

> <PUBCHEM_ATOM_UDEF_STEREO_COUNT>
1

> <PUBCHEM_BOND_DEF_STEREO_COUNT>
0

> <PUBCHEM_BOND_UDEF_STEREO_COUNT>
0

> <PUBCHEM_ISOTOPIC_ATOM_COUNT>
0

> <PUBCHEM_COMPONENT_COUNT>
1

> <PUBCHEM_CACTVS_TAUTO_COUNT>
1

> <PUBCHEM_COORDINATE_TYPE>
1
5
255

> <PUBCHEM_BONDANNOTATIONS>
2  1  3

$$$$

