439902
  -OEChem-07051212483D

 20 19  0     1  0  0  0  0  0999 V2000
   -1.0369   -1.2650    1.0942 O   0  0  0  0  0  0  0  0  0  0  0  0
    1.8576   -1.7009   -0.4018 O   0  0  0  0  0  0  0  0  0  0  0  0
   -2.4500    0.9550   -1.3434 O   0  0  0  0  0  0  0  0  0  0  0  0
    2.8100    0.1837   -1.2324 O   0  0  0  0  0  0  0  0  0  0  0  0
   -3.4134   -0.1806    0.3757 O   0  0  0  0  0  0  0  0  0  0  0  0
    2.2129    1.4832    1.1243 N   0  0  0  0  0  0  0  0  0  0  0  0
   -0.0298    0.7820    0.3127 C   0  0  0  0  0  0  0  0  0  0  0  0
    1.3856    0.3454    0.7404 C   0  0  1  0  0  0  0  0  0  0  0  0
   -1.0129   -0.3554    0.0062 C   0  0  2  0  0  0  0  0  0  0  0  0
    2.1002   -0.3631   -0.3981 C   0  0  0  0  0  0  0  0  0  0  0  0
   -2.4232    0.1156   -0.2777 C   0  0  0  0  0  0  0  0  0  0  0  0
    0.0357    1.4434   -0.5615 H   0  0  0  0  0  0  0  0  0  0  0  0
   -0.4553    1.3885    1.1245 H   0  0  0  0  0  0  0  0  0  0  0  0
    1.3388   -0.3294    1.6020 H   0  0  0  0  0  0  0  0  0  0  0  0
   -0.6778   -0.9144   -0.8750 H   0  0  0  0  0  0  0  0  0  0  0  0
    2.3058    2.1306    0.3426 H   0  0  0  0  0  0  0  0  0  0  0  0
    3.1537    1.1698    1.3591 H   0  0  0  0  0  0  0  0  0  0  0  0
   -1.5547   -2.0406    0.8179 H   0  0  0  0  0  0  0  0  0  0  0  0
    2.3163   -2.1530   -1.1416 H   0  0  0  0  0  0  0  0  0  0  0  0
   -3.3558    1.2832   -1.5283 H   0  0  0  0  0  0  0  0  0  0  0  0
  1  9  1  0  0  0  0
  1 18  1  0  0  0  0
  2 10  1  0  0  0  0
  2 19  1  0  0  0  0
  3 11  1  0  0  0  0
  3 20  1  0  0  0  0
  4 10  2  0  0  0  0
  5 11  2  0  0  0  0
  6  8  1  0  0  0  0
  6 16  1  0  0  0  0
  6 17  1  0  0  0  0
  7  8  1  0  0  0  0
  7  9  1  0  0  0  0
  7 12  1  0  0  0  0
  7 13  1  0  0  0  0
  8 10  1  0  0  0  0
  8 14  1  0  0  0  0
  9 11  1  0  0  0  0
  9 15  1  0  0  0  0
M  END
> <PUBCHEM_COMPOUND_CID>
439902

> <PUBCHEM_CONFORMER_RMSD>
0.6

> <PUBCHEM_CONFORMER_DIVERSEORDER>
1
33
7
39
19
34
21
22
40
37
29
32
31
4
16
14
28
10
17
15
38
11
30
2
8
35
27
3
25
36
26
18
20
9
6
5
24
23
12
13

> <PUBCHEM_MMFF94_PARTIAL_CHARGES>
15
1 -0.68
10 0.66
11 0.66
16 0.36
17 0.36
18 0.4
19 0.5
2 -0.65
20 0.5
3 -0.65
4 -0.57
5 -0.57
6 -0.99
8 0.33
9 0.34

> <PUBCHEM_EFFECTIVE_ROTOR_COUNT>
4

> <PUBCHEM_PHARMACOPHORE_FEATURES>
10
1 1 acceptor
1 1 donor
1 2 acceptor
1 3 acceptor
1 4 acceptor
1 5 acceptor
1 6 cation
1 6 donor
3 2 4 10 anion
3 3 5 11 anion

> <PUBCHEM_HEAVY_ATOM_COUNT>
11

> <PUBCHEM_ATOM_DEF_STEREO_COUNT>
1

> <PUBCHEM_ATOM_UDEF_STEREO_COUNT>
1

> <PUBCHEM_BOND_DEF_STEREO_COUNT>
0

> <PUBCHEM_BOND_UDEF_STEREO_COUNT>
0

> <PUBCHEM_ISOTOPIC_ATOM_COUNT>
0

> <PUBCHEM_COMPONENT_COUNT>
1

> <PUBCHEM_CACTVS_TAUTO_COUNT>
1

> <PUBCHEM_CONFORMER_ID>
0006B65E00000001

> <PUBCHEM_MMFF94_ENERGY>
8.0956

> <PUBCHEM_FEATURE_SELFOVERLAP>
50.866

> <PUBCHEM_SHAPE_FINGERPRINT>
12897270 3 18270666615585844308
12932741 1 18335698295651321706
12932764 1 18335424569011942879
20201158 50 18335139808274610762
20645464 45 18340782437497441865
20653085 51 17822003238082568801
21040471 1 17846510243778816531
23552333 60 16732986414154143474
23552423 10 17676492730705774077
3248919 1 16343715343347418993
5084963 1 18201998880167871647

> <PUBCHEM_SHAPE_MULTIPOLES>
192.05
4.68
1.27
1.12
1.7
0.08
-0.16
-0.14
-0.88
-0.8
0.22
0.05
-0.07
0.69

> <PUBCHEM_SHAPE_SELFOVERLAP>
369.791

> <PUBCHEM_SHAPE_VOLUME>
115.9

> <PUBCHEM_COORDINATE_TYPE>
2
5
10

$$$$

