4396
  -OEChem-06261200063D

 47 50  0     1  0  0  0  0  0999 V2000
    4.2663    0.6525    0.9969 O   0  0  0  0  0  0  0  0  0  0  0  0
    5.2401   -1.7136   -0.9388 O   0  0  0  0  0  0  0  0  0  0  0  0
    6.0979    0.6021   -2.0938 O   0  0  0  0  0  0  0  0  0  0  0  0
    5.8957    2.8549    1.6831 O   0  0  0  0  0  0  0  0  0  0  0  0
    2.1844   -0.2286    0.2731 N   0  0  0  0  0  0  0  0  0  0  0  0
    0.2624    0.8867    0.0743 N   0  0  0  0  0  0  0  0  0  0  0  0
    1.3282   -2.4885    0.5231 N   0  0  0  0  0  0  0  0  0  0  0  0
   -2.4191   -0.5441    0.1606 N   0  0  0  0  0  0  0  0  0  0  0  0
   -1.1109   -2.5271    0.4486 N   0  0  0  0  0  0  0  0  0  0  0  0
   -8.1009    2.2484   -0.5104 N   0  0  0  0  0  0  0  0  0  0  0  0
    4.2901   -0.6522   -1.0173 C   0  0  1  0  0  0  0  0  0  0  0  0
    3.6267   -0.4677    0.3486 C   0  0  1  0  0  0  0  0  0  0  0  0
    4.9752    0.6825   -1.2422 C   0  0  1  0  0  0  0  0  0  0  0  0
    5.3565    1.0915    0.1700 C   0  0  1  0  0  0  0  0  0  0  0  0
    5.5559    2.5876    0.3339 C   0  0  0  0  0  0  0  0  0  0  0  0
    1.1914   -1.1644    0.3558 C   0  0  0  0  0  0  0  0  0  0  0  0
    1.5749    0.9877    0.1048 C   0  0  0  0  0  0  0  0  0  0  0  0
    0.0089   -0.4529    0.2300 C   0  0  0  0  0  0  0  0  0  0  0  0
   -1.1736   -1.1841    0.2812 C   0  0  0  0  0  0  0  0  0  0  0  0
    0.1180   -3.0876    0.5576 C   0  0  0  0  0  0  0  0  0  0  0  0
   -3.6668   -1.2471    0.2061 C   0  0  0  0  0  0  0  0  0  0  0  0
   -4.8393   -0.3218    0.0165 C   0  0  0  0  0  0  0  0  0  0  0  0
   -5.3162   -0.0771   -1.2634 C   0  0  0  0  0  0  0  0  0  0  0  0
   -5.4269    0.2722    1.1246 C   0  0  0  0  0  0  0  0  0  0  0  0
   -6.4030    0.7794   -1.4391 C   0  0  0  0  0  0  0  0  0  0  0  0
   -6.5138    1.1287    0.9491 C   0  0  0  0  0  0  0  0  0  0  0  0
   -7.0020    1.3823   -0.3328 C   0  0  0  0  0  0  0  0  0  0  0  0
    3.5955   -0.9012   -1.8261 H   0  0  0  0  0  0  0  0  0  0  0  0
    3.7674   -1.3379    1.0001 H   0  0  0  0  0  0  0  0  0  0  0  0
    4.2530    1.3902   -1.6677 H   0  0  0  0  0  0  0  0  0  0  0  0
    6.2583    0.5656    0.5098 H   0  0  0  0  0  0  0  0  0  0  0  0
    4.6410    3.1436    0.1044 H   0  0  0  0  0  0  0  0  0  0  0  0
    6.3633    2.9569   -0.3045 H   0  0  0  0  0  0  0  0  0  0  0  0
    4.7467   -2.5312   -0.7546 H   0  0  0  0  0  0  0  0  0  0  0  0
    6.4944    1.4881   -2.1455 H   0  0  0  0  0  0  0  0  0  0  0  0
    2.1302    1.9104    0.0057 H   0  0  0  0  0  0  0  0  0  0  0  0
    5.1718    2.5206    2.2399 H   0  0  0  0  0  0  0  0  0  0  0  0
   -2.4111    0.4631    0.0399 H   0  0  0  0  0  0  0  0  0  0  0  0
    0.1303   -4.1641    0.6904 H   0  0  0  0  0  0  0  0  0  0  0  0
   -3.7722   -1.7717    1.1647 H   0  0  0  0  0  0  0  0  0  0  0  0
   -3.6947   -2.0243   -0.5689 H   0  0  0  0  0  0  0  0  0  0  0  0
   -4.8558   -0.5401   -2.1317 H   0  0  0  0  0  0  0  0  0  0  0  0
   -5.0531    0.0827    2.1268 H   0  0  0  0  0  0  0  0  0  0  0  0
   -6.7738    0.9695   -2.4431 H   0  0  0  0  0  0  0  0  0  0  0  0
   -6.9715    1.5927    1.8190 H   0  0  0  0  0  0  0  0  0  0  0  0
   -8.4556    2.4322   -1.4395 H   0  0  0  0  0  0  0  0  0  0  0  0
   -8.5358    2.6853    0.2912 H   0  0  0  0  0  0  0  0  0  0  0  0
  1 12  1  0  0  0  0
  1 14  1  0  0  0  0
  2 11  1  0  0  0  0
  2 34  1  0  0  0  0
  3 13  1  0  0  0  0
  3 35  1  0  0  0  0
  4 15  1  0  0  0  0
  4 37  1  0  0  0  0
  5 12  1  0  0  0  0
  5 16  1  0  0  0  0
  5 17  1  0  0  0  0
  6 17  2  0  0  0  0
  6 18  1  0  0  0  0
  7 16  2  0  0  0  0
  7 20  1  0  0  0  0
  8 19  1  0  0  0  0
  8 21  1  0  0  0  0
  8 38  1  0  0  0  0
  9 19  1  0  0  0  0
  9 20  2  0  0  0  0
 10 27  1  0  0  0  0
 10 46  1  0  0  0  0
 10 47  1  0  0  0  0
 11 12  1  0  0  0  0
 11 13  1  0  0  0  0
 11 28  1  0  0  0  0
 12 29  1  0  0  0  0
 13 14  1  0  0  0  0
 13 30  1  0  0  0  0
 14 15  1  0  0  0  0
 14 31  1  0  0  0  0
 15 32  1  0  0  0  0
 15 33  1  0  0  0  0
 16 18  1  0  0  0  0
 17 36  1  0  0  0  0
 18 19  2  0  0  0  0
 20 39  1  0  0  0  0
 21 22  1  0  0  0  0
 21 40  1  0  0  0  0
 21 41  1  0  0  0  0
 22 23  2  0  0  0  0
 22 24  1  0  0  0  0
 23 25  1  0  0  0  0
 23 42  1  0  0  0  0
 24 26  2  0  0  0  0
 24 43  1  0  0  0  0
 25 27  2  0  0  0  0
 25 44  1  0  0  0  0
 26 27  1  0  0  0  0
 26 45  1  0  0  0  0
M  END
> <PUBCHEM_COMPOUND_CID>
4396

> <PUBCHEM_CONFORMER_RMSD>
1

> <PUBCHEM_CONFORMER_DIVERSEORDER>
38
161
175
351
16
11
177
381
46
33
539
78
163
335
384
391
320
154
2
350
472
388
167
344
32
385
102
7
52
519
21
517
380
51
92
669
260
411
376
70
393
8
189
59
14
100
166
252
47
250
22
91
149
267
1
86
686
523
450
466
363
68
667
460
338
80
111
169
62
95
243
17
442
30
430
6
524
72
3
65
88
84
340
168
426
10
688
565
89
103
118
502
595
13
20
434
249
471
71
48
54
57
4
373
299
554
328
513
591
225
104
235
656
255
332
28
136
74
633
142
270
183
93
170
116
364
77
187
453
172
12
138
461
443
210
272
315
108
232
347
9
141
526
639
115
185
198
121
305

> <PUBCHEM_MMFF94_PARTIAL_CHARGES>
39
1 -0.56
10 -0.9
11 0.28
12 0.54
13 0.28
14 0.28
15 0.28
16 0.11
17 0.04
18 0.23
19 0.41
2 -0.68
20 0.47
21 0.51
22 -0.14
23 -0.15
24 -0.15
25 -0.15
26 -0.15
27 0.1
3 -0.68
34 0.4
35 0.4
36 0.15
37 0.4
38 0.4
39 0.15
4 -0.68
42 0.15
43 0.15
44 0.15
45 0.15
46 0.4
47 0.4
5 0.05
6 -0.57
7 -0.57
8 -0.87
9 -0.62

> <PUBCHEM_EFFECTIVE_ROTOR_COUNT>
6

> <PUBCHEM_PHARMACOPHORE_FEATURES>
18
1 1 acceptor
1 10 cation
1 10 donor
1 2 acceptor
1 2 donor
1 3 acceptor
1 3 donor
1 4 acceptor
1 4 donor
1 8 cation
1 8 donor
3 5 6 17 cation
3 5 7 16 cation
3 7 9 20 cation
5 1 11 12 13 14 rings
5 5 6 16 17 18 rings
6 22 23 24 25 26 27 rings
6 7 9 16 18 19 20 rings

> <PUBCHEM_HEAVY_ATOM_COUNT>
27

> <PUBCHEM_ATOM_DEF_STEREO_COUNT>
0

> <PUBCHEM_ATOM_UDEF_STEREO_COUNT>
4

> <PUBCHEM_BOND_DEF_STEREO_COUNT>
0

> <PUBCHEM_BOND_UDEF_STEREO_COUNT>
0

> <PUBCHEM_ISOTOPIC_ATOM_COUNT>
0

> <PUBCHEM_COMPONENT_COUNT>
1

> <PUBCHEM_CACTVS_TAUTO_COUNT>
3

> <PUBCHEM_CONFORMER_ID>
0000112C00000026

> <PUBCHEM_MMFF94_ENERGY>
79.7133

> <PUBCHEM_FEATURE_SELFOVERLAP>
91.96

> <PUBCHEM_SHAPE_FINGERPRINT>
10 15 17275097341501774985
10411042 1 17692255557262958010
10554248 39 18200047238529104991
10835480 77 18188493471649448224
10906281 52 17988630918067770185
11475781 23 18260548892602365484
11796584 16 15357702993639935151
12166972 35 5689595013008750779
12236239 1 17967535688278135043
13668630 136 7493278946627032453
13685833 64 8358252649332784863
14123256 34 7925633328016023349
14790565 3 18411976979258176353
15183329 4 17240479238922494607
15716309 27 11743836967885980229
1601671 61 18202846547708823335
17492 89 8140993519587366532
18222031 100 5617263636781607930
20281389 69 18201722855863420809
20715895 44 18339645538691251784
21033648 29 18201720609020505658
21033650 10 15936683879078106699
21150785 3 17095527245072523189
21279426 13 18408595963886647562
21424621 283 18411702062717502505
23559900 14 18337660912119356478
24771293 8 18268436737391557956
2748736 6 18340215111041060393
2838139 119 18408608093058466127
293599 30 18343017774601475275
29717793 49 17458339767016159142
312425 54 13326854426844431225
3504750 166 11887683875203747899
3663271 9 13901906709079244277
465052 167 9511461138710524186
50009960 94 6842272323509885340
5104073 3 18131356275759035370
5718773 13 7204503177694032644
6328613 192 18259703389519807081
8863177 126 6338369563540959965

> <PUBCHEM_SHAPE_MULTIPOLES>
502.28
20.73
2.66
1.26
18.93
0.54
-0.31
-16.65
-3.82
-1.72
0.73
-0.7
-0.41
1.48

> <PUBCHEM_SHAPE_SELFOVERLAP>
1094.853

> <PUBCHEM_SHAPE_VOLUME>
269.1

> <PUBCHEM_COORDINATE_TYPE>
2
5
10

$$$$

