10243936
  -OEChem-07051213103D

 42 42  0     1  0  0  0  0  0999 V2000
   -2.1176   -1.9257    1.2303 O   0  0  0  0  0  0  0  0  0  0  0  0
   -3.6825    0.1515    0.0435 O   0  0  0  0  0  0  0  0  0  0  0  0
    3.8978    0.1623   -0.5972 O   0  0  0  0  0  0  0  0  0  0  0  0
   -0.0950   -1.1492    0.1474 C   0  0  2  0  0  0  0  0  0  0  0  0
   -1.6439   -1.1263    0.1398 C   0  0  2  0  0  0  0  0  0  0  0  0
    0.4285   -2.5693   -0.1081 C   0  0  0  0  0  0  0  0  0  0  0  0
    0.4941   -0.6051    1.4679 C   0  0  0  0  0  0  0  0  0  0  0  0
   -2.2713    0.2838    0.2687 C   0  0  1  0  0  0  0  0  0  0  0  0
    1.8420    0.1181    1.3169 C   0  0  0  0  0  0  0  0  0  0  0  0
   -0.1755   -3.1245   -1.3896 C   0  0  0  0  0  0  0  0  0  0  0  0
    1.9486   -2.5601   -0.1757 C   0  0  0  0  0  0  0  0  0  0  0  0
   -1.7337    1.3442   -0.6721 C   0  0  0  0  0  0  0  0  0  0  0  0
   -1.3505    2.6805   -0.0690 C   0  0  0  0  0  0  0  0  0  0  0  0
    1.9477    1.1886    0.2590 C   0  0  0  0  0  0  0  0  0  0  0  0
   -0.0733    2.6739    0.7877 C   0  0  0  0  0  0  0  0  0  0  0  0
    1.1496    2.2459    0.0249 C   0  0  0  0  0  0  0  0  0  0  0  0
   -1.6464    1.1443   -1.9986 C   0  0  0  0  0  0  0  0  0  0  0  0
    3.0815    1.0670   -0.6759 C   0  0  0  0  0  0  0  0  0  0  0  0
    0.2368   -0.5270   -0.6899 H   0  0  0  0  0  0  0  0  0  0  0  0
   -2.0529   -1.5765   -0.7683 H   0  0  0  0  0  0  0  0  0  0  0  0
    0.1362   -3.2389    0.7112 H   0  0  0  0  0  0  0  0  0  0  0  0
    0.6180   -1.4204    2.1934 H   0  0  0  0  0  0  0  0  0  0  0  0
   -0.2046    0.0735    1.9581 H   0  0  0  0  0  0  0  0  0  0  0  0
   -2.1850    0.6264    1.3056 H   0  0  0  0  0  0  0  0  0  0  0  0
    2.6681   -0.5890    1.2572 H   0  0  0  0  0  0  0  0  0  0  0  0
    2.0338    0.6202    2.2772 H   0  0  0  0  0  0  0  0  0  0  0  0
   -0.1046   -2.4114   -2.2181 H   0  0  0  0  0  0  0  0  0  0  0  0
    0.3479   -4.0366   -1.6994 H   0  0  0  0  0  0  0  0  0  0  0  0
   -1.2223   -3.4156   -1.2610 H   0  0  0  0  0  0  0  0  0  0  0  0
    2.3270   -1.7751   -0.8319 H   0  0  0  0  0  0  0  0  0  0  0  0
    2.3094   -3.5088   -0.5928 H   0  0  0  0  0  0  0  0  0  0  0  0
    2.4021   -2.5075    0.8157 H   0  0  0  0  0  0  0  0  0  0  0  0
   -1.2329    3.4304   -0.8634 H   0  0  0  0  0  0  0  0  0  0  0  0
   -2.1869    3.0383    0.5454 H   0  0  0  0  0  0  0  0  0  0  0  0
   -1.8904   -1.4786    2.0625 H   0  0  0  0  0  0  0  0  0  0  0  0
   -0.2222    2.0912    1.6975 H   0  0  0  0  0  0  0  0  0  0  0  0
    0.1025    3.7003    1.1360 H   0  0  0  0  0  0  0  0  0  0  0  0
    1.3891    2.9164   -0.8007 H   0  0  0  0  0  0  0  0  0  0  0  0
   -4.0853    1.0282    0.1681 H   0  0  0  0  0  0  0  0  0  0  0  0
   -1.9429    0.2042   -2.4509 H   0  0  0  0  0  0  0  0  0  0  0  0
   -1.2775    1.9178   -2.6638 H   0  0  0  0  0  0  0  0  0  0  0  0
    3.1643    1.8379   -1.4604 H   0  0  0  0  0  0  0  0  0  0  0  0
  1  5  1  0  0  0  0
  1 35  1  0  0  0  0
  2  8  1  0  0  0  0
  2 39  1  0  0  0  0
  3 18  2  0  0  0  0
  4  5  1  0  0  0  0
  4  6  1  0  0  0  0
  4  7  1  0  0  0  0
  4 19  1  0  0  0  0
  5  8  1  0  0  0  0
  5 20  1  0  0  0  0
  6 10  1  0  0  0  0
  6 11  1  0  0  0  0
  6 21  1  0  0  0  0
  7  9  1  0  0  0  0
  7 22  1  0  0  0  0
  7 23  1  0  0  0  0
  8 12  1  0  0  0  0
  8 24  1  0  0  0  0
  9 14  1  0  0  0  0
  9 25  1  0  0  0  0
  9 26  1  0  0  0  0
 10 27  1  0  0  0  0
 10 28  1  0  0  0  0
 10 29  1  0  0  0  0
 11 30  1  0  0  0  0
 11 31  1  0  0  0  0
 11 32  1  0  0  0  0
 12 13  1  0  0  0  0
 12 17  2  0  0  0  0
 13 15  1  0  0  0  0
 13 33  1  0  0  0  0
 13 34  1  0  0  0  0
 14 16  2  0  0  0  0
 14 18  1  0  0  0  0
 15 16  1  0  0  0  0
 15 36  1  0  0  0  0
 15 37  1  0  0  0  0
 16 38  1  0  0  0  0
 17 40  1  0  0  0  0
 17 41  1  0  0  0  0
 18 42  1  0  0  0  0
M  END
> <PUBCHEM_COMPOUND_CID>
10243936

> <PUBCHEM_CONFORMER_RMSD>
0.6

> <PUBCHEM_CONFORMER_DIVERSEORDER>
3
6
5
12
1
14
7
17
8
9
10
2
16
11
13
15
4

> <PUBCHEM_MMFF94_PARTIAL_CHARGES>
19
1 -0.68
12 -0.28
13 0.14
14 -0.12
15 0.14
16 -0.29
17 -0.3
18 0.5
2 -0.68
3 -0.57
35 0.4
38 0.15
39 0.4
40 0.15
41 0.15
42 0.06
5 0.28
8 0.42
9 0.14

> <PUBCHEM_EFFECTIVE_ROTOR_COUNT>
3.4

> <PUBCHEM_PHARMACOPHORE_FEATURES>
6
1 1 acceptor
1 1 donor
1 2 acceptor
1 2 donor
1 3 acceptor
3 6 10 11 hydrophobe

> <PUBCHEM_HEAVY_ATOM_COUNT>
18

> <PUBCHEM_ATOM_DEF_STEREO_COUNT>
3

> <PUBCHEM_ATOM_UDEF_STEREO_COUNT>
0

> <PUBCHEM_BOND_DEF_STEREO_COUNT>
1

> <PUBCHEM_BOND_UDEF_STEREO_COUNT>
0

> <PUBCHEM_ISOTOPIC_ATOM_COUNT>
0

> <PUBCHEM_COMPONENT_COUNT>
1

> <PUBCHEM_CACTVS_TAUTO_COUNT>
1

> <PUBCHEM_CONFORMER_ID>
009C4F6000000003

> <PUBCHEM_MMFF94_ENERGY>
47.4903

> <PUBCHEM_FEATURE_SELFOVERLAP>
30.451

> <PUBCHEM_SHAPE_FINGERPRINT>
10967382 1 18410291414973936858
12654903 92 18047186350228797648
13140716 1 16179043316190040817
1420 336 17834119641071199594
14251711 518 17621613713040323130
14251745 187 18334289898945379492
15775835 57 18131071489420281440
16945 1 17774176616466876721
20588541 1 18342172254770843281
20905425 154 18339078306032755774
22802520 49 16890898566161797703
22889148 1 17983887517230786388
2334 1 17836372549002498969
23419403 2 16758533747256648952
238 59 17982210869525812245
2748010 2 18052831242905070921
2897 32 15167421923511000619
3060560 45 18335146332488117655
589210 1 17977097186799762008
7832392 63 17328011080178313827
81228 2 17616267883227394370

> <PUBCHEM_SHAPE_MULTIPOLES>
352.82
4.2
3.72
1.35
0.64
1.07
0.2
-0.85
0.68
0.48
0.44
-0.18
0.16
0.37

> <PUBCHEM_SHAPE_SELFOVERLAP>
699.692

> <PUBCHEM_SHAPE_VOLUME>
207.8

> <PUBCHEM_COORDINATE_TYPE>
2
5
10

$$$$

