12279
  -OEChem-06261206453D

 12 12  0     0  0  0  0  0  0999 V2000
   -2.2200   -2.4212    0.0000 Br  0  0  0  0  0  0  0  0  0  0  0  0
    3.2070   -0.7117    0.0000 Br  0  0  0  0  0  0  0  0  0  0  0  0
   -0.9872    3.1330   -0.0001 Br  0  0  0  0  0  0  0  0  0  0  0  0
   -0.9425   -1.0283    0.0000 C   0  0  0  0  0  0  0  0  0  0  0  0
    1.3618   -0.3022    0.0000 C   0  0  0  0  0  0  0  0  0  0  0  0
   -0.4192    1.3304    0.0001 C   0  0  0  0  0  0  0  0  0  0  0  0
    0.4192   -1.3304   -0.0001 C   0  0  0  0  0  0  0  0  0  0  0  0
   -1.3617    0.3020    0.0000 C   0  0  0  0  0  0  0  0  0  0  0  0
    0.9427    1.0283    0.0001 C   0  0  0  0  0  0  0  0  0  0  0  0
    0.7461   -2.3679   -0.0001 H   0  0  0  0  0  0  0  0  0  0  0  0
   -2.4237    0.5377   -0.0001 H   0  0  0  0  0  0  0  0  0  0  0  0
    1.6778    1.8302    0.0001 H   0  0  0  0  0  0  0  0  0  0  0  0
  1  4  1  0  0  0  0
  2  5  1  0  0  0  0
  3  6  1  0  0  0  0
  4  7  2  0  0  0  0
  4  8  1  0  0  0  0
  5  7  1  0  0  0  0
  5  9  2  0  0  0  0
  6  8  2  0  0  0  0
  6  9  1  0  0  0  0
  7 10  1  0  0  0  0
  8 11  1  0  0  0  0
  9 12  1  0  0  0  0
M  END
> <PUBCHEM_COMPOUND_CID>
12279

> <PUBCHEM_CONFORMER_RMSD>
0.4

> <PUBCHEM_CONFORMER_DIVERSEORDER>
1

> <PUBCHEM_MMFF94_PARTIAL_CHARGES>
12
1 -0.11
10 0.15
11 0.15
12 0.15
2 -0.11
3 -0.11
4 0.11
5 0.11
6 0.11
7 -0.15
8 -0.15
9 -0.15

> <PUBCHEM_EFFECTIVE_ROTOR_COUNT>
0

> <PUBCHEM_PHARMACOPHORE_FEATURES>
4
1 1 hydrophobe
1 2 hydrophobe
1 3 hydrophobe
6 4 5 6 7 8 9 rings

> <PUBCHEM_HEAVY_ATOM_COUNT>
9

> <PUBCHEM_ATOM_DEF_STEREO_COUNT>
0

> <PUBCHEM_ATOM_UDEF_STEREO_COUNT>
0

> <PUBCHEM_BOND_DEF_STEREO_COUNT>
0

> <PUBCHEM_BOND_UDEF_STEREO_COUNT>
0

> <PUBCHEM_ISOTOPIC_ATOM_COUNT>
0

> <PUBCHEM_COMPONENT_COUNT>
1

> <PUBCHEM_CACTVS_TAUTO_COUNT>
1

> <PUBCHEM_CONFORMER_ID>
00002FF700000001

> <PUBCHEM_MMFF94_ENERGY>
16.0821

> <PUBCHEM_FEATURE_SELFOVERLAP>
20.297

> <PUBCHEM_SHAPE_FINGERPRINT>
1 1 17186158107095921396
12423570 1 10296413386096204525
12716758 59 18119527884765874950
16945 1 18338516451401359878
19021347 4 17978511158626254106
193761 8 18338797806008625700
20645477 70 17546456574661406055
20711985 344 18339654420071612258
20871998 184 18259703402235845542
20871998 22 18263635169907052222
21040471 1 17978228588665095328
23552423 10 18201155456181598910
241688 4 18338797818845594019
2748010 2 18264779761226178300
81228 2 18410575114727850193

> <PUBCHEM_SHAPE_MULTIPOLES>
203.04
3.37
3.37
0.66
2.69
2.2
0
-2.2
0
-2.68
0
0
0
0

> <PUBCHEM_SHAPE_SELFOVERLAP>
376.573

> <PUBCHEM_SHAPE_VOLUME>
133.3

> <PUBCHEM_COORDINATE_TYPE>
2
5
10

$$$$

