4367
  -OEChem-06261200043D

 28 27  0     1  0  0  0  0  0999 V2000
    4.2213   -0.0784   -1.3805 O   0  0  0  0  0  0  0  0  0  0  0  0
    2.7684   -1.7037   -0.7515 O   0  0  0  0  0  0  0  0  0  0  0  0
   -4.1139   -2.1107    0.0934 O   0  5  0  0  0  0  0  0  0  0  0  0
   -1.9507   -1.7318   -0.0508 O   0  0  0  0  0  0  0  0  0  0  0  0
    3.4748   -0.5901    1.8504 N   0  0  0  0  0  0  0  0  0  0  0  0
   -1.1838    0.7642   -0.1402 N   0  0  0  0  0  0  0  0  0  0  0  0
   -3.4291   -0.0303    0.0182 N   0  0  0  0  0  0  0  0  0  0  0  0
   -3.0745    2.2129   -0.0406 N   0  0  0  0  0  0  0  0  0  0  0  0
   -3.1289   -1.3688    0.0187 N   0  3  0  0  0  0  0  0  0  0  0  0
    1.6227    0.6562    0.8416 C   0  0  0  0  0  0  0  0  0  0  0  0
    1.1446    1.4857   -0.3591 C   0  0  0  0  0  0  0  0  0  0  0  0
    3.0907    0.2260    0.7013 C   0  0  2  0  0  0  0  0  0  0  0  0
   -0.3064    1.9336   -0.2157 C   0  0  0  0  0  0  0  0  0  0  0  0
    3.3252   -0.6374   -0.5246 C   0  0  0  0  0  0  0  0  0  0  0  0
   -2.4606    0.9727   -0.0606 C   0  0  0  0  0  0  0  0  0  0  0  0
    0.9883   -0.2338    0.9436 H   0  0  0  0  0  0  0  0  0  0  0  0
    1.4978    1.2450    1.7595 H   0  0  0  0  0  0  0  0  0  0  0  0
    1.7824    2.3711   -0.4675 H   0  0  0  0  0  0  0  0  0  0  0  0
    1.2437    0.9003   -1.2808 H   0  0  0  0  0  0  0  0  0  0  0  0
    3.7345    1.1120    0.6574 H   0  0  0  0  0  0  0  0  0  0  0  0
   -0.4072    2.5478    0.6873 H   0  0  0  0  0  0  0  0  0  0  0  0
   -0.5632    2.5479   -1.0871 H   0  0  0  0  0  0  0  0  0  0  0  0
    3.3289   -0.0621    2.7100 H   0  0  0  0  0  0  0  0  0  0  0  0
    4.4733   -0.7922    1.8094 H   0  0  0  0  0  0  0  0  0  0  0  0
    4.3603   -0.6334   -2.1772 H   0  0  0  0  0  0  0  0  0  0  0  0
   -4.3951    0.2832    0.0756 H   0  0  0  0  0  0  0  0  0  0  0  0
   -2.5489    3.0783   -0.0854 H   0  0  0  0  0  0  0  0  0  0  0  0
   -4.0832    2.2988    0.0230 H   0  0  0  0  0  0  0  0  0  0  0  0
  1 14  1  0  0  0  0
  1 25  1  0  0  0  0
  2 14  2  0  0  0  0
  3  9  1  0  0  0  0
  4  9  2  0  0  0  0
  5 12  1  0  0  0  0
  5 23  1  0  0  0  0
  5 24  1  0  0  0  0
  6 13  1  0  0  0  0
  6 15  2  0  0  0  0
  7  9  1  0  0  0  0
  7 15  1  0  0  0  0
  7 26  1  0  0  0  0
  8 15  1  0  0  0  0
  8 27  1  0  0  0  0
  8 28  1  0  0  0  0
 10 11  1  0  0  0  0
 10 12  1  0  0  0  0
 10 16  1  0  0  0  0
 10 17  1  0  0  0  0
 11 13  1  0  0  0  0
 11 18  1  0  0  0  0
 11 19  1  0  0  0  0
 12 14  1  0  0  0  0
 12 20  1  0  0  0  0
 13 21  1  0  0  0  0
 13 22  1  0  0  0  0
M  CHG  2   3  -1   9   1
M  END
> <PUBCHEM_COMPOUND_CID>
4367

> <PUBCHEM_CONFORMER_RMSD>
0.8

> <PUBCHEM_CONFORMER_DIVERSEORDER>
1
137
33
75
19
110
39
56
131
76
105
67
111
114
18
136
139
113
55
83
65
49
133
144
57
72
32
96
77
91
27
97
98
68
123
23
109
85
143
106
58
142
7
120
138
92
145
134
13
88
87
140
73
99
16
71
53
102
5
51
84
78
50
147
104
80
15
95
8
108
21
112
100
150
60
24
86
42
125
63
10
124
28
82
9
46
135
146
41
126
29
107
69
130
93
25
30
20
34
127
129
35
74
43
61
6
148
116
121
64
118
128
59
4
2
14
122
81
66
38
45
36
17
79
26
3
62
103
101
94
119
149
47
132
22
52
115
89
37
31
117
44
40
54
90
12
141
70
48
11

> <PUBCHEM_MMFF94_PARTIAL_CHARGES>
19
1 -0.65
12 0.33
13 0.25
14 0.66
15 0.55
2 -0.57
23 0.36
24 0.36
25 0.5
26 0.4
27 0.4
28 0.4
3 -0.52
4 -0.52
5 -0.99
6 -0.7
7 -0.45
8 -0.85
9 1.04

> <PUBCHEM_EFFECTIVE_ROTOR_COUNT>
7

> <PUBCHEM_PHARMACOPHORE_FEATURES>
10
1 1 acceptor
1 2 acceptor
1 3 acceptor
1 4 acceptor
1 5 cation
1 5 donor
1 7 donor
1 8 donor
3 1 2 14 anion
4 6 7 8 15 cation

> <PUBCHEM_HEAVY_ATOM_COUNT>
15

> <PUBCHEM_ATOM_DEF_STEREO_COUNT>
0

> <PUBCHEM_ATOM_UDEF_STEREO_COUNT>
1

> <PUBCHEM_BOND_DEF_STEREO_COUNT>
0

> <PUBCHEM_BOND_UDEF_STEREO_COUNT>
0

> <PUBCHEM_ISOTOPIC_ATOM_COUNT>
0

> <PUBCHEM_COMPONENT_COUNT>
1

> <PUBCHEM_CACTVS_TAUTO_COUNT>
3

> <PUBCHEM_CONFORMER_ID>
0000110F00000001

> <PUBCHEM_MMFF94_ENERGY>
26.1505

> <PUBCHEM_FEATURE_SELFOVERLAP>
50.94

> <PUBCHEM_SHAPE_FINGERPRINT>
12346177 29 18336841865470650477
13296908 3 17967255316596433448
14251705 54 18336262332289698959
14251710 61 18335696113860819223
17834074 16 18333732416079111668
18186145 218 12319453350540251044
18915474 69 18273489079198584534
19107657 162 18334018289086600048
19107657 46 18409450318801734406
20279233 1 18187657945775326984
20281407 28 18335699489853034288
20281475 54 18340768234125067596
20442098 301 18260555480591710726
20645477 70 18125164823288842527
20671657 53 17916878919432435813
20871999 31 18343014501841430428
21249577 43 18334576853957741455
21634736 98 18129659677903966276
23048698 100 14635167736530212144
23402539 116 17988641930785994868
23532345 42 18335986393720797334
23559900 14 18262800808527867452
449060 23 18342176656838118945
5902787 121 18340780303125880352
603831 33 17561082548910941552
7364860 26 18121216485165095044

> <PUBCHEM_SHAPE_MULTIPOLES>
260.31
8.25
2.21
1.03
0.47
0.18
0.22
3.48
-0.24
2.25
-0.2
-1.54
0.13
0.24

> <PUBCHEM_SHAPE_SELFOVERLAP>
500.922

> <PUBCHEM_SHAPE_VOLUME>
157.5

> <PUBCHEM_COORDINATE_TYPE>
2
5
10

$$$$

