12094166
  -OEChem-07051212583D

 49 51  0     1  0  0  0  0  0999 V2000
    1.2486    2.4663    1.5451 O   0  0  0  0  0  0  0  0  0  0  0  0
   -4.7631   -0.9770    0.5995 O   0  0  0  0  0  0  0  0  0  0  0  0
    2.0949    0.6087    2.5881 O   0  0  0  0  0  0  0  0  0  0  0  0
   -3.1429   -2.1203    1.7505 O   0  0  0  0  0  0  0  0  0  0  0  0
    5.4298   -2.0434   -0.8858 O   0  0  0  0  0  0  0  0  0  0  0  0
    2.1840   -0.5150   -0.0805 N   0  0  0  0  0  0  0  0  0  0  0  0
   -1.3799   -1.0574   -0.2053 N   0  0  0  0  0  0  0  0  0  0  0  0
    1.4381    1.7748   -0.6837 C   0  0  1  0  0  0  0  0  0  0  0  0
    2.3433    0.9003    0.1799 C   0  0  1  0  0  0  0  0  0  0  0  0
    1.2641    2.9953    0.2094 C   0  0  1  0  0  0  0  0  0  0  0  0
   -3.3951    0.1378   -0.9324 C   0  0  1  0  0  0  0  0  0  0  0  0
    1.9002    1.2619    1.5748 C   0  0  0  0  0  0  0  0  0  0  0  0
    2.0280    2.1029   -2.0468 C   0  0  0  0  0  0  0  0  0  0  0  0
   -2.5456   -0.3084    0.2417 C   0  0  1  0  0  0  0  0  0  0  0  0
   -4.7848    0.1324   -0.3134 C   0  0  1  0  0  0  0  0  0  0  0  0
    1.0329   -1.2142   -0.0453 C   0  0  0  0  0  0  0  0  0  0  0  0
    3.1969   -1.3776   -0.4096 C   0  0  0  0  0  0  0  0  0  0  0  0
   -0.0270    3.7537   -0.0446 C   0  0  0  0  0  0  0  0  0  0  0  0
   -2.9864    1.4898   -1.4955 C   0  0  0  0  0  0  0  0  0  0  0  0
   -3.4693   -1.2524    0.9557 C   0  0  0  0  0  0  0  0  0  0  0  0
    1.2548   -2.5153   -0.3407 C   0  0  0  0  0  0  0  0  0  0  0  0
    2.6471   -2.6294   -0.5770 C   0  0  0  0  0  0  0  0  0  0  0  0
   -0.2697   -0.6071    0.2762 C   0  0  0  0  0  0  0  0  0  0  0  0
   -5.8997   -0.0706   -1.3244 C   0  0  0  0  0  0  0  0  0  0  0  0
    4.6010   -0.9357   -0.5359 C   0  0  0  0  0  0  0  0  0  0  0  0
    0.4586    1.3338   -0.8750 H   0  0  0  0  0  0  0  0  0  0  0  0
    3.3909    1.1992    0.0829 H   0  0  0  0  0  0  0  0  0  0  0  0
    2.1154    3.6831    0.1338 H   0  0  0  0  0  0  0  0  0  0  0  0
   -3.3385   -0.6111   -1.7349 H   0  0  0  0  0  0  0  0  0  0  0  0
    3.0024    2.5941   -1.9537 H   0  0  0  0  0  0  0  0  0  0  0  0
    2.1658    1.1917   -2.6380 H   0  0  0  0  0  0  0  0  0  0  0  0
    1.3676    2.7713   -2.6085 H   0  0  0  0  0  0  0  0  0  0  0  0
   -2.3345    0.5255    0.9241 H   0  0  0  0  0  0  0  0  0  0  0  0
   -4.9788    1.0398    0.2719 H   0  0  0  0  0  0  0  0  0  0  0  0
   -0.8981    3.1169    0.1398 H   0  0  0  0  0  0  0  0  0  0  0  0
   -0.1107    4.5983    0.6479 H   0  0  0  0  0  0  0  0  0  0  0  0
   -0.0756    4.1364   -1.0679 H   0  0  0  0  0  0  0  0  0  0  0  0
   -3.0554    2.2767   -0.7373 H   0  0  0  0  0  0  0  0  0  0  0  0
   -1.9553    1.4615   -1.8623 H   0  0  0  0  0  0  0  0  0  0  0  0
   -3.6328    1.7736   -2.3320 H   0  0  0  0  0  0  0  0  0  0  0  0
    0.5243   -3.3109   -0.3876 H   0  0  0  0  0  0  0  0  0  0  0  0
    3.1801   -3.5326   -0.8406 H   0  0  0  0  0  0  0  0  0  0  0  0
   -0.2732    0.2566    0.9572 H   0  0  0  0  0  0  0  0  0  0  0  0
   -5.7721   -1.0126   -1.8688 H   0  0  0  0  0  0  0  0  0  0  0  0
   -6.8666   -0.1352   -0.8138 H   0  0  0  0  0  0  0  0  0  0  0  0
   -5.9406    0.7507   -2.0456 H   0  0  0  0  0  0  0  0  0  0  0  0
    4.7044   -0.1896   -1.3299 H   0  0  0  0  0  0  0  0  0  0  0  0
    4.9799   -0.5121    0.3997 H   0  0  0  0  0  0  0  0  0  0  0  0
    5.4741   -2.6325   -0.1129 H   0  0  0  0  0  0  0  0  0  0  0  0
  1 10  1  0  0  0  0
  1 12  1  0  0  0  0
  2 15  1  0  0  0  0
  2 20  1  0  0  0  0
  3 12  2  0  0  0  0
  4 20  2  0  0  0  0
  5 25  1  0  0  0  0
  5 49  1  0  0  0  0
  6  9  1  0  0  0  0
  6 16  1  0  0  0  0
  6 17  1  0  0  0  0
  7 14  1  0  0  0  0
  7 23  2  0  0  0  0
  8  9  1  0  0  0  0
  8 10  1  0  0  0  0
  8 13  1  0  0  0  0
  8 26  1  0  0  0  0
  9 12  1  0  0  0  0
  9 27  1  0  0  0  0
 10 18  1  0  0  0  0
 10 28  1  0  0  0  0
 11 14  1  0  0  0  0
 11 15  1  0  0  0  0
 11 19  1  0  0  0  0
 11 29  1  0  0  0  0
 13 30  1  0  0  0  0
 13 31  1  0  0  0  0
 13 32  1  0  0  0  0
 14 20  1  0  0  0  0
 14 33  1  0  0  0  0
 15 24  1  0  0  0  0
 15 34  1  0  0  0  0
 16 21  2  0  0  0  0
 16 23  1  0  0  0  0
 17 22  2  0  0  0  0
 17 25  1  0  0  0  0
 18 35  1  0  0  0  0
 18 36  1  0  0  0  0
 18 37  1  0  0  0  0
 19 38  1  0  0  0  0
 19 39  1  0  0  0  0
 19 40  1  0  0  0  0
 21 22  1  0  0  0  0
 21 41  1  0  0  0  0
 22 42  1  0  0  0  0
 23 43  1  0  0  0  0
 24 44  1  0  0  0  0
 24 45  1  0  0  0  0
 24 46  1  0  0  0  0
 25 47  1  0  0  0  0
 25 48  1  0  0  0  0
M  END
> <PUBCHEM_COMPOUND_CID>
12094166

> <PUBCHEM_CONFORMER_RMSD>
0.8

> <PUBCHEM_CONFORMER_DIVERSEORDER>
1
41
29
21
17
19
7
46
33
47
28
40
4
25
39
12
16
18
10
37
48
30
36
22
11
6
43
2
24
20
14
44
9
42
31
13
35
15
23
32
38
26
3
27
8
34
45
5

> <PUBCHEM_MMFF94_PARTIAL_CHARGES>
23
1 -0.43
10 0.28
12 0.66
14 0.31
15 0.28
16 -0.24
17 -0.33
2 -0.43
20 0.66
21 -0.15
22 -0.15
23 0.47
25 0.46
3 -0.57
4 -0.57
41 0.15
42 0.15
43 0.06
49 0.4
5 -0.68
6 0.05
7 -0.7
9 0.32

> <PUBCHEM_EFFECTIVE_ROTOR_COUNT>
5.6

> <PUBCHEM_PHARMACOPHORE_FEATURES>
9
1 3 acceptor
1 4 acceptor
1 5 acceptor
1 5 donor
1 6 cation
1 7 acceptor
5 1 8 9 10 12 rings
5 2 11 14 15 20 rings
5 6 16 17 21 22 rings

> <PUBCHEM_HEAVY_ATOM_COUNT>
25

> <PUBCHEM_ATOM_DEF_STEREO_COUNT>
5

> <PUBCHEM_ATOM_UDEF_STEREO_COUNT>
1

> <PUBCHEM_BOND_DEF_STEREO_COUNT>
0

> <PUBCHEM_BOND_UDEF_STEREO_COUNT>
0

> <PUBCHEM_ISOTOPIC_ATOM_COUNT>
0

> <PUBCHEM_COMPONENT_COUNT>
1

> <PUBCHEM_CACTVS_TAUTO_COUNT>
4

> <PUBCHEM_CONFORMER_ID>
00B88AD600000001

> <PUBCHEM_MMFF94_ENERGY>
45.4468

> <PUBCHEM_FEATURE_SELFOVERLAP>
45.672

> <PUBCHEM_SHAPE_FINGERPRINT>
10165383 225 17617630203824761281
10366900 7 18272374191672739447
104564 63 18118118315074814836
11421498 54 13973689459205664894
12236239 1 16588026826960611887
12422481 6 18053973700639080696
12633257 1 17988096525563228273
13134695 92 18186805794230561076
13402501 40 18342741827621889919
13911987 19 18267282336276723414
14170010 4 18260554406818225106
14347329 18 16987171624323134645
17138139 8 17036455158258688661
17357779 13 18262527025421001900
1813 80 17313652862985050390
20681677 76 18341332172316800827
21033648 29 18188790425471671729
21641784 216 18196910362373031524
221357 26 18339648940183699965
22289505 5 18340775943564776327
23419403 2 17314532485578485056
23559900 14 18201721743440725319
283562 15 18118957234284615386
3052486 1 17842573008630722104
3493558 16 16483566470822733406
350125 39 17903913362359131690
46194498 28 17988637471860998845
508706 21 18058742411290923157
6438718 38 17317329745774771813
6823239 73 18130787832758180097
7471813 234 17676491665617227505
81228 2 17689428708476986826
9709674 26 18270966731074287539

> <PUBCHEM_SHAPE_MULTIPOLES>
475.18
9.61
3.51
1.61
9.18
2.16
-0.49
-4.99
2.7
-2.59
0.05
-0.14
0.55
1.7

> <PUBCHEM_SHAPE_SELFOVERLAP>
1010.296

> <PUBCHEM_SHAPE_VOLUME>
271.1

> <PUBCHEM_COORDINATE_TYPE>
2
5
10

$$$$

