11953985
  -OEChem-07051213022D

118123  0     1  0  0  0  0  0999 V2000
    8.9962   -1.7500    0.0000 O   0  0  0  0  0  0  0  0  0  0  0  0
    8.9962   -0.7500    0.0000 O   0  0  0  0  0  0  0  0  0  0  0  0
    6.3981    0.7500    0.0000 O   0  0  0  0  0  0  0  0  0  0  0  0
    6.3981   -3.2500    0.0000 O   0  0  0  0  0  0  0  0  0  0  0  0
    5.0393    4.6939    0.0000 O   0  0  0  0  0  0  0  0  0  0  0  0
    5.1900    4.1897    0.0000 O   0  0  0  0  0  0  0  0  0  0  0  0
    2.8680    3.7742    0.0000 O   0  0  0  0  0  0  0  0  0  0  0  0
    7.3981    1.7500    0.0000 O   0  0  0  0  0  0  0  0  0  0  0  0
   11.5942    3.7500    0.0000 O   0  0  0  0  0  0  0  0  0  0  0  0
   12.4602    2.2500    0.0000 O   0  0  0  0  0  0  0  0  0  0  0  0
   15.0583    3.7500    0.0000 O   0  0  0  0  0  0  0  0  0  0  0  0
   15.0583    1.7500    0.0000 O   0  0  0  0  0  0  0  0  0  0  0  0
    8.1301   -1.2500    0.0000 C   0  0  2  0  0  0  0  0  0  0  0  0
    8.9962   -2.7500    0.0000 C   0  0  1  0  0  0  0  0  0  0  0  0
    8.1301   -3.2500    0.0000 C   0  0  2  0  0  0  0  0  0  0  0  0
    7.2641   -1.7500    0.0000 C   0  0  0  0  0  0  0  0  0  0  0  0
    7.2641   -0.7500    0.0000 C   0  0  0  0  0  0  0  0  0  0  0  0
    7.2641   -2.7500    0.0000 C   0  0  2  0  0  0  0  0  0  0  0  0
    7.2641    0.2500    0.0000 C   0  0  2  0  0  0  0  0  0  0  0  0
    8.9962    0.2500    0.0000 C   0  0  1  0  0  0  0  0  0  0  0  0
    9.8622   -3.2500    0.0000 C   0  0  3  0  0  0  0  0  0  0  0  0
    8.1301    0.7500    0.0000 C   0  0  0  0  0  0  0  0  0  0  0  0
    5.5320    3.2500    0.0000 C   0  0  1  0  0  0  0  0  0  0  0  0
    4.6381    3.7847    0.0000 C   0  0  1  0  0  0  0  0  0  0  0  0
    5.5320    2.2500    0.0000 C   0  0  2  0  0  0  0  0  0  0  0  0
    8.1301   -4.2500    0.0000 C   0  0  0  0  0  0  0  0  0  0  0  0
    9.8622    0.7500    0.0000 C   0  0  0  0  0  0  0  0  0  0  0  0
    9.8622   -4.2500    0.0000 C   0  0  0  0  0  0  0  0  0  0  0  0
    3.7320    3.2708    0.0000 C   0  0  1  0  0  0  0  0  0  0  0  0
    6.3981    3.7500    0.0000 C   0  0  0  0  0  0  0  0  0  0  0  0
   10.7282   -2.7500    0.0000 C   0  0  0  0  0  0  0  0  0  0  0  0
    6.3981    1.7500    0.0000 C   0  0  0  0  0  0  0  0  0  0  0  0
    4.6381    1.7153    0.0000 C   0  0  0  0  0  0  0  0  0  0  0  0
    3.7320    2.2292    0.0000 C   0  0  0  0  0  0  0  0  0  0  0  0
    6.0330    4.6743    0.0000 C   0  0  0  0  0  0  0  0  0  0  0  0
    9.8622    1.7500    0.0000 C   0  0  0  0  0  0  0  0  0  0  0  0
   10.7282   -4.7500    0.0000 C   0  0  0  0  0  0  0  0  0  0  0  0
    7.2641    3.2500    0.0000 C   0  0  0  0  0  0  0  0  0  0  0  0
    2.8680    1.7258    0.0000 C   0  0  0  0  0  0  0  0  0  0  0  0
   10.7282    2.2500    0.0000 C   0  0  0  0  0  0  0  0  0  0  0  0
   10.7282    3.2500    0.0000 C   0  0  2  0  0  0  0  0  0  0  0  0
    9.8622    3.7500    0.0000 C   0  0  2  0  0  0  0  0  0  0  0  0
    8.1301    3.7500    0.0000 C   0  0  0  0  0  0  0  0  0  0  0  0
    8.9962    3.2500    0.0000 C   0  0  0  0  0  0  0  0  0  0  0  0
    2.0000    3.2775    0.0000 C   0  0  0  0  0  0  0  0  0  0  0  0
   11.5942    1.7500    0.0000 C   0  0  0  0  0  0  0  0  0  0  0  0
   12.4602    3.2500    0.0000 C   0  0  2  0  0  0  0  0  0  0  0  0
    9.8622    4.7500    0.0000 C   0  0  0  0  0  0  0  0  0  0  0  0
   13.3263    3.7500    0.0000 C   0  0  0  0  0  0  0  0  0  0  0  0
   14.1923    3.2500    0.0000 C   0  0  1  0  0  0  0  0  0  0  0  0
   14.1923    2.2500    0.0000 C   0  0  2  0  0  0  0  0  0  0  0  0
   13.3263    1.7500    0.0000 C   0  0  2  0  0  0  0  0  0  0  0  0
   13.3263    0.7500    0.0000 C   0  0  0  0  0  0  0  0  0  0  0  0
   15.0583    4.7500    0.0000 C   0  0  0  0  0  0  0  0  0  0  0  0
    9.5331   -2.4400    0.0000 H   0  0  0  0  0  0  0  0  0  0  0  0
    8.6671   -3.5600    0.0000 H   0  0  0  0  0  0  0  0  0  0  0  0
    7.0520   -1.1674    0.0000 H   0  0  0  0  0  0  0  0  0  0  0  0
    6.6535   -1.8577    0.0000 H   0  0  0  0  0  0  0  0  0  0  0  0
    6.6535   -0.6423    0.0000 H   0  0  0  0  0  0  0  0  0  0  0  0
    7.0520   -1.3326    0.0000 H   0  0  0  0  0  0  0  0  0  0  0  0
    7.2641   -3.3700    0.0000 H   0  0  0  0  0  0  0  0  0  0  0  0
    6.5280   -0.1750    0.0000 H   0  0  0  0  0  0  0  0  0  0  0  0
    9.7323   -0.1750    0.0000 H   0  0  0  0  0  0  0  0  0  0  0  0
   10.5983   -3.6750    0.0000 H   0  0  0  0  0  0  0  0  0  0  0  0
    8.5287    1.2250    0.0000 H   0  0  0  0  0  0  0  0  0  0  0  0
    7.7316    1.2250    0.0000 H   0  0  0  0  0  0  0  0  0  0  0  0
    4.0077    4.3548    0.0000 H   0  0  0  0  0  0  0  0  0  0  0  0
    5.5320    1.4000    0.0000 H   0  0  0  0  0  0  0  0  0  0  0  0
    7.5101   -4.2500    0.0000 H   0  0  0  0  0  0  0  0  0  0  0  0
    8.1301   -4.8700    0.0000 H   0  0  0  0  0  0  0  0  0  0  0  0
    8.7501   -4.2500    0.0000 H   0  0  0  0  0  0  0  0  0  0  0  0
   10.0742    0.1674    0.0000 H   0  0  0  0  0  0  0  0  0  0  0  0
   10.4728    0.8577    0.0000 H   0  0  0  0  0  0  0  0  0  0  0  0
    9.2516   -4.1423    0.0000 H   0  0  0  0  0  0  0  0  0  0  0  0
    9.6501   -4.8326    0.0000 H   0  0  0  0  0  0  0  0  0  0  0  0
    3.1945    2.9618    0.0000 H   0  0  0  0  0  0  0  0  0  0  0  0
   11.0382   -3.2869    0.0000 H   0  0  0  0  0  0  0  0  0  0  0  0
   11.2651   -2.4400    0.0000 H   0  0  0  0  0  0  0  0  0  0  0  0
   10.4182   -2.2131    0.0000 H   0  0  0  0  0  0  0  0  0  0  0  0
    4.6453    1.0954    0.0000 H   0  0  0  0  0  0  0  0  0  0  0  0
    6.3981   -3.8700    0.0000 H   0  0  0  0  0  0  0  0  0  0  0  0
    6.6346    4.8242    0.0000 H   0  0  0  0  0  0  0  0  0  0  0  0
    5.9635    5.2904    0.0000 H   0  0  0  0  0  0  0  0  0  0  0  0
    9.3252    2.0600    0.0000 H   0  0  0  0  0  0  0  0  0  0  0  0
    4.6074    4.4018    0.0000 H   0  0  0  0  0  0  0  0  0  0  0  0
   10.4182   -5.2869    0.0000 H   0  0  0  0  0  0  0  0  0  0  0  0
   11.2651   -5.0600    0.0000 H   0  0  0  0  0  0  0  0  0  0  0  0
   11.0382   -4.2131    0.0000 H   0  0  0  0  0  0  0  0  0  0  0  0
    7.5742    2.7131    0.0000 H   0  0  0  0  0  0  0  0  0  0  0  0
    2.5559    2.2616    0.0000 H   0  0  0  0  0  0  0  0  0  0  0  0
    2.3322    1.4138    0.0000 H   0  0  0  0  0  0  0  0  0  0  0  0
    3.1800    1.1901    0.0000 H   0  0  0  0  0  0  0  0  0  0  0  0
   10.7282    3.8700    0.0000 H   0  0  0  0  0  0  0  0  0  0  0  0
   10.3991    4.0600    0.0000 H   0  0  0  0  0  0  0  0  0  0  0  0
    8.1301    4.3700    0.0000 H   0  0  0  0  0  0  0  0  0  0  0  0
    8.9962    2.6300    0.0000 H   0  0  0  0  0  0  0  0  0  0  0  0
    1.6921    3.8156    0.0000 H   0  0  0  0  0  0  0  0  0  0  0  0
    1.4619    2.9696    0.0000 H   0  0  0  0  0  0  0  0  0  0  0  0
    2.3079    2.7394    0.0000 H   0  0  0  0  0  0  0  0  0  0  0  0
   11.2842    1.2131    0.0000 H   0  0  0  0  0  0  0  0  0  0  0  0
   12.1312    1.4400    0.0000 H   0  0  0  0  0  0  0  0  0  0  0  0
   11.9042    2.2869    0.0000 H   0  0  0  0  0  0  0  0  0  0  0  0
   11.9233    2.9400    0.0000 H   0  0  0  0  0  0  0  0  0  0  0  0
   10.4822    4.7500    0.0000 H   0  0  0  0  0  0  0  0  0  0  0  0
    9.8622    5.3700    0.0000 H   0  0  0  0  0  0  0  0  0  0  0  0
    9.2422    4.7500    0.0000 H   0  0  0  0  0  0  0  0  0  0  0  0
   13.7248    4.2250    0.0000 H   0  0  0  0  0  0  0  0  0  0  0  0
   12.9277    4.2250    0.0000 H   0  0  0  0  0  0  0  0  0  0  0  0
   14.7292    2.9400    0.0000 H   0  0  0  0  0  0  0  0  0  0  0  0
   14.7292    2.5600    0.0000 H   0  0  0  0  0  0  0  0  0  0  0  0
   12.7893    1.4400    0.0000 H   0  0  0  0  0  0  0  0  0  0  0  0
   12.7063    0.7500    0.0000 H   0  0  0  0  0  0  0  0  0  0  0  0
   13.3263    0.1300    0.0000 H   0  0  0  0  0  0  0  0  0  0  0  0
   13.9463    0.7500    0.0000 H   0  0  0  0  0  0  0  0  0  0  0  0
   15.5953    2.0600    0.0000 H   0  0  0  0  0  0  0  0  0  0  0  0
   15.6783    4.7500    0.0000 H   0  0  0  0  0  0  0  0  0  0  0  0
   15.0583    5.3700    0.0000 H   0  0  0  0  0  0  0  0  0  0  0  0
   14.4383    4.7500    0.0000 H   0  0  0  0  0  0  0  0  0  0  0  0
 13  1  1  6  0  0  0
  1 14  1  0  0  0  0
  2 13  1  0  0  0  0
  2 20  1  0  0  0  0
  3 19  1  0  0  0  0
  3 32  1  0  0  0  0
 18  4  1  1  0  0  0
  4 81  1  0  0  0  0
  5 24  1  0  0  0  0
  5 35  1  0  0  0  0
 23  6  1  6  0  0  0
  6 85  1  0  0  0  0
 29  7  1  1  0  0  0
  7 45  1  0  0  0  0
  8 32  2  0  0  0  0
 41  9  1  6  0  0  0
 47  9  1  1  0  0  0
 10 47  1  0  0  0  0
 10 52  1  0  0  0  0
 50 11  1  6  0  0  0
 11 54  1  0  0  0  0
 51 12  1  1  0  0  0
 12115  1  0  0  0  0
 13 16  1  0  0  0  0
 13 17  1  0  0  0  0
 14 15  1  0  0  0  0
 14 21  1  6  0  0  0
 14 55  1  0  0  0  0
 15 18  1  0  0  0  0
 15 26  1  1  0  0  0
 15 56  1  0  0  0  0
 16 18  1  0  0  0  0
 16 57  1  0  0  0  0
 16 58  1  0  0  0  0
 17 19  1  0  0  0  0
 17 59  1  0  0  0  0
 17 60  1  0  0  0  0
 18 61  1  0  0  0  0
 19 22  1  0  0  0  0
 19 62  1  6  0  0  0
 20 22  1  0  0  0  0
 20 27  1  0  0  0  0
 20 63  1  6  0  0  0
 21 28  1  0  0  0  0
 21 31  1  0  0  0  0
 21 64  1  0  0  0  0
 22 65  1  0  0  0  0
 22 66  1  0  0  0  0
 23 24  1  0  0  0  0
 23 25  1  0  0  0  0
 23 30  1  0  0  0  0
 24 29  1  0  0  0  0
 24 67  1  6  0  0  0
 25 32  1  0  0  0  0
 25 33  1  0  0  0  0
 25 68  1  1  0  0  0
 26 69  1  0  0  0  0
 26 70  1  0  0  0  0
 26 71  1  0  0  0  0
 27 36  1  0  0  0  0
 27 72  1  0  0  0  0
 27 73  1  0  0  0  0
 28 37  1  0  0  0  0
 28 74  1  0  0  0  0
 28 75  1  0  0  0  0
 29 34  1  0  0  0  0
 29 76  1  0  0  0  0
 30 35  1  0  0  0  0
 30 38  2  0  0  0  0
 31 77  1  0  0  0  0
 31 78  1  0  0  0  0
 31 79  1  0  0  0  0
 33 34  2  0  0  0  0
 33 80  1  0  0  0  0
 34 39  1  0  0  0  0
 35 82  1  0  0  0  0
 35 83  1  0  0  0  0
 36 40  2  0  0  0  0
 36 84  1  0  0  0  0
 37 86  1  0  0  0  0
 37 87  1  0  0  0  0
 37 88  1  0  0  0  0
 38 43  1  0  0  0  0
 38 89  1  0  0  0  0
 39 90  1  0  0  0  0
 39 91  1  0  0  0  0
 39 92  1  0  0  0  0
 40 41  1  0  0  0  0
 40 46  1  0  0  0  0
 41 42  1  0  0  0  0
 41 93  1  0  0  0  0
 42 44  1  0  0  0  0
 42 48  1  6  0  0  0
 42 94  1  0  0  0  0
 43 44  2  0  0  0  0
 43 95  1  0  0  0  0
 44 96  1  0  0  0  0
 45 97  1  0  0  0  0
 45 98  1  0  0  0  0
 45 99  1  0  0  0  0
 46100  1  0  0  0  0
 46101  1  0  0  0  0
 46102  1  0  0  0  0
 47 49  1  0  0  0  0
 47103  1  0  0  0  0
 48104  1  0  0  0  0
 48105  1  0  0  0  0
 48106  1  0  0  0  0
 49 50  1  0  0  0  0
 49107  1  0  0  0  0
 49108  1  0  0  0  0
 50 51  1  0  0  0  0
 50109  1  0  0  0  0
 51 52  1  0  0  0  0
 51110  1  0  0  0  0
 52 53  1  6  0  0  0
 52111  1  0  0  0  0
 53112  1  0  0  0  0
 53113  1  0  0  0  0
 53114  1  0  0  0  0
 54116  1  0  0  0  0
 54117  1  0  0  0  0
 54118  1  0  0  0  0
M  END
> <PUBCHEM_COMPOUND_CID>
11953985

> <PUBCHEM_COMPOUND_CANONICALIZED>
1

> <PUBCHEM_CACTVS_COMPLEXITY>
1460

> <PUBCHEM_CACTVS_HBOND_ACCEPTOR>
12

> <PUBCHEM_CACTVS_HBOND_DONOR>
3

> <PUBCHEM_CACTVS_ROTATABLE_BOND>
6

> <PUBCHEM_CACTVS_SUBSKEYS>
AAADcfB8PAAAAAAAAAAAAAAAAAAAASAAAAAkSJEAAAAAAEAAAAAAGgAACAAADVSwgAMCCAAABgCIAiDSCAAAAAAgAAAICAEAAAgZFBYAIQAiUAAF4AAPsAPK7OzOgAAAAAAAAAAAAAAAAAAAAAAAAAAAAA==

> <PUBCHEM_IUPAC_INCHI>
InChI=1S/C42H64O12/c1-10-22(2)37-26(6)32(43)20-41(54-37)19-30-17-29(53-41)15-14-24(4)36(52-34-18-33(47-8)35(44)27(7)50-34)23(3)12-11-13-28-21-49-39-38(48-9)25(5)16-31(40(45)51-30)42(28,39)46/h11-14,16,22-23,26-27,29-39,43-44,46H,10,15,17-21H2,1-9H3/b12-11+,24-14+,28-13+/t22?,23-,26-,27-,29+,30-,31-,32-,33-,34-,35-,36-,37+,38+,39+,41-,42+/m0/s1

> <PUBCHEM_IUPAC_INCHIKEY>
WYNHYWYYKJUGGV-KDLGWSGBSA-N

> <PUBCHEM_XLOGP3_AA>
3.3

> <PUBCHEM_EXACT_MASS>
760.439777

> <PUBCHEM_MOLECULAR_FORMULA>
C42H64O12

> <PUBCHEM_MOLECULAR_WEIGHT>
760.95036

> <PUBCHEM_OPENEYE_CAN_SMILES>
CCC(C)C1C(C(CC2(O1)CC3CC(O2)CC=C(C(C(C=CC=C4COC5C4(C(C=C(C5OC)C)C(=O)O3)O)C)OC6CC(C(C(O6)C)O)OC)C)O)C

> <PUBCHEM_OPENEYE_ISO_SMILES>
CCC(C)[C@@H]1[C@H]([C@H](C[C@@]2(O1)C[C@@H]3C[C@H](O2)C/C=C(/[C@H]([C@H](/C=C/C=C/4\CO[C@H]5[C@@]4([C@@H](C=C([C@H]5OC)C)C(=O)O3)O)C)O[C@H]6C[C@@H]([C@H]([C@@H](O6)C)O)OC)\C)O)C

> <PUBCHEM_CACTVS_TPSA>
152

> <PUBCHEM_MONOISOTOPIC_WEIGHT>
760.439777

> <PUBCHEM_TOTAL_CHARGE>
0

> <PUBCHEM_HEAVY_ATOM_COUNT>
54

> <PUBCHEM_ATOM_DEF_STEREO_COUNT>
16

> <PUBCHEM_ATOM_UDEF_STEREO_COUNT>
1

> <PUBCHEM_BOND_DEF_STEREO_COUNT>
3

> <PUBCHEM_BOND_UDEF_STEREO_COUNT>
0

> <PUBCHEM_ISOTOPIC_ATOM_COUNT>
0

> <PUBCHEM_COMPONENT_COUNT>
1

> <PUBCHEM_CACTVS_TAUTO_COUNT>
1

> <PUBCHEM_COORDINATE_TYPE>
1
5
255

> <PUBCHEM_BONDANNOTATIONS>
13  1  6
50  11  6
51  12  5
14  21  6
15  26  5
19  62  6
20  63  6
21  64  3
24  67  6
25  68  5
18  4  5
42  48  6
52  53  6
23  6  6
29  7  5
41  9  6
47  9  5

$$$$

