12866
  -OEChem-06261207283D

 34 35  0     0  0  0  0  0  0999 V2000
    0.4946    1.7444   -0.7879 O   0  0  0  0  0  0  0  0  0  0  0  0
    2.2211   -2.4248    0.1003 O   0  0  0  0  0  0  0  0  0  0  0  0
    3.0473    1.8834    1.0449 O   0  0  0  0  0  0  0  0  0  0  0  0
    0.0583   -1.5612    0.1723 N   0  0  0  0  0  0  0  0  0  0  0  0
    1.7192   -0.2025   -0.4177 N   0  0  0  0  0  0  0  0  0  0  0  0
   -0.6310   -0.3021   -0.0670 C   0  0  0  0  0  0  0  0  0  0  0  0
   -1.2213    0.2426    1.2394 C   0  0  0  0  0  0  0  0  0  0  0  0
   -1.5828   -0.4559   -1.2613 C   0  0  0  0  0  0  0  0  0  0  0  0
   -2.5873   -0.3336    1.6100 C   0  0  0  0  0  0  0  0  0  0  0  0
   -2.6883    0.5953   -1.3601 C   0  0  0  0  0  0  0  0  0  0  0  0
    0.5760    0.5635   -0.4713 C   0  0  0  0  0  0  0  0  0  0  0  0
   -3.7454    0.4401    0.9840 C   0  0  0  0  0  0  0  0  0  0  0  0
   -3.9153    0.2493   -0.5186 C   0  0  0  0  0  0  0  0  0  0  0  0
    1.4349   -1.4962   -0.0352 C   0  0  0  0  0  0  0  0  0  0  0  0
    3.0516    0.2726   -0.7337 C   0  0  0  0  0  0  0  0  0  0  0  0
    3.7685    0.7851    0.5019 C   0  0  0  0  0  0  0  0  0  0  0  0
   -1.2862    1.3380    1.2047 H   0  0  0  0  0  0  0  0  0  0  0  0
   -0.5253    0.0240    2.0617 H   0  0  0  0  0  0  0  0  0  0  0  0
   -2.0411   -1.4541   -1.2501 H   0  0  0  0  0  0  0  0  0  0  0  0
   -0.9989   -0.4199   -2.1918 H   0  0  0  0  0  0  0  0  0  0  0  0
   -2.6972   -0.2575    2.6995 H   0  0  0  0  0  0  0  0  0  0  0  0
   -2.6514   -1.4001    1.3661 H   0  0  0  0  0  0  0  0  0  0  0  0
   -3.0146    0.6338   -2.4075 H   0  0  0  0  0  0  0  0  0  0  0  0
   -2.3144    1.5960   -1.1174 H   0  0  0  0  0  0  0  0  0  0  0  0
   -3.6371    1.5093    1.2051 H   0  0  0  0  0  0  0  0  0  0  0  0
   -4.6756    0.1225    1.4718 H   0  0  0  0  0  0  0  0  0  0  0  0
   -4.2261   -0.7828   -0.7228 H   0  0  0  0  0  0  0  0  0  0  0  0
   -4.7468    0.8864   -0.8454 H   0  0  0  0  0  0  0  0  0  0  0  0
   -0.4158   -2.4098    0.4656 H   0  0  0  0  0  0  0  0  0  0  0  0
    2.9572    1.0806   -1.4676 H   0  0  0  0  0  0  0  0  0  0  0  0
    3.6241   -0.5480   -1.1787 H   0  0  0  0  0  0  0  0  0  0  0  0
    4.7729    1.1329    0.2430 H   0  0  0  0  0  0  0  0  0  0  0  0
    3.8580    0.0123    1.2722 H   0  0  0  0  0  0  0  0  0  0  0  0
    2.2048    1.5394    1.3867 H   0  0  0  0  0  0  0  0  0  0  0  0
  1 11  2  0  0  0  0
  2 14  2  0  0  0  0
  3 16  1  0  0  0  0
  3 34  1  0  0  0  0
  4  6  1  0  0  0  0
  4 14  1  0  0  0  0
  4 29  1  0  0  0  0
  5 11  1  0  0  0  0
  5 14  1  0  0  0  0
  5 15  1  0  0  0  0
  6  7  1  0  0  0  0
  6  8  1  0  0  0  0
  6 11  1  0  0  0  0
  7  9  1  0  0  0  0
  7 17  1  0  0  0  0
  7 18  1  0  0  0  0
  8 10  1  0  0  0  0
  8 19  1  0  0  0  0
  8 20  1  0  0  0  0
  9 12  1  0  0  0  0
  9 21  1  0  0  0  0
  9 22  1  0  0  0  0
 10 13  1  0  0  0  0
 10 23  1  0  0  0  0
 10 24  1  0  0  0  0
 12 13  1  0  0  0  0
 12 25  1  0  0  0  0
 12 26  1  0  0  0  0
 13 27  1  0  0  0  0
 13 28  1  0  0  0  0
 15 16  1  0  0  0  0
 15 30  1  0  0  0  0
 15 31  1  0  0  0  0
 16 32  1  0  0  0  0
 16 33  1  0  0  0  0
M  END
> <PUBCHEM_COMPOUND_CID>
12866

> <PUBCHEM_CONFORMER_RMSD>
0.6

> <PUBCHEM_CONFORMER_DIVERSEORDER>
1
24
15
23
8
18
14
7
13
22
9
25
21
27
26
6
20
10
12
5
11
19
3
4
17
16
2

> <PUBCHEM_MMFF94_PARTIAL_CHARGES>
12
1 -0.57
11 0.57
14 0.69
15 0.3
16 0.28
2 -0.57
29 0.37
3 -0.68
34 0.4
4 -0.73
5 -0.42
6 0.36

> <PUBCHEM_EFFECTIVE_ROTOR_COUNT>
3.6

> <PUBCHEM_PHARMACOPHORE_FEATURES>
7
1 1 acceptor
1 2 acceptor
1 3 acceptor
1 3 donor
1 4 donor
5 4 5 6 11 14 rings
7 6 7 8 9 10 12 13 rings

> <PUBCHEM_HEAVY_ATOM_COUNT>
16

> <PUBCHEM_ATOM_DEF_STEREO_COUNT>
0

> <PUBCHEM_ATOM_UDEF_STEREO_COUNT>
0

> <PUBCHEM_BOND_DEF_STEREO_COUNT>
0

> <PUBCHEM_BOND_UDEF_STEREO_COUNT>
0

> <PUBCHEM_ISOTOPIC_ATOM_COUNT>
0

> <PUBCHEM_COMPONENT_COUNT>
1

> <PUBCHEM_CACTVS_TAUTO_COUNT>
2

> <PUBCHEM_CONFORMER_ID>
0000324200000001

> <PUBCHEM_MMFF94_ENERGY>
26.4071

> <PUBCHEM_FEATURE_SELFOVERLAP>
35.521

> <PUBCHEM_SHAPE_FINGERPRINT>
10980938 120 18412260653215918574
11132069 177 17489585680106851973
11543360 7 15719674260291635076
12236239 1 17749108911326803343
12423570 1 7885507930559536534
124424 183 16988568978604769673
12491281 212 17023172791305597712
12932764 1 18260828236747880757
13296908 3 17917141809953748843
13538477 17 17458348554519370087
13581323 91 14620798201570128469
15219456 202 17917988421090741295
15309172 13 18413103948743835327
15775835 57 17822004333183093585
16945 1 18342732996768183221
1813 80 17463116191746738262
18186145 218 18187363216450335244
19049666 15 17702107069682436173
20201158 50 17846211176848150275
20279233 1 17704351087215944959
204376 136 18338798893099263480
20645476 183 17603588534701011551
20645477 70 18268157628862407519
20715346 28 18060132171743240775
21639500 275 18335148587103250848
23236772 104 17748827384552002755
23402539 116 16988570061537947527
23419403 2 15978401638678256998
23493267 7 17203604913224864540
23557571 272 17632283576283043219
23559900 14 17060056029461754474
2748010 2 18058730341609712990
474 4 18042410136169128872
568465 68 18129930192129425537
633830 44 18041267786595453980
7364860 26 18188491393064722430
77492 1 17749392606712110631
81228 2 17702100480950105037

> <PUBCHEM_SHAPE_MULTIPOLES>
301.7
6.45
1.62
1.35
0.31
0.48
0.15
-1.69
0.84
-1.57
0.1
0.95
-0.21
0.43

> <PUBCHEM_SHAPE_SELFOVERLAP>
620.099

> <PUBCHEM_SHAPE_VOLUME>
173.5

> <PUBCHEM_COORDINATE_TYPE>
2
5
10

$$$$

