4660280
  -OEChem-07051213112D

 19 19  0     0  0  0  0  0  0999 V2000
    3.7320   -2.0950    0.0000 O   0  0  0  0  0  0  0  0  0  0  0  0
    5.4641   -1.0950    0.0000 O   0  0  0  0  0  0  0  0  0  0  0  0
    4.5981    2.4050    0.0000 O   0  5  0  0  0  0  0  0  0  0  0  0
    2.8660    2.4050    0.0000 O   0  0  0  0  0  0  0  0  0  0  0  0
    3.7320    1.9050    0.0000 N   0  3  0  0  0  0  0  0  0  0  0  0
    2.8660    0.4050    0.0000 C   0  0  0  0  0  0  0  0  0  0  0  0
    3.7320    0.9050    0.0000 C   0  0  0  0  0  0  0  0  0  0  0  0
    2.8660   -0.5950    0.0000 C   0  0  0  0  0  0  0  0  0  0  0  0
    4.5981    0.4050    0.0000 C   0  0  0  0  0  0  0  0  0  0  0  0
    3.7320   -1.0950    0.0000 C   0  0  0  0  0  0  0  0  0  0  0  0
    4.5981   -0.5950    0.0000 C   0  0  0  0  0  0  0  0  0  0  0  0
    2.0000    0.9050    0.0000 C   0  0  0  0  0  0  0  0  0  0  0  0
    2.3291   -0.9050    0.0000 H   0  0  0  0  0  0  0  0  0  0  0  0
    5.1350    0.7150    0.0000 H   0  0  0  0  0  0  0  0  0  0  0  0
    2.3100    1.4419    0.0000 H   0  0  0  0  0  0  0  0  0  0  0  0
    1.4631    1.2150    0.0000 H   0  0  0  0  0  0  0  0  0  0  0  0
    1.6900    0.3681    0.0000 H   0  0  0  0  0  0  0  0  0  0  0  0
    3.1951   -2.4050    0.0000 H   0  0  0  0  0  0  0  0  0  0  0  0
    6.0010   -0.7850    0.0000 H   0  0  0  0  0  0  0  0  0  0  0  0
  1 10  1  0  0  0  0
  1 18  1  0  0  0  0
  2 11  1  0  0  0  0
  2 19  1  0  0  0  0
  3  5  1  0  0  0  0
  4  5  2  0  0  0  0
  5  7  1  0  0  0  0
  6  7  1  0  0  0  0
  6  8  2  0  0  0  0
  6 12  1  0  0  0  0
  7  9  2  0  0  0  0
  8 10  1  0  0  0  0
  8 13  1  0  0  0  0
  9 11  1  0  0  0  0
  9 14  1  0  0  0  0
 10 11  2  0  0  0  0
 12 15  1  0  0  0  0
 12 16  1  0  0  0  0
 12 17  1  0  0  0  0
M  CHG  2   3  -1   5   1
M  END
> <PUBCHEM_COMPOUND_CID>
4660280

> <PUBCHEM_COMPOUND_CANONICALIZED>
1

> <PUBCHEM_CACTVS_COMPLEXITY>
179

> <PUBCHEM_CACTVS_HBOND_ACCEPTOR>
4

> <PUBCHEM_CACTVS_HBOND_DONOR>
2

> <PUBCHEM_CACTVS_ROTATABLE_BOND>
0

> <PUBCHEM_CACTVS_SUBSKEYS>
AAADcYBiOAAAAAAAAAAAAAAAAAAAAAAAAAAwAAAAAAAAAAABAAAAHgAECAAADAyBmAAyxoAQQgCBAiRCQwCCAAAgIgAgiAAG7IoJJiKCkZOAcAFmwBkJ2Aew0BEOIEABAgACQABAgAIEAASAAAAAAAAAAA==

> <PUBCHEM_IUPAC_OPENEYE_NAME>
4-methyl-5-nitro-benzene-1,2-diol

> <PUBCHEM_IUPAC_CAS_NAME>
4-methyl-5-nitrobenzene-1,2-diol

> <PUBCHEM_IUPAC_NAME>
4-methyl-5-nitrobenzene-1,2-diol

> <PUBCHEM_IUPAC_SYSTEMATIC_NAME>
4-methyl-5-nitro-benzene-1,2-diol

> <PUBCHEM_IUPAC_TRADITIONAL_NAME>
4-methyl-5-nitro-pyrocatechol

> <PUBCHEM_IUPAC_INCHI>
InChI=1S/C7H7NO4/c1-4-2-6(9)7(10)3-5(4)8(11)12/h2-3,9-10H,1H3

> <PUBCHEM_IUPAC_INCHIKEY>
WLLRAKCRHPMKNA-UHFFFAOYSA-N

> <PUBCHEM_XLOGP3_AA>
1.4

> <PUBCHEM_EXACT_MASS>
169.037508

> <PUBCHEM_MOLECULAR_FORMULA>
C7H7NO4

> <PUBCHEM_MOLECULAR_WEIGHT>
169.13478

> <PUBCHEM_OPENEYE_CAN_SMILES>
CC1=CC(=C(C=C1[N+](=O)[O-])O)O

> <PUBCHEM_OPENEYE_ISO_SMILES>
CC1=CC(=C(C=C1[N+](=O)[O-])O)O

> <PUBCHEM_CACTVS_TPSA>
86.3

> <PUBCHEM_MONOISOTOPIC_WEIGHT>
169.037508

> <PUBCHEM_TOTAL_CHARGE>
0

> <PUBCHEM_HEAVY_ATOM_COUNT>
12

> <PUBCHEM_ATOM_DEF_STEREO_COUNT>
0

> <PUBCHEM_ATOM_UDEF_STEREO_COUNT>
0

> <PUBCHEM_BOND_DEF_STEREO_COUNT>
0

> <PUBCHEM_BOND_UDEF_STEREO_COUNT>
0

> <PUBCHEM_ISOTOPIC_ATOM_COUNT>
0

> <PUBCHEM_COMPONENT_COUNT>
1

> <PUBCHEM_CACTVS_TAUTO_COUNT>
12

> <PUBCHEM_COORDINATE_TYPE>
1
5
255

> <PUBCHEM_BONDANNOTATIONS>
10  11  8
6  7  8
6  8  8
7  9  8
8  10  8
9  11  8

$$$$

