73632
  -OEChem-07051212522D

 54 57  0     1  0  0  0  0  0999 V2000
    5.5320   -1.6525    0.0000 O   0  0  0  0  0  0  0  0  0  0  0  0
    5.5320    1.3475    0.0000 O   0  0  0  0  0  0  0  0  0  0  0  0
    4.1482   -2.0589    0.0000 O   0  0  0  0  0  0  0  0  0  0  0  0
    2.8680   -1.1766    0.0000 O   0  0  0  0  0  0  0  0  0  0  0  0
    6.3981   -2.1525    0.0000 O   0  0  0  0  0  0  0  0  0  0  0  0
    6.3981    1.8475    0.0000 O   0  0  0  0  0  0  0  0  0  0  0  0
    4.1482    1.7539    0.0000 O   0  0  0  0  0  0  0  0  0  0  0  0
    8.1465    1.8821    0.0000 O   0  0  0  0  0  0  0  0  0  0  0  0
   11.8031   -1.1983    0.0000 O   0  0  0  0  0  0  0  0  0  0  0  0
   12.6711    0.3967    0.0000 O   0  0  0  0  0  0  0  0  0  0  0  0
   11.7993    1.8934    0.0000 O   0  0  0  0  0  0  0  0  0  0  0  0
    5.5320   -0.6525    0.0000 C   0  0  1  0  0  0  0  0  0  0  0  0
    5.5320    0.3475    0.0000 C   0  0  1  0  0  0  0  0  0  0  0  0
    4.6381   -1.1871    0.0000 C   0  0  1  0  0  0  0  0  0  0  0  0
    6.3981   -1.1525    0.0000 C   0  0  0  0  0  0  0  0  0  0  0  0
    6.3981    0.8475    0.0000 C   0  0  0  0  0  0  0  0  0  0  0  0
    7.2641   -0.6525    0.0000 C   0  0  0  0  0  0  0  0  0  0  0  0
    7.2641    0.3475    0.0000 C   0  0  0  0  0  0  0  0  0  0  0  0
    4.6381    0.8822    0.0000 C   0  0  0  0  0  0  0  0  0  0  0  0
    3.7320   -0.6733    0.0000 C   0  0  0  0  0  0  0  0  0  0  0  0
    3.7320    0.3683    0.0000 C   0  0  0  0  0  0  0  0  0  0  0  0
    8.1580    0.8822    0.0000 C   0  0  0  0  0  0  0  0  0  0  0  0
    8.1580   -1.1871    0.0000 C   0  0  0  0  0  0  0  0  0  0  0  0
    9.0641    0.3683    0.0000 C   0  0  0  0  0  0  0  0  0  0  0  0
    9.0641   -0.6733    0.0000 C   0  0  0  0  0  0  0  0  0  0  0  0
    9.9953    0.9253    0.0000 C   0  0  0  0  0  0  0  0  0  0  0  0
    9.9953   -1.2302    0.0000 C   0  0  0  0  0  0  0  0  0  0  0  0
   10.9391    0.3900    0.0000 C   0  0  0  0  0  0  0  0  0  0  0  0
   10.9391   -0.6950    0.0000 C   0  0  0  0  0  0  0  0  0  0  0  0
    9.9837    1.9252    0.0000 C   0  0  0  0  0  0  0  0  0  0  0  0
    2.0000   -0.6800    0.0000 C   0  0  0  0  0  0  0  0  0  0  0  0
   11.8031    0.8934    0.0000 C   0  0  0  0  0  0  0  0  0  0  0  0
   11.7993   -2.1983    0.0000 C   0  0  0  0  0  0  0  0  0  0  0  0
   13.5352    0.9000    0.0000 C   0  0  0  0  0  0  0  0  0  0  0  0
    5.0824   -1.6196    0.0000 H   0  0  0  0  0  0  0  0  0  0  0  0
    3.1963    0.6804    0.0000 H   0  0  0  0  0  0  0  0  0  0  0  0
    5.2220   -2.1894    0.0000 H   0  0  0  0  0  0  0  0  0  0  0  0
    8.1509   -1.8071    0.0000 H   0  0  0  0  0  0  0  0  0  0  0  0
    5.2220    1.8845    0.0000 H   0  0  0  0  0  0  0  0  0  0  0  0
    3.5282   -2.0661    0.0000 H   0  0  0  0  0  0  0  0  0  0  0  0
    9.9881   -1.8502    0.0000 H   0  0  0  0  0  0  0  0  0  0  0  0
    8.6798    2.1983    0.0000 H   0  0  0  0  0  0  0  0  0  0  0  0
   10.6037    1.9324    0.0000 H   0  0  0  0  0  0  0  0  0  0  0  0
    9.9765    2.5452    0.0000 H   0  0  0  0  0  0  0  0  0  0  0  0
    9.3637    1.9180    0.0000 H   0  0  0  0  0  0  0  0  0  0  0  0
    2.3079   -0.1418    0.0000 H   0  0  0  0  0  0  0  0  0  0  0  0
    1.4619   -0.3720    0.0000 H   0  0  0  0  0  0  0  0  0  0  0  0
    1.6921   -1.2181    0.0000 H   0  0  0  0  0  0  0  0  0  0  0  0
   11.1793   -2.1959    0.0000 H   0  0  0  0  0  0  0  0  0  0  0  0
   11.7969   -2.8183    0.0000 H   0  0  0  0  0  0  0  0  0  0  0  0
   12.4193   -2.2007    0.0000 H   0  0  0  0  0  0  0  0  0  0  0  0
   13.8472    0.3643    0.0000 H   0  0  0  0  0  0  0  0  0  0  0  0
   14.0709    1.2121    0.0000 H   0  0  0  0  0  0  0  0  0  0  0  0
   13.2231    1.4358    0.0000 H   0  0  0  0  0  0  0  0  0  0  0  0
 12  1  1  6  0  0  0
  1 37  1  0  0  0  0
 13  2  1  6  0  0  0
  2 39  1  0  0  0  0
 14  3  1  6  0  0  0
  3 40  1  0  0  0  0
  4 20  1  0  0  0  0
  4 31  1  0  0  0  0
  5 15  2  0  0  0  0
  6 16  2  0  0  0  0
  7 19  2  0  0  0  0
  8 22  1  0  0  0  0
  8 42  1  0  0  0  0
  9 29  1  0  0  0  0
  9 33  1  0  0  0  0
 10 32  1  0  0  0  0
 10 34  1  0  0  0  0
 11 32  2  0  0  0  0
 12 13  1  0  0  0  0
 12 14  1  0  0  0  0
 12 15  1  0  0  0  0
 13 16  1  0  0  0  0
 13 19  1  0  0  0  0
 14 20  1  0  0  0  0
 14 35  1  0  0  0  0
 15 17  1  0  0  0  0
 16 18  1  0  0  0  0
 17 18  2  0  0  0  0
 17 23  1  0  0  0  0
 18 22  1  0  0  0  0
 19 21  1  0  0  0  0
 20 21  2  0  0  0  0
 21 36  1  0  0  0  0
 22 24  2  0  0  0  0
 23 25  2  0  0  0  0
 23 38  1  0  0  0  0
 24 25  1  0  0  0  0
 24 26  1  0  0  0  0
 25 27  1  0  0  0  0
 26 28  2  0  0  0  0
 26 30  1  0  0  0  0
 27 29  2  0  0  0  0
 27 41  1  0  0  0  0
 28 29  1  0  0  0  0
 28 32  1  0  0  0  0
 30 43  1  0  0  0  0
 30 44  1  0  0  0  0
 30 45  1  0  0  0  0
 31 46  1  0  0  0  0
 31 47  1  0  0  0  0
 31 48  1  0  0  0  0
 33 49  1  0  0  0  0
 33 50  1  0  0  0  0
 33 51  1  0  0  0  0
 34 52  1  0  0  0  0
 34 53  1  0  0  0  0
 34 54  1  0  0  0  0
M  END
> <PUBCHEM_COMPOUND_CID>
73632

> <PUBCHEM_COMPOUND_CANONICALIZED>
1

> <PUBCHEM_CACTVS_COMPLEXITY>
959

> <PUBCHEM_CACTVS_HBOND_ACCEPTOR>
11

> <PUBCHEM_CACTVS_HBOND_DONOR>
4

> <PUBCHEM_CACTVS_ROTATABLE_BOND>
4

> <PUBCHEM_CACTVS_SUBSKEYS>
AAADceB4PAAAAAAAAAAAAAAAAAAAAAAAAAAwYMEAAAAAAADBUAAAGgAACAAADFSgmAIyDsAABgCIAqDSCAICCAAkIAAAiAFGCMgNNzaONRqAcWAl4BELuYfL7PzO4AADAAAYAADAAAYAADCAAAAAAAAAAA==

> <PUBCHEM_IUPAC_OPENEYE_NAME>
methyl (6aR,7S,10aR)-6a,7,10a,12-tetrahydroxy-3,8-dimethoxy-1-methyl-6,10,11-trioxo-7H-tetracene-2-carboxylate

> <PUBCHEM_IUPAC_CAS_NAME>
(6aR,7S,10aR)-6a,7,10a,12-tetrahydroxy-3,8-dimethoxy-1-methyl-6,10,11-trioxo-7H-tetracene-2-carboxylic acid methyl ester

> <PUBCHEM_IUPAC_NAME>
methyl (6aR,7S,10aR)-6a,7,10a,12-tetrahydroxy-3,8-dimethoxy-1-methyl-6,10,11-trioxo-7H-tetracene-2-carboxylate

> <PUBCHEM_IUPAC_SYSTEMATIC_NAME>
methyl (6aR,7S,10aR)-3,8-dimethoxy-1-methyl-6a,7,10a,12-tetrakis(oxidanyl)-6,10,11-tris(oxidanylidene)-7H-tetracene-2-carboxylate

> <PUBCHEM_IUPAC_TRADITIONAL_NAME>
(6aR,7S,10aR)-6a,7,10a,12-tetrahydroxy-6,10,11-triketo-3,8-dimethoxy-1-methyl-7H-tetracene-2-carboxylic acid methyl ester

> <PUBCHEM_IUPAC_INCHI>
InChI=1S/C23H20O11/c1-8-14-9(6-11(32-2)15(8)21(29)34-4)5-10-16(17(14)25)20(28)22(30)13(24)7-12(33-3)19(27)23(22,31)18(10)26/h5-7,19,25,27,30-31H,1-4H3/t19-,22-,23-/m1/s1

> <PUBCHEM_IUPAC_INCHIKEY>
ULHJWHCSSAEMLW-UEVCKROQSA-N

> <PUBCHEM_XLOGP3_AA>
0.4

> <PUBCHEM_EXACT_MASS>
472.100561

> <PUBCHEM_MOLECULAR_FORMULA>
C23H20O11

> <PUBCHEM_MOLECULAR_WEIGHT>
472.3983

> <PUBCHEM_OPENEYE_CAN_SMILES>
CC1=C(C(=CC2=CC3=C(C(=C12)O)C(=O)C4(C(=O)C=C(C(C4(C3=O)O)O)OC)O)OC)C(=O)OC

> <PUBCHEM_OPENEYE_ISO_SMILES>
CC1=C(C(=CC2=CC3=C(C(=C12)O)C(=O)[C@@]4(C(=O)C=C([C@H]([C@@]4(C3=O)O)O)OC)O)OC)C(=O)OC

> <PUBCHEM_CACTVS_TPSA>
177

> <PUBCHEM_MONOISOTOPIC_WEIGHT>
472.100561

> <PUBCHEM_TOTAL_CHARGE>
0

> <PUBCHEM_HEAVY_ATOM_COUNT>
34

> <PUBCHEM_ATOM_DEF_STEREO_COUNT>
3

> <PUBCHEM_ATOM_UDEF_STEREO_COUNT>
0

> <PUBCHEM_BOND_DEF_STEREO_COUNT>
0

> <PUBCHEM_BOND_UDEF_STEREO_COUNT>
0

> <PUBCHEM_ISOTOPIC_ATOM_COUNT>
0

> <PUBCHEM_COMPONENT_COUNT>
1

> <PUBCHEM_CACTVS_TAUTO_COUNT>
28

> <PUBCHEM_COORDINATE_TYPE>
1
5
255

> <PUBCHEM_BONDANNOTATIONS>
12  1  6
17  18  8
17  23  8
18  22  8
13  2  6
22  24  8
23  25  8
24  25  8
24  26  8
25  27  8
26  28  8
27  29  8
28  29  8
14  3  6

$$$$

