13486
  -OEChem-06261214422D

 47 49  0     0  0  0  0  0  0999 V2000
    4.7707    0.0000    0.0000 I   0  5  0  0  0  0  0  0  0  0  0  0
    3.2152    7.1180    0.0000 S   0  0  0  0  0  0  0  0  0  0  0  0
    6.3937    5.2829    0.0000 S   0  0  0  0  0  0  0  0  0  0  0  0
    3.2152    8.7274    0.0000 N   0  3  0  0  0  0  0  0  0  0  0  0
    7.7875    6.0876    0.0000 N   0  0  0  0  0  0  0  0  0  0  0  0
    2.2690    8.4227    0.0000 C   0  0  0  0  0  0  0  0  0  0  0  0
    7.9967    5.1158    0.0000 C   0  0  0  0  0  0  0  0  0  0  0  0
    3.7988    7.9227    0.0000 C   0  0  0  0  0  0  0  0  0  0  0  0
    6.7988    6.1906    0.0000 C   0  0  0  0  0  0  0  0  0  0  0  0
    3.5259    9.6779    0.0000 C   0  0  0  0  0  0  0  0  0  0  0  0
    8.4554    6.8319    0.0000 C   0  0  0  0  0  0  0  0  0  0  0  0
    2.2690    7.4227    0.0000 C   0  0  0  0  0  0  0  0  0  0  0  0
    7.1307    4.6158    0.0000 C   0  0  0  0  0  0  0  0  0  0  0  0
    4.7988    7.9227    0.0000 C   0  0  0  0  0  0  0  0  0  0  0  0
    1.4030    8.9227    0.0000 C   0  0  0  0  0  0  0  0  0  0  0  0
    6.2988    7.0567    0.0000 C   0  0  0  0  0  0  0  0  0  0  0  0
    8.8628    4.6158    0.0000 C   0  0  0  0  0  0  0  0  0  0  0  0
    1.4030    6.9227    0.0000 C   0  0  0  0  0  0  0  0  0  0  0  0
    7.1307    3.6158    0.0000 C   0  0  0  0  0  0  0  0  0  0  0  0
    4.5044    9.8842    0.0000 C   0  0  0  0  0  0  0  0  0  0  0  0
    5.2988    7.0567    0.0000 C   0  0  0  0  0  0  0  0  0  0  0  0
    9.4339    6.6257    0.0000 C   0  0  0  0  0  0  0  0  0  0  0  0
    0.5369    8.4227    0.0000 C   0  0  0  0  0  0  0  0  0  0  0  0
    8.8628    3.6158    0.0000 C   0  0  0  0  0  0  0  0  0  0  0  0
    0.5369    7.4227    0.0000 C   0  0  0  0  0  0  0  0  0  0  0  0
    7.9967    3.1158    0.0000 C   0  0  0  0  0  0  0  0  0  0  0  0
    3.5053   10.2976    0.0000 H   0  0  0  0  0  0  0  0  0  0  0  0
    2.9120    9.7653    0.0000 H   0  0  0  0  0  0  0  0  0  0  0  0
    8.6866    7.4071    0.0000 H   0  0  0  0  0  0  0  0  0  0  0  0
    7.9290    7.1595    0.0000 H   0  0  0  0  0  0  0  0  0  0  0  0
    5.1088    8.4596    0.0000 H   0  0  0  0  0  0  0  0  0  0  0  0
    1.4030    9.5427    0.0000 H   0  0  0  0  0  0  0  0  0  0  0  0
    6.6088    7.5936    0.0000 H   0  0  0  0  0  0  0  0  0  0  0  0
    9.3997    4.9258    0.0000 H   0  0  0  0  0  0  0  0  0  0  0  0
    1.4030    6.3027    0.0000 H   0  0  0  0  0  0  0  0  0  0  0  0
    6.5938    3.3058    0.0000 H   0  0  0  0  0  0  0  0  0  0  0  0
    4.6322    9.2775    0.0000 H   0  0  0  0  0  0  0  0  0  0  0  0
    5.1110   10.0120    0.0000 H   0  0  0  0  0  0  0  0  0  0  0  0
    4.3765   10.4908    0.0000 H   0  0  0  0  0  0  0  0  0  0  0  0
    4.9888    6.5197    0.0000 H   0  0  0  0  0  0  0  0  0  0  0  0
    9.3060    6.0190    0.0000 H   0  0  0  0  0  0  0  0  0  0  0  0
   10.0406    6.4978    0.0000 H   0  0  0  0  0  0  0  0  0  0  0  0
    9.5617    7.2323    0.0000 H   0  0  0  0  0  0  0  0  0  0  0  0
    0.0000    8.7327    0.0000 H   0  0  0  0  0  0  0  0  0  0  0  0
    9.3997    3.3058    0.0000 H   0  0  0  0  0  0  0  0  0  0  0  0
    0.0000    7.1127    0.0000 H   0  0  0  0  0  0  0  0  0  0  0  0
    7.9967    2.4958    0.0000 H   0  0  0  0  0  0  0  0  0  0  0  0
  2  8  1  0  0  0  0
  2 12  1  0  0  0  0
  3  9  1  0  0  0  0
  3 13  1  0  0  0  0
  4  6  1  0  0  0  0
  4  8  2  0  0  0  0
  4 10  1  0  0  0  0
  5  7  1  0  0  0  0
  5  9  1  0  0  0  0
  5 11  1  0  0  0  0
  6 12  1  0  0  0  0
  6 15  2  0  0  0  0
  7 13  1  0  0  0  0
  7 17  2  0  0  0  0
  8 14  1  0  0  0  0
  9 16  2  3  0  0  0
 10 20  1  0  0  0  0
 10 27  1  0  0  0  0
 10 28  1  0  0  0  0
 11 22  1  0  0  0  0
 11 29  1  0  0  0  0
 11 30  1  0  0  0  0
 12 18  2  0  0  0  0
 13 19  2  0  0  0  0
 14 21  2  3  0  0  0
 14 31  1  0  0  0  0
 15 23  1  0  0  0  0
 15 32  1  0  0  0  0
 16 21  1  0  0  0  0
 16 33  1  0  0  0  0
 17 24  1  0  0  0  0
 17 34  1  0  0  0  0
 18 25  1  0  0  0  0
 18 35  1  0  0  0  0
 19 26  1  0  0  0  0
 19 36  1  0  0  0  0
 20 37  1  0  0  0  0
 20 38  1  0  0  0  0
 20 39  1  0  0  0  0
 21 40  1  0  0  0  0
 22 41  1  0  0  0  0
 22 42  1  0  0  0  0
 22 43  1  0  0  0  0
 23 25  2  0  0  0  0
 23 44  1  0  0  0  0
 24 26  2  0  0  0  0
 24 45  1  0  0  0  0
 25 46  1  0  0  0  0
 26 47  1  0  0  0  0
M  CHG  2   1  -1   4   1
M  END
> <PUBCHEM_COMPOUND_CID>
13486

> <PUBCHEM_COMPOUND_CANONICALIZED>
1

> <PUBCHEM_CACTVS_COMPLEXITY>
474

> <PUBCHEM_CACTVS_HBOND_ACCEPTOR>
4

> <PUBCHEM_CACTVS_HBOND_DONOR>
0

> <PUBCHEM_CACTVS_ROTATABLE_BOND>
4

> <PUBCHEM_CACTVS_SUBSKEYS>
AAADceB7AABgAgAAAAAAAAAAAAAAAWLAAAAwYAAAAAAAAFgB9AAAHAQAAAAACAjBVgQywbMMEAikASRiRACD8KBhCjhI2Dw4ZJgIIKLgkZGEIAhggADoyAcQAAAAAAAAAAAAAQAAAAAAAAACAAAAAAAAAA==

> <PUBCHEM_IUPAC_OPENEYE_NAME>
3-ethyl-2-[3-(3-ethyl-1,3-benzothiazol-3-ium-2-yl)prop-2-enylidene]-1,3-benzothiazole iodide

> <PUBCHEM_IUPAC_CAS_NAME>
3-ethyl-2-[3-(3-ethyl-1,3-benzothiazol-3-ium-2-yl)prop-2-enylidene]-1,3-benzothiazole iodide

> <PUBCHEM_IUPAC_NAME>
3-ethyl-2-[3-(3-ethyl-1,3-benzothiazol-3-ium-2-yl)prop-2-enylidene]-1,3-benzothiazole iodide

> <PUBCHEM_IUPAC_SYSTEMATIC_NAME>
3-ethyl-2-[3-(3-ethyl-1,3-benzothiazol-3-ium-2-yl)prop-2-enylidene]-1,3-benzothiazole iodide

> <PUBCHEM_IUPAC_TRADITIONAL_NAME>
3-ethyl-2-[3-(3-ethyl-1,3-benzothiazol-3-ium-2-yl)prop-2-enylidene]-1,3-benzothiazole iodide

> <PUBCHEM_IUPAC_INCHI>
InChI=1S/C21H21N2S2.HI/c1-3-22-16-10-5-7-12-18(16)24-20(22)14-9-15-21-23(4-2)17-11-6-8-13-19(17)25-21;/h5-15H,3-4H2,1-2H3;1H/q+1;/p-1

> <PUBCHEM_IUPAC_INCHIKEY>
VZBILKJHDPEENF-UHFFFAOYSA-M

> <PUBCHEM_EXACT_MASS>
492.019089

> <PUBCHEM_MOLECULAR_FORMULA>
C21H21IN2S2

> <PUBCHEM_MOLECULAR_WEIGHT>
492.43931

> <PUBCHEM_OPENEYE_CAN_SMILES>
CCN1C2=CC=CC=C2SC1=CC=CC3=[N+](C4=CC=CC=C4S3)CC.[I-]

> <PUBCHEM_OPENEYE_ISO_SMILES>
CCN1C2=CC=CC=C2SC1=CC=CC3=[N+](C4=CC=CC=C4S3)CC.[I-]

> <PUBCHEM_CACTVS_TPSA>
60.7

> <PUBCHEM_MONOISOTOPIC_WEIGHT>
492.019089

> <PUBCHEM_TOTAL_CHARGE>
0

> <PUBCHEM_HEAVY_ATOM_COUNT>
26

> <PUBCHEM_ATOM_DEF_STEREO_COUNT>
0

> <PUBCHEM_ATOM_UDEF_STEREO_COUNT>
0

> <PUBCHEM_BOND_DEF_STEREO_COUNT>
0

> <PUBCHEM_BOND_UDEF_STEREO_COUNT>
2

> <PUBCHEM_ISOTOPIC_ATOM_COUNT>
0

> <PUBCHEM_COMPONENT_COUNT>
2

> <PUBCHEM_CACTVS_TAUTO_COUNT>
1

> <PUBCHEM_COORDINATE_TYPE>
1
5
255

> <PUBCHEM_BONDANNOTATIONS>
12  18  8
13  19  8
14  21  1
15  23  8
17  24  8
18  25  8
19  26  8
2  12  8
2  8  8
23  25  8
24  26  8
4  6  8
4  8  8
6  12  8
6  15  8
7  13  8
7  17  8
9  16  1

$$$$

