5462495
  -OEChem-07051213012D

 46 49  0     0  0  0  0  0  0999 V2000
    4.6783    1.3603    0.0000 O   0  0  0  0  0  0  0  0  0  0  0  0
   10.7619   -0.4330    0.0000 O   0  0  0  0  0  0  0  0  0  0  0  0
    6.2619    3.8971    0.0000 O   0  0  0  0  0  0  0  0  0  0  0  0
    9.7619    1.2990    0.0000 O   0  0  0  0  0  0  0  0  0  0  0  0
    4.6783    2.9698    0.0000 N   0  0  0  0  0  0  0  0  0  0  0  0
    8.2619    0.4330    0.0000 N   0  0  0  0  0  0  0  0  0  0  0  0
    5.2619    2.1651    0.0000 C   0  0  0  0  0  0  0  0  0  0  0  0
    6.2619    2.1651    0.0000 C   0  0  0  0  0  0  0  0  0  0  0  0
    3.7320    2.6651    0.0000 C   0  0  0  0  0  0  0  0  0  0  0  0
    3.7320    1.6651    0.0000 C   0  0  0  0  0  0  0  0  0  0  0  0
    6.7619    1.2990    0.0000 C   0  0  0  0  0  0  0  0  0  0  0  0
    7.7619    1.2990    0.0000 C   0  0  0  0  0  0  0  0  0  0  0  0
    6.7619    3.0311    0.0000 C   0  0  0  0  0  0  0  0  0  0  0  0
    2.8660    3.1651    0.0000 C   0  0  0  0  0  0  0  0  0  0  0  0
    2.8660    1.1651    0.0000 C   0  0  0  0  0  0  0  0  0  0  0  0
    8.2619    2.1651    0.0000 C   0  0  0  0  0  0  0  0  0  0  0  0
    7.7619    3.0311    0.0000 C   0  0  0  0  0  0  0  0  0  0  0  0
    2.0000    2.6651    0.0000 C   0  0  0  0  0  0  0  0  0  0  0  0
    2.0000    1.6651    0.0000 C   0  0  0  0  0  0  0  0  0  0  0  0
    9.2619    0.4330    0.0000 C   0  0  0  0  0  0  0  0  0  0  0  0
    9.7619   -0.4330    0.0000 C   0  0  0  0  0  0  0  0  0  0  0  0
   11.2619   -1.2990    0.0000 C   0  0  0  0  0  0  0  0  0  0  0  0
   12.2619   -3.0311    0.0000 C   0  0  0  0  0  0  0  0  0  0  0  0
   10.7619   -2.1651    0.0000 C   0  0  0  0  0  0  0  0  0  0  0  0
   12.2619   -1.2990    0.0000 C   0  0  0  0  0  0  0  0  0  0  0  0
   11.2619   -3.0311    0.0000 C   0  0  0  0  0  0  0  0  0  0  0  0
   12.7619   -2.1651    0.0000 C   0  0  0  0  0  0  0  0  0  0  0  0
   12.7619   -3.8971    0.0000 C   0  0  0  0  0  0  0  0  0  0  0  0
    4.8709    3.5591    0.0000 H   0  0  0  0  0  0  0  0  0  0  0  0
    6.4519    0.7621    0.0000 H   0  0  0  0  0  0  0  0  0  0  0  0
    2.8660    3.7851    0.0000 H   0  0  0  0  0  0  0  0  0  0  0  0
    2.8660    0.5451    0.0000 H   0  0  0  0  0  0  0  0  0  0  0  0
    8.8819    2.1651    0.0000 H   0  0  0  0  0  0  0  0  0  0  0  0
    8.0719    3.5680    0.0000 H   0  0  0  0  0  0  0  0  0  0  0  0
    1.4631    2.9751    0.0000 H   0  0  0  0  0  0  0  0  0  0  0  0
    7.9519   -0.1039    0.0000 H   0  0  0  0  0  0  0  0  0  0  0  0
    1.4631    1.3551    0.0000 H   0  0  0  0  0  0  0  0  0  0  0  0
    9.1793   -0.6451    0.0000 H   0  0  0  0  0  0  0  0  0  0  0  0
    9.8695   -1.0436    0.0000 H   0  0  0  0  0  0  0  0  0  0  0  0
   10.1419   -2.1651    0.0000 H   0  0  0  0  0  0  0  0  0  0  0  0
   12.5719   -0.7621    0.0000 H   0  0  0  0  0  0  0  0  0  0  0  0
   10.9519   -3.5680    0.0000 H   0  0  0  0  0  0  0  0  0  0  0  0
   13.3819   -2.1651    0.0000 H   0  0  0  0  0  0  0  0  0  0  0  0
   12.2249   -4.2071    0.0000 H   0  0  0  0  0  0  0  0  0  0  0  0
   13.0719   -4.4340    0.0000 H   0  0  0  0  0  0  0  0  0  0  0  0
   13.2988   -3.5871    0.0000 H   0  0  0  0  0  0  0  0  0  0  0  0
  1  7  1  0  0  0  0
  1 10  1  0  0  0  0
  2 21  1  0  0  0  0
  2 22  1  0  0  0  0
  3 13  2  0  0  0  0
  4 20  2  0  0  0  0
  5  7  1  0  0  0  0
  5  9  1  0  0  0  0
  5 29  1  0  0  0  0
  6 12  1  0  0  0  0
  6 20  1  0  0  0  0
  6 36  1  0  0  0  0
  7  8  2  0  0  0  0
  8 11  1  0  0  0  0
  8 13  1  0  0  0  0
  9 10  1  0  0  0  0
  9 14  2  0  0  0  0
 10 15  2  0  0  0  0
 11 12  2  0  0  0  0
 11 30  1  0  0  0  0
 12 16  1  0  0  0  0
 13 17  1  0  0  0  0
 14 18  1  0  0  0  0
 14 31  1  0  0  0  0
 15 19  1  0  0  0  0
 15 32  1  0  0  0  0
 16 17  2  0  0  0  0
 16 33  1  0  0  0  0
 17 34  1  0  0  0  0
 18 19  2  0  0  0  0
 18 35  1  0  0  0  0
 19 37  1  0  0  0  0
 20 21  1  0  0  0  0
 21 38  1  0  0  0  0
 21 39  1  0  0  0  0
 22 24  2  0  0  0  0
 22 25  1  0  0  0  0
 23 26  2  0  0  0  0
 23 27  1  0  0  0  0
 23 28  1  0  0  0  0
 24 26  1  0  0  0  0
 24 40  1  0  0  0  0
 25 27  2  0  0  0  0
 25 41  1  0  0  0  0
 26 42  1  0  0  0  0
 27 43  1  0  0  0  0
 28 44  1  0  0  0  0
 28 45  1  0  0  0  0
 28 46  1  0  0  0  0
M  END
> <PUBCHEM_COMPOUND_CID>
5462495

> <PUBCHEM_COMPOUND_CANONICALIZED>
1

> <PUBCHEM_CACTVS_COMPLEXITY>
716

> <PUBCHEM_CACTVS_HBOND_ACCEPTOR>
5

> <PUBCHEM_CACTVS_HBOND_DONOR>
2

> <PUBCHEM_CACTVS_ROTATABLE_BOND>
4

> <PUBCHEM_CACTVS_SUBSKEYS>
AAADceB7OAAAAAAAAAAAAAAAAAAAAWAAAAAwYIAAAAAAAFgBQAAAHgAQAAAADAyhmAIyxoLABACIAqVSUAKCCAAhIgAIiAFHbMkOJiLEsZ+POCjk1BHY6ceQwAAOIAAAAAAAEABAAAAAAAAgAAAAAAAAAA==

> <PUBCHEM_IUPAC_OPENEYE_NAME>
N-[(3E)-3-(3H-1,3-benzoxazol-2-ylidene)-4-oxo-cyclohexa-1,5-dien-1-yl]-2-(4-methylphenoxy)acetamide

> <PUBCHEM_IUPAC_CAS_NAME>
N-[(3E)-3-(3H-1,3-benzoxazol-2-ylidene)-4-oxo-1-cyclohexa-1,5-dienyl]-2-(4-methylphenoxy)acetamide

> <PUBCHEM_IUPAC_NAME>
N-[(3E)-3-(3H-1,3-benzoxazol-2-ylidene)-4-oxocyclohexa-1,5-dien-1-yl]-2-(4-methylphenoxy)acetamide

> <PUBCHEM_IUPAC_SYSTEMATIC_NAME>
N-[(3E)-3-(3H-1,3-benzoxazol-2-ylidene)-4-oxidanylidene-cyclohexa-1,5-dien-1-yl]-2-(4-methylphenoxy)ethanamide

> <PUBCHEM_IUPAC_TRADITIONAL_NAME>
N-[(3E)-3-(3H-1,3-benzoxazol-2-ylidene)-4-keto-cyclohexa-1,5-dien-1-yl]-2-(4-methylphenoxy)acetamide

> <PUBCHEM_IUPAC_INCHI>
InChI=1S/C22H18N2O4/c1-14-6-9-16(10-7-14)27-13-21(26)23-15-8-11-19(25)17(12-15)22-24-18-4-2-3-5-20(18)28-22/h2-12,24H,13H2,1H3,(H,23,26)/b22-17+

> <PUBCHEM_IUPAC_INCHIKEY>
AZLYJFUNYHTXTJ-OQKWZONESA-N

> <PUBCHEM_XLOGP3_AA>
3.6

> <PUBCHEM_EXACT_MASS>
374.126657

> <PUBCHEM_MOLECULAR_FORMULA>
C22H18N2O4

> <PUBCHEM_MOLECULAR_WEIGHT>
374.38932

> <PUBCHEM_OPENEYE_CAN_SMILES>
CC1=CC=C(C=C1)OCC(=O)NC2=CC(=C3NC4=CC=CC=C4O3)C(=O)C=C2

> <PUBCHEM_OPENEYE_ISO_SMILES>
CC1=CC=C(C=C1)OCC(=O)NC2=C/C(=C\3/NC4=CC=CC=C4O3)/C(=O)C=C2

> <PUBCHEM_CACTVS_TPSA>
76.7

> <PUBCHEM_MONOISOTOPIC_WEIGHT>
374.126657

> <PUBCHEM_TOTAL_CHARGE>
0

> <PUBCHEM_HEAVY_ATOM_COUNT>
28

> <PUBCHEM_ATOM_DEF_STEREO_COUNT>
0

> <PUBCHEM_ATOM_UDEF_STEREO_COUNT>
0

> <PUBCHEM_BOND_DEF_STEREO_COUNT>
1

> <PUBCHEM_BOND_UDEF_STEREO_COUNT>
0

> <PUBCHEM_ISOTOPIC_ATOM_COUNT>
0

> <PUBCHEM_COMPONENT_COUNT>
1

> <PUBCHEM_CACTVS_TAUTO_COUNT>
12

> <PUBCHEM_COORDINATE_TYPE>
1
5
255

> <PUBCHEM_BONDANNOTATIONS>
10  15  8
14  18  8
15  19  8
18  19  8
22  24  8
22  25  8
23  26  8
23  27  8
24  26  8
25  27  8
9  10  8
9  14  8

$$$$

