5275507
  -OEChem-07051213083D

 41 40  0     0  0  0  0  0  0999 V2000
    1.7720   -3.3711   -0.3057 O   0  0  0  0  0  0  0  0  0  0  0  0
    2.5896   -2.2824    1.5160 O   0  0  0  0  0  0  0  0  0  0  0  0
   -1.7687    1.6585    0.3627 C   0  0  0  0  0  0  0  0  0  0  0  0
   -0.3138    2.0866    0.3985 C   0  0  0  0  0  0  0  0  0  0  0  0
    1.8872    2.3488   -0.8958 C   0  0  0  0  0  0  0  0  0  0  0  0
   -1.9518    0.1897    0.7574 C   0  0  0  0  0  0  0  0  0  0  0  0
    2.7104    1.1855   -1.4668 C   0  0  0  0  0  0  0  0  0  0  0  0
    0.4371    1.9958   -0.7167 C   0  0  0  0  0  0  0  0  0  0  0  0
    2.8256   -0.0002   -0.5302 C   0  0  0  0  0  0  0  0  0  0  0  0
    0.1731    2.5968    1.7266 C   0  0  0  0  0  0  0  0  0  0  0  0
   -3.4049   -0.1934    0.7716 C   0  0  0  0  0  0  0  0  0  0  0  0
   -4.1143   -0.7521   -0.2273 C   0  0  0  0  0  0  0  0  0  0  0  0
    3.9589    0.0979    0.4629 C   0  0  0  0  0  0  0  0  0  0  0  0
    2.0474   -1.0994   -0.5289 C   0  0  0  0  0  0  0  0  0  0  0  0
   -5.5709   -1.1136   -0.1521 C   0  0  0  0  0  0  0  0  0  0  0  0
   -3.4571   -1.0786   -1.5415 C   0  0  0  0  0  0  0  0  0  0  0  0
    2.1803   -2.2689    0.3694 C   0  0  0  0  0  0  0  0  0  0  0  0
   -2.1776    1.8206   -0.6440 H   0  0  0  0  0  0  0  0  0  0  0  0
   -2.3558    2.3097    1.0236 H   0  0  0  0  0  0  0  0  0  0  0  0
    2.3550    2.7018    0.0265 H   0  0  0  0  0  0  0  0  0  0  0  0
    1.9379    3.1850   -1.6045 H   0  0  0  0  0  0  0  0  0  0  0  0
   -1.3642   -0.4675    0.1073 H   0  0  0  0  0  0  0  0  0  0  0  0
   -1.5541    0.0225    1.7668 H   0  0  0  0  0  0  0  0  0  0  0  0
    2.2552    0.8515   -2.4092 H   0  0  0  0  0  0  0  0  0  0  0  0
    3.7100    1.5440   -1.7415 H   0  0  0  0  0  0  0  0  0  0  0  0
   -0.0457    1.6224   -1.6198 H   0  0  0  0  0  0  0  0  0  0  0  0
   -0.4216    3.4631    2.0353 H   0  0  0  0  0  0  0  0  0  0  0  0
    0.0678    1.8191    2.4900 H   0  0  0  0  0  0  0  0  0  0  0  0
    1.2186    2.9088    1.7254 H   0  0  0  0  0  0  0  0  0  0  0  0
   -3.9277    0.0306    1.7003 H   0  0  0  0  0  0  0  0  0  0  0  0
    3.6117    0.5703    1.3874 H   0  0  0  0  0  0  0  0  0  0  0  0
    4.7745    0.7103    0.0622 H   0  0  0  0  0  0  0  0  0  0  0  0
    4.4127   -0.8691    0.6971 H   0  0  0  0  0  0  0  0  0  0  0  0
    1.2593   -1.1744   -1.2753 H   0  0  0  0  0  0  0  0  0  0  0  0
   -6.1414   -0.5610   -0.9054 H   0  0  0  0  0  0  0  0  0  0  0  0
   -5.9948   -0.8765    0.8292 H   0  0  0  0  0  0  0  0  0  0  0  0
   -5.7071   -2.1859   -0.3253 H   0  0  0  0  0  0  0  0  0  0  0  0
   -2.4754   -0.6218   -1.6840 H   0  0  0  0  0  0  0  0  0  0  0  0
   -4.0814   -0.7201   -2.3678 H   0  0  0  0  0  0  0  0  0  0  0  0
   -3.3473   -2.1631   -1.6456 H   0  0  0  0  0  0  0  0  0  0  0  0
    1.8417   -4.1827    0.2409 H   0  0  0  0  0  0  0  0  0  0  0  0
  1 17  1  0  0  0  0
  1 41  1  0  0  0  0
  2 17  2  0  0  0  0
  3  4  1  0  0  0  0
  3  6  1  0  0  0  0
  3 18  1  0  0  0  0
  3 19  1  0  0  0  0
  4  8  2  0  0  0  0
  4 10  1  0  0  0  0
  5  7  1  0  0  0  0
  5  8  1  0  0  0  0
  5 20  1  0  0  0  0
  5 21  1  0  0  0  0
  6 11  1  0  0  0  0
  6 22  1  0  0  0  0
  6 23  1  0  0  0  0
  7  9  1  0  0  0  0
  7 24  1  0  0  0  0
  7 25  1  0  0  0  0
  8 26  1  0  0  0  0
  9 13  1  0  0  0  0
  9 14  2  0  0  0  0
 10 27  1  0  0  0  0
 10 28  1  0  0  0  0
 10 29  1  0  0  0  0
 11 12  2  0  0  0  0
 11 30  1  0  0  0  0
 12 15  1  0  0  0  0
 12 16  1  0  0  0  0
 13 31  1  0  0  0  0
 13 32  1  0  0  0  0
 13 33  1  0  0  0  0
 14 17  1  0  0  0  0
 14 34  1  0  0  0  0
 15 35  1  0  0  0  0
 15 36  1  0  0  0  0
 15 37  1  0  0  0  0
 16 38  1  0  0  0  0
 16 39  1  0  0  0  0
 16 40  1  0  0  0  0
M  END
> <PUBCHEM_COMPOUND_CID>
5275507

> <PUBCHEM_CONFORMER_RMSD>
0.8

> <PUBCHEM_CONFORMER_DIVERSEORDER>
1
101
131
46
93
269
146
43
69
289
308
268
240
281
174
170
78
292
330
312
336
106
267
88
149
283
53
135
114
111
257
160
6
40
279
14
338
262
216
337
196
175
326
120
118
244
201
21
322
50
109
121
275
34
74
241
191
331
44
59
288
320
197
115
187
298
182
94
285
86
245
117
185
167
72
144
207
236
248
223
315
325
80
122
127
156
134
11
58
96
323
225
81
33
303
38
9
119
238
287
153
212
258
333
65
140
23
95
193
17
318
19
136
24
233
200
329
164
123
203
192
151
300
108
291
340
87
327
10
82
7
202
35
60
229
314
230
85
97
294
147
184
305
133
36
242
152
219
214
254
71
224
304
232
215
126
64
324
113
266
264
265
28
8
263
227
67
316
91
213
4
132
274
90
20
251
306
55
56
239
179
180
297
195
194
62
130
162
169
26
29
246
100
116
217
68
154
189
143
31
177
79
41
235
166
271
45
286
190
25
107
84
39
290
317
221
186
168
211
176
332
231
260
206
311
77
124
247
30
261
89
61
105
220
161
284
252
155
104
138
52
128
255
171
12
66
16
73
276
307
54
259
309
302
173
321
178
188
27
226
277
172
278
103
76
125
163
310
282
57
273
198
157
243
110
205
99
158
208
295
228
98
328
204
210
102
22
249
148
2
165
183
75
47
32
49
270
137
5
296
142
209
70
48
250
15
299
199
150
234
129
256
13
51
139
159
339
141
335
272
280
92
253
18
222
145
112
83
313
63
181
334
218
3
319
301
237
42
293
37

> <PUBCHEM_MMFF94_PARTIAL_CHARGES>
21
1 -0.65
10 0.14
11 -0.29
12 -0.28
13 0.14
14 -0.14
15 0.14
16 0.14
17 0.71
2 -0.57
26 0.15
3 0.14
30 0.15
34 0.15
4 -0.28
41 0.5
5 0.14
6 0.14
7 0.14
8 -0.29
9 -0.28

> <PUBCHEM_EFFECTIVE_ROTOR_COUNT>
7

> <PUBCHEM_PHARMACOPHORE_FEATURES>
8
1 1 acceptor
1 10 hydrophobe
1 13 hydrophobe
1 2 acceptor
3 1 2 17 anion
3 12 15 16 hydrophobe
4 3 4 6 11 hydrophobe
4 5 7 8 9 hydrophobe

> <PUBCHEM_HEAVY_ATOM_COUNT>
17

> <PUBCHEM_ATOM_DEF_STEREO_COUNT>
0

> <PUBCHEM_ATOM_UDEF_STEREO_COUNT>
0

> <PUBCHEM_BOND_DEF_STEREO_COUNT>
2

> <PUBCHEM_BOND_UDEF_STEREO_COUNT>
0

> <PUBCHEM_ISOTOPIC_ATOM_COUNT>
0

> <PUBCHEM_COMPONENT_COUNT>
1

> <PUBCHEM_CACTVS_TAUTO_COUNT>
1

> <PUBCHEM_CONFORMER_ID>
00507F7300000001

> <PUBCHEM_MMFF94_ENERGY>
23.9589

> <PUBCHEM_FEATURE_SELFOVERLAP>
40.661

> <PUBCHEM_SHAPE_FINGERPRINT>
11045977 3 6338966581059084349
11118852 30 18259704505973940358
12553582 1 18339344319274926377
12670545 2 18261106357956416357
13083527 12 18059870505804416144
14251705 54 18340202011163947695
14251717 144 18339920424665540119
14251757 17 17489594480452760371
14787075 74 18042406837977253632
14848160 33 18201440298270478771
15183329 4 18260544529585902269
15375462 189 18334005078147064193
20291156 8 18336540633259080823
20369508 70 18041279851438202377
20442098 301 18190732240305315476
20626108 58 18130239219353157560
20645477 70 18130501933970611185
21250096 35 18260548939773269577
2255824 54 18193553372446961317
235170 7 17274824589313577039
23557571 272 17894909680444748842
238 59 18197204854698978153
2871803 45 18340477898567561076
339767 52 17895200978470666543
4283 87 18044098956259956023
463206 1 18336829672021677507
8199 65 18340196402226497668

> <PUBCHEM_SHAPE_MULTIPOLES>
338.11
8.48
3.39
1.39
10.4
0.89
0.05
4.41
-1.1
-2.58
0.63
-0.27
-0.3
-1.39

> <PUBCHEM_SHAPE_SELFOVERLAP>
644.44

> <PUBCHEM_SHAPE_VOLUME>
208.3

> <PUBCHEM_COORDINATE_TYPE>
2
5
10

$$$$

