11953813
  -OEChem-07051212472D

 82 83  0     1  0  0  0  0  0999 V2000
    8.7942   -5.7500    0.0000 O   0  0  0  0  0  0  0  0  0  0  0  0
   10.6603   -3.2500    0.0000 O   0  0  0  0  0  0  0  0  0  0  0  0
   10.6603   -7.2500    0.0000 O   0  0  0  0  0  0  0  0  0  0  0  0
    4.5981    3.2500    0.0000 C   0  0  1  0  0  0  0  0  0  0  0  0
    6.3301    0.2500    0.0000 C   0  0  2  0  0  0  0  0  0  0  0  0
    5.4641    2.7500    0.0000 C   0  0  0  0  0  0  0  0  0  0  0  0
    6.3301    1.2500    0.0000 C   0  0  0  0  0  0  0  0  0  0  0  0
    5.4641    1.7500    0.0000 C   0  0  0  0  0  0  0  0  0  0  0  0
    4.5981    4.2500    0.0000 C   0  0  0  0  0  0  0  0  0  0  0  0
    9.7942   -4.7500    0.0000 C   0  0  3  0  0  0  0  0  0  0  0  0
    7.1962   -0.2500    0.0000 C   0  0  0  0  0  0  0  0  0  0  0  0
    9.7942   -5.7500    0.0000 C   0  0  3  0  0  0  0  0  0  0  0  0
    3.7320    4.7500    0.0000 C   0  0  0  0  0  0  0  0  0  0  0  0
    7.1962   -1.2500    0.0000 C   0  0  0  0  0  0  0  0  0  0  0  0
    8.9282   -4.2500    0.0000 C   0  0  0  0  0  0  0  0  0  0  0  0
    3.7320    2.7500    0.0000 C   0  0  0  0  0  0  0  0  0  0  0  0
    3.7320    5.7500    0.0000 C   0  0  0  0  0  0  0  0  0  0  0  0
    5.4641   -0.2500    0.0000 C   0  0  0  0  0  0  0  0  0  0  0  0
    8.0622   -1.7500    0.0000 C   0  0  0  0  0  0  0  0  0  0  0  0
   10.6603   -4.2500    0.0000 C   0  0  0  0  0  0  0  0  0  0  0  0
   10.6603   -6.2500    0.0000 C   0  0  0  0  0  0  0  0  0  0  0  0
    2.8660    6.2500    0.0000 C   0  0  0  0  0  0  0  0  0  0  0  0
    8.0622   -2.7500    0.0000 C   0  0  0  0  0  0  0  0  0  0  0  0
    8.9282   -3.2500    0.0000 C   0  0  0  0  0  0  0  0  0  0  0  0
    9.2942   -6.6160    0.0000 C   0  0  0  0  0  0  0  0  0  0  0  0
   11.5263   -4.7500    0.0000 C   0  0  0  0  0  0  0  0  0  0  0  0
   11.5263   -5.7500    0.0000 C   0  0  0  0  0  0  0  0  0  0  0  0
    2.8660    7.2500    0.0000 C   0  0  0  0  0  0  0  0  0  0  0  0
    2.0000    5.7500    0.0000 C   0  0  0  0  0  0  0  0  0  0  0  0
    7.1962   -3.2500    0.0000 C   0  0  0  0  0  0  0  0  0  0  0  0
   12.4202   -4.2153    0.0000 C   0  0  0  0  0  0  0  0  0  0  0  0
   12.4202   -6.2847    0.0000 C   0  0  0  0  0  0  0  0  0  0  0  0
   13.3263   -4.7292    0.0000 C   0  0  0  0  0  0  0  0  0  0  0  0
   13.3263   -5.7708    0.0000 C   0  0  0  0  0  0  0  0  0  0  0  0
    4.5981    2.6300    0.0000 H   0  0  0  0  0  0  0  0  0  0  0  0
    5.7932    0.5600    0.0000 H   0  0  0  0  0  0  0  0  0  0  0  0
    6.0747    2.6423    0.0000 H   0  0  0  0  0  0  0  0  0  0  0  0
    5.6762    3.3326    0.0000 H   0  0  0  0  0  0  0  0  0  0  0  0
    6.9407    1.1423    0.0000 H   0  0  0  0  0  0  0  0  0  0  0  0
    6.5422    1.8326    0.0000 H   0  0  0  0  0  0  0  0  0  0  0  0
    4.8535    1.8577    0.0000 H   0  0  0  0  0  0  0  0  0  0  0  0
    5.2520    1.1674    0.0000 H   0  0  0  0  0  0  0  0  0  0  0  0
    5.2087    4.1423    0.0000 H   0  0  0  0  0  0  0  0  0  0  0  0
    4.8101    4.8326    0.0000 H   0  0  0  0  0  0  0  0  0  0  0  0
    9.2573   -5.0600    0.0000 H   0  0  0  0  0  0  0  0  0  0  0  0
    7.8067   -0.3577    0.0000 H   0  0  0  0  0  0  0  0  0  0  0  0
    7.4082    0.3326    0.0000 H   0  0  0  0  0  0  0  0  0  0  0  0
    3.1215    4.8577    0.0000 H   0  0  0  0  0  0  0  0  0  0  0  0
    3.5200    4.1674    0.0000 H   0  0  0  0  0  0  0  0  0  0  0  0
    6.5856   -1.1423    0.0000 H   0  0  0  0  0  0  0  0  0  0  0  0
    6.9841   -1.8326    0.0000 H   0  0  0  0  0  0  0  0  0  0  0  0
    8.3176   -4.1423    0.0000 H   0  0  0  0  0  0  0  0  0  0  0  0
    8.7162   -4.8326    0.0000 H   0  0  0  0  0  0  0  0  0  0  0  0
    3.4220    3.2869    0.0000 H   0  0  0  0  0  0  0  0  0  0  0  0
    3.1951    2.4400    0.0000 H   0  0  0  0  0  0  0  0  0  0  0  0
    4.0420    2.2131    0.0000 H   0  0  0  0  0  0  0  0  0  0  0  0
    4.3426    5.6423    0.0000 H   0  0  0  0  0  0  0  0  0  0  0  0
    3.9441    6.3326    0.0000 H   0  0  0  0  0  0  0  0  0  0  0  0
    5.1541    0.2869    0.0000 H   0  0  0  0  0  0  0  0  0  0  0  0
    4.9272   -0.5600    0.0000 H   0  0  0  0  0  0  0  0  0  0  0  0
    5.7741   -0.7869    0.0000 H   0  0  0  0  0  0  0  0  0  0  0  0
    8.6728   -1.8577    0.0000 H   0  0  0  0  0  0  0  0  0  0  0  0
    8.2742   -1.1674    0.0000 H   0  0  0  0  0  0  0  0  0  0  0  0
    2.8660    5.6300    0.0000 H   0  0  0  0  0  0  0  0  0  0  0  0
    9.4651   -2.9400    0.0000 H   0  0  0  0  0  0  0  0  0  0  0  0
    8.7573   -6.3060    0.0000 H   0  0  0  0  0  0  0  0  0  0  0  0
    8.9842   -7.1530    0.0000 H   0  0  0  0  0  0  0  0  0  0  0  0
    9.8312   -6.9260    0.0000 H   0  0  0  0  0  0  0  0  0  0  0  0
    8.4842   -6.2869    0.0000 H   0  0  0  0  0  0  0  0  0  0  0  0
    3.4860    7.2500    0.0000 H   0  0  0  0  0  0  0  0  0  0  0  0
    2.8660    7.8700    0.0000 H   0  0  0  0  0  0  0  0  0  0  0  0
    2.2460    7.2500    0.0000 H   0  0  0  0  0  0  0  0  0  0  0  0
    1.6900    6.2869    0.0000 H   0  0  0  0  0  0  0  0  0  0  0  0
    1.4631    5.4400    0.0000 H   0  0  0  0  0  0  0  0  0  0  0  0
    2.3100    5.2131    0.0000 H   0  0  0  0  0  0  0  0  0  0  0  0
    6.8862   -2.7131    0.0000 H   0  0  0  0  0  0  0  0  0  0  0  0
    6.6592   -3.5600    0.0000 H   0  0  0  0  0  0  0  0  0  0  0  0
    7.5062   -3.7869    0.0000 H   0  0  0  0  0  0  0  0  0  0  0  0
   12.4131   -3.5954    0.0000 H   0  0  0  0  0  0  0  0  0  0  0  0
   12.4131   -6.9046    0.0000 H   0  0  0  0  0  0  0  0  0  0  0  0
   13.8620   -4.4171    0.0000 H   0  0  0  0  0  0  0  0  0  0  0  0
   13.8620   -6.0829    0.0000 H   0  0  0  0  0  0  0  0  0  0  0  0
  1 12  1  0  0  0  0
  1 69  1  0  0  0  0
  2 20  2  0  0  0  0
  3 21  2  0  0  0  0
  4  6  1  0  0  0  0
  4  9  1  0  0  0  0
  4 16  1  6  0  0  0
  4 35  1  0  0  0  0
  5  7  1  0  0  0  0
  5 11  1  0  0  0  0
  5 18  1  6  0  0  0
  5 36  1  0  0  0  0
  6  8  1  0  0  0  0
  6 37  1  0  0  0  0
  6 38  1  0  0  0  0
  7  8  1  0  0  0  0
  7 39  1  0  0  0  0
  7 40  1  0  0  0  0
  8 41  1  0  0  0  0
  8 42  1  0  0  0  0
  9 13  1  0  0  0  0
  9 43  1  0  0  0  0
  9 44  1  0  0  0  0
 10 12  1  0  0  0  0
 10 15  1  0  0  0  0
 10 20  1  0  0  0  0
 10 45  1  0  0  0  0
 11 14  1  0  0  0  0
 11 46  1  0  0  0  0
 11 47  1  0  0  0  0
 12 21  1  0  0  0  0
 12 25  1  0  0  0  0
 13 17  1  0  0  0  0
 13 48  1  0  0  0  0
 13 49  1  0  0  0  0
 14 19  1  0  0  0  0
 14 50  1  0  0  0  0
 14 51  1  0  0  0  0
 15 24  1  0  0  0  0
 15 52  1  0  0  0  0
 15 53  1  0  0  0  0
 16 54  1  0  0  0  0
 16 55  1  0  0  0  0
 16 56  1  0  0  0  0
 17 22  1  0  0  0  0
 17 57  1  0  0  0  0
 17 58  1  0  0  0  0
 18 59  1  0  0  0  0
 18 60  1  0  0  0  0
 18 61  1  0  0  0  0
 19 23  1  0  0  0  0
 19 62  1  0  0  0  0
 19 63  1  0  0  0  0
 20 26  1  0  0  0  0
 21 27  1  0  0  0  0
 22 28  1  0  0  0  0
 22 29  1  0  0  0  0
 22 64  1  0  0  0  0
 23 24  2  0  0  0  0
 23 30  1  0  0  0  0
 24 65  1  0  0  0  0
 25 66  1  0  0  0  0
 25 67  1  0  0  0  0
 25 68  1  0  0  0  0
 26 27  1  0  0  0  0
 26 31  2  0  0  0  0
 27 32  2  0  0  0  0
 28 70  1  0  0  0  0
 28 71  1  0  0  0  0
 28 72  1  0  0  0  0
 29 73  1  0  0  0  0
 29 74  1  0  0  0  0
 29 75  1  0  0  0  0
 30 76  1  0  0  0  0
 30 77  1  0  0  0  0
 30 78  1  0  0  0  0
 31 33  1  0  0  0  0
 31 79  1  0  0  0  0
 32 34  1  0  0  0  0
 32 80  1  0  0  0  0
 33 34  2  0  0  0  0
 33 81  1  0  0  0  0
 34 82  1  0  0  0  0
M  END
> <PUBCHEM_COMPOUND_CID>
11953813

> <PUBCHEM_COMPOUND_CANONICALIZED>
1

> <PUBCHEM_CACTVS_COMPLEXITY>
678

> <PUBCHEM_CACTVS_HBOND_ACCEPTOR>
3

> <PUBCHEM_CACTVS_HBOND_DONOR>
1

> <PUBCHEM_CACTVS_ROTATABLE_BOND>
14

> <PUBCHEM_CACTVS_SUBSKEYS>
AAADcfB4MAAAAAAAAAAAAAAAAAAAAAAAAAAwYAAAAAAAAADBAAAAGgAACAAADUSAmAAyAIAAAgCIAqBSAAICAAAkAAAIiAFAAMgIIDaAFRCAYQAk4AEIiYeJzPDOgAAAAAAQAADAAAYAADAAAAAAAAAAAA==

> <PUBCHEM_IUPAC_OPENEYE_NAME>
2-hydroxy-2-methyl-3-[(E,7R,11R)-3,7,11,15-tetramethylhexadec-2-enyl]tetralin-1,4-dione

> <PUBCHEM_IUPAC_CAS_NAME>
3-hydroxy-3-methyl-2-[(E,7R,11R)-3,7,11,15-tetramethylhexadec-2-enyl]-2H-naphthalene-1,4-dione

> <PUBCHEM_IUPAC_NAME>
3-hydroxy-3-methyl-2-[(E,7R,11R)-3,7,11,15-tetramethylhexadec-2-enyl]-2H-naphthalene-1,4-dione

> <PUBCHEM_IUPAC_SYSTEMATIC_NAME>
3-methyl-3-oxidanyl-2-[(E,7R,11R)-3,7,11,15-tetramethylhexadec-2-enyl]-2H-naphthalene-1,4-dione

> <PUBCHEM_IUPAC_TRADITIONAL_NAME>
2-hydroxy-2-methyl-3-[(E,7R,11R)-3,7,11,15-tetramethylhexadec-2-enyl]tetralin-1,4-quinone

> <PUBCHEM_IUPAC_INCHI>
InChI=1S/C31H48O3/c1-22(2)12-9-13-23(3)14-10-15-24(4)16-11-17-25(5)20-21-28-29(32)26-18-7-8-19-27(26)30(33)31(28,6)34/h7-8,18-20,22-24,28,34H,9-17,21H2,1-6H3/b25-20+/t23-,24-,28?,31?/m1/s1

> <PUBCHEM_IUPAC_INCHIKEY>
IGFQNNFYQDCUDR-HXAIZWIWSA-N

> <PUBCHEM_XLOGP3_AA>
9.9

> <PUBCHEM_EXACT_MASS>
468.360345

> <PUBCHEM_MOLECULAR_FORMULA>
C31H48O3

> <PUBCHEM_MOLECULAR_WEIGHT>
468.71102

> <PUBCHEM_OPENEYE_CAN_SMILES>
CC(C)CCCC(C)CCCC(C)CCCC(=CCC1C(=O)C2=CC=CC=C2C(=O)C1(C)O)C

> <PUBCHEM_OPENEYE_ISO_SMILES>
C[C@@H](CCC[C@@H](C)CCC/C(=C/CC1C(=O)C2=CC=CC=C2C(=O)C1(C)O)/C)CCCC(C)C

> <PUBCHEM_CACTVS_TPSA>
54.4

> <PUBCHEM_MONOISOTOPIC_WEIGHT>
468.360345

> <PUBCHEM_TOTAL_CHARGE>
0

> <PUBCHEM_HEAVY_ATOM_COUNT>
34

> <PUBCHEM_ATOM_DEF_STEREO_COUNT>
2

> <PUBCHEM_ATOM_UDEF_STEREO_COUNT>
2

> <PUBCHEM_BOND_DEF_STEREO_COUNT>
1

> <PUBCHEM_BOND_UDEF_STEREO_COUNT>
0

> <PUBCHEM_ISOTOPIC_ATOM_COUNT>
0

> <PUBCHEM_COMPONENT_COUNT>
1

> <PUBCHEM_CACTVS_TAUTO_COUNT>
2

> <PUBCHEM_COORDINATE_TYPE>
1
5
255

> <PUBCHEM_BONDANNOTATIONS>
12  1  3
10  15  3
26  27  8
26  31  8
27  32  8
31  33  8
32  34  8
33  34  8
4  16  6
5  18  6

$$$$

