25137910
  -OEChem-07051213112D

 40 42  0     1  0  0  0  0  0999 V2000
    2.3784   -0.9093    0.0000 O   0  0  0  0  0  0  0  0  0  0  0  0
    4.9557   -0.7554    0.0000 C   0  0  1  0  0  0  0  0  0  0  0  0
    5.4557    1.4352    0.0000 C   0  0  1  0  0  0  0  0  0  0  0  0
    4.8488    0.4214    0.0000 C   0  0  0  0  0  0  0  0  0  0  0  0
    4.8197   -1.7401    0.0000 C   0  0  2  0  0  0  0  0  0  0  0  0
    5.8566   -0.3215    0.0000 C   0  0  0  0  0  0  0  0  0  0  0  0
    4.0547   -0.3215    0.0000 C   0  0  0  0  0  0  0  0  0  0  0  0
    4.4557    1.4352    0.0000 C   0  0  0  0  0  0  0  0  0  0  0  0
    6.0792    0.6534    0.0000 C   0  0  0  0  0  0  0  0  0  0  0  0
    3.8322    0.6534    0.0000 C   0  0  0  0  0  0  0  0  0  0  0  0
    3.3696   -1.0418    0.0000 C   0  0  2  0  0  0  0  0  0  0  0  0
    3.8414   -1.9168    0.0000 C   0  0  0  0  0  0  0  0  0  0  0  0
    5.5413   -2.4324    0.0000 C   0  0  0  0  0  0  0  0  0  0  0  0
    3.6294    1.9986    0.0000 C   0  0  0  0  0  0  0  0  0  0  0  0
    4.5304    2.4324    0.0000 C   0  0  0  0  0  0  0  0  0  0  0  0
    2.8573    0.8759    0.0000 C   0  0  0  0  0  0  0  0  0  0  0  0
    5.6448    2.2639    0.0000 H   0  0  0  0  0  0  0  0  0  0  0  0
    4.4410    0.8884    0.0000 H   0  0  0  0  0  0  0  0  0  0  0  0
    4.2788    0.1775    0.0000 H   0  0  0  0  0  0  0  0  0  0  0  0
    4.6406   -2.3337    0.0000 H   0  0  0  0  0  0  0  0  0  0  0  0
    5.9946   -0.9260    0.0000 H   0  0  0  0  0  0  0  0  0  0  0  0
    6.4766   -0.3215    0.0000 H   0  0  0  0  0  0  0  0  0  0  0  0
    6.6378    0.3844    0.0000 H   0  0  0  0  0  0  0  0  0  0  0  0
    6.4657    1.1382    0.0000 H   0  0  0  0  0  0  0  0  0  0  0  0
    3.0172   -1.5519    0.0000 H   0  0  0  0  0  0  0  0  0  0  0  0
    3.2678   -2.1521    0.0000 H   0  0  0  0  0  0  0  0  0  0  0  0
    4.0151   -2.5120    0.0000 H   0  0  0  0  0  0  0  0  0  0  0  0
    5.1120   -2.8798    0.0000 H   0  0  0  0  0  0  0  0  0  0  0  0
    5.9887   -2.8617    0.0000 H   0  0  0  0  0  0  0  0  0  0  0  0
    5.9705   -1.9851    0.0000 H   0  0  0  0  0  0  0  0  0  0  0  0
    5.1487    2.3861    0.0000 H   0  0  0  0  0  0  0  0  0  0  0  0
    4.5767    3.0507    0.0000 H   0  0  0  0  0  0  0  0  0  0  0  0
    3.9121    2.4788    0.0000 H   0  0  0  0  0  0  0  0  0  0  0  0
    3.9787    2.5108    0.0000 H   0  0  0  0  0  0  0  0  0  0  0  0
    3.1172    2.3478    0.0000 H   0  0  0  0  0  0  0  0  0  0  0  0
    3.2802    1.4863    0.0000 H   0  0  0  0  0  0  0  0  0  0  0  0
    2.9952    1.4804    0.0000 H   0  0  0  0  0  0  0  0  0  0  0  0
    2.2528    1.0139    0.0000 H   0  0  0  0  0  0  0  0  0  0  0  0
    2.7193    0.2715    0.0000 H   0  0  0  0  0  0  0  0  0  0  0  0
    2.0000   -1.4004    0.0000 H   0  0  0  0  0  0  0  0  0  0  0  0
 11  1  1  6  0  0  0
  1 40  1  0  0  0  0
  2  4  1  6  0  0  0
  2  5  1  0  0  0  0
  2  6  1  0  0  0  0
  2  7  1  0  0  0  0
  3  4  1  0  0  0  0
  3  8  1  0  0  0  0
  3  9  1  0  0  0  0
  3 17  1  6  0  0  0
  4 18  1  0  0  0  0
  4 19  1  0  0  0  0
  5 12  1  0  0  0  0
  5 13  1  1  0  0  0
  5 20  1  0  0  0  0
  6  9  1  0  0  0  0
  6 21  1  0  0  0  0
  6 22  1  0  0  0  0
  7 10  2  0  0  0  0
  7 11  1  0  0  0  0
  8 10  1  0  0  0  0
  8 14  1  0  0  0  0
  8 15  1  0  0  0  0
  9 23  1  0  0  0  0
  9 24  1  0  0  0  0
 10 16  1  0  0  0  0
 11 12  1  0  0  0  0
 11 25  1  0  0  0  0
 12 26  1  0  0  0  0
 12 27  1  0  0  0  0
 13 28  1  0  0  0  0
 13 29  1  0  0  0  0
 13 30  1  0  0  0  0
 14 34  1  0  0  0  0
 14 35  1  0  0  0  0
 14 36  1  0  0  0  0
 15 31  1  0  0  0  0
 15 32  1  0  0  0  0
 15 33  1  0  0  0  0
 16 37  1  0  0  0  0
 16 38  1  0  0  0  0
 16 39  1  0  0  0  0
M  END
> <PUBCHEM_COMPOUND_CID>
25137910

> <PUBCHEM_COMPOUND_CANONICALIZED>
1

> <PUBCHEM_CACTVS_COMPLEXITY>
366

> <PUBCHEM_CACTVS_HBOND_ACCEPTOR>
1

> <PUBCHEM_CACTVS_HBOND_DONOR>
1

> <PUBCHEM_CACTVS_ROTATABLE_BOND>
0

> <PUBCHEM_CACTVS_SUBSKEYS>
AAADceBwIAAAAAAAAAAAAAAAAAAAAYMAAAAgAAAABAAAAECAAAAAGgAACAAADxSggAICAAAAAgCAAgBAAAAAAAAgAAAACAAAAAgAFAIAAAAAUAAEgAAIEAOAwPAPgAAAAAAAAAAAAAAAAAAAAYAACAAAAA==

> <PUBCHEM_IUPAC_INCHI>
InChI=1S/C15H24O/c1-9-7-12(16)13-10(2)14(3,4)11-5-6-15(9,13)8-11/h9,11-12,16H,5-8H2,1-4H3/t9-,11-,12-,15+/m0/s1

> <PUBCHEM_IUPAC_INCHIKEY>
ZRRTYQUKAJCICD-AVNXNWIJSA-N

> <PUBCHEM_XLOGP3_AA>
3.3

> <PUBCHEM_EXACT_MASS>
220.182715

> <PUBCHEM_MOLECULAR_FORMULA>
C15H24O

> <PUBCHEM_MOLECULAR_WEIGHT>
220.35046

> <PUBCHEM_OPENEYE_CAN_SMILES>
CC1CC(C2=C(C(C3CCC12C3)(C)C)C)O

> <PUBCHEM_OPENEYE_ISO_SMILES>
C[C@H]1C[C@@H](C2=C(C([C@H]3CC[C@@]12C3)(C)C)C)O

> <PUBCHEM_CACTVS_TPSA>
20.2

> <PUBCHEM_MONOISOTOPIC_WEIGHT>
220.182715

> <PUBCHEM_TOTAL_CHARGE>
0

> <PUBCHEM_HEAVY_ATOM_COUNT>
16

> <PUBCHEM_ATOM_DEF_STEREO_COUNT>
4

> <PUBCHEM_ATOM_UDEF_STEREO_COUNT>
0

> <PUBCHEM_BOND_DEF_STEREO_COUNT>
0

> <PUBCHEM_BOND_UDEF_STEREO_COUNT>
0

> <PUBCHEM_ISOTOPIC_ATOM_COUNT>
0

> <PUBCHEM_COMPONENT_COUNT>
1

> <PUBCHEM_CACTVS_TAUTO_COUNT>
1

> <PUBCHEM_COORDINATE_TYPE>
1
5
255

> <PUBCHEM_BONDANNOTATIONS>
11  1  6
2  4  6
3  17  6
5  13  5

$$$$

