440171
  -OEChem-07051212493D

 16 16  0     1  0  0  0  0  0999 V2000
    1.4071   -0.2962   -0.0233 P   0  0  1  0  0  0  0  0  0  0  0  0
   -0.1478   -0.7747    0.0393 O   0  0  0  0  0  0  0  0  0  0  0  0
    1.1320    1.2629   -0.4034 O   0  0  0  0  0  0  0  0  0  0  0  0
    1.8443   -0.2424    1.5315 O   0  0  0  0  0  0  0  0  0  0  0  0
   -2.9826   -0.9876   -0.0572 O   0  0  0  0  0  0  0  0  0  0  0  0
    2.3075   -1.0629   -0.9421 O   0  0  0  0  0  0  0  0  0  0  0  0
   -0.9987    0.3010   -0.3906 C   0  0  2  0  0  0  0  0  0  0  0  0
   -0.2246    1.5782   -0.0667 C   0  0  0  0  0  0  0  0  0  0  0  0
   -2.3372    0.2216    0.3127 C   0  0  0  0  0  0  0  0  0  0  0  0
   -1.1151    0.1811   -1.4738 H   0  0  0  0  0  0  0  0  0  0  0  0
   -0.5699    2.4334   -0.6532 H   0  0  0  0  0  0  0  0  0  0  0  0
   -0.2571    1.8252    0.9993 H   0  0  0  0  0  0  0  0  0  0  0  0
   -2.9791    1.0624    0.0322 H   0  0  0  0  0  0  0  0  0  0  0  0
   -2.2088    0.2093    1.3999 H   0  0  0  0  0  0  0  0  0  0  0  0
    1.9631   -1.0841    2.0209 H   0  0  0  0  0  0  0  0  0  0  0  0
   -3.8363   -1.0098    0.4078 H   0  0  0  0  0  0  0  0  0  0  0  0
  1  2  1  0  0  0  0
  1  3  1  0  0  0  0
  1  4  1  0  0  0  0
  1  6  2  0  0  0  0
  2  7  1  0  0  0  0
  3  8  1  0  0  0  0
  4 15  1  0  0  0  0
  5  9  1  0  0  0  0
  5 16  1  0  0  0  0
  7  8  1  0  0  0  0
  7  9  1  0  0  0  0
  7 10  1  0  0  0  0
  8 11  1  0  0  0  0
  8 12  1  0  0  0  0
  9 13  1  0  0  0  0
  9 14  1  0  0  0  0
M  END
> <PUBCHEM_COMPOUND_CID>
440171

> <PUBCHEM_CONFORMER_RMSD>
0.4

> <PUBCHEM_CONFORMER_DIVERSEORDER>
1
6
7
2
8
4
3
5

> <PUBCHEM_MMFF94_PARTIAL_CHARGES>
11
1 1.51
15 0.5
16 0.4
2 -0.55
3 -0.55
4 -0.77
5 -0.68
6 -0.7
7 0.28
8 0.28
9 0.28

> <PUBCHEM_EFFECTIVE_ROTOR_COUNT>
1.8

> <PUBCHEM_PHARMACOPHORE_FEATURES>
5
1 4 acceptor
1 5 acceptor
1 5 donor
1 6 acceptor
5 1 2 3 7 8 rings

> <PUBCHEM_HEAVY_ATOM_COUNT>
9

> <PUBCHEM_ATOM_DEF_STEREO_COUNT>
0

> <PUBCHEM_ATOM_UDEF_STEREO_COUNT>
1

> <PUBCHEM_BOND_DEF_STEREO_COUNT>
0

> <PUBCHEM_BOND_UDEF_STEREO_COUNT>
0

> <PUBCHEM_ISOTOPIC_ATOM_COUNT>
0

> <PUBCHEM_COMPONENT_COUNT>
1

> <PUBCHEM_CACTVS_TAUTO_COUNT>
1

> <PUBCHEM_CONFORMER_ID>
0006B76B00000001

> <PUBCHEM_MMFF94_ENERGY>
2.4481

> <PUBCHEM_FEATURE_SELFOVERLAP>
25.381

> <PUBCHEM_SHAPE_FINGERPRINT>
10857977 72 18336557070135735459
12932764 1 17632578245293726959
14128692 85 18339347626251914941
20653091 64 18200873968029907641
21040471 1 18051971420369346733
23552423 10 18272360997031663037
23552449 11 18271817765478962321
29004967 10 18334860523583346137
5084963 1 18114174263565143051

> <PUBCHEM_SHAPE_MULTIPOLES>
159.72
3.46
1.32
0.92
1.47
0.39
-0.25
-1.35
-0.06
0
0.16
-0.56
-0.1
0.07

> <PUBCHEM_SHAPE_SELFOVERLAP>
299.378

> <PUBCHEM_SHAPE_VOLUME>
100.1

> <PUBCHEM_COORDINATE_TYPE>
2
5
10

$$$$

