8322
  -OEChem-06261202443D

 27 29  0     0  0  0  0  0  0999 V2000
    3.2427    2.4640    0.0004 Cl  0  0  0  0  0  0  0  0  0  0  0  0
   -0.2957   -2.8226   -0.0011 O   0  0  0  0  0  0  0  0  0  0  0  0
   -1.9802    2.9593    0.0000 O   0  0  0  0  0  0  0  0  0  0  0  0
    0.5042    2.4592   -0.0005 O   0  0  0  0  0  0  0  0  0  0  0  0
   -2.8894   -2.5317    0.0004 N   0  0  0  0  0  0  0  0  0  0  0  0
   -1.2686   -0.6615   -0.0002 C   0  0  0  0  0  0  0  0  0  0  0  0
   -1.0406    0.7161   -0.0004 C   0  0  0  0  0  0  0  0  0  0  0  0
    1.2432   -1.0773   -0.0003 C   0  0  0  0  0  0  0  0  0  0  0  0
    1.4713    0.3004   -0.0003 C   0  0  0  0  0  0  0  0  0  0  0  0
   -0.1351   -1.6086    0.0000 C   0  0  0  0  0  0  0  0  0  0  0  0
    0.3377    1.2475   -0.0007 C   0  0  0  0  0  0  0  0  0  0  0  0
   -2.5799   -1.1522    0.0004 C   0  0  0  0  0  0  0  0  0  0  0  0
   -2.1238    1.6032   -0.0002 C   0  0  0  0  0  0  0  0  0  0  0  0
    2.3264   -1.9644   -0.0001 C   0  0  0  0  0  0  0  0  0  0  0  0
    2.7826    0.7910    0.0003 C   0  0  0  0  0  0  0  0  0  0  0  0
   -3.6564   -0.2648    0.0008 C   0  0  0  0  0  0  0  0  0  0  0  0
   -3.4288    1.1101    0.0005 C   0  0  0  0  0  0  0  0  0  0  0  0
    3.6314   -1.4713    0.0005 C   0  0  0  0  0  0  0  0  0  0  0  0
    3.8591   -0.0965    0.0007 C   0  0  0  0  0  0  0  0  0  0  0  0
    2.1782   -3.0409    0.0000 H   0  0  0  0  0  0  0  0  0  0  0  0
   -4.6808   -0.6296    0.0012 H   0  0  0  0  0  0  0  0  0  0  0  0
   -4.2818    1.7839    0.0008 H   0  0  0  0  0  0  0  0  0  0  0  0
    4.4711   -2.1603    0.0008 H   0  0  0  0  0  0  0  0  0  0  0  0
    4.8864    0.2606    0.0011 H   0  0  0  0  0  0  0  0  0  0  0  0
   -2.1565   -3.2267    0.0006 H   0  0  0  0  0  0  0  0  0  0  0  0
   -3.8556   -2.8314    0.0016 H   0  0  0  0  0  0  0  0  0  0  0  0
   -2.8559    3.3820    0.0002 H   0  0  0  0  0  0  0  0  0  0  0  0
  1 15  1  0  0  0  0
  2 10  2  0  0  0  0
  3 13  1  0  0  0  0
  3 27  1  0  0  0  0
  4 11  2  0  0  0  0
  5 12  1  0  0  0  0
  5 25  1  0  0  0  0
  5 26  1  0  0  0  0
  6  7  1  0  0  0  0
  6 10  1  0  0  0  0
  6 12  2  0  0  0  0
  7 11  1  0  0  0  0
  7 13  2  0  0  0  0
  8  9  2  0  0  0  0
  8 10  1  0  0  0  0
  8 14  1  0  0  0  0
  9 11  1  0  0  0  0
  9 15  1  0  0  0  0
 12 16  1  0  0  0  0
 13 17  1  0  0  0  0
 14 18  2  0  0  0  0
 14 20  1  0  0  0  0
 15 19  2  0  0  0  0
 16 17  2  0  0  0  0
 16 21  1  0  0  0  0
 17 22  1  0  0  0  0
 18 19  1  0  0  0  0
 18 23  1  0  0  0  0
 19 24  1  0  0  0  0
M  END
> <PUBCHEM_COMPOUND_CID>
8322

> <PUBCHEM_CONFORMER_RMSD>
0.4

> <PUBCHEM_CONFORMER_DIVERSEORDER>
1

> <PUBCHEM_MMFF94_PARTIAL_CHARGES>
27
1 -0.18
10 0.4
11 0.4
12 0.1
13 0.08
14 -0.15
15 0.18
16 -0.15
17 -0.15
18 -0.15
19 -0.15
2 -0.57
20 0.15
21 0.15
22 0.15
23 0.15
24 0.15
25 0.4
26 0.4
27 0.45
3 -0.53
4 -0.57
5 -0.9
6 0.09
7 0.09
8 0.09
9 0.09

> <PUBCHEM_EFFECTIVE_ROTOR_COUNT>
0

> <PUBCHEM_PHARMACOPHORE_FEATURES>
8
1 2 acceptor
1 3 donor
1 4 acceptor
1 5 cation
1 5 donor
6 6 7 12 13 16 17 rings
6 6 7 8 9 10 11 rings
6 8 9 14 15 18 19 rings

> <PUBCHEM_HEAVY_ATOM_COUNT>
19

> <PUBCHEM_ATOM_DEF_STEREO_COUNT>
0

> <PUBCHEM_ATOM_UDEF_STEREO_COUNT>
0

> <PUBCHEM_BOND_DEF_STEREO_COUNT>
0

> <PUBCHEM_BOND_UDEF_STEREO_COUNT>
0

> <PUBCHEM_ISOTOPIC_ATOM_COUNT>
0

> <PUBCHEM_COMPONENT_COUNT>
1

> <PUBCHEM_CACTVS_TAUTO_COUNT>
12

> <PUBCHEM_CONFORMER_ID>
0000208200000001

> <PUBCHEM_MMFF94_ENERGY>
75.4263

> <PUBCHEM_FEATURE_SELFOVERLAP>
40.637

> <PUBCHEM_SHAPE_FINGERPRINT>
10411042 1 16105012086950302882
10608611 8 18410295821789886416
10616163 171 18409445864883939526
10863032 1 18409729543051999500
10967382 1 18122344571083015173
1100329 8 16465300760432910819
11132069 177 18410299133146231866
11578080 2 17345217617099371276
12553582 1 18121780530250397591
13140716 1 18410853299764887067
13221675 6 18411138073287225043
13583140 156 17060063695682796993
138480 1 16609417035663168995
14223421 5 18410292480262943760
14790565 3 16037438313946133641
15196674 1 18410855434374195271
15442244 35 18339363084176927066
15536298 74 18334858312097175304
16945 1 18194402190906564646
17492 89 18411419492599016962
17804303 29 18337385040951230324
18186145 218 18188483683292048552
193761 8 18266740177658003430
19591789 44 17617653701680326398
20510252 161 18334854970174918945
20905425 154 18263638476983825940
21267235 1 18410565206249295843
21501502 16 18410292488715734752
221490 88 18411973638153623034
2334 1 18410575080415597382
23366157 5 18131350804787707624
23402539 116 18335149704032391222
23463225 33 18412544348885808982
23559900 14 18335144215443780496
238 59 16978751666961507653
2748010 2 18410856585451817478
335352 9 17906452482272405118
350125 39 18411414042226846392
5104073 3 18410855438690262547
7097593 13 17842011158389616482
7364860 26 18408040698088297428
7832392 63 18266179620238749354
8809292 202 18343016696670107779
9709674 26 18335980951813052406
9981440 41 17838618860502238056

> <PUBCHEM_SHAPE_MULTIPOLES>
370.29
6.42
3.15
0.6
0.8
0.38
0
0.16
0
-0.1
0
0.03
0
0

> <PUBCHEM_SHAPE_SELFOVERLAP>
832.819

> <PUBCHEM_SHAPE_VOLUME>
194.7

> <PUBCHEM_COORDINATE_TYPE>
2
5
10

$$$$

