17733
  -OEChem-07051213052D

 31 33  0     0  0  0  0  0  0999 V2000
    6.6498    1.3742    0.0000 O   0  0  0  0  0  0  0  0  0  0  0  0
    8.3987   -1.8302    0.0000 O   0  0  0  0  0  0  0  0  0  0  0  0
    8.0321   -0.1373    0.0000 N   0  0  0  0  0  0  0  0  0  0  0  0
    5.3364    0.1874    0.0000 C   0  0  0  0  0  0  0  0  0  0  0  0
    4.5274    0.7752    0.0000 C   0  0  0  0  0  0  0  0  0  0  0  0
    5.0274   -0.7636    0.0000 C   0  0  0  0  0  0  0  0  0  0  0  0
    3.7183    0.1874    0.0000 C   0  0  0  0  0  0  0  0  0  0  0  0
    4.0274   -0.7636    0.0000 C   0  0  0  0  0  0  0  0  0  0  0  0
    6.3518    0.4197    0.0000 C   0  0  0  0  0  0  0  0  0  0  0  0
    5.7123   -1.5484    0.0000 C   0  0  0  0  0  0  0  0  0  0  0  0
    7.0547   -0.3490    0.0000 C   0  0  0  0  0  0  0  0  0  0  0  0
    2.7029    0.4197    0.0000 C   0  0  0  0  0  0  0  0  0  0  0  0
    3.3424   -1.5484    0.0000 C   0  0  0  0  0  0  0  0  0  0  0  0
    6.7328   -1.3397    0.0000 C   0  0  0  0  0  0  0  0  0  0  0  0
    2.0000   -0.3490    0.0000 C   0  0  0  0  0  0  0  0  0  0  0  0
    2.3219   -1.3397    0.0000 C   0  0  0  0  0  0  0  0  0  0  0  0
    8.7040   -0.8779    0.0000 C   0  0  0  0  0  0  0  0  0  0  0  0
    9.6814   -0.6662    0.0000 C   0  0  0  0  0  0  0  0  0  0  0  0
    4.9422    1.2359    0.0000 H   0  0  0  0  0  0  0  0  0  0  0  0
    4.1125    1.2359    0.0000 H   0  0  0  0  0  0  0  0  0  0  0  0
    5.5139   -2.1358    0.0000 H   0  0  0  0  0  0  0  0  0  0  0  0
    2.5182    1.0115    0.0000 H   0  0  0  0  0  0  0  0  0  0  0  0
    3.5408   -2.1358    0.0000 H   0  0  0  0  0  0  0  0  0  0  0  0
    7.1459   -1.8020    0.0000 H   0  0  0  0  0  0  0  0  0  0  0  0
    1.3940   -0.2178    0.0000 H   0  0  0  0  0  0  0  0  0  0  0  0
    1.9088   -1.8020    0.0000 H   0  0  0  0  0  0  0  0  0  0  0  0
    8.2214    0.4530    0.0000 H   0  0  0  0  0  0  0  0  0  0  0  0
    6.2296    1.8302    0.0000 H   0  0  0  0  0  0  0  0  0  0  0  0
    9.8126   -1.2722    0.0000 H   0  0  0  0  0  0  0  0  0  0  0  0
   10.2873   -0.5350    0.0000 H   0  0  0  0  0  0  0  0  0  0  0  0
    9.5502   -0.0603    0.0000 H   0  0  0  0  0  0  0  0  0  0  0  0
  1  9  1  0  0  0  0
  1 28  1  0  0  0  0
  2 17  2  0  0  0  0
  3 11  1  0  0  0  0
  3 17  1  0  0  0  0
  3 27  1  0  0  0  0
  4  5  1  0  0  0  0
  4  6  2  0  0  0  0
  4  9  1  0  0  0  0
  5  7  1  0  0  0  0
  5 19  1  0  0  0  0
  5 20  1  0  0  0  0
  6  8  1  0  0  0  0
  6 10  1  0  0  0  0
  7  8  1  0  0  0  0
  7 12  2  0  0  0  0
  8 13  2  0  0  0  0
  9 11  2  0  0  0  0
 10 14  2  0  0  0  0
 10 21  1  0  0  0  0
 11 14  1  0  0  0  0
 12 15  1  0  0  0  0
 12 22  1  0  0  0  0
 13 16  1  0  0  0  0
 13 23  1  0  0  0  0
 14 24  1  0  0  0  0
 15 16  2  0  0  0  0
 15 25  1  0  0  0  0
 16 26  1  0  0  0  0
 17 18  1  0  0  0  0
 18 29  1  0  0  0  0
 18 30  1  0  0  0  0
 18 31  1  0  0  0  0
M  END
> <PUBCHEM_COMPOUND_CID>
17733

> <PUBCHEM_COMPOUND_CANONICALIZED>
1

> <PUBCHEM_CACTVS_COMPLEXITY>
331

> <PUBCHEM_CACTVS_HBOND_ACCEPTOR>
2

> <PUBCHEM_CACTVS_HBOND_DONOR>
2

> <PUBCHEM_CACTVS_ROTATABLE_BOND>
1

> <PUBCHEM_CACTVS_SUBSKEYS>
AAADccByMAAAAAAAAAAAAAAAAAAAAYAAAAAwYAAAAAAAAGABQAAAHgAQCAAADAyBmAAyxoLAAgCIAiVSUACCAAAhIgAIiAAFbIgKJiLSkZOEcAhk1BHY2AeQwPAOiAABQAAYEAAQAAKAADAgAQAACAAAAA==

> <PUBCHEM_IUPAC_OPENEYE_NAME>
N-(1-hydroxy-9H-fluoren-2-yl)acetamide

> <PUBCHEM_IUPAC_CAS_NAME>
N-(1-hydroxy-9H-fluoren-2-yl)acetamide

> <PUBCHEM_IUPAC_NAME>
N-(1-hydroxy-9H-fluoren-2-yl)acetamide

> <PUBCHEM_IUPAC_SYSTEMATIC_NAME>
N-(1-oxidanyl-9H-fluoren-2-yl)ethanamide

> <PUBCHEM_IUPAC_TRADITIONAL_NAME>
N-(1-hydroxy-9H-fluoren-2-yl)acetamide

> <PUBCHEM_IUPAC_INCHI>
InChI=1S/C15H13NO2/c1-9(17)16-14-7-6-12-11-5-3-2-4-10(11)8-13(12)15(14)18/h2-7,18H,8H2,1H3,(H,16,17)

> <PUBCHEM_IUPAC_INCHIKEY>
IQPIBKBOFOVHBP-UHFFFAOYSA-N

> <PUBCHEM_XLOGP3_AA>
2.4

> <PUBCHEM_EXACT_MASS>
239.094629

> <PUBCHEM_MOLECULAR_FORMULA>
C15H13NO2

> <PUBCHEM_MOLECULAR_WEIGHT>
239.26922

> <PUBCHEM_OPENEYE_CAN_SMILES>
CC(=O)NC1=C(C2=C(C=C1)C3=CC=CC=C3C2)O

> <PUBCHEM_OPENEYE_ISO_SMILES>
CC(=O)NC1=C(C2=C(C=C1)C3=CC=CC=C3C2)O

> <PUBCHEM_CACTVS_TPSA>
49.3

> <PUBCHEM_MONOISOTOPIC_WEIGHT>
239.094629

> <PUBCHEM_TOTAL_CHARGE>
0

> <PUBCHEM_HEAVY_ATOM_COUNT>
18

> <PUBCHEM_ATOM_DEF_STEREO_COUNT>
0

> <PUBCHEM_ATOM_UDEF_STEREO_COUNT>
0

> <PUBCHEM_BOND_DEF_STEREO_COUNT>
0

> <PUBCHEM_BOND_UDEF_STEREO_COUNT>
0

> <PUBCHEM_ISOTOPIC_ATOM_COUNT>
0

> <PUBCHEM_COMPONENT_COUNT>
1

> <PUBCHEM_CACTVS_TAUTO_COUNT>
6

> <PUBCHEM_COORDINATE_TYPE>
1
5
255

> <PUBCHEM_BONDANNOTATIONS>
10  14  8
11  14  8
12  15  8
13  16  8
15  16  8
4  6  8
4  9  8
6  10  8
7  12  8
7  8  8
8  13  8
9  11  8

$$$$

