360637
  -OEChem-07051212513D

 17 16  0     1  0  0  0  0  0999 V2000
    1.3650   -0.6280    0.3654 P   0  0  1  0  0  0  0  0  0  0  0  0
   -0.2302   -0.6325    0.6554 O   0  0  0  0  0  0  0  0  0  0  0  0
    1.9951   -0.6185    1.8604 O   0  0  0  0  0  0  0  0  0  0  0  0
    1.8341   -1.7931   -0.4620 O   0  0  0  0  0  0  0  0  0  0  0  0
    1.3425    2.0633    0.3267 O   0  0  0  0  0  0  0  0  0  0  0  0
    2.3196    0.9790   -1.4215 O   0  0  0  0  0  0  0  0  0  0  0  0
   -2.4375    0.4941    1.4285 O   0  0  0  0  0  0  0  0  0  0  0  0
   -3.3685    0.3721   -0.6405 O   0  0  0  0  0  0  0  0  0  0  0  0
    1.7335    0.9553   -0.3493 C   0  0  0  0  0  0  0  0  0  0  0  0
   -1.1668   -0.4764   -0.3102 C   0  0  0  0  0  0  0  0  0  0  0  0
   -2.4315    0.1650    0.1174 C   0  0  0  0  0  0  0  0  0  0  0  0
   -0.9551   -0.8804   -1.5704 C   0  0  0  0  0  0  0  0  0  0  0  0
    1.9573   -1.4410    2.3936 H   0  0  0  0  0  0  0  0  0  0  0  0
   -0.0456   -1.3599   -1.9032 H   0  0  0  0  0  0  0  0  0  0  0  0
   -1.7178   -0.7458   -2.3318 H   0  0  0  0  0  0  0  0  0  0  0  0
    1.5872    2.8866   -0.1470 H   0  0  0  0  0  0  0  0  0  0  0  0
   -3.2804    0.9177    1.6978 H   0  0  0  0  0  0  0  0  0  0  0  0
  1  2  1  0  0  0  0
  1  3  1  0  0  0  0
  1  4  2  0  0  0  0
  1  9  1  0  0  0  0
  2 10  1  0  0  0  0
  3 13  1  0  0  0  0
  5  9  1  0  0  0  0
  5 16  1  0  0  0  0
  6  9  2  0  0  0  0
  7 11  1  0  0  0  0
  7 17  1  0  0  0  0
  8 11  2  0  0  0  0
 10 11  1  0  0  0  0
 10 12  2  0  0  0  0
 12 14  1  0  0  0  0
 12 15  1  0  0  0  0
M  END
> <PUBCHEM_COMPOUND_CID>
360637

> <PUBCHEM_CONFORMER_RMSD>
0.6

> <PUBCHEM_CONFORMER_DIVERSEORDER>
1
28
30
2
25
39
21
9
11
44
29
18
33
13
10
7
32
46
37
4
19
17
45
36
3
12
31
38
8
43
16
22
40
42
15
34
27
5
24
6
35
20
14
23
26
41

> <PUBCHEM_MMFF94_PARTIAL_CHARGES>
17
1 1.35
10 0.09
11 0.71
12 -0.3
13 0.5
14 0.15
15 0.15
16 0.5
17 0.5
2 -0.35
3 -0.77
4 -0.7
5 -0.65
6 -0.57
7 -0.65
8 -0.57
9 0.61

> <PUBCHEM_EFFECTIVE_ROTOR_COUNT>
4

> <PUBCHEM_PHARMACOPHORE_FEATURES>
8
1 3 acceptor
1 4 acceptor
1 5 acceptor
1 6 acceptor
1 7 acceptor
1 8 acceptor
3 5 6 9 anion
3 7 8 11 anion

> <PUBCHEM_HEAVY_ATOM_COUNT>
12

> <PUBCHEM_ATOM_DEF_STEREO_COUNT>
0

> <PUBCHEM_ATOM_UDEF_STEREO_COUNT>
0

> <PUBCHEM_BOND_DEF_STEREO_COUNT>
0

> <PUBCHEM_BOND_UDEF_STEREO_COUNT>
0

> <PUBCHEM_ISOTOPIC_ATOM_COUNT>
0

> <PUBCHEM_COMPONENT_COUNT>
1

> <PUBCHEM_CACTVS_TAUTO_COUNT>
1

> <PUBCHEM_CONFORMER_ID>
000580BD00000001

> <PUBCHEM_MMFF94_ENERGY>
1.3183

> <PUBCHEM_FEATURE_SELFOVERLAP>
40.723

> <PUBCHEM_SHAPE_FINGERPRINT>
10857977 72 15410602658599771767
11031198 65 18270102544413850188
12326174 3 18131075965103232162
12932764 1 17418086650787142995
15775835 57 18339646633317081669
16945 1 18335130990648619425
17357990 137 17968081062608228969
230 275 17749395836163409984
3248919 1 18408890650493685371
5084963 1 18115028631524023747
8030462 33 17676205784151835311

> <PUBCHEM_SHAPE_MULTIPOLES>
209.72
4.12
1.49
1.44
2.31
0.08
0.11
-0.69
-0.38
-0.34
-0.17
-0.92
-0.17
-0.62

> <PUBCHEM_SHAPE_SELFOVERLAP>
398.413

> <PUBCHEM_SHAPE_VOLUME>
128.8

> <PUBCHEM_COORDINATE_TYPE>
2
5
10

$$$$

