442246
  -OEChem-07051212573D

 54 57  0     1  0  0  0  0  0999 V2000
   -3.3551   -0.2635   -1.1219 O   0  0  0  0  0  0  0  0  0  0  0  0
   -2.6556   -2.6401    0.1048 O   0  0  0  0  0  0  0  0  0  0  0  0
    2.5810    0.2216    1.5618 O   0  0  0  0  0  0  0  0  0  0  0  0
   -0.4365   -2.5917    1.7697 O   0  0  0  0  0  0  0  0  0  0  0  0
    4.5799   -0.6093   -0.0499 O   0  0  0  0  0  0  0  0  0  0  0  0
   -2.1867    1.9122    0.8500 N   0  0  1  0  0  0  0  0  0  0  0  0
   -0.1225    0.7952    0.6203 C   0  0  1  0  0  0  0  0  0  0  0  0
   -1.5063    0.9971   -0.1002 C   0  0  2  0  0  0  0  0  0  0  0  0
    0.1613    2.1991    1.2029 C   0  0  0  0  0  0  0  0  0  0  0  0
   -1.2710    1.6412   -1.4956 C   0  0  0  0  0  0  0  0  0  0  0  0
   -1.1983    2.8756    1.3420 C   0  0  0  0  0  0  0  0  0  0  0  0
   -0.2893   -0.2009    1.8006 C   0  0  0  0  0  0  0  0  0  0  0  0
    1.0335    0.3907   -0.3049 C   0  0  0  0  0  0  0  0  0  0  0  0
   -2.2798   -0.3197   -0.2453 C   0  0  0  0  0  0  0  0  0  0  0  0
   -0.3989    0.7560   -2.3814 C   0  0  0  0  0  0  0  0  0  0  0  0
    0.8892    0.3721   -1.7063 C   0  0  0  0  0  0  0  0  0  0  0  0
   -0.8388   -1.5199    1.3229 C   0  0  0  0  0  0  0  0  0  0  0  0
   -1.9552   -1.4783    0.3492 C   0  0  0  0  0  0  0  0  0  0  0  0
   -3.4013    2.5726    0.3949 C   0  0  0  0  0  0  0  0  0  0  0  0
    2.2968    0.0722    0.2330 C   0  0  0  0  0  0  0  0  0  0  0  0
    1.9646   -0.0304   -2.5183 C   0  0  0  0  0  0  0  0  0  0  0  0
    3.3621   -0.3103   -0.5839 C   0  0  0  0  0  0  0  0  0  0  0  0
    3.1930   -0.3718   -1.9601 C   0  0  0  0  0  0  0  0  0  0  0  0
   -4.5452   -0.6359   -0.4632 C   0  0  0  0  0  0  0  0  0  0  0  0
   -2.0931   -3.3478   -0.9836 C   0  0  0  0  0  0  0  0  0  0  0  0
    2.9646   -0.9508    2.2734 C   0  0  0  0  0  0  0  0  0  0  0  0
    5.5073    0.4650    0.0892 C   0  0  0  0  0  0  0  0  0  0  0  0
    0.7900    2.7978    0.5309 H   0  0  0  0  0  0  0  0  0  0  0  0
    0.6793    2.1527    2.1679 H   0  0  0  0  0  0  0  0  0  0  0  0
   -0.7854    2.6210   -1.3950 H   0  0  0  0  0  0  0  0  0  0  0  0
   -2.2176    1.8306   -2.0169 H   0  0  0  0  0  0  0  0  0  0  0  0
   -1.4044    3.1305    2.3870 H   0  0  0  0  0  0  0  0  0  0  0  0
   -1.1987    3.8074    0.7627 H   0  0  0  0  0  0  0  0  0  0  0  0
   -1.0243    0.1813    2.5238 H   0  0  0  0  0  0  0  0  0  0  0  0
    0.5924   -0.3763    2.4021 H   0  0  0  0  0  0  0  0  0  0  0  0
   -0.1817    1.3076   -3.3047 H   0  0  0  0  0  0  0  0  0  0  0  0
   -0.9332   -0.1567   -2.6698 H   0  0  0  0  0  0  0  0  0  0  0  0
   -4.1814    1.8696    0.1074 H   0  0  0  0  0  0  0  0  0  0  0  0
   -3.2232    3.2515   -0.4459 H   0  0  0  0  0  0  0  0  0  0  0  0
   -3.8253    3.1689    1.2116 H   0  0  0  0  0  0  0  0  0  0  0  0
    1.8488   -0.0674   -3.5992 H   0  0  0  0  0  0  0  0  0  0  0  0
    4.0139   -0.6702   -2.6061 H   0  0  0  0  0  0  0  0  0  0  0  0
   -4.5485   -0.4294    0.6145 H   0  0  0  0  0  0  0  0  0  0  0  0
   -4.7766   -1.6897   -0.6469 H   0  0  0  0  0  0  0  0  0  0  0  0
   -5.3643   -0.0585   -0.9055 H   0  0  0  0  0  0  0  0  0  0  0  0
   -2.1523   -2.7678   -1.9112 H   0  0  0  0  0  0  0  0  0  0  0  0
   -2.6685   -4.2675   -1.1254 H   0  0  0  0  0  0  0  0  0  0  0  0
   -1.0530   -3.6282   -0.7839 H   0  0  0  0  0  0  0  0  0  0  0  0
    2.5930   -0.8687    3.2995 H   0  0  0  0  0  0  0  0  0  0  0  0
    4.0543   -1.0191    2.3333 H   0  0  0  0  0  0  0  0  0  0  0  0
    2.5532   -1.8636    1.8280 H   0  0  0  0  0  0  0  0  0  0  0  0
    6.4130    0.0760    0.5624 H   0  0  0  0  0  0  0  0  0  0  0  0
    5.0945    1.2564    0.7227 H   0  0  0  0  0  0  0  0  0  0  0  0
    5.7723    0.8703   -0.8925 H   0  0  0  0  0  0  0  0  0  0  0  0
  1 14  1  0  0  0  0
  1 24  1  0  0  0  0
  2 18  1  0  0  0  0
  2 25  1  0  0  0  0
  3 20  1  0  0  0  0
  3 26  1  0  0  0  0
  4 17  2  0  0  0  0
  5 22  1  0  0  0  0
  5 27  1  0  0  0  0
  6  8  1  0  0  0  0
  6 11  1  0  0  0  0
  6 19  1  0  0  0  0
  7  8  1  0  0  0  0
  7  9  1  0  0  0  0
  7 12  1  0  0  0  0
  7 13  1  0  0  0  0
  8 10  1  0  0  0  0
  8 14  1  0  0  0  0
  9 11  1  0  0  0  0
  9 28  1  0  0  0  0
  9 29  1  0  0  0  0
 10 15  1  0  0  0  0
 10 30  1  0  0  0  0
 10 31  1  0  0  0  0
 11 32  1  0  0  0  0
 11 33  1  0  0  0  0
 12 17  1  0  0  0  0
 12 34  1  0  0  0  0
 12 35  1  0  0  0  0
 13 16  2  0  0  0  0
 13 20  1  0  0  0  0
 14 18  2  0  0  0  0
 15 16  1  0  0  0  0
 15 36  1  0  0  0  0
 15 37  1  0  0  0  0
 16 21  1  0  0  0  0
 17 18  1  0  0  0  0
 19 38  1  0  0  0  0
 19 39  1  0  0  0  0
 19 40  1  0  0  0  0
 20 22  2  0  0  0  0
 21 23  2  0  0  0  0
 21 41  1  0  0  0  0
 22 23  1  0  0  0  0
 23 42  1  0  0  0  0
 24 43  1  0  0  0  0
 24 44  1  0  0  0  0
 24 45  1  0  0  0  0
 25 46  1  0  0  0  0
 25 47  1  0  0  0  0
 25 48  1  0  0  0  0
 26 49  1  0  0  0  0
 26 50  1  0  0  0  0
 26 51  1  0  0  0  0
 27 52  1  0  0  0  0
 27 53  1  0  0  0  0
 27 54  1  0  0  0  0
M  END
> <PUBCHEM_COMPOUND_CID>
442246

> <PUBCHEM_CONFORMER_RMSD>
0.8

> <PUBCHEM_CONFORMER_DIVERSEORDER>
2
1
4
3

> <PUBCHEM_MMFF94_PARTIAL_CHARGES>
27
1 -0.36
11 0.27
12 0.06
13 -0.14
14 -0.06
15 0.14
16 -0.14
17 0.49
18 0.09
19 0.27
2 -0.36
20 0.08
21 -0.15
22 0.08
23 -0.15
24 0.28
25 0.28
26 0.28
27 0.28
3 -0.36
4 -0.57
41 0.15
42 0.15
5 -0.36
6 -0.81
7 0.14
8 0.41

> <PUBCHEM_EFFECTIVE_ROTOR_COUNT>
5.2

> <PUBCHEM_PHARMACOPHORE_FEATURES>
10
1 1 acceptor
1 2 acceptor
1 3 acceptor
1 4 acceptor
1 5 acceptor
1 6 cation
5 6 7 8 9 11 rings
6 13 16 20 21 22 23 rings
6 7 8 10 13 15 16 rings
6 7 8 12 14 17 18 rings

> <PUBCHEM_HEAVY_ATOM_COUNT>
27

> <PUBCHEM_ATOM_DEF_STEREO_COUNT>
2

> <PUBCHEM_ATOM_UDEF_STEREO_COUNT>
0

> <PUBCHEM_BOND_DEF_STEREO_COUNT>
0

> <PUBCHEM_BOND_UDEF_STEREO_COUNT>
0

> <PUBCHEM_ISOTOPIC_ATOM_COUNT>
0

> <PUBCHEM_COMPONENT_COUNT>
1

> <PUBCHEM_CACTVS_TAUTO_COUNT>
2

> <PUBCHEM_CONFORMER_ID>
0006BF8600000002

> <PUBCHEM_MMFF94_ENERGY>
122.6372

> <PUBCHEM_FEATURE_SELFOVERLAP>
51.195

> <PUBCHEM_SHAPE_FINGERPRINT>
10366900 7 17603304847510220566
10369192 42 12891640168562128686
10863032 1 17751918262093191693
10906281 52 17895737539971304729
10948715 1 17972592466149159837
11315181 36 18343298155358187372
11578080 2 17770766936578579549
11582403 64 16453259819803769856
11640471 11 17987786544508830544
12035759 4 17561082492606712407
12236239 1 17989204880154087449
12422481 6 17127623312416671169
12788726 201 18267561564636994645
13224815 77 16515673477543380028
133893 2 17048207859527233153
13583140 156 17676497181083482618
14468879 13 17241340195102926496
14787075 74 17908429048346012280
16752209 62 18413105082841847027
16945 1 18407755928697344099
18219364 16 16008753541335487956
20600515 1 18189599597379173245
23419403 2 17403508049535602549
23493267 7 18041565840182603824
23557571 272 18040151824984354696
23559900 14 18337114475761378128
3493558 16 15792275112216558217
35225 105 18338816592343128846
404807 78 13871571879423912078
469060 322 16951432952033518964
5845 1 15243402562278662249
81228 2 18042103479851772777
90525 40 17417535842215501230

> <PUBCHEM_SHAPE_MULTIPOLES>
521.32
6.92
2.78
2.26
5.66
0.52
0.43
0.78
0.56
-3.41
-0.82
1.21
0.19
-0.28

> <PUBCHEM_SHAPE_SELFOVERLAP>
1137.727

> <PUBCHEM_SHAPE_VOLUME>
282.9

> <PUBCHEM_COORDINATE_TYPE>
2
5
10

$$$$

