24341
  -OEChem-07051213152D

  3  2  0     0  0  0  0  0  0999 V2000
    3.4030    0.2500    0.0000 Cl  0  0  0  0  0  0  0  0  0  0  0  0
    2.5369   -0.2500    0.0000 O   0  0  0  0  0  0  0  0  0  0  0  0
    2.0000    0.0600    0.0000 H   0  0  0  0  0  0  0  0  0  0  0  0
  1  2  1  0  0  0  0
  2  3  1  0  0  0  0
M  END
> <PUBCHEM_COMPOUND_CID>
24341

> <PUBCHEM_COMPOUND_CANONICALIZED>
1

> <PUBCHEM_CACTVS_COMPLEXITY>
2

> <PUBCHEM_CACTVS_HBOND_ACCEPTOR>
1

> <PUBCHEM_CACTVS_HBOND_DONOR>
1

> <PUBCHEM_CACTVS_ROTATABLE_BOND>
0

> <PUBCHEM_CACTVS_SUBSKEYS>
AAADcQAAIAAEAAAAAAAAAAAAAAAAAAAAAAAAAAAAAAAAAAAAAAAAAAAACAAAAAAAAAAAAAAAAAAAAAAAAAAAAAAAAAAAAAAAAAAAAAAAAAAAAAAAAAAAAAAAAAAAAAAAAAAAAAAAAAAAAAAAAAAAAAAAAA==

> <PUBCHEM_IUPAC_OPENEYE_NAME>
hypochlorous acid

> <PUBCHEM_IUPAC_CAS_NAME>
hypochlorous acid

> <PUBCHEM_IUPAC_NAME>
hypochlorous acid

> <PUBCHEM_IUPAC_SYSTEMATIC_NAME>
hypochlorous acid

> <PUBCHEM_IUPAC_TRADITIONAL_NAME>
hypochlorous acid

> <PUBCHEM_IUPAC_INCHI>
InChI=1S/ClHO/c1-2/h2H

> <PUBCHEM_IUPAC_INCHIKEY>
QWPPOHNGKGFGJK-UHFFFAOYSA-N

> <PUBCHEM_XLOGP3_AA>
0.3

> <PUBCHEM_EXACT_MASS>
51.971592

> <PUBCHEM_MOLECULAR_FORMULA>
ClHO

> <PUBCHEM_MOLECULAR_WEIGHT>
52.46034

> <PUBCHEM_OPENEYE_CAN_SMILES>
OCl

> <PUBCHEM_OPENEYE_ISO_SMILES>
OCl

> <PUBCHEM_CACTVS_TPSA>
20.2

> <PUBCHEM_MONOISOTOPIC_WEIGHT>
51.971592

> <PUBCHEM_TOTAL_CHARGE>
0

> <PUBCHEM_HEAVY_ATOM_COUNT>
2

> <PUBCHEM_ATOM_DEF_STEREO_COUNT>
0

> <PUBCHEM_ATOM_UDEF_STEREO_COUNT>
0

> <PUBCHEM_BOND_DEF_STEREO_COUNT>
0

> <PUBCHEM_BOND_UDEF_STEREO_COUNT>
0

> <PUBCHEM_ISOTOPIC_ATOM_COUNT>
0

> <PUBCHEM_COMPONENT_COUNT>
1

> <PUBCHEM_CACTVS_TAUTO_COUNT>
1

> <PUBCHEM_COORDINATE_TYPE>
1
5
255

$$$$

