5970
  -OEChem-06261201012D

 28 26  0     1  0  0  0  0  0999 V2000
    2.8850    0.0000    0.0000 Cl  0  5  0  0  0  0  0  0  0  0  0  0
    3.1350    2.9030    0.0000 O   0  0  0  0  0  0  0  0  0  0  0  0
    0.5369    4.4030    0.0000 O   0  0  0  0  0  0  0  0  0  0  0  0
    1.4030    2.9030    0.0000 O   0  0  0  0  0  0  0  0  0  0  0  0
    4.8671    3.9030    0.0000 N   0  3  0  0  0  0  0  0  0  0  0  0
    4.0010    4.4030    0.0000 C   0  0  0  0  0  0  0  0  0  0  0  0
    3.1350    3.9030    0.0000 C   0  0  3  0  0  0  0  0  0  0  0  0
    5.7331    3.4030    0.0000 C   0  0  0  0  0  0  0  0  0  0  0  0
    5.3671    4.7690    0.0000 C   0  0  0  0  0  0  0  0  0  0  0  0
    4.3671    3.0369    0.0000 C   0  0  0  0  0  0  0  0  0  0  0  0
    2.2690    4.4030    0.0000 C   0  0  0  0  0  0  0  0  0  0  0  0
    1.4030    3.9030    0.0000 C   0  0  0  0  0  0  0  0  0  0  0  0
    4.3996    4.8779    0.0000 H   0  0  0  0  0  0  0  0  0  0  0  0
    3.6025    4.8779    0.0000 H   0  0  0  0  0  0  0  0  0  0  0  0
    3.6720    3.5930    0.0000 H   0  0  0  0  0  0  0  0  0  0  0  0
    5.4231    2.8660    0.0000 H   0  0  0  0  0  0  0  0  0  0  0  0
    6.2700    3.0930    0.0000 H   0  0  0  0  0  0  0  0  0  0  0  0
    6.0431    3.9399    0.0000 H   0  0  0  0  0  0  0  0  0  0  0  0
    5.9040    4.4590    0.0000 H   0  0  0  0  0  0  0  0  0  0  0  0
    5.6771    5.3059    0.0000 H   0  0  0  0  0  0  0  0  0  0  0  0
    4.8301    5.0790    0.0000 H   0  0  0  0  0  0  0  0  0  0  0  0
    3.8301    3.3469    0.0000 H   0  0  0  0  0  0  0  0  0  0  0  0
    4.0571    2.5000    0.0000 H   0  0  0  0  0  0  0  0  0  0  0  0
    4.9040    2.7269    0.0000 H   0  0  0  0  0  0  0  0  0  0  0  0
    2.6675    4.8779    0.0000 H   0  0  0  0  0  0  0  0  0  0  0  0
    1.8705    4.8779    0.0000 H   0  0  0  0  0  0  0  0  0  0  0  0
    2.5981    2.5930    0.0000 H   0  0  0  0  0  0  0  0  0  0  0  0
    0.0000    4.0930    0.0000 H   0  0  0  0  0  0  0  0  0  0  0  0
  2  7  1  0  0  0  0
  2 27  1  0  0  0  0
  3 12  1  0  0  0  0
  3 28  1  0  0  0  0
  4 12  2  0  0  0  0
  5  6  1  0  0  0  0
  5  8  1  0  0  0  0
  5  9  1  0  0  0  0
  5 10  1  0  0  0  0
  6  7  1  0  0  0  0
  6 13  1  0  0  0  0
  6 14  1  0  0  0  0
  7 11  1  0  0  0  0
  7 15  1  0  0  0  0
  8 16  1  0  0  0  0
  8 17  1  0  0  0  0
  8 18  1  0  0  0  0
  9 19  1  0  0  0  0
  9 20  1  0  0  0  0
  9 21  1  0  0  0  0
 10 22  1  0  0  0  0
 10 23  1  0  0  0  0
 10 24  1  0  0  0  0
 11 12  1  0  0  0  0
 11 25  1  0  0  0  0
 11 26  1  0  0  0  0
M  CHG  2   1  -1   5   1
M  END
> <PUBCHEM_COMPOUND_CID>
5970

> <PUBCHEM_COMPOUND_CANONICALIZED>
1

> <PUBCHEM_CACTVS_COMPLEXITY>
139

> <PUBCHEM_CACTVS_HBOND_ACCEPTOR>
4

> <PUBCHEM_CACTVS_HBOND_DONOR>
2

> <PUBCHEM_CACTVS_ROTATABLE_BOND>
4

> <PUBCHEM_CACTVS_SUBSKEYS>
AAADceBiMAAEAAAAAAAAAAAAAAAAAAAAAAAAAAAAAAAAAAAAAAAAHgAACAAACBThgAYCCAMAAgAIAACQCAAAAAAAAAAAAAEIAAACEBQAgAAEQAAFIAAQAAAkAAAAAAAAAAAAAAAAAAAAAAAAAAAAAAAAAA==

> <PUBCHEM_IUPAC_OPENEYE_NAME>
(3-carboxy-2-hydroxy-propyl)-trimethyl-ammonium chloride

> <PUBCHEM_IUPAC_CAS_NAME>
(3-carboxy-2-hydroxypropyl)-trimethylammonium chloride

> <PUBCHEM_IUPAC_NAME>
(3-carboxy-2-hydroxypropyl)-trimethylazanium chloride

> <PUBCHEM_IUPAC_SYSTEMATIC_NAME>
[2,4-bis(oxidanyl)-4-oxidanylidene-butyl]-trimethyl-azanium chloride

> <PUBCHEM_IUPAC_TRADITIONAL_NAME>
(3-carboxy-2-hydroxy-propyl)-trimethyl-ammonium chloride

> <PUBCHEM_IUPAC_INCHI>
InChI=1S/C7H15NO3.ClH/c1-8(2,3)5-6(9)4-7(10)11;/h6,9H,4-5H2,1-3H3;1H

> <PUBCHEM_IUPAC_INCHIKEY>
JXXCENBLGFBQJM-UHFFFAOYSA-N

> <PUBCHEM_EXACT_MASS>
197.081871

> <PUBCHEM_MOLECULAR_FORMULA>
C7H16ClNO3

> <PUBCHEM_MOLECULAR_WEIGHT>
197.65984

> <PUBCHEM_OPENEYE_CAN_SMILES>
C[N+](C)(C)CC(CC(=O)O)O.[Cl-]

> <PUBCHEM_OPENEYE_ISO_SMILES>
C[N+](C)(C)CC(CC(=O)O)O.[Cl-]

> <PUBCHEM_CACTVS_TPSA>
57.5

> <PUBCHEM_MONOISOTOPIC_WEIGHT>
197.081871

> <PUBCHEM_TOTAL_CHARGE>
0

> <PUBCHEM_HEAVY_ATOM_COUNT>
12

> <PUBCHEM_ATOM_DEF_STEREO_COUNT>
0

> <PUBCHEM_ATOM_UDEF_STEREO_COUNT>
1

> <PUBCHEM_BOND_DEF_STEREO_COUNT>
0

> <PUBCHEM_BOND_UDEF_STEREO_COUNT>
0

> <PUBCHEM_ISOTOPIC_ATOM_COUNT>
0

> <PUBCHEM_COMPONENT_COUNT>
2

> <PUBCHEM_CACTVS_TAUTO_COUNT>
1

> <PUBCHEM_COORDINATE_TYPE>
1
5
255

> <PUBCHEM_BONDANNOTATIONS>
7  2  3

$$$$

