17396336
  -OEChem-06241222562D

 39 40  0     0  0  0  0  0  0999 V2000
    7.9128    2.0194    0.0000 S   0  0  0  0  0  0  0  0  0  0  0  0
    5.4641    0.1830    0.0000 O   0  0  0  0  0  0  0  0  0  0  0  0
    2.8660   -3.3170    0.0000 O   0  0  0  0  0  0  0  0  0  0  0  0
    4.5981   -4.3170    0.0000 O   0  0  0  0  0  0  0  0  0  0  0  0
    3.7320    0.1830    0.0000 O   0  0  0  0  0  0  0  0  0  0  0  0
    9.4018    3.0945    0.0000 O   0  0  0  0  0  0  0  0  0  0  0  0
    6.4347    2.6775    0.0000 N   0  0  0  0  0  0  0  0  0  0  0  0
    7.8195    3.7990    0.0000 N   0  0  0  0  0  0  0  0  0  0  0  0
    4.5981   -1.3170    0.0000 C   0  0  0  0  0  0  0  0  0  0  0  0
    3.7320   -2.8170    0.0000 C   0  0  0  0  0  0  0  0  0  0  0  0
    3.7320   -1.8170    0.0000 C   0  0  0  0  0  0  0  0  0  0  0  0
    5.4641    1.1830    0.0000 C   0  0  0  0  0  0  0  0  0  0  0  0
    4.5981   -3.3170    0.0000 C   0  0  0  0  0  0  0  0  0  0  0  0
    6.3301    1.6830    0.0000 C   0  0  0  0  0  0  0  0  0  0  0  0
    5.4641   -1.8170    0.0000 C   0  0  0  0  0  0  0  0  0  0  0  0
    5.4641   -2.8170    0.0000 C   0  0  0  0  0  0  0  0  0  0  0  0
    4.5981   -0.3170    0.0000 C   0  0  0  0  0  0  0  0  0  0  0  0
    7.2437    1.2762    0.0000 C   0  0  0  0  0  0  0  0  0  0  0  0
    7.4128    2.8854    0.0000 C   0  0  0  0  0  0  0  0  0  0  0  0
    8.8141    3.9035    0.0000 C   0  0  0  0  0  0  0  0  0  0  0  0
    2.0000   -2.8170    0.0000 C   0  0  0  0  0  0  0  0  0  0  0  0
    5.4641   -4.8170    0.0000 C   0  0  0  0  0  0  0  0  0  0  0  0
    9.2208    4.8170    0.0000 C   0  0  0  0  0  0  0  0  0  0  0  0
    5.2520    1.7656    0.0000 H   0  0  0  0  0  0  0  0  0  0  0  0
    4.8535    1.0753    0.0000 H   0  0  0  0  0  0  0  0  0  0  0  0
    3.1951   -1.5070    0.0000 H   0  0  0  0  0  0  0  0  0  0  0  0
    6.0010   -1.5070    0.0000 H   0  0  0  0  0  0  0  0  0  0  0  0
    6.0010   -3.1270    0.0000 H   0  0  0  0  0  0  0  0  0  0  0  0
    7.3726    0.6698    0.0000 H   0  0  0  0  0  0  0  0  0  0  0  0
    7.4551    4.3005    0.0000 H   0  0  0  0  0  0  0  0  0  0  0  0
    2.3100   -2.2801    0.0000 H   0  0  0  0  0  0  0  0  0  0  0  0
    1.4631   -2.5070    0.0000 H   0  0  0  0  0  0  0  0  0  0  0  0
    1.6900   -3.3540    0.0000 H   0  0  0  0  0  0  0  0  0  0  0  0
    5.1541   -5.3540    0.0000 H   0  0  0  0  0  0  0  0  0  0  0  0
    6.0010   -5.1270    0.0000 H   0  0  0  0  0  0  0  0  0  0  0  0
    5.7741   -4.2801    0.0000 H   0  0  0  0  0  0  0  0  0  0  0  0
    9.7872    4.5648    0.0000 H   0  0  0  0  0  0  0  0  0  0  0  0
    9.4730    5.3834    0.0000 H   0  0  0  0  0  0  0  0  0  0  0  0
    8.6544    5.0692    0.0000 H   0  0  0  0  0  0  0  0  0  0  0  0
  1 18  1  0  0  0  0
  1 19  1  0  0  0  0
  2 12  1  0  0  0  0
  2 17  1  0  0  0  0
  3 10  1  0  0  0  0
  3 21  1  0  0  0  0
  4 13  1  0  0  0  0
  4 22  1  0  0  0  0
  5 17  2  0  0  0  0
  6 20  2  0  0  0  0
  7 14  1  0  0  0  0
  7 19  2  0  0  0  0
  8 19  1  0  0  0  0
  8 20  1  0  0  0  0
  8 30  1  0  0  0  0
  9 11  2  0  0  0  0
  9 15  1  0  0  0  0
  9 17  1  0  0  0  0
 10 11  1  0  0  0  0
 10 13  2  0  0  0  0
 11 26  1  0  0  0  0
 12 14  1  0  0  0  0
 12 24  1  0  0  0  0
 12 25  1  0  0  0  0
 13 16  1  0  0  0  0
 14 18  2  0  0  0  0
 15 16  2  0  0  0  0
 15 27  1  0  0  0  0
 16 28  1  0  0  0  0
 18 29  1  0  0  0  0
 20 23  1  0  0  0  0
 21 31  1  0  0  0  0
 21 32  1  0  0  0  0
 21 33  1  0  0  0  0
 22 34  1  0  0  0  0
 22 35  1  0  0  0  0
 22 36  1  0  0  0  0
 23 37  1  0  0  0  0
 23 38  1  0  0  0  0
 23 39  1  0  0  0  0
M  END
> <PUBCHEM_COMPOUND_CID>
17396336

> <PUBCHEM_COMPOUND_CANONICALIZED>
1

> <PUBCHEM_CACTVS_COMPLEXITY>
423

> <PUBCHEM_CACTVS_HBOND_ACCEPTOR>
7

> <PUBCHEM_CACTVS_HBOND_DONOR>
1

> <PUBCHEM_CACTVS_ROTATABLE_BOND>
7

> <PUBCHEM_CACTVS_SUBSKEYS>
AAADceBzOABAAAAAAAAAAAAAAAAAAWAAAAAwAAAAAAAAAAABwAAAHgQQAAAADAyl3gKzn5LIFAisAyXyfAQC+KllKjkJiBUWqMiPJjKkPRqDMSIs0RMaqafK7DzOIAABAAAAQABAAAIAAACAAAAAAAAAAA==

> <PUBCHEM_IUPAC_OPENEYE_NAME>
(2-acetamidothiazol-4-yl)methyl 3,4-dimethoxybenzoate

> <PUBCHEM_IUPAC_CAS_NAME>
3,4-dimethoxybenzoic acid (2-acetamido-4-thiazolyl)methyl ester

> <PUBCHEM_IUPAC_NAME>
(2-acetamido-1,3-thiazol-4-yl)methyl 3,4-dimethoxybenzoate

> <PUBCHEM_IUPAC_SYSTEMATIC_NAME>
(2-acetamido-1,3-thiazol-4-yl)methyl 3,4-dimethoxybenzoate

> <PUBCHEM_IUPAC_TRADITIONAL_NAME>
3,4-dimethoxybenzoic acid (2-acetamidothiazol-4-yl)methyl ester

> <PUBCHEM_IUPAC_INCHI>
InChI=1S/C15H16N2O5S/c1-9(18)16-15-17-11(8-23-15)7-22-14(19)10-4-5-12(20-2)13(6-10)21-3/h4-6,8H,7H2,1-3H3,(H,16,17,18)

> <PUBCHEM_IUPAC_INCHIKEY>
ABVAVCOWNMKNFO-UHFFFAOYSA-N

> <PUBCHEM_XLOGP3_AA>
1.8

> <PUBCHEM_EXACT_MASS>
336.077993

> <PUBCHEM_MOLECULAR_FORMULA>
C15H16N2O5S

> <PUBCHEM_MOLECULAR_WEIGHT>
336.36294

> <PUBCHEM_OPENEYE_CAN_SMILES>
CC(=O)NC1=NC(=CS1)COC(=O)C2=CC(=C(C=C2)OC)OC

> <PUBCHEM_OPENEYE_ISO_SMILES>
CC(=O)NC1=NC(=CS1)COC(=O)C2=CC(=C(C=C2)OC)OC

> <PUBCHEM_CACTVS_TPSA>
115

> <PUBCHEM_MONOISOTOPIC_WEIGHT>
336.077993

> <PUBCHEM_TOTAL_CHARGE>
0

> <PUBCHEM_HEAVY_ATOM_COUNT>
23

> <PUBCHEM_ATOM_DEF_STEREO_COUNT>
0

> <PUBCHEM_ATOM_UDEF_STEREO_COUNT>
0

> <PUBCHEM_BOND_DEF_STEREO_COUNT>
0

> <PUBCHEM_BOND_UDEF_STEREO_COUNT>
0

> <PUBCHEM_ISOTOPIC_ATOM_COUNT>
0

> <PUBCHEM_COMPONENT_COUNT>
1

> <PUBCHEM_CACTVS_TAUTO_COUNT>
5

> <PUBCHEM_COORDINATE_TYPE>
1
5
255

> <PUBCHEM_BONDANNOTATIONS>
1  18  8
1  19  8
10  11  8
10  13  8
13  16  8
14  18  8
15  16  8
7  14  8
7  19  8
9  11  8
9  15  8

$$$$

