853433
  -OEChem-07051212593D

 24 24  0     0  0  0  0  0  0999 V2000
   -1.9658    1.5920    0.4851 O   0  0  0  0  0  0  0  0  0  0  0  0
   -3.1931   -0.8557    0.0074 O   0  0  0  0  0  0  0  0  0  0  0  0
    0.9489   -0.5725    0.0571 C   0  0  0  0  0  0  0  0  0  0  0  0
   -1.2187    0.4741    0.2657 C   0  0  0  0  0  0  0  0  0  0  0  0
    0.1732    0.5651    0.2811 C   0  0  0  0  0  0  0  0  0  0  0  0
    0.3327   -1.8008   -0.1821 C   0  0  0  0  0  0  0  0  0  0  0  0
   -1.8347   -0.7544    0.0264 C   0  0  0  0  0  0  0  0  0  0  0  0
   -1.0590   -1.8918   -0.1975 C   0  0  0  0  0  0  0  0  0  0  0  0
    2.4001   -0.4782    0.0740 C   0  0  0  0  0  0  0  0  0  0  0  0
    3.1229    0.6534   -0.0876 C   0  0  0  0  0  0  0  0  0  0  0  0
    4.6163    0.7014   -0.0721 C   0  0  0  0  0  0  0  0  0  0  0  0
   -2.3226    2.3675   -0.6574 C   0  0  0  0  0  0  0  0  0  0  0  0
    0.6160    1.5348    0.4913 H   0  0  0  0  0  0  0  0  0  0  0  0
    0.9209   -2.6980   -0.3600 H   0  0  0  0  0  0  0  0  0  0  0  0
   -1.5261   -2.8548   -0.3857 H   0  0  0  0  0  0  0  0  0  0  0  0
    2.9340   -1.4151    0.2201 H   0  0  0  0  0  0  0  0  0  0  0  0
    2.6397    1.6097   -0.2637 H   0  0  0  0  0  0  0  0  0  0  0  0
    4.9868    1.0860   -1.0272 H   0  0  0  0  0  0  0  0  0  0  0  0
    4.9591    1.3687    0.7245 H   0  0  0  0  0  0  0  0  0  0  0  0
    5.0603   -0.2850    0.0942 H   0  0  0  0  0  0  0  0  0  0  0  0
   -2.9199    1.7730   -1.3560 H   0  0  0  0  0  0  0  0  0  0  0  0
   -1.4263    2.7472   -1.1580 H   0  0  0  0  0  0  0  0  0  0  0  0
   -2.9220    3.2178   -0.3209 H   0  0  0  0  0  0  0  0  0  0  0  0
   -3.4393   -1.7791   -0.1739 H   0  0  0  0  0  0  0  0  0  0  0  0
  1  4  1  0  0  0  0
  1 12  1  0  0  0  0
  2  7  1  0  0  0  0
  2 24  1  0  0  0  0
  3  5  2  0  0  0  0
  3  6  1  0  0  0  0
  3  9  1  0  0  0  0
  4  5  1  0  0  0  0
  4  7  2  0  0  0  0
  5 13  1  0  0  0  0
  6  8  2  0  0  0  0
  6 14  1  0  0  0  0
  7  8  1  0  0  0  0
  8 15  1  0  0  0  0
  9 10  2  0  0  0  0
  9 16  1  0  0  0  0
 10 11  1  0  0  0  0
 10 17  1  0  0  0  0
 11 18  1  0  0  0  0
 11 19  1  0  0  0  0
 11 20  1  0  0  0  0
 12 21  1  0  0  0  0
 12 22  1  0  0  0  0
 12 23  1  0  0  0  0
M  END
> <PUBCHEM_COMPOUND_CID>
853433

> <PUBCHEM_CONFORMER_RMSD>
0.6

> <PUBCHEM_CONFORMER_DIVERSEORDER>
1
2

> <PUBCHEM_MMFF94_PARTIAL_CHARGES>
18
1 -0.36
10 -0.29
11 0.14
12 0.28
13 0.15
14 0.15
15 0.15
16 0.15
17 0.15
2 -0.53
24 0.45
3 0.03
4 0.08
5 -0.15
6 -0.15
7 0.08
8 -0.15
9 -0.18

> <PUBCHEM_EFFECTIVE_ROTOR_COUNT>
2

> <PUBCHEM_PHARMACOPHORE_FEATURES>
4
1 1 acceptor
1 11 hydrophobe
1 2 donor
6 3 4 5 6 7 8 rings

> <PUBCHEM_HEAVY_ATOM_COUNT>
12

> <PUBCHEM_ATOM_DEF_STEREO_COUNT>
0

> <PUBCHEM_ATOM_UDEF_STEREO_COUNT>
0

> <PUBCHEM_BOND_DEF_STEREO_COUNT>
1

> <PUBCHEM_BOND_UDEF_STEREO_COUNT>
0

> <PUBCHEM_ISOTOPIC_ATOM_COUNT>
0

> <PUBCHEM_COMPONENT_COUNT>
1

> <PUBCHEM_CACTVS_TAUTO_COUNT>
3

> <PUBCHEM_CONFORMER_ID>
000D05B900000001

> <PUBCHEM_MMFF94_ENERGY>
39.1084

> <PUBCHEM_FEATURE_SELFOVERLAP>
20.297

> <PUBCHEM_SHAPE_FINGERPRINT>
10608611 8 18334577915368525472
11206711 2 18334867103689560669
13024252 1 11383845847933479299
13380535 76 18266746972470423459
14325111 11 18409728491270328186
14614273 12 18412262869619451461
14897335 6 18339367494828687204
15775835 57 18342172306310645656
16945 1 18337119968407449131
18186145 218 18115296903982191628
20510252 161 18333446543150972224
20645477 56 18334009454982476520
20871998 184 18115018589542703159
21501502 16 18266465480182163299
21524375 3 18267309905022338640
23402539 116 18335710381726547527
23552423 10 18267584795814782154
23559900 14 18041277760395361802
2748010 2 18264480870262856775
305870 269 18200876300460945402
53812653 8 18411705378374563794
6333449 129 18408324397346422952

> <PUBCHEM_SHAPE_MULTIPOLES>
235.22
5.77
2.12
0.67
6.29
0.38
-0.02
2.23
-0.28
-1.73
-0.32
-0.08
0.09
0.11

> <PUBCHEM_SHAPE_SELFOVERLAP>
482.327

> <PUBCHEM_SHAPE_VOLUME>
137.1

> <PUBCHEM_COORDINATE_TYPE>
2
5
10

$$$$

