40305
  -OEChem-07051212572D

 46 49  0     0  0  0  0  0  0999 V2000
    6.5200   -3.2665    0.0000 O   0  0  0  0  0  0  0  0  0  0  0  0
    4.7462   -4.2907    0.0000 O   0  0  0  0  0  0  0  0  0  0  0  0
    2.0116    3.4155    0.0000 O   0  0  0  0  0  0  0  0  0  0  0  0
    3.8149    4.4753    0.0000 O   0  0  0  0  0  0  0  0  0  0  0  0
    3.0020   -0.2214    0.0000 N   0  3  0  0  0  0  0  0  0  0  0  0
    3.8680    0.2786    0.0000 C   0  0  0  0  0  0  0  0  0  0  0  0
    4.7340   -0.2214    0.0000 C   0  0  0  0  0  0  0  0  0  0  0  0
    4.7340   -1.2214    0.0000 C   0  0  0  0  0  0  0  0  0  0  0  0
    3.8520    1.3201    0.0000 C   0  0  0  0  0  0  0  0  0  0  0  0
    3.8680   -1.7214    0.0000 C   0  0  0  0  0  0  0  0  0  0  0  0
    4.7500    1.8478    0.0000 C   0  0  0  0  0  0  0  0  0  0  0  0
    3.0020   -1.2214    0.0000 C   0  0  0  0  0  0  0  0  0  0  0  0
    5.6440    0.2854    0.0000 C   0  0  0  0  0  0  0  0  0  0  0  0
    5.6521    1.3270    0.0000 C   0  0  0  0  0  0  0  0  0  0  0  0
    5.6440   -1.7283    0.0000 C   0  0  0  0  0  0  0  0  0  0  0  0
    2.9000    1.8407    0.0000 C   0  0  0  0  0  0  0  0  0  0  0  0
    3.8520   -2.7629    0.0000 C   0  0  0  0  0  0  0  0  0  0  0  0
    2.1360    0.2786    0.0000 C   0  0  0  0  0  0  0  0  0  0  0  0
    4.7584    2.9328    0.0000 C   0  0  0  0  0  0  0  0  0  0  0  0
    5.6521   -2.7699    0.0000 C   0  0  0  0  0  0  0  0  0  0  0  0
    4.7500   -3.2907    0.0000 C   0  0  0  0  0  0  0  0  0  0  0  0
    2.8833    2.9256    0.0000 C   0  0  0  0  0  0  0  0  0  0  0  0
    3.8187    3.4753    0.0000 C   0  0  0  0  0  0  0  0  0  0  0  0
    7.3841   -2.7632    0.0000 C   0  0  0  0  0  0  0  0  0  0  0  0
    3.8782   -4.7874    0.0000 C   0  0  0  0  0  0  0  0  0  0  0  0
    2.0000    4.4154    0.0000 C   0  0  0  0  0  0  0  0  0  0  0  0
    2.4651   -1.5314    0.0000 H   0  0  0  0  0  0  0  0  0  0  0  0
    6.1774   -0.0308    0.0000 H   0  0  0  0  0  0  0  0  0  0  0  0
    6.1902    1.6349    0.0000 H   0  0  0  0  0  0  0  0  0  0  0  0
    6.1774   -1.4121    0.0000 H   0  0  0  0  0  0  0  0  0  0  0  0
    2.3692    1.5204    0.0000 H   0  0  0  0  0  0  0  0  0  0  0  0
    3.3115   -3.0667    0.0000 H   0  0  0  0  0  0  0  0  0  0  0  0
    2.4460    0.8155    0.0000 H   0  0  0  0  0  0  0  0  0  0  0  0
    1.5990    0.5886    0.0000 H   0  0  0  0  0  0  0  0  0  0  0  0
    1.8260   -0.2584    0.0000 H   0  0  0  0  0  0  0  0  0  0  0  0
    5.2965    3.2407    0.0000 H   0  0  0  0  0  0  0  0  0  0  0  0
    4.3506    4.7874    0.0000 H   0  0  0  0  0  0  0  0  0  0  0  0
    7.6962   -3.2989    0.0000 H   0  0  0  0  0  0  0  0  0  0  0  0
    7.9199   -2.4511    0.0000 H   0  0  0  0  0  0  0  0  0  0  0  0
    7.0720   -2.2275    0.0000 H   0  0  0  0  0  0  0  0  0  0  0  0
    3.5703   -4.2492    0.0000 H   0  0  0  0  0  0  0  0  0  0  0  0
    3.3401   -5.0953    0.0000 H   0  0  0  0  0  0  0  0  0  0  0  0
    4.1861   -5.3255    0.0000 H   0  0  0  0  0  0  0  0  0  0  0  0
    2.6200    4.4226    0.0000 H   0  0  0  0  0  0  0  0  0  0  0  0
    1.9928    5.0354    0.0000 H   0  0  0  0  0  0  0  0  0  0  0  0
    1.3800    4.4083    0.0000 H   0  0  0  0  0  0  0  0  0  0  0  0
  1 20  1  0  0  0  0
  1 24  1  0  0  0  0
  2 21  1  0  0  0  0
  2 25  1  0  0  0  0
  3 22  1  0  0  0  0
  3 26  1  0  0  0  0
  4 23  1  0  0  0  0
  4 37  1  0  0  0  0
  5  6  1  0  0  0  0
  5 12  2  0  0  0  0
  5 18  1  0  0  0  0
  6  7  2  0  0  0  0
  6  9  1  0  0  0  0
  7  8  1  0  0  0  0
  7 13  1  0  0  0  0
  8 10  1  0  0  0  0
  8 15  2  0  0  0  0
  9 11  1  0  0  0  0
  9 16  2  0  0  0  0
 10 12  1  0  0  0  0
 10 17  2  0  0  0  0
 11 14  1  0  0  0  0
 11 19  2  0  0  0  0
 12 27  1  0  0  0  0
 13 14  2  0  0  0  0
 13 28  1  0  0  0  0
 14 29  1  0  0  0  0
 15 20  1  0  0  0  0
 15 30  1  0  0  0  0
 16 22  1  0  0  0  0
 16 31  1  0  0  0  0
 17 21  1  0  0  0  0
 17 32  1  0  0  0  0
 18 33  1  0  0  0  0
 18 34  1  0  0  0  0
 18 35  1  0  0  0  0
 19 23  1  0  0  0  0
 19 36  1  0  0  0  0
 20 21  2  0  0  0  0
 22 23  2  0  0  0  0
 24 38  1  0  0  0  0
 24 39  1  0  0  0  0
 24 40  1  0  0  0  0
 25 41  1  0  0  0  0
 25 42  1  0  0  0  0
 25 43  1  0  0  0  0
 26 44  1  0  0  0  0
 26 45  1  0  0  0  0
 26 46  1  0  0  0  0
M  CHG  1   5   1
M  END
> <PUBCHEM_COMPOUND_CID>
40305

> <PUBCHEM_COMPOUND_CANONICALIZED>
1

> <PUBCHEM_CACTVS_COMPLEXITY>
489

> <PUBCHEM_CACTVS_HBOND_ACCEPTOR>
4

> <PUBCHEM_CACTVS_HBOND_DONOR>
1

> <PUBCHEM_CACTVS_ROTATABLE_BOND>
3

> <PUBCHEM_CACTVS_SUBSKEYS>
AAADceB6OAAAAAAAAAAAAAAAAAAAAAAAAAA8YMEAAAAAAADx/AAAHgAACAAADAzBngY+xvMMFgCgAzRnRACCiCAxICAI2CAuzJgNJuLGsZuEcCtkwBHL+Aew0PMO4AADQAASQADAAAaAACSAAAAAAAAAAA==

> <PUBCHEM_IUPAC_OPENEYE_NAME>
3,8,9-trimethoxy-5-methyl-benzo[c]phenanthridin-5-ium-2-ol

> <PUBCHEM_IUPAC_CAS_NAME>
3,8,9-trimethoxy-5-methyl-2-benzo[c]phenanthridin-5-iumol

> <PUBCHEM_IUPAC_NAME>
3,8,9-trimethoxy-5-methylbenzo[c]phenanthridin-5-ium-2-ol

> <PUBCHEM_IUPAC_SYSTEMATIC_NAME>
3,8,9-trimethoxy-5-methyl-benzo[c]phenanthridin-5-ium-2-ol

> <PUBCHEM_IUPAC_TRADITIONAL_NAME>
3,8,9-trimethoxy-5-methyl-benzo[c]phenanthridin-5-ium-2-ol

> <PUBCHEM_IUPAC_INCHI>
InChI=1S/C21H19NO4/c1-22-11-13-8-19(25-3)20(26-4)9-15(13)14-6-5-12-7-17(23)18(24-2)10-16(12)21(14)22/h5-11H,1-4H3/p+1

> <PUBCHEM_IUPAC_INCHIKEY>
OOKZVPUCASIEBL-UHFFFAOYSA-O

> <PUBCHEM_XLOGP3_AA>
4.4

> <PUBCHEM_EXACT_MASS>
350.139233

> <PUBCHEM_MOLECULAR_FORMULA>
C21H20NO4+

> <PUBCHEM_MOLECULAR_WEIGHT>
350.3878

> <PUBCHEM_OPENEYE_CAN_SMILES>
C[N+]1=CC2=CC(=C(C=C2C3=C1C4=CC(=C(C=C4C=C3)O)OC)OC)OC

> <PUBCHEM_OPENEYE_ISO_SMILES>
C[N+]1=CC2=CC(=C(C=C2C3=C1C4=CC(=C(C=C4C=C3)O)OC)OC)OC

> <PUBCHEM_CACTVS_TPSA>
51.8

> <PUBCHEM_MONOISOTOPIC_WEIGHT>
350.139233

> <PUBCHEM_TOTAL_CHARGE>
1

> <PUBCHEM_HEAVY_ATOM_COUNT>
26

> <PUBCHEM_ATOM_DEF_STEREO_COUNT>
0

> <PUBCHEM_ATOM_UDEF_STEREO_COUNT>
0

> <PUBCHEM_BOND_DEF_STEREO_COUNT>
0

> <PUBCHEM_BOND_UDEF_STEREO_COUNT>
0

> <PUBCHEM_ISOTOPIC_ATOM_COUNT>
0

> <PUBCHEM_COMPONENT_COUNT>
1

> <PUBCHEM_CACTVS_TAUTO_COUNT>
3

> <PUBCHEM_COORDINATE_TYPE>
1
5
255

> <PUBCHEM_BONDANNOTATIONS>
10  12  8
10  17  8
11  14  8
11  19  8
13  14  8
15  20  8
16  22  8
17  21  8
19  23  8
20  21  8
22  23  8
5  12  8
5  6  8
6  7  8
6  9  8
7  13  8
7  8  8
8  10  8
8  15  8
9  11  8
9  16  8

$$$$

