5281865
  -OEChem-07051213002D

 37 38  0     1  0  0  0  0  0999 V2000
    5.4641   -1.5755    0.0000 O   0  0  0  0  0  0  0  0  0  0  0  0
    4.5981   -0.0755    0.0000 O   0  0  0  0  0  0  0  0  0  0  0  0
    8.3010    1.7095    0.0000 N   0  0  0  0  0  0  0  0  0  0  0  0
    9.0376    0.7268    0.0000 C   0  0  3  0  0  0  0  0  0  0  0  0
    8.7788   -0.2391    0.0000 C   0  0  3  0  0  0  0  0  0  0  0  0
   10.6108   -0.9979    0.0000 C   0  0  0  0  0  0  0  0  0  0  0  0
   10.8696   -0.0320    0.0000 C   0  0  0  0  0  0  0  0  0  0  0  0
    7.2437   -1.4822    0.0000 C   0  0  0  0  0  0  0  0  0  0  0  0
    6.4347   -0.0810    0.0000 C   0  0  0  0  0  0  0  0  0  0  0  0
    6.3301   -1.0755    0.0000 C   0  0  0  0  0  0  0  0  0  0  0  0
    7.8010    2.5755    0.0000 C   0  0  0  0  0  0  0  0  0  0  0  0
    4.5981   -1.0755    0.0000 C   0  0  0  0  0  0  0  0  0  0  0  0
    3.7320   -1.5755    0.0000 C   0  0  0  0  0  0  0  0  0  0  0  0
    3.7320   -2.5755    0.0000 C   0  0  0  0  0  0  0  0  0  0  0  0
    2.8660   -1.0755    0.0000 C   0  0  0  0  0  0  0  0  0  0  0  0
    2.0000   -1.5755    0.0000 C   0  0  0  0  0  0  0  0  0  0  0  0
    8.9986   -0.1223    0.0000 H   0  0  0  0  0  0  0  0  0  0  0  0
    8.9008   -1.0803    0.0000 H   0  0  0  0  0  0  0  0  0  0  0  0
   10.3987   -1.5805    0.0000 H   0  0  0  0  0  0  0  0  0  0  0  0
   11.2021   -1.1843    0.0000 H   0  0  0  0  0  0  0  0  0  0  0  0
   11.4609   -0.2184    0.0000 H   0  0  0  0  0  0  0  0  0  0  0  0
   11.0817    0.5506    0.0000 H   0  0  0  0  0  0  0  0  0  0  0  0
    6.9060   -2.0022    0.0000 H   0  0  0  0  0  0  0  0  0  0  0  0
    7.7044   -1.8971    0.0000 H   0  0  0  0  0  0  0  0  0  0  0  0
    6.3324    0.5305    0.0000 H   0  0  0  0  0  0  0  0  0  0  0  0
    5.8149   -0.0999    0.0000 H   0  0  0  0  0  0  0  0  0  0  0  0
    5.8102   -0.7378    0.0000 H   0  0  0  0  0  0  0  0  0  0  0  0
    8.3380    2.8855    0.0000 H   0  0  0  0  0  0  0  0  0  0  0  0
    7.4910    3.1124    0.0000 H   0  0  0  0  0  0  0  0  0  0  0  0
    7.2641    2.2655    0.0000 H   0  0  0  0  0  0  0  0  0  0  0  0
    3.1120   -2.5755    0.0000 H   0  0  0  0  0  0  0  0  0  0  0  0
    3.7320   -3.1955    0.0000 H   0  0  0  0  0  0  0  0  0  0  0  0
    4.3520   -2.5755    0.0000 H   0  0  0  0  0  0  0  0  0  0  0  0
    2.8660   -0.4555    0.0000 H   0  0  0  0  0  0  0  0  0  0  0  0
    1.6900   -1.0386    0.0000 H   0  0  0  0  0  0  0  0  0  0  0  0
    1.4631   -1.8855    0.0000 H   0  0  0  0  0  0  0  0  0  0  0  0
    2.3100   -2.1124    0.0000 H   0  0  0  0  0  0  0  0  0  0  0  0
  1 10  1  0  0  0  0
  1 12  1  0  0  0  0
  2 12  2  0  0  0  0
  3  4  1  0  0  0  0
  3  5  1  0  0  0  0
  3 11  1  0  0  0  0
  4  7  1  0  0  0  0
  4  9  1  0  0  0  0
  4 17  1  0  0  0  0
  5  6  1  0  0  0  0
  5  8  1  0  0  0  0
  5 18  1  0  0  0  0
  6  7  1  0  0  0  0
  6 19  1  0  0  0  0
  6 20  1  0  0  0  0
  7 21  1  0  0  0  0
  7 22  1  0  0  0  0
  8 10  1  0  0  0  0
  8 23  1  0  0  0  0
  8 24  1  0  0  0  0
  9 10  1  0  0  0  0
  9 25  1  0  0  0  0
  9 26  1  0  0  0  0
 10 27  1  0  0  0  0
 11 28  1  0  0  0  0
 11 29  1  0  0  0  0
 11 30  1  0  0  0  0
 12 13  1  0  0  0  0
 13 14  1  0  0  0  0
 13 15  2  0  0  0  0
 14 31  1  0  0  0  0
 14 32  1  0  0  0  0
 14 33  1  0  0  0  0
 15 16  1  0  0  0  0
 15 34  1  0  0  0  0
 16 35  1  0  0  0  0
 16 36  1  0  0  0  0
 16 37  1  0  0  0  0
M  END
> <PUBCHEM_COMPOUND_CID>
5281865

> <PUBCHEM_COMPOUND_CANONICALIZED>
1

> <PUBCHEM_CACTVS_COMPLEXITY>
297

> <PUBCHEM_CACTVS_HBOND_ACCEPTOR>
3

> <PUBCHEM_CACTVS_HBOND_DONOR>
0

> <PUBCHEM_CACTVS_ROTATABLE_BOND>
3

> <PUBCHEM_CACTVS_SUBSKEYS>
AAADceByMAAAAAAAAAAAAAAAAAAAAWAAAAAsAAAABgAAAAAAAAAAHgAAAAAADDzhgAYCCAMABACIAiDSCAAAAAAAAAAACAEIAEAABAIAoQAGEAAGAACAIYGQwCAAAAAAAAAAAAAAAAAAAAAAAAAAAAAAAA==

> <PUBCHEM_IUPAC_OPENEYE_NAME>
(8-methyl-8-azabicyclo[3.2.1]octan-3-yl) (E)-2-methylbut-2-enoate

> <PUBCHEM_IUPAC_CAS_NAME>
(E)-2-methyl-2-butenoic acid (8-methyl-8-azabicyclo[3.2.1]octan-3-yl) ester

> <PUBCHEM_IUPAC_NAME>
(8-methyl-8-azabicyclo[3.2.1]octan-3-yl) (E)-2-methylbut-2-enoate

> <PUBCHEM_IUPAC_SYSTEMATIC_NAME>
(8-methyl-8-azabicyclo[3.2.1]octan-3-yl) (E)-2-methylbut-2-enoate

> <PUBCHEM_IUPAC_TRADITIONAL_NAME>
(E)-2-methylbut-2-enoic acid (8-methyl-8-azabicyclo[3.2.1]octan-3-yl) ester

> <PUBCHEM_IUPAC_INCHI>
InChI=1S/C13H21NO2/c1-4-9(2)13(15)16-12-7-10-5-6-11(8-12)14(10)3/h4,10-12H,5-8H2,1-3H3/b9-4+

> <PUBCHEM_IUPAC_INCHIKEY>
UVHGSMZRSVGWDJ-RUDMXATFSA-N

> <PUBCHEM_XLOGP3_AA>
2.5

> <PUBCHEM_EXACT_MASS>
223.157229

> <PUBCHEM_MOLECULAR_FORMULA>
C13H21NO2

> <PUBCHEM_MOLECULAR_WEIGHT>
223.31134

> <PUBCHEM_OPENEYE_CAN_SMILES>
CC=C(C)C(=O)OC1CC2CCC(C1)N2C

> <PUBCHEM_OPENEYE_ISO_SMILES>
C/C=C(\C)/C(=O)OC1CC2CCC(C1)N2C

> <PUBCHEM_CACTVS_TPSA>
29.5

> <PUBCHEM_MONOISOTOPIC_WEIGHT>
223.157229

> <PUBCHEM_TOTAL_CHARGE>
0

> <PUBCHEM_HEAVY_ATOM_COUNT>
16

> <PUBCHEM_ATOM_DEF_STEREO_COUNT>
0

> <PUBCHEM_ATOM_UDEF_STEREO_COUNT>
2

> <PUBCHEM_BOND_DEF_STEREO_COUNT>
1

> <PUBCHEM_BOND_UDEF_STEREO_COUNT>
0

> <PUBCHEM_ISOTOPIC_ATOM_COUNT>
0

> <PUBCHEM_COMPONENT_COUNT>
1

> <PUBCHEM_CACTVS_TAUTO_COUNT>
1

> <PUBCHEM_COORDINATE_TYPE>
1
5
255

> <PUBCHEM_BONDANNOTATIONS>
4  17  3
5  18  3

$$$$

