441701
  -OEChem-07051212552D

 31 33  0     0  0  0  0  0  0999 V2000
    6.8671    0.2704    0.0000 O   0  3  0  0  0  0  0  0  0  0  0  0
    8.6155   -2.7642    0.0000 O   0  0  0  0  0  0  0  0  0  0  0  0
   10.3972    0.2945    0.0000 O   0  0  0  0  0  0  0  0  0  0  0  0
    4.2690    2.7704    0.0000 O   0  0  0  0  0  0  0  0  0  0  0  0
    2.5369    1.7704    0.0000 O   0  0  0  0  0  0  0  0  0  0  0  0
    7.7331   -1.2296    0.0000 C   0  0  0  0  0  0  0  0  0  0  0  0
    7.7331   -0.2296    0.0000 C   0  0  0  0  0  0  0  0  0  0  0  0
    6.0010   -0.2296    0.0000 C   0  0  0  0  0  0  0  0  0  0  0  0
    5.1350    0.2704    0.0000 C   0  0  0  0  0  0  0  0  0  0  0  0
    6.8671   -1.7296    0.0000 C   0  0  0  0  0  0  0  0  0  0  0  0
    6.0010   -1.2296    0.0000 C   0  0  0  0  0  0  0  0  0  0  0  0
    8.6270   -1.7643    0.0000 C   0  0  0  0  0  0  0  0  0  0  0  0
    8.6270    0.3051    0.0000 C   0  0  0  0  0  0  0  0  0  0  0  0
    5.1350    1.2704    0.0000 C   0  0  0  0  0  0  0  0  0  0  0  0
    4.2690   -0.2296    0.0000 C   0  0  0  0  0  0  0  0  0  0  0  0
    9.5331   -0.2088    0.0000 C   0  0  0  0  0  0  0  0  0  0  0  0
    9.5331   -1.2504    0.0000 C   0  0  0  0  0  0  0  0  0  0  0  0
    4.2690    1.7704    0.0000 C   0  0  0  0  0  0  0  0  0  0  0  0
    3.4030    0.2704    0.0000 C   0  0  0  0  0  0  0  0  0  0  0  0
    3.4030    1.2704    0.0000 C   0  0  0  0  0  0  0  0  0  0  0  0
    6.8671   -2.3496    0.0000 H   0  0  0  0  0  0  0  0  0  0  0  0
    5.4641   -1.5396    0.0000 H   0  0  0  0  0  0  0  0  0  0  0  0
    8.6199    0.9250    0.0000 H   0  0  0  0  0  0  0  0  0  0  0  0
    5.6720    1.5804    0.0000 H   0  0  0  0  0  0  0  0  0  0  0  0
    4.2690   -0.8496    0.0000 H   0  0  0  0  0  0  0  0  0  0  0  0
   10.0688   -1.5625    0.0000 H   0  0  0  0  0  0  0  0  0  0  0  0
    2.8660   -0.0396    0.0000 H   0  0  0  0  0  0  0  0  0  0  0  0
    9.1488   -3.0804    0.0000 H   0  0  0  0  0  0  0  0  0  0  0  0
   10.9353   -0.0134    0.0000 H   0  0  0  0  0  0  0  0  0  0  0  0
    4.8059    3.0804    0.0000 H   0  0  0  0  0  0  0  0  0  0  0  0
    2.0000    1.4604    0.0000 H   0  0  0  0  0  0  0  0  0  0  0  0
  1  7  1  0  0  0  0
  1  8  2  0  0  0  0
  2 12  1  0  0  0  0
  2 28  1  0  0  0  0
  3 16  1  0  0  0  0
  3 29  1  0  0  0  0
  4 18  1  0  0  0  0
  4 30  1  0  0  0  0
  5 20  1  0  0  0  0
  5 31  1  0  0  0  0
  6  7  1  0  0  0  0
  6 10  1  0  0  0  0
  6 12  2  0  0  0  0
  7 13  2  0  0  0  0
  8  9  1  0  0  0  0
  8 11  1  0  0  0  0
  9 14  2  0  0  0  0
  9 15  1  0  0  0  0
 10 11  2  0  0  0  0
 10 21  1  0  0  0  0
 11 22  1  0  0  0  0
 12 17  1  0  0  0  0
 13 16  1  0  0  0  0
 13 23  1  0  0  0  0
 14 18  1  0  0  0  0
 14 24  1  0  0  0  0
 15 19  2  0  0  0  0
 15 25  1  0  0  0  0
 16 17  2  0  0  0  0
 17 26  1  0  0  0  0
 18 20  2  0  0  0  0
 19 20  1  0  0  0  0
 19 27  1  0  0  0  0
M  CHG  1   1   1
M  END
> <PUBCHEM_COMPOUND_CID>
441701

> <PUBCHEM_COMPOUND_CANONICALIZED>
1

> <PUBCHEM_CACTVS_COMPLEXITY>
336

> <PUBCHEM_CACTVS_HBOND_ACCEPTOR>
4

> <PUBCHEM_CACTVS_HBOND_DONOR>
4

> <PUBCHEM_CACTVS_ROTATABLE_BOND>
1

> <PUBCHEM_CACTVS_SUBSKEYS>
AAADccBwOAAAAAAAAAAAAAAAAAAAAAAAAAA0YIAAAAAAAACR9AAAGgAACAAADASAmAAwBsAABkCIAqBSAAACCAAkIAAIiAEGiMgNJzaGNRqCeWGl4BUJuYfK7PzOIAABCAAIQABAAAIQABCAAAAAAAAAAA==

> <PUBCHEM_IUPAC_OPENEYE_NAME>
2-(3,4-dihydroxyphenyl)chromenylium-5,7-diol

> <PUBCHEM_IUPAC_CAS_NAME>
2-(3,4-dihydroxyphenyl)-1-benzopyrylium-5,7-diol

> <PUBCHEM_IUPAC_NAME>
2-(3,4-dihydroxyphenyl)chromenylium-5,7-diol

> <PUBCHEM_IUPAC_SYSTEMATIC_NAME>
2-[3,4-bis(oxidanyl)phenyl]chromenylium-5,7-diol

> <PUBCHEM_IUPAC_TRADITIONAL_NAME>
2-(3,4-dihydroxyphenyl)-1-benzopyrylium-5,7-diol

> <PUBCHEM_IUPAC_INCHI>
InChI=1S/C15H10O5/c16-9-6-12(18)10-2-4-14(20-15(10)7-9)8-1-3-11(17)13(19)5-8/h1-7H,(H3-,16,17,18,19)/p+1

> <PUBCHEM_IUPAC_INCHIKEY>
GDNIGMNXEKGFIP-UHFFFAOYSA-O

> <PUBCHEM_EXACT_MASS>
271.060648

> <PUBCHEM_MOLECULAR_FORMULA>
C15H11O5+

> <PUBCHEM_MOLECULAR_WEIGHT>
271.24484

> <PUBCHEM_OPENEYE_CAN_SMILES>
C1=CC(=C(C=C1C2=[O+]C3=CC(=CC(=C3C=C2)O)O)O)O

> <PUBCHEM_OPENEYE_ISO_SMILES>
C1=CC(=C(C=C1C2=[O+]C3=CC(=CC(=C3C=C2)O)O)O)O

> <PUBCHEM_CACTVS_TPSA>
81.9

> <PUBCHEM_MONOISOTOPIC_WEIGHT>
271.060648

> <PUBCHEM_TOTAL_CHARGE>
1

> <PUBCHEM_HEAVY_ATOM_COUNT>
20

> <PUBCHEM_ATOM_DEF_STEREO_COUNT>
0

> <PUBCHEM_ATOM_UDEF_STEREO_COUNT>
0

> <PUBCHEM_BOND_DEF_STEREO_COUNT>
0

> <PUBCHEM_BOND_UDEF_STEREO_COUNT>
0

> <PUBCHEM_ISOTOPIC_ATOM_COUNT>
0

> <PUBCHEM_COMPONENT_COUNT>
1

> <PUBCHEM_CACTVS_TAUTO_COUNT>
217

> <PUBCHEM_COORDINATE_TYPE>
1
5
255

> <PUBCHEM_BONDANNOTATIONS>
1  7  8
1  8  8
10  11  8
12  17  8
13  16  8
14  18  8
15  19  8
16  17  8
18  20  8
19  20  8
6  10  8
6  12  8
6  7  8
7  13  8
8  11  8
9  14  8
9  15  8

$$$$

