10345799
  -OEChem-07051213093D

 66 71  0     1  0  0  0  0  0999 V2000
    2.0768   -2.0063   -0.6299 O   0  0  0  0  0  0  0  0  0  0  0  0
    1.9390    0.0432    0.5334 O   0  0  0  0  0  0  0  0  0  0  0  0
    4.2709    0.1090    0.5739 O   0  0  0  0  0  0  0  0  0  0  0  0
   -1.2549   -2.1790   -3.0553 O   0  0  0  0  0  0  0  0  0  0  0  0
    1.9228    2.3783   -1.0650 O   0  0  0  0  0  0  0  0  0  0  0  0
    4.3095    4.0431   -0.6043 O   0  0  0  0  0  0  0  0  0  0  0  0
    6.7122    2.4517   -0.8281 O   0  0  0  0  0  0  0  0  0  0  0  0
    6.5105   -1.4770    0.7310 O   0  0  0  0  0  0  0  0  0  0  0  0
   -2.7452   -2.0237   -1.2870 N   0  0  0  0  0  0  0  0  0  0  0  0
   -3.7301    0.1852    1.4988 N   0  0  0  0  0  0  0  0  0  0  0  0
   -0.5703   -1.5440    0.5363 C   0  0  1  0  0  0  0  0  0  0  0  0
   -3.0333   -1.8850    0.1620 C   0  0  1  0  0  0  0  0  0  0  0  0
   -1.8404   -2.2175    1.0489 C   0  0  0  0  0  0  0  0  0  0  0  0
    0.6785   -1.8225    1.4125 C   0  0  2  0  0  0  0  0  0  0  0  0
   -0.3261   -1.9312   -0.8913 C   0  0  0  0  0  0  0  0  0  0  0  0
   -3.6230   -0.5167    0.3321 C   0  0  0  0  0  0  0  0  0  0  0  0
   -3.8988   -1.7598   -2.1686 C   0  0  0  0  0  0  0  0  0  0  0  0
    1.9457   -1.3806    0.6558 C   0  0  1  0  0  0  0  0  0  0  0  0
   -4.2216    0.2220   -0.6742 C   0  0  0  0  0  0  0  0  0  0  0  0
   -1.4673   -2.0736   -1.8465 C   0  0  0  0  0  0  0  0  0  0  0  0
   -4.2814   -0.2652   -2.0890 C   0  0  0  0  0  0  0  0  0  0  0  0
    0.9176   -2.1396   -1.3495 C   0  0  0  0  0  0  0  0  0  0  0  0
   -4.6849    1.4359   -0.0966 C   0  0  0  0  0  0  0  0  0  0  0  0
    0.8341   -3.2486    1.8626 C   0  0  0  0  0  0  0  0  0  0  0  0
    3.1058    0.5096   -0.1435 C   0  0  2  0  0  0  0  0  0  0  0  0
   -4.3643    1.3871    1.2643 C   0  0  0  0  0  0  0  0  0  0  0  0
    3.0246    2.0339   -0.2256 C   0  0  1  0  0  0  0  0  0  0  0  0
    4.3087    2.6287   -0.8040 C   0  0  2  0  0  0  0  0  0  0  0  0
    5.5452    2.0530   -0.1138 C   0  0  1  0  0  0  0  0  0  0  0  0
    5.4786    0.5246   -0.0665 C   0  0  1  0  0  0  0  0  0  0  0  0
   -5.3473    2.5755   -0.5958 C   0  0  0  0  0  0  0  0  0  0  0  0
   -4.6782    2.4249    2.1495 C   0  0  0  0  0  0  0  0  0  0  0  0
    0.8431   -3.6323    3.1436 C   0  0  0  0  0  0  0  0  0  0  0  0
    6.6436   -0.0674    0.7204 C   0  0  0  0  0  0  0  0  0  0  0  0
   -5.6652    3.6203    0.2792 C   0  0  0  0  0  0  0  0  0  0  0  0
   -5.3351    3.5440    1.6304 C   0  0  0  0  0  0  0  0  0  0  0  0
   -0.7338   -0.4563    0.5447 H   0  0  0  0  0  0  0  0  0  0  0  0
   -3.8280   -2.6091    0.3882 H   0  0  0  0  0  0  0  0  0  0  0  0
   -2.0297   -1.9410    2.0925 H   0  0  0  0  0  0  0  0  0  0  0  0
   -1.7119   -3.3085    1.0331 H   0  0  0  0  0  0  0  0  0  0  0  0
    0.5795   -1.1860    2.3041 H   0  0  0  0  0  0  0  0  0  0  0  0
   -4.7284   -2.3917   -1.8295 H   0  0  0  0  0  0  0  0  0  0  0  0
   -3.6724   -2.0312   -3.2046 H   0  0  0  0  0  0  0  0  0  0  0  0
    2.8215   -1.6749    1.2480 H   0  0  0  0  0  0  0  0  0  0  0  0
   -5.2793   -0.1136   -2.5138 H   0  0  0  0  0  0  0  0  0  0  0  0
   -3.5711    0.3220   -2.6840 H   0  0  0  0  0  0  0  0  0  0  0  0
    1.1581   -2.4538   -2.3565 H   0  0  0  0  0  0  0  0  0  0  0  0
   -3.3972   -0.1219    2.4023 H   0  0  0  0  0  0  0  0  0  0  0  0
    0.9442   -4.0156    1.0998 H   0  0  0  0  0  0  0  0  0  0  0  0
    3.1244    0.0920   -1.1586 H   0  0  0  0  0  0  0  0  0  0  0  0
    2.8234    2.4667    0.7622 H   0  0  0  0  0  0  0  0  0  0  0  0
    4.3492    2.4684   -1.8885 H   0  0  0  0  0  0  0  0  0  0  0  0
    5.6232    2.4670    0.8990 H   0  0  0  0  0  0  0  0  0  0  0  0
    5.5010    0.0971   -1.0782 H   0  0  0  0  0  0  0  0  0  0  0  0
   -5.6117    2.6492   -1.6469 H   0  0  0  0  0  0  0  0  0  0  0  0
   -4.4220    2.3671    3.2022 H   0  0  0  0  0  0  0  0  0  0  0  0
    6.6408    0.2761    1.7602 H   0  0  0  0  0  0  0  0  0  0  0  0
    7.6073    0.1844    0.2683 H   0  0  0  0  0  0  0  0  0  0  0  0
    0.9580   -4.6792    3.4023 H   0  0  0  0  0  0  0  0  0  0  0  0
    0.7363   -2.9174    3.9518 H   0  0  0  0  0  0  0  0  0  0  0  0
   -6.1760    4.5008   -0.1015 H   0  0  0  0  0  0  0  0  0  0  0  0
    1.1270    1.9698   -0.6831 H   0  0  0  0  0  0  0  0  0  0  0  0
   -5.5920    4.3669    2.2925 H   0  0  0  0  0  0  0  0  0  0  0  0
    5.1417    4.3883   -0.9708 H   0  0  0  0  0  0  0  0  0  0  0  0
    6.6550    2.0835   -1.7263 H   0  0  0  0  0  0  0  0  0  0  0  0
    5.6492   -1.6883    1.1301 H   0  0  0  0  0  0  0  0  0  0  0  0
  1 18  1  0  0  0  0
  1 22  1  0  0  0  0
  2 18  1  0  0  0  0
  2 25  1  0  0  0  0
  3 25  1  0  0  0  0
  3 30  1  0  0  0  0
  4 20  2  0  0  0  0
  5 27  1  0  0  0  0
  5 62  1  0  0  0  0
  6 28  1  0  0  0  0
  6 64  1  0  0  0  0
  7 29  1  0  0  0  0
  7 65  1  0  0  0  0
  8 34  1  0  0  0  0
  8 66  1  0  0  0  0
  9 12  1  0  0  0  0
  9 17  1  0  0  0  0
  9 20  1  0  0  0  0
 10 16  1  0  0  0  0
 10 26  1  0  0  0  0
 10 48  1  0  0  0  0
 11 13  1  0  0  0  0
 11 14  1  0  0  0  0
 11 15  1  0  0  0  0
 11 37  1  0  0  0  0
 12 13  1  0  0  0  0
 12 16  1  0  0  0  0
 12 38  1  0  0  0  0
 13 39  1  0  0  0  0
 13 40  1  0  0  0  0
 14 18  1  0  0  0  0
 14 24  1  0  0  0  0
 14 41  1  0  0  0  0
 15 20  1  0  0  0  0
 15 22  2  0  0  0  0
 16 19  2  0  0  0  0
 17 21  1  0  0  0  0
 17 42  1  0  0  0  0
 17 43  1  0  0  0  0
 18 44  1  0  0  0  0
 19 21  1  0  0  0  0
 19 23  1  0  0  0  0
 21 45  1  0  0  0  0
 21 46  1  0  0  0  0
 22 47  1  0  0  0  0
 23 26  1  0  0  0  0
 23 31  2  0  0  0  0
 24 33  2  0  0  0  0
 24 49  1  0  0  0  0
 25 27  1  0  0  0  0
 25 50  1  0  0  0  0
 26 32  2  0  0  0  0
 27 28  1  0  0  0  0
 27 51  1  0  0  0  0
 28 29  1  0  0  0  0
 28 52  1  0  0  0  0
 29 30  1  0  0  0  0
 29 53  1  0  0  0  0
 30 34  1  0  0  0  0
 30 54  1  0  0  0  0
 31 35  1  0  0  0  0
 31 55  1  0  0  0  0
 32 36  1  0  0  0  0
 32 56  1  0  0  0  0
 33 59  1  0  0  0  0
 33 60  1  0  0  0  0
 34 57  1  0  0  0  0
 34 58  1  0  0  0  0
 35 36  2  0  0  0  0
 35 61  1  0  0  0  0
 36 63  1  0  0  0  0
M  END
> <PUBCHEM_COMPOUND_CID>
10345799

> <PUBCHEM_CONFORMER_RMSD>
1

> <PUBCHEM_CONFORMER_DIVERSEORDER>
1
14
32
5
28
47
37
36
42
16
29
30
24
12
38
34
4
20
25
46
11
18
35
17
45
13
40
41
8
2
31
3
22
39
23
43
33
6
15
44
10
21
7
27
9
26
19

> <PUBCHEM_MMFF94_PARTIAL_CHARGES>
47
1 -0.36
10 0.03
11 0.14
12 0.48
14 0.14
15 -0.12
16 -0.33
17 0.3
18 0.56
19 -0.18
2 -0.56
20 0.62
21 0.18
22 -0.07
24 -0.29
25 0.56
26 -0.15
27 0.28
28 0.28
29 0.28
3 -0.56
30 0.28
31 -0.15
32 -0.15
33 -0.3
34 0.28
35 -0.15
36 -0.15
4 -0.57
47 0.15
48 0.27
49 0.15
5 -0.68
55 0.15
56 0.15
59 0.15
6 -0.68
60 0.15
61 0.15
62 0.4
63 0.15
64 0.4
65 0.4
66 0.4
7 -0.68
8 -0.68
9 -0.66

> <PUBCHEM_EFFECTIVE_ROTOR_COUNT>
6.4

> <PUBCHEM_PHARMACOPHORE_FEATURES>
21
1 1 acceptor
1 10 cation
1 10 donor
1 2 acceptor
1 3 acceptor
1 33 hydrophobe
1 4 acceptor
1 5 acceptor
1 5 donor
1 6 acceptor
1 6 donor
1 7 acceptor
1 7 donor
1 8 acceptor
1 8 donor
5 10 16 19 23 26 rings
6 1 11 14 15 18 22 rings
6 23 26 31 32 35 36 rings
6 3 25 27 28 29 30 rings
6 9 11 12 13 15 20 rings
6 9 12 16 17 19 21 rings

> <PUBCHEM_HEAVY_ATOM_COUNT>
36

> <PUBCHEM_ATOM_DEF_STEREO_COUNT>
9

> <PUBCHEM_ATOM_UDEF_STEREO_COUNT>
0

> <PUBCHEM_BOND_DEF_STEREO_COUNT>
0

> <PUBCHEM_BOND_UDEF_STEREO_COUNT>
0

> <PUBCHEM_ISOTOPIC_ATOM_COUNT>
0

> <PUBCHEM_COMPONENT_COUNT>
1

> <PUBCHEM_CACTVS_TAUTO_COUNT>
1

> <PUBCHEM_CONFORMER_ID>
009DDD4700000001

> <PUBCHEM_MMFF94_ENERGY>
91.5945

> <PUBCHEM_FEATURE_SELFOVERLAP>
106.928

> <PUBCHEM_SHAPE_FINGERPRINT>
10906281 52 18342730785904621446
11049842 53 17605285179669383663
1200032 147 18042109029186539251
12107183 9 18412550937888212106
12422481 6 18272089413781756364
12788726 201 18189636985871786695
14040222 75 17188705671242511620
14294032 229 17821721712035735571
15064981 113 17530962462960496748
15163728 17 17895184550278775159
15183329 4 18341337704450494982
15297060 5 17313386781366203363
16112460 7 18413110533193035396
16708801 149 18051987930562074448
17980427 26 18271813466027593898
21033648 29 16557622131371454437
21223535 225 18337670816045389780
21756936 100 18410293605824489747
22122407 14 18341610399685968592
22889206 1 17415287405741271043
2838139 119 18334579027353345152
3388396 114 17251472984842748989
3552219 110 18269276769234602647
4144715 1 18271513213933660202
50677037 204 18125443012263332900
508180 173 17895748505402607360
5372103 7 18055931020484297773
563151 74 17774441715287176011
6034566 193 18041835225443931505
6376802 137 17483379839001990843
7288768 16 18060131021134909899

> <PUBCHEM_SHAPE_MULTIPOLES>
683.95
15.46
4.94
2.27
12.21
2.07
0.07
17.07
1
-0.68
1.12
-2.12
-1.93
-4.24

> <PUBCHEM_SHAPE_SELFOVERLAP>
1500.961

> <PUBCHEM_SHAPE_VOLUME>
360.8

> <PUBCHEM_COORDINATE_TYPE>
2
5
10

$$$$

