47205634
  -OEChem-06241222593D

 37 38  0     0  0  0  0  0  0999 V2000
    3.4746   -0.3649    0.2259 S   0  0  0  0  0  0  0  0  0  0  0  0
   -3.5802   -1.6828   -0.2028 O   0  0  0  0  0  0  0  0  0  0  0  0
    3.5496   -1.1228   -1.0077 O   0  0  0  0  0  0  0  0  0  0  0  0
    4.0470   -0.8859    1.4526 O   0  0  0  0  0  0  0  0  0  0  0  0
   -1.7133   -0.3936    0.3211 N   0  0  0  0  0  0  0  0  0  0  0  0
    1.8633    0.0793    0.5414 N   0  0  0  0  0  0  0  0  0  0  0  0
   -4.0102    0.4910    0.5393 C   0  0  0  0  0  0  0  0  0  0  0  0
   -5.3722    0.5403   -0.0888 C   0  0  0  0  0  0  0  0  0  0  0  0
   -4.3223    1.5327   -0.4946 C   0  0  0  0  0  0  0  0  0  0  0  0
    0.9472    0.3149   -0.6060 C   0  0  0  0  0  0  0  0  0  0  0  0
   -3.0849   -0.6282    0.1857 C   0  0  0  0  0  0  0  0  0  0  0  0
    0.2734   -1.0020   -1.0042 C   0  0  0  0  0  0  0  0  0  0  0  0
   -0.0880    1.3784   -0.2268 C   0  0  0  0  0  0  0  0  0  0  0  0
   -1.1130    0.8619    0.7841 C   0  0  0  0  0  0  0  0  0  0  0  0
   -0.7582   -1.4614    0.0256 C   0  0  0  0  0  0  0  0  0  0  0  0
    4.2061    1.2293   -0.0660 C   0  0  0  0  0  0  0  0  0  0  0  0
    5.6812    1.1138   -0.3788 C   0  0  0  0  0  0  0  0  0  0  0  0
   -3.9636    0.8102    1.5765 H   0  0  0  0  0  0  0  0  0  0  0  0
   -5.6546   -0.2100   -0.8167 H   0  0  0  0  0  0  0  0  0  0  0  0
   -6.1947    0.8988    0.5187 H   0  0  0  0  0  0  0  0  0  0  0  0
   -4.4374    2.5562   -0.1595 H   0  0  0  0  0  0  0  0  0  0  0  0
   -3.8871    1.4309   -1.4813 H   0  0  0  0  0  0  0  0  0  0  0  0
    1.5302    0.6954   -1.4527 H   0  0  0  0  0  0  0  0  0  0  0  0
   -0.6201    1.6863   -1.1363 H   0  0  0  0  0  0  0  0  0  0  0  0
    0.4055    2.2714    0.1746 H   0  0  0  0  0  0  0  0  0  0  0  0
    1.0091   -1.7983   -1.1572 H   0  0  0  0  0  0  0  0  0  0  0  0
   -0.2369   -0.8518   -1.9646 H   0  0  0  0  0  0  0  0  0  0  0  0
   -0.6412    0.6581    1.7520 H   0  0  0  0  0  0  0  0  0  0  0  0
   -1.8690    1.6311    0.9542 H   0  0  0  0  0  0  0  0  0  0  0  0
   -1.2752   -2.3525   -0.3447 H   0  0  0  0  0  0  0  0  0  0  0  0
   -0.2714   -1.7369    0.9684 H   0  0  0  0  0  0  0  0  0  0  0  0
    1.6567    0.5898    1.4086 H   0  0  0  0  0  0  0  0  0  0  0  0
    4.0538    1.8342    0.8328 H   0  0  0  0  0  0  0  0  0  0  0  0
    3.6814    1.6927   -0.9062 H   0  0  0  0  0  0  0  0  0  0  0  0
    6.1122    2.1045   -0.5523 H   0  0  0  0  0  0  0  0  0  0  0  0
    5.8499    0.5079   -1.2749 H   0  0  0  0  0  0  0  0  0  0  0  0
    6.2257    0.6457    0.4475 H   0  0  0  0  0  0  0  0  0  0  0  0
  1  3  2  0  0  0  0
  1  4  2  0  0  0  0
  1  6  1  0  0  0  0
  1 16  1  0  0  0  0
  2 11  2  0  0  0  0
  5 11  1  0  0  0  0
  5 14  1  0  0  0  0
  5 15  1  0  0  0  0
  6 10  1  0  0  0  0
  6 32  1  0  0  0  0
  7  8  1  0  0  0  0
  7  9  1  0  0  0  0
  7 11  1  0  0  0  0
  7 18  1  0  0  0  0
  8  9  1  0  0  0  0
  8 19  1  0  0  0  0
  8 20  1  0  0  0  0
  9 21  1  0  0  0  0
  9 22  1  0  0  0  0
 10 12  1  0  0  0  0
 10 13  1  0  0  0  0
 10 23  1  0  0  0  0
 12 15  1  0  0  0  0
 12 26  1  0  0  0  0
 12 27  1  0  0  0  0
 13 14  1  0  0  0  0
 13 24  1  0  0  0  0
 13 25  1  0  0  0  0
 14 28  1  0  0  0  0
 14 29  1  0  0  0  0
 15 30  1  0  0  0  0
 15 31  1  0  0  0  0
 16 17  1  0  0  0  0
 16 33  1  0  0  0  0
 16 34  1  0  0  0  0
 17 35  1  0  0  0  0
 17 36  1  0  0  0  0
 17 37  1  0  0  0  0
M  END
> <PUBCHEM_COMPOUND_CID>
47205634

> <PUBCHEM_CONFORMER_RMSD>
0.8

> <PUBCHEM_CONFORMER_DIVERSEORDER>
1
60
9
45
56
71
31
42
37
64
41
70
73
62
65
69
29
68
67
26
14
55
21
48
18
72
54
51
61
12
49
50
20
17
44
30
59
7
58
43
15
39
33
25
8
23
63
53
47
16
27
5
36
24
46
34
19
28
52
40
57
32
22
11
35
66
38
13
6
3
10
2
4

> <PUBCHEM_MMFF94_PARTIAL_CHARGES>
20
1 1.33
10 0.36
11 0.63
14 0.3
15 0.3
16 0.11
18 0.1
19 0.1
2 -0.57
20 0.1
21 0.1
22 0.1
3 -0.65
32 0.42
4 -0.65
5 -0.66
6 -0.91
7 -0.1
8 -0.2
9 -0.2

> <PUBCHEM_EFFECTIVE_ROTOR_COUNT>
6.8

> <PUBCHEM_PHARMACOPHORE_FEATURES>
5
1 2 acceptor
1 3 acceptor
1 4 acceptor
1 6 donor
6 5 10 12 13 14 15 rings

> <PUBCHEM_HEAVY_ATOM_COUNT>
17

> <PUBCHEM_ATOM_DEF_STEREO_COUNT>
0

> <PUBCHEM_ATOM_UDEF_STEREO_COUNT>
0

> <PUBCHEM_BOND_DEF_STEREO_COUNT>
0

> <PUBCHEM_BOND_UDEF_STEREO_COUNT>
0

> <PUBCHEM_ISOTOPIC_ATOM_COUNT>
0

> <PUBCHEM_COMPONENT_COUNT>
1

> <PUBCHEM_CACTVS_TAUTO_COUNT>
1

> <PUBCHEM_CONFORMER_ID>
02D04D0200000001

> <PUBCHEM_MMFF94_ENERGY>
18.9616

> <PUBCHEM_FEATURE_SELFOVERLAP>
25.389

> <PUBCHEM_SHAPE_FINGERPRINT>
10014705 185 18412827993190340781
10062212 137 18410860936739394131
10366900 7 16515681152164673642
11132069 177 18260551142701128331
11401426 45 18409166610631907797
117890 112 18411138060497567529
12011746 2 17822005406972507028
12119455 92 17313109673891236607
12236239 1 18131914862183341024
124424 183 18202283611157112633
12596602 18 17275103920769693929
12670546 56 17417819482072227501
13533116 47 16878219878427817798
13675066 3 17775560961962317347
13760787 19 18413390916909910114
14123255 352 18343587373670614805
14251764 18 18342176648495935339
15048467 5 18130787837243330972
15196674 1 18409446981564958326
15375358 24 18335416889552557719
17834072 14 18408038524423226717
17834072 33 18336546027938490500
17834076 25 18408885131080830316
18186145 218 13470684845481763614
200 152 16298105414931134169
20621476 66 18338510945886990833
20645477 56 18409446982144921161
20645477 70 17749664198953496358
21150785 3 17313389980568576405
22485316 2 18272089392000594274
23402539 116 18334580122353753981
23402655 69 17967249810353141764
23559900 14 18187638133444683630
296302 2 18342736308166836698
300161 21 18342179951246788016
34934 24 18410014359888085727
4072396 5 18337683025961782787
5104073 3 18413108346626680610
5374978 207 18343024410811056128
633830 44 18411702101414860902
7495541 125 10447919573186152158

> <PUBCHEM_SHAPE_MULTIPOLES>
326.13
11.64
1.58
0.94
2.65
0.07
-0.06
-3.23
0.01
-0.23
0.17
0.47
0.12
-0.13

> <PUBCHEM_SHAPE_SELFOVERLAP>
637.047

> <PUBCHEM_SHAPE_VOLUME>
197.5

> <PUBCHEM_COORDINATE_TYPE>
2
5
10

$$$$

