13155
  -OEChem-06261207492D

 15 13  0     1  0  0  0  0  0999 V2000
    2.0000    0.7886    0.0000 Cu  0  2  0  0  0  0  0  0  0  0  0  0
    4.3802   -1.3942    0.0000 O   0  0  0  0  0  0  0  0  0  0  0  0
    5.1906    0.2886    0.0000 O   0  0  0  0  0  0  0  0  0  0  0  0
    2.0000   -0.2114    0.0000 O   0  5  0  0  0  0  0  0  0  0  0  0
    2.5593   -1.8098    0.0000 O   0  0  0  0  0  0  0  0  0  0  0  0
    2.7818    1.4121    0.0000 O   0  5  0  0  0  0  0  0  0  0  0  0
    4.3802    1.9714    0.0000 O   0  0  0  0  0  0  0  0  0  0  0  0
    3.7568   -0.6124    0.0000 C   0  0  2  0  0  0  0  0  0  0  0  0
    4.1906    0.2886    0.0000 C   0  0  2  0  0  0  0  0  0  0  0  0
    2.7818   -0.8349    0.0000 C   0  0  0  0  0  0  0  0  0  0  0  0
    3.7568    1.1895    0.0000 C   0  0  0  0  0  0  0  0  0  0  0  0
    4.3729   -0.5430    0.0000 H   0  0  0  0  0  0  0  0  0  0  0  0
    4.5205    0.8135    0.0000 H   0  0  0  0  0  0  0  0  0  0  0  0
    4.1537   -1.9714    0.0000 H   0  0  0  0  0  0  0  0  0  0  0  0
    5.5006    0.8255    0.0000 H   0  0  0  0  0  0  0  0  0  0  0  0
  8  2  1  1  0  0  0
  2 14  1  0  0  0  0
  9  3  1  6  0  0  0
  3 15  1  0  0  0  0
  4 10  1  0  0  0  0
  5 10  2  0  0  0  0
  6 11  1  0  0  0  0
  7 11  2  0  0  0  0
  8  9  1  0  0  0  0
  8 10  1  0  0  0  0
  8 12  1  0  0  0  0
  9 11  1  0  0  0  0
  9 13  1  0  0  0  0
M  CHG  3   1   2   4  -1   6  -1
M  END
> <PUBCHEM_COMPOUND_CID>
13155

> <PUBCHEM_COMPOUND_CANONICALIZED>
1

> <PUBCHEM_CACTVS_COMPLEXITY>
123

> <PUBCHEM_CACTVS_HBOND_ACCEPTOR>
6

> <PUBCHEM_CACTVS_HBOND_DONOR>
2

> <PUBCHEM_CACTVS_ROTATABLE_BOND>
1

> <PUBCHEM_CACTVS_SUBSKEYS>
AAADcYBgOAAAAAAEAAAAAAAAAAAAAAAAAAAAAAAAAAAAAAAAAAAAGgAACAAACBSggAIACAAAAgAIAACQCAIAAAAAAAAAAAFAAAABEBQAAAAAQAAFIAABAABDAAAAAAAAAAAAAAAAAAAAAAAAAAAAAAAAAA==

> <PUBCHEM_IUPAC_OPENEYE_NAME>
copper (2R,3R)-2,3-dihydroxybutanedioate

> <PUBCHEM_IUPAC_CAS_NAME>
copper (2R,3R)-2,3-dihydroxybutanedioate

> <PUBCHEM_IUPAC_NAME>
copper (2R,3R)-2,3-dihydroxybutanedioate

> <PUBCHEM_IUPAC_SYSTEMATIC_NAME>
copper (2R,3R)-2,3-bis(oxidanyl)butanedioate

> <PUBCHEM_IUPAC_TRADITIONAL_NAME>
cupric (2R,3R)-2,3-dihydroxysuccinate

> <PUBCHEM_IUPAC_INCHI>
InChI=1S/C4H6O6.Cu/c5-1(3(7)8)2(6)4(9)10;/h1-2,5-6H,(H,7,8)(H,9,10);/q;+2/p-2/t1-,2-;/m1./s1

> <PUBCHEM_IUPAC_INCHIKEY>
RSJOBNMOMQFPKQ-ZVGUSBNCSA-L

> <PUBCHEM_EXACT_MASS>
210.930385

> <PUBCHEM_MOLECULAR_FORMULA>
C4H4CuO6

> <PUBCHEM_MOLECULAR_WEIGHT>
211.61696

> <PUBCHEM_OPENEYE_CAN_SMILES>
C(C(C(=O)[O-])O)(C(=O)[O-])O.[Cu+2]

> <PUBCHEM_OPENEYE_ISO_SMILES>
[C@@H]([C@H](C(=O)[O-])O)(C(=O)[O-])O.[Cu+2]

> <PUBCHEM_CACTVS_TPSA>
121

> <PUBCHEM_MONOISOTOPIC_WEIGHT>
210.930385

> <PUBCHEM_TOTAL_CHARGE>
0

> <PUBCHEM_HEAVY_ATOM_COUNT>
11

> <PUBCHEM_ATOM_DEF_STEREO_COUNT>
2

> <PUBCHEM_ATOM_UDEF_STEREO_COUNT>
0

> <PUBCHEM_BOND_DEF_STEREO_COUNT>
0

> <PUBCHEM_BOND_UDEF_STEREO_COUNT>
0

> <PUBCHEM_ISOTOPIC_ATOM_COUNT>
0

> <PUBCHEM_COMPONENT_COUNT>
2

> <PUBCHEM_CACTVS_TAUTO_COUNT>
1

> <PUBCHEM_COORDINATE_TYPE>
1
5
255

> <PUBCHEM_BONDANNOTATIONS>
8  2  5
9  3  6

$$$$

