440719
  -OEChem-07051212502D

 29 28  0     1  0  0  0  0  0999 V2000
    2.8660    1.8100    0.0000 O   0  0  0  0  0  0  0  0  0  0  0  0
    3.7320    3.3100    0.0000 O   0  0  0  0  0  0  0  0  0  0  0  0
    2.0000   -0.6900    0.0000 O   0  0  0  0  0  0  0  0  0  0  0  0
    6.3301    0.8100    0.0000 O   0  0  0  0  0  0  0  0  0  0  0  0
    2.0000   -2.6900    0.0000 O   0  0  0  0  0  0  0  0  0  0  0  0
    3.7320   -2.6900    0.0000 O   0  0  0  0  0  0  0  0  0  0  0  0
    5.4641    2.3100    0.0000 N   0  0  0  0  0  0  0  0  0  0  0  0
    4.5981    0.8100    0.0000 C   0  0  0  0  0  0  0  0  0  0  0  0
    4.5981    1.8100    0.0000 C   0  0  1  0  0  0  0  0  0  0  0  0
    3.7320    0.3100    0.0000 C   0  0  0  0  0  0  0  0  0  0  0  0
    3.7320   -0.6900    0.0000 C   0  0  0  0  0  0  0  0  0  0  0  0
    3.7320    2.3100    0.0000 C   0  0  0  0  0  0  0  0  0  0  0  0
    2.8660   -1.1900    0.0000 C   0  0  0  0  0  0  0  0  0  0  0  0
    6.3301    1.8100    0.0000 C   0  0  0  0  0  0  0  0  0  0  0  0
    7.1962    2.3100    0.0000 C   0  0  0  0  0  0  0  0  0  0  0  0
    2.8660   -2.1900    0.0000 C   0  0  0  0  0  0  0  0  0  0  0  0
    4.8101    0.2274    0.0000 H   0  0  0  0  0  0  0  0  0  0  0  0
    5.2087    0.9177    0.0000 H   0  0  0  0  0  0  0  0  0  0  0  0
    4.5981    2.4300    0.0000 H   0  0  0  0  0  0  0  0  0  0  0  0
    3.5200    0.8926    0.0000 H   0  0  0  0  0  0  0  0  0  0  0  0
    3.1215    0.2023    0.0000 H   0  0  0  0  0  0  0  0  0  0  0  0
    3.9441   -1.2726    0.0000 H   0  0  0  0  0  0  0  0  0  0  0  0
    4.3426   -0.5823    0.0000 H   0  0  0  0  0  0  0  0  0  0  0  0
    5.4641    2.9300    0.0000 H   0  0  0  0  0  0  0  0  0  0  0  0
    7.5062    1.7731    0.0000 H   0  0  0  0  0  0  0  0  0  0  0  0
    7.7331    2.6200    0.0000 H   0  0  0  0  0  0  0  0  0  0  0  0
    6.8862    2.8469    0.0000 H   0  0  0  0  0  0  0  0  0  0  0  0
    2.3291    2.1200    0.0000 H   0  0  0  0  0  0  0  0  0  0  0  0
    2.0000   -3.3100    0.0000 H   0  0  0  0  0  0  0  0  0  0  0  0
  1 12  1  0  0  0  0
  1 28  1  0  0  0  0
  2 12  2  0  0  0  0
  3 13  2  0  0  0  0
  4 14  2  0  0  0  0
  5 16  1  0  0  0  0
  5 29  1  0  0  0  0
  6 16  2  0  0  0  0
  9  7  1  1  0  0  0
  7 14  1  0  0  0  0
  7 24  1  0  0  0  0
  8  9  1  0  0  0  0
  8 10  1  0  0  0  0
  8 17  1  0  0  0  0
  8 18  1  0  0  0  0
  9 12  1  0  0  0  0
  9 19  1  0  0  0  0
 10 11  1  0  0  0  0
 10 20  1  0  0  0  0
 10 21  1  0  0  0  0
 11 13  1  0  0  0  0
 11 22  1  0  0  0  0
 11 23  1  0  0  0  0
 13 16  1  0  0  0  0
 14 15  1  0  0  0  0
 15 25  1  0  0  0  0
 15 26  1  0  0  0  0
 15 27  1  0  0  0  0
M  END
> <PUBCHEM_COMPOUND_CID>
440719

> <PUBCHEM_COMPOUND_CANONICALIZED>
1

> <PUBCHEM_CACTVS_COMPLEXITY>
311

> <PUBCHEM_CACTVS_HBOND_ACCEPTOR>
6

> <PUBCHEM_CACTVS_HBOND_DONOR>
3

> <PUBCHEM_CACTVS_ROTATABLE_BOND>
7

> <PUBCHEM_CACTVS_SUBSKEYS>
AAADccByOAAAAAAAAAAAAAAAAAAAAAAAAAAAAAAAAAAAAAAAAAAAHgAQCAAACCzBgAQCCALAAgAIAIGQGAIAAAAAAAAAAIHIAAACABIAgCAEQAAEFgCQAAGYySCQAAAAAAAAAAAAAAAAAAAAAAAAAAAAAA==

> <PUBCHEM_IUPAC_OPENEYE_NAME>
(2S)-2-acetamido-6-oxo-heptanedioic acid

> <PUBCHEM_IUPAC_CAS_NAME>
(2S)-2-acetamido-6-oxoheptanedioic acid

> <PUBCHEM_IUPAC_NAME>
(2S)-2-acetamido-6-oxoheptanedioic acid

> <PUBCHEM_IUPAC_SYSTEMATIC_NAME>
(2S)-2-acetamido-6-oxidanylidene-heptanedioic acid

> <PUBCHEM_IUPAC_TRADITIONAL_NAME>
(2S)-2-acetamido-6-keto-pimelic acid

> <PUBCHEM_IUPAC_INCHI>
InChI=1S/C9H13NO6/c1-5(11)10-6(8(13)14)3-2-4-7(12)9(15)16/h6H,2-4H2,1H3,(H,10,11)(H,13,14)(H,15,16)/t6-/m0/s1

> <PUBCHEM_IUPAC_INCHIKEY>
RVHKMLVNOXVQRH-LURJTMIESA-N

> <PUBCHEM_XLOGP3_AA>
-0.7

> <PUBCHEM_EXACT_MASS>
231.074287

> <PUBCHEM_MOLECULAR_FORMULA>
C9H13NO6

> <PUBCHEM_MOLECULAR_WEIGHT>
231.20262

> <PUBCHEM_OPENEYE_CAN_SMILES>
CC(=O)NC(CCCC(=O)C(=O)O)C(=O)O

> <PUBCHEM_OPENEYE_ISO_SMILES>
CC(=O)N[C@@H](CCCC(=O)C(=O)O)C(=O)O

> <PUBCHEM_CACTVS_TPSA>
121

> <PUBCHEM_MONOISOTOPIC_WEIGHT>
231.074287

> <PUBCHEM_TOTAL_CHARGE>
0

> <PUBCHEM_HEAVY_ATOM_COUNT>
16

> <PUBCHEM_ATOM_DEF_STEREO_COUNT>
1

> <PUBCHEM_ATOM_UDEF_STEREO_COUNT>
0

> <PUBCHEM_BOND_DEF_STEREO_COUNT>
0

> <PUBCHEM_BOND_UDEF_STEREO_COUNT>
0

> <PUBCHEM_ISOTOPIC_ATOM_COUNT>
0

> <PUBCHEM_COMPONENT_COUNT>
1

> <PUBCHEM_CACTVS_TAUTO_COUNT>
4

> <PUBCHEM_COORDINATE_TYPE>
1
5
255

> <PUBCHEM_BONDANNOTATIONS>
9  7  5

$$$$

