72493
  -OEChem-07051212463D

109112  0     1  0  0  0  0  0999 V2000
   -2.1589    0.8811    2.1020 O   0  0  0  0  0  0  0  0  0  0  0  0
    2.1757    1.3953   -0.3703 O   0  0  0  0  0  0  0  0  0  0  0  0
   -0.4903   -2.0390   -0.7888 O   0  0  0  0  0  0  0  0  0  0  0  0
    3.8642    0.2184    0.7289 O   0  0  0  0  0  0  0  0  0  0  0  0
   -2.4176    4.2543    2.3527 O   0  0  0  0  0  0  0  0  0  0  0  0
   -4.0540    0.5854   -1.3337 O   0  0  0  0  0  0  0  0  0  0  0  0
   -5.1095    4.3202    0.8964 O   0  0  0  0  0  0  0  0  0  0  0  0
    0.5054   -2.8249    1.2193 O   0  0  0  0  0  0  0  0  0  0  0  0
    4.0970    2.4822   -2.1319 O   0  0  0  0  0  0  0  0  0  0  0  0
   -3.8811   -1.5690   -0.5212 O   0  0  0  0  0  0  0  0  0  0  0  0
   -1.7140   -6.1711    0.2173 O   0  0  0  0  0  0  0  0  0  0  0  0
    1.1634   -6.2598    0.0695 O   0  0  0  0  0  0  0  0  0  0  0  0
    6.8279    2.6269   -0.9746 N   0  0  0  0  0  0  0  0  0  0  0  0
   -1.4565    2.1286    2.0056 C   0  0  2  0  0  0  0  0  0  0  0  0
   -0.0541    2.0778    1.4249 C   0  0  0  0  0  0  0  0  0  0  0  0
    0.6377    0.6932    1.3540 C   0  0  1  0  0  0  0  0  0  0  0  0
    1.2166    0.3784   -0.0568 C   0  0  1  0  0  0  0  0  0  0  0  0
   -1.7355    1.4582    3.3404 C   0  0  0  0  0  0  0  0  0  0  0  0
    0.1709    0.2851   -1.2128 C   0  0  2  0  0  0  0  0  0  0  0  0
   -2.3392    3.2706    1.6250 C   0  0  0  0  0  0  0  0  0  0  0  0
   -0.9843   -0.7077   -0.9130 C   0  0  1  0  0  0  0  0  0  0  0  0
   -3.0842    3.1391    0.2961 C   0  0  1  0  0  0  0  0  0  0  0  0
    1.7666    0.6310    2.3991 C   0  0  0  0  0  0  0  0  0  0  0  0
   -4.5956    3.0155    0.5975 C   0  0  2  0  0  0  0  0  0  0  0  0
   -2.1374   -0.6531   -1.9470 C   0  0  2  0  0  0  0  0  0  0  0  0
    3.4870    0.8453   -0.4955 C   0  0  2  0  0  0  0  0  0  0  0  0
    0.8818   -0.0627   -2.5331 C   0  0  0  0  0  0  0  0  0  0  0  0
   -5.5146    2.3565   -0.4738 C   0  0  2  0  0  0  0  0  0  0  0  0
    4.4472    1.9889   -0.8397 C   0  0  1  0  0  0  0  0  0  0  0  0
    5.9022    1.5008   -0.8431 C   0  0  2  0  0  0  0  0  0  0  0  0
   -2.6708    4.3306   -0.5704 C   0  0  0  0  0  0  0  0  0  0  0  0
   -5.2817    0.8281   -0.6169 C   0  0  1  0  0  0  0  0  0  0  0  0
    6.2114    0.7316    0.4436 C   0  0  0  0  0  0  0  0  0  0  0  0
    5.1683   -0.3637    0.6690 C   0  0  1  0  0  0  0  0  0  0  0  0
   -0.7116   -2.5564    0.5199 C   0  0  2  0  0  0  0  0  0  0  0  0
   -3.4564   -0.6323   -1.1856 C   0  0  0  0  0  0  0  0  0  0  0  0
   -2.1794   -1.8086   -2.9456 C   0  0  0  0  0  0  0  0  0  0  0  0
   -1.6242   -3.7803    0.5052 C   0  0  0  0  0  0  0  0  0  0  0  0
   -5.4904    3.0859   -1.8218 C   0  0  0  0  0  0  0  0  0  0  0  0
   -0.9038   -5.0215   -0.0182 C   0  0  1  0  0  0  0  0  0  0  0  0
    0.4360   -5.2056    0.6953 C   0  0  2  0  0  0  0  0  0  0  0  0
    1.2550   -3.9096    0.6661 C   0  0  2  0  0  0  0  0  0  0  0  0
   -6.4312    0.1511   -1.3681 C   0  0  0  0  0  0  0  0  0  0  0  0
    5.4131   -1.0916    1.9836 C   0  0  0  0  0  0  0  0  0  0  0  0
    6.8846    3.0810   -2.3631 C   0  0  0  0  0  0  0  0  0  0  0  0
    8.1599    2.2496   -0.5044 C   0  0  0  0  0  0  0  0  0  0  0  0
    2.5390   -4.0399    1.4799 C   0  0  0  0  0  0  0  0  0  0  0  0
   -2.7342   -6.2941   -0.7619 C   0  0  0  0  0  0  0  0  0  0  0  0
   -0.1084    2.5159    0.4230 H   0  0  0  0  0  0  0  0  0  0  0  0
    0.5603    2.7798    2.0035 H   0  0  0  0  0  0  0  0  0  0  0  0
   -0.0545   -0.0986    1.6320 H   0  0  0  0  0  0  0  0  0  0  0  0
    1.6988   -0.6077    0.0031 H   0  0  0  0  0  0  0  0  0  0  0  0
   -0.9305    0.9696    3.8715 H   0  0  0  0  0  0  0  0  0  0  0  0
   -2.5019    1.8718    3.9844 H   0  0  0  0  0  0  0  0  0  0  0  0
   -0.2640    1.2818   -1.3603 H   0  0  0  0  0  0  0  0  0  0  0  0
   -1.4217   -0.3456    0.0192 H   0  0  0  0  0  0  0  0  0  0  0  0
   -2.7200    2.2280   -0.1844 H   0  0  0  0  0  0  0  0  0  0  0  0
    2.5054    1.4268    2.2683 H   0  0  0  0  0  0  0  0  0  0  0  0
    1.3496    0.7658    3.4036 H   0  0  0  0  0  0  0  0  0  0  0  0
    2.2492   -0.3507    2.4022 H   0  0  0  0  0  0  0  0  0  0  0  0
   -4.7248    2.4309    1.5183 H   0  0  0  0  0  0  0  0  0  0  0  0
   -2.0777    0.2862   -2.5120 H   0  0  0  0  0  0  0  0  0  0  0  0
    3.4789    0.1012   -1.3029 H   0  0  0  0  0  0  0  0  0  0  0  0
    1.3683   -1.0420   -2.4802 H   0  0  0  0  0  0  0  0  0  0  0  0
    0.1808   -0.0727   -3.3723 H   0  0  0  0  0  0  0  0  0  0  0  0
    1.6430    0.6833   -2.7815 H   0  0  0  0  0  0  0  0  0  0  0  0
   -6.5368    2.4876   -0.0879 H   0  0  0  0  0  0  0  0  0  0  0  0
    4.3158    2.8096   -0.1233 H   0  0  0  0  0  0  0  0  0  0  0  0
    6.0462    0.8024   -1.6810 H   0  0  0  0  0  0  0  0  0  0  0  0
   -3.0637    4.2560   -1.5854 H   0  0  0  0  0  0  0  0  0  0  0  0
   -1.5786    4.3813   -0.6526 H   0  0  0  0  0  0  0  0  0  0  0  0
   -2.9998    5.2849   -0.1460 H   0  0  0  0  0  0  0  0  0  0  0  0
   -5.2096    0.3921    0.3879 H   0  0  0  0  0  0  0  0  0  0  0  0
    6.1879    1.4172    1.3022 H   0  0  0  0  0  0  0  0  0  0  0  0
    7.1862    0.2321    0.4161 H   0  0  0  0  0  0  0  0  0  0  0  0
    5.1931   -1.0969   -0.1473 H   0  0  0  0  0  0  0  0  0  0  0  0
   -1.2384   -1.8396    1.1563 H   0  0  0  0  0  0  0  0  0  0  0  0
   -1.2462   -1.8864   -3.5101 H   0  0  0  0  0  0  0  0  0  0  0  0
   -2.9936   -1.6597   -3.6639 H   0  0  0  0  0  0  0  0  0  0  0  0
   -2.3616   -2.7707   -2.4552 H   0  0  0  0  0  0  0  0  0  0  0  0
   -1.9687   -3.9885    1.5270 H   0  0  0  0  0  0  0  0  0  0  0  0
   -2.5157   -3.5858   -0.0941 H   0  0  0  0  0  0  0  0  0  0  0  0
   -4.5758    2.8785   -2.3840 H   0  0  0  0  0  0  0  0  0  0  0  0
   -6.3334    2.7725   -2.4465 H   0  0  0  0  0  0  0  0  0  0  0  0
   -5.5800    4.1690   -1.6909 H   0  0  0  0  0  0  0  0  0  0  0  0
   -0.7126   -4.9230   -1.0958 H   0  0  0  0  0  0  0  0  0  0  0  0
    0.2500   -5.5141    1.7316 H   0  0  0  0  0  0  0  0  0  0  0  0
   -4.6241    4.6608    1.6668 H   0  0  0  0  0  0  0  0  0  0  0  0
    1.5409   -3.6608   -0.3643 H   0  0  0  0  0  0  0  0  0  0  0  0
   -7.3983    0.3899   -0.9153 H   0  0  0  0  0  0  0  0  0  0  0  0
   -6.3146   -0.9376   -1.3561 H   0  0  0  0  0  0  0  0  0  0  0  0
   -6.4478    0.4437   -2.4229 H   0  0  0  0  0  0  0  0  0  0  0  0
    6.3834   -1.5974    1.9823 H   0  0  0  0  0  0  0  0  0  0  0  0
    4.6344   -1.8312    2.1761 H   0  0  0  0  0  0  0  0  0  0  0  0
    5.3859   -0.3922    2.8270 H   0  0  0  0  0  0  0  0  0  0  0  0
    4.1979    1.7548   -2.7695 H   0  0  0  0  0  0  0  0  0  0  0  0
    7.0666    2.2648   -3.0716 H   0  0  0  0  0  0  0  0  0  0  0  0
    5.9871    3.6271   -2.6600 H   0  0  0  0  0  0  0  0  0  0  0  0
    7.6955    3.8090   -2.4926 H   0  0  0  0  0  0  0  0  0  0  0  0
    8.8737    3.0532   -0.7277 H   0  0  0  0  0  0  0  0  0  0  0  0
    8.5441    1.3453   -0.9915 H   0  0  0  0  0  0  0  0  0  0  0  0
    8.2157    2.1515    0.5849 H   0  0  0  0  0  0  0  0  0  0  0  0
    3.0924   -3.1001    1.4337 H   0  0  0  0  0  0  0  0  0  0  0  0
    3.1818   -4.8398    1.1016 H   0  0  0  0  0  0  0  0  0  0  0  0
    2.3195   -4.2288    2.5362 H   0  0  0  0  0  0  0  0  0  0  0  0
    1.3485   -5.9926   -0.8469 H   0  0  0  0  0  0  0  0  0  0  0  0
   -3.4544   -5.4744   -0.6972 H   0  0  0  0  0  0  0  0  0  0  0  0
   -2.3083   -6.3484   -1.7687 H   0  0  0  0  0  0  0  0  0  0  0  0
   -3.2724   -7.2272   -0.5718 H   0  0  0  0  0  0  0  0  0  0  0  0
  1 14  1  0  0  0  0
  1 18  1  0  0  0  0
  2 17  1  0  0  0  0
  2 26  1  0  0  0  0
  3 21  1  0  0  0  0
  3 35  1  0  0  0  0
  4 26  1  0  0  0  0
  4 34  1  0  0  0  0
  5 20  2  0  0  0  0
  6 32  1  0  0  0  0
  6 36  1  0  0  0  0
  7 24  1  0  0  0  0
  7 88  1  0  0  0  0
  8 35  1  0  0  0  0
  8 42  1  0  0  0  0
  9 29  1  0  0  0  0
  9 96  1  0  0  0  0
 10 36  2  0  0  0  0
 11 40  1  0  0  0  0
 11 48  1  0  0  0  0
 12 41  1  0  0  0  0
 12106  1  0  0  0  0
 13 30  1  0  0  0  0
 13 45  1  0  0  0  0
 13 46  1  0  0  0  0
 14 15  1  0  0  0  0
 14 18  1  0  0  0  0
 14 20  1  0  0  0  0
 15 16  1  0  0  0  0
 15 49  1  0  0  0  0
 15 50  1  0  0  0  0
 16 17  1  0  0  0  0
 16 23  1  0  0  0  0
 16 51  1  0  0  0  0
 17 19  1  0  0  0  0
 17 52  1  0  0  0  0
 18 53  1  0  0  0  0
 18 54  1  0  0  0  0
 19 21  1  0  0  0  0
 19 27  1  0  0  0  0
 19 55  1  0  0  0  0
 20 22  1  0  0  0  0
 21 25  1  0  0  0  0
 21 56  1  0  0  0  0
 22 24  1  0  0  0  0
 22 31  1  0  0  0  0
 22 57  1  0  0  0  0
 23 58  1  0  0  0  0
 23 59  1  0  0  0  0
 23 60  1  0  0  0  0
 24 28  1  0  0  0  0
 24 61  1  0  0  0  0
 25 36  1  0  0  0  0
 25 37  1  0  0  0  0
 25 62  1  0  0  0  0
 26 29  1  0  0  0  0
 26 63  1  0  0  0  0
 27 64  1  0  0  0  0
 27 65  1  0  0  0  0
 27 66  1  0  0  0  0
 28 32  1  0  0  0  0
 28 39  1  0  0  0  0
 28 67  1  0  0  0  0
 29 30  1  0  0  0  0
 29 68  1  0  0  0  0
 30 33  1  0  0  0  0
 30 69  1  0  0  0  0
 31 70  1  0  0  0  0
 31 71  1  0  0  0  0
 31 72  1  0  0  0  0
 32 43  1  0  0  0  0
 32 73  1  0  0  0  0
 33 34  1  0  0  0  0
 33 74  1  0  0  0  0
 33 75  1  0  0  0  0
 34 44  1  0  0  0  0
 34 76  1  0  0  0  0
 35 38  1  0  0  0  0
 35 77  1  0  0  0  0
 37 78  1  0  0  0  0
 37 79  1  0  0  0  0
 37 80  1  0  0  0  0
 38 40  1  0  0  0  0
 38 81  1  0  0  0  0
 38 82  1  0  0  0  0
 39 83  1  0  0  0  0
 39 84  1  0  0  0  0
 39 85  1  0  0  0  0
 40 41  1  0  0  0  0
 40 86  1  0  0  0  0
 41 42  1  0  0  0  0
 41 87  1  0  0  0  0
 42 47  1  0  0  0  0
 42 89  1  0  0  0  0
 43 90  1  0  0  0  0
 43 91  1  0  0  0  0
 43 92  1  0  0  0  0
 44 93  1  0  0  0  0
 44 94  1  0  0  0  0
 44 95  1  0  0  0  0
 45 97  1  0  0  0  0
 45 98  1  0  0  0  0
 45 99  1  0  0  0  0
 46100  1  0  0  0  0
 46101  1  0  0  0  0
 46102  1  0  0  0  0
 47103  1  0  0  0  0
 47104  1  0  0  0  0
 47105  1  0  0  0  0
 48107  1  0  0  0  0
 48108  1  0  0  0  0
 48109  1  0  0  0  0
M  END
> <PUBCHEM_COMPOUND_CID>
72493

> <PUBCHEM_CONFORMER_RMSD>
1.2

> <PUBCHEM_CONFORMER_DIVERSEORDER>
1
8
23
14
12
6
24
10
15
16
21
29
9
11
4
25
27
19
20
18
2
13
17
22
28
5
26
3
7
30

> <PUBCHEM_MMFF94_PARTIAL_CHARGES>
40
1 -0.3
10 -0.57
106 0.4
11 -0.56
12 -0.68
13 -0.81
14 0.05
15 0.09
17 0.28
18 -0.05
2 -0.56
20 0.51
21 0.28
22 0.06
24 0.28
25 0.06
26 0.56
29 0.28
3 -0.56
30 0.27
32 0.28
34 0.28
35 0.56
36 0.66
4 -0.56
40 0.28
41 0.28
42 0.28
45 0.27
46 0.27
48 0.28
5 -0.57
53 0.1
54 0.1
6 -0.43
7 -0.68
8 -0.56
88 0.4
9 -0.68
96 0.4

> <PUBCHEM_EFFECTIVE_ROTOR_COUNT>
11

> <PUBCHEM_PHARMACOPHORE_FEATURES>
17
1 1 acceptor
1 10 acceptor
1 11 acceptor
1 12 acceptor
1 12 donor
1 13 cation
1 2 acceptor
1 3 acceptor
1 4 acceptor
1 5 acceptor
1 7 acceptor
1 7 donor
1 8 acceptor
1 9 acceptor
1 9 donor
6 4 26 29 30 33 34 rings
6 8 35 38 40 41 42 rings

> <PUBCHEM_HEAVY_ATOM_COUNT>
48

> <PUBCHEM_ATOM_DEF_STEREO_COUNT>
18

> <PUBCHEM_ATOM_UDEF_STEREO_COUNT>
0

> <PUBCHEM_BOND_DEF_STEREO_COUNT>
0

> <PUBCHEM_BOND_UDEF_STEREO_COUNT>
0

> <PUBCHEM_ISOTOPIC_ATOM_COUNT>
0

> <PUBCHEM_COMPONENT_COUNT>
1

> <PUBCHEM_CACTVS_TAUTO_COUNT>
2

> <PUBCHEM_CONFORMER_ID>
00011B2D00000001

> <PUBCHEM_MMFF94_ENERGY>
154.9221

> <PUBCHEM_FEATURE_SELFOVERLAP>
86.352

> <PUBCHEM_SHAPE_FINGERPRINT>
11007060 377 18334003995973795032
11285246 1 17538592931781292767
11297750 10 17616252477464572479
11991303 11 18335972113097262052
12788726 201 18187644674553261776
14790565 3 18340493373455995742
15200665 1 18339630200940667878
15790856 291 17968674730141780686
16112460 7 18343867719466214512
19319366 153 18263654016328652519
4058900 60 18411699928092583798
4616759 239 18121229684517377248

> <PUBCHEM_SHAPE_MULTIPOLES>
912.4
14.46
8.54
2.58
19.46
15.24
-0.35
-18.23
6.26
-5.68
-1.22
-0.17
-1.5
-4.38

> <PUBCHEM_SHAPE_SELFOVERLAP>
1854.39

> <PUBCHEM_SHAPE_VOLUME>
527.6

> <PUBCHEM_COORDINATE_TYPE>
2
5
10

$$$$

