70364
  -OEChem-07051212453D

 30 30  0     1  0  0  0  0  0999 V2000
   -1.4817   -1.1159   -0.4909 O   0  0  0  0  0  0  0  0  0  0  0  0
   -2.9148   -0.2856    1.1134 O   0  0  0  0  0  0  0  0  0  0  0  0
    4.1646   -0.8520    0.0333 O   0  0  0  0  0  0  0  0  0  0  0  0
   -3.0997    2.0021   -0.4227 N   0  0  0  0  0  0  0  0  0  0  0  0
   -0.7322    1.9448    0.2072 C   0  0  0  0  0  0  0  0  0  0  0  0
   -1.8729    1.2077   -0.5076 C   0  0  1  0  0  0  0  0  0  0  0  0
    0.5787    1.1957    0.1604 C   0  0  0  0  0  0  0  0  0  0  0  0
   -2.1636   -0.1260    0.1595 C   0  0  0  0  0  0  0  0  0  0  0  0
    0.8838    0.2990    1.1712 C   0  0  0  0  0  0  0  0  0  0  0  0
    1.4507    1.4206   -0.8923 C   0  0  0  0  0  0  0  0  0  0  0  0
    2.0948   -0.3919    1.1282 C   0  0  0  0  0  0  0  0  0  0  0  0
    2.6616    0.7296   -0.9352 C   0  0  0  0  0  0  0  0  0  0  0  0
    2.9837   -0.1767    0.0749 C   0  0  0  0  0  0  0  0  0  0  0  0
   -1.6860   -2.4400    0.0116 C   0  0  0  0  0  0  0  0  0  0  0  0
   -0.8668   -3.4114   -0.8110 C   0  0  0  0  0  0  0  0  0  0  0  0
   -0.9949    2.1289    1.2587 H   0  0  0  0  0  0  0  0  0  0  0  0
   -0.5910    2.9399   -0.2365 H   0  0  0  0  0  0  0  0  0  0  0  0
   -1.6376    1.0436   -1.5658 H   0  0  0  0  0  0  0  0  0  0  0  0
    0.2017    0.1258    1.9985 H   0  0  0  0  0  0  0  0  0  0  0  0
    1.2071    2.1227   -1.6845 H   0  0  0  0  0  0  0  0  0  0  0  0
   -3.8363    1.5518   -0.9650 H   0  0  0  0  0  0  0  0  0  0  0  0
   -2.9471    2.9128   -0.8544 H   0  0  0  0  0  0  0  0  0  0  0  0
    2.3399   -1.0966    1.9181 H   0  0  0  0  0  0  0  0  0  0  0  0
    3.3450    0.9057   -1.7616 H   0  0  0  0  0  0  0  0  0  0  0  0
   -1.3703   -2.4851    1.0599 H   0  0  0  0  0  0  0  0  0  0  0  0
   -2.7483   -2.6980   -0.0600 H   0  0  0  0  0  0  0  0  0  0  0  0
   -0.9987   -4.4361   -0.4527 H   0  0  0  0  0  0  0  0  0  0  0  0
   -1.1583   -3.3648   -1.8654 H   0  0  0  0  0  0  0  0  0  0  0  0
    0.1965   -3.1541   -0.7638 H   0  0  0  0  0  0  0  0  0  0  0  0
    4.6542   -0.5815   -0.7624 H   0  0  0  0  0  0  0  0  0  0  0  0
  1  8  1  0  0  0  0
  1 14  1  0  0  0  0
  2  8  2  0  0  0  0
  3 13  1  0  0  0  0
  3 30  1  0  0  0  0
  4  6  1  0  0  0  0
  4 21  1  0  0  0  0
  4 22  1  0  0  0  0
  5  6  1  0  0  0  0
  5  7  1  0  0  0  0
  5 16  1  0  0  0  0
  5 17  1  0  0  0  0
  6  8  1  0  0  0  0
  6 18  1  0  0  0  0
  7  9  2  0  0  0  0
  7 10  1  0  0  0  0
  9 11  1  0  0  0  0
  9 19  1  0  0  0  0
 10 12  2  0  0  0  0
 10 20  1  0  0  0  0
 11 13  2  0  0  0  0
 11 23  1  0  0  0  0
 12 13  1  0  0  0  0
 12 24  1  0  0  0  0
 14 15  1  0  0  0  0
 14 25  1  0  0  0  0
 14 26  1  0  0  0  0
 15 27  1  0  0  0  0
 15 28  1  0  0  0  0
 15 29  1  0  0  0  0
M  END
> <PUBCHEM_COMPOUND_CID>
70364

> <PUBCHEM_CONFORMER_RMSD>
0.6

> <PUBCHEM_CONFORMER_DIVERSEORDER>
1
33
28
68
27
4
51
66
35
49
14
47
38
37
17
42
11
26
46
7
2
69
65
52
21
55
64
70
44
3
57
36
39
62
32
23
30
40
50
15
9
10
48
53
43
63
6
60
13
61
59
19
12
5
8
31
20
29
22
45
18
54
25
24
58
16
56
41
67
34

> <PUBCHEM_MMFF94_PARTIAL_CHARGES>
21
1 -0.43
10 -0.15
11 -0.15
12 -0.15
13 0.08
14 0.28
19 0.15
2 -0.57
20 0.15
21 0.36
22 0.36
23 0.15
24 0.15
3 -0.53
30 0.45
4 -0.99
5 0.14
6 0.33
7 -0.14
8 0.66
9 -0.15

> <PUBCHEM_EFFECTIVE_ROTOR_COUNT>
5

> <PUBCHEM_PHARMACOPHORE_FEATURES>
5
1 2 acceptor
1 3 donor
1 4 cation
1 4 donor
6 7 9 10 11 12 13 rings

> <PUBCHEM_HEAVY_ATOM_COUNT>
15

> <PUBCHEM_ATOM_DEF_STEREO_COUNT>
1

> <PUBCHEM_ATOM_UDEF_STEREO_COUNT>
0

> <PUBCHEM_BOND_DEF_STEREO_COUNT>
0

> <PUBCHEM_BOND_UDEF_STEREO_COUNT>
0

> <PUBCHEM_ISOTOPIC_ATOM_COUNT>
0

> <PUBCHEM_COMPONENT_COUNT>
1

> <PUBCHEM_CACTVS_TAUTO_COUNT>
2

> <PUBCHEM_CONFORMER_ID>
000112DC00000001

> <PUBCHEM_MMFF94_ENERGY>
24.5224

> <PUBCHEM_FEATURE_SELFOVERLAP>
25.371

> <PUBCHEM_SHAPE_FINGERPRINT>
11321824 6 18338814350333315755
12202030 40 17096627851816596830
12500047 106 18336275616903087864
12553582 1 17834113039638446055
14251711 518 18272379628568430498
15001771 113 17904762172471549731
15207287 21 17603876649159202012
16752209 62 18339657680468520711
16945 1 18410015416175727400
19422 9 17988913470685951529
20645476 183 18202003278114233943
20871998 184 18412822508322002841
21634736 98 18127686024852160564
21731516 1 18123186792821810731
232386 152 18409450263230981660
23559900 14 18260834834888324658
23598291 2 17774993605161863420
257057 1 17830750750386923551
2748010 2 18122903389394117815
465052 167 18057020455849070051
568465 68 16805593716924998798
74978 22 18410581647447369581
81228 2 18120672227341388595
90525 40 18342457088190394203

> <PUBCHEM_SHAPE_MULTIPOLES>
286.1
5.14
2.86
1.06
2.47
2.26
-0.12
0.38
0.03
-2.31
0.85
0.21
0.02
-0.3

> <PUBCHEM_SHAPE_SELFOVERLAP>
583.141

> <PUBCHEM_SHAPE_VOLUME>
166

> <PUBCHEM_COORDINATE_TYPE>
2
5
10

$$$$

