46173178
  -OEChem-07051212513D

 67 70  0     1  0  0  0  0  0999 V2000
    3.8730   -0.7585    1.1030 P   0  0  1  0  0  0  0  0  0  0  0  0
    4.6625    1.1818   -0.9633 P   0  0  2  0  0  0  0  0  0  0  0  0
    0.1033    3.2484   -1.2316 O   0  0  0  0  0  0  0  0  0  0  0  0
    0.6958   -2.4804    1.1528 O   0  0  0  0  0  0  0  0  0  0  0  0
    0.9363    4.6044    1.3464 O   0  0  0  0  0  0  0  0  0  0  0  0
   -0.7194    2.5842    2.2125 O   0  0  0  0  0  0  0  0  0  0  0  0
    3.0042   -2.1106    0.9478 O   0  0  0  0  0  0  0  0  0  0  0  0
   -1.9074   -3.0977   -1.3805 O   0  0  0  0  0  0  0  0  0  0  0  0
    0.4754   -3.9720   -2.7046 O   0  0  0  0  0  0  0  0  0  0  0  0
    2.0910   -4.3335   -0.4814 O   0  0  0  0  0  0  0  0  0  0  0  0
    3.5542    2.2874   -0.5554 O   0  0  0  0  0  0  0  0  0  0  0  0
   -2.9236   -2.7098    1.0232 O   0  0  0  0  0  0  0  0  0  0  0  0
    4.0257   -0.1949   -0.4046 O   0  0  0  0  0  0  0  0  0  0  0  0
   -2.5296   -2.2352    3.7532 O   0  0  0  0  0  0  0  0  0  0  0  0
    2.8610    0.2986    1.7930 O   0  0  0  0  0  0  0  0  0  0  0  0
    5.8838    1.4593    0.0605 O   0  0  0  0  0  0  0  0  0  0  0  0
    5.1750   -0.9339    1.8293 O   0  0  0  0  0  0  0  0  0  0  0  0
    5.0464    1.1489   -2.4138 O   0  0  0  0  0  0  0  0  0  0  0  0
   -1.8365    1.8614   -0.7110 N   0  0  0  0  0  0  0  0  0  0  0  0
   -2.6233    0.1203   -1.8595 N   0  0  0  0  0  0  0  0  0  0  0  0
   -3.8297    2.4746    0.5344 N   0  0  0  0  0  0  0  0  0  0  0  0
   -5.6968    0.9954    0.0029 N   0  0  0  0  0  0  0  0  0  0  0  0
   -5.5033   -0.8075   -1.5585 N   0  0  0  0  0  0  0  0  0  0  0  0
    1.2023    3.2840    0.8752 C   0  0  1  0  0  0  0  0  0  0  0  0
   -0.0415    2.4245    0.9823 C   0  0  2  0  0  0  0  0  0  0  0  0
    1.4136    3.3565   -0.6317 C   0  0  1  0  0  0  0  0  0  0  0  0
   -0.8587    2.8999   -0.2146 C   0  0  1  0  0  0  0  0  0  0  0  0
   -0.5951   -2.3960    0.5400 C   0  0  1  0  0  0  0  0  0  0  0  0
   -0.6766   -3.3079   -0.6923 C   0  0  2  0  0  0  0  0  0  0  0  0
    0.4686   -3.0015   -1.6609 C   0  0  1  0  0  0  0  0  0  0  0  0
    1.8126   -3.0042   -0.9326 C   0  0  1  0  0  0  0  0  0  0  0  0
    1.7485   -2.0715    0.2765 C   0  0  1  0  0  0  0  0  0  0  0  0
   -1.6228   -2.7741    1.6025 C   0  0  1  0  0  0  0  0  0  0  0  0
    2.2784    2.2241   -1.1683 C   0  0  0  0  0  0  0  0  0  0  0  0
   -1.5737   -1.8170    2.7845 C   0  0  0  0  0  0  0  0  0  0  0  0
   -3.1438    1.7239   -0.3405 C   0  0  0  0  0  0  0  0  0  0  0  0
   -1.5709    0.8760   -1.6246 C   0  0  0  0  0  0  0  0  0  0  0  0
   -3.6136    0.6391   -1.0635 C   0  0  0  0  0  0  0  0  0  0  0  0
   -4.9434    0.2807   -0.8672 C   0  0  0  0  0  0  0  0  0  0  0  0
   -5.1019    2.0327    0.6402 C   0  0  0  0  0  0  0  0  0  0  0  0
    2.0458    2.8997    1.4514 H   0  0  0  0  0  0  0  0  0  0  0  0
    0.2208    1.3653    0.8699 H   0  0  0  0  0  0  0  0  0  0  0  0
    1.8442    4.3198   -0.9283 H   0  0  0  0  0  0  0  0  0  0  0  0
   -1.4636    3.7867    0.0097 H   0  0  0  0  0  0  0  0  0  0  0  0
   -0.7815   -1.3575    0.2351 H   0  0  0  0  0  0  0  0  0  0  0  0
   -0.6477   -4.3644   -0.4015 H   0  0  0  0  0  0  0  0  0  0  0  0
    0.3018   -2.0257   -2.1338 H   0  0  0  0  0  0  0  0  0  0  0  0
    2.6291   -2.7296   -1.6083 H   0  0  0  0  0  0  0  0  0  0  0  0
    1.5425   -1.0466   -0.0538 H   0  0  0  0  0  0  0  0  0  0  0  0
   -1.4625   -3.8007    1.9535 H   0  0  0  0  0  0  0  0  0  0  0  0
    1.8209    1.2482   -0.9767 H   0  0  0  0  0  0  0  0  0  0  0  0
    2.3884    2.3183   -2.2544 H   0  0  0  0  0  0  0  0  0  0  0  0
   -0.5891   -1.8066    3.2610 H   0  0  0  0  0  0  0  0  0  0  0  0
   -1.8387   -0.7996    2.4770 H   0  0  0  0  0  0  0  0  0  0  0  0
    1.7500    5.1243    1.2303 H   0  0  0  0  0  0  0  0  0  0  0  0
   -0.0942    2.3554    2.9211 H   0  0  0  0  0  0  0  0  0  0  0  0
   -1.9622   -2.1572   -1.6205 H   0  0  0  0  0  0  0  0  0  0  0  0
    1.2171   -3.7592   -3.2964 H   0  0  0  0  0  0  0  0  0  0  0  0
   -0.5982    0.7514   -2.0802 H   0  0  0  0  0  0  0  0  0  0  0  0
    1.5110   -4.5277    0.2740 H   0  0  0  0  0  0  0  0  0  0  0  0
   -3.5646   -2.9352    1.7189 H   0  0  0  0  0  0  0  0  0  0  0  0
   -2.4821   -1.6038    4.4912 H   0  0  0  0  0  0  0  0  0  0  0  0
   -5.7342    2.5824    1.3292 H   0  0  0  0  0  0  0  0  0  0  0  0
    3.2289    1.1342    2.1508 H   0  0  0  0  0  0  0  0  0  0  0  0
    5.7020    1.4804    1.0241 H   0  0  0  0  0  0  0  0  0  0  0  0
   -6.4717   -1.0489   -1.3980 H   0  0  0  0  0  0  0  0  0  0  0  0
   -4.9425   -1.3438   -2.2067 H   0  0  0  0  0  0  0  0  0  0  0  0
  1  7  1  0  0  0  0
  1 13  1  0  0  0  0
  1 15  1  0  0  0  0
  1 17  2  0  0  0  0
  2 11  1  0  0  0  0
  2 13  1  0  0  0  0
  2 16  1  0  0  0  0
  2 18  2  0  0  0  0
  3 26  1  0  0  0  0
  3 27  1  0  0  0  0
  4 28  1  0  0  0  0
  4 32  1  0  0  0  0
  5 24  1  0  0  0  0
  5 55  1  0  0  0  0
  6 25  1  0  0  0  0
  6 56  1  0  0  0  0
  7 32  1  0  0  0  0
  8 29  1  0  0  0  0
  8 57  1  0  0  0  0
  9 30  1  0  0  0  0
  9 58  1  0  0  0  0
 10 31  1  0  0  0  0
 10 60  1  0  0  0  0
 11 34  1  0  0  0  0
 12 33  1  0  0  0  0
 12 61  1  0  0  0  0
 14 35  1  0  0  0  0
 14 62  1  0  0  0  0
 15 64  1  0  0  0  0
 16 65  1  0  0  0  0
 19 27  1  0  0  0  0
 19 36  1  0  0  0  0
 19 37  1  0  0  0  0
 20 37  2  0  0  0  0
 20 38  1  0  0  0  0
 21 36  1  0  0  0  0
 21 40  2  0  0  0  0
 22 39  2  0  0  0  0
 22 40  1  0  0  0  0
 23 39  1  0  0  0  0
 23 66  1  0  0  0  0
 23 67  1  0  0  0  0
 24 25  1  0  0  0  0
 24 26  1  0  0  0  0
 24 41  1  0  0  0  0
 25 27  1  0  0  0  0
 25 42  1  0  0  0  0
 26 34  1  0  0  0  0
 26 43  1  0  0  0  0
 27 44  1  0  0  0  0
 28 29  1  0  0  0  0
 28 33  1  0  0  0  0
 28 45  1  0  0  0  0
 29 30  1  0  0  0  0
 29 46  1  0  0  0  0
 30 31  1  0  0  0  0
 30 47  1  0  0  0  0
 31 32  1  0  0  0  0
 31 48  1  0  0  0  0
 32 49  1  0  0  0  0
 33 35  1  0  0  0  0
 33 50  1  0  0  0  0
 34 51  1  0  0  0  0
 34 52  1  0  0  0  0
 35 53  1  0  0  0  0
 35 54  1  0  0  0  0
 36 38  2  0  0  0  0
 37 59  1  0  0  0  0
 38 39  1  0  0  0  0
 40 63  1  0  0  0  0
M  END
> <PUBCHEM_COMPOUND_CID>
46173178

> <PUBCHEM_CONFORMER_RMSD>
1.6

> <PUBCHEM_CONFORMER_DIVERSEORDER>
1
148
153
77
3
35
72
6
131
87
90
39
163
54
138
68
89
119
102
82
62
111
98
69
8
126
2
38
120
34
132
137
5
133
85
31
160
147
107
45
105
128
158
155
15
122
108
142
10
156
110
143
141
118
125
59
81
64
47
44
40
63
135
17
121
22
37
4
151
101
154
94
93
11
14
80
139
25
134
159
29
76
116
28
41
50
55
18
92
124
152
97
42
99
117
33
61
112
157
86
146
49
46
149
106
16
96
136
52
43
130
88
71
32
127
100
161
26
84
91
65
58
48
78
104
115
51
140
24
79
56
57
113
145
23
53
30
123
9
70
129
74
95
12
150
13
109
7
36
73
19
162
114
144
103
83
27
21
66
75
67
60
20

> <PUBCHEM_MMFF94_PARTIAL_CHARGES>
53
1 1.51
10 -0.68
11 -0.55
12 -0.68
13 -0.54
14 -0.68
15 -0.77
16 -0.77
17 -0.7
18 -0.7
19 0.05
2 1.51
20 -0.57
21 -0.57
22 -0.62
23 -0.9
24 0.28
25 0.28
26 0.28
27 0.54
28 0.28
29 0.28
3 -0.56
30 0.28
31 0.28
32 0.56
33 0.28
34 0.28
35 0.28
36 0.11
37 0.04
38 0.23
39 0.41
4 -0.56
40 0.47
5 -0.68
55 0.4
56 0.4
57 0.4
58 0.4
59 0.15
6 -0.68
60 0.4
61 0.4
62 0.4
63 0.15
64 0.5
65 0.5
66 0.4
67 0.4
7 -0.55
8 -0.68
9 -0.68

> <PUBCHEM_EFFECTIVE_ROTOR_COUNT>
12.2

> <PUBCHEM_PHARMACOPHORE_FEATURES>
28
1 10 acceptor
1 10 donor
1 12 acceptor
1 12 donor
1 14 acceptor
1 14 donor
1 15 acceptor
1 16 acceptor
1 17 acceptor
1 18 acceptor
1 23 donor
1 3 acceptor
1 4 acceptor
1 5 acceptor
1 5 donor
1 6 acceptor
1 6 donor
1 8 acceptor
1 8 donor
1 9 acceptor
1 9 donor
3 19 20 37 cation
3 21 22 40 cation
3 22 23 39 cation
5 19 20 36 37 38 rings
5 3 24 25 26 27 rings
6 21 22 36 38 39 40 rings
6 4 28 29 30 31 32 rings

> <PUBCHEM_HEAVY_ATOM_COUNT>
40

> <PUBCHEM_ATOM_DEF_STEREO_COUNT>
10

> <PUBCHEM_ATOM_UDEF_STEREO_COUNT>
0

> <PUBCHEM_BOND_DEF_STEREO_COUNT>
0

> <PUBCHEM_BOND_UDEF_STEREO_COUNT>
0

> <PUBCHEM_ISOTOPIC_ATOM_COUNT>
0

> <PUBCHEM_COMPONENT_COUNT>
1

> <PUBCHEM_CACTVS_TAUTO_COUNT>
3

> <PUBCHEM_CONFORMER_ID>
02C08BFA00000001

> <PUBCHEM_MMFF94_ENERGY>
59.9075

> <PUBCHEM_FEATURE_SELFOVERLAP>
142.409

> <PUBCHEM_SHAPE_FINGERPRINT>
11513181 2 18188204437255964671
12107698 1 17833275589793212119
12156800 1 17330488529026260748
12422481 6 17768782318659507379
13122387 1 18411428327456559940
1361 2 18408609175490562071
14725015 67 17913221028793152096
15001296 14 18343585114649802844
15297060 5 18187081759154484992
15968369 153 17973453105018567151
161222 619 18267845333268530195
19319366 153 17988656198377325658
20764821 26 18267310832693109012
21133410 90 17532095990549584137
25265897 201 16240620498952777734
3383291 50 18262802843767762311
373842 8 18341614854126613306
392239 28 18054795241392277795
463206 1 18412547613172301920
6287921 2 17827922046096843207

> <PUBCHEM_SHAPE_MULTIPOLES>
712.07
9.84
6.14
2.45
0.24
1.2
1.08
-3.73
-1.28
-1.18
-0.09
0.4
1.57
-0.02

> <PUBCHEM_SHAPE_SELFOVERLAP>
1478.27

> <PUBCHEM_SHAPE_VOLUME>
407.2

> <PUBCHEM_COORDINATE_TYPE>
2
5
10

$$$$

