23724578
  -OEChem-07051213083D

 77 80  0     1  0  0  0  0  0999 V2000
   -6.9171    2.6818   -0.5800 O   0  0  0  0  0  0  0  0  0  0  0  0
    0.4256   -1.6099    0.4874 C   0  0  1  0  0  0  0  0  0  0  0  0
   -0.4677   -1.7172   -0.7905 C   0  0  1  0  0  0  0  0  0  0  0  0
   -1.9619   -1.4203   -0.5314 C   0  0  1  0  0  0  0  0  0  0  0  0
   -2.1812   -0.0748    0.2095 C   0  0  1  0  0  0  0  0  0  0  0  0
   -3.7080    0.2214    0.4713 C   0  0  2  0  0  0  0  0  0  0  0  0
    1.5385   -0.5911    0.0933 C   0  0  2  0  0  0  0  0  0  0  0  0
   -0.3714   -1.1397    1.7204 C   0  0  0  0  0  0  0  0  0  0  0  0
   -1.2850    0.0573    1.4626 C   0  0  0  0  0  0  0  0  0  0  0  0
    0.2046   -0.8255   -1.8504 C   0  0  0  0  0  0  0  0  0  0  0  0
   -4.4526    0.1494   -0.9018 C   0  0  1  0  0  0  0  0  0  0  0  0
   -2.7826   -1.4939   -1.8292 C   0  0  0  0  0  0  0  0  0  0  0  0
    1.6588   -0.7474   -1.4197 C   0  0  0  0  0  0  0  0  0  0  0  0
   -4.2623   -1.2014   -1.6007 C   0  0  0  0  0  0  0  0  0  0  0  0
   -3.8868    1.6711    1.0097 C   0  0  0  0  0  0  0  0  0  0  0  0
    1.0050   -3.0058    0.8096 C   0  0  0  0  0  0  0  0  0  0  0  0
    2.8805   -0.7332    0.7997 C   0  0  1  0  0  0  0  0  0  0  0  0
   -4.2961   -0.7808    1.4979 C   0  0  0  0  0  0  0  0  0  0  0  0
   -5.9379    0.5075   -0.7996 C   0  0  0  0  0  0  0  0  0  0  0  0
   -5.3441    2.1102    1.1309 C   0  0  0  0  0  0  0  0  0  0  0  0
    3.8676    0.3189    0.2596 C   0  0  0  0  0  0  0  0  0  0  0  0
   -6.1083    1.8607   -0.1479 C   0  0  0  0  0  0  0  0  0  0  0  0
    2.6812   -0.6238    2.3116 C   0  0  0  0  0  0  0  0  0  0  0  0
    5.2293    0.2893    0.9644 C   0  0  0  0  0  0  0  0  0  0  0  0
    6.2367    1.3314    0.4217 C   0  0  2  0  0  0  0  0  0  0  0  0
    6.4224    1.2865   -1.1225 C   0  0  0  0  0  0  0  0  0  0  0  0
    7.5557    1.1878    1.1947 C   0  0  0  0  0  0  0  0  0  0  0  0
    7.3898    2.3695   -1.6151 C   0  0  0  0  0  0  0  0  0  0  0  0
    6.8674   -0.0780   -1.6555 C   0  0  0  0  0  0  0  0  0  0  0  0
   -0.4130   -2.7453   -1.1779 H   0  0  0  0  0  0  0  0  0  0  0  0
   -2.3242   -2.2313    0.1143 H   0  0  0  0  0  0  0  0  0  0  0  0
   -1.8433    0.7181   -0.4739 H   0  0  0  0  0  0  0  0  0  0  0  0
    1.1678    0.4272    0.2752 H   0  0  0  0  0  0  0  0  0  0  0  0
    0.2418   -0.9065    2.5879 H   0  0  0  0  0  0  0  0  0  0  0  0
   -1.0130   -1.9667    2.0579 H   0  0  0  0  0  0  0  0  0  0  0  0
   -1.8736    0.2230    2.3695 H   0  0  0  0  0  0  0  0  0  0  0  0
   -0.6768    0.9646    1.3600 H   0  0  0  0  0  0  0  0  0  0  0  0
    0.1064   -1.2453   -2.8568 H   0  0  0  0  0  0  0  0  0  0  0  0
   -0.2252    0.1814   -1.8690 H   0  0  0  0  0  0  0  0  0  0  0  0
   -3.9973    0.9101   -1.5558 H   0  0  0  0  0  0  0  0  0  0  0  0
   -2.6782   -2.4887   -2.2788 H   0  0  0  0  0  0  0  0  0  0  0  0
   -2.3984   -0.7757   -2.5634 H   0  0  0  0  0  0  0  0  0  0  0  0
    2.1488    0.1007   -1.9068 H   0  0  0  0  0  0  0  0  0  0  0  0
    2.1946   -1.6637   -1.6932 H   0  0  0  0  0  0  0  0  0  0  0  0
   -4.7191   -2.0102   -1.0191 H   0  0  0  0  0  0  0  0  0  0  0  0
   -4.7726   -1.1928   -2.5718 H   0  0  0  0  0  0  0  0  0  0  0  0
   -3.4124    1.7866    1.9906 H   0  0  0  0  0  0  0  0  0  0  0  0
   -3.3718    2.3683    0.3348 H   0  0  0  0  0  0  0  0  0  0  0  0
    1.5635   -3.0619    1.7436 H   0  0  0  0  0  0  0  0  0  0  0  0
    0.1926   -3.7380    0.9013 H   0  0  0  0  0  0  0  0  0  0  0  0
    1.6594   -3.3620    0.0060 H   0  0  0  0  0  0  0  0  0  0  0  0
    3.3185   -1.7170    0.5888 H   0  0  0  0  0  0  0  0  0  0  0  0
   -3.8310   -0.6702    2.4822 H   0  0  0  0  0  0  0  0  0  0  0  0
   -5.3698   -0.6394    1.6497 H   0  0  0  0  0  0  0  0  0  0  0  0
   -4.1603   -1.8214    1.1926 H   0  0  0  0  0  0  0  0  0  0  0  0
   -6.5071   -0.2323   -0.2285 H   0  0  0  0  0  0  0  0  0  0  0  0
   -6.3757    0.5556   -1.8038 H   0  0  0  0  0  0  0  0  0  0  0  0
   -5.8539    1.5838    1.9438 H   0  0  0  0  0  0  0  0  0  0  0  0
   -5.3807    3.1816    1.3577 H   0  0  0  0  0  0  0  0  0  0  0  0
    3.4370    1.3234    0.3560 H   0  0  0  0  0  0  0  0  0  0  0  0
    4.0232    0.1312   -0.8052 H   0  0  0  0  0  0  0  0  0  0  0  0
    3.6373   -0.6472    2.8419 H   0  0  0  0  0  0  0  0  0  0  0  0
    2.1416   -1.4570    2.7547 H   0  0  0  0  0  0  0  0  0  0  0  0
    2.1883    0.3160    2.5829 H   0  0  0  0  0  0  0  0  0  0  0  0
    5.6551   -0.7192    0.8974 H   0  0  0  0  0  0  0  0  0  0  0  0
    5.1025    0.5082    2.0297 H   0  0  0  0  0  0  0  0  0  0  0  0
    5.8321    2.3240    0.6656 H   0  0  0  0  0  0  0  0  0  0  0  0
    5.4568    1.5233   -1.5859 H   0  0  0  0  0  0  0  0  0  0  0  0
    8.2589    1.9873    0.9441 H   0  0  0  0  0  0  0  0  0  0  0  0
    8.0396    0.2269    0.9946 H   0  0  0  0  0  0  0  0  0  0  0  0
    7.3773    1.2497    2.2742 H   0  0  0  0  0  0  0  0  0  0  0  0
    7.1133    3.3516   -1.2177 H   0  0  0  0  0  0  0  0  0  0  0  0
    7.3636    2.4356   -2.7086 H   0  0  0  0  0  0  0  0  0  0  0  0
    8.4239    2.1572   -1.3262 H   0  0  0  0  0  0  0  0  0  0  0  0
    6.1560   -0.8676   -1.3981 H   0  0  0  0  0  0  0  0  0  0  0  0
    7.8493   -0.3634   -1.2655 H   0  0  0  0  0  0  0  0  0  0  0  0
    6.9416   -0.0553   -2.7485 H   0  0  0  0  0  0  0  0  0  0  0  0
  1 22  2  0  0  0  0
  2  3  1  0  0  0  0
  2  7  1  0  0  0  0
  2  8  1  0  0  0  0
  2 16  1  0  0  0  0
  3  4  1  0  0  0  0
  3 10  1  0  0  0  0
  3 30  1  0  0  0  0
  4  5  1  0  0  0  0
  4 12  1  0  0  0  0
  4 31  1  0  0  0  0
  5  6  1  0  0  0  0
  5  9  1  0  0  0  0
  5 32  1  0  0  0  0
  6 11  1  0  0  0  0
  6 15  1  0  0  0  0
  6 18  1  0  0  0  0
  7 13  1  0  0  0  0
  7 17  1  0  0  0  0
  7 33  1  0  0  0  0
  8  9  1  0  0  0  0
  8 34  1  0  0  0  0
  8 35  1  0  0  0  0
  9 36  1  0  0  0  0
  9 37  1  0  0  0  0
 10 13  1  0  0  0  0
 10 38  1  0  0  0  0
 10 39  1  0  0  0  0
 11 14  1  0  0  0  0
 11 19  1  0  0  0  0
 11 40  1  0  0  0  0
 12 14  1  0  0  0  0
 12 41  1  0  0  0  0
 12 42  1  0  0  0  0
 13 43  1  0  0  0  0
 13 44  1  0  0  0  0
 14 45  1  0  0  0  0
 14 46  1  0  0  0  0
 15 20  1  0  0  0  0
 15 47  1  0  0  0  0
 15 48  1  0  0  0  0
 16 49  1  0  0  0  0
 16 50  1  0  0  0  0
 16 51  1  0  0  0  0
 17 21  1  0  0  0  0
 17 23  1  0  0  0  0
 17 52  1  0  0  0  0
 18 53  1  0  0  0  0
 18 54  1  0  0  0  0
 18 55  1  0  0  0  0
 19 22  1  0  0  0  0
 19 56  1  0  0  0  0
 19 57  1  0  0  0  0
 20 22  1  0  0  0  0
 20 58  1  0  0  0  0
 20 59  1  0  0  0  0
 21 24  1  0  0  0  0
 21 60  1  0  0  0  0
 21 61  1  0  0  0  0
 23 62  1  0  0  0  0
 23 63  1  0  0  0  0
 23 64  1  0  0  0  0
 24 25  1  0  0  0  0
 24 65  1  0  0  0  0
 24 66  1  0  0  0  0
 25 26  1  0  0  0  0
 25 27  1  0  0  0  0
 25 67  1  0  0  0  0
 26 28  1  0  0  0  0
 26 29  1  0  0  0  0
 26 68  1  0  0  0  0
 27 69  1  0  0  0  0
 27 70  1  0  0  0  0
 27 71  1  0  0  0  0
 28 72  1  0  0  0  0
 28 73  1  0  0  0  0
 28 74  1  0  0  0  0
 29 75  1  0  0  0  0
 29 76  1  0  0  0  0
 29 77  1  0  0  0  0
M  END
> <PUBCHEM_COMPOUND_CID>
23724578

> <PUBCHEM_CONFORMER_RMSD>
0.8

> <PUBCHEM_CONFORMER_DIVERSEORDER>
12
3
9
19
17
1
10
5
16
11
4
13
18
7
8
14
6
15
2

> <PUBCHEM_MMFF94_PARTIAL_CHARGES>
4
1 -0.57
19 0.06
20 0.06
22 0.45

> <PUBCHEM_EFFECTIVE_ROTOR_COUNT>
7

> <PUBCHEM_PHARMACOPHORE_FEATURES>
9
1 1 acceptor
1 23 hydrophobe
1 27 hydrophobe
3 26 28 29 hydrophobe
5 17 21 24 25 26 hydrophobe
5 2 3 7 10 13 rings
6 2 3 4 5 8 9 rings
6 4 5 6 11 12 14 rings
6 6 11 15 19 20 22 rings

> <PUBCHEM_HEAVY_ATOM_COUNT>
29

> <PUBCHEM_ATOM_DEF_STEREO_COUNT>
8

> <PUBCHEM_ATOM_UDEF_STEREO_COUNT>
1

> <PUBCHEM_BOND_DEF_STEREO_COUNT>
0

> <PUBCHEM_BOND_UDEF_STEREO_COUNT>
0

> <PUBCHEM_ISOTOPIC_ATOM_COUNT>
0

> <PUBCHEM_COMPONENT_COUNT>
1

> <PUBCHEM_CACTVS_TAUTO_COUNT>
3

> <PUBCHEM_CONFORMER_ID>
016A02220000000C

> <PUBCHEM_MMFF94_ENERGY>
99.8271

> <PUBCHEM_FEATURE_SELFOVERLAP>
45.905

> <PUBCHEM_SHAPE_FINGERPRINT>
10 15 15051733084295720596
10319926 262 13398636064743296054
10554248 39 18116730692413787494
10591671 39 17967816007407463951
10670039 82 17749384909914802616
10693767 8 4823217178515151980
10835480 77 16443634485494069216
10906281 52 18202276984059608878
11475781 23 17821731620562158936
11961588 58 17894919559339079887
11991303 11 17313107406233109230
1200032 147 17678437857375851347
12035758 1 15123508120566288855
12166972 35 6988313945939881762
12236239 1 18411147951844154075
12422481 6 15267064705913377006
12596602 18 17632577141255225384
12633257 1 16128645358590624203
12895837 130 18411699885739276309
13690498 29 16444206205174831247
13782708 43 5833985057574534292
13911987 19 17603873342804504033
14251764 18 16056876905740120555
14840074 17 18060140933666552500
14931854 50 16660931083954747649
15183329 4 17022895762289951374
15575132 122 18339644537373391909
15961568 22 18334576884165502401
16110190 28 14476954567391928664
16994733 274 18411705395507051409
17492 54 17530686532501429131
17780758 139 12031791366328879047
17980427 23 17489583433512421967
1813 80 9511184100746864530
18393751 57 17203890777499974651
190975 80 13110953202680476208
19784866 240 8430310260255280555
19958102 18 16443056206401382996
2026 5 5833721149299746476
20691028 202 17844802582785489196
21033648 29 16916225628214378853
21130935 74 16917068879790602475
21279426 13 16443343157424530806
21424621 283 18411415116174249582
21521239 73 14562532890540276004
21637258 2 8646767789762629746
21756936 100 18411421670194317978
22061861 79 15140673666757134236
22122407 14 18130216082612721336
22393880 68 16515979093877315535
23198884 109 16370437847815183819
23559900 14 16154000053540271434
23569914 152 14638219040021670324
2838139 119 18261397711147274696
3004659 81 16732973208195149780
38570 142 18410285939233824514
392239 28 16200150980247471268
397830 11 13110963107202037454
4058900 60 18336539503825743522
4093350 32 18201157762853759234
5104073 3 14404640860265031768
5364581 5 14836115512356462582
6608658 132 18261114118736317873

> <PUBCHEM_SHAPE_MULTIPOLES>
590.94
19.49
2.41
2
21.05
0.35
-0.02
17.82
-4.6
-1.47
-0.12
1.02
-0.32
-1.45

> <PUBCHEM_SHAPE_SELFOVERLAP>
1219.116

> <PUBCHEM_SHAPE_VOLUME>
337.8

> <PUBCHEM_COORDINATE_TYPE>
2
5
10

$$$$

