7846928
  -OEChem-06241222462D

 41 44  0     0  0  0  0  0  0999 V2000
    4.6783    3.8869    0.0000 S   0  0  0  0  0  0  0  0  0  0  0  0
    8.2619    1.3501    0.0000 O   0  0  0  0  0  0  0  0  0  0  0  0
    9.3551   -0.4295    0.0000 O   0  0  0  0  0  0  0  0  0  0  0  0
    8.2619    3.0822    0.0000 O   0  0  0  0  0  0  0  0  0  0  0  0
    4.6783    2.2774    0.0000 N   0  0  0  0  0  0  0  0  0  0  0  0
   10.7564    0.3796    0.0000 N   0  0  0  0  0  0  0  0  0  0  0  0
   10.9643   -0.5986    0.0000 N   0  0  0  0  0  0  0  0  0  0  0  0
    6.2619    3.0822    0.0000 C   0  0  0  0  0  0  0  0  0  0  0  0
    6.7619    2.2161    0.0000 C   0  0  0  0  0  0  0  0  0  0  0  0
    5.2619    3.0822    0.0000 C   0  0  0  0  0  0  0  0  0  0  0  0
    3.7320    3.5822    0.0000 C   0  0  0  0  0  0  0  0  0  0  0  0
    3.7320    2.5822    0.0000 C   0  0  0  0  0  0  0  0  0  0  0  0
    7.7619    2.2161    0.0000 C   0  0  0  0  0  0  0  0  0  0  0  0
    2.8660    4.0822    0.0000 C   0  0  0  0  0  0  0  0  0  0  0  0
    2.8660    2.0822    0.0000 C   0  0  0  0  0  0  0  0  0  0  0  0
    9.2619    1.3501    0.0000 C   0  0  0  0  0  0  0  0  0  0  0  0
    2.0000    3.5822    0.0000 C   0  0  0  0  0  0  0  0  0  0  0  0
    2.0000    2.5822    0.0000 C   0  0  0  0  0  0  0  0  0  0  0  0
    9.7619    0.4841    0.0000 C   0  0  0  0  0  0  0  0  0  0  0  0
    9.9938   -2.0931    0.0000 C   0  0  0  0  0  0  0  0  0  0  0  0
   10.0983   -1.0986    0.0000 C   0  0  0  0  0  0  0  0  0  0  0  0
    9.0802   -2.4998    0.0000 C   0  0  0  0  0  0  0  0  0  0  0  0
   10.8028   -2.6809    0.0000 C   0  0  0  0  0  0  0  0  0  0  0  0
    8.9757   -3.4944    0.0000 C   0  0  0  0  0  0  0  0  0  0  0  0
   10.6982   -3.6754    0.0000 C   0  0  0  0  0  0  0  0  0  0  0  0
    9.7847   -4.0822    0.0000 C   0  0  0  0  0  0  0  0  0  0  0  0
    6.8445    3.2942    0.0000 H   0  0  0  0  0  0  0  0  0  0  0  0
    6.1542    3.6927    0.0000 H   0  0  0  0  0  0  0  0  0  0  0  0
    6.1793    2.0041    0.0000 H   0  0  0  0  0  0  0  0  0  0  0  0
    6.8695    1.6056    0.0000 H   0  0  0  0  0  0  0  0  0  0  0  0
    2.8660    4.7022    0.0000 H   0  0  0  0  0  0  0  0  0  0  0  0
    2.8660    1.4622    0.0000 H   0  0  0  0  0  0  0  0  0  0  0  0
    9.8445    1.5622    0.0000 H   0  0  0  0  0  0  0  0  0  0  0  0
    9.1542    1.9607    0.0000 H   0  0  0  0  0  0  0  0  0  0  0  0
    1.4631    3.8922    0.0000 H   0  0  0  0  0  0  0  0  0  0  0  0
    1.4631    2.2722    0.0000 H   0  0  0  0  0  0  0  0  0  0  0  0
    8.5786   -2.1354    0.0000 H   0  0  0  0  0  0  0  0  0  0  0  0
   11.3692   -2.4287    0.0000 H   0  0  0  0  0  0  0  0  0  0  0  0
    8.4093   -3.7466    0.0000 H   0  0  0  0  0  0  0  0  0  0  0  0
   11.1998   -4.0399    0.0000 H   0  0  0  0  0  0  0  0  0  0  0  0
    9.7199   -4.6988    0.0000 H   0  0  0  0  0  0  0  0  0  0  0  0
  1 10  1  0  0  0  0
  1 11  1  0  0  0  0
  2 13  1  0  0  0  0
  2 16  1  0  0  0  0
  3 19  1  0  0  0  0
  3 21  1  0  0  0  0
  4 13  2  0  0  0  0
  5 10  2  0  0  0  0
  5 12  1  0  0  0  0
  6  7  1  0  0  0  0
  6 19  2  0  0  0  0
  7 21  2  0  0  0  0
  8  9  1  0  0  0  0
  8 10  1  0  0  0  0
  8 27  1  0  0  0  0
  8 28  1  0  0  0  0
  9 13  1  0  0  0  0
  9 29  1  0  0  0  0
  9 30  1  0  0  0  0
 11 12  1  0  0  0  0
 11 14  2  0  0  0  0
 12 15  2  0  0  0  0
 14 17  1  0  0  0  0
 14 31  1  0  0  0  0
 15 18  1  0  0  0  0
 15 32  1  0  0  0  0
 16 19  1  0  0  0  0
 16 33  1  0  0  0  0
 16 34  1  0  0  0  0
 17 18  2  0  0  0  0
 17 35  1  0  0  0  0
 18 36  1  0  0  0  0
 20 21  1  0  0  0  0
 20 22  2  0  0  0  0
 20 23  1  0  0  0  0
 22 24  1  0  0  0  0
 22 37  1  0  0  0  0
 23 25  2  0  0  0  0
 23 38  1  0  0  0  0
 24 26  2  0  0  0  0
 24 39  1  0  0  0  0
 25 26  1  0  0  0  0
 25 40  1  0  0  0  0
 26 41  1  0  0  0  0
M  END
> <PUBCHEM_COMPOUND_CID>
7846928

> <PUBCHEM_COMPOUND_CANONICALIZED>
1

> <PUBCHEM_CACTVS_COMPLEXITY>
475

> <PUBCHEM_CACTVS_HBOND_ACCEPTOR>
7

> <PUBCHEM_CACTVS_HBOND_DONOR>
0

> <PUBCHEM_CACTVS_ROTATABLE_BOND>
7

> <PUBCHEM_CACTVS_SUBSKEYS>
AAADccB7MABAAAAAAAAAAAAAAAAAAWLAAAAwYAAAAAAAAFgB/AAAHgQIAAAADAih3gIwybIIFEiuAyXyXAaT8KBtCjhamD1wbNgLJrLgtZ2PMQhkyAHq6Ye8yCCOAAAAAAAAAQAAAAAAAAACAAAAAAAAAA==

> <PUBCHEM_IUPAC_OPENEYE_NAME>
(5-phenyl-1,3,4-oxadiazol-2-yl)methyl 3-(1,3-benzothiazol-2-yl)propanoate

> <PUBCHEM_IUPAC_CAS_NAME>
3-(1,3-benzothiazol-2-yl)propanoic acid (5-phenyl-1,3,4-oxadiazol-2-yl)methyl ester

> <PUBCHEM_IUPAC_NAME>
(5-phenyl-1,3,4-oxadiazol-2-yl)methyl 3-(1,3-benzothiazol-2-yl)propanoate

> <PUBCHEM_IUPAC_SYSTEMATIC_NAME>
(5-phenyl-1,3,4-oxadiazol-2-yl)methyl 3-(1,3-benzothiazol-2-yl)propanoate

> <PUBCHEM_IUPAC_TRADITIONAL_NAME>
3-(1,3-benzothiazol-2-yl)propionic acid (5-phenyl-1,3,4-oxadiazol-2-yl)methyl ester

> <PUBCHEM_IUPAC_INCHI>
InChI=1S/C19H15N3O3S/c23-18(11-10-17-20-14-8-4-5-9-15(14)26-17)24-12-16-21-22-19(25-16)13-6-2-1-3-7-13/h1-9H,10-12H2

> <PUBCHEM_IUPAC_INCHIKEY>
GDZCRBDRVRAJAW-UHFFFAOYSA-N

> <PUBCHEM_XLOGP3_AA>
3.5

> <PUBCHEM_EXACT_MASS>
365.083412

> <PUBCHEM_MOLECULAR_FORMULA>
C19H15N3O3S

> <PUBCHEM_MOLECULAR_WEIGHT>
365.4057

> <PUBCHEM_OPENEYE_CAN_SMILES>
C1=CC=C(C=C1)C2=NN=C(O2)COC(=O)CCC3=NC4=CC=CC=C4S3

> <PUBCHEM_OPENEYE_ISO_SMILES>
C1=CC=C(C=C1)C2=NN=C(O2)COC(=O)CCC3=NC4=CC=CC=C4S3

> <PUBCHEM_CACTVS_TPSA>
106

> <PUBCHEM_MONOISOTOPIC_WEIGHT>
365.083412

> <PUBCHEM_TOTAL_CHARGE>
0

> <PUBCHEM_HEAVY_ATOM_COUNT>
26

> <PUBCHEM_ATOM_DEF_STEREO_COUNT>
0

> <PUBCHEM_ATOM_UDEF_STEREO_COUNT>
0

> <PUBCHEM_BOND_DEF_STEREO_COUNT>
0

> <PUBCHEM_BOND_UDEF_STEREO_COUNT>
0

> <PUBCHEM_ISOTOPIC_ATOM_COUNT>
0

> <PUBCHEM_COMPONENT_COUNT>
1

> <PUBCHEM_CACTVS_TAUTO_COUNT>
2

> <PUBCHEM_COORDINATE_TYPE>
1
5
255

> <PUBCHEM_BONDANNOTATIONS>
1  10  8
1  11  8
11  12  8
11  14  8
12  15  8
14  17  8
15  18  8
17  18  8
20  22  8
20  23  8
22  24  8
23  25  8
24  26  8
25  26  8
3  19  8
3  21  8
5  10  8
5  12  8
6  19  8
6  7  8
7  21  8

$$$$

