231352
  -OEChem-07051213072D

 61 64  0     1  0  0  0  0  0999 V2000
    5.6489   -2.9775    0.0000 F   0  0  0  0  0  0  0  0  0  0  0  0
    8.0319    2.3480    0.0000 O   0  0  0  0  0  0  0  0  0  0  0  0
    4.7950    1.5917    0.0000 O   0  0  0  0  0  0  0  0  0  0  0  0
    9.0465    2.9775    0.0000 O   0  0  0  0  0  0  0  0  0  0  0  0
   10.8722    2.1609    0.0000 O   0  0  0  0  0  0  0  0  0  0  0  0
    2.0000   -1.9606    0.0000 O   0  0  0  0  0  0  0  0  0  0  0  0
   11.8879    0.7579    0.0000 O   0  0  0  0  0  0  0  0  0  0  0  0
    7.3931    1.0917    0.0000 C   0  0  1  0  0  0  0  0  0  0  0  0
    7.3931    0.0917    0.0000 C   0  0  2  0  0  0  0  0  0  0  0  0
    6.5271   -0.4083    0.0000 C   0  0  1  0  0  0  0  0  0  0  0  0
    5.6610    0.0917    0.0000 C   0  0  1  0  0  0  0  0  0  0  0  0
    8.3393    1.3964    0.0000 C   0  0  1  0  0  0  0  0  0  0  0  0
    6.5271    1.5917    0.0000 C   0  0  0  0  0  0  0  0  0  0  0  0
    4.7510   -0.4151    0.0000 C   0  0  2  0  0  0  0  0  0  0  0  0
    5.6610    1.0917    0.0000 C   0  0  2  0  0  0  0  0  0  0  0  0
    8.3393   -0.2130    0.0000 C   0  0  0  0  0  0  0  0  0  0  0  0
    8.9229    0.5917    0.0000 C   0  0  0  0  0  0  0  0  0  0  0  0
    6.5431   -1.4498    0.0000 C   0  0  0  0  0  0  0  0  0  0  0  0
    7.3931    2.0917    0.0000 C   0  0  0  0  0  0  0  0  0  0  0  0
    4.7430   -1.4567    0.0000 C   0  0  0  0  0  0  0  0  0  0  0  0
    5.6451   -1.9775    0.0000 C   0  0  1  0  0  0  0  0  0  0  0  0
    3.8242    0.1490    0.0000 C   0  0  0  0  0  0  0  0  0  0  0  0
    4.7587    0.5848    0.0000 C   0  0  0  0  0  0  0  0  0  0  0  0
    9.1493    1.9828    0.0000 C   0  0  0  0  0  0  0  0  0  0  0  0
    2.8763   -0.3790    0.0000 C   0  0  0  0  0  0  0  0  0  0  0  0
    3.8076   -2.0064    0.0000 C   0  0  0  0  0  0  0  0  0  0  0  0
    2.8680   -1.4640    0.0000 C   0  0  0  0  0  0  0  0  0  0  0  0
   10.0622    1.5745    0.0000 C   0  0  0  0  0  0  0  0  0  0  0  0
   11.7851    1.7526    0.0000 C   0  0  0  0  0  0  0  0  0  0  0  0
   12.5951    2.3390    0.0000 C   0  0  0  0  0  0  0  0  0  0  0  0
    7.4830   -0.7535    0.0000 H   0  0  0  0  0  0  0  0  0  0  0  0
    7.2664   -0.8276    0.0000 H   0  0  0  0  0  0  0  0  0  0  0  0
    6.3972    0.5167    0.0000 H   0  0  0  0  0  0  0  0  0  0  0  0
    6.9256    2.0667    0.0000 H   0  0  0  0  0  0  0  0  0  0  0  0
    6.1285    2.0667    0.0000 H   0  0  0  0  0  0  0  0  0  0  0  0
    5.6610    1.7117    0.0000 H   0  0  0  0  0  0  0  0  0  0  0  0
    8.0883   -0.7799    0.0000 H   0  0  0  0  0  0  0  0  0  0  0  0
    8.8767   -0.5222    0.0000 H   0  0  0  0  0  0  0  0  0  0  0  0
    9.3838    0.1770    0.0000 H   0  0  0  0  0  0  0  0  0  0  0  0
    9.3838    1.0064    0.0000 H   0  0  0  0  0  0  0  0  0  0  0  0
    6.7612   -2.0302    0.0000 H   0  0  0  0  0  0  0  0  0  0  0  0
    7.1523   -1.3343    0.0000 H   0  0  0  0  0  0  0  0  0  0  0  0
    8.0131    2.0917    0.0000 H   0  0  0  0  0  0  0  0  0  0  0  0
    7.3931    2.7117    0.0000 H   0  0  0  0  0  0  0  0  0  0  0  0
    6.7731    2.0917    0.0000 H   0  0  0  0  0  0  0  0  0  0  0  0
    5.1087   -2.2886    0.0000 H   0  0  0  0  0  0  0  0  0  0  0  0
    4.2324    0.6156    0.0000 H   0  0  0  0  0  0  0  0  0  0  0  0
    3.4343    0.6310    0.0000 H   0  0  0  0  0  0  0  0  0  0  0  0
    5.3787    0.5801    0.0000 H   0  0  0  0  0  0  0  0  0  0  0  0
    4.7635    1.2048    0.0000 H   0  0  0  0  0  0  0  0  0  0  0  0
    4.1388    0.5896    0.0000 H   0  0  0  0  0  0  0  0  0  0  0  0
    8.4476    2.8081    0.0000 H   0  0  0  0  0  0  0  0  0  0  0  0
    2.6718    0.2063    0.0000 H   0  0  0  0  0  0  0  0  0  0  0  0
    2.2647   -0.4804    0.0000 H   0  0  0  0  0  0  0  0  0  0  0  0
    4.7950    2.2117    0.0000 H   0  0  0  0  0  0  0  0  0  0  0  0
    3.8100   -2.6264    0.0000 H   0  0  0  0  0  0  0  0  0  0  0  0
    9.7146    1.0611    0.0000 H   0  0  0  0  0  0  0  0  0  0  0  0
   10.5074    1.1431    0.0000 H   0  0  0  0  0  0  0  0  0  0  0  0
   12.9586    1.8368    0.0000 H   0  0  0  0  0  0  0  0  0  0  0  0
   13.0973    2.7025    0.0000 H   0  0  0  0  0  0  0  0  0  0  0  0
   12.2315    2.8412    0.0000 H   0  0  0  0  0  0  0  0  0  0  0  0
 21  1  1  6  0  0  0
 12  2  1  6  0  0  0
  2 52  1  0  0  0  0
 15  3  1  1  0  0  0
  3 55  1  0  0  0  0
  4 24  2  0  0  0  0
  5 28  1  0  0  0  0
  5 29  1  0  0  0  0
  6 27  2  0  0  0  0
  7 29  2  0  0  0  0
  8  9  1  0  0  0  0
  8 12  1  0  0  0  0
  8 13  1  0  0  0  0
  8 19  1  1  0  0  0
  9 10  1  0  0  0  0
  9 16  1  0  0  0  0
  9 31  1  6  0  0  0
 10 11  1  0  0  0  0
 10 18  1  0  0  0  0
 10 32  1  1  0  0  0
 11 14  1  0  0  0  0
 11 15  1  0  0  0  0
 11 33  1  6  0  0  0
 12 17  1  0  0  0  0
 12 24  1  0  0  0  0
 13 15  1  0  0  0  0
 13 34  1  0  0  0  0
 13 35  1  0  0  0  0
 14 20  1  0  0  0  0
 14 22  1  0  0  0  0
 14 23  1  1  0  0  0
 15 36  1  0  0  0  0
 16 17  1  0  0  0  0
 16 37  1  0  0  0  0
 16 38  1  0  0  0  0
 17 39  1  0  0  0  0
 17 40  1  0  0  0  0
 18 21  1  0  0  0  0
 18 41  1  0  0  0  0
 18 42  1  0  0  0  0
 19 43  1  0  0  0  0
 19 44  1  0  0  0  0
 19 45  1  0  0  0  0
 20 21  1  0  0  0  0
 20 26  2  0  0  0  0
 21 46  1  0  0  0  0
 22 25  1  0  0  0  0
 22 47  1  0  0  0  0
 22 48  1  0  0  0  0
 23 49  1  0  0  0  0
 23 50  1  0  0  0  0
 23 51  1  0  0  0  0
 24 28  1  0  0  0  0
 25 27  1  0  0  0  0
 25 53  1  0  0  0  0
 25 54  1  0  0  0  0
 26 27  1  0  0  0  0
 26 56  1  0  0  0  0
 28 57  1  0  0  0  0
 28 58  1  0  0  0  0
 29 30  1  0  0  0  0
 30 59  1  0  0  0  0
 30 60  1  0  0  0  0
 30 61  1  0  0  0  0
M  END
> <PUBCHEM_COMPOUND_CID>
231352

> <PUBCHEM_COMPOUND_CANONICALIZED>
1

> <PUBCHEM_CACTVS_COMPLEXITY>
823

> <PUBCHEM_CACTVS_HBOND_ACCEPTOR>
7

> <PUBCHEM_CACTVS_HBOND_DONOR>
2

> <PUBCHEM_CACTVS_ROTATABLE_BOND>
4

> <PUBCHEM_CACTVS_SUBSKEYS>
AAADceB4OQAAAAAAAAAAAAAAAAAAAYAAAAAwYIAAAAAAAGDAAAAAGwAACAAAD1SggAICCAAABgCIAqDSCAIAAAAgAAAACAFAAEgAEBIAAQQCQAAFgAAIAQPIzPDPgAAAAAAAAADAAAYAADAAAYAADAAAAA==

> <PUBCHEM_IUPAC_OPENEYE_NAME>
[2-[(6S,8S,9S,10R,11S,13S,14S,17R)-6-fluoro-11,17-dihydroxy-10,13-dimethyl-3-oxo-2,6,7,8,9,11,12,14,15,16-decahydro-1H-cyclopenta[a]phenanthren-17-yl]-2-oxo-ethyl] acetate

> <PUBCHEM_IUPAC_CAS_NAME>
acetic acid [2-[(6S,8S,9S,10R,11S,13S,14S,17R)-6-fluoro-11,17-dihydroxy-10,13-dimethyl-3-oxo-2,6,7,8,9,11,12,14,15,16-decahydro-1H-cyclopenta[a]phenanthren-17-yl]-2-oxoethyl] ester

> <PUBCHEM_IUPAC_NAME>
[2-[(6S,8S,9S,10R,11S,13S,14S,17R)-6-fluoro-11,17-dihydroxy-10,13-dimethyl-3-oxo-2,6,7,8,9,11,12,14,15,16-decahydro-1H-cyclopenta[a]phenanthren-17-yl]-2-oxoethyl] acetate

> <PUBCHEM_IUPAC_SYSTEMATIC_NAME>
[2-[(6S,8S,9S,10R,11S,13S,14S,17R)-6-fluoranyl-10,13-dimethyl-11,17-bis(oxidanyl)-3-oxidanylidene-2,6,7,8,9,11,12,14,15,16-decahydro-1H-cyclopenta[a]phenanthren-17-yl]-2-oxidanylidene-ethyl] ethanoate

> <PUBCHEM_IUPAC_TRADITIONAL_NAME>
acetic acid [2-[(6S,8S,9S,10R,11S,13S,14S,17R)-6-fluoro-11,17-dihydroxy-3-keto-10,13-dimethyl-2,6,7,8,9,11,12,14,15,16-decahydro-1H-cyclopenta[a]phenanthren-17-yl]-2-keto-ethyl] ester

> <PUBCHEM_IUPAC_INCHI>
InChI=1S/C23H31FO6/c1-12(25)30-11-19(28)23(29)7-5-15-14-9-17(24)16-8-13(26)4-6-21(16,2)20(14)18(27)10-22(15,23)3/h8,14-15,17-18,20,27,29H,4-7,9-11H2,1-3H3/t14-,15-,17-,18-,20+,21-,22-,23-/m0/s1

> <PUBCHEM_IUPAC_INCHIKEY>
IXQXTLBVUAXXNT-APRQOCPKSA-N

> <PUBCHEM_XLOGP3>
1.9

> <PUBCHEM_EXACT_MASS>
422.210467

> <PUBCHEM_MOLECULAR_FORMULA>
C23H31FO6

> <PUBCHEM_MOLECULAR_WEIGHT>
422.487043

> <PUBCHEM_OPENEYE_CAN_SMILES>
CC(=O)OCC(=O)C1(CCC2C1(CC(C3C2CC(C4=CC(=O)CCC34C)F)O)C)O

> <PUBCHEM_OPENEYE_ISO_SMILES>
CC(=O)OCC(=O)[C@]1(CC[C@@H]2[C@@]1(C[C@@H]([C@H]3[C@H]2C[C@@H](C4=CC(=O)CC[C@]34C)F)O)C)O

> <PUBCHEM_CACTVS_TPSA>
101

> <PUBCHEM_MONOISOTOPIC_WEIGHT>
422.210467

> <PUBCHEM_TOTAL_CHARGE>
0

> <PUBCHEM_HEAVY_ATOM_COUNT>
30

> <PUBCHEM_ATOM_DEF_STEREO_COUNT>
8

> <PUBCHEM_ATOM_UDEF_STEREO_COUNT>
0

> <PUBCHEM_BOND_DEF_STEREO_COUNT>
0

> <PUBCHEM_BOND_UDEF_STEREO_COUNT>
0

> <PUBCHEM_ISOTOPIC_ATOM_COUNT>
0

> <PUBCHEM_COMPONENT_COUNT>
1

> <PUBCHEM_CACTVS_TAUTO_COUNT>
4

> <PUBCHEM_COORDINATE_TYPE>
1
5
255

> <PUBCHEM_BONDANNOTATIONS>
21  1  6
10  32  5
11  33  6
14  23  5
12  2  6
15  3  5
8  19  5
9  31  6

$$$$

