1464
  -OEChem-07051213013D

 62 67  0     0  0  0  0  0  0999 V2000
    9.4948    1.6389    0.5417 O   0  0  0  0  0  0  0  0  0  0  0  0
   -6.9219    0.6859    0.0244 N   0  0  0  0  0  0  0  0  0  0  0  0
   -9.1184    2.5104    0.1003 N   0  0  0  0  0  0  0  0  0  0  0  0
   -2.0633   -0.2586   -0.2550 N   0  0  0  0  0  0  0  0  0  0  0  0
   -2.2919   -2.4255    0.1830 N   0  0  0  0  0  0  0  0  0  0  0  0
    3.2641    0.1044    0.2639 N   0  0  0  0  0  0  0  0  0  0  0  0
    4.1324   -1.8181   -0.4361 N   0  0  0  0  0  0  0  0  0  0  0  0
   -6.9305    1.8614   -0.8516 C   0  0  0  0  0  0  0  0  0  0  0  0
   -7.7549    0.7854    1.2295 C   0  0  0  0  0  0  0  0  0  0  0  0
   -8.3668    2.3033   -1.1435 C   0  0  0  0  0  0  0  0  0  0  0  0
   -9.1645    1.2609    0.8698 C   0  0  0  0  0  0  0  0  0  0  0  0
   -5.7892   -0.1344    0.0741 C   0  0  0  0  0  0  0  0  0  0  0  0
  -10.4711    2.9839   -0.1904 C   0  0  0  0  0  0  0  0  0  0  0  0
   -4.5022    0.4075   -0.1521 C   0  0  0  0  0  0  0  0  0  0  0  0
   -3.4098   -0.4584   -0.0891 C   0  0  0  0  0  0  0  0  0  0  0  0
   -5.9128   -1.5142    0.3510 C   0  0  0  0  0  0  0  0  0  0  0  0
   -3.5268   -1.8185    0.1833 C   0  0  0  0  0  0  0  0  0  0  0  0
   -4.8016   -2.3647    0.4092 C   0  0  0  0  0  0  0  0  0  0  0  0
   -1.4384   -1.4622   -0.0829 C   0  0  0  0  0  0  0  0  0  0  0  0
   -0.0065   -1.6023   -0.1916 C   0  0  0  0  0  0  0  0  0  0  0  0
    2.1917   -0.7159    0.0244 C   0  0  0  0  0  0  0  0  0  0  0  0
    0.8155   -0.5220    0.1480 C   0  0  0  0  0  0  0  0  0  0  0  0
    2.7597   -1.9098   -0.4115 C   0  0  0  0  0  0  0  0  0  0  0  0
    0.5350   -2.8129   -0.6320 C   0  0  0  0  0  0  0  0  0  0  0  0
    1.9200   -2.9848   -0.7484 C   0  0  0  0  0  0  0  0  0  0  0  0
    4.4003   -0.5987   -0.0257 C   0  0  0  0  0  0  0  0  0  0  0  0
    5.7144   -0.0212    0.1211 C   0  0  0  0  0  0  0  0  0  0  0  0
    6.8020   -0.8353    0.4358 C   0  0  0  0  0  0  0  0  0  0  0  0
    5.8963    1.3506   -0.0521 C   0  0  0  0  0  0  0  0  0  0  0  0
    8.0725   -0.2773    0.5774 C   0  0  0  0  0  0  0  0  0  0  0  0
    7.1669    1.9088    0.0894 C   0  0  0  0  0  0  0  0  0  0  0  0
    8.2550    1.0948    0.4042 C   0  0  0  0  0  0  0  0  0  0  0  0
    9.7835    2.8015   -0.2335 C   0  0  0  0  0  0  0  0  0  0  0  0
   11.2664    2.8372   -0.5353 C   0  0  0  0  0  0  0  0  0  0  0  0
   -6.4433    1.6355   -1.8084 H   0  0  0  0  0  0  0  0  0  0  0  0
   -6.3810    2.6845   -0.3769 H   0  0  0  0  0  0  0  0  0  0  0  0
   -7.2879    1.4864    1.9334 H   0  0  0  0  0  0  0  0  0  0  0  0
   -7.8415   -0.1786    1.7439 H   0  0  0  0  0  0  0  0  0  0  0  0
   -8.8607    1.5516   -1.7741 H   0  0  0  0  0  0  0  0  0  0  0  0
   -8.3279    3.2364   -1.7187 H   0  0  0  0  0  0  0  0  0  0  0  0
   -9.7221    1.4150    1.8017 H   0  0  0  0  0  0  0  0  0  0  0  0
   -9.6836    0.4754    0.3041 H   0  0  0  0  0  0  0  0  0  0  0  0
  -10.4367    3.9350   -0.7332 H   0  0  0  0  0  0  0  0  0  0  0  0
  -11.0198    3.1730    0.7389 H   0  0  0  0  0  0  0  0  0  0  0  0
  -11.0434    2.2656   -0.7888 H   0  0  0  0  0  0  0  0  0  0  0  0
   -4.3471    1.4615   -0.3567 H   0  0  0  0  0  0  0  0  0  0  0  0
   -6.8980   -1.9483    0.5133 H   0  0  0  0  0  0  0  0  0  0  0  0
   -4.9281   -3.4216    0.6210 H   0  0  0  0  0  0  0  0  0  0  0  0
   -1.6262    0.6256   -0.4795 H   0  0  0  0  0  0  0  0  0  0  0  0
    0.4285    0.4263    0.5054 H   0  0  0  0  0  0  0  0  0  0  0  0
   -0.1102   -3.6483   -0.8975 H   0  0  0  0  0  0  0  0  0  0  0  0
    2.3304   -3.9288   -1.0922 H   0  0  0  0  0  0  0  0  0  0  0  0
    3.2094    1.0541    0.6078 H   0  0  0  0  0  0  0  0  0  0  0  0
    6.6815   -1.9066    0.5779 H   0  0  0  0  0  0  0  0  0  0  0  0
    5.0713    2.0118   -0.3051 H   0  0  0  0  0  0  0  0  0  0  0  0
    8.9164   -0.9162    0.8231 H   0  0  0  0  0  0  0  0  0  0  0  0
    7.2613    2.9841   -0.0291 H   0  0  0  0  0  0  0  0  0  0  0  0
    9.2529    2.7940   -1.1938 H   0  0  0  0  0  0  0  0  0  0  0  0
    9.4996    3.6934    0.3359 H   0  0  0  0  0  0  0  0  0  0  0  0
   11.5258    3.7236   -1.1210 H   0  0  0  0  0  0  0  0  0  0  0  0
   11.8486    2.8445    0.3922 H   0  0  0  0  0  0  0  0  0  0  0  0
   11.5683    1.9443   -1.0928 H   0  0  0  0  0  0  0  0  0  0  0  0
  1 32  1  0  0  0  0
  1 33  1  0  0  0  0
  2  8  1  0  0  0  0
  2  9  1  0  0  0  0
  2 12  1  0  0  0  0
  3 10  1  0  0  0  0
  3 11  1  0  0  0  0
  3 13  1  0  0  0  0
  4 15  1  0  0  0  0
  4 19  1  0  0  0  0
  4 49  1  0  0  0  0
  5 17  1  0  0  0  0
  5 19  2  0  0  0  0
  6 21  1  0  0  0  0
  6 26  1  0  0  0  0
  6 53  1  0  0  0  0
  7 23  1  0  0  0  0
  7 26  2  0  0  0  0
  8 10  1  0  0  0  0
  8 35  1  0  0  0  0
  8 36  1  0  0  0  0
  9 11  1  0  0  0  0
  9 37  1  0  0  0  0
  9 38  1  0  0  0  0
 10 39  1  0  0  0  0
 10 40  1  0  0  0  0
 11 41  1  0  0  0  0
 11 42  1  0  0  0  0
 12 14  2  0  0  0  0
 12 16  1  0  0  0  0
 13 43  1  0  0  0  0
 13 44  1  0  0  0  0
 13 45  1  0  0  0  0
 14 15  1  0  0  0  0
 14 46  1  0  0  0  0
 15 17  2  0  0  0  0
 16 18  2  0  0  0  0
 16 47  1  0  0  0  0
 17 18  1  0  0  0  0
 18 48  1  0  0  0  0
 19 20  1  0  0  0  0
 20 22  2  0  0  0  0
 20 24  1  0  0  0  0
 21 22  1  0  0  0  0
 21 23  2  0  0  0  0
 22 50  1  0  0  0  0
 23 25  1  0  0  0  0
 24 25  2  0  0  0  0
 24 51  1  0  0  0  0
 25 52  1  0  0  0  0
 26 27  1  0  0  0  0
 27 28  2  0  0  0  0
 27 29  1  0  0  0  0
 28 30  1  0  0  0  0
 28 54  1  0  0  0  0
 29 31  2  0  0  0  0
 29 55  1  0  0  0  0
 30 32  2  0  0  0  0
 30 56  1  0  0  0  0
 31 32  1  0  0  0  0
 31 57  1  0  0  0  0
 33 34  1  0  0  0  0
 33 58  1  0  0  0  0
 33 59  1  0  0  0  0
 34 60  1  0  0  0  0
 34 61  1  0  0  0  0
 34 62  1  0  0  0  0
M  END
> <PUBCHEM_COMPOUND_CID>
1464

> <PUBCHEM_CONFORMER_RMSD>
1

> <PUBCHEM_CONFORMER_DIVERSEORDER>
1
3
7
4
9
14
11
15
12
8
16
6
13
2
10
5

> <PUBCHEM_MMFF94_PARTIAL_CHARGES>
45
1 -0.36
10 0.27
11 0.27
12 0.1
13 0.27
14 -0.15
15 -0.15
16 -0.15
17 0.23
18 -0.15
19 0.13
2 -0.84
20 0.05
21 -0.15
22 -0.15
23 0.23
24 -0.15
25 -0.15
26 0.13
27 0.05
28 -0.15
29 -0.15
3 -0.81
30 -0.15
31 -0.15
32 0.08
33 0.28
4 0.03
46 0.15
47 0.15
48 0.15
49 0.27
5 -0.57
50 0.15
51 0.15
52 0.15
53 0.27
54 0.15
55 0.15
56 0.15
57 0.15
6 0.03
7 -0.57
8 0.37
9 0.37

> <PUBCHEM_EFFECTIVE_ROTOR_COUNT>
6.2

> <PUBCHEM_PHARMACOPHORE_FEATURES>
13
1 1 acceptor
1 2 cation
1 3 cation
1 4 donor
1 6 donor
3 4 5 19 cation
3 6 7 26 cation
5 4 5 15 17 19 rings
5 6 7 21 23 26 rings
6 12 14 15 16 17 18 rings
6 2 3 8 9 10 11 rings
6 20 21 22 23 24 25 rings
6 27 28 29 30 31 32 rings

> <PUBCHEM_HEAVY_ATOM_COUNT>
34

> <PUBCHEM_ATOM_DEF_STEREO_COUNT>
0

> <PUBCHEM_ATOM_UDEF_STEREO_COUNT>
0

> <PUBCHEM_BOND_DEF_STEREO_COUNT>
0

> <PUBCHEM_BOND_UDEF_STEREO_COUNT>
0

> <PUBCHEM_ISOTOPIC_ATOM_COUNT>
0

> <PUBCHEM_COMPONENT_COUNT>
1

> <PUBCHEM_CACTVS_TAUTO_COUNT>
7

> <PUBCHEM_CONFORMER_ID>
000005B800000001

> <PUBCHEM_MMFF94_ENERGY>
96.253

> <PUBCHEM_FEATURE_SELFOVERLAP>
66.182

> <PUBCHEM_SHAPE_FINGERPRINT>
10 15 18131349748273323219
10533779 47 16056604308935428848
10835480 77 18335701667659922643
10930396 42 17060338535879319941
11409948 8 18271514361681029729
11421887 21 18114173177361125248
11421887 45 18262814977515519496
11456790 92 14764628620614020365
11463208 3 9583522027443035952
11578821 258 18408603643135627376
11607047 141 18058738043694630106
11607047 74 8069153671955080962
11672396 167 9223232940439540545
12089408 11 18342462521915231322
12522641 33 17603581937884615318
12522641 68 18040433253086574638
12539745 222 11959732694819085255
13248334 5 18191864750653429422
13530399 1 18201152136890188044
13553643 46 18271529787949029477
13740195 50 18202558472512045955
14251920 17 18409732877376572821
14359421 15 7132719383537359517
14617042 71 18410008832407899340
15198563 99 15213285453067620746
15350500 55 18408887338715152167
15461852 350 17604152527751607455
1577012 14 18411426119986404955
15840311 113 18341891922836033078
15890870 6 18335138683499419024
16087824 20 18409166611228792776
1754911 235 17458064854728656884
1768 4 18335976541851823817
1818759 1 9367341548878920849
19302320 297 18202280290963426556
19315958 150 18336824286053684231
20105231 36 12103567520145558792
20156587 128 15430584156594529180
2026 5 9943814382387817129
20721686 146 18335419079838062884
21057603 323 8646504990776411403
212700 22 10087654680320699904
21362267 313 18412269425105927296
21585482 111 18410855443613496172
23523787 8 15936413338233869366
23524908 199 17531237397492909846
23576562 1 15937276408070134761
24771293 8 18343302543928703583
25025965 108 11239714125120433361
25242607 90 11959728244499307476
3711267 37 18337379500407391825
3918712 181 18334577928068928304
4073 2 18341890775299751371
4169191 19 18260828233217720049
437795 150 14057298441608192669
4403749 210 18335420132607170951
44280117 145 18264490594828990175
44389302 135 12247687079665431832
4516262 110 18261111906389946406
54039377 194 9943805594878785787
5470011 282 6699795493420312746
6201320 82 18042110089949340617
6204607 403 17772743885273529564
636775 72 18410856599207761457
636775 8 6555399947750410781
9953998 17 17918274247338873219
9980921 7 18342461431378355141

> <PUBCHEM_SHAPE_MULTIPOLES>
663.95
39.63
3.55
0.83
14.61
0.56
0
49.78
2.31
-0.61
-0.69
-0.71
0.11
0.73

> <PUBCHEM_SHAPE_SELFOVERLAP>
1477.893

> <PUBCHEM_SHAPE_VOLUME>
357.8

> <PUBCHEM_COORDINATE_TYPE>
2
5
10

$$$$

