5280506
  -OEChem-07051212473D

 59 59  0     1  0  0  0  0  0999 V2000
   -3.9261   -1.6974    0.9586 O   0  0  0  0  0  0  0  0  0  0  0  0
   -3.9249    2.8514   -0.1897 O   0  0  0  0  0  0  0  0  0  0  0  0
    1.1279    4.4343   -1.3151 O   0  0  0  0  0  0  0  0  0  0  0  0
    2.4043   -2.0127   -2.9950 O   0  0  0  0  0  0  0  0  0  0  0  0
    0.2957   -1.3775   -2.4484 O   0  0  0  0  0  0  0  0  0  0  0  0
   -2.1044   -0.1324    0.5874 C   0  0  2  0  0  0  0  0  0  0  0  0
   -2.0686    1.3585    0.2291 C   0  0  2  0  0  0  0  0  0  0  0  0
   -3.5718   -0.3271    0.9695 C   0  0  1  0  0  0  0  0  0  0  0  0
   -3.3854    1.5826   -0.5351 C   0  0  1  0  0  0  0  0  0  0  0  0
   -4.3307    0.4559   -0.1003 C   0  0  0  0  0  0  0  0  0  0  0  0
   -1.1490   -0.5189    1.7102 C   0  0  0  0  0  0  0  0  0  0  0  0
   -0.8608    1.7443   -0.5623 C   0  0  0  0  0  0  0  0  0  0  0  0
   -1.1876   -1.9496    2.1694 C   0  0  0  0  0  0  0  0  0  0  0  0
    0.0275    2.6676   -0.1663 C   0  0  0  0  0  0  0  0  0  0  0  0
    1.2402    3.0532   -0.9662 C   0  0  2  0  0  0  0  0  0  0  0  0
   -0.4981   -2.9835    1.6636 C   0  0  0  0  0  0  0  0  0  0  0  0
    2.5502    2.8811   -0.1853 C   0  0  0  0  0  0  0  0  0  0  0  0
    2.7578    1.4573    0.3394 C   0  0  0  0  0  0  0  0  0  0  0  0
    0.4577   -2.8621    0.5126 C   0  0  0  0  0  0  0  0  0  0  0  0
    4.0252    1.3009    1.1861 C   0  0  0  0  0  0  0  0  0  0  0  0
    0.0743   -3.7211   -0.7003 C   0  0  0  0  0  0  0  0  0  0  0  0
    4.2731   -0.1341    1.6530 C   0  0  0  0  0  0  0  0  0  0  0  0
    1.0566   -3.6176   -1.8710 C   0  0  0  0  0  0  0  0  0  0  0  0
    5.5352   -0.2322    2.4967 C   0  0  0  0  0  0  0  0  0  0  0  0
    1.1817   -2.2210   -2.4402 C   0  0  0  0  0  0  0  0  0  0  0  0
   -1.8730   -0.7486   -0.2941 H   0  0  0  0  0  0  0  0  0  0  0  0
   -2.0965    1.9514    1.1555 H   0  0  0  0  0  0  0  0  0  0  0  0
   -3.7804    0.0847    1.9646 H   0  0  0  0  0  0  0  0  0  0  0  0
   -3.2460    1.5607   -1.6223 H   0  0  0  0  0  0  0  0  0  0  0  0
   -4.5521   -0.1953   -0.9550 H   0  0  0  0  0  0  0  0  0  0  0  0
   -5.2897    0.8195    0.2836 H   0  0  0  0  0  0  0  0  0  0  0  0
   -1.3573    0.1031    2.5921 H   0  0  0  0  0  0  0  0  0  0  0  0
   -0.1237   -0.2491    1.4331 H   0  0  0  0  0  0  0  0  0  0  0  0
   -0.7061    1.2351   -1.5107 H   0  0  0  0  0  0  0  0  0  0  0  0
   -4.8828   -1.7522    1.1235 H   0  0  0  0  0  0  0  0  0  0  0  0
   -4.7730    2.9441   -0.6564 H   0  0  0  0  0  0  0  0  0  0  0  0
   -1.8591   -2.1586    3.0002 H   0  0  0  0  0  0  0  0  0  0  0  0
   -0.1237    3.1838    0.7788 H   0  0  0  0  0  0  0  0  0  0  0  0
    1.3004    2.4804   -1.8992 H   0  0  0  0  0  0  0  0  0  0  0  0
   -0.6297   -3.9681    2.1043 H   0  0  0  0  0  0  0  0  0  0  0  0
    2.5705    3.5882    0.6550 H   0  0  0  0  0  0  0  0  0  0  0  0
    3.3920    3.1688   -0.8282 H   0  0  0  0  0  0  0  0  0  0  0  0
    2.8012    0.7654   -0.5109 H   0  0  0  0  0  0  0  0  0  0  0  0
    1.9052    1.1505    0.9552 H   0  0  0  0  0  0  0  0  0  0  0  0
    1.4454   -3.1811    0.8692 H   0  0  0  0  0  0  0  0  0  0  0  0
    0.5800   -1.8241    0.1933 H   0  0  0  0  0  0  0  0  0  0  0  0
    3.9543    1.9607    2.0598 H   0  0  0  0  0  0  0  0  0  0  0  0
    4.8888    1.6422    0.6017 H   0  0  0  0  0  0  0  0  0  0  0  0
    0.3236    4.5381   -1.8522 H   0  0  0  0  0  0  0  0  0  0  0  0
   -0.9261   -3.4275   -1.0439 H   0  0  0  0  0  0  0  0  0  0  0  0
    0.0056   -4.7727   -0.3947 H   0  0  0  0  0  0  0  0  0  0  0  0
    3.4169   -0.4862    2.2399 H   0  0  0  0  0  0  0  0  0  0  0  0
    4.3653   -0.7962    0.7843 H   0  0  0  0  0  0  0  0  0  0  0  0
    0.7403   -4.2806   -2.6834 H   0  0  0  0  0  0  0  0  0  0  0  0
    2.0454   -3.9459   -1.5296 H   0  0  0  0  0  0  0  0  0  0  0  0
    6.4141    0.0849    1.9263 H   0  0  0  0  0  0  0  0  0  0  0  0
    5.4597    0.3958    3.3901 H   0  0  0  0  0  0  0  0  0  0  0  0
    5.6947   -1.2655    2.8202 H   0  0  0  0  0  0  0  0  0  0  0  0
    2.4823   -1.1135   -3.3794 H   0  0  0  0  0  0  0  0  0  0  0  0
  1  8  1  0  0  0  0
  1 35  1  0  0  0  0
  2  9  1  0  0  0  0
  2 36  1  0  0  0  0
  3 15  1  0  0  0  0
  3 49  1  0  0  0  0
  4 25  1  0  0  0  0
  4 59  1  0  0  0  0
  5 25  2  0  0  0  0
  6  7  1  0  0  0  0
  6  8  1  0  0  0  0
  6 11  1  0  0  0  0
  6 26  1  0  0  0  0
  7  9  1  0  0  0  0
  7 12  1  0  0  0  0
  7 27  1  0  0  0  0
  8 10  1  0  0  0  0
  8 28  1  0  0  0  0
  9 10  1  0  0  0  0
  9 29  1  0  0  0  0
 10 30  1  0  0  0  0
 10 31  1  0  0  0  0
 11 13  1  0  0  0  0
 11 32  1  0  0  0  0
 11 33  1  0  0  0  0
 12 14  2  0  0  0  0
 12 34  1  0  0  0  0
 13 16  2  0  0  0  0
 13 37  1  0  0  0  0
 14 15  1  0  0  0  0
 14 38  1  0  0  0  0
 15 17  1  0  0  0  0
 15 39  1  0  0  0  0
 16 19  1  0  0  0  0
 16 40  1  0  0  0  0
 17 18  1  0  0  0  0
 17 41  1  0  0  0  0
 17 42  1  0  0  0  0
 18 20  1  0  0  0  0
 18 43  1  0  0  0  0
 18 44  1  0  0  0  0
 19 21  1  0  0  0  0
 19 45  1  0  0  0  0
 19 46  1  0  0  0  0
 20 22  1  0  0  0  0
 20 47  1  0  0  0  0
 20 48  1  0  0  0  0
 21 23  1  0  0  0  0
 21 50  1  0  0  0  0
 21 51  1  0  0  0  0
 22 24  1  0  0  0  0
 22 52  1  0  0  0  0
 22 53  1  0  0  0  0
 23 25  1  0  0  0  0
 23 54  1  0  0  0  0
 23 55  1  0  0  0  0
 24 56  1  0  0  0  0
 24 57  1  0  0  0  0
 24 58  1  0  0  0  0
M  END
> <PUBCHEM_COMPOUND_CID>
5280506

> <PUBCHEM_CONFORMER_RMSD>
1.2

> <PUBCHEM_CONFORMER_DIVERSEORDER>
1
111
30
16
92
57
142
85
121
36
51
13
100
150
145
45
114
2
83
147
109
117
153
93
108
19
78
137
152
55
146
21
68
38
99
50
63
87
124
116
53
52
130
73
88
144
151
12
10
127
132
14
113
34
129
17
135
22
120
67
107
148
133
139
48
27
79
43
140
101
106
71
76
82
141
26
31
15
134
41
123
80
5
39
72
49
37
70
95
122
28
32
96
97
112
4
40
23
33
18
54
110
47
126
24
84
118
11
102
77
89
59
90
149
64
138
9
91
143
25
29
69
46
8
35
98
74
119
81
44
66
136
103
75
105
94
115
131
20
86
6
104
56
60
58
42
62
7
65
128
3
125
61

> <PUBCHEM_MMFF94_PARTIAL_CHARGES>
25
1 -0.68
11 0.14
12 -0.29
13 -0.29
14 -0.29
15 0.42
16 -0.29
19 0.14
2 -0.68
23 0.06
25 0.66
3 -0.68
34 0.15
35 0.4
36 0.4
37 0.15
38 0.15
4 -0.65
40 0.15
49 0.4
5 -0.57
59 0.5
7 0.14
8 0.28
9 0.28

> <PUBCHEM_EFFECTIVE_ROTOR_COUNT>
13

> <PUBCHEM_PHARMACOPHORE_FEATURES>
13
1 1 acceptor
1 1 donor
1 2 acceptor
1 2 donor
1 24 hydrophobe
1 3 acceptor
1 3 donor
1 4 acceptor
1 5 acceptor
3 4 5 25 anion
4 16 19 21 23 hydrophobe
4 17 18 20 22 hydrophobe
5 6 7 8 9 10 rings

> <PUBCHEM_HEAVY_ATOM_COUNT>
25

> <PUBCHEM_ATOM_DEF_STEREO_COUNT>
5

> <PUBCHEM_ATOM_UDEF_STEREO_COUNT>
0

> <PUBCHEM_BOND_DEF_STEREO_COUNT>
2

> <PUBCHEM_BOND_UDEF_STEREO_COUNT>
0

> <PUBCHEM_ISOTOPIC_ATOM_COUNT>
0

> <PUBCHEM_COMPONENT_COUNT>
1

> <PUBCHEM_CACTVS_TAUTO_COUNT>
1

> <PUBCHEM_CONFORMER_ID>
005092FA00000001

> <PUBCHEM_MMFF94_ENERGY>
30.8525

> <PUBCHEM_FEATURE_SELFOVERLAP>
66.025

> <PUBCHEM_SHAPE_FINGERPRINT>
12539773 59 16244296093025074338
13402501 40 18264200486872510102
17921350 177 18196916791764843756
20531524 4 18269538598091462486
22113638 7 18270976660759146984
238918 7 18262246628786959546

> <PUBCHEM_SHAPE_MULTIPOLES>
485.14
7.64
5.5
2.57
3.62
0.16
1.06
-3.23
-5.09
1.08
2.94
2.24
2.58
1.18

> <PUBCHEM_SHAPE_SELFOVERLAP>
945.574

> <PUBCHEM_SHAPE_VOLUME>
292.4

> <PUBCHEM_COORDINATE_TYPE>
2
5
10

$$$$

