4369587
  -OEChem-07051212513D

 17 16  0     1  0  0  0  0  0999 V2000
    1.2586    0.0519   -0.0242 P   0  0  0  0  0  0  0  0  0  0  0  0
   -1.6357    1.2835   -0.0436 O   0  0  0  0  0  0  0  0  0  0  0  0
    2.3117   -0.8718   -0.8162 O   0  0  0  0  0  0  0  0  0  0  0  0
    1.4236   -0.3969    1.5125 O   0  0  0  0  0  0  0  0  0  0  0  0
    1.3289    1.5127   -0.2953 O   0  0  0  0  0  0  0  0  0  0  0  0
   -0.3270   -0.6924   -0.4771 C   0  0  0  0  0  0  0  0  0  0  0  0
   -1.5257   -0.1042    0.2575 C   0  0  2  0  0  0  0  0  0  0  0  0
   -2.8344   -0.7828   -0.1136 C   0  0  0  0  0  0  0  0  0  0  0  0
   -0.4431   -0.5499   -1.5578 H   0  0  0  0  0  0  0  0  0  0  0  0
   -0.2664   -1.7702   -0.2890 H   0  0  0  0  0  0  0  0  0  0  0  0
   -1.3690   -0.1849    1.3379 H   0  0  0  0  0  0  0  0  0  0  0  0
   -3.6715   -0.3157    0.4163 H   0  0  0  0  0  0  0  0  0  0  0  0
   -2.8134   -1.8479    0.1359 H   0  0  0  0  0  0  0  0  0  0  0  0
   -3.0421   -0.6784   -1.1843 H   0  0  0  0  0  0  0  0  0  0  0  0
   -1.7618    1.3726   -1.0037 H   0  0  0  0  0  0  0  0  0  0  0  0
    3.2684   -0.6630   -0.7597 H   0  0  0  0  0  0  0  0  0  0  0  0
    2.2094   -0.0964    2.0168 H   0  0  0  0  0  0  0  0  0  0  0  0
  1  3  1  0  0  0  0
  1  4  1  0  0  0  0
  1  5  2  0  0  0  0
  1  6  1  0  0  0  0
  2  7  1  0  0  0  0
  2 15  1  0  0  0  0
  3 16  1  0  0  0  0
  4 17  1  0  0  0  0
  6  7  1  0  0  0  0
  6  9  1  0  0  0  0
  6 10  1  0  0  0  0
  7  8  1  0  0  0  0
  7 11  1  0  0  0  0
  8 12  1  0  0  0  0
  8 13  1  0  0  0  0
  8 14  1  0  0  0  0
M  END
> <PUBCHEM_COMPOUND_CID>
4369587

> <PUBCHEM_CONFORMER_RMSD>
0.4

> <PUBCHEM_CONFORMER_DIVERSEORDER>
1
3
2

> <PUBCHEM_MMFF94_PARTIAL_CHARGES>
9
1 1.24
15 0.4
16 0.5
17 0.5
2 -0.68
3 -0.77
4 -0.77
5 -0.7
7 0.28

> <PUBCHEM_EFFECTIVE_ROTOR_COUNT>
2

> <PUBCHEM_PHARMACOPHORE_FEATURES>
6
1 2 acceptor
1 2 donor
1 3 acceptor
1 4 acceptor
1 5 acceptor
4 1 3 4 5 anion

> <PUBCHEM_HEAVY_ATOM_COUNT>
8

> <PUBCHEM_ATOM_DEF_STEREO_COUNT>
1

> <PUBCHEM_ATOM_UDEF_STEREO_COUNT>
0

> <PUBCHEM_BOND_DEF_STEREO_COUNT>
0

> <PUBCHEM_BOND_UDEF_STEREO_COUNT>
0

> <PUBCHEM_ISOTOPIC_ATOM_COUNT>
0

> <PUBCHEM_COMPONENT_COUNT>
1

> <PUBCHEM_CACTVS_TAUTO_COUNT>
1

> <PUBCHEM_CONFORMER_ID>
0042ACB300000001

> <PUBCHEM_MMFF94_ENERGY>
-24.4588

> <PUBCHEM_FEATURE_SELFOVERLAP>
30.483

> <PUBCHEM_SHAPE_FINGERPRINT>
10857977 72 18187936002184942851
12932741 1 17845929633057173255
12932764 1 17704077278856104031
20096714 4 18412542080926889868
21040471 1 17822576001582509015
23552423 10 18411416202716553327
23552449 11 18130520642742378299
24536 1 18335149686604270709
29004967 10 18335129930055538814
5084963 1 18040992951469170015

> <PUBCHEM_SHAPE_MULTIPOLES>
145.01
3.52
1.22
0.93
1.32
0.4
-0.31
-0.63
0.18
-0.09
0.19
-0.47
-0.15
0.01

> <PUBCHEM_SHAPE_SELFOVERLAP>
250.049

> <PUBCHEM_SHAPE_VOLUME>
97.1

> <PUBCHEM_COORDINATE_TYPE>
2
5
10

$$$$

