15571694
  -OEChem-07051212573D

 52 55  0     1  0  0  0  0  0999 V2000
   -1.8811    1.2916   -2.3590 O   0  0  0  0  0  0  0  0  0  0  0  0
    0.1944    2.4596    0.4001 O   0  0  0  0  0  0  0  0  0  0  0  0
   -2.7756   -0.8127   -0.0632 O   0  0  0  0  0  0  0  0  0  0  0  0
   -1.9494    1.6999    2.0095 O   0  0  0  0  0  0  0  0  0  0  0  0
    1.4285   -2.2219   -0.2997 O   0  0  0  0  0  0  0  0  0  0  0  0
   -3.8355   -0.2953    1.9232 O   0  0  0  0  0  0  0  0  0  0  0  0
    2.0386   -3.7261    1.3445 O   0  0  0  0  0  0  0  0  0  0  0  0
   -0.4996   -0.0595   -0.7644 C   0  0  1  0  0  0  0  0  0  0  0  0
   -0.8298    1.2870   -1.3803 C   0  0  2  0  0  0  0  0  0  0  0  0
    0.9508    0.1109   -0.1074 C   0  0  2  0  0  0  0  0  0  0  0  0
   -1.0672    2.1948   -0.2224 C   0  0  1  0  0  0  0  0  0  0  0  0
   -1.6067   -0.1183    0.3706 C   0  0  1  0  0  0  0  0  0  0  0  0
   -0.5923    1.7409   -2.7997 C   0  0  0  0  0  0  0  0  0  0  0  0
   -2.0198    1.3530    0.6403 C   0  0  1  0  0  0  0  0  0  0  0  0
    0.9234    1.3206    0.8942 C   0  0  1  0  0  0  0  0  0  0  0  0
   -0.5887   -1.2351   -1.7448 C   0  0  0  0  0  0  0  0  0  0  0  0
    2.0453    0.4044   -1.1799 C   0  0  0  0  0  0  0  0  0  0  0  0
    1.3629   -1.1830    0.6472 C   0  0  0  0  0  0  0  0  0  0  0  0
    2.2840    1.8437    1.2752 C   0  0  0  0  0  0  0  0  0  0  0  0
    3.4380    0.6591   -0.5876 C   0  0  0  0  0  0  0  0  0  0  0  0
    3.4226    1.5434    0.6293 C   0  0  0  0  0  0  0  0  0  0  0  0
   -3.8180   -0.8206    0.8183 C   0  0  0  0  0  0  0  0  0  0  0  0
    4.7531    2.0678    1.0823 C   0  0  0  0  0  0  0  0  0  0  0  0
    1.7813   -3.4609    0.1781 C   0  0  0  0  0  0  0  0  0  0  0  0
   -4.9690   -1.5805    0.2319 C   0  0  0  0  0  0  0  0  0  0  0  0
    1.8095   -4.4627   -0.9363 C   0  0  0  0  0  0  0  0  0  0  0  0
   -1.5142    3.1554   -0.4966 H   0  0  0  0  0  0  0  0  0  0  0  0
   -1.2470   -0.6202    1.2724 H   0  0  0  0  0  0  0  0  0  0  0  0
   -0.4670    2.7999   -2.9853 H   0  0  0  0  0  0  0  0  0  0  0  0
   -0.0443    1.0959   -3.4735 H   0  0  0  0  0  0  0  0  0  0  0  0
   -3.0407    1.5563    0.2927 H   0  0  0  0  0  0  0  0  0  0  0  0
    0.4510    0.9999    1.8300 H   0  0  0  0  0  0  0  0  0  0  0  0
    0.2395   -1.2647   -2.4568 H   0  0  0  0  0  0  0  0  0  0  0  0
   -0.6650   -2.1973   -1.2309 H   0  0  0  0  0  0  0  0  0  0  0  0
   -1.4979   -1.1692   -2.3547 H   0  0  0  0  0  0  0  0  0  0  0  0
    1.7783    1.3026   -1.7475 H   0  0  0  0  0  0  0  0  0  0  0  0
    2.1296   -0.4022   -1.9152 H   0  0  0  0  0  0  0  0  0  0  0  0
    0.6392   -1.4418    1.4259 H   0  0  0  0  0  0  0  0  0  0  0  0
    2.3333   -1.0763    1.1439 H   0  0  0  0  0  0  0  0  0  0  0  0
    2.3189    2.5008    2.1414 H   0  0  0  0  0  0  0  0  0  0  0  0
    4.0582    1.1203   -1.3664 H   0  0  0  0  0  0  0  0  0  0  0  0
    3.9178   -0.2934   -0.3328 H   0  0  0  0  0  0  0  0  0  0  0  0
   -2.5182    1.0853    2.5021 H   0  0  0  0  0  0  0  0  0  0  0  0
    5.4284    1.2376    1.3136 H   0  0  0  0  0  0  0  0  0  0  0  0
    4.6690    2.6889    1.9802 H   0  0  0  0  0  0  0  0  0  0  0  0
    5.2087    2.6783    0.2960 H   0  0  0  0  0  0  0  0  0  0  0  0
   -4.6707   -2.6140    0.0389 H   0  0  0  0  0  0  0  0  0  0  0  0
   -5.3007   -1.0964   -0.6900 H   0  0  0  0  0  0  0  0  0  0  0  0
   -5.8007   -1.5845    0.9424 H   0  0  0  0  0  0  0  0  0  0  0  0
    2.5290   -4.1492   -1.6967 H   0  0  0  0  0  0  0  0  0  0  0  0
    0.8109   -4.5620   -1.3689 H   0  0  0  0  0  0  0  0  0  0  0  0
    2.1197   -5.4350   -0.5431 H   0  0  0  0  0  0  0  0  0  0  0  0
  1  9  1  0  0  0  0
  1 13  1  0  0  0  0
  2 11  1  0  0  0  0
  2 15  1  0  0  0  0
  3 12  1  0  0  0  0
  3 22  1  0  0  0  0
  4 14  1  0  0  0  0
  4 43  1  0  0  0  0
  5 18  1  0  0  0  0
  5 24  1  0  0  0  0
  6 22  2  0  0  0  0
  7 24  2  0  0  0  0
  8  9  1  0  0  0  0
  8 10  1  0  0  0  0
  8 12  1  0  0  0  0
  8 16  1  0  0  0  0
  9 11  1  0  0  0  0
  9 13  1  0  0  0  0
 10 15  1  0  0  0  0
 10 17  1  0  0  0  0
 10 18  1  0  0  0  0
 11 14  1  0  0  0  0
 11 27  1  0  0  0  0
 12 14  1  0  0  0  0
 12 28  1  0  0  0  0
 13 29  1  0  0  0  0
 13 30  1  0  0  0  0
 14 31  1  0  0  0  0
 15 19  1  0  0  0  0
 15 32  1  0  0  0  0
 16 33  1  0  0  0  0
 16 34  1  0  0  0  0
 16 35  1  0  0  0  0
 17 20  1  0  0  0  0
 17 36  1  0  0  0  0
 17 37  1  0  0  0  0
 18 38  1  0  0  0  0
 18 39  1  0  0  0  0
 19 21  2  0  0  0  0
 19 40  1  0  0  0  0
 20 21  1  0  0  0  0
 20 41  1  0  0  0  0
 20 42  1  0  0  0  0
 21 23  1  0  0  0  0
 22 25  1  0  0  0  0
 23 44  1  0  0  0  0
 23 45  1  0  0  0  0
 23 46  1  0  0  0  0
 24 26  1  0  0  0  0
 25 47  1  0  0  0  0
 25 48  1  0  0  0  0
 25 49  1  0  0  0  0
 26 50  1  0  0  0  0
 26 51  1  0  0  0  0
 26 52  1  0  0  0  0
M  END
> <PUBCHEM_COMPOUND_CID>
15571694

> <PUBCHEM_CONFORMER_RMSD>
0.8

> <PUBCHEM_CONFORMER_DIVERSEORDER>
3
2
1

> <PUBCHEM_MMFF94_PARTIAL_CHARGES>
27
1 -0.3
11 0.38
12 0.28
13 -0.05
14 0.28
15 0.42
18 0.28
19 -0.29
2 -0.56
20 0.14
21 -0.28
22 0.66
23 0.14
24 0.66
25 0.06
26 0.06
29 0.1
3 -0.43
30 0.1
4 -0.68
40 0.15
43 0.4
5 -0.43
6 -0.57
7 -0.57
8 0.09
9 -0.04

> <PUBCHEM_EFFECTIVE_ROTOR_COUNT>
6.4

> <PUBCHEM_PHARMACOPHORE_FEATURES>
8
1 1 acceptor
1 2 acceptor
1 4 acceptor
1 4 donor
1 6 acceptor
1 7 acceptor
6 10 15 17 19 20 21 rings
8 2 8 9 10 11 12 14 15 rings

> <PUBCHEM_HEAVY_ATOM_COUNT>
26

> <PUBCHEM_ATOM_DEF_STEREO_COUNT>
7

> <PUBCHEM_ATOM_UDEF_STEREO_COUNT>
0

> <PUBCHEM_BOND_DEF_STEREO_COUNT>
0

> <PUBCHEM_BOND_UDEF_STEREO_COUNT>
0

> <PUBCHEM_ISOTOPIC_ATOM_COUNT>
0

> <PUBCHEM_COMPONENT_COUNT>
1

> <PUBCHEM_CACTVS_TAUTO_COUNT>
1

> <PUBCHEM_CONFORMER_ID>
00ED9AEE00000003

> <PUBCHEM_MMFF94_ENERGY>
93.0811

> <PUBCHEM_FEATURE_SELFOVERLAP>
40.612

> <PUBCHEM_SHAPE_FINGERPRINT>
10064457 181 18047748191864541306
10863032 1 18263637523607061897
10906281 52 17346306077781731309
10948715 1 15719940329115393721
1100329 8 17830176800921679683
11578080 2 17985818461402354277
121448 382 17828237357506458436
12633257 1 17611448015504328513
12714826 92 17124494140625304927
12930653 34 18408885156861502201
13140716 1 17976538312981080617
13149001 5 17552094195466014286
13583140 156 18188208818022677873
14178342 30 18197201569566487747
14223421 5 18341053020294515314
14787075 74 17752204981251740793
14790565 3 18194113023686469473
14863182 85 18196069080958240495
15209289 33 18188772726154193696
15664445 248 17631716219176400365
16945 1 18340202982232744929
18915476 22 18267042680778823407
19591789 44 18335699429955600650
200 152 15410629033809827048
20028762 73 17611177170345887303
20600515 1 17908144274449166876
21285901 2 17846232055127671815
21330990 113 18341327799448925032
229495 10 18265071248151490485
22956985 138 18130517439167294610
23419403 2 18197782317695214677
23557571 272 17632578300817345189
23559900 14 18058730341651755102
25222932 49 17533495626662341655
2818148 4 18046606070124820714
298252 57 15720221786927786660
3380486 77 17258556146327980066
3797600 57 17240755173159246179
392239 28 17971463001646387131
465052 167 17416967218847607027
469060 322 17912952502984693991
5845 1 7892053555550708885
6442390 28 18263636278155820514
7097593 13 17904186371628007914
81228 2 17404322706659303282
9981440 41 17762107329100931112
9999458 23 18190454957343461673

> <PUBCHEM_SHAPE_MULTIPOLES>
493.98
6.43
4.05
1.95
2.26
6.05
-0.92
-0.56
3.1
-3.1
0.06
0.77
-0.83
0.75

> <PUBCHEM_SHAPE_SELFOVERLAP>
1058.736

> <PUBCHEM_SHAPE_VOLUME>
268.3

> <PUBCHEM_COORDINATE_TYPE>
2
5
10

$$$$

