10675
  -OEChem-06261204493D

 51 54  0     0  0  0  0  0  0999 V2000
   -8.7088    0.0006    0.5471 Cl  0  0  0  0  0  0  0  0  0  0  0  0
    2.0400    1.1589   -0.0725 O   0  0  0  0  0  0  0  0  0  0  0  0
    4.2424   -2.9260   -0.6365 O   0  0  0  0  0  0  0  0  0  0  0  0
   -1.1637   -1.8051    0.1167 N   0  0  0  0  0  0  0  0  0  0  0  0
   -3.5941   -0.3049    0.0732 N   0  0  0  0  0  0  0  0  0  0  0  0
    3.0835   -0.9122   -0.3715 N   0  0  0  0  0  0  0  0  0  0  0  0
    5.4433   -1.0254   -0.2862 N   0  0  0  0  0  0  0  0  0  0  0  0
   -2.4547   -2.4876   -0.0351 C   0  0  0  0  0  0  0  0  0  0  0  0
   -1.3220   -0.6217    0.9707 C   0  0  0  0  0  0  0  0  0  0  0  0
   -3.4923   -1.5634   -0.6764 C   0  0  0  0  0  0  0  0  0  0  0  0
   -2.3228    0.3650    0.3639 C   0  0  0  0  0  0  0  0  0  0  0  0
   -0.1660   -2.7142    0.6796 C   0  0  0  0  0  0  0  0  0  0  0  0
    1.2105   -2.0531    0.7946 C   0  0  0  0  0  0  0  0  0  0  0  0
    1.7884   -1.5640   -0.5320 C   0  0  0  0  0  0  0  0  0  0  0  0
   -4.7612    0.4536   -0.0708 C   0  0  0  0  0  0  0  0  0  0  0  0
   -6.0208   -0.0799    0.2682 C   0  0  0  0  0  0  0  0  0  0  0  0
   -4.7120    1.7743   -0.5601 C   0  0  0  0  0  0  0  0  0  0  0  0
    3.0600    0.4778   -0.1452 C   0  0  0  0  0  0  0  0  0  0  0  0
    4.2480   -1.7067   -0.4458 C   0  0  0  0  0  0  0  0  0  0  0  0
    4.3765    1.1256    0.0128 C   0  0  0  0  0  0  0  0  0  0  0  0
    5.5306    0.3522   -0.0630 C   0  0  0  0  0  0  0  0  0  0  0  0
   -7.1837    0.6765    0.1238 C   0  0  0  0  0  0  0  0  0  0  0  0
   -5.8748    2.5307   -0.7046 C   0  0  0  0  0  0  0  0  0  0  0  0
   -7.1107    1.9818   -0.3625 C   0  0  0  0  0  0  0  0  0  0  0  0
    4.4710    2.5031    0.2370 C   0  0  0  0  0  0  0  0  0  0  0  0
    6.7863    0.9468    0.0840 C   0  0  0  0  0  0  0  0  0  0  0  0
    5.7255    3.0970    0.3835 C   0  0  0  0  0  0  0  0  0  0  0  0
    6.8813    2.3203    0.3071 C   0  0  0  0  0  0  0  0  0  0  0  0
   -2.8262   -2.8369    0.9379 H   0  0  0  0  0  0  0  0  0  0  0  0
   -2.3399   -3.3696   -0.6767 H   0  0  0  0  0  0  0  0  0  0  0  0
   -0.3879   -0.0634    1.0781 H   0  0  0  0  0  0  0  0  0  0  0  0
   -1.6531   -0.9096    1.9777 H   0  0  0  0  0  0  0  0  0  0  0  0
   -3.2114   -1.3428   -1.7144 H   0  0  0  0  0  0  0  0  0  0  0  0
   -4.4501   -2.0954   -0.7071 H   0  0  0  0  0  0  0  0  0  0  0  0
   -2.4716    1.1830    1.0799 H   0  0  0  0  0  0  0  0  0  0  0  0
   -1.9072    0.7922   -0.5580 H   0  0  0  0  0  0  0  0  0  0  0  0
   -0.4730   -3.0773    1.6691 H   0  0  0  0  0  0  0  0  0  0  0  0
   -0.0672   -3.5949    0.0322 H   0  0  0  0  0  0  0  0  0  0  0  0
    1.2164   -1.2509    1.5407 H   0  0  0  0  0  0  0  0  0  0  0  0
    1.8984   -2.8048    1.2062 H   0  0  0  0  0  0  0  0  0  0  0  0
    1.8996   -2.4155   -1.2138 H   0  0  0  0  0  0  0  0  0  0  0  0
    1.0988   -0.8630   -1.0152 H   0  0  0  0  0  0  0  0  0  0  0  0
   -6.0857   -1.0931    0.6609 H   0  0  0  0  0  0  0  0  0  0  0  0
   -3.7688    2.2313   -0.8491 H   0  0  0  0  0  0  0  0  0  0  0  0
    6.3085   -1.5562   -0.3332 H   0  0  0  0  0  0  0  0  0  0  0  0
   -5.8188    3.5460   -1.0860 H   0  0  0  0  0  0  0  0  0  0  0  0
   -8.0086    2.5829   -0.4808 H   0  0  0  0  0  0  0  0  0  0  0  0
    3.5845    3.1279    0.3002 H   0  0  0  0  0  0  0  0  0  0  0  0
    7.6945    0.3524    0.0266 H   0  0  0  0  0  0  0  0  0  0  0  0
    5.8018    4.1664    0.5576 H   0  0  0  0  0  0  0  0  0  0  0  0
    7.8561    2.7854    0.4217 H   0  0  0  0  0  0  0  0  0  0  0  0
  1 22  1  0  0  0  0
  2 18  2  0  0  0  0
  3 19  2  0  0  0  0
  4  8  1  0  0  0  0
  4  9  1  0  0  0  0
  4 12  1  0  0  0  0
  5 10  1  0  0  0  0
  5 11  1  0  0  0  0
  5 15  1  0  0  0  0
  6 14  1  0  0  0  0
  6 18  1  0  0  0  0
  6 19  1  0  0  0  0
  7 19  1  0  0  0  0
  7 21  1  0  0  0  0
  7 45  1  0  0  0  0
  8 10  1  0  0  0  0
  8 29  1  0  0  0  0
  8 30  1  0  0  0  0
  9 11  1  0  0  0  0
  9 31  1  0  0  0  0
  9 32  1  0  0  0  0
 10 33  1  0  0  0  0
 10 34  1  0  0  0  0
 11 35  1  0  0  0  0
 11 36  1  0  0  0  0
 12 13  1  0  0  0  0
 12 37  1  0  0  0  0
 12 38  1  0  0  0  0
 13 14  1  0  0  0  0
 13 39  1  0  0  0  0
 13 40  1  0  0  0  0
 14 41  1  0  0  0  0
 14 42  1  0  0  0  0
 15 16  2  0  0  0  0
 15 17  1  0  0  0  0
 16 22  1  0  0  0  0
 16 43  1  0  0  0  0
 17 23  2  0  0  0  0
 17 44  1  0  0  0  0
 18 20  1  0  0  0  0
 20 21  1  0  0  0  0
 20 25  2  0  0  0  0
 21 26  2  0  0  0  0
 22 24  2  0  0  0  0
 23 24  1  0  0  0  0
 23 46  1  0  0  0  0
 24 47  1  0  0  0  0
 25 27  1  0  0  0  0
 25 48  1  0  0  0  0
 26 28  1  0  0  0  0
 26 49  1  0  0  0  0
 27 28  2  0  0  0  0
 27 50  1  0  0  0  0
 28 51  1  0  0  0  0
M  END
> <PUBCHEM_COMPOUND_CID>
10675

> <PUBCHEM_CONFORMER_RMSD>
0.8

> <PUBCHEM_CONFORMER_DIVERSEORDER>
1
44
244
80
193
328
311
208
317
216
28
286
118
176
320
302
230
20
227
308
127
95
47
51
309
122
205
156
313
77
242
218
329
174
116
81
282
117
182
94
56
78
194
240
12
103
192
49
277
39
141
276
188
105
221
224
139
249
312
45
134
322
228
210
159
262
229
222
223
267
294
260
225
196
37
130
184
191
217
129
266
25
219
104
98
79
261
236
125
299
241
161
272
102
255
93
247
325
284
11
214
180
235
177
91
54
202
189
96
150
181
85
74
162
171
330
195
274
59
138
143
149
269
290
288
187
256
60
34
111
22
239
232
209
7
186
145
89
257
279
169
304
157
36
178
301
66
121
128
238
19
246
114
314
306
200
151
285
168
212
275
31
50
289
175
163
88
173
9
206
55
190
33
27
30
315
155
109
113
321
281
213
297
146
283
204
87
86
142
133
220
295
69
135
207
65
280
300
201
32
215
90
24
253
185
264
226
48
41
26
197
53
29
291
107
148
172
147
46
166
231
101
131
254
112
259
82
100
8
250
165
265
270
237
154
248
243
75
108
268
179
245
67
64
71
119
52
164
40
203
287
160
97
61
153
307
57
63
271
167
73
278
323
211
152
136
2
123
124
126
58
144
132
115
5
92
293
198
21
263
43
140
35
234
70
310
18
4
23
16
17
183
137
251
292
158
233
68
62
76
298
83
319
72
326
106
84
324
10
327
303
15
296
42
120
258
170
38
99
252
199
273
316
305
318
13
110
6
3
14

> <PUBCHEM_MMFF94_PARTIAL_CHARGES>
36
1 -0.18
10 0.37
11 0.37
12 0.27
14 0.3
15 0.1
16 -0.15
17 -0.15
18 0.54
19 0.69
2 -0.57
20 0.09
21 0.12
22 0.18
23 -0.15
24 -0.15
25 -0.15
26 -0.15
27 -0.15
28 -0.15
3 -0.57
4 -0.81
43 0.15
44 0.15
45 0.37
46 0.15
47 0.15
48 0.15
49 0.15
5 -0.84
50 0.15
51 0.15
6 -0.42
7 -0.55
8 0.27
9 0.27

> <PUBCHEM_EFFECTIVE_ROTOR_COUNT>
6.2

> <PUBCHEM_PHARMACOPHORE_FEATURES>
9
1 2 acceptor
1 3 acceptor
1 4 cation
1 5 cation
1 7 donor
6 15 16 17 22 23 24 rings
6 20 21 25 26 27 28 rings
6 4 5 8 9 10 11 rings
6 6 7 18 19 20 21 rings

> <PUBCHEM_HEAVY_ATOM_COUNT>
28

> <PUBCHEM_ATOM_DEF_STEREO_COUNT>
0

> <PUBCHEM_ATOM_UDEF_STEREO_COUNT>
0

> <PUBCHEM_BOND_DEF_STEREO_COUNT>
0

> <PUBCHEM_BOND_UDEF_STEREO_COUNT>
0

> <PUBCHEM_ISOTOPIC_ATOM_COUNT>
0

> <PUBCHEM_COMPONENT_COUNT>
1

> <PUBCHEM_CACTVS_TAUTO_COUNT>
3

> <PUBCHEM_CONFORMER_ID>
000029B300000001

> <PUBCHEM_MMFF94_ENERGY>
75.2482

> <PUBCHEM_FEATURE_SELFOVERLAP>
45.698

> <PUBCHEM_SHAPE_FINGERPRINT>
10 15 18202844336201345873
10050765 1 18411702075593030475
10411042 1 17904478855772514702
10673678 19 18335417993375340743
10835480 77 18408887325867335768
12633257 1 15123501489226733995
12895837 130 18265051340661523367
13402501 40 18413672421914780421
13690498 29 17460046076441371079
14168556 18 18270957939656268595
14394314 77 18336822104833478753
14556957 393 16950271940626990345
14931854 50 17968087634203967800
14933364 13 18411135853427274061
15183329 4 17240198837808972801
15419008 145 17986687050430338560
15840311 113 18340201990580466845
16126227 98 18409446965038833707
18608769 82 18339359657299505315
19053607 189 18193283992715692376
19302320 297 18272652295169142660
19438510 23 18131071528222518595
19611394 137 17845357874985503009
20157964 124 18334292085115550606
20281389 69 18343302582741456165
20511986 3 18113909230171803346
20715895 44 18410856551751429736
21033648 29 17989479710663540514
21033650 10 14418395716400764435
21298829 104 18411699863742174316
21424621 283 18201720652070795371
21792934 111 18260833693023369824
23559900 14 18114750321843622680
2838139 119 18409736144464265046
335352 9 18409441510831612950
3472631 163 18408323297861370639
34797466 226 18114457950867061223
4073 2 18201153256968692986
4093350 32 17603865624452738076
4098825 35 18335704923055066539
445580 167 18334865996342450487
5104073 3 18060423499391195226
5109719 28 18411974780551640275
5385378 56 17918281973832344322
6697151 62 16980153544825536995
6898599 12 18115030688660865623

> <PUBCHEM_SHAPE_MULTIPOLES>
546.43
23.57
3.42
0.8
17.28
0.08
0.03
-16.69
0.19
-2.85
-0.08
0.23
0.1
1.57

> <PUBCHEM_SHAPE_SELFOVERLAP>
1164.897

> <PUBCHEM_SHAPE_VOLUME>
302.5

> <PUBCHEM_COORDINATE_TYPE>
2
5
10

$$$$

