14039
  -OEChem-07051212533D

 11 10  0     0  0  0  0  0  0999 V2000
   -0.4906    1.3328   -0.0015 O   0  0  0  0  0  0  0  0  0  0  0  0
    0.7016   -0.6663    0.0076 N   0  0  0  0  0  0  0  0  0  0  0  0
    1.9302   -0.0386   -0.0078 N   0  0  0  0  0  0  0  0  0  0  0  0
   -0.4451    0.1048    0.0095 C   0  0  0  0  0  0  0  0  0  0  0  0
   -1.6961   -0.7326   -0.0078 C   0  0  0  0  0  0  0  0  0  0  0  0
   -1.9142   -1.0340   -1.0359 H   0  0  0  0  0  0  0  0  0  0  0  0
   -1.5759   -1.6245    0.6140 H   0  0  0  0  0  0  0  0  0  0  0  0
   -2.5328   -0.1478    0.3844 H   0  0  0  0  0  0  0  0  0  0  0  0
    0.6810   -1.6812    0.0048 H   0  0  0  0  0  0  0  0  0  0  0  0
    2.4288   -0.3846   -0.8265 H   0  0  0  0  0  0  0  0  0  0  0  0
    2.4470   -0.3805    0.8014 H   0  0  0  0  0  0  0  0  0  0  0  0
  1  4  2  0  0  0  0
  2  3  1  0  0  0  0
  2  4  1  0  0  0  0
  2  9  1  0  0  0  0
  3 10  1  0  0  0  0
  3 11  1  0  0  0  0
  4  5  1  0  0  0  0
  5  6  1  0  0  0  0
  5  7  1  0  0  0  0
  5  8  1  0  0  0  0
M  END
> <PUBCHEM_COMPOUND_CID>
14039

> <PUBCHEM_CONFORMER_RMSD>
0.4

> <PUBCHEM_CONFORMER_DIVERSEORDER>
1

> <PUBCHEM_MMFF94_PARTIAL_CHARGES>
8
1 -0.57
10 0.36
11 0.36
2 -0.42
3 -0.73
4 0.57
5 0.06
9 0.37

> <PUBCHEM_EFFECTIVE_ROTOR_COUNT>
1

> <PUBCHEM_PHARMACOPHORE_FEATURES>
3
1 1 acceptor
1 2 donor
1 3 donor

> <PUBCHEM_HEAVY_ATOM_COUNT>
5

> <PUBCHEM_ATOM_DEF_STEREO_COUNT>
0

> <PUBCHEM_ATOM_UDEF_STEREO_COUNT>
0

> <PUBCHEM_BOND_DEF_STEREO_COUNT>
0

> <PUBCHEM_BOND_UDEF_STEREO_COUNT>
0

> <PUBCHEM_ISOTOPIC_ATOM_COUNT>
0

> <PUBCHEM_COMPONENT_COUNT>
1

> <PUBCHEM_CACTVS_TAUTO_COUNT>
2

> <PUBCHEM_CONFORMER_ID>
000036D700000001

> <PUBCHEM_MMFF94_ENERGY>
5.1627

> <PUBCHEM_FEATURE_SELFOVERLAP>
16.735

> <PUBCHEM_SHAPE_FINGERPRINT>
139733 1 9295299338933747267
16714656 1 18334287648045055854
20096714 4 17907014332862053696
21015797 1 8862356744166068147
29004967 10 18341045212207683579
5460574 1 9295298239263935395
5943 1 13034187585588077941

> <PUBCHEM_SHAPE_MULTIPOLES>
87.07
2.07
1.06
0.56
0.45
0.33
0
-0.52
-0.01
-0.2
0
-0.05
-0.01
0

> <PUBCHEM_SHAPE_SELFOVERLAP>
152.378

> <PUBCHEM_SHAPE_VOLUME>
57.7

> <PUBCHEM_COORDINATE_TYPE>
2
5
10

$$$$

