97176
  -OEChem-07051212562D

 25 28  0     0  0  0  0  0  0999 V2000
    2.0000   -0.1519    0.0000 O   0  0  0  0  0  0  0  0  0  0  0  0
    3.7602   -0.3401    0.0000 N   0  0  0  0  0  0  0  0  0  0  0  0
    5.3799   -2.4110    0.0000 N   0  0  0  0  0  0  0  0  0  0  0  0
    4.5692   -0.9279    0.0000 C   0  0  0  0  0  0  0  0  0  0  0  0
    5.3782   -0.3401    0.0000 C   0  0  0  0  0  0  0  0  0  0  0  0
    4.0692    0.6110    0.0000 C   0  0  0  0  0  0  0  0  0  0  0  0
    5.0692    0.6110    0.0000 C   0  0  0  0  0  0  0  0  0  0  0  0
    4.4763   -1.9653    0.0000 C   0  0  0  0  0  0  0  0  0  0  0  0
    2.8022   -0.7490    0.0000 C   0  0  0  0  0  0  0  0  0  0  0  0
    6.2345   -0.8710    0.0000 C   0  0  0  0  0  0  0  0  0  0  0  0
    3.5345    1.5049    0.0000 C   0  0  0  0  0  0  0  0  0  0  0  0
    5.6038    1.5049    0.0000 C   0  0  0  0  0  0  0  0  0  0  0  0
    3.5280   -2.3963    0.0000 C   0  0  0  0  0  0  0  0  0  0  0  0
    2.6853   -1.7841    0.0000 C   0  0  0  0  0  0  0  0  0  0  0  0
    4.0484    2.4110    0.0000 C   0  0  0  0  0  0  0  0  0  0  0  0
    6.2353   -1.8786    0.0000 C   0  0  0  0  0  0  0  0  0  0  0  0
    5.0900    2.4110    0.0000 C   0  0  0  0  0  0  0  0  0  0  0  0
    6.7761   -0.5693    0.0000 H   0  0  0  0  0  0  0  0  0  0  0  0
    2.9146    1.4978    0.0000 H   0  0  0  0  0  0  0  0  0  0  0  0
    6.2238    1.4978    0.0000 H   0  0  0  0  0  0  0  0  0  0  0  0
    3.4656   -3.0132    0.0000 H   0  0  0  0  0  0  0  0  0  0  0  0
    2.1179   -2.0341    0.0000 H   0  0  0  0  0  0  0  0  0  0  0  0
    3.7363    2.9467    0.0000 H   0  0  0  0  0  0  0  0  0  0  0  0
    6.7774   -2.1794    0.0000 H   0  0  0  0  0  0  0  0  0  0  0  0
    5.4021    2.9467    0.0000 H   0  0  0  0  0  0  0  0  0  0  0  0
  1  9  2  0  0  0  0
  2  4  1  0  0  0  0
  2  6  1  0  0  0  0
  2  9  1  0  0  0  0
  3  8  2  0  0  0  0
  3 16  1  0  0  0  0
  4  5  2  0  0  0  0
  4  8  1  0  0  0  0
  5  7  1  0  0  0  0
  5 10  1  0  0  0  0
  6  7  1  0  0  0  0
  6 11  2  0  0  0  0
  7 12  2  0  0  0  0
  8 13  1  0  0  0  0
  9 14  1  0  0  0  0
 10 16  2  0  0  0  0
 10 18  1  0  0  0  0
 11 15  1  0  0  0  0
 11 19  1  0  0  0  0
 12 17  1  0  0  0  0
 12 20  1  0  0  0  0
 13 14  2  0  0  0  0
 13 21  1  0  0  0  0
 14 22  1  0  0  0  0
 15 17  2  0  0  0  0
 15 23  1  0  0  0  0
 16 24  1  0  0  0  0
 17 25  1  0  0  0  0
M  END
> <PUBCHEM_COMPOUND_CID>
97176

> <PUBCHEM_COMPOUND_CANONICALIZED>
1

> <PUBCHEM_CACTVS_COMPLEXITY>
378

> <PUBCHEM_CACTVS_HBOND_ACCEPTOR>
2

> <PUBCHEM_CACTVS_HBOND_DONOR>
0

> <PUBCHEM_CACTVS_ROTATABLE_BOND>
0

> <PUBCHEM_CACTVS_SUBSKEYS>
AAADccBzIAAAAAAAAAAAAAAAAAAAAWAAAAA8QIAAAAAAAFiB/gAAHgAAAAAADAjBngQ8wPMMEACoAzV3VACCgCQxEiAI2CA4dNgIYOLAkZGUIAhghADIyYcQgMAOgAAAAAACAAAAAAAAAAQAAAAAAAAAAA==

> <PUBCHEM_IUPAC_INCHI>
InChI=1S/C14H8N2O/c17-13-6-5-11-14-10(7-8-15-11)9-3-1-2-4-12(9)16(13)14/h1-8H

> <PUBCHEM_IUPAC_INCHIKEY>
ZERVJPYNQLONEK-UHFFFAOYSA-N

> <PUBCHEM_XLOGP3_AA>
2.4

> <PUBCHEM_EXACT_MASS>
220.063663

> <PUBCHEM_MOLECULAR_FORMULA>
C14H8N2O

> <PUBCHEM_MOLECULAR_WEIGHT>
220.22612

> <PUBCHEM_OPENEYE_CAN_SMILES>
C1=CC=C2C(=C1)C3=C4N2C(=O)C=CC4=NC=C3

> <PUBCHEM_OPENEYE_ISO_SMILES>
C1=CC=C2C(=C1)C3=C4N2C(=O)C=CC4=NC=C3

> <PUBCHEM_CACTVS_TPSA>
34.9

> <PUBCHEM_MONOISOTOPIC_WEIGHT>
220.063663

> <PUBCHEM_TOTAL_CHARGE>
0

> <PUBCHEM_HEAVY_ATOM_COUNT>
17

> <PUBCHEM_ATOM_DEF_STEREO_COUNT>
0

> <PUBCHEM_ATOM_UDEF_STEREO_COUNT>
0

> <PUBCHEM_BOND_DEF_STEREO_COUNT>
0

> <PUBCHEM_BOND_UDEF_STEREO_COUNT>
0

> <PUBCHEM_ISOTOPIC_ATOM_COUNT>
0

> <PUBCHEM_COMPONENT_COUNT>
1

> <PUBCHEM_CACTVS_TAUTO_COUNT>
1

> <PUBCHEM_COORDINATE_TYPE>
1
5
255

> <PUBCHEM_BONDANNOTATIONS>
10  16  8
11  15  8
12  17  8
13  14  8
15  17  8
2  4  8
2  6  8
2  9  8
3  16  8
3  8  8
4  5  8
4  8  8
5  10  8
5  7  8
6  11  8
6  7  8
7  12  8
8  13  8
9  14  8

$$$$

