24883448
  -OEChem-07051213113D

 39 39  0     1  0  0  0  0  0999 V2000
   -2.2720   -1.3277    0.7152 P   0  0  2  0  0  0  0  0  0  0  0  0
   -3.8937    0.6229   -0.7751 P   0  0  0  0  0  0  0  0  0  0  0  0
   -0.8727   -0.8005    0.0968 O   0  0  0  0  0  0  0  0  0  0  0  0
   -3.2861   -0.0800    0.5474 O   0  0  0  0  0  0  0  0  0  0  0  0
   -2.0124   -1.3824    2.3111 O   0  0  0  0  0  0  0  0  0  0  0  0
   -2.7755   -2.6131    0.1254 O   0  0  0  0  0  0  0  0  0  0  0  0
   -4.9507    1.6867   -0.1723 O   0  0  0  0  0  0  0  0  0  0  0  0
   -4.8347   -0.5272   -1.4101 O   0  0  0  0  0  0  0  0  0  0  0  0
   -2.8673    1.1979   -1.7058 O   0  0  0  0  0  0  0  0  0  0  0  0
    2.0946    1.4171    0.5132 C   0  0  0  0  0  0  0  0  0  0  0  0
    0.9789    0.6655   -0.1519 C   0  0  1  0  0  0  0  0  0  0  0  0
    2.2195   -0.0599    0.2799 C   0  0  1  0  0  0  0  0  0  0  0  0
    1.9154    1.8770    1.9207 C   0  0  0  0  0  0  0  0  0  0  0  0
    2.8758    2.3686   -0.3301 C   0  0  0  0  0  0  0  0  0  0  0  0
   -0.2962    0.4032    0.5733 C   0  0  0  0  0  0  0  0  0  0  0  0
    3.1158   -0.5701   -0.7465 C   0  0  0  0  0  0  0  0  0  0  0  0
    4.4289   -0.8457   -0.6310 C   0  0  0  0  0  0  0  0  0  0  0  0
    5.2190   -1.3713   -1.7972 C   0  0  0  0  0  0  0  0  0  0  0  0
    5.2133   -0.6610    0.6370 C   0  0  0  0  0  0  0  0  0  0  0  0
    0.8064    0.8318   -1.2096 H   0  0  0  0  0  0  0  0  0  0  0  0
    2.1216   -0.7219    1.1356 H   0  0  0  0  0  0  0  0  0  0  0  0
    1.6349    1.0724    2.6083 H   0  0  0  0  0  0  0  0  0  0  0  0
    1.1515    2.6600    1.9770 H   0  0  0  0  0  0  0  0  0  0  0  0
    2.8506    2.2978    2.3077 H   0  0  0  0  0  0  0  0  0  0  0  0
    2.4493    3.3757   -0.2619 H   0  0  0  0  0  0  0  0  0  0  0  0
    2.8824    2.0982   -1.3917 H   0  0  0  0  0  0  0  0  0  0  0  0
    3.9159    2.4219    0.0096 H   0  0  0  0  0  0  0  0  0  0  0  0
   -0.9882    1.2323    0.3972 H   0  0  0  0  0  0  0  0  0  0  0  0
   -0.1599    0.3033    1.6526 H   0  0  0  0  0  0  0  0  0  0  0  0
    2.6543   -0.7575   -1.7151 H   0  0  0  0  0  0  0  0  0  0  0  0
    6.0377   -0.6860   -2.0396 H   0  0  0  0  0  0  0  0  0  0  0  0
    5.6448   -2.3507   -1.5558 H   0  0  0  0  0  0  0  0  0  0  0  0
    4.6062   -1.4881   -2.6973 H   0  0  0  0  0  0  0  0  0  0  0  0
    5.6420   -1.6160    0.9582 H   0  0  0  0  0  0  0  0  0  0  0  0
    6.0311    0.0485    0.4742 H   0  0  0  0  0  0  0  0  0  0  0  0
    4.6055   -0.2785    1.4622 H   0  0  0  0  0  0  0  0  0  0  0  0
   -2.6873   -1.8004    2.8873 H   0  0  0  0  0  0  0  0  0  0  0  0
   -5.3986    2.3096   -0.7836 H   0  0  0  0  0  0  0  0  0  0  0  0
   -5.2610   -0.3663   -2.2787 H   0  0  0  0  0  0  0  0  0  0  0  0
  1  3  1  0  0  0  0
  1  4  1  0  0  0  0
  1  5  1  0  0  0  0
  1  6  2  0  0  0  0
  2  4  1  0  0  0  0
  2  7  1  0  0  0  0
  2  8  1  0  0  0  0
  2  9  2  0  0  0  0
  3 15  1  0  0  0  0
  5 37  1  0  0  0  0
  7 38  1  0  0  0  0
  8 39  1  0  0  0  0
 10 11  1  0  0  0  0
 10 12  1  0  0  0  0
 10 13  1  0  0  0  0
 10 14  1  0  0  0  0
 11 12  1  0  0  0  0
 11 15  1  0  0  0  0
 11 20  1  0  0  0  0
 12 16  1  0  0  0  0
 12 21  1  0  0  0  0
 13 22  1  0  0  0  0
 13 23  1  0  0  0  0
 13 24  1  0  0  0  0
 14 25  1  0  0  0  0
 14 26  1  0  0  0  0
 14 27  1  0  0  0  0
 15 28  1  0  0  0  0
 15 29  1  0  0  0  0
 16 17  2  0  0  0  0
 16 30  1  0  0  0  0
 17 18  1  0  0  0  0
 17 19  1  0  0  0  0
 18 31  1  0  0  0  0
 18 32  1  0  0  0  0
 18 33  1  0  0  0  0
 19 34  1  0  0  0  0
 19 35  1  0  0  0  0
 19 36  1  0  0  0  0
M  END
> <PUBCHEM_COMPOUND_CID>
24883448

> <PUBCHEM_CONFORMER_RMSD>
1

> <PUBCHEM_CONFORMER_DIVERSEORDER>
1
64
54
46
51
35
57
21
42
8
5
19
31
65
15
20
61
23
9
13
10
32
27
34
50
63
37
26
59
48
60
40
7
47
4
39
58
3
36
49
29
62
56
55
14
18
24
16
53
6
25
44
22
33
52
41
38
28
2
11
12
43
30
45
17

> <PUBCHEM_MMFF94_PARTIAL_CHARGES>
25
1 1.51
10 -0.19
11 -0.19
12 -0.06
13 0.09
14 0.09
15 0.38
16 -0.19
17 -0.28
18 0.14
19 0.14
2 1.51
20 0.1
21 0.1
3 -0.55
30 0.15
37 0.5
38 0.5
39 0.5
4 -0.54
5 -0.77
6 -0.7
7 -0.77
8 -0.77
9 -0.7

> <PUBCHEM_EFFECTIVE_ROTOR_COUNT>
6.6

> <PUBCHEM_PHARMACOPHORE_FEATURES>
8
1 5 acceptor
1 6 acceptor
1 7 acceptor
1 8 acceptor
1 9 acceptor
3 10 13 14 hydrophobe
3 17 18 19 hydrophobe
4 2 7 8 9 anion

> <PUBCHEM_HEAVY_ATOM_COUNT>
19

> <PUBCHEM_ATOM_DEF_STEREO_COUNT>
2

> <PUBCHEM_ATOM_UDEF_STEREO_COUNT>
0

> <PUBCHEM_BOND_DEF_STEREO_COUNT>
0

> <PUBCHEM_BOND_UDEF_STEREO_COUNT>
0

> <PUBCHEM_ISOTOPIC_ATOM_COUNT>
0

> <PUBCHEM_COMPONENT_COUNT>
1

> <PUBCHEM_CACTVS_TAUTO_COUNT>
1

> <PUBCHEM_CONFORMER_ID>
017BB0F800000001

> <PUBCHEM_MMFF94_ENERGY>
-19.0638

> <PUBCHEM_FEATURE_SELFOVERLAP>
40.641

> <PUBCHEM_SHAPE_FINGERPRINT>
11405975 8 18343019960750131912
11796584 16 17918270974721896522
12760667 363 17971182867206062974
13134695 92 17748828510240142608
13296908 3 18339921498286038426
13544653 18 17749665285996478732
13583140 156 17678465155739532576
14251731 8 18273210919878785774
14251752 14 17560798883880724686
15099037 51 18410011065363235702
17041 50 18341892983017617636
17349148 13 16081368544386463622
18186145 218 18340501031562194901
18222031 100 17531241795101615902
192875 21 17167578293290005465
19784866 240 16950562207295954980
19784866 34 13470398942836876188
200 152 16950286217082106103
20645477 70 18260828172782287662
20681677 155 17418371398185892488
21069387 34 17458345234303753039
21618674 53 15195276517302668898
21618674 57 18341615957373617040
22079108 93 12966829235554252532
22943178 12 18265896860766228107
23402539 116 17968099767307035665
23557571 272 17843406180856983425
23559900 14 18410577258391641752
3004659 81 17774159141131607986
32948 21 18060136565795237796
5161694 15 18411416198178752570
5281201 14 18271239413641000812
6049 1 18128243506848217825
6913067 236 7781222297854733729
7615 1 16226317127821411985
9709674 26 18127974096566484299
9971528 1 17748828544662755560

> <PUBCHEM_SHAPE_MULTIPOLES>
357.62
11.27
2.19
1.62
0.94
0.34
-0.29
-2.8
4.18
-0.44
-0.22
0.46
-0.11
1.8

> <PUBCHEM_SHAPE_SELFOVERLAP>
677.85

> <PUBCHEM_SHAPE_VOLUME>
224.6

> <PUBCHEM_COORDINATE_TYPE>
2
5
10

$$$$

