249677
  -OEChem-07051213063D

 36 39  0     0  0  0  0  0  0999 V2000
   -4.4222    0.0247    2.7629 Cl  0  0  0  0  0  0  0  0  0  0  0  0
    2.1875   -1.8394   -0.2404 O   0  0  0  0  0  0  0  0  0  0  0  0
    4.1630   -2.9329    0.0759 O   0  0  0  0  0  0  0  0  0  0  0  0
   -2.0880    0.2302   -0.9283 N   0  0  0  0  0  0  0  0  0  0  0  0
    2.0700    0.6006   -0.2237 C   0  0  0  0  0  0  0  0  0  0  0  0
    3.5171    0.6428    0.0205 C   0  0  0  0  0  0  0  0  0  0  0  0
    1.4464   -0.6432   -0.3473 C   0  0  0  0  0  0  0  0  0  0  0  0
    4.2349   -0.5617    0.1230 C   0  0  0  0  0  0  0  0  0  0  0  0
    1.2454    1.7311   -0.3453 C   0  0  0  0  0  0  0  0  0  0  0  0
    0.0760   -0.7869   -0.5798 C   0  0  0  0  0  0  0  0  0  0  0  0
    4.2424    1.8411    0.1611 C   0  0  0  0  0  0  0  0  0  0  0  0
   -0.7147    0.3491   -0.6953 C   0  0  0  0  0  0  0  0  0  0  0  0
    3.5562   -1.8731   -0.0110 C   0  0  0  0  0  0  0  0  0  0  0  0
    5.6196   -0.5643    0.3561 C   0  0  0  0  0  0  0  0  0  0  0  0
   -0.1307    1.6072   -0.5783 C   0  0  0  0  0  0  0  0  0  0  0  0
    5.6211    1.8386    0.3930 C   0  0  0  0  0  0  0  0  0  0  0  0
    6.3093    0.6365    0.4905 C   0  0  0  0  0  0  0  0  0  0  0  0
   -4.3097    0.0386    0.0366 C   0  0  0  0  0  0  0  0  0  0  0  0
   -2.8450    0.1644    0.1243 C   0  0  0  0  0  0  0  0  0  0  0  0
   -5.0993   -0.0299    1.1751 C   0  0  0  0  0  0  0  0  0  0  0  0
   -4.8747   -0.0076   -1.2304 C   0  0  0  0  0  0  0  0  0  0  0  0
   -6.4832   -0.1470    1.0446 C   0  0  0  0  0  0  0  0  0  0  0  0
   -6.2586   -0.1247   -1.3606 C   0  0  0  0  0  0  0  0  0  0  0  0
   -7.0628   -0.1944   -0.2232 C   0  0  0  0  0  0  0  0  0  0  0  0
    1.6453    2.7378   -0.2630 H   0  0  0  0  0  0  0  0  0  0  0  0
   -0.3623   -1.7774   -0.6691 H   0  0  0  0  0  0  0  0  0  0  0  0
    3.7553    2.8101    0.0940 H   0  0  0  0  0  0  0  0  0  0  0  0
    6.1770   -1.4940    0.4358 H   0  0  0  0  0  0  0  0  0  0  0  0
   -0.7362    2.5059   -0.6672 H   0  0  0  0  0  0  0  0  0  0  0  0
    6.1538    2.7796    0.4971 H   0  0  0  0  0  0  0  0  0  0  0  0
    7.3801    0.6333    0.6707 H   0  0  0  0  0  0  0  0  0  0  0  0
   -2.3828    0.2040    1.1257 H   0  0  0  0  0  0  0  0  0  0  0  0
   -4.2778    0.0445   -2.1364 H   0  0  0  0  0  0  0  0  0  0  0  0
   -7.1242   -0.2026    1.9209 H   0  0  0  0  0  0  0  0  0  0  0  0
   -6.7104   -0.1616   -2.3476 H   0  0  0  0  0  0  0  0  0  0  0  0
   -8.1403   -0.2857   -0.3249 H   0  0  0  0  0  0  0  0  0  0  0  0
  1 20  1  0  0  0  0
  2  7  1  0  0  0  0
  2 13  1  0  0  0  0
  3 13  2  0  0  0  0
  4 12  1  0  0  0  0
  4 19  2  0  0  0  0
  5  6  1  0  0  0  0
  5  7  2  0  0  0  0
  5  9  1  0  0  0  0
  6  8  1  0  0  0  0
  6 11  2  0  0  0  0
  7 10  1  0  0  0  0
  8 13  1  0  0  0  0
  8 14  2  0  0  0  0
  9 15  2  0  0  0  0
  9 25  1  0  0  0  0
 10 12  2  0  0  0  0
 10 26  1  0  0  0  0
 11 16  1  0  0  0  0
 11 27  1  0  0  0  0
 12 15  1  0  0  0  0
 14 17  1  0  0  0  0
 14 28  1  0  0  0  0
 15 29  1  0  0  0  0
 16 17  2  0  0  0  0
 16 30  1  0  0  0  0
 17 31  1  0  0  0  0
 18 19  1  0  0  0  0
 18 20  1  0  0  0  0
 18 21  2  0  0  0  0
 19 32  1  0  0  0  0
 20 22  2  0  0  0  0
 21 23  1  0  0  0  0
 21 33  1  0  0  0  0
 22 24  1  0  0  0  0
 22 34  1  0  0  0  0
 23 24  2  0  0  0  0
 23 35  1  0  0  0  0
 24 36  1  0  0  0  0
M  END
> <PUBCHEM_COMPOUND_CID>
249677

> <PUBCHEM_CONFORMER_RMSD>
0.6

> <PUBCHEM_CONFORMER_DIVERSEORDER>
1
8
5
10
4
6
7
3
9
2

> <PUBCHEM_MMFF94_PARTIAL_CHARGES>
34
1 -0.18
10 -0.15
11 -0.15
12 0.18
13 0.63
14 -0.15
15 -0.15
16 -0.15
17 -0.15
18 0.09
19 0.3
2 -0.23
20 0.18
21 -0.15
22 -0.15
23 -0.15
24 -0.15
25 0.15
26 0.15
27 0.15
28 0.15
29 0.15
3 -0.57
30 0.15
31 0.15
32 0.06
33 0.15
34 0.15
35 0.15
36 0.15
4 -0.63
7 0.08
8 0.09
9 -0.15

> <PUBCHEM_EFFECTIVE_ROTOR_COUNT>
2

> <PUBCHEM_PHARMACOPHORE_FEATURES>
6
1 3 acceptor
1 4 acceptor
6 18 20 21 22 23 24 rings
6 2 5 6 7 8 13 rings
6 5 7 9 10 12 15 rings
6 6 8 11 14 16 17 rings

> <PUBCHEM_HEAVY_ATOM_COUNT>
24

> <PUBCHEM_ATOM_DEF_STEREO_COUNT>
0

> <PUBCHEM_ATOM_UDEF_STEREO_COUNT>
0

> <PUBCHEM_BOND_DEF_STEREO_COUNT>
0

> <PUBCHEM_BOND_UDEF_STEREO_COUNT>
0

> <PUBCHEM_ISOTOPIC_ATOM_COUNT>
0

> <PUBCHEM_COMPONENT_COUNT>
1

> <PUBCHEM_CACTVS_TAUTO_COUNT>
1

> <PUBCHEM_CONFORMER_ID>
0003CF4D00000001

> <PUBCHEM_MMFF94_ENERGY>
84.1774

> <PUBCHEM_FEATURE_SELFOVERLAP>
30.494

> <PUBCHEM_SHAPE_FINGERPRINT>
10 15 17917436380813480072
10411042 1 18049163560817070486
10670039 82 14996549720456894528
10912923 1 17748827427755052115
11059845 2 15724157231249690666
11089746 13 17458064828689652528
11315181 36 17676209036164596101
11524674 6 17703792492665687971
11545043 162 16845286108553062497
11578080 2 13685145624184042796
11796584 16 16559029385320710105
12107183 9 17611176452911080467
12236239 1 17748827414880576525
12516196 113 18412546509523605189
12596602 18 17748824124883068891
12730499 353 18342175575218633714
13533116 47 18260550047653389994
13540713 4 18125735719121880268
13685833 64 18202844353428726465
14251764 18 17894632530552989053
14341114 176 18410289224603964877
14341114 328 17385719227383080651
146900 427 18114184116483896984
14848160 23 17775284971716969875
14849402 71 17749956526970186104
15348495 7 17489020444983370697
15475509 35 16916521362561965490
1577012 14 17531243972581326487
17492 89 18121503720278193782
17844677 252 18338232768848765901
19377110 9 17821726156693585705
19489759 90 16630529540460219277
20511986 3 17967543384722256097
20567600 75 18131356332136324509
21033648 29 18129961022001067605
21065198 48 18040431131271430889
21130935 74 18410571808363285315
21267235 1 18337390548143945126
21315763 191 13254794608155622609
21623969 137 18272930518227219778
22224240 67 18337398149782255008
23081809 10 17458349649946916871
23559900 14 16630240304335485573
239999 70 17704070690391933832
255183 451 17898281952292719854
3004659 81 13110965335962886280
3178227 256 18413111650574895088
335352 9 18408887326953746726
3383291 50 16988552474037216299
34797466 226 14418132864169841544
3633792 109 18335990848245461797
3663271 9 18113896070460619515
397830 11 17201913735149961161
4073 2 18201155451686431667
42630746 31 18407761435130351926
4340502 62 17632301168321608970
465052 167 17632864122907568592
5104073 3 18269280234465868176
542803 24 17167863054275510341
559249 180 14620798185324040153
5758199 1 18187367580654235048

> <PUBCHEM_SHAPE_MULTIPOLES>
479.06
18.66
1.78
1.33
13.46
0.61
0.81
0.02
3.19
-3.81
-0.06
2.88
-0.05
0.2

> <PUBCHEM_SHAPE_SELFOVERLAP>
1063.709

> <PUBCHEM_SHAPE_VOLUME>
255.2

> <PUBCHEM_COORDINATE_TYPE>
2
5
10

$$$$

