583022
  -OEChem-06241222442D

 15 15  0     0  0  0  0  0  0999 V2000
    4.3479    1.6739    0.0000 F   0  0  0  0  0  0  0  0  0  0  0  0
    3.1723    1.6739    0.0000 F   0  0  0  0  0  0  0  0  0  0  0  0
    2.0000   -0.0319    0.0000 F   0  0  0  0  0  0  0  0  0  0  0  0
    2.3633    1.0861    0.0000 F   0  0  0  0  0  0  0  0  0  0  0  0
    5.5202   -0.0319    0.0000 F   0  0  0  0  0  0  0  0  0  0  0  0
    5.1569    1.0861    0.0000 F   0  0  0  0  0  0  0  0  0  0  0  0
    3.2601   -1.6739    0.0000 F   0  0  0  0  0  0  0  0  0  0  0  0
    2.3090   -0.9829    0.0000 F   0  0  0  0  0  0  0  0  0  0  0  0
    4.8479   -1.4830    0.0000 F   0  0  0  0  0  0  0  0  0  0  0  0
    3.7601    0.8649    0.0000 C   0  0  0  0  0  0  0  0  0  0  0  0
    2.9511    0.2771    0.0000 C   0  0  0  0  0  0  0  0  0  0  0  0
    4.5691    0.2771    0.0000 C   0  0  0  0  0  0  0  0  0  0  0  0
    3.2601   -0.6739    0.0000 C   0  0  0  0  0  0  0  0  0  0  0  0
    4.2601   -0.6739    0.0000 C   0  0  0  0  0  0  0  0  0  0  0  0
    4.8724   -0.5769    0.0000 H   0  0  0  0  0  0  0  0  0  0  0  0
  1 10  1  0  0  0  0
  2 10  1  0  0  0  0
  3 11  1  0  0  0  0
  4 11  1  0  0  0  0
  5 12  1  0  0  0  0
  6 12  1  0  0  0  0
  7 13  1  0  0  0  0
  8 13  1  0  0  0  0
  9 14  1  0  0  0  0
 10 11  1  0  0  0  0
 10 12  1  0  0  0  0
 11 13  1  0  0  0  0
 12 14  1  0  0  0  0
 13 14  1  0  0  0  0
 14 15  1  0  0  0  0
M  END
> <PUBCHEM_COMPOUND_CID>
583022

> <PUBCHEM_COMPOUND_CANONICALIZED>
1

> <PUBCHEM_CACTVS_COMPLEXITY>
228

> <PUBCHEM_CACTVS_HBOND_ACCEPTOR>
9

> <PUBCHEM_CACTVS_HBOND_DONOR>
0

> <PUBCHEM_CACTVS_ROTATABLE_BOND>
0

> <PUBCHEM_CACTVS_SUBSKEYS>
AAADcQBgAcAAAAAAAAAAAAAAAAAAAYAAAAAAAAAAAAAAAAAAAAAAGQAAAAAACACAABAAAAAAAAAAAAAAAAAAAAAAAAAAAAAAAAAAAAIAAAAAAAAAAAAAAAAAAAAAAAAAAAAAAAAAAAAAAAAAAAAAAAAAAA==

> <PUBCHEM_IUPAC_OPENEYE_NAME>
1,1,2,2,3,3,4,4,5-nonafluorocyclopentane

> <PUBCHEM_IUPAC_CAS_NAME>
1,1,2,2,3,3,4,4,5-nonafluorocyclopentane

> <PUBCHEM_IUPAC_NAME>
1,1,2,2,3,3,4,4,5-nonafluorocyclopentane

> <PUBCHEM_IUPAC_SYSTEMATIC_NAME>
1,1,2,2,3,3,4,4,5-nonakis(fluoranyl)cyclopentane

> <PUBCHEM_IUPAC_TRADITIONAL_NAME>
1,1,2,2,3,3,4,4,5-nonafluorocyclopentane

> <PUBCHEM_IUPAC_INCHI>
InChI=1S/C5HF9/c6-1-2(7,8)4(11,12)5(13,14)3(1,9)10/h1H

> <PUBCHEM_IUPAC_INCHIKEY>
SOJZMJXWEOBDIC-UHFFFAOYSA-N

> <PUBCHEM_XLOGP3_AA>
3.1

> <PUBCHEM_EXACT_MASS>
231.993454

> <PUBCHEM_MOLECULAR_FORMULA>
C5HF9

> <PUBCHEM_MOLECULAR_WEIGHT>
232.047069

> <PUBCHEM_OPENEYE_CAN_SMILES>
C1(C(C(C(C1(F)F)(F)F)(F)F)(F)F)F

> <PUBCHEM_OPENEYE_ISO_SMILES>
C1(C(C(C(C1(F)F)(F)F)(F)F)(F)F)F

> <PUBCHEM_CACTVS_TPSA>
0

> <PUBCHEM_MONOISOTOPIC_WEIGHT>
231.993454

> <PUBCHEM_TOTAL_CHARGE>
0

> <PUBCHEM_HEAVY_ATOM_COUNT>
14

> <PUBCHEM_ATOM_DEF_STEREO_COUNT>
0

> <PUBCHEM_ATOM_UDEF_STEREO_COUNT>
0

> <PUBCHEM_BOND_DEF_STEREO_COUNT>
0

> <PUBCHEM_BOND_UDEF_STEREO_COUNT>
0

> <PUBCHEM_ISOTOPIC_ATOM_COUNT>
0

> <PUBCHEM_COMPONENT_COUNT>
1

> <PUBCHEM_CACTVS_TAUTO_COUNT>
1

> <PUBCHEM_COORDINATE_TYPE>
1
5
255

$$$$

