159587
  -OEChem-07051213082D

 81 84  0     1  0  0  0  0  0999 V2000
    6.9595   -2.0159    0.0000 O   0  0  0  0  0  0  0  0  0  0  0  0
    6.7595    0.5753    0.0000 O   0  0  0  0  0  0  0  0  0  0  0  0
    4.4635    1.2145    0.0000 O   0  0  0  0  0  0  0  0  0  0  0  0
    9.1419   -1.2794    0.0000 O   0  0  0  0  0  0  0  0  0  0  0  0
    5.6577   -0.6845    0.0000 O   0  0  0  0  0  0  0  0  0  0  0  0
    5.9865    3.6857    0.0000 O   0  0  0  0  0  0  0  0  0  0  0  0
    4.4987   -1.9716    0.0000 N   0  0  0  0  0  0  0  0  0  0  0  0
    9.0513    0.4503    0.0000 N   0  0  0  0  0  0  0  0  0  0  0  0
    4.4419    3.0695    0.0000 N   0  0  0  0  0  0  0  0  0  0  0  0
    7.1446   -1.3841    0.0000 N   0  0  0  0  0  0  0  0  0  0  0  0
    6.9634    2.0753    0.0000 N   0  0  0  0  0  0  0  0  0  0  0  0
    3.1545    0.2634    0.0000 N   0  0  0  0  0  0  0  0  0  0  0  0
    5.4769   -2.1796    0.0000 C   0  0  1  0  0  0  0  0  0  0  0  0
    8.5066    1.2889    0.0000 C   0  0  1  0  0  0  0  0  0  0  0  0
    3.6714    2.1926    0.0000 C   0  0  1  0  0  0  0  0  0  0  0  0
    7.5986   -0.4931    0.0000 C   0  0  1  0  0  0  0  0  0  0  0  0
    3.9635   -0.3244    0.0000 C   0  0  1  0  0  0  0  0  0  0  0  0
    5.9647    2.0229    0.0000 C   0  0  1  0  0  0  0  0  0  0  0  0
    7.7971   -1.4719    0.0000 C   0  0  1  0  0  0  0  0  0  0  0  0
    5.1845   -3.1359    0.0000 C   0  0  0  0  0  0  0  0  0  0  0  0
    5.8696    1.0287    0.0000 C   0  0  1  0  0  0  0  0  0  0  0  0
    4.7725    0.2634    0.0000 C   0  0  1  0  0  0  0  0  0  0  0  0
    9.1758    2.0321    0.0000 C   0  0  0  0  0  0  0  0  0  0  0  0
    2.9668    2.9022    0.0000 C   0  0  0  0  0  0  0  0  0  0  0  0
    6.1460   -1.4364    0.0000 C   0  0  0  0  0  0  0  0  0  0  0  0
    7.5080    1.2366    0.0000 C   0  0  0  0  0  0  0  0  0  0  0  0
    3.4635    1.2145    0.0000 C   0  0  0  0  0  0  0  0  0  0  0  0
    8.5973   -0.4407    0.0000 C   0  0  0  0  0  0  0  0  0  0  0  0
    4.7066   -0.9935    0.0000 C   0  0  0  0  0  0  0  0  0  0  0  0
    5.4201    2.8616    0.0000 C   0  0  0  0  0  0  0  0  0  0  0  0
    8.7192   -1.8589    0.0000 C   0  0  0  0  0  0  0  0  0  0  0  0
    4.2102   -3.3608    0.0000 C   0  0  0  0  0  0  0  0  0  0  0  0
    5.8665   -3.8672    0.0000 C   0  0  0  0  0  0  0  0  0  0  0  0
    4.7331    0.8535    0.0000 C   0  0  0  0  0  0  0  0  0  0  0  0
    5.7236   -0.0456    0.0000 C   0  0  0  0  0  0  0  0  0  0  0  0
   10.1539    1.8242    0.0000 C   0  0  0  0  0  0  0  0  0  0  0  0
    8.8667    2.9831    0.0000 C   0  0  0  0  0  0  0  0  0  0  0  0
    3.2290    3.8672    0.0000 C   0  0  0  0  0  0  0  0  0  0  0  0
    2.0000    2.6469    0.0000 C   0  0  0  0  0  0  0  0  0  0  0  0
    5.8146   -2.6995    0.0000 H   0  0  0  0  0  0  0  0  0  0  0  0
    8.3150    1.8786    0.0000 H   0  0  0  0  0  0  0  0  0  0  0  0
    3.0536    2.1408    0.0000 H   0  0  0  0  0  0  0  0  0  0  0  0
    6.7498   -0.5376    0.0000 H   0  0  0  0  0  0  0  0  0  0  0  0
    3.2758   -0.8240    0.0000 H   0  0  0  0  0  0  0  0  0  0  0  0
    6.0456    2.8691    0.0000 H   0  0  0  0  0  0  0  0  0  0  0  0
    7.8524   -2.0894    0.0000 H   0  0  0  0  0  0  0  0  0  0  0  0
    4.7617   -2.6824    0.0000 H   0  0  0  0  0  0  0  0  0  0  0  0
    5.7714    0.4165    0.0000 H   0  0  0  0  0  0  0  0  0  0  0  0
    5.2109    0.7018    0.0000 H   0  0  0  0  0  0  0  0  0  0  0  0
    9.5906    2.4928    0.0000 H   0  0  0  0  0  0  0  0  0  0  0  0
    2.8042    2.3039    0.0000 H   0  0  0  0  0  0  0  0  0  0  0  0
    3.9788   -2.3093    0.0000 H   0  0  0  0  0  0  0  0  0  0  0  0
    9.6704    0.4827    0.0000 H   0  0  0  0  0  0  0  0  0  0  0  0
    4.3254    3.6785    0.0000 H   0  0  0  0  0  0  0  0  0  0  0  0
    8.4793   -2.4306    0.0000 H   0  0  0  0  0  0  0  0  0  0  0  0
    9.2909   -2.0989    0.0000 H   0  0  0  0  0  0  0  0  0  0  0  0
    8.9592   -1.2872    0.0000 H   0  0  0  0  0  0  0  0  0  0  0  0
    5.4131   -4.2901    0.0000 H   0  0  0  0  0  0  0  0  0  0  0  0
    6.2894   -4.3207    0.0000 H   0  0  0  0  0  0  0  0  0  0  0  0
    6.3200   -3.4444    0.0000 H   0  0  0  0  0  0  0  0  0  0  0  0
    4.0707   -2.7567    0.0000 H   0  0  0  0  0  0  0  0  0  0  0  0
    3.6061   -3.5003    0.0000 H   0  0  0  0  0  0  0  0  0  0  0  0
    4.3497   -3.9650    0.0000 H   0  0  0  0  0  0  0  0  0  0  0  0
    4.6386    1.4662    0.0000 H   0  0  0  0  0  0  0  0  0  0  0  0
    4.1203    0.7590    0.0000 H   0  0  0  0  0  0  0  0  0  0  0  0
    4.8276    0.2407    0.0000 H   0  0  0  0  0  0  0  0  0  0  0  0
    5.5320   -0.6353    0.0000 H   0  0  0  0  0  0  0  0  0  0  0  0
    6.3132   -0.2372    0.0000 H   0  0  0  0  0  0  0  0  0  0  0  0
    5.9152    0.5441    0.0000 H   0  0  0  0  0  0  0  0  0  0  0  0
   10.0250    1.2177    0.0000 H   0  0  0  0  0  0  0  0  0  0  0  0
   10.7604    1.6953    0.0000 H   0  0  0  0  0  0  0  0  0  0  0  0
   10.2828    2.4306    0.0000 H   0  0  0  0  0  0  0  0  0  0  0  0
    9.4564    3.1747    0.0000 H   0  0  0  0  0  0  0  0  0  0  0  0
    8.6751    3.5728    0.0000 H   0  0  0  0  0  0  0  0  0  0  0  0
    8.2771    2.7916    0.0000 H   0  0  0  0  0  0  0  0  0  0  0  0
    1.8417    3.2463    0.0000 H   0  0  0  0  0  0  0  0  0  0  0  0
    1.4006    2.4886    0.0000 H   0  0  0  0  0  0  0  0  0  0  0  0
    2.1583    2.0474    0.0000 H   0  0  0  0  0  0  0  0  0  0  0  0
    3.8273    3.7046    0.0000 H   0  0  0  0  0  0  0  0  0  0  0  0
    3.3916    4.4655    0.0000 H   0  0  0  0  0  0  0  0  0  0  0  0
    2.6307    4.0298    0.0000 H   0  0  0  0  0  0  0  0  0  0  0  0
  1 19  1  0  0  0  0
  1 25  1  0  0  0  0
  2 21  1  0  0  0  0
  2 26  1  0  0  0  0
  3 22  1  0  0  0  0
  3 27  1  0  0  0  0
  4 28  2  0  0  0  0
  5 29  2  0  0  0  0
  6 30  2  0  0  0  0
  7 13  1  0  0  0  0
  7 29  1  0  0  0  0
  7 52  1  0  0  0  0
  8 14  1  0  0  0  0
  8 28  1  0  0  0  0
  8 53  1  0  0  0  0
  9 15  1  0  0  0  0
  9 30  1  0  0  0  0
  9 54  1  0  0  0  0
 10 16  1  0  0  0  0
 10 25  2  0  0  0  0
 11 18  1  0  0  0  0
 11 26  2  0  0  0  0
 12 17  1  0  0  0  0
 12 27  2  0  0  0  0
 13 20  1  6  0  0  0
 13 25  1  0  0  0  0
 13 40  1  0  0  0  0
 14 23  1  6  0  0  0
 14 26  1  0  0  0  0
 14 41  1  0  0  0  0
 15 24  1  6  0  0  0
 15 27  1  0  0  0  0
 15 42  1  0  0  0  0
 16 19  1  0  0  0  0
 16 28  1  0  0  0  0
 16 43  1  1  0  0  0
 17 22  1  0  0  0  0
 17 29  1  0  0  0  0
 17 44  1  6  0  0  0
 18 21  1  0  0  0  0
 18 30  1  0  0  0  0
 18 45  1  6  0  0  0
 19 31  1  1  0  0  0
 19 46  1  0  0  0  0
 20 32  1  0  0  0  0
 20 33  1  0  0  0  0
 20 47  1  0  0  0  0
 21 34  1  6  0  0  0
 21 48  1  0  0  0  0
 22 35  1  6  0  0  0
 22 49  1  0  0  0  0
 23 36  1  0  0  0  0
 23 37  1  0  0  0  0
 23 50  1  0  0  0  0
 24 38  1  0  0  0  0
 24 39  1  0  0  0  0
 24 51  1  0  0  0  0
 31 55  1  0  0  0  0
 31 56  1  0  0  0  0
 31 57  1  0  0  0  0
 32 61  1  0  0  0  0
 32 62  1  0  0  0  0
 32 63  1  0  0  0  0
 33 58  1  0  0  0  0
 33 59  1  0  0  0  0
 33 60  1  0  0  0  0
 34 64  1  0  0  0  0
 34 65  1  0  0  0  0
 34 66  1  0  0  0  0
 35 67  1  0  0  0  0
 35 68  1  0  0  0  0
 35 69  1  0  0  0  0
 36 70  1  0  0  0  0
 36 71  1  0  0  0  0
 36 72  1  0  0  0  0
 37 73  1  0  0  0  0
 37 74  1  0  0  0  0
 37 75  1  0  0  0  0
 38 79  1  0  0  0  0
 38 80  1  0  0  0  0
 38 81  1  0  0  0  0
 39 76  1  0  0  0  0
 39 77  1  0  0  0  0
 39 78  1  0  0  0  0
M  END
> <PUBCHEM_COMPOUND_CID>
159587

> <PUBCHEM_COMPOUND_CANONICALIZED>
1

> <PUBCHEM_CACTVS_COMPLEXITY>
952

> <PUBCHEM_CACTVS_HBOND_ACCEPTOR>
9

> <PUBCHEM_CACTVS_HBOND_DONOR>
3

> <PUBCHEM_CACTVS_ROTATABLE_BOND>
3

> <PUBCHEM_CACTVS_SUBSKEYS>
AAADcfB7uAAAAAAAAAAAAAAAAAAAAQIEAAAAAAAAAAAAAAAAAAAAHgAQAAAADTzhgAYCAALABAAoAAEwFAAAAAAAAAAAAIG4AAACQBQAgAAXAAAGNgCQAAAAAAAIAAAAAAAAAAAAAAAAAAAAAAAAAAAAAA==

> <PUBCHEM_IUPAC_INCHI>
InChI=1S/C27H42N6O6/c1-10(2)16-25-31-20(13(7)37-25)23(35)29-18(12(5)6)27-33-21(15(9)39-27)24(36)30-17(11(3)4)26-32-19(14(8)38-26)22(34)28-16/h10-21H,1-9H3,(H,28,34)(H,29,35)(H,30,36)/t13-,14-,15-,16+,17+,18+,19+,20+,21+/m1/s1

> <PUBCHEM_IUPAC_INCHIKEY>
MIDTUAMKJJDHAR-YAWPOEEYSA-N

> <PUBCHEM_XLOGP3_AA>
2.8

> <PUBCHEM_EXACT_MASS>
546.316583

> <PUBCHEM_MOLECULAR_FORMULA>
C27H42N6O6

> <PUBCHEM_MOLECULAR_WEIGHT>
546.65898

> <PUBCHEM_OPENEYE_CAN_SMILES>
CC1C2C(=O)NC(C3=NC(C(O3)C)C(=O)NC(C4=NC(C(O4)C)C(=O)NC(C(=N2)O1)C(C)C)C(C)C)C(C)C

> <PUBCHEM_OPENEYE_ISO_SMILES>
C[C@@H]1[C@H]2C(=O)N[C@H](C3=N[C@@H]([C@H](O3)C)C(=O)N[C@H](C4=N[C@@H]([C@H](O4)C)C(=O)N[C@H](C(=N2)O1)C(C)C)C(C)C)C(C)C

> <PUBCHEM_CACTVS_TPSA>
152

> <PUBCHEM_MONOISOTOPIC_WEIGHT>
546.316583

> <PUBCHEM_TOTAL_CHARGE>
0

> <PUBCHEM_HEAVY_ATOM_COUNT>
39

> <PUBCHEM_ATOM_DEF_STEREO_COUNT>
9

> <PUBCHEM_ATOM_UDEF_STEREO_COUNT>
0

> <PUBCHEM_BOND_DEF_STEREO_COUNT>
0

> <PUBCHEM_BOND_UDEF_STEREO_COUNT>
0

> <PUBCHEM_ISOTOPIC_ATOM_COUNT>
0

> <PUBCHEM_COMPONENT_COUNT>
1

> <PUBCHEM_CACTVS_TAUTO_COUNT>
4

> <PUBCHEM_COORDINATE_TYPE>
1
5
255

> <PUBCHEM_BONDANNOTATIONS>
13  20  6
14  23  6
15  24  6
16  43  5
17  44  6
18  45  6
19  31  5
21  34  6
22  35  6

$$$$

