3083575
  -OEChem-07051213093D

 33 35  0     0  0  0  0  0  0999 V2000
    2.0311    2.2606   -0.2473 O   0  0  0  0  0  0  0  0  0  0  0  0
    4.3130    0.8010   -0.1911 O   0  0  0  0  0  0  0  0  0  0  0  0
   -0.5181    2.2610   -0.2016 O   0  0  0  0  0  0  0  0  0  0  0  0
   -0.6962   -3.0679    0.1562 O   0  0  0  0  0  0  0  0  0  0  0  0
   -3.0718    2.4363   -0.1656 O   0  0  0  0  0  0  0  0  0  0  0  0
    0.6898    0.2487   -0.0905 C   0  0  0  0  0  0  0  0  0  0  0  0
    0.6428   -1.1438    0.0024 C   0  0  0  0  0  0  0  0  0  0  0  0
   -1.8543    0.3374   -0.0493 C   0  0  0  0  0  0  0  0  0  0  0  0
   -1.9013   -1.0552    0.0435 C   0  0  0  0  0  0  0  0  0  0  0  0
   -0.5570    1.0402   -0.1202 C   0  0  0  0  0  0  0  0  0  0  0  0
   -0.6545   -1.8466    0.0729 C   0  0  0  0  0  0  0  0  0  0  0  0
    1.9260    0.9028   -0.1556 C   0  0  0  0  0  0  0  0  0  0  0  0
    1.8320   -1.8823    0.0297 C   0  0  0  0  0  0  0  0  0  0  0  0
    3.0617   -1.2265   -0.0354 C   0  0  0  0  0  0  0  0  0  0  0  0
    3.1086    0.1630   -0.1277 C   0  0  0  0  0  0  0  0  0  0  0  0
   -3.0434    1.0759   -0.0760 C   0  0  0  0  0  0  0  0  0  0  0  0
   -3.1374   -1.7093    0.1097 C   0  0  0  0  0  0  0  0  0  0  0  0
    4.3187   -2.0324   -0.0042 C   0  0  0  0  0  0  0  0  0  0  0  0
   -4.2731    0.4201   -0.0097 C   0  0  0  0  0  0  0  0  0  0  0  0
   -4.3199   -0.9695    0.0831 C   0  0  0  0  0  0  0  0  0  0  0  0
    2.1031    2.9865    0.9769 C   0  0  0  0  0  0  0  0  0  0  0  0
    1.8045   -2.9668    0.1020 H   0  0  0  0  0  0  0  0  0  0  0  0
   -3.2009   -2.7917    0.1825 H   0  0  0  0  0  0  0  0  0  0  0  0
    4.9272   -1.7540    0.8626 H   0  0  0  0  0  0  0  0  0  0  0  0
    4.1161   -3.1064    0.0677 H   0  0  0  0  0  0  0  0  0  0  0  0
    4.8986   -1.8680   -0.9184 H   0  0  0  0  0  0  0  0  0  0  0  0
   -5.2061    0.9775   -0.0292 H   0  0  0  0  0  0  0  0  0  0  0  0
   -5.2784   -1.4779    0.1346 H   0  0  0  0  0  0  0  0  0  0  0  0
    4.1564    1.7503   -0.3318 H   0  0  0  0  0  0  0  0  0  0  0  0
    3.0965    2.8771    1.4228 H   0  0  0  0  0  0  0  0  0  0  0  0
    1.3430    2.6525    1.6907 H   0  0  0  0  0  0  0  0  0  0  0  0
    1.9356    4.0446    0.7578 H   0  0  0  0  0  0  0  0  0  0  0  0
   -3.9941    2.7446   -0.1688 H   0  0  0  0  0  0  0  0  0  0  0  0
  1 12  1  0  0  0  0
  1 21  1  0  0  0  0
  2 15  1  0  0  0  0
  2 29  1  0  0  0  0
  3 10  2  0  0  0  0
  4 11  2  0  0  0  0
  5 16  1  0  0  0  0
  5 33  1  0  0  0  0
  6  7  2  0  0  0  0
  6 10  1  0  0  0  0
  6 12  1  0  0  0  0
  7 11  1  0  0  0  0
  7 13  1  0  0  0  0
  8  9  2  0  0  0  0
  8 10  1  0  0  0  0
  8 16  1  0  0  0  0
  9 11  1  0  0  0  0
  9 17  1  0  0  0  0
 12 15  2  0  0  0  0
 13 14  2  0  0  0  0
 13 22  1  0  0  0  0
 14 15  1  0  0  0  0
 14 18  1  0  0  0  0
 16 19  2  0  0  0  0
 17 20  2  0  0  0  0
 17 23  1  0  0  0  0
 18 24  1  0  0  0  0
 18 25  1  0  0  0  0
 18 26  1  0  0  0  0
 19 20  1  0  0  0  0
 19 27  1  0  0  0  0
 20 28  1  0  0  0  0
 21 30  1  0  0  0  0
 21 31  1  0  0  0  0
 21 32  1  0  0  0  0
M  END
> <PUBCHEM_COMPOUND_CID>
3083575

> <PUBCHEM_CONFORMER_RMSD>
0.6

> <PUBCHEM_CONFORMER_DIVERSEORDER>
1

> <PUBCHEM_MMFF94_PARTIAL_CHARGES>
27
1 -0.36
10 0.4
11 0.4
12 0.08
13 -0.15
14 -0.14
15 0.08
16 0.08
17 -0.15
18 0.14
19 -0.15
2 -0.53
20 -0.15
21 0.28
22 0.15
23 0.15
27 0.15
28 0.15
29 0.45
3 -0.57
33 0.45
4 -0.57
5 -0.53
6 0.09
7 0.09
8 0.09
9 0.09

> <PUBCHEM_EFFECTIVE_ROTOR_COUNT>
1

> <PUBCHEM_PHARMACOPHORE_FEATURES>
8
1 1 acceptor
1 2 donor
1 3 acceptor
1 4 acceptor
1 5 donor
6 6 7 12 13 14 15 rings
6 6 7 8 9 10 11 rings
6 8 9 16 17 19 20 rings

> <PUBCHEM_HEAVY_ATOM_COUNT>
21

> <PUBCHEM_ATOM_DEF_STEREO_COUNT>
0

> <PUBCHEM_ATOM_UDEF_STEREO_COUNT>
0

> <PUBCHEM_BOND_DEF_STEREO_COUNT>
0

> <PUBCHEM_BOND_UDEF_STEREO_COUNT>
0

> <PUBCHEM_ISOTOPIC_ATOM_COUNT>
0

> <PUBCHEM_COMPONENT_COUNT>
1

> <PUBCHEM_CACTVS_TAUTO_COUNT>
25

> <PUBCHEM_CONFORMER_ID>
002F0D3700000001

> <PUBCHEM_MMFF94_ENERGY>
76.7475

> <PUBCHEM_FEATURE_SELFOVERLAP>
40.652

> <PUBCHEM_SHAPE_FINGERPRINT>
10608611 8 18410576149989178073
10616163 171 18266454304603581566
10967382 1 18411136892181579790
1100329 8 16681757199456514371
11471102 20 18411140237992992374
11578080 2 17273722994531775692
11680986 33 18269270158314218907
12403259 226 18411422821218990821
12403260 363 18410018736427936399
13140716 1 18410569609038868689
138480 1 18410293601497841024
14223421 5 18266740169031145723
14790565 3 17977372064897311616
14866123 147 17036967582237197674
15042514 8 17907582776543266666
15196674 1 18411699910833534750
15230672 131 13443126064271630923
15442244 35 18411138060586945978
15536298 74 18408040710572233734
16945 1 18195246615820911366
17492 89 18337954484991201047
17804303 29 18411414050716223055
18186145 218 18260539048083655363
19591789 44 18411981360256894803
200 152 18114188527721232495
20028762 73 18259990349376185031
20510252 161 18334855034826229697
21267235 1 18339915008622635107
21501502 16 18411416206768641606
221490 88 18340761563903739490
2334 1 18411699851046702071
23366157 5 18131071481384104860
23402539 116 18263091079249888934
23463225 33 18413106164846622903
23559900 14 18408046208278078744
238 59 17050529976730196605
2748010 2 18413109442170290479
3004659 81 18200867509280523846
3286 77 18413109467581482774
335352 9 18195245739731946967
34934 24 18337957788263318806
350125 39 18411414021115915865
5104073 3 18411136965211887946
7364860 26 18335422322918159264
8809292 202 18271802449472798923
9709674 26 18338794524653722055
9981440 41 17691131435556095296

> <PUBCHEM_SHAPE_MULTIPOLES>
402.82
7.61
3.14
0.65
0.75
0.72
-0.05
-0.85
0.08
-0.95
-0.37
-0.09
0.13
0.37

> <PUBCHEM_SHAPE_SELFOVERLAP>
907.608

> <PUBCHEM_SHAPE_VOLUME>
211.1

> <PUBCHEM_COORDINATE_TYPE>
2
5
10

$$$$

