151255
  -OEChem-07051212493D

 17 17  0     0  0  0  0  0  0999 V2000
   -3.3786   -0.0655    0.1504 O   0  0  0  0  0  0  0  0  0  0  0  0
    2.6723    1.0466    0.5196 O   0  0  0  0  0  0  0  0  0  0  0  0
    2.7945   -1.0127   -0.4675 O   0  0  0  0  0  0  0  0  0  0  0  0
   -1.3600   -1.1660    0.1922 N   0  0  0  0  0  0  0  0  0  0  0  0
    0.0090    1.3120   -0.0287 C   0  0  0  0  0  0  0  0  0  0  0  0
   -1.4363    1.1867   -0.5041 C   0  0  0  0  0  0  0  0  0  0  0  0
    0.6932   -0.0146    0.0204 C   0  0  0  0  0  0  0  0  0  0  0  0
   -2.1563   -0.0503    0.0070 C   0  0  0  0  0  0  0  0  0  0  0  0
    0.0087   -1.1577    0.1279 C   0  0  0  0  0  0  0  0  0  0  0  0
    2.1535   -0.0786   -0.0172 C   0  0  0  0  0  0  0  0  0  0  0  0
    0.0248    1.7544    0.9753 H   0  0  0  0  0  0  0  0  0  0  0  0
    0.5357    2.0028   -0.6976 H   0  0  0  0  0  0  0  0  0  0  0  0
   -1.4612    1.1367   -1.6002 H   0  0  0  0  0  0  0  0  0  0  0  0
   -2.0014    2.0752   -0.2013 H   0  0  0  0  0  0  0  0  0  0  0  0
    0.4765   -2.1312    0.2155 H   0  0  0  0  0  0  0  0  0  0  0  0
   -1.8096   -2.0509    0.4086 H   0  0  0  0  0  0  0  0  0  0  0  0
    3.6533    1.0403    0.5118 H   0  0  0  0  0  0  0  0  0  0  0  0
  1  8  2  0  0  0  0
  2 10  1  0  0  0  0
  2 17  1  0  0  0  0
  3 10  2  0  0  0  0
  4  8  1  0  0  0  0
  4  9  1  0  0  0  0
  4 16  1  0  0  0  0
  5  6  1  0  0  0  0
  5  7  1  0  0  0  0
  5 11  1  0  0  0  0
  5 12  1  0  0  0  0
  6  8  1  0  0  0  0
  6 13  1  0  0  0  0
  6 14  1  0  0  0  0
  7  9  2  0  0  0  0
  7 10  1  0  0  0  0
  9 15  1  0  0  0  0
M  END
> <PUBCHEM_COMPOUND_CID>
151255

> <PUBCHEM_CONFORMER_RMSD>
0.4

> <PUBCHEM_CONFORMER_DIVERSEORDER>
1
2
3

> <PUBCHEM_MMFF94_PARTIAL_CHARGES>
13
1 -0.57
10 0.71
15 0.15
16 0.37
17 0.5
2 -0.65
3 -0.57
4 -0.54
5 0.14
6 0.06
7 -0.12
8 0.57
9 -0.04

> <PUBCHEM_EFFECTIVE_ROTOR_COUNT>
1.6

> <PUBCHEM_PHARMACOPHORE_FEATURES>
6
1 1 acceptor
1 2 acceptor
1 3 acceptor
1 4 donor
3 2 3 10 anion
6 4 5 6 7 8 9 rings

> <PUBCHEM_HEAVY_ATOM_COUNT>
10

> <PUBCHEM_ATOM_DEF_STEREO_COUNT>
0

> <PUBCHEM_ATOM_UDEF_STEREO_COUNT>
0

> <PUBCHEM_BOND_DEF_STEREO_COUNT>
0

> <PUBCHEM_BOND_UDEF_STEREO_COUNT>
0

> <PUBCHEM_ISOTOPIC_ATOM_COUNT>
0

> <PUBCHEM_COMPONENT_COUNT>
1

> <PUBCHEM_CACTVS_TAUTO_COUNT>
3

> <PUBCHEM_CONFORMER_ID>
00024ED700000001

> <PUBCHEM_MMFF94_ENERGY>
17.6488

> <PUBCHEM_FEATURE_SELFOVERLAP>
30.5

> <PUBCHEM_SHAPE_FINGERPRINT>
10857977 72 18272375235011851049
12032990 46 18341322340872760291
12897270 3 18341334491007907301
14325111 11 18410293622729649129
16945 1 18131071532422351111
20201158 50 18334293197327496502
21040471 1 18271248342835648596
23402655 69 18124336024014632733
23552423 10 18201998824396775742
2748010 2 18412265029745304245
29004967 10 17095241440673708958
369184 2 18113622282810450673
5084963 1 18059286673155479556

> <PUBCHEM_SHAPE_MULTIPOLES>
183.21
4.18
1.37
0.65
0.02
0.11
0.02
-0.18
-0.07
-0.07
0.02
-0.07
0.04
0.35

> <PUBCHEM_SHAPE_SELFOVERLAP>
377.461

> <PUBCHEM_SHAPE_VOLUME>
104.1

> <PUBCHEM_COORDINATE_TYPE>
2
5
10

$$$$

