390361
  -OEChem-07051212582D

 62 67  0     1  0  0  0  0  0999 V2000
    7.7296    1.8529    0.0000 O   0  0  0  0  0  0  0  0  0  0  0  0
    5.9200   -2.1189    0.0000 O   0  0  0  0  0  0  0  0  0  0  0  0
    7.7296   -1.1471    0.0000 O   0  0  0  0  0  0  0  0  0  0  0  0
    4.8939    0.7002    0.0000 O   0  0  0  0  0  0  0  0  0  0  0  0
    9.4780   -1.1817    0.0000 O   0  0  0  0  0  0  0  0  0  0  0  0
    3.2392    0.1347    0.0000 O   0  0  0  0  0  0  0  0  0  0  0  0
   11.2597    1.8770    0.0000 O   0  0  0  0  0  0  0  0  0  0  0  0
    2.6110   -3.3489    0.0000 O   0  0  0  0  0  0  0  0  0  0  0  0
    3.3995    3.3529    0.0000 O   0  0  0  0  0  0  0  0  0  0  0  0
   10.0269   -3.3529    0.0000 O   0  0  0  0  0  0  0  0  0  0  0  0
    6.8636    0.3529    0.0000 C   0  0  2  0  0  0  0  0  0  0  0  0
    6.2207   -0.4132    0.0000 C   0  0  1  0  0  0  0  0  0  0  0  0
    6.8636    1.3529    0.0000 C   0  0  1  0  0  0  0  0  0  0  0  0
    6.5628   -1.3529    0.0000 C   0  0  2  0  0  0  0  0  0  0  0  0
    7.7296   -0.1471    0.0000 C   0  0  0  0  0  0  0  0  0  0  0  0
    5.2359   -0.2394    0.0000 C   0  0  0  0  0  0  0  0  0  0  0  0
    5.9975    1.8529    0.0000 C   0  0  0  0  0  0  0  0  0  0  0  0
    7.4289   -1.8528    0.0000 C   0  0  0  0  0  0  0  0  0  0  0  0
    8.5956    0.3529    0.0000 C   0  0  0  0  0  0  0  0  0  0  0  0
    4.5931   -1.0055    0.0000 C   0  0  0  0  0  0  0  0  0  0  0  0
    8.5956    1.3529    0.0000 C   0  0  0  0  0  0  0  0  0  0  0  0
    4.9352   -1.9452    0.0000 C   0  0  0  0  0  0  0  0  0  0  0  0
    9.4896   -0.1818    0.0000 C   0  0  0  0  0  0  0  0  0  0  0  0
    3.5703   -0.8089    0.0000 C   0  0  0  0  0  0  0  0  0  0  0  0
    5.9975    2.8529    0.0000 C   0  0  0  0  0  0  0  0  0  0  0  0
    5.1315    1.3529    0.0000 C   0  0  0  0  0  0  0  0  0  0  0  0
    7.4289   -2.8528    0.0000 C   0  0  0  0  0  0  0  0  0  0  0  0
    8.2948   -1.3529    0.0000 C   0  0  0  0  0  0  0  0  0  0  0  0
    9.4896    1.8875    0.0000 C   0  0  0  0  0  0  0  0  0  0  0  0
    4.2780   -2.7534    0.0000 C   0  0  0  0  0  0  0  0  0  0  0  0
   10.3956    0.3321    0.0000 C   0  0  0  0  0  0  0  0  0  0  0  0
    2.8946   -1.6016    0.0000 C   0  0  0  0  0  0  0  0  0  0  0  0
   10.3956    1.3737    0.0000 C   0  0  0  0  0  0  0  0  0  0  0  0
    3.2508   -2.5804    0.0000 C   0  0  0  0  0  0  0  0  0  0  0  0
    5.1315    3.3529    0.0000 C   0  0  0  0  0  0  0  0  0  0  0  0
    4.2655    1.8529    0.0000 C   0  0  0  0  0  0  0  0  0  0  0  0
    8.2948   -3.3529    0.0000 C   0  0  0  0  0  0  0  0  0  0  0  0
    9.1609   -1.8529    0.0000 C   0  0  0  0  0  0  0  0  0  0  0  0
    4.2655    2.8529    0.0000 C   0  0  0  0  0  0  0  0  0  0  0  0
    9.1609   -2.8529    0.0000 C   0  0  0  0  0  0  0  0  0  0  0  0
    6.0648    0.6436    0.0000 H   0  0  0  0  0  0  0  0  0  0  0  0
    5.9301    0.3856    0.0000 H   0  0  0  0  0  0  0  0  0  0  0  0
    6.8636    1.9729    0.0000 H   0  0  0  0  0  0  0  0  0  0  0  0
    7.0378   -0.9543    0.0000 H   0  0  0  0  0  0  0  0  0  0  0  0
    6.5345    3.1629    0.0000 H   0  0  0  0  0  0  0  0  0  0  0  0
    5.1315    0.7329    0.0000 H   0  0  0  0  0  0  0  0  0  0  0  0
    6.8920   -3.1628    0.0000 H   0  0  0  0  0  0  0  0  0  0  0  0
    8.2948   -0.7329    0.0000 H   0  0  0  0  0  0  0  0  0  0  0  0
    9.4824    2.5075    0.0000 H   0  0  0  0  0  0  0  0  0  0  0  0
    4.4968   -3.3335    0.0000 H   0  0  0  0  0  0  0  0  0  0  0  0
   10.9314    0.0200    0.0000 H   0  0  0  0  0  0  0  0  0  0  0  0
    2.2844   -1.4915    0.0000 H   0  0  0  0  0  0  0  0  0  0  0  0
    5.1315    3.9729    0.0000 H   0  0  0  0  0  0  0  0  0  0  0  0
    3.7286    1.5429    0.0000 H   0  0  0  0  0  0  0  0  0  0  0  0
    8.2948   -3.9729    0.0000 H   0  0  0  0  0  0  0  0  0  0  0  0
    9.6978   -1.5429    0.0000 H   0  0  0  0  0  0  0  0  0  0  0  0
   10.0113   -1.4979    0.0000 H   0  0  0  0  0  0  0  0  0  0  0  0
    2.6299    0.2494    0.0000 H   0  0  0  0  0  0  0  0  0  0  0  0
   11.7978    1.5691    0.0000 H   0  0  0  0  0  0  0  0  0  0  0  0
    2.0000   -3.2436    0.0000 H   0  0  0  0  0  0  0  0  0  0  0  0
    3.3995    3.9729    0.0000 H   0  0  0  0  0  0  0  0  0  0  0  0
   10.0269   -3.9729    0.0000 H   0  0  0  0  0  0  0  0  0  0  0  0
  1 13  1  0  0  0  0
  1 21  1  0  0  0  0
  2 14  1  0  0  0  0
  2 22  1  0  0  0  0
  3 15  2  0  0  0  0
  4 16  2  0  0  0  0
  5 23  1  0  0  0  0
  5 57  1  0  0  0  0
  6 24  1  0  0  0  0
  6 58  1  0  0  0  0
  7 33  1  0  0  0  0
  7 59  1  0  0  0  0
  8 34  1  0  0  0  0
  8 60  1  0  0  0  0
  9 39  1  0  0  0  0
  9 61  1  0  0  0  0
 10 40  1  0  0  0  0
 10 62  1  0  0  0  0
 11 12  1  0  0  0  0
 11 13  1  0  0  0  0
 11 15  1  0  0  0  0
 11 41  1  1  0  0  0
 12 14  1  0  0  0  0
 12 16  1  0  0  0  0
 12 42  1  6  0  0  0
 13 17  1  1  0  0  0
 13 43  1  0  0  0  0
 14 18  1  6  0  0  0
 14 44  1  0  0  0  0
 15 19  1  0  0  0  0
 16 20  1  0  0  0  0
 17 25  2  0  0  0  0
 17 26  1  0  0  0  0
 18 27  2  0  0  0  0
 18 28  1  0  0  0  0
 19 21  1  0  0  0  0
 19 23  2  0  0  0  0
 20 22  1  0  0  0  0
 20 24  2  0  0  0  0
 21 29  2  0  0  0  0
 22 30  2  0  0  0  0
 23 31  1  0  0  0  0
 24 32  1  0  0  0  0
 25 35  1  0  0  0  0
 25 45  1  0  0  0  0
 26 36  2  0  0  0  0
 26 46  1  0  0  0  0
 27 37  1  0  0  0  0
 27 47  1  0  0  0  0
 28 38  2  0  0  0  0
 28 48  1  0  0  0  0
 29 33  1  0  0  0  0
 29 49  1  0  0  0  0
 30 34  1  0  0  0  0
 30 50  1  0  0  0  0
 31 33  2  0  0  0  0
 31 51  1  0  0  0  0
 32 34  2  0  0  0  0
 32 52  1  0  0  0  0
 35 39  2  0  0  0  0
 35 53  1  0  0  0  0
 36 39  1  0  0  0  0
 36 54  1  0  0  0  0
 37 40  2  0  0  0  0
 37 55  1  0  0  0  0
 38 40  1  0  0  0  0
 38 56  1  0  0  0  0
M  END
> <PUBCHEM_COMPOUND_CID>
390361

> <PUBCHEM_COMPOUND_CANONICALIZED>
1

> <PUBCHEM_CACTVS_COMPLEXITY>
854

> <PUBCHEM_CACTVS_HBOND_ACCEPTOR>
10

> <PUBCHEM_CACTVS_HBOND_DONOR>
6

> <PUBCHEM_CACTVS_ROTATABLE_BOND>
3

> <PUBCHEM_CACTVS_SUBSKEYS>
AAADceB4PAAAAAAAAAAAAAAAAAAAAAAAAAA0aMGCAAAAAACRVAAAGgAACAAADRSgmAIwBoAABgCIAqBSAAACCAAkIAAIiAEGCMgMJzaGNRqCeWCl4BUIuQfL7PzOoAAACAAIAABAAAAQABAAAAAAAAAAAA==

> <PUBCHEM_IUPAC_OPENEYE_NAME>
(2S,3R)-3-[(2R,3S)-5,7-dihydroxy-2-(4-hydroxyphenyl)-4-oxo-chroman-3-yl]-5,7-dihydroxy-2-(4-hydroxyphenyl)chroman-4-one

> <PUBCHEM_IUPAC_CAS_NAME>
(2S,3R)-3-[(2R,3S)-5,7-dihydroxy-2-(4-hydroxyphenyl)-4-oxo-3,4-dihydro-2H-1-benzopyran-3-yl]-5,7-dihydroxy-2-(4-hydroxyphenyl)-3,4-dihydro-2H-1-benzopyran-4-one

> <PUBCHEM_IUPAC_NAME>
(2S,3R)-3-[(2R,3S)-5,7-dihydroxy-2-(4-hydroxyphenyl)-4-oxo-2,3-dihydrochromen-3-yl]-5,7-dihydroxy-2-(4-hydroxyphenyl)-2,3-dihydrochromen-4-one

> <PUBCHEM_IUPAC_SYSTEMATIC_NAME>
(2S,3R)-2-(4-hydroxyphenyl)-3-[(2R,3S)-2-(4-hydroxyphenyl)-5,7-bis(oxidanyl)-4-oxidanylidene-2,3-dihydrochromen-3-yl]-5,7-bis(oxidanyl)-2,3-dihydrochromen-4-one

> <PUBCHEM_IUPAC_TRADITIONAL_NAME>
(2S,3R)-3-[(2R,3S)-5,7-dihydroxy-2-(4-hydroxyphenyl)-4-keto-chroman-3-yl]-5,7-dihydroxy-2-(4-hydroxyphenyl)chroman-4-one

> <PUBCHEM_IUPAC_INCHI>
InChI=1S/C30H22O10/c31-15-5-1-13(2-6-15)29-25(27(37)23-19(35)9-17(33)11-21(23)39-29)26-28(38)24-20(36)10-18(34)12-22(24)40-30(26)14-3-7-16(32)8-4-14/h1-12,25-26,29-36H/t25-,26+,29+,30-

> <PUBCHEM_IUPAC_INCHIKEY>
RNQBLQALVMHBKH-SQYWJIFTSA-N

> <PUBCHEM_XLOGP3_AA>
4.6

> <PUBCHEM_EXACT_MASS>
542.121297

> <PUBCHEM_MOLECULAR_FORMULA>
C30H22O10

> <PUBCHEM_MOLECULAR_WEIGHT>
542.48968

> <PUBCHEM_OPENEYE_CAN_SMILES>
C1=CC(=CC=C1C2C(C(=O)C3=C(C=C(C=C3O2)O)O)C4C(OC5=CC(=CC(=C5C4=O)O)O)C6=CC=C(C=C6)O)O

> <PUBCHEM_OPENEYE_ISO_SMILES>
C1=CC(=CC=C1[C@@H]2[C@H](C(=O)C3=C(C=C(C=C3O2)O)O)[C@H]4[C@@H](OC5=CC(=CC(=C5C4=O)O)O)C6=CC=C(C=C6)O)O

> <PUBCHEM_CACTVS_TPSA>
174

> <PUBCHEM_MONOISOTOPIC_WEIGHT>
542.121297

> <PUBCHEM_TOTAL_CHARGE>
0

> <PUBCHEM_HEAVY_ATOM_COUNT>
40

> <PUBCHEM_ATOM_DEF_STEREO_COUNT>
4

> <PUBCHEM_ATOM_UDEF_STEREO_COUNT>
0

> <PUBCHEM_BOND_DEF_STEREO_COUNT>
0

> <PUBCHEM_BOND_UDEF_STEREO_COUNT>
0

> <PUBCHEM_ISOTOPIC_ATOM_COUNT>
0

> <PUBCHEM_COMPONENT_COUNT>
1

> <PUBCHEM_CACTVS_TAUTO_COUNT>
903

> <PUBCHEM_COORDINATE_TYPE>
1
5
255

> <PUBCHEM_BONDANNOTATIONS>
11  41  5
12  42  6
13  17  5
14  18  6
17  25  8
17  26  8
18  27  8
18  28  8
19  21  8
19  23  8
20  22  8
20  24  8
21  29  8
22  30  8
23  31  8
24  32  8
25  35  8
26  36  8
27  37  8
28  38  8
29  33  8
30  34  8
31  33  8
32  34  8
35  39  8
36  39  8
37  40  8
38  40  8

$$$$

