583023
  -OEChem-06241222443D

 32 33  0     1  0  0  0  0  0999 V2000
   -2.9448   -1.2780   -1.3842 F   0  0  0  0  0  0  0  0  0  0  0  0
   -3.0002    1.4480   -0.9509 F   0  0  0  0  0  0  0  0  0  0  0  0
   -4.8803    0.4361   -0.4969 F   0  0  0  0  0  0  0  0  0  0  0  0
   -3.5823    1.1089    1.1216 F   0  0  0  0  0  0  0  0  0  0  0  0
   -0.6155   -0.3217   -0.7879 O   0  0  0  0  0  0  0  0  0  0  0  0
   -3.5618   -1.6419    0.7610 O   0  0  0  0  0  0  0  0  0  0  0  0
   -1.0575   -0.6242    1.4881 O   0  0  0  0  0  0  0  0  0  0  0  0
    4.9583   -2.0324    0.2117 O   0  5  0  0  0  0  0  0  0  0  0  0
    3.2730   -3.3402   -0.3246 O   0  0  0  0  0  0  0  0  0  0  0  0
    0.3299    2.2084   -0.2560 N   0  0  0  0  0  0  0  0  0  0  0  0
    3.7498   -2.2069   -0.0752 N   0  3  0  0  0  0  0  0  0  0  0  0
    1.1705    1.1576   -0.2070 C   0  0  0  0  0  0  0  0  0  0  0  0
   -2.8708   -0.7679   -0.1228 C   0  0  1  0  0  0  0  0  0  0  0  0
    0.7007   -0.1252   -0.4748 C   0  0  0  0  0  0  0  0  0  0  0  0
    2.5362    1.3111    0.1114 C   0  0  0  0  0  0  0  0  0  0  0  0
    1.5446   -1.2378   -0.4332 C   0  0  0  0  0  0  0  0  0  0  0  0
    3.3852    0.1921    0.1533 C   0  0  0  0  0  0  0  0  0  0  0  0
    2.8885   -1.0793   -0.1188 C   0  0  0  0  0  0  0  0  0  0  0  0
   -1.4353   -0.5633    0.3248 C   0  0  0  0  0  0  0  0  0  0  0  0
   -3.5907    0.5654   -0.1161 C   0  0  0  0  0  0  0  0  0  0  0  0
    3.0097    2.6023    0.3810 C   0  0  0  0  0  0  0  0  0  0  0  0
    2.1460    3.6869    0.3315 C   0  0  0  0  0  0  0  0  0  0  0  0
    0.8269    3.4379    0.0109 C   0  0  0  0  0  0  0  0  0  0  0  0
   -2.9800   -2.9358    0.8532 C   0  0  0  0  0  0  0  0  0  0  0  0
    1.1209   -2.2154   -0.6524 H   0  0  0  0  0  0  0  0  0  0  0  0
    4.4342    0.3433    0.4022 H   0  0  0  0  0  0  0  0  0  0  0  0
    4.0547    2.7704    0.6312 H   0  0  0  0  0  0  0  0  0  0  0  0
    2.4952    4.6918    0.5371 H   0  0  0  0  0  0  0  0  0  0  0  0
    0.1054    4.2466   -0.0428 H   0  0  0  0  0  0  0  0  0  0  0  0
   -2.8324   -3.3709   -0.1400 H   0  0  0  0  0  0  0  0  0  0  0  0
   -3.6727   -3.5763    1.4069 H   0  0  0  0  0  0  0  0  0  0  0  0
   -2.0355   -2.9172    1.4020 H   0  0  0  0  0  0  0  0  0  0  0  0
  1 13  1  0  0  0  0
  2 20  1  0  0  0  0
  3 20  1  0  0  0  0
  4 20  1  0  0  0  0
  5 14  1  0  0  0  0
  5 19  1  0  0  0  0
  6 13  1  0  0  0  0
  6 24  1  0  0  0  0
  7 19  2  0  0  0  0
  8 11  1  0  0  0  0
  9 11  2  0  0  0  0
 10 12  1  0  0  0  0
 10 23  2  0  0  0  0
 11 18  1  0  0  0  0
 12 14  2  0  0  0  0
 12 15  1  0  0  0  0
 13 19  1  0  0  0  0
 13 20  1  0  0  0  0
 14 16  1  0  0  0  0
 15 17  2  0  0  0  0
 15 21  1  0  0  0  0
 16 18  2  0  0  0  0
 16 25  1  0  0  0  0
 17 18  1  0  0  0  0
 17 26  1  0  0  0  0
 21 22  2  0  0  0  0
 21 27  1  0  0  0  0
 22 23  1  0  0  0  0
 22 28  1  0  0  0  0
 23 29  1  0  0  0  0
 24 30  1  0  0  0  0
 24 31  1  0  0  0  0
 24 32  1  0  0  0  0
M  CHG  2   8  -1  11   1
M  END
> <PUBCHEM_COMPOUND_CID>
583023

> <PUBCHEM_CONFORMER_RMSD>
0.8

> <PUBCHEM_CONFORMER_DIVERSEORDER>
1
82
92
99
91
68
44
93
52
60
31
74
85
32
80
78
84
89
9
96
54
61
58
29
24
64
72
39
69
67
51
22
75
86
45
12
76
79
19
81
97
46
53
30
98
90
94
48
59
33
37
34
62
38
42
15
27
66
57
18
100
55
50
11
35
20
40
49
36
47
95
87
77
56
25
88
41
73
65
43
10
26
21
28
63
70
83
71
5
3
2
17
23
8
14
13
6
4
7
16

> <PUBCHEM_MMFF94_PARTIAL_CHARGES>
28
1 -0.34
10 -0.62
11 0.91
12 0.31
13 0.68
14 0.08
16 -0.15
17 -0.15
18 0.13
19 0.66
2 -0.34
20 1.02
21 -0.15
22 -0.15
23 0.16
24 0.28
25 0.15
26 0.15
27 0.15
28 0.15
29 0.15
3 -0.34
4 -0.34
5 -0.23
6 -0.56
7 -0.57
8 -0.52
9 -0.52

> <PUBCHEM_EFFECTIVE_ROTOR_COUNT>
6

> <PUBCHEM_PHARMACOPHORE_FEATURES>
8
1 10 acceptor
1 6 acceptor
1 7 acceptor
1 8 acceptor
1 8 anion
1 9 acceptor
6 10 12 15 21 22 23 rings
6 12 14 15 16 17 18 rings

> <PUBCHEM_HEAVY_ATOM_COUNT>
24

> <PUBCHEM_ATOM_DEF_STEREO_COUNT>
0

> <PUBCHEM_ATOM_UDEF_STEREO_COUNT>
1

> <PUBCHEM_BOND_DEF_STEREO_COUNT>
0

> <PUBCHEM_BOND_UDEF_STEREO_COUNT>
0

> <PUBCHEM_ISOTOPIC_ATOM_COUNT>
0

> <PUBCHEM_COMPONENT_COUNT>
1

> <PUBCHEM_CACTVS_TAUTO_COUNT>
1

> <PUBCHEM_CONFORMER_ID>
0008E56F00000001

> <PUBCHEM_MMFF94_ENERGY>
65.398

> <PUBCHEM_FEATURE_SELFOVERLAP>
40.71

> <PUBCHEM_SHAPE_FINGERPRINT>
10411042 1 18265335199878261702
10608611 8 18341052891756947157
1100329 8 17977100489746332888
11405975 8 18409162204058980291
116883 192 18192992849429188876
12403259 226 18342459218673527677
12553582 1 18192976318074069438
12633257 1 18337944697018196001
12788726 201 17982167031169265338
12839892 36 17761502387209552314
13004483 165 18049452727357170986
13009979 54 17822278115762425722
13134695 92 18409733980075288380
13140716 1 18409162233696281897
13533116 47 18339079290234621591
13583140 156 18338796715329422071
138480 1 18409730668903675916
14178342 30 17828787053143221138
14223421 5 18196369221735686379
14289901 80 18189900803424968987
14790565 3 17183900810347557160
14866123 147 17113537576216814586
15042514 8 17689436409817364226
15442244 35 18335699480983576817
15927050 60 17831861253843247372
16087824 20 17905605862873701053
17492 89 18337954463632155755
17980427 23 17386004030601068185
1813 80 18042110111634634502
18335252 114 18194414501349141037
19049666 15 18272369733063812257
19591789 44 16175373855372818236
20681677 76 18339643317881695919
20739085 24 18270408161982896036
20832881 197 18128819822803271858
21033648 29 17775017808004371965
21065198 57 18411417280953655131
21478907 32 17906172107256039518
21524375 3 17538555509656973516
221490 88 18340763745884184890
23175994 123 18339077219363682559
23557571 272 17972877249115845622
23559900 14 18410297982042307562
3091708 16 9501986651873688056
335352 9 18338517576957514229
3421961 26 18409451388670512802
4409770 3 17767128970339905420
5104073 3 18410852127734791835
54173680 148 17833268997661347820
6443956 14 18340203085412024518
7097593 13 18408880702990673215
7364860 26 18337673014514328492
7399639 24 17907860596175215201
81228 2 17756690189907868096
84936 182 17897729760440928016
9709674 26 18341332172005564507
9981440 41 17832998143479930104

> <PUBCHEM_SHAPE_MULTIPOLES>
425.51
8.23
4
0.91
4.24
0.59
-0.06
-2.88
-0.4
-4.04
-0.33
0.65
-0.1
0.81

> <PUBCHEM_SHAPE_SELFOVERLAP>
929.408

> <PUBCHEM_SHAPE_VOLUME>
231.8

> <PUBCHEM_COORDINATE_TYPE>
2
5
10

$$$$

