13419
  -OEChem-06261214043D

 21 21  0     0  0  0  0  0  0999 V2000
    2.7160   -0.8846   -0.0002 O   0  0  0  0  0  0  0  0  0  0  0  0
   -1.7714   -2.0103   -0.0001 O   0  0  0  0  0  0  0  0  0  0  0  0
   -0.5027    2.4386   -0.0001 O   0  0  0  0  0  0  0  0  0  0  0  0
    0.4843   -1.4959    0.0001 N   0  0  0  0  0  0  0  0  0  0  0  0
    1.1425    0.8117    0.0002 N   0  0  0  0  0  0  0  0  0  0  0  0
   -1.1849    0.2279    0.0003 N   0  0  0  0  0  0  0  0  0  0  0  0
    1.3934   -0.5074    0.0001 C   0  0  0  0  0  0  0  0  0  0  0  0
   -0.7835   -1.0535    0.0002 C   0  0  0  0  0  0  0  0  0  0  0  0
   -0.1680    1.1046    0.0001 C   0  0  0  0  0  0  0  0  0  0  0  0
    3.6751    0.1630   -0.0002 C   0  0  0  0  0  0  0  0  0  0  0  0
   -3.1114   -1.5395   -0.0002 C   0  0  0  0  0  0  0  0  0  0  0  0
   -1.8895    2.7454   -0.0001 C   0  0  0  0  0  0  0  0  0  0  0  0
    3.5870    0.7781    0.9017 H   0  0  0  0  0  0  0  0  0  0  0  0
    3.5868    0.7782   -0.9020 H   0  0  0  0  0  0  0  0  0  0  0  0
    4.6704   -0.2914   -0.0004 H   0  0  0  0  0  0  0  0  0  0  0  0
   -3.3240   -0.9553    0.9015 H   0  0  0  0  0  0  0  0  0  0  0  0
   -3.7746   -2.4097   -0.0004 H   0  0  0  0  0  0  0  0  0  0  0  0
   -3.3238   -0.9551   -0.9019 H   0  0  0  0  0  0  0  0  0  0  0  0
   -2.3781    2.3612    0.9017 H   0  0  0  0  0  0  0  0  0  0  0  0
   -2.3781    2.3609   -0.9018 H   0  0  0  0  0  0  0  0  0  0  0  0
   -1.9937    3.8346   -0.0003 H   0  0  0  0  0  0  0  0  0  0  0  0
  1  7  1  0  0  0  0
  1 10  1  0  0  0  0
  2  8  1  0  0  0  0
  2 11  1  0  0  0  0
  3  9  1  0  0  0  0
  3 12  1  0  0  0  0
  4  7  2  0  0  0  0
  4  8  1  0  0  0  0
  5  7  1  0  0  0  0
  5  9  2  0  0  0  0
  6  8  2  0  0  0  0
  6  9  1  0  0  0  0
 10 13  1  0  0  0  0
 10 14  1  0  0  0  0
 10 15  1  0  0  0  0
 11 16  1  0  0  0  0
 11 17  1  0  0  0  0
 11 18  1  0  0  0  0
 12 19  1  0  0  0  0
 12 20  1  0  0  0  0
 12 21  1  0  0  0  0
M  END
> <PUBCHEM_COMPOUND_CID>
13419

> <PUBCHEM_CONFORMER_RMSD>
0.6

> <PUBCHEM_CONFORMER_DIVERSEORDER>
1
2

> <PUBCHEM_MMFF94_PARTIAL_CHARGES>
12
1 -0.36
10 0.28
11 0.28
12 0.28
2 -0.36
3 -0.36
4 -0.62
5 -0.62
6 -0.62
7 0.7
8 0.7
9 0.7

> <PUBCHEM_EFFECTIVE_ROTOR_COUNT>
3

> <PUBCHEM_PHARMACOPHORE_FEATURES>
4
3 4 5 7 cation
3 4 6 8 cation
3 5 6 9 cation
6 4 5 6 7 8 9 rings

> <PUBCHEM_HEAVY_ATOM_COUNT>
12

> <PUBCHEM_ATOM_DEF_STEREO_COUNT>
0

> <PUBCHEM_ATOM_UDEF_STEREO_COUNT>
0

> <PUBCHEM_BOND_DEF_STEREO_COUNT>
0

> <PUBCHEM_BOND_UDEF_STEREO_COUNT>
0

> <PUBCHEM_ISOTOPIC_ATOM_COUNT>
0

> <PUBCHEM_COMPONENT_COUNT>
1

> <PUBCHEM_CACTVS_TAUTO_COUNT>
1

> <PUBCHEM_CONFORMER_ID>
0000346B00000001

> <PUBCHEM_MMFF94_ENERGY>
40.1808

> <PUBCHEM_FEATURE_SELFOVERLAP>
23.07

> <PUBCHEM_SHAPE_FINGERPRINT>
1 1 17330835132797299117
13380535 76 17975704097014235126
14648413 74 17548981061810739315
16945 1 18410855507420307302
193761 8 18122625221437035206
20871998 184 18259984885585959638
21040471 1 18050287273629919744
23526114 1 17833832668430939622
23530152 11 17833831955851457813
23552423 10 18272646904937330118
23559900 14 17900817464924613494
241688 4 18338516335373946305
2748010 2 18265342702690002213
3071541 12 17762051043448657885
3071541 158 18056484945745168989
6333449 129 18337393858603725288
68521 5 18411416193883830757
7364860 26 17616251386336657203
81228 2 18340477941353463281

> <PUBCHEM_SHAPE_MULTIPOLES>
214.4
4.34
2.72
0.57
2.64
1.72
0
-1.29
0
-2.51
0
-0.01
0.01
0

> <PUBCHEM_SHAPE_SELFOVERLAP>
433.523

> <PUBCHEM_SHAPE_VOLUME>
122.9

> <PUBCHEM_COORDINATE_TYPE>
2
5
10

$$$$

