4841
  -OEChem-06261200223D

 57 59  0     0  0  0  0  0  0999 V2000
    0.3683    0.1156   -0.4504 O   0  0  0  0  0  0  0  0  0  0  0  0
   -1.7885    0.5002   -1.9780 O   0  0  0  0  0  0  0  0  0  0  0  0
   -0.6468    1.8098    0.7278 O   0  0  0  0  0  0  0  0  0  0  0  0
    4.0814    0.0873    0.0228 N   0  3  0  0  0  0  0  0  0  0  0  0
    4.3360    1.5270   -0.4386 C   0  0  0  0  0  0  0  0  0  0  0  0
    5.1517   -0.8578   -0.5349 C   0  0  0  0  0  0  0  0  0  0  0  0
    2.7205   -0.3558   -0.5302 C   0  0  0  0  0  0  0  0  0  0  0  0
    5.7457    1.9918   -0.0954 C   0  0  0  0  0  0  0  0  0  0  0  0
    6.5592   -0.3870   -0.1909 C   0  0  0  0  0  0  0  0  0  0  0  0
    4.0024   -0.0012    1.5465 C   0  0  0  0  0  0  0  0  0  0  0  0
    6.8051    1.0457   -0.6428 C   0  0  0  0  0  0  0  0  0  0  0  0
    1.6360    0.5434    0.0297 C   0  0  0  0  0  0  0  0  0  0  0  0
    3.6256   -1.4114    1.9448 C   0  0  0  0  0  0  0  0  0  0  0  0
   -0.7162    0.8432   -0.0221 C   0  0  0  0  0  0  0  0  0  0  0  0
   -2.0172    0.2558   -0.5751 C   0  0  0  0  0  0  0  0  0  0  0  0
   -3.2781    0.9875   -0.1089 C   0  0  0  0  0  0  0  0  0  0  0  0
   -2.1371   -1.2497   -0.3282 C   0  0  0  0  0  0  0  0  0  0  0  0
   -3.6390    0.8986    1.2157 C   0  0  0  0  0  0  0  0  0  0  0  0
   -2.6761   -2.0386   -1.3183 C   0  0  0  0  0  0  0  0  0  0  0  0
   -4.0017    1.7065   -1.0321 C   0  0  0  0  0  0  0  0  0  0  0  0
   -1.7011   -1.7568    0.8743 C   0  0  0  0  0  0  0  0  0  0  0  0
   -4.7879    1.5656    1.6409 C   0  0  0  0  0  0  0  0  0  0  0  0
   -2.7853   -3.4109   -1.0934 C   0  0  0  0  0  0  0  0  0  0  0  0
   -5.1505    2.3735   -0.6069 C   0  0  0  0  0  0  0  0  0  0  0  0
   -1.8104   -3.1292    1.0991 C   0  0  0  0  0  0  0  0  0  0  0  0
   -5.5436    2.3030    0.7296 C   0  0  0  0  0  0  0  0  0  0  0  0
   -2.3525   -3.9561    0.1151 C   0  0  0  0  0  0  0  0  0  0  0  0
    4.1726    1.5625   -1.5221 H   0  0  0  0  0  0  0  0  0  0  0  0
    3.6309    2.1945    0.0634 H   0  0  0  0  0  0  0  0  0  0  0  0
    4.9647   -1.8846   -0.2169 H   0  0  0  0  0  0  0  0  0  0  0  0
    5.0311   -0.8424   -1.6264 H   0  0  0  0  0  0  0  0  0  0  0  0
    2.7598   -0.2527   -1.6228 H   0  0  0  0  0  0  0  0  0  0  0  0
    2.5515   -1.4205   -0.3425 H   0  0  0  0  0  0  0  0  0  0  0  0
    5.8626    2.0895    0.9901 H   0  0  0  0  0  0  0  0  0  0  0  0
    5.9057    2.9933   -0.5118 H   0  0  0  0  0  0  0  0  0  0  0  0
    7.2848   -1.0450   -0.6838 H   0  0  0  0  0  0  0  0  0  0  0  0
    6.7481   -0.4795    0.8840 H   0  0  0  0  0  0  0  0  0  0  0  0
    3.3295    0.7629    1.9432 H   0  0  0  0  0  0  0  0  0  0  0  0
    4.9920    0.2335    1.9491 H   0  0  0  0  0  0  0  0  0  0  0  0
    7.7991    1.3723   -0.3172 H   0  0  0  0  0  0  0  0  0  0  0  0
    6.7999    1.0885   -1.7391 H   0  0  0  0  0  0  0  0  0  0  0  0
    1.5698    0.5049    1.1180 H   0  0  0  0  0  0  0  0  0  0  0  0
    1.7567    1.5804   -0.2930 H   0  0  0  0  0  0  0  0  0  0  0  0
    4.3235   -2.1841    1.6202 H   0  0  0  0  0  0  0  0  0  0  0  0
    2.6066   -1.6986    1.6758 H   0  0  0  0  0  0  0  0  0  0  0  0
    3.6456   -1.4595    3.0416 H   0  0  0  0  0  0  0  0  0  0  0  0
   -1.1089   -0.1193   -2.2962 H   0  0  0  0  0  0  0  0  0  0  0  0
   -3.0593    0.3540    1.9513 H   0  0  0  0  0  0  0  0  0  0  0  0
   -3.0326   -1.6333   -2.2598 H   0  0  0  0  0  0  0  0  0  0  0  0
   -3.7286    1.7831   -2.0788 H   0  0  0  0  0  0  0  0  0  0  0  0
   -1.2723   -1.1361    1.6542 H   0  0  0  0  0  0  0  0  0  0  0  0
   -5.0912    1.5156    2.6827 H   0  0  0  0  0  0  0  0  0  0  0  0
   -3.2106   -4.0546   -1.8580 H   0  0  0  0  0  0  0  0  0  0  0  0
   -5.7395    2.9480   -1.3161 H   0  0  0  0  0  0  0  0  0  0  0  0
   -1.4725   -3.5542    2.0397 H   0  0  0  0  0  0  0  0  0  0  0  0
   -6.4374    2.8234    1.0608 H   0  0  0  0  0  0  0  0  0  0  0  0
   -2.4381   -5.0245    0.2904 H   0  0  0  0  0  0  0  0  0  0  0  0
  1 12  1  0  0  0  0
  1 14  1  0  0  0  0
  2 15  1  0  0  0  0
  2 47  1  0  0  0  0
  3 14  2  0  0  0  0
  4  5  1  0  0  0  0
  4  6  1  0  0  0  0
  4  7  1  0  0  0  0
  4 10  1  0  0  0  0
  5  8  1  0  0  0  0
  5 28  1  0  0  0  0
  5 29  1  0  0  0  0
  6  9  1  0  0  0  0
  6 30  1  0  0  0  0
  6 31  1  0  0  0  0
  7 12  1  0  0  0  0
  7 32  1  0  0  0  0
  7 33  1  0  0  0  0
  8 11  1  0  0  0  0
  8 34  1  0  0  0  0
  8 35  1  0  0  0  0
  9 11  1  0  0  0  0
  9 36  1  0  0  0  0
  9 37  1  0  0  0  0
 10 13  1  0  0  0  0
 10 38  1  0  0  0  0
 10 39  1  0  0  0  0
 11 40  1  0  0  0  0
 11 41  1  0  0  0  0
 12 42  1  0  0  0  0
 12 43  1  0  0  0  0
 13 44  1  0  0  0  0
 13 45  1  0  0  0  0
 13 46  1  0  0  0  0
 14 15  1  0  0  0  0
 15 16  1  0  0  0  0
 15 17  1  0  0  0  0
 16 18  2  0  0  0  0
 16 20  1  0  0  0  0
 17 19  2  0  0  0  0
 17 21  1  0  0  0  0
 18 22  1  0  0  0  0
 18 48  1  0  0  0  0
 19 23  1  0  0  0  0
 19 49  1  0  0  0  0
 20 24  2  0  0  0  0
 20 50  1  0  0  0  0
 21 25  2  0  0  0  0
 21 51  1  0  0  0  0
 22 26  2  0  0  0  0
 22 52  1  0  0  0  0
 23 27  2  0  0  0  0
 23 53  1  0  0  0  0
 24 26  1  0  0  0  0
 24 54  1  0  0  0  0
 25 27  1  0  0  0  0
 25 55  1  0  0  0  0
 26 56  1  0  0  0  0
 27 57  1  0  0  0  0
M  CHG  1   4   1
M  END
> <PUBCHEM_COMPOUND_CID>
4841

> <PUBCHEM_CONFORMER_RMSD>
1

> <PUBCHEM_CONFORMER_DIVERSEORDER>
1
75
79
104
76
110
61
50
113
63
57
48
91
44
65
27
78
81
119
102
20
108
82
33
99
22
72
21
13
97
89
92
43
96
39
40
19
35
52
114
54
18
23
28
112
56
74
100
26
68
77
17
88
36
2
32
80
90
106
111
6
73
84
101
87
98
49
37
53
29
118
45
69
116
66
109
42
117
24
34
107
64
51
60
47
58
15
94
115
38
41
4
95
85
25
9
83
86
67
5
31
105
10
12
62
70
7
46
16
71
11
103
8
59
14
3
55
30
120
93

> <PUBCHEM_MMFF94_PARTIAL_CHARGES>
34
1 -0.43
10 0.5
12 0.28
14 0.66
15 0.63
16 -0.14
17 -0.14
18 -0.15
19 -0.15
2 -0.68
20 -0.15
21 -0.15
22 -0.15
23 -0.15
24 -0.15
25 -0.15
26 -0.15
27 -0.15
3 -0.57
4 -1.01
47 0.4
48 0.15
49 0.15
5 0.5
50 0.15
51 0.15
52 0.15
53 0.15
54 0.15
55 0.15
56 0.15
57 0.15
6 0.5
7 0.5

> <PUBCHEM_EFFECTIVE_ROTOR_COUNT>
9.2

> <PUBCHEM_PHARMACOPHORE_FEATURES>
7
1 2 acceptor
1 2 donor
1 3 acceptor
1 4 cation
6 16 18 20 22 24 26 rings
6 17 19 21 23 25 27 rings
6 4 5 6 8 9 11 rings

> <PUBCHEM_HEAVY_ATOM_COUNT>
27

> <PUBCHEM_ATOM_DEF_STEREO_COUNT>
0

> <PUBCHEM_ATOM_UDEF_STEREO_COUNT>
0

> <PUBCHEM_BOND_DEF_STEREO_COUNT>
0

> <PUBCHEM_BOND_UDEF_STEREO_COUNT>
0

> <PUBCHEM_ISOTOPIC_ATOM_COUNT>
0

> <PUBCHEM_COMPONENT_COUNT>
1

> <PUBCHEM_CACTVS_TAUTO_COUNT>
1

> <PUBCHEM_CONFORMER_ID>
000012E900000001

> <PUBCHEM_MMFF94_ENERGY>
86.2125

> <PUBCHEM_FEATURE_SELFOVERLAP>
35.52

> <PUBCHEM_SHAPE_FINGERPRINT>
10366900 7 17167865296322246600
10906281 52 17822557400000437957
11007060 377 18409736140797356849
11089746 13 16008755744611649312
11135926 11 17131840872192290186
11315181 36 16877664561047889056
11405975 8 18409167701864817968
11545043 162 17749390317821635002
11796584 16 18259982687470305686
12107183 9 18197788897896744954
12166972 35 5256389613518643801
12597179 24 18114176484179748023
12616971 3 17703803539358022082
12633257 1 18341625853395167002
12643181 29 18334010636346779726
13004483 165 17902232213844786575
13631057 29 18055356838626413250
13911987 19 18339372980177781541
14251757 5 18334857216522267352
14790565 3 18193555803482950793
14866123 147 18410290277573306555
15131766 46 15120941718936103735
15250474 111 18271824401699924242
15537594 2 17846498153883741170
15849732 13 18060697299820166045
15927050 60 18336827593416294735
16992727 255 7348624946488338323
17093844 174 18113621158262183768
17844677 252 18115865197049184444
1813 80 11239416260236258251
20681677 155 18412544318958162186
21033648 144 18337119977535999972
21033648 29 18339938115668539573
21236236 1 18336826403366819183
21424621 283 17969212512103844521
21703447 108 17829623755300246505
22224240 67 18339069493830944569
23559900 14 18187365446076373492
23598288 3 18263921038566358719
249057 3 18340483474152354038
3411729 13 17981605181001648289
3610482 184 18059558167155702660
4015057 19 17458638786765930449
4058900 60 18121214540119650457
4073 2 18411416177706300690
4258327 124 18200300031703546565
469060 322 14261064325233250707
497634 4 18270405975215951166
5104073 3 18338241471111585632
6669772 16 18190454047058731127
7226269 152 18187081801661702361

> <PUBCHEM_SHAPE_MULTIPOLES>
533.06
15.2
3.61
1.46
21.61
3.53
-0.29
-8.97
-0.03
-5.54
0.01
-0.6
0.23
-1.28

> <PUBCHEM_SHAPE_SELFOVERLAP>
1125.124

> <PUBCHEM_SHAPE_VOLUME>
297.1

> <PUBCHEM_COORDINATE_TYPE>
2
5
10

$$$$

