10936
  -OEChem-06261205082D

 25 24  0     1  0  0  0  0  0999 V2000
    7.1962    0.9720    0.0000 Cl  0  0  0  0  0  0  0  0  0  0  0  0
    6.8301   -0.3940    0.0000 Cl  0  0  0  0  0  0  0  0  0  0  0  0
    5.8301    1.3380    0.0000 Cl  0  0  0  0  0  0  0  0  0  0  0  0
    4.5981    0.4720    0.0000 O   0  0  0  0  0  0  0  0  0  0  0  0
    5.4641   -1.0280    0.0000 O   0  0  0  0  0  0  0  0  0  0  0  0
    3.7320   -0.0280    0.0000 C   0  0  0  0  0  0  0  0  0  0  0  0
    2.8660   -0.5280    0.0000 C   0  0  0  0  0  0  0  0  0  0  0  0
    3.2320    0.8380    0.0000 C   0  0  0  0  0  0  0  0  0  0  0  0
    4.2320   -0.8940    0.0000 C   0  0  0  0  0  0  0  0  0  0  0  0
    5.4641   -0.0280    0.0000 C   0  0  3  0  0  0  0  0  0  0  0  0
    2.0000   -0.0280    0.0000 C   0  0  0  0  0  0  0  0  0  0  0  0
    6.3301    0.4720    0.0000 C   0  0  0  0  0  0  0  0  0  0  0  0
    2.4675   -1.0030    0.0000 H   0  0  0  0  0  0  0  0  0  0  0  0
    3.2646   -1.0030    0.0000 H   0  0  0  0  0  0  0  0  0  0  0  0
    3.7690    1.1480    0.0000 H   0  0  0  0  0  0  0  0  0  0  0  0
    2.9220    1.3749    0.0000 H   0  0  0  0  0  0  0  0  0  0  0  0
    2.6951    0.5280    0.0000 H   0  0  0  0  0  0  0  0  0  0  0  0
    3.6951   -1.2040    0.0000 H   0  0  0  0  0  0  0  0  0  0  0  0
    4.5420   -1.4310    0.0000 H   0  0  0  0  0  0  0  0  0  0  0  0
    4.7690   -0.5840    0.0000 H   0  0  0  0  0  0  0  0  0  0  0  0
    6.2002   -0.4530    0.0000 H   0  0  0  0  0  0  0  0  0  0  0  0
    2.3100    0.5089    0.0000 H   0  0  0  0  0  0  0  0  0  0  0  0
    1.4631    0.2820    0.0000 H   0  0  0  0  0  0  0  0  0  0  0  0
    1.6900   -0.5649    0.0000 H   0  0  0  0  0  0  0  0  0  0  0  0
    4.9272   -1.3380    0.0000 H   0  0  0  0  0  0  0  0  0  0  0  0
  1 12  1  0  0  0  0
  2 12  1  0  0  0  0
  3 12  1  0  0  0  0
  4  6  1  0  0  0  0
  4 10  1  0  0  0  0
  5 10  1  0  0  0  0
  5 25  1  0  0  0  0
  6  7  1  0  0  0  0
  6  8  1  0  0  0  0
  6  9  1  0  0  0  0
  7 11  1  0  0  0  0
  7 13  1  0  0  0  0
  7 14  1  0  0  0  0
  8 15  1  0  0  0  0
  8 16  1  0  0  0  0
  8 17  1  0  0  0  0
  9 18  1  0  0  0  0
  9 19  1  0  0  0  0
  9 20  1  0  0  0  0
 10 12  1  0  0  0  0
 10 21  1  0  0  0  0
 11 22  1  0  0  0  0
 11 23  1  0  0  0  0
 11 24  1  0  0  0  0
M  END
> <PUBCHEM_COMPOUND_CID>
10936

> <PUBCHEM_COMPOUND_CANONICALIZED>
1

> <PUBCHEM_CACTVS_COMPLEXITY>
142

> <PUBCHEM_CACTVS_HBOND_ACCEPTOR>
2

> <PUBCHEM_CACTVS_HBOND_DONOR>
1

> <PUBCHEM_CACTVS_ROTATABLE_BOND>
3

> <PUBCHEM_CACTVS_SUBSKEYS>
AAADccBgMAAGAAAAAAAAAAAAAAAAAAAAAAAAAAAAAAAAAAAAAAAAGgIACAAADEawgIMCCAAABgAAAAAAAAAAAAAAAAAAAAAAAQAQEAAAAAACAAAAAAAEAAAAAAAIAAAAAAAAAAAAAAAAAAAAAAAAAAAAAA==

> <PUBCHEM_IUPAC_OPENEYE_NAME>
2,2,2-trichloro-1-(1,1-dimethylpropoxy)ethanol

> <PUBCHEM_IUPAC_CAS_NAME>
2,2,2-trichloro-1-(2-methylbutan-2-yloxy)ethanol

> <PUBCHEM_IUPAC_NAME>
2,2,2-trichloro-1-(2-methylbutan-2-yloxy)ethanol

> <PUBCHEM_IUPAC_SYSTEMATIC_NAME>
2,2,2-tris(chloranyl)-1-(2-methylbutan-2-yloxy)ethanol

> <PUBCHEM_IUPAC_TRADITIONAL_NAME>
1-tert-amyloxy-2,2,2-trichloro-ethanol

> <PUBCHEM_IUPAC_INCHI>
InChI=1S/C7H13Cl3O2/c1-4-6(2,3)12-5(11)7(8,9)10/h5,11H,4H2,1-3H3

> <PUBCHEM_IUPAC_INCHIKEY>
VSYFHDGUUKGQEW-UHFFFAOYSA-N

> <PUBCHEM_XLOGP3_AA>
2.9

> <PUBCHEM_EXACT_MASS>
233.998113

> <PUBCHEM_MOLECULAR_FORMULA>
C7H13Cl3O2

> <PUBCHEM_MOLECULAR_WEIGHT>
235.53592

> <PUBCHEM_OPENEYE_CAN_SMILES>
CCC(C)(C)OC(C(Cl)(Cl)Cl)O

> <PUBCHEM_OPENEYE_ISO_SMILES>
CCC(C)(C)OC(C(Cl)(Cl)Cl)O

> <PUBCHEM_CACTVS_TPSA>
29.5

> <PUBCHEM_MONOISOTOPIC_WEIGHT>
233.998113

> <PUBCHEM_TOTAL_CHARGE>
0

> <PUBCHEM_HEAVY_ATOM_COUNT>
12

> <PUBCHEM_ATOM_DEF_STEREO_COUNT>
0

> <PUBCHEM_ATOM_UDEF_STEREO_COUNT>
1

> <PUBCHEM_BOND_DEF_STEREO_COUNT>
0

> <PUBCHEM_BOND_UDEF_STEREO_COUNT>
0

> <PUBCHEM_ISOTOPIC_ATOM_COUNT>
0

> <PUBCHEM_COMPONENT_COUNT>
1

> <PUBCHEM_CACTVS_TAUTO_COUNT>
1

> <PUBCHEM_COORDINATE_TYPE>
1
5
255

> <PUBCHEM_BONDANNOTATIONS>
10  21  3

$$$$

