676034
  -OEChem-07051213063D

 32 34  0     0  0  0  0  0  0999 V2000
   -0.1119   -0.6435    0.5295 O   0  0  0  0  0  0  0  0  0  0  0  0
    2.3668   -0.6481   -1.8951 O   0  0  0  0  0  0  0  0  0  0  0  0
   -1.7903    2.7649   -0.9417 O   0  0  0  0  0  0  0  0  0  0  0  0
   -5.6131   -0.4606    0.0957 O   0  0  0  0  0  0  0  0  0  0  0  0
    0.6619    0.4390    0.1397 C   0  0  0  0  0  0  0  0  0  0  0  0
   -2.1137    0.5830   -0.0940 C   0  0  0  0  0  0  0  0  0  0  0  0
   -1.4748   -0.5520    0.4027 C   0  0  0  0  0  0  0  0  0  0  0  0
    2.1130    0.2372    0.3251 C   0  0  0  0  0  0  0  0  0  0  0  0
    0.1647    1.5875   -0.3463 C   0  0  0  0  0  0  0  0  0  0  0  0
   -1.2965    1.7363   -0.5008 C   0  0  0  0  0  0  0  0  0  0  0  0
    2.9080   -0.2968   -0.6938 C   0  0  0  0  0  0  0  0  0  0  0  0
   -3.5058    0.6206   -0.2004 C   0  0  0  0  0  0  0  0  0  0  0  0
   -2.2268   -1.6588    0.7973 C   0  0  0  0  0  0  0  0  0  0  0  0
    2.6997    0.5879    1.5447 C   0  0  0  0  0  0  0  0  0  0  0  0
   -4.2554   -0.4881    0.1947 C   0  0  0  0  0  0  0  0  0  0  0  0
   -3.6175   -1.6252    0.6925 C   0  0  0  0  0  0  0  0  0  0  0  0
    4.2766   -0.4784   -0.4947 C   0  0  0  0  0  0  0  0  0  0  0  0
    4.0685    0.4069    1.7439 C   0  0  0  0  0  0  0  0  0  0  0  0
    4.8568   -0.1265    0.7242 C   0  0  0  0  0  0  0  0  0  0  0  0
    1.8898   -1.9854   -2.0232 C   0  0  0  0  0  0  0  0  0  0  0  0
    0.7936    2.4217   -0.6365 H   0  0  0  0  0  0  0  0  0  0  0  0
   -4.0080    1.5036   -0.5868 H   0  0  0  0  0  0  0  0  0  0  0  0
   -1.7383   -2.5482    1.1858 H   0  0  0  0  0  0  0  0  0  0  0  0
    2.0999    1.0040    2.3509 H   0  0  0  0  0  0  0  0  0  0  0  0
   -4.1999   -2.4893    1.0008 H   0  0  0  0  0  0  0  0  0  0  0  0
    4.8977   -0.8923   -1.2845 H   0  0  0  0  0  0  0  0  0  0  0  0
    4.5203    0.6806    2.6928 H   0  0  0  0  0  0  0  0  0  0  0  0
    5.9225   -0.2677    0.8791 H   0  0  0  0  0  0  0  0  0  0  0  0
    1.3621   -2.0702   -2.9771 H   0  0  0  0  0  0  0  0  0  0  0  0
    1.1970   -2.2447   -1.2176 H   0  0  0  0  0  0  0  0  0  0  0  0
    2.7317   -2.6849   -2.0272 H   0  0  0  0  0  0  0  0  0  0  0  0
   -5.8858    0.3996   -0.2671 H   0  0  0  0  0  0  0  0  0  0  0  0
  1  5  1  0  0  0  0
  1  7  1  0  0  0  0
  2 11  1  0  0  0  0
  2 20  1  0  0  0  0
  3 10  2  0  0  0  0
  4 15  1  0  0  0  0
  4 32  1  0  0  0  0
  5  8  1  0  0  0  0
  5  9  2  0  0  0  0
  6  7  2  0  0  0  0
  6 10  1  0  0  0  0
  6 12  1  0  0  0  0
  7 13  1  0  0  0  0
  8 11  1  0  0  0  0
  8 14  2  0  0  0  0
  9 10  1  0  0  0  0
  9 21  1  0  0  0  0
 11 17  2  0  0  0  0
 12 15  2  0  0  0  0
 12 22  1  0  0  0  0
 13 16  2  0  0  0  0
 13 23  1  0  0  0  0
 14 18  1  0  0  0  0
 14 24  1  0  0  0  0
 15 16  1  0  0  0  0
 16 25  1  0  0  0  0
 17 19  1  0  0  0  0
 17 26  1  0  0  0  0
 18 19  2  0  0  0  0
 18 27  1  0  0  0  0
 19 28  1  0  0  0  0
 20 29  1  0  0  0  0
 20 30  1  0  0  0  0
 20 31  1  0  0  0  0
M  END
> <PUBCHEM_COMPOUND_CID>
676034

> <PUBCHEM_CONFORMER_RMSD>
0.6

> <PUBCHEM_CONFORMER_DIVERSEORDER>
1
5
6
2
7
3
4
8

> <PUBCHEM_MMFF94_PARTIAL_CHARGES>
29
1 -0.16
10 0.47
11 0.08
12 -0.15
13 -0.15
14 -0.15
15 0.08
16 -0.15
17 -0.15
18 -0.15
19 -0.15
2 -0.36
20 0.28
21 0.15
22 0.15
23 0.15
24 0.15
25 0.15
26 0.15
27 0.15
28 0.15
3 -0.57
32 0.45
4 -0.53
5 0.05
6 0.09
7 0.08
8 0.03
9 -0.14

> <PUBCHEM_EFFECTIVE_ROTOR_COUNT>
2

> <PUBCHEM_PHARMACOPHORE_FEATURES>
7
1 1 acceptor
1 2 acceptor
1 3 acceptor
1 4 donor
6 1 5 6 7 9 10 rings
6 6 7 12 13 15 16 rings
6 8 11 14 17 18 19 rings

> <PUBCHEM_HEAVY_ATOM_COUNT>
20

> <PUBCHEM_ATOM_DEF_STEREO_COUNT>
0

> <PUBCHEM_ATOM_UDEF_STEREO_COUNT>
0

> <PUBCHEM_BOND_DEF_STEREO_COUNT>
0

> <PUBCHEM_BOND_UDEF_STEREO_COUNT>
0

> <PUBCHEM_ISOTOPIC_ATOM_COUNT>
0

> <PUBCHEM_COMPONENT_COUNT>
1

> <PUBCHEM_CACTVS_TAUTO_COUNT>
3

> <PUBCHEM_CONFORMER_ID>
000A50C200000001

> <PUBCHEM_MMFF94_ENERGY>
71.3632

> <PUBCHEM_FEATURE_SELFOVERLAP>
35.548

> <PUBCHEM_SHAPE_FINGERPRINT>
10366900 7 17603857884589432538
11370993 70 17240482481232997495
11543360 7 14476675252994816595
11582403 64 16895184299521152748
12236239 1 16917071079272552584
12363563 72 18200870661021108331
12403259 415 18040723580227342312
12553582 1 18131064918441734417
12788726 201 18130493202281350389
12892183 10 17023171730854844675
13140716 1 18200309897480327985
13583140 156 18053982599610454976
13862211 1 18201444640967620963
14115302 16 16845288306769008219
14252887 29 18187076260947726666
14289901 80 16950285109070208315
14386348 63 18334571347820145991
15342168 16 16879365402488694016
15375358 24 18333450941171161127
15848700 24 18411984624611108653
16752209 62 17989212576830382081
16945 1 18273213127439299817
17349148 13 17346881164916877810
17804303 29 18342741784661862329
19049666 15 17970625422872739296
19141452 34 18187364286335334087
19784866 240 16271654476618368810
19862831 5 16988839466907333762
200 152 16877663474173061483
20279233 1 18259980466022615083
204376 136 17168152174552444658
20600515 1 18200881664553357777
20645477 70 17022900202737561622
21267235 1 18131064918610708475
21285901 2 18410004477358034455
22079108 93 16081663166421779154
22182313 1 18263362645699656997
22224240 67 17458636570942262626
22854114 59 17530685390071698634
2297311 6 18341608230964873528
23402539 116 18340497698704269167
23557571 272 18410851109442608596
23559900 14 18339637970837388286
26918003 58 17530683190774415994
3004659 81 17489870418694510394
33824 294 17603583041285235718
4340502 62 16660361442294482039
474 4 15214169370380255354
621550 34 18040720272632947820
7471813 234 16487258772692500524
77492 1 16845570954820423056
81228 2 18269257110282896297
8272917 22 16153696648328437734
9709674 26 18336541728460047150

> <PUBCHEM_SHAPE_MULTIPOLES>
388.11
9.51
1.84
1.44
1.68
0.34
0.22
-1.95
-2.16
0.99
0.71
-1.44
-0.33
1.72

> <PUBCHEM_SHAPE_SELFOVERLAP>
859.529

> <PUBCHEM_SHAPE_VOLUME>
207.4

> <PUBCHEM_COORDINATE_TYPE>
2
5
10

$$$$

