443786
  -OEChem-07051213032D

 38 41  0     0  0  0  0  0  0999 V2000
    6.0682    1.3419    0.0000 O   0  0  0  0  0  0  0  0  0  0  0  0
    7.8167    1.3765    0.0000 O   0  0  0  0  0  0  0  0  0  0  0  0
    9.6539    1.4196    0.0000 O   0  0  0  0  0  0  0  0  0  0  0  0
   11.4733   -1.7039    0.0000 O   0  0  0  0  0  0  0  0  0  0  0  0
    2.5381   -1.6822    0.0000 O   0  0  0  0  0  0  0  0  0  0  0  0
    6.9343   -1.1581    0.0000 C   0  0  0  0  0  0  0  0  0  0  0  0
    7.8282   -1.6927    0.0000 C   0  0  0  0  0  0  0  0  0  0  0  0
    6.9343   -0.1581    0.0000 C   0  0  0  0  0  0  0  0  0  0  0  0
    8.7343   -1.1789    0.0000 C   0  0  0  0  0  0  0  0  0  0  0  0
    5.2022   -0.1581    0.0000 C   0  0  0  0  0  0  0  0  0  0  0  0
    8.7343   -0.1372    0.0000 C   0  0  0  0  0  0  0  0  0  0  0  0
    5.2022   -1.1581    0.0000 C   0  0  0  0  0  0  0  0  0  0  0  0
    6.0682    0.3419    0.0000 C   0  0  0  0  0  0  0  0  0  0  0  0
    6.0682   -1.6581    0.0000 C   0  0  0  0  0  0  0  0  0  0  0  0
    7.8282    0.3766    0.0000 C   0  0  0  0  0  0  0  0  0  0  0  0
    4.3083    0.3766    0.0000 C   0  0  0  0  0  0  0  0  0  0  0  0
    9.6654   -1.7358    0.0000 C   0  0  0  0  0  0  0  0  0  0  0  0
    9.6654    0.4197    0.0000 C   0  0  0  0  0  0  0  0  0  0  0  0
    4.3083   -1.6927    0.0000 C   0  0  0  0  0  0  0  0  0  0  0  0
    3.4022   -0.1372    0.0000 C   0  0  0  0  0  0  0  0  0  0  0  0
   10.6092   -1.2006    0.0000 C   0  0  0  0  0  0  0  0  0  0  0  0
    3.4022   -1.1789    0.0000 C   0  0  0  0  0  0  0  0  0  0  0  0
   10.6092   -0.1156    0.0000 C   0  0  0  0  0  0  0  0  0  0  0  0
    4.3198    1.3765    0.0000 C   0  0  0  0  0  0  0  0  0  0  0  0
    7.4236   -2.1625    0.0000 H   0  0  0  0  0  0  0  0  0  0  0  0
    8.2218   -2.1717    0.0000 H   0  0  0  0  0  0  0  0  0  0  0  0
    6.0682   -2.2781    0.0000 H   0  0  0  0  0  0  0  0  0  0  0  0
    9.6583   -2.3558    0.0000 H   0  0  0  0  0  0  0  0  0  0  0  0
    4.3154   -2.3127    0.0000 H   0  0  0  0  0  0  0  0  0  0  0  0
    2.8665    0.1748    0.0000 H   0  0  0  0  0  0  0  0  0  0  0  0
   11.1450    0.1965    0.0000 H   0  0  0  0  0  0  0  0  0  0  0  0
    4.9398    1.3694    0.0000 H   0  0  0  0  0  0  0  0  0  0  0  0
    4.3270    1.9965    0.0000 H   0  0  0  0  0  0  0  0  0  0  0  0
    3.6999    1.3837    0.0000 H   0  0  0  0  0  0  0  0  0  0  0  0
    5.5313    1.6519    0.0000 H   0  0  0  0  0  0  0  0  0  0  0  0
   10.1872    1.7358    0.0000 H   0  0  0  0  0  0  0  0  0  0  0  0
   12.0114   -1.3960    0.0000 H   0  0  0  0  0  0  0  0  0  0  0  0
    2.0000   -1.3743    0.0000 H   0  0  0  0  0  0  0  0  0  0  0  0
  1 13  1  0  0  0  0
  1 35  1  0  0  0  0
  2 15  2  0  0  0  0
  3 18  1  0  0  0  0
  3 36  1  0  0  0  0
  4 21  1  0  0  0  0
  4 37  1  0  0  0  0
  5 22  1  0  0  0  0
  5 38  1  0  0  0  0
  6  7  1  0  0  0  0
  6  8  2  0  0  0  0
  6 14  1  0  0  0  0
  7  9  1  0  0  0  0
  7 25  1  0  0  0  0
  7 26  1  0  0  0  0
  8 13  1  0  0  0  0
  8 15  1  0  0  0  0
  9 11  2  0  0  0  0
  9 17  1  0  0  0  0
 10 12  1  0  0  0  0
 10 13  2  0  0  0  0
 10 16  1  0  0  0  0
 11 15  1  0  0  0  0
 11 18  1  0  0  0  0
 12 14  2  0  0  0  0
 12 19  1  0  0  0  0
 14 27  1  0  0  0  0
 16 20  2  0  0  0  0
 16 24  1  0  0  0  0
 17 21  2  0  0  0  0
 17 28  1  0  0  0  0
 18 23  2  0  0  0  0
 19 22  2  0  0  0  0
 19 29  1  0  0  0  0
 20 22  1  0  0  0  0
 20 30  1  0  0  0  0
 21 23  1  0  0  0  0
 23 31  1  0  0  0  0
 24 32  1  0  0  0  0
 24 33  1  0  0  0  0
 24 34  1  0  0  0  0
M  END
> <PUBCHEM_COMPOUND_CID>
443786

> <PUBCHEM_COMPOUND_CANONICALIZED>
1

> <PUBCHEM_CACTVS_COMPLEXITY>
508

> <PUBCHEM_CACTVS_HBOND_ACCEPTOR>
5

> <PUBCHEM_CACTVS_HBOND_DONOR>
4

> <PUBCHEM_CACTVS_ROTATABLE_BOND>
0

> <PUBCHEM_CACTVS_SUBSKEYS>
AAADccB4OAAAAAAAAAAAAAAAAAAAAAAAAAAwYMGAAAAAAADBVAAAGgAACAAADASAmAAyBsAAAgCIAqBSAAACAAAkIAAAiAEGCMgIJzaCFRKAcUAl4BUImQeI7PTO4AADCAAYAADAAAYQADAAAAAAAAAAAA==

> <PUBCHEM_IUPAC_OPENEYE_NAME>
2,4,6,9-tetrahydroxy-7-methyl-12H-tetracen-5-one

> <PUBCHEM_IUPAC_CAS_NAME>
2,4,6,9-tetrahydroxy-7-methyl-12H-tetracen-5-one

> <PUBCHEM_IUPAC_NAME>
2,4,6,9-tetrahydroxy-7-methyl-12H-tetracen-5-one

> <PUBCHEM_IUPAC_SYSTEMATIC_NAME>
7-methyl-2,4,6,9-tetrakis(oxidanyl)-12H-tetracen-5-one

> <PUBCHEM_IUPAC_TRADITIONAL_NAME>
2,4,6,9-tetrahydroxy-7-methyl-12H-tetracen-5-one

> <PUBCHEM_IUPAC_INCHI>
InChI=1S/C19H14O5/c1-8-2-12(20)5-10-3-9-4-11-6-13(21)7-14(22)16(11)19(24)17(9)18(23)15(8)10/h2-3,5-7,20-23H,4H2,1H3

> <PUBCHEM_IUPAC_INCHIKEY>
QZJGAJSUXRIADY-UHFFFAOYSA-N

> <PUBCHEM_XLOGP3_AA>
4.1

> <PUBCHEM_EXACT_MASS>
322.084124

> <PUBCHEM_MOLECULAR_FORMULA>
C19H14O5

> <PUBCHEM_MOLECULAR_WEIGHT>
322.31146

> <PUBCHEM_OPENEYE_CAN_SMILES>
CC1=CC(=CC2=CC3=C(C(=C12)O)C(=O)C4=C(C=C(C=C4C3)O)O)O

> <PUBCHEM_OPENEYE_ISO_SMILES>
CC1=CC(=CC2=CC3=C(C(=C12)O)C(=O)C4=C(C=C(C=C4C3)O)O)O

> <PUBCHEM_CACTVS_TPSA>
98

> <PUBCHEM_MONOISOTOPIC_WEIGHT>
322.084124

> <PUBCHEM_TOTAL_CHARGE>
0

> <PUBCHEM_HEAVY_ATOM_COUNT>
24

> <PUBCHEM_ATOM_DEF_STEREO_COUNT>
0

> <PUBCHEM_ATOM_UDEF_STEREO_COUNT>
0

> <PUBCHEM_BOND_DEF_STEREO_COUNT>
0

> <PUBCHEM_BOND_UDEF_STEREO_COUNT>
0

> <PUBCHEM_ISOTOPIC_ATOM_COUNT>
0

> <PUBCHEM_COMPONENT_COUNT>
1

> <PUBCHEM_CACTVS_TAUTO_COUNT>
996

> <PUBCHEM_COORDINATE_TYPE>
1
5
255

> <PUBCHEM_BONDANNOTATIONS>
10  12  8
10  13  8
10  16  8
11  18  8
12  14  8
12  19  8
16  20  8
17  21  8
18  23  8
19  22  8
20  22  8
21  23  8
6  14  8
6  8  8
8  13  8
9  11  8
9  17  8

$$$$

