9930667
  -OEChem-07051213123D

 33 34  0     1  0  0  0  0  0999 V2000
   -0.5002   -0.7721    2.5154 Cl  0  0  0  0  0  0  0  0  0  0  0  0
   -0.9060    1.1255   -2.5989 Cl  0  0  0  0  0  0  0  0  0  0  0  0
    4.2495   -0.8525   -0.8163 S   0  0  1  0  0  0  0  0  0  0  0  0
   -5.5319   -0.6673    1.3661 F   0  0  0  0  0  0  0  0  0  0  0  0
   -5.7361    0.9972   -0.0093 F   0  0  0  0  0  0  0  0  0  0  0  0
   -5.5823   -1.0315   -0.7771 F   0  0  0  0  0  0  0  0  0  0  0  0
    3.9997   -2.3186   -1.0849 O   0  0  0  0  0  0  0  0  0  0  0  0
    0.5647    0.2812   -0.1033 N   0  0  0  0  0  0  0  0  0  0  0  0
    1.1586    1.4302    0.2753 N   0  0  0  0  0  0  0  0  0  0  0  0
    1.0400   -1.8902   -0.9440 N   0  0  0  0  0  0  0  0  0  0  0  0
    4.1482    3.0671    0.6414 N   0  0  0  0  0  0  0  0  0  0  0  0
    1.4502   -0.6718   -0.5277 C   0  0  0  0  0  0  0  0  0  0  0  0
    2.6980   -0.1078   -0.4191 C   0  0  0  0  0  0  0  0  0  0  0  0
   -0.8180    0.1672   -0.0362 C   0  0  0  0  0  0  0  0  0  0  0  0
    2.4572    1.1861    0.0802 C   0  0  0  0  0  0  0  0  0  0  0  0
   -1.4227   -0.3100    1.1267 C   0  0  0  0  0  0  0  0  0  0  0  0
   -1.6017    0.5290   -1.1319 C   0  0  0  0  0  0  0  0  0  0  0  0
   -3.5949   -0.0633    0.0984 C   0  0  0  0  0  0  0  0  0  0  0  0
    5.0191   -0.7519    0.8258 C   0  0  0  0  0  0  0  0  0  0  0  0
   -2.8112   -0.4251    1.1940 C   0  0  0  0  0  0  0  0  0  0  0  0
   -2.9902    0.4137   -1.0646 C   0  0  0  0  0  0  0  0  0  0  0  0
    6.4036   -1.3668    0.8320 C   0  0  0  0  0  0  0  0  0  0  0  0
   -5.0793   -0.1870    0.1700 C   0  0  0  0  0  0  0  0  0  0  0  0
    3.3857    2.2190    0.3883 C   0  0  0  0  0  0  0  0  0  0  0  0
    5.1037    0.2949    1.1227 H   0  0  0  0  0  0  0  0  0  0  0  0
    4.3754   -1.2687    1.5450 H   0  0  0  0  0  0  0  0  0  0  0  0
   -3.2803   -0.7973    2.1017 H   0  0  0  0  0  0  0  0  0  0  0  0
   -3.6080    0.6936   -1.9151 H   0  0  0  0  0  0  0  0  0  0  0  0
    1.6977   -2.5972   -1.2576 H   0  0  0  0  0  0  0  0  0  0  0  0
    0.0635   -2.1668   -0.9671 H   0  0  0  0  0  0  0  0  0  0  0  0
    6.3690   -2.4275    0.5620 H   0  0  0  0  0  0  0  0  0  0  0  0
    7.0648   -0.8612    0.1201 H   0  0  0  0  0  0  0  0  0  0  0  0
    6.8509   -1.2858    1.8276 H   0  0  0  0  0  0  0  0  0  0  0  0
  1 16  1  0  0  0  0
  2 17  1  0  0  0  0
  3  7  2  0  0  0  0
  3 13  1  0  0  0  0
  3 19  1  0  0  0  0
  4 23  1  0  0  0  0
  5 23  1  0  0  0  0
  6 23  1  0  0  0  0
  8  9  1  0  0  0  0
  8 12  1  0  0  0  0
  8 14  1  0  0  0  0
  9 15  2  0  0  0  0
 10 12  1  0  0  0  0
 10 29  1  0  0  0  0
 10 30  1  0  0  0  0
 11 24  3  0  0  0  0
 12 13  2  0  0  0  0
 13 15  1  0  0  0  0
 14 16  2  0  0  0  0
 14 17  1  0  0  0  0
 15 24  1  0  0  0  0
 16 20  1  0  0  0  0
 17 21  2  0  0  0  0
 18 20  2  0  0  0  0
 18 21  1  0  0  0  0
 18 23  1  0  0  0  0
 19 22  1  0  0  0  0
 19 25  1  0  0  0  0
 19 26  1  0  0  0  0
 20 27  1  0  0  0  0
 21 28  1  0  0  0  0
 22 31  1  0  0  0  0
 22 32  1  0  0  0  0
 22 33  1  0  0  0  0
M  END
> <PUBCHEM_COMPOUND_CID>
9930667

> <PUBCHEM_CONFORMER_RMSD>
0.8

> <PUBCHEM_CONFORMER_DIVERSEORDER>
1
2
3
4

> <PUBCHEM_MMFF94_PARTIAL_CHARGES>
27
1 -0.18
10 -0.88
11 -0.56
12 -0.07
13 0.01
14 -0.02
15 0.31
16 0.18
17 0.18
18 -0.14
19 0.19
2 -0.18
20 -0.15
21 -0.15
23 1.16
24 0.54
27 0.15
28 0.15
29 0.4
3 0.3
30 0.4
4 -0.34
5 -0.34
6 -0.34
7 -0.5
8 0.59
9 -0.71

> <PUBCHEM_EFFECTIVE_ROTOR_COUNT>
4

> <PUBCHEM_PHARMACOPHORE_FEATURES>
7
1 10 cation
1 10 donor
1 11 acceptor
1 7 acceptor
1 9 acceptor
5 8 9 12 13 15 rings
6 14 16 17 18 20 21 rings

> <PUBCHEM_HEAVY_ATOM_COUNT>
24

> <PUBCHEM_ATOM_DEF_STEREO_COUNT>
0

> <PUBCHEM_ATOM_UDEF_STEREO_COUNT>
1

> <PUBCHEM_BOND_DEF_STEREO_COUNT>
0

> <PUBCHEM_BOND_UDEF_STEREO_COUNT>
0

> <PUBCHEM_ISOTOPIC_ATOM_COUNT>
0

> <PUBCHEM_COMPONENT_COUNT>
1

> <PUBCHEM_CACTVS_TAUTO_COUNT>
3

> <PUBCHEM_CONFORMER_ID>
009787AB00000001

> <PUBCHEM_MMFF94_ENERGY>
60.7782

> <PUBCHEM_FEATURE_SELFOVERLAP>
35.52

> <PUBCHEM_SHAPE_FINGERPRINT>
10366900 7 18130775789939063378
11796584 16 17275095150826381282
12166972 35 17748826337176049514
12236239 1 16950561090625478646
12403259 118 17676481787219210473
12403259 415 17775297070276144900
12596602 18 16732986444087688654
12616971 3 18040159495743048660
13140716 1 18189342282184170866
13533116 47 17748825220400240722
13544592 145 17989486303332572064
13583140 156 17751636546830511913
13782708 43 18201721760124995090
15342168 16 18191867812531847644
15475509 35 17489038132133099338
16752209 62 16343709854089272277
1813 80 17532916402855491078
18222031 100 18040986393692393230
18785283 64 18410857616924833996
192875 21 17821722836815877976
200 152 18040433317478310635
20600515 1 17059496206133768117
20645477 70 18408885131513171710
23402539 116 17418094342936407319
23557571 272 17561083643800360221
23559900 14 17203320079715499916
25147074 1 17823151025247974230
3286 77 18411133653961095516
4340502 62 17894909620589915983
4409770 3 15229282517832286972
465052 167 18342457054405987234
474 4 17605841304893118736
5104073 3 18262796264004387683
7495541 125 18201717353846719468
77492 1 16950559978271315924

> <PUBCHEM_SHAPE_MULTIPOLES>
453.88
12.55
1.98
1.72
2.29
0.77
0.11
-3.66
-0.86
-1.98
-0.36
-0.5
0.04
2.08

> <PUBCHEM_SHAPE_SELFOVERLAP>
940.974

> <PUBCHEM_SHAPE_VOLUME>
265.3

> <PUBCHEM_COORDINATE_TYPE>
2
5
10

$$$$

