12562
  -OEChem-06261207053D

 22 22  0     0  0  0  0  0  0999 V2000
    0.5328   -0.2530    0.3502 O   0  0  0  0  0  0  0  0  0  0  0  0
   -0.0879    1.9634    0.4456 O   0  0  0  0  0  0  0  0  0  0  0  0
    3.7803   -1.1953    1.1028 O   0  5  0  0  0  0  0  0  0  0  0  0
    2.8975    1.9965   -0.4217 O   0  5  0  0  0  0  0  0  0  0  0  0
    2.2358   -2.1541   -0.1373 O   0  0  0  0  0  0  0  0  0  0  0  0
    2.1934    0.4044   -1.7684 O   0  0  0  0  0  0  0  0  0  0  0  0
    2.7036   -1.1957    0.4924 N   0  3  0  0  0  0  0  0  0  0  0  0
    2.3747    0.8967   -0.6476 N   0  3  0  0  0  0  0  0  0  0  0  0
   -1.7310    0.2636    0.1371 C   0  0  0  0  0  0  0  0  0  0  0  0
    1.9142    0.0806    0.5243 C   0  0  0  0  0  0  0  0  0  0  0  0
   -0.3797    0.7663    0.3261 C   0  0  0  0  0  0  0  0  0  0  0  0
   -2.8150    0.9580    0.6743 C   0  0  0  0  0  0  0  0  0  0  0  0
   -1.9435   -0.9129   -0.5817 C   0  0  0  0  0  0  0  0  0  0  0  0
   -4.1113    0.4761    0.4929 C   0  0  0  0  0  0  0  0  0  0  0  0
   -3.2400   -1.3947   -0.7632 C   0  0  0  0  0  0  0  0  0  0  0  0
   -4.3238   -0.7002   -0.2258 C   0  0  0  0  0  0  0  0  0  0  0  0
    2.1026    0.6026    1.4673 H   0  0  0  0  0  0  0  0  0  0  0  0
   -2.6669    1.8747    1.2394 H   0  0  0  0  0  0  0  0  0  0  0  0
   -1.1202   -1.4687   -1.0229 H   0  0  0  0  0  0  0  0  0  0  0  0
   -4.9553    1.0164    0.9116 H   0  0  0  0  0  0  0  0  0  0  0  0
   -3.4062   -2.3091   -1.3252 H   0  0  0  0  0  0  0  0  0  0  0  0
   -5.3331   -1.0751   -0.3677 H   0  0  0  0  0  0  0  0  0  0  0  0
  1 10  1  0  0  0  0
  1 11  1  0  0  0  0
  2 11  2  0  0  0  0
  3  7  1  0  0  0  0
  4  8  1  0  0  0  0
  5  7  2  0  0  0  0
  6  8  2  0  0  0  0
  7 10  1  0  0  0  0
  8 10  1  0  0  0  0
  9 11  1  0  0  0  0
  9 12  2  0  0  0  0
  9 13  1  0  0  0  0
 10 17  1  0  0  0  0
 12 14  1  0  0  0  0
 12 18  1  0  0  0  0
 13 15  2  0  0  0  0
 13 19  1  0  0  0  0
 14 16  2  0  0  0  0
 14 20  1  0  0  0  0
 15 16  1  0  0  0  0
 15 21  1  0  0  0  0
 16 22  1  0  0  0  0
M  CHG  4   3  -1   4  -1   7   1   8   1
M  END
> <PUBCHEM_COMPOUND_CID>
12562

> <PUBCHEM_CONFORMER_RMSD>
0.6

> <PUBCHEM_CONFORMER_DIVERSEORDER>
1
32
31
43
21
22
27
35
15
17
37
36
13
28
44
45
20
34
23
25
9
19
39
11
42
14
16
46
38
33
12
29
40
4
26
24
10
41
3
18
2
30
5
7
6
8

> <PUBCHEM_MMFF94_PARTIAL_CHARGES>
21
1 -0.43
10 0.76
11 0.63
12 -0.15
13 -0.15
14 -0.15
15 -0.15
16 -0.15
18 0.15
19 0.15
2 -0.57
20 0.15
21 0.15
22 0.15
3 -0.52
4 -0.52
5 -0.52
6 -0.52
7 0.8
8 0.8
9 0.09

> <PUBCHEM_EFFECTIVE_ROTOR_COUNT>
5

> <PUBCHEM_PHARMACOPHORE_FEATURES>
8
1 2 acceptor
1 3 acceptor
1 3 anion
1 4 acceptor
1 4 anion
1 5 acceptor
1 6 acceptor
6 9 12 13 14 15 16 rings

> <PUBCHEM_HEAVY_ATOM_COUNT>
16

> <PUBCHEM_ATOM_DEF_STEREO_COUNT>
0

> <PUBCHEM_ATOM_UDEF_STEREO_COUNT>
0

> <PUBCHEM_BOND_DEF_STEREO_COUNT>
0

> <PUBCHEM_BOND_UDEF_STEREO_COUNT>
0

> <PUBCHEM_ISOTOPIC_ATOM_COUNT>
0

> <PUBCHEM_COMPONENT_COUNT>
1

> <PUBCHEM_CACTVS_TAUTO_COUNT>
2

> <PUBCHEM_CONFORMER_ID>
0000311200000001

> <PUBCHEM_MMFF94_ENERGY>
39.1999

> <PUBCHEM_FEATURE_SELFOVERLAP>
40.756

> <PUBCHEM_SHAPE_FINGERPRINT>
12616999 72 18130501925153615518
12932764 1 18409160004977806073
13296908 3 15068335718322719369
13760787 5 18412263926692985573
14144814 61 18333448725368709779
14350558 41 18335985358470421562
15375462 189 18335695001712216185
15669948 3 17895195446489459719
18186145 218 16774080682833249897
19026448 4 14056998326293567825
19050596 39 18408324384661806043
19422 9 18411417311055356115
19786989 88 16701446854149319165
20279233 1 15841556245327669961
20281475 54 18409452445243192363
20559304 39 18408603686385012760
20645476 183 18268983207412578687
20645477 70 18343588447227854651
20671657 53 17417255458408500898
21501925 9 18336837454143377674
2255824 54 18340483357618732596
22646028 28 18409735062359573883
232386 152 18260272948963439255
23463225 33 18334858359194349911
23557571 272 17531527697688695832
23559900 14 17313370275385145004
23598291 2 18268699666255729516
474 4 17984417430222680004
7364860 26 18409448081551177400
81228 2 16444172283211786993

> <PUBCHEM_SHAPE_MULTIPOLES>
284.09
7.55
1.79
1
1.88
0.04
-0.23
1.54
0.31
-0.88
-0.02
-0.57
0.02
-1.19

> <PUBCHEM_SHAPE_SELFOVERLAP>
592.362

> <PUBCHEM_SHAPE_VOLUME>
157.7

> <PUBCHEM_COORDINATE_TYPE>
2
5
10

$$$$

