5460545
  -OEChem-07051213043D

 51 55  0     1  0  0  0  0  0999 V2000
   -2.1663   -1.1880    1.7202 O   0  0  0  0  0  0  0  0  0  0  0  0
   -2.9686    0.0188   -2.4872 O   0  0  0  0  0  0  0  0  0  0  0  0
   -0.0574    3.2946    1.1217 O   0  0  0  0  0  0  0  0  0  0  0  0
   -3.6988    0.4417    1.8733 O   0  0  0  0  0  0  0  0  0  0  0  0
    0.4955    2.8551   -1.0525 O   0  0  0  0  0  0  0  0  0  0  0  0
    1.4983    0.2768    0.1955 C   0  0  1  0  0  0  0  0  0  0  0  0
   -0.4526   -1.2150   -0.1446 C   0  0  1  0  0  0  0  0  0  0  0  0
    1.0873   -1.1533   -0.3294 C   0  0  2  0  0  0  0  0  0  0  0  0
   -0.8539    0.2428   -0.3938 C   0  0  2  0  0  0  0  0  0  0  0  0
    0.1632    1.0298    0.4533 C   0  0  2  0  0  0  0  0  0  0  0  0
   -2.3646    0.3863   -0.1461 C   0  0  1  0  0  0  0  0  0  0  0  0
    2.4211    0.1610    1.4196 C   0  0  0  0  0  0  0  0  0  0  0  0
    2.4671    0.9407   -0.8201 C   0  0  0  0  0  0  0  0  0  0  0  0
    1.8892   -2.3081    0.2939 C   0  0  0  0  0  0  0  0  0  0  0  0
   -1.1398   -2.1146   -1.1916 C   0  0  0  0  0  0  0  0  0  0  0  0
    3.6531   -0.5036    0.7905 C   0  0  1  0  0  0  0  0  0  0  0  0
   -0.8664   -1.6302    1.2827 C   0  0  0  0  0  0  0  0  0  0  0  0
    3.3792   -1.9854    0.4765 C   0  0  0  0  0  0  0  0  0  0  0  0
   -3.1335   -0.5121   -1.1691 C   0  0  2  0  0  0  0  0  0  0  0  0
    3.7804    0.2813   -0.4969 C   0  0  0  0  0  0  0  0  0  0  0  0
   -2.6663   -1.9778   -1.1758 C   0  0  0  0  0  0  0  0  0  0  0  0
   -2.7793   -0.0794    1.2460 C   0  0  0  0  0  0  0  0  0  0  0  0
    0.2232    2.4786    0.0774 C   0  0  0  0  0  0  0  0  0  0  0  0
   -2.8071    1.8528   -0.3210 C   0  0  0  0  0  0  0  0  0  0  0  0
    4.8969    0.4072   -1.2226 C   0  0  0  0  0  0  0  0  0  0  0  0
    1.2883   -1.1863   -1.4103 H   0  0  0  0  0  0  0  0  0  0  0  0
   -0.6629    0.4956   -1.4491 H   0  0  0  0  0  0  0  0  0  0  0  0
   -0.0994    0.9627    1.5164 H   0  0  0  0  0  0  0  0  0  0  0  0
    1.9973   -0.4269    2.2393 H   0  0  0  0  0  0  0  0  0  0  0  0
    2.6684    1.1529    1.8206 H   0  0  0  0  0  0  0  0  0  0  0  0
    2.6136    2.0074   -0.6216 H   0  0  0  0  0  0  0  0  0  0  0  0
    2.1658    0.7972   -1.8622 H   0  0  0  0  0  0  0  0  0  0  0  0
    1.7763   -3.2145   -0.3127 H   0  0  0  0  0  0  0  0  0  0  0  0
    1.4969   -2.5687    1.2822 H   0  0  0  0  0  0  0  0  0  0  0  0
   -0.8661   -3.1647   -1.0325 H   0  0  0  0  0  0  0  0  0  0  0  0
   -0.7814   -1.8540   -2.1962 H   0  0  0  0  0  0  0  0  0  0  0  0
    4.5417   -0.3928    1.4206 H   0  0  0  0  0  0  0  0  0  0  0  0
   -0.8641   -2.7228    1.3723 H   0  0  0  0  0  0  0  0  0  0  0  0
   -0.1677   -1.2637    2.0403 H   0  0  0  0  0  0  0  0  0  0  0  0
    3.7596   -2.6007    1.3019 H   0  0  0  0  0  0  0  0  0  0  0  0
    3.9355   -2.3039   -0.4141 H   0  0  0  0  0  0  0  0  0  0  0  0
   -4.2100   -0.5035   -0.9544 H   0  0  0  0  0  0  0  0  0  0  0  0
   -3.0697   -2.4912   -2.0573 H   0  0  0  0  0  0  0  0  0  0  0  0
   -3.0697   -2.4998   -0.3009 H   0  0  0  0  0  0  0  0  0  0  0  0
   -2.5015    2.4706    0.5293 H   0  0  0  0  0  0  0  0  0  0  0  0
   -2.3977    2.2994   -1.2332 H   0  0  0  0  0  0  0  0  0  0  0  0
   -3.8998    1.9294   -0.3787 H   0  0  0  0  0  0  0  0  0  0  0  0
    5.8162   -0.0842   -0.9234 H   0  0  0  0  0  0  0  0  0  0  0  0
    4.9101    1.0030   -2.1287 H   0  0  0  0  0  0  0  0  0  0  0  0
   -3.5257    0.8118   -2.5603 H   0  0  0  0  0  0  0  0  0  0  0  0
   -0.0188    4.2412    0.8675 H   0  0  0  0  0  0  0  0  0  0  0  0
  1 17  1  0  0  0  0
  1 22  1  0  0  0  0
  2 19  1  0  0  0  0
  2 50  1  0  0  0  0
  3 23  1  0  0  0  0
  3 51  1  0  0  0  0
  4 22  2  0  0  0  0
  5 23  2  0  0  0  0
  6  8  1  0  0  0  0
  6 10  1  0  0  0  0
  6 12  1  0  0  0  0
  6 13  1  0  0  0  0
  7  8  1  0  0  0  0
  7  9  1  0  0  0  0
  7 15  1  0  0  0  0
  7 17  1  0  0  0  0
  8 14  1  0  0  0  0
  8 26  1  0  0  0  0
  9 10  1  0  0  0  0
  9 11  1  0  0  0  0
  9 27  1  0  0  0  0
 10 23  1  0  0  0  0
 10 28  1  0  0  0  0
 11 19  1  0  0  0  0
 11 22  1  0  0  0  0
 11 24  1  0  0  0  0
 12 16  1  0  0  0  0
 12 29  1  0  0  0  0
 12 30  1  0  0  0  0
 13 20  1  0  0  0  0
 13 31  1  0  0  0  0
 13 32  1  0  0  0  0
 14 18  1  0  0  0  0
 14 33  1  0  0  0  0
 14 34  1  0  0  0  0
 15 21  1  0  0  0  0
 15 35  1  0  0  0  0
 15 36  1  0  0  0  0
 16 18  1  0  0  0  0
 16 20  1  0  0  0  0
 16 37  1  0  0  0  0
 17 38  1  0  0  0  0
 17 39  1  0  0  0  0
 18 40  1  0  0  0  0
 18 41  1  0  0  0  0
 19 21  1  0  0  0  0
 19 42  1  0  0  0  0
 20 25  2  0  0  0  0
 21 43  1  0  0  0  0
 21 44  1  0  0  0  0
 24 45  1  0  0  0  0
 24 46  1  0  0  0  0
 24 47  1  0  0  0  0
 25 48  1  0  0  0  0
 25 49  1  0  0  0  0
M  END
> <PUBCHEM_COMPOUND_CID>
5460545

> <PUBCHEM_CONFORMER_RMSD>
0.6

> <PUBCHEM_CONFORMER_DIVERSEORDER>
1
2
3

> <PUBCHEM_MMFF94_PARTIAL_CHARGES>
19
1 -0.43
10 0.06
11 0.06
13 0.14
16 0.14
17 0.28
19 0.28
2 -0.68
20 -0.28
22 0.66
23 0.66
25 -0.3
3 -0.65
4 -0.57
48 0.15
49 0.15
5 -0.57
50 0.4
51 0.5

> <PUBCHEM_EFFECTIVE_ROTOR_COUNT>
3

> <PUBCHEM_PHARMACOPHORE_FEATURES>
10
1 2 acceptor
1 2 donor
1 3 acceptor
1 4 acceptor
1 5 acceptor
3 3 5 23 anion
5 6 7 8 9 10 rings
6 1 7 9 11 17 22 rings
6 7 9 11 15 19 21 rings
8 6 8 12 13 14 16 18 20 rings

> <PUBCHEM_HEAVY_ATOM_COUNT>
25

> <PUBCHEM_ATOM_DEF_STEREO_COUNT>
7

> <PUBCHEM_ATOM_UDEF_STEREO_COUNT>
1

> <PUBCHEM_BOND_DEF_STEREO_COUNT>
0

> <PUBCHEM_BOND_UDEF_STEREO_COUNT>
0

> <PUBCHEM_ISOTOPIC_ATOM_COUNT>
0

> <PUBCHEM_COMPONENT_COUNT>
1

> <PUBCHEM_CACTVS_TAUTO_COUNT>
1

> <PUBCHEM_CONFORMER_ID>
0053524100000001

> <PUBCHEM_MMFF94_ENERGY>
108.8335

> <PUBCHEM_FEATURE_SELFOVERLAP>
52.763

> <PUBCHEM_SHAPE_FINGERPRINT>
104564 63 18263634233667290424
10863032 1 18115039604880686927
10948715 1 18055637471720617845
11578080 2 17388858345643855129
12011746 2 18343292644361252083
12422481 6 17615387586914925745
12553582 1 18409448085629834408
12596599 1 17240489108562194156
12633257 1 18125973063198517435
12788726 201 18189887802770480456
13027679 85 18339635659770624705
13132413 78 18340760473119274412
13140716 1 18194114114612840096
13172582 1 18334571339150869329
13224815 77 18411703162535377410
13583140 156 16487262058052395978
14223421 5 17697874774380700443
14787075 74 17916572146855752522
14955137 171 18117811387747270944
15309172 13 18334010618312160123
16752209 62 18268162018202653116
16945 1 18337119968591844483
18186145 218 17530688722966372386
18981168 100 16843335479739664789
19868273 325 18409174289933225718
21197605 99 17832129899521595601
23184049 59 18261947552638715707
2334 1 18409453621594733119
23402539 116 18335416860078442212
23493267 7 17917428765361340568
23558518 356 17474105883095531553
23559900 14 14851602206959548958
238 59 17842298985343083959
2748010 2 16964636218051022798
2818148 4 17763156073887713751
34934 24 18412261748722690360
350125 39 17837480860954707483
352729 6 17615973648171859472
6992083 37 18187367635998140867
74978 22 18191027806895605566
81228 2 18269283528753360688

> <PUBCHEM_SHAPE_MULTIPOLES>
485.14
6.64
2.73
1.62
3.67
1.18
-0.04
-0.63
-0.92
-0.16
0
-1.07
-0.13
-0.72

> <PUBCHEM_SHAPE_SELFOVERLAP>
1080.5

> <PUBCHEM_SHAPE_VOLUME>
255.8

> <PUBCHEM_COORDINATE_TYPE>
2
5
10

$$$$

