440235
  -OEChem-07051212493D

 34 34  0     1  0  0  0  0  0999 V2000
    4.2353    0.4034   -0.5315 S   0  0  0  0  0  0  0  0  0  0  0  0
    0.2267    0.9596    0.9136 O   0  0  0  0  0  0  0  0  0  0  0  0
   -1.7651   -2.1401   -0.8934 O   0  0  0  0  0  0  0  0  0  0  0  0
    0.6765   -2.6652    0.5447 O   0  0  0  0  0  0  0  0  0  0  0  0
   -1.6474    2.3360    0.7887 O   0  0  0  0  0  0  0  0  0  0  0  0
    2.6554    0.1885   -0.1592 O   0  0  0  0  0  0  0  0  0  0  0  0
   -3.9571    0.8117   -1.7867 O   0  0  0  0  0  0  0  0  0  0  0  0
    4.1911    1.0114   -2.0447 O   0  0  0  0  0  0  0  0  0  0  0  0
    4.7570    1.4392    0.3406 O   0  0  0  0  0  0  0  0  0  0  0  0
    4.8827   -0.8940   -0.5907 O   0  0  0  0  0  0  0  0  0  0  0  0
   -3.3045    0.0372    0.3091 N   0  0  0  0  0  0  0  0  0  0  0  0
   -1.3030   -1.3632    0.2134 C   0  0  2  0  0  0  0  0  0  0  0  0
   -1.8733    0.0528    0.0879 C   0  0  2  0  0  0  0  0  0  0  0  0
    0.2272   -1.3555    0.2074 C   0  0  1  0  0  0  0  0  0  0  0  0
    0.7662   -0.3302    1.2082 C   0  0  1  0  0  0  0  0  0  0  0  0
   -1.1906    1.0132    1.0679 C   0  0  1  0  0  0  0  0  0  0  0  0
    2.2855   -0.2083    1.1488 C   0  0  0  0  0  0  0  0  0  0  0  0
   -4.2217    0.4200   -0.6530 C   0  0  0  0  0  0  0  0  0  0  0  0
   -5.6410    0.2835   -0.1710 C   0  0  0  0  0  0  0  0  0  0  0  0
   -1.6740   -1.8568    1.1202 H   0  0  0  0  0  0  0  0  0  0  0  0
   -1.6927    0.4134   -0.9336 H   0  0  0  0  0  0  0  0  0  0  0  0
    0.5723   -1.1374   -0.8110 H   0  0  0  0  0  0  0  0  0  0  0  0
    0.4942   -0.6142    2.2334 H   0  0  0  0  0  0  0  0  0  0  0  0
   -1.4585    0.7762    2.1057 H   0  0  0  0  0  0  0  0  0  0  0  0
    2.7763   -1.1521    1.4063 H   0  0  0  0  0  0  0  0  0  0  0  0
    2.6198    0.5631    1.8517 H   0  0  0  0  0  0  0  0  0  0  0  0
   -3.6407   -0.2763    1.2155 H   0  0  0  0  0  0  0  0  0  0  0  0
   -1.4466   -1.7214   -1.7112 H   0  0  0  0  0  0  0  0  0  0  0  0
    1.6290   -2.7094    0.3569 H   0  0  0  0  0  0  0  0  0  0  0  0
   -1.5403    2.8526    1.6054 H   0  0  0  0  0  0  0  0  0  0  0  0
   -6.3192    0.7647   -0.8812 H   0  0  0  0  0  0  0  0  0  0  0  0
   -5.8985   -0.7760   -0.0891 H   0  0  0  0  0  0  0  0  0  0  0  0
   -5.7575    0.7640    0.8047 H   0  0  0  0  0  0  0  0  0  0  0  0
    3.6023    0.5326   -2.6742 H   0  0  0  0  0  0  0  0  0  0  0  0
  1  6  1  0  0  0  0
  1  8  1  0  0  0  0
  1  9  2  0  0  0  0
  1 10  2  0  0  0  0
  2 15  1  0  0  0  0
  2 16  1  0  0  0  0
  3 12  1  0  0  0  0
  3 28  1  0  0  0  0
  4 14  1  0  0  0  0
  4 29  1  0  0  0  0
  5 16  1  0  0  0  0
  5 30  1  0  0  0  0
  6 17  1  0  0  0  0
  7 18  2  0  0  0  0
  8 34  1  0  0  0  0
 11 13  1  0  0  0  0
 11 18  1  0  0  0  0
 11 27  1  0  0  0  0
 12 13  1  0  0  0  0
 12 14  1  0  0  0  0
 12 20  1  0  0  0  0
 13 16  1  0  0  0  0
 13 21  1  0  0  0  0
 14 15  1  0  0  0  0
 14 22  1  0  0  0  0
 15 17  1  0  0  0  0
 15 23  1  0  0  0  0
 16 24  1  0  0  0  0
 17 25  1  0  0  0  0
 17 26  1  0  0  0  0
 18 19  1  0  0  0  0
 19 31  1  0  0  0  0
 19 32  1  0  0  0  0
 19 33  1  0  0  0  0
M  END
> <PUBCHEM_COMPOUND_CID>
440235

> <PUBCHEM_CONFORMER_RMSD>
0.8

> <PUBCHEM_CONFORMER_DIVERSEORDER>
2
33
39
44
28
5
41
30
1
34
38
31
13
8
37
20
3
35
16
43
12
4
11
36
17
42
21
19
23
26
15
40
24
22
18
45
10
27
9
25
7
32
14
6
29

> <PUBCHEM_MMFF94_PARTIAL_CHARGES>
24
1 1.67
10 -0.65
11 -0.73
12 0.28
13 0.3
14 0.28
15 0.28
16 0.56
17 0.28
18 0.57
19 0.06
2 -0.56
27 0.37
28 0.4
29 0.4
3 -0.68
30 0.4
34 0.5
4 -0.68
5 -0.68
6 -0.46
7 -0.57
8 -0.68
9 -0.65

> <PUBCHEM_EFFECTIVE_ROTOR_COUNT>
6.2

> <PUBCHEM_PHARMACOPHORE_FEATURES>
14
1 10 acceptor
1 11 donor
1 2 acceptor
1 3 acceptor
1 3 donor
1 4 acceptor
1 4 donor
1 5 acceptor
1 5 donor
1 7 acceptor
1 8 acceptor
1 9 acceptor
4 1 8 9 10 anion
6 2 12 13 14 15 16 rings

> <PUBCHEM_HEAVY_ATOM_COUNT>
19

> <PUBCHEM_ATOM_DEF_STEREO_COUNT>
5

> <PUBCHEM_ATOM_UDEF_STEREO_COUNT>
0

> <PUBCHEM_BOND_DEF_STEREO_COUNT>
0

> <PUBCHEM_BOND_UDEF_STEREO_COUNT>
0

> <PUBCHEM_ISOTOPIC_ATOM_COUNT>
0

> <PUBCHEM_COMPONENT_COUNT>
1

> <PUBCHEM_CACTVS_TAUTO_COUNT>
2

> <PUBCHEM_CONFORMER_ID>
0006B7AB00000002

> <PUBCHEM_MMFF94_ENERGY>
30.3994

> <PUBCHEM_FEATURE_SELFOVERLAP>
71.155

> <PUBCHEM_SHAPE_FINGERPRINT>
10498660 4 18410013200157043712
11128504 68 18259706691880035748
11796584 16 4823209524714456373
12251169 10 10735872868213047178
12596602 18 10447918486311851285
12969540 114 18339940237450020341
14420673 8 9436085193602468308
14911166 2 18187368718392995257
15209294 21 13829859045021204133
15342168 16 16702012037902498286
16752209 62 18188216510329639185
16945 1 18261128382358851531
17834072 8 18412820313936729670
1813 80 5833718997726053616
18186145 218 18114762459742661761
193927 3 6555138293288063700
19784866 140 17968097559909831011
19784866 240 13840254884522949380
200 152 15430034357546138162
20645476 183 18131073692786107227
20871999 31 18263650558637613439
21501502 16 17974291220604552209
21637258 2 14562825369144155821
22079108 93 15985101886311798625
22182313 1 17972613086503192499
22713019 99 17240203226980725431
231179 274 17703794742679469366
23227448 37 17703220707352121423
23379529 103 16664610930371943095
23402539 116 17967813885456457065
23557571 272 17898015629237234418
23558518 356 17906736161168816515
23559900 14 18187085006360926192
25147074 1 17972318688117483859
26918003 58 6411292438374213085
2748010 2 17973461909564186083
2838139 119 16773253850057534077
33382 64 14418136171489455399
3759504 43 18131633357358702491
4028521 119 18411138030506311660
4175511 318 18343867697289784125
4340502 62 17060334150232161203
465052 167 7853563669446849885
474 4 17704065201365720266
4990 188 17240767289188108595
633830 44 17895205376501489561
81539 233 18059580229738505275

> <PUBCHEM_SHAPE_MULTIPOLES>
337.06
10.22
1.88
1.32
1.19
0.69
0.38
-3.48
4.45
0.06
-0.12
0.39
-0.34
-0.35

> <PUBCHEM_SHAPE_SELFOVERLAP>
663.434

> <PUBCHEM_SHAPE_VOLUME>
201.4

> <PUBCHEM_COORDINATE_TYPE>
2
5
10

$$$$

