441761
  -OEChem-07051212562D

 69 74  0     1  0  0  0  0  0999 V2000
    3.4381   -0.7026    0.0000 O   0  0  0  0  0  0  0  0  0  0  0  0
    6.7784    1.8904    0.0000 O   0  0  0  0  0  0  0  0  0  0  0  0
    3.0615    1.4645    0.0000 O   0  0  0  0  0  0  0  0  0  0  0  0
    2.6607    2.3483    0.0000 O   0  0  0  0  0  0  0  0  0  0  0  0
    7.6444   -2.3448    0.0000 O   0  0  0  0  0  0  0  0  0  0  0  0
    7.9737    0.0613    0.0000 N   0  0  3  0  0  0  0  0  0  0  0  0
    6.0270    0.4566    0.0000 C   0  0  1  0  0  0  0  0  0  0  0  0
    6.0270   -0.4110    0.0000 C   0  0  1  0  0  0  0  0  0  0  0  0
    5.3487    0.9975    0.0000 C   0  0  1  0  0  0  0  0  0  0  0  0
    7.0290    0.3505    0.0000 C   0  0  3  0  0  0  0  0  0  0  0  0
    4.5029   -0.7589    0.0000 C   0  0  1  0  0  0  0  0  0  0  0  0
    4.5029    0.8044    0.0000 C   0  0  1  0  0  0  0  0  0  0  0  0
    4.1264    0.0228    0.0000 C   0  0  1  0  0  0  0  0  0  0  0  0
    6.7784   -0.8448    0.0000 C   0  0  2  0  0  0  0  0  0  0  0  0
    5.3487   -0.9519    0.0000 C   0  0  0  0  0  0  0  0  0  0  0  0
    6.7784    0.8904    0.0000 C   0  0  2  0  0  0  0  0  0  0  0  0
    5.4265    1.8616    0.0000 C   0  0  0  0  0  0  0  0  0  0  0  0
    4.6287    2.2026    0.0000 C   0  0  1  0  0  0  0  0  0  0  0  0
    4.0579    1.5492    0.0000 C   0  0  2  0  0  0  0  0  0  0  0  0
    3.4816    0.2927    0.0000 C   0  0  0  0  0  0  0  0  0  0  0  0
    7.9737   -0.6906    0.0000 C   0  0  0  0  0  0  0  0  0  0  0  0
    7.5297   -0.4110    0.0000 C   0  0  0  0  0  0  0  0  0  0  0  0
    3.4816    1.7772    0.0000 C   0  0  2  0  0  0  0  0  0  0  0  0
    7.5297    0.4566    0.0000 C   0  0  0  0  0  0  0  0  0  0  0  0
    6.7783   -1.8448    0.0000 C   0  0  0  0  0  0  0  0  0  0  0  0
    8.7776    0.6560    0.0000 C   0  0  0  0  0  0  0  0  0  0  0  0
    9.6946    0.2571    0.0000 C   0  0  0  0  0  0  0  0  0  0  0  0
    7.6444    2.3904    0.0000 C   0  0  0  0  0  0  0  0  0  0  0  0
    2.7448    3.3448    0.0000 C   0  0  0  0  0  0  0  0  0  0  0  0
    7.6444   -3.3448    0.0000 C   0  0  0  0  0  0  0  0  0  0  0  0
    6.0905   -1.2586    0.0000 H   0  0  0  0  0  0  0  0  0  0  0  0
    6.1303    1.3316    0.0000 H   0  0  0  0  0  0  0  0  0  0  0  0
    7.1529    0.9580    0.0000 H   0  0  0  0  0  0  0  0  0  0  0  0
    3.9729   -1.4234    0.0000 H   0  0  0  0  0  0  0  0  0  0  0  0
    3.6537    0.7663    0.0000 H   0  0  0  0  0  0  0  0  0  0  0  0
    5.8334   -1.3385    0.0000 H   0  0  0  0  0  0  0  0  0  0  0  0
    5.0797   -1.5105    0.0000 H   0  0  0  0  0  0  0  0  0  0  0  0
    6.2414    1.2004    0.0000 H   0  0  0  0  0  0  0  0  0  0  0  0
    5.6092    2.4540    0.0000 H   0  0  0  0  0  0  0  0  0  0  0  0
    6.0348    1.7418    0.0000 H   0  0  0  0  0  0  0  0  0  0  0  0
    4.6495    3.0523    0.0000 H   0  0  0  0  0  0  0  0  0  0  0  0
    3.7778    2.1023    0.0000 H   0  0  0  0  0  0  0  0  0  0  0  0
    3.3196   -0.3058    0.0000 H   0  0  0  0  0  0  0  0  0  0  0  0
    2.8670    0.3744    0.0000 H   0  0  0  0  0  0  0  0  0  0  0  0
    8.5931   -0.6640    0.0000 H   0  0  0  0  0  0  0  0  0  0  0  0
    8.0266   -1.3083    0.0000 H   0  0  0  0  0  0  0  0  0  0  0  0
    8.1403   -0.3033    0.0000 H   0  0  0  0  0  0  0  0  0  0  0  0
    7.7417   -0.9936    0.0000 H   0  0  0  0  0  0  0  0  0  0  0  0
    3.5597    2.3923    0.0000 H   0  0  0  0  0  0  0  0  0  0  0  0
    7.7417    1.0392    0.0000 H   0  0  0  0  0  0  0  0  0  0  0  0
    8.1403    0.3489    0.0000 H   0  0  0  0  0  0  0  0  0  0  0  0
    6.5663   -2.4274    0.0000 H   0  0  0  0  0  0  0  0  0  0  0  0
    6.1678   -1.7371    0.0000 H   0  0  0  0  0  0  0  0  0  0  0  0
    2.8352   -0.5579    0.0000 H   0  0  0  0  0  0  0  0  0  0  0  0
    8.3280    1.0829    0.0000 H   0  0  0  0  0  0  0  0  0  0  0  0
    9.1199    1.1730    0.0000 H   0  0  0  0  0  0  0  0  0  0  0  0
    2.7981    0.9033    0.0000 H   0  0  0  0  0  0  0  0  0  0  0  0
    9.9420    0.8256    0.0000 H   0  0  0  0  0  0  0  0  0  0  0  0
   10.2632    0.0098    0.0000 H   0  0  0  0  0  0  0  0  0  0  0  0
    9.4473   -0.3114    0.0000 H   0  0  0  0  0  0  0  0  0  0  0  0
    7.3344    2.9273    0.0000 H   0  0  0  0  0  0  0  0  0  0  0  0
    8.1813    2.7004    0.0000 H   0  0  0  0  0  0  0  0  0  0  0  0
    7.9544    1.8534    0.0000 H   0  0  0  0  0  0  0  0  0  0  0  0
    2.1270    3.3970    0.0000 H   0  0  0  0  0  0  0  0  0  0  0  0
    2.7970    3.9626    0.0000 H   0  0  0  0  0  0  0  0  0  0  0  0
    3.3626    3.2926    0.0000 H   0  0  0  0  0  0  0  0  0  0  0  0
    8.2644   -3.3448    0.0000 H   0  0  0  0  0  0  0  0  0  0  0  0
    7.6444   -3.9648    0.0000 H   0  0  0  0  0  0  0  0  0  0  0  0
    7.0244   -3.3448    0.0000 H   0  0  0  0  0  0  0  0  0  0  0  0
 13  1  1  6  0  0  0
  1 54  1  0  0  0  0
 16  2  1  1  0  0  0
  2 28  1  0  0  0  0
 19  3  1  1  0  0  0
  3 57  1  0  0  0  0
 23  4  1  6  0  0  0
  4 29  1  0  0  0  0
  5 25  1  0  0  0  0
  5 30  1  0  0  0  0
  6 10  1  0  0  0  0
  6 21  1  0  0  0  0
  6 26  1  0  0  0  0
  7  8  1  0  0  0  0
  7  9  1  0  0  0  0
  7 10  1  0  0  0  0
  7 16  1  6  0  0  0
  8 14  1  0  0  0  0
  8 15  1  0  0  0  0
  8 31  1  6  0  0  0
  9 12  1  0  0  0  0
  9 17  1  0  0  0  0
  9 32  1  6  0  0  0
 10 11  1  0  0  0  0
 10 33  1  0  0  0  0
 11 13  1  0  0  0  0
 11 15  1  0  0  0  0
 11 34  1  1  0  0  0
 12 13  1  0  0  0  0
 12 19  1  0  0  0  0
 12 35  1  6  0  0  0
 13 20  1  0  0  0  0
 14 21  1  0  0  0  0
 14 22  1  0  0  0  0
 14 25  1  6  0  0  0
 15 36  1  0  0  0  0
 15 37  1  0  0  0  0
 16 24  1  0  0  0  0
 16 38  1  0  0  0  0
 17 18  1  0  0  0  0
 17 39  1  0  0  0  0
 17 40  1  0  0  0  0
 18 19  1  0  0  0  0
 18 23  1  0  0  0  0
 18 41  1  6  0  0  0
 19 42  1  0  0  0  0
 20 23  1  0  0  0  0
 20 43  1  0  0  0  0
 20 44  1  0  0  0  0
 21 45  1  0  0  0  0
 21 46  1  0  0  0  0
 22 24  1  0  0  0  0
 22 47  1  0  0  0  0
 22 48  1  0  0  0  0
 23 49  1  0  0  0  0
 24 50  1  0  0  0  0
 24 51  1  0  0  0  0
 25 52  1  0  0  0  0
 25 53  1  0  0  0  0
 26 27  1  0  0  0  0
 26 55  1  0  0  0  0
 26 56  1  0  0  0  0
 27 58  1  0  0  0  0
 27 59  1  0  0  0  0
 27 60  1  0  0  0  0
 28 61  1  0  0  0  0
 28 62  1  0  0  0  0
 28 63  1  0  0  0  0
 29 64  1  0  0  0  0
 29 65  1  0  0  0  0
 29 66  1  0  0  0  0
 30 67  1  0  0  0  0
 30 68  1  0  0  0  0
 30 69  1  0  0  0  0
M  END
> <PUBCHEM_COMPOUND_CID>
441761

> <PUBCHEM_COMPOUND_CANONICALIZED>
1

> <PUBCHEM_CACTVS_COMPLEXITY>
720

> <PUBCHEM_CACTVS_HBOND_ACCEPTOR>
6

> <PUBCHEM_CACTVS_HBOND_DONOR>
2

> <PUBCHEM_CACTVS_ROTATABLE_BOND>
5

> <PUBCHEM_CACTVS_SUBSKEYS>
AAADcfB6OAAAAAAAAAAAAAAAAAAAAYMAAAA8YMEAB4gWAGAAAAAAHgAACAAAD3zhgAYCAAMABgAAAAAAAAAAAAAAAAAAAAAIAAAAEAIAgAAEQAAHAACAAAGQ8P8PgAAAAAAAAADQAAaUADQAAaAADQAAAA==

> <PUBCHEM_IUPAC_INCHI>
InChI=1S/C24H39NO5/c1-5-25-11-22(12-28-2)7-6-18(30-4)24-14-8-13-16(29-3)10-23(27,19(14)20(13)26)15(21(24)25)9-17(22)24/h13-21,26-27H,5-12H2,1-4H3/t13-,14-,15+,16+,17-,18+,19-,20+,21?,22+,23+,24-/m1/s1

> <PUBCHEM_IUPAC_INCHIKEY>
BDCURAWBZJMFIK-FLDLCTCNSA-N

> <PUBCHEM_XLOGP3_AA>
0.9

> <PUBCHEM_EXACT_MASS>
421.282823

> <PUBCHEM_MOLECULAR_FORMULA>
C24H39NO5

> <PUBCHEM_MOLECULAR_WEIGHT>
421.57016

> <PUBCHEM_OPENEYE_CAN_SMILES>
CCN1CC2(CCC(C34C2CC(C31)C5(CC(C6CC4C5C6O)OC)O)OC)COC

> <PUBCHEM_OPENEYE_ISO_SMILES>
CCN1C[C@@]2(CC[C@@H]([C@@]34[C@@H]2C[C@@H](C31)[C@]5(C[C@@H]([C@H]6C[C@@H]4[C@@H]5[C@H]6O)OC)O)OC)COC

> <PUBCHEM_CACTVS_TPSA>
71.4

> <PUBCHEM_MONOISOTOPIC_WEIGHT>
421.282823

> <PUBCHEM_TOTAL_CHARGE>
0

> <PUBCHEM_HEAVY_ATOM_COUNT>
30

> <PUBCHEM_ATOM_DEF_STEREO_COUNT>
11

> <PUBCHEM_ATOM_UDEF_STEREO_COUNT>
1

> <PUBCHEM_BOND_DEF_STEREO_COUNT>
0

> <PUBCHEM_BOND_UDEF_STEREO_COUNT>
0

> <PUBCHEM_ISOTOPIC_ATOM_COUNT>
0

> <PUBCHEM_COMPONENT_COUNT>
1

> <PUBCHEM_CACTVS_TAUTO_COUNT>
1

> <PUBCHEM_COORDINATE_TYPE>
1
5
255

> <PUBCHEM_BONDANNOTATIONS>
13  1  6
11  34  5
12  35  6
14  25  6
18  41  6
16  2  5
19  3  5
23  4  6
10  6  3
7  16  6
8  31  6
9  32  6

$$$$

