442654
  -OEChem-07051212582D

 57 57  0     1  0  0  0  0  0999 V2000
    2.5369    1.3450    0.0000 O   0  0  0  0  0  0  0  0  0  0  0  0
    2.5369   -1.6550    0.0000 O   0  0  0  0  0  0  0  0  0  0  0  0
   13.7953    0.8450    0.0000 O   0  0  0  0  0  0  0  0  0  0  0  0
    4.2690   -0.6550    0.0000 N   0  0  0  0  0  0  0  0  0  0  0  0
    5.1350   -0.1550    0.0000 C   0  0  1  0  0  0  0  0  0  0  0  0
    5.1350    0.8450    0.0000 C   0  0  0  0  0  0  0  0  0  0  0  0
    3.4030   -0.1550    0.0000 C   0  0  1  0  0  0  0  0  0  0  0  0
    3.4030    0.8450    0.0000 C   0  0  2  0  0  0  0  0  0  0  0  0
    4.2690    1.3450    0.0000 C   0  0  0  0  0  0  0  0  0  0  0  0
    6.0010   -0.6550    0.0000 C   0  0  0  0  0  0  0  0  0  0  0  0
    6.8671   -0.1550    0.0000 C   0  0  0  0  0  0  0  0  0  0  0  0
    2.5369   -0.6550    0.0000 C   0  0  0  0  0  0  0  0  0  0  0  0
    7.7331   -0.6550    0.0000 C   0  0  0  0  0  0  0  0  0  0  0  0
    8.5991   -0.1550    0.0000 C   0  0  0  0  0  0  0  0  0  0  0  0
    9.4651   -0.6550    0.0000 C   0  0  0  0  0  0  0  0  0  0  0  0
   10.3312   -0.1550    0.0000 C   0  0  0  0  0  0  0  0  0  0  0  0
   11.1972   -0.6550    0.0000 C   0  0  0  0  0  0  0  0  0  0  0  0
   12.0632   -0.1550    0.0000 C   0  0  0  0  0  0  0  0  0  0  0  0
   12.9292   -0.6550    0.0000 C   0  0  0  0  0  0  0  0  0  0  0  0
   13.7953   -0.1550    0.0000 C   0  0  0  0  0  0  0  0  0  0  0  0
   14.6613   -0.6550    0.0000 C   0  0  0  0  0  0  0  0  0  0  0  0
   15.5273   -0.1550    0.0000 C   0  0  0  0  0  0  0  0  0  0  0  0
    5.1350   -0.7750    0.0000 H   0  0  0  0  0  0  0  0  0  0  0  0
    5.7456    0.7373    0.0000 H   0  0  0  0  0  0  0  0  0  0  0  0
    5.3471    1.4276    0.0000 H   0  0  0  0  0  0  0  0  0  0  0  0
    3.4030   -0.7750    0.0000 H   0  0  0  0  0  0  0  0  0  0  0  0
    3.4030    1.4650    0.0000 H   0  0  0  0  0  0  0  0  0  0  0  0
    4.6675    1.8200    0.0000 H   0  0  0  0  0  0  0  0  0  0  0  0
    3.8705    1.8200    0.0000 H   0  0  0  0  0  0  0  0  0  0  0  0
    5.6025   -1.1300    0.0000 H   0  0  0  0  0  0  0  0  0  0  0  0
    6.3996   -1.1300    0.0000 H   0  0  0  0  0  0  0  0  0  0  0  0
    4.2690   -1.2750    0.0000 H   0  0  0  0  0  0  0  0  0  0  0  0
    7.2656    0.3199    0.0000 H   0  0  0  0  0  0  0  0  0  0  0  0
    6.4685    0.3199    0.0000 H   0  0  0  0  0  0  0  0  0  0  0  0
    2.3249   -0.0724    0.0000 H   0  0  0  0  0  0  0  0  0  0  0  0
    1.9264   -0.7627    0.0000 H   0  0  0  0  0  0  0  0  0  0  0  0
    7.3346   -1.1300    0.0000 H   0  0  0  0  0  0  0  0  0  0  0  0
    8.1316   -1.1300    0.0000 H   0  0  0  0  0  0  0  0  0  0  0  0
    8.9976    0.3199    0.0000 H   0  0  0  0  0  0  0  0  0  0  0  0
    8.2006    0.3199    0.0000 H   0  0  0  0  0  0  0  0  0  0  0  0
    2.5369    1.9650    0.0000 H   0  0  0  0  0  0  0  0  0  0  0  0
    9.0666   -1.1300    0.0000 H   0  0  0  0  0  0  0  0  0  0  0  0
    9.8637   -1.1300    0.0000 H   0  0  0  0  0  0  0  0  0  0  0  0
   10.7297    0.3199    0.0000 H   0  0  0  0  0  0  0  0  0  0  0  0
    9.9326    0.3199    0.0000 H   0  0  0  0  0  0  0  0  0  0  0  0
   10.7987   -1.1300    0.0000 H   0  0  0  0  0  0  0  0  0  0  0  0
   11.5957   -1.1300    0.0000 H   0  0  0  0  0  0  0  0  0  0  0  0
    2.0000   -1.9650    0.0000 H   0  0  0  0  0  0  0  0  0  0  0  0
   12.4617    0.3199    0.0000 H   0  0  0  0  0  0  0  0  0  0  0  0
   11.6647    0.3199    0.0000 H   0  0  0  0  0  0  0  0  0  0  0  0
   12.5307   -1.1300    0.0000 H   0  0  0  0  0  0  0  0  0  0  0  0
   13.3278   -1.1300    0.0000 H   0  0  0  0  0  0  0  0  0  0  0  0
   14.2628   -1.1300    0.0000 H   0  0  0  0  0  0  0  0  0  0  0  0
   15.0598   -1.1300    0.0000 H   0  0  0  0  0  0  0  0  0  0  0  0
   15.8373   -0.6919    0.0000 H   0  0  0  0  0  0  0  0  0  0  0  0
   16.0643    0.1550    0.0000 H   0  0  0  0  0  0  0  0  0  0  0  0
   15.2173    0.3819    0.0000 H   0  0  0  0  0  0  0  0  0  0  0  0
  8  1  1  1  0  0  0
  1 41  1  0  0  0  0
  2 12  1  0  0  0  0
  2 48  1  0  0  0  0
  3 20  2  0  0  0  0
  4  5  1  0  0  0  0
  4  7  1  0  0  0  0
  4 32  1  0  0  0  0
  5  6  1  0  0  0  0
  5 10  1  1  0  0  0
  5 23  1  0  0  0  0
  6  9  1  0  0  0  0
  6 24  1  0  0  0  0
  6 25  1  0  0  0  0
  7  8  1  0  0  0  0
  7 12  1  6  0  0  0
  7 26  1  0  0  0  0
  8  9  1  0  0  0  0
  8 27  1  0  0  0  0
  9 28  1  0  0  0  0
  9 29  1  0  0  0  0
 10 11  1  0  0  0  0
 10 30  1  0  0  0  0
 10 31  1  0  0  0  0
 11 13  1  0  0  0  0
 11 33  1  0  0  0  0
 11 34  1  0  0  0  0
 12 35  1  0  0  0  0
 12 36  1  0  0  0  0
 13 14  1  0  0  0  0
 13 37  1  0  0  0  0
 13 38  1  0  0  0  0
 14 15  1  0  0  0  0
 14 39  1  0  0  0  0
 14 40  1  0  0  0  0
 15 16  1  0  0  0  0
 15 42  1  0  0  0  0
 15 43  1  0  0  0  0
 16 17  1  0  0  0  0
 16 44  1  0  0  0  0
 16 45  1  0  0  0  0
 17 18  1  0  0  0  0
 17 46  1  0  0  0  0
 17 47  1  0  0  0  0
 18 19  1  0  0  0  0
 18 49  1  0  0  0  0
 18 50  1  0  0  0  0
 19 20  1  0  0  0  0
 19 51  1  0  0  0  0
 19 52  1  0  0  0  0
 20 21  1  0  0  0  0
 21 22  1  0  0  0  0
 21 53  1  0  0  0  0
 21 54  1  0  0  0  0
 22 55  1  0  0  0  0
 22 56  1  0  0  0  0
 22 57  1  0  0  0  0
M  END
> <PUBCHEM_COMPOUND_CID>
442654

> <PUBCHEM_COMPOUND_CANONICALIZED>
1

> <PUBCHEM_CACTVS_COMPLEXITY>
296

> <PUBCHEM_CACTVS_HBOND_ACCEPTOR>
4

> <PUBCHEM_CACTVS_HBOND_DONOR>
3

> <PUBCHEM_CACTVS_ROTATABLE_BOND>
12

> <PUBCHEM_CACTVS_SUBSKEYS>
AAADcfB6MAAAAAAAAAAAAAAAAAAAAAAAAAAsAAAAAAAAAAAAAAAAHgAQCAAACDzhgAYCAALAAgAIAIAQAAAAAAAAAAAAAIEIAAACEBIAgAAEQAAFEACQAAG4yKCAAAAAAAAAAAAAAAAAAAAAAAAAAAAAAA==

> <PUBCHEM_IUPAC_OPENEYE_NAME>
12-[(2R,5S,6R)-5-hydroxy-6-(hydroxymethyl)-2-piperidyl]dodecan-3-one

> <PUBCHEM_IUPAC_CAS_NAME>
12-[(2R,5S,6R)-5-hydroxy-6-(hydroxymethyl)-2-piperidinyl]-3-dodecanone

> <PUBCHEM_IUPAC_NAME>
12-[(2R,5S,6R)-5-hydroxy-6-(hydroxymethyl)piperidin-2-yl]dodecan-3-one

> <PUBCHEM_IUPAC_SYSTEMATIC_NAME>
12-[(2R,5S,6R)-6-(hydroxymethyl)-5-oxidanyl-piperidin-2-yl]dodecan-3-one

> <PUBCHEM_IUPAC_TRADITIONAL_NAME>
12-[(2R,5S,6R)-5-hydroxy-6-methylol-2-piperidyl]dodecan-3-one

> <PUBCHEM_IUPAC_INCHI>
InChI=1S/C18H35NO3/c1-2-16(21)11-9-7-5-3-4-6-8-10-15-12-13-18(22)17(14-20)19-15/h15,17-20,22H,2-14H2,1H3/t15-,17-,18+/m1/s1

> <PUBCHEM_IUPAC_INCHIKEY>
KYBOBXNXZQTAKA-NXHRZFHOSA-N

> <PUBCHEM_XLOGP3_AA>
3.6

> <PUBCHEM_EXACT_MASS>
313.261694

> <PUBCHEM_MOLECULAR_FORMULA>
C18H35NO3

> <PUBCHEM_MOLECULAR_WEIGHT>
313.4754

> <PUBCHEM_OPENEYE_CAN_SMILES>
CCC(=O)CCCCCCCCCC1CCC(C(N1)CO)O

> <PUBCHEM_OPENEYE_ISO_SMILES>
CCC(=O)CCCCCCCCC[C@@H]1CC[C@@H]([C@H](N1)CO)O

> <PUBCHEM_CACTVS_TPSA>
69.6

> <PUBCHEM_MONOISOTOPIC_WEIGHT>
313.261694

> <PUBCHEM_TOTAL_CHARGE>
0

> <PUBCHEM_HEAVY_ATOM_COUNT>
22

> <PUBCHEM_ATOM_DEF_STEREO_COUNT>
3

> <PUBCHEM_ATOM_UDEF_STEREO_COUNT>
0

> <PUBCHEM_BOND_DEF_STEREO_COUNT>
0

> <PUBCHEM_BOND_UDEF_STEREO_COUNT>
0

> <PUBCHEM_ISOTOPIC_ATOM_COUNT>
0

> <PUBCHEM_COMPONENT_COUNT>
1

> <PUBCHEM_CACTVS_TAUTO_COUNT>
3

> <PUBCHEM_COORDINATE_TYPE>
1
5
255

> <PUBCHEM_BONDANNOTATIONS>
8  1  5
5  10  5
7  12  6

$$$$

