91686
  -OEChem-07051213123D

 54 57  0     1  0  0  0  0  0999 V2000
    5.2499    0.6208    0.8105 Cl  0  0  0  0  0  0  0  0  0  0  0  0
    3.8620    3.1231    1.4483 Cl  0  0  0  0  0  0  0  0  0  0  0  0
    2.6993   -0.8944    0.2019 O   0  0  0  0  0  0  0  0  0  0  0  0
    2.7238   -0.4447   -2.0666 O   0  0  0  0  0  0  0  0  0  0  0  0
   -2.1482    3.8820    0.0720 O   0  0  0  0  0  0  0  0  0  0  0  0
   -2.1055   -1.7223    1.1857 O   0  0  0  0  0  0  0  0  0  0  0  0
    3.7949   -3.6738    1.8295 N   0  0  0  0  0  0  0  0  0  0  0  0
    2.8523    1.3393   -0.5185 C   0  0  2  0  0  0  0  0  0  0  0  0
    4.0261    1.7892    0.3011 C   0  0  0  0  0  0  0  0  0  0  0  0
    3.9582    2.1252   -1.1598 C   0  0  0  0  0  0  0  0  0  0  0  0
    1.5318    2.0115   -0.3617 C   0  0  0  0  0  0  0  0  0  0  0  0
    2.7520   -0.0919   -0.8963 C   0  0  0  0  0  0  0  0  0  0  0  0
    0.9318    2.6325   -1.4572 C   0  0  0  0  0  0  0  0  0  0  0  0
    0.8953    2.0195    0.8795 C   0  0  0  0  0  0  0  0  0  0  0  0
   -0.3045    3.2614   -1.3116 C   0  0  0  0  0  0  0  0  0  0  0  0
   -0.3411    2.6484    1.0252 C   0  0  0  0  0  0  0  0  0  0  0  0
    2.6009   -2.2966   -0.0668 C   0  0  2  0  0  0  0  0  0  0  0  0
   -0.9410    3.2694   -0.0705 C   0  0  0  0  0  0  0  0  0  0  0  0
    1.1434   -2.6711   -0.2032 C   0  0  0  0  0  0  0  0  0  0  0  0
    3.2678   -3.0647    0.9941 C   0  0  0  0  0  0  0  0  0  0  0  0
    0.1799   -2.0149    0.5629 C   0  0  0  0  0  0  0  0  0  0  0  0
    0.7615   -3.6732   -1.0952 C   0  0  0  0  0  0  0  0  0  0  0  0
   -3.0337    3.3506    1.0565 C   0  0  0  0  0  0  0  0  0  0  0  0
   -1.1654   -2.3610    0.4371 C   0  0  0  0  0  0  0  0  0  0  0  0
   -0.5838   -4.0192   -1.2209 C   0  0  0  0  0  0  0  0  0  0  0  0
   -1.5473   -3.3632   -0.4548 C   0  0  0  0  0  0  0  0  0  0  0  0
   -4.4619    3.6030    0.6227 C   0  0  0  0  0  0  0  0  0  0  0  0
   -3.2651   -1.3118    0.5496 C   0  0  0  0  0  0  0  0  0  0  0  0
   -3.1931   -0.6744   -0.6889 C   0  0  0  0  0  0  0  0  0  0  0  0
   -4.5052   -1.5349    1.1480 C   0  0  0  0  0  0  0  0  0  0  0  0
   -4.3610   -0.2599   -1.3292 C   0  0  0  0  0  0  0  0  0  0  0  0
   -5.6731   -1.1207    0.5077 C   0  0  0  0  0  0  0  0  0  0  0  0
   -5.6010   -0.4831   -0.7309 C   0  0  0  0  0  0  0  0  0  0  0  0
    3.7935    3.1605   -1.4397 H   0  0  0  0  0  0  0  0  0  0  0  0
    4.6332    1.6168   -1.8409 H   0  0  0  0  0  0  0  0  0  0  0  0
    1.4106    2.6288   -2.4330 H   0  0  0  0  0  0  0  0  0  0  0  0
    1.3399    1.5261    1.7398 H   0  0  0  0  0  0  0  0  0  0  0  0
   -0.7683    3.7414   -2.1689 H   0  0  0  0  0  0  0  0  0  0  0  0
   -0.7918    2.6504    2.0131 H   0  0  0  0  0  0  0  0  0  0  0  0
    3.1251   -2.5269   -1.0044 H   0  0  0  0  0  0  0  0  0  0  0  0
    0.4590   -1.2407    1.2730 H   0  0  0  0  0  0  0  0  0  0  0  0
    1.5023   -4.1937   -1.6964 H   0  0  0  0  0  0  0  0  0  0  0  0
   -2.9125    2.2661    1.1717 H   0  0  0  0  0  0  0  0  0  0  0  0
   -2.8447    3.8450    2.0157 H   0  0  0  0  0  0  0  0  0  0  0  0
   -0.8804   -4.8034   -1.9114 H   0  0  0  0  0  0  0  0  0  0  0  0
   -2.5849   -3.6701   -0.5565 H   0  0  0  0  0  0  0  0  0  0  0  0
   -5.1697    3.2129    1.3595 H   0  0  0  0  0  0  0  0  0  0  0  0
   -4.6611    3.1282   -0.3439 H   0  0  0  0  0  0  0  0  0  0  0  0
   -4.6419    4.6753    0.4933 H   0  0  0  0  0  0  0  0  0  0  0  0
   -2.2391   -0.4656   -1.1660 H   0  0  0  0  0  0  0  0  0  0  0  0
   -4.5671   -2.0309    2.1126 H   0  0  0  0  0  0  0  0  0  0  0  0
   -4.3045    0.2427   -2.2903 H   0  0  0  0  0  0  0  0  0  0  0  0
   -6.6386   -1.2939    0.9738 H   0  0  0  0  0  0  0  0  0  0  0  0
   -6.5103   -0.1585   -1.2284 H   0  0  0  0  0  0  0  0  0  0  0  0
  1  9  1  0  0  0  0
  2  9  1  0  0  0  0
  3 12  1  0  0  0  0
  3 17  1  0  0  0  0
  4 12  2  0  0  0  0
  5 18  1  0  0  0  0
  5 23  1  0  0  0  0
  6 24  1  0  0  0  0
  6 28  1  0  0  0  0
  7 20  3  0  0  0  0
  8  9  1  0  0  0  0
  8 10  1  0  0  0  0
  8 11  1  0  0  0  0
  8 12  1  0  0  0  0
  9 10  1  0  0  0  0
 10 34  1  0  0  0  0
 10 35  1  0  0  0  0
 11 13  2  0  0  0  0
 11 14  1  0  0  0  0
 13 15  1  0  0  0  0
 13 36  1  0  0  0  0
 14 16  2  0  0  0  0
 14 37  1  0  0  0  0
 15 18  2  0  0  0  0
 15 38  1  0  0  0  0
 16 18  1  0  0  0  0
 16 39  1  0  0  0  0
 17 19  1  0  0  0  0
 17 20  1  0  0  0  0
 17 40  1  0  0  0  0
 19 21  2  0  0  0  0
 19 22  1  0  0  0  0
 21 24  1  0  0  0  0
 21 41  1  0  0  0  0
 22 25  2  0  0  0  0
 22 42  1  0  0  0  0
 23 27  1  0  0  0  0
 23 43  1  0  0  0  0
 23 44  1  0  0  0  0
 24 26  2  0  0  0  0
 25 26  1  0  0  0  0
 25 45  1  0  0  0  0
 26 46  1  0  0  0  0
 27 47  1  0  0  0  0
 27 48  1  0  0  0  0
 27 49  1  0  0  0  0
 28 29  2  0  0  0  0
 28 30  1  0  0  0  0
 29 31  1  0  0  0  0
 29 50  1  0  0  0  0
 30 32  2  0  0  0  0
 30 51  1  0  0  0  0
 31 33  2  0  0  0  0
 31 52  1  0  0  0  0
 32 33  1  0  0  0  0
 32 53  1  0  0  0  0
 33 54  1  0  0  0  0
M  END
> <PUBCHEM_COMPOUND_CID>
91686

> <PUBCHEM_CONFORMER_RMSD>
1.2

> <PUBCHEM_CONFORMER_DIVERSEORDER>
1
439
526
722
51
187
409
18
346
593
75
14
199
508
277
21
91
340
531
39
297
415
11
577
47
353
587
341
381
752
399
430
266
751
99
469
438
244
138
274
475
37
55
64
494
8
132
157
276
222
164
250
459
2
460
712
410
701
654
361
240
236
104
527
5
29
680
134
400
631
419
584
640
128
320
702
330
87
201
156
223
474
34
144
261
158
574
52
33
517
258
428
111
515
462
170
66
435
545
684
302
628
291
486
389
131
77
749
70
256
69
627
136
7
243
17
102
192
705
153
58
86
488
378
402
349
252
200
88
238
73
19
185
746
676
110
573
632
698
356
32
394
95
755
76
432
9
3
166
401
729
141
13
191
578
125
146
273
343
50
687
78
384
118
38
54
31
59
646
552
757
542
6
23
433
314
106
271
174
43
84
212
224
313
206
27
392
269
25
161
463
108
96
165
579
36
736
204
90
20
182
336
16
12
127
83
74
60
101
246
388
148
24
67

> <PUBCHEM_MMFF94_PARTIAL_CHARGES>
47
1 -0.23
10 -0.2
11 -0.03
12 0.72
13 -0.15
14 -0.15
15 -0.15
16 -0.15
17 0.62
18 0.08
19 -0.14
2 -0.23
20 0.36
21 -0.15
22 -0.15
23 0.28
24 0.08
25 -0.15
26 -0.15
28 0.08
29 -0.15
3 -0.43
30 -0.15
31 -0.15
32 -0.15
33 -0.15
34 0.1
35 0.1
36 0.15
37 0.15
38 0.15
39 0.15
4 -0.57
41 0.15
42 0.15
45 0.15
46 0.15
5 -0.36
50 0.15
51 0.15
52 0.15
53 0.15
54 0.15
6 -0.17
7 -0.56
8 0.03
9 0.45

> <PUBCHEM_EFFECTIVE_ROTOR_COUNT>
9.6

> <PUBCHEM_PHARMACOPHORE_FEATURES>
7
1 4 acceptor
1 5 acceptor
1 6 acceptor
1 7 acceptor
6 11 13 14 15 16 18 rings
6 19 21 22 24 25 26 rings
6 28 29 30 31 32 33 rings

> <PUBCHEM_HEAVY_ATOM_COUNT>
33

> <PUBCHEM_ATOM_DEF_STEREO_COUNT>
0

> <PUBCHEM_ATOM_UDEF_STEREO_COUNT>
2

> <PUBCHEM_BOND_DEF_STEREO_COUNT>
0

> <PUBCHEM_BOND_UDEF_STEREO_COUNT>
0

> <PUBCHEM_ISOTOPIC_ATOM_COUNT>
0

> <PUBCHEM_COMPONENT_COUNT>
1

> <PUBCHEM_CACTVS_TAUTO_COUNT>
1

> <PUBCHEM_CONFORMER_ID>
0001662600000001

> <PUBCHEM_MMFF94_ENERGY>
96.7811

> <PUBCHEM_FEATURE_SELFOVERLAP>
35.52

> <PUBCHEM_SHAPE_FINGERPRINT>
10190206 1 18127946725520460692
10439779 11 18409740542526879792
10675989 125 18268420235984684117
11513181 2 18114741654483536079
12422481 6 18268431424025740272
12788726 201 18338221661900197616
13122387 1 18410848846163421159
13140716 1 17979354153363990000
13402501 40 18342460283920388773
14466204 15 17979929215584186898
14725015 67 18056210291430023899
15351339 4 18340217379628019617
16067690 210 15052020070068959629
17093844 170 18338802199929098056
19311894 1 18047466721763625014
20764821 26 18266454485266345513
21133410 38 18114738369724941641
22113638 7 18121779426696886773
3027735 51 18335130999776942753
3298306 158 18198624337544043351
338550 245 18125432266407385181
373842 8 18342745121466375090
463206 1 18047191843834821791
513532 50 18187072932401151894
5171179 24 18115296921130718238
5265222 85 17769080251481956412
6004065 56 17900553276752814877
653340 110 18408045134325622192

> <PUBCHEM_SHAPE_MULTIPOLES>
654.41
10.16
6.58
1.5
6.13
0
0.14
1.47
-1.72
-0.03
-0.53
-0.53
-0.04
-0.95

> <PUBCHEM_SHAPE_SELFOVERLAP>
1399.57

> <PUBCHEM_SHAPE_VOLUME>
361

> <PUBCHEM_COORDINATE_TYPE>
2
5
10

$$$$

