43359
  -OEChem-07051213133D

 39 40  0     0  0  0  0  0  0999 V2000
    0.0963   -1.9618   -0.1546 O   0  0  0  0  0  0  0  0  0  0  0  0
    0.3419    1.5810    0.3687 O   0  0  0  0  0  0  0  0  0  0  0  0
   -3.7403    0.7858   -0.1401 O   0  0  0  0  0  0  0  0  0  0  0  0
    0.6310   -0.6709    0.0299 N   0  0  0  0  0  0  0  0  0  0  0  0
    2.0738   -0.6564    0.0116 C   0  0  0  0  0  0  0  0  0  0  0  0
    2.5925    0.2025   -1.1448 C   0  0  0  0  0  0  0  0  0  0  0  0
    2.6225   -0.1712    1.3556 C   0  0  0  0  0  0  0  0  0  0  0  0
    4.1172    0.2758   -1.1504 C   0  0  0  0  0  0  0  0  0  0  0  0
    4.1471   -0.0957    1.3467 C   0  0  0  0  0  0  0  0  0  0  0  0
    4.6620    0.7577    0.1912 C   0  0  0  0  0  0  0  0  0  0  0  0
   -0.1448    0.4617    0.2092 C   0  0  0  0  0  0  0  0  0  0  0  0
   -1.5985    0.2997    0.1776 C   0  0  0  0  0  0  0  0  0  0  0  0
   -2.4692    1.2559   -0.2376 C   0  0  0  0  0  0  0  0  0  0  0  0
   -2.3356   -0.8249    0.5556 C   0  0  0  0  0  0  0  0  0  0  0  0
   -0.0991   -2.1900   -1.5472 C   0  0  0  0  0  0  0  0  0  0  0  0
   -3.6504   -0.4811    0.3434 C   0  0  0  0  0  0  0  0  0  0  0  0
   -2.3268    2.6288   -0.7466 C   0  0  0  0  0  0  0  0  0  0  0  0
   -4.9197   -1.1970    0.5319 C   0  0  0  0  0  0  0  0  0  0  0  0
    2.4253   -1.6859   -0.1420 H   0  0  0  0  0  0  0  0  0  0  0  0
    2.2054    1.2258   -1.0966 H   0  0  0  0  0  0  0  0  0  0  0  0
    2.2469   -0.2078   -2.1013 H   0  0  0  0  0  0  0  0  0  0  0  0
    2.2968   -0.8478    2.1555 H   0  0  0  0  0  0  0  0  0  0  0  0
    2.2372    0.8194    1.6197 H   0  0  0  0  0  0  0  0  0  0  0  0
    4.4518    0.9489   -1.9478 H   0  0  0  0  0  0  0  0  0  0  0  0
    4.5289   -0.7156   -1.3764 H   0  0  0  0  0  0  0  0  0  0  0  0
    4.5613   -1.1082    1.2647 H   0  0  0  0  0  0  0  0  0  0  0  0
    4.5021    0.3174    2.2976 H   0  0  0  0  0  0  0  0  0  0  0  0
    5.7574    0.7338    0.1745 H   0  0  0  0  0  0  0  0  0  0  0  0
    4.3671    1.8023    0.3502 H   0  0  0  0  0  0  0  0  0  0  0  0
   -2.0069   -1.7678    0.9670 H   0  0  0  0  0  0  0  0  0  0  0  0
   -0.6971   -3.0983   -1.6607 H   0  0  0  0  0  0  0  0  0  0  0  0
    0.8636   -2.3502   -2.0419 H   0  0  0  0  0  0  0  0  0  0  0  0
   -0.6323   -1.3639   -2.0280 H   0  0  0  0  0  0  0  0  0  0  0  0
   -3.2684    3.0004   -1.1633 H   0  0  0  0  0  0  0  0  0  0  0  0
   -2.0234    3.3059    0.0578 H   0  0  0  0  0  0  0  0  0  0  0  0
   -1.5722    2.6730   -1.5382 H   0  0  0  0  0  0  0  0  0  0  0  0
   -5.5601   -0.6639    1.2413 H   0  0  0  0  0  0  0  0  0  0  0  0
   -5.4563   -1.2848   -0.4179 H   0  0  0  0  0  0  0  0  0  0  0  0
   -4.7505   -2.2062    0.9200 H   0  0  0  0  0  0  0  0  0  0  0  0
  1  4  1  0  0  0  0
  1 15  1  0  0  0  0
  2 11  2  0  0  0  0
  3 13  1  0  0  0  0
  3 16  1  0  0  0  0
  4  5  1  0  0  0  0
  4 11  1  0  0  0  0
  5  6  1  0  0  0  0
  5  7  1  0  0  0  0
  5 19  1  0  0  0  0
  6  8  1  0  0  0  0
  6 20  1  0  0  0  0
  6 21  1  0  0  0  0
  7  9  1  0  0  0  0
  7 22  1  0  0  0  0
  7 23  1  0  0  0  0
  8 10  1  0  0  0  0
  8 24  1  0  0  0  0
  8 25  1  0  0  0  0
  9 10  1  0  0  0  0
  9 26  1  0  0  0  0
  9 27  1  0  0  0  0
 10 28  1  0  0  0  0
 10 29  1  0  0  0  0
 11 12  1  0  0  0  0
 12 13  2  0  0  0  0
 12 14  1  0  0  0  0
 13 17  1  0  0  0  0
 14 16  2  0  0  0  0
 14 30  1  0  0  0  0
 15 31  1  0  0  0  0
 15 32  1  0  0  0  0
 15 33  1  0  0  0  0
 16 18  1  0  0  0  0
 17 34  1  0  0  0  0
 17 35  1  0  0  0  0
 17 36  1  0  0  0  0
 18 37  1  0  0  0  0
 18 38  1  0  0  0  0
 18 39  1  0  0  0  0
M  END
> <PUBCHEM_COMPOUND_CID>
43359

> <PUBCHEM_CONFORMER_RMSD>
0.8

> <PUBCHEM_CONFORMER_DIVERSEORDER>
1
8
16
11
17
33
24
22
30
9
31
28
40
2
37
21
41
26
4
13
14
5
12
44
7
23
29
6
43
27
18
25
36
32
42
20
15
34
3
10
35
19
38
39

> <PUBCHEM_MMFF94_PARTIAL_CHARGES>
14
1 -0.32
11 0.72
12 -0.09
13 -0.04
14 -0.15
15 0.28
16 -0.04
17 0.18
18 0.18
2 -0.57
3 -0.28
30 0.15
4 -0.32
5 0.3

> <PUBCHEM_EFFECTIVE_ROTOR_COUNT>
5.2

> <PUBCHEM_PHARMACOPHORE_FEATURES>
4
1 2 acceptor
1 3 acceptor
5 3 12 13 14 16 rings
6 5 6 7 8 9 10 rings

> <PUBCHEM_HEAVY_ATOM_COUNT>
18

> <PUBCHEM_ATOM_DEF_STEREO_COUNT>
0

> <PUBCHEM_ATOM_UDEF_STEREO_COUNT>
0

> <PUBCHEM_BOND_DEF_STEREO_COUNT>
0

> <PUBCHEM_BOND_UDEF_STEREO_COUNT>
0

> <PUBCHEM_ISOTOPIC_ATOM_COUNT>
0

> <PUBCHEM_COMPONENT_COUNT>
1

> <PUBCHEM_CACTVS_TAUTO_COUNT>
1

> <PUBCHEM_CONFORMER_ID>
0000A95F00000001

> <PUBCHEM_MMFF94_ENERGY>
28.5901

> <PUBCHEM_FEATURE_SELFOVERLAP>
20.297

> <PUBCHEM_SHAPE_FINGERPRINT>
10906281 52 18270664442775594921
11132069 177 18260265222560029287
12107183 9 17125662904648562816
12236239 1 17846499232047067864
12403259 415 18114181956168230792
12670546 56 17346605179198521484
13140716 1 18120374259574314339
13538477 17 18059574620938367458
13583140 156 17916609586285936412
14178342 30 18191299575473340761
14251739 40 16845576434993010050
14289901 80 17917429868967443248
15099037 37 18342459253170403067
15309172 13 18113618984360177787
15375462 478 17988925560976451678
16945 1 18413389821825020931
17492 89 18059016210364900283
18186145 218 17168147853509428722
19026448 5 17274822480020501536
200 152 17131837542864277755
20261772 1 18261674770565295383
20510252 161 18408601495777885121
20645477 56 18041286465734830352
20645477 70 14333421051216606280
21065198 48 17704077321716073928
22079108 93 16805608023498199435
23048698 100 16558750105072261160
23227448 37 18118969092399059084
23402539 116 18060144228254309551
23419403 2 15814030293543020186
23557571 272 18339626949893213045
23559900 14 18052263083209209930
265663 24 17632859719980345866
2748010 2 18119522387197173823
3286 77 16200437961746795198
465052 167 18270672057457601643
474 4 16700881680099495940
5104073 3 18340204210371560625
573450 72 17845945116150681080
633830 44 16805320028449585288
69090 78 17748829583601976606
81228 2 17608958394260940638
9925002 15 17975699385529973181

> <PUBCHEM_SHAPE_MULTIPOLES>
347.84
8.95
1.92
1.2
1.09
0.36
-0.11
0.35
1.42
-1.64
-0.67
1.01
-0.27
0.4

> <PUBCHEM_SHAPE_SELFOVERLAP>
720.519

> <PUBCHEM_SHAPE_VOLUME>
199.4

> <PUBCHEM_COORDINATE_TYPE>
2
5
10

$$$$

