6624
  -OEChem-07051213133D

 29 30  0     0  0  0  0  0  0999 V2000
    5.0011   -1.9104   -0.1354 Cl  0  0  0  0  0  0  0  0  0  0  0  0
   -4.9871   -1.9211    0.0902 Cl  0  0  0  0  0  0  0  0  0  0  0  0
   -0.0565    2.2375    1.2099 O   0  0  0  0  0  0  0  0  0  0  0  0
    0.0043    1.4117    0.0131 C   0  0  0  0  0  0  0  0  0  0  0  0
    1.2464    0.5868   -0.0244 C   0  0  0  0  0  0  0  0  0  0  0  0
   -1.2835    0.5528    0.0336 C   0  0  0  0  0  0  0  0  0  0  0  0
    0.0185    2.4681   -1.1295 C   0  0  0  0  0  0  0  0  0  0  0  0
    1.4690   -0.2908   -1.0853 C   0  0  0  0  0  0  0  0  0  0  0  0
   -1.4577   -0.3164    1.0746 C   0  0  0  0  0  0  0  0  0  0  0  0
    2.1849    0.6924    1.0022 C   0  0  0  0  0  0  0  0  0  0  0  0
   -2.1752    0.7102   -0.9913 C   0  0  0  0  0  0  0  0  0  0  0  0
    2.6302   -1.0630   -1.1197 C   0  0  0  0  0  0  0  0  0  0  0  0
   -2.6176   -1.0911    1.0924 C   0  0  0  0  0  0  0  0  0  0  0  0
    3.3461   -0.0797    0.9678 C   0  0  0  0  0  0  0  0  0  0  0  0
   -3.3352   -0.0644   -0.9735 C   0  0  0  0  0  0  0  0  0  0  0  0
    3.5688   -0.9574   -0.0933 C   0  0  0  0  0  0  0  0  0  0  0  0
   -3.5564   -0.9651    0.0685 C   0  0  0  0  0  0  0  0  0  0  0  0
   -0.8361    3.1528   -1.0641 H   0  0  0  0  0  0  0  0  0  0  0  0
    0.0462    2.0191   -2.1284 H   0  0  0  0  0  0  0  0  0  0  0  0
    0.9106    3.1024   -1.0403 H   0  0  0  0  0  0  0  0  0  0  0  0
    0.7517   -0.3876   -1.8959 H   0  0  0  0  0  0  0  0  0  0  0  0
   -0.7363   -0.4184    1.8785 H   0  0  0  0  0  0  0  0  0  0  0  0
    2.0483    1.3640    1.8444 H   0  0  0  0  0  0  0  0  0  0  0  0
   -2.0502    1.3869   -1.8262 H   0  0  0  0  0  0  0  0  0  0  0  0
   -0.9577    2.5950    1.2900 H   0  0  0  0  0  0  0  0  0  0  0  0
    2.7905   -1.7426   -1.9528 H   0  0  0  0  0  0  0  0  0  0  0  0
   -2.7771   -1.7881    1.9112 H   0  0  0  0  0  0  0  0  0  0  0  0
    4.0689    0.0127    1.7744 H   0  0  0  0  0  0  0  0  0  0  0  0
   -4.0577    0.0424   -1.7788 H   0  0  0  0  0  0  0  0  0  0  0  0
  1 16  1  0  0  0  0
  2 17  1  0  0  0  0
  3  4  1  0  0  0  0
  3 25  1  0  0  0  0
  4  5  1  0  0  0  0
  4  6  1  0  0  0  0
  4  7  1  0  0  0  0
  5  8  2  0  0  0  0
  5 10  1  0  0  0  0
  6  9  2  0  0  0  0
  6 11  1  0  0  0  0
  7 18  1  0  0  0  0
  7 19  1  0  0  0  0
  7 20  1  0  0  0  0
  8 12  1  0  0  0  0
  8 21  1  0  0  0  0
  9 13  1  0  0  0  0
  9 22  1  0  0  0  0
 10 14  2  0  0  0  0
 10 23  1  0  0  0  0
 11 15  2  0  0  0  0
 11 24  1  0  0  0  0
 12 16  2  0  0  0  0
 12 26  1  0  0  0  0
 13 17  2  0  0  0  0
 13 27  1  0  0  0  0
 14 16  1  0  0  0  0
 14 28  1  0  0  0  0
 15 17  1  0  0  0  0
 15 29  1  0  0  0  0
M  END
> <PUBCHEM_COMPOUND_CID>
6624

> <PUBCHEM_CONFORMER_RMSD>
0.6

> <PUBCHEM_CONFORMER_DIVERSEORDER>
1
4
3
2

> <PUBCHEM_MMFF94_PARTIAL_CHARGES>
25
1 -0.18
10 -0.15
11 -0.15
12 -0.15
13 -0.15
14 -0.15
15 -0.15
16 0.18
17 0.18
2 -0.18
21 0.15
22 0.15
23 0.15
24 0.15
25 0.4
26 0.15
27 0.15
28 0.15
29 0.15
3 -0.68
4 0.57
5 -0.14
6 -0.14
8 -0.15
9 -0.15

> <PUBCHEM_EFFECTIVE_ROTOR_COUNT>
2

> <PUBCHEM_PHARMACOPHORE_FEATURES>
4
1 3 acceptor
1 3 donor
6 5 8 10 12 14 16 rings
6 6 9 11 13 15 17 rings

> <PUBCHEM_HEAVY_ATOM_COUNT>
17

> <PUBCHEM_ATOM_DEF_STEREO_COUNT>
0

> <PUBCHEM_ATOM_UDEF_STEREO_COUNT>
0

> <PUBCHEM_BOND_DEF_STEREO_COUNT>
0

> <PUBCHEM_BOND_UDEF_STEREO_COUNT>
0

> <PUBCHEM_ISOTOPIC_ATOM_COUNT>
0

> <PUBCHEM_COMPONENT_COUNT>
1

> <PUBCHEM_CACTVS_TAUTO_COUNT>
1

> <PUBCHEM_CONFORMER_ID>
000019E000000001

> <PUBCHEM_MMFF94_ENERGY>
54.4991

> <PUBCHEM_FEATURE_SELFOVERLAP>
20.297

> <PUBCHEM_SHAPE_FINGERPRINT>
10465860 71 17561081410290693788
10618630 7 18408318904146275582
11046707 91 18337952393568143190
11471102 22 17748830730568935592
11543360 7 16486966285113758614
12032990 46 18410857659156744079
12251169 10 15646771193124513175
12363563 72 18412820287417793903
12507560 40 14490740325648310058
12633257 1 15574717971405964787
12892183 10 15574984117612663063
13296908 3 18410578383197988228
13544653 18 18333455339185984820
13693222 15 17822016436369077076
14115302 16 17060339578728041723
14252887 29 18336549317677600920
14341114 328 15068624842277897459
15422964 175 18259976102488797599
15775835 57 9367347015728632449
15848700 24 18341334413698664731
16752209 62 17489599965078505291
16945 1 17916873541827523453
1813 80 18335686252679295980
18186145 218 11743841399675005832
19050596 39 15574719075186062679
19141452 34 18334576794582781183
193927 3 18410282614570532254
19784866 240 18408878517337759087
19862831 5 15985101907559833474
200 152 18260271870958270470
20281475 54 18410285917405306836
20361792 2 18341607105535814021
20374829 77 18342742948191843395
20645476 183 15769774650109512075
20645477 70 18056200172708516643
20671657 53 18201432571355132180
20871998 22 18410575054672498689
20871999 31 17632574963469311927
21296965 67 18411139121486105129
21731228 192 6266897956890856476
231179 274 9727640505019949334
23402539 116 18342460390978150958
23402655 69 13470692554874525262
23403322 49 18342176712673018546
23526113 38 18129942265335294273
23557571 272 17917440795528300572
23559900 14 18201166541792759800
25 1 11600008764649542684
26918003 58 17749110002153875747
27216 239 8141785197533278975
276578 36 6988327118530686228
2916195 48 10159685881409845982
3060560 45 12463308972182872337
3082319 5 15770057228634211374
31174 14 17822302262348327048
3286 77 17822012012579266298
4028521 119 11743838066564444311
463206 1 18273217469578215227
5104073 3 18041285482198103674
7364860 26 18054787278306990325
76465 3 18410859862480722390
7808743 9 7853273355280017410
81228 2 18267578207292862577
83771 10 18408600361784926455
90316 7 15068617201921182787
9709674 26 18057322778259398859

> <PUBCHEM_SHAPE_MULTIPOLES>
347.72
8.48
2.13
1.27
0.1
0.65
0.04
-7.72
-0.36
-0.1
-0.13
0.09
0.2
0.73

> <PUBCHEM_SHAPE_SELFOVERLAP>
732.063

> <PUBCHEM_SHAPE_VOLUME>
199.1

> <PUBCHEM_COORDINATE_TYPE>
2
5
10

$$$$

