47205523
  -OEChem-06241222592D

 29 30  0     0  0  0  0  0  0999 V2000
    4.3763    2.9862    0.0000 S   0  0  0  0  0  0  0  0  0  0  0  0
    4.6551    1.2262    0.0000 O   0  0  0  0  0  0  0  0  0  0  0  0
    5.1853    3.5740    0.0000 O   0  0  0  0  0  0  0  0  0  0  0  0
    3.5673    2.3984    0.0000 O   0  0  0  0  0  0  0  0  0  0  0  0
    6.3301   -0.8616    0.0000 O   0  0  0  0  0  0  0  0  0  0  0  0
    4.5981   -0.8616    0.0000 N   0  0  0  0  0  0  0  0  0  0  0  0
    3.7885    3.7952    0.0000 N   0  0  0  0  0  0  0  0  0  0  0  0
    2.0000   -4.3616    0.0000 N   0  0  0  0  0  0  0  0  0  0  0  0
    4.9641    2.1772    0.0000 C   0  0  0  0  0  0  0  0  0  0  0  0
    5.4641    0.6384    0.0000 C   0  0  0  0  0  0  0  0  0  0  0  0
    5.9641    2.1772    0.0000 C   0  0  0  0  0  0  0  0  0  0  0  0
    6.2731    1.2262    0.0000 C   0  0  0  0  0  0  0  0  0  0  0  0
    5.4641   -0.3616    0.0000 C   0  0  0  0  0  0  0  0  0  0  0  0
    4.5981   -1.8616    0.0000 C   0  0  0  0  0  0  0  0  0  0  0  0
    3.7320   -2.3616    0.0000 C   0  0  0  0  0  0  0  0  0  0  0  0
    5.4641   -2.3616    0.0000 C   0  0  0  0  0  0  0  0  0  0  0  0
    3.7320   -3.3616    0.0000 C   0  0  0  0  0  0  0  0  0  0  0  0
    5.4641   -3.3616    0.0000 C   0  0  0  0  0  0  0  0  0  0  0  0
    4.5981   -3.8616    0.0000 C   0  0  0  0  0  0  0  0  0  0  0  0
    2.8660   -3.8616    0.0000 C   0  0  0  0  0  0  0  0  0  0  0  0
    6.3285    2.6788    0.0000 H   0  0  0  0  0  0  0  0  0  0  0  0
    6.8628    1.0346    0.0000 H   0  0  0  0  0  0  0  0  0  0  0  0
    4.0611   -0.5516    0.0000 H   0  0  0  0  0  0  0  0  0  0  0  0
    3.1951   -2.0516    0.0000 H   0  0  0  0  0  0  0  0  0  0  0  0
    6.0010   -2.0516    0.0000 H   0  0  0  0  0  0  0  0  0  0  0  0
    6.0010   -3.6716    0.0000 H   0  0  0  0  0  0  0  0  0  0  0  0
    4.5981   -4.4816    0.0000 H   0  0  0  0  0  0  0  0  0  0  0  0
    4.0407    4.3616    0.0000 H   0  0  0  0  0  0  0  0  0  0  0  0
    3.1719    3.7304    0.0000 H   0  0  0  0  0  0  0  0  0  0  0  0
  1  3  2  0  0  0  0
  1  4  2  0  0  0  0
  1  7  1  0  0  0  0
  1  9  1  0  0  0  0
  2  9  1  0  0  0  0
  2 10  1  0  0  0  0
  5 13  2  0  0  0  0
  6 13  1  0  0  0  0
  6 14  1  0  0  0  0
  6 23  1  0  0  0  0
  7 28  1  0  0  0  0
  7 29  1  0  0  0  0
  8 20  3  0  0  0  0
  9 11  2  0  0  0  0
 10 12  2  0  0  0  0
 10 13  1  0  0  0  0
 11 12  1  0  0  0  0
 11 21  1  0  0  0  0
 12 22  1  0  0  0  0
 14 15  1  0  0  0  0
 14 16  2  0  0  0  0
 15 17  2  0  0  0  0
 15 24  1  0  0  0  0
 16 18  1  0  0  0  0
 16 25  1  0  0  0  0
 17 19  1  0  0  0  0
 17 20  1  0  0  0  0
 18 19  2  0  0  0  0
 18 26  1  0  0  0  0
 19 27  1  0  0  0  0
M  END
> <PUBCHEM_COMPOUND_CID>
47205523

> <PUBCHEM_COMPOUND_CANONICALIZED>
1

> <PUBCHEM_CACTVS_COMPLEXITY>
519

> <PUBCHEM_CACTVS_HBOND_ACCEPTOR>
6

> <PUBCHEM_CACTVS_HBOND_DONOR>
2

> <PUBCHEM_CACTVS_ROTATABLE_BOND>
3

> <PUBCHEM_CACTVS_SUBSKEYS>
AAADccBzOABAAAAAAAAAAAAAAAAAASAAAAAwAAAAAAAAAAABwAAAHgQQQAAADAyB2AAwxYLABEKYBqVSUHLiCBAlIgAIiBnGbMgOpjLEtb+HOSjk1BHY6Y+YlwIOAAAAQAAAAAAAAACAAAAAAAAAAAAAAA==

> <PUBCHEM_IUPAC_OPENEYE_NAME>
N-(3-cyanophenyl)-5-sulfamoyl-furan-2-carboxamide

> <PUBCHEM_IUPAC_CAS_NAME>
N-(3-cyanophenyl)-5-sulfamoyl-2-furancarboxamide

> <PUBCHEM_IUPAC_NAME>
N-(3-cyanophenyl)-5-sulfamoylfuran-2-carboxamide

> <PUBCHEM_IUPAC_SYSTEMATIC_NAME>
N-(3-cyanophenyl)-5-sulfamoyl-furan-2-carboxamide

> <PUBCHEM_IUPAC_TRADITIONAL_NAME>
N-(3-cyanophenyl)-5-sulfamoyl-2-furamide

> <PUBCHEM_IUPAC_INCHI>
InChI=1S/C12H9N3O4S/c13-7-8-2-1-3-9(6-8)15-12(16)10-4-5-11(19-10)20(14,17)18/h1-6H,(H,15,16)(H2,14,17,18)

> <PUBCHEM_IUPAC_INCHIKEY>
VBIOOOXGXYLBRQ-UHFFFAOYSA-N

> <PUBCHEM_XLOGP3_AA>
0.8

> <PUBCHEM_EXACT_MASS>
291.031377

> <PUBCHEM_MOLECULAR_FORMULA>
C12H9N3O4S

> <PUBCHEM_MOLECULAR_WEIGHT>
291.28256

> <PUBCHEM_OPENEYE_CAN_SMILES>
C1=CC(=CC(=C1)NC(=O)C2=CC=C(O2)S(=O)(=O)N)C#N

> <PUBCHEM_OPENEYE_ISO_SMILES>
C1=CC(=CC(=C1)NC(=O)C2=CC=C(O2)S(=O)(=O)N)C#N

> <PUBCHEM_CACTVS_TPSA>
135

> <PUBCHEM_MONOISOTOPIC_WEIGHT>
291.031377

> <PUBCHEM_TOTAL_CHARGE>
0

> <PUBCHEM_HEAVY_ATOM_COUNT>
20

> <PUBCHEM_ATOM_DEF_STEREO_COUNT>
0

> <PUBCHEM_ATOM_UDEF_STEREO_COUNT>
0

> <PUBCHEM_BOND_DEF_STEREO_COUNT>
0

> <PUBCHEM_BOND_UDEF_STEREO_COUNT>
0

> <PUBCHEM_ISOTOPIC_ATOM_COUNT>
0

> <PUBCHEM_COMPONENT_COUNT>
1

> <PUBCHEM_CACTVS_TAUTO_COUNT>
2

> <PUBCHEM_COORDINATE_TYPE>
1
5
255

> <PUBCHEM_BONDANNOTATIONS>
10  12  8
11  12  8
14  15  8
14  16  8
15  17  8
16  18  8
17  19  8
18  19  8
2  10  8
2  9  8
9  11  8

$$$$

