441851
  -OEChem-07051212562D

 87 93  0     1  0  0  0  0  0999 V2000
    4.6526    1.5000    0.0000 O   0  0  0  0  0  0  0  0  0  0  0  0
    8.1172    1.5000    0.0000 O   0  0  0  0  0  0  0  0  0  0  0  0
    6.3320   -3.6968    0.0000 O   0  0  0  0  0  0  0  0  0  0  0  0
    4.6371   -0.5282    0.0000 O   0  0  0  0  0  0  0  0  0  0  0  0
    4.5267    5.0275    0.0000 O   0  0  0  0  0  0  0  0  0  0  0  0
    5.4602   -5.1934    0.0000 O   0  0  0  0  0  0  0  0  0  0  0  0
    5.1682    6.6901    0.0000 O   0  0  0  0  0  0  0  0  0  0  0  0
    4.6038   -2.6901    0.0000 O   0  0  0  0  0  0  0  0  0  0  0  0
    2.8680   -3.6834    0.0000 O   0  0  0  0  0  0  0  0  0  0  0  0
    2.8602   -5.6834    0.0000 O   0  0  0  0  0  0  0  0  0  0  0  0
    3.7436   -1.1868    0.0000 O   0  0  0  0  0  0  0  0  0  0  0  0
    6.3852    2.5000    0.0000 C   0  0  2  0  0  0  0  0  0  0  0  0
    6.3852    0.5000    0.0000 C   0  0  2  0  0  0  0  0  0  0  0  0
    7.2512    2.0000    0.0000 C   0  0  2  0  0  0  0  0  0  0  0  0
    5.5191    2.0000    0.0000 C   0  0  2  0  0  0  0  0  0  0  0  0
    7.2512    1.0000    0.0000 C   0  0  2  0  0  0  0  0  0  0  0  0
    5.5191    1.0000    0.0000 C   0  0  1  0  0  0  0  0  0  0  0  0
    6.3691   -0.5416    0.0000 C   0  0  2  0  0  0  0  0  0  0  0  0
    6.5944    3.4718    0.0000 C   0  0  2  0  0  0  0  0  0  0  0  0
    7.9882    2.6670    0.0000 C   0  0  0  0  0  0  0  0  0  0  0  0
    7.2672   -1.0693    0.0000 C   0  0  2  0  0  0  0  0  0  0  0  0
    8.1612    0.4931    0.0000 C   0  0  0  0  0  0  0  0  0  0  0  0
    7.5831    3.5748    0.0000 C   0  0  0  0  0  0  0  0  0  0  0  0
    8.1692   -0.5485    0.0000 C   0  0  0  0  0  0  0  0  0  0  0  0
    5.5191    3.0000    0.0000 C   0  0  0  0  0  0  0  0  0  0  0  0
    5.4172   -1.0622    0.0000 C   0  0  0  0  0  0  0  0  0  0  0  0
    7.2755   -2.1543    0.0000 C   0  0  0  0  0  0  0  0  0  0  0  0
    5.9265    4.2161    0.0000 C   0  0  0  0  0  0  0  0  0  0  0  0
    5.5070   -0.0349    0.0000 C   0  0  0  0  0  0  0  0  0  0  0  0
    5.4004   -2.1470    0.0000 C   0  0  0  0  0  0  0  0  0  0  0  0
    6.3359   -2.6968    0.0000 C   0  0  2  0  0  0  0  0  0  0  0  0
    4.9318    4.1133    0.0000 C   0  0  0  0  0  0  0  0  0  0  0  0
    6.1361    5.1939    0.0000 C   0  0  0  0  0  0  0  0  0  0  0  0
    5.2710    5.6954    0.0000 C   0  0  0  0  0  0  0  0  0  0  0  0
    5.4641   -4.1934    0.0000 C   0  0  2  0  0  0  0  0  0  0  0  0
    4.6000   -3.6901    0.0000 C   0  0  2  0  0  0  0  0  0  0  0  0
    3.7320   -4.1867    0.0000 C   0  0  1  0  0  0  0  0  0  0  0  0
    4.5923   -5.6901    0.0000 C   0  0  2  0  0  0  0  0  0  0  0  0
    3.7282   -5.1867    0.0000 C   0  0  2  0  0  0  0  0  0  0  0  0
    4.5884   -6.6901    0.0000 C   0  0  0  0  0  0  0  0  0  0  0  0
    3.7398   -2.1868    0.0000 C   0  0  0  0  0  0  0  0  0  0  0  0
    2.0000   -4.1801    0.0000 C   0  0  0  0  0  0  0  0  0  0  0  0
    2.8718   -2.6834    0.0000 C   0  0  0  0  0  0  0  0  0  0  0  0
    5.6458    0.0806    0.0000 H   0  0  0  0  0  0  0  0  0  0  0  0
    5.2092    2.5369    0.0000 H   0  0  0  0  0  0  0  0  0  0  0  0
    7.9840    1.4306    0.0000 H   0  0  0  0  0  0  0  0  0  0  0  0
    5.2092    0.4630    0.0000 H   0  0  0  0  0  0  0  0  0  0  0  0
    6.8173    4.0503    0.0000 H   0  0  0  0  0  0  0  0  0  0  0  0
    8.3536    2.1662    0.0000 H   0  0  0  0  0  0  0  0  0  0  0  0
    8.5247    2.9778    0.0000 H   0  0  0  0  0  0  0  0  0  0  0  0
    8.0049   -1.4915    0.0000 H   0  0  0  0  0  0  0  0  0  0  0  0
    8.7728    0.3917    0.0000 H   0  0  0  0  0  0  0  0  0  0  0  0
    8.3657    1.0784    0.0000 H   0  0  0  0  0  0  0  0  0  0  0  0
    8.1727    3.7666    0.0000 H   0  0  0  0  0  0  0  0  0  0  0  0
    7.4544    4.1813    0.0000 H   0  0  0  0  0  0  0  0  0  0  0  0
    8.3828   -1.1306    0.0000 H   0  0  0  0  0  0  0  0  0  0  0  0
    8.7792   -0.4377    0.0000 H   0  0  0  0  0  0  0  0  0  0  0  0
    5.8291    3.5369    0.0000 H   0  0  0  0  0  0  0  0  0  0  0  0
    4.9822    3.3100    0.0000 H   0  0  0  0  0  0  0  0  0  0  0  0
    5.2091    2.4630    0.0000 H   0  0  0  0  0  0  0  0  0  0  0  0
    5.2172   -0.4753    0.0000 H   0  0  0  0  0  0  0  0  0  0  0  0
    4.8048   -1.1588    0.0000 H   0  0  0  0  0  0  0  0  0  0  0  0
    7.4891   -2.7363    0.0000 H   0  0  0  0  0  0  0  0  0  0  0  0
    7.8855   -2.0435    0.0000 H   0  0  0  0  0  0  0  0  0  0  0  0
    8.6542    1.8100    0.0000 H   0  0  0  0  0  0  0  0  0  0  0  0
    4.9724    0.2792    0.0000 H   0  0  0  0  0  0  0  0  0  0  0  0
    4.7913   -2.0315    0.0000 H   0  0  0  0  0  0  0  0  0  0  0  0
    5.1824   -2.7274    0.0000 H   0  0  0  0  0  0  0  0  0  0  0  0
    5.7972   -3.0037    0.0000 H   0  0  0  0  0  0  0  0  0  0  0  0
    4.3418    3.9227    0.0000 H   0  0  0  0  0  0  0  0  0  0  0  0
    5.0597    3.5066    0.0000 H   0  0  0  0  0  0  0  0  0  0  0  0
    6.7030    5.4451    0.0000 H   0  0  0  0  0  0  0  0  0  0  0  0
    5.4665   -3.5734    0.0000 H   0  0  0  0  0  0  0  0  0  0  0  0
    5.1381   -3.3822    0.0000 H   0  0  0  0  0  0  0  0  0  0  0  0
    3.1939   -4.4947    0.0000 H   0  0  0  0  0  0  0  0  0  0  0  0
    5.1280   -6.0021    0.0000 H   0  0  0  0  0  0  0  0  0  0  0  0
    3.1924   -4.8747    0.0000 H   0  0  0  0  0  0  0  0  0  0  0  0
    3.9684   -6.6877    0.0000 H   0  0  0  0  0  0  0  0  0  0  0  0
    4.5860   -7.3100    0.0000 H   0  0  0  0  0  0  0  0  0  0  0  0
    5.2084   -6.6924    0.0000 H   0  0  0  0  0  0  0  0  0  0  0  0
    2.8578   -6.3034    0.0000 H   0  0  0  0  0  0  0  0  0  0  0  0
    1.6921   -3.6419    0.0000 H   0  0  0  0  0  0  0  0  0  0  0  0
    1.4619   -4.4880    0.0000 H   0  0  0  0  0  0  0  0  0  0  0  0
    2.3079   -4.7182    0.0000 H   0  0  0  0  0  0  0  0  0  0  0  0
    2.5639   -2.1453    0.0000 H   0  0  0  0  0  0  0  0  0  0  0  0
    2.3337   -2.9913    0.0000 H   0  0  0  0  0  0  0  0  0  0  0  0
    3.1797   -3.2215    0.0000 H   0  0  0  0  0  0  0  0  0  0  0  0
 15  1  1  6  0  0  0
 17  1  1  6  0  0  0
 14  2  1  1  0  0  0
  2 65  1  0  0  0  0
 31  3  1  1  0  0  0
 35  3  1  6  0  0  0
  4 29  2  0  0  0  0
  5 32  1  0  0  0  0
  5 34  1  0  0  0  0
  6 35  1  0  0  0  0
  6 38  1  0  0  0  0
  7 34  2  0  0  0  0
 36  8  1  6  0  0  0
  8 41  1  0  0  0  0
 37  9  1  1  0  0  0
  9 42  1  0  0  0  0
 39 10  1  6  0  0  0
 10 81  1  0  0  0  0
 11 41  2  0  0  0  0
 12 14  1  0  0  0  0
 12 15  1  0  0  0  0
 12 19  1  0  0  0  0
 12 25  1  1  0  0  0
 13 16  1  0  0  0  0
 13 17  1  0  0  0  0
 13 18  1  0  0  0  0
 13 44  1  6  0  0  0
 14 16  1  0  0  0  0
 14 20  1  0  0  0  0
 15 17  1  0  0  0  0
 15 45  1  0  0  0  0
 16 22  1  0  0  0  0
 16 46  1  1  0  0  0
 17 47  1  0  0  0  0
 18 21  1  0  0  0  0
 18 26  1  0  0  0  0
 18 29  1  1  0  0  0
 19 23  1  0  0  0  0
 19 28  1  1  0  0  0
 19 48  1  0  0  0  0
 20 23  1  0  0  0  0
 20 49  1  0  0  0  0
 20 50  1  0  0  0  0
 21 24  1  0  0  0  0
 21 27  1  0  0  0  0
 21 51  1  1  0  0  0
 22 24  1  0  0  0  0
 22 52  1  0  0  0  0
 22 53  1  0  0  0  0
 23 54  1  0  0  0  0
 23 55  1  0  0  0  0
 24 56  1  0  0  0  0
 24 57  1  0  0  0  0
 25 58  1  0  0  0  0
 25 59  1  0  0  0  0
 25 60  1  0  0  0  0
 26 30  1  0  0  0  0
 26 61  1  0  0  0  0
 26 62  1  0  0  0  0
 27 31  1  0  0  0  0
 27 63  1  0  0  0  0
 27 64  1  0  0  0  0
 28 32  1  0  0  0  0
 28 33  2  0  0  0  0
 29 66  1  0  0  0  0
 30 31  1  0  0  0  0
 30 67  1  0  0  0  0
 30 68  1  0  0  0  0
 31 69  1  0  0  0  0
 32 70  1  0  0  0  0
 32 71  1  0  0  0  0
 33 34  1  0  0  0  0
 33 72  1  0  0  0  0
 35 36  1  0  0  0  0
 35 73  1  0  0  0  0
 36 37  1  0  0  0  0
 36 74  1  0  0  0  0
 37 39  1  0  0  0  0
 37 75  1  0  0  0  0
 38 39  1  0  0  0  0
 38 40  1  1  0  0  0
 38 76  1  0  0  0  0
 39 77  1  0  0  0  0
 40 78  1  0  0  0  0
 40 79  1  0  0  0  0
 40 80  1  0  0  0  0
 41 43  1  0  0  0  0
 42 82  1  0  0  0  0
 42 83  1  0  0  0  0
 42 84  1  0  0  0  0
 43 85  1  0  0  0  0
 43 86  1  0  0  0  0
 43 87  1  0  0  0  0
M  END
> <PUBCHEM_COMPOUND_CID>
441851

> <PUBCHEM_COMPOUND_CANONICALIZED>
1

> <PUBCHEM_CACTVS_COMPLEXITY>
1200

> <PUBCHEM_CACTVS_HBOND_ACCEPTOR>
11

> <PUBCHEM_CACTVS_HBOND_DONOR>
2

> <PUBCHEM_CACTVS_ROTATABLE_BOND>
7

> <PUBCHEM_CACTVS_SUBSKEYS>
AAADcfB8PAAAAAAAAAAAAAAAEgAAAYIAAAA0YMEABIAAAGDAAAAAGgAACAAAD1SwgAMCCAAABgCIAijSiAAAAAAgAAAACAEAAEgRFBIAIQAiUAAFgAAPIQPK7PzPgAAAAAAAAADCAAYQADAAAYAADAAAAA==

> <PUBCHEM_IUPAC_INCHI>
InChI=1S/C32H44O11/c1-15-24(36)26(38-4)27(41-16(2)34)29(40-15)42-19-7-9-31(14-33)18(12-19)5-6-21-23(31)25-28(43-25)30(3)20(8-10-32(21,30)37)17-11-22(35)39-13-17/h11,14-15,18-21,23-29,36-37H,5-10,12-13H2,1-4H3/t15-,18+,19-,20+,21+,23+,24-,25-,26+,27-,28-,29-,30-,31+,32-/m0/s1

> <PUBCHEM_IUPAC_INCHIKEY>
NIVUJUXAQJVVHT-SXAYMNBUSA-N

> <PUBCHEM_XLOGP3_AA>
0.7

> <PUBCHEM_EXACT_MASS>
604.288362

> <PUBCHEM_MOLECULAR_FORMULA>
C32H44O11

> <PUBCHEM_MOLECULAR_WEIGHT>
604.68516

> <PUBCHEM_OPENEYE_CAN_SMILES>
CC1C(C(C(C(O1)OC2CCC3(C(C2)CCC4C3C5C(O5)C6(C4(CCC6C7=CC(=O)OC7)O)C)C=O)OC(=O)C)OC)O

> <PUBCHEM_OPENEYE_ISO_SMILES>
C[C@H]1[C@@H]([C@H]([C@@H]([C@@H](O1)O[C@H]2CC[C@]3([C@@H](C2)CC[C@@H]4[C@@H]3[C@H]5[C@H](O5)[C@]6([C@@]4(CC[C@@H]6C7=CC(=O)OC7)O)C)C=O)OC(=O)C)OC)O

> <PUBCHEM_CACTVS_TPSA>
150

> <PUBCHEM_MONOISOTOPIC_WEIGHT>
604.288362

> <PUBCHEM_TOTAL_CHARGE>
0

> <PUBCHEM_HEAVY_ATOM_COUNT>
43

> <PUBCHEM_ATOM_DEF_STEREO_COUNT>
15

> <PUBCHEM_ATOM_UDEF_STEREO_COUNT>
0

> <PUBCHEM_BOND_DEF_STEREO_COUNT>
0

> <PUBCHEM_BOND_UDEF_STEREO_COUNT>
0

> <PUBCHEM_ISOTOPIC_ATOM_COUNT>
0

> <PUBCHEM_COMPONENT_COUNT>
1

> <PUBCHEM_CACTVS_TAUTO_COUNT>
1

> <PUBCHEM_COORDINATE_TYPE>
1
5
255

> <PUBCHEM_BONDANNOTATIONS>
15  1  6
17  1  6
39  10  6
12  25  5
13  44  6
16  46  5
18  29  5
19  28  5
14  2  5
21  51  5
31  3  5
35  3  6
38  40  5
36  8  6
37  9  5

$$$$

