442378
  -OEChem-07051212582D

 39 40  0     1  0  0  0  0  0999 V2000
    4.8069    1.8444    0.0000 O   0  0  0  0  0  0  0  0  0  0  0  0
    7.9065   -0.2386    0.0000 O   0  0  0  0  0  0  0  0  0  0  0  0
    5.3792   -0.7512    0.0000 C   0  0  2  0  0  0  0  0  0  0  0  0
    4.6005   -1.3786    0.0000 C   0  0  2  0  0  0  0  0  0  0  0  0
    5.3742    0.2488    0.0000 C   0  0  0  0  0  0  0  0  0  0  0  0
    3.6155    0.6410    0.0000 C   0  0  1  0  0  0  0  0  0  0  0  0
    4.5893    0.8684    0.0000 C   0  0  1  0  0  0  0  0  0  0  0  0
    3.6244   -1.1609    0.0000 C   0  0  0  0  0  0  0  0  0  0  0  0
    3.1861   -0.2621    0.0000 C   0  0  0  0  0  0  0  0  0  0  0  0
    6.3269   -1.0512    0.0000 C   0  0  0  0  0  0  0  0  0  0  0  0
    6.3189    0.5582    0.0000 C   0  0  0  0  0  0  0  0  0  0  0  0
    6.9065   -0.2436    0.0000 C   0  0  0  0  0  0  0  0  0  0  0  0
    4.8278   -2.3524    0.0000 C   0  0  0  0  0  0  0  0  0  0  0  0
    2.9881    1.4197    0.0000 C   0  0  0  0  0  0  0  0  0  0  0  0
    6.6248    1.5103    0.0000 C   0  0  0  0  0  0  0  0  0  0  0  0
    2.0000    1.2657    0.0000 C   0  0  0  0  0  0  0  0  0  0  0  0
    3.3488    2.3524    0.0000 C   0  0  0  0  0  0  0  0  0  0  0  0
    5.5362   -1.5866    0.0000 H   0  0  0  0  0  0  0  0  0  0  0  0
    5.1867   -1.5804    0.0000 H   0  0  0  0  0  0  0  0  0  0  0  0
    3.8173    1.2272    0.0000 H   0  0  0  0  0  0  0  0  0  0  0  0
    4.1487    1.3046    0.0000 H   0  0  0  0  0  0  0  0  0  0  0  0
    3.0207   -1.3019    0.0000 H   0  0  0  0  0  0  0  0  0  0  0  0
    3.6275   -1.7809    0.0000 H   0  0  0  0  0  0  0  0  0  0  0  0
    2.6994    0.1220    0.0000 H   0  0  0  0  0  0  0  0  0  0  0  0
    2.7033   -0.6511    0.0000 H   0  0  0  0  0  0  0  0  0  0  0  0
    6.0787   -1.6194    0.0000 H   0  0  0  0  0  0  0  0  0  0  0  0
    6.8658   -1.3578    0.0000 H   0  0  0  0  0  0  0  0  0  0  0  0
    4.2241   -2.4934    0.0000 H   0  0  0  0  0  0  0  0  0  0  0  0
    4.9688   -2.9562    0.0000 H   0  0  0  0  0  0  0  0  0  0  0  0
    5.4316   -2.2114    0.0000 H   0  0  0  0  0  0  0  0  0  0  0  0
    7.2151    1.3206    0.0000 H   0  0  0  0  0  0  0  0  0  0  0  0
    6.8145    2.1006    0.0000 H   0  0  0  0  0  0  0  0  0  0  0  0
    6.0345    1.7000    0.0000 H   0  0  0  0  0  0  0  0  0  0  0  0
    5.3985    2.0301    0.0000 H   0  0  0  0  0  0  0  0  0  0  0  0
    1.9045    1.8783    0.0000 H   0  0  0  0  0  0  0  0  0  0  0  0
    1.3874    1.1703    0.0000 H   0  0  0  0  0  0  0  0  0  0  0  0
    2.0955    0.6531    0.0000 H   0  0  0  0  0  0  0  0  0  0  0  0
    3.9614    2.4478    0.0000 H   0  0  0  0  0  0  0  0  0  0  0  0
    2.9598    2.8352    0.0000 H   0  0  0  0  0  0  0  0  0  0  0  0
  7  1  1  1  0  0  0
  1 34  1  0  0  0  0
  2 12  2  0  0  0  0
  3  4  1  0  0  0  0
  3  5  1  0  0  0  0
  3 10  1  0  0  0  0
  3 18  1  1  0  0  0
  4  8  1  0  0  0  0
  4 13  1  1  0  0  0
  4 19  1  0  0  0  0
  5  7  1  0  0  0  0
  5 11  2  0  0  0  0
  6  7  1  0  0  0  0
  6  9  1  0  0  0  0
  6 14  1  1  0  0  0
  6 20  1  0  0  0  0
  7 21  1  0  0  0  0
  8  9  1  0  0  0  0
  8 22  1  0  0  0  0
  8 23  1  0  0  0  0
  9 24  1  0  0  0  0
  9 25  1  0  0  0  0
 10 12  1  0  0  0  0
 10 26  1  0  0  0  0
 10 27  1  0  0  0  0
 11 12  1  0  0  0  0
 11 15  1  0  0  0  0
 13 28  1  0  0  0  0
 13 29  1  0  0  0  0
 13 30  1  0  0  0  0
 14 16  1  0  0  0  0
 14 17  2  0  0  0  0
 15 31  1  0  0  0  0
 15 32  1  0  0  0  0
 15 33  1  0  0  0  0
 16 35  1  0  0  0  0
 16 36  1  0  0  0  0
 16 37  1  0  0  0  0
 17 38  1  0  0  0  0
 17 39  1  0  0  0  0
M  END
> <PUBCHEM_COMPOUND_CID>
442378

> <PUBCHEM_COMPOUND_CANONICALIZED>
1

> <PUBCHEM_CACTVS_COMPLEXITY>
392

> <PUBCHEM_CACTVS_HBOND_ACCEPTOR>
2

> <PUBCHEM_CACTVS_HBOND_DONOR>
1

> <PUBCHEM_CACTVS_ROTATABLE_BOND>
1

> <PUBCHEM_CACTVS_SUBSKEYS>
AAADceBwMAAAAAAAAAAAAAAAAAAAAQAAAAAAAAAABgAAAACAAAAAGgAACAAADRSggAICAAAAAgCIAoBSAAAAAAAgAAAACAEAAEgAFBIAAQAAUAAEwAAIEQOIzPDOgAAAAAAAAAAAAAAAAAAAAAAAAAAAAA==

> <PUBCHEM_IUPAC_OPENEYE_NAME>
(4R,5S,8S,8aR)-4-hydroxy-5-isopropenyl-3,8-dimethyl-4,5,6,7,8,8a-hexahydro-1H-azulen-2-one

> <PUBCHEM_IUPAC_CAS_NAME>
(4R,5S,8S,8aR)-4-hydroxy-3,8-dimethyl-5-(1-methylethenyl)-4,5,6,7,8,8a-hexahydro-1H-azulen-2-one

> <PUBCHEM_IUPAC_NAME>
(4R,5S,8S,8aR)-4-hydroxy-3,8-dimethyl-5-prop-1-en-2-yl-4,5,6,7,8,8a-hexahydro-1H-azulen-2-one

> <PUBCHEM_IUPAC_SYSTEMATIC_NAME>
(4R,5S,8S,8aR)-3,8-dimethyl-4-oxidanyl-5-prop-1-en-2-yl-4,5,6,7,8,8a-hexahydro-1H-azulen-2-one

> <PUBCHEM_IUPAC_TRADITIONAL_NAME>
(4R,5S,8S,8aR)-4-hydroxy-5-isopropenyl-3,8-dimethyl-4,5,6,7,8,8a-hexahydro-1H-azulen-2-one

> <PUBCHEM_IUPAC_INCHI>
InChI=1S/C15H22O2/c1-8(2)11-6-5-9(3)12-7-13(16)10(4)14(12)15(11)17/h9,11-12,15,17H,1,5-7H2,2-4H3/t9-,11-,12+,15+/m0/s1

> <PUBCHEM_IUPAC_INCHIKEY>
MCNAURNYDFSEML-APAOZMKASA-N

> <PUBCHEM_XLOGP3_AA>
2.4

> <PUBCHEM_EXACT_MASS>
234.16198

> <PUBCHEM_MOLECULAR_FORMULA>
C15H22O2

> <PUBCHEM_MOLECULAR_WEIGHT>
234.33398

> <PUBCHEM_OPENEYE_CAN_SMILES>
CC1CCC(C(C2=C(C(=O)CC12)C)O)C(=C)C

> <PUBCHEM_OPENEYE_ISO_SMILES>
C[C@H]1CC[C@H]([C@H](C2=C(C(=O)C[C@H]12)C)O)C(=C)C

> <PUBCHEM_CACTVS_TPSA>
37.3

> <PUBCHEM_MONOISOTOPIC_WEIGHT>
234.16198

> <PUBCHEM_TOTAL_CHARGE>
0

> <PUBCHEM_HEAVY_ATOM_COUNT>
17

> <PUBCHEM_ATOM_DEF_STEREO_COUNT>
4

> <PUBCHEM_ATOM_UDEF_STEREO_COUNT>
0

> <PUBCHEM_BOND_DEF_STEREO_COUNT>
0

> <PUBCHEM_BOND_UDEF_STEREO_COUNT>
0

> <PUBCHEM_ISOTOPIC_ATOM_COUNT>
0

> <PUBCHEM_COMPONENT_COUNT>
1

> <PUBCHEM_CACTVS_TAUTO_COUNT>
10

> <PUBCHEM_COORDINATE_TYPE>
1
5
255

> <PUBCHEM_BONDANNOTATIONS>
7  1  5
3  18  5
4  13  5
6  14  5

$$$$

