186775
  -OEChem-07051212573D

 49 51  0     0  0  0  0  0  0999 V2000
    5.4180   -0.8792   -1.0738 O   0  0  0  0  0  0  0  0  0  0  0  0
    4.0454   -3.0129    0.0828 O   0  0  0  0  0  0  0  0  0  0  0  0
    1.2407    2.8220    0.6815 O   0  0  0  0  0  0  0  0  0  0  0  0
    3.4065    4.0143   -0.7690 O   0  0  0  0  0  0  0  0  0  0  0  0
    4.1822    1.7770   -0.8264 N   0  0  0  0  0  0  0  0  0  0  0  0
   -0.7599   -0.1583    0.7094 C   0  0  0  0  0  0  0  0  0  0  0  0
    0.4711   -0.0407    1.6184 C   0  0  0  0  0  0  0  0  0  0  0  0
   -2.1111    0.0141    1.4140 C   0  0  0  0  0  0  0  0  0  0  0  0
    1.7821   -0.2599    0.9051 C   0  0  0  0  0  0  0  0  0  0  0  0
   -3.3121   -0.1253    0.4724 C   0  0  0  0  0  0  0  0  0  0  0  0
    2.4693    0.7716    0.3315 C   0  0  0  0  0  0  0  0  0  0  0  0
    3.6781    0.5733   -0.3284 C   0  0  0  0  0  0  0  0  0  0  0  0
   -4.6543    0.0422    1.1957 C   0  0  0  0  0  0  0  0  0  0  0  0
    2.3176   -1.5351    0.8187 C   0  0  0  0  0  0  0  0  0  0  0  0
    4.2390   -0.6824   -0.4326 C   0  0  0  0  0  0  0  0  0  0  0  0
    3.5427   -1.7460    0.1517 C   0  0  0  0  0  0  0  0  0  0  0  0
    2.1816    2.2018    0.2490 C   0  0  0  0  0  0  0  0  0  0  0  0
   -5.8469   -0.0994    0.2820 C   0  0  0  0  0  0  0  0  0  0  0  0
    3.3380    2.8301   -0.5240 C   0  0  0  0  0  0  0  0  0  0  0  0
   -6.4132   -1.3504    0.0917 C   0  0  0  0  0  0  0  0  0  0  0  0
   -6.3552    1.0239   -0.3517 C   0  0  0  0  0  0  0  0  0  0  0  0
   -7.5153   -1.4811   -0.7532 C   0  0  0  0  0  0  0  0  0  0  0  0
   -7.4574    0.8931   -1.1965 C   0  0  0  0  0  0  0  0  0  0  0  0
    6.4927   -1.4322   -0.3116 C   0  0  0  0  0  0  0  0  0  0  0  0
   -8.0374   -0.3593   -1.3972 C   0  0  0  0  0  0  0  0  0  0  0  0
    3.6578   -3.8013   -1.0393 C   0  0  0  0  0  0  0  0  0  0  0  0
   -0.7457   -1.1387    0.2153 H   0  0  0  0  0  0  0  0  0  0  0  0
   -0.6840    0.5863   -0.0937 H   0  0  0  0  0  0  0  0  0  0  0  0
    0.3849   -0.7788    2.4275 H   0  0  0  0  0  0  0  0  0  0  0  0
    0.4719    0.9288    2.1294 H   0  0  0  0  0  0  0  0  0  0  0  0
   -2.1399    1.0002    1.8933 H   0  0  0  0  0  0  0  0  0  0  0  0
   -2.1928   -0.7308    2.2149 H   0  0  0  0  0  0  0  0  0  0  0  0
   -3.2310    0.6204   -0.3287 H   0  0  0  0  0  0  0  0  0  0  0  0
   -3.2775   -1.1089   -0.0131 H   0  0  0  0  0  0  0  0  0  0  0  0
   -4.7308   -0.6934    2.0072 H   0  0  0  0  0  0  0  0  0  0  0  0
   -4.6889    1.0233    1.6873 H   0  0  0  0  0  0  0  0  0  0  0  0
    1.8000   -2.3830    1.2612 H   0  0  0  0  0  0  0  0  0  0  0  0
    5.0531    1.8501   -1.3390 H   0  0  0  0  0  0  0  0  0  0  0  0
   -6.0124   -2.2301    0.5872 H   0  0  0  0  0  0  0  0  0  0  0  0
   -5.9089    2.0031   -0.2033 H   0  0  0  0  0  0  0  0  0  0  0  0
   -7.9667   -2.4564   -0.9103 H   0  0  0  0  0  0  0  0  0  0  0  0
   -7.8636    1.7664   -1.6985 H   0  0  0  0  0  0  0  0  0  0  0  0
    7.4279   -1.0183   -0.6998 H   0  0  0  0  0  0  0  0  0  0  0  0
    6.4179   -1.1744    0.7505 H   0  0  0  0  0  0  0  0  0  0  0  0
    6.5226   -2.5177   -0.4395 H   0  0  0  0  0  0  0  0  0  0  0  0
   -8.8953   -0.4612   -2.0553 H   0  0  0  0  0  0  0  0  0  0  0  0
    2.5737   -3.9526   -1.0456 H   0  0  0  0  0  0  0  0  0  0  0  0
    3.9763   -3.3272   -1.9730 H   0  0  0  0  0  0  0  0  0  0  0  0
    4.1463   -4.7761   -0.9585 H   0  0  0  0  0  0  0  0  0  0  0  0
  1 15  1  0  0  0  0
  1 24  1  0  0  0  0
  2 16  1  0  0  0  0
  2 26  1  0  0  0  0
  3 17  2  0  0  0  0
  4 19  2  0  0  0  0
  5 12  1  0  0  0  0
  5 19  1  0  0  0  0
  5 38  1  0  0  0  0
  6  7  1  0  0  0  0
  6  8  1  0  0  0  0
  6 27  1  0  0  0  0
  6 28  1  0  0  0  0
  7  9  1  0  0  0  0
  7 29  1  0  0  0  0
  7 30  1  0  0  0  0
  8 10  1  0  0  0  0
  8 31  1  0  0  0  0
  8 32  1  0  0  0  0
  9 11  1  0  0  0  0
  9 14  2  0  0  0  0
 10 13  1  0  0  0  0
 10 33  1  0  0  0  0
 10 34  1  0  0  0  0
 11 12  2  0  0  0  0
 11 17  1  0  0  0  0
 12 15  1  0  0  0  0
 13 18  1  0  0  0  0
 13 35  1  0  0  0  0
 13 36  1  0  0  0  0
 14 16  1  0  0  0  0
 14 37  1  0  0  0  0
 15 16  2  0  0  0  0
 17 19  1  0  0  0  0
 18 20  2  0  0  0  0
 18 21  1  0  0  0  0
 20 22  1  0  0  0  0
 20 39  1  0  0  0  0
 21 23  2  0  0  0  0
 21 40  1  0  0  0  0
 22 25  2  0  0  0  0
 22 41  1  0  0  0  0
 23 25  1  0  0  0  0
 23 42  1  0  0  0  0
 24 43  1  0  0  0  0
 24 44  1  0  0  0  0
 24 45  1  0  0  0  0
 25 46  1  0  0  0  0
 26 47  1  0  0  0  0
 26 48  1  0  0  0  0
 26 49  1  0  0  0  0
M  END
> <PUBCHEM_COMPOUND_CID>
186775

> <PUBCHEM_CONFORMER_RMSD>
1

> <PUBCHEM_CONFORMER_DIVERSEORDER>
1
42
14
3
11
32
13
16
48
22
24
7
41
49
12
47
20
15
51
50
37
9
44
28
36
10
53
34
5
43
40
29
8
4
35
17
23
6
2
38
26
19
21
18
46
39
45
25
52
31
33
27
30

> <PUBCHEM_MMFF94_PARTIAL_CHARGES>
30
1 -0.36
11 0.09
12 0.12
13 0.14
14 -0.15
15 0.08
16 0.08
17 0.48
18 -0.14
19 0.63
2 -0.36
20 -0.15
21 -0.15
22 -0.15
23 -0.15
24 0.28
25 -0.15
26 0.28
3 -0.57
37 0.15
38 0.37
39 0.15
4 -0.57
40 0.15
41 0.15
42 0.15
46 0.15
5 -0.55
7 0.14
9 -0.14

> <PUBCHEM_EFFECTIVE_ROTOR_COUNT>
8.2

> <PUBCHEM_PHARMACOPHORE_FEATURES>
9
1 1 acceptor
1 2 acceptor
1 3 acceptor
1 4 acceptor
1 5 donor
5 5 11 12 17 19 rings
5 6 7 8 10 13 hydrophobe
6 18 20 21 22 23 25 rings
6 9 11 12 14 15 16 rings

> <PUBCHEM_HEAVY_ATOM_COUNT>
26

> <PUBCHEM_ATOM_DEF_STEREO_COUNT>
0

> <PUBCHEM_ATOM_UDEF_STEREO_COUNT>
0

> <PUBCHEM_BOND_DEF_STEREO_COUNT>
0

> <PUBCHEM_BOND_UDEF_STEREO_COUNT>
0

> <PUBCHEM_ISOTOPIC_ATOM_COUNT>
0

> <PUBCHEM_COMPONENT_COUNT>
1

> <PUBCHEM_CACTVS_TAUTO_COUNT>
9

> <PUBCHEM_CONFORMER_ID>
0002D99700000001

> <PUBCHEM_MMFF94_ENERGY>
86.2551

> <PUBCHEM_FEATURE_SELFOVERLAP>
45.768

> <PUBCHEM_SHAPE_FINGERPRINT>
10 15 12175620699146899313
10378564 45 18201440306838989537
10693767 8 18116135840287674014
11991303 11 18041851602212540279
12838862 33 18340198589436340788
13533116 47 18335139774347376265
13627175 4 16805891685383566783
13668630 136 17676485072969217055
14528608 73 18202570558133064273
15183329 4 18412263965321324217
15475509 35 14129603528604123684
16988056 13 18131064901146841028
16993427 108 16483346856245021130
19377110 9 10952044542673629353
20157964 124 18411980222032474273
21130935 74 8214146283573968741
21623969 137 7565342037795629825
22061861 79 18410015446984141087
221357 26 18271807955515416205
22289505 5 18272368676417747272
22956985 138 16518192552802891231
23081809 10 17894344480809289913
23516275 100 17416411957393484573
23522609 53 17751330973352019193
23559900 14 18408326588312514131
29717793 49 18334011705381744361
3004659 81 18334017198481678235
3383291 50 14057294039735978941
34797466 226 18272090470891908523
397830 11 7709458330105206001
4015057 19 18410003313622338185
42767 28 18202569493060783569
44317340 157 18410009902276496257
46194498 28 18342740727772704212
474113 269 17560245859966412706
5470011 282 18339934706603295047
5758199 1 9799399015147841170

> <PUBCHEM_SHAPE_MULTIPOLES>
506.61
21.51
3.4
1.27
44.56
0.83
-0.11
-6.21
9.51
-7.26
1.17
0.79
-0.05
0

> <PUBCHEM_SHAPE_SELFOVERLAP>
1083.509

> <PUBCHEM_SHAPE_VOLUME>
281

> <PUBCHEM_COORDINATE_TYPE>
2
5
10

$$$$

