5372405
  -OEChem-07051213123D

 37 36  0     1  0  0  0  0  0999 V2000
    2.2903   -1.7850    1.9210 S   0  0  0  0  0  0  0  0  0  0  0  0
    2.3302   -0.4516    0.4870 P   0  0  1  0  0  0  0  0  0  0  0  0
    1.2384   -0.7528   -0.6888 O   0  0  0  0  0  0  0  0  0  0  0  0
   -2.9756    0.7616    0.3908 O   0  0  0  0  0  0  0  0  0  0  0  0
    1.7944    1.0169    0.9592 O   0  0  0  0  0  0  0  0  0  0  0  0
   -2.8139   -1.5339    0.5749 O   0  0  0  0  0  0  0  0  0  0  0  0
    3.7777   -0.1867   -0.2955 N   0  0  0  0  0  0  0  0  0  0  0  0
   -4.3364    0.7143   -0.0513 C   0  0  0  0  0  0  0  0  0  0  0  0
    3.9050    0.9004   -1.2546 C   0  0  0  0  0  0  0  0  0  0  0  0
   -0.0723   -1.0206   -0.4693 C   0  0  0  0  0  0  0  0  0  0  0  0
   -4.3847    0.1557   -1.4653 C   0  0  0  0  0  0  0  0  0  0  0  0
   -4.9372    2.1096    0.0277 C   0  0  0  0  0  0  0  0  0  0  0  0
    5.3639    1.1971   -1.5576 C   0  0  0  0  0  0  0  0  0  0  0  0
   -0.8864   -0.1525    0.1508 C   0  0  0  0  0  0  0  0  0  0  0  0
   -2.3209   -0.4318    0.3984 C   0  0  0  0  0  0  0  0  0  0  0  0
   -0.5475   -2.3520   -0.9657 C   0  0  0  0  0  0  0  0  0  0  0  0
    2.5748    1.8112    1.8383 C   0  0  0  0  0  0  0  0  0  0  0  0
   -4.9041    0.0630    0.6250 H   0  0  0  0  0  0  0  0  0  0  0  0
    3.4409    1.8140   -0.8718 H   0  0  0  0  0  0  0  0  0  0  0  0
    3.3823    0.6337   -2.1793 H   0  0  0  0  0  0  0  0  0  0  0  0
    4.2510   -1.0133   -0.6591 H   0  0  0  0  0  0  0  0  0  0  0  0
   -5.3991    0.2151   -1.8733 H   0  0  0  0  0  0  0  0  0  0  0  0
   -4.0788   -0.8936   -1.5114 H   0  0  0  0  0  0  0  0  0  0  0  0
   -3.7126    0.7119   -2.1286 H   0  0  0  0  0  0  0  0  0  0  0  0
   -4.3818    2.8100   -0.6056 H   0  0  0  0  0  0  0  0  0  0  0  0
   -4.8741    2.4941    1.0514 H   0  0  0  0  0  0  0  0  0  0  0  0
   -5.9865    2.1112   -0.2825 H   0  0  0  0  0  0  0  0  0  0  0  0
    5.9032    1.4914   -0.6510 H   0  0  0  0  0  0  0  0  0  0  0  0
    5.8653    0.3231   -1.9867 H   0  0  0  0  0  0  0  0  0  0  0  0
    5.4412    2.0175   -2.2783 H   0  0  0  0  0  0  0  0  0  0  0  0
   -0.5379    0.8288    0.4508 H   0  0  0  0  0  0  0  0  0  0  0  0
    0.1781   -2.7752   -1.6698 H   0  0  0  0  0  0  0  0  0  0  0  0
   -1.4950   -2.2750   -1.5083 H   0  0  0  0  0  0  0  0  0  0  0  0
   -0.6523   -3.0607   -0.1383 H   0  0  0  0  0  0  0  0  0  0  0  0
    2.3057    2.8600    1.6907 H   0  0  0  0  0  0  0  0  0  0  0  0
    2.3517    1.5306    2.8707 H   0  0  0  0  0  0  0  0  0  0  0  0
    3.6443    1.6900    1.6511 H   0  0  0  0  0  0  0  0  0  0  0  0
  1  2  2  0  0  0  0
  2  3  1  0  0  0  0
  2  5  1  0  0  0  0
  2  7  1  0  0  0  0
  3 10  1  0  0  0  0
  4  8  1  0  0  0  0
  4 15  1  0  0  0  0
  5 17  1  0  0  0  0
  6 15  2  0  0  0  0
  7  9  1  0  0  0  0
  7 21  1  0  0  0  0
  8 11  1  0  0  0  0
  8 12  1  0  0  0  0
  8 18  1  0  0  0  0
  9 13  1  0  0  0  0
  9 19  1  0  0  0  0
  9 20  1  0  0  0  0
 10 14  2  0  0  0  0
 10 16  1  0  0  0  0
 11 22  1  0  0  0  0
 11 23  1  0  0  0  0
 11 24  1  0  0  0  0
 12 25  1  0  0  0  0
 12 26  1  0  0  0  0
 12 27  1  0  0  0  0
 13 28  1  0  0  0  0
 13 29  1  0  0  0  0
 13 30  1  0  0  0  0
 14 15  1  0  0  0  0
 14 31  1  0  0  0  0
 16 32  1  0  0  0  0
 16 33  1  0  0  0  0
 16 34  1  0  0  0  0
 17 35  1  0  0  0  0
 17 36  1  0  0  0  0
 17 37  1  0  0  0  0
M  END
> <PUBCHEM_COMPOUND_CID>
5372405

> <PUBCHEM_CONFORMER_RMSD>
1

> <PUBCHEM_CONFORMER_DIVERSEORDER>
6
136
9
83
73
31
166
28
58
162
165
19
173
182
52
102
81
114
149
57
41
89
61
174
143
87
49
72
120
171
127
53
121
7
40
37
172
60
23
54
76
48
91
85
153
175
190
10
45
116
77
18
79
13
187
151
78
145
130
86
101
105
27
152
160
15
146
111
26
71
67
186
35
66
144
32
8
154
47
84
39
170
155
185
181
44
191
126
183
104
88
134
100
123
189
75
103
133
20
179
14
74
109
159
93
161
95
142
68
29
64
184
177
163
38
55
141
118
158
3
139
56
92
140
82
138
150
157
59
24
110
5
117
147
43
156
21
169
17
106
96
125
12
65
90
97
122
99
62
46
34
30
51
80
42
115
108
168
137
178
94
22
70
124
148
69
4
63
2
129
167
131
98
1
164
16
112
135
36
107
132
119
11
188
50
176
33
180
128
113
25

> <PUBCHEM_MMFF94_PARTIAL_CHARGES>
16
1 -0.68
10 -0.06
14 -0.14
15 0.71
16 0.14
17 0.28
2 1.49
21 0.36
3 -0.35
31 0.15
4 -0.43
5 -0.55
6 -0.57
7 -0.9
8 0.28
9 0.27

> <PUBCHEM_EFFECTIVE_ROTOR_COUNT>
8

> <PUBCHEM_PHARMACOPHORE_FEATURES>
2
1 6 acceptor
3 8 11 12 hydrophobe

> <PUBCHEM_HEAVY_ATOM_COUNT>
17

> <PUBCHEM_ATOM_DEF_STEREO_COUNT>
0

> <PUBCHEM_ATOM_UDEF_STEREO_COUNT>
1

> <PUBCHEM_BOND_DEF_STEREO_COUNT>
1

> <PUBCHEM_BOND_UDEF_STEREO_COUNT>
0

> <PUBCHEM_ISOTOPIC_ATOM_COUNT>
0

> <PUBCHEM_COMPONENT_COUNT>
1

> <PUBCHEM_CACTVS_TAUTO_COUNT>
2

> <PUBCHEM_CONFORMER_ID>
0051F9F500000006

> <PUBCHEM_MMFF94_ENERGY>
25.0408

> <PUBCHEM_FEATURE_SELFOVERLAP>
10.148

> <PUBCHEM_SHAPE_FINGERPRINT>
10759866 29 18201435934604629712
12403259 415 18114462275793392793
12500047 106 18202567263287019523
12596602 18 16343696651850921361
12892183 10 14692575454977667085
13760787 19 18273493463991324786
13955234 65 17275107288350731562
1420 369 8862950463497690212
14251751 18 5400793981801087916
14252887 29 14907895028488910098
14911166 2 17749100089469304116
15238133 3 18338525252005829184
17041 50 17749384828637081536
1813 80 7781510473513397139
18186145 218 17240483598219490747
193927 3 6988326048930952836
20233049 118 18333448755502344960
20621476 91 10807360833407436372
20671657 53 5833988364831422843
21069387 34 5617543999287753886
212847 35 18339364170418609184
23559900 14 18043536229365596583
3060560 45 17530688740209460758
449060 50 17203606003845870863
4990 188 16732704960414879468
633830 44 17603597322035540437

> <PUBCHEM_SHAPE_MULTIPOLES>
329.09
10.51
2.14
1.65
3.43
0.37
0.3
-7.13
-2.87
-0.16
0.29
-1.64
-0.12
-1.14

> <PUBCHEM_SHAPE_SELFOVERLAP>
600.036

> <PUBCHEM_SHAPE_VOLUME>
212.2

> <PUBCHEM_COORDINATE_TYPE>
2
5
10

$$$$

