439986
  -OEChem-07051212483D

 24 24  0     1  0  0  0  0  0999 V2000
    2.1208   -2.8620    0.3820 Cl  0  0  0  0  0  0  0  0  0  0  0  0
    3.2037    2.3657   -0.6539 Cl  0  0  0  0  0  0  0  0  0  0  0  0
   -2.1797   -1.2274   -1.4106 O   0  0  0  0  0  0  0  0  0  0  0  0
    3.8108   -0.5493   -0.4546 O   0  0  0  0  0  0  0  0  0  0  0  0
   -3.9141   -1.1234    0.0476 O   0  0  0  0  0  0  0  0  0  0  0  0
   -3.6214    1.6038    0.1390 N   0  0  0  0  0  0  0  0  0  0  0  0
   -1.4631    0.8346    1.0137 C   0  0  0  0  0  0  0  0  0  0  0  0
   -2.4396    0.8028   -0.1723 C   0  0  1  0  0  0  0  0  0  0  0  0
   -0.0510    0.4644    0.6220 C   0  0  0  0  0  0  0  0  0  0  0  0
    0.8222    1.4594    0.2153 C   0  0  0  0  0  0  0  0  0  0  0  0
    0.3409   -0.8629    0.6758 C   0  0  0  0  0  0  0  0  0  0  0  0
   -2.9333   -0.6029   -0.4684 C   0  0  0  0  0  0  0  0  0  0  0  0
    1.6434   -1.2051    0.3123 C   0  0  0  0  0  0  0  0  0  0  0  0
    2.1248    1.1173   -0.1482 C   0  0  0  0  0  0  0  0  0  0  0  0
    2.5355   -0.2149   -0.0997 C   0  0  0  0  0  0  0  0  0  0  0  0
   -1.8056    0.1694    1.8183 H   0  0  0  0  0  0  0  0  0  0  0  0
   -1.4354    1.8389    1.4594 H   0  0  0  0  0  0  0  0  0  0  0  0
   -1.9904    1.2177   -1.0820 H   0  0  0  0  0  0  0  0  0  0  0  0
    0.4954    2.4955    0.1767 H   0  0  0  0  0  0  0  0  0  0  0  0
   -0.3575   -1.6304    0.9998 H   0  0  0  0  0  0  0  0  0  0  0  0
   -3.3446    2.5716    0.3008 H   0  0  0  0  0  0  0  0  0  0  0  0
   -4.0357    1.2840    1.0143 H   0  0  0  0  0  0  0  0  0  0  0  0
   -2.5120   -2.1295   -1.6056 H   0  0  0  0  0  0  0  0  0  0  0  0
    3.9145   -1.5119   -0.3589 H   0  0  0  0  0  0  0  0  0  0  0  0
  1 13  1  0  0  0  0
  2 14  1  0  0  0  0
  3 12  1  0  0  0  0
  3 23  1  0  0  0  0
  4 15  1  0  0  0  0
  4 24  1  0  0  0  0
  5 12  2  0  0  0  0
  6  8  1  0  0  0  0
  6 21  1  0  0  0  0
  6 22  1  0  0  0  0
  7  8  1  0  0  0  0
  7  9  1  0  0  0  0
  7 16  1  0  0  0  0
  7 17  1  0  0  0  0
  8 12  1  0  0  0  0
  8 18  1  0  0  0  0
  9 10  2  0  0  0  0
  9 11  1  0  0  0  0
 10 14  1  0  0  0  0
 10 19  1  0  0  0  0
 11 13  2  0  0  0  0
 11 20  1  0  0  0  0
 13 15  1  0  0  0  0
 14 15  2  0  0  0  0
M  END
> <PUBCHEM_COMPOUND_CID>
439986

> <PUBCHEM_CONFORMER_RMSD>
0.6

> <PUBCHEM_CONFORMER_DIVERSEORDER>
1
3
4
8
7
5
6
2

> <PUBCHEM_MMFF94_PARTIAL_CHARGES>
21
1 -0.18
10 -0.15
11 -0.15
12 0.66
13 0.18
14 0.18
15 0.08
19 0.15
2 -0.18
20 0.15
21 0.36
22 0.36
23 0.5
24 0.45
3 -0.65
4 -0.53
5 -0.57
6 -0.99
7 0.14
8 0.33
9 -0.14

> <PUBCHEM_EFFECTIVE_ROTOR_COUNT>
3

> <PUBCHEM_PHARMACOPHORE_FEATURES>
7
1 3 acceptor
1 4 donor
1 5 acceptor
1 6 cation
1 6 donor
3 3 5 12 anion
6 9 10 11 13 14 15 rings

> <PUBCHEM_HEAVY_ATOM_COUNT>
15

> <PUBCHEM_ATOM_DEF_STEREO_COUNT>
1

> <PUBCHEM_ATOM_UDEF_STEREO_COUNT>
0

> <PUBCHEM_BOND_DEF_STEREO_COUNT>
0

> <PUBCHEM_BOND_UDEF_STEREO_COUNT>
0

> <PUBCHEM_ISOTOPIC_ATOM_COUNT>
0

> <PUBCHEM_COMPONENT_COUNT>
1

> <PUBCHEM_CACTVS_TAUTO_COUNT>
2

> <PUBCHEM_CONFORMER_ID>
0006B6B200000001

> <PUBCHEM_MMFF94_ENERGY>
27.4331

> <PUBCHEM_FEATURE_SELFOVERLAP>
35.579

> <PUBCHEM_SHAPE_FINGERPRINT>
10062212 137 18410583910963537626
12932764 1 17822015259527153513
13380535 76 18198340663628323856
14251717 144 18412546483685073644
14576447 43 18408891723818953399
15375462 189 18187362108596777363
15442244 35 18122063371047664617
15775835 57 18411976996580528821
16945 1 18270104825405513688
18186145 218 18202849850470147612
18619055 16 18262807379453465641
19422 9 18334572434673543181
20645476 183 18335140929509138151
20645477 70 18334858320544834911
21499 59 18199465463765192724
21501502 16 18410577305599066425
21524375 3 17915463783733116520
21634736 98 18335980943454979470
221490 88 18341603807017034402
2255824 54 18413669106621462218
23402539 116 17846222193587113636
23402655 69 18411979195424728597
23463225 33 18262803002771073159
23532345 88 18342461486263272686
23552423 10 18410014346728617451
23559900 14 17676492782978624378
23598291 2 18194120948116609475
25 1 18201715163313307952
2748010 2 16534254871759980960
2871803 45 18339088073279166199
3082319 5 18411418397381622421
6338986 31 17910404118826645026
6992083 37 17686330275972163432
7364860 26 18336831982729472002
7832392 63 18338799038759321649
84936 182 18334295319163206064
90525 40 18113620131475070775
93112 12 18411420652371347605
9939556 21 18336549420957457585

> <PUBCHEM_SHAPE_MULTIPOLES>
289.84
6.39
2.5
0.91
3.19
0.66
-0.07
-0.54
-1.32
-1.97
-0.06
0.25
0.05
-0.83

> <PUBCHEM_SHAPE_SELFOVERLAP>
585.12

> <PUBCHEM_SHAPE_VOLUME>
171

> <PUBCHEM_COORDINATE_TYPE>
2
5
10

$$$$

