197001
  -OEChem-07051213152D

 46 50  0     1  0  0  0  0  0999 V2000
    2.8718   -0.5688    0.0000 O   0  0  0  0  0  0  0  0  0  0  0  0
    2.8560   -2.6170    0.0000 O   0  0  0  0  0  0  0  0  0  0  0  0
    4.4081    3.5096    0.0000 O   0  0  0  0  0  0  0  0  0  0  0  0
    2.9562    2.6714    0.0000 O   0  0  0  0  0  0  0  0  0  0  0  0
    7.2334   -1.0667    0.0000 N   0  0  3  0  0  0  0  0  0  0  0  0
    6.3740   -0.5719    0.0000 C   0  0  2  0  0  0  0  0  0  0  0  0
    5.5080   -1.0719    0.0000 C   0  0  0  0  0  0  0  0  0  0  0  0
    6.3740    0.4281    0.0000 C   0  0  0  0  0  0  0  0  0  0  0  0
    5.5240   -2.1134    0.0000 C   0  0  0  0  0  0  0  0  0  0  0  0
    4.6419   -0.5719    0.0000 C   0  0  0  0  0  0  0  0  0  0  0  0
    7.2469   -2.0583    0.0000 C   0  0  0  0  0  0  0  0  0  0  0  0
    6.4011   -2.5762    0.0000 C   0  0  0  0  0  0  0  0  0  0  0  0
    5.5080    0.9281    0.0000 C   0  0  0  0  0  0  0  0  0  0  0  0
    4.6419    0.4281    0.0000 C   0  0  0  0  0  0  0  0  0  0  0  0
    3.7319   -1.0787    0.0000 C   0  0  0  0  0  0  0  0  0  0  0  0
    4.6260   -2.6412    0.0000 C   0  0  0  0  0  0  0  0  0  0  0  0
    8.0958   -0.5603    0.0000 C   0  0  0  0  0  0  0  0  0  0  0  0
    5.5240    1.9696    0.0000 C   0  0  0  0  0  0  0  0  0  0  0  0
    3.7239   -2.1203    0.0000 C   0  0  0  0  0  0  0  0  0  0  0  0
    3.7319    0.9350    0.0000 C   0  0  0  0  0  0  0  0  0  0  0  0
    4.6260    2.4974    0.0000 C   0  0  0  0  0  0  0  0  0  0  0  0
    3.7239    1.9766    0.0000 C   0  0  0  0  0  0  0  0  0  0  0  0
    3.3782    3.6170    0.0000 C   0  0  0  0  0  0  0  0  0  0  0  0
    2.0000   -1.0587    0.0000 C   0  0  0  0  0  0  0  0  0  0  0  0
    2.8521   -3.6170    0.0000 C   0  0  0  0  0  0  0  0  0  0  0  0
    7.1098   -0.1464    0.0000 H   0  0  0  0  0  0  0  0  0  0  0  0
    6.9846    0.3204    0.0000 H   0  0  0  0  0  0  0  0  0  0  0  0
    6.5860    1.0107    0.0000 H   0  0  0  0  0  0  0  0  0  0  0  0
    7.4716   -2.6361    0.0000 H   0  0  0  0  0  0  0  0  0  0  0  0
    7.8555   -1.9399    0.0000 H   0  0  0  0  0  0  0  0  0  0  0  0
    6.0190   -3.0644    0.0000 H   0  0  0  0  0  0  0  0  0  0  0  0
    6.8137   -3.0390    0.0000 H   0  0  0  0  0  0  0  0  0  0  0  0
    4.6284   -3.2612    0.0000 H   0  0  0  0  0  0  0  0  0  0  0  0
    8.4097   -1.0949    0.0000 H   0  0  0  0  0  0  0  0  0  0  0  0
    8.6304   -0.2463    0.0000 H   0  0  0  0  0  0  0  0  0  0  0  0
    7.7818   -0.0256    0.0000 H   0  0  0  0  0  0  0  0  0  0  0  0
    6.0645    2.2734    0.0000 H   0  0  0  0  0  0  0  0  0  0  0  0
    3.1986    0.6188    0.0000 H   0  0  0  0  0  0  0  0  0  0  0  0
    3.5069    4.2235    0.0000 H   0  0  0  0  0  0  0  0  0  0  0  0
    2.7886    3.8088    0.0000 H   0  0  0  0  0  0  0  0  0  0  0  0
    1.6962   -0.5182    0.0000 H   0  0  0  0  0  0  0  0  0  0  0  0
    1.4595   -1.3625    0.0000 H   0  0  0  0  0  0  0  0  0  0  0  0
    2.3038   -1.5992    0.0000 H   0  0  0  0  0  0  0  0  0  0  0  0
    2.2321   -3.6146    0.0000 H   0  0  0  0  0  0  0  0  0  0  0  0
    2.8497   -4.2370    0.0000 H   0  0  0  0  0  0  0  0  0  0  0  0
    3.4721   -3.6194    0.0000 H   0  0  0  0  0  0  0  0  0  0  0  0
  1 15  1  0  0  0  0
  1 24  1  0  0  0  0
  2 19  1  0  0  0  0
  2 25  1  0  0  0  0
  3 21  1  0  0  0  0
  3 23  1  0  0  0  0
  4 22  1  0  0  0  0
  4 23  1  0  0  0  0
  5  6  1  0  0  0  0
  5 11  1  0  0  0  0
  5 17  1  0  0  0  0
  6  7  1  0  0  0  0
  6  8  1  0  0  0  0
  6 26  1  1  0  0  0
  7  9  1  0  0  0  0
  7 10  2  0  0  0  0
  8 13  1  0  0  0  0
  8 27  1  0  0  0  0
  8 28  1  0  0  0  0
  9 12  1  0  0  0  0
  9 16  2  0  0  0  0
 10 14  1  0  0  0  0
 10 15  1  0  0  0  0
 11 12  1  0  0  0  0
 11 29  1  0  0  0  0
 11 30  1  0  0  0  0
 12 31  1  0  0  0  0
 12 32  1  0  0  0  0
 13 14  1  0  0  0  0
 13 18  2  0  0  0  0
 14 20  2  0  0  0  0
 15 19  2  0  0  0  0
 16 19  1  0  0  0  0
 16 33  1  0  0  0  0
 17 34  1  0  0  0  0
 17 35  1  0  0  0  0
 17 36  1  0  0  0  0
 18 21  1  0  0  0  0
 18 37  1  0  0  0  0
 20 22  1  0  0  0  0
 20 38  1  0  0  0  0
 21 22  2  0  0  0  0
 23 39  1  0  0  0  0
 23 40  1  0  0  0  0
 24 41  1  0  0  0  0
 24 42  1  0  0  0  0
 24 43  1  0  0  0  0
 25 44  1  0  0  0  0
 25 45  1  0  0  0  0
 25 46  1  0  0  0  0
M  END
> <PUBCHEM_COMPOUND_CID>
197001

> <PUBCHEM_COMPOUND_CANONICALIZED>
1

> <PUBCHEM_CACTVS_COMPLEXITY>
502

> <PUBCHEM_CACTVS_HBOND_ACCEPTOR>
5

> <PUBCHEM_CACTVS_HBOND_DONOR>
0

> <PUBCHEM_CACTVS_ROTATABLE_BOND>
2

> <PUBCHEM_CACTVS_SUBSKEYS>
AAADceB6OAAAAAAAAAAAAAAAAAAAASAAAAA8YMEAAAAAAEjxQAAAHgAAAAAADCzBmAcyDoMABACAAiBCAACCCAAgIAAAiAAOjIgdJiKEsRukMCpkwBGOqAew8P8OoAADAAAYQADQAAaAADSAAAAAAAAAAA==

> <PUBCHEM_IUPAC_INCHI>
InChI=1S/C20H21NO4/c1-21-5-4-11-7-17(22-2)20(23-3)19-13-9-16-15(24-10-25-16)8-12(13)6-14(21)18(11)19/h7-9,14H,4-6,10H2,1-3H3/t14-/m0/s1

> <PUBCHEM_IUPAC_INCHIKEY>
WSVWKHTVFGTTKJ-AWEZNQCLSA-N

> <PUBCHEM_XLOGP3_AA>
3.2

> <PUBCHEM_EXACT_MASS>
339.147058

> <PUBCHEM_MOLECULAR_FORMULA>
C20H21NO4

> <PUBCHEM_MOLECULAR_WEIGHT>
339.38504

> <PUBCHEM_OPENEYE_CAN_SMILES>
CN1CCC2=CC(=C(C3=C2C1CC4=CC5=C(C=C43)OCO5)OC)OC

> <PUBCHEM_OPENEYE_ISO_SMILES>
CN1CCC2=CC(=C(C3=C2[C@@H]1CC4=CC5=C(C=C43)OCO5)OC)OC

> <PUBCHEM_CACTVS_TPSA>
40.2

> <PUBCHEM_MONOISOTOPIC_WEIGHT>
339.147058

> <PUBCHEM_TOTAL_CHARGE>
0

> <PUBCHEM_HEAVY_ATOM_COUNT>
25

> <PUBCHEM_ATOM_DEF_STEREO_COUNT>
1

> <PUBCHEM_ATOM_UDEF_STEREO_COUNT>
0

> <PUBCHEM_BOND_DEF_STEREO_COUNT>
0

> <PUBCHEM_BOND_UDEF_STEREO_COUNT>
0

> <PUBCHEM_ISOTOPIC_ATOM_COUNT>
0

> <PUBCHEM_COMPONENT_COUNT>
1

> <PUBCHEM_CACTVS_TAUTO_COUNT>
1

> <PUBCHEM_COORDINATE_TYPE>
1
5
255

> <PUBCHEM_BONDANNOTATIONS>
10  15  8
13  14  8
13  18  8
14  20  8
15  19  8
16  19  8
18  21  8
20  22  8
21  22  8
6  26  5
7  10  8
7  9  8
9  16  8

$$$$

