440557
  -OEChem-07051212503D

 72 75  0     1  0  0  0  0  0999 V2000
   -7.7557   -0.2679   -1.0866 O   0  0  0  0  0  0  0  0  0  0  0  0
    0.7534    0.5117    0.6636 C   0  0  1  0  0  0  0  0  0  0  0  0
    0.1373   -0.8331    0.2240 C   0  0  2  0  0  0  0  0  0  0  0  0
   -2.0573    0.3142   -0.3996 C   0  0  2  0  0  0  0  0  0  0  0  0
   -3.6131    0.3892   -0.1237 C   0  0  2  0  0  0  0  0  0  0  0  0
    2.2528    0.2025    0.4312 C   0  0  2  0  0  0  0  0  0  0  0  0
   -1.3670   -0.8479    0.3301 C   0  0  0  0  0  0  0  0  0  0  0  0
    0.1933    1.6084   -0.2574 C   0  0  0  0  0  0  0  0  0  0  0  0
   -1.3399    1.6778   -0.1783 C   0  0  0  0  0  0  0  0  0  0  0  0
   -4.1739   -1.0644   -0.2007 C   0  0  1  0  0  0  0  0  0  0  0  0
    1.0123   -1.8695    0.9361 C   0  0  0  0  0  0  0  0  0  0  0  0
    2.4190   -1.2457    0.9415 C   0  0  0  0  0  0  0  0  0  0  0  0
   -4.3038    1.2460   -1.2201 C   0  0  0  0  0  0  0  0  0  0  0  0
    3.2482    1.1691    1.0577 C   0  0  1  0  0  0  0  0  0  0  0  0
    0.4669    0.8577    2.1460 C   0  0  0  0  0  0  0  0  0  0  0  0
   -3.5495   -1.9618    0.8783 C   0  0  0  0  0  0  0  0  0  0  0  0
   -2.0558   -1.8393    0.9223 C   0  0  0  0  0  0  0  0  0  0  0  0
   -5.7064   -1.1342   -0.1548 C   0  0  0  0  0  0  0  0  0  0  0  0
   -3.9068    1.0240    1.2625 C   0  0  0  0  0  0  0  0  0  0  0  0
   -5.8299    1.1795   -1.1681 C   0  0  0  0  0  0  0  0  0  0  0  0
   -6.3395   -0.2562   -1.2323 C   0  0  2  0  0  0  0  0  0  0  0  0
    4.7146    0.7948    0.7487 C   0  0  0  0  0  0  0  0  0  0  0  0
    2.9743    2.5940    0.5611 C   0  0  0  0  0  0  0  0  0  0  0  0
    5.0961    0.8131   -0.7382 C   0  0  0  0  0  0  0  0  0  0  0  0
    6.5477    0.4972   -0.9690 C   0  0  0  0  0  0  0  0  0  0  0  0
    7.1339   -0.7102   -1.0772 C   0  0  0  0  0  0  0  0  0  0  0  0
    8.6172   -0.8146   -1.3173 C   0  0  0  0  0  0  0  0  0  0  0  0
    6.4318   -2.0346   -0.9801 C   0  0  0  0  0  0  0  0  0  0  0  0
    0.3396   -0.9700   -0.8522 H   0  0  0  0  0  0  0  0  0  0  0  0
   -1.9301    0.0798   -1.4684 H   0  0  0  0  0  0  0  0  0  0  0  0
    2.4134    0.1814   -0.6558 H   0  0  0  0  0  0  0  0  0  0  0  0
    0.4842    1.4180   -1.2984 H   0  0  0  0  0  0  0  0  0  0  0  0
    0.5516    2.6065   -0.0094 H   0  0  0  0  0  0  0  0  0  0  0  0
   -1.6031    2.1025    0.7952 H   0  0  0  0  0  0  0  0  0  0  0  0
   -1.6893    2.3977   -0.9279 H   0  0  0  0  0  0  0  0  0  0  0  0
   -3.8772   -1.4782   -1.1779 H   0  0  0  0  0  0  0  0  0  0  0  0
    1.0049   -2.8343    0.4180 H   0  0  0  0  0  0  0  0  0  0  0  0
    0.6827   -2.0450    1.9666 H   0  0  0  0  0  0  0  0  0  0  0  0
    2.8336   -1.2855    1.9552 H   0  0  0  0  0  0  0  0  0  0  0  0
    3.0939   -1.8086    0.2880 H   0  0  0  0  0  0  0  0  0  0  0  0
   -3.9785    0.9038   -2.2113 H   0  0  0  0  0  0  0  0  0  0  0  0
   -3.9969    2.2955   -1.1401 H   0  0  0  0  0  0  0  0  0  0  0  0
    3.1497    1.1638    2.1503 H   0  0  0  0  0  0  0  0  0  0  0  0
   -0.5997    0.8008    2.3848 H   0  0  0  0  0  0  0  0  0  0  0  0
    0.9751    0.1770    2.8368 H   0  0  0  0  0  0  0  0  0  0  0  0
    0.7908    1.8722    2.3956 H   0  0  0  0  0  0  0  0  0  0  0  0
   -3.8066   -3.0061    0.6612 H   0  0  0  0  0  0  0  0  0  0  0  0
   -3.9572   -1.7380    1.8708 H   0  0  0  0  0  0  0  0  0  0  0  0
   -1.5326   -2.6502    1.4201 H   0  0  0  0  0  0  0  0  0  0  0  0
   -6.0387   -2.1704   -0.3004 H   0  0  0  0  0  0  0  0  0  0  0  0
   -6.0877   -0.8527    0.8342 H   0  0  0  0  0  0  0  0  0  0  0  0
   -4.9467    0.8868    1.5719 H   0  0  0  0  0  0  0  0  0  0  0  0
   -3.2775    0.6003    2.0514 H   0  0  0  0  0  0  0  0  0  0  0  0
   -3.7329    2.1056    1.2512 H   0  0  0  0  0  0  0  0  0  0  0  0
   -6.2046    1.6737   -0.2633 H   0  0  0  0  0  0  0  0  0  0  0  0
   -6.2525    1.7523   -2.0030 H   0  0  0  0  0  0  0  0  0  0  0  0
   -6.1143   -0.6764   -2.2195 H   0  0  0  0  0  0  0  0  0  0  0  0
    4.9322   -0.1952    1.1685 H   0  0  0  0  0  0  0  0  0  0  0  0
    5.3713    1.4904    1.2894 H   0  0  0  0  0  0  0  0  0  0  0  0
    2.7700    2.6367   -0.5131 H   0  0  0  0  0  0  0  0  0  0  0  0
    2.1636    3.0673    1.1183 H   0  0  0  0  0  0  0  0  0  0  0  0
    3.8463    3.2342    0.7443 H   0  0  0  0  0  0  0  0  0  0  0  0
    4.8980    1.7985   -1.1746 H   0  0  0  0  0  0  0  0  0  0  0  0
    4.4834    0.1053   -1.3055 H   0  0  0  0  0  0  0  0  0  0  0  0
   -7.9702    0.1037   -0.2139 H   0  0  0  0  0  0  0  0  0  0  0  0
    7.1825    1.3797   -1.0448 H   0  0  0  0  0  0  0  0  0  0  0  0
    9.1002    0.1658   -1.3858 H   0  0  0  0  0  0  0  0  0  0  0  0
    9.0955   -1.3633   -0.4992 H   0  0  0  0  0  0  0  0  0  0  0  0
    8.8127   -1.3466   -2.2541 H   0  0  0  0  0  0  0  0  0  0  0  0
    6.8535   -2.6269   -0.1614 H   0  0  0  0  0  0  0  0  0  0  0  0
    5.3602   -1.9333   -0.7918 H   0  0  0  0  0  0  0  0  0  0  0  0
    6.5521   -2.5960   -1.9123 H   0  0  0  0  0  0  0  0  0  0  0  0
  1 21  1  0  0  0  0
  1 65  1  0  0  0  0
  2  3  1  0  0  0  0
  2  6  1  0  0  0  0
  2  8  1  0  0  0  0
  2 15  1  0  0  0  0
  3  7  1  0  0  0  0
  3 11  1  0  0  0  0
  3 29  1  0  0  0  0
  4  5  1  0  0  0  0
  4  7  1  0  0  0  0
  4  9  1  0  0  0  0
  4 30  1  0  0  0  0
  5 10  1  0  0  0  0
  5 13  1  0  0  0  0
  5 19  1  0  0  0  0
  6 12  1  0  0  0  0
  6 14  1  0  0  0  0
  6 31  1  0  0  0  0
  7 17  2  0  0  0  0
  8  9  1  0  0  0  0
  8 32  1  0  0  0  0
  8 33  1  0  0  0  0
  9 34  1  0  0  0  0
  9 35  1  0  0  0  0
 10 16  1  0  0  0  0
 10 18  1  0  0  0  0
 10 36  1  0  0  0  0
 11 12  1  0  0  0  0
 11 37  1  0  0  0  0
 11 38  1  0  0  0  0
 12 39  1  0  0  0  0
 12 40  1  0  0  0  0
 13 20  1  0  0  0  0
 13 41  1  0  0  0  0
 13 42  1  0  0  0  0
 14 22  1  0  0  0  0
 14 23  1  0  0  0  0
 14 43  1  0  0  0  0
 15 44  1  0  0  0  0
 15 45  1  0  0  0  0
 15 46  1  0  0  0  0
 16 17  1  0  0  0  0
 16 47  1  0  0  0  0
 16 48  1  0  0  0  0
 17 49  1  0  0  0  0
 18 21  1  0  0  0  0
 18 50  1  0  0  0  0
 18 51  1  0  0  0  0
 19 52  1  0  0  0  0
 19 53  1  0  0  0  0
 19 54  1  0  0  0  0
 20 21  1  0  0  0  0
 20 55  1  0  0  0  0
 20 56  1  0  0  0  0
 21 57  1  0  0  0  0
 22 24  1  0  0  0  0
 22 58  1  0  0  0  0
 22 59  1  0  0  0  0
 23 60  1  0  0  0  0
 23 61  1  0  0  0  0
 23 62  1  0  0  0  0
 24 25  1  0  0  0  0
 24 63  1  0  0  0  0
 24 64  1  0  0  0  0
 25 26  2  0  0  0  0
 25 66  1  0  0  0  0
 26 27  1  0  0  0  0
 26 28  1  0  0  0  0
 27 67  1  0  0  0  0
 27 68  1  0  0  0  0
 27 69  1  0  0  0  0
 28 70  1  0  0  0  0
 28 71  1  0  0  0  0
 28 72  1  0  0  0  0
M  END
> <PUBCHEM_COMPOUND_CID>
440557

> <PUBCHEM_CONFORMER_RMSD>
0.8

> <PUBCHEM_CONFORMER_DIVERSEORDER>
7
15
8
10
14
24
12
19
20
6
13
18
27
1
21
2
26
16
5
22
23
9
3
4
17
11
25

> <PUBCHEM_MMFF94_PARTIAL_CHARGES>
15
1 -0.68
16 0.14
17 -0.29
21 0.28
24 0.14
25 -0.29
26 -0.28
27 0.14
28 0.14
3 0.14
4 0.14
49 0.15
65 0.4
66 0.15
7 -0.28

> <PUBCHEM_EFFECTIVE_ROTOR_COUNT>
6

> <PUBCHEM_PHARMACOPHORE_FEATURES>
9
1 1 acceptor
1 1 donor
1 23 hydrophobe
3 26 27 28 hydrophobe
4 14 22 24 25 hydrophobe
5 2 3 6 11 12 rings
6 2 3 4 7 8 9 rings
6 4 5 7 10 16 17 rings
6 5 10 13 18 20 21 rings

> <PUBCHEM_HEAVY_ATOM_COUNT>
28

> <PUBCHEM_ATOM_DEF_STEREO_COUNT>
7

> <PUBCHEM_ATOM_UDEF_STEREO_COUNT>
1

> <PUBCHEM_BOND_DEF_STEREO_COUNT>
0

> <PUBCHEM_BOND_UDEF_STEREO_COUNT>
0

> <PUBCHEM_ISOTOPIC_ATOM_COUNT>
0

> <PUBCHEM_COMPONENT_COUNT>
1

> <PUBCHEM_CACTVS_TAUTO_COUNT>
1

> <PUBCHEM_CONFORMER_ID>
0006B8ED00000007

> <PUBCHEM_MMFF94_ENERGY>
82.4416

> <PUBCHEM_FEATURE_SELFOVERLAP>
45.769

> <PUBCHEM_SHAPE_FINGERPRINT>
106641 1 9439399129704717758
10670039 82 18341331184015627292
10693767 8 18187369869856447558
10835480 77 18337950079398772916
11578080 2 17058948842400068287
12011746 2 18411143511190400113
12166972 35 14996570547206915529
12236239 1 14707204384049262179
12670543 26 18411698794711613558
12760667 363 17676199195983064386
12954195 1 18334852870358326464
13540713 4 18124311602344745200
13685833 64 16805604767991759524
13782708 43 17821729399146272998
13811026 1 18335421258330746188
14251764 18 7348884490485711216
14294032 229 17845658199667392836
14840074 17 15339125623522677719
14856354 85 15697991904003557715
14931854 50 18339654403561630149
15183329 4 18341609343941586922
15196674 1 18271538563077917587
1813 80 14635137998377232288
2026 5 17168417272819435094
21267235 1 18340763754780055299
21279426 13 18411980243971333040
21315764 119 18131345328615033742
21344244 246 17531521083613692678
21637258 2 16225767423963823304
21682296 61 17894903058058885030
21781051 124 18130503055226380962
21792961 116 18341888610799049954
221357 26 18408323294157038848
2215653 11 18334858312260660230
22393880 68 18341618070671807818
23559900 14 18410015399112026448
23569914 152 17394742012736536164
23569943 247 17896876749787093302
23576562 1 17631444562415729340
3004659 81 18343015589675970308
335352 9 18343305850884495020
3545911 37 18343308041987774377
4058900 60 17704070737209729154
4325135 7 17704355467713198742
437815 12 18259699008932759376
445580 37 18060419135878177165
5104073 3 18201731673684507457
9953998 17 9871745784648334685

> <PUBCHEM_SHAPE_MULTIPOLES>
570.36
19.68
2.12
1.45
16.5
0.04
-0.17
4.18
12.68
0.56
-0.31
0.19
-0.09
1.55

> <PUBCHEM_SHAPE_SELFOVERLAP>
1186.441

> <PUBCHEM_SHAPE_VOLUME>
324

> <PUBCHEM_COORDINATE_TYPE>
2
5
10

$$$$

