168927
  -OEChem-07051212563D

 84 96  0     1  0  0  0  0  0999 V2000
    0.0511   -1.7770    1.7596 O   0  0  0  0  0  0  0  0  0  0  0  0
   -0.0513    1.7797    1.7575 O   0  0  0  0  0  0  0  0  0  0  0  0
   -0.9758   -1.1456   -0.3052 N   0  0  1  0  0  0  0  0  0  0  0  0
    0.9762    1.1459   -0.3063 N   0  0  1  0  0  0  0  0  0  0  0  0
    4.8664   -0.6536    1.2865 N   0  0  1  0  0  0  0  0  0  0  0  0
   -4.8663    0.6557    1.2854 N   0  0  1  0  0  0  0  0  0  0  0  0
   -3.3227   -0.6032   -0.0547 C   0  0  2  0  0  0  0  0  0  0  0  0
    3.3230    0.6033   -0.0557 C   0  0  2  0  0  0  0  0  0  0  0  0
   -1.8527   -0.1578    0.3430 C   0  0  2  0  0  0  0  0  0  0  0  0
    1.8530    0.1587    0.3430 C   0  0  2  0  0  0  0  0  0  0  0  0
   -1.4931    1.2708   -0.1773 C   0  0  1  0  0  0  0  0  0  0  0  0
    1.4932   -1.2705   -0.1754 C   0  0  1  0  0  0  0  0  0  0  0  0
    4.3860   -0.5088   -0.1115 C   0  0  2  0  0  0  0  0  0  0  0  0
   -4.3859    0.5086   -0.1124 C   0  0  2  0  0  0  0  0  0  0  0  0
   -2.6461    2.2596    0.1369 C   0  0  1  0  0  0  0  0  0  0  0  0
    2.6462   -2.2591    0.1406 C   0  0  1  0  0  0  0  0  0  0  0  0
    0.1438   -1.8312    0.3330 C   0  0  1  0  0  0  0  0  0  0  0  0
   -0.1438    1.8322    0.3308 C   0  0  1  0  0  0  0  0  0  0  0  0
    3.8539   -1.8134   -0.6937 C   0  0  0  0  0  0  0  0  0  0  0  0
   -3.8537    1.8121   -0.6969 C   0  0  0  0  0  0  0  0  0  0  0  0
   -3.9198   -1.5199    1.0197 C   0  0  0  0  0  0  0  0  0  0  0  0
    3.9206    1.5217    1.0172 C   0  0  0  0  0  0  0  0  0  0  0  0
   -3.0466   -1.3628   -1.3243 C   0  0  0  0  0  0  0  0  0  0  0  0
    3.0466    1.3605   -1.3266 C   0  0  0  0  0  0  0  0  0  0  0  0
   -4.4563   -0.5342    2.0467 C   0  0  0  0  0  0  0  0  0  0  0  0
    4.4568    0.5377    2.0459 C   0  0  0  0  0  0  0  0  0  0  0  0
   -1.6851   -1.6961   -1.3708 C   0  0  0  0  0  0  0  0  0  0  0  0
    1.6852    1.6943   -1.3732 C   0  0  0  0  0  0  0  0  0  0  0  0
   -3.0273    2.3040    1.6136 C   0  0  0  0  0  0  0  0  0  0  0  0
    3.0272   -2.3011    1.6174 C   0  0  0  0  0  0  0  0  0  0  0  0
    4.4588   -1.9135    1.9274 C   0  0  0  0  0  0  0  0  0  0  0  0
   -4.4590    1.9168    1.9241 C   0  0  0  0  0  0  0  0  0  0  0  0
   -3.9307   -1.7960   -2.3017 C   0  0  0  0  0  0  0  0  0  0  0  0
    3.9302    1.7911   -2.3055 C   0  0  0  0  0  0  0  0  0  0  0  0
   -2.1610    2.5845    2.6023 C   0  0  0  0  0  0  0  0  0  0  0  0
    2.1605   -2.5799    2.6064 C   0  0  0  0  0  0  0  0  0  0  0  0
    0.7041   -2.8560    2.4245 C   0  0  0  0  0  0  0  0  0  0  0  0
   -0.7043    2.8597    2.4207 C   0  0  0  0  0  0  0  0  0  0  0  0
   -1.1998   -2.4913   -2.3998 C   0  0  0  0  0  0  0  0  0  0  0  0
    1.1996    2.4877   -2.4035 C   0  0  0  0  0  0  0  0  0  0  0  0
   -3.4368   -2.5776   -3.3459 C   0  0  0  0  0  0  0  0  0  0  0  0
    3.4360    2.5704   -3.3513 C   0  0  0  0  0  0  0  0  0  0  0  0
   -2.0811   -2.9265   -3.3926 C   0  0  0  0  0  0  0  0  0  0  0  0
    2.0805    2.9201   -3.3978 C   0  0  0  0  0  0  0  0  0  0  0  0
   -1.7323   -0.1876    1.4306 H   0  0  0  0  0  0  0  0  0  0  0  0
    1.7327    0.1901    1.4306 H   0  0  0  0  0  0  0  0  0  0  0  0
   -1.4091    1.2212   -1.2734 H   0  0  0  0  0  0  0  0  0  0  0  0
    1.4096   -1.2226   -1.2716 H   0  0  0  0  0  0  0  0  0  0  0  0
    5.2495   -0.1894   -0.7076 H   0  0  0  0  0  0  0  0  0  0  0  0
   -5.2493    0.1882   -0.7080 H   0  0  0  0  0  0  0  0  0  0  0  0
   -2.3729    3.2703   -0.1925 H   0  0  0  0  0  0  0  0  0  0  0  0
    2.3727   -3.2704   -0.1871 H   0  0  0  0  0  0  0  0  0  0  0  0
    0.0752   -2.8879    0.0423 H   0  0  0  0  0  0  0  0  0  0  0  0
   -0.0750    2.8885    0.0387 H   0  0  0  0  0  0  0  0  0  0  0  0
    4.6346   -2.5853   -0.6903 H   0  0  0  0  0  0  0  0  0  0  0  0
    3.5748   -1.6778   -1.7460 H   0  0  0  0  0  0  0  0  0  0  0  0
   -4.6344    2.5840   -0.6951 H   0  0  0  0  0  0  0  0  0  0  0  0
   -3.5744    1.6747   -1.7490 H   0  0  0  0  0  0  0  0  0  0  0  0
   -3.1936   -2.2135    1.4575 H   0  0  0  0  0  0  0  0  0  0  0  0
   -4.7462   -2.1180    0.6131 H   0  0  0  0  0  0  0  0  0  0  0  0
    3.1945    2.2163    1.4536 H   0  0  0  0  0  0  0  0  0  0  0  0
    4.7472    2.1188    0.6093 H   0  0  0  0  0  0  0  0  0  0  0  0
   -5.3057   -0.9551    2.5941 H   0  0  0  0  0  0  0  0  0  0  0  0
   -3.6712   -0.3092    2.7788 H   0  0  0  0  0  0  0  0  0  0  0  0
    5.3062    0.9593    2.5926 H   0  0  0  0  0  0  0  0  0  0  0  0
    3.6716    0.3142    2.7784 H   0  0  0  0  0  0  0  0  0  0  0  0
    4.6443   -1.8593    3.0080 H   0  0  0  0  0  0  0  0  0  0  0  0
    5.1186   -2.7156    1.5717 H   0  0  0  0  0  0  0  0  0  0  0  0
   -4.6447    1.8644    3.0047 H   0  0  0  0  0  0  0  0  0  0  0  0
   -5.1188    2.7182    1.5667 H   0  0  0  0  0  0  0  0  0  0  0  0
   -4.9873   -1.5566   -2.2561 H   0  0  0  0  0  0  0  0  0  0  0  0
    4.9868    1.5513   -2.2600 H   0  0  0  0  0  0  0  0  0  0  0  0
   -2.5173    2.5848    3.6301 H   0  0  0  0  0  0  0  0  0  0  0  0
    2.5164   -2.5785    3.6343 H   0  0  0  0  0  0  0  0  0  0  0  0
    0.5260   -3.8183    1.9311 H   0  0  0  0  0  0  0  0  0  0  0  0
    0.2451   -2.9260    3.4169 H   0  0  0  0  0  0  0  0  0  0  0  0
   -0.5257    3.8214    1.9264 H   0  0  0  0  0  0  0  0  0  0  0  0
   -0.2458    2.9307    3.4134 H   0  0  0  0  0  0  0  0  0  0  0  0
   -0.1515   -2.7663   -2.4560 H   0  0  0  0  0  0  0  0  0  0  0  0
    0.1514    2.7631   -2.4596 H   0  0  0  0  0  0  0  0  0  0  0  0
   -4.1101   -2.9297   -4.1226 H   0  0  0  0  0  0  0  0  0  0  0  0
    4.1090    2.9203   -4.1292 H   0  0  0  0  0  0  0  0  0  0  0  0
   -1.7123   -3.5421   -4.2085 H   0  0  0  0  0  0  0  0  0  0  0  0
    1.7115    3.5340   -4.2148 H   0  0  0  0  0  0  0  0  0  0  0  0
  1 17  1  0  0  0  0
  1 37  1  0  0  0  0
  2 18  1  0  0  0  0
  2 38  1  0  0  0  0
  3  9  1  0  0  0  0
  3 17  1  0  0  0  0
  3 27  1  0  0  0  0
  4 10  1  0  0  0  0
  4 18  1  0  0  0  0
  4 28  1  0  0  0  0
  5 13  1  0  0  0  0
  5 26  1  0  0  0  0
  5 31  1  0  0  0  0
  6 14  1  0  0  0  0
  6 25  1  0  0  0  0
  6 32  1  0  0  0  0
  7  9  1  0  0  0  0
  7 14  1  0  0  0  0
  7 21  1  0  0  0  0
  7 23  1  0  0  0  0
  8 10  1  0  0  0  0
  8 13  1  0  0  0  0
  8 22  1  0  0  0  0
  8 24  1  0  0  0  0
  9 11  1  0  0  0  0
  9 45  1  0  0  0  0
 10 12  1  0  0  0  0
 10 46  1  0  0  0  0
 11 15  1  0  0  0  0
 11 18  1  0  0  0  0
 11 47  1  0  0  0  0
 12 16  1  0  0  0  0
 12 17  1  0  0  0  0
 12 48  1  0  0  0  0
 13 19  1  0  0  0  0
 13 49  1  0  0  0  0
 14 20  1  0  0  0  0
 14 50  1  0  0  0  0
 15 20  1  0  0  0  0
 15 29  1  0  0  0  0
 15 51  1  0  0  0  0
 16 19  1  0  0  0  0
 16 30  1  0  0  0  0
 16 52  1  0  0  0  0
 17 53  1  0  0  0  0
 18 54  1  0  0  0  0
 19 55  1  0  0  0  0
 19 56  1  0  0  0  0
 20 57  1  0  0  0  0
 20 58  1  0  0  0  0
 21 25  1  0  0  0  0
 21 59  1  0  0  0  0
 21 60  1  0  0  0  0
 22 26  1  0  0  0  0
 22 61  1  0  0  0  0
 22 62  1  0  0  0  0
 23 27  1  0  0  0  0
 23 33  2  0  0  0  0
 24 28  1  0  0  0  0
 24 34  2  0  0  0  0
 25 63  1  0  0  0  0
 25 64  1  0  0  0  0
 26 65  1  0  0  0  0
 26 66  1  0  0  0  0
 27 39  2  0  0  0  0
 28 40  2  0  0  0  0
 29 32  1  0  0  0  0
 29 35  2  0  0  0  0
 30 31  1  0  0  0  0
 30 36  2  0  0  0  0
 31 67  1  0  0  0  0
 31 68  1  0  0  0  0
 32 69  1  0  0  0  0
 32 70  1  0  0  0  0
 33 41  1  0  0  0  0
 33 71  1  0  0  0  0
 34 42  1  0  0  0  0
 34 72  1  0  0  0  0
 35 38  1  0  0  0  0
 35 73  1  0  0  0  0
 36 37  1  0  0  0  0
 36 74  1  0  0  0  0
 37 75  1  0  0  0  0
 37 76  1  0  0  0  0
 38 77  1  0  0  0  0
 38 78  1  0  0  0  0
 39 43  1  0  0  0  0
 39 79  1  0  0  0  0
 40 44  1  0  0  0  0
 40 80  1  0  0  0  0
 41 43  2  0  0  0  0
 41 81  1  0  0  0  0
 42 44  2  0  0  0  0
 42 82  1  0  0  0  0
 43 83  1  0  0  0  0
 44 84  1  0  0  0  0
M  END
> <PUBCHEM_COMPOUND_CID>
168927

> <PUBCHEM_CONFORMER_RMSD>
0.8

> <PUBCHEM_CONFORMER_DIVERSEORDER>
1

> <PUBCHEM_MMFF94_PARTIAL_CHARGES>
48
1 -0.56
10 0.37
13 0.27
14 0.27
15 0.14
16 0.14
17 0.65
18 0.65
2 -0.56
23 -0.14
24 -0.14
25 0.27
26 0.27
27 0.1
28 0.1
29 -0.28
3 -0.84
30 -0.28
31 0.41
32 0.41
33 -0.15
34 -0.15
35 -0.29
36 -0.29
37 0.42
38 0.42
39 -0.15
4 -0.84
40 -0.15
41 -0.15
42 -0.15
43 -0.15
44 -0.15
5 -0.81
6 -0.81
7 0.14
71 0.15
72 0.15
73 0.15
74 0.15
79 0.15
8 0.14
80 0.15
81 0.15
82 0.15
83 0.15
84 0.15
9 0.37

> <PUBCHEM_EFFECTIVE_ROTOR_COUNT>
2.4

> <PUBCHEM_PHARMACOPHORE_FEATURES>
18
1 1 acceptor
1 2 acceptor
1 3 cation
1 4 cation
1 5 cation
1 6 cation
5 3 7 9 23 27 rings
5 4 8 10 24 28 rings
5 5 8 13 22 26 rings
5 6 7 14 21 25 rings
6 23 27 33 39 41 43 rings
6 24 28 34 40 42 44 rings
6 5 13 16 19 30 31 rings
6 6 14 15 20 29 32 rings
6 7 9 11 14 15 20 rings
6 8 10 12 13 16 19 rings
7 1 12 16 17 30 36 37 rings
7 2 11 15 18 29 35 38 rings

> <PUBCHEM_HEAVY_ATOM_COUNT>
44

> <PUBCHEM_ATOM_DEF_STEREO_COUNT>
12

> <PUBCHEM_ATOM_UDEF_STEREO_COUNT>
0

> <PUBCHEM_BOND_DEF_STEREO_COUNT>
0

> <PUBCHEM_BOND_UDEF_STEREO_COUNT>
0

> <PUBCHEM_ISOTOPIC_ATOM_COUNT>
0

> <PUBCHEM_COMPONENT_COUNT>
1

> <PUBCHEM_CACTVS_TAUTO_COUNT>
1

> <PUBCHEM_CONFORMER_ID>
000293DF00000001

> <PUBCHEM_MMFF94_ENERGY>
202.0871

> <PUBCHEM_FEATURE_SELFOVERLAP>
95.605

> <PUBCHEM_SHAPE_FINGERPRINT>
10032420 55 17466523208497433008
10369192 42 15766642030219232060
11049842 53 17393570985550811100
11135926 11 17632015244323217452
11445158 3 17203313495225102718
11513181 2 17316767886748143815
11578080 2 17762670283154199116
12422481 6 18266461103473033321
12788726 201 18115303359117785887
13224815 77 18410856602589463114
15297060 5 17242722341211173561
17349148 13 18272653441587053840
17818456 19 18041842929760295862
19319366 153 18341041935379868939
20511986 3 18338531818710299977
20691752 17 17988096590040446210
20739085 24 18129658733391034370
20764821 26 17547572574145339947
21033648 29 17096946869092321427
21987440 362 17392467106294677584
244849 19 15410629034189537852
392239 28 18042705952273418752
463206 1 17973180438651042159
469060 322 17917438673908869160
46939830 39 14942186893673692353
50150288 127 17762576691637363947

> <PUBCHEM_SHAPE_MULTIPOLES>
873.84
9.6
4.06
3.71
0
0
2.05
0
-1.42
-0.01
0.82
0.01
0
-5.58

> <PUBCHEM_SHAPE_SELFOVERLAP>
2038.774

> <PUBCHEM_SHAPE_VOLUME>
432.5

> <PUBCHEM_COORDINATE_TYPE>
2
5
10

$$$$

