5953
  -OEChem-07051212513D

 48 51  0     1  0  0  0  0  0999 V2000
   -0.2792    1.2461   -2.6836 O   0  0  0  0  0  0  0  0  0  0  0  0
    3.5515   -2.7586   -0.3480 O   0  0  0  0  0  0  0  0  0  0  0  0
   -1.5891   -0.0301    0.5753 N   0  0  1  0  0  0  0  0  0  0  0  0
    2.7129    2.5347    1.0092 N   0  0  0  0  0  0  0  0  0  0  0  0
   -3.6093   -0.8849   -0.8225 C   0  0  2  0  0  0  0  0  0  0  0  0
   -1.5926    0.6150   -0.7646 C   0  0  2  0  0  0  0  0  0  0  0  0
   -2.6785   -0.0007   -1.6744 C   0  0  0  0  0  0  0  0  0  0  0  0
   -4.0899   -0.0369    0.3803 C   0  0  2  0  0  0  0  0  0  0  0  0
   -2.7538   -2.0573   -0.3100 C   0  0  0  0  0  0  0  0  0  0  0  0
   -2.8631    0.3106    1.2592 C   0  0  0  0  0  0  0  0  0  0  0  0
   -1.5345   -1.5044    0.4449 C   0  0  0  0  0  0  0  0  0  0  0  0
   -0.2131    0.5817   -1.4255 C   0  0  2  0  0  0  0  0  0  0  0  0
   -5.1665   -0.7138    1.1735 C   0  0  0  0  0  0  0  0  0  0  0  0
    0.8381    1.2373   -0.5655 C   0  0  0  0  0  0  0  0  0  0  0  0
   -6.3978   -0.2190    1.3386 C   0  0  0  0  0  0  0  0  0  0  0  0
    1.9699    0.5462   -0.1317 C   0  0  0  0  0  0  0  0  0  0  0  0
    0.6364    2.5608   -0.2222 C   0  0  0  0  0  0  0  0  0  0  0  0
    2.8983    1.2455    0.6679 C   0  0  0  0  0  0  0  0  0  0  0  0
    2.1955   -0.7990   -0.4692 C   0  0  0  0  0  0  0  0  0  0  0  0
    1.5995    3.1605    0.5637 C   0  0  0  0  0  0  0  0  0  0  0  0
    4.0307    0.5636    1.1047 C   0  0  0  0  0  0  0  0  0  0  0  0
    3.3367   -1.4563   -0.0188 C   0  0  0  0  0  0  0  0  0  0  0  0
    4.2552   -0.7740    0.7693 C   0  0  0  0  0  0  0  0  0  0  0  0
    4.7428   -3.3669    0.1494 C   0  0  0  0  0  0  0  0  0  0  0  0
   -4.4492   -1.2501   -1.4240 H   0  0  0  0  0  0  0  0  0  0  0  0
   -1.8789    1.6681   -0.6334 H   0  0  0  0  0  0  0  0  0  0  0  0
   -2.2433   -0.6055   -2.4796 H   0  0  0  0  0  0  0  0  0  0  0  0
   -3.2583    0.7987   -2.1521 H   0  0  0  0  0  0  0  0  0  0  0  0
   -4.4906    0.9051   -0.0219 H   0  0  0  0  0  0  0  0  0  0  0  0
   -2.4147   -2.6675   -1.1562 H   0  0  0  0  0  0  0  0  0  0  0  0
   -3.3374   -2.7175    0.3402 H   0  0  0  0  0  0  0  0  0  0  0  0
   -2.8720    1.3838    1.4916 H   0  0  0  0  0  0  0  0  0  0  0  0
   -2.8977   -0.1928    2.2345 H   0  0  0  0  0  0  0  0  0  0  0  0
   -1.4864   -1.9563    1.4440 H   0  0  0  0  0  0  0  0  0  0  0  0
   -0.6120   -1.8232   -0.0490 H   0  0  0  0  0  0  0  0  0  0  0  0
    0.0091   -0.4487   -1.6896 H   0  0  0  0  0  0  0  0  0  0  0  0
   -4.9303   -1.6579    1.6576 H   0  0  0  0  0  0  0  0  0  0  0  0
    0.6275    1.3497   -3.0196 H   0  0  0  0  0  0  0  0  0  0  0  0
   -7.1301   -0.7557    1.9319 H   0  0  0  0  0  0  0  0  0  0  0  0
   -6.6978    0.7213    0.8898 H   0  0  0  0  0  0  0  0  0  0  0  0
   -0.2192    3.1358   -0.5558 H   0  0  0  0  0  0  0  0  0  0  0  0
    1.5267   -1.3871   -1.0848 H   0  0  0  0  0  0  0  0  0  0  0  0
    1.5042    4.1986    0.8650 H   0  0  0  0  0  0  0  0  0  0  0  0
    4.7649    1.0770    1.7231 H   0  0  0  0  0  0  0  0  0  0  0  0
    5.1660   -1.2173    1.1573 H   0  0  0  0  0  0  0  0  0  0  0  0
    4.7514   -4.4015   -0.2089 H   0  0  0  0  0  0  0  0  0  0  0  0
    4.7469   -3.4071    1.2440 H   0  0  0  0  0  0  0  0  0  0  0  0
    5.6394   -2.8818   -0.2511 H   0  0  0  0  0  0  0  0  0  0  0  0
  1 12  1  0  0  0  0
  1 38  1  0  0  0  0
  2 22  1  0  0  0  0
  2 24  1  0  0  0  0
  3  6  1  0  0  0  0
  3 10  1  0  0  0  0
  3 11  1  0  0  0  0
  4 18  2  0  0  0  0
  4 20  1  0  0  0  0
  5  7  1  0  0  0  0
  5  8  1  0  0  0  0
  5  9  1  0  0  0  0
  5 25  1  0  0  0  0
  6  7  1  0  0  0  0
  6 12  1  0  0  0  0
  6 26  1  0  0  0  0
  7 27  1  0  0  0  0
  7 28  1  0  0  0  0
  8 10  1  0  0  0  0
  8 13  1  0  0  0  0
  8 29  1  0  0  0  0
  9 11  1  0  0  0  0
  9 30  1  0  0  0  0
  9 31  1  0  0  0  0
 10 32  1  0  0  0  0
 10 33  1  0  0  0  0
 11 34  1  0  0  0  0
 11 35  1  0  0  0  0
 12 14  1  0  0  0  0
 12 36  1  0  0  0  0
 13 15  2  0  0  0  0
 13 37  1  0  0  0  0
 14 16  2  0  0  0  0
 14 17  1  0  0  0  0
 15 39  1  0  0  0  0
 15 40  1  0  0  0  0
 16 18  1  0  0  0  0
 16 19  1  0  0  0  0
 17 20  2  0  0  0  0
 17 41  1  0  0  0  0
 18 21  1  0  0  0  0
 19 22  2  0  0  0  0
 19 42  1  0  0  0  0
 20 43  1  0  0  0  0
 21 23  2  0  0  0  0
 21 44  1  0  0  0  0
 22 23  1  0  0  0  0
 23 45  1  0  0  0  0
 24 46  1  0  0  0  0
 24 47  1  0  0  0  0
 24 48  1  0  0  0  0
M  END
> <PUBCHEM_COMPOUND_CID>
5953

> <PUBCHEM_CONFORMER_RMSD>
0.8

> <PUBCHEM_CONFORMER_DIVERSEORDER>
4
8
7
3
2
5
1
6

> <PUBCHEM_MMFF94_PARTIAL_CHARGES>
29
1 -0.68
10 0.27
11 0.27
12 0.42
13 -0.29
14 -0.14
15 -0.3
17 -0.15
18 0.31
19 -0.15
2 -0.36
20 0.16
21 -0.15
22 0.08
23 -0.15
24 0.28
3 -0.81
37 0.15
38 0.4
39 0.15
4 -0.62
40 0.15
41 0.15
42 0.15
43 0.15
44 0.15
45 0.15
6 0.27
8 0.14

> <PUBCHEM_EFFECTIVE_ROTOR_COUNT>
5.2

> <PUBCHEM_PHARMACOPHORE_FEATURES>
9
1 1 acceptor
1 1 donor
1 15 hydrophobe
1 2 acceptor
1 3 cation
1 4 acceptor
6 16 18 19 21 22 23 rings
6 4 14 16 17 18 20 rings
8 3 5 6 7 8 9 10 11 rings

> <PUBCHEM_HEAVY_ATOM_COUNT>
24

> <PUBCHEM_ATOM_DEF_STEREO_COUNT>
3

> <PUBCHEM_ATOM_UDEF_STEREO_COUNT>
1

> <PUBCHEM_BOND_DEF_STEREO_COUNT>
0

> <PUBCHEM_BOND_UDEF_STEREO_COUNT>
0

> <PUBCHEM_ISOTOPIC_ATOM_COUNT>
0

> <PUBCHEM_COMPONENT_COUNT>
1

> <PUBCHEM_CACTVS_TAUTO_COUNT>
1

> <PUBCHEM_CONFORMER_ID>
0000174100000004

> <PUBCHEM_MMFF94_ENERGY>
88.7152

> <PUBCHEM_FEATURE_SELFOVERLAP>
45.7

> <PUBCHEM_SHAPE_FINGERPRINT>
1100329 8 16682895189728060613
11140007 195 18131626777647912309
114674 6 18272653445961733938
11552529 35 17825397288369468415
11578080 2 16447336617383999144
11582403 64 15463065804327619948
12107183 9 18044928211244026137
12236239 1 17240766138247850896
12363563 72 16845022216507725789
12403259 327 18114174186361187785
12422481 6 17898267624044112305
12506688 2 18412548717184053724
12553582 1 18335140951100045102
12596602 18 16950851289039665330
12633257 1 18337677420807727162
12670546 177 11455895762696385417
12714826 92 17845939657526491340
13103583 49 17968932118994311178
13533116 47 18409162191295306723
13544653 18 18341336681831592526
13583140 156 17605853425322092833
13675066 3 18130224861915497713
13911852 28 18265897036918487311
14022347 108 16773795879167272369
14341114 176 18187078455739169264
14866123 147 17544196437956431346
15422964 175 18337686290601170780
15475509 84 17677049174063922088
15527383 91 18408882923594325272
15848702 151 18410578387714722683
16752209 62 15338854040435872313
17349148 13 17313095359340394593
173720 79 17167859764921236351
17492 89 18263646169207969263
17980427 23 16805614650574812081
1813 80 17561358491494885341
20715895 44 17532638226540926945
20775530 9 18199194056392647718
20832881 197 18340766056666170203
21033648 29 18200892694667962917
21756936 100 17102845418638033760
22182313 1 17774177755076107863
23559900 14 18336272223557170880
23622692 88 18186796976678617693
341906 21 14851604354105327131
3421961 26 18409448098583210850
345986 75 18189621707791491362
3472631 163 14562820914782866400
34797466 226 9151178628358046403
3737641 26 18117272773865240398
484985 159 17693093380806438290
56633871 153 18261392312326385015
6327066 14 8790009953281143602
633830 44 17753324266819757636
7097593 13 18187929434657584437
8272917 22 18262231114911750008
8509985 295 16950278512058581185
9709674 26 18340773624135282123

> <PUBCHEM_SHAPE_MULTIPOLES>
472.21
10.65
3
1.51
7.7
0.21
-0.63
6.07
5
-4.68
0.2
1.04
-0.44
0.55

> <PUBCHEM_SHAPE_SELFOVERLAP>
1030.065

> <PUBCHEM_SHAPE_VOLUME>
252.4

> <PUBCHEM_COORDINATE_TYPE>
2
5
10

$$$$

