11953932
  -OEChem-07051212573D

 57 58  0     1  0  0  0  0  0999 V2000
    1.2811   -1.4423   -1.5290 O   0  0  0  0  0  0  0  0  0  0  0  0
   -1.4807   -1.1298    0.1424 O   0  0  0  0  0  0  0  0  0  0  0  0
    1.6763    2.2530   -0.4245 O   0  0  0  0  0  0  0  0  0  0  0  0
    1.0313   -3.5731   -2.3475 O   0  0  0  0  0  0  0  0  0  0  0  0
   -3.4450   -1.4345    1.3044 O   0  0  0  0  0  0  0  0  0  0  0  0
    3.3499    2.1602   -2.0143 O   0  0  0  0  0  0  0  0  0  0  0  0
   -6.4326    1.6575   -0.8341 O   0  0  0  0  0  0  0  0  0  0  0  0
    0.7857   -1.8042    0.7888 C   0  0  2  0  0  0  0  0  0  0  0  0
   -0.6693   -1.5168    1.2493 C   0  0  1  0  0  0  0  0  0  0  0  0
    1.3640   -0.8072   -0.2336 C   0  0  1  0  0  0  0  0  0  0  0  0
   -0.7867   -0.4763    2.3909 C   0  0  0  0  0  0  0  0  0  0  0  0
    0.8684   -3.0752    0.0053 C   0  0  0  0  0  0  0  0  0  0  0  0
    2.8126   -0.4675    0.0367 C   0  0  0  0  0  0  0  0  0  0  0  0
   -0.1655    0.8729    2.0929 C   0  0  0  0  0  0  0  0  0  0  0  0
    3.3555    0.7111    0.4146 C   0  0  0  0  0  0  0  0  0  0  0  0
    1.0633   -2.7811   -1.4232 C   0  0  0  0  0  0  0  0  0  0  0  0
    2.6353    2.0396    0.6093 C   0  0  2  0  0  0  0  0  0  0  0  0
    1.9919    2.2412    1.9996 C   0  0  0  0  0  0  0  0  0  0  0  0
    1.1243    1.0880    2.4165 C   0  0  0  0  0  0  0  0  0  0  0  0
    0.8316   -4.3281    0.4664 C   0  0  0  0  0  0  0  0  0  0  0  0
   -1.0474    1.8587    1.3793 C   0  0  0  0  0  0  0  0  0  0  0  0
    4.8376    0.7782    0.6968 C   0  0  0  0  0  0  0  0  0  0  0  0
   -2.7946   -0.8938    0.4212 C   0  0  0  0  0  0  0  0  0  0  0  0
   -3.3329    0.1298   -0.5255 C   0  0  0  0  0  0  0  0  0  0  0  0
    2.1761    2.2907   -1.6946 C   0  0  0  0  0  0  0  0  0  0  0  0
   -2.7147    0.2319   -1.8885 C   0  0  0  0  0  0  0  0  0  0  0  0
   -4.3260    0.9044   -0.0505 C   0  0  0  0  0  0  0  0  0  0  0  0
    1.0611    2.5195   -2.6696 C   0  0  0  0  0  0  0  0  0  0  0  0
   -5.0507    1.9930   -0.7795 C   0  0  0  0  0  0  0  0  0  0  0  0
    1.4219   -1.8834    1.6798 H   0  0  0  0  0  0  0  0  0  0  0  0
   -1.0828   -2.4557    1.6448 H   0  0  0  0  0  0  0  0  0  0  0  0
    0.7492    0.0870   -0.3058 H   0  0  0  0  0  0  0  0  0  0  0  0
   -0.2907   -0.9056    3.2733 H   0  0  0  0  0  0  0  0  0  0  0  0
   -1.8206   -0.3202    2.7154 H   0  0  0  0  0  0  0  0  0  0  0  0
    3.4865   -1.3198   -0.0562 H   0  0  0  0  0  0  0  0  0  0  0  0
    3.3685    2.8529    0.5061 H   0  0  0  0  0  0  0  0  0  0  0  0
    1.4195    3.1749    2.0111 H   0  0  0  0  0  0  0  0  0  0  0  0
    2.7811    2.3544    2.7537 H   0  0  0  0  0  0  0  0  0  0  0  0
    1.6597    0.2974    2.9413 H   0  0  0  0  0  0  0  0  0  0  0  0
    0.7096   -4.5231    1.5267 H   0  0  0  0  0  0  0  0  0  0  0  0
    0.9219   -5.1850   -0.1923 H   0  0  0  0  0  0  0  0  0  0  0  0
   -0.6743    2.8832    1.4620 H   0  0  0  0  0  0  0  0  0  0  0  0
   -2.0514    1.8632    1.8144 H   0  0  0  0  0  0  0  0  0  0  0  0
   -1.1110    1.6210    0.3168 H   0  0  0  0  0  0  0  0  0  0  0  0
    5.3241    1.4832    0.0148 H   0  0  0  0  0  0  0  0  0  0  0  0
    5.3333   -0.1910    0.5777 H   0  0  0  0  0  0  0  0  0  0  0  0
    5.0110    1.1123    1.7251 H   0  0  0  0  0  0  0  0  0  0  0  0
   -2.5702   -0.7677   -2.3136 H   0  0  0  0  0  0  0  0  0  0  0  0
   -1.7394    0.7241   -1.8331 H   0  0  0  0  0  0  0  0  0  0  0  0
   -3.3318    0.7824   -2.6016 H   0  0  0  0  0  0  0  0  0  0  0  0
   -4.6738    0.7519    0.9706 H   0  0  0  0  0  0  0  0  0  0  0  0
    0.4730    3.3901   -2.3677 H   0  0  0  0  0  0  0  0  0  0  0  0
    0.4311    1.6288   -2.7221 H   0  0  0  0  0  0  0  0  0  0  0  0
    1.4808    2.7173   -3.6600 H   0  0  0  0  0  0  0  0  0  0  0  0
   -4.6953    2.1569   -1.7981 H   0  0  0  0  0  0  0  0  0  0  0  0
   -4.9453    2.9315   -0.2258 H   0  0  0  0  0  0  0  0  0  0  0  0
   -6.8878    2.3952   -1.2747 H   0  0  0  0  0  0  0  0  0  0  0  0
  1 10  1  0  0  0  0
  1 16  1  0  0  0  0
  2  9  1  0  0  0  0
  2 23  1  0  0  0  0
  3 17  1  0  0  0  0
  3 25  1  0  0  0  0
  4 16  2  0  0  0  0
  5 23  2  0  0  0  0
  6 25  2  0  0  0  0
  7 29  1  0  0  0  0
  7 57  1  0  0  0  0
  8  9  1  0  0  0  0
  8 10  1  0  0  0  0
  8 12  1  0  0  0  0
  8 30  1  0  0  0  0
  9 11  1  0  0  0  0
  9 31  1  0  0  0  0
 10 13  1  0  0  0  0
 10 32  1  0  0  0  0
 11 14  1  0  0  0  0
 11 33  1  0  0  0  0
 11 34  1  0  0  0  0
 12 16  1  0  0  0  0
 12 20  2  0  0  0  0
 13 15  2  0  0  0  0
 13 35  1  0  0  0  0
 14 19  2  0  0  0  0
 14 21  1  0  0  0  0
 15 17  1  0  0  0  0
 15 22  1  0  0  0  0
 17 18  1  0  0  0  0
 17 36  1  0  0  0  0
 18 19  1  0  0  0  0
 18 37  1  0  0  0  0
 18 38  1  0  0  0  0
 19 39  1  0  0  0  0
 20 40  1  0  0  0  0
 20 41  1  0  0  0  0
 21 42  1  0  0  0  0
 21 43  1  0  0  0  0
 21 44  1  0  0  0  0
 22 45  1  0  0  0  0
 22 46  1  0  0  0  0
 22 47  1  0  0  0  0
 23 24  1  0  0  0  0
 24 26  1  0  0  0  0
 24 27  2  0  0  0  0
 25 28  1  0  0  0  0
 26 48  1  0  0  0  0
 26 49  1  0  0  0  0
 26 50  1  0  0  0  0
 27 29  1  0  0  0  0
 27 51  1  0  0  0  0
 28 52  1  0  0  0  0
 28 53  1  0  0  0  0
 28 54  1  0  0  0  0
 29 55  1  0  0  0  0
 29 56  1  0  0  0  0
M  END
> <PUBCHEM_COMPOUND_CID>
11953932

> <PUBCHEM_CONFORMER_RMSD>
0.8

> <PUBCHEM_CONFORMER_DIVERSEORDER>
1
6
10
37
33
38
28
44
25
42
9
26
7
22
35
18
34
16
5
14
12
27
29
8
15
30
23
39
20
41
11
17
40
21
19
24
36
31
2
13
32
4
43
3

> <PUBCHEM_MMFF94_PARTIAL_CHARGES>
35
1 -0.43
10 0.42
11 0.14
12 -0.12
13 -0.29
14 -0.28
15 -0.28
16 0.71
17 0.42
18 0.14
19 -0.29
2 -0.43
20 -0.3
21 0.14
22 0.14
23 0.71
24 -0.12
25 0.66
26 0.14
27 -0.29
28 0.06
29 0.42
3 -0.43
35 0.15
39 0.15
4 -0.57
40 0.15
41 0.15
5 -0.57
51 0.15
57 0.4
6 -0.57
7 -0.68
8 0.14
9 0.28

> <PUBCHEM_EFFECTIVE_ROTOR_COUNT>
7

> <PUBCHEM_PHARMACOPHORE_FEATURES>
7
1 26 hydrophobe
1 4 acceptor
1 5 acceptor
1 6 acceptor
1 7 acceptor
1 7 donor
5 1 8 10 12 16 rings

> <PUBCHEM_HEAVY_ATOM_COUNT>
29

> <PUBCHEM_ATOM_DEF_STEREO_COUNT>
4

> <PUBCHEM_ATOM_UDEF_STEREO_COUNT>
0

> <PUBCHEM_BOND_DEF_STEREO_COUNT>
3

> <PUBCHEM_BOND_UDEF_STEREO_COUNT>
0

> <PUBCHEM_ISOTOPIC_ATOM_COUNT>
0

> <PUBCHEM_COMPONENT_COUNT>
1

> <PUBCHEM_CACTVS_TAUTO_COUNT>
1

> <PUBCHEM_CONFORMER_ID>
00B6670C00000001

> <PUBCHEM_MMFF94_ENERGY>
66.6674

> <PUBCHEM_FEATURE_SELFOVERLAP>
35.52

> <PUBCHEM_SHAPE_FINGERPRINT>
10871710 139 16471185797636470900
11370993 70 18337115578945662856
11578080 2 18125687237609833089
12422481 6 17910426044645085160
12633257 1 17346331379212473861
13761468 95 16760505935925496453
14068700 675 17098621485294036718
14955137 171 12031498947559207690
15163728 17 18058713750187945685
17921350 177 17058400104372278941
20600515 1 16893443935580002120
20691752 17 16172290120663371714
20715895 44 18342180007192496537
21033648 29 18265065647577868928
22889148 1 17540798509077154246
22907989 373 17544172901467116359
23419403 2 17037309444332641378
23559900 14 18341054124692136075
238 59 18187639180804579144
2748010 2 16957303068800254026
35225 105 17684349677615576118
469060 322 16469223161191714106
474 4 18273497879613155565
5081480 168 17979610645001379693
81228 2 17178834247380314363

> <PUBCHEM_SHAPE_MULTIPOLES>
555.72
7.63
4.2
2.53
10.77
3.63
-0.3
-6.07
-1.68
-2.08
-1.57
-0.8
-0.9
0.72

> <PUBCHEM_SHAPE_SELFOVERLAP>
1148.135

> <PUBCHEM_SHAPE_VOLUME>
314.6

> <PUBCHEM_COORDINATE_TYPE>
2
5
10

$$$$

