17395808
  -OEChem-06241222522D

 33 35  0     0  0  0  0  0  0999 V2000
    4.4727    1.8933    0.0000 S   0  0  0  0  0  0  0  0  0  0  0  0
    8.0413    0.8988    0.0000 O   0  0  0  0  0  0  0  0  0  0  0  0
    8.0413   -2.1012    0.0000 O   0  0  0  0  0  0  0  0  0  0  0  0
    6.3092    1.8988    0.0000 O   0  0  0  0  0  0  0  0  0  0  0  0
    5.4432    0.3988    0.0000 N   0  0  0  0  0  0  0  0  0  0  0  0
    3.6636    0.4920    0.0000 N   0  0  0  0  0  0  0  0  0  0  0  0
    8.9073   -0.6012    0.0000 C   0  0  0  0  0  0  0  0  0  0  0  0
    8.9073    0.3988    0.0000 C   0  0  0  0  0  0  0  0  0  0  0  0
    9.8013   -1.1359    0.0000 C   0  0  0  0  0  0  0  0  0  0  0  0
   10.7073   -0.6220    0.0000 C   0  0  0  0  0  0  0  0  0  0  0  0
    8.0413   -1.1012    0.0000 C   0  0  0  0  0  0  0  0  0  0  0  0
    7.1753    0.3988    0.0000 C   0  0  0  0  0  0  0  0  0  0  0  0
    9.8013    0.9334    0.0000 C   0  0  0  0  0  0  0  0  0  0  0  0
   10.7073    0.4196    0.0000 C   0  0  0  0  0  0  0  0  0  0  0  0
    7.1753   -0.6012    0.0000 C   0  0  0  0  0  0  0  0  0  0  0  0
    6.3092    0.8988    0.0000 C   0  0  0  0  0  0  0  0  0  0  0  0
   11.5714   -1.1254    0.0000 C   0  0  0  0  0  0  0  0  0  0  0  0
    4.5772    0.8988    0.0000 C   0  0  0  0  0  0  0  0  0  0  0  0
    2.9945    1.2352    0.0000 C   0  0  0  0  0  0  0  0  0  0  0  0
    3.4945    2.1012    0.0000 C   0  0  0  0  0  0  0  0  0  0  0  0
    2.0000    1.1307    0.0000 C   0  0  0  0  0  0  0  0  0  0  0  0
    9.7941   -1.7558    0.0000 H   0  0  0  0  0  0  0  0  0  0  0  0
    9.7941    1.5534    0.0000 H   0  0  0  0  0  0  0  0  0  0  0  0
   11.2431    0.7317    0.0000 H   0  0  0  0  0  0  0  0  0  0  0  0
    6.6383   -0.9112    0.0000 H   0  0  0  0  0  0  0  0  0  0  0  0
   11.2594   -1.6611    0.0000 H   0  0  0  0  0  0  0  0  0  0  0  0
   12.1072   -1.4374    0.0000 H   0  0  0  0  0  0  0  0  0  0  0  0
   11.8835   -0.5896    0.0000 H   0  0  0  0  0  0  0  0  0  0  0  0
    5.4432   -0.2212    0.0000 H   0  0  0  0  0  0  0  0  0  0  0  0
    3.2424    2.6676    0.0000 H   0  0  0  0  0  0  0  0  0  0  0  0
    1.9352    1.7473    0.0000 H   0  0  0  0  0  0  0  0  0  0  0  0
    1.3834    1.0659    0.0000 H   0  0  0  0  0  0  0  0  0  0  0  0
    2.0648    0.5141    0.0000 H   0  0  0  0  0  0  0  0  0  0  0  0
  1 18  1  0  0  0  0
  1 20  1  0  0  0  0
  2  8  1  0  0  0  0
  2 12  1  0  0  0  0
  3 11  2  0  0  0  0
  4 16  2  0  0  0  0
  5 16  1  0  0  0  0
  5 18  1  0  0  0  0
  5 29  1  0  0  0  0
  6 18  2  0  0  0  0
  6 19  1  0  0  0  0
  7  8  2  0  0  0  0
  7  9  1  0  0  0  0
  7 11  1  0  0  0  0
  8 13  1  0  0  0  0
  9 10  2  0  0  0  0
  9 22  1  0  0  0  0
 10 14  1  0  0  0  0
 10 17  1  0  0  0  0
 11 15  1  0  0  0  0
 12 15  2  0  0  0  0
 12 16  1  0  0  0  0
 13 14  2  0  0  0  0
 13 23  1  0  0  0  0
 14 24  1  0  0  0  0
 15 25  1  0  0  0  0
 17 26  1  0  0  0  0
 17 27  1  0  0  0  0
 17 28  1  0  0  0  0
 19 20  2  0  0  0  0
 19 21  1  0  0  0  0
 20 30  1  0  0  0  0
 21 31  1  0  0  0  0
 21 32  1  0  0  0  0
 21 33  1  0  0  0  0
M  END
> <PUBCHEM_COMPOUND_CID>
17395808

> <PUBCHEM_COMPOUND_CANONICALIZED>
1

> <PUBCHEM_CACTVS_COMPLEXITY>
480

> <PUBCHEM_CACTVS_HBOND_ACCEPTOR>
5

> <PUBCHEM_CACTVS_HBOND_DONOR>
1

> <PUBCHEM_CACTVS_ROTATABLE_BOND>
2

> <PUBCHEM_CACTVS_SUBSKEYS>
AAADccBzMABAAAAAAAAAAAAAAAAAAWAAAAAwQAAAAAAAAACBwAAAHgQQAAAADAyF3gCzl5LIFAisA6VydAKC+KllKjkJiBVWKMiOJjakPR6DOWCs4RMYqaeIyOCOIAACAAAIAABAAAQAABAAAAAAAAAAAA==

> <PUBCHEM_IUPAC_OPENEYE_NAME>
6-methyl-N-(4-methylthiazol-2-yl)-4-oxo-chromene-2-carboxamide

> <PUBCHEM_IUPAC_CAS_NAME>
6-methyl-N-(4-methyl-2-thiazolyl)-4-oxo-1-benzopyran-2-carboxamide

> <PUBCHEM_IUPAC_NAME>
6-methyl-N-(4-methyl-1,3-thiazol-2-yl)-4-oxochromene-2-carboxamide

> <PUBCHEM_IUPAC_SYSTEMATIC_NAME>
6-methyl-N-(4-methyl-1,3-thiazol-2-yl)-4-oxidanylidene-chromene-2-carboxamide

> <PUBCHEM_IUPAC_TRADITIONAL_NAME>
4-keto-6-methyl-N-(4-methylthiazol-2-yl)chromene-2-carboxamide

> <PUBCHEM_IUPAC_INCHI>
InChI=1S/C15H12N2O3S/c1-8-3-4-12-10(5-8)11(18)6-13(20-12)14(19)17-15-16-9(2)7-21-15/h3-7H,1-2H3,(H,16,17,19)

> <PUBCHEM_IUPAC_INCHIKEY>
OLZSLYWUIXGAEA-UHFFFAOYSA-N

> <PUBCHEM_XLOGP3_AA>
2.7

> <PUBCHEM_EXACT_MASS>
300.056863

> <PUBCHEM_MOLECULAR_FORMULA>
C15H12N2O3S

> <PUBCHEM_MOLECULAR_WEIGHT>
300.33238

> <PUBCHEM_OPENEYE_CAN_SMILES>
CC1=CC2=C(C=C1)OC(=CC2=O)C(=O)NC3=NC(=CS3)C

> <PUBCHEM_OPENEYE_ISO_SMILES>
CC1=CC2=C(C=C1)OC(=CC2=O)C(=O)NC3=NC(=CS3)C

> <PUBCHEM_CACTVS_TPSA>
96.5

> <PUBCHEM_MONOISOTOPIC_WEIGHT>
300.056863

> <PUBCHEM_TOTAL_CHARGE>
0

> <PUBCHEM_HEAVY_ATOM_COUNT>
21

> <PUBCHEM_ATOM_DEF_STEREO_COUNT>
0

> <PUBCHEM_ATOM_UDEF_STEREO_COUNT>
0

> <PUBCHEM_BOND_DEF_STEREO_COUNT>
0

> <PUBCHEM_BOND_UDEF_STEREO_COUNT>
0

> <PUBCHEM_ISOTOPIC_ATOM_COUNT>
0

> <PUBCHEM_COMPONENT_COUNT>
1

> <PUBCHEM_CACTVS_TAUTO_COUNT>
3

> <PUBCHEM_COORDINATE_TYPE>
1
5
255

> <PUBCHEM_BONDANNOTATIONS>
1  18  8
1  20  8
10  14  8
11  15  8
12  15  8
13  14  8
19  20  8
2  12  8
2  8  8
6  18  8
6  19  8
7  11  8
7  8  8
7  9  8
8  13  8
9  10  8

$$$$

