443151
  -OEChem-07051213012D

 54 56  0     1  0  0  0  0  0999 V2000
    6.7673    0.2470    0.0000 S   0  0  0  0  0  0  0  0  0  0  0  0
    8.7587    0.6073    0.0000 S   0  0  0  0  0  0  0  0  0  0  0  0
    4.5845   -2.1332    0.0000 O   0  0  0  0  0  0  0  0  0  0  0  0
    2.6045    1.8214    0.0000 O   0  0  0  0  0  0  0  0  0  0  0  0
    2.2190    0.1328    0.0000 O   0  0  0  0  0  0  0  0  0  0  0  0
    7.1333   -4.4436    0.0000 O   0  0  0  0  0  0  0  0  0  0  0  0
    7.9994   -2.9436    0.0000 O   0  0  0  0  0  0  0  0  0  0  0  0
    6.2673   -1.9436    0.0000 N   0  0  0  0  0  0  0  0  0  0  0  0
    4.1689   -0.3123    0.0000 N   0  0  0  0  0  0  0  0  0  0  0  0
    5.1438   -0.5348    0.0000 C   0  0  1  0  0  0  0  0  0  0  0  0
    7.3908   -0.5348    0.0000 C   0  0  1  0  0  0  0  0  0  0  0  0
    7.1683   -1.5097    0.0000 C   0  0  0  0  0  0  0  0  0  0  0  0
    5.7673    0.2470    0.0000 C   0  0  0  0  0  0  0  0  0  0  0  0
    3.8741    0.6433    0.0000 C   0  0  1  0  0  0  0  0  0  0  0  0
    5.3663   -1.5097    0.0000 C   0  0  0  0  0  0  0  0  0  0  0  0
    4.5543    1.3764    0.0000 C   0  0  0  0  0  0  0  0  0  0  0  0
    6.2673   -2.9436    0.0000 C   0  0  0  0  0  0  0  0  0  0  0  0
    8.3657   -0.3123    0.0000 C   0  0  0  0  0  0  0  0  0  0  0  0
    4.2596    2.3319    0.0000 C   0  0  0  0  0  0  0  0  0  0  0  0
    2.8992    0.8658    0.0000 C   0  0  0  0  0  0  0  0  0  0  0  0
    4.9397    3.0650    0.0000 C   0  0  0  0  0  0  0  0  0  0  0  0
    9.1188   -0.9702    0.0000 C   0  0  0  0  0  0  0  0  0  0  0  0
    7.1333   -3.4436    0.0000 C   0  0  0  0  0  0  0  0  0  0  0  0
    9.9772   -0.4573    0.0000 C   0  0  0  0  0  0  0  0  0  0  0  0
    9.7547    0.5176    0.0000 C   0  0  0  0  0  0  0  0  0  0  0  0
    5.9147    2.8425    0.0000 C   0  0  0  0  0  0  0  0  0  0  0  0
    4.6450    4.0206    0.0000 C   0  0  0  0  0  0  0  0  0  0  0  0
    6.5948    3.5755    0.0000 C   0  0  0  0  0  0  0  0  0  0  0  0
    5.3252    4.7536    0.0000 C   0  0  0  0  0  0  0  0  0  0  0  0
    6.3001    4.5311    0.0000 C   0  0  0  0  0  0  0  0  0  0  0  0
    4.9390    0.0504    0.0000 H   0  0  0  0  0  0  0  0  0  0  0  0
    7.6715    0.2675    0.0000 H   0  0  0  0  0  0  0  0  0  0  0  0
    7.3062   -2.1142    0.0000 H   0  0  0  0  0  0  0  0  0  0  0  0
    7.7883   -1.5097    0.0000 H   0  0  0  0  0  0  0  0  0  0  0  0
    5.9053    0.8515    0.0000 H   0  0  0  0  0  0  0  0  0  0  0  0
    5.2087    0.5160    0.0000 H   0  0  0  0  0  0  0  0  0  0  0  0
    4.4786    0.5053    0.0000 H   0  0  0  0  0  0  0  0  0  0  0  0
    3.7472   -0.7668    0.0000 H   0  0  0  0  0  0  0  0  0  0  0  0
    4.9287    0.8821    0.0000 H   0  0  0  0  0  0  0  0  0  0  0  0
    5.1060    1.6592    0.0000 H   0  0  0  0  0  0  0  0  0  0  0  0
    5.6567   -2.8359    0.0000 H   0  0  0  0  0  0  0  0  0  0  0  0
    6.0553   -3.5262    0.0000 H   0  0  0  0  0  0  0  0  0  0  0  0
    3.8852    2.8262    0.0000 H   0  0  0  0  0  0  0  0  0  0  0  0
    3.7078    2.0491    0.0000 H   0  0  0  0  0  0  0  0  0  0  0  0
    9.0632   -1.5877    0.0000 H   0  0  0  0  0  0  0  0  0  0  0  0
   10.5474   -0.7010    0.0000 H   0  0  0  0  0  0  0  0  0  0  0  0
   10.1627    0.9845    0.0000 H   0  0  0  0  0  0  0  0  0  0  0  0
    6.0974    2.2500    0.0000 H   0  0  0  0  0  0  0  0  0  0  0  0
    4.0405    4.1585    0.0000 H   0  0  0  0  0  0  0  0  0  0  0  0
    2.0000    1.9594    0.0000 H   0  0  0  0  0  0  0  0  0  0  0  0
    7.1993    3.4376    0.0000 H   0  0  0  0  0  0  0  0  0  0  0  0
    5.1424    5.3461    0.0000 H   0  0  0  0  0  0  0  0  0  0  0  0
    6.7218    4.9856    0.0000 H   0  0  0  0  0  0  0  0  0  0  0  0
    7.6703   -4.7536    0.0000 H   0  0  0  0  0  0  0  0  0  0  0  0
  1 11  1  0  0  0  0
  1 13  1  0  0  0  0
  2 18  1  0  0  0  0
  2 25  1  0  0  0  0
  3 15  2  0  0  0  0
  4 20  1  0  0  0  0
  4 50  1  0  0  0  0
  5 20  2  0  0  0  0
  6 23  1  0  0  0  0
  6 54  1  0  0  0  0
  7 23  2  0  0  0  0
  8 12  1  0  0  0  0
  8 15  1  0  0  0  0
  8 17  1  0  0  0  0
 10  9  1  1  0  0  0
 14  9  1  6  0  0  0
  9 38  1  0  0  0  0
 10 13  1  0  0  0  0
 10 15  1  0  0  0  0
 10 31  1  0  0  0  0
 11 12  1  0  0  0  0
 11 18  1  0  0  0  0
 11 32  1  1  0  0  0
 12 33  1  0  0  0  0
 12 34  1  0  0  0  0
 13 35  1  0  0  0  0
 13 36  1  0  0  0  0
 14 16  1  0  0  0  0
 14 20  1  0  0  0  0
 14 37  1  0  0  0  0
 16 19  1  0  0  0  0
 16 39  1  0  0  0  0
 16 40  1  0  0  0  0
 17 23  1  0  0  0  0
 17 41  1  0  0  0  0
 17 42  1  0  0  0  0
 18 22  2  0  0  0  0
 19 21  1  0  0  0  0
 19 43  1  0  0  0  0
 19 44  1  0  0  0  0
 21 26  2  0  0  0  0
 21 27  1  0  0  0  0
 22 24  1  0  0  0  0
 22 45  1  0  0  0  0
 24 25  2  0  0  0  0
 24 46  1  0  0  0  0
 25 47  1  0  0  0  0
 26 28  1  0  0  0  0
 26 48  1  0  0  0  0
 27 29  2  0  0  0  0
 27 49  1  0  0  0  0
 28 30  2  0  0  0  0
 28 51  1  0  0  0  0
 29 30  1  0  0  0  0
 29 52  1  0  0  0  0
 30 53  1  0  0  0  0
M  END
> <PUBCHEM_COMPOUND_CID>
443151

> <PUBCHEM_COMPOUND_CANONICALIZED>
1

> <PUBCHEM_CACTVS_COMPLEXITY>
614

> <PUBCHEM_CACTVS_HBOND_ACCEPTOR>
8

> <PUBCHEM_CACTVS_HBOND_DONOR>
3

> <PUBCHEM_CACTVS_ROTATABLE_BOND>
9

> <PUBCHEM_CACTVS_SUBSKEYS>
AAADceB7OABgAAAAAAAAAAAAAAAAASAAAAAwAAAABYAAAAABwAAAHgQQCAAADCjF2ASwCYPAAgiMAiHSGAADAIAgCBBIiJmIAIgKYDKgkTGUYAAklgC4iAeYyLCOAAAAAAAAAAAAAAAAAAAAAAAAAAAAAA==

> <PUBCHEM_IUPAC_OPENEYE_NAME>
(2S)-2-[[(2S,6R)-4-(carboxymethyl)-5-oxo-2-(2-thienyl)-1,4-thiazepan-6-yl]amino]-4-phenyl-butanoic acid

> <PUBCHEM_IUPAC_CAS_NAME>
(2S)-2-[[(2S,6R)-4-(carboxymethyl)-5-oxo-2-thiophen-2-yl-1,4-thiazepan-6-yl]amino]-4-phenylbutanoic acid

> <PUBCHEM_IUPAC_NAME>
(2S)-2-[[(2S,6R)-4-(carboxymethyl)-5-oxo-2-thiophen-2-yl-1,4-thiazepan-6-yl]amino]-4-phenylbutanoic acid

> <PUBCHEM_IUPAC_SYSTEMATIC_NAME>
(2S)-2-[[(2S,6R)-4-(2-hydroxy-2-oxoethyl)-5-oxidanylidene-2-thiophen-2-yl-1,4-thiazepan-6-yl]amino]-4-phenyl-butanoic acid

> <PUBCHEM_IUPAC_TRADITIONAL_NAME>
(2S)-2-[[(2S,6R)-4-(carboxymethyl)-5-keto-2-(2-thienyl)-1,4-thiazepan-6-yl]amino]-4-phenyl-butyric acid

> <PUBCHEM_IUPAC_INCHI>
InChI=1S/C21H24N2O5S2/c24-19(25)12-23-11-18(17-7-4-10-29-17)30-13-16(20(23)26)22-15(21(27)28)9-8-14-5-2-1-3-6-14/h1-7,10,15-16,18,22H,8-9,11-13H2,(H,24,25)(H,27,28)/t15-,16-,18-/m0/s1

> <PUBCHEM_IUPAC_INCHIKEY>
KZVWEOXAPZXAFB-BQFCYCMXSA-N

> <PUBCHEM_XLOGP3_AA>
0.3

> <PUBCHEM_EXACT_MASS>
448.112664

> <PUBCHEM_MOLECULAR_FORMULA>
C21H24N2O5S2

> <PUBCHEM_MOLECULAR_WEIGHT>
448.55566

> <PUBCHEM_OPENEYE_CAN_SMILES>
C1C(SCC(C(=O)N1CC(=O)O)NC(CCC2=CC=CC=C2)C(=O)O)C3=CC=CS3

> <PUBCHEM_OPENEYE_ISO_SMILES>
C1[C@H](SC[C@@H](C(=O)N1CC(=O)O)N[C@@H](CCC2=CC=CC=C2)C(=O)O)C3=CC=CS3

> <PUBCHEM_CACTVS_TPSA>
161

> <PUBCHEM_MONOISOTOPIC_WEIGHT>
448.112664

> <PUBCHEM_TOTAL_CHARGE>
0

> <PUBCHEM_HEAVY_ATOM_COUNT>
30

> <PUBCHEM_ATOM_DEF_STEREO_COUNT>
3

> <PUBCHEM_ATOM_UDEF_STEREO_COUNT>
0

> <PUBCHEM_BOND_DEF_STEREO_COUNT>
0

> <PUBCHEM_BOND_UDEF_STEREO_COUNT>
0

> <PUBCHEM_ISOTOPIC_ATOM_COUNT>
0

> <PUBCHEM_COMPONENT_COUNT>
1

> <PUBCHEM_CACTVS_TAUTO_COUNT>
2

> <PUBCHEM_COORDINATE_TYPE>
1
5
255

> <PUBCHEM_BONDANNOTATIONS>
11  32  5
18  22  8
2  18  8
2  25  8
21  26  8
21  27  8
22  24  8
24  25  8
26  28  8
27  29  8
28  30  8
29  30  8
10  9  5
14  9  6

$$$$

