5281740
  -OEChem-07051212593D

 28 28  0     1  0  0  0  0  0999 V2000
   -1.5861    2.1018   -0.2691 O   0  0  0  0  0  0  0  0  0  0  0  0
   -0.6662    0.3114    2.1408 O   0  0  0  0  0  0  0  0  0  0  0  0
   -3.0385   -0.6795   -1.0014 O   0  0  0  0  0  0  0  0  0  0  0  0
    2.0755   -0.2562    0.1158 N   0  0  1  0  0  0  0  0  0  0  0  0
    0.5755    1.4133   -1.0820 C   0  0  0  0  0  0  0  0  0  0  0  0
    1.9932    0.9469   -0.7323 C   0  0  0  0  0  0  0  0  0  0  0  0
   -0.3220    1.5986    0.1395 C   0  0  2  0  0  0  0  0  0  0  0  0
    1.4927   -1.4474   -0.5168 C   0  0  0  0  0  0  0  0  0  0  0  0
   -0.6215    0.3250    0.9111 C   0  0  0  0  0  0  0  0  0  0  0  0
   -0.9613   -0.9065    0.1498 C   0  0  0  0  0  0  0  0  0  0  0  0
   -0.0052   -1.6355   -0.4498 C   0  0  0  0  0  0  0  0  0  0  0  0
    3.4778   -0.5045    0.4681 C   0  0  0  0  0  0  0  0  0  0  0  0
   -2.4139   -1.2674    0.1263 C   0  0  0  0  0  0  0  0  0  0  0  0
    0.6464    2.3744   -1.6089 H   0  0  0  0  0  0  0  0  0  0  0  0
    0.1160    0.7383   -1.8141 H   0  0  0  0  0  0  0  0  0  0  0  0
    2.5543    0.7999   -1.6647 H   0  0  0  0  0  0  0  0  0  0  0  0
    2.4803    1.7781   -0.2049 H   0  0  0  0  0  0  0  0  0  0  0  0
    0.1276    2.3234    0.8270 H   0  0  0  0  0  0  0  0  0  0  0  0
    1.9010   -2.3445   -0.0307 H   0  0  0  0  0  0  0  0  0  0  0  0
    1.8071   -1.5104   -1.5672 H   0  0  0  0  0  0  0  0  0  0  0  0
   -0.3391   -2.5280   -0.9809 H   0  0  0  0  0  0  0  0  0  0  0  0
    4.0901   -0.7296   -0.4127 H   0  0  0  0  0  0  0  0  0  0  0  0
    3.5576   -1.3425    1.1698 H   0  0  0  0  0  0  0  0  0  0  0  0
    3.9094    0.3643    0.9778 H   0  0  0  0  0  0  0  0  0  0  0  0
   -2.9273   -0.9177    1.0278 H   0  0  0  0  0  0  0  0  0  0  0  0
   -2.5575   -2.3523    0.0757 H   0  0  0  0  0  0  0  0  0  0  0  0
   -1.9322    1.5263   -0.9724 H   0  0  0  0  0  0  0  0  0  0  0  0
   -2.6079   -1.0323   -1.7990 H   0  0  0  0  0  0  0  0  0  0  0  0
  1  7  1  0  0  0  0
  1 27  1  0  0  0  0
  2  9  2  0  0  0  0
  3 13  1  0  0  0  0
  3 28  1  0  0  0  0
  4  6  1  0  0  0  0
  4  8  1  0  0  0  0
  4 12  1  0  0  0  0
  5  6  1  0  0  0  0
  5  7  1  0  0  0  0
  5 14  1  0  0  0  0
  5 15  1  0  0  0  0
  6 16  1  0  0  0  0
  6 17  1  0  0  0  0
  7  9  1  0  0  0  0
  7 18  1  0  0  0  0
  8 11  1  0  0  0  0
  8 19  1  0  0  0  0
  8 20  1  0  0  0  0
  9 10  1  0  0  0  0
 10 11  2  0  0  0  0
 10 13  1  0  0  0  0
 11 21  1  0  0  0  0
 12 22  1  0  0  0  0
 12 23  1  0  0  0  0
 12 24  1  0  0  0  0
 13 25  1  0  0  0  0
 13 26  1  0  0  0  0
M  END
> <PUBCHEM_COMPOUND_CID>
5281740

> <PUBCHEM_CONFORMER_RMSD>
0.6

> <PUBCHEM_CONFORMER_DIVERSEORDER>
1
12
4
17
15
3
7
8
11
2
13
6
16
9
14
10
5

> <PUBCHEM_MMFF94_PARTIAL_CHARGES>
15
1 -0.68
10 -0.12
11 -0.29
12 0.27
13 0.42
2 -0.57
21 0.15
27 0.4
28 0.4
3 -0.68
4 -0.81
6 0.27
7 0.34
8 0.41
9 0.49

> <PUBCHEM_EFFECTIVE_ROTOR_COUNT>
2

> <PUBCHEM_PHARMACOPHORE_FEATURES>
6
1 1 acceptor
1 1 donor
1 2 acceptor
1 3 acceptor
1 3 donor
1 4 cation

> <PUBCHEM_HEAVY_ATOM_COUNT>
13

> <PUBCHEM_ATOM_DEF_STEREO_COUNT>
1

> <PUBCHEM_ATOM_UDEF_STEREO_COUNT>
0

> <PUBCHEM_BOND_DEF_STEREO_COUNT>
1

> <PUBCHEM_BOND_UDEF_STEREO_COUNT>
0

> <PUBCHEM_ISOTOPIC_ATOM_COUNT>
0

> <PUBCHEM_COMPONENT_COUNT>
1

> <PUBCHEM_CACTVS_TAUTO_COUNT>
8

> <PUBCHEM_CONFORMER_ID>
005097CC00000001

> <PUBCHEM_MMFF94_ENERGY>
30.6392

> <PUBCHEM_FEATURE_SELFOVERLAP>
30.447

> <PUBCHEM_SHAPE_FINGERPRINT>
12423570 1 16682036935129758393
13024252 1 15769491036296843330
14817 1 16951664974503718029
15881359 60 18197192932012377793
16945 1 18336262357954001286
17775402 16 18121491367361173149
18185500 45 17977369543734788254
22344851 262 18268423714559475613
23419403 2 17901710073937226248
241688 4 18194385917513084322
2748010 2 17117186842345042196
353137 74 18270973460992440061
5084963 1 18260535758397461782
528886 8 18339645538390298439
53812654 25 17969225525379731014
54338 74 18202566189529059170

> <PUBCHEM_SHAPE_MULTIPOLES>
244.94
3.76
1.98
1.2
1.04
0.51
0.46
-1.16
-0.23
-0.37
-0.41
-0.23
0.16
-0.28

> <PUBCHEM_SHAPE_SELFOVERLAP>
486.464

> <PUBCHEM_SHAPE_VOLUME>
143.6

> <PUBCHEM_COORDINATE_TYPE>
2
5
10

$$$$

