17395486
  -OEChem-06241222503D

 35 38  0     0  0  0  0  0  0999 V2000
   -2.2555   -2.2260   -1.2156 S   0  0  0  0  0  0  0  0  0  0  0  0
   -2.8973    1.2450    0.5136 O   0  0  0  0  0  0  0  0  0  0  0  0
    0.5705    0.5634    1.9736 O   0  0  0  0  0  0  0  0  0  0  0  0
    3.2678    1.5035   -1.6743 O   0  0  0  0  0  0  0  0  0  0  0  0
   -2.2933    3.4231    0.9033 O   0  0  0  0  0  0  0  0  0  0  0  0
    1.7479    1.4267    0.1255 N   0  0  0  0  0  0  0  0  0  0  0  0
   -1.0761    1.9652   -0.4735 N   0  0  0  0  0  0  0  0  0  0  0  0
   -1.2133    0.6663   -0.8594 N   0  0  0  0  0  0  0  0  0  0  0  0
    1.1833    2.7596    0.0531 C   0  0  0  0  0  0  0  0  0  0  0  0
   -0.0048    2.8285   -0.8915 C   0  0  0  0  0  0  0  0  0  0  0  0
    2.1764   -0.7010    0.7728 C   0  0  0  0  0  0  0  0  0  0  0  0
    2.9834   -0.4185   -0.3194 C   0  0  0  0  0  0  0  0  0  0  0  0
    1.3787    0.4889    1.0669 C   0  0  0  0  0  0  0  0  0  0  0  0
    2.7133    0.9562   -0.7394 C   0  0  0  0  0  0  0  0  0  0  0  0
    2.2022   -1.9288    1.4016 C   0  0  0  0  0  0  0  0  0  0  0  0
    3.8590   -1.3489   -0.8403 C   0  0  0  0  0  0  0  0  0  0  0  0
   -2.0963    2.3435    0.3687 C   0  0  0  0  0  0  0  0  0  0  0  0
    3.0816   -2.8877    0.8905 C   0  0  0  0  0  0  0  0  0  0  0  0
    3.9021   -2.6005   -0.2194 C   0  0  0  0  0  0  0  0  0  0  0  0
   -2.2944    0.2928   -0.2534 C   0  0  0  0  0  0  0  0  0  0  0  0
   -2.9348   -0.9637   -0.2790 C   0  0  0  0  0  0  0  0  0  0  0  0
   -4.0854   -1.3605    0.3663 C   0  0  0  0  0  0  0  0  0  0  0  0
   -4.4134   -2.7189    0.0882 C   0  0  0  0  0  0  0  0  0  0  0  0
   -3.5012   -3.3084   -0.7590 C   0  0  0  0  0  0  0  0  0  0  0  0
    0.8804    3.0632    1.0619 H   0  0  0  0  0  0  0  0  0  0  0  0
    1.9619    3.4470   -0.2957 H   0  0  0  0  0  0  0  0  0  0  0  0
   -0.3780    3.8582   -0.9248 H   0  0  0  0  0  0  0  0  0  0  0  0
    0.2850    2.5409   -1.9085 H   0  0  0  0  0  0  0  0  0  0  0  0
    1.5716   -2.1498    2.2547 H   0  0  0  0  0  0  0  0  0  0  0  0
    4.4900   -1.1284   -1.6933 H   0  0  0  0  0  0  0  0  0  0  0  0
    3.1354   -3.8695    1.3540 H   0  0  0  0  0  0  0  0  0  0  0  0
    4.5769   -3.3649   -0.5959 H   0  0  0  0  0  0  0  0  0  0  0  0
   -4.6729   -0.7175    1.0097 H   0  0  0  0  0  0  0  0  0  0  0  0
   -5.2747   -3.2373    0.4893 H   0  0  0  0  0  0  0  0  0  0  0  0
   -3.5067   -4.3230   -1.1316 H   0  0  0  0  0  0  0  0  0  0  0  0
  1 21  1  0  0  0  0
  1 24  1  0  0  0  0
  2 17  1  0  0  0  0
  2 20  1  0  0  0  0
  3 13  2  0  0  0  0
  4 14  2  0  0  0  0
  5 17  2  0  0  0  0
  6  9  1  0  0  0  0
  6 13  1  0  0  0  0
  6 14  1  0  0  0  0
  7  8  1  0  0  0  0
  7 10  1  0  0  0  0
  7 17  1  0  0  0  0
  8 20  2  0  0  0  0
  9 10  1  0  0  0  0
  9 25  1  0  0  0  0
  9 26  1  0  0  0  0
 10 27  1  0  0  0  0
 10 28  1  0  0  0  0
 11 12  1  0  0  0  0
 11 13  1  0  0  0  0
 11 15  2  0  0  0  0
 12 14  1  0  0  0  0
 12 16  2  0  0  0  0
 15 18  1  0  0  0  0
 15 29  1  0  0  0  0
 16 19  1  0  0  0  0
 16 30  1  0  0  0  0
 18 19  2  0  0  0  0
 18 31  1  0  0  0  0
 19 32  1  0  0  0  0
 20 21  1  0  0  0  0
 21 22  2  0  0  0  0
 22 23  1  0  0  0  0
 22 33  1  0  0  0  0
 23 24  2  0  0  0  0
 23 34  1  0  0  0  0
 24 35  1  0  0  0  0
M  END
> <PUBCHEM_COMPOUND_CID>
17395486

> <PUBCHEM_CONFORMER_RMSD>
0.8

> <PUBCHEM_CONFORMER_DIVERSEORDER>
1
6
5
30
28
34
21
14
9
25
22
31
2
3
23
7
20
17
29
11
32
12
13
24
26
8
15
33
4
27
18
16
10
19

> <PUBCHEM_MMFF94_PARTIAL_CHARGES>
31
1 -0.08
10 0.3
11 0.09
12 0.09
13 0.54
14 0.54
15 -0.15
16 -0.15
17 0.78
18 -0.15
19 -0.15
2 -0.3
20 0.69
21 -0.05
22 -0.15
23 -0.15
24 -0.11
29 0.15
3 -0.57
30 0.15
31 0.15
32 0.15
33 0.15
34 0.15
35 0.15
4 -0.57
5 -0.57
6 -0.42
7 -0.3
8 -0.51
9 0.3

> <PUBCHEM_EFFECTIVE_ROTOR_COUNT>
4.2

> <PUBCHEM_PHARMACOPHORE_FEATURES>
7
1 3 acceptor
1 4 acceptor
1 5 acceptor
5 1 21 22 23 24 rings
5 2 7 8 17 20 rings
5 6 11 12 13 14 rings
6 11 12 15 16 18 19 rings

> <PUBCHEM_HEAVY_ATOM_COUNT>
24

> <PUBCHEM_ATOM_DEF_STEREO_COUNT>
0

> <PUBCHEM_ATOM_UDEF_STEREO_COUNT>
0

> <PUBCHEM_BOND_DEF_STEREO_COUNT>
0

> <PUBCHEM_BOND_UDEF_STEREO_COUNT>
0

> <PUBCHEM_ISOTOPIC_ATOM_COUNT>
0

> <PUBCHEM_COMPONENT_COUNT>
1

> <PUBCHEM_CACTVS_TAUTO_COUNT>
1

> <PUBCHEM_CONFORMER_ID>
01096F1E00000001

> <PUBCHEM_MMFF94_ENERGY>
40.734

> <PUBCHEM_FEATURE_SELFOVERLAP>
35.613

> <PUBCHEM_SHAPE_FINGERPRINT>
10616163 171 18337387235637749430
11578080 2 18113910393902551080
12156800 1 6257698261597194526
12553582 1 18264777545376845303
12633257 1 17603853529877846451
12990986 174 18339089310092896250
13533116 47 17904485096259573919
13692114 37 16026773054918859017
14863182 85 17835523713019894421
15403338 16 15618341404902469523
15664445 248 18121217567665483357
17349148 13 17130420406221739522
17492 54 17272282436699628228
17809404 112 17977144247004610647
17818456 19 18187916258721274417
20291156 8 18338518543266892879
20775530 9 18410300211104570855
21634736 98 18272366516492081490
21731516 1 18411990160470505725
23379529 103 18191013694140188110
238 59 17843677764476369720
2818148 4 18411688907143068791
340366 18 18054783159364398684
3737641 26 18267008484365620795
463206 1 18051411769051483703
469060 322 13756633679519361113

> <PUBCHEM_SHAPE_MULTIPOLES>
459.34
7.92
4.46
1.3
2.64
0.58
-0.13
-7.12
0.86
1.39
0.03
-0.59
-0.03
-1.4

> <PUBCHEM_SHAPE_SELFOVERLAP>
1015.223

> <PUBCHEM_SHAPE_VOLUME>
250

> <PUBCHEM_COORDINATE_TYPE>
2
5
10

$$$$

