5284518
  -OEChem-07051213103D

 56 57  0     1  0  0  0  0  0999 V2000
    0.4627   -0.2796    0.0512 O   0  0  0  0  0  0  0  0  0  0  0  0
    2.6093   -0.3522   -0.9431 O   0  0  0  0  0  0  0  0  0  0  0  0
   -3.9458    0.6187    1.4528 O   0  0  0  0  0  0  0  0  0  0  0  0
   -2.1899   -0.1050   -2.4281 O   0  0  0  0  0  0  0  0  0  0  0  0
   -1.2712    1.1075    1.9058 O   0  0  0  0  0  0  0  0  0  0  0  0
   -3.7339   -1.4828   -0.4949 N   0  0  0  0  0  0  0  0  0  0  0  0
   -1.3038    2.5751   -1.4897 N   0  0  0  0  0  0  0  0  0  0  0  0
    0.6592   -3.0615    0.7035 N   0  0  0  0  0  0  0  0  0  0  0  0
    4.0290    2.0055   -1.2757 N   0  0  0  0  0  0  0  0  0  0  0  0
   -0.3890    0.3507   -0.9071 C   0  0  2  0  0  0  0  0  0  0  0  0
   -2.5881   -0.6622   -0.0872 C   0  0  1  0  0  0  0  0  0  0  0  0
   -0.8186    1.7431   -0.3862 C   0  0  2  0  0  0  0  0  0  0  0  0
   -1.5646   -0.5840   -1.2370 C   0  0  1  0  0  0  0  0  0  0  0  0
   -3.0654    0.7376    0.3342 C   0  0  2  0  0  0  0  0  0  0  0  0
   -1.8827    1.6391    0.7251 C   0  0  1  0  0  0  0  0  0  0  0  0
    1.4399   -1.0991   -0.5867 C   0  0  1  0  0  0  0  0  0  0  0  0
    1.8302   -2.2824    0.3110 C   0  0  1  0  0  0  0  0  0  0  0  0
    3.3070    0.1897    0.1844 C   0  0  1  0  0  0  0  0  0  0  0  0
    2.5844   -1.7959    1.5511 C   0  0  0  0  0  0  0  0  0  0  0  0
    3.7642   -0.9243    1.1282 C   0  0  0  0  0  0  0  0  0  0  0  0
    4.4974    0.9783   -0.3453 C   0  0  2  0  0  0  0  0  0  0  0  0
   -3.3018   -2.8265   -0.8384 C   0  0  0  0  0  0  0  0  0  0  0  0
   -4.4126    1.8892    1.8774 C   0  0  0  0  0  0  0  0  0  0  0  0
    5.2841    1.6211    0.7947 C   0  0  0  0  0  0  0  0  0  0  0  0
    0.1905    0.5309   -1.8254 H   0  0  0  0  0  0  0  0  0  0  0  0
   -2.1208   -1.1397    0.7852 H   0  0  0  0  0  0  0  0  0  0  0  0
    0.0710    2.2293    0.0360 H   0  0  0  0  0  0  0  0  0  0  0  0
   -1.1609   -1.5757   -1.4599 H   0  0  0  0  0  0  0  0  0  0  0  0
   -3.6208    1.1942   -0.4967 H   0  0  0  0  0  0  0  0  0  0  0  0
   -2.2141    2.6515    0.9801 H   0  0  0  0  0  0  0  0  0  0  0  0
    1.0459   -1.5162   -1.5220 H   0  0  0  0  0  0  0  0  0  0  0  0
    2.5083   -2.9337   -0.2561 H   0  0  0  0  0  0  0  0  0  0  0  0
    2.6287    0.8685    0.7199 H   0  0  0  0  0  0  0  0  0  0  0  0
    2.9487   -2.6470    2.1391 H   0  0  0  0  0  0  0  0  0  0  0  0
    1.9192   -1.2164    2.2045 H   0  0  0  0  0  0  0  0  0  0  0  0
   -4.3965   -1.5293    0.2792 H   0  0  0  0  0  0  0  0  0  0  0  0
    4.2346   -0.5217    2.0306 H   0  0  0  0  0  0  0  0  0  0  0  0
    4.5018   -1.5609    0.6231 H   0  0  0  0  0  0  0  0  0  0  0  0
   -0.5638    2.6968   -2.1798 H   0  0  0  0  0  0  0  0  0  0  0  0
   -1.5293    3.5067   -1.1433 H   0  0  0  0  0  0  0  0  0  0  0  0
   -2.9612   -0.6691   -2.6050 H   0  0  0  0  0  0  0  0  0  0  0  0
    5.1627    0.3126   -0.9092 H   0  0  0  0  0  0  0  0  0  0  0  0
   -0.5449    1.7041    2.1547 H   0  0  0  0  0  0  0  0  0  0  0  0
   -4.1860   -3.4696   -0.9108 H   0  0  0  0  0  0  0  0  0  0  0  0
   -2.6495   -3.2662   -0.0764 H   0  0  0  0  0  0  0  0  0  0  0  0
   -2.8169   -2.8787   -1.8174 H   0  0  0  0  0  0  0  0  0  0  0  0
    0.9517   -3.8740    1.2446 H   0  0  0  0  0  0  0  0  0  0  0  0
    0.1907   -3.4204   -0.1274 H   0  0  0  0  0  0  0  0  0  0  0  0
   -4.6777    2.5370    1.0354 H   0  0  0  0  0  0  0  0  0  0  0  0
   -3.6891    2.3756    2.5376 H   0  0  0  0  0  0  0  0  0  0  0  0
   -5.3189    1.7260    2.4687 H   0  0  0  0  0  0  0  0  0  0  0  0
    6.0557    2.2938    0.4018 H   0  0  0  0  0  0  0  0  0  0  0  0
    4.6355    2.2093    1.4534 H   0  0  0  0  0  0  0  0  0  0  0  0
    5.8070    0.8734    1.3988 H   0  0  0  0  0  0  0  0  0  0  0  0
    3.5360    1.5656   -2.0519 H   0  0  0  0  0  0  0  0  0  0  0  0
    4.8273    2.4934   -1.6800 H   0  0  0  0  0  0  0  0  0  0  0  0
  1 10  1  0  0  0  0
  1 16  1  0  0  0  0
  2 16  1  0  0  0  0
  2 18  1  0  0  0  0
  3 14  1  0  0  0  0
  3 23  1  0  0  0  0
  4 13  1  0  0  0  0
  4 41  1  0  0  0  0
  5 15  1  0  0  0  0
  5 43  1  0  0  0  0
  6 11  1  0  0  0  0
  6 22  1  0  0  0  0
  6 36  1  0  0  0  0
  7 12  1  0  0  0  0
  7 39  1  0  0  0  0
  7 40  1  0  0  0  0
  8 17  1  0  0  0  0
  8 47  1  0  0  0  0
  8 48  1  0  0  0  0
  9 21  1  0  0  0  0
  9 55  1  0  0  0  0
  9 56  1  0  0  0  0
 10 12  1  0  0  0  0
 10 13  1  0  0  0  0
 10 25  1  0  0  0  0
 11 13  1  0  0  0  0
 11 14  1  0  0  0  0
 11 26  1  0  0  0  0
 12 15  1  0  0  0  0
 12 27  1  0  0  0  0
 13 28  1  0  0  0  0
 14 15  1  0  0  0  0
 14 29  1  0  0  0  0
 15 30  1  0  0  0  0
 16 17  1  0  0  0  0
 16 31  1  0  0  0  0
 17 19  1  0  0  0  0
 17 32  1  0  0  0  0
 18 20  1  0  0  0  0
 18 21  1  0  0  0  0
 18 33  1  0  0  0  0
 19 20  1  0  0  0  0
 19 34  1  0  0  0  0
 19 35  1  0  0  0  0
 20 37  1  0  0  0  0
 20 38  1  0  0  0  0
 21 24  1  0  0  0  0
 21 42  1  0  0  0  0
 22 44  1  0  0  0  0
 22 45  1  0  0  0  0
 22 46  1  0  0  0  0
 23 49  1  0  0  0  0
 23 50  1  0  0  0  0
 23 51  1  0  0  0  0
 24 52  1  0  0  0  0
 24 53  1  0  0  0  0
 24 54  1  0  0  0  0
M  END
> <PUBCHEM_COMPOUND_CID>
5284518

> <PUBCHEM_CONFORMER_RMSD>
0.8

> <PUBCHEM_CONFORMER_DIVERSEORDER>
1
20
17
24
3
10
2
16
9
14
13
21
22
25
7
6
12
19
5
18
15
23
4
8
11

> <PUBCHEM_MMFF94_PARTIAL_CHARGES>
30
1 -0.56
10 0.28
11 0.27
12 0.27
13 0.28
14 0.28
15 0.28
16 0.56
17 0.27
18 0.28
2 -0.56
21 0.27
22 0.27
23 0.28
3 -0.56
36 0.36
39 0.36
4 -0.68
40 0.36
41 0.4
43 0.4
47 0.36
48 0.36
5 -0.68
55 0.36
56 0.36
6 -0.9
7 -0.99
8 -0.99
9 -0.99

> <PUBCHEM_EFFECTIVE_ROTOR_COUNT>
7.4

> <PUBCHEM_PHARMACOPHORE_FEATURES>
17
1 1 acceptor
1 2 acceptor
1 3 acceptor
1 4 acceptor
1 4 donor
1 5 acceptor
1 5 donor
1 6 cation
1 6 donor
1 7 cation
1 7 donor
1 8 cation
1 8 donor
1 9 cation
1 9 donor
6 10 11 12 13 14 15 rings
6 2 16 17 18 19 20 rings

> <PUBCHEM_HEAVY_ATOM_COUNT>
24

> <PUBCHEM_ATOM_DEF_STEREO_COUNT>
10

> <PUBCHEM_ATOM_UDEF_STEREO_COUNT>
0

> <PUBCHEM_BOND_DEF_STEREO_COUNT>
0

> <PUBCHEM_BOND_UDEF_STEREO_COUNT>
0

> <PUBCHEM_ISOTOPIC_ATOM_COUNT>
0

> <PUBCHEM_COMPONENT_COUNT>
1

> <PUBCHEM_CACTVS_TAUTO_COUNT>
1

> <PUBCHEM_CONFORMER_ID>
0050A2A600000001

> <PUBCHEM_MMFF94_ENERGY>
50.602

> <PUBCHEM_FEATURE_SELFOVERLAP>
86.314

> <PUBCHEM_SHAPE_FINGERPRINT>
10165383 225 15647324183117620270
10498660 4 17167861988960259880
1100329 8 17837491847470968878
11135609 187 17768811961996964901
12156800 1 5396916085862295314
12173636 292 17313951960059692549
12346177 29 12319743574143420806
12403814 3 18341332296728434129
12553582 1 17988629813928911487
12633257 1 18263085581327552051
12892183 10 18198319936242812793
13032168 30 18338235951419623171
13224815 77 18335146396917732814
13583140 156 17202493388093689234
13764800 53 17023191577582305675
14223421 5 18339928228721590694
14289901 80 18130518512665472312
14341114 328 18409166602015580152
14787075 74 18050575040749836070
15238133 3 17314510533478188042
16945 1 18116426128304504173
17349148 13 16917065547301830214
18186145 218 18412545435992667558
18981168 100 16298965250045766034
19050596 39 18335987553367326650
20681651 13 18270417047800252459
21304303 282 15121300348794723781
21524375 3 18411703141535112662
21623110 236 18129096723665984180
21756936 100 18334854966723957064
23419403 2 17250049126116903986
23557571 272 17313374600311476572
23559900 14 17533204504128378470
23566358 27 18265886029159952974
312423 11 18261118508092284086
34934 24 18334573577208885473
3797600 57 18187369792287929930
392239 28 18120938304549061666
4340502 62 18200294603059355305
469060 322 18129948870947353477
474 4 18341887477138595536
5104073 3 18334860519731790010
5486654 2 18269841908803550286
6287921 2 18338509854680155934
633830 44 18333730226199841358
7097593 13 18050575345724396282

> <PUBCHEM_SHAPE_MULTIPOLES>
444.64
9.09
2.94
1.72
5.19
1.06
0
-3.12
-2.16
-0.68
-0.17
-0.93
-0.45
-2.09

> <PUBCHEM_SHAPE_SELFOVERLAP>
896.249

> <PUBCHEM_SHAPE_VOLUME>
258.1

> <PUBCHEM_COORDINATE_TYPE>
2
5
10

$$$$

