439793
  -OEChem-07051212473D

 28 27  0     0  0  0  0  0  0999 V2000
    3.8767   -0.1819   -0.1375 P   0  0  0  0  0  0  0  0  0  0  0  0
    4.2727   -0.3213    1.4312 O   0  0  0  0  0  0  0  0  0  0  0  0
    4.5706   -1.5123   -0.7588 O   0  0  0  0  0  0  0  0  0  0  0  0
    4.4240    1.0804   -0.7488 O   0  0  0  0  0  0  0  0  0  0  0  0
    2.2319   -0.4232   -0.2361 N   0  0  0  0  0  0  0  0  0  0  0  0
   -2.9889   -0.1658    0.3247 N   0  0  0  0  0  0  0  0  0  0  0  0
   -4.7225   -1.7029    0.2648 N   0  0  0  0  0  0  0  0  0  0  0  0
   -5.0938    0.3149   -0.7281 N   0  0  0  0  0  0  0  0  0  0  0  0
   -0.1081    0.3387   -0.1506 C   0  0  0  0  0  0  0  0  0  0  0  0
   -1.0786    1.3565    0.4605 C   0  0  0  0  0  0  0  0  0  0  0  0
    1.3205    0.5177    0.3539 C   0  0  0  0  0  0  0  0  0  0  0  0
   -2.5078    1.1684   -0.0376 C   0  0  0  0  0  0  0  0  0  0  0  0
   -4.1965   -0.4690   -0.0375 C   0  0  0  0  0  0  0  0  0  0  0  0
   -0.1264    0.4371   -1.2437 H   0  0  0  0  0  0  0  0  0  0  0  0
   -0.4421   -0.6800    0.0824 H   0  0  0  0  0  0  0  0  0  0  0  0
   -0.7456    2.3726    0.2178 H   0  0  0  0  0  0  0  0  0  0  0  0
   -1.0588    1.2619    1.5533 H   0  0  0  0  0  0  0  0  0  0  0  0
    1.6487    1.5372    0.1202 H   0  0  0  0  0  0  0  0  0  0  0  0
    1.3453    0.4168    1.4449 H   0  0  0  0  0  0  0  0  0  0  0  0
   -3.1394    1.9383    0.4217 H   0  0  0  0  0  0  0  0  0  0  0  0
   -2.5292    1.3031   -1.1260 H   0  0  0  0  0  0  0  0  0  0  0  0
    1.9092   -1.3711   -0.0435 H   0  0  0  0  0  0  0  0  0  0  0  0
    5.2004   -0.1499    1.6999 H   0  0  0  0  0  0  0  0  0  0  0  0
    5.5471   -1.5362   -0.8482 H   0  0  0  0  0  0  0  0  0  0  0  0
   -4.1799   -2.3934    0.7722 H   0  0  0  0  0  0  0  0  0  0  0  0
   -5.6642   -1.9599   -0.0100 H   0  0  0  0  0  0  0  0  0  0  0  0
   -6.0196   -0.0299   -0.9582 H   0  0  0  0  0  0  0  0  0  0  0  0
   -4.8697    1.2564   -1.0295 H   0  0  0  0  0  0  0  0  0  0  0  0
  1  2  1  0  0  0  0
  1  3  1  0  0  0  0
  1  4  2  0  0  0  0
  1  5  1  0  0  0  0
  2 23  1  0  0  0  0
  3 24  1  0  0  0  0
  5 11  1  0  0  0  0
  5 22  1  0  0  0  0
  6 12  1  0  0  0  0
  6 13  2  0  0  0  0
  7 13  1  0  0  0  0
  7 25  1  0  0  0  0
  7 26  1  0  0  0  0
  8 13  1  0  0  0  0
  8 27  1  0  0  0  0
  8 28  1  0  0  0  0
  9 10  1  0  0  0  0
  9 11  1  0  0  0  0
  9 14  1  0  0  0  0
  9 15  1  0  0  0  0
 10 12  1  0  0  0  0
 10 16  1  0  0  0  0
 10 17  1  0  0  0  0
 11 18  1  0  0  0  0
 11 19  1  0  0  0  0
 12 20  1  0  0  0  0
 12 21  1  0  0  0  0
M  END
> <PUBCHEM_COMPOUND_CID>
439793

> <PUBCHEM_CONFORMER_RMSD>
0.6

> <PUBCHEM_CONFORMER_DIVERSEORDER>
1
126
156
96
24
113
3
87
115
21
120
149
2
94
100
26
60
132
8
114
64
11
83
148
13
118
78
92
25
136
15
119
70
103
152
48
59
102
17
9
141
116
42
86
36
30
138
56
93
142
99
32
127
129
95
7
44
98
39
47
88
16
112
144
143
65
77
75
18
89
31
6
50
82
104
4
109
153
22
128
154
51
68
151
145
74
155
41
139
20
66
90
84
76
122
134
105
40
10
146
131
72
61
73
108
55
53
101
97
58
110
14
106
45
157
5
27
137
71
123
62
69
150
147
121
81
80
135
54
130
107
46
67
49
28
79
29
85
111
140
35
37
125
33
38
57
133
63
117
124
34
43
52
19
91
12
23

> <PUBCHEM_MMFF94_PARTIAL_CHARGES>
18
1 1.51
11 0.27
12 0.25
13 0.55
2 -0.77
22 0.36
23 0.5
24 0.5
25 0.4
26 0.4
27 0.4
28 0.4
3 -0.77
4 -0.7
5 -0.9
6 -0.7
7 -0.85
8 -0.85

> <PUBCHEM_EFFECTIVE_ROTOR_COUNT>
6

> <PUBCHEM_PHARMACOPHORE_FEATURES>
7
1 2 acceptor
1 3 acceptor
1 4 acceptor
1 7 donor
1 8 donor
4 1 2 3 4 anion
4 6 7 8 13 cation

> <PUBCHEM_HEAVY_ATOM_COUNT>
13

> <PUBCHEM_ATOM_DEF_STEREO_COUNT>
0

> <PUBCHEM_ATOM_UDEF_STEREO_COUNT>
0

> <PUBCHEM_BOND_DEF_STEREO_COUNT>
0

> <PUBCHEM_BOND_UDEF_STEREO_COUNT>
0

> <PUBCHEM_ISOTOPIC_ATOM_COUNT>
0

> <PUBCHEM_COMPONENT_COUNT>
1

> <PUBCHEM_CACTVS_TAUTO_COUNT>
4

> <PUBCHEM_CONFORMER_ID>
0006B5F100000001

> <PUBCHEM_MMFF94_ENERGY>
-18.9825

> <PUBCHEM_FEATURE_SELFOVERLAP>
35.618

> <PUBCHEM_SHAPE_FINGERPRINT>
10014705 185 11095874952383598433
100836 57 9223235169496081043
12616999 72 18334285471224474764
13237642 15 17821736022149081698
13675066 3 7060377024286932325
14123238 8 17312823766550480708
14251718 22 18343299232730424836
14252887 29 16805315609060100012
14455015 7 17676480683554793102
17834072 33 18272368633488958988
17834076 25 14117798024426242308
20374829 77 18341900679999652985
20432913 95 16732699463125850423
20645477 56 10591755498293837409
20645477 70 18131069368323602786
20724930 31 18260829276182681329
212847 35 8718830886139031958
22485316 2 18273498974560595649
23402539 116 16486979505207588669
23403322 49 18410292510797427595
23557571 272 18262512735791021509
42 15 5833998243071541476
53428517 29 7853574599769028449

> <PUBCHEM_SHAPE_MULTIPOLES>
233.85
12.34
1.35
0.86
0.63
0.19
0.12
4.11
-1.17
0.41
-0.03
-0.65
0.01
0.23

> <PUBCHEM_SHAPE_SELFOVERLAP>
421.594

> <PUBCHEM_SHAPE_VOLUME>
150

> <PUBCHEM_COORDINATE_TYPE>
2
5
10

$$$$

