15284427
  -OEChem-07051213152D

 34 33  0     1  0  0  0  0  0999 V2000
    2.5369    1.0600    0.0000 O   0  0  0  0  0  0  0  0  0  0  0  0
    7.7331    1.0600    0.0000 O   0  0  0  0  0  0  0  0  0  0  0  0
    3.4030    2.5600    0.0000 O   0  0  0  0  0  0  0  0  0  0  0  0
    6.8671    2.5600    0.0000 O   0  0  0  0  0  0  0  0  0  0  0  0
    7.7331   -1.9400    0.0000 O   0  0  0  0  0  0  0  0  0  0  0  0
    6.0010   -1.9400    0.0000 O   0  0  0  0  0  0  0  0  0  0  0  0
    5.1350    1.5600    0.0000 N   0  0  0  0  0  0  0  0  0  0  0  0
    4.2690    1.0600    0.0000 C   0  0  1  0  0  0  0  0  0  0  0  0
    4.2690    0.0600    0.0000 C   0  0  0  0  0  0  0  0  0  0  0  0
    6.0010    1.0600    0.0000 C   0  0  2  0  0  0  0  0  0  0  0  0
    6.0010    0.0600    0.0000 C   0  0  0  0  0  0  0  0  0  0  0  0
    3.4030   -0.4400    0.0000 C   0  0  0  0  0  0  0  0  0  0  0  0
    5.1350   -0.4400    0.0000 C   0  0  0  0  0  0  0  0  0  0  0  0
    3.4030    1.5600    0.0000 C   0  0  0  0  0  0  0  0  0  0  0  0
    6.8671   -0.4400    0.0000 C   0  0  0  0  0  0  0  0  0  0  0  0
    6.8671    1.5600    0.0000 C   0  0  0  0  0  0  0  0  0  0  0  0
    6.8671   -1.4400    0.0000 C   0  0  0  0  0  0  0  0  0  0  0  0
    4.2690    1.6800    0.0000 H   0  0  0  0  0  0  0  0  0  0  0  0
    4.2690   -0.5600    0.0000 H   0  0  0  0  0  0  0  0  0  0  0  0
    5.4641    0.7500    0.0000 H   0  0  0  0  0  0  0  0  0  0  0  0
    5.1350    2.1800    0.0000 H   0  0  0  0  0  0  0  0  0  0  0  0
    5.3905    0.1677    0.0000 H   0  0  0  0  0  0  0  0  0  0  0  0
    5.7890   -0.5226    0.0000 H   0  0  0  0  0  0  0  0  0  0  0  0
    4.8250   -0.9769    0.0000 H   0  0  0  0  0  0  0  0  0  0  0  0
    5.6720   -0.7500    0.0000 H   0  0  0  0  0  0  0  0  0  0  0  0
    5.4450    0.0969    0.0000 H   0  0  0  0  0  0  0  0  0  0  0  0
    3.0930    0.0969    0.0000 H   0  0  0  0  0  0  0  0  0  0  0  0
    2.8660   -0.7500    0.0000 H   0  0  0  0  0  0  0  0  0  0  0  0
    3.7130   -0.9769    0.0000 H   0  0  0  0  0  0  0  0  0  0  0  0
    7.4776   -0.5477    0.0000 H   0  0  0  0  0  0  0  0  0  0  0  0
    7.0791    0.1426    0.0000 H   0  0  0  0  0  0  0  0  0  0  0  0
    2.0000    1.3700    0.0000 H   0  0  0  0  0  0  0  0  0  0  0  0
    8.2700    1.3700    0.0000 H   0  0  0  0  0  0  0  0  0  0  0  0
    7.7331   -2.5600    0.0000 H   0  0  0  0  0  0  0  0  0  0  0  0
  1 14  1  0  0  0  0
  1 32  1  0  0  0  0
  2 16  1  0  0  0  0
  2 33  1  0  0  0  0
  3 14  2  0  0  0  0
  4 16  2  0  0  0  0
  5 17  1  0  0  0  0
  5 34  1  0  0  0  0
  6 17  2  0  0  0  0
  8  7  1  1  0  0  0
 10  7  1  1  0  0  0
  7 21  1  0  0  0  0
  8  9  1  0  0  0  0
  8 14  1  0  0  0  0
  8 18  1  0  0  0  0
  9 12  1  0  0  0  0
  9 13  1  0  0  0  0
  9 19  1  0  0  0  0
 10 11  1  0  0  0  0
 10 16  1  0  0  0  0
 10 20  1  0  0  0  0
 11 15  1  0  0  0  0
 11 22  1  0  0  0  0
 11 23  1  0  0  0  0
 12 27  1  0  0  0  0
 12 28  1  0  0  0  0
 12 29  1  0  0  0  0
 13 24  1  0  0  0  0
 13 25  1  0  0  0  0
 13 26  1  0  0  0  0
 15 17  1  0  0  0  0
 15 30  1  0  0  0  0
 15 31  1  0  0  0  0
M  END
> <PUBCHEM_COMPOUND_CID>
15284427

> <PUBCHEM_COMPOUND_CANONICALIZED>
1

> <PUBCHEM_CACTVS_COMPLEXITY>
301

> <PUBCHEM_CACTVS_HBOND_ACCEPTOR>
7

> <PUBCHEM_CACTVS_HBOND_DONOR>
4

> <PUBCHEM_CACTVS_ROTATABLE_BOND>
8

> <PUBCHEM_CACTVS_SUBSKEYS>
AAADceByOAAAAAAAAAAAAAAAAAAAAAAAAAAAAAAAAAAAAAAAAAAAHgAQCAAADSjBgAQCCALAAgAIAACQCAAAAAAAAAAAAIGIAAACABIAgCAEQAAEEACQAACsJgAIAAAAAAAAAAAAAAAAAAAAAAAAAAAAAA==

> <PUBCHEM_IUPAC_OPENEYE_NAME>
(2R)-2-[[(1S)-1-carboxy-2-methyl-propyl]amino]pentanedioic acid

> <PUBCHEM_IUPAC_CAS_NAME>
(2R)-2-[[(1S)-1-carboxy-2-methylpropyl]amino]pentanedioic acid

> <PUBCHEM_IUPAC_NAME>
(2R)-2-[[(1S)-1-carboxy-2-methylpropyl]amino]pentanedioic acid

> <PUBCHEM_IUPAC_SYSTEMATIC_NAME>
(2R)-2-[[(2S)-3-methyl-1-oxidanyl-1-oxidanylidene-butan-2-yl]amino]pentanedioic acid

> <PUBCHEM_IUPAC_TRADITIONAL_NAME>
(2R)-2-[[(1S)-1-carboxy-2-methyl-propyl]amino]glutaric acid

> <PUBCHEM_IUPAC_INCHI>
InChI=1S/C10H17NO6/c1-5(2)8(10(16)17)11-6(9(14)15)3-4-7(12)13/h5-6,8,11H,3-4H2,1-2H3,(H,12,13)(H,14,15)(H,16,17)/t6-,8+/m1/s1

> <PUBCHEM_IUPAC_INCHIKEY>
OEZFTGUQNATVAL-SVRRBLITSA-N

> <PUBCHEM_XLOGP3_AA>
-2

> <PUBCHEM_EXACT_MASS>
247.105587

> <PUBCHEM_MOLECULAR_FORMULA>
C10H17NO6

> <PUBCHEM_MOLECULAR_WEIGHT>
247.24508

> <PUBCHEM_OPENEYE_CAN_SMILES>
CC(C)C(C(=O)O)NC(CCC(=O)O)C(=O)O

> <PUBCHEM_OPENEYE_ISO_SMILES>
CC(C)[C@@H](C(=O)O)N[C@H](CCC(=O)O)C(=O)O

> <PUBCHEM_CACTVS_TPSA>
124

> <PUBCHEM_MONOISOTOPIC_WEIGHT>
247.105587

> <PUBCHEM_TOTAL_CHARGE>
0

> <PUBCHEM_HEAVY_ATOM_COUNT>
17

> <PUBCHEM_ATOM_DEF_STEREO_COUNT>
2

> <PUBCHEM_ATOM_UDEF_STEREO_COUNT>
0

> <PUBCHEM_BOND_DEF_STEREO_COUNT>
0

> <PUBCHEM_BOND_UDEF_STEREO_COUNT>
0

> <PUBCHEM_ISOTOPIC_ATOM_COUNT>
0

> <PUBCHEM_COMPONENT_COUNT>
1

> <PUBCHEM_CACTVS_TAUTO_COUNT>
1

> <PUBCHEM_COORDINATE_TYPE>
1
5
255

> <PUBCHEM_BONDANNOTATIONS>
10  7  5
8  7  5

$$$$

