440849
  -OEChem-07051212513D

 27 26  0     1  0  0  0  0  0999 V2000
   -3.9614   -0.4852   -1.2800 O   0  0  0  0  0  0  0  0  0  0  0  0
   -3.6759   -0.9145    0.9296 O   0  0  0  0  0  0  0  0  0  0  0  0
    3.8207    1.7995   -0.5527 O   0  0  0  0  0  0  0  0  0  0  0  0
   -2.8744    1.8864    0.7944 N   0  0  0  0  0  0  0  0  0  0  0  0
    1.9171   -0.0864   -0.1811 N   0  0  0  0  0  0  0  0  0  0  0  0
    4.1365    0.6188    0.0840 N   0  0  0  0  0  0  0  0  0  0  0  0
    3.6648   -1.5536    0.5490 N   0  0  0  0  0  0  0  0  0  0  0  0
   -0.9709    0.4078    0.3361 C   0  0  0  0  0  0  0  0  0  0  0  0
   -0.4180   -0.7251   -0.5408 C   0  0  0  0  0  0  0  0  0  0  0  0
   -2.3691    0.8587   -0.1126 C   0  0  1  0  0  0  0  0  0  0  0  0
    0.9616   -1.1913   -0.0872 C   0  0  0  0  0  0  0  0  0  0  0  0
   -3.3811   -0.2714   -0.0695 C   0  0  0  0  0  0  0  0  0  0  0  0
    3.1500   -0.3438    0.1306 C   0  0  0  0  0  0  0  0  0  0  0  0
   -0.2904    1.2679    0.3088 H   0  0  0  0  0  0  0  0  0  0  0  0
   -1.0054    0.0598    1.3773 H   0  0  0  0  0  0  0  0  0  0  0  0
   -1.0951   -1.5864   -0.5190 H   0  0  0  0  0  0  0  0  0  0  0  0
   -0.3644   -0.3813   -1.5813 H   0  0  0  0  0  0  0  0  0  0  0  0
   -2.3161    1.2671   -1.1284 H   0  0  0  0  0  0  0  0  0  0  0  0
    0.8983   -1.5577    0.9446 H   0  0  0  0  0  0  0  0  0  0  0  0
    1.2734   -2.0206   -0.7336 H   0  0  0  0  0  0  0  0  0  0  0  0
   -3.7551    2.2560    0.4377 H   0  0  0  0  0  0  0  0  0  0  0  0
   -2.2262    2.6729    0.8161 H   0  0  0  0  0  0  0  0  0  0  0  0
   -4.6225   -1.2091   -1.2451 H   0  0  0  0  0  0  0  0  0  0  0  0
    5.1210    0.4152    0.2180 H   0  0  0  0  0  0  0  0  0  0  0  0
    4.6492   -1.6516    0.7734 H   0  0  0  0  0  0  0  0  0  0  0  0
    3.0894   -2.3818    0.6505 H   0  0  0  0  0  0  0  0  0  0  0  0
    4.3781    2.4377   -0.0759 H   0  0  0  0  0  0  0  0  0  0  0  0
  1 12  1  0  0  0  0
  1 23  1  0  0  0  0
  2 12  2  0  0  0  0
  3  6  1  0  0  0  0
  3 27  1  0  0  0  0
  4 10  1  0  0  0  0
  4 21  1  0  0  0  0
  4 22  1  0  0  0  0
  5 11  1  0  0  0  0
  5 13  2  0  0  0  0
  6 13  1  0  0  0  0
  6 24  1  0  0  0  0
  7 13  1  0  0  0  0
  7 25  1  0  0  0  0
  7 26  1  0  0  0  0
  8  9  1  0  0  0  0
  8 10  1  0  0  0  0
  8 14  1  0  0  0  0
  8 15  1  0  0  0  0
  9 11  1  0  0  0  0
  9 16  1  0  0  0  0
  9 17  1  0  0  0  0
 10 12  1  0  0  0  0
 10 18  1  0  0  0  0
 11 19  1  0  0  0  0
 11 20  1  0  0  0  0
M  END
> <PUBCHEM_COMPOUND_CID>
440849

> <PUBCHEM_CONFORMER_RMSD>
0.6

> <PUBCHEM_CONFORMER_DIVERSEORDER>
3
297
22
197
240
193
227
152
273
205
37
290
65
210
95
265
72
231
249
174
91
213
272
283
254
153
103
266
56
107
242
287
119
246
20
165
157
8
281
279
127
237
195
126
294
154
144
257
122
256
274
62
239
49
136
230
286
15
292
4
261
93
211
117
267
140
48
263
106
200
204
229
87
175
217
53
98
277
306
73
142
305
44
268
113
208
264
184
155
176
85
190
148
260
198
228
218
233
16
6
39
296
224
141
189
114
271
288
78
234
133
308
125
199
30
23
137
235
307
7
108
222
270
1
275
94
13
253
291
67
63
259
128
181
252
11
248
166
59
33
194
43
241
68
191
300
123
111
278
172
245
182
55
100
215
21
51
258
147
188
138
131
109
135
121
139
118
54
220
99
183
202
168
71
201
262
26
31
110
223
80
212
89
132
35
101
115
158
27
92
12
214
61
301
83
97
149
42
284
104
192
69
116
304
302
47
120
285
105
57
251
143
293
112
255
232
60
77
76
164
74
309
145
70
29
84
280
34
19
303
173
9
179
276
50
244
169
75
178
18
150
5
24
134
269
58
186
10
243
81
216
14
282
156
86
219
38
45
82
187
225
180
32
163
161
289
185
238
36
88
196
2
52
96
41
124
151
90
130
159
167
46
40
64
28
299
25
226
177
221
66
129
247
17
203
146
295
209
298
102
160
170
206
79
250
162
236
207
171

> <PUBCHEM_MMFF94_PARTIAL_CHARGES>
18
1 -0.65
10 0.33
11 0.25
12 0.66
13 0.55
2 -0.57
21 0.36
22 0.36
23 0.5
24 0.4
25 0.4
26 0.4
27 0.4
3 -0.38
4 -0.99
5 -0.7
6 -0.47
7 -0.85

> <PUBCHEM_EFFECTIVE_ROTOR_COUNT>
6

> <PUBCHEM_PHARMACOPHORE_FEATURES>
8
1 1 acceptor
1 2 acceptor
1 4 cation
1 4 donor
1 6 donor
1 7 donor
3 1 2 12 anion
4 5 6 7 13 cation

> <PUBCHEM_HEAVY_ATOM_COUNT>
13

> <PUBCHEM_ATOM_DEF_STEREO_COUNT>
0

> <PUBCHEM_ATOM_UDEF_STEREO_COUNT>
1

> <PUBCHEM_BOND_DEF_STEREO_COUNT>
0

> <PUBCHEM_BOND_UDEF_STEREO_COUNT>
0

> <PUBCHEM_ISOTOPIC_ATOM_COUNT>
0

> <PUBCHEM_COMPONENT_COUNT>
1

> <PUBCHEM_CACTVS_TAUTO_COUNT>
4

> <PUBCHEM_CONFORMER_ID>
0006BA1100000003

> <PUBCHEM_MMFF94_ENERGY>
21.7688

> <PUBCHEM_FEATURE_SELFOVERLAP>
40.712

> <PUBCHEM_SHAPE_FINGERPRINT>
12162725 195 18410011069731880544
124424 183 11312057634386573427
12932764 1 16588599689434451031
14325111 11 18408885174104213410
170605 34 18411698794648569834
18186145 218 18059570338650011042
190213 19 17989207048917328126
19050596 39 18338232773021998145
20279233 1 15913609479847172466
20645477 56 17559959999289489501
22169311 21 17275107240605210171
22959321 4 18341893017187400058
22959321 54 18337391535390571016
23048698 100 18201723963711808042
23402539 116 17822301218470618796
449060 50 18059289864590448150
6333272 397 18342736278466140522

> <PUBCHEM_SHAPE_MULTIPOLES>
230
8.84
1.54
0.85
2.72
0.49
-0.05
0.76
0.03
0.5
0.13
-0.58
-0.05
-0.73

> <PUBCHEM_SHAPE_SELFOVERLAP>
435.858

> <PUBCHEM_SHAPE_VOLUME>
141.2

> <PUBCHEM_COORDINATE_TYPE>
2
5
10

$$$$

