5281948
  -OEChem-07051213013D

 46 48  0     0  0  0  0  0  0999 V2000
    0.1581    0.3987    0.1053 O   0  0  0  0  0  0  0  0  0  0  0  0
   -4.5287    1.2131    0.0126 O   0  0  0  0  0  0  0  0  0  0  0  0
   -3.0031   -3.2740    0.0235 O   0  0  0  0  0  0  0  0  0  0  0  0
    2.1946   -2.6735    0.1524 O   0  0  0  0  0  0  0  0  0  0  0  0
   -0.4140   -3.6357    0.0823 O   0  0  0  0  0  0  0  0  0  0  0  0
   -1.8962    2.2696    0.0715 C   0  0  0  0  0  0  0  0  0  0  0  0
   -2.1676    0.7989    0.0591 C   0  0  0  0  0  0  0  0  0  0  0  0
   -1.1129   -0.1142    0.0759 C   0  0  0  0  0  0  0  0  0  0  0  0
   -3.1677    3.1820   -0.0077 C   0  0  0  0  0  0  0  0  0  0  0  0
   -1.2037    2.6677    1.4157 C   0  0  0  0  0  0  0  0  0  0  0  0
   -1.3754   -1.4823    0.0645 C   0  0  0  0  0  0  0  0  0  0  0  0
   -3.4839    0.3381    0.0299 C   0  0  0  0  0  0  0  0  0  0  0  0
   -1.0613    2.6876   -1.1596 C   0  0  0  0  0  0  0  0  0  0  0  0
   -2.6924   -1.9479    0.0355 C   0  0  0  0  0  0  0  0  0  0  0  0
   -3.7455   -1.0326    0.0180 C   0  0  0  0  0  0  0  0  0  0  0  0
   -0.2454   -2.4237    0.0853 C   0  0  0  0  0  0  0  0  0  0  0  0
    1.2272   -0.4833    0.1121 C   0  0  0  0  0  0  0  0  0  0  0  0
    1.1104   -1.8237    0.1120 C   0  0  0  0  0  0  0  0  0  0  0  0
    2.5338    0.1976    0.1449 C   0  0  0  0  0  0  0  0  0  0  0  0
    0.1463    3.2658   -1.1895 C   0  0  0  0  0  0  0  0  0  0  0  0
    3.1845    0.5174   -1.0471 C   0  0  0  0  0  0  0  0  0  0  0  0
    3.1208    0.5235    1.3679 C   0  0  0  0  0  0  0  0  0  0  0  0
    4.4210    1.1623   -1.0162 C   0  0  0  0  0  0  0  0  0  0  0  0
    4.3572    1.1685    1.3989 C   0  0  0  0  0  0  0  0  0  0  0  0
    2.6367   -2.9878   -1.1543 C   0  0  0  0  0  0  0  0  0  0  0  0
    5.0072    1.4879    0.2069 C   0  0  0  0  0  0  0  0  0  0  0  0
   -3.8053    3.1096    0.8815 H   0  0  0  0  0  0  0  0  0  0  0  0
   -2.8535    4.2370   -0.0240 H   0  0  0  0  0  0  0  0  0  0  0  0
   -3.7365    3.0583   -0.9377 H   0  0  0  0  0  0  0  0  0  0  0  0
   -1.8207    2.3607    2.2697 H   0  0  0  0  0  0  0  0  0  0  0  0
   -1.0698    3.7543    1.4878 H   0  0  0  0  0  0  0  0  0  0  0  0
   -0.2171    2.2189    1.5595 H   0  0  0  0  0  0  0  0  0  0  0  0
   -1.5236    2.4774   -2.1247 H   0  0  0  0  0  0  0  0  0  0  0  0
   -4.7708   -1.3947   -0.0046 H   0  0  0  0  0  0  0  0  0  0  0  0
    0.6132    3.4999   -2.1405 H   0  0  0  0  0  0  0  0  0  0  0  0
    0.6959    3.5153   -0.2903 H   0  0  0  0  0  0  0  0  0  0  0  0
   -5.3625    0.7129   -0.0069 H   0  0  0  0  0  0  0  0  0  0  0  0
   -2.1972   -3.8126    0.0323 H   0  0  0  0  0  0  0  0  0  0  0  0
    2.7359    0.2818   -2.0090 H   0  0  0  0  0  0  0  0  0  0  0  0
    2.6255    0.2820    2.3053 H   0  0  0  0  0  0  0  0  0  0  0  0
    4.9258    1.4136   -1.9444 H   0  0  0  0  0  0  0  0  0  0  0  0
    4.8135    1.4225    2.3512 H   0  0  0  0  0  0  0  0  0  0  0  0
    2.9790   -2.1107   -1.7070 H   0  0  0  0  0  0  0  0  0  0  0  0
    1.8532   -3.5003   -1.7237 H   0  0  0  0  0  0  0  0  0  0  0  0
    3.4845   -3.6742   -1.0664 H   0  0  0  0  0  0  0  0  0  0  0  0
    5.9695    1.9909    0.2310 H   0  0  0  0  0  0  0  0  0  0  0  0
  1  8  1  0  0  0  0
  1 17  1  0  0  0  0
  2 12  1  0  0  0  0
  2 37  1  0  0  0  0
  3 14  1  0  0  0  0
  3 38  1  0  0  0  0
  4 18  1  0  0  0  0
  4 25  1  0  0  0  0
  5 16  2  0  0  0  0
  6  7  1  0  0  0  0
  6  9  1  0  0  0  0
  6 10  1  0  0  0  0
  6 13  1  0  0  0  0
  7  8  1  0  0  0  0
  7 12  2  0  0  0  0
  8 11  2  0  0  0  0
  9 27  1  0  0  0  0
  9 28  1  0  0  0  0
  9 29  1  0  0  0  0
 10 30  1  0  0  0  0
 10 31  1  0  0  0  0
 10 32  1  0  0  0  0
 11 14  1  0  0  0  0
 11 16  1  0  0  0  0
 12 15  1  0  0  0  0
 13 20  2  0  0  0  0
 13 33  1  0  0  0  0
 14 15  2  0  0  0  0
 15 34  1  0  0  0  0
 16 18  1  0  0  0  0
 17 18  2  0  0  0  0
 17 19  1  0  0  0  0
 19 21  2  0  0  0  0
 19 22  1  0  0  0  0
 20 35  1  0  0  0  0
 20 36  1  0  0  0  0
 21 23  1  0  0  0  0
 21 39  1  0  0  0  0
 22 24  2  0  0  0  0
 22 40  1  0  0  0  0
 23 26  2  0  0  0  0
 23 41  1  0  0  0  0
 24 26  1  0  0  0  0
 24 42  1  0  0  0  0
 25 43  1  0  0  0  0
 25 44  1  0  0  0  0
 25 45  1  0  0  0  0
 26 46  1  0  0  0  0
M  END
> <PUBCHEM_COMPOUND_CID>
5281948

> <PUBCHEM_CONFORMER_RMSD>
0.8

> <PUBCHEM_CONFORMER_DIVERSEORDER>
1
4
2
5
3
6

> <PUBCHEM_MMFF94_PARTIAL_CHARGES>
35
1 -0.16
11 0.09
12 0.08
13 -0.29
14 0.08
15 -0.15
16 0.47
17 0.05
18 0.09
19 0.03
2 -0.53
20 -0.3
21 -0.15
22 -0.15
23 -0.15
24 -0.15
25 0.28
26 -0.15
3 -0.53
33 0.15
34 0.15
35 0.15
36 0.15
37 0.45
38 0.45
39 0.15
4 -0.36
40 0.15
41 0.15
42 0.15
46 0.15
5 -0.57
6 0.28
7 -0.14
8 0.08

> <PUBCHEM_EFFECTIVE_ROTOR_COUNT>
4

> <PUBCHEM_PHARMACOPHORE_FEATURES>
10
1 1 acceptor
1 2 donor
1 20 hydrophobe
1 3 donor
1 4 acceptor
1 5 acceptor
3 6 9 10 hydrophobe
6 1 8 11 16 17 18 rings
6 19 21 22 23 24 26 rings
6 7 8 11 12 14 15 rings

> <PUBCHEM_HEAVY_ATOM_COUNT>
26

> <PUBCHEM_ATOM_DEF_STEREO_COUNT>
0

> <PUBCHEM_ATOM_UDEF_STEREO_COUNT>
0

> <PUBCHEM_BOND_DEF_STEREO_COUNT>
0

> <PUBCHEM_BOND_UDEF_STEREO_COUNT>
0

> <PUBCHEM_ISOTOPIC_ATOM_COUNT>
0

> <PUBCHEM_COMPONENT_COUNT>
1

> <PUBCHEM_CACTVS_TAUTO_COUNT>
12

> <PUBCHEM_CONFORMER_ID>
0050989C00000001

> <PUBCHEM_MMFF94_ENERGY>
104.084

> <PUBCHEM_FEATURE_SELFOVERLAP>
50.778

> <PUBCHEM_SHAPE_FINGERPRINT>
10165383 225 18263907999267726456
10319926 262 18191045443112830032
10411042 1 17546165199595037442
10498660 4 18411699863699651420
10616163 171 18411135805649922822
10670039 82 18342168939478233796
10967382 1 18339642343013693031
1100329 8 18051972520334661651
11112241 14 16662918832909858593
11513181 2 18187082892530544847
12173636 292 18410015472131439981
12236239 1 17702674237937346352
12553582 1 18196087751133519003
12788726 201 18125430917834626724
13140716 1 17979633429438907523
13402501 40 17969791769990001584
13965767 371 17914341422768679384
14081887 123 18335426750565406304
14117953 113 18271813483228205620
14223421 5 18336265746741064114
14790565 3 18339630140964911817
14955137 171 18050827941388442659
15297060 5 18191846986657337708
16945 1 18338796719587335859
19591789 44 18123182669774324527
20510252 161 18335137557711631080
20600515 1 18193272984096866140
20642791 178 18128245689177361989
20715895 44 17771648981327607509
20739085 24 17979324746403779873
20905425 154 18335135414560211334
21857420 4 15584602327842784510
22149856 69 18196070348897032465
2334 1 18411135878664464323
23366157 5 18129660928272771130
23402539 116 18337961069391395422
23557571 272 18262786372652175334
23558518 356 18343020033691138634
23559900 14 18045508770410678330
238 59 17190971739175229933
2748010 2 18411412951410758727
34934 24 18412552011434597107
350125 39 18266737064133865442
3524813 1 18042129773546327760
469060 322 18196071284312939291
5104073 3 18339637958015842419
5265222 85 18263639560476101492
6287921 2 18267573788034830620
7097593 13 17770808967376114618
7808743 9 18339643314019771552
81228 2 18340757178657468091
9709674 26 18335139851097995094
9925002 15 17178004717375250206
9981440 41 18341617026799706539

> <PUBCHEM_SHAPE_MULTIPOLES>
505.72
7.99
4.47
1.09
4.59
1.25
-0.05
-2.63
-0.47
-2.05
0.67
0.91
-0.58
0.44

> <PUBCHEM_SHAPE_SELFOVERLAP>
1112.011

> <PUBCHEM_SHAPE_VOLUME>
271.1

> <PUBCHEM_COORDINATE_TYPE>
2
5
10

$$$$

