115149
  -OEChem-07051212583D

 72 76  0     1  0  0  0  0  0999 V2000
   -1.7683   -1.7518    0.5875 O   0  0  0  0  0  0  0  0  0  0  0  0
   -0.5939   -3.7528    0.3419 O   0  0  0  0  0  0  0  0  0  0  0  0
   -2.3634   -1.0838   -1.5936 O   0  0  0  0  0  0  0  0  0  0  0  0
    0.6665   -0.3237    0.3863 O   0  0  0  0  0  0  0  0  0  0  0  0
    2.9631   -1.9323    1.2910 O   0  0  0  0  0  0  0  0  0  0  0  0
    2.9715   -4.5098   -0.0174 O   0  0  0  0  0  0  0  0  0  0  0  0
   -4.0396    3.1824   -0.0800 O   0  0  0  0  0  0  0  0  0  0  0  0
   -0.8059   -6.3208   -0.6156 O   0  0  0  0  0  0  0  0  0  0  0  0
   -2.6445    3.0457   -1.8415 O   0  0  0  0  0  0  0  0  0  0  0  0
    1.5504    0.2582    2.4305 O   0  0  0  0  0  0  0  0  0  0  0  0
   -1.0575    2.2637    1.6377 O   0  0  0  0  0  0  0  0  0  0  0  0
    1.1012    5.8098   -0.6957 O   0  0  0  0  0  0  0  0  0  0  0  0
    4.7973   -0.7144   -2.5997 O   0  0  0  0  0  0  0  0  0  0  0  0
   -3.8355    0.3792    0.4646 C   0  0  2  0  0  0  0  0  0  0  0  0
   -4.0742   -1.1285    0.2144 C   0  0  2  0  0  0  0  0  0  0  0  0
    0.6139   -1.6932    0.7852 C   0  0  1  0  0  0  0  0  0  0  0  0
   -0.5747   -2.3508    0.0840 C   0  0  2  0  0  0  0  0  0  0  0  0
    1.9281   -2.3804    0.4144 C   0  0  2  0  0  0  0  0  0  0  0  0
   -2.8022   -1.7491   -0.3994 C   0  0  2  0  0  0  0  0  0  0  0  0
    1.8165   -3.8989    0.5520 C   0  0  1  0  0  0  0  0  0  0  0  0
    0.5659   -4.4184   -0.1611 C   0  0  1  0  0  0  0  0  0  0  0  0
   -5.0899    1.1612    0.8359 C   0  0  0  0  0  0  0  0  0  0  0  0
   -3.1614    1.0206   -0.7082 C   0  0  0  0  0  0  0  0  0  0  0  0
   -4.6923    2.6046    1.0712 C   0  0  0  0  0  0  0  0  0  0  0  0
   -5.2710   -1.4330   -0.6426 C   0  0  0  0  0  0  0  0  0  0  0  0
    0.3699   -5.9148    0.0608 C   0  0  0  0  0  0  0  0  0  0  0  0
   -2.5129    0.2785   -1.6183 C   0  0  0  0  0  0  0  0  0  0  0  0
   -3.2433    2.4831   -0.9303 C   0  0  0  0  0  0  0  0  0  0  0  0
   -6.3276   -2.1405   -0.2285 C   0  0  0  0  0  0  0  0  0  0  0  0
    1.1576    0.5440    1.3101 C   0  0  0  0  0  0  0  0  0  0  0  0
    1.1582    1.9292    0.7756 C   0  0  0  0  0  0  0  0  0  0  0  0
    2.2634    2.4305    0.0882 C   0  0  0  0  0  0  0  0  0  0  0  0
    0.0338    2.7318    0.9683 C   0  0  0  0  0  0  0  0  0  0  0  0
    2.2446    3.7346   -0.4065 C   0  0  0  0  0  0  0  0  0  0  0  0
    3.4474    1.6214   -0.1282 C   0  0  0  0  0  0  0  0  0  0  0  0
    0.0148    4.0358    0.4737 C   0  0  0  0  0  0  0  0  0  0  0  0
    1.1202    4.5372   -0.2137 C   0  0  0  0  0  0  0  0  0  0  0  0
    3.5531    0.8318   -1.2733 C   0  0  0  0  0  0  0  0  0  0  0  0
    4.4811    1.6339    0.8082 C   0  0  0  0  0  0  0  0  0  0  0  0
    4.6927    0.0551   -1.4820 C   0  0  0  0  0  0  0  0  0  0  0  0
    5.6206    0.8570    0.5997 C   0  0  0  0  0  0  0  0  0  0  0  0
    5.7265    0.0676   -0.5454 C   0  0  0  0  0  0  0  0  0  0  0  0
   -3.1380    0.4572    1.3114 H   0  0  0  0  0  0  0  0  0  0  0  0
   -4.2285   -1.5884    1.2017 H   0  0  0  0  0  0  0  0  0  0  0  0
    0.4469   -1.7637    1.8693 H   0  0  0  0  0  0  0  0  0  0  0  0
   -0.4718   -2.1890   -0.9961 H   0  0  0  0  0  0  0  0  0  0  0  0
    2.2403   -2.1007   -0.5984 H   0  0  0  0  0  0  0  0  0  0  0  0
   -3.0047   -2.7937   -0.6701 H   0  0  0  0  0  0  0  0  0  0  0  0
    1.7924   -4.1718    1.6141 H   0  0  0  0  0  0  0  0  0  0  0  0
    0.6275   -4.2426   -1.2438 H   0  0  0  0  0  0  0  0  0  0  0  0
   -5.8270    1.1263    0.0245 H   0  0  0  0  0  0  0  0  0  0  0  0
   -5.5571    0.7458    1.7354 H   0  0  0  0  0  0  0  0  0  0  0  0
   -4.0187    2.7080    1.9288 H   0  0  0  0  0  0  0  0  0  0  0  0
   -5.5827    3.2080    1.2746 H   0  0  0  0  0  0  0  0  0  0  0  0
   -5.2789   -1.0543   -1.6618 H   0  0  0  0  0  0  0  0  0  0  0  0
    0.2358   -6.1371    1.1247 H   0  0  0  0  0  0  0  0  0  0  0  0
    1.2149   -6.4924   -0.3259 H   0  0  0  0  0  0  0  0  0  0  0  0
   -2.0425    0.6714   -2.5100 H   0  0  0  0  0  0  0  0  0  0  0  0
    2.6986   -2.1409    2.2031 H   0  0  0  0  0  0  0  0  0  0  0  0
    2.9970   -4.2814   -0.9623 H   0  0  0  0  0  0  0  0  0  0  0  0
   -6.3823   -2.5453    0.7758 H   0  0  0  0  0  0  0  0  0  0  0  0
   -7.1611   -2.3247   -0.8975 H   0  0  0  0  0  0  0  0  0  0  0  0
   -0.9133   -7.2742   -0.4578 H   0  0  0  0  0  0  0  0  0  0  0  0
    3.1040    4.1310   -0.9435 H   0  0  0  0  0  0  0  0  0  0  0  0
   -0.8617    4.6614    0.6229 H   0  0  0  0  0  0  0  0  0  0  0  0
    2.7481    0.8184   -2.0051 H   0  0  0  0  0  0  0  0  0  0  0  0
    4.4142    2.2430    1.7065 H   0  0  0  0  0  0  0  0  0  0  0  0
   -0.9157    1.3473    1.9244 H   0  0  0  0  0  0  0  0  0  0  0  0
    6.4251    0.8662    1.3291 H   0  0  0  0  0  0  0  0  0  0  0  0
    1.9457    5.9906   -1.1430 H   0  0  0  0  0  0  0  0  0  0  0  0
    6.6164   -0.5357   -0.7021 H   0  0  0  0  0  0  0  0  0  0  0  0
    3.9920   -0.6053   -3.1343 H   0  0  0  0  0  0  0  0  0  0  0  0
  1 17  1  0  0  0  0
  1 19  1  0  0  0  0
  2 17  1  0  0  0  0
  2 21  1  0  0  0  0
  3 19  1  0  0  0  0
  3 27  1  0  0  0  0
  4 16  1  0  0  0  0
  4 30  1  0  0  0  0
  5 18  1  0  0  0  0
  5 59  1  0  0  0  0
  6 20  1  0  0  0  0
  6 60  1  0  0  0  0
  7 24  1  0  0  0  0
  7 28  1  0  0  0  0
  8 26  1  0  0  0  0
  8 63  1  0  0  0  0
  9 28  2  0  0  0  0
 10 30  2  0  0  0  0
 11 33  1  0  0  0  0
 11 68  1  0  0  0  0
 12 37  1  0  0  0  0
 12 70  1  0  0  0  0
 13 40  1  0  0  0  0
 13 72  1  0  0  0  0
 14 15  1  0  0  0  0
 14 22  1  0  0  0  0
 14 23  1  0  0  0  0
 14 43  1  0  0  0  0
 15 19  1  0  0  0  0
 15 25  1  0  0  0  0
 15 44  1  0  0  0  0
 16 17  1  0  0  0  0
 16 18  1  0  0  0  0
 16 45  1  0  0  0  0
 17 46  1  0  0  0  0
 18 20  1  0  0  0  0
 18 47  1  0  0  0  0
 19 48  1  0  0  0  0
 20 21  1  0  0  0  0
 20 49  1  0  0  0  0
 21 26  1  0  0  0  0
 21 50  1  0  0  0  0
 22 24  1  0  0  0  0
 22 51  1  0  0  0  0
 22 52  1  0  0  0  0
 23 27  2  0  0  0  0
 23 28  1  0  0  0  0
 24 53  1  0  0  0  0
 24 54  1  0  0  0  0
 25 29  2  0  0  0  0
 25 55  1  0  0  0  0
 26 56  1  0  0  0  0
 26 57  1  0  0  0  0
 27 58  1  0  0  0  0
 29 61  1  0  0  0  0
 29 62  1  0  0  0  0
 30 31  1  0  0  0  0
 31 32  2  0  0  0  0
 31 33  1  0  0  0  0
 32 34  1  0  0  0  0
 32 35  1  0  0  0  0
 33 36  2  0  0  0  0
 34 37  2  0  0  0  0
 34 64  1  0  0  0  0
 35 38  2  0  0  0  0
 35 39  1  0  0  0  0
 36 37  1  0  0  0  0
 36 65  1  0  0  0  0
 38 40  1  0  0  0  0
 38 66  1  0  0  0  0
 39 41  2  0  0  0  0
 39 67  1  0  0  0  0
 40 42  2  0  0  0  0
 41 42  1  0  0  0  0
 41 69  1  0  0  0  0
 42 71  1  0  0  0  0
M  END
> <PUBCHEM_COMPOUND_CID>
115149

> <PUBCHEM_CONFORMER_RMSD>
1.2

> <PUBCHEM_CONFORMER_DIVERSEORDER>
1
72
19
36
24
55
51
30
62
32
44
7
73
21
65
23
59
71
27
25
28
38
35
67
61
33
52
64
29
66
6
58
54
69
49
48
45
31
57
43
68
50
26
34
53
47
14
18
60
63
39
70
42
20
40
41
17
11
9
3
12
46
16
22
13
37
8
10
56
4
15
5
2

> <PUBCHEM_MMFF94_PARTIAL_CHARGES>
55
1 -0.56
10 -0.57
11 -0.53
12 -0.53
13 -0.53
14 0.14
15 0.14
16 0.28
17 0.56
18 0.28
19 0.56
2 -0.56
20 0.28
21 0.28
23 -0.12
24 0.28
25 -0.29
26 0.28
27 -0.07
28 0.71
29 -0.3
3 -0.36
30 0.63
31 0.09
33 0.08
34 -0.15
36 -0.15
37 0.08
38 -0.15
39 -0.15
4 -0.43
40 0.08
41 -0.15
42 -0.15
5 -0.68
55 0.15
58 0.15
59 0.4
6 -0.68
60 0.4
61 0.15
62 0.15
63 0.4
64 0.15
65 0.15
66 0.15
67 0.15
68 0.45
69 0.15
7 -0.43
70 0.45
71 0.15
72 0.45
8 -0.68
9 -0.57

> <PUBCHEM_EFFECTIVE_ROTOR_COUNT>
10.4

> <PUBCHEM_PHARMACOPHORE_FEATURES>
20
1 1 acceptor
1 10 acceptor
1 11 donor
1 12 donor
1 13 donor
1 2 acceptor
1 29 hydrophobe
1 3 acceptor
1 5 acceptor
1 5 donor
1 6 acceptor
1 6 donor
1 8 acceptor
1 8 donor
1 9 acceptor
6 2 16 17 18 20 21 rings
6 3 14 15 19 23 27 rings
6 31 32 33 34 36 37 rings
6 35 38 39 40 41 42 rings
6 7 14 22 23 24 28 rings

> <PUBCHEM_HEAVY_ATOM_COUNT>
42

> <PUBCHEM_ATOM_DEF_STEREO_COUNT>
8

> <PUBCHEM_ATOM_UDEF_STEREO_COUNT>
0

> <PUBCHEM_BOND_DEF_STEREO_COUNT>
0

> <PUBCHEM_BOND_UDEF_STEREO_COUNT>
0

> <PUBCHEM_ISOTOPIC_ATOM_COUNT>
0

> <PUBCHEM_COMPONENT_COUNT>
1

> <PUBCHEM_CACTVS_TAUTO_COUNT>
36

> <PUBCHEM_CONFORMER_ID>
0001C1CD00000001

> <PUBCHEM_MMFF94_ENERGY>
126.1405

> <PUBCHEM_FEATURE_SELFOVERLAP>
101.607

> <PUBCHEM_SHAPE_FINGERPRINT>
10190108 129 18120624041781873377
10439779 11 18265911172267061202
10483366 6 18337941407363689910
11135926 11 18267589181266431268
11828532 37 17983292621717441887
12156800 1 16747321047682459893
12422481 6 17843145807539739224
13642711 20 18336828696984883454
140371 6 18045487631040745880
14394314 77 18410291449835731904
144659 178 16753245238161239278
14725015 67 18336553711656309413
14790565 3 18409730664333960714
15297060 5 18261675977909769480
15320467 1 18339081467096972027
15351339 4 18410858789134388306
17627616 140 18268427026095396379
17909252 39 17979069715403430600
19311894 1 18408886226286772428
20764821 26 18195829545988612975
20775438 99 17405749193736322524
463206 1 17832701645298194640
5776283 40 18053368913103449300
6371009 1 18267318542328164895

> <PUBCHEM_SHAPE_MULTIPOLES>
788.04
10.82
8.05
1.48
2.91
6.48
-0.26
-1.88
-2.08
-0.35
-0.34
-0.65
-0.39
-0.32

> <PUBCHEM_SHAPE_SELFOVERLAP>
1714.994

> <PUBCHEM_SHAPE_VOLUME>
421.4

> <PUBCHEM_COORDINATE_TYPE>
2
5
10

$$$$

