107902
  -OEChem-07051213153D

 48 50  0     1  0  0  0  0  0999 V2000
   -1.9782    2.4712    0.6862 P   0  0  1  0  0  0  0  0  0  0  0  0
   -3.5438    0.1304   -0.1710 P   0  0  2  0  0  0  0  0  0  0  0  0
   -2.1039   -1.3714   -2.2628 P   0  0  0  0  0  0  0  0  0  0  0  0
    2.2546    1.6386    0.8375 O   0  0  0  0  0  0  0  0  0  0  0  0
    4.0298    3.5175   -0.8027 O   0  0  0  0  0  0  0  0  0  0  0  0
   -0.3722    2.6220    0.8133 O   0  0  0  0  0  0  0  0  0  0  0  0
    4.3618   -1.7144   -1.0976 O   0  0  0  0  0  0  0  0  0  0  0  0
   -2.2003    0.9885    0.0845 O   0  0  0  0  0  0  0  0  0  0  0  0
   -2.4909    2.3312    2.2142 O   0  0  0  0  0  0  0  0  0  0  0  0
    0.2578   -4.2971    1.0360 O   0  0  0  0  0  0  0  0  0  0  0  0
   -2.6534    3.5598   -0.0965 O   0  0  0  0  0  0  0  0  0  0  0  0
   -3.0057   -1.1880   -0.9342 O   0  0  0  0  0  0  0  0  0  0  0  0
   -4.3120    0.9508   -1.3328 O   0  0  0  0  0  0  0  0  0  0  0  0
   -4.3666   -0.1484    1.0523 O   0  0  0  0  0  0  0  0  0  0  0  0
   -0.6759   -0.7547   -1.8236 O   0  0  0  0  0  0  0  0  0  0  0  0
   -1.8266   -2.9626   -2.3166 O   0  0  0  0  0  0  0  0  0  0  0  0
   -2.6974   -0.7812   -3.5078 O   0  0  0  0  0  0  0  0  0  0  0  0
    2.6747   -0.5551    0.1403 N   0  0  0  0  0  0  0  0  0  0  0  0
    2.4900   -2.7876   -0.1058 N   0  0  0  0  0  0  0  0  0  0  0  0
    0.5697   -0.3234    1.4893 N   0  0  0  0  0  0  0  0  0  0  0  0
   -0.6228   -2.3426    1.9070 N   0  0  0  0  0  0  0  0  0  0  0  0
   -1.3807   -0.2639    2.7172 N   0  0  0  0  0  0  0  0  0  0  0  0
    3.1339    0.8013    0.0733 C   0  0  1  0  0  0  0  0  0  0  0  0
    2.8393    2.8087   -1.1398 C   0  0  1  0  0  0  0  0  0  0  0  0
    3.1585    1.3460   -1.3455 C   0  0  0  0  0  0  0  0  0  0  0  0
    1.8922    2.7905    0.0519 C   0  0  1  0  0  0  0  0  0  0  0  0
    0.4318    2.6400   -0.3539 C   0  0  0  0  0  0  0  0  0  0  0  0
    1.5301   -0.9853    0.7838 C   0  0  0  0  0  0  0  0  0  0  0  0
    3.3274   -1.6853   -0.4488 C   0  0  0  0  0  0  0  0  0  0  0  0
    1.4414   -2.3123    0.6245 C   0  0  0  0  0  0  0  0  0  0  0  0
    0.3205   -3.0826    1.1975 C   0  0  0  0  0  0  0  0  0  0  0  0
   -0.4831   -1.0404    2.0304 C   0  0  0  0  0  0  0  0  0  0  0  0
    4.1332    0.8507    0.5214 H   0  0  0  0  0  0  0  0  0  0  0  0
    2.4097    3.2877   -2.0246 H   0  0  0  0  0  0  0  0  0  0  0  0
    4.1211    1.1628   -1.8329 H   0  0  0  0  0  0  0  0  0  0  0  0
    2.3742    0.8790   -1.9540 H   0  0  0  0  0  0  0  0  0  0  0  0
    2.0158    3.6682    0.6958 H   0  0  0  0  0  0  0  0  0  0  0  0
    0.2648    1.7055   -0.8974 H   0  0  0  0  0  0  0  0  0  0  0  0
    0.1193    3.4774   -0.9859 H   0  0  0  0  0  0  0  0  0  0  0  0
    4.6303    3.4564   -1.5653 H   0  0  0  0  0  0  0  0  0  0  0  0
    2.6369   -3.7579   -0.3545 H   0  0  0  0  0  0  0  0  0  0  0  0
    0.6608    0.6766    1.6148 H   0  0  0  0  0  0  0  0  0  0  0  0
   -2.1995   -0.6708    3.1558 H   0  0  0  0  0  0  0  0  0  0  0  0
   -1.2342    0.7322    2.8359 H   0  0  0  0  0  0  0  0  0  0  0  0
   -2.5863    3.1414    2.7587 H   0  0  0  0  0  0  0  0  0  0  0  0
   -4.8082    1.7619   -1.0921 H   0  0  0  0  0  0  0  0  0  0  0  0
    0.0317   -0.6645   -2.4969 H   0  0  0  0  0  0  0  0  0  0  0  0
   -1.3537   -3.3365   -3.0905 H   0  0  0  0  0  0  0  0  0  0  0  0
  1  6  1  0  0  0  0
  1  8  1  0  0  0  0
  1  9  1  0  0  0  0
  1 11  2  0  0  0  0
  2  8  1  0  0  0  0
  2 12  1  0  0  0  0
  2 13  1  0  0  0  0
  2 14  2  0  0  0  0
  3 12  1  0  0  0  0
  3 15  1  0  0  0  0
  3 16  1  0  0  0  0
  3 17  2  0  0  0  0
  4 23  1  0  0  0  0
  4 26  1  0  0  0  0
  5 24  1  0  0  0  0
  5 40  1  0  0  0  0
  6 27  1  0  0  0  0
  7 29  2  0  0  0  0
  9 45  1  0  0  0  0
 10 31  2  0  0  0  0
 13 46  1  0  0  0  0
 15 47  1  0  0  0  0
 16 48  1  0  0  0  0
 18 23  1  0  0  0  0
 18 28  1  0  0  0  0
 18 29  1  0  0  0  0
 19 29  1  0  0  0  0
 19 30  1  0  0  0  0
 19 41  1  0  0  0  0
 20 28  1  0  0  0  0
 20 32  1  0  0  0  0
 20 42  1  0  0  0  0
 21 31  1  0  0  0  0
 21 32  2  0  0  0  0
 22 32  1  0  0  0  0
 22 43  1  0  0  0  0
 22 44  1  0  0  0  0
 23 25  1  0  0  0  0
 23 33  1  0  0  0  0
 24 25  1  0  0  0  0
 24 26  1  0  0  0  0
 24 34  1  0  0  0  0
 25 35  1  0  0  0  0
 25 36  1  0  0  0  0
 26 27  1  0  0  0  0
 26 37  1  0  0  0  0
 27 38  1  0  0  0  0
 27 39  1  0  0  0  0
 28 30  2  0  0  0  0
 30 31  1  0  0  0  0
M  END
> <PUBCHEM_COMPOUND_CID>
107902

> <PUBCHEM_CONFORMER_RMSD>
1.2

> <PUBCHEM_CONFORMER_DIVERSEORDER>
1
585
68
603
322
687
387
625
23
325
475
118
657
535
732
607
191
243
315
120
226
545
763
474
96
430
291
178
283
329
136
117
768
490
61
541
351
13
435
206
18
64
559
53
653
170
275
229
589
156
621
370
728
343
169
609
203
143
377
330
700
8
356
177
235
144
472
93
108
465
417
781
134
20
530
580
62
452
533
665
450
238
149
637
253
89
355
105
317
268
468
122
19
419
24
211
574
196
519
747
83
181
511
94
400
127
218
137
479
5
424
212
17
334
383
300
354
168
337
166
153
734
6
336
313
148
129
555
80
104
260
232
29
674
110
32
242
731
381
100
57
63
193
338
613
636
314
629
173
549
258
520
10
79
9
394
26
517
56
306
255
280
7
357
398
54
165
299
70
15
773
290
413
274
107
251
624
362
74
741
132
207
58
237
270
39
563
397
2
159
664
46
14
467
342
332
60
445
78
87
4
35
111
11
328
360
717
21
305
130
617
254
744
411
139
69
489
119
225
3
759
73
611
388
404
41
12
324
778
698
712
375
285
684
38
77
561
550
369
30
102
706
121
167
469
341

> <PUBCHEM_MMFF94_PARTIAL_CHARGES>
40
1 1.51
10 -0.57
11 -0.7
12 -0.54
13 -0.77
14 -0.7
15 -0.77
16 -0.77
17 -0.7
18 -0.47
19 -0.54
2 1.51
20 -0.55
21 -0.66
22 -0.85
23 0.58
24 0.28
26 0.28
27 0.28
28 0.21
29 0.69
3 1.51
30 0.12
31 0.77
32 0.55
4 -0.56
40 0.4
41 0.37
42 0.4
43 0.4
44 0.4
45 0.5
46 0.5
47 0.5
48 0.5
5 -0.68
6 -0.55
7 -0.57
8 -0.54
9 -0.77

> <PUBCHEM_EFFECTIVE_ROTOR_COUNT>
9

> <PUBCHEM_PHARMACOPHORE_FEATURES>
20
1 10 acceptor
1 11 acceptor
1 13 acceptor
1 14 acceptor
1 15 acceptor
1 16 acceptor
1 17 acceptor
1 19 donor
1 20 donor
1 21 donor
1 22 donor
1 4 acceptor
1 5 acceptor
1 5 donor
1 7 acceptor
1 9 acceptor
4 3 15 16 17 anion
5 18 19 28 29 30 rings
5 4 23 24 25 26 rings
6 20 21 28 30 31 32 rings

> <PUBCHEM_HEAVY_ATOM_COUNT>
32

> <PUBCHEM_ATOM_DEF_STEREO_COUNT>
3

> <PUBCHEM_ATOM_UDEF_STEREO_COUNT>
0

> <PUBCHEM_BOND_DEF_STEREO_COUNT>
0

> <PUBCHEM_BOND_UDEF_STEREO_COUNT>
0

> <PUBCHEM_ISOTOPIC_ATOM_COUNT>
0

> <PUBCHEM_COMPONENT_COUNT>
1

> <PUBCHEM_CACTVS_TAUTO_COUNT>
12

> <PUBCHEM_CONFORMER_ID>
0001A57E00000001

> <PUBCHEM_MMFF94_ENERGY>
14.4612

> <PUBCHEM_FEATURE_SELFOVERLAP>
101.767

> <PUBCHEM_SHAPE_FINGERPRINT>
12539773 59 17968928833528978857
12553582 1 17838333343285834560
14279260 333 17551502671819015138
17921350 177 17691404530819418205
19026451 147 17684413535189781319
19930381 70 18342729698560614091
20600515 1 16895752656616548559
20764821 26 17332517982588614165
21634736 98 18338236067557475452
22907989 373 17051052897102914164
23419403 2 17845632781849772882
238 59 18343862225353827576
2818148 4 18042693797590037911
35225 105 17698415772982761709
437795 51 17984149163251612415
4409770 3 17476079021658317900
463206 1 18261963942218125133

> <PUBCHEM_SHAPE_MULTIPOLES>
563.02
6.69
4.89
2.43
0.29
0.03
0.87
2.39
2.71
-1.88
-0.53
2.32
-1.11
-1.52

> <PUBCHEM_SHAPE_SELFOVERLAP>
1151.608

> <PUBCHEM_SHAPE_VOLUME>
326.1

> <PUBCHEM_COORDINATE_TYPE>
2
5
10

$$$$

