854275
  -OEChem-06241222473D

 42 44  0     1  0  0  0  0  0999 V2000
   -1.9072    1.7150    0.7404 S   0  0  0  0  0  0  0  0  0  0  0  0
   -3.1065    2.3926    0.2854 O   0  0  0  0  0  0  0  0  0  0  0  0
   -1.5478    1.7387    2.1455 O   0  0  0  0  0  0  0  0  0  0  0  0
   -0.5437    2.1862   -0.2286 N   0  0  1  0  0  0  0  0  0  0  0  0
    0.6697    1.4707    0.0052 C   0  0  0  0  0  0  0  0  0  0  0  0
   -0.8414    2.5692   -1.6427 C   0  0  0  0  0  0  0  0  0  0  0  0
   -2.2302    0.0187    0.4083 C   0  0  0  0  0  0  0  0  0  0  0  0
    0.8809    0.2362   -0.6095 C   0  0  0  0  0  0  0  0  0  0  0  0
    2.0685   -0.4802   -0.3893 C   0  0  0  0  0  0  0  0  0  0  0  0
    1.6411    2.0052    0.8464 C   0  0  0  0  0  0  0  0  0  0  0  0
    3.0564    0.0634    0.4660 C   0  0  0  0  0  0  0  0  0  0  0  0
    2.8271    1.3074    1.0762 C   0  0  0  0  0  0  0  0  0  0  0  0
    0.2493    3.4818   -2.1659 C   0  0  0  0  0  0  0  0  0  0  0  0
   -1.6102   -0.9596    1.1741 C   0  0  0  0  0  0  0  0  0  0  0  0
   -3.1023   -0.3243   -0.6165 C   0  0  0  0  0  0  0  0  0  0  0  0
    2.2977   -1.7240   -0.9999 C   0  0  0  0  0  0  0  0  0  0  0  0
   -2.7412   -2.6602   -0.1164 C   0  0  0  0  0  0  0  0  0  0  0  0
    4.2440   -0.6532    0.6861 C   0  0  0  0  0  0  0  0  0  0  0  0
   -1.8667   -2.3052    0.9107 C   0  0  0  0  0  0  0  0  0  0  0  0
   -3.3590   -1.6697   -0.8799 C   0  0  0  0  0  0  0  0  0  0  0  0
    3.4835   -2.4222   -0.7699 C   0  0  0  0  0  0  0  0  0  0  0  0
    4.4547   -1.8879    0.0715 C   0  0  0  0  0  0  0  0  0  0  0  0
   -3.0168   -4.0987   -0.3973 C   0  0  0  0  0  0  0  0  0  0  0  0
   -0.9468    1.6831   -2.2766 H   0  0  0  0  0  0  0  0  0  0  0  0
   -1.7840    3.1240   -1.6851 H   0  0  0  0  0  0  0  0  0  0  0  0
    0.1303   -0.1776   -1.2799 H   0  0  0  0  0  0  0  0  0  0  0  0
    1.4857    2.9664    1.3294 H   0  0  0  0  0  0  0  0  0  0  0  0
    3.5724    1.7443    1.7375 H   0  0  0  0  0  0  0  0  0  0  0  0
    0.3916    4.3468   -1.5093 H   0  0  0  0  0  0  0  0  0  0  0  0
    1.2096    2.9641   -2.2559 H   0  0  0  0  0  0  0  0  0  0  0  0
   -0.0168    3.8527   -3.1611 H   0  0  0  0  0  0  0  0  0  0  0  0
   -0.9212   -0.7099    1.9755 H   0  0  0  0  0  0  0  0  0  0  0  0
   -3.5866    0.4279   -1.2320 H   0  0  0  0  0  0  0  0  0  0  0  0
    1.5520   -2.1614   -1.6605 H   0  0  0  0  0  0  0  0  0  0  0  0
    5.0170   -0.2547    1.3400 H   0  0  0  0  0  0  0  0  0  0  0  0
   -1.3792   -3.0677    1.5124 H   0  0  0  0  0  0  0  0  0  0  0  0
   -4.0416   -1.9339   -1.6833 H   0  0  0  0  0  0  0  0  0  0  0  0
    3.6480   -3.3835   -1.2478 H   0  0  0  0  0  0  0  0  0  0  0  0
    5.3775   -2.4321    0.2503 H   0  0  0  0  0  0  0  0  0  0  0  0
   -3.2436   -4.2583   -1.4569 H   0  0  0  0  0  0  0  0  0  0  0  0
   -2.1475   -4.7210   -0.1591 H   0  0  0  0  0  0  0  0  0  0  0  0
   -3.8680   -4.4416    0.1991 H   0  0  0  0  0  0  0  0  0  0  0  0
  1  2  2  0  0  0  0
  1  3  2  0  0  0  0
  1  4  1  0  0  0  0
  1  7  1  0  0  0  0
  4  5  1  0  0  0  0
  4  6  1  0  0  0  0
  5  8  2  0  0  0  0
  5 10  1  0  0  0  0
  6 13  1  0  0  0  0
  6 24  1  0  0  0  0
  6 25  1  0  0  0  0
  7 14  2  0  0  0  0
  7 15  1  0  0  0  0
  8  9  1  0  0  0  0
  8 26  1  0  0  0  0
  9 11  1  0  0  0  0
  9 16  2  0  0  0  0
 10 12  2  0  0  0  0
 10 27  1  0  0  0  0
 11 12  1  0  0  0  0
 11 18  2  0  0  0  0
 12 28  1  0  0  0  0
 13 29  1  0  0  0  0
 13 30  1  0  0  0  0
 13 31  1  0  0  0  0
 14 19  1  0  0  0  0
 14 32  1  0  0  0  0
 15 20  2  0  0  0  0
 15 33  1  0  0  0  0
 16 21  1  0  0  0  0
 16 34  1  0  0  0  0
 17 19  2  0  0  0  0
 17 20  1  0  0  0  0
 17 23  1  0  0  0  0
 18 22  1  0  0  0  0
 18 35  1  0  0  0  0
 19 36  1  0  0  0  0
 20 37  1  0  0  0  0
 21 22  2  0  0  0  0
 21 38  1  0  0  0  0
 22 39  1  0  0  0  0
 23 40  1  0  0  0  0
 23 41  1  0  0  0  0
 23 42  1  0  0  0  0
M  END
> <PUBCHEM_COMPOUND_CID>
854275

> <PUBCHEM_CONFORMER_RMSD>
0.8

> <PUBCHEM_CONFORMER_DIVERSEORDER>
2
9
13
7
17
15
6
1
4
21
14
5
16
20
22
10
19
18
12
3
11
8

> <PUBCHEM_MMFF94_PARTIAL_CHARGES>
31
1 1.45
10 -0.15
12 -0.15
14 -0.15
15 -0.15
16 -0.15
17 -0.14
18 -0.15
19 -0.15
2 -0.65
20 -0.15
21 -0.15
22 -0.15
23 0.14
26 0.15
27 0.15
28 0.15
3 -0.65
32 0.15
33 0.15
34 0.15
35 0.15
36 0.15
37 0.15
38 0.15
39 0.15
4 -0.69
5 0.2
6 0.36
7 -0.01
8 -0.15

> <PUBCHEM_EFFECTIVE_ROTOR_COUNT>
4

> <PUBCHEM_PHARMACOPHORE_FEATURES>
5
1 2 acceptor
1 3 acceptor
6 5 8 9 10 11 12 rings
6 7 14 15 17 19 20 rings
6 9 11 16 18 21 22 rings

> <PUBCHEM_HEAVY_ATOM_COUNT>
23

> <PUBCHEM_ATOM_DEF_STEREO_COUNT>
0

> <PUBCHEM_ATOM_UDEF_STEREO_COUNT>
0

> <PUBCHEM_BOND_DEF_STEREO_COUNT>
0

> <PUBCHEM_BOND_UDEF_STEREO_COUNT>
0

> <PUBCHEM_ISOTOPIC_ATOM_COUNT>
0

> <PUBCHEM_COMPONENT_COUNT>
1

> <PUBCHEM_CACTVS_TAUTO_COUNT>
1

> <PUBCHEM_CONFORMER_ID>
000D090300000002

> <PUBCHEM_MMFF94_ENERGY>
64.8885

> <PUBCHEM_FEATURE_SELFOVERLAP>
25.416

> <PUBCHEM_SHAPE_FINGERPRINT>
11552529 35 18113337526827236522
12156800 1 16386851439057616102
12403259 327 17458611350514570945
12422481 6 18045750573407226195
12553582 1 18194946462121523507
12633257 1 18114735057487121866
13140716 1 18262228924657959259
13583140 156 16226629475487393290
13931106 250 18055928820484172932
14223421 5 18261395511991715032
14251757 17 18127721299535016839
14251757 5 17904173152262652734
14863182 85 17545601154149876008
17357779 13 18337687355220200238
17492 89 18263928743669979286
19141452 34 18337107985543658409
20775530 9 18265899046989633583
21452121 199 18051984610456311163
23184049 29 18335414647405588354
23419403 2 17825987803618109105
23559900 14 18262248728667544424
26353 1 17632579314361244188
3027735 51 18049177836570476847
3298306 158 17118325940485685038
404807 78 15324204902889892834
46194498 28 17483137959359923455
463206 1 17686063790537583599
5262128 65 18057321686952343531
5265222 85 17693351744912373790
81228 2 18343017809024309425
8809292 202 18264767847387793282
9709674 26 18334016085752702386

> <PUBCHEM_SHAPE_MULTIPOLES>
460.46
7.02
4.45
1.49
3.41
0.34
0.13
5.98
-0.37
-2.36
1.54
-0.16
-1.1
0.06

> <PUBCHEM_SHAPE_SELFOVERLAP>
984.674

> <PUBCHEM_SHAPE_VOLUME>
256.5

> <PUBCHEM_COORDINATE_TYPE>
2
5
10

$$$$

