582731
  -OEChem-06241222432D

 64 67  0     1  0  0  0  0  0999 V2000
    7.6138    1.5180    0.0000 O   0  0  0  0  0  0  0  0  0  0  0  0
   11.5743   -0.3024    0.0000 O   0  0  0  0  0  0  0  0  0  0  0  0
    7.9710   -0.1768    0.0000 O   0  0  0  0  0  0  0  0  0  0  0  0
   11.2171    1.3924    0.0000 O   0  0  0  0  0  0  0  0  0  0  0  0
    4.6783   -0.7101    0.0000 N   0  0  0  0  0  0  0  0  0  0  0  0
   15.5166   -2.8512    0.0000 N   0  0  0  0  0  0  0  0  0  0  0  0
    6.2781    3.0066    0.0000 N   0  0  0  0  0  0  0  0  0  0  0  0
   12.9100   -1.7910    0.0000 N   0  0  0  0  0  0  0  0  0  0  0  0
   14.1992   -0.6343    0.0000 C   0  0  0  0  0  0  0  0  0  0  0  0
    4.9889    1.8499    0.0000 C   0  0  0  0  0  0  0  0  0  0  0  0
    5.9674    2.0561    0.0000 C   0  0  3  0  0  0  0  0  0  0  0  0
   13.2207   -0.8405    0.0000 C   0  0  3  0  0  0  0  0  0  0  0  0
   14.8670   -1.3786    0.0000 C   0  0  0  0  0  0  0  0  0  0  0  0
    4.6783    0.8994    0.0000 C   0  0  0  0  0  0  0  0  0  0  0  0
    3.7320    0.5946    0.0000 C   0  0  0  0  0  0  0  0  0  0  0  0
   15.8558   -1.2755    0.0000 C   0  0  0  0  0  0  0  0  0  0  0  0
   12.5528   -0.0962    0.0000 C   0  0  0  0  0  0  0  0  0  0  0  0
    6.6353    1.3118    0.0000 C   0  0  0  0  0  0  0  0  0  0  0  0
   16.2593   -2.1905    0.0000 C   0  0  0  0  0  0  0  0  0  0  0  0
    3.7320   -0.4054    0.0000 C   0  0  0  0  0  0  0  0  0  0  0  0
    5.2619    0.0946    0.0000 C   0  0  0  0  0  0  0  0  0  0  0  0
   14.6578   -2.3504    0.0000 C   0  0  0  0  0  0  0  0  0  0  0  0
    2.8660    1.0946    0.0000 C   0  0  0  0  0  0  0  0  0  0  0  0
   16.4463   -0.4686    0.0000 C   0  0  0  0  0  0  0  0  0  0  0  0
    2.8660   -0.9054    0.0000 C   0  0  0  0  0  0  0  0  0  0  0  0
   17.2535   -2.2985    0.0000 C   0  0  0  0  0  0  0  0  0  0  0  0
    2.0000    0.5946    0.0000 C   0  0  0  0  0  0  0  0  0  0  0  0
   17.4405   -0.5765    0.0000 C   0  0  0  0  0  0  0  0  0  0  0  0
    2.0000   -0.4054    0.0000 C   0  0  0  0  0  0  0  0  0  0  0  0
   17.8441   -1.4915    0.0000 C   0  0  0  0  0  0  0  0  0  0  0  0
    9.9280    0.2357    0.0000 C   0  0  0  0  0  0  0  0  0  0  0  0
    9.2601    0.9800    0.0000 C   0  0  0  0  0  0  0  0  0  0  0  0
    8.2816    0.7737    0.0000 C   0  0  0  0  0  0  0  0  0  0  0  0
   10.9065    0.4419    0.0000 C   0  0  0  0  0  0  0  0  0  0  0  0
   14.7255   -0.3067    0.0000 H   0  0  0  0  0  0  0  0  0  0  0  0
   13.9679   -0.0590    0.0000 H   0  0  0  0  0  0  0  0  0  0  0  0
    4.9684    2.4696    0.0000 H   0  0  0  0  0  0  0  0  0  0  0  0
    4.3751    1.9372    0.0000 H   0  0  0  0  0  0  0  0  0  0  0  0
    5.5534    2.5176    0.0000 H   0  0  0  0  0  0  0  0  0  0  0  0
   12.6140   -0.9684    0.0000 H   0  0  0  0  0  0  0  0  0  0  0  0
   13.0792    0.2314    0.0000 H   0  0  0  0  0  0  0  0  0  0  0  0
   12.3216    0.4790    0.0000 H   0  0  0  0  0  0  0  0  0  0  0  0
    6.1089    0.9842    0.0000 H   0  0  0  0  0  0  0  0  0  0  0  0
    6.8665    0.7366    0.0000 H   0  0  0  0  0  0  0  0  0  0  0  0
   14.0906   -2.6006    0.0000 H   0  0  0  0  0  0  0  0  0  0  0  0
    5.8819    0.0946    0.0000 H   0  0  0  0  0  0  0  0  0  0  0  0
    4.8709   -1.2994    0.0000 H   0  0  0  0  0  0  0  0  0  0  0  0
   15.5782   -3.4681    0.0000 H   0  0  0  0  0  0  0  0  0  0  0  0
    2.8660    1.7146    0.0000 H   0  0  0  0  0  0  0  0  0  0  0  0
   16.1961    0.0987    0.0000 H   0  0  0  0  0  0  0  0  0  0  0  0
    6.8848    3.1345    0.0000 H   0  0  0  0  0  0  0  0  0  0  0  0
    5.8640    3.4681    0.0000 H   0  0  0  0  0  0  0  0  0  0  0  0
   12.3033   -1.9189    0.0000 H   0  0  0  0  0  0  0  0  0  0  0  0
   13.3241   -2.2525    0.0000 H   0  0  0  0  0  0  0  0  0  0  0  0
    2.8660   -1.5254    0.0000 H   0  0  0  0  0  0  0  0  0  0  0  0
   17.5037   -2.8657    0.0000 H   0  0  0  0  0  0  0  0  0  0  0  0
    1.4631    0.9046    0.0000 H   0  0  0  0  0  0  0  0  0  0  0  0
   17.8067   -0.0762    0.0000 H   0  0  0  0  0  0  0  0  0  0  0  0
    1.4631   -0.7154    0.0000 H   0  0  0  0  0  0  0  0  0  0  0  0
   18.4604   -1.5584    0.0000 H   0  0  0  0  0  0  0  0  0  0  0  0
    9.4016   -0.0920    0.0000 H   0  0  0  0  0  0  0  0  0  0  0  0
   10.1592   -0.3396    0.0000 H   0  0  0  0  0  0  0  0  0  0  0  0
    9.7865    1.3076    0.0000 H   0  0  0  0  0  0  0  0  0  0  0  0
    9.0289    1.5552    0.0000 H   0  0  0  0  0  0  0  0  0  0  0  0
  1 18  1  0  0  0  0
  1 33  1  0  0  0  0
  2 17  1  0  0  0  0
  2 34  1  0  0  0  0
  3 33  2  0  0  0  0
  4 34  2  0  0  0  0
  5 20  1  0  0  0  0
  5 21  1  0  0  0  0
  5 47  1  0  0  0  0
  6 19  1  0  0  0  0
  6 22  1  0  0  0  0
  6 48  1  0  0  0  0
  7 11  1  0  0  0  0
  7 51  1  0  0  0  0
  7 52  1  0  0  0  0
  8 12  1  0  0  0  0
  8 53  1  0  0  0  0
  8 54  1  0  0  0  0
  9 12  1  0  0  0  0
  9 13  1  0  0  0  0
  9 35  1  0  0  0  0
  9 36  1  0  0  0  0
 10 11  1  0  0  0  0
 10 14  1  0  0  0  0
 10 37  1  0  0  0  0
 10 38  1  0  0  0  0
 11 18  1  0  0  0  0
 11 39  1  0  0  0  0
 12 17  1  0  0  0  0
 12 40  1  0  0  0  0
 13 16  1  0  0  0  0
 13 22  2  0  0  0  0
 14 15  1  0  0  0  0
 14 21  2  0  0  0  0
 15 20  1  0  0  0  0
 15 23  2  0  0  0  0
 16 19  1  0  0  0  0
 16 24  2  0  0  0  0
 17 41  1  0  0  0  0
 17 42  1  0  0  0  0
 18 43  1  0  0  0  0
 18 44  1  0  0  0  0
 19 26  2  0  0  0  0
 20 25  2  0  0  0  0
 21 46  1  0  0  0  0
 22 45  1  0  0  0  0
 23 27  1  0  0  0  0
 23 49  1  0  0  0  0
 24 28  1  0  0  0  0
 24 50  1  0  0  0  0
 25 29  1  0  0  0  0
 25 55  1  0  0  0  0
 26 30  1  0  0  0  0
 26 56  1  0  0  0  0
 27 29  2  0  0  0  0
 27 57  1  0  0  0  0
 28 30  2  0  0  0  0
 28 58  1  0  0  0  0
 29 59  1  0  0  0  0
 30 60  1  0  0  0  0
 31 32  1  0  0  0  0
 31 34  1  0  0  0  0
 31 61  1  0  0  0  0
 31 62  1  0  0  0  0
 32 33  1  0  0  0  0
 32 63  1  0  0  0  0
 32 64  1  0  0  0  0
M  END
> <PUBCHEM_COMPOUND_CID>
582731

> <PUBCHEM_COMPOUND_CANONICALIZED>
1

> <PUBCHEM_CACTVS_COMPLEXITY>
621

> <PUBCHEM_CACTVS_HBOND_ACCEPTOR>
6

> <PUBCHEM_CACTVS_HBOND_DONOR>
4

> <PUBCHEM_CACTVS_ROTATABLE_BOND>
13

> <PUBCHEM_CACTVS_SUBSKEYS>
AAADceB7uAAAAAAAAAAAAAAAAAAAAWLAAAAwYAAAAAAAAFgB/gAAHgAQAAAADCjhngY8yPLJlACoAzT3TACCgCAxAiAI2aE4ZJgKIPLAkZGHIAhkkADIyAfT0PIOgAAAAAACAAAAAAAAAAQAAAAAAAAAAA==

> <PUBCHEM_IUPAC_OPENEYE_NAME>
bis[2-amino-3-(1H-indol-3-yl)propyl] butanedioate

> <PUBCHEM_IUPAC_CAS_NAME>
butanedioic acid bis[2-amino-3-(1H-indol-3-yl)propyl] ester

> <PUBCHEM_IUPAC_NAME>
bis[2-amino-3-(1H-indol-3-yl)propyl] butanedioate

> <PUBCHEM_IUPAC_SYSTEMATIC_NAME>
bis[2-azanyl-3-(1H-indol-3-yl)propyl] butanedioate

> <PUBCHEM_IUPAC_TRADITIONAL_NAME>
succinic acid bis[2-amino-3-(1H-indol-3-yl)propyl] ester

> <PUBCHEM_IUPAC_INCHI>
InChI=1S/C26H30N4O4/c27-19(11-17-13-29-23-7-3-1-5-21(17)23)15-33-25(31)9-10-26(32)34-16-20(28)12-18-14-30-24-8-4-2-6-22(18)24/h1-8,13-14,19-20,29-30H,9-12,15-16,27-28H2

> <PUBCHEM_IUPAC_INCHIKEY>
VXXYQLLFNOOCFC-UHFFFAOYSA-N

> <PUBCHEM_XLOGP3_AA>
2.3

> <PUBCHEM_EXACT_MASS>
462.226705

> <PUBCHEM_MOLECULAR_FORMULA>
C26H30N4O4

> <PUBCHEM_MOLECULAR_WEIGHT>
462.5408

> <PUBCHEM_OPENEYE_CAN_SMILES>
C1=CC=C2C(=C1)C(=CN2)CC(COC(=O)CCC(=O)OCC(CC3=CNC4=CC=CC=C43)N)N

> <PUBCHEM_OPENEYE_ISO_SMILES>
C1=CC=C2C(=C1)C(=CN2)CC(COC(=O)CCC(=O)OCC(CC3=CNC4=CC=CC=C43)N)N

> <PUBCHEM_CACTVS_TPSA>
136

> <PUBCHEM_MONOISOTOPIC_WEIGHT>
462.226705

> <PUBCHEM_TOTAL_CHARGE>
0

> <PUBCHEM_HEAVY_ATOM_COUNT>
34

> <PUBCHEM_ATOM_DEF_STEREO_COUNT>
0

> <PUBCHEM_ATOM_UDEF_STEREO_COUNT>
2

> <PUBCHEM_BOND_DEF_STEREO_COUNT>
0

> <PUBCHEM_BOND_UDEF_STEREO_COUNT>
0

> <PUBCHEM_ISOTOPIC_ATOM_COUNT>
0

> <PUBCHEM_COMPONENT_COUNT>
1

> <PUBCHEM_CACTVS_TAUTO_COUNT>
1

> <PUBCHEM_COORDINATE_TYPE>
1
5
255

> <PUBCHEM_BONDANNOTATIONS>
13  16  8
13  22  8
14  15  8
14  21  8
15  20  8
15  23  8
16  19  8
16  24  8
19  26  8
20  25  8
23  27  8
24  28  8
25  29  8
26  30  8
27  29  8
28  30  8
5  20  8
5  21  8
6  19  8
6  22  8
11  7  3
12  8  3

$$$$

