443700
  -OEChem-07051213032D

 53 57  0     1  0  0  0  0  0999 V2000
    8.9752   -1.5825    0.0000 O   0  0  0  0  0  0  0  0  0  0  0  0
    2.6079    1.1774    0.0000 O   0  0  0  0  0  0  0  0  0  0  0  0
   10.7866   -0.5367    0.0000 O   0  0  0  0  0  0  0  0  0  0  0  0
    2.6079    2.8539    0.0000 O   0  0  0  0  0  0  0  0  0  0  0  0
    5.4056   -1.5470    0.0000 O   0  0  0  0  0  0  0  0  0  0  0  0
    6.2435   -0.0259    0.0000 N   0  0  3  0  0  0  0  0  0  0  0  0
    7.1415   -0.5536    0.0000 C   0  0  3  0  0  0  0  0  0  0  0  0
    8.0436   -0.0328    0.0000 C   0  0  0  0  0  0  0  0  0  0  0  0
    6.2596    1.0156    0.0000 C   0  0  0  0  0  0  0  0  0  0  0  0
    7.1256    1.5156    0.0000 C   0  0  0  0  0  0  0  0  0  0  0  0
    8.0356    1.0088    0.0000 C   0  0  0  0  0  0  0  0  0  0  0  0
    7.1377   -1.5536    0.0000 C   0  0  0  0  0  0  0  0  0  0  0  0
    5.3935    1.5156    0.0000 C   0  0  0  0  0  0  0  0  0  0  0  0
    8.9790   -0.5825    0.0000 C   0  0  0  0  0  0  0  0  0  0  0  0
    5.3935    2.5156    0.0000 C   0  0  0  0  0  0  0  0  0  0  0  0
    5.3717   -0.5158    0.0000 C   0  0  0  0  0  0  0  0  0  0  0  0
    7.1256    2.5156    0.0000 C   0  0  0  0  0  0  0  0  0  0  0  0
    8.9624    1.5729    0.0000 C   0  0  0  0  0  0  0  0  0  0  0  0
    6.2596    3.0156    0.0000 C   0  0  0  0  0  0  0  0  0  0  0  0
    4.4996    0.9810    0.0000 C   0  0  0  0  0  0  0  0  0  0  0  0
    9.9187   -0.0401    0.0000 C   0  0  0  0  0  0  0  0  0  0  0  0
    6.2697   -2.0503    0.0000 C   0  0  0  0  0  0  0  0  0  0  0  0
    9.9103    1.0449    0.0000 C   0  0  0  0  0  0  0  0  0  0  0  0
    4.4996    3.0503    0.0000 C   0  0  0  0  0  0  0  0  0  0  0  0
    3.5935    1.4948    0.0000 C   0  0  0  0  0  0  0  0  0  0  0  0
    3.5935    2.5364    0.0000 C   0  0  0  0  0  0  0  0  0  0  0  0
    6.2659   -3.0503    0.0000 C   0  0  0  0  0  0  0  0  0  0  0  0
    2.0000    2.0156    0.0000 C   0  0  0  0  0  0  0  0  0  0  0  0
    9.8393   -2.0859    0.0000 C   0  0  0  0  0  0  0  0  0  0  0  0
   11.6507   -0.0334    0.0000 C   0  0  0  0  0  0  0  0  0  0  0  0
    6.6028   -0.8605    0.0000 H   0  0  0  0  0  0  0  0  0  0  0  0
    7.3475   -2.1370    0.0000 H   0  0  0  0  0  0  0  0  0  0  0  0
    7.7487   -1.4483    0.0000 H   0  0  0  0  0  0  0  0  0  0  0  0
    5.0680    0.0246    0.0000 H   0  0  0  0  0  0  0  0  0  0  0  0
    4.8313   -0.8196    0.0000 H   0  0  0  0  0  0  0  0  0  0  0  0
    5.6755   -1.0563    0.0000 H   0  0  0  0  0  0  0  0  0  0  0  0
    7.6625    2.8256    0.0000 H   0  0  0  0  0  0  0  0  0  0  0  0
    8.9505    2.1927    0.0000 H   0  0  0  0  0  0  0  0  0  0  0  0
    6.2596    3.6356    0.0000 H   0  0  0  0  0  0  0  0  0  0  0  0
    4.5068    0.3610    0.0000 H   0  0  0  0  0  0  0  0  0  0  0  0
   10.4436    1.3611    0.0000 H   0  0  0  0  0  0  0  0  0  0  0  0
    4.5068    3.6702    0.0000 H   0  0  0  0  0  0  0  0  0  0  0  0
    5.6459   -3.0479    0.0000 H   0  0  0  0  0  0  0  0  0  0  0  0
    6.2635   -3.6703    0.0000 H   0  0  0  0  0  0  0  0  0  0  0  0
    6.8859   -3.0527    0.0000 H   0  0  0  0  0  0  0  0  0  0  0  0
    1.5391    2.4303    0.0000 H   0  0  0  0  0  0  0  0  0  0  0  0
    1.5391    1.6009    0.0000 H   0  0  0  0  0  0  0  0  0  0  0  0
    9.5272   -2.6216    0.0000 H   0  0  0  0  0  0  0  0  0  0  0  0
   10.3750   -2.3979    0.0000 H   0  0  0  0  0  0  0  0  0  0  0  0
   10.1513   -1.5501    0.0000 H   0  0  0  0  0  0  0  0  0  0  0  0
   11.9628   -0.5691    0.0000 H   0  0  0  0  0  0  0  0  0  0  0  0
   12.1864    0.2787    0.0000 H   0  0  0  0  0  0  0  0  0  0  0  0
   11.3386    0.5024    0.0000 H   0  0  0  0  0  0  0  0  0  0  0  0
  1 14  1  0  0  0  0
  1 29  1  0  0  0  0
  2 25  1  0  0  0  0
  2 28  1  0  0  0  0
  3 21  1  0  0  0  0
  3 30  1  0  0  0  0
  4 26  1  0  0  0  0
  4 28  1  0  0  0  0
  5 22  2  0  0  0  0
  6  7  1  0  0  0  0
  6  9  1  0  0  0  0
  6 16  1  0  0  0  0
  7  8  1  0  0  0  0
  7 12  1  0  0  0  0
  7 31  1  0  0  0  0
  8 11  2  0  0  0  0
  8 14  1  0  0  0  0
  9 10  2  0  0  0  0
  9 13  1  0  0  0  0
 10 11  1  0  0  0  0
 10 17  1  0  0  0  0
 11 18  1  0  0  0  0
 12 22  1  0  0  0  0
 12 32  1  0  0  0  0
 12 33  1  0  0  0  0
 13 15  1  0  0  0  0
 13 20  2  0  0  0  0
 14 21  2  0  0  0  0
 15 19  1  0  0  0  0
 15 24  2  0  0  0  0
 16 34  1  0  0  0  0
 16 35  1  0  0  0  0
 16 36  1  0  0  0  0
 17 19  2  0  0  0  0
 17 37  1  0  0  0  0
 18 23  2  0  0  0  0
 18 38  1  0  0  0  0
 19 39  1  0  0  0  0
 20 25  1  0  0  0  0
 20 40  1  0  0  0  0
 21 23  1  0  0  0  0
 22 27  1  0  0  0  0
 23 41  1  0  0  0  0
 24 26  1  0  0  0  0
 24 42  1  0  0  0  0
 25 26  2  0  0  0  0
 27 43  1  0  0  0  0
 27 44  1  0  0  0  0
 27 45  1  0  0  0  0
 28 46  1  0  0  0  0
 28 47  1  0  0  0  0
 29 48  1  0  0  0  0
 29 49  1  0  0  0  0
 29 50  1  0  0  0  0
 30 51  1  0  0  0  0
 30 52  1  0  0  0  0
 30 53  1  0  0  0  0
M  END
> <PUBCHEM_COMPOUND_CID>
443700

> <PUBCHEM_COMPOUND_CANONICALIZED>
1

> <PUBCHEM_CACTVS_COMPLEXITY>
643

> <PUBCHEM_CACTVS_HBOND_ACCEPTOR>
6

> <PUBCHEM_CACTVS_HBOND_DONOR>
0

> <PUBCHEM_CACTVS_ROTATABLE_BOND>
4

> <PUBCHEM_CACTVS_SUBSKEYS>
AAADceB6OAAAAAAAAAAAAAAAAAAAASAAAAA8YMEAAAAAAEjxVAAAHgAAAAAADCzBmAcyzsMABACIAqRSQACCCAAhIAAIiAEOzIgdJjrEsZukMCpmwBHO6Ae43PPO4AADQAAaQADAAAaAADSAAAAAAAAAAA==

> <PUBCHEM_IUPAC_OPENEYE_NAME>
1-(1,2-dimethoxy-12-methyl-13H-[1,3]benzodioxolo[5,6-c]phenanthridin-13-yl)propan-2-one

> <PUBCHEM_IUPAC_CAS_NAME>
1-(1,2-dimethoxy-12-methyl-13H-[1,3]benzodioxolo[5,6-c]phenanthridin-13-yl)-2-propanone

> <PUBCHEM_IUPAC_NAME>
1-(1,2-dimethoxy-12-methyl-13H-[1,3]benzodioxolo[5,6-c]phenanthridin-13-yl)propan-2-one

> <PUBCHEM_IUPAC_SYSTEMATIC_NAME>
1-(1,2-dimethoxy-12-methyl-13H-[1,3]benzodioxolo[5,6-c]phenanthridin-13-yl)propan-2-one

> <PUBCHEM_IUPAC_TRADITIONAL_NAME>
1-(1,2-dimethoxy-12-methyl-13H-[1,3]benzodioxolo[5,6-c]phenanthridin-13-yl)acetone

> <PUBCHEM_IUPAC_INCHI>
InChI=1S/C24H23NO5/c1-13(26)9-18-22-15(7-8-19(27-3)24(22)28-4)16-6-5-14-10-20-21(30-12-29-20)11-17(14)23(16)25(18)2/h5-8,10-11,18H,9,12H2,1-4H3

> <PUBCHEM_IUPAC_INCHIKEY>
VGTQLFWIJIABSU-UHFFFAOYSA-N

> <PUBCHEM_XLOGP3_AA>
3.9

> <PUBCHEM_EXACT_MASS>
405.157623

> <PUBCHEM_MOLECULAR_FORMULA>
C24H23NO5

> <PUBCHEM_MOLECULAR_WEIGHT>
405.44312

> <PUBCHEM_OPENEYE_CAN_SMILES>
CC(=O)CC1C2=C(C=CC(=C2OC)OC)C3=C(N1C)C4=CC5=C(C=C4C=C3)OCO5

> <PUBCHEM_OPENEYE_ISO_SMILES>
CC(=O)CC1C2=C(C=CC(=C2OC)OC)C3=C(N1C)C4=CC5=C(C=C4C=C3)OCO5

> <PUBCHEM_CACTVS_TPSA>
57.2

> <PUBCHEM_MONOISOTOPIC_WEIGHT>
405.157623

> <PUBCHEM_TOTAL_CHARGE>
0

> <PUBCHEM_HEAVY_ATOM_COUNT>
30

> <PUBCHEM_ATOM_DEF_STEREO_COUNT>
0

> <PUBCHEM_ATOM_UDEF_STEREO_COUNT>
1

> <PUBCHEM_BOND_DEF_STEREO_COUNT>
0

> <PUBCHEM_BOND_UDEF_STEREO_COUNT>
0

> <PUBCHEM_ISOTOPIC_ATOM_COUNT>
0

> <PUBCHEM_COMPONENT_COUNT>
1

> <PUBCHEM_CACTVS_TAUTO_COUNT>
3

> <PUBCHEM_COORDINATE_TYPE>
1
5
255

> <PUBCHEM_BONDANNOTATIONS>
10  17  8
11  18  8
13  15  8
13  20  8
14  21  8
15  19  8
15  24  8
17  19  8
18  23  8
20  25  8
21  23  8
24  26  8
25  26  8
7  12  3
8  11  8
8  14  8
9  10  8
9  13  8

$$$$

