442830
  -OEChem-07051212592D

 98103  0     1  0  0  0  0  0999 V2000
    7.3358   -0.0039    0.0000 O   0  0  0  0  0  0  0  0  0  0  0  0
   10.4045   -0.0039    0.0000 O   0  0  0  0  0  0  0  0  0  0  0  0
    6.6876    4.6093    0.0000 O   0  0  0  0  0  0  0  0  0  0  0  0
   11.0636   -4.6107    0.0000 O   0  0  0  0  0  0  0  0  0  0  0  0
    5.3493    3.1230    0.0000 O   0  0  0  0  0  0  0  0  0  0  0  0
   12.3992   -3.1221    0.0000 O   0  0  0  0  0  0  0  0  0  0  0  0
    8.6439    4.1935    0.0000 O   0  0  0  0  0  0  0  0  0  0  0  0
    9.1066   -4.1983    0.0000 O   0  0  0  0  0  0  0  0  0  0  0  0
    5.0403    4.0741    0.0000 O   0  0  0  0  0  0  0  0  0  0  0  0
   12.7099   -4.0726    0.0000 O   0  0  0  0  0  0  0  0  0  0  0  0
   11.6849   -6.5118    0.0000 O   0  0  0  0  0  0  0  0  0  0  0  0
    6.0695    6.5114    0.0000 O   0  0  0  0  0  0  0  0  0  0  0  0
   13.6419   -6.9242    0.0000 O   0  0  0  0  0  0  0  0  0  0  0  0
    4.1132    6.9273    0.0000 O   0  0  0  0  0  0  0  0  0  0  0  0
   14.9776   -5.4356    0.0000 O   0  0  0  0  0  0  0  0  0  0  0  0
    2.7750    5.4410    0.0000 O   0  0  0  0  0  0  0  0  0  0  0  0
   15.3348   -3.7408    0.0000 O   0  0  0  0  0  0  0  0  0  0  0  0
    2.4149    3.7468    0.0000 O   0  0  0  0  0  0  0  0  0  0  0  0
    8.8747   -0.5039    0.0000 C   0  0  2  0  0  0  0  0  0  0  0  0
    8.8747    0.4961    0.0000 C   0  0  2  0  0  0  0  0  0  0  0  0
    7.9236    0.8051    0.0000 C   0  0  2  0  0  0  0  0  0  0  0  0
    9.8209   -0.8086    0.0000 C   0  0  2  0  0  0  0  0  0  0  0  0
    7.9236   -0.8129    0.0000 C   0  0  0  0  0  0  0  0  0  0  0  0
    9.8209    0.8008    0.0000 C   0  0  0  0  0  0  0  0  0  0  0  0
    7.6146    1.7562    0.0000 C   0  0  0  0  0  0  0  0  0  0  0  0
   10.1316   -1.7592    0.0000 C   0  0  0  0  0  0  0  0  0  0  0  0
    8.2838    2.4993    0.0000 C   0  0  0  0  0  0  0  0  0  0  0  0
    9.4637   -2.5035    0.0000 C   0  0  0  0  0  0  0  0  0  0  0  0
    6.6365    1.9641    0.0000 C   0  0  0  0  0  0  0  0  0  0  0  0
   11.1101   -1.9654    0.0000 C   0  0  0  0  0  0  0  0  0  0  0  0
   11.4207   -2.9159    0.0000 C   0  0  0  0  0  0  0  0  0  0  0  0
    6.3274    2.9151    0.0000 C   0  0  0  0  0  0  0  0  0  0  0  0
    9.7744   -3.4540    0.0000 C   0  0  0  0  0  0  0  0  0  0  0  0
    7.9747    3.4504    0.0000 C   0  0  0  0  0  0  0  0  0  0  0  0
    6.9966    3.6583    0.0000 C   0  0  0  0  0  0  0  0  0  0  0  0
   10.7529   -3.6602    0.0000 C   0  0  0  0  0  0  0  0  0  0  0  0
    5.7094    4.8172    0.0000 C   0  0  2  0  0  0  0  0  0  0  0  0
   12.0421   -4.8170    0.0000 C   0  0  2  0  0  0  0  0  0  0  0  0
    5.4004    5.7683    0.0000 C   0  0  1  0  0  0  0  0  0  0  0  0
   12.3527   -5.7675    0.0000 C   0  0  1  0  0  0  0  0  0  0  0  0
    4.4222    5.9762    0.0000 C   0  0  2  0  0  0  0  0  0  0  0  0
   13.3312   -5.9737    0.0000 C   0  0  2  0  0  0  0  0  0  0  0  0
    3.7531    5.2331    0.0000 C   0  0  1  0  0  0  0  0  0  0  0  0
   13.9991   -5.2294    0.0000 C   0  0  1  0  0  0  0  0  0  0  0  0
   13.6884   -4.2789    0.0000 C   0  0  1  0  0  0  0  0  0  0  0  0
    4.0621    4.2820    0.0000 C   0  0  1  0  0  0  0  0  0  0  0  0
    3.3930    3.5389    0.0000 C   0  0  0  0  0  0  0  0  0  0  0  0
   14.3563   -3.5346    0.0000 C   0  0  0  0  0  0  0  0  0  0  0  0
    4.6802    2.3799    0.0000 C   0  0  0  0  0  0  0  0  0  0  0  0
   13.0671   -2.3778    0.0000 C   0  0  0  0  0  0  0  0  0  0  0  0
    9.6220    3.9856    0.0000 C   0  0  0  0  0  0  0  0  0  0  0  0
    8.1280   -3.9921    0.0000 C   0  0  0  0  0  0  0  0  0  0  0  0
    8.8758    1.3461    0.0000 H   0  0  0  0  0  0  0  0  0  0  0  0
    8.8758   -1.3539    0.0000 H   0  0  0  0  0  0  0  0  0  0  0  0
    7.3113    0.9021    0.0000 H   0  0  0  0  0  0  0  0  0  0  0  0
   10.4334   -0.9048    0.0000 H   0  0  0  0  0  0  0  0  0  0  0  0
   10.3583    1.1100    0.0000 H   0  0  0  0  0  0  0  0  0  0  0  0
    9.5699    1.3677    0.0000 H   0  0  0  0  0  0  0  0  0  0  0  0
    7.3867   -1.1229    0.0000 H   0  0  0  0  0  0  0  0  0  0  0  0
    8.1758   -1.3793    0.0000 H   0  0  0  0  0  0  0  0  0  0  0  0
    8.8902    2.3704    0.0000 H   0  0  0  0  0  0  0  0  0  0  0  0
    8.8570   -2.3756    0.0000 H   0  0  0  0  0  0  0  0  0  0  0  0
    6.2216    1.5033    0.0000 H   0  0  0  0  0  0  0  0  0  0  0  0
   11.5241   -1.5039    0.0000 H   0  0  0  0  0  0  0  0  0  0  0  0
    6.1243    5.2780    0.0000 H   0  0  0  0  0  0  0  0  0  0  0  0
   11.8495   -4.2276    0.0000 H   0  0  0  0  0  0  0  0  0  0  0  0
    5.2088    6.3580    0.0000 H   0  0  0  0  0  0  0  0  0  0  0  0
   12.5453   -6.3568    0.0000 H   0  0  0  0  0  0  0  0  0  0  0  0
   13.9379   -6.1015    0.0000 H   0  0  0  0  0  0  0  0  0  0  0  0
    3.8158    6.1051    0.0000 H   0  0  0  0  0  0  0  0  0  0  0  0
   14.4131   -4.7679    0.0000 H   0  0  0  0  0  0  0  0  0  0  0  0
    3.3383    4.7723    0.0000 H   0  0  0  0  0  0  0  0  0  0  0  0
   13.4958   -3.6895    0.0000 H   0  0  0  0  0  0  0  0  0  0  0  0
    4.2537    3.6924    0.0000 H   0  0  0  0  0  0  0  0  0  0  0  0
    3.1608    2.9640    0.0000 H   0  0  0  0  0  0  0  0  0  0  0  0
    3.9188    3.2103    0.0000 H   0  0  0  0  0  0  0  0  0  0  0  0
   14.5875   -2.9593    0.0000 H   0  0  0  0  0  0  0  0  0  0  0  0
   13.8299   -3.2069    0.0000 H   0  0  0  0  0  0  0  0  0  0  0  0
   13.5286   -2.7919    0.0000 H   0  0  0  0  0  0  0  0  0  0  0  0
   13.4812   -1.9164    0.0000 H   0  0  0  0  0  0  0  0  0  0  0  0
   12.6056   -1.9638    0.0000 H   0  0  0  0  0  0  0  0  0  0  0  0
    4.2194    2.7948    0.0000 H   0  0  0  0  0  0  0  0  0  0  0  0
    4.2653    1.9191    0.0000 H   0  0  0  0  0  0  0  0  0  0  0  0
    5.1409    1.9650    0.0000 H   0  0  0  0  0  0  0  0  0  0  0  0
    8.2559   -3.3854    0.0000 H   0  0  0  0  0  0  0  0  0  0  0  0
    7.5214   -3.8642    0.0000 H   0  0  0  0  0  0  0  0  0  0  0  0
    8.0002   -4.5988    0.0000 H   0  0  0  0  0  0  0  0  0  0  0  0
    9.4931    3.3791    0.0000 H   0  0  0  0  0  0  0  0  0  0  0  0
   10.2285    3.8567    0.0000 H   0  0  0  0  0  0  0  0  0  0  0  0
    9.7509    4.5920    0.0000 H   0  0  0  0  0  0  0  0  0  0  0  0
   11.8775   -7.1011    0.0000 H   0  0  0  0  0  0  0  0  0  0  0  0
    5.8779    7.1011    0.0000 H   0  0  0  0  0  0  0  0  0  0  0  0
    3.5068    7.0562    0.0000 H   0  0  0  0  0  0  0  0  0  0  0  0
   14.2486   -7.0521    0.0000 H   0  0  0  0  0  0  0  0  0  0  0  0
    2.5834    6.0306    0.0000 H   0  0  0  0  0  0  0  0  0  0  0  0
   15.1702   -6.0249    0.0000 H   0  0  0  0  0  0  0  0  0  0  0  0
    2.0000    3.2860    0.0000 H   0  0  0  0  0  0  0  0  0  0  0  0
   15.7488   -3.2793    0.0000 H   0  0  0  0  0  0  0  0  0  0  0  0
  1 21  1  0  0  0  0
  1 23  1  0  0  0  0
  2 22  1  0  0  0  0
  2 24  1  0  0  0  0
  3 35  1  0  0  0  0
 37  3  1  6  0  0  0
  4 36  1  0  0  0  0
 38  4  1  6  0  0  0
  5 32  1  0  0  0  0
  5 49  1  0  0  0  0
  6 31  1  0  0  0  0
  6 50  1  0  0  0  0
  7 34  1  0  0  0  0
  7 51  1  0  0  0  0
  8 33  1  0  0  0  0
  8 52  1  0  0  0  0
  9 37  1  0  0  0  0
  9 46  1  0  0  0  0
 10 38  1  0  0  0  0
 10 45  1  0  0  0  0
 40 11  1  1  0  0  0
 11 91  1  0  0  0  0
 39 12  1  1  0  0  0
 12 92  1  0  0  0  0
 42 13  1  6  0  0  0
 13 94  1  0  0  0  0
 41 14  1  6  0  0  0
 14 93  1  0  0  0  0
 44 15  1  1  0  0  0
 15 96  1  0  0  0  0
 43 16  1  1  0  0  0
 16 95  1  0  0  0  0
 17 48  1  0  0  0  0
 17 98  1  0  0  0  0
 18 47  1  0  0  0  0
 18 97  1  0  0  0  0
 19 20  1  0  0  0  0
 19 22  1  0  0  0  0
 19 23  1  0  0  0  0
 19 54  1  1  0  0  0
 20 21  1  0  0  0  0
 20 24  1  0  0  0  0
 20 53  1  1  0  0  0
 21 25  1  1  0  0  0
 21 55  1  0  0  0  0
 22 26  1  1  0  0  0
 22 56  1  0  0  0  0
 23 59  1  0  0  0  0
 23 60  1  0  0  0  0
 24 57  1  0  0  0  0
 24 58  1  0  0  0  0
 25 27  2  0  0  0  0
 25 29  1  0  0  0  0
 26 28  2  0  0  0  0
 26 30  1  0  0  0  0
 27 34  1  0  0  0  0
 27 61  1  0  0  0  0
 28 33  1  0  0  0  0
 28 62  1  0  0  0  0
 29 32  2  0  0  0  0
 29 63  1  0  0  0  0
 30 31  2  0  0  0  0
 30 64  1  0  0  0  0
 31 36  1  0  0  0  0
 32 35  1  0  0  0  0
 33 36  2  0  0  0  0
 34 35  2  0  0  0  0
 37 39  1  0  0  0  0
 37 65  1  0  0  0  0
 38 40  1  0  0  0  0
 38 66  1  0  0  0  0
 39 41  1  0  0  0  0
 39 67  1  0  0  0  0
 40 42  1  0  0  0  0
 40 68  1  0  0  0  0
 41 43  1  0  0  0  0
 41 70  1  0  0  0  0
 42 44  1  0  0  0  0
 42 69  1  0  0  0  0
 43 46  1  0  0  0  0
 43 72  1  0  0  0  0
 44 45  1  0  0  0  0
 44 71  1  0  0  0  0
 45 48  1  6  0  0  0
 45 73  1  0  0  0  0
 46 47  1  6  0  0  0
 46 74  1  0  0  0  0
 47 75  1  0  0  0  0
 47 76  1  0  0  0  0
 48 77  1  0  0  0  0
 48 78  1  0  0  0  0
 49 82  1  0  0  0  0
 49 83  1  0  0  0  0
 49 84  1  0  0  0  0
 50 79  1  0  0  0  0
 50 80  1  0  0  0  0
 50 81  1  0  0  0  0
 51 88  1  0  0  0  0
 51 89  1  0  0  0  0
 51 90  1  0  0  0  0
 52 85  1  0  0  0  0
 52 86  1  0  0  0  0
 52 87  1  0  0  0  0
M  END
> <PUBCHEM_COMPOUND_CID>
442830

> <PUBCHEM_COMPOUND_CANONICALIZED>
1

> <PUBCHEM_CACTVS_COMPLEXITY>
1010

> <PUBCHEM_CACTVS_HBOND_ACCEPTOR>
18

> <PUBCHEM_CACTVS_HBOND_DONOR>
8

> <PUBCHEM_CACTVS_ROTATABLE_BOND>
12

> <PUBCHEM_CACTVS_SUBSKEYS>
AAADcfB8PgAAAAAAAAAAAAAAAAAAASJAAAA0aIEAAAASAAABQAAAGgAACAAADRSwmAMyDoAABgCAAiBCAAACCAAgIAAAiAAGiIgdNyKEMRqieCKlwBUPqAfA4PwOoAABCAAAQABAAAIQAACAAAAAAAAAAA==

> <PUBCHEM_IUPAC_OPENEYE_NAME>
(2S,3R,4S,5S,6R)-2-[4-[(3R,3aS,6R,6aS)-6-[3,5-dimethoxy-4-[(2S,3R,4S,5S,6R)-3,4,5-trihydroxy-6-(hydroxymethyl)tetrahydropyran-2-yl]oxy-phenyl]-1,3,3a,4,6,6a-hexahydrofuro[3,4-c]furan-3-yl]-2,6-dimethoxy-phenoxy]-6-(hydroxymethyl)tetrahydropyran-3,4,5-triol

> <PUBCHEM_IUPAC_CAS_NAME>
(2S,3R,4S,5S,6R)-2-[4-[(3R,3aS,6R,6aS)-6-[3,5-dimethoxy-4-[[(2S,3R,4S,5S,6R)-3,4,5-trihydroxy-6-(hydroxymethyl)-2-oxanyl]oxy]phenyl]-1,3,3a,4,6,6a-hexahydrofuro[3,4-c]furan-3-yl]-2,6-dimethoxyphenoxy]-6-(hydroxymethyl)oxane-3,4,5-triol

> <PUBCHEM_IUPAC_NAME>
(2S,3R,4S,5S,6R)-2-[4-[(3R,3aS,6R,6aS)-6-[3,5-dimethoxy-4-[(2S,3R,4S,5S,6R)-3,4,5-trihydroxy-6-(hydroxymethyl)oxan-2-yl]oxyphenyl]-1,3,3a,4,6,6a-hexahydrofuro[3,4-c]furan-3-yl]-2,6-dimethoxyphenoxy]-6-(hydroxymethyl)oxane-3,4,5-triol

> <PUBCHEM_IUPAC_SYSTEMATIC_NAME>
(2S,3R,4S,5S,6R)-2-[4-[(3R,3aS,6R,6aS)-6-[4-[(2S,3R,4S,5S,6R)-6-(hydroxymethyl)-3,4,5-tris(oxidanyl)oxan-2-yl]oxy-3,5-dimethoxy-phenyl]-1,3,3a,4,6,6a-hexahydrofuro[3,4-c]furan-3-yl]-2,6-dimethoxy-phenoxy]-6-(hydroxymethyl)oxane-3,4,5-triol

> <PUBCHEM_IUPAC_TRADITIONAL_NAME>
(2S,3R,4S,5S,6R)-2-[4-[(3R,3aS,6R,6aS)-6-[3,5-dimethoxy-4-[(2S,3R,4S,5S,6R)-3,4,5-trihydroxy-6-methylol-tetrahydropyran-2-yl]oxy-phenyl]-1,3,3a,4,6,6a-hexahydrofuro[3,4-c]furan-3-yl]-2,6-dimethoxy-phenoxy]-6-methylol-tetrahydropyran-3,4,5-triol

> <PUBCHEM_IUPAC_INCHI>
InChI=1S/C34H46O18/c1-43-17-5-13(6-18(44-2)31(17)51-33-27(41)25(39)23(37)21(9-35)49-33)29-15-11-48-30(16(15)12-47-29)14-7-19(45-3)32(20(8-14)46-4)52-34-28(42)26(40)24(38)22(10-36)50-34/h5-8,15-16,21-30,33-42H,9-12H2,1-4H3/t15-,16-,21-,22-,23-,24-,25+,26+,27-,28-,29+,30+,33+,34+/m1/s1

> <PUBCHEM_IUPAC_INCHIKEY>
FFDULTAFAQRACT-NYYYOYJKSA-N

> <PUBCHEM_XLOGP3_AA>
-1.4

> <PUBCHEM_EXACT_MASS>
742.268415

> <PUBCHEM_MOLECULAR_FORMULA>
C34H46O18

> <PUBCHEM_MOLECULAR_WEIGHT>
742.71824

> <PUBCHEM_OPENEYE_CAN_SMILES>
COC1=CC(=CC(=C1OC2C(C(C(C(O2)CO)O)O)O)OC)C3C4COC(C4CO3)C5=CC(=C(C(=C5)OC)OC6C(C(C(C(O6)CO)O)O)O)OC

> <PUBCHEM_OPENEYE_ISO_SMILES>
COC1=CC(=CC(=C1O[C@H]2[C@@H]([C@H]([C@@H]([C@H](O2)CO)O)O)O)OC)[C@H]3[C@@H]4CO[C@H]([C@@H]4CO3)C5=CC(=C(C(=C5)OC)O[C@H]6[C@@H]([C@H]([C@@H]([C@H](O6)CO)O)O)O)OC

> <PUBCHEM_CACTVS_TPSA>
254

> <PUBCHEM_MONOISOTOPIC_WEIGHT>
742.268415

> <PUBCHEM_TOTAL_CHARGE>
0

> <PUBCHEM_HEAVY_ATOM_COUNT>
52

> <PUBCHEM_ATOM_DEF_STEREO_COUNT>
14

> <PUBCHEM_ATOM_UDEF_STEREO_COUNT>
0

> <PUBCHEM_BOND_DEF_STEREO_COUNT>
0

> <PUBCHEM_BOND_UDEF_STEREO_COUNT>
0

> <PUBCHEM_ISOTOPIC_ATOM_COUNT>
0

> <PUBCHEM_COMPONENT_COUNT>
1

> <PUBCHEM_CACTVS_TAUTO_COUNT>
1

> <PUBCHEM_COORDINATE_TYPE>
1
5
255

> <PUBCHEM_BONDANNOTATIONS>
40  11  5
39  12  5
42  13  6
41  14  6
44  15  5
43  16  5
19  54  5
20  53  5
21  25  5
22  26  5
25  27  8
25  29  8
26  28  8
26  30  8
27  34  8
28  33  8
29  32  8
37  3  6
30  31  8
31  36  8
32  35  8
33  36  8
34  35  8
38  4  6
45  48  6
46  47  6

$$$$

