442014
  -OEChem-07051212563D

 65 69  0     1  0  0  0  0  0999 V2000
   -2.7193   -1.4366   -1.9097 O   0  0  0  0  0  0  0  0  0  0  0  0
   -2.8609    1.1194   -0.6209 O   0  0  0  0  0  0  0  0  0  0  0  0
    3.2465   -0.7529    0.7814 O   0  0  0  0  0  0  0  0  0  0  0  0
   -3.1550   -0.8507    0.7186 O   0  0  0  0  0  0  0  0  0  0  0  0
    5.6293   -0.8647    0.7624 O   0  0  0  0  0  0  0  0  0  0  0  0
   -2.7746    3.2090   -1.6023 O   0  0  0  0  0  0  0  0  0  0  0  0
   -3.6535   -1.6067    2.8442 O   0  0  0  0  0  0  0  0  0  0  0  0
   -1.0211   -0.4982   -0.2956 C   0  0  2  0  0  0  0  0  0  0  0  0
    0.5557   -0.5409   -0.1595 C   0  0  1  0  0  0  0  0  0  0  0  0
   -1.3723   -1.5182   -1.4178 C   0  0  1  0  0  0  0  0  0  0  0  0
    1.2142    0.5514    0.7778 C   0  0  2  0  0  0  0  0  0  0  0  0
   -1.4419    0.9599   -0.6441 C   0  0  2  0  0  0  0  0  0  0  0  0
    0.6574    1.9652    0.3864 C   0  0  1  0  0  0  0  0  0  0  0  0
    1.0604   -1.9878    0.0969 C   0  0  0  0  0  0  0  0  0  0  0  0
   -0.9070   -2.9329   -1.1837 C   0  0  0  0  0  0  0  0  0  0  0  0
   -1.6853   -1.1204   -2.8511 C   0  0  0  0  0  0  0  0  0  0  0  0
   -0.8729    1.9999    0.3199 C   0  0  0  0  0  0  0  0  0  0  0  0
    2.7112    0.5553    0.5360 C   0  0  2  0  0  0  0  0  0  0  0  0
    0.6016   -2.9591   -0.9928 C   0  0  0  0  0  0  0  0  0  0  0  0
   -1.7770   -0.9514    0.9843 C   0  0  0  0  0  0  0  0  0  0  0  0
    1.0222    0.2571    2.2798 C   0  0  0  0  0  0  0  0  0  0  0  0
    3.0927    0.8787   -0.8986 C   0  0  0  0  0  0  0  0  0  0  0  0
    1.1284    3.1196    1.2852 C   0  0  0  0  0  0  0  0  0  0  0  0
    4.4522    0.2310   -1.0460 C   0  0  2  0  0  0  0  0  0  0  0  0
    4.4237   -0.9167   -0.0315 C   0  0  2  0  0  0  0  0  0  0  0  0
    5.6036    1.0240   -0.5493 C   0  0  0  0  0  0  0  0  0  0  0  0
   -3.3171    2.3784   -0.8861 C   0  0  0  0  0  0  0  0  0  0  0  0
    6.1973    0.3422    0.4219 C   0  0  0  0  0  0  0  0  0  0  0  0
   -4.0009   -1.2112    1.7396 C   0  0  0  0  0  0  0  0  0  0  0  0
   -4.6081    2.6104   -0.1612 C   0  0  0  0  0  0  0  0  0  0  0  0
   -5.4297   -1.0532    1.3159 C   0  0  0  0  0  0  0  0  0  0  0  0
    0.8619   -0.3209   -1.1853 H   0  0  0  0  0  0  0  0  0  0  0  0
   -1.0806    1.2123   -1.6477 H   0  0  0  0  0  0  0  0  0  0  0  0
    0.9884    2.2117   -0.6301 H   0  0  0  0  0  0  0  0  0  0  0  0
    2.1218   -2.1604    0.0595 H   0  0  0  0  0  0  0  0  0  0  0  0
    0.7110   -2.3527    1.0681 H   0  0  0  0  0  0  0  0  0  0  0  0
   -1.1666   -3.5752   -2.0345 H   0  0  0  0  0  0  0  0  0  0  0  0
   -1.4110   -3.3729   -0.3172 H   0  0  0  0  0  0  0  0  0  0  0  0
   -1.6053   -0.0953   -3.1802 H   0  0  0  0  0  0  0  0  0  0  0  0
   -1.4979   -1.8360   -3.6432 H   0  0  0  0  0  0  0  0  0  0  0  0
   -1.3099    1.8734    1.3182 H   0  0  0  0  0  0  0  0  0  0  0  0
   -1.1518    3.0185    0.0334 H   0  0  0  0  0  0  0  0  0  0  0  0
    3.2320    1.2384    1.2183 H   0  0  0  0  0  0  0  0  0  0  0  0
    0.9210   -3.9777   -0.7427 H   0  0  0  0  0  0  0  0  0  0  0  0
    1.0922   -2.6945   -1.9386 H   0  0  0  0  0  0  0  0  0  0  0  0
   -1.5298   -1.9741    1.2815 H   0  0  0  0  0  0  0  0  0  0  0  0
   -1.5589   -0.3038    1.8305 H   0  0  0  0  0  0  0  0  0  0  0  0
    1.7324    0.8299    2.8896 H   0  0  0  0  0  0  0  0  0  0  0  0
    1.1842   -0.7946    2.5300 H   0  0  0  0  0  0  0  0  0  0  0  0
    0.0364    0.5436    2.6462 H   0  0  0  0  0  0  0  0  0  0  0  0
    2.4626    0.4468   -1.6738 H   0  0  0  0  0  0  0  0  0  0  0  0
    3.1329    1.9579   -1.0834 H   0  0  0  0  0  0  0  0  0  0  0  0
    0.7691    3.0071    2.3130 H   0  0  0  0  0  0  0  0  0  0  0  0
    0.7508    4.0776    0.9100 H   0  0  0  0  0  0  0  0  0  0  0  0
    2.2187    3.1974    1.3076 H   0  0  0  0  0  0  0  0  0  0  0  0
    4.6479   -0.1104   -2.0678 H   0  0  0  0  0  0  0  0  0  0  0  0
    4.3744   -1.8968   -0.5179 H   0  0  0  0  0  0  0  0  0  0  0  0
    5.9296    1.9753   -0.9398 H   0  0  0  0  0  0  0  0  0  0  0  0
    7.0794    0.6030    0.9785 H   0  0  0  0  0  0  0  0  0  0  0  0
   -4.9370    3.6403   -0.3268 H   0  0  0  0  0  0  0  0  0  0  0  0
   -5.3738    1.9314   -0.5442 H   0  0  0  0  0  0  0  0  0  0  0  0
   -4.4623    2.4625    0.9120 H   0  0  0  0  0  0  0  0  0  0  0  0
   -5.5879   -1.5404    0.3502 H   0  0  0  0  0  0  0  0  0  0  0  0
   -5.6812    0.0077    1.2562 H   0  0  0  0  0  0  0  0  0  0  0  0
   -6.0810   -1.5346    2.0508 H   0  0  0  0  0  0  0  0  0  0  0  0
  1 10  1  0  0  0  0
  1 16  1  0  0  0  0
  2 12  1  0  0  0  0
  2 27  1  0  0  0  0
  3 18  1  0  0  0  0
  3 25  1  0  0  0  0
  4 20  1  0  0  0  0
  4 29  1  0  0  0  0
  5 25  1  0  0  0  0
  5 28  1  0  0  0  0
  6 27  2  0  0  0  0
  7 29  2  0  0  0  0
  8  9  1  0  0  0  0
  8 10  1  0  0  0  0
  8 12  1  0  0  0  0
  8 20  1  0  0  0  0
  9 11  1  0  0  0  0
  9 14  1  0  0  0  0
  9 32  1  0  0  0  0
 10 15  1  0  0  0  0
 10 16  1  0  0  0  0
 11 13  1  0  0  0  0
 11 18  1  0  0  0  0
 11 21  1  0  0  0  0
 12 17  1  0  0  0  0
 12 33  1  0  0  0  0
 13 17  1  0  0  0  0
 13 23  1  0  0  0  0
 13 34  1  0  0  0  0
 14 19  1  0  0  0  0
 14 35  1  0  0  0  0
 14 36  1  0  0  0  0
 15 19  1  0  0  0  0
 15 37  1  0  0  0  0
 15 38  1  0  0  0  0
 16 39  1  0  0  0  0
 16 40  1  0  0  0  0
 17 41  1  0  0  0  0
 17 42  1  0  0  0  0
 18 22  1  0  0  0  0
 18 43  1  0  0  0  0
 19 44  1  0  0  0  0
 19 45  1  0  0  0  0
 20 46  1  0  0  0  0
 20 47  1  0  0  0  0
 21 48  1  0  0  0  0
 21 49  1  0  0  0  0
 21 50  1  0  0  0  0
 22 24  1  0  0  0  0
 22 51  1  0  0  0  0
 22 52  1  0  0  0  0
 23 53  1  0  0  0  0
 23 54  1  0  0  0  0
 23 55  1  0  0  0  0
 24 25  1  0  0  0  0
 24 26  1  0  0  0  0
 24 56  1  0  0  0  0
 25 57  1  0  0  0  0
 26 28  2  0  0  0  0
 26 58  1  0  0  0  0
 27 30  1  0  0  0  0
 28 59  1  0  0  0  0
 29 31  1  0  0  0  0
 30 60  1  0  0  0  0
 30 61  1  0  0  0  0
 30 62  1  0  0  0  0
 31 63  1  0  0  0  0
 31 64  1  0  0  0  0
 31 65  1  0  0  0  0
M  END
> <PUBCHEM_COMPOUND_CID>
442014

> <PUBCHEM_CONFORMER_RMSD>
1

> <PUBCHEM_CONFORMER_DIVERSEORDER>
1
3
2

> <PUBCHEM_MMFF94_PARTIAL_CHARGES>
26
1 -0.3
10 -0.04
12 0.28
15 0.09
16 -0.05
18 0.28
2 -0.43
20 0.28
24 0.14
25 0.56
26 -0.29
27 0.66
28 -0.07
29 0.66
3 -0.56
30 0.06
31 0.06
39 0.1
4 -0.43
40 0.1
5 -0.36
58 0.15
59 0.15
6 -0.57
7 -0.57
8 0.09

> <PUBCHEM_EFFECTIVE_ROTOR_COUNT>
8.6

> <PUBCHEM_PHARMACOPHORE_FEATURES>
9
1 1 acceptor
1 3 acceptor
1 5 acceptor
1 6 acceptor
1 7 acceptor
5 3 18 22 24 25 rings
5 5 24 25 26 28 rings
6 8 9 10 14 15 19 rings
6 8 9 11 12 13 17 rings

> <PUBCHEM_HEAVY_ATOM_COUNT>
31

> <PUBCHEM_ATOM_DEF_STEREO_COUNT>
9

> <PUBCHEM_ATOM_UDEF_STEREO_COUNT>
0

> <PUBCHEM_BOND_DEF_STEREO_COUNT>
0

> <PUBCHEM_BOND_UDEF_STEREO_COUNT>
0

> <PUBCHEM_ISOTOPIC_ATOM_COUNT>
0

> <PUBCHEM_COMPONENT_COUNT>
1

> <PUBCHEM_CACTVS_TAUTO_COUNT>
1

> <PUBCHEM_CONFORMER_ID>
0006BE9E00000001

> <PUBCHEM_MMFF94_ENERGY>
122.1525

> <PUBCHEM_FEATURE_SELFOVERLAP>
46.326

> <PUBCHEM_SHAPE_FINGERPRINT>
10190108 129 18116142269775055847
107951 10 18059293287421193203
10863032 1 17703509999100725922
10906281 52 18118395387890070857
11488393 25 17606386907410386751
11578080 2 18046882030838036945
12082328 90 17989200457281914614
12107698 1 18059290968028031417
12236239 1 18131634508995012744
12403814 3 18335977593011229834
12422481 6 18265029470756727619
12553582 1 18261675883573449426
12597179 24 18268146647015665729
12633257 1 17895184446740552340
13140716 1 18044372721290192242
14713325 29 18272928362301525037
14790565 3 18042968872786454792
14955137 171 18188191131631715522
15420108 30 17241871276842045147
15849732 13 17676475121329493195
16752209 62 18264228979310992398
16945 1 18193296120853373079
17492 54 18045248134889601765
17980427 23 17917700315016744805
20691752 17 18194135018550784034
21033648 29 18187378626751153160
22121540 332 17174858306324058305
22182313 1 18190162658748433198
23227448 37 17988922322587363684
23402539 116 18261967293025702924
23419403 2 17683770540363094975
23493267 7 18130513040650446561
23559900 14 17981045533303564810
2818148 4 17836916807115810382
3178227 256 18261386772177016089
3493558 16 17845637240010255501
350125 39 18334861584846606117
4058900 60 17695913619827157301
4340502 62 17702375350715026193
460360 51 18266477442061929840
469060 322 18335987467610762887
497634 4 17060335210714588406
5104073 3 18131639989268034840
5265222 85 18337100173868358148
56638632 10 17676203572307346137

> <PUBCHEM_SHAPE_MULTIPOLES>
596.88
10.45
3.24
2.02
9.12
0.82
0.18
1.25
1.98
-2.57
-0.94
-2.18
-0.61
1.19

> <PUBCHEM_SHAPE_SELFOVERLAP>
1279.795

> <PUBCHEM_SHAPE_VOLUME>
325.8

> <PUBCHEM_COORDINATE_TYPE>
2
5
10

$$$$

