443425
  -OEChem-07051213022D

 79 82  0     1  0  0  0  0  0999 V2000
    8.8575   -1.3068    0.0000 Mg  0  2  0  0  0  0  0  0  0  0  0  0
    6.7875    2.3153    0.0000 O   0  0  0  0  0  0  0  0  0  0  0  0
    7.9909    5.0634    0.0000 O   0  0  0  0  0  0  0  0  0  0  0  0
    6.5959    4.0367    0.0000 O   0  0  0  0  0  0  0  0  0  0  0  0
    2.4934   -0.3531    0.0000 O   0  0  0  0  0  0  0  0  0  0  0  0
    3.5422    1.0253    0.0000 O   0  0  0  0  0  0  0  0  0  0  0  0
    8.8626    0.0568    0.0000 N   0  5  0  0  0  0  0  0  0  0  0  0
    8.8953   -2.6163    0.0000 N   0  5  0  0  0  0  0  0  0  0  0  0
    7.4280   -1.2797    0.0000 N   0  0  0  0  0  0  0  0  0  0  0  0
   10.3609   -1.2797    0.0000 N   0  0  0  0  0  0  0  0  0  0  0  0
    8.3741    1.6205    0.0000 C   0  0  0  0  0  0  0  0  0  0  0  0
    8.0799    0.6760    0.0000 C   0  0  0  0  0  0  0  0  0  0  0  0
    9.3512    1.6205    0.0000 C   0  0  0  0  0  0  0  0  0  0  0  0
    9.6779    0.7088    0.0000 C   0  0  0  0  0  0  0  0  0  0  0  0
    7.7814    2.4259    0.0000 C   0  0  3  0  0  0  0  0  0  0  0  0
    8.1126   -3.2356    0.0000 C   0  0  0  0  0  0  0  0  0  0  0  0
    7.1356    0.4146    0.0000 C   0  0  0  0  0  0  0  0  0  0  0  0
    6.8742   -0.5298    0.0000 C   0  0  0  0  0  0  0  0  0  0  0  0
    9.6779   -3.2029    0.0000 C   0  0  0  0  0  0  0  0  0  0  0  0
    5.9297   -0.7913    0.0000 C   0  0  0  0  0  0  0  0  0  0  0  0
    8.4067   -4.1474    0.0000 C   0  0  0  0  0  0  0  0  0  0  0  0
    5.9297   -1.7682    0.0000 C   0  0  0  0  0  0  0  0  0  0  0  0
    6.8742   -2.0297    0.0000 C   0  0  0  0  0  0  0  0  0  0  0  0
    9.3839   -4.1474    0.0000 C   0  0  0  0  0  0  0  0  0  0  0  0
   10.6223    0.4146    0.0000 C   0  0  0  0  0  0  0  0  0  0  0  0
    7.1682   -2.9415    0.0000 C   0  0  0  0  0  0  0  0  0  0  0  0
    8.1825    3.3419    0.0000 C   0  0  0  0  0  0  0  0  0  0  0  0
    9.9268    2.4382    0.0000 C   0  0  0  0  0  0  0  0  0  0  0  0
    5.1339   -0.1857    0.0000 C   0  0  0  0  0  0  0  0  0  0  0  0
   10.9148   -0.4971    0.0000 C   0  0  0  0  0  0  0  0  0  0  0  0
   10.6550   -2.9415    0.0000 C   0  0  0  0  0  0  0  0  0  0  0  0
   10.9475   -1.9970    0.0000 C   0  0  0  0  0  0  0  0  0  0  0  0
   11.8608   -0.7586    0.0000 C   0  0  0  0  0  0  0  0  0  0  0  0
   11.8608   -1.7356    0.0000 C   0  0  0  0  0  0  0  0  0  0  0  0
    7.8181   -4.9558    0.0000 C   0  0  0  0  0  0  0  0  0  0  0  0
    5.1338   -2.3737    0.0000 C   0  0  0  0  0  0  0  0  0  0  0  0
    4.2116   -0.5722    0.0000 C   0  0  0  0  0  0  0  0  0  0  0  0
    9.9766   -4.9527    0.0000 C   0  0  0  0  0  0  0  0  0  0  0  0
    7.5898    4.1473    0.0000 C   0  0  0  0  0  0  0  0  0  0  0  0
   12.6593   -2.3376    0.0000 C   0  0  0  0  0  0  0  0  0  0  0  0
   12.6565   -0.1530    0.0000 C   0  0  0  0  0  0  0  0  0  0  0  0
    3.4157    0.0333    0.0000 C   0  0  0  0  0  0  0  0  0  0  0  0
    9.5756   -5.8688    0.0000 C   0  0  0  0  0  0  0  0  0  0  0  0
   13.5789   -0.5393    0.0000 C   0  0  0  0  0  0  0  0  0  0  0  0
    7.3982    5.8688    0.0000 C   0  0  0  0  0  0  0  0  0  0  0  0
    7.4139    2.9253    0.0000 H   0  0  0  0  0  0  0  0  0  0  0  0
    6.6972    0.8530    0.0000 H   0  0  0  0  0  0  0  0  0  0  0  0
   11.0588    0.8549    0.0000 H   0  0  0  0  0  0  0  0  0  0  0  0
    6.7320   -3.3821    0.0000 H   0  0  0  0  0  0  0  0  0  0  0  0
    8.6986    2.9984    0.0000 H   0  0  0  0  0  0  0  0  0  0  0  0
    8.6105    3.7905    0.0000 H   0  0  0  0  0  0  0  0  0  0  0  0
   10.4338    2.0813    0.0000 H   0  0  0  0  0  0  0  0  0  0  0  0
   10.2836    2.9452    0.0000 H   0  0  0  0  0  0  0  0  0  0  0  0
    9.4198    2.7951    0.0000 H   0  0  0  0  0  0  0  0  0  0  0  0
    5.5893    0.2350    0.0000 H   0  0  0  0  0  0  0  0  0  0  0  0
    4.7986    0.3358    0.0000 H   0  0  0  0  0  0  0  0  0  0  0  0
   11.0848   -3.3883    0.0000 H   0  0  0  0  0  0  0  0  0  0  0  0
    7.3168   -4.5908    0.0000 H   0  0  0  0  0  0  0  0  0  0  0  0
    7.4531   -5.4570    0.0000 H   0  0  0  0  0  0  0  0  0  0  0  0
    8.3193   -5.3207    0.0000 H   0  0  0  0  0  0  0  0  0  0  0  0
    4.7584   -1.8803    0.0000 H   0  0  0  0  0  0  0  0  0  0  0  0
    4.6404   -2.7491    0.0000 H   0  0  0  0  0  0  0  0  0  0  0  0
    5.5092   -2.8671    0.0000 H   0  0  0  0  0  0  0  0  0  0  0  0
    3.7562   -0.9929    0.0000 H   0  0  0  0  0  0  0  0  0  0  0  0
    4.5468   -1.0937    0.0000 H   0  0  0  0  0  0  0  0  0  0  0  0
    6.4200    2.8147    0.0000 H   0  0  0  0  0  0  0  0  0  0  0  0
   10.5928   -4.8841    0.0000 H   0  0  0  0  0  0  0  0  0  0  0  0
   12.2860   -2.8327    0.0000 H   0  0  0  0  0  0  0  0  0  0  0  0
   13.1543   -2.7109    0.0000 H   0  0  0  0  0  0  0  0  0  0  0  0
   13.0325   -1.8426    0.0000 H   0  0  0  0  0  0  0  0  0  0  0  0
   12.5780    0.4620    0.0000 H   0  0  0  0  0  0  0  0  0  0  0  0
    8.9594   -5.9374    0.0000 H   0  0  0  0  0  0  0  0  0  0  0  0
    9.9431   -6.3681    0.0000 H   0  0  0  0  0  0  0  0  0  0  0  0
   13.6574   -1.1543    0.0000 H   0  0  0  0  0  0  0  0  0  0  0  0
   14.0722   -0.1638    0.0000 H   0  0  0  0  0  0  0  0  0  0  0  0
    7.8976    6.2362    0.0000 H   0  0  0  0  0  0  0  0  0  0  0  0
    7.0307    6.3681    0.0000 H   0  0  0  0  0  0  0  0  0  0  0  0
    6.8989    5.5013    0.0000 H   0  0  0  0  0  0  0  0  0  0  0  0
    2.0000    0.0223    0.0000 H   0  0  0  0  0  0  0  0  0  0  0  0
  2 15  1  0  0  0  0
  2 66  1  0  0  0  0
  3 39  1  0  0  0  0
  3 45  1  0  0  0  0
  4 39  2  0  0  0  0
  5 42  1  0  0  0  0
  5 79  1  0  0  0  0
  6 42  2  0  0  0  0
  7 12  1  0  0  0  0
  7 14  1  0  0  0  0
  8 16  1  0  0  0  0
  8 19  1  0  0  0  0
  9 18  1  0  0  0  0
  9 23  2  0  0  0  0
 10 30  1  0  0  0  0
 10 32  2  0  0  0  0
 11 12  2  0  0  0  0
 11 13  1  0  0  0  0
 11 15  1  0  0  0  0
 12 17  1  0  0  0  0
 13 14  2  0  0  0  0
 13 28  1  0  0  0  0
 14 25  1  0  0  0  0
 15 27  1  0  0  0  0
 15 46  1  0  0  0  0
 16 21  1  0  0  0  0
 16 26  2  0  0  0  0
 17 18  2  0  0  0  0
 17 47  1  0  0  0  0
 18 20  1  0  0  0  0
 19 24  1  0  0  0  0
 19 31  2  0  0  0  0
 20 22  2  0  0  0  0
 20 29  1  0  0  0  0
 21 24  2  0  0  0  0
 21 35  1  0  0  0  0
 22 23  1  0  0  0  0
 22 36  1  0  0  0  0
 23 26  1  0  0  0  0
 24 38  1  0  0  0  0
 25 30  2  0  0  0  0
 25 48  1  0  0  0  0
 26 49  1  0  0  0  0
 27 39  1  0  0  0  0
 27 50  1  0  0  0  0
 27 51  1  0  0  0  0
 28 52  1  0  0  0  0
 28 53  1  0  0  0  0
 28 54  1  0  0  0  0
 29 37  1  0  0  0  0
 29 55  1  0  0  0  0
 29 56  1  0  0  0  0
 30 33  1  0  0  0  0
 31 32  1  0  0  0  0
 31 57  1  0  0  0  0
 32 34  1  0  0  0  0
 33 34  2  0  0  0  0
 33 41  1  0  0  0  0
 34 40  1  0  0  0  0
 35 58  1  0  0  0  0
 35 59  1  0  0  0  0
 35 60  1  0  0  0  0
 36 61  1  0  0  0  0
 36 62  1  0  0  0  0
 36 63  1  0  0  0  0
 37 42  1  0  0  0  0
 37 64  1  0  0  0  0
 37 65  1  0  0  0  0
 38 43  2  0  0  0  0
 38 67  1  0  0  0  0
 40 68  1  0  0  0  0
 40 69  1  0  0  0  0
 40 70  1  0  0  0  0
 41 44  2  0  0  0  0
 41 71  1  0  0  0  0
 43 72  1  0  0  0  0
 43 73  1  0  0  0  0
 44 74  1  0  0  0  0
 44 75  1  0  0  0  0
 45 76  1  0  0  0  0
 45 77  1  0  0  0  0
 45 78  1  0  0  0  0
M  CHG  3   1   2   7  -1   8  -1
M  END
> <PUBCHEM_COMPOUND_CID>
443425

> <PUBCHEM_COMPOUND_CANONICALIZED>
1

> <PUBCHEM_CACTVS_COMPLEXITY>
1630

> <PUBCHEM_CACTVS_HBOND_ACCEPTOR>
9

> <PUBCHEM_CACTVS_HBOND_DONOR>
2

> <PUBCHEM_CACTVS_ROTATABLE_BOND>
9

> <PUBCHEM_CACTVS_SUBSKEYS>
AAADcfB/uAAAACAAAAAAAAAAAAAAAWIECAAAAAAAAAAAAACBgAAAHgAACAAADByhngICiJIIFgCoAyTyTACCgCAhAiAImCEwTJgINnbAkJGEUAhn4AHI2Ae42TOegAAAAAAAAAAAAAAAAAAAAAAAAAAAAA==

> <PUBCHEM_IUPAC_OPENEYE_NAME>
magnesium 3-[18-(1-hydroxy-3-methoxy-3-oxo-propyl)-3,7,12,17-tetramethyl-8,13-divinyl-porphyrin-22,24-diid-2-yl]propanoic acid

> <PUBCHEM_IUPAC_CAS_NAME>
magnesium 3-[8,13-bis(ethenyl)-18-(1-hydroxy-3-methoxy-3-oxopropyl)-3,7,12,17-tetramethyl-2-porphyrin-22,24-diidyl]propanoic acid

> <PUBCHEM_IUPAC_NAME>
magnesium 3-[8,13-bis(ethenyl)-18-(1-hydroxy-3-methoxy-3-oxopropyl)-3,7,12,17-tetramethylporphyrin-22,24-diid-2-yl]propanoic acid

> <PUBCHEM_IUPAC_SYSTEMATIC_NAME>
magnesium 3-[8,13-bis(ethenyl)-18-(3-methoxy-1-oxidanyl-3-oxidanylidene-propyl)-3,7,12,17-tetramethyl-porphyrin-22,24-diid-2-yl]propanoic acid

> <PUBCHEM_IUPAC_TRADITIONAL_NAME>
magnesium 3-[18-(1-hydroxy-3-keto-3-methoxy-propyl)-3,7,12,17-tetramethyl-8,13-divinyl-porphine-22,24-diid-2-yl]propionic acid

> <PUBCHEM_IUPAC_INCHI>
InChI=1S/C35H35N4O5.Mg/c1-8-21-17(3)24-12-25-19(5)23(10-11-33(41)42)30(38-25)15-31-35(32(40)16-34(43)44-7)20(6)27(39-31)14-29-22(9-2)18(4)26(37-29)13-28(21)36-24;/h8-9,12-15,32,40H,1-2,10-11,16H2,3-7H3,(H2-,36,37,38,39,41,42);/q-1;+2/p-1

> <PUBCHEM_IUPAC_INCHIKEY>
MVCDIAGKFJFPBB-UHFFFAOYSA-M

> <PUBCHEM_EXACT_MASS>
614.237962

> <PUBCHEM_MOLECULAR_FORMULA>
C35H34MgN4O5

> <PUBCHEM_MOLECULAR_WEIGHT>
614.97326

> <PUBCHEM_OPENEYE_CAN_SMILES>
CC1=C(C2=CC3=NC(=CC4=C(C(=C([N-]4)C=C5C(=C(C(=N5)C=C1[N-]2)C)CCC(=O)O)C(CC(=O)OC)O)C)C(=C3C)C=C)C=C.[Mg+2]

> <PUBCHEM_OPENEYE_ISO_SMILES>
CC1=C(C2=CC3=NC(=CC4=C(C(=C([N-]4)C=C5C(=C(C(=N5)C=C1[N-]2)C)CCC(=O)O)C(CC(=O)OC)O)C)C(=C3C)C=C)C=C.[Mg+2]

> <PUBCHEM_CACTVS_TPSA>
111

> <PUBCHEM_MONOISOTOPIC_WEIGHT>
614.237962

> <PUBCHEM_TOTAL_CHARGE>
0

> <PUBCHEM_HEAVY_ATOM_COUNT>
45

> <PUBCHEM_ATOM_DEF_STEREO_COUNT>
0

> <PUBCHEM_ATOM_UDEF_STEREO_COUNT>
1

> <PUBCHEM_BOND_DEF_STEREO_COUNT>
0

> <PUBCHEM_BOND_UDEF_STEREO_COUNT>
0

> <PUBCHEM_ISOTOPIC_ATOM_COUNT>
0

> <PUBCHEM_COMPONENT_COUNT>
2

> <PUBCHEM_CACTVS_TAUTO_COUNT>
3

> <PUBCHEM_NONSTANDARDBOND>
1  7  6
1  8  6

> <PUBCHEM_COORDINATE_TYPE>
1
5
255

> <PUBCHEM_BONDANNOTATIONS>
10  30  8
10  32  8
11  12  8
11  13  8
12  17  8
13  14  8
14  25  8
16  21  8
16  26  8
17  18  8
19  24  8
19  31  8
15  2  3
21  24  8
23  26  8
25  30  8
31  32  8
7  12  8
7  14  8
8  16  8
8  19  8
9  18  8
9  23  8

$$$$

