251112
  -OEChem-07051213062D

 51 53  0     0  0  0  0  0  0999 V2000
    6.3580    0.2693    0.0000 O   0  0  0  0  0  0  0  0  0  0  0  0
    4.5981   -2.7654    0.0000 O   0  0  0  0  0  0  0  0  0  0  0  0
    4.5981    1.2346    0.0000 O   0  0  0  0  0  0  0  0  0  0  0  0
    2.8660   -1.7654    0.0000 O   0  0  0  0  0  0  0  0  0  0  0  0
    2.8660    0.2346    0.0000 O   0  0  0  0  0  0  0  0  0  0  0  0
    9.0000   -1.2379    0.0000 O   0  0  0  0  0  0  0  0  0  0  0  0
    6.3465   -2.8000    0.0000 O   0  0  0  0  0  0  0  0  0  0  0  0
    8.9846    2.7621    0.0000 O   0  0  0  0  0  0  0  0  0  0  0  0
    5.4641   -1.2654    0.0000 C   0  0  0  0  0  0  0  0  0  0  0  0
    5.4641   -0.2654    0.0000 C   0  0  0  0  0  0  0  0  0  0  0  0
    4.5981   -1.7654    0.0000 C   0  0  0  0  0  0  0  0  0  0  0  0
    4.5981    0.2346    0.0000 C   0  0  0  0  0  0  0  0  0  0  0  0
    7.2641   -0.2446    0.0000 C   0  0  0  0  0  0  0  0  0  0  0  0
    3.7320   -1.2654    0.0000 C   0  0  0  0  0  0  0  0  0  0  0  0
    3.7320   -0.2654    0.0000 C   0  0  0  0  0  0  0  0  0  0  0  0
    6.3580   -1.8001    0.0000 C   0  0  0  0  0  0  0  0  0  0  0  0
    8.1282    0.2587    0.0000 C   0  0  0  0  0  0  0  0  0  0  0  0
    7.2641   -1.2862    0.0000 C   0  0  0  0  0  0  0  0  0  0  0  0
    8.9962   -0.2379    0.0000 C   0  0  0  0  0  0  0  0  0  0  0  0
    8.1244    1.2587    0.0000 C   0  0  0  0  0  0  0  0  0  0  0  0
    8.9884    1.7621    0.0000 C   0  0  0  0  0  0  0  0  0  0  0  0
    9.8602    0.2654    0.0000 C   0  0  0  0  0  0  0  0  0  0  0  0
    9.8564    1.2654    0.0000 C   0  0  0  0  0  0  0  0  0  0  0  0
    3.7320   -3.2654    0.0000 C   0  0  0  0  0  0  0  0  0  0  0  0
    3.7320    1.7346    0.0000 C   0  0  0  0  0  0  0  0  0  0  0  0
    2.0000   -1.2654    0.0000 C   0  0  0  0  0  0  0  0  0  0  0  0
    2.0000   -0.2654    0.0000 C   0  0  0  0  0  0  0  0  0  0  0  0
    9.8680   -1.7346    0.0000 C   0  0  0  0  0  0  0  0  0  0  0  0
    9.8487    3.2654    0.0000 C   0  0  0  0  0  0  0  0  0  0  0  0
    7.7998   -1.5983    0.0000 H   0  0  0  0  0  0  0  0  0  0  0  0
    7.5862    1.5667    0.0000 H   0  0  0  0  0  0  0  0  0  0  0  0
   10.3984   -0.0425    0.0000 H   0  0  0  0  0  0  0  0  0  0  0  0
   10.3921    1.5775    0.0000 H   0  0  0  0  0  0  0  0  0  0  0  0
    3.4220   -2.7285    0.0000 H   0  0  0  0  0  0  0  0  0  0  0  0
    3.1951   -3.5754    0.0000 H   0  0  0  0  0  0  0  0  0  0  0  0
    4.0420   -3.8023    0.0000 H   0  0  0  0  0  0  0  0  0  0  0  0
    4.0420    2.2715    0.0000 H   0  0  0  0  0  0  0  0  0  0  0  0
    3.1951    2.0446    0.0000 H   0  0  0  0  0  0  0  0  0  0  0  0
    3.4220    1.1977    0.0000 H   0  0  0  0  0  0  0  0  0  0  0  0
    2.3100   -0.7285    0.0000 H   0  0  0  0  0  0  0  0  0  0  0  0
    1.4631   -0.9554    0.0000 H   0  0  0  0  0  0  0  0  0  0  0  0
    1.6900   -1.8023    0.0000 H   0  0  0  0  0  0  0  0  0  0  0  0
    1.6900    0.2715    0.0000 H   0  0  0  0  0  0  0  0  0  0  0  0
    1.4631   -0.5754    0.0000 H   0  0  0  0  0  0  0  0  0  0  0  0
    2.3100   -0.8023    0.0000 H   0  0  0  0  0  0  0  0  0  0  0  0
    9.5600   -2.2727    0.0000 H   0  0  0  0  0  0  0  0  0  0  0  0
   10.4061   -2.0425    0.0000 H   0  0  0  0  0  0  0  0  0  0  0  0
   10.1759   -1.1964    0.0000 H   0  0  0  0  0  0  0  0  0  0  0  0
   10.1607    2.7297    0.0000 H   0  0  0  0  0  0  0  0  0  0  0  0
   10.3844    3.5775    0.0000 H   0  0  0  0  0  0  0  0  0  0  0  0
    9.5366    3.8011    0.0000 H   0  0  0  0  0  0  0  0  0  0  0  0
  1 10  1  0  0  0  0
  1 13  1  0  0  0  0
  2 11  1  0  0  0  0
  2 24  1  0  0  0  0
  3 12  1  0  0  0  0
  3 25  1  0  0  0  0
  4 14  1  0  0  0  0
  4 26  1  0  0  0  0
  5 15  1  0  0  0  0
  5 27  1  0  0  0  0
  6 19  1  0  0  0  0
  6 28  1  0  0  0  0
  7 16  2  0  0  0  0
  8 21  1  0  0  0  0
  8 29  1  0  0  0  0
  9 10  2  0  0  0  0
  9 11  1  0  0  0  0
  9 16  1  0  0  0  0
 10 12  1  0  0  0  0
 11 14  2  0  0  0  0
 12 15  2  0  0  0  0
 13 17  1  0  0  0  0
 13 18  2  0  0  0  0
 14 15  1  0  0  0  0
 16 18  1  0  0  0  0
 17 19  2  0  0  0  0
 17 20  1  0  0  0  0
 18 30  1  0  0  0  0
 19 22  1  0  0  0  0
 20 21  2  0  0  0  0
 20 31  1  0  0  0  0
 21 23  1  0  0  0  0
 22 23  2  0  0  0  0
 22 32  1  0  0  0  0
 23 33  1  0  0  0  0
 24 34  1  0  0  0  0
 24 35  1  0  0  0  0
 24 36  1  0  0  0  0
 25 37  1  0  0  0  0
 25 38  1  0  0  0  0
 25 39  1  0  0  0  0
 26 40  1  0  0  0  0
 26 41  1  0  0  0  0
 26 42  1  0  0  0  0
 27 43  1  0  0  0  0
 27 44  1  0  0  0  0
 27 45  1  0  0  0  0
 28 46  1  0  0  0  0
 28 47  1  0  0  0  0
 28 48  1  0  0  0  0
 29 49  1  0  0  0  0
 29 50  1  0  0  0  0
 29 51  1  0  0  0  0
M  END
> <PUBCHEM_COMPOUND_CID>
251112

> <PUBCHEM_COMPOUND_CANONICALIZED>
1

> <PUBCHEM_CACTVS_COMPLEXITY>
593

> <PUBCHEM_CACTVS_HBOND_ACCEPTOR>
8

> <PUBCHEM_CACTVS_HBOND_DONOR>
0

> <PUBCHEM_CACTVS_ROTATABLE_BOND>
7

> <PUBCHEM_CACTVS_SUBSKEYS>
AAADceB4PAAAAAAAAAAAAAAAAAAAAAAAAAAwYIAAAAAAAACBQAAAGgAAAAAADASAmAIyBoAABACIAqBSAAACCAAkIAAIiAEGiMgNJzaENRqCOWKl4BUKqQfK7LzOIQABCAAIQABCAAIQABCAAAAAAAAAAA==

> <PUBCHEM_IUPAC_OPENEYE_NAME>
2-(2,5-dimethoxyphenyl)-5,6,7,8-tetramethoxy-chromen-4-one

> <PUBCHEM_IUPAC_CAS_NAME>
2-(2,5-dimethoxyphenyl)-5,6,7,8-tetramethoxy-1-benzopyran-4-one

> <PUBCHEM_IUPAC_NAME>
2-(2,5-dimethoxyphenyl)-5,6,7,8-tetramethoxychromen-4-one

> <PUBCHEM_IUPAC_SYSTEMATIC_NAME>
2-(2,5-dimethoxyphenyl)-5,6,7,8-tetramethoxy-chromen-4-one

> <PUBCHEM_IUPAC_TRADITIONAL_NAME>
2-(2,5-dimethoxyphenyl)-5,6,7,8-tetramethoxy-chromone

> <PUBCHEM_IUPAC_INCHI>
InChI=1S/C21H22O8/c1-23-11-7-8-14(24-2)12(9-11)15-10-13(22)16-17(25-3)19(26-4)21(28-6)20(27-5)18(16)29-15/h7-10H,1-6H3

> <PUBCHEM_IUPAC_INCHIKEY>
FJNLODZIVSPGBA-UHFFFAOYSA-N

> <PUBCHEM_XLOGP3_AA>
3

> <PUBCHEM_EXACT_MASS>
402.131468

> <PUBCHEM_MOLECULAR_FORMULA>
C21H22O8

> <PUBCHEM_MOLECULAR_WEIGHT>
402.39458

> <PUBCHEM_OPENEYE_CAN_SMILES>
COC1=CC(=C(C=C1)OC)C2=CC(=O)C3=C(O2)C(=C(C(=C3OC)OC)OC)OC

> <PUBCHEM_OPENEYE_ISO_SMILES>
COC1=CC(=C(C=C1)OC)C2=CC(=O)C3=C(O2)C(=C(C(=C3OC)OC)OC)OC

> <PUBCHEM_CACTVS_TPSA>
81.7

> <PUBCHEM_MONOISOTOPIC_WEIGHT>
402.131468

> <PUBCHEM_TOTAL_CHARGE>
0

> <PUBCHEM_HEAVY_ATOM_COUNT>
29

> <PUBCHEM_ATOM_DEF_STEREO_COUNT>
0

> <PUBCHEM_ATOM_UDEF_STEREO_COUNT>
0

> <PUBCHEM_BOND_DEF_STEREO_COUNT>
0

> <PUBCHEM_BOND_UDEF_STEREO_COUNT>
0

> <PUBCHEM_ISOTOPIC_ATOM_COUNT>
0

> <PUBCHEM_COMPONENT_COUNT>
1

> <PUBCHEM_CACTVS_TAUTO_COUNT>
1

> <PUBCHEM_COORDINATE_TYPE>
1
5
255

> <PUBCHEM_BONDANNOTATIONS>
1  10  8
1  13  8
10  12  8
11  14  8
12  15  8
13  18  8
14  15  8
16  18  8
17  19  8
17  20  8
19  22  8
20  21  8
21  23  8
22  23  8
9  10  8
9  11  8
9  16  8

$$$$

