479931
  -OEChem-07051213103D

 40 41  0     1  0  0  0  0  0999 V2000
   -4.2280   -1.0275   -0.6819 Br  0  0  0  0  0  0  0  0  0  0  0  0
    3.7455   -1.0032    1.7185 Cl  0  0  0  0  0  0  0  0  0  0  0  0
   -3.0873    1.3811    1.0402 O   0  0  0  0  0  0  0  0  0  0  0  0
    0.0800   -0.2495   -0.0614 C   0  0  1  0  0  0  0  0  0  0  0  0
   -1.3351   -1.0389    0.0337 C   0  0  0  0  0  0  0  0  0  0  0  0
   -2.4351   -0.2055   -0.7183 C   0  0  2  0  0  0  0  0  0  0  0  0
    0.6251   -0.2331   -1.5244 C   0  0  0  0  0  0  0  0  0  0  0  0
   -0.1646    1.2148    0.4099 C   0  0  0  0  0  0  0  0  0  0  0  0
    1.1939   -0.9772    0.7776 C   0  0  0  0  0  0  0  0  0  0  0  0
   -2.5752    1.2582   -0.2849 C   0  0  2  0  0  0  0  0  0  0  0  0
   -1.2339    1.9814   -0.3439 C   0  0  0  0  0  0  0  0  0  0  0  0
   -1.2520   -2.4423   -0.6325 C   0  0  0  0  0  0  0  0  0  0  0  0
   -1.7010   -1.2799    1.5238 C   0  0  0  0  0  0  0  0  0  0  0  0
    1.9572    0.5143   -1.6646 C   0  0  0  0  0  0  0  0  0  0  0  0
    2.6129   -0.5386    0.4887 C   0  0  0  0  0  0  0  0  0  0  0  0
    2.9741    0.1592   -0.6050 C   0  0  0  0  0  0  0  0  0  0  0  0
    0.4597    1.8319    1.4298 C   0  0  0  0  0  0  0  0  0  0  0  0
    4.3637    0.6548   -0.9054 C   0  0  0  0  0  0  0  0  0  0  0  0
   -2.2085   -0.2150   -1.7914 H   0  0  0  0  0  0  0  0  0  0  0  0
   -0.0904    0.1995   -2.2306 H   0  0  0  0  0  0  0  0  0  0  0  0
    0.7931   -1.2632   -1.8647 H   0  0  0  0  0  0  0  0  0  0  0  0
    1.1710   -2.0553    0.5879 H   0  0  0  0  0  0  0  0  0  0  0  0
    0.9855   -0.8608    1.8484 H   0  0  0  0  0  0  0  0  0  0  0  0
   -3.2809    1.7810   -0.9423 H   0  0  0  0  0  0  0  0  0  0  0  0
   -1.3544    2.9904    0.0713 H   0  0  0  0  0  0  0  0  0  0  0  0
   -0.9223    2.1140   -1.3859 H   0  0  0  0  0  0  0  0  0  0  0  0
   -0.4170   -3.0378   -0.2562 H   0  0  0  0  0  0  0  0  0  0  0  0
   -2.1510   -3.0365   -0.4353 H   0  0  0  0  0  0  0  0  0  0  0  0
   -1.1490   -2.3698   -1.7201 H   0  0  0  0  0  0  0  0  0  0  0  0
   -1.6668   -0.3644    2.1196 H   0  0  0  0  0  0  0  0  0  0  0  0
   -2.6987   -1.7128    1.6413 H   0  0  0  0  0  0  0  0  0  0  0  0
   -1.0102   -1.9920    1.9891 H   0  0  0  0  0  0  0  0  0  0  0  0
    1.7832    1.5969   -1.6403 H   0  0  0  0  0  0  0  0  0  0  0  0
    2.3683    0.2850   -2.6558 H   0  0  0  0  0  0  0  0  0  0  0  0
    1.2198    1.3585    2.0370 H   0  0  0  0  0  0  0  0  0  0  0  0
    0.2168    2.8558    1.6979 H   0  0  0  0  0  0  0  0  0  0  0  0
   -3.9241    0.8870    1.0738 H   0  0  0  0  0  0  0  0  0  0  0  0
    4.7339    0.1967   -1.8286 H   0  0  0  0  0  0  0  0  0  0  0  0
    5.0900    0.4377   -0.1188 H   0  0  0  0  0  0  0  0  0  0  0  0
    4.3508    1.7415   -1.0417 H   0  0  0  0  0  0  0  0  0  0  0  0
  1  6  1  0  0  0  0
  2 15  1  0  0  0  0
  3 10  1  0  0  0  0
  3 37  1  0  0  0  0
  4  5  1  0  0  0  0
  4  7  1  0  0  0  0
  4  8  1  0  0  0  0
  4  9  1  0  0  0  0
  5  6  1  0  0  0  0
  5 12  1  0  0  0  0
  5 13  1  0  0  0  0
  6 10  1  0  0  0  0
  6 19  1  0  0  0  0
  7 14  1  0  0  0  0
  7 20  1  0  0  0  0
  7 21  1  0  0  0  0
  8 11  1  0  0  0  0
  8 17  2  0  0  0  0
  9 15  1  0  0  0  0
  9 22  1  0  0  0  0
  9 23  1  0  0  0  0
 10 11  1  0  0  0  0
 10 24  1  0  0  0  0
 11 25  1  0  0  0  0
 11 26  1  0  0  0  0
 12 27  1  0  0  0  0
 12 28  1  0  0  0  0
 12 29  1  0  0  0  0
 13 30  1  0  0  0  0
 13 31  1  0  0  0  0
 13 32  1  0  0  0  0
 14 16  1  0  0  0  0
 14 33  1  0  0  0  0
 14 34  1  0  0  0  0
 15 16  2  0  0  0  0
 16 18  1  0  0  0  0
 17 35  1  0  0  0  0
 17 36  1  0  0  0  0
 18 38  1  0  0  0  0
 18 39  1  0  0  0  0
 18 40  1  0  0  0  0
M  END
> <PUBCHEM_COMPOUND_CID>
479931

> <PUBCHEM_CONFORMER_RMSD>
0.6

> <PUBCHEM_CONFORMER_DIVERSEORDER>
3
1
2

> <PUBCHEM_MMFF94_PARTIAL_CHARGES>
16
1 -0.23
10 0.28
11 0.14
14 0.14
16 -0.28
17 -0.3
18 0.14
2 -0.14
3 -0.68
35 0.15
36 0.15
37 0.4
4 0.14
6 0.23
8 -0.28
9 0.14

> <PUBCHEM_EFFECTIVE_ROTOR_COUNT>
1.4

> <PUBCHEM_PHARMACOPHORE_FEATURES>
6
1 1 hydrophobe
1 3 acceptor
1 3 donor
3 5 12 13 hydrophobe
6 4 5 6 8 10 11 rings
6 4 7 9 14 15 16 rings

> <PUBCHEM_HEAVY_ATOM_COUNT>
18

> <PUBCHEM_ATOM_DEF_STEREO_COUNT>
3

> <PUBCHEM_ATOM_UDEF_STEREO_COUNT>
0

> <PUBCHEM_BOND_DEF_STEREO_COUNT>
0

> <PUBCHEM_BOND_UDEF_STEREO_COUNT>
0

> <PUBCHEM_ISOTOPIC_ATOM_COUNT>
0

> <PUBCHEM_COMPONENT_COUNT>
1

> <PUBCHEM_CACTVS_TAUTO_COUNT>
1

> <PUBCHEM_CONFORMER_ID>
000752BB00000003

> <PUBCHEM_MMFF94_ENERGY>
55.7814

> <PUBCHEM_FEATURE_SELFOVERLAP>
30.448

> <PUBCHEM_SHAPE_FINGERPRINT>
10062212 137 18270132308917298607
10863032 1 17417807318529523619
11132069 177 18261680388535233121
11578080 2 17770822028160970172
11640471 11 18059276743497397428
11680986 33 17974857168439922865
12236239 1 18202286905122845550
12403814 3 17775568662712526885
12423570 1 16528635289094225175
12491281 212 18341608247896829456
12592029 89 15984559887277490787
13140716 1 18045514006123628635
13538477 17 18343585148687339278
13581323 91 18411705404128289942
14115302 16 18131074796645319711
15219456 202 16588030133926700068
15669948 3 18411139113001724174
15775835 57 18342449391456324332
16752209 62 18409729577433077406
16945 1 17917144025998514091
1813 80 5327648967285966596
19868273 325 18334006164457305076
200 152 17917997157175573231
20510252 161 18260259780672869977
20600515 1 18041293131350267384
20645476 183 17846496998237156887
20871999 31 18114174224725834364
22344851 262 17632566146186413492
2334 1 17614573540378187327
23402539 116 18261117348614339439
23419403 2 17829935045945577325
23493267 7 18187635921388631550
23557571 272 17749100089247738628
23559900 14 18114460184455588670
23598291 2 17845375608235651674
2748010 2 17903928755595481343
296302 2 18334290968165512836
528886 8 17131839715954322686
77492 1 18130787884318847750
81228 2 17532637126243179096

> <PUBCHEM_SHAPE_MULTIPOLES>
372.37
6.49
2
1.58
1.69
0.08
0.14
-0.86
-0.57
-1
0.36
0.74
-0.02
-0.94

> <PUBCHEM_SHAPE_SELFOVERLAP>
742.259

> <PUBCHEM_SHAPE_VOLUME>
226.8

> <PUBCHEM_COORDINATE_TYPE>
2
5
10

$$$$

