441157
  -OEChem-07051212523D

 22 22  0     1  0  0  0  0  0999 V2000
   -1.0725    0.7353   -1.5190 O   0  0  0  0  0  0  0  0  0  0  0  0
    1.2975    1.8333   -1.1946 O   0  0  0  0  0  0  0  0  0  0  0  0
   -0.9051   -0.1652    1.9015 O   0  0  0  0  0  0  0  0  0  0  0  0
   -2.5825    0.6788    0.6093 O   0  0  0  0  0  0  0  0  0  0  0  0
   -0.3916    0.2884   -0.3522 C   0  0  2  0  0  0  0  0  0  0  0  0
    0.7597    1.2670    0.0031 C   0  0  1  0  0  0  0  0  0  0  0  0
    0.0377   -1.1603   -0.5046 C   0  0  0  0  0  0  0  0  0  0  0  0
    1.8904    0.6209    0.7569 C   0  0  0  0  0  0  0  0  0  0  0  0
    1.1943   -1.5880    0.0353 C   0  0  0  0  0  0  0  0  0  0  0  0
   -1.4281    0.3005    0.7409 C   0  0  0  0  0  0  0  0  0  0  0  0
    2.0651   -0.7071    0.7737 C   0  0  0  0  0  0  0  0  0  0  0  0
   -0.8649   -2.1037   -1.2503 C   0  0  0  0  0  0  0  0  0  0  0  0
    0.3749    2.1016    0.6024 H   0  0  0  0  0  0  0  0  0  0  0  0
    2.5856    1.2620    1.2905 H   0  0  0  0  0  0  0  0  0  0  0  0
    1.5087   -2.6229   -0.0539 H   0  0  0  0  0  0  0  0  0  0  0  0
    2.8930   -1.1498    1.3165 H   0  0  0  0  0  0  0  0  0  0  0  0
   -1.8628   -2.1183   -0.8006 H   0  0  0  0  0  0  0  0  0  0  0  0
   -0.4844   -3.1307   -1.2389 H   0  0  0  0  0  0  0  0  0  0  0  0
   -0.9574   -1.7987   -2.2974 H   0  0  0  0  0  0  0  0  0  0  0  0
   -1.3620    1.6517   -1.3689 H   0  0  0  0  0  0  0  0  0  0  0  0
    0.5835    2.3242   -1.6348 H   0  0  0  0  0  0  0  0  0  0  0  0
   -1.5650   -0.1644    2.6273 H   0  0  0  0  0  0  0  0  0  0  0  0
  1  5  1  0  0  0  0
  1 20  1  0  0  0  0
  2  6  1  0  0  0  0
  2 21  1  0  0  0  0
  3 10  1  0  0  0  0
  3 22  1  0  0  0  0
  4 10  2  0  0  0  0
  5  6  1  0  0  0  0
  5  7  1  0  0  0  0
  5 10  1  0  0  0  0
  6  8  1  0  0  0  0
  6 13  1  0  0  0  0
  7  9  2  0  0  0  0
  7 12  1  0  0  0  0
  8 11  2  0  0  0  0
  8 14  1  0  0  0  0
  9 11  1  0  0  0  0
  9 15  1  0  0  0  0
 11 16  1  0  0  0  0
 12 17  1  0  0  0  0
 12 18  1  0  0  0  0
 12 19  1  0  0  0  0
M  END
> <PUBCHEM_COMPOUND_CID>
441157

> <PUBCHEM_CONFORMER_RMSD>
0.4

> <PUBCHEM_CONFORMER_DIVERSEORDER>
1
12
10
5
13
6
11
4
8
7
9
15
3
16
2
14

> <PUBCHEM_MMFF94_PARTIAL_CHARGES>
18
1 -0.68
10 0.66
11 -0.15
12 0.14
14 0.15
15 0.15
16 0.15
2 -0.68
20 0.4
21 0.4
22 0.5
3 -0.65
4 -0.57
5 0.48
6 0.42
7 -0.28
8 -0.29
9 -0.15

> <PUBCHEM_EFFECTIVE_ROTOR_COUNT>
1.4

> <PUBCHEM_PHARMACOPHORE_FEATURES>
8
1 1 acceptor
1 1 donor
1 2 acceptor
1 2 donor
1 3 acceptor
1 4 acceptor
3 3 4 10 anion
6 5 6 7 8 9 11 rings

> <PUBCHEM_HEAVY_ATOM_COUNT>
12

> <PUBCHEM_ATOM_DEF_STEREO_COUNT>
0

> <PUBCHEM_ATOM_UDEF_STEREO_COUNT>
2

> <PUBCHEM_BOND_DEF_STEREO_COUNT>
0

> <PUBCHEM_BOND_UDEF_STEREO_COUNT>
0

> <PUBCHEM_ISOTOPIC_ATOM_COUNT>
0

> <PUBCHEM_COMPONENT_COUNT>
1

> <PUBCHEM_CACTVS_TAUTO_COUNT>
1

> <PUBCHEM_CONFORMER_ID>
0006BB4500000001

> <PUBCHEM_MMFF94_ENERGY>
19.1315

> <PUBCHEM_FEATURE_SELFOVERLAP>
40.681

> <PUBCHEM_SHAPE_FINGERPRINT>
10702982 57 17978482283719534612
12423570 1 6554278281763209456
13024252 1 16413522348768484250
137420 1 10947816086407647083
14817 1 9434914479399359727
16945 1 18202274848875254625
21040471 1 18113612365704577528
21922407 69 18047755897120305280
241688 4 18124066531183891210
2748010 2 17398693662328261374
29004967 10 18197780105454559386
5084963 1 18195547899508596506
528886 8 17616016434319200637

> <PUBCHEM_SHAPE_MULTIPOLES>
223.48
2.44
1.89
1.41
0.01
0.89
0.03
-0.41
0.56
0.01
-0.58
0.27
-0.33
-0.57

> <PUBCHEM_SHAPE_SELFOVERLAP>
466.346

> <PUBCHEM_SHAPE_VOLUME>
125.1

> <PUBCHEM_COORDINATE_TYPE>
2
5
10

$$$$

