161464
  -OEChem-07051213093D

 43 43  0     0  0  0  0  0  0999 V2000
    0.4720    0.9968   -0.3000 O   0  0  0  0  0  0  0  0  0  0  0  0
   -2.7681   -2.6005   -1.1515 O   0  0  0  0  0  0  0  0  0  0  0  0
   -5.1922    0.7248    1.2992 O   0  0  0  0  0  0  0  0  0  0  0  0
   -5.0635   -1.8053    0.1799 O   0  0  0  0  0  0  0  0  0  0  0  0
   -0.8159    2.9048   -0.2834 O   0  0  0  0  0  0  0  0  0  0  0  0
    5.4667   -0.1303    0.5501 N   0  0  0  0  0  0  0  0  0  0  0  0
    7.4527   -1.1662   -0.3175 N   0  0  0  0  0  0  0  0  0  0  0  0
    6.6046   -1.7867    1.7051 N   0  0  0  0  0  0  0  0  0  0  0  0
    2.8569    0.8438   -0.4563 C   0  0  0  0  0  0  0  0  0  0  0  0
    4.1691    1.6219   -0.5581 C   0  0  0  0  0  0  0  0  0  0  0  0
    1.6548    1.7768   -0.4092 C   0  0  0  0  0  0  0  0  0  0  0  0
    5.3846    0.7064   -0.6479 C   0  0  0  0  0  0  0  0  0  0  0  0
   -1.8545    0.7639   -0.1320 C   0  0  0  0  0  0  0  0  0  0  0  0
   -0.6993    1.6897   -0.2462 C   0  0  0  0  0  0  0  0  0  0  0  0
   -2.9852    1.1871    0.5360 C   0  0  0  0  0  0  0  0  0  0  0  0
   -1.7619   -0.4905   -0.6995 C   0  0  0  0  0  0  0  0  0  0  0  0
   -2.8477   -1.3598   -0.5943 C   0  0  0  0  0  0  0  0  0  0  0  0
   -4.0709    0.3176    0.6414 C   0  0  0  0  0  0  0  0  0  0  0  0
   -4.0021   -0.9558    0.0763 C   0  0  0  0  0  0  0  0  0  0  0  0
    6.4570   -0.9652    0.6125 C   0  0  0  0  0  0  0  0  0  0  0  0
   -2.2593   -3.6488   -0.3293 C   0  0  0  0  0  0  0  0  0  0  0  0
   -6.1976    1.3757    0.5247 C   0  0  0  0  0  0  0  0  0  0  0  0
    2.8485    0.2088    0.4380 H   0  0  0  0  0  0  0  0  0  0  0  0
    2.7533    0.1617   -1.3095 H   0  0  0  0  0  0  0  0  0  0  0  0
    4.1458    2.2684   -1.4435 H   0  0  0  0  0  0  0  0  0  0  0  0
    4.2701    2.2764    0.3167 H   0  0  0  0  0  0  0  0  0  0  0  0
    1.6115    2.3795   -1.3240 H   0  0  0  0  0  0  0  0  0  0  0  0
    1.7319    2.4445    0.4570 H   0  0  0  0  0  0  0  0  0  0  0  0
    6.2825    1.3295   -0.7390 H   0  0  0  0  0  0  0  0  0  0  0  0
    5.2996    0.0841   -1.5472 H   0  0  0  0  0  0  0  0  0  0  0  0
   -3.0422    2.1767    0.9811 H   0  0  0  0  0  0  0  0  0  0  0  0
   -0.8766   -0.8172   -1.2378 H   0  0  0  0  0  0  0  0  0  0  0  0
   -4.8560   -2.6221   -0.3056 H   0  0  0  0  0  0  0  0  0  0  0  0
   -2.2955   -4.5804   -0.9005 H   0  0  0  0  0  0  0  0  0  0  0  0
   -2.8687   -3.7672    0.5722 H   0  0  0  0  0  0  0  0  0  0  0  0
   -1.2191   -3.4470   -0.0546 H   0  0  0  0  0  0  0  0  0  0  0  0
   -6.5680    0.7119   -0.2629 H   0  0  0  0  0  0  0  0  0  0  0  0
   -5.8052    2.2982    0.0852 H   0  0  0  0  0  0  0  0  0  0  0  0
   -7.0294    1.6302    1.1874 H   0  0  0  0  0  0  0  0  0  0  0  0
    7.4971   -0.6427   -1.1845 H   0  0  0  0  0  0  0  0  0  0  0  0
    8.1830   -1.8525   -0.1608 H   0  0  0  0  0  0  0  0  0  0  0  0
    7.3722   -2.4459    1.7733 H   0  0  0  0  0  0  0  0  0  0  0  0
    5.9471   -1.7551    2.4766 H   0  0  0  0  0  0  0  0  0  0  0  0
  1 11  1  0  0  0  0
  1 14  1  0  0  0  0
  2 17  1  0  0  0  0
  2 21  1  0  0  0  0
  3 18  1  0  0  0  0
  3 22  1  0  0  0  0
  4 19  1  0  0  0  0
  4 33  1  0  0  0  0
  5 14  2  0  0  0  0
  6 12  1  0  0  0  0
  6 20  2  0  0  0  0
  7 20  1  0  0  0  0
  7 40  1  0  0  0  0
  7 41  1  0  0  0  0
  8 20  1  0  0  0  0
  8 42  1  0  0  0  0
  8 43  1  0  0  0  0
  9 10  1  0  0  0  0
  9 11  1  0  0  0  0
  9 23  1  0  0  0  0
  9 24  1  0  0  0  0
 10 12  1  0  0  0  0
 10 25  1  0  0  0  0
 10 26  1  0  0  0  0
 11 27  1  0  0  0  0
 11 28  1  0  0  0  0
 12 29  1  0  0  0  0
 12 30  1  0  0  0  0
 13 14  1  0  0  0  0
 13 15  2  0  0  0  0
 13 16  1  0  0  0  0
 15 18  1  0  0  0  0
 15 31  1  0  0  0  0
 16 17  2  0  0  0  0
 16 32  1  0  0  0  0
 17 19  1  0  0  0  0
 18 19  2  0  0  0  0
 21 34  1  0  0  0  0
 21 35  1  0  0  0  0
 21 36  1  0  0  0  0
 22 37  1  0  0  0  0
 22 38  1  0  0  0  0
 22 39  1  0  0  0  0
M  END
> <PUBCHEM_COMPOUND_CID>
161464

> <PUBCHEM_CONFORMER_RMSD>
1

> <PUBCHEM_CONFORMER_DIVERSEORDER>
1
428
18
9
408
20
360
651
54
154
40
512
123
309
2
178
412
32
231
348
222
695
162
507
8
661
166
394
4
340
100
150
15
193
42
254
167
7
187
34
277
136
727
149
66
5
11
97
139
102
10
267
41
678
59
660
623
53
47
29
33
634
345
380
109
263
23
174
568
257
130
466
626
93
206
476
68
334
190
172
141
151
264
463
44
500
36
610
27
143
317
283
658
344

> <PUBCHEM_MMFF94_PARTIAL_CHARGES>
27
1 -0.43
11 0.28
12 0.25
13 0.09
14 0.63
15 -0.15
16 -0.15
17 0.08
18 0.08
19 0.08
2 -0.36
20 0.55
21 0.28
22 0.28
3 -0.36
31 0.15
32 0.15
33 0.45
4 -0.53
40 0.4
41 0.4
42 0.4
43 0.4
5 -0.57
6 -0.7
7 -0.85
8 -0.85

> <PUBCHEM_EFFECTIVE_ROTOR_COUNT>
9

> <PUBCHEM_PHARMACOPHORE_FEATURES>
8
1 2 acceptor
1 3 acceptor
1 4 donor
1 5 acceptor
1 7 donor
1 8 donor
4 6 7 8 20 cation
6 13 15 16 17 18 19 rings

> <PUBCHEM_HEAVY_ATOM_COUNT>
22

> <PUBCHEM_ATOM_DEF_STEREO_COUNT>
0

> <PUBCHEM_ATOM_UDEF_STEREO_COUNT>
0

> <PUBCHEM_BOND_DEF_STEREO_COUNT>
0

> <PUBCHEM_BOND_UDEF_STEREO_COUNT>
0

> <PUBCHEM_ISOTOPIC_ATOM_COUNT>
0

> <PUBCHEM_COMPONENT_COUNT>
1

> <PUBCHEM_CACTVS_TAUTO_COUNT>
6

> <PUBCHEM_CONFORMER_ID>
000276B800000001

> <PUBCHEM_MMFF94_ENERGY>
76.2385

> <PUBCHEM_FEATURE_SELFOVERLAP>
40.65

> <PUBCHEM_SHAPE_FINGERPRINT>
10319926 262 17967536761645484608
10591671 39 10447920681224807312
10622 236 18046357326899117118
11036077 4 18260543412150398731
11524674 6 17458063776422555263
12107183 9 18409722972063994289
12174731 88 18056215785094486466
12236239 1 18343578512609893900
12523318 42 15213592130532531237
12616971 3 18201999902634066388
13551218 46 18341048605500833546
14347332 77 18131074870234887252
14420673 8 18409443691567229570
14866123 147 18336542704088120643
15250474 111 18339084779213401590
15326921 28 17974569401100014425
15348495 7 17749678402789840368
15537594 2 18131356332041638882
16110190 28 18335702715652730212
17780758 139 18186803573590219776
17857418 61 18412548708799788948
1813 80 17988914548823197916
19141452 34 18336541638471624605
20554085 129 17313669368876509299
21049683 271 8430302521388832011
21150785 3 14405174072381580820
21403212 168 18335133242039826617
220451 1 18341887460180396196
23522609 53 18126251278275113612
23559900 14 18115311063973149304
3004659 81 18337659859488645244
312425 54 18260555502704753632
34797466 226 13901894614888850790
351380 3 18202567276530162608
4073 2 18054504713062480360
4409770 3 18270971266518308285
5104073 3 18042119869346728320
559249 180 18410573977089017823
9953998 17 18114191830714548720

> <PUBCHEM_SHAPE_MULTIPOLES>
408.46
17.74
3.04
1
28.82
2.01
-0.2
5.68
-5.32
-1.85
0.45
0.43
0.27
-2.37

> <PUBCHEM_SHAPE_SELFOVERLAP>
832.049

> <PUBCHEM_SHAPE_VOLUME>
236.5

> <PUBCHEM_COORDINATE_TYPE>
2
5
10

$$$$

