60937
  -OEChem-07051212542D

 26 26  0     0  0  0  0  0  0999 V2000
    2.8660   -3.4050    0.0000 Cl  0  0  0  0  0  0  0  0  0  0  0  0
    2.8660    0.5950    0.0000 S   0  0  0  0  0  0  0  0  0  0  0  0
    3.7320    2.0950    0.0000 P   0  0  0  0  0  0  0  0  0  0  0  0
    4.5981    0.5950    0.0000 P   0  0  0  0  0  0  0  0  0  0  0  0
    5.4641    0.0950    0.0000 O   0  0  0  0  0  0  0  0  0  0  0  0
    3.7320    3.0950    0.0000 O   0  0  0  0  0  0  0  0  0  0  0  0
    4.7320    2.0950    0.0000 O   0  0  0  0  0  0  0  0  0  0  0  0
    5.0981    1.4610    0.0000 O   0  0  0  0  0  0  0  0  0  0  0  0
    2.7320    2.0950    0.0000 O   0  0  0  0  0  0  0  0  0  0  0  0
    4.0981   -0.2710    0.0000 O   0  0  0  0  0  0  0  0  0  0  0  0
    3.7320    1.0950    0.0000 C   0  0  0  0  0  0  0  0  0  0  0  0
    2.8660   -0.4050    0.0000 C   0  0  0  0  0  0  0  0  0  0  0  0
    2.0000   -0.9050    0.0000 C   0  0  0  0  0  0  0  0  0  0  0  0
    3.7320   -0.9050    0.0000 C   0  0  0  0  0  0  0  0  0  0  0  0
    2.0000   -1.9050    0.0000 C   0  0  0  0  0  0  0  0  0  0  0  0
    3.7320   -1.9050    0.0000 C   0  0  0  0  0  0  0  0  0  0  0  0
    2.8660   -2.4050    0.0000 C   0  0  0  0  0  0  0  0  0  0  0  0
    3.7320    0.4750    0.0000 H   0  0  0  0  0  0  0  0  0  0  0  0
    1.4631   -0.5950    0.0000 H   0  0  0  0  0  0  0  0  0  0  0  0
    4.2690   -0.5950    0.0000 H   0  0  0  0  0  0  0  0  0  0  0  0
    5.7181    1.4610    0.0000 H   0  0  0  0  0  0  0  0  0  0  0  0
    5.0420    2.6319    0.0000 H   0  0  0  0  0  0  0  0  0  0  0  0
    3.1951    3.4050    0.0000 H   0  0  0  0  0  0  0  0  0  0  0  0
    6.0010    0.4050    0.0000 H   0  0  0  0  0  0  0  0  0  0  0  0
    1.4631   -2.2150    0.0000 H   0  0  0  0  0  0  0  0  0  0  0  0
    4.2690   -2.2150    0.0000 H   0  0  0  0  0  0  0  0  0  0  0  0
  1 17  1  0  0  0  0
  2 11  1  0  0  0  0
  2 12  1  0  0  0  0
  3  6  1  0  0  0  0
  3  7  1  0  0  0  0
  3  9  2  0  0  0  0
  3 11  1  0  0  0  0
  4  5  1  0  0  0  0
  4  8  1  0  0  0  0
  4 10  2  0  0  0  0
  4 11  1  0  0  0  0
  5 24  1  0  0  0  0
  6 23  1  0  0  0  0
  7 22  1  0  0  0  0
  8 21  1  0  0  0  0
 11 18  1  0  0  0  0
 12 13  2  0  0  0  0
 12 14  1  0  0  0  0
 13 15  1  0  0  0  0
 13 19  1  0  0  0  0
 14 16  2  0  0  0  0
 14 20  1  0  0  0  0
 15 17  2  0  0  0  0
 15 25  1  0  0  0  0
 16 17  1  0  0  0  0
 16 26  1  0  0  0  0
M  END
> <PUBCHEM_COMPOUND_CID>
60937

> <PUBCHEM_COMPOUND_CANONICALIZED>
1

> <PUBCHEM_CACTVS_COMPLEXITY>
324

> <PUBCHEM_CACTVS_HBOND_ACCEPTOR>
7

> <PUBCHEM_CACTVS_HBOND_DONOR>
4

> <PUBCHEM_CACTVS_ROTATABLE_BOND>
4

> <PUBCHEM_CACTVS_SUBSKEYS>
AAADccBgOANEAAAAAAAAAAAAAAAAAAAAAAAwAAAAAAAAAAABAAAAGA4ACCAACAKAUCCwAYAAABiAQCBCAIACAAAgDRAIiBgAAogIICKhExCAIAAggAAIiAcAAAAAAAIAAAAAAAAABAAAAAAAAAAAAAAAAA==

> <PUBCHEM_IUPAC_OPENEYE_NAME>
[(4-chlorophenyl)sulfanyl-phosphono-methyl]phosphonic acid

> <PUBCHEM_IUPAC_CAS_NAME>
[[(4-chlorophenyl)thio]-phosphonomethyl]phosphonic acid

> <PUBCHEM_IUPAC_NAME>
[(4-chlorophenyl)sulfanyl-phosphonomethyl]phosphonic acid

> <PUBCHEM_IUPAC_SYSTEMATIC_NAME>
[(4-chlorophenyl)sulfanyl-phosphono-methyl]phosphonic acid

> <PUBCHEM_IUPAC_TRADITIONAL_NAME>
[[(4-chlorophenyl)thio]-phosphono-methyl]phosphonic acid

> <PUBCHEM_IUPAC_INCHI>
InChI=1S/C7H9ClO6P2S/c8-5-1-3-6(4-2-5)17-7(15(9,10)11)16(12,13)14/h1-4,7H,(H2,9,10,11)(H2,12,13,14)

> <PUBCHEM_IUPAC_INCHIKEY>
DKJJVAGXPKPDRL-UHFFFAOYSA-N

> <PUBCHEM_XLOGP3_AA>
-0.3

> <PUBCHEM_EXACT_MASS>
317.92836

> <PUBCHEM_MOLECULAR_FORMULA>
C7H9ClO6P2S

> <PUBCHEM_MOLECULAR_WEIGHT>
318.608284

> <PUBCHEM_OPENEYE_CAN_SMILES>
C1=CC(=CC=C1SC(P(=O)(O)O)P(=O)(O)O)Cl

> <PUBCHEM_OPENEYE_ISO_SMILES>
C1=CC(=CC=C1SC(P(=O)(O)O)P(=O)(O)O)Cl

> <PUBCHEM_CACTVS_TPSA>
140

> <PUBCHEM_MONOISOTOPIC_WEIGHT>
317.92836

> <PUBCHEM_TOTAL_CHARGE>
0

> <PUBCHEM_HEAVY_ATOM_COUNT>
17

> <PUBCHEM_ATOM_DEF_STEREO_COUNT>
0

> <PUBCHEM_ATOM_UDEF_STEREO_COUNT>
0

> <PUBCHEM_BOND_DEF_STEREO_COUNT>
0

> <PUBCHEM_BOND_UDEF_STEREO_COUNT>
0

> <PUBCHEM_ISOTOPIC_ATOM_COUNT>
0

> <PUBCHEM_COMPONENT_COUNT>
1

> <PUBCHEM_CACTVS_TAUTO_COUNT>
1

> <PUBCHEM_COORDINATE_TYPE>
1
5
255

> <PUBCHEM_BONDANNOTATIONS>
12  13  8
12  14  8
13  15  8
14  16  8
15  17  8
16  17  8

$$$$

