17396319
  -OEChem-06241222552D

 39 41  0     0  0  0  0  0  0999 V2000
    9.7942    0.5600    0.0000 F   0  0  0  0  0  0  0  0  0  0  0  0
    2.0000   -0.9400    0.0000 F   0  0  0  0  0  0  0  0  0  0  0  0
    8.0622    0.5600    0.0000 O   0  0  0  0  0  0  0  0  0  0  0  0
    7.1962    2.0600    0.0000 O   0  0  0  0  0  0  0  0  0  0  0  0
    5.4641   -2.9400    0.0000 N   0  0  0  0  0  0  0  0  0  0  0  0
    6.3301   -1.4400    0.0000 N   0  0  0  0  0  0  0  0  0  0  0  0
    8.0622   -1.4400    0.0000 N   0  0  0  0  0  0  0  0  0  0  0  0
    7.1962   -2.9400    0.0000 N   0  0  0  0  0  0  0  0  0  0  0  0
    8.9282   -2.9400    0.0000 N   0  0  0  0  0  0  0  0  0  0  0  0
    4.5981   -2.4400    0.0000 C   0  0  0  0  0  0  0  0  0  0  0  0
    7.1962    0.0600    0.0000 C   0  0  0  0  0  0  0  0  0  0  0  0
    7.1962   -0.9400    0.0000 C   0  0  0  0  0  0  0  0  0  0  0  0
    6.3301   -2.4400    0.0000 C   0  0  0  0  0  0  0  0  0  0  0  0
    8.9282    2.0600    0.0000 C   0  0  0  0  0  0  0  0  0  0  0  0
    4.5981   -1.4400    0.0000 C   0  0  0  0  0  0  0  0  0  0  0  0
    3.7320   -2.9400    0.0000 C   0  0  0  0  0  0  0  0  0  0  0  0
    8.0622    1.5600    0.0000 C   0  0  0  0  0  0  0  0  0  0  0  0
    3.7320   -0.9400    0.0000 C   0  0  0  0  0  0  0  0  0  0  0  0
    2.8660   -2.4400    0.0000 C   0  0  0  0  0  0  0  0  0  0  0  0
    9.7942    1.5600    0.0000 C   0  0  0  0  0  0  0  0  0  0  0  0
    8.9282    3.0600    0.0000 C   0  0  0  0  0  0  0  0  0  0  0  0
    8.0622   -2.4400    0.0000 C   0  0  0  0  0  0  0  0  0  0  0  0
    2.8660   -1.4400    0.0000 C   0  0  0  0  0  0  0  0  0  0  0  0
   10.6603    2.0600    0.0000 C   0  0  0  0  0  0  0  0  0  0  0  0
    9.7942    3.5600    0.0000 C   0  0  0  0  0  0  0  0  0  0  0  0
   10.6603    3.0600    0.0000 C   0  0  0  0  0  0  0  0  0  0  0  0
    6.9841    0.6426    0.0000 H   0  0  0  0  0  0  0  0  0  0  0  0
    6.5856   -0.0477    0.0000 H   0  0  0  0  0  0  0  0  0  0  0  0
    5.4641   -3.5600    0.0000 H   0  0  0  0  0  0  0  0  0  0  0  0
    5.1350   -1.1300    0.0000 H   0  0  0  0  0  0  0  0  0  0  0  0
    3.7320   -3.5600    0.0000 H   0  0  0  0  0  0  0  0  0  0  0  0
    3.7320   -0.3200    0.0000 H   0  0  0  0  0  0  0  0  0  0  0  0
    2.3291   -2.7500    0.0000 H   0  0  0  0  0  0  0  0  0  0  0  0
    8.3913    3.3700    0.0000 H   0  0  0  0  0  0  0  0  0  0  0  0
   11.1972    1.7500    0.0000 H   0  0  0  0  0  0  0  0  0  0  0  0
    9.7942    4.1800    0.0000 H   0  0  0  0  0  0  0  0  0  0  0  0
   11.1972    3.3700    0.0000 H   0  0  0  0  0  0  0  0  0  0  0  0
    9.4651   -2.6300    0.0000 H   0  0  0  0  0  0  0  0  0  0  0  0
    8.9282   -3.5600    0.0000 H   0  0  0  0  0  0  0  0  0  0  0  0
  1 20  1  0  0  0  0
  2 23  1  0  0  0  0
  3 11  1  0  0  0  0
  3 17  1  0  0  0  0
  4 17  2  0  0  0  0
  5 10  1  0  0  0  0
  5 13  1  0  0  0  0
  5 29  1  0  0  0  0
  6 12  1  0  0  0  0
  6 13  2  0  0  0  0
  7 12  2  0  0  0  0
  7 22  1  0  0  0  0
  8 13  1  0  0  0  0
  8 22  2  0  0  0  0
  9 22  1  0  0  0  0
  9 38  1  0  0  0  0
  9 39  1  0  0  0  0
 10 15  2  0  0  0  0
 10 16  1  0  0  0  0
 11 12  1  0  0  0  0
 11 27  1  0  0  0  0
 11 28  1  0  0  0  0
 14 17  1  0  0  0  0
 14 20  1  0  0  0  0
 14 21  2  0  0  0  0
 15 18  1  0  0  0  0
 15 30  1  0  0  0  0
 16 19  2  0  0  0  0
 16 31  1  0  0  0  0
 18 23  2  0  0  0  0
 18 32  1  0  0  0  0
 19 23  1  0  0  0  0
 19 33  1  0  0  0  0
 20 24  2  0  0  0  0
 21 25  1  0  0  0  0
 21 34  1  0  0  0  0
 24 26  1  0  0  0  0
 24 35  1  0  0  0  0
 25 26  2  0  0  0  0
 25 36  1  0  0  0  0
 26 37  1  0  0  0  0
M  END
> <PUBCHEM_COMPOUND_CID>
17396319

> <PUBCHEM_COMPOUND_CANONICALIZED>
1

> <PUBCHEM_CACTVS_COMPLEXITY>
464

> <PUBCHEM_CACTVS_HBOND_ACCEPTOR>
9

> <PUBCHEM_CACTVS_HBOND_DONOR>
2

> <PUBCHEM_CACTVS_ROTATABLE_BOND>
6

> <PUBCHEM_CACTVS_SUBSKEYS>
AAADccB7sYAAAAAAAAAAAAAAAAAAAAAAAAA8YIAAAAAAAAAB0AAAHwAQAAAADAihmwox2IbIFACoAibybASCgAklAqAJiAEQbMiKLjLAvZmHMQhs0ANY6aeYyCCOAAAAAAAAAAAAAAAAAAAAAAAAAAAAAA==

> <PUBCHEM_IUPAC_OPENEYE_NAME>
[4-amino-6-(4-fluoroanilino)-1,3,5-triazin-2-yl]methyl 2-fluorobenzoate

> <PUBCHEM_IUPAC_CAS_NAME>
2-fluorobenzoic acid [4-amino-6-(4-fluoroanilino)-1,3,5-triazin-2-yl]methyl ester

> <PUBCHEM_IUPAC_NAME>
[4-amino-6-(4-fluoroanilino)-1,3,5-triazin-2-yl]methyl 2-fluorobenzoate

> <PUBCHEM_IUPAC_SYSTEMATIC_NAME>
[4-azanyl-6-[(4-fluorophenyl)amino]-1,3,5-triazin-2-yl]methyl 2-fluoranylbenzoate

> <PUBCHEM_IUPAC_TRADITIONAL_NAME>
2-fluorobenzoic acid [4-amino-6-(4-fluoroanilino)-s-triazin-2-yl]methyl ester

> <PUBCHEM_IUPAC_INCHI>
InChI=1S/C17H13F2N5O2/c18-10-5-7-11(8-6-10)21-17-23-14(22-16(20)24-17)9-26-15(25)12-3-1-2-4-13(12)19/h1-8H,9H2,(H3,20,21,22,23,24)

> <PUBCHEM_IUPAC_INCHIKEY>
UEEAEJZGIUEZPU-UHFFFAOYSA-N

> <PUBCHEM_XLOGP3_AA>
3.1

> <PUBCHEM_EXACT_MASS>
357.103731

> <PUBCHEM_MOLECULAR_FORMULA>
C17H13F2N5O2

> <PUBCHEM_MOLECULAR_WEIGHT>
357.314226

> <PUBCHEM_OPENEYE_CAN_SMILES>
C1=CC=C(C(=C1)C(=O)OCC2=NC(=NC(=N2)NC3=CC=C(C=C3)F)N)F

> <PUBCHEM_OPENEYE_ISO_SMILES>
C1=CC=C(C(=C1)C(=O)OCC2=NC(=NC(=N2)NC3=CC=C(C=C3)F)N)F

> <PUBCHEM_CACTVS_TPSA>
103

> <PUBCHEM_MONOISOTOPIC_WEIGHT>
357.103731

> <PUBCHEM_TOTAL_CHARGE>
0

> <PUBCHEM_HEAVY_ATOM_COUNT>
26

> <PUBCHEM_ATOM_DEF_STEREO_COUNT>
0

> <PUBCHEM_ATOM_UDEF_STEREO_COUNT>
0

> <PUBCHEM_BOND_DEF_STEREO_COUNT>
0

> <PUBCHEM_BOND_UDEF_STEREO_COUNT>
0

> <PUBCHEM_ISOTOPIC_ATOM_COUNT>
0

> <PUBCHEM_COMPONENT_COUNT>
1

> <PUBCHEM_CACTVS_TAUTO_COUNT>
9

> <PUBCHEM_COORDINATE_TYPE>
1
5
255

> <PUBCHEM_BONDANNOTATIONS>
10  15  8
10  16  8
14  20  8
14  21  8
15  18  8
16  19  8
18  23  8
19  23  8
20  24  8
21  25  8
24  26  8
25  26  8
6  12  8
6  13  8
7  12  8
7  22  8
8  13  8
8  22  8

$$$$

