2541
  -OEChem-07051212533D

 53 57  0     0  0  0  0  0  0999 V2000
    2.9731   -2.8921   -0.2881 O   0  0  0  0  0  0  0  0  0  0  0  0
    0.8797    2.3343    1.5278 O   0  0  0  0  0  0  0  0  0  0  0  0
    2.6383    2.1286    2.9530 O   0  0  0  0  0  0  0  0  0  0  0  0
    2.7292   -0.6696    0.4891 N   0  0  0  0  0  0  0  0  0  0  0  0
    3.9288   -1.0387   -1.3452 N   0  0  0  0  0  0  0  0  0  0  0  0
   -3.2024    2.4081   -0.2801 N   0  0  0  0  0  0  0  0  0  0  0  0
   -2.7927    1.2083   -2.1564 N   0  0  0  0  0  0  0  0  0  0  0  0
   -2.4168    3.0338   -1.1679 N   0  0  0  0  0  0  0  0  0  0  0  0
   -2.1473    2.3600   -2.2946 N   0  0  0  0  0  0  0  0  0  0  0  0
    1.9091   -0.9648    1.6426 C   0  0  0  0  0  0  0  0  0  0  0  0
    3.1638    0.5655    0.0814 C   0  0  0  0  0  0  0  0  0  0  0  0
    0.4445   -0.9295    1.2985 C   0  0  0  0  0  0  0  0  0  0  0  0
    3.9103    0.3083   -1.0653 C   0  0  0  0  0  0  0  0  0  0  0  0
    3.2116   -1.5946   -0.3945 C   0  0  0  0  0  0  0  0  0  0  0  0
    2.9737    1.8464    0.6010 C   0  0  0  0  0  0  0  0  0  0  0  0
   -0.0010   -1.5496    0.1392 C   0  0  0  0  0  0  0  0  0  0  0  0
   -0.4415   -0.2771    2.1450 C   0  0  0  0  0  0  0  0  0  0  0  0
   -2.2575   -0.8641    0.6636 C   0  0  0  0  0  0  0  0  0  0  0  0
    4.5102    1.3808   -1.7466 C   0  0  0  0  0  0  0  0  0  0  0  0
   -1.3585   -1.5168   -0.1799 C   0  0  0  0  0  0  0  0  0  0  0  0
   -1.7990   -0.2443    1.8261 C   0  0  0  0  0  0  0  0  0  0  0  0
    3.5777    2.9020   -0.0900 C   0  0  0  0  0  0  0  0  0  0  0  0
   -3.6657   -0.8308    0.3331 C   0  0  0  0  0  0  0  0  0  0  0  0
    4.3328    2.6754   -1.2430 C   0  0  0  0  0  0  0  0  0  0  0  0
   -4.2168    0.1947   -0.4394 C   0  0  0  0  0  0  0  0  0  0  0  0
    2.1956    2.1063    1.7978 C   0  0  0  0  0  0  0  0  0  0  0  0
    3.5201   -3.7877   -1.2620 C   0  0  0  0  0  0  0  0  0  0  0  0
   -4.4857   -1.8584    0.8054 C   0  0  0  0  0  0  0  0  0  0  0  0
   -5.5795    0.1923   -0.7374 C   0  0  0  0  0  0  0  0  0  0  0  0
   -5.8484   -1.8607    0.5073 C   0  0  0  0  0  0  0  0  0  0  0  0
   -3.4085    1.2735   -0.9462 C   0  0  0  0  0  0  0  0  0  0  0  0
   -6.3953   -0.8354   -0.2641 C   0  0  0  0  0  0  0  0  0  0  0  0
    3.1179   -5.2041   -0.9101 C   0  0  0  0  0  0  0  0  0  0  0  0
    2.1792   -0.3009    2.4644 H   0  0  0  0  0  0  0  0  0  0  0  0
    2.1637   -1.9746    1.9887 H   0  0  0  0  0  0  0  0  0  0  0  0
    0.6482   -2.0852   -0.5396 H   0  0  0  0  0  0  0  0  0  0  0  0
   -0.0990    0.1965    3.0606 H   0  0  0  0  0  0  0  0  0  0  0  0
    5.0987    1.2153   -2.6434 H   0  0  0  0  0  0  0  0  0  0  0  0
   -1.7004   -2.0079   -1.0880 H   0  0  0  0  0  0  0  0  0  0  0  0
   -2.4866    0.2665    2.4961 H   0  0  0  0  0  0  0  0  0  0  0  0
    3.4636    3.9227    0.2697 H   0  0  0  0  0  0  0  0  0  0  0  0
    4.7903    3.5161   -1.7583 H   0  0  0  0  0  0  0  0  0  0  0  0
    3.1349   -3.5281   -2.2548 H   0  0  0  0  0  0  0  0  0  0  0  0
    4.6129   -3.7030   -1.2661 H   0  0  0  0  0  0  0  0  0  0  0  0
   -4.0786   -2.6672    1.4083 H   0  0  0  0  0  0  0  0  0  0  0  0
   -6.0233    0.9833   -1.3378 H   0  0  0  0  0  0  0  0  0  0  0  0
   -6.4836   -2.6608    0.8757 H   0  0  0  0  0  0  0  0  0  0  0  0
   -7.4563   -0.8374   -0.4962 H   0  0  0  0  0  0  0  0  0  0  0  0
    3.5192   -5.9166   -1.6362 H   0  0  0  0  0  0  0  0  0  0  0  0
    3.4826   -5.4717    0.0870 H   0  0  0  0  0  0  0  0  0  0  0  0
    2.0273   -5.2998   -0.8859 H   0  0  0  0  0  0  0  0  0  0  0  0
    0.3695    2.5301    2.3425 H   0  0  0  0  0  0  0  0  0  0  0  0
   -2.0467    3.9626   -0.9965 H   0  0  0  0  0  0  0  0  0  0  0  0
  1 14  1  0  0  0  0
  1 27  1  0  0  0  0
  2 26  1  0  0  0  0
  2 52  1  0  0  0  0
  3 26  2  0  0  0  0
  4 10  1  0  0  0  0
  4 11  1  0  0  0  0
  4 14  1  0  0  0  0
  5 13  1  0  0  0  0
  5 14  2  0  0  0  0
  6  8  1  0  0  0  0
  6 31  2  0  0  0  0
  7  9  2  0  0  0  0
  7 31  1  0  0  0  0
  8  9  1  0  0  0  0
  8 53  1  0  0  0  0
 10 12  1  0  0  0  0
 10 34  1  0  0  0  0
 10 35  1  0  0  0  0
 11 13  1  0  0  0  0
 11 15  2  0  0  0  0
 12 16  2  0  0  0  0
 12 17  1  0  0  0  0
 13 19  2  0  0  0  0
 15 22  1  0  0  0  0
 15 26  1  0  0  0  0
 16 20  1  0  0  0  0
 16 36  1  0  0  0  0
 17 21  2  0  0  0  0
 17 37  1  0  0  0  0
 18 20  2  0  0  0  0
 18 21  1  0  0  0  0
 18 23  1  0  0  0  0
 19 24  1  0  0  0  0
 19 38  1  0  0  0  0
 20 39  1  0  0  0  0
 21 40  1  0  0  0  0
 22 24  2  0  0  0  0
 22 41  1  0  0  0  0
 23 25  1  0  0  0  0
 23 28  2  0  0  0  0
 24 42  1  0  0  0  0
 25 29  2  0  0  0  0
 25 31  1  0  0  0  0
 27 33  1  0  0  0  0
 27 43  1  0  0  0  0
 27 44  1  0  0  0  0
 28 30  1  0  0  0  0
 28 45  1  0  0  0  0
 29 32  1  0  0  0  0
 29 46  1  0  0  0  0
 30 32  2  0  0  0  0
 30 47  1  0  0  0  0
 32 48  1  0  0  0  0
 33 49  1  0  0  0  0
 33 50  1  0  0  0  0
 33 51  1  0  0  0  0
M  END
> <PUBCHEM_COMPOUND_CID>
2541

> <PUBCHEM_CONFORMER_RMSD>
1

> <PUBCHEM_CONFORMER_DIVERSEORDER>
1
13
4
9
15
10
8
5
7
3
2
14
6
12
11

> <PUBCHEM_MMFF94_PARTIAL_CHARGES>
43
1 -0.34
10 0.4
11 -0.15
12 -0.14
13 0.23
14 0.25
15 0.09
16 -0.15
17 -0.15
19 -0.15
2 -0.65
20 -0.15
21 -0.15
22 -0.15
24 -0.15
25 0.05
26 0.63
27 0.28
28 -0.15
29 -0.15
3 -0.57
30 -0.15
31 0.46
32 -0.15
36 0.15
37 0.15
38 0.15
39 0.15
4 0.05
40 0.15
41 0.15
42 0.15
45 0.15
46 0.15
47 0.15
48 0.15
5 -0.57
52 0.5
53 0.27
6 -0.71
7 -0.23
8 0.57
9 -0.42

> <PUBCHEM_EFFECTIVE_ROTOR_COUNT>
7

> <PUBCHEM_PHARMACOPHORE_FEATURES>
10
1 2 acceptor
1 3 acceptor
3 2 3 26 anion
3 4 5 14 cation
3 6 7 31 cation
5 4 5 11 13 14 rings
5 6 7 8 9 31 rings
6 11 13 15 19 22 24 rings
6 12 16 17 18 20 21 rings
6 23 25 28 29 30 32 rings

> <PUBCHEM_HEAVY_ATOM_COUNT>
33

> <PUBCHEM_ATOM_DEF_STEREO_COUNT>
0

> <PUBCHEM_ATOM_UDEF_STEREO_COUNT>
0

> <PUBCHEM_BOND_DEF_STEREO_COUNT>
0

> <PUBCHEM_BOND_UDEF_STEREO_COUNT>
0

> <PUBCHEM_ISOTOPIC_ATOM_COUNT>
0

> <PUBCHEM_COMPONENT_COUNT>
1

> <PUBCHEM_CACTVS_TAUTO_COUNT>
2

> <PUBCHEM_CONFORMER_ID>
000009ED00000001

> <PUBCHEM_MMFF94_ENERGY>
95.1964

> <PUBCHEM_FEATURE_SELFOVERLAP>
50.908

> <PUBCHEM_SHAPE_FINGERPRINT>
10498660 4 17846505815894744829
10670039 82 17846779598579734484
10764073 3 17475002973668638824
10928967 22 17894919520320430013
11007060 377 11452454261495995886
11505856 67 9001070027437044274
11595378 159 16701755881694804189
11720765 8 18120100726303227156
12596602 18 15697719194954819121
12788726 201 17632302229142140197
13402501 40 18129382596542175644
13636023 20 18127691746034273434
14251757 17 18341330106115576772
14790565 3 17769388450478795477
15324884 4 17620447149021347754
15961568 22 17845935121793562093
17909252 39 18334577970754513016
1813 80 15574432111610049835
19311894 1 17619631723024881637
221357 26 18410571790549971461
23559900 14 18268155434276634515
34797466 226 18272929410917266331
44802255 64 17480826786419069700
46194498 28 18341890809864516550
5281201 14 18338796831061605671

> <PUBCHEM_SHAPE_MULTIPOLES>
631.63
12.25
4.43
2.07
12.39
3.61
0.6
0.8
-4.04
-5.77
-1.72
-0.91
-1.12
2.48

> <PUBCHEM_SHAPE_SELFOVERLAP>
1413.021

> <PUBCHEM_SHAPE_VOLUME>
337.3

> <PUBCHEM_COORDINATE_TYPE>
2
5
10

$$$$

