20056433
  -OEChem-07051213122D

 44 44  0     1  0  0  0  0  0999 V2000
    9.6517   -1.3157    0.0000 O   0  0  0  0  0  0  0  0  0  0  0  0
    4.4374   -1.6759    0.0000 O   0  0  0  0  0  0  0  0  0  0  0  0
    5.5963   -2.9630    0.0000 O   0  0  0  0  0  0  0  0  0  0  0  0
    7.0826   -1.6248    0.0000 C   0  0  2  0  0  0  0  0  0  0  0  0
    7.8916   -1.0370    0.0000 C   0  0  1  0  0  0  0  0  0  0  0  0
    7.3916   -2.5758    0.0000 C   0  0  0  0  0  0  0  0  0  0  0  0
    8.3916   -2.5758    0.0000 C   0  0  0  0  0  0  0  0  0  0  0  0
    7.8916   -0.0370    0.0000 C   0  0  0  0  0  0  0  0  0  0  0  0
    8.7006   -1.6248    0.0000 C   0  0  0  0  0  0  0  0  0  0  0  0
    6.1316   -1.3157    0.0000 C   0  0  0  0  0  0  0  0  0  0  0  0
    8.7576    0.4630    0.0000 C   0  0  0  0  0  0  0  0  0  0  0  0
    8.7576    1.4630    0.0000 C   0  0  0  0  0  0  0  0  0  0  0  0
    5.3884   -1.9849    0.0000 C   0  0  0  0  0  0  0  0  0  0  0  0
    9.6237    1.9630    0.0000 C   0  0  0  0  0  0  0  0  0  0  0  0
    9.6237    2.9630    0.0000 C   0  0  0  0  0  0  0  0  0  0  0  0
    3.6942   -2.3450    0.0000 C   0  0  0  0  0  0  0  0  0  0  0  0
    2.7431   -2.0360    0.0000 C   0  0  0  0  0  0  0  0  0  0  0  0
    2.0000   -2.7051    0.0000 C   0  0  0  0  0  0  0  0  0  0  0  0
    6.6442   -2.0632    0.0000 H   0  0  0  0  0  0  0  0  0  0  0  0
    8.4440   -0.7555    0.0000 H   0  0  0  0  0  0  0  0  0  0  0  0
    6.7852   -2.7047    0.0000 H   0  0  0  0  0  0  0  0  0  0  0  0
    7.4564   -3.1924    0.0000 H   0  0  0  0  0  0  0  0  0  0  0  0
    7.6796    0.5456    0.0000 H   0  0  0  0  0  0  0  0  0  0  0  0
    7.2810   -0.1446    0.0000 H   0  0  0  0  0  0  0  0  0  0  0  0
    8.3268   -3.1924    0.0000 H   0  0  0  0  0  0  0  0  0  0  0  0
    8.9981   -2.7047    0.0000 H   0  0  0  0  0  0  0  0  0  0  0  0
    6.4226   -0.7683    0.0000 H   0  0  0  0  0  0  0  0  0  0  0  0
    5.6430   -0.9340    0.0000 H   0  0  0  0  0  0  0  0  0  0  0  0
    8.9697   -0.1196    0.0000 H   0  0  0  0  0  0  0  0  0  0  0  0
    9.3682    0.5707    0.0000 H   0  0  0  0  0  0  0  0  0  0  0  0
    8.5456    2.0456    0.0000 H   0  0  0  0  0  0  0  0  0  0  0  0
    8.1471    1.3554    0.0000 H   0  0  0  0  0  0  0  0  0  0  0  0
    9.8357    1.3804    0.0000 H   0  0  0  0  0  0  0  0  0  0  0  0
   10.2343    2.0707    0.0000 H   0  0  0  0  0  0  0  0  0  0  0  0
   10.2437    2.9630    0.0000 H   0  0  0  0  0  0  0  0  0  0  0  0
    9.6237    3.5830    0.0000 H   0  0  0  0  0  0  0  0  0  0  0  0
    9.0037    2.9630    0.0000 H   0  0  0  0  0  0  0  0  0  0  0  0
    3.4031   -2.8924    0.0000 H   0  0  0  0  0  0  0  0  0  0  0  0
    4.1828   -2.7267    0.0000 H   0  0  0  0  0  0  0  0  0  0  0  0
    3.0342   -1.4885    0.0000 H   0  0  0  0  0  0  0  0  0  0  0  0
    2.2546   -1.6543    0.0000 H   0  0  0  0  0  0  0  0  0  0  0  0
    1.5851   -2.2444    0.0000 H   0  0  0  0  0  0  0  0  0  0  0  0
    1.5392   -3.1200    0.0000 H   0  0  0  0  0  0  0  0  0  0  0  0
    2.4149   -3.1658    0.0000 H   0  0  0  0  0  0  0  0  0  0  0  0
  1  9  2  0  0  0  0
  2 13  1  0  0  0  0
  2 16  1  0  0  0  0
  3 13  2  0  0  0  0
  4  5  1  0  0  0  0
  4  6  1  0  0  0  0
  4 10  1  6  0  0  0
  4 19  1  0  0  0  0
  5  8  1  1  0  0  0
  5  9  1  0  0  0  0
  5 20  1  0  0  0  0
  6  7  1  0  0  0  0
  6 21  1  0  0  0  0
  6 22  1  0  0  0  0
  7  9  1  0  0  0  0
  7 25  1  0  0  0  0
  7 26  1  0  0  0  0
  8 11  1  0  0  0  0
  8 23  1  0  0  0  0
  8 24  1  0  0  0  0
 10 13  1  0  0  0  0
 10 27  1  0  0  0  0
 10 28  1  0  0  0  0
 11 12  1  0  0  0  0
 11 29  1  0  0  0  0
 11 30  1  0  0  0  0
 12 14  1  0  0  0  0
 12 31  1  0  0  0  0
 12 32  1  0  0  0  0
 14 15  1  0  0  0  0
 14 33  1  0  0  0  0
 14 34  1  0  0  0  0
 15 35  1  0  0  0  0
 15 36  1  0  0  0  0
 15 37  1  0  0  0  0
 16 17  1  0  0  0  0
 16 38  1  0  0  0  0
 16 39  1  0  0  0  0
 17 18  1  0  0  0  0
 17 40  1  0  0  0  0
 17 41  1  0  0  0  0
 18 42  1  0  0  0  0
 18 43  1  0  0  0  0
 18 44  1  0  0  0  0
M  END
> <PUBCHEM_COMPOUND_CID>
20056433

> <PUBCHEM_COMPOUND_CANONICALIZED>
1

> <PUBCHEM_CACTVS_COMPLEXITY>
273

> <PUBCHEM_CACTVS_HBOND_ACCEPTOR>
3

> <PUBCHEM_CACTVS_HBOND_DONOR>
0

> <PUBCHEM_CACTVS_ROTATABLE_BOND>
9

> <PUBCHEM_CACTVS_SUBSKEYS>
AAADceBwMAAAAAAAAAAAAAAAAAAAAYAAAAAAAAAAAAAAAAAAAAAAGgAAAAAADQSggAICCAAABAAIAICQCAAAAAAAAAAAAAEAAAAAABIAAAACAAAEAAAAAAGIzuCugAAAAAAAAAAAAAAAAAAAAAAACAAAAA==

> <PUBCHEM_IUPAC_OPENEYE_NAME>
propyl 2-[(1R,2R)-3-oxo-2-pentyl-cyclopentyl]acetate

> <PUBCHEM_IUPAC_CAS_NAME>
2-[(1R,2R)-3-oxo-2-pentylcyclopentyl]acetic acid propyl ester

> <PUBCHEM_IUPAC_NAME>
propyl 2-[(1R,2R)-3-oxo-2-pentylcyclopentyl]acetate

> <PUBCHEM_IUPAC_SYSTEMATIC_NAME>
propyl 2-[(1R,2R)-3-oxidanylidene-2-pentyl-cyclopentyl]ethanoate

> <PUBCHEM_IUPAC_TRADITIONAL_NAME>
2-[(1R,2R)-2-amyl-3-keto-cyclopentyl]acetic acid propyl ester

> <PUBCHEM_IUPAC_INCHI>
InChI=1S/C15H26O3/c1-3-5-6-7-13-12(8-9-14(13)16)11-15(17)18-10-4-2/h12-13H,3-11H2,1-2H3/t12-,13-/m1/s1

> <PUBCHEM_IUPAC_INCHIKEY>
IPDFPNNPBMREIF-CHWSQXEVSA-N

> <PUBCHEM_XLOGP3_AA>
3.6

> <PUBCHEM_EXACT_MASS>
254.188195

> <PUBCHEM_MOLECULAR_FORMULA>
C15H26O3

> <PUBCHEM_MOLECULAR_WEIGHT>
254.36514

> <PUBCHEM_OPENEYE_CAN_SMILES>
CCCCCC1C(CCC1=O)CC(=O)OCCC

> <PUBCHEM_OPENEYE_ISO_SMILES>
CCCCC[C@@H]1[C@H](CCC1=O)CC(=O)OCCC

> <PUBCHEM_CACTVS_TPSA>
43.4

> <PUBCHEM_MONOISOTOPIC_WEIGHT>
254.188195

> <PUBCHEM_TOTAL_CHARGE>
0

> <PUBCHEM_HEAVY_ATOM_COUNT>
18

> <PUBCHEM_ATOM_DEF_STEREO_COUNT>
2

> <PUBCHEM_ATOM_UDEF_STEREO_COUNT>
0

> <PUBCHEM_BOND_DEF_STEREO_COUNT>
0

> <PUBCHEM_BOND_UDEF_STEREO_COUNT>
0

> <PUBCHEM_ISOTOPIC_ATOM_COUNT>
0

> <PUBCHEM_COMPONENT_COUNT>
1

> <PUBCHEM_CACTVS_TAUTO_COUNT>
3

> <PUBCHEM_COORDINATE_TYPE>
1
5
255

> <PUBCHEM_BONDANNOTATIONS>
4  10  6
5  8  5

$$$$

