25447
  -OEChem-07051212462D

 36 38  0     1  0  0  0  0  0999 V2000
    4.8483    0.9992    0.0000 O   0  0  0  0  0  0  0  0  0  0  0  0
    7.1997   -0.0809    0.0000 O   0  0  0  0  0  0  0  0  0  0  0  0
    7.1926    2.0946    0.0000 O   0  0  0  0  0  0  0  0  0  0  0  0
    5.7881    3.5055    0.0000 O   0  0  0  0  0  0  0  0  0  0  0  0
    3.6418   -3.6706    0.0000 O   0  0  0  0  0  0  0  0  0  0  0  0
    5.1328   -0.7599    0.0000 N   0  0  0  0  0  0  0  0  0  0  0  0
    5.1408   -2.3694    0.0000 N   0  0  0  0  0  0  0  0  0  0  0  0
    3.4032   -0.4498    0.0000 N   0  0  0  0  0  0  0  0  0  0  0  0
    2.0000   -1.5803    0.0000 N   0  0  0  0  0  0  0  0  0  0  0  0
    5.4387    0.1921    0.0000 C   0  0  1  0  0  0  0  0  0  0  0  0
    6.3888    0.5042    0.0000 C   0  0  1  0  0  0  0  0  0  0  0  0
    6.3855    1.5042    0.0000 C   0  0  1  0  0  0  0  0  0  0  0  0
    5.4335    1.8101    0.0000 C   0  0  1  0  0  0  0  0  0  0  0  0
    5.1213    2.7602    0.0000 C   0  0  0  0  0  0  0  0  0  0  0  0
    4.1881   -1.0694    0.0000 C   0  0  0  0  0  0  0  0  0  0  0  0
    4.1931   -2.0694    0.0000 C   0  0  0  0  0  0  0  0  0  0  0  0
    5.7204   -1.5618    0.0000 C   0  0  0  0  0  0  0  0  0  0  0  0
    3.4144   -2.6968    0.0000 C   0  0  1  0  0  0  0  0  0  0  0  0
    2.4384   -2.4791    0.0000 C   0  0  0  0  0  0  0  0  0  0  0  0
    2.4294   -0.6772    0.0000 C   0  0  0  0  0  0  0  0  0  0  0  0
    5.8786   -0.2449    0.0000 H   0  0  0  0  0  0  0  0  0  0  0  0
    6.9403    0.7875    0.0000 H   0  0  0  0  0  0  0  0  0  0  0  0
    6.9389    1.2246    0.0000 H   0  0  0  0  0  0  0  0  0  0  0  0
    4.8208    1.9051    0.0000 H   0  0  0  0  0  0  0  0  0  0  0  0
    4.7380    3.2475    0.0000 H   0  0  0  0  0  0  0  0  0  0  0  0
    4.5749    2.4673    0.0000 H   0  0  0  0  0  0  0  0  0  0  0  0
    6.3404   -1.5587    0.0000 H   0  0  0  0  0  0  0  0  0  0  0  0
    7.7653    0.1731    0.0000 H   0  0  0  0  0  0  0  0  0  0  0  0
    7.7598    1.8443    0.0000 H   0  0  0  0  0  0  0  0  0  0  0  0
    4.0006   -2.8986    0.0000 H   0  0  0  0  0  0  0  0  0  0  0  0
    3.5381    0.1553    0.0000 H   0  0  0  0  0  0  0  0  0  0  0  0
    1.8346   -2.6201    0.0000 H   0  0  0  0  0  0  0  0  0  0  0  0
    2.4415   -3.0991    0.0000 H   0  0  0  0  0  0  0  0  0  0  0  0
    5.5946    4.0945    0.0000 H   0  0  0  0  0  0  0  0  0  0  0  0
    2.0404   -0.1944    0.0000 H   0  0  0  0  0  0  0  0  0  0  0  0
    3.1894   -4.0945    0.0000 H   0  0  0  0  0  0  0  0  0  0  0  0
  1 10  1  0  0  0  0
  1 13  1  0  0  0  0
 11  2  1  1  0  0  0
  2 28  1  0  0  0  0
 12  3  1  1  0  0  0
  3 29  1  0  0  0  0
  4 14  1  0  0  0  0
  4 34  1  0  0  0  0
 18  5  1  6  0  0  0
  5 36  1  0  0  0  0
 10  6  1  6  0  0  0
  6 15  1  0  0  0  0
  6 17  1  0  0  0  0
  7 16  1  0  0  0  0
  7 17  2  0  0  0  0
  8 15  1  0  0  0  0
  8 20  1  0  0  0  0
  8 31  1  0  0  0  0
  9 19  1  0  0  0  0
  9 20  2  0  0  0  0
 10 11  1  0  0  0  0
 10 21  1  0  0  0  0
 11 12  1  0  0  0  0
 11 22  1  0  0  0  0
 12 13  1  0  0  0  0
 12 23  1  0  0  0  0
 13 14  1  6  0  0  0
 13 24  1  0  0  0  0
 14 25  1  0  0  0  0
 14 26  1  0  0  0  0
 15 16  2  0  0  0  0
 16 18  1  0  0  0  0
 17 27  1  0  0  0  0
 18 19  1  0  0  0  0
 18 30  1  0  0  0  0
 19 32  1  0  0  0  0
 19 33  1  0  0  0  0
 20 35  1  0  0  0  0
M  END
> <PUBCHEM_COMPOUND_CID>
25447

> <PUBCHEM_COMPOUND_CANONICALIZED>
1

> <PUBCHEM_CACTVS_COMPLEXITY>
384

> <PUBCHEM_CACTVS_HBOND_ACCEPTOR>
7

> <PUBCHEM_CACTVS_HBOND_DONOR>
5

> <PUBCHEM_CACTVS_ROTATABLE_BOND>
2

> <PUBCHEM_CACTVS_SUBSKEYS>
AAADceBzuAAAAAAAAAAAAAAAAAAAAWJAAAAAAAAABAAAAACBgAAAHgAQCAAACBzhlgYFsBfMFgCgAQZhZAQAgC0xEKABUIA4WAiDfAJAyAEeQAAPAALTUCDwMAIAAAAAAAAAAAAAAAAAAAAAAAAAAAAAAA==

> <PUBCHEM_IUPAC_OPENEYE_NAME>
(2R,3R,4S,5R)-2-[(8R)-8-hydroxy-7,8-dihydro-4H-imidazo[4,5-d][1,3]diazepin-3-yl]-5-(hydroxymethyl)tetrahydrofuran-3,4-diol

> <PUBCHEM_IUPAC_CAS_NAME>
(2R,3R,4S,5R)-2-[(8R)-8-hydroxy-7,8-dihydro-4H-imidazo[4,5-d][1,3]diazepin-3-yl]-5-(hydroxymethyl)oxolane-3,4-diol

> <PUBCHEM_IUPAC_NAME>
(2R,3R,4S,5R)-2-[(8R)-8-hydroxy-7,8-dihydro-4H-imidazo[4,5-d][1,3]diazepin-3-yl]-5-(hydroxymethyl)oxolane-3,4-diol

> <PUBCHEM_IUPAC_SYSTEMATIC_NAME>
(2R,3S,4R,5R)-2-(hydroxymethyl)-5-[(8R)-8-oxidanyl-7,8-dihydro-4H-imidazo[4,5-d][1,3]diazepin-3-yl]oxolane-3,4-diol

> <PUBCHEM_IUPAC_TRADITIONAL_NAME>
(2R,3R,4S,5R)-2-[(8R)-8-hydroxy-7,8-dihydro-4H-imidazo[4,5-d][1,3]diazepin-3-yl]-5-methylol-tetrahydrofuran-3,4-diol

> <PUBCHEM_IUPAC_INCHI>
InChI=1S/C11H16N4O5/c16-2-6-8(18)9(19)11(20-6)15-4-14-7-5(17)1-12-3-13-10(7)15/h3-6,8-9,11,16-19H,1-2H2,(H,12,13)/t5-,6-,8-,9-,11-/m1/s1

> <PUBCHEM_IUPAC_INCHIKEY>
YOOVTUPUBVHMPG-LODYRLCVSA-N

> <PUBCHEM_XLOGP3>
-3.1

> <PUBCHEM_EXACT_MASS>
284.11207

> <PUBCHEM_MOLECULAR_FORMULA>
C11H16N4O5

> <PUBCHEM_MOLECULAR_WEIGHT>
284.26854

> <PUBCHEM_OPENEYE_CAN_SMILES>
C1C(C2=C(NC=N1)N(C=N2)C3C(C(C(O3)CO)O)O)O

> <PUBCHEM_OPENEYE_ISO_SMILES>
C1[C@H](C2=C(NC=N1)N(C=N2)[C@H]3[C@@H]([C@@H]([C@H](O3)CO)O)O)O

> <PUBCHEM_CACTVS_TPSA>
132

> <PUBCHEM_MONOISOTOPIC_WEIGHT>
284.11207

> <PUBCHEM_TOTAL_CHARGE>
0

> <PUBCHEM_HEAVY_ATOM_COUNT>
20

> <PUBCHEM_ATOM_DEF_STEREO_COUNT>
5

> <PUBCHEM_ATOM_UDEF_STEREO_COUNT>
0

> <PUBCHEM_BOND_DEF_STEREO_COUNT>
0

> <PUBCHEM_BOND_UDEF_STEREO_COUNT>
0

> <PUBCHEM_ISOTOPIC_ATOM_COUNT>
0

> <PUBCHEM_COMPONENT_COUNT>
1

> <PUBCHEM_CACTVS_TAUTO_COUNT>
2

> <PUBCHEM_COORDINATE_TYPE>
1
5
255

> <PUBCHEM_BONDANNOTATIONS>
13  14  6
15  16  8
11  2  5
12  3  5
18  5  6
10  6  6
6  15  8
6  17  8
7  16  8
7  17  8

$$$$

