854159
  -OEChem-06241222472D

 21 21  0     1  0  0  0  0  0999 V2000
    2.0000    0.1550    0.0000 O   0  0  0  0  0  0  0  0  0  0  0  0
    4.5981   -1.3450    0.0000 N   0  0  0  0  0  0  0  0  0  0  0  0
    2.8660    1.6550    0.0000 N   0  0  0  0  0  0  0  0  0  0  0  0
    3.7320    0.1550    0.0000 C   0  0  1  0  0  0  0  0  0  0  0  0
    4.5981    0.6550    0.0000 C   0  0  0  0  0  0  0  0  0  0  0  0
    5.4641    0.1550    0.0000 C   0  0  0  0  0  0  0  0  0  0  0  0
    3.7320   -0.8450    0.0000 C   0  0  0  0  0  0  0  0  0  0  0  0
    5.4641   -0.8450    0.0000 C   0  0  0  0  0  0  0  0  0  0  0  0
    2.8660    0.6550    0.0000 C   0  0  0  0  0  0  0  0  0  0  0  0
    3.7320    0.7750    0.0000 H   0  0  0  0  0  0  0  0  0  0  0  0
    4.9966    1.1300    0.0000 H   0  0  0  0  0  0  0  0  0  0  0  0
    4.1996    1.1300    0.0000 H   0  0  0  0  0  0  0  0  0  0  0  0
    6.0747    0.0473    0.0000 H   0  0  0  0  0  0  0  0  0  0  0  0
    5.6762    0.7376    0.0000 H   0  0  0  0  0  0  0  0  0  0  0  0
    3.1215   -0.7373    0.0000 H   0  0  0  0  0  0  0  0  0  0  0  0
    3.5200   -1.4276    0.0000 H   0  0  0  0  0  0  0  0  0  0  0  0
    5.6762   -1.4276    0.0000 H   0  0  0  0  0  0  0  0  0  0  0  0
    6.0747   -0.7373    0.0000 H   0  0  0  0  0  0  0  0  0  0  0  0
    4.5981   -1.9650    0.0000 H   0  0  0  0  0  0  0  0  0  0  0  0
    2.3291    1.9650    0.0000 H   0  0  0  0  0  0  0  0  0  0  0  0
    3.4030    1.9650    0.0000 H   0  0  0  0  0  0  0  0  0  0  0  0
  1  9  2  0  0  0  0
  2  7  1  0  0  0  0
  2  8  1  0  0  0  0
  2 19  1  0  0  0  0
  3  9  1  0  0  0  0
  3 20  1  0  0  0  0
  3 21  1  0  0  0  0
  4  5  1  0  0  0  0
  4  7  1  0  0  0  0
  4  9  1  1  0  0  0
  4 10  1  0  0  0  0
  5  6  1  0  0  0  0
  5 11  1  0  0  0  0
  5 12  1  0  0  0  0
  6  8  1  0  0  0  0
  6 13  1  0  0  0  0
  6 14  1  0  0  0  0
  7 15  1  0  0  0  0
  7 16  1  0  0  0  0
  8 17  1  0  0  0  0
  8 18  1  0  0  0  0
M  END
> <PUBCHEM_COMPOUND_CID>
854159

> <PUBCHEM_COMPOUND_CANONICALIZED>
1

> <PUBCHEM_CACTVS_COMPLEXITY>
114

> <PUBCHEM_CACTVS_HBOND_ACCEPTOR>
2

> <PUBCHEM_CACTVS_HBOND_DONOR>
2

> <PUBCHEM_CACTVS_ROTATABLE_BOND>
1

> <PUBCHEM_CACTVS_SUBSKEYS>
AAADccBjIAAAAAAAAAAAAAAAAAAAAAAAAAAsAAAAAAAAAAAAAAAAHgAQAAAADQDBgAQAAALAAAAIAAEQEAAAAAAAAAAAAIEIAAAAABoAwAAEAAAAEACAAAAYAQAMAAAAAAAAAAAAAAAAAAAAAAAAAAAAAA==

> <PUBCHEM_IUPAC_OPENEYE_NAME>
(3S)-piperidine-3-carboxamide

> <PUBCHEM_IUPAC_CAS_NAME>
(3S)-3-piperidinecarboxamide

> <PUBCHEM_IUPAC_NAME>
(3S)-piperidine-3-carboxamide

> <PUBCHEM_IUPAC_SYSTEMATIC_NAME>
(3S)-piperidine-3-carboxamide

> <PUBCHEM_IUPAC_TRADITIONAL_NAME>
(3S)-nipecotamide

> <PUBCHEM_IUPAC_INCHI>
InChI=1S/C6H12N2O/c7-6(9)5-2-1-3-8-4-5/h5,8H,1-4H2,(H2,7,9)/t5-/m0/s1

> <PUBCHEM_IUPAC_INCHIKEY>
BVOCPVIXARZNQN-YFKPBYRVSA-N

> <PUBCHEM_XLOGP3>
-1.3

> <PUBCHEM_EXACT_MASS>
128.094963

> <PUBCHEM_MOLECULAR_FORMULA>
C6H12N2O

> <PUBCHEM_MOLECULAR_WEIGHT>
128.17228

> <PUBCHEM_OPENEYE_CAN_SMILES>
C1CC(CNC1)C(=O)N

> <PUBCHEM_OPENEYE_ISO_SMILES>
C1C[C@@H](CNC1)C(=O)N

> <PUBCHEM_CACTVS_TPSA>
55.1

> <PUBCHEM_MONOISOTOPIC_WEIGHT>
128.094963

> <PUBCHEM_TOTAL_CHARGE>
0

> <PUBCHEM_HEAVY_ATOM_COUNT>
9

> <PUBCHEM_ATOM_DEF_STEREO_COUNT>
1

> <PUBCHEM_ATOM_UDEF_STEREO_COUNT>
0

> <PUBCHEM_BOND_DEF_STEREO_COUNT>
0

> <PUBCHEM_BOND_UDEF_STEREO_COUNT>
0

> <PUBCHEM_ISOTOPIC_ATOM_COUNT>
0

> <PUBCHEM_COMPONENT_COUNT>
1

> <PUBCHEM_CACTVS_TAUTO_COUNT>
3

> <PUBCHEM_COORDINATE_TYPE>
1
5
255

> <PUBCHEM_BONDANNOTATIONS>
4  9  5

$$$$

