5280490
  -OEChem-07051212463D

 49 49  0     0  0  0  0  0  0999 V2000
    3.8977   -3.3243   -0.2254 O   0  0  0  0  0  0  0  0  0  0  0  0
   -3.9861    0.6037    0.4688 C   0  0  0  0  0  0  0  0  0  0  0  0
   -5.1864   -0.3767    0.3655 C   0  0  0  0  0  0  0  0  0  0  0  0
   -4.7843   -1.8107    0.6604 C   0  0  0  0  0  0  0  0  0  0  0  0
   -2.7253    0.0352   -0.2240 C   0  0  0  0  0  0  0  0  0  0  0  0
   -3.7314   -2.2721   -0.3360 C   0  0  0  0  0  0  0  0  0  0  0  0
   -2.6335   -1.2633   -0.6071 C   0  0  0  0  0  0  0  0  0  0  0  0
   -3.6805    0.8689    1.9610 C   0  0  0  0  0  0  0  0  0  0  0  0
   -4.4601    1.9277   -0.1791 C   0  0  0  0  0  0  0  0  0  0  0  0
   -1.6341    0.9766   -0.4148 C   0  0  0  0  0  0  0  0  0  0  0  0
   -1.4658   -1.8884   -1.3350 C   0  0  0  0  0  0  0  0  0  0  0  0
   -0.3446    0.6565   -0.2190 C   0  0  0  0  0  0  0  0  0  0  0  0
    0.8039    1.5470   -0.3892 C   0  0  0  0  0  0  0  0  0  0  0  0
    0.5242    2.9670   -0.8258 C   0  0  0  0  0  0  0  0  0  0  0  0
    2.0869    1.1792   -0.1799 C   0  0  0  0  0  0  0  0  0  0  0  0
    3.2912    1.9789   -0.3190 C   0  0  0  0  0  0  0  0  0  0  0  0
    4.5195    1.4863   -0.0775 C   0  0  0  0  0  0  0  0  0  0  0  0
    4.8391    0.1237    0.3471 C   0  0  0  0  0  0  0  0  0  0  0  0
    5.9261   -0.0471    1.3835 C   0  0  0  0  0  0  0  0  0  0  0  0
    4.2316   -0.9836   -0.1230 C   0  0  0  0  0  0  0  0  0  0  0  0
    4.5121   -2.3848    0.2684 C   0  0  0  0  0  0  0  0  0  0  0  0
   -5.6172   -0.3368   -0.6449 H   0  0  0  0  0  0  0  0  0  0  0  0
   -5.9881   -0.0754    1.0517 H   0  0  0  0  0  0  0  0  0  0  0  0
   -5.6604   -2.4664    0.5980 H   0  0  0  0  0  0  0  0  0  0  0  0
   -4.4002   -1.9002    1.6830 H   0  0  0  0  0  0  0  0  0  0  0  0
   -4.2189   -2.5123   -1.2896 H   0  0  0  0  0  0  0  0  0  0  0  0
   -3.2923   -3.2042    0.0408 H   0  0  0  0  0  0  0  0  0  0  0  0
   -4.5770    1.2048    2.4946 H   0  0  0  0  0  0  0  0  0  0  0  0
   -3.3068   -0.0281    2.4668 H   0  0  0  0  0  0  0  0  0  0  0  0
   -2.9208    1.6500    2.0820 H   0  0  0  0  0  0  0  0  0  0  0  0
   -5.4396    2.2260    0.2141 H   0  0  0  0  0  0  0  0  0  0  0  0
   -3.7787    2.7600    0.0279 H   0  0  0  0  0  0  0  0  0  0  0  0
   -4.5566    1.8276   -1.2665 H   0  0  0  0  0  0  0  0  0  0  0  0
   -1.9023    1.9648   -0.7697 H   0  0  0  0  0  0  0  0  0  0  0  0
   -0.8006   -2.3995   -0.6320 H   0  0  0  0  0  0  0  0  0  0  0  0
   -0.8963   -1.1789   -1.9405 H   0  0  0  0  0  0  0  0  0  0  0  0
   -1.8299   -2.6384   -2.0479 H   0  0  0  0  0  0  0  0  0  0  0  0
   -0.0812   -0.3248    0.1689 H   0  0  0  0  0  0  0  0  0  0  0  0
    1.3874    3.6240   -0.9233 H   0  0  0  0  0  0  0  0  0  0  0  0
   -0.1418    3.4565   -0.1049 H   0  0  0  0  0  0  0  0  0  0  0  0
    0.0311    2.9674   -1.8051 H   0  0  0  0  0  0  0  0  0  0  0  0
    2.1819    0.1803    0.2263 H   0  0  0  0  0  0  0  0  0  0  0  0
    3.2344    3.0150   -0.6268 H   0  0  0  0  0  0  0  0  0  0  0  0
    5.3720    2.1538   -0.1858 H   0  0  0  0  0  0  0  0  0  0  0  0
    6.3044    0.9228    1.7264 H   0  0  0  0  0  0  0  0  0  0  0  0
    6.7785   -0.5966    0.9699 H   0  0  0  0  0  0  0  0  0  0  0  0
    5.5491   -0.5676    2.2706 H   0  0  0  0  0  0  0  0  0  0  0  0
    3.5084   -0.9203   -0.9324 H   0  0  0  0  0  0  0  0  0  0  0  0
    5.2940   -2.5438    1.0259 H   0  0  0  0  0  0  0  0  0  0  0  0
  1 21  2  0  0  0  0
  2  3  1  0  0  0  0
  2  5  1  0  0  0  0
  2  8  1  0  0  0  0
  2  9  1  0  0  0  0
  3  4  1  0  0  0  0
  3 22  1  0  0  0  0
  3 23  1  0  0  0  0
  4  6  1  0  0  0  0
  4 24  1  0  0  0  0
  4 25  1  0  0  0  0
  5  7  2  0  0  0  0
  5 10  1  0  0  0  0
  6  7  1  0  0  0  0
  6 26  1  0  0  0  0
  6 27  1  0  0  0  0
  7 11  1  0  0  0  0
  8 28  1  0  0  0  0
  8 29  1  0  0  0  0
  8 30  1  0  0  0  0
  9 31  1  0  0  0  0
  9 32  1  0  0  0  0
  9 33  1  0  0  0  0
 10 12  2  0  0  0  0
 10 34  1  0  0  0  0
 11 35  1  0  0  0  0
 11 36  1  0  0  0  0
 11 37  1  0  0  0  0
 12 13  1  0  0  0  0
 12 38  1  0  0  0  0
 13 14  1  0  0  0  0
 13 15  2  0  0  0  0
 14 39  1  0  0  0  0
 14 40  1  0  0  0  0
 14 41  1  0  0  0  0
 15 16  1  0  0  0  0
 15 42  1  0  0  0  0
 16 17  2  0  0  0  0
 16 43  1  0  0  0  0
 17 18  1  0  0  0  0
 17 44  1  0  0  0  0
 18 19  1  0  0  0  0
 18 20  2  0  0  0  0
 19 45  1  0  0  0  0
 19 46  1  0  0  0  0
 19 47  1  0  0  0  0
 20 21  1  0  0  0  0
 20 48  1  0  0  0  0
 21 49  1  0  0  0  0
M  END
> <PUBCHEM_COMPOUND_CID>
5280490

> <PUBCHEM_CONFORMER_RMSD>
0.8

> <PUBCHEM_CONFORMER_DIVERSEORDER>
7
5
3
2
9
6
10
1
4
8

> <PUBCHEM_MMFF94_PARTIAL_CHARGES>
24
1 -0.57
10 -0.15
11 0.14
12 -0.15
13 -0.14
14 0.14
15 -0.15
16 -0.15
17 -0.15
18 -0.14
19 0.14
2 0.14
20 -0.14
21 0.5
34 0.15
38 0.15
42 0.15
43 0.15
44 0.15
48 0.15
49 0.06
5 -0.14
6 0.14
7 -0.28

> <PUBCHEM_EFFECTIVE_ROTOR_COUNT>
5.8

> <PUBCHEM_PHARMACOPHORE_FEATURES>
5
1 1 acceptor
1 14 hydrophobe
1 19 hydrophobe
3 2 8 9 hydrophobe
6 2 3 4 5 6 7 rings

> <PUBCHEM_HEAVY_ATOM_COUNT>
21

> <PUBCHEM_ATOM_DEF_STEREO_COUNT>
0

> <PUBCHEM_ATOM_UDEF_STEREO_COUNT>
0

> <PUBCHEM_BOND_DEF_STEREO_COUNT>
4

> <PUBCHEM_BOND_UDEF_STEREO_COUNT>
0

> <PUBCHEM_ISOTOPIC_ATOM_COUNT>
0

> <PUBCHEM_COMPONENT_COUNT>
1

> <PUBCHEM_CACTVS_TAUTO_COUNT>
1

> <PUBCHEM_CONFORMER_ID>
005092EA00000007

> <PUBCHEM_MMFF94_ENERGY>
63.1578

> <PUBCHEM_FEATURE_SELFOVERLAP>
25.371

> <PUBCHEM_SHAPE_FINGERPRINT>
12107183 9 18119801671287156081
12422481 6 18263356056871671303
12467345 10 18407758127346378435
12596602 18 17458342997042471674
13167823 11 18410855421605526316
13533116 47 18335138644475500339
13551218 46 18410571790808538143
13583140 156 17749686107481601928
13914758 101 18272096002867938069
14420673 8 18266453385580923894
15250474 111 18263651658217930206
15537594 2 18340759412694745574
16067690 210 16298379197542901826
17780758 139 18260834790910471416
17818456 19 18188200030603986480
17844677 252 18343015579900002700
17857418 61 18411141303097175006
1813 80 17632855330619007820
19141452 34 18410013247206713101
20281475 54 18342177709242718036
20554085 129 16443342144007434755
20645477 70 18130508557284941760
21033648 29 14562804490838534369
21857420 4 13823617942186272290
22950370 63 18343863299349242244
23559900 14 18334864883482236064
3004659 81 18131912659487714324
3117164 225 18045492264745819664
338550 245 18341611499677767654
351380 3 18130793356560909120
3633792 109 18340216271541781239
3680242 22 18201443631481677114
4214541 1 18410573968325516597
5104073 3 18263640684534245689
559249 180 18341619217744482729
5924683 9 17459479848968427567
6823239 73 17822836689671966310
7064713 232 17967818253939220526

> <PUBCHEM_SHAPE_MULTIPOLES>
426.3
13.96
3.18
1.11
7.7
1.12
-0.35
4.34
-4.35
1.46
0.72
-0.44
-0.04
-0.68

> <PUBCHEM_SHAPE_SELFOVERLAP>
854.633

> <PUBCHEM_SHAPE_VOLUME>
251

> <PUBCHEM_COORDINATE_TYPE>
2
5
10

$$$$

