83933
  -OEChem-07051212523D

115117  0     1  0  0  0  0  0999 V2000
   -1.2375   -1.8912   -0.1094 O   0  0  0  0  0  0  0  0  0  0  0  0
   -0.8829    2.1950   -0.1334 O   0  0  0  0  0  0  0  0  0  0  0  0
    1.0041   -0.6006    2.5028 O   0  0  0  0  0  0  0  0  0  0  0  0
   -3.0150   -2.6006    1.2253 O   0  0  0  0  0  0  0  0  0  0  0  0
   -2.8458    1.9715    1.1778 O   0  0  0  0  0  0  0  0  0  0  0  0
    3.7319    1.3430   -0.6160 O   0  0  0  0  0  0  0  0  0  0  0  0
   -3.0443   -1.3671   -2.2157 O   0  0  0  0  0  0  0  0  0  0  0  0
   -2.1667    4.5443   -1.2148 O   0  0  0  0  0  0  0  0  0  0  0  0
    7.2293    0.2407   -0.8585 O   0  0  0  0  0  0  0  0  0  0  0  0
    6.4251   -2.3009   -1.2885 O   0  0  0  0  0  0  0  0  0  0  0  0
   -4.9206    4.2554   -0.8092 O   0  0  0  0  0  0  0  0  0  0  0  0
    4.2166   -4.0546    0.3115 O   0  0  0  0  0  0  0  0  0  0  0  0
    3.0167    1.8669    1.5145 O   0  0  0  0  0  0  0  0  0  0  0  0
   -5.5172   -3.0073   -2.1002 N   0  0  0  0  0  0  0  0  0  0  0  0
   -0.5371   -0.8867    0.6293 C   0  0  2  0  0  0  0  0  0  0  0  0
    0.2557    0.0423   -0.3543 C   0  0  2  0  0  0  0  0  0  0  0  0
    0.3660   -1.5916    1.6986 C   0  0  1  0  0  0  0  0  0  0  0  0
    0.3305    1.5059    0.1703 C   0  0  1  0  0  0  0  0  0  0  0  0
    1.3998   -2.5533    1.0305 C   0  0  0  0  0  0  0  0  0  0  0  0
    1.5571    2.2699   -0.3835 C   0  0  2  0  0  0  0  0  0  0  0  0
    2.8736   -2.3926    1.4467 C   0  0  2  0  0  0  0  0  0  0  0  0
   -2.6459   -1.7993    0.1046 C   0  0  2  0  0  0  0  0  0  0  0  0
   -3.3488   -2.2857   -1.1673 C   0  0  1  0  0  0  0  0  0  0  0  0
   -0.3006   -0.0235   -1.7874 C   0  0  0  0  0  0  0  0  0  0  0  0
   -4.8678   -2.3582   -0.9604 C   0  0  2  0  0  0  0  0  0  0  0  0
   -1.5639    2.5868    1.0542 C   0  0  2  0  0  0  0  0  0  0  0  0
   -0.5041   -2.3955    2.6802 C   0  0  0  0  0  0  0  0  0  0  0  0
   -2.6950    4.6713    0.1092 C   0  0  2  0  0  0  0  0  0  0  0  0
   -1.6767    4.1133    1.1194 C   0  0  0  0  0  0  0  0  0  0  0  0
    4.0672   -1.9195   -0.8222 C   0  0  2  0  0  0  0  0  0  0  0  0
    5.8141    0.0681   -1.0756 C   0  0  1  0  0  0  0  0  0  0  0  0
   -5.1970   -3.1265    0.3220 C   0  0  0  0  0  0  0  0  0  0  0  0
    5.5109   -1.4035   -0.6433 C   0  0  2  0  0  0  0  0  0  0  0  0
   -4.0162    3.8853    0.2265 C   0  0  2  0  0  0  0  0  0  0  0  0
    3.7641   -2.9095    0.3145 C   0  0  0  0  0  0  0  0  0  0  0  0
   -4.4163   -2.5461    1.5019 C   0  0  1  0  0  0  0  0  0  0  0  0
   -3.7788    2.3694    0.1698 C   0  0  2  0  0  0  0  0  0  0  0  0
    5.0882    1.1105   -0.1623 C   0  0  1  0  0  0  0  0  0  0  0  0
    2.8306    1.7968    0.3055 C   0  0  0  0  0  0  0  0  0  0  0  0
    1.4568    3.7830   -0.1706 C   0  0  0  0  0  0  0  0  0  0  0  0
    3.1803   -3.1063    2.7596 C   0  0  0  0  0  0  0  0  0  0  0  0
   -2.9009    6.1706    0.3408 C   0  0  0  0  0  0  0  0  0  0  0  0
    3.7607   -2.6045   -2.1546 C   0  0  0  0  0  0  0  0  0  0  0  0
    5.5555    0.3377   -2.5632 C   0  0  0  0  0  0  0  0  0  0  0  0
    5.7900    2.4770   -0.1340 C   0  0  0  0  0  0  0  0  0  0  0  0
   -4.6705   -3.3442    2.7731 C   0  0  0  0  0  0  0  0  0  0  0  0
   -5.0684    1.5896    0.4165 C   0  0  0  0  0  0  0  0  0  0  0  0
   -6.8375   -3.5062   -1.7186 C   0  0  0  0  0  0  0  0  0  0  0  0
   -5.6259   -2.0770   -3.2228 C   0  0  0  0  0  0  0  0  0  0  0  0
    5.0566    3.4577    0.7609 C   0  0  0  0  0  0  0  0  0  0  0  0
   -1.2340   -0.2487    1.1862 H   0  0  0  0  0  0  0  0  0  0  0  0
    1.2803   -0.3321   -0.4124 H   0  0  0  0  0  0  0  0  0  0  0  0
    0.4946    1.4472    1.2499 H   0  0  0  0  0  0  0  0  0  0  0  0
    1.0958   -3.5976    1.1898 H   0  0  0  0  0  0  0  0  0  0  0  0
    1.3288   -2.4541   -0.0594 H   0  0  0  0  0  0  0  0  0  0  0  0
    1.6427    2.1018   -1.4629 H   0  0  0  0  0  0  0  0  0  0  0  0
    3.1312   -1.3343    1.5722 H   0  0  0  0  0  0  0  0  0  0  0  0
   -2.9368   -0.7566    0.2797 H   0  0  0  0  0  0  0  0  0  0  0  0
   -2.9500   -3.2658   -1.4575 H   0  0  0  0  0  0  0  0  0  0  0  0
   -0.2743   -1.0433   -2.1837 H   0  0  0  0  0  0  0  0  0  0  0  0
    0.3050    0.5865   -2.4653 H   0  0  0  0  0  0  0  0  0  0  0  0
   -1.3218    0.3601   -1.8357 H   0  0  0  0  0  0  0  0  0  0  0  0
   -5.2689   -1.3423   -0.8430 H   0  0  0  0  0  0  0  0  0  0  0  0
   -1.0292    2.2855    1.9612 H   0  0  0  0  0  0  0  0  0  0  0  0
   -1.3078   -1.7785    3.0974 H   0  0  0  0  0  0  0  0  0  0  0  0
    0.0951   -2.7258    3.5373 H   0  0  0  0  0  0  0  0  0  0  0  0
   -0.9321   -3.2909    2.2224 H   0  0  0  0  0  0  0  0  0  0  0  0
   -0.7094    4.5949    0.9864 H   0  0  0  0  0  0  0  0  0  0  0  0
   -2.0287    4.3751    2.1269 H   0  0  0  0  0  0  0  0  0  0  0  0
    3.3666   -1.0911   -0.7107 H   0  0  0  0  0  0  0  0  0  0  0  0
   -4.9182   -4.1831    0.2057 H   0  0  0  0  0  0  0  0  0  0  0  0
   -6.2575   -3.0679    0.5915 H   0  0  0  0  0  0  0  0  0  0  0  0
    5.7762   -1.4673    0.4216 H   0  0  0  0  0  0  0  0  0  0  0  0
   -4.4870    4.1276    1.1887 H   0  0  0  0  0  0  0  0  0  0  0  0
   -4.7048   -1.5040    1.6838 H   0  0  0  0  0  0  0  0  0  0  0  0
   -3.3982    2.0726   -0.8158 H   0  0  0  0  0  0  0  0  0  0  0  0
    5.0722    0.7127    0.8615 H   0  0  0  0  0  0  0  0  0  0  0  0
    0.3145   -0.0717    2.9392 H   0  0  0  0  0  0  0  0  0  0  0  0
    2.3228    4.2909   -0.6061 H   0  0  0  0  0  0  0  0  0  0  0  0
    1.4200    4.0442    0.8912 H   0  0  0  0  0  0  0  0  0  0  0  0
    0.5903    4.1937   -0.6917 H   0  0  0  0  0  0  0  0  0  0  0  0
    2.6142   -2.6687    3.5875 H   0  0  0  0  0  0  0  0  0  0  0  0
    4.2456   -3.0278    3.0024 H   0  0  0  0  0  0  0  0  0  0  0  0
    2.9338   -4.1723    2.7049 H   0  0  0  0  0  0  0  0  0  0  0  0
   -3.5274    6.6135   -0.4410 H   0  0  0  0  0  0  0  0  0  0  0  0
   -3.3642    6.3683    1.3129 H   0  0  0  0  0  0  0  0  0  0  0  0
   -1.9451    6.7064    0.3035 H   0  0  0  0  0  0  0  0  0  0  0  0
    4.3672   -3.5039   -2.3053 H   0  0  0  0  0  0  0  0  0  0  0  0
    2.7115   -2.9191   -2.1890 H   0  0  0  0  0  0  0  0  0  0  0  0
    3.9328   -1.9349   -3.0005 H   0  0  0  0  0  0  0  0  0  0  0  0
    5.9324    1.3234   -2.8565 H   0  0  0  0  0  0  0  0  0  0  0  0
    6.0932   -0.3853   -3.1868 H   0  0  0  0  0  0  0  0  0  0  0  0
    4.4932    0.2886   -2.8168 H   0  0  0  0  0  0  0  0  0  0  0  0
    5.8398    2.9070   -1.1406 H   0  0  0  0  0  0  0  0  0  0  0  0
    6.8164    2.3772    0.2347 H   0  0  0  0  0  0  0  0  0  0  0  0
   -4.0910   -2.9285    3.6047 H   0  0  0  0  0  0  0  0  0  0  0  0
   -5.7299   -3.3329    3.0465 H   0  0  0  0  0  0  0  0  0  0  0  0
   -4.3475   -4.3845    2.6561 H   0  0  0  0  0  0  0  0  0  0  0  0
   -4.8685    0.5172    0.4396 H   0  0  0  0  0  0  0  0  0  0  0  0
   -5.8143    1.7864   -0.3591 H   0  0  0  0  0  0  0  0  0  0  0  0
   -5.4991    1.8456    1.3909 H   0  0  0  0  0  0  0  0  0  0  0  0
   -3.4404   -0.5089   -1.9861 H   0  0  0  0  0  0  0  0  0  0  0  0
   -1.3625    5.0871   -1.2737 H   0  0  0  0  0  0  0  0  0  0  0  0
    7.4123    0.0685    0.0811 H   0  0  0  0  0  0  0  0  0  0  0  0
    6.3011   -3.1805   -0.8928 H   0  0  0  0  0  0  0  0  0  0  0  0
   -6.7894   -4.3857   -1.0678 H   0  0  0  0  0  0  0  0  0  0  0  0
   -7.4733   -2.7323   -1.2719 H   0  0  0  0  0  0  0  0  0  0  0  0
   -7.3673   -3.8723   -2.6078 H   0  0  0  0  0  0  0  0  0  0  0  0
   -6.0699   -1.1159   -2.9392 H   0  0  0  0  0  0  0  0  0  0  0  0
   -4.6668   -1.9038   -3.7146 H   0  0  0  0  0  0  0  0  0  0  0  0
   -6.2573   -2.5048   -4.0120 H   0  0  0  0  0  0  0  0  0  0  0  0
   -5.1968    5.1731   -0.6489 H   0  0  0  0  0  0  0  0  0  0  0  0
    4.9318    3.0846    1.7802 H   0  0  0  0  0  0  0  0  0  0  0  0
    5.6904    4.3489    0.8636 H   0  0  0  0  0  0  0  0  0  0  0  0
    4.1349    3.8385    0.3355 H   0  0  0  0  0  0  0  0  0  0  0  0
  1 15  1  0  0  0  0
  1 22  1  0  0  0  0
  2 18  1  0  0  0  0
  2 26  1  0  0  0  0
  3 17  1  0  0  0  0
  3 78  1  0  0  0  0
  4 22  1  0  0  0  0
  4 36  1  0  0  0  0
  5 26  1  0  0  0  0
  5 37  1  0  0  0  0
  6 38  1  0  0  0  0
  6 39  1  0  0  0  0
  7 23  1  0  0  0  0
  7102  1  0  0  0  0
  8 28  1  0  0  0  0
  8103  1  0  0  0  0
  9 31  1  0  0  0  0
  9104  1  0  0  0  0
 10 33  1  0  0  0  0
 10105  1  0  0  0  0
 11 34  1  0  0  0  0
 11112  1  0  0  0  0
 12 35  2  0  0  0  0
 13 39  2  0  0  0  0
 14 25  1  0  0  0  0
 14 48  1  0  0  0  0
 14 49  1  0  0  0  0
 15 16  1  0  0  0  0
 15 17  1  0  0  0  0
 15 51  1  0  0  0  0
 16 18  1  0  0  0  0
 16 24  1  0  0  0  0
 16 52  1  0  0  0  0
 17 19  1  0  0  0  0
 17 27  1  0  0  0  0
 18 20  1  0  0  0  0
 18 53  1  0  0  0  0
 19 21  1  0  0  0  0
 19 54  1  0  0  0  0
 19 55  1  0  0  0  0
 20 39  1  0  0  0  0
 20 40  1  0  0  0  0
 20 56  1  0  0  0  0
 21 35  1  0  0  0  0
 21 41  1  0  0  0  0
 21 57  1  0  0  0  0
 22 23  1  0  0  0  0
 22 58  1  0  0  0  0
 23 25  1  0  0  0  0
 23 59  1  0  0  0  0
 24 60  1  0  0  0  0
 24 61  1  0  0  0  0
 24 62  1  0  0  0  0
 25 32  1  0  0  0  0
 25 63  1  0  0  0  0
 26 29  1  0  0  0  0
 26 64  1  0  0  0  0
 27 65  1  0  0  0  0
 27 66  1  0  0  0  0
 27 67  1  0  0  0  0
 28 29  1  0  0  0  0
 28 34  1  0  0  0  0
 28 42  1  0  0  0  0
 29 68  1  0  0  0  0
 29 69  1  0  0  0  0
 30 33  1  0  0  0  0
 30 35  1  0  0  0  0
 30 43  1  0  0  0  0
 30 70  1  0  0  0  0
 31 33  1  0  0  0  0
 31 38  1  0  0  0  0
 31 44  1  0  0  0  0
 32 36  1  0  0  0  0
 32 71  1  0  0  0  0
 32 72  1  0  0  0  0
 33 73  1  0  0  0  0
 34 37  1  0  0  0  0
 34 74  1  0  0  0  0
 36 46  1  0  0  0  0
 36 75  1  0  0  0  0
 37 47  1  0  0  0  0
 37 76  1  0  0  0  0
 38 45  1  0  0  0  0
 38 77  1  0  0  0  0
 40 79  1  0  0  0  0
 40 80  1  0  0  0  0
 40 81  1  0  0  0  0
 41 82  1  0  0  0  0
 41 83  1  0  0  0  0
 41 84  1  0  0  0  0
 42 85  1  0  0  0  0
 42 86  1  0  0  0  0
 42 87  1  0  0  0  0
 43 88  1  0  0  0  0
 43 89  1  0  0  0  0
 43 90  1  0  0  0  0
 44 91  1  0  0  0  0
 44 92  1  0  0  0  0
 44 93  1  0  0  0  0
 45 50  1  0  0  0  0
 45 94  1  0  0  0  0
 45 95  1  0  0  0  0
 46 96  1  0  0  0  0
 46 97  1  0  0  0  0
 46 98  1  0  0  0  0
 47 99  1  0  0  0  0
 47100  1  0  0  0  0
 47101  1  0  0  0  0
 48106  1  0  0  0  0
 48107  1  0  0  0  0
 48108  1  0  0  0  0
 49109  1  0  0  0  0
 49110  1  0  0  0  0
 49111  1  0  0  0  0
 50113  1  0  0  0  0
 50114  1  0  0  0  0
 50115  1  0  0  0  0
M  END
> <PUBCHEM_COMPOUND_CID>
83933

> <PUBCHEM_CONFORMER_RMSD>
1.2

> <PUBCHEM_CONFORMER_DIVERSEORDER>
1
9
33
2
12
31
3
22
28
26
14
6
29
10
5
13
35
23
27
11
19
17
25
7
8
18
24
20
21
30
16
34
15
4
32

> <PUBCHEM_MMFF94_PARTIAL_CHARGES>
41
1 -0.56
10 -0.68
102 0.4
103 0.4
104 0.4
105 0.4
11 -0.68
112 0.4
12 -0.57
13 -0.57
14 -0.81
15 0.28
17 0.28
18 0.28
2 -0.56
20 0.06
21 0.06
22 0.56
23 0.28
25 0.27
26 0.56
28 0.28
3 -0.68
30 0.06
31 0.28
33 0.28
34 0.28
35 0.45
36 0.28
37 0.28
38 0.28
39 0.66
4 -0.56
48 0.27
49 0.27
5 -0.56
6 -0.43
7 -0.68
78 0.4
8 -0.68
9 -0.68

> <PUBCHEM_EFFECTIVE_ROTOR_COUNT>
10.8

> <PUBCHEM_PHARMACOPHORE_FEATURES>
22
1 1 acceptor
1 10 acceptor
1 10 donor
1 11 acceptor
1 11 donor
1 12 acceptor
1 13 acceptor
1 14 cation
1 2 acceptor
1 3 acceptor
1 3 donor
1 4 acceptor
1 5 acceptor
1 50 hydrophobe
1 7 acceptor
1 7 donor
1 8 acceptor
1 8 donor
1 9 acceptor
1 9 donor
6 4 22 23 25 32 36 rings
6 5 26 28 29 34 37 rings

> <PUBCHEM_HEAVY_ATOM_COUNT>
50

> <PUBCHEM_ATOM_DEF_STEREO_COUNT>
18

> <PUBCHEM_ATOM_UDEF_STEREO_COUNT>
0

> <PUBCHEM_BOND_DEF_STEREO_COUNT>
0

> <PUBCHEM_BOND_UDEF_STEREO_COUNT>
0

> <PUBCHEM_ISOTOPIC_ATOM_COUNT>
0

> <PUBCHEM_COMPONENT_COUNT>
1

> <PUBCHEM_CACTVS_TAUTO_COUNT>
3

> <PUBCHEM_CONFORMER_ID>
000147DD00000001

> <PUBCHEM_MMFF94_ENERGY>
188.9494

> <PUBCHEM_FEATURE_SELFOVERLAP>
111.747

> <PUBCHEM_SHAPE_FINGERPRINT>
10190108 129 18128232550882304147
10190206 1 18272650100493062948
10675989 125 18123753045621212356
11227688 84 18337956693310642765
11513181 2 18334295374707448639
11991303 11 18049728709307515647
12440605 4 18411694422234544617
12788726 201 18197505034522643864
140371 6 18054781785376082524
14068700 686 18336545998148487320
14681490 219 18337112250377436150
14725015 67 18266750087070988320
14790565 3 17837485624047552256
15001296 14 18336553788649229157
15160629 131 18116728326609773055
15200665 1 17974846473771207607
15276724 80 18409441518709481715
15351339 4 18271257027359794003
15361156 5 18268125653178885884
15444296 8 18261109686493293823
15484559 13 17400358343985557965
15684973 49 17538297515731213433
15927050 60 18267582588618193624
15968369 153 18334867103605171305
19311894 1 18263359342649117272
19319366 153 17270027668894639106
21583282 1 17557689541673627604
21703447 108 18116446851152962136
23536364 44 18270128915966916885
3388396 114 18338799987841307036
44344687 77 18266452110582545299
513202 73 18261386715830186199
6004065 56 17831866741909514246
6036956 94 17767946664195759004

> <PUBCHEM_SHAPE_MULTIPOLES>
947.69
15.48
7.76
2.46
5.66
8.97
-0.1
-7.8
-7.62
-7.92
1.24
-1.39
-2.87
-1.2

> <PUBCHEM_SHAPE_SELFOVERLAP>
1924.582

> <PUBCHEM_SHAPE_VOLUME>
546.7

> <PUBCHEM_COORDINATE_TYPE>
2
5
10

$$$$

