9996586
  -OEChem-07051213102D

 40 43  0     1  0  0  0  0  0999 V2000
    5.4920    1.3797    0.0000 O   0  0  0  0  0  0  0  0  0  0  0  0
    5.4804   -1.6896    0.0000 O   0  0  0  0  0  0  0  0  0  0  0  0
   10.8072   -0.4975    0.0000 O   0  0  0  0  0  0  0  0  0  0  0  0
   10.8134    1.1119    0.0000 O   0  0  0  0  0  0  0  0  0  0  0  0
    3.7320   -1.6550    0.0000 O   0  0  0  0  0  0  0  0  0  0  0  0
    2.0000    1.3450    0.0000 O   0  0  0  0  0  0  0  0  0  0  0  0
    6.3981   -0.1758    0.0000 C   0  0  3  0  0  0  0  0  0  0  0  0
    7.2622   -0.6792    0.0000 C   0  0  0  0  0  0  0  0  0  0  0  0
    6.3981    0.8658    0.0000 C   0  0  0  0  0  0  0  0  0  0  0  0
    5.4920   -0.6897    0.0000 C   0  0  0  0  0  0  0  0  0  0  0  0
    4.5981   -0.1550    0.0000 C   0  0  0  0  0  0  0  0  0  0  0  0
    8.1301   -0.1825    0.0000 C   0  0  0  0  0  0  0  0  0  0  0  0
    4.5981    0.8450    0.0000 C   0  0  0  0  0  0  0  0  0  0  0  0
    3.7320   -0.6550    0.0000 C   0  0  0  0  0  0  0  0  0  0  0  0
    8.9942   -0.6858    0.0000 C   0  0  0  0  0  0  0  0  0  0  0  0
    8.1340    0.8175    0.0000 C   0  0  0  0  0  0  0  0  0  0  0  0
    2.8660   -0.1550    0.0000 C   0  0  0  0  0  0  0  0  0  0  0  0
    3.7320    1.3450    0.0000 C   0  0  0  0  0  0  0  0  0  0  0  0
    9.8622   -0.1892    0.0000 C   0  0  0  0  0  0  0  0  0  0  0  0
    2.8660    0.8450    0.0000 C   0  0  0  0  0  0  0  0  0  0  0  0
    9.8660    0.8108    0.0000 C   0  0  0  0  0  0  0  0  0  0  0  0
    9.0019    1.3142    0.0000 C   0  0  0  0  0  0  0  0  0  0  0  0
    2.0000   -0.6550    0.0000 C   0  0  0  0  0  0  0  0  0  0  0  0
   11.3939    0.3049    0.0000 C   0  0  0  0  0  0  0  0  0  0  0  0
    7.1350    0.2478    0.0000 H   0  0  0  0  0  0  0  0  0  0  0  0
    6.8618   -1.1526    0.0000 H   0  0  0  0  0  0  0  0  0  0  0  0
    7.6589   -1.1556    0.0000 H   0  0  0  0  0  0  0  0  0  0  0  0
    7.0089    0.7597    0.0000 H   0  0  0  0  0  0  0  0  0  0  0  0
    6.6071    1.4495    0.0000 H   0  0  0  0  0  0  0  0  0  0  0  0
    8.9918   -1.3058    0.0000 H   0  0  0  0  0  0  0  0  0  0  0  0
    7.5982    1.1296    0.0000 H   0  0  0  0  0  0  0  0  0  0  0  0
    3.7320    1.9650    0.0000 H   0  0  0  0  0  0  0  0  0  0  0  0
    9.0043    1.9342    0.0000 H   0  0  0  0  0  0  0  0  0  0  0  0
    1.6900   -0.1181    0.0000 H   0  0  0  0  0  0  0  0  0  0  0  0
    1.4631   -0.9650    0.0000 H   0  0  0  0  0  0  0  0  0  0  0  0
    2.3100   -1.1919    0.0000 H   0  0  0  0  0  0  0  0  0  0  0  0
   11.8532   -0.1116    0.0000 H   0  0  0  0  0  0  0  0  0  0  0  0
   11.8564    0.7179    0.0000 H   0  0  0  0  0  0  0  0  0  0  0  0
    3.1951   -1.9650    0.0000 H   0  0  0  0  0  0  0  0  0  0  0  0
    2.0000    1.9650    0.0000 H   0  0  0  0  0  0  0  0  0  0  0  0
  1  9  1  0  0  0  0
  1 13  1  0  0  0  0
  2 10  2  0  0  0  0
  3 19  1  0  0  0  0
  3 24  1  0  0  0  0
  4 21  1  0  0  0  0
  4 24  1  0  0  0  0
  5 14  1  0  0  0  0
  5 39  1  0  0  0  0
  6 20  1  0  0  0  0
  6 40  1  0  0  0  0
  7  8  1  0  0  0  0
  7  9  1  0  0  0  0
  7 10  1  0  0  0  0
  7 25  1  0  0  0  0
  8 12  1  0  0  0  0
  8 26  1  0  0  0  0
  8 27  1  0  0  0  0
  9 28  1  0  0  0  0
  9 29  1  0  0  0  0
 10 11  1  0  0  0  0
 11 13  1  0  0  0  0
 11 14  2  0  0  0  0
 12 15  2  0  0  0  0
 12 16  1  0  0  0  0
 13 18  2  0  0  0  0
 14 17  1  0  0  0  0
 15 19  1  0  0  0  0
 15 30  1  0  0  0  0
 16 22  2  0  0  0  0
 16 31  1  0  0  0  0
 17 20  2  0  0  0  0
 17 23  1  0  0  0  0
 18 20  1  0  0  0  0
 18 32  1  0  0  0  0
 19 21  2  0  0  0  0
 21 22  1  0  0  0  0
 22 33  1  0  0  0  0
 23 34  1  0  0  0  0
 23 35  1  0  0  0  0
 23 36  1  0  0  0  0
 24 37  1  0  0  0  0
 24 38  1  0  0  0  0
M  END
> <PUBCHEM_COMPOUND_CID>
9996586

> <PUBCHEM_COMPOUND_CANONICALIZED>
1

> <PUBCHEM_CACTVS_COMPLEXITY>
482

> <PUBCHEM_CACTVS_HBOND_ACCEPTOR>
6

> <PUBCHEM_CACTVS_HBOND_DONOR>
2

> <PUBCHEM_CACTVS_ROTATABLE_BOND>
2

> <PUBCHEM_CACTVS_SUBSKEYS>
AAADceB4OAAAAAAAAAAAAAAAAAAAASAAAAA0YIAAAAAAAEiRQAAAGgAACAAADQSgmAMyDoAABgCIAqBSAAACCAAkIAAIiAEGiMgdJzaGNRqieWKl4BUOuQeI7PzOIAADCAAIQABAAAYQABCAAAAAAAAAAA==

> <PUBCHEM_IUPAC_OPENEYE_NAME>
3-(1,3-benzodioxol-5-ylmethyl)-5,7-dihydroxy-6-methyl-chroman-4-one

> <PUBCHEM_IUPAC_CAS_NAME>
3-(1,3-benzodioxol-5-ylmethyl)-5,7-dihydroxy-6-methyl-3,4-dihydro-2H-1-benzopyran-4-one

> <PUBCHEM_IUPAC_NAME>
3-(1,3-benzodioxol-5-ylmethyl)-5,7-dihydroxy-6-methyl-2,3-dihydrochromen-4-one

> <PUBCHEM_IUPAC_SYSTEMATIC_NAME>
3-(1,3-benzodioxol-5-ylmethyl)-6-methyl-5,7-bis(oxidanyl)-2,3-dihydrochromen-4-one

> <PUBCHEM_IUPAC_TRADITIONAL_NAME>
5,7-dihydroxy-6-methyl-3-piperonyl-chroman-4-one

> <PUBCHEM_IUPAC_INCHI>
InChI=1S/C18H16O6/c1-9-12(19)6-15-16(17(9)20)18(21)11(7-22-15)4-10-2-3-13-14(5-10)24-8-23-13/h2-3,5-6,11,19-20H,4,7-8H2,1H3

> <PUBCHEM_IUPAC_INCHIKEY>
QBRLTNYECODTFP-UHFFFAOYSA-N

> <PUBCHEM_XLOGP3_AA>
3.4

> <PUBCHEM_EXACT_MASS>
328.094688

> <PUBCHEM_MOLECULAR_FORMULA>
C18H16O6

> <PUBCHEM_MOLECULAR_WEIGHT>
328.31604

> <PUBCHEM_OPENEYE_CAN_SMILES>
CC1=C(C=C2C(=C1O)C(=O)C(CO2)CC3=CC4=C(C=C3)OCO4)O

> <PUBCHEM_OPENEYE_ISO_SMILES>
CC1=C(C=C2C(=C1O)C(=O)C(CO2)CC3=CC4=C(C=C3)OCO4)O

> <PUBCHEM_CACTVS_TPSA>
85.2

> <PUBCHEM_MONOISOTOPIC_WEIGHT>
328.094688

> <PUBCHEM_TOTAL_CHARGE>
0

> <PUBCHEM_HEAVY_ATOM_COUNT>
24

> <PUBCHEM_ATOM_DEF_STEREO_COUNT>
0

> <PUBCHEM_ATOM_UDEF_STEREO_COUNT>
1

> <PUBCHEM_BOND_DEF_STEREO_COUNT>
0

> <PUBCHEM_BOND_UDEF_STEREO_COUNT>
0

> <PUBCHEM_ISOTOPIC_ATOM_COUNT>
0

> <PUBCHEM_COMPONENT_COUNT>
1

> <PUBCHEM_CACTVS_TAUTO_COUNT>
21

> <PUBCHEM_COORDINATE_TYPE>
1
5
255

> <PUBCHEM_BONDANNOTATIONS>
11  13  8
11  14  8
12  15  8
12  16  8
13  18  8
14  17  8
15  19  8
16  22  8
17  20  8
18  20  8
19  21  8
21  22  8
7  25  3

$$$$

