14264
  -OEChem-06241222423D

 13 13  0     0  0  0  0  0  0999 V2000
   -0.8455   -0.0113    0.0161 S   0  0  0  0  0  0  0  0  0  0  0  0
    0.2599    1.1409    0.3884 O   0  0  0  0  0  0  0  0  0  0  0  0
   -1.3910   -0.5526    1.2432 O   0  0  0  0  0  0  0  0  0  0  0  0
   -1.6807    0.4584   -1.0688 O   0  0  0  0  0  0  0  0  0  0  0  0
    0.3758   -1.1433   -0.6293 C   0  0  0  0  0  0  0  0  0  0  0  0
    1.6749   -0.7045    0.0174 C   0  0  0  0  0  0  0  0  0  0  0  0
    1.6067    0.8124    0.0330 C   0  0  0  0  0  0  0  0  0  0  0  0
    0.4110   -1.0145   -1.7151 H   0  0  0  0  0  0  0  0  0  0  0  0
    0.0983   -2.1693   -0.3803 H   0  0  0  0  0  0  0  0  0  0  0  0
    2.5577   -1.0813   -0.5056 H   0  0  0  0  0  0  0  0  0  0  0  0
    1.7048   -1.0756    1.0491 H   0  0  0  0  0  0  0  0  0  0  0  0
    2.2945    1.2468    0.7632 H   0  0  0  0  0  0  0  0  0  0  0  0
    1.8154    1.2347   -0.9552 H   0  0  0  0  0  0  0  0  0  0  0  0
  1  2  1  0  0  0  0
  1  3  2  0  0  0  0
  1  4  2  0  0  0  0
  1  5  1  0  0  0  0
  2  7  1  0  0  0  0
  5  6  1  0  0  0  0
  5  8  1  0  0  0  0
  5  9  1  0  0  0  0
  6  7  1  0  0  0  0
  6 10  1  0  0  0  0
  6 11  1  0  0  0  0
  7 12  1  0  0  0  0
  7 13  1  0  0  0  0
M  END
> <PUBCHEM_COMPOUND_CID>
14264

> <PUBCHEM_CONFORMER_RMSD>
0.4

> <PUBCHEM_CONFORMER_DIVERSEORDER>
1

> <PUBCHEM_MMFF94_PARTIAL_CHARGES>
6
1 1.38
2 -0.46
3 -0.65
4 -0.65
5 0.11
7 0.28

> <PUBCHEM_EFFECTIVE_ROTOR_COUNT>
0.8

> <PUBCHEM_PHARMACOPHORE_FEATURES>
3
1 3 acceptor
1 4 acceptor
5 1 2 5 6 7 rings

> <PUBCHEM_HEAVY_ATOM_COUNT>
7

> <PUBCHEM_ATOM_DEF_STEREO_COUNT>
0

> <PUBCHEM_ATOM_UDEF_STEREO_COUNT>
0

> <PUBCHEM_BOND_DEF_STEREO_COUNT>
0

> <PUBCHEM_BOND_UDEF_STEREO_COUNT>
0

> <PUBCHEM_ISOTOPIC_ATOM_COUNT>
0

> <PUBCHEM_COMPONENT_COUNT>
1

> <PUBCHEM_CACTVS_TAUTO_COUNT>
1

> <PUBCHEM_CONFORMER_ID>
000037B800000001

> <PUBCHEM_MMFF94_ENERGY>
3.6214

> <PUBCHEM_FEATURE_SELFOVERLAP>
15.239

> <PUBCHEM_SHAPE_FINGERPRINT>
18185500 45 17530976807655073967
20096714 4 18114456747927675080
21040471 1 18261967227904899996
24536 1 18339917220604138984
29004967 10 18409158939546088626
5943 1 10174629794676631831

> <PUBCHEM_SHAPE_MULTIPOLES>
130.3
2.13
1.19
0.97
0.07
0.02
-0.08
-0.07
0.04
0.36
0.06
-0.5
0.06
0.14

> <PUBCHEM_SHAPE_SELFOVERLAP>
243.122

> <PUBCHEM_SHAPE_VOLUME>
82.4

> <PUBCHEM_COORDINATE_TYPE>
2
5
10

$$$$

