583242
  -OEChem-06241222452D

 42 45  0     1  0  0  0  0  0999 V2000
    4.8229    2.6527    0.0000 O   0  0  0  0  0  0  0  0  0  0  0  0
    5.6327   -0.9207    0.0000 O   0  0  0  0  0  0  0  0  0  0  0  0
    5.3007    0.7042    0.0000 C   0  0  3  0  0  0  0  0  0  0  0  0
    7.1327   -0.0546    0.0000 C   0  0  3  0  0  0  0  0  0  0  0  0
    5.5596    1.6701    0.0000 C   0  0  3  0  0  0  0  0  0  0  0  0
    7.3915    0.9113    0.0000 C   0  0  0  0  0  0  0  0  0  0  0  0
    3.7656   -0.5390    0.0000 C   0  0  0  0  0  0  0  0  0  0  0  0
    2.9566    0.8623    0.0000 C   0  0  0  0  0  0  0  0  0  0  0  0
    2.8520   -0.1322    0.0000 C   0  0  0  0  0  0  0  0  0  0  0  0
    5.0419   -0.2617    0.0000 C   0  0  0  0  0  0  0  0  0  0  0  0
    7.6327   -0.9207    0.0000 C   0  0  0  0  0  0  0  0  0  0  0  0
    3.8904   -1.5731    0.0000 C   0  0  0  0  0  0  0  0  0  0  0  0
    2.0000   -0.7314    0.0000 C   0  0  0  0  0  0  0  0  0  0  0  0
    7.1327   -1.7867    0.0000 C   0  0  0  0  0  0  0  0  0  0  0  0
    8.6327   -0.9207    0.0000 C   0  0  0  0  0  0  0  0  0  0  0  0
    3.0525   -2.1918    0.0000 C   0  0  0  0  0  0  0  0  0  0  0  0
    2.1009   -1.7682    0.0000 C   0  0  0  0  0  0  0  0  0  0  0  0
    7.6327   -2.6527    0.0000 C   0  0  0  0  0  0  0  0  0  0  0  0
    9.1327   -1.7867    0.0000 C   0  0  0  0  0  0  0  0  0  0  0  0
    6.1327   -1.7867    0.0000 C   0  0  0  0  0  0  0  0  0  0  0  0
    8.6327   -2.6527    0.0000 C   0  0  0  0  0  0  0  0  0  0  0  0
    5.6327   -2.6527    0.0000 C   0  0  0  0  0  0  0  0  0  0  0  0
    6.7239   -0.5208    0.0000 H   0  0  0  0  0  0  0  0  0  0  0  0
    5.5311    1.0508    0.0000 H   0  0  0  0  0  0  0  0  0  0  0  0
    7.9828    0.7248    0.0000 H   0  0  0  0  0  0  0  0  0  0  0  0
    7.6036    1.4939    0.0000 H   0  0  0  0  0  0  0  0  0  0  0  0
    2.8543    1.4738    0.0000 H   0  0  0  0  0  0  0  0  0  0  0  0
    2.3368    0.8434    0.0000 H   0  0  0  0  0  0  0  0  0  0  0  0
    4.4430   -0.1013    0.0000 H   0  0  0  0  0  0  0  0  0  0  0  0
    4.8814   -0.8606    0.0000 H   0  0  0  0  0  0  0  0  0  0  0  0
    5.6408   -0.4222    0.0000 H   0  0  0  0  0  0  0  0  0  0  0  0
    4.4597   -1.8187    0.0000 H   0  0  0  0  0  0  0  0  0  0  0  0
    1.4366   -0.4727    0.0000 H   0  0  0  0  0  0  0  0  0  0  0  0
    8.9427   -0.3837    0.0000 H   0  0  0  0  0  0  0  0  0  0  0  0
    3.1196   -2.8082    0.0000 H   0  0  0  0  0  0  0  0  0  0  0  0
    1.5979   -2.1306    0.0000 H   0  0  0  0  0  0  0  0  0  0  0  0
    7.3227   -3.1896    0.0000 H   0  0  0  0  0  0  0  0  0  0  0  0
    9.7527   -1.7867    0.0000 H   0  0  0  0  0  0  0  0  0  0  0  0
    8.9427   -3.1896    0.0000 H   0  0  0  0  0  0  0  0  0  0  0  0
    5.0958   -2.3427    0.0000 H   0  0  0  0  0  0  0  0  0  0  0  0
    5.3227   -3.1896    0.0000 H   0  0  0  0  0  0  0  0  0  0  0  0
    6.1696   -2.9627    0.0000 H   0  0  0  0  0  0  0  0  0  0  0  0
  1  3  1  0  0  0  0
  1  5  1  0  0  0  0
  2 20  2  0  0  0  0
  3  4  1  0  0  0  0
  3  7  1  0  0  0  0
  3 10  1  0  0  0  0
  4  6  1  0  0  0  0
  4 11  1  0  0  0  0
  4 23  1  0  0  0  0
  5  6  1  0  0  0  0
  5  8  1  0  0  0  0
  5 24  1  0  0  0  0
  6 25  1  0  0  0  0
  6 26  1  0  0  0  0
  7  9  1  0  0  0  0
  7 12  2  0  0  0  0
  8  9  1  0  0  0  0
  8 27  1  0  0  0  0
  8 28  1  0  0  0  0
  9 13  2  0  0  0  0
 10 29  1  0  0  0  0
 10 30  1  0  0  0  0
 10 31  1  0  0  0  0
 11 14  1  0  0  0  0
 11 15  2  0  0  0  0
 12 16  1  0  0  0  0
 12 32  1  0  0  0  0
 13 17  1  0  0  0  0
 13 33  1  0  0  0  0
 14 18  2  0  0  0  0
 14 20  1  0  0  0  0
 15 19  1  0  0  0  0
 15 34  1  0  0  0  0
 16 17  2  0  0  0  0
 16 35  1  0  0  0  0
 17 36  1  0  0  0  0
 18 21  1  0  0  0  0
 18 37  1  0  0  0  0
 19 21  2  0  0  0  0
 19 38  1  0  0  0  0
 20 22  1  0  0  0  0
 21 39  1  0  0  0  0
 22 40  1  0  0  0  0
 22 41  1  0  0  0  0
 22 42  1  0  0  0  0
M  END
> <PUBCHEM_COMPOUND_CID>
583242

> <PUBCHEM_COMPOUND_CANONICALIZED>
1

> <PUBCHEM_CACTVS_COMPLEXITY>
445

> <PUBCHEM_CACTVS_HBOND_ACCEPTOR>
2

> <PUBCHEM_CACTVS_HBOND_DONOR>
0

> <PUBCHEM_CACTVS_ROTATABLE_BOND>
2

> <PUBCHEM_CACTVS_SUBSKEYS>
AAADceB4MAAAAAAAAAAAAAAAAAAAASAAAAA0YIAABgAAAACRQAAAGgAAAAAADVSgmAIyAIAABACIAqBSAAACAAAkAAAIiAEACMgIJjKANRiCMQAkwAEIqYeIzPDOgAAAAAAQAAAAAAAAACAAAAAAAAAAAA==

> <PUBCHEM_IUPAC_INCHI>
InChI=1S/C20H20O2/c1-13(21)16-8-4-5-9-17(16)19-12-15-11-14-7-3-6-10-18(14)20(19,2)22-15/h3-10,15,19H,11-12H2,1-2H3

> <PUBCHEM_IUPAC_INCHIKEY>
AELODQMWEIKJNR-UHFFFAOYSA-N

> <PUBCHEM_XLOGP3_AA>
3.5

> <PUBCHEM_EXACT_MASS>
292.14633

> <PUBCHEM_MOLECULAR_FORMULA>
C20H20O2

> <PUBCHEM_MOLECULAR_WEIGHT>
292.3716

> <PUBCHEM_OPENEYE_CAN_SMILES>
CC(=O)C1=CC=CC=C1C2CC3CC4=CC=CC=C4C2(O3)C

> <PUBCHEM_OPENEYE_ISO_SMILES>
CC(=O)C1=CC=CC=C1C2CC3CC4=CC=CC=C4C2(O3)C

> <PUBCHEM_CACTVS_TPSA>
26.3

> <PUBCHEM_MONOISOTOPIC_WEIGHT>
292.14633

> <PUBCHEM_TOTAL_CHARGE>
0

> <PUBCHEM_HEAVY_ATOM_COUNT>
22

> <PUBCHEM_ATOM_DEF_STEREO_COUNT>
0

> <PUBCHEM_ATOM_UDEF_STEREO_COUNT>
3

> <PUBCHEM_BOND_DEF_STEREO_COUNT>
0

> <PUBCHEM_BOND_UDEF_STEREO_COUNT>
0

> <PUBCHEM_ISOTOPIC_ATOM_COUNT>
0

> <PUBCHEM_COMPONENT_COUNT>
1

> <PUBCHEM_CACTVS_TAUTO_COUNT>
2

> <PUBCHEM_COORDINATE_TYPE>
1
5
255

> <PUBCHEM_BONDANNOTATIONS>
11  14  8
11  15  8
12  16  8
13  17  8
14  18  8
15  19  8
16  17  8
18  21  8
19  21  8
3  10  3
4  11  3
5  8  3
7  12  8
7  9  8
9  13  8

$$$$

