444183
  -OEChem-07051212453D

 27 26  0     1  0  0  0  0  0999 V2000
   -1.0574   -1.5670    0.1193 P   0  0  1  0  0  0  0  0  0  0  0  0
    0.2951   -0.8740   -0.4406 O   0  0  0  0  0  0  0  0  0  0  0  0
   -1.9852   -0.3340    0.6088 O   0  0  0  0  0  0  0  0  0  0  0  0
    3.0804   -0.7043   -0.8459 O   0  0  0  0  0  0  0  0  0  0  0  0
    4.3992    1.5943   -0.0301 O   0  0  0  0  0  0  0  0  0  0  0  0
   -1.7811   -2.0979   -1.2276 O   0  0  0  0  0  0  0  0  0  0  0  0
   -0.8315   -2.6319    1.1539 O   0  0  0  0  0  0  0  0  0  0  0  0
   -3.4618    2.8680   -0.4283 N   0  0  0  0  0  0  0  0  0  0  0  0
    2.3480    0.3708   -0.2532 C   0  0  1  0  0  0  0  0  0  0  0  0
    1.1408   -0.2045    0.4788 C   0  0  0  0  0  0  0  0  0  0  0  0
    3.2805    1.1045    0.7016 C   0  0  0  0  0  0  0  0  0  0  0  0
   -2.2717    0.7343   -0.2775 C   0  0  0  0  0  0  0  0  0  0  0  0
   -3.1553    1.7416    0.4408 C   0  0  0  0  0  0  0  0  0  0  0  0
    2.0352    1.0212   -1.0767 H   0  0  0  0  0  0  0  0  0  0  0  0
    0.5781    0.5933    0.9739 H   0  0  0  0  0  0  0  0  0  0  0  0
    1.4597   -0.9307    1.2348 H   0  0  0  0  0  0  0  0  0  0  0  0
    3.6622    0.4425    1.4860 H   0  0  0  0  0  0  0  0  0  0  0  0
    2.7780    1.9551    1.1717 H   0  0  0  0  0  0  0  0  0  0  0  0
   -1.3347    1.2025   -0.5962 H   0  0  0  0  0  0  0  0  0  0  0  0
   -2.7821    0.3397   -1.1627 H   0  0  0  0  0  0  0  0  0  0  0  0
   -4.0842    1.2583    0.7636 H   0  0  0  0  0  0  0  0  0  0  0  0
   -2.6565    2.0946    1.3507 H   0  0  0  0  0  0  0  0  0  0  0  0
    3.3649   -1.3025   -0.1338 H   0  0  0  0  0  0  0  0  0  0  0  0
    4.8322    0.8296   -0.4468 H   0  0  0  0  0  0  0  0  0  0  0  0
   -2.5622   -2.6856   -1.1456 H   0  0  0  0  0  0  0  0  0  0  0  0
   -2.5992    3.3379   -0.7000 H   0  0  0  0  0  0  0  0  0  0  0  0
   -4.0106    3.5544    0.0877 H   0  0  0  0  0  0  0  0  0  0  0  0
  1  2  1  0  0  0  0
  1  3  1  0  0  0  0
  1  6  1  0  0  0  0
  1  7  2  0  0  0  0
  2 10  1  0  0  0  0
  3 12  1  0  0  0  0
  4  9  1  0  0  0  0
  4 23  1  0  0  0  0
  5 11  1  0  0  0  0
  5 24  1  0  0  0  0
  6 25  1  0  0  0  0
  8 13  1  0  0  0  0
  8 26  1  0  0  0  0
  8 27  1  0  0  0  0
  9 10  1  0  0  0  0
  9 11  1  0  0  0  0
  9 14  1  0  0  0  0
 10 15  1  0  0  0  0
 10 16  1  0  0  0  0
 11 17  1  0  0  0  0
 11 18  1  0  0  0  0
 12 13  1  0  0  0  0
 12 19  1  0  0  0  0
 12 20  1  0  0  0  0
 13 21  1  0  0  0  0
 13 22  1  0  0  0  0
M  END
> <PUBCHEM_COMPOUND_CID>
444183

> <PUBCHEM_CONFORMER_RMSD>
0.8

> <PUBCHEM_CONFORMER_DIVERSEORDER>
1
156
88
117
60
73
101
9
92
85
89
98
136
43
120
100
141
31
15
87
111
5
130
142
55
26
96
137
29
24
27
95
3
50
123
147
134
42
126
102
23
59
17
68
38
7
80
129
33
140
91
132
48
149
41
22
76
128
74
127
143
135
49
139
152
86
153
45
65
8
90
104
125
79
107
13
10
66
77
19
39
94
145
56
113
110
103
118
63
37
138
57
122
40
115
28
121
112
69
75
148
108
84
106
12
6
71
47
21
99
25
46
109
97
2
30
64
51
83
105
144
151
72
53
32
133
58
114
4
16
155
44
35
20
154
54
81
131
78
82
119
18
124
52
11
116
62
14
150
67
61
93
34
146
70
36

> <PUBCHEM_MMFF94_PARTIAL_CHARGES>
18
1 1.51
10 0.28
11 0.28
12 0.28
13 0.27
2 -0.55
23 0.4
24 0.4
25 0.5
26 0.36
27 0.36
3 -0.55
4 -0.68
5 -0.68
6 -0.77
7 -0.7
8 -0.99
9 0.28

> <PUBCHEM_EFFECTIVE_ROTOR_COUNT>
7

> <PUBCHEM_PHARMACOPHORE_FEATURES>
8
1 4 acceptor
1 4 donor
1 5 acceptor
1 5 donor
1 6 acceptor
1 7 acceptor
1 8 cation
1 8 donor

> <PUBCHEM_HEAVY_ATOM_COUNT>
13

> <PUBCHEM_ATOM_DEF_STEREO_COUNT>
1

> <PUBCHEM_ATOM_UDEF_STEREO_COUNT>
0

> <PUBCHEM_BOND_DEF_STEREO_COUNT>
0

> <PUBCHEM_BOND_UDEF_STEREO_COUNT>
0

> <PUBCHEM_ISOTOPIC_ATOM_COUNT>
0

> <PUBCHEM_COMPONENT_COUNT>
1

> <PUBCHEM_CACTVS_TAUTO_COUNT>
1

> <PUBCHEM_CONFORMER_ID>
0006C71700000001

> <PUBCHEM_MMFF94_ENERGY>
-4.6053

> <PUBCHEM_FEATURE_SELFOVERLAP>
40.614

> <PUBCHEM_SHAPE_FINGERPRINT>
122479 349 18411979182534298537
12500047 106 18408324376293436720
12532896 13 18413107285817431747
12932764 1 17750785559311898102
13294875 104 18119266175033436786
14123255 52 18340771558435263305
15775835 57 18339924921533456081
1741750 31 18408604777095833016
17834072 32 18411699897959903376
18186145 218 18114736165399013593
18342897 96 18408047312026508623
20605781 55 18339923835091262073
20645477 56 18261106340196408520
20645477 70 17168407338712475006
20653085 51 18261106413311202539
20671657 1 18051696847705663675
21524375 3 18338236097664269131
23402539 116 18194409892121121375
23500284 214 18408034117644590337
23557571 272 18115858621100787580
305870 269 18200597024190875371
3248919 1 18058170518920081566
81228 2 18197498428862526443

> <PUBCHEM_SHAPE_MULTIPOLES>
231.19
6.74
2.79
0.94
4.26
0.07
0
-6
0.33
-2.65
-0.05
-0.08
0.37
0.31

> <PUBCHEM_SHAPE_SELFOVERLAP>
414.783

> <PUBCHEM_SHAPE_VOLUME>
149.1

> <PUBCHEM_COORDINATE_TYPE>
2
5
10

$$$$

