47205664
  -OEChem-06241222593D

 38 38  0     1  0  0  0  0  0999 V2000
   -4.0113   -0.1903    2.0047 Cl  0  0  0  0  0  0  0  0  0  0  0  0
    0.2410   -1.4947    1.4531 O   0  0  0  0  0  0  0  0  0  0  0  0
    2.6508    0.3629   -1.2179 O   0  0  0  0  0  0  0  0  0  0  0  0
   -0.8264   -1.7276   -0.5984 N   0  0  0  0  0  0  0  0  0  0  0  0
    2.6741   -1.5317    0.1233 N   0  0  0  0  0  0  0  0  0  0  0  0
   -2.1645   -1.4034   -0.1586 C   0  0  1  0  0  0  0  0  0  0  0  0
   -2.4096    0.0899   -0.1826 C   0  0  0  0  0  0  0  0  0  0  0  0
   -3.1906   -2.1791   -0.9820 C   0  0  0  0  0  0  0  0  0  0  0  0
    1.5279   -2.1733   -0.4757 C   0  0  0  0  0  0  0  0  0  0  0  0
    0.2705   -1.7458    0.2509 C   0  0  0  0  0  0  0  0  0  0  0  0
   -3.2299    0.7125    0.7582 C   0  0  0  0  0  0  0  0  0  0  0  0
   -1.7918    0.8465   -1.1786 C   0  0  0  0  0  0  0  0  0  0  0  0
    4.3550    0.1487    0.4884 C   0  0  0  0  0  0  0  0  0  0  0  0
    4.8859    1.5035    0.0291 C   0  0  0  0  0  0  0  0  0  0  0  0
    3.1425   -0.2992   -0.3080 C   0  0  0  0  0  0  0  0  0  0  0  0
   -3.4326    2.0916    0.7031 C   0  0  0  0  0  0  0  0  0  0  0  0
   -1.9943    2.2255   -1.2336 C   0  0  0  0  0  0  0  0  0  0  0  0
   -2.8148    2.8480   -0.2929 C   0  0  0  0  0  0  0  0  0  0  0  0
    6.1182    1.9159    0.8176 C   0  0  0  0  0  0  0  0  0  0  0  0
   -2.2190   -1.7677    0.8730 H   0  0  0  0  0  0  0  0  0  0  0  0
   -0.6874   -1.9200   -1.5866 H   0  0  0  0  0  0  0  0  0  0  0  0
   -4.2103   -1.9929   -0.6289 H   0  0  0  0  0  0  0  0  0  0  0  0
   -3.0022   -3.2567   -0.9220 H   0  0  0  0  0  0  0  0  0  0  0  0
   -3.1487   -1.8966   -2.0405 H   0  0  0  0  0  0  0  0  0  0  0  0
    1.4813   -1.9170   -1.5386 H   0  0  0  0  0  0  0  0  0  0  0  0
    1.6463   -3.2556   -0.3695 H   0  0  0  0  0  0  0  0  0  0  0  0
    4.0724    0.1965    1.5469 H   0  0  0  0  0  0  0  0  0  0  0  0
    5.1345   -0.6151    0.3815 H   0  0  0  0  0  0  0  0  0  0  0  0
   -1.1615    0.3935   -1.9386 H   0  0  0  0  0  0  0  0  0  0  0  0
    5.1369    1.4653   -1.0377 H   0  0  0  0  0  0  0  0  0  0  0  0
    4.1084    2.2680    0.1444 H   0  0  0  0  0  0  0  0  0  0  0  0
    3.1356   -2.0004    0.8976 H   0  0  0  0  0  0  0  0  0  0  0  0
   -4.0691    2.5919    1.4285 H   0  0  0  0  0  0  0  0  0  0  0  0
   -1.5167    2.8144   -2.0113 H   0  0  0  0  0  0  0  0  0  0  0  0
   -2.9733    3.9216   -0.3366 H   0  0  0  0  0  0  0  0  0  0  0  0
    6.9264    1.1885    0.6913 H   0  0  0  0  0  0  0  0  0  0  0  0
    6.4805    2.8895    0.4729 H   0  0  0  0  0  0  0  0  0  0  0  0
    5.8916    1.9964    1.8855 H   0  0  0  0  0  0  0  0  0  0  0  0
  1 11  1  0  0  0  0
  2 10  2  0  0  0  0
  3 15  2  0  0  0  0
  4  6  1  0  0  0  0
  4 10  1  0  0  0  0
  4 21  1  0  0  0  0
  5  9  1  0  0  0  0
  5 15  1  0  0  0  0
  5 32  1  0  0  0  0
  6  7  1  0  0  0  0
  6  8  1  0  0  0  0
  6 20  1  0  0  0  0
  7 11  1  0  0  0  0
  7 12  2  0  0  0  0
  8 22  1  0  0  0  0
  8 23  1  0  0  0  0
  8 24  1  0  0  0  0
  9 10  1  0  0  0  0
  9 25  1  0  0  0  0
  9 26  1  0  0  0  0
 11 16  2  0  0  0  0
 12 17  1  0  0  0  0
 12 29  1  0  0  0  0
 13 14  1  0  0  0  0
 13 15  1  0  0  0  0
 13 27  1  0  0  0  0
 13 28  1  0  0  0  0
 14 19  1  0  0  0  0
 14 30  1  0  0  0  0
 14 31  1  0  0  0  0
 16 18  1  0  0  0  0
 16 33  1  0  0  0  0
 17 18  2  0  0  0  0
 17 34  1  0  0  0  0
 18 35  1  0  0  0  0
 19 36  1  0  0  0  0
 19 37  1  0  0  0  0
 19 38  1  0  0  0  0
M  END
> <PUBCHEM_COMPOUND_CID>
47205664

> <PUBCHEM_CONFORMER_RMSD>
1

> <PUBCHEM_CONFORMER_DIVERSEORDER>
1
84
105
7
125
141
163
24
137
86
104
149
110
103
54
100
39
109
154
45
49
129
115
166
111
164
171
31
34
27
5
20
18
162
15
76
181
36
133
123
180
55
26
57
37
17
161
124
128
29
177
151
52
101
47
92
2
89
13
35
167
38
138
145
33
119
120
81
169
131
130
90
42
79
43
4
108
116
102
178
117
19
153
148
3
73
60
118
96
16
28
176
150
72
53
69
62
12
83
99
22
50
25
46
95
135
11
156
77
107
172
88
165
106
14
140
112
58
139
9
170
136
94
30
41
175
132
10
97
158
93
67
146
160
179
48
134
75
8
144
40
74
121
65
6
127
61
63
155
157
114
70
147
174
122
159
113
142
91
56
59
23
173
68
78
168
32
152
87
126
21
82
51
71
44
85
64
66
80
143
98

> <PUBCHEM_MMFF94_PARTIAL_CHARGES>
22
1 -0.18
10 0.57
11 0.18
12 -0.15
13 0.06
15 0.57
16 -0.15
17 -0.15
18 -0.15
2 -0.57
21 0.37
29 0.15
3 -0.57
32 0.37
33 0.15
34 0.15
35 0.15
4 -0.73
5 -0.73
6 0.44
7 -0.14
9 0.36

> <PUBCHEM_EFFECTIVE_ROTOR_COUNT>
8

> <PUBCHEM_PHARMACOPHORE_FEATURES>
6
1 19 hydrophobe
1 2 acceptor
1 3 acceptor
1 4 donor
1 5 donor
6 7 11 12 16 17 18 rings

> <PUBCHEM_HEAVY_ATOM_COUNT>
19

> <PUBCHEM_ATOM_DEF_STEREO_COUNT>
0

> <PUBCHEM_ATOM_UDEF_STEREO_COUNT>
1

> <PUBCHEM_BOND_DEF_STEREO_COUNT>
0

> <PUBCHEM_BOND_UDEF_STEREO_COUNT>
0

> <PUBCHEM_ISOTOPIC_ATOM_COUNT>
0

> <PUBCHEM_COMPONENT_COUNT>
1

> <PUBCHEM_CACTVS_TAUTO_COUNT>
4

> <PUBCHEM_CONFORMER_ID>
02D04D2000000001

> <PUBCHEM_MMFF94_ENERGY>
34.03

> <PUBCHEM_FEATURE_SELFOVERLAP>
30.446

> <PUBCHEM_SHAPE_FINGERPRINT>
10670039 82 18270951350981134748
10764073 3 7240651693338138229
11715629 250 18411415154591669286
12173636 292 18189055451045554407
12363563 72 10735868491425016858
12403814 3 18412820305246425299
12596602 18 16415201118652013808
12892183 10 17703794730164001898
14123255 352 18411144640862017276
14251764 75 18116706516106857273
14466204 15 18337687313188659048
15342168 16 18043808912860289233
18186145 218 18113613538658313566
18981168 100 17969524721539009859
20645477 56 18335412495774776622
21069387 34 10663806452328221667
21095088 737 18339098067551987397
21623110 236 18194119620761198957
21864079 5 18339083795217081862
22907989 373 17896059748670734207
23227448 37 18407478864462363445
23503958 25 18198045066334783956
27216 239 18342454898078963217
5104073 3 18200027477188598536
574716 61 4750304297548251536
9981440 41 18341900658382970522

> <PUBCHEM_SHAPE_MULTIPOLES>
371.18
10.52
3.09
1.35
16.73
0.54
0.33
6.56
3.08
-1.23
-0.49
-1.16
0.09
0.37

> <PUBCHEM_SHAPE_SELFOVERLAP>
738.851

> <PUBCHEM_SHAPE_VOLUME>
219.5

> <PUBCHEM_COORDINATE_TYPE>
2
5
10

$$$$

