15102684
  -OEChem-07051213113D

 46 49  0     1  0  0  0  0  0999 V2000
    1.8162   -2.0114   -0.3445 O   0  0  0  0  0  0  0  0  0  0  0  0
    0.4650   -3.0185    1.2137 O   0  0  0  0  0  0  0  0  0  0  0  0
   -2.0423    0.4146    0.7106 O   0  0  0  0  0  0  0  0  0  0  0  0
   -3.9260   -0.8850    0.1352 O   0  0  0  0  0  0  0  0  0  0  0  0
   -5.6994   -0.9733   -1.3256 O   0  0  0  0  0  0  0  0  0  0  0  0
    4.3123   -0.0741   -0.2579 C   0  0  0  0  0  0  0  0  0  0  0  0
    2.8374    0.1949   -0.4630 C   0  0  0  0  0  0  0  0  0  0  0  0
    1.8568   -0.7730   -1.0605 C   0  0  2  0  0  0  0  0  0  0  0  0
    0.4985   -0.0930   -0.8880 C   0  0  2  0  0  0  0  0  0  0  0  0
    2.2426    1.3646   -0.1878 C   0  0  0  0  0  0  0  0  0  0  0  0
    0.7930    1.3754   -0.5521 C   0  0  0  0  0  0  0  0  0  0  0  0
    5.0654    1.2752   -0.0580 C   0  0  0  0  0  0  0  0  0  0  0  0
    2.9259    2.5602    0.3828 C   0  0  0  0  0  0  0  0  0  0  0  0
    4.3342    2.2336    0.8873 C   0  0  0  0  0  0  0  0  0  0  0  0
   -0.1119   -0.9094    0.1980 C   0  0  0  0  0  0  0  0  0  0  0  0
    4.9251   -0.7835   -1.4788 C   0  0  0  0  0  0  0  0  0  0  0  0
    4.5134   -0.9634    0.9844 C   0  0  0  0  0  0  0  0  0  0  0  0
    0.7134   -2.1037    0.4489 C   0  0  0  0  0  0  0  0  0  0  0  0
   -1.2293   -0.6696    0.8887 C   0  0  0  0  0  0  0  0  0  0  0  0
   -3.3913    0.1030    1.0213 C   0  0  2  0  0  0  0  0  0  0  0  0
   -4.2863    1.2618    0.8352 C   0  0  0  0  0  0  0  0  0  0  0  0
   -5.2449    0.9982   -0.0489 C   0  0  0  0  0  0  0  0  0  0  0  0
   -5.0198   -0.3785   -0.5068 C   0  0  0  0  0  0  0  0  0  0  0  0
   -6.3478    1.8551   -0.5342 C   0  0  0  0  0  0  0  0  0  0  0  0
    2.0817   -0.9680   -2.1146 H   0  0  0  0  0  0  0  0  0  0  0  0
   -0.1095   -0.1801   -1.7963 H   0  0  0  0  0  0  0  0  0  0  0  0
    0.1795    1.7626    0.2662 H   0  0  0  0  0  0  0  0  0  0  0  0
    0.6400    2.0108   -1.4317 H   0  0  0  0  0  0  0  0  0  0  0  0
    5.1885    1.7791   -1.0269 H   0  0  0  0  0  0  0  0  0  0  0  0
    6.0782    1.0927    0.3225 H   0  0  0  0  0  0  0  0  0  0  0  0
    2.9859    3.3333   -0.3926 H   0  0  0  0  0  0  0  0  0  0  0  0
    2.3382    2.9744    1.2098 H   0  0  0  0  0  0  0  0  0  0  0  0
    4.9076    3.1619    0.9925 H   0  0  0  0  0  0  0  0  0  0  0  0
    4.2732    1.7915    1.8890 H   0  0  0  0  0  0  0  0  0  0  0  0
    4.7658   -0.2068   -2.3975 H   0  0  0  0  0  0  0  0  0  0  0  0
    6.0058   -0.9175   -1.3535 H   0  0  0  0  0  0  0  0  0  0  0  0
    4.4889   -1.7773   -1.6316 H   0  0  0  0  0  0  0  0  0  0  0  0
    5.5781   -1.0725    1.2215 H   0  0  0  0  0  0  0  0  0  0  0  0
    4.0172   -0.5489    1.8689 H   0  0  0  0  0  0  0  0  0  0  0  0
    4.1164   -1.9725    0.8300 H   0  0  0  0  0  0  0  0  0  0  0  0
   -1.5661   -1.3358    1.6735 H   0  0  0  0  0  0  0  0  0  0  0  0
   -3.4788   -0.2561    2.0556 H   0  0  0  0  0  0  0  0  0  0  0  0
   -4.1757    2.2009    1.3585 H   0  0  0  0  0  0  0  0  0  0  0  0
   -6.3244    2.8428   -0.0627 H   0  0  0  0  0  0  0  0  0  0  0  0
   -7.3163    1.3975   -0.3096 H   0  0  0  0  0  0  0  0  0  0  0  0
   -6.2753    1.9970   -1.6171 H   0  0  0  0  0  0  0  0  0  0  0  0
  1  8  1  0  0  0  0
  1 18  1  0  0  0  0
  2 18  2  0  0  0  0
  3 19  1  0  0  0  0
  3 20  1  0  0  0  0
  4 20  1  0  0  0  0
  4 23  1  0  0  0  0
  5 23  2  0  0  0  0
  6  7  1  0  0  0  0
  6 12  1  0  0  0  0
  6 16  1  0  0  0  0
  6 17  1  0  0  0  0
  7  8  1  0  0  0  0
  7 10  2  0  0  0  0
  8  9  1  0  0  0  0
  8 25  1  0  0  0  0
  9 11  1  0  0  0  0
  9 15  1  0  0  0  0
  9 26  1  0  0  0  0
 10 11  1  0  0  0  0
 10 13  1  0  0  0  0
 11 27  1  0  0  0  0
 11 28  1  0  0  0  0
 12 14  1  0  0  0  0
 12 29  1  0  0  0  0
 12 30  1  0  0  0  0
 13 14  1  0  0  0  0
 13 31  1  0  0  0  0
 13 32  1  0  0  0  0
 14 33  1  0  0  0  0
 14 34  1  0  0  0  0
 15 18  1  0  0  0  0
 15 19  2  0  0  0  0
 16 35  1  0  0  0  0
 16 36  1  0  0  0  0
 16 37  1  0  0  0  0
 17 38  1  0  0  0  0
 17 39  1  0  0  0  0
 17 40  1  0  0  0  0
 19 41  1  0  0  0  0
 20 21  1  0  0  0  0
 20 42  1  0  0  0  0
 21 22  2  0  0  0  0
 21 43  1  0  0  0  0
 22 23  1  0  0  0  0
 22 24  1  0  0  0  0
 24 44  1  0  0  0  0
 24 45  1  0  0  0  0
 24 46  1  0  0  0  0
M  END
> <PUBCHEM_COMPOUND_CID>
15102684

> <PUBCHEM_CONFORMER_RMSD>
0.6

> <PUBCHEM_CONFORMER_DIVERSEORDER>
1
14
3
19
8
15
18
11
4
2
7
5
13
17
16
10
9
12
6

> <PUBCHEM_MMFF94_PARTIAL_CHARGES>
22
1 -0.43
10 -0.28
11 0.14
13 0.14
15 -0.12
18 0.71
19 -0.07
2 -0.57
20 0.7
21 -0.29
22 -0.12
23 0.71
24 0.14
3 -0.36
4 -0.43
41 0.15
43 0.15
5 -0.57
6 0.14
7 -0.28
8 0.42
9 0.14

> <PUBCHEM_EFFECTIVE_ROTOR_COUNT>
3.6

> <PUBCHEM_PHARMACOPHORE_FEATURES>
8
1 2 acceptor
1 3 acceptor
1 5 acceptor
3 6 16 17 hydrophobe
5 1 8 9 15 18 rings
5 4 20 21 22 23 rings
5 7 8 9 10 11 rings
6 6 7 10 12 13 14 rings

> <PUBCHEM_HEAVY_ATOM_COUNT>
24

> <PUBCHEM_ATOM_DEF_STEREO_COUNT>
3

> <PUBCHEM_ATOM_UDEF_STEREO_COUNT>
0

> <PUBCHEM_BOND_DEF_STEREO_COUNT>
1

> <PUBCHEM_BOND_UDEF_STEREO_COUNT>
0

> <PUBCHEM_ISOTOPIC_ATOM_COUNT>
0

> <PUBCHEM_COMPONENT_COUNT>
1

> <PUBCHEM_CACTVS_TAUTO_COUNT>
1

> <PUBCHEM_CONFORMER_ID>
00E672DC00000001

> <PUBCHEM_MMFF94_ENERGY>
41.8813

> <PUBCHEM_FEATURE_SELFOVERLAP>
41.114

> <PUBCHEM_SHAPE_FINGERPRINT>
10411042 1 17691970779561677218
11089746 13 18410858767274091722
11796584 16 14764626417264330512
12011746 2 18411407424351734204
12236239 1 17967252001039644479
12403259 415 18270386214139961057
12403260 363 18335701658706101920
12467345 10 17967535636316359567
14251764 30 8069758398453398921
14251764 38 18196931076530813713
14528608 73 18334858311807025045
14787075 74 18186801348649577944
15788980 27 17894627058954363103
1601671 61 17489582359796478100
17349148 13 18261384546666025249
18681886 176 17749113291861428118
200 152 18113335310776800029
20028762 73 18113902688752418046
20157964 124 18260266339040503652
20197701 30 18336548231009079395
20511986 3 18260845808108013077
21033648 29 18271525299465020960
21521239 73 18113901541700510399
21709351 56 18408885135771521413
22393880 68 18409167718992102135
22950370 63 9079124366391852473
23402539 116 18408887339021094261
23559900 14 18260537906170980770
29717793 49 17240758527623941917
335352 9 18410289195583588540
34797466 226 17458337512121431469
351380 180 18408039602296851505
3545911 37 18343013411742565873
4072396 5 18202007672087480010
474 4 18337107869579450392
495365 180 17822292336916191624
5104073 3 18272363205341179675
6328613 192 18200018548680090276
633830 44 18409735027741100110
6669772 16 16372718145079893472
8509985 295 18272936029239895000
9981440 41 16886973889582175008

> <PUBCHEM_SHAPE_MULTIPOLES>
464.56
13.8
2.44
1.16
15.86
0.08
-0.06
-5.13
-2.12
-1.34
0.58
-0.16
0.25
0.35

> <PUBCHEM_SHAPE_SELFOVERLAP>
1013.864

> <PUBCHEM_SHAPE_VOLUME>
255.9

> <PUBCHEM_COORDINATE_TYPE>
2
5
10

$$$$

