11996
  -OEChem-06261206232D

 23 21  0     0  0  0  0  0  0999 V2000
    0.0000    3.3100    0.0000 Cl  0  0  0  0  0  0  0  0  0  0  0  0
    4.3360    0.0000    0.0000 Cl  0  0  0  0  0  0  0  0  0  0  0  0
    5.2690    6.8100    0.0000 N   0  0  0  0  0  0  0  0  0  0  0  0
    5.2690    2.8100    0.0000 N   0  0  0  0  0  0  0  0  0  0  0  0
    4.4030    5.3100    0.0000 C   0  0  0  0  0  0  0  0  0  0  0  0
    5.2690    5.8100    0.0000 C   0  0  0  0  0  0  0  0  0  0  0  0
    4.4030    4.3100    0.0000 C   0  0  0  0  0  0  0  0  0  0  0  0
    5.2690    3.8100    0.0000 C   0  0  0  0  0  0  0  0  0  0  0  0
    6.1350    5.3100    0.0000 C   0  0  0  0  0  0  0  0  0  0  0  0
    6.1350    4.3100    0.0000 C   0  0  0  0  0  0  0  0  0  0  0  0
    3.5369    5.8100    0.0000 C   0  0  0  0  0  0  0  0  0  0  0  0
    3.8660    4.0000    0.0000 H   0  0  0  0  0  0  0  0  0  0  0  0
    6.6720    5.6200    0.0000 H   0  0  0  0  0  0  0  0  0  0  0  0
    6.6720    4.0000    0.0000 H   0  0  0  0  0  0  0  0  0  0  0  0
    3.8469    6.3469    0.0000 H   0  0  0  0  0  0  0  0  0  0  0  0
    3.0000    6.1200    0.0000 H   0  0  0  0  0  0  0  0  0  0  0  0
    3.2269    5.2731    0.0000 H   0  0  0  0  0  0  0  0  0  0  0  0
    5.8059    7.1200    0.0000 H   0  0  0  0  0  0  0  0  0  0  0  0
    4.7320    7.1200    0.0000 H   0  0  0  0  0  0  0  0  0  0  0  0
    5.8059    2.5000    0.0000 H   0  0  0  0  0  0  0  0  0  0  0  0
    4.7320    2.5000    0.0000 H   0  0  0  0  0  0  0  0  0  0  0  0
    1.0000    3.3100    0.0000 H   0  0  0  0  0  0  0  0  0  0  0  0
    5.3360    0.0000    0.0000 H   0  0  0  0  0  0  0  0  0  0  0  0
  1 22  1  0  0  0  0
  2 23  1  0  0  0  0
  3  6  1  0  0  0  0
  3 18  1  0  0  0  0
  3 19  1  0  0  0  0
  4  8  1  0  0  0  0
  4 20  1  0  0  0  0
  4 21  1  0  0  0  0
  5  6  2  0  0  0  0
  5  7  1  0  0  0  0
  5 11  1  0  0  0  0
  6  9  1  0  0  0  0
  7  8  2  0  0  0  0
  7 12  1  0  0  0  0
  8 10  1  0  0  0  0
  9 10  2  0  0  0  0
  9 13  1  0  0  0  0
 10 14  1  0  0  0  0
 11 15  1  0  0  0  0
 11 16  1  0  0  0  0
 11 17  1  0  0  0  0
M  END
> <PUBCHEM_COMPOUND_CID>
11996

> <PUBCHEM_COMPOUND_CANONICALIZED>
1

> <PUBCHEM_CACTVS_COMPLEXITY>
92.9

> <PUBCHEM_CACTVS_HBOND_ACCEPTOR>
2

> <PUBCHEM_CACTVS_HBOND_DONOR>
4

> <PUBCHEM_CACTVS_ROTATABLE_BOND>
0

> <PUBCHEM_CACTVS_SUBSKEYS>
AAADccBjAAAGAAAAAAAAAAAAAAAAAAAAAAAwAAAAAAAAAAABAAAAHAAQAAAADAiBGAAywIBAAACAAiRCQACCAAAgAgAIiAAAZIgIICKAkZGAIABgkAAIyAcQgAAOAACAQAACAAAAAQCAAAQAAAAAAAAAAA==

> <PUBCHEM_IUPAC_OPENEYE_NAME>
2-methylbenzene-1,4-diamine dihydrochloride

> <PUBCHEM_IUPAC_CAS_NAME>
2-methylbenzene-1,4-diamine dihydrochloride

> <PUBCHEM_IUPAC_NAME>
2-methylbenzene-1,4-diamine dihydrochloride

> <PUBCHEM_IUPAC_SYSTEMATIC_NAME>
2-methylbenzene-1,4-diamine dihydrochloride

> <PUBCHEM_IUPAC_TRADITIONAL_NAME>
(4-amino-2-methyl-phenyl)amine dihydrochloride

> <PUBCHEM_IUPAC_INCHI>
InChI=1S/C7H10N2.2ClH/c1-5-4-6(8)2-3-7(5)9;;/h2-4H,8-9H2,1H3;2*1H

> <PUBCHEM_IUPAC_INCHIKEY>
VQUHVWVGRKTIBH-UHFFFAOYSA-N

> <PUBCHEM_EXACT_MASS>
194.037754

> <PUBCHEM_MOLECULAR_FORMULA>
C7H12Cl2N2

> <PUBCHEM_MOLECULAR_WEIGHT>
195.08958

> <PUBCHEM_OPENEYE_CAN_SMILES>
CC1=C(C=CC(=C1)N)N.Cl.Cl

> <PUBCHEM_OPENEYE_ISO_SMILES>
CC1=C(C=CC(=C1)N)N.Cl.Cl

> <PUBCHEM_CACTVS_TPSA>
52

> <PUBCHEM_MONOISOTOPIC_WEIGHT>
194.037754

> <PUBCHEM_TOTAL_CHARGE>
0

> <PUBCHEM_HEAVY_ATOM_COUNT>
11

> <PUBCHEM_ATOM_DEF_STEREO_COUNT>
0

> <PUBCHEM_ATOM_UDEF_STEREO_COUNT>
0

> <PUBCHEM_BOND_DEF_STEREO_COUNT>
0

> <PUBCHEM_BOND_UDEF_STEREO_COUNT>
0

> <PUBCHEM_ISOTOPIC_ATOM_COUNT>
0

> <PUBCHEM_COMPONENT_COUNT>
3

> <PUBCHEM_CACTVS_TAUTO_COUNT>
1

> <PUBCHEM_COORDINATE_TYPE>
1
5
255

> <PUBCHEM_BONDANNOTATIONS>
5  6  8
5  7  8
6  9  8
7  8  8
8  10  8
9  10  8

$$$$

