64695
  -OEChem-07051213002D

 41 43  0     1  0  0  0  0  0999 V2000
    6.3301   -1.5755    0.0000 O   0  0  0  0  0  0  0  0  0  0  0  0
    5.4641   -0.0755    0.0000 O   0  0  0  0  0  0  0  0  0  0  0  0
    9.1671    1.7095    0.0000 N   0  0  0  0  0  0  0  0  0  0  0  0
    9.9037    0.7268    0.0000 C   0  0  3  0  0  0  0  0  0  0  0  0
    9.6448   -0.2391    0.0000 C   0  0  3  0  0  0  0  0  0  0  0  0
   11.7356   -0.0320    0.0000 C   0  0  0  0  0  0  0  0  0  0  0  0
   11.4768   -0.9979    0.0000 C   0  0  0  0  0  0  0  0  0  0  0  0
    7.3007   -0.0810    0.0000 C   0  0  0  0  0  0  0  0  0  0  0  0
    8.1097   -1.4822    0.0000 C   0  0  0  0  0  0  0  0  0  0  0  0
    7.1962   -1.0755    0.0000 C   0  0  0  0  0  0  0  0  0  0  0  0
    8.6671    2.5755    0.0000 C   0  0  0  0  0  0  0  0  0  0  0  0
    5.4641   -1.0755    0.0000 C   0  0  0  0  0  0  0  0  0  0  0  0
    4.5981   -1.5755    0.0000 C   0  0  0  0  0  0  0  0  0  0  0  0
    3.7320   -1.0755    0.0000 C   0  0  0  0  0  0  0  0  0  0  0  0
    4.5981   -2.5755    0.0000 C   0  0  0  0  0  0  0  0  0  0  0  0
    2.8660   -1.5755    0.0000 C   0  0  0  0  0  0  0  0  0  0  0  0
    3.7320   -0.0755    0.0000 C   0  0  0  0  0  0  0  0  0  0  0  0
    2.0000   -1.0755    0.0000 C   0  0  0  0  0  0  0  0  0  0  0  0
    2.8660    0.4245    0.0000 C   0  0  0  0  0  0  0  0  0  0  0  0
    2.0000   -0.0755    0.0000 C   0  0  0  0  0  0  0  0  0  0  0  0
    9.8752    0.1075    0.0000 H   0  0  0  0  0  0  0  0  0  0  0  0
    9.7338   -0.8527    0.0000 H   0  0  0  0  0  0  0  0  0  0  0  0
   11.2648   -1.5805    0.0000 H   0  0  0  0  0  0  0  0  0  0  0  0
   12.0681   -1.1843    0.0000 H   0  0  0  0  0  0  0  0  0  0  0  0
   12.3269   -0.2184    0.0000 H   0  0  0  0  0  0  0  0  0  0  0  0
   11.9477    0.5506    0.0000 H   0  0  0  0  0  0  0  0  0  0  0  0
    7.1984    0.5305    0.0000 H   0  0  0  0  0  0  0  0  0  0  0  0
    6.6810   -0.0999    0.0000 H   0  0  0  0  0  0  0  0  0  0  0  0
    7.7720   -2.0022    0.0000 H   0  0  0  0  0  0  0  0  0  0  0  0
    8.5704   -1.8971    0.0000 H   0  0  0  0  0  0  0  0  0  0  0  0
    6.6762   -0.7378    0.0000 H   0  0  0  0  0  0  0  0  0  0  0  0
    9.2040    2.8855    0.0000 H   0  0  0  0  0  0  0  0  0  0  0  0
    8.3571    3.1124    0.0000 H   0  0  0  0  0  0  0  0  0  0  0  0
    8.1301    2.2655    0.0000 H   0  0  0  0  0  0  0  0  0  0  0  0
    4.0611   -2.8855    0.0000 H   0  0  0  0  0  0  0  0  0  0  0  0
    5.1350   -2.8855    0.0000 H   0  0  0  0  0  0  0  0  0  0  0  0
    2.8660   -2.1955    0.0000 H   0  0  0  0  0  0  0  0  0  0  0  0
    4.2690    0.2345    0.0000 H   0  0  0  0  0  0  0  0  0  0  0  0
    1.4631   -1.3855    0.0000 H   0  0  0  0  0  0  0  0  0  0  0  0
    2.8660    1.0445    0.0000 H   0  0  0  0  0  0  0  0  0  0  0  0
    1.4631    0.2345    0.0000 H   0  0  0  0  0  0  0  0  0  0  0  0
  1 10  1  0  0  0  0
  1 12  1  0  0  0  0
  2 12  2  0  0  0  0
  3  4  1  0  0  0  0
  3  5  1  0  0  0  0
  3 11  1  0  0  0  0
  4  6  1  0  0  0  0
  4  8  1  0  0  0  0
  4 21  1  0  0  0  0
  5  7  1  0  0  0  0
  5  9  1  0  0  0  0
  5 22  1  0  0  0  0
  6  7  1  0  0  0  0
  6 25  1  0  0  0  0
  6 26  1  0  0  0  0
  7 23  1  0  0  0  0
  7 24  1  0  0  0  0
  8 10  1  0  0  0  0
  8 27  1  0  0  0  0
  8 28  1  0  0  0  0
  9 10  1  0  0  0  0
  9 29  1  0  0  0  0
  9 30  1  0  0  0  0
 10 31  1  0  0  0  0
 11 32  1  0  0  0  0
 11 33  1  0  0  0  0
 11 34  1  0  0  0  0
 12 13  1  0  0  0  0
 13 14  1  0  0  0  0
 13 15  2  0  0  0  0
 14 16  2  0  0  0  0
 14 17  1  0  0  0  0
 15 35  1  0  0  0  0
 15 36  1  0  0  0  0
 16 18  1  0  0  0  0
 16 37  1  0  0  0  0
 17 19  2  0  0  0  0
 17 38  1  0  0  0  0
 18 20  2  0  0  0  0
 18 39  1  0  0  0  0
 19 20  1  0  0  0  0
 19 40  1  0  0  0  0
 20 41  1  0  0  0  0
M  END
> <PUBCHEM_COMPOUND_CID>
64695

> <PUBCHEM_COMPOUND_CANONICALIZED>
1

> <PUBCHEM_CACTVS_COMPLEXITY>
373

> <PUBCHEM_CACTVS_HBOND_ACCEPTOR>
3

> <PUBCHEM_CACTVS_HBOND_DONOR>
0

> <PUBCHEM_CACTVS_ROTATABLE_BOND>
4

> <PUBCHEM_CACTVS_SUBSKEYS>
AAADceB6MAAAAAAAAAAAAAAAAAAAAWAAAAA8QAAABgAAAAABAAAAHgAAAAAADDzhmAYyCIMABACIAiDSCAACAAAgAAAIiAEIAMgIJDKAtRCGIAAmwAGIqIeYyKCOAAAAAAAAAAAAAAAAAAAAAAAAAAAAAA==

> <PUBCHEM_IUPAC_OPENEYE_NAME>
(8-methyl-8-azabicyclo[3.2.1]octan-3-yl) 2-phenylprop-2-enoate

> <PUBCHEM_IUPAC_CAS_NAME>
2-phenyl-2-propenoic acid (8-methyl-8-azabicyclo[3.2.1]octan-3-yl) ester

> <PUBCHEM_IUPAC_NAME>
(8-methyl-8-azabicyclo[3.2.1]octan-3-yl) 2-phenylprop-2-enoate

> <PUBCHEM_IUPAC_SYSTEMATIC_NAME>
(8-methyl-8-azabicyclo[3.2.1]octan-3-yl) 2-phenylprop-2-enoate

> <PUBCHEM_IUPAC_TRADITIONAL_NAME>
2-phenylacrylic acid (8-methyl-8-azabicyclo[3.2.1]octan-3-yl) ester

> <PUBCHEM_IUPAC_INCHI>
InChI=1S/C17H21NO2/c1-12(13-6-4-3-5-7-13)17(19)20-16-10-14-8-9-15(11-16)18(14)2/h3-7,14-16H,1,8-11H2,2H3

> <PUBCHEM_IUPAC_INCHIKEY>
WPUIZWXOSDVQJU-UHFFFAOYSA-N

> <PUBCHEM_XLOGP3_AA>
3.6

> <PUBCHEM_EXACT_MASS>
271.157229

> <PUBCHEM_MOLECULAR_FORMULA>
C17H21NO2

> <PUBCHEM_MOLECULAR_WEIGHT>
271.35414

> <PUBCHEM_OPENEYE_CAN_SMILES>
CN1C2CCC1CC(C2)OC(=O)C(=C)C3=CC=CC=C3

> <PUBCHEM_OPENEYE_ISO_SMILES>
CN1C2CCC1CC(C2)OC(=O)C(=C)C3=CC=CC=C3

> <PUBCHEM_CACTVS_TPSA>
29.5

> <PUBCHEM_MONOISOTOPIC_WEIGHT>
271.157229

> <PUBCHEM_TOTAL_CHARGE>
0

> <PUBCHEM_HEAVY_ATOM_COUNT>
20

> <PUBCHEM_ATOM_DEF_STEREO_COUNT>
0

> <PUBCHEM_ATOM_UDEF_STEREO_COUNT>
2

> <PUBCHEM_BOND_DEF_STEREO_COUNT>
0

> <PUBCHEM_BOND_UDEF_STEREO_COUNT>
0

> <PUBCHEM_ISOTOPIC_ATOM_COUNT>
0

> <PUBCHEM_COMPONENT_COUNT>
1

> <PUBCHEM_CACTVS_TAUTO_COUNT>
1

> <PUBCHEM_COORDINATE_TYPE>
1
5
255

> <PUBCHEM_BONDANNOTATIONS>
14  16  8
14  17  8
16  18  8
17  19  8
18  20  8
19  20  8
4  6  3
5  7  3

$$$$

