23724582
  -OEChem-07051213082D

 79 82  0     1  0  0  0  0  0999 V2000
    6.1847   -4.1911    0.0000 O   0  0  0  0  0  0  0  0  0  0  0  0
    2.5357   -3.1742    0.0000 O   0  0  0  0  0  0  0  0  0  0  0  0
   10.8321    0.5953    0.0000 O   0  0  0  0  0  0  0  0  0  0  0  0
    7.9288   -0.1219    0.0000 C   0  0  1  0  0  0  0  0  0  0  0  0
    7.9288   -1.1219    0.0000 C   0  0  3  0  0  0  0  0  0  0  0  0
    7.0628   -1.6219    0.0000 C   0  0  1  0  0  0  0  0  0  0  0  0
    6.1968   -1.1219    0.0000 C   0  0  1  0  0  0  0  0  0  0  0  0
    5.2868   -1.6287    0.0000 C   0  0  2  0  0  0  0  0  0  0  0  0
    8.8750    0.1828    0.0000 C   0  0  2  0  0  0  0  0  0  0  0  0
    7.0628    0.3781    0.0000 C   0  0  0  0  0  0  0  0  0  0  0  0
    6.1968   -0.1219    0.0000 C   0  0  0  0  0  0  0  0  0  0  0  0
    8.8750   -1.4266    0.0000 C   0  0  0  0  0  0  0  0  0  0  0  0
    9.4586   -0.6219    0.0000 C   0  0  0  0  0  0  0  0  0  0  0  0
    5.2787   -2.6703    0.0000 C   0  0  1  0  0  0  0  0  0  0  0  0
    7.0789   -2.6634    0.0000 C   0  0  0  0  0  0  0  0  0  0  0  0
    9.1857    1.1334    0.0000 C   0  0  1  0  0  0  0  0  0  0  0  0
    4.3599   -1.0647    0.0000 C   0  0  0  0  0  0  0  0  0  0  0  0
    7.9288    0.8781    0.0000 C   0  0  0  0  0  0  0  0  0  0  0  0
    6.1808   -3.1912    0.0000 C   0  0  0  0  0  0  0  0  0  0  0  0
    4.3433   -3.2201    0.0000 C   0  0  0  0  0  0  0  0  0  0  0  0
    5.2945   -0.6288    0.0000 C   0  0  0  0  0  0  0  0  0  0  0  0
    3.4120   -1.5926    0.0000 C   0  0  0  0  0  0  0  0  0  0  0  0
    3.4037   -2.6776    0.0000 C   0  0  2  0  0  0  0  0  0  0  0  0
   10.1642    1.3396    0.0000 C   0  0  2  0  0  0  0  0  0  0  0  0
    8.5179    1.8777    0.0000 C   0  0  0  0  0  0  0  0  0  0  0  0
   10.4749    2.2901    0.0000 C   0  0  0  0  0  0  0  0  0  0  0  0
   11.4534    2.4963    0.0000 C   0  0  2  0  0  0  0  0  0  0  0  0
   11.7640    3.4468    0.0000 C   0  0  0  0  0  0  0  0  0  0  0  0
   12.1212    1.7520    0.0000 C   0  0  0  0  0  0  0  0  0  0  0  0
   12.7425    3.6531    0.0000 C   0  0  0  0  0  0  0  0  0  0  0  0
   11.0962    4.1911    0.0000 C   0  0  0  0  0  0  0  0  0  0  0  0
    7.9944   -1.7384    0.0000 H   0  0  0  0  0  0  0  0  0  0  0  0
    7.8022   -2.0412    0.0000 H   0  0  0  0  0  0  0  0  0  0  0  0
    6.9329   -0.6969    0.0000 H   0  0  0  0  0  0  0  0  0  0  0  0
    9.7148    0.3147    0.0000 H   0  0  0  0  0  0  0  0  0  0  0  0
    7.4613    0.8531    0.0000 H   0  0  0  0  0  0  0  0  0  0  0  0
    6.6643    0.8531    0.0000 H   0  0  0  0  0  0  0  0  0  0  0  0
    5.9847    0.4607    0.0000 H   0  0  0  0  0  0  0  0  0  0  0  0
    5.5862   -0.2296    0.0000 H   0  0  0  0  0  0  0  0  0  0  0  0
    8.6240   -1.9935    0.0000 H   0  0  0  0  0  0  0  0  0  0  0  0
    9.4124   -1.7358    0.0000 H   0  0  0  0  0  0  0  0  0  0  0  0
    9.9195   -1.0366    0.0000 H   0  0  0  0  0  0  0  0  0  0  0  0
    9.9195   -0.2072    0.0000 H   0  0  0  0  0  0  0  0  0  0  0  0
    5.2820   -3.5203    0.0000 H   0  0  0  0  0  0  0  0  0  0  0  0
    7.2969   -3.2438    0.0000 H   0  0  0  0  0  0  0  0  0  0  0  0
    7.6880   -2.5479    0.0000 H   0  0  0  0  0  0  0  0  0  0  0  0
    9.3783    1.7227    0.0000 H   0  0  0  0  0  0  0  0  0  0  0  0
    4.7681   -0.5980    0.0000 H   0  0  0  0  0  0  0  0  0  0  0  0
    3.9700   -0.5826    0.0000 H   0  0  0  0  0  0  0  0  0  0  0  0
    8.5488    0.8781    0.0000 H   0  0  0  0  0  0  0  0  0  0  0  0
    7.9288    1.4981    0.0000 H   0  0  0  0  0  0  0  0  0  0  0  0
    7.3088    0.8781    0.0000 H   0  0  0  0  0  0  0  0  0  0  0  0
    3.9460   -3.6960    0.0000 H   0  0  0  0  0  0  0  0  0  0  0  0
    4.7443   -3.6930    0.0000 H   0  0  0  0  0  0  0  0  0  0  0  0
    5.9145   -0.6335    0.0000 H   0  0  0  0  0  0  0  0  0  0  0  0
    5.2993   -0.0088    0.0000 H   0  0  0  0  0  0  0  0  0  0  0  0
    4.6745   -0.6240    0.0000 H   0  0  0  0  0  0  0  0  0  0  0  0
    3.2075   -1.0073    0.0000 H   0  0  0  0  0  0  0  0  0  0  0  0
    2.8004   -1.6940    0.0000 H   0  0  0  0  0  0  0  0  0  0  0  0
    2.8686   -2.3645    0.0000 H   0  0  0  0  0  0  0  0  0  0  0  0
    9.9716    0.7503    0.0000 H   0  0  0  0  0  0  0  0  0  0  0  0
    8.9793    2.2917    0.0000 H   0  0  0  0  0  0  0  0  0  0  0  0
    8.1038    2.3391    0.0000 H   0  0  0  0  0  0  0  0  0  0  0  0
    8.0564    1.4636    0.0000 H   0  0  0  0  0  0  0  0  0  0  0  0
   10.4543    2.9098    0.0000 H   0  0  0  0  0  0  0  0  0  0  0  0
    9.8611    2.3774    0.0000 H   0  0  0  0  0  0  0  0  0  0  0  0
    2.0000   -2.8622    0.0000 H   0  0  0  0  0  0  0  0  0  0  0  0
   12.0601    2.6242    0.0000 H   0  0  0  0  0  0  0  0  0  0  0  0
   11.4387    0.7231    0.0000 H   0  0  0  0  0  0  0  0  0  0  0  0
   12.1781    2.9854    0.0000 H   0  0  0  0  0  0  0  0  0  0  0  0
   11.6598    1.3380    0.0000 H   0  0  0  0  0  0  0  0  0  0  0  0
   12.5353    1.2906    0.0000 H   0  0  0  0  0  0  0  0  0  0  0  0
   12.5827    2.1661    0.0000 H   0  0  0  0  0  0  0  0  0  0  0  0
   11.5577    4.6052    0.0000 H   0  0  0  0  0  0  0  0  0  0  0  0
   10.6821    4.6526    0.0000 H   0  0  0  0  0  0  0  0  0  0  0  0
   10.6347    3.7771    0.0000 H   0  0  0  0  0  0  0  0  0  0  0  0
   12.8704    3.0464    0.0000 H   0  0  0  0  0  0  0  0  0  0  0  0
   13.3492    3.7809    0.0000 H   0  0  0  0  0  0  0  0  0  0  0  0
   12.6147    4.2597    0.0000 H   0  0  0  0  0  0  0  0  0  0  0  0
  1 19  2  0  0  0  0
 23  2  1  1  0  0  0
  2 67  1  0  0  0  0
 24  3  1  6  0  0  0
  3 69  1  0  0  0  0
  4  5  1  0  0  0  0
  4  9  1  0  0  0  0
  4 10  1  0  0  0  0
  4 18  1  1  0  0  0
  5  6  1  0  0  0  0
  5 12  1  0  0  0  0
  5 32  1  0  0  0  0
  6  7  1  0  0  0  0
  6 15  1  0  0  0  0
  6 33  1  1  0  0  0
  7  8  1  0  0  0  0
  7 11  1  0  0  0  0
  7 34  1  6  0  0  0
  8 14  1  0  0  0  0
  8 17  1  0  0  0  0
  8 21  1  1  0  0  0
  9 13  1  0  0  0  0
  9 16  1  0  0  0  0
  9 35  1  6  0  0  0
 10 11  1  0  0  0  0
 10 36  1  0  0  0  0
 10 37  1  0  0  0  0
 11 38  1  0  0  0  0
 11 39  1  0  0  0  0
 12 13  1  0  0  0  0
 12 40  1  0  0  0  0
 12 41  1  0  0  0  0
 13 42  1  0  0  0  0
 13 43  1  0  0  0  0
 14 19  1  0  0  0  0
 14 20  1  0  0  0  0
 14 44  1  6  0  0  0
 15 19  1  0  0  0  0
 15 45  1  0  0  0  0
 15 46  1  0  0  0  0
 16 24  1  0  0  0  0
 16 25  1  6  0  0  0
 16 47  1  0  0  0  0
 17 22  1  0  0  0  0
 17 48  1  0  0  0  0
 17 49  1  0  0  0  0
 18 50  1  0  0  0  0
 18 51  1  0  0  0  0
 18 52  1  0  0  0  0
 20 23  1  0  0  0  0
 20 53  1  0  0  0  0
 20 54  1  0  0  0  0
 21 55  1  0  0  0  0
 21 56  1  0  0  0  0
 21 57  1  0  0  0  0
 22 23  1  0  0  0  0
 22 58  1  0  0  0  0
 22 59  1  0  0  0  0
 23 60  1  0  0  0  0
 24 26  1  0  0  0  0
 24 61  1  0  0  0  0
 25 62  1  0  0  0  0
 25 63  1  0  0  0  0
 25 64  1  0  0  0  0
 26 27  1  0  0  0  0
 26 65  1  0  0  0  0
 26 66  1  0  0  0  0
 27 28  1  0  0  0  0
 27 29  1  6  0  0  0
 27 68  1  0  0  0  0
 28 30  1  0  0  0  0
 28 31  1  0  0  0  0
 28 70  1  0  0  0  0
 29 71  1  0  0  0  0
 29 72  1  0  0  0  0
 29 73  1  0  0  0  0
 30 77  1  0  0  0  0
 30 78  1  0  0  0  0
 30 79  1  0  0  0  0
 31 74  1  0  0  0  0
 31 75  1  0  0  0  0
 31 76  1  0  0  0  0
M  END
> <PUBCHEM_COMPOUND_CID>
23724582

> <PUBCHEM_COMPOUND_CANONICALIZED>
1

> <PUBCHEM_CACTVS_COMPLEXITY>
673

> <PUBCHEM_CACTVS_HBOND_ACCEPTOR>
3

> <PUBCHEM_CACTVS_HBOND_DONOR>
2

> <PUBCHEM_CACTVS_ROTATABLE_BOND>
5

> <PUBCHEM_CACTVS_SUBSKEYS>
AAADcfB4MAAAAAAAAAAAAAAAAAAAAYAAAAAwYMAAAAAAAGDAAAAAGgAACAAADxSggAICAAAAAgAIAIAQAAAAAAAAAAAAAAEAAAAAEBIAAAAAQAAEAAAAAAGKyPCPgAAAAAAAAADAAAYAACAAAQAACAAAAA==

> <PUBCHEM_IUPAC_OPENEYE_NAME>
(3S,5S,8S,9S,10R,13S,17R)-3-hydroxy-17-[(1S,2S,4R)-2-hydroxy-1,4,5-trimethyl-hexyl]-10,13-dimethyl-1,2,3,4,5,7,8,9,11,12,14,15,16,17-tetradecahydrocyclopenta[a]phenanthren-6-one

> <PUBCHEM_IUPAC_CAS_NAME>
(3S,5S,8S,9S,10R,13S,17R)-3-hydroxy-17-[(2S,3S,5R)-3-hydroxy-5,6-dimethylheptan-2-yl]-10,13-dimethyl-1,2,3,4,5,7,8,9,11,12,14,15,16,17-tetradecahydrocyclopenta[a]phenanthren-6-one

> <PUBCHEM_IUPAC_NAME>
(3S,5S,8S,9S,10R,13S,17R)-3-hydroxy-17-[(2S,3S,5R)-3-hydroxy-5,6-dimethylheptan-2-yl]-10,13-dimethyl-1,2,3,4,5,7,8,9,11,12,14,15,16,17-tetradecahydrocyclopenta[a]phenanthren-6-one

> <PUBCHEM_IUPAC_SYSTEMATIC_NAME>
(3S,5S,8S,9S,10R,13S,17R)-17-[(2S,3S,5R)-5,6-dimethyl-3-oxidanyl-heptan-2-yl]-10,13-dimethyl-3-oxidanyl-1,2,3,4,5,7,8,9,11,12,14,15,16,17-tetradecahydrocyclopenta[a]phenanthren-6-one

> <PUBCHEM_IUPAC_TRADITIONAL_NAME>
(3S,5S,8S,9S,10R,13S,17R)-3-hydroxy-17-[(1S,2S,4R)-2-hydroxy-1,4,5-trimethyl-hexyl]-10,13-dimethyl-1,2,3,4,5,7,8,9,11,12,14,15,16,17-tetradecahydrocyclopenta[a]phenanthren-6-one

> <PUBCHEM_IUPAC_INCHI>
InChI=1S/C28H48O3/c1-16(2)17(3)13-25(30)18(4)21-7-8-22-20-15-26(31)24-14-19(29)9-11-28(24,6)23(20)10-12-27(21,22)5/h16-25,29-30H,7-15H2,1-6H3/t17-,18+,19+,20+,21-,22?,23+,24-,25+,27-,28-/m1/s1

> <PUBCHEM_IUPAC_INCHIKEY>
JSVPGVHCEQDJCZ-UCGQCVSHSA-N

> <PUBCHEM_XLOGP3_AA>
6.6

> <PUBCHEM_EXACT_MASS>
432.360345

> <PUBCHEM_MOLECULAR_FORMULA>
C28H48O3

> <PUBCHEM_MOLECULAR_WEIGHT>
432.67892

> <PUBCHEM_OPENEYE_CAN_SMILES>
CC(C)C(C)CC(C(C)C1CCC2C1(CCC3C2CC(=O)C4C3(CCC(C4)O)C)C)O

> <PUBCHEM_OPENEYE_ISO_SMILES>
C[C@H](C[C@@H]([C@@H](C)[C@H]1CCC2[C@@]1(CC[C@H]3[C@H]2CC(=O)[C@@H]4[C@@]3(CC[C@@H](C4)O)C)C)O)C(C)C

> <PUBCHEM_CACTVS_TPSA>
57.5

> <PUBCHEM_MONOISOTOPIC_WEIGHT>
432.360345

> <PUBCHEM_TOTAL_CHARGE>
0

> <PUBCHEM_HEAVY_ATOM_COUNT>
31

> <PUBCHEM_ATOM_DEF_STEREO_COUNT>
10

> <PUBCHEM_ATOM_UDEF_STEREO_COUNT>
1

> <PUBCHEM_BOND_DEF_STEREO_COUNT>
0

> <PUBCHEM_BOND_UDEF_STEREO_COUNT>
0

> <PUBCHEM_ISOTOPIC_ATOM_COUNT>
0

> <PUBCHEM_COMPONENT_COUNT>
1

> <PUBCHEM_CACTVS_TAUTO_COUNT>
3

> <PUBCHEM_COORDINATE_TYPE>
1
5
255

> <PUBCHEM_BONDANNOTATIONS>
14  44  6
16  25  6
23  2  5
27  29  6
24  3  6
4  18  5
5  12  3
6  33  5
7  34  6
8  21  5
9  35  6

$$$$

