23724520
  -OEChem-07051213032D

 83 86  0     0  0  0  0  0  0999 V2000
    0.3540    2.8486    0.0000 O   0  0  0  0  0  0  0  0  0  0  0  0
    6.5300   14.9254    0.0000 O   0  0  0  0  0  0  0  0  0  0  0  0
    3.0659   12.9254    0.0000 O   0  0  0  0  0  0  0  0  0  0  0  0
    3.9319   14.4254    0.0000 O   0  0  0  0  0  0  0  0  0  0  0  0
    4.7979   14.9254    0.0000 O   0  0  0  0  0  0  0  0  0  0  0  0
    1.9464    2.5066    0.0000 N   0  0  0  0  0  0  0  0  0  0  0  0
    3.8520    4.4914    0.0000 N   0  0  0  0  0  0  0  0  0  0  0  0
    0.6200    4.3574    0.0000 N   0  0  0  0  0  0  0  0  0  0  0  0
    5.5841    7.4913    0.0000 N   0  0  0  0  0  0  0  0  0  0  0  0
    2.1200    3.4914    0.0000 C   0  0  0  0  0  0  0  0  0  0  0  0
    2.1200    4.4914    0.0000 C   0  0  0  0  0  0  0  0  0  0  0  0
    2.9860    2.9914    0.0000 C   0  0  0  0  0  0  0  0  0  0  0  0
    2.9860    4.9914    0.0000 C   0  0  0  0  0  0  0  0  0  0  0  0
    3.8520    3.4914    0.0000 C   0  0  0  0  0  0  0  0  0  0  0  0
    1.0066    2.1646    0.0000 C   0  0  0  0  0  0  0  0  0  0  0  0
    2.7125    1.8638    0.0000 C   0  0  0  0  0  0  0  0  0  0  0  0
    2.5388    0.8790    0.0000 C   0  0  0  0  0  0  0  0  0  0  0  0
    0.8330    1.1797    0.0000 C   0  0  0  0  0  0  0  0  0  0  0  0
    1.1200    3.4914    0.0000 C   0  0  0  0  0  0  0  0  0  0  0  0
    1.5991    0.5369    0.0000 C   0  0  0  0  0  0  0  0  0  0  0  0
    4.7181    4.9913    0.0000 C   0  0  0  0  0  0  0  0  0  0  0  0
    4.7181    5.9913    0.0000 C   0  0  0  0  0  0  0  0  0  0  0  0
    5.5841    6.4913    0.0000 C   0  0  0  0  0  0  0  0  0  0  0  0
    4.6832    7.9252    0.0000 C   0  0  0  0  0  0  0  0  0  0  0  0
    6.4851    7.9252    0.0000 C   0  0  0  0  0  0  0  0  0  0  0  0
    6.7076    8.9001    0.0000 C   0  0  0  0  0  0  0  0  0  0  0  0
    4.4606    8.9002    0.0000 C   0  0  0  0  0  0  0  0  0  0  0  0
    6.0841    9.6820    0.0000 C   0  0  0  0  0  0  0  0  0  0  0  0
    5.0841    9.6820    0.0000 C   0  0  0  0  0  0  0  0  0  0  0  0
    7.2376    7.2050    0.0000 C   0  0  0  0  0  0  0  0  0  0  0  0
    3.9306    7.2050    0.0000 C   0  0  0  0  0  0  0  0  0  0  0  0
    7.6981    9.2225    0.0000 C   0  0  0  0  0  0  0  0  0  0  0  0
    3.4702    9.2225    0.0000 C   0  0  0  0  0  0  0  0  0  0  0  0
    8.2353    7.5044    0.0000 C   0  0  0  0  0  0  0  0  0  0  0  0
    2.9329    7.5044    0.0000 C   0  0  0  0  0  0  0  0  0  0  0  0
    8.4671    8.5199    0.0000 C   0  0  0  0  0  0  0  0  0  0  0  0
    2.7011    8.5199    0.0000 C   0  0  0  0  0  0  0  0  0  0  0  0
    4.7979   12.9254    0.0000 C   0  0  0  0  0  0  0  0  0  0  0  0
    5.6639   13.4254    0.0000 C   0  0  0  0  0  0  0  0  0  0  0  0
    3.9319   13.4254    0.0000 C   0  0  0  0  0  0  0  0  0  0  0  0
    5.6639   14.4254    0.0000 C   0  0  0  0  0  0  0  0  0  0  0  0
    2.5875    2.5164    0.0000 H   0  0  0  0  0  0  0  0  0  0  0  0
    3.3845    2.5164    0.0000 H   0  0  0  0  0  0  0  0  0  0  0  0
    1.9080    5.0740    0.0000 H   0  0  0  0  0  0  0  0  0  0  0  0
    1.5094    4.3837    0.0000 H   0  0  0  0  0  0  0  0  0  0  0  0
    3.3846    5.4663    0.0000 H   0  0  0  0  0  0  0  0  0  0  0  0
    2.5875    5.4663    0.0000 H   0  0  0  0  0  0  0  0  0  0  0  0
    4.0641    2.9087    0.0000 H   0  0  0  0  0  0  0  0  0  0  0  0
    4.4626    3.5990    0.0000 H   0  0  0  0  0  0  0  0  0  0  0  0
    3.2951    1.6518    0.0000 H   0  0  0  0  0  0  0  0  0  0  0  0
    3.0224    2.4007    0.0000 H   0  0  0  0  0  0  0  0  0  0  0  0
    0.8990    2.7752    0.0000 H   0  0  0  0  0  0  0  0  0  0  0  0
    0.3866    2.1646    0.0000 H   0  0  0  0  0  0  0  0  0  0  0  0
    0.2504    1.3918    0.0000 H   0  0  0  0  0  0  0  0  0  0  0  0
    0.5230    0.6428    0.0000 H   0  0  0  0  0  0  0  0  0  0  0  0
    2.6465    0.2684    0.0000 H   0  0  0  0  0  0  0  0  0  0  0  0
    3.1588    0.8790    0.0000 H   0  0  0  0  0  0  0  0  0  0  0  0
    1.1241    0.1384    0.0000 H   0  0  0  0  0  0  0  0  0  0  0  0
    1.9091    0.0000    0.0000 H   0  0  0  0  0  0  0  0  0  0  0  0
    4.9301    4.4087    0.0000 H   0  0  0  0  0  0  0  0  0  0  0  0
    5.3287    5.0990    0.0000 H   0  0  0  0  0  0  0  0  0  0  0  0
    4.5060    6.5740    0.0000 H   0  0  0  0  0  0  0  0  0  0  0  0
    4.1075    5.8837    0.0000 H   0  0  0  0  0  0  0  0  0  0  0  0
    0.0000    4.3574    0.0000 H   0  0  0  0  0  0  0  0  0  0  0  0
    0.9300    4.8943    0.0000 H   0  0  0  0  0  0  0  0  0  0  0  0
    5.7962    5.9087    0.0000 H   0  0  0  0  0  0  0  0  0  0  0  0
    6.1947    6.5990    0.0000 H   0  0  0  0  0  0  0  0  0  0  0  0
    5.2221   10.2864    0.0000 H   0  0  0  0  0  0  0  0  0  0  0  0
    4.5255    9.9510    0.0000 H   0  0  0  0  0  0  0  0  0  0  0  0
    6.6427    9.9510    0.0000 H   0  0  0  0  0  0  0  0  0  0  0  0
    5.9462   10.2864    0.0000 H   0  0  0  0  0  0  0  0  0  0  0  0
    7.0927    6.6022    0.0000 H   0  0  0  0  0  0  0  0  0  0  0  0
    4.0755    6.6022    0.0000 H   0  0  0  0  0  0  0  0  0  0  0  0
    7.8291    9.8285    0.0000 H   0  0  0  0  0  0  0  0  0  0  0  0
    3.3392    9.8285    0.0000 H   0  0  0  0  0  0  0  0  0  0  0  0
    8.6882    7.0809    0.0000 H   0  0  0  0  0  0  0  0  0  0  0  0
    2.4800    7.0810    0.0000 H   0  0  0  0  0  0  0  0  0  0  0  0
    9.0589    8.7049    0.0000 H   0  0  0  0  0  0  0  0  0  0  0  0
    2.1094    8.7050    0.0000 H   0  0  0  0  0  0  0  0  0  0  0  0
    4.7979   12.3054    0.0000 H   0  0  0  0  0  0  0  0  0  0  0  0
    6.2009   13.1154    0.0000 H   0  0  0  0  0  0  0  0  0  0  0  0
    6.5300   15.5454    0.0000 H   0  0  0  0  0  0  0  0  0  0  0  0
    2.5289   13.2354    0.0000 H   0  0  0  0  0  0  0  0  0  0  0  0
  1 19  2  0  0  0  0
  2 41  1  0  0  0  0
  2 82  1  0  0  0  0
  3 40  1  0  0  0  0
  3 83  1  0  0  0  0
  4 40  2  0  0  0  0
  5 41  2  0  0  0  0
  6 10  1  0  0  0  0
  6 15  1  0  0  0  0
  6 16  1  0  0  0  0
  7 13  1  0  0  0  0
  7 14  1  0  0  0  0
  7 21  1  0  0  0  0
  8 19  1  0  0  0  0
  8 64  1  0  0  0  0
  8 65  1  0  0  0  0
  9 23  1  0  0  0  0
  9 24  1  0  0  0  0
  9 25  1  0  0  0  0
 10 11  1  0  0  0  0
 10 12  1  0  0  0  0
 10 19  1  0  0  0  0
 11 13  1  0  0  0  0
 11 44  1  0  0  0  0
 11 45  1  0  0  0  0
 12 14  1  0  0  0  0
 12 42  1  0  0  0  0
 12 43  1  0  0  0  0
 13 46  1  0  0  0  0
 13 47  1  0  0  0  0
 14 48  1  0  0  0  0
 14 49  1  0  0  0  0
 15 18  1  0  0  0  0
 15 52  1  0  0  0  0
 15 53  1  0  0  0  0
 16 17  1  0  0  0  0
 16 50  1  0  0  0  0
 16 51  1  0  0  0  0
 17 20  1  0  0  0  0
 17 56  1  0  0  0  0
 17 57  1  0  0  0  0
 18 20  1  0  0  0  0
 18 54  1  0  0  0  0
 18 55  1  0  0  0  0
 20 58  1  0  0  0  0
 20 59  1  0  0  0  0
 21 22  1  0  0  0  0
 21 60  1  0  0  0  0
 21 61  1  0  0  0  0
 22 23  1  0  0  0  0
 22 62  1  0  0  0  0
 22 63  1  0  0  0  0
 23 66  1  0  0  0  0
 23 67  1  0  0  0  0
 24 27  1  0  0  0  0
 24 31  2  0  0  0  0
 25 26  1  0  0  0  0
 25 30  2  0  0  0  0
 26 28  1  0  0  0  0
 26 32  2  0  0  0  0
 27 29  1  0  0  0  0
 27 33  2  0  0  0  0
 28 29  1  0  0  0  0
 28 70  1  0  0  0  0
 28 71  1  0  0  0  0
 29 68  1  0  0  0  0
 29 69  1  0  0  0  0
 30 34  1  0  0  0  0
 30 72  1  0  0  0  0
 31 35  1  0  0  0  0
 31 73  1  0  0  0  0
 32 36  1  0  0  0  0
 32 74  1  0  0  0  0
 33 37  1  0  0  0  0
 33 75  1  0  0  0  0
 34 36  2  0  0  0  0
 34 76  1  0  0  0  0
 35 37  2  0  0  0  0
 35 77  1  0  0  0  0
 36 78  1  0  0  0  0
 37 79  1  0  0  0  0
 38 39  2  0  0  0  0
 38 40  1  0  0  0  0
 38 80  1  0  0  0  0
 39 41  1  0  0  0  0
 39 81  1  0  0  0  0
M  END
> <PUBCHEM_COMPOUND_CID>
23724520

> <PUBCHEM_COMPOUND_CANONICALIZED>
1

> <PUBCHEM_CACTVS_COMPLEXITY>
735

> <PUBCHEM_CACTVS_HBOND_ACCEPTOR>
8

> <PUBCHEM_CACTVS_HBOND_DONOR>
3

> <PUBCHEM_CACTVS_ROTATABLE_BOND>
8

> <PUBCHEM_CACTVS_SUBSKEYS>
AAADcfB/uAAAAAAAAAAAAAAAAAAAAAAAAAA8eIEABYAAAAABQAAAHgAQCAAADIjBmAQwyINAAgCIAiXSWACCAAAhAgAIiAGIZMgIZHLA0bGUMAhggADI2YcUgMAOAAAAAAACAAAAAAAAAAQAAAAAAAAAAA==

> <PUBCHEM_IUPAC_OPENEYE_NAME>
1-[3-(5,6-dihydrobenzo[b][1]benzazepin-11-yl)propyl]-4-(1-piperidyl)piperidine-4-carboxamide; maleic acid

> <PUBCHEM_IUPAC_CAS_NAME>
(Z)-2-butenedioic acid; 1-[3-(5,6-dihydrobenzo[b][1]benzazepin-11-yl)propyl]-4-(1-piperidinyl)-4-piperidinecarboxamide

> <PUBCHEM_IUPAC_NAME>
(Z)-but-2-enedioic acid; 1-[3-(5,6-dihydrobenzo[b][1]benzazepin-11-yl)propyl]-4-piperidin-1-ylpiperidine-4-carboxamide

> <PUBCHEM_IUPAC_SYSTEMATIC_NAME>
(Z)-but-2-enedioic acid; 1-[3-(5,6-dihydrobenzo[b][1]benzazepin-11-yl)propyl]-4-piperidin-1-yl-piperidine-4-carboxamide

> <PUBCHEM_IUPAC_TRADITIONAL_NAME>
1-[3-(5,6-dihydrobenzo[b][1]benzazepin-11-yl)propyl]-4-piperidino-isonipecotamide; maleic acid

> <PUBCHEM_IUPAC_INCHI>
InChI=1S/C28H38N4O.C4H4O4/c29-27(33)28(31-18-6-1-7-19-31)15-21-30(22-16-28)17-8-20-32-25-11-4-2-9-23(25)13-14-24-10-3-5-12-26(24)32;5-3(6)1-2-4(7)8/h2-5,9-12H,1,6-8,13-22H2,(H2,29,33);1-2H,(H,5,6)(H,7,8)/b;2-1-

> <PUBCHEM_IUPAC_INCHIKEY>
LQMNVYGQJJRMRR-BTJKTKAUSA-N

> <PUBCHEM_EXACT_MASS>
562.31552

> <PUBCHEM_MOLECULAR_FORMULA>
C32H42N4O5

> <PUBCHEM_MOLECULAR_WEIGHT>
562.69968

> <PUBCHEM_OPENEYE_CAN_SMILES>
C1CCN(CC1)C2(CCN(CC2)CCCN3C4=CC=CC=C4CCC5=CC=CC=C53)C(=O)N.C(=CC(=O)O)C(=O)O

> <PUBCHEM_OPENEYE_ISO_SMILES>
C1CCN(CC1)C2(CCN(CC2)CCCN3C4=CC=CC=C4CCC5=CC=CC=C53)C(=O)N.C(=C\C(=O)O)\C(=O)O

> <PUBCHEM_CACTVS_TPSA>
127

> <PUBCHEM_MONOISOTOPIC_WEIGHT>
562.31552

> <PUBCHEM_TOTAL_CHARGE>
0

> <PUBCHEM_HEAVY_ATOM_COUNT>
41

> <PUBCHEM_ATOM_DEF_STEREO_COUNT>
0

> <PUBCHEM_ATOM_UDEF_STEREO_COUNT>
0

> <PUBCHEM_BOND_DEF_STEREO_COUNT>
1

> <PUBCHEM_BOND_UDEF_STEREO_COUNT>
0

> <PUBCHEM_ISOTOPIC_ATOM_COUNT>
0

> <PUBCHEM_COMPONENT_COUNT>
2

> <PUBCHEM_CACTVS_TAUTO_COUNT>
2

> <PUBCHEM_COORDINATE_TYPE>
1
5
255

> <PUBCHEM_BONDANNOTATIONS>
24  27  8
24  31  8
25  26  8
25  30  8
26  32  8
27  33  8
30  34  8
31  35  8
32  36  8
33  37  8
34  36  8
35  37  8

$$$$

