17396028
  -OEChem-06241222532D

 43 47  0     0  0  0  0  0  0999 V2000
    2.0000    2.1370    0.0000 S   0  0  0  0  0  0  0  0  0  0  0  0
    6.2531   -4.4996    0.0000 S   0  0  0  0  0  0  0  0  0  0  0  0
    4.4409    0.3051    0.0000 N   0  0  0  0  0  0  0  0  0  0  0  0
    4.4409   -1.6949    0.0000 N   0  0  0  0  0  0  0  0  0  0  0  0
    3.5749   -3.1949    0.0000 N   0  0  0  0  0  0  0  0  0  0  0  0
    4.4409   -4.6949    0.0000 N   0  0  0  0  0  0  0  0  0  0  0  0
    3.5749   -0.1949    0.0000 C   0  0  0  0  0  0  0  0  0  0  0  0
    5.3069   -0.1949    0.0000 C   0  0  0  0  0  0  0  0  0  0  0  0
    3.5749   -1.1949    0.0000 C   0  0  0  0  0  0  0  0  0  0  0  0
    5.3069   -1.1949    0.0000 C   0  0  0  0  0  0  0  0  0  0  0  0
    4.4409    1.3051    0.0000 C   0  0  0  0  0  0  0  0  0  0  0  0
    4.4409   -2.6949    0.0000 C   0  0  0  0  0  0  0  0  0  0  0  0
    3.5749    1.8051    0.0000 C   0  0  0  0  0  0  0  0  0  0  0  0
    3.4718    2.7938    0.0000 C   0  0  0  0  0  0  0  0  0  0  0  0
    5.3069   -3.1949    0.0000 C   0  0  0  0  0  0  0  0  0  0  0  0
    2.6671    1.4000    0.0000 C   0  0  0  0  0  0  0  0  0  0  0  0
    2.4933    3.0001    0.0000 C   0  0  0  0  0  0  0  0  0  0  0  0
    5.3069   -4.1949    0.0000 C   0  0  0  0  0  0  0  0  0  0  0  0
    4.1397    3.5381    0.0000 C   0  0  0  0  0  0  0  0  0  0  0  0
    6.2531   -2.8902    0.0000 C   0  0  0  0  0  0  0  0  0  0  0  0
    2.1827    3.9506    0.0000 C   0  0  0  0  0  0  0  0  0  0  0  0
    3.5749   -4.1949    0.0000 C   0  0  0  0  0  0  0  0  0  0  0  0
    3.8290    4.4887    0.0000 C   0  0  0  0  0  0  0  0  0  0  0  0
    6.8368   -3.6949    0.0000 C   0  0  0  0  0  0  0  0  0  0  0  0
    2.8505    4.6949    0.0000 C   0  0  0  0  0  0  0  0  0  0  0  0
    3.3628    0.3877    0.0000 H   0  0  0  0  0  0  0  0  0  0  0  0
    2.9643   -0.3025    0.0000 H   0  0  0  0  0  0  0  0  0  0  0  0
    5.9175   -0.3025    0.0000 H   0  0  0  0  0  0  0  0  0  0  0  0
    5.5190    0.3877    0.0000 H   0  0  0  0  0  0  0  0  0  0  0  0
    2.9643   -1.0872    0.0000 H   0  0  0  0  0  0  0  0  0  0  0  0
    3.3628   -1.7775    0.0000 H   0  0  0  0  0  0  0  0  0  0  0  0
    5.5190   -1.7775    0.0000 H   0  0  0  0  0  0  0  0  0  0  0  0
    5.9175   -1.0872    0.0000 H   0  0  0  0  0  0  0  0  0  0  0  0
    5.0515    1.1975    0.0000 H   0  0  0  0  0  0  0  0  0  0  0  0
    4.6530    1.8877    0.0000 H   0  0  0  0  0  0  0  0  0  0  0  0
    2.5392    0.7933    0.0000 H   0  0  0  0  0  0  0  0  0  0  0  0
    4.7463    3.4103    0.0000 H   0  0  0  0  0  0  0  0  0  0  0  0
    6.4458   -2.3008    0.0000 H   0  0  0  0  0  0  0  0  0  0  0  0
    1.5760    4.0784    0.0000 H   0  0  0  0  0  0  0  0  0  0  0  0
    3.0379   -4.5049    0.0000 H   0  0  0  0  0  0  0  0  0  0  0  0
    4.2431    4.9501    0.0000 H   0  0  0  0  0  0  0  0  0  0  0  0
    7.4568   -3.6949    0.0000 H   0  0  0  0  0  0  0  0  0  0  0  0
    2.6579    5.2842    0.0000 H   0  0  0  0  0  0  0  0  0  0  0  0
  1 16  1  0  0  0  0
  1 17  1  0  0  0  0
  2 18  1  0  0  0  0
  2 24  1  0  0  0  0
  3  7  1  0  0  0  0
  3  8  1  0  0  0  0
  3 11  1  0  0  0  0
  4  9  1  0  0  0  0
  4 10  1  0  0  0  0
  4 12  1  0  0  0  0
  5 12  1  0  0  0  0
  5 22  2  0  0  0  0
  6 18  2  0  0  0  0
  6 22  1  0  0  0  0
  7  9  1  0  0  0  0
  7 26  1  0  0  0  0
  7 27  1  0  0  0  0
  8 10  1  0  0  0  0
  8 28  1  0  0  0  0
  8 29  1  0  0  0  0
  9 30  1  0  0  0  0
  9 31  1  0  0  0  0
 10 32  1  0  0  0  0
 10 33  1  0  0  0  0
 11 13  1  0  0  0  0
 11 34  1  0  0  0  0
 11 35  1  0  0  0  0
 12 15  2  0  0  0  0
 13 14  1  0  0  0  0
 13 16  2  0  0  0  0
 14 17  1  0  0  0  0
 14 19  2  0  0  0  0
 15 18  1  0  0  0  0
 15 20  1  0  0  0  0
 16 36  1  0  0  0  0
 17 21  2  0  0  0  0
 19 23  1  0  0  0  0
 19 37  1  0  0  0  0
 20 24  2  0  0  0  0
 20 38  1  0  0  0  0
 21 25  1  0  0  0  0
 21 39  1  0  0  0  0
 22 40  1  0  0  0  0
 23 25  2  0  0  0  0
 23 41  1  0  0  0  0
 24 42  1  0  0  0  0
 25 43  1  0  0  0  0
M  END
> <PUBCHEM_COMPOUND_CID>
17396028

> <PUBCHEM_COMPOUND_CANONICALIZED>
1

> <PUBCHEM_CACTVS_COMPLEXITY>
457

> <PUBCHEM_CACTVS_HBOND_ACCEPTOR>
6

> <PUBCHEM_CACTVS_HBOND_DONOR>
0

> <PUBCHEM_CACTVS_ROTATABLE_BOND>
3

> <PUBCHEM_CACTVS_SUBSKEYS>
AAADceB7gABgAAAAAAAAAAAAAAAAASJAAAA8WIAAAAAAAFgB/gAAHAQAAAAADADFWgS1sdcIEAikAiJjZACD0KlxCLhJ2DgoRJiIaKLg2dGUJAxogALoyCcQgMAOgAAAAAAEAAAAAAAAAAgAAAAAAAAAAA==

> <PUBCHEM_IUPAC_OPENEYE_NAME>
4-[4-(benzothiophen-3-ylmethyl)piperazin-1-yl]thieno[2,3-d]pyrimidine

> <PUBCHEM_IUPAC_CAS_NAME>
4-[4-(1-benzothiophen-3-ylmethyl)-1-piperazinyl]thieno[2,3-d]pyrimidine

> <PUBCHEM_IUPAC_NAME>
4-[4-(1-benzothiophen-3-ylmethyl)piperazin-1-yl]thieno[2,3-d]pyrimidine

> <PUBCHEM_IUPAC_SYSTEMATIC_NAME>
4-[4-(1-benzothiophen-3-ylmethyl)piperazin-1-yl]thieno[2,3-d]pyrimidine

> <PUBCHEM_IUPAC_TRADITIONAL_NAME>
4-[4-(benzothiophen-3-ylmethyl)piperazino]thieno[2,3-d]pyrimidine

> <PUBCHEM_IUPAC_INCHI>
InChI=1S/C19H18N4S2/c1-2-4-17-15(3-1)14(12-25-17)11-22-6-8-23(9-7-22)18-16-5-10-24-19(16)21-13-20-18/h1-5,10,12-13H,6-9,11H2

> <PUBCHEM_IUPAC_INCHIKEY>
CXPKMEMIMDWFFU-UHFFFAOYSA-N

> <PUBCHEM_XLOGP3_AA>
4.3

> <PUBCHEM_EXACT_MASS>
366.097289

> <PUBCHEM_MOLECULAR_FORMULA>
C19H18N4S2

> <PUBCHEM_MOLECULAR_WEIGHT>
366.50302

> <PUBCHEM_OPENEYE_CAN_SMILES>
C1CN(CCN1CC2=CSC3=CC=CC=C32)C4=C5C=CSC5=NC=N4

> <PUBCHEM_OPENEYE_ISO_SMILES>
C1CN(CCN1CC2=CSC3=CC=CC=C32)C4=C5C=CSC5=NC=N4

> <PUBCHEM_CACTVS_TPSA>
88.7

> <PUBCHEM_MONOISOTOPIC_WEIGHT>
366.097289

> <PUBCHEM_TOTAL_CHARGE>
0

> <PUBCHEM_HEAVY_ATOM_COUNT>
25

> <PUBCHEM_ATOM_DEF_STEREO_COUNT>
0

> <PUBCHEM_ATOM_UDEF_STEREO_COUNT>
0

> <PUBCHEM_BOND_DEF_STEREO_COUNT>
0

> <PUBCHEM_BOND_UDEF_STEREO_COUNT>
0

> <PUBCHEM_ISOTOPIC_ATOM_COUNT>
0

> <PUBCHEM_COMPONENT_COUNT>
1

> <PUBCHEM_CACTVS_TAUTO_COUNT>
1

> <PUBCHEM_COORDINATE_TYPE>
1
5
255

> <PUBCHEM_BONDANNOTATIONS>
1  16  8
1  17  8
12  15  8
13  14  8
13  16  8
14  17  8
14  19  8
15  18  8
15  20  8
17  21  8
19  23  8
2  18  8
2  24  8
20  24  8
21  25  8
23  25  8
5  12  8
5  22  8
6  18  8
6  22  8

$$$$

