2943
  -OEChem-07051213062D

 24 24  0     0  0  0  0  0  0999 V2000
    2.0000    1.0000    0.0000 Cl  0  0  0  0  0  0  0  0  0  0  0  0
    2.0000   -1.0000    0.0000 Cl  0  0  0  0  0  0  0  0  0  0  0  0
    5.4641    1.0000    0.0000 Cl  0  0  0  0  0  0  0  0  0  0  0  0
    5.4641   -1.0000    0.0000 Cl  0  0  0  0  0  0  0  0  0  0  0  0
    4.5981    2.5000    0.0000 O   0  0  0  0  0  0  0  0  0  0  0  0
    2.8660   -2.5000    0.0000 O   0  0  0  0  0  0  0  0  0  0  0  0
    2.8660    2.5000    0.0000 O   0  0  0  0  0  0  0  0  0  0  0  0
    4.5981   -2.5000    0.0000 O   0  0  0  0  0  0  0  0  0  0  0  0
    3.7320    1.0000    0.0000 C   0  0  0  0  0  0  0  0  0  0  0  0
    3.7320   -1.0000    0.0000 C   0  0  0  0  0  0  0  0  0  0  0  0
    2.8660    0.5000    0.0000 C   0  0  0  0  0  0  0  0  0  0  0  0
    2.8660   -0.5000    0.0000 C   0  0  0  0  0  0  0  0  0  0  0  0
    4.5981    0.5000    0.0000 C   0  0  0  0  0  0  0  0  0  0  0  0
    4.5981   -0.5000    0.0000 C   0  0  0  0  0  0  0  0  0  0  0  0
    3.7320   -2.0000    0.0000 C   0  0  0  0  0  0  0  0  0  0  0  0
    3.7320    2.0000    0.0000 C   0  0  0  0  0  0  0  0  0  0  0  0
    4.5981    3.5000    0.0000 C   0  0  0  0  0  0  0  0  0  0  0  0
    2.8660   -3.5000    0.0000 C   0  0  0  0  0  0  0  0  0  0  0  0
    2.2460   -3.5000    0.0000 H   0  0  0  0  0  0  0  0  0  0  0  0
    2.8660   -4.1200    0.0000 H   0  0  0  0  0  0  0  0  0  0  0  0
    3.4860   -3.5000    0.0000 H   0  0  0  0  0  0  0  0  0  0  0  0
    5.2181    3.5000    0.0000 H   0  0  0  0  0  0  0  0  0  0  0  0
    4.5981    4.1200    0.0000 H   0  0  0  0  0  0  0  0  0  0  0  0
    3.9781    3.5000    0.0000 H   0  0  0  0  0  0  0  0  0  0  0  0
  1 11  1  0  0  0  0
  2 12  1  0  0  0  0
  3 13  1  0  0  0  0
  4 14  1  0  0  0  0
  5 16  1  0  0  0  0
  5 17  1  0  0  0  0
  6 15  1  0  0  0  0
  6 18  1  0  0  0  0
  7 16  2  0  0  0  0
  8 15  2  0  0  0  0
  9 11  2  0  0  0  0
  9 13  1  0  0  0  0
  9 16  1  0  0  0  0
 10 12  2  0  0  0  0
 10 14  1  0  0  0  0
 10 15  1  0  0  0  0
 11 12  1  0  0  0  0
 13 14  2  0  0  0  0
 17 22  1  0  0  0  0
 17 23  1  0  0  0  0
 17 24  1  0  0  0  0
 18 19  1  0  0  0  0
 18 20  1  0  0  0  0
 18 21  1  0  0  0  0
M  END
> <PUBCHEM_COMPOUND_CID>
2943

> <PUBCHEM_COMPOUND_CANONICALIZED>
1

> <PUBCHEM_CACTVS_COMPLEXITY>
290

> <PUBCHEM_CACTVS_HBOND_ACCEPTOR>
4

> <PUBCHEM_CACTVS_HBOND_DONOR>
0

> <PUBCHEM_CACTVS_ROTATABLE_BOND>
4

> <PUBCHEM_CACTVS_SUBSKEYS>
AAADcYBwOAAHAAAAAAAAAAAAAAAAAAAAAAAwAAAAAAAAAAABAAAAGgIAAAAADAIAmCICCIAABACIAgDQCAACAAAkBAAAikEACsgIJjKBNhiAMQAkwAEIrQeIyDCOQAAQIACBAASAACBAAQIACAAAAAAAAA==

> <PUBCHEM_IUPAC_OPENEYE_NAME>
dimethyl 2,3,5,6-tetrachlorobenzene-1,4-dicarboxylate

> <PUBCHEM_IUPAC_CAS_NAME>
2,3,5,6-tetrachlorobenzene-1,4-dicarboxylic acid dimethyl ester

> <PUBCHEM_IUPAC_NAME>
dimethyl 2,3,5,6-tetrachlorobenzene-1,4-dicarboxylate

> <PUBCHEM_IUPAC_SYSTEMATIC_NAME>
dimethyl 2,3,5,6-tetrakis(chloranyl)benzene-1,4-dicarboxylate

> <PUBCHEM_IUPAC_TRADITIONAL_NAME>
2,3,5,6-tetrachlorobenzene-1,4-dicarboxylic acid dimethyl ester

> <PUBCHEM_IUPAC_INCHI>
InChI=1S/C10H6Cl4O4/c1-17-9(15)3-5(11)7(13)4(10(16)18-2)8(14)6(3)12/h1-2H3

> <PUBCHEM_IUPAC_INCHIKEY>
NPOJQCVWMSKXDN-UHFFFAOYSA-N

> <PUBCHEM_XLOGP3>
4.4

> <PUBCHEM_EXACT_MASS>
331.899069

> <PUBCHEM_MOLECULAR_FORMULA>
C10H6Cl4O4

> <PUBCHEM_MOLECULAR_WEIGHT>
331.96424

> <PUBCHEM_OPENEYE_CAN_SMILES>
COC(=O)C1=C(C(=C(C(=C1Cl)Cl)C(=O)OC)Cl)Cl

> <PUBCHEM_OPENEYE_ISO_SMILES>
COC(=O)C1=C(C(=C(C(=C1Cl)Cl)C(=O)OC)Cl)Cl

> <PUBCHEM_CACTVS_TPSA>
52.6

> <PUBCHEM_MONOISOTOPIC_WEIGHT>
329.902019

> <PUBCHEM_TOTAL_CHARGE>
0

> <PUBCHEM_HEAVY_ATOM_COUNT>
18

> <PUBCHEM_ATOM_DEF_STEREO_COUNT>
0

> <PUBCHEM_ATOM_UDEF_STEREO_COUNT>
0

> <PUBCHEM_BOND_DEF_STEREO_COUNT>
0

> <PUBCHEM_BOND_UDEF_STEREO_COUNT>
0

> <PUBCHEM_ISOTOPIC_ATOM_COUNT>
0

> <PUBCHEM_COMPONENT_COUNT>
1

> <PUBCHEM_CACTVS_TAUTO_COUNT>
1

> <PUBCHEM_COORDINATE_TYPE>
1
5
255

> <PUBCHEM_BONDANNOTATIONS>
10  12  8
10  14  8
11  12  8
13  14  8
9  11  8
9  13  8

$$$$

