17395301
  -OEChem-06241222493D

 53 55  0     0  0  0  0  0  0999 V2000
   -3.6182   -0.6818   -1.4317 F   0  0  0  0  0  0  0  0  0  0  0  0
    7.9956   -1.4069    0.2691 O   0  0  0  0  0  0  0  0  0  0  0  0
   -4.6965    0.9165    2.0282 O   0  0  0  0  0  0  0  0  0  0  0  0
    0.2882    1.8880   -0.2575 N   0  0  0  0  0  0  0  0  0  0  0  0
    2.8631    0.6529   -0.1971 N   0  0  0  0  0  0  0  0  0  0  0  0
   -4.0384    1.4987   -0.1187 N   0  0  0  0  0  0  0  0  0  0  0  0
    0.5086    0.6694    0.5312 C   0  0  0  0  0  0  0  0  0  0  0  0
    1.1289    1.8630   -1.4606 C   0  0  0  0  0  0  0  0  0  0  0  0
    1.9715    0.5536    0.9653 C   0  0  0  0  0  0  0  0  0  0  0  0
    2.6129    1.7858   -1.0934 C   0  0  0  0  0  0  0  0  0  0  0  0
   -1.1228    2.0160   -0.6201 C   0  0  0  0  0  0  0  0  0  0  0  0
   -1.9237    2.5703    0.5593 C   0  0  0  0  0  0  0  0  0  0  0  0
    4.1572    0.1335   -0.0796 C   0  0  0  0  0  0  0  0  0  0  0  0
   -3.4035    2.7408    0.2276 C   0  0  0  0  0  0  0  0  0  0  0  0
    4.3423   -1.2179    0.2125 C   0  0  0  0  0  0  0  0  0  0  0  0
    5.2618    0.9671   -0.2543 C   0  0  0  0  0  0  0  0  0  0  0  0
    5.6324   -1.7356    0.3296 C   0  0  0  0  0  0  0  0  0  0  0  0
    6.5516    0.4495   -0.1371 C   0  0  0  0  0  0  0  0  0  0  0  0
    6.7370   -0.9018    0.1547 C   0  0  0  0  0  0  0  0  0  0  0  0
   -4.6422    0.6757    0.8250 C   0  0  0  0  0  0  0  0  0  0  0  0
   -5.2313   -0.5872    0.3102 C   0  0  0  0  0  0  0  0  0  0  0  0
   -4.6810   -1.2116   -0.8092 C   0  0  0  0  0  0  0  0  0  0  0  0
   -6.3368   -1.1489    0.9490 C   0  0  0  0  0  0  0  0  0  0  0  0
    8.1128   -2.7969    0.5689 C   0  0  0  0  0  0  0  0  0  0  0  0
   -5.2361   -2.3978   -1.2895 C   0  0  0  0  0  0  0  0  0  0  0  0
   -6.8919   -2.3350    0.4685 C   0  0  0  0  0  0  0  0  0  0  0  0
   -6.3416   -2.9594   -0.6506 C   0  0  0  0  0  0  0  0  0  0  0  0
   -0.1013    0.6679    1.4403 H   0  0  0  0  0  0  0  0  0  0  0  0
    0.2305   -0.2226   -0.0468 H   0  0  0  0  0  0  0  0  0  0  0  0
    0.9742    2.7751   -2.0499 H   0  0  0  0  0  0  0  0  0  0  0  0
    0.8625    1.0108   -2.1005 H   0  0  0  0  0  0  0  0  0  0  0  0
    2.0956   -0.3991    1.4928 H   0  0  0  0  0  0  0  0  0  0  0  0
    2.2183    1.3515    1.6778 H   0  0  0  0  0  0  0  0  0  0  0  0
    2.9200    2.7211   -0.6080 H   0  0  0  0  0  0  0  0  0  0  0  0
    3.1870    1.6802   -2.0225 H   0  0  0  0  0  0  0  0  0  0  0  0
   -1.5300    1.0621   -0.9771 H   0  0  0  0  0  0  0  0  0  0  0  0
   -1.2336    2.7310   -1.4462 H   0  0  0  0  0  0  0  0  0  0  0  0
   -1.8423    1.9126    1.4317 H   0  0  0  0  0  0  0  0  0  0  0  0
   -1.5161    3.5451    0.8554 H   0  0  0  0  0  0  0  0  0  0  0  0
   -3.9232    3.1837    1.0844 H   0  0  0  0  0  0  0  0  0  0  0  0
   -3.5277    3.4187   -0.6237 H   0  0  0  0  0  0  0  0  0  0  0  0
    3.4941   -1.8861    0.3378 H   0  0  0  0  0  0  0  0  0  0  0  0
    5.1553    2.0267   -0.4683 H   0  0  0  0  0  0  0  0  0  0  0  0
   -4.0463    1.2366   -1.0996 H   0  0  0  0  0  0  0  0  0  0  0  0
    5.7043   -2.7942    0.5547 H   0  0  0  0  0  0  0  0  0  0  0  0
    7.4085    1.1041   -0.2711 H   0  0  0  0  0  0  0  0  0  0  0  0
   -6.7819   -0.6744    1.8197 H   0  0  0  0  0  0  0  0  0  0  0  0
    9.1820   -3.0267    0.6237 H   0  0  0  0  0  0  0  0  0  0  0  0
    7.6931   -3.4176   -0.2299 H   0  0  0  0  0  0  0  0  0  0  0  0
    7.6840   -3.0349    1.5484 H   0  0  0  0  0  0  0  0  0  0  0  0
   -4.8074   -2.8838   -2.1610 H   0  0  0  0  0  0  0  0  0  0  0  0
   -7.7534   -2.7719    0.9652 H   0  0  0  0  0  0  0  0  0  0  0  0
   -6.7740   -3.8827   -1.0249 H   0  0  0  0  0  0  0  0  0  0  0  0
  1 22  1  0  0  0  0
  2 19  1  0  0  0  0
  2 24  1  0  0  0  0
  3 20  2  0  0  0  0
  4  7  1  0  0  0  0
  4  8  1  0  0  0  0
  4 11  1  0  0  0  0
  5  9  1  0  0  0  0
  5 10  1  0  0  0  0
  5 13  1  0  0  0  0
  6 14  1  0  0  0  0
  6 20  1  0  0  0  0
  6 44  1  0  0  0  0
  7  9  1  0  0  0  0
  7 28  1  0  0  0  0
  7 29  1  0  0  0  0
  8 10  1  0  0  0  0
  8 30  1  0  0  0  0
  8 31  1  0  0  0  0
  9 32  1  0  0  0  0
  9 33  1  0  0  0  0
 10 34  1  0  0  0  0
 10 35  1  0  0  0  0
 11 12  1  0  0  0  0
 11 36  1  0  0  0  0
 11 37  1  0  0  0  0
 12 14  1  0  0  0  0
 12 38  1  0  0  0  0
 12 39  1  0  0  0  0
 13 15  2  0  0  0  0
 13 16  1  0  0  0  0
 14 40  1  0  0  0  0
 14 41  1  0  0  0  0
 15 17  1  0  0  0  0
 15 42  1  0  0  0  0
 16 18  2  0  0  0  0
 16 43  1  0  0  0  0
 17 19  2  0  0  0  0
 17 45  1  0  0  0  0
 18 19  1  0  0  0  0
 18 46  1  0  0  0  0
 20 21  1  0  0  0  0
 21 22  1  0  0  0  0
 21 23  2  0  0  0  0
 22 25  2  0  0  0  0
 23 26  1  0  0  0  0
 23 47  1  0  0  0  0
 24 48  1  0  0  0  0
 24 49  1  0  0  0  0
 24 50  1  0  0  0  0
 25 27  1  0  0  0  0
 25 51  1  0  0  0  0
 26 27  2  0  0  0  0
 26 52  1  0  0  0  0
 27 53  1  0  0  0  0
M  END
> <PUBCHEM_COMPOUND_CID>
17395301

> <PUBCHEM_CONFORMER_RMSD>
1

> <PUBCHEM_CONFORMER_DIVERSEORDER>
1
48
78
49
98
118
22
38
59
25
127
76
4
29
75
61
87
74
58
18
111
60
128
68
34
85
67
104
72
26
62
90
123
81
8
91
122
73
7
10
92
109
63
66
28
82
20
14
64
30
65
13
21
84
119
94
116
57
89
113
50
80
93
41
71
95
103
120
33
100
12
35
97
53
126
42
124
36
88
110
115
86
11
54
44
45
23
70
102
96
40
47
108
112
56
52
105
107
43
39
79
83
106
117
46
17
51
9
55
125
101
3
2
69
27
99
24
37
77
32
19
16
31
114
6
15
121
5

> <PUBCHEM_MMFF94_PARTIAL_CHARGES>
35
1 -0.19
10 0.37
11 0.27
13 0.1
14 0.3
15 -0.15
16 -0.15
17 -0.15
18 -0.15
19 0.08
2 -0.36
20 0.54
21 0.09
22 0.19
23 -0.15
24 0.28
25 -0.15
26 -0.15
27 -0.15
3 -0.57
4 -0.81
42 0.15
43 0.15
44 0.37
45 0.15
46 0.15
47 0.15
5 -0.84
51 0.15
52 0.15
53 0.15
6 -0.73
7 0.27
8 0.27
9 0.37

> <PUBCHEM_EFFECTIVE_ROTOR_COUNT>
9.2

> <PUBCHEM_PHARMACOPHORE_FEATURES>
8
1 2 acceptor
1 3 acceptor
1 4 cation
1 5 cation
1 6 donor
6 13 15 16 17 18 19 rings
6 21 22 23 25 26 27 rings
6 4 5 7 8 9 10 rings

> <PUBCHEM_HEAVY_ATOM_COUNT>
27

> <PUBCHEM_ATOM_DEF_STEREO_COUNT>
0

> <PUBCHEM_ATOM_UDEF_STEREO_COUNT>
0

> <PUBCHEM_BOND_DEF_STEREO_COUNT>
0

> <PUBCHEM_BOND_UDEF_STEREO_COUNT>
0

> <PUBCHEM_ISOTOPIC_ATOM_COUNT>
0

> <PUBCHEM_COMPONENT_COUNT>
1

> <PUBCHEM_CACTVS_TAUTO_COUNT>
2

> <PUBCHEM_CONFORMER_ID>
01096E6500000001

> <PUBCHEM_MMFF94_ENERGY>
81.0047

> <PUBCHEM_FEATURE_SELFOVERLAP>
40.597

> <PUBCHEM_SHAPE_FINGERPRINT>
10939801 23 18116152169531234836
11475781 23 10807937098344479202
11497681 19 18343018909364216508
117089 54 18055065463951169539
11963148 33 18198910395589157642
12522641 68 17196028367171299493
12643181 29 18336269033156235385
12838863 1 17822583690682291439
1361 4 18409729578024388614
13668630 136 17775566403828416771
13690498 29 18202289113105755773
13782708 43 18339929311617728336
14211702 104 18409721889694942214
14344974 204 18187364320168143694
14671636 106 18410292511219381878
14931854 50 17703239438322119603
14950920 106 17385723561232170057
15183329 4 17917994975290281762
15320294 125 18260267426316271879
15728490 51 18336547127956650580
16992779 147 16807030731926957120
17780758 139 17821726148578755745
17913733 40 14490466504134873957
20028762 73 18412262857120152042
208703 8 18341054025865807195
21033648 29 14996544215232233361
21130935 74 18265337386649534002
21197605 99 18409446990957103542
21585483 132 17845666953285359562
229767 44 17968097491138205303
23389318 12 17917987253687676004
23522609 53 18121465082104390552
270888 7 9295025556955522799
2748736 6 8430313515661266230
3711267 37 6626881410691602138
397830 11 18041011622219786960
4015057 19 17560786702710583460
406291 66 18412829062104999631
439807 62 18411135810451285825
44880568 143 16272216266635221885
4516262 110 7493012830210785905
474113 269 18188220780698692047
484985 159 18409173217035550957
5104073 3 17822009783148978657
54039377 194 18271800203848435955
559249 180 18410008833030034313
5718773 13 18411981342928981897
5719381 36 17987245611128007698
5874358 3 17345215431288215130
5937810 71 10519694627264824334
636775 72 8934128452987631630
6431902 208 18342454829306881891
7495541 125 18040437685603144976
7970288 3 18266179436046279279
9555976 147 18114732858649547952
96874 4 18410577253859408103
999808 66 18260270767325827054

> <PUBCHEM_SHAPE_MULTIPOLES>
521.69
24
3.37
1.18
16.86
0.53
0.02
23.23
-2.87
-2.42
0.33
-1.37
-0.1
-2.44

> <PUBCHEM_SHAPE_SELFOVERLAP>
1098.261

> <PUBCHEM_SHAPE_VOLUME>
293.8

> <PUBCHEM_COORDINATE_TYPE>
2
5
10

$$$$

