656665
  -OEChem-07051213042D

 41 44  0     1  0  0  0  0  0999 V2000
    5.9674   -0.7017    0.0000 O   0  0  0  0  0  0  0  0  0  0  0  0
    4.3211   -0.1636    0.0000 O   0  0  0  0  0  0  0  0  0  0  0  0
    5.8851    3.6380    0.0000 N   0  0  0  0  0  0  0  0  0  0  0  0
    4.6783   -3.4679    0.0000 N   0  0  0  0  0  0  0  0  0  0  0  0
    7.0896    3.3985    0.0000 C   0  0  2  0  0  0  0  0  0  0  0  0
    7.5421    2.5067    0.0000 C   0  0  1  0  0  0  0  0  0  0  0  0
    8.9599    4.0572    0.0000 C   0  0  0  0  0  0  0  0  0  0  0  0
    9.4124    3.1654    0.0000 C   0  0  0  0  0  0  0  0  0  0  0  0
    5.6917    1.0589    0.0000 C   0  0  0  0  0  0  0  0  0  0  0  0
    7.2297    0.5562    0.0000 C   0  0  0  0  0  0  0  0  0  0  0  0
    6.2781    0.2488    0.0000 C   0  0  0  0  0  0  0  0  0  0  0  0
    4.9346    3.9486    0.0000 C   0  0  0  0  0  0  0  0  0  0  0  0
    4.9889   -0.9079    0.0000 C   0  0  0  0  0  0  0  0  0  0  0  0
    4.6783   -1.8584    0.0000 C   0  0  0  0  0  0  0  0  0  0  0  0
    3.7320   -2.1631    0.0000 C   0  0  0  0  0  0  0  0  0  0  0  0
    5.2619   -2.6631    0.0000 C   0  0  0  0  0  0  0  0  0  0  0  0
    3.7320   -3.1631    0.0000 C   0  0  0  0  0  0  0  0  0  0  0  0
    2.8660   -1.6631    0.0000 C   0  0  0  0  0  0  0  0  0  0  0  0
    2.8660   -3.6631    0.0000 C   0  0  0  0  0  0  0  0  0  0  0  0
    2.0000   -2.1631    0.0000 C   0  0  0  0  0  0  0  0  0  0  0  0
    2.0000   -3.1631    0.0000 C   0  0  0  0  0  0  0  0  0  0  0  0
    6.7051    4.1566    0.0000 H   0  0  0  0  0  0  0  0  0  0  0  0
    7.9267    1.7487    0.0000 H   0  0  0  0  0  0  0  0  0  0  0  0
    9.5246    4.3133    0.0000 H   0  0  0  0  0  0  0  0  0  0  0  0
    8.7287    4.6325    0.0000 H   0  0  0  0  0  0  0  0  0  0  0  0
    9.6436    2.5902    0.0000 H   0  0  0  0  0  0  0  0  0  0  0  0
    9.9770    3.4215    0.0000 H   0  0  0  0  0  0  0  0  0  0  0  0
    5.2072    1.4457    0.0000 H   0  0  0  0  0  0  0  0  0  0  0  0
    5.2431    0.6309    0.0000 H   0  0  0  0  0  0  0  0  0  0  0  0
    7.3256   -0.0563    0.0000 H   0  0  0  0  0  0  0  0  0  0  0  0
    7.8497    0.5551    0.0000 H   0  0  0  0  0  0  0  0  0  0  0  0
    5.6656    0.1529    0.0000 H   0  0  0  0  0  0  0  0  0  0  0  0
    5.1272    4.5379    0.0000 H   0  0  0  0  0  0  0  0  0  0  0  0
    4.3453    4.1412    0.0000 H   0  0  0  0  0  0  0  0  0  0  0  0
    4.7420    3.3593    0.0000 H   0  0  0  0  0  0  0  0  0  0  0  0
    5.8819   -2.6631    0.0000 H   0  0  0  0  0  0  0  0  0  0  0  0
    4.8709   -4.0572    0.0000 H   0  0  0  0  0  0  0  0  0  0  0  0
    2.8660   -1.0431    0.0000 H   0  0  0  0  0  0  0  0  0  0  0  0
    2.8660   -4.2831    0.0000 H   0  0  0  0  0  0  0  0  0  0  0  0
    1.4631   -1.8531    0.0000 H   0  0  0  0  0  0  0  0  0  0  0  0
    1.4631   -3.4731    0.0000 H   0  0  0  0  0  0  0  0  0  0  0  0
  1 11  1  0  0  0  0
  1 13  1  0  0  0  0
  2 13  2  0  0  0  0
  3  5  1  0  0  0  0
  3  6  1  0  0  0  0
  3 12  1  0  0  0  0
  4 16  1  0  0  0  0
  4 17  1  0  0  0  0
  4 37  1  0  0  0  0
  5  7  1  0  0  0  0
  5  9  1  0  0  0  0
  5 22  1  1  0  0  0
  6  8  1  0  0  0  0
  6 10  1  0  0  0  0
  6 23  1  6  0  0  0
  7  8  1  0  0  0  0
  7 24  1  0  0  0  0
  7 25  1  0  0  0  0
  8 26  1  0  0  0  0
  8 27  1  0  0  0  0
  9 11  1  0  0  0  0
  9 28  1  0  0  0  0
  9 29  1  0  0  0  0
 10 11  1  0  0  0  0
 10 30  1  0  0  0  0
 10 31  1  0  0  0  0
 11 32  1  0  0  0  0
 12 33  1  0  0  0  0
 12 34  1  0  0  0  0
 12 35  1  0  0  0  0
 13 14  1  0  0  0  0
 14 15  1  0  0  0  0
 14 16  2  0  0  0  0
 15 17  1  0  0  0  0
 15 18  2  0  0  0  0
 16 36  1  0  0  0  0
 17 19  2  0  0  0  0
 18 20  1  0  0  0  0
 18 38  1  0  0  0  0
 19 21  1  0  0  0  0
 19 39  1  0  0  0  0
 20 21  2  0  0  0  0
 20 40  1  0  0  0  0
 21 41  1  0  0  0  0
M  END
> <PUBCHEM_COMPOUND_CID>
656665

> <PUBCHEM_COMPOUND_CANONICALIZED>
1

> <PUBCHEM_CACTVS_COMPLEXITY>
400

> <PUBCHEM_CACTVS_HBOND_ACCEPTOR>
3

> <PUBCHEM_CACTVS_HBOND_DONOR>
1

> <PUBCHEM_CACTVS_ROTATABLE_BOND>
3

> <PUBCHEM_CACTVS_SUBSKEYS>
AAADceB7MAAAAAAAAAAAAAAAAAAAAWLAAAA8QAAABgAAAFgB8AAAHgAQAAAADDzhngY+yPPJlACoAzT3TACCgCA1AiAI2aE4bNgIJvrAtZmGMYhm0AHI6ce8yOCOgAAAAAACAAAAAAAAAAQAAAAAAAAAAA==

> <PUBCHEM_IUPAC_OPENEYE_NAME>
[(1R,5S)-8-methyl-8-azabicyclo[3.2.1]octan-3-yl] 1H-indole-3-carboxylate

> <PUBCHEM_IUPAC_CAS_NAME>
1H-indole-3-carboxylic acid [(1R,5S)-8-methyl-8-azabicyclo[3.2.1]octan-3-yl] ester

> <PUBCHEM_IUPAC_NAME>
[(1R,5S)-8-methyl-8-azabicyclo[3.2.1]octan-3-yl] 1H-indole-3-carboxylate

> <PUBCHEM_IUPAC_SYSTEMATIC_NAME>
[(1R,5S)-8-methyl-8-azabicyclo[3.2.1]octan-3-yl] 1H-indole-3-carboxylate

> <PUBCHEM_IUPAC_TRADITIONAL_NAME>
1H-indole-3-carboxylic acid [(1R,5S)-8-methyl-8-azabicyclo[3.2.1]octan-3-yl] ester

> <PUBCHEM_IUPAC_INCHI>
InChI=1S/C17H20N2O2/c1-19-11-6-7-12(19)9-13(8-11)21-17(20)15-10-18-16-5-3-2-4-14(15)16/h2-5,10-13,18H,6-9H2,1H3/t11-,12+,13?

> <PUBCHEM_IUPAC_INCHIKEY>
ZNRGQMMCGHDTEI-FUNVUKJBSA-N

> <PUBCHEM_XLOGP3>
3.8

> <PUBCHEM_EXACT_MASS>
284.152478

> <PUBCHEM_MOLECULAR_FORMULA>
C17H20N2O2

> <PUBCHEM_MOLECULAR_WEIGHT>
284.3529

> <PUBCHEM_OPENEYE_CAN_SMILES>
CN1C2CCC1CC(C2)OC(=O)C3=CNC4=CC=CC=C43

> <PUBCHEM_OPENEYE_ISO_SMILES>
CN1[C@@H]2CC[C@H]1CC(C2)OC(=O)C3=CNC4=CC=CC=C43

> <PUBCHEM_CACTVS_TPSA>
45.3

> <PUBCHEM_MONOISOTOPIC_WEIGHT>
284.152478

> <PUBCHEM_TOTAL_CHARGE>
0

> <PUBCHEM_HEAVY_ATOM_COUNT>
21

> <PUBCHEM_ATOM_DEF_STEREO_COUNT>
2

> <PUBCHEM_ATOM_UDEF_STEREO_COUNT>
0

> <PUBCHEM_BOND_DEF_STEREO_COUNT>
0

> <PUBCHEM_BOND_UDEF_STEREO_COUNT>
0

> <PUBCHEM_ISOTOPIC_ATOM_COUNT>
0

> <PUBCHEM_COMPONENT_COUNT>
1

> <PUBCHEM_CACTVS_TAUTO_COUNT>
3

> <PUBCHEM_COORDINATE_TYPE>
1
5
255

> <PUBCHEM_BONDANNOTATIONS>
14  15  8
14  16  8
15  17  8
15  18  8
17  19  8
18  20  8
19  21  8
20  21  8
4  16  8
4  17  8
5  22  5
6  23  6

$$$$

