56928156
  -OEChem-07051213153D

 43 45  0     1  0  0  0  0  0999 V2000
   -5.9262   -0.0831    0.2592 S   0  0  0  0  0  0  0  0  0  0  0  0
    3.8608   -1.9585    1.4663 O   0  0  0  0  0  0  0  0  0  0  0  0
    1.6880   -2.4551    0.7822 O   0  0  0  0  0  0  0  0  0  0  0  0
   -0.3286    2.2562   -1.4204 O   0  0  0  0  0  0  0  0  0  0  0  0
   -2.0217    0.5928    0.3985 O   0  0  0  0  0  0  0  0  0  0  0  0
   -3.1364   -1.4107    0.5444 O   0  0  0  0  0  0  0  0  0  0  0  0
   -6.1974   -0.3907   -1.3194 O   0  0  0  0  0  0  0  0  0  0  0  0
   -5.9108   -1.3540    0.9596 O   0  0  0  0  0  0  0  0  0  0  0  0
   -6.8478    0.9617    0.6652 O   0  0  0  0  0  0  0  0  0  0  0  0
    2.0829   -0.3746   -1.2471 N   0  0  0  0  0  0  0  0  0  0  0  0
    2.4448    1.5241    1.5547 N   0  0  0  0  0  0  0  0  0  0  0  0
    3.9210    0.4661    0.2038 N   0  0  0  0  0  0  0  0  0  0  0  0
    0.5830    1.3523   -0.8974 N   0  0  0  0  0  0  0  0  0  0  0  0
    1.0887    0.6798   -3.1152 N   0  0  0  0  0  0  0  0  0  0  0  0
    4.5795    2.4247    1.4010 N   0  0  0  0  0  0  0  0  0  0  0  0
   -4.3459    0.5722    0.2779 N   0  0  0  0  0  0  0  0  0  0  0  0
    2.6126   -0.2895    0.1238 C   0  0  1  0  0  0  0  0  0  0  0  0
    1.6293    0.4182    1.1089 C   0  0  2  0  0  0  0  0  0  0  0  0
    2.8964   -1.7803    0.4439 C   0  0  0  0  0  0  0  0  0  0  0  0
    0.3371    0.9626    0.4829 C   0  0  2  0  0  0  0  0  0  0  0  0
    3.4297   -2.2919   -0.8967 C   0  0  0  0  0  0  0  0  0  0  0  0
    2.5506   -1.5808   -1.9271 C   0  0  0  0  0  0  0  0  0  0  0  0
    1.2487    0.5695   -1.8235 C   0  0  0  0  0  0  0  0  0  0  0  0
    3.6943    1.4597    1.0239 C   0  0  0  0  0  0  0  0  0  0  0  0
   -0.7842   -0.0787    0.5307 C   0  0  0  0  0  0  0  0  0  0  0  0
   -3.1485   -0.1919    0.4199 C   0  0  0  0  0  0  0  0  0  0  0  0
    1.4180   -0.1999    1.9883 H   0  0  0  0  0  0  0  0  0  0  0  0
    0.0098    1.8495    1.0429 H   0  0  0  0  0  0  0  0  0  0  0  0
    3.3668   -3.3798   -1.0031 H   0  0  0  0  0  0  0  0  0  0  0  0
    4.4810   -2.0091   -1.0327 H   0  0  0  0  0  0  0  0  0  0  0  0
    3.1184   -1.3435   -2.8323 H   0  0  0  0  0  0  0  0  0  0  0  0
    1.6932   -2.2065   -2.1983 H   0  0  0  0  0  0  0  0  0  0  0  0
    2.1341    2.2022    2.2400 H   0  0  0  0  0  0  0  0  0  0  0  0
   -0.7782   -0.5898    1.5009 H   0  0  0  0  0  0  0  0  0  0  0  0
   -0.6780   -0.8291   -0.2617 H   0  0  0  0  0  0  0  0  0  0  0  0
    1.7828   -3.3897    0.5339 H   0  0  0  0  0  0  0  0  0  0  0  0
    4.3145   -2.8034    1.3077 H   0  0  0  0  0  0  0  0  0  0  0  0
    0.4171    1.4347   -3.2942 H   0  0  0  0  0  0  0  0  0  0  0  0
    4.3152    3.1610    2.0464 H   0  0  0  0  0  0  0  0  0  0  0  0
    5.5293    2.4362    1.0457 H   0  0  0  0  0  0  0  0  0  0  0  0
    0.0599    3.1065   -1.1528 H   0  0  0  0  0  0  0  0  0  0  0  0
   -4.2530    1.5865    0.1402 H   0  0  0  0  0  0  0  0  0  0  0  0
   -7.0743   -0.7912   -1.5265 H   0  0  0  0  0  0  0  0  0  0  0  0
  1  7  1  0  0  0  0
  1  8  2  0  0  0  0
  1  9  2  0  0  0  0
  1 16  1  0  0  0  0
  2 19  1  0  0  0  0
  2 37  1  0  0  0  0
  3 19  1  0  0  0  0
  3 36  1  0  0  0  0
  4 13  1  0  0  0  0
  4 41  1  0  0  0  0
  5 25  1  0  0  0  0
  5 26  1  0  0  0  0
  6 26  2  0  0  0  0
  7 43  1  0  0  0  0
 10 17  1  0  0  0  0
 10 22  1  0  0  0  0
 10 23  1  0  0  0  0
 11 18  1  0  0  0  0
 11 24  1  0  0  0  0
 11 33  1  0  0  0  0
 12 17  1  0  0  0  0
 12 24  2  0  0  0  0
 13 20  1  0  0  0  0
 13 23  1  0  0  0  0
 14 23  2  0  0  0  0
 14 38  1  0  0  0  0
 15 24  1  0  0  0  0
 15 39  1  0  0  0  0
 15 40  1  0  0  0  0
 16 26  1  0  0  0  0
 16 42  1  0  0  0  0
 17 18  1  0  0  0  0
 17 19  1  0  0  0  0
 18 20  1  0  0  0  0
 18 27  1  0  0  0  0
 19 21  1  0  0  0  0
 20 25  1  0  0  0  0
 20 28  1  0  0  0  0
 21 22  1  0  0  0  0
 21 29  1  0  0  0  0
 21 30  1  0  0  0  0
 22 31  1  0  0  0  0
 22 32  1  0  0  0  0
 25 34  1  0  0  0  0
 25 35  1  0  0  0  0
M  END
> <PUBCHEM_COMPOUND_CID>
56928156

> <PUBCHEM_CONFORMER_RMSD>
0.8

> <PUBCHEM_CONFORMER_DIVERSEORDER>
1
68
30
61
26
48
93
81
6
77
39
38
105
74
46
25
22
49
17
47
18
45
102
4
42
40
71
69
54
88
31
84
82
41
28
86
43
35
72
98
37
50
95
7
44
11
29
65
9
106
20
32
79
27
23
8
73
55
3
89
103
16
75
57
58
85
70
60
62
94
104
14
59
21
13
33
87
36
66
78
99
53
97
2
80
5
100
96
92
15
10
12
64
19
52
76
63
83
56
34
91
51
90
101
67
24

> <PUBCHEM_MMFF94_PARTIAL_CHARGES>
34
1 1.62
10 -0.79
11 -0.82
12 -0.7
13 -0.44
14 -0.85
15 -0.85
16 -0.79
17 0.62
18 0.37
19 0.56
2 -0.68
20 0.37
22 0.37
23 0.55
24 0.55
25 0.28
26 0.96
3 -0.68
33 0.4
36 0.4
37 0.4
38 0.4
39 0.4
4 -0.38
40 0.4
41 0.4
42 0.42
43 0.5
5 -0.43
6 -0.57
7 -0.68
8 -0.65
9 -0.65

> <PUBCHEM_EFFECTIVE_ROTOR_COUNT>
6.2

> <PUBCHEM_PHARMACOPHORE_FEATURES>
18
1 11 donor
1 14 donor
1 15 donor
1 16 donor
1 2 acceptor
1 2 donor
1 3 acceptor
1 3 donor
1 6 acceptor
1 7 acceptor
1 8 acceptor
1 9 acceptor
4 1 7 8 9 anion
4 10 13 14 23 cation
4 11 12 15 24 cation
5 10 17 19 21 22 rings
5 11 12 17 18 24 rings
6 10 13 17 18 20 23 rings

> <PUBCHEM_HEAVY_ATOM_COUNT>
26

> <PUBCHEM_ATOM_DEF_STEREO_COUNT>
3

> <PUBCHEM_ATOM_UDEF_STEREO_COUNT>
0

> <PUBCHEM_BOND_DEF_STEREO_COUNT>
0

> <PUBCHEM_BOND_UDEF_STEREO_COUNT>
0

> <PUBCHEM_ISOTOPIC_ATOM_COUNT>
0

> <PUBCHEM_COMPONENT_COUNT>
1

> <PUBCHEM_CACTVS_TAUTO_COUNT>
6

> <PUBCHEM_CONFORMER_ID>
0364A79C00000001

> <PUBCHEM_MMFF94_ENERGY>
70.1202

> <PUBCHEM_FEATURE_SELFOVERLAP>
91.94

> <PUBCHEM_SHAPE_FINGERPRINT>
10165383 225 18341050706378671144
10366900 7 13912315764358694715
10906281 52 17916856907545988096
11578080 2 18057327391265576980
11823591 26 16878232940003762992
12617007 42 17632282514825013934
12633257 1 17749401372392436110
13073987 5 18334009485352995257
13533116 47 18186799214583484299
14863182 85 18273207573978131218
15142383 8 15338855174301775709
15183329 4 17846776339384878237
15238133 3 15554457331255509133
16752209 62 17059493075076020997
16945 1 18129675089016751032
17349148 13 18334285492725847043
17844677 252 18335696179008249513
17980427 23 17629488484344113884
1813 80 17060341837696164781
20645477 70 18114181960067539707
20775530 9 17550096408646157250
22224240 67 18264500498769912552
23419403 2 18127433326435920844
23557571 272 17417821681142962460
23559900 14 18272357685944674223
239999 70 18259699017132264770
25222932 49 17823421479302232175
31174 14 18261116309274529176
338550 245 18059006182222925131
3411729 13 18260549987761270376
4340502 62 18334299730146554592
465052 167 17458059395687794614
5104073 3 18408879668552181425
54040823 5 17530960272173331346
8272917 22 17967813842823100440
8988823 20 18187369835195443681
9971528 1 18130788966772055469
9999458 23 18337391531364642008

> <PUBCHEM_SHAPE_MULTIPOLES>
457.1
12.41
2.27
1.88
28.87
0.17
-1.41
0.52
3.18
-3.26
0.4
-1.18
0.12
0.75

> <PUBCHEM_SHAPE_SELFOVERLAP>
959.624

> <PUBCHEM_SHAPE_VOLUME>
259.8

> <PUBCHEM_COORDINATE_TYPE>
2
5
10

$$$$

