5281701
  -OEChem-07051212592D

 32 34  0     0  0  0  0  0  0999 V2000
    6.8671    0.2704    0.0000 O   0  0  0  0  0  0  0  0  0  0  0  0
    8.6155   -2.7642    0.0000 O   0  0  0  0  0  0  0  0  0  0  0  0
    6.8671   -2.7296    0.0000 O   0  0  0  0  0  0  0  0  0  0  0  0
   10.3972    0.2945    0.0000 O   0  0  0  0  0  0  0  0  0  0  0  0
    2.5369   -0.2296    0.0000 O   0  0  0  0  0  0  0  0  0  0  0  0
    4.2690    2.7704    0.0000 O   0  0  0  0  0  0  0  0  0  0  0  0
    2.5369    1.7704    0.0000 O   0  0  0  0  0  0  0  0  0  0  0  0
    7.7331   -1.2296    0.0000 C   0  0  0  0  0  0  0  0  0  0  0  0
    6.0010   -0.2296    0.0000 C   0  0  0  0  0  0  0  0  0  0  0  0
    7.7331   -0.2296    0.0000 C   0  0  0  0  0  0  0  0  0  0  0  0
    5.1350    0.2704    0.0000 C   0  0  0  0  0  0  0  0  0  0  0  0
    6.8671   -1.7296    0.0000 C   0  0  0  0  0  0  0  0  0  0  0  0
    6.0010   -1.2296    0.0000 C   0  0  0  0  0  0  0  0  0  0  0  0
    8.6270   -1.7643    0.0000 C   0  0  0  0  0  0  0  0  0  0  0  0
    8.6270    0.3051    0.0000 C   0  0  0  0  0  0  0  0  0  0  0  0
    5.1350    1.2704    0.0000 C   0  0  0  0  0  0  0  0  0  0  0  0
    4.2690   -0.2296    0.0000 C   0  0  0  0  0  0  0  0  0  0  0  0
    9.5331   -0.2088    0.0000 C   0  0  0  0  0  0  0  0  0  0  0  0
    9.5331   -1.2504    0.0000 C   0  0  0  0  0  0  0  0  0  0  0  0
    3.4030    0.2704    0.0000 C   0  0  0  0  0  0  0  0  0  0  0  0
    4.2690    1.7704    0.0000 C   0  0  0  0  0  0  0  0  0  0  0  0
    3.4030    1.2704    0.0000 C   0  0  0  0  0  0  0  0  0  0  0  0
    5.4641   -1.5396    0.0000 H   0  0  0  0  0  0  0  0  0  0  0  0
    8.6199    0.9250    0.0000 H   0  0  0  0  0  0  0  0  0  0  0  0
    5.6720    1.5804    0.0000 H   0  0  0  0  0  0  0  0  0  0  0  0
    4.2690   -0.8496    0.0000 H   0  0  0  0  0  0  0  0  0  0  0  0
   10.0688   -1.5625    0.0000 H   0  0  0  0  0  0  0  0  0  0  0  0
    9.1488   -3.0804    0.0000 H   0  0  0  0  0  0  0  0  0  0  0  0
   10.9353   -0.0134    0.0000 H   0  0  0  0  0  0  0  0  0  0  0  0
    2.5369   -0.8496    0.0000 H   0  0  0  0  0  0  0  0  0  0  0  0
    4.8059    3.0804    0.0000 H   0  0  0  0  0  0  0  0  0  0  0  0
    2.0000    1.4604    0.0000 H   0  0  0  0  0  0  0  0  0  0  0  0
  1  9  1  0  0  0  0
  1 10  1  0  0  0  0
  2 14  1  0  0  0  0
  2 28  1  0  0  0  0
  3 12  2  0  0  0  0
  4 18  1  0  0  0  0
  4 29  1  0  0  0  0
  5 20  1  0  0  0  0
  5 30  1  0  0  0  0
  6 21  1  0  0  0  0
  6 31  1  0  0  0  0
  7 22  1  0  0  0  0
  7 32  1  0  0  0  0
  8 10  1  0  0  0  0
  8 12  1  0  0  0  0
  8 14  2  0  0  0  0
  9 11  1  0  0  0  0
  9 13  2  0  0  0  0
 10 15  2  0  0  0  0
 11 16  2  0  0  0  0
 11 17  1  0  0  0  0
 12 13  1  0  0  0  0
 13 23  1  0  0  0  0
 14 19  1  0  0  0  0
 15 18  1  0  0  0  0
 15 24  1  0  0  0  0
 16 21  1  0  0  0  0
 16 25  1  0  0  0  0
 17 20  2  0  0  0  0
 17 26  1  0  0  0  0
 18 19  2  0  0  0  0
 19 27  1  0  0  0  0
 20 22  1  0  0  0  0
 21 22  2  0  0  0  0
M  END
> <PUBCHEM_COMPOUND_CID>
5281701

> <PUBCHEM_COMPOUND_CANONICALIZED>
1

> <PUBCHEM_CACTVS_COMPLEXITY>
465

> <PUBCHEM_CACTVS_HBOND_ACCEPTOR>
7

> <PUBCHEM_CACTVS_HBOND_DONOR>
5

> <PUBCHEM_CACTVS_ROTATABLE_BOND>
1

> <PUBCHEM_CACTVS_SUBSKEYS>
AAADccBwOAAAAAAAAAAAAAAAAAAAAAAAAAAwYIAAAAAAAACBQAAAGgAACAAADASAmAAwBoAABgCIAqBSAAACCAAkIAAAiAEGiMgNJzaGNRqCeWGl4BUJuQfI7LzOIAABCAAIQABAAAIQABCAAAAAAAAAAA==

> <PUBCHEM_IUPAC_OPENEYE_NAME>
5,7-dihydroxy-2-(3,4,5-trihydroxyphenyl)chromen-4-one

> <PUBCHEM_IUPAC_CAS_NAME>
5,7-dihydroxy-2-(3,4,5-trihydroxyphenyl)-1-benzopyran-4-one

> <PUBCHEM_IUPAC_NAME>
5,7-dihydroxy-2-(3,4,5-trihydroxyphenyl)chromen-4-one

> <PUBCHEM_IUPAC_SYSTEMATIC_NAME>
5,7-bis(oxidanyl)-2-[3,4,5-tris(oxidanyl)phenyl]chromen-4-one

> <PUBCHEM_IUPAC_TRADITIONAL_NAME>
5,7-dihydroxy-2-(3,4,5-trihydroxyphenyl)chromone

> <PUBCHEM_IUPAC_INCHI>
InChI=1S/C15H10O7/c16-7-3-8(17)14-9(18)5-12(22-13(14)4-7)6-1-10(19)15(21)11(20)2-6/h1-5,16-17,19-21H

> <PUBCHEM_IUPAC_INCHIKEY>
ARSRJFRKVXALTF-UHFFFAOYSA-N

> <PUBCHEM_XLOGP3>
1

> <PUBCHEM_EXACT_MASS>
302.042653

> <PUBCHEM_MOLECULAR_FORMULA>
C15H10O7

> <PUBCHEM_MOLECULAR_WEIGHT>
302.2357

> <PUBCHEM_OPENEYE_CAN_SMILES>
C1=C(C=C(C(=C1O)O)O)C2=CC(=O)C3=C(C=C(C=C3O2)O)O

> <PUBCHEM_OPENEYE_ISO_SMILES>
C1=C(C=C(C(=C1O)O)O)C2=CC(=O)C3=C(C=C(C=C3O2)O)O

> <PUBCHEM_CACTVS_TPSA>
127

> <PUBCHEM_MONOISOTOPIC_WEIGHT>
302.042653

> <PUBCHEM_TOTAL_CHARGE>
0

> <PUBCHEM_HEAVY_ATOM_COUNT>
22

> <PUBCHEM_ATOM_DEF_STEREO_COUNT>
0

> <PUBCHEM_ATOM_UDEF_STEREO_COUNT>
0

> <PUBCHEM_BOND_DEF_STEREO_COUNT>
0

> <PUBCHEM_BOND_UDEF_STEREO_COUNT>
0

> <PUBCHEM_ISOTOPIC_ATOM_COUNT>
0

> <PUBCHEM_COMPONENT_COUNT>
1

> <PUBCHEM_CACTVS_TAUTO_COUNT>
195

> <PUBCHEM_COORDINATE_TYPE>
1
5
255

> <PUBCHEM_BONDANNOTATIONS>
1  10  8
1  9  8
10  15  8
11  16  8
11  17  8
12  13  8
14  19  8
15  18  8
16  21  8
17  20  8
18  19  8
20  22  8
21  22  8
8  10  8
8  12  8
8  14  8
9  13  8

$$$$

