69886
  -OEChem-07051213053D

 27 27  0     0  0  0  0  0  0999 V2000
   -1.1837   -0.4987   -0.1688 O   0  0  0  0  0  0  0  0  0  0  0  0
   -0.7898    1.6618    0.5209 O   0  0  0  0  0  0  0  0  0  0  0  0
   -2.5926   -0.2727   -0.1112 C   0  0  0  0  0  0  0  0  0  0  0  0
   -2.9421    0.8646   -1.0701 C   0  0  0  0  0  0  0  0  0  0  0  0
   -3.2839   -1.5661   -0.5369 C   0  0  0  0  0  0  0  0  0  0  0  0
   -2.9688    0.0903    1.3246 C   0  0  0  0  0  0  0  0  0  0  0  0
   -0.4006    0.5574    0.1743 C   0  0  0  0  0  0  0  0  0  0  0  0
    1.0357    0.1950    0.0722 C   0  0  0  0  0  0  0  0  0  0  0  0
    1.9512    1.1786   -0.2414 C   0  0  0  0  0  0  0  0  0  0  0  0
    1.4103   -1.1143    0.2940 C   0  0  0  0  0  0  0  0  0  0  0  0
    3.3004    0.8380   -0.3376 C   0  0  0  0  0  0  0  0  0  0  0  0
    2.7595   -1.4550    0.1979 C   0  0  0  0  0  0  0  0  0  0  0  0
    3.7046   -0.4788   -0.1178 C   0  0  0  0  0  0  0  0  0  0  0  0
   -2.4353    0.7355   -2.0335 H   0  0  0  0  0  0  0  0  0  0  0  0
   -4.0220    0.8868   -1.2596 H   0  0  0  0  0  0  0  0  0  0  0  0
   -2.6870    1.8618   -0.7030 H   0  0  0  0  0  0  0  0  0  0  0  0
   -2.9960   -2.3947    0.1203 H   0  0  0  0  0  0  0  0  0  0  0  0
   -2.9791   -1.8543   -1.5495 H   0  0  0  0  0  0  0  0  0  0  0  0
   -4.3745   -1.4715   -0.5173 H   0  0  0  0  0  0  0  0  0  0  0  0
   -2.6980    1.1066    1.6212 H   0  0  0  0  0  0  0  0  0  0  0  0
   -4.0539    0.0183    1.4660 H   0  0  0  0  0  0  0  0  0  0  0  0
   -2.4912   -0.5910    2.0384 H   0  0  0  0  0  0  0  0  0  0  0  0
    1.6482    2.2064   -0.4180 H   0  0  0  0  0  0  0  0  0  0  0  0
    0.6967   -1.8901    0.5549 H   0  0  0  0  0  0  0  0  0  0  0  0
    4.0362    1.5978   -0.5842 H   0  0  0  0  0  0  0  0  0  0  0  0
    3.0750   -2.4795    0.3721 H   0  0  0  0  0  0  0  0  0  0  0  0
    4.7552   -0.7439   -0.1920 H   0  0  0  0  0  0  0  0  0  0  0  0
  1  3  1  0  0  0  0
  1  7  1  0  0  0  0
  2  7  2  0  0  0  0
  3  4  1  0  0  0  0
  3  5  1  0  0  0  0
  3  6  1  0  0  0  0
  4 14  1  0  0  0  0
  4 15  1  0  0  0  0
  4 16  1  0  0  0  0
  5 17  1  0  0  0  0
  5 18  1  0  0  0  0
  5 19  1  0  0  0  0
  6 20  1  0  0  0  0
  6 21  1  0  0  0  0
  6 22  1  0  0  0  0
  7  8  1  0  0  0  0
  8  9  2  0  0  0  0
  8 10  1  0  0  0  0
  9 11  1  0  0  0  0
  9 23  1  0  0  0  0
 10 12  2  0  0  0  0
 10 24  1  0  0  0  0
 11 13  2  0  0  0  0
 11 25  1  0  0  0  0
 12 13  1  0  0  0  0
 12 26  1  0  0  0  0
 13 27  1  0  0  0  0
M  END
> <PUBCHEM_COMPOUND_CID>
69886

> <PUBCHEM_CONFORMER_RMSD>
0.6

> <PUBCHEM_CONFORMER_DIVERSEORDER>
1
5
8
3
4
2
7
6

> <PUBCHEM_MMFF94_PARTIAL_CHARGES>
15
1 -0.43
10 -0.15
11 -0.15
12 -0.15
13 -0.15
2 -0.57
23 0.15
24 0.15
25 0.15
26 0.15
27 0.15
3 0.28
7 0.63
8 0.09
9 -0.15

> <PUBCHEM_EFFECTIVE_ROTOR_COUNT>
3

> <PUBCHEM_PHARMACOPHORE_FEATURES>
3
1 2 acceptor
4 3 4 5 6 hydrophobe
6 8 9 10 11 12 13 rings

> <PUBCHEM_HEAVY_ATOM_COUNT>
13

> <PUBCHEM_ATOM_DEF_STEREO_COUNT>
0

> <PUBCHEM_ATOM_UDEF_STEREO_COUNT>
0

> <PUBCHEM_BOND_DEF_STEREO_COUNT>
0

> <PUBCHEM_BOND_UDEF_STEREO_COUNT>
0

> <PUBCHEM_ISOTOPIC_ATOM_COUNT>
0

> <PUBCHEM_COMPONENT_COUNT>
1

> <PUBCHEM_CACTVS_TAUTO_COUNT>
1

> <PUBCHEM_CONFORMER_ID>
000110FE00000001

> <PUBCHEM_MMFF94_ENERGY>
41.7312

> <PUBCHEM_FEATURE_SELFOVERLAP>
15.223

> <PUBCHEM_SHAPE_FINGERPRINT>
10608611 8 18130793355944010068
11769659 78 18411706503824657346
12897270 3 18412827988499767044
12932764 1 18412823585968319613
13296908 3 18273214218007357235
13571099 22 18410863195422290909
14144814 61 18259703410609183762
14325111 11 18413671301001629916
15375462 189 18335695018707462635
16945 1 18408322202849989984
17844478 74 17846768603473700529
18186145 218 18409725162496587518
18619055 16 18410583906657851799
190213 19 17967814946476656110
19422 9 18186794760148425702
200 152 18336273400293631943
20201158 50 18272652350449245066
20279233 1 17561365071416392091
20281407 28 18334016102953417370
20281475 54 18187081775754377878
20645477 70 18341620368273875118
21501925 9 18341906237787736434
22485316 2 18335143072454868079
23402539 116 18060429014608529452
23402655 69 18342177799426065964
23557571 272 16056879104974288471
23559900 14 18335995263229281306
25610 137 18412257307462898576
2748010 2 17692801597950096800
2871803 45 18200040538490730159
3248919 1 17531245079970836431
3312278 4 18410012143457873811
581208 293 18341052934901532576
93112 12 18343309183947980397

> <PUBCHEM_SHAPE_MULTIPOLES>
255.8
6.69
1.52
0.9
0.26
0.12
-0.09
1.13
0.65
0.09
0.07
-0.74
-0.08
-0.26

> <PUBCHEM_SHAPE_SELFOVERLAP>
529.01

> <PUBCHEM_SHAPE_VOLUME>
147.3

> <PUBCHEM_COORDINATE_TYPE>
2
5
10

$$$$

