440394
  -OEChem-07051212493D

 16 16  0     0  0  0  0  0  0999 V2000
   -2.7221    1.1778   -0.0965 O   0  0  0  0  0  0  0  0  0  0  0  0
    2.3442    1.2214    0.5357 O   0  0  0  0  0  0  0  0  0  0  0  0
    2.9385   -0.7486   -0.4624 O   0  0  0  0  0  0  0  0  0  0  0  0
   -0.1908    2.0591   -0.1617 N   0  0  0  0  0  0  0  0  0  0  0  0
    0.6610   -0.2547    0.0061 C   0  0  0  0  0  0  0  0  0  0  0  0
   -0.3903    0.7876   -0.0694 C   0  0  0  0  0  0  0  0  0  0  0  0
    0.2916   -1.5390    0.0994 C   0  0  0  0  0  0  0  0  0  0  0  0
   -1.8323    0.3430   -0.0366 C   0  0  0  0  0  0  0  0  0  0  0  0
   -1.0884   -1.9577    0.1307 C   0  0  0  0  0  0  0  0  0  0  0  0
   -2.1132   -1.1022    0.0689 C   0  0  0  0  0  0  0  0  0  0  0  0
    2.1018    0.0135   -0.0142 C   0  0  0  0  0  0  0  0  0  0  0  0
    1.0222   -2.3410    0.1631 H   0  0  0  0  0  0  0  0  0  0  0  0
   -1.2785   -3.0237    0.2090 H   0  0  0  0  0  0  0  0  0  0  0  0
   -3.1435   -1.4343    0.0938 H   0  0  0  0  0  0  0  0  0  0  0  0
   -1.0790    2.5704   -0.1986 H   0  0  0  0  0  0  0  0  0  0  0  0
    3.3007    1.4390    0.5410 H   0  0  0  0  0  0  0  0  0  0  0  0
  1  8  2  0  0  0  0
  2 11  1  0  0  0  0
  2 16  1  0  0  0  0
  3 11  2  0  0  0  0
  4  6  2  0  0  0  0
  4 15  1  0  0  0  0
  5  6  1  0  0  0  0
  5  7  2  0  0  0  0
  5 11  1  0  0  0  0
  6  8  1  0  0  0  0
  7  9  1  0  0  0  0
  7 12  1  0  0  0  0
  8 10  1  0  0  0  0
  9 10  2  0  0  0  0
  9 13  1  0  0  0  0
 10 14  1  0  0  0  0
M  END
> <PUBCHEM_COMPOUND_CID>
440394

> <PUBCHEM_CONFORMER_RMSD>
0.4

> <PUBCHEM_CONFORMER_DIVERSEORDER>
2
3
1

> <PUBCHEM_MMFF94_PARTIAL_CHARGES>
16
1 -0.57
10 -0.14
11 0.71
12 0.15
13 0.15
14 0.15
15 0.4
16 0.5
2 -0.65
3 -0.57
4 -0.85
5 0.03
6 0.44
7 -0.15
8 0.56
9 -0.15

> <PUBCHEM_EFFECTIVE_ROTOR_COUNT>
1

> <PUBCHEM_PHARMACOPHORE_FEATURES>
7
1 1 acceptor
1 2 acceptor
1 3 acceptor
1 4 acceptor
1 4 donor
3 2 3 11 anion
6 5 6 7 8 9 10 rings

> <PUBCHEM_HEAVY_ATOM_COUNT>
11

> <PUBCHEM_ATOM_DEF_STEREO_COUNT>
0

> <PUBCHEM_ATOM_UDEF_STEREO_COUNT>
0

> <PUBCHEM_BOND_DEF_STEREO_COUNT>
0

> <PUBCHEM_BOND_UDEF_STEREO_COUNT>
0

> <PUBCHEM_ISOTOPIC_ATOM_COUNT>
0

> <PUBCHEM_COMPONENT_COUNT>
1

> <PUBCHEM_CACTVS_TAUTO_COUNT>
1

> <PUBCHEM_CONFORMER_ID>
0006B84A00000002

> <PUBCHEM_MMFF94_ENERGY>
24.1515

> <PUBCHEM_FEATURE_SELFOVERLAP>
35.587

> <PUBCHEM_SHAPE_FINGERPRINT>
10857977 72 18267313031779609874
12423570 1 11783220889444154898
12524768 44 18335983090727591790
12716758 59 18411700988928406826
12897270 3 18338237166726069028
14325111 11 18410293614002454048
16945 1 18265899231561762451
193761 8 17907294356313800669
19973954 147 18338233735152759424
20871998 184 18189329074474213087
21040471 1 18412545443960129095
22802520 49 18261377992741363694
23235685 24 18340490083421239701
23552423 10 18200873976778052134
23559900 14 18335133242277210158
241688 4 18411700950262963489
2748010 2 18410575050308654407
369184 2 18261111833375209858
5084963 1 18187923924293807867
528886 8 18338802315887368731
6333449 129 18409170986850147982
66348 1 18339361992885806323

> <PUBCHEM_SHAPE_MULTIPOLES>
203.79
3.56
1.97
0.62
1.15
0.06
0.01
0.19
-0.08
-0.56
0.02
0.07
-0.02
0.25

> <PUBCHEM_SHAPE_SELFOVERLAP>
431.066

> <PUBCHEM_SHAPE_VOLUME>
113

> <PUBCHEM_COORDINATE_TYPE>
2
5
10

$$$$

