582766
  -OEChem-06241222443D

 30 31  0     0  0  0  0  0  0999 V2000
    2.5741   -0.1275    0.3251 O   0  0  0  0  0  0  0  0  0  0  0  0
    1.0070   -0.2213   -1.3642 O   0  0  0  0  0  0  0  0  0  0  0  0
    5.0809    0.2094    1.2572 O   0  0  0  0  0  0  0  0  0  0  0  0
   -2.8410   -1.9043   -0.2492 N   0  0  0  0  0  0  0  0  0  0  0  0
   -1.0258   -0.8547    0.4789 C   0  0  0  0  0  0  0  0  0  0  0  0
   -2.0550    0.1109    0.2967 C   0  0  0  0  0  0  0  0  0  0  0  0
   -3.1831   -0.5738   -0.1605 C   0  0  0  0  0  0  0  0  0  0  0  0
    0.3497   -0.5962    0.9509 C   0  0  0  0  0  0  0  0  0  0  0  0
   -1.5394   -2.0840    0.1352 C   0  0  0  0  0  0  0  0  0  0  0  0
   -2.1354    1.5060    0.4774 C   0  0  0  0  0  0  0  0  0  0  0  0
   -4.3924    0.0696   -0.4473 C   0  0  0  0  0  0  0  0  0  0  0  0
   -3.3386    2.1629    0.1947 C   0  0  0  0  0  0  0  0  0  0  0  0
    1.3164   -0.2974   -0.1830 C   0  0  0  0  0  0  0  0  0  0  0  0
   -4.4484    1.4537   -0.2605 C   0  0  0  0  0  0  0  0  0  0  0  0
    3.5933    0.1635   -0.6366 C   0  0  0  0  0  0  0  0  0  0  0  0
    4.9366    0.3299    0.0415 C   0  0  0  0  0  0  0  0  0  0  0  0
    6.1013    0.6534   -0.8562 C   0  0  0  0  0  0  0  0  0  0  0  0
    0.3618    0.2550    1.6411 H   0  0  0  0  0  0  0  0  0  0  0  0
    0.7256   -1.4737    1.4910 H   0  0  0  0  0  0  0  0  0  0  0  0
   -1.0971   -3.0705    0.1284 H   0  0  0  0  0  0  0  0  0  0  0  0
   -3.4617   -2.6413   -0.5542 H   0  0  0  0  0  0  0  0  0  0  0  0
   -1.2797    2.0746    0.8300 H   0  0  0  0  0  0  0  0  0  0  0  0
   -5.2569   -0.4816   -0.8018 H   0  0  0  0  0  0  0  0  0  0  0  0
   -3.4064    3.2388    0.3318 H   0  0  0  0  0  0  0  0  0  0  0  0
   -5.3730    1.9841   -0.4741 H   0  0  0  0  0  0  0  0  0  0  0  0
    3.6684   -0.6644   -1.3495 H   0  0  0  0  0  0  0  0  0  0  0  0
    3.3501    1.0987   -1.1520 H   0  0  0  0  0  0  0  0  0  0  0  0
    7.0123    0.7484   -0.2589 H   0  0  0  0  0  0  0  0  0  0  0  0
    6.2377   -0.1510   -1.5831 H   0  0  0  0  0  0  0  0  0  0  0  0
    5.9156    1.5996   -1.3704 H   0  0  0  0  0  0  0  0  0  0  0  0
  1 13  1  0  0  0  0
  1 15  1  0  0  0  0
  2 13  2  0  0  0  0
  3 16  2  0  0  0  0
  4  7  1  0  0  0  0
  4  9  1  0  0  0  0
  4 21  1  0  0  0  0
  5  6  1  0  0  0  0
  5  8  1  0  0  0  0
  5  9  2  0  0  0  0
  6  7  1  0  0  0  0
  6 10  2  0  0  0  0
  7 11  2  0  0  0  0
  8 13  1  0  0  0  0
  8 18  1  0  0  0  0
  8 19  1  0  0  0  0
  9 20  1  0  0  0  0
 10 12  1  0  0  0  0
 10 22  1  0  0  0  0
 11 14  1  0  0  0  0
 11 23  1  0  0  0  0
 12 14  2  0  0  0  0
 12 24  1  0  0  0  0
 14 25  1  0  0  0  0
 15 16  1  0  0  0  0
 15 26  1  0  0  0  0
 15 27  1  0  0  0  0
 16 17  1  0  0  0  0
 17 28  1  0  0  0  0
 17 29  1  0  0  0  0
 17 30  1  0  0  0  0
M  END
> <PUBCHEM_COMPOUND_CID>
582766

> <PUBCHEM_CONFORMER_RMSD>
0.8

> <PUBCHEM_CONFORMER_DIVERSEORDER>
1
30
36
102
55
76
117
66
135
17
89
138
25
110
41
48
131
88
21
38
13
40
134
28
73
27
92
68
83
60
6
39
26
62
100
140
9
8
61
14
95
136
127
114
63
19
85
133
87
2
71
86
123
77
58
52
79
112
121
59
103
5
20
53
82
125
118
116
3
34
46
111
90
7
4
129
45
10
23
130
98
74
141
84
139
80
70
122
105
132
124
65
67
109
49
15
42
35
101
56
64
57
128
72
47
44
12
108
54
94
33
97
142
91
24
37
113
93
119
51
29
96
32
18
75
22
104
16
11
120
99
115
69
31
137
78
50
43
106
81
126
107

> <PUBCHEM_MMFF94_PARTIAL_CHARGES>
22
1 -0.43
10 -0.15
11 -0.15
12 -0.15
13 0.66
14 -0.15
15 0.34
16 0.45
17 0.06
2 -0.57
20 0.15
21 0.27
22 0.15
23 0.15
24 0.15
25 0.15
3 -0.57
4 0.03
5 -0.18
7 -0.15
8 0.24
9 -0.3

> <PUBCHEM_EFFECTIVE_ROTOR_COUNT>
5

> <PUBCHEM_PHARMACOPHORE_FEATURES>
6
1 2 acceptor
1 3 acceptor
1 4 cation
1 4 donor
5 4 5 6 7 9 rings
6 6 7 10 11 12 14 rings

> <PUBCHEM_HEAVY_ATOM_COUNT>
17

> <PUBCHEM_ATOM_DEF_STEREO_COUNT>
0

> <PUBCHEM_ATOM_UDEF_STEREO_COUNT>
0

> <PUBCHEM_BOND_DEF_STEREO_COUNT>
0

> <PUBCHEM_BOND_UDEF_STEREO_COUNT>
0

> <PUBCHEM_ISOTOPIC_ATOM_COUNT>
0

> <PUBCHEM_COMPONENT_COUNT>
1

> <PUBCHEM_CACTVS_TAUTO_COUNT>
3

> <PUBCHEM_CONFORMER_ID>
0008E46E00000001

> <PUBCHEM_MMFF94_ENERGY>
22.284

> <PUBCHEM_FEATURE_SELFOVERLAP>
30.537

> <PUBCHEM_SHAPE_FINGERPRINT>
10014705 185 18413669110462956756
10680689 15 18335976476625785570
10912923 1 17703513203821568458
11128504 68 5184340824807198400
11315181 36 18131069290950602068
12107183 9 17838344338876742842
12236239 1 17775007890106739731
12390115 104 18042392703324220433
12596602 18 17060616689986597928
12916748 109 18341043090514801811
13675066 3 13326855513750426666
14251764 38 18114465561428388512
14251764 75 17758388961217809937
14573314 32 18261385676854308518
15209294 21 18130790079031376652
17870717 6 18040703767057682014
1813 80 5761657018268066680
19489759 90 18334014986673389946
200 152 14779264219706865923
20300324 65 18260551121558549229
20645477 56 18409162225264570289
20645477 70 16588575518107576686
21426921 1 18337952290436375431
23402539 116 18336272275318188191
23557571 272 18187636986049858527
23559900 14 18187924023774413838
23596394 208 17313650660020158190
2748010 2 18048336461636505555
300161 21 18059860541569855916
34797466 226 17968084271492306452
351380 180 18261115166665561400
3545911 37 18335134306510993494
4028521 119 18335422400037822345
4214541 1 18410572886088235764
441001 317 18408040710598692056
474 4 17632854218211629146
542803 24 17917711292931969088
573450 72 18343312452750642514
9965369 4 18269561688273528370
9981440 41 18412262865467500563

> <PUBCHEM_SHAPE_MULTIPOLES>
327.26
11.84
1.74
0.94
17.44
0.05
-0.01
-4.6
1.39
-2.49
-0.07
0.66
-0.01
-0.31

> <PUBCHEM_SHAPE_SELFOVERLAP>
696.567

> <PUBCHEM_SHAPE_VOLUME>
183.1

> <PUBCHEM_COORDINATE_TYPE>
2
5
10

$$$$

