41368
  -OEChem-07051213013D

 38 39  0     1  0  0  0  0  0999 V2000
    5.5951   -1.0518   -0.2102 Cl  0  0  0  0  0  0  0  0  0  0  0  0
   -2.6781    0.5809    1.2868 O   0  0  0  0  0  0  0  0  0  0  0  0
   -0.2280   -0.6885    0.4506 O   0  0  0  0  0  0  0  0  0  0  0  0
   -0.5035    1.5479   -0.3166 N   0  0  0  0  0  0  0  0  0  0  0  0
   -0.5287    2.1654    0.8538 N   0  0  0  0  0  0  0  0  0  0  0  0
    0.3141    3.4717   -0.8242 N   0  0  0  0  0  0  0  0  0  0  0  0
   -3.1738   -1.3282   -0.1661 C   0  0  0  0  0  0  0  0  0  0  0  0
   -2.4954    0.0772   -0.0411 C   0  0  2  0  0  0  0  0  0  0  0  0
   -0.9920    0.1580   -0.4166 C   0  0  2  0  0  0  0  0  0  0  0  0
   -3.1167   -1.8306   -1.6214 C   0  0  0  0  0  0  0  0  0  0  0  0
   -2.5391   -2.3930    0.7464 C   0  0  0  0  0  0  0  0  0  0  0  0
   -4.6619   -1.1975    0.2333 C   0  0  0  0  0  0  0  0  0  0  0  0
   -0.0133    2.2973   -1.3113 C   0  0  0  0  0  0  0  0  0  0  0  0
    1.1296   -0.7730    0.2965 C   0  0  0  0  0  0  0  0  0  0  0  0
   -0.0174    3.3447    0.4944 C   0  0  0  0  0  0  0  0  0  0  0  0
    1.6602   -1.2219   -0.9082 C   0  0  0  0  0  0  0  0  0  0  0  0
    1.9667   -0.4094    1.3462 C   0  0  0  0  0  0  0  0  0  0  0  0
    3.0434   -1.3083   -1.0652 C   0  0  0  0  0  0  0  0  0  0  0  0
    3.3501   -0.4957    1.1893 C   0  0  0  0  0  0  0  0  0  0  0  0
    3.8886   -0.9451   -0.0165 C   0  0  0  0  0  0  0  0  0  0  0  0
   -3.0383    0.7728   -0.6951 H   0  0  0  0  0  0  0  0  0  0  0  0
   -0.8578   -0.1503   -1.4595 H   0  0  0  0  0  0  0  0  0  0  0  0
   -3.5487   -1.0957   -2.3096 H   0  0  0  0  0  0  0  0  0  0  0  0
   -2.0879   -2.0273   -1.9404 H   0  0  0  0  0  0  0  0  0  0  0  0
   -3.6763   -2.7657   -1.7396 H   0  0  0  0  0  0  0  0  0  0  0  0
   -3.1473   -3.3060    0.7568 H   0  0  0  0  0  0  0  0  0  0  0  0
   -2.4584   -2.0498    1.7824 H   0  0  0  0  0  0  0  0  0  0  0  0
   -1.5465   -2.6946    0.4003 H   0  0  0  0  0  0  0  0  0  0  0  0
   -4.7743   -0.9142    1.2856 H   0  0  0  0  0  0  0  0  0  0  0  0
   -5.1960   -2.1442    0.0918 H   0  0  0  0  0  0  0  0  0  0  0  0
   -5.1682   -0.4399   -0.3755 H   0  0  0  0  0  0  0  0  0  0  0  0
   -2.0489    0.1213    1.8680 H   0  0  0  0  0  0  0  0  0  0  0  0
    0.0911    1.9761   -2.3381 H   0  0  0  0  0  0  0  0  0  0  0  0
    0.1187    4.1362    1.2162 H   0  0  0  0  0  0  0  0  0  0  0  0
    1.0144   -1.5201   -1.7289 H   0  0  0  0  0  0  0  0  0  0  0  0
    1.5515   -0.0588    2.2868 H   0  0  0  0  0  0  0  0  0  0  0  0
    3.4487   -1.6629   -2.0094 H   0  0  0  0  0  0  0  0  0  0  0  0
    3.9962   -0.2091    2.0152 H   0  0  0  0  0  0  0  0  0  0  0  0
  1 20  1  0  0  0  0
  2  8  1  0  0  0  0
  2 32  1  0  0  0  0
  3  9  1  0  0  0  0
  3 14  1  0  0  0  0
  4  5  1  0  0  0  0
  4  9  1  0  0  0  0
  4 13  1  0  0  0  0
  5 15  2  0  0  0  0
  6 13  2  0  0  0  0
  6 15  1  0  0  0  0
  7  8  1  0  0  0  0
  7 10  1  0  0  0  0
  7 11  1  0  0  0  0
  7 12  1  0  0  0  0
  8  9  1  0  0  0  0
  8 21  1  0  0  0  0
  9 22  1  0  0  0  0
 10 23  1  0  0  0  0
 10 24  1  0  0  0  0
 10 25  1  0  0  0  0
 11 26  1  0  0  0  0
 11 27  1  0  0  0  0
 11 28  1  0  0  0  0
 12 29  1  0  0  0  0
 12 30  1  0  0  0  0
 12 31  1  0  0  0  0
 13 33  1  0  0  0  0
 14 16  2  0  0  0  0
 14 17  1  0  0  0  0
 15 34  1  0  0  0  0
 16 18  1  0  0  0  0
 16 35  1  0  0  0  0
 17 19  2  0  0  0  0
 17 36  1  0  0  0  0
 18 20  2  0  0  0  0
 18 37  1  0  0  0  0
 19 20  1  0  0  0  0
 19 38  1  0  0  0  0
M  END
> <PUBCHEM_COMPOUND_CID>
41368

> <PUBCHEM_CONFORMER_RMSD>
0.8

> <PUBCHEM_CONFORMER_DIVERSEORDER>
1
9
40
20
52
26
11
37
36
46
49
41
50
51
48
25
43
15
24
47
34
32
18
42
8
14
10
38
39
21
29
30
45
27
12
33
53
44
28
4
23
19
6
35
13
22
5
7
31
17
2
16
3

> <PUBCHEM_MMFF94_PARTIAL_CHARGES>
23
1 -0.18
13 0.04
14 0.08
15 0.37
16 -0.15
17 -0.15
18 -0.15
19 -0.15
2 -0.68
20 0.18
3 -0.36
32 0.4
33 0.15
34 0.15
35 0.15
36 0.15
37 0.15
38 0.15
4 0.31
5 -0.71
6 -0.57
8 0.28
9 0.54

> <PUBCHEM_EFFECTIVE_ROTOR_COUNT>
5

> <PUBCHEM_PHARMACOPHORE_FEATURES>
8
1 2 acceptor
1 2 donor
1 3 acceptor
3 4 6 13 cation
3 5 6 15 cation
4 7 10 11 12 hydrophobe
5 4 5 6 13 15 rings
6 14 16 17 18 19 20 rings

> <PUBCHEM_HEAVY_ATOM_COUNT>
20

> <PUBCHEM_ATOM_DEF_STEREO_COUNT>
0

> <PUBCHEM_ATOM_UDEF_STEREO_COUNT>
2

> <PUBCHEM_BOND_DEF_STEREO_COUNT>
0

> <PUBCHEM_BOND_UDEF_STEREO_COUNT>
0

> <PUBCHEM_ISOTOPIC_ATOM_COUNT>
0

> <PUBCHEM_COMPONENT_COUNT>
1

> <PUBCHEM_CACTVS_TAUTO_COUNT>
1

> <PUBCHEM_CONFORMER_ID>
0000A19800000001

> <PUBCHEM_MMFF94_ENERGY>
59.1283

> <PUBCHEM_FEATURE_SELFOVERLAP>
43.385

> <PUBCHEM_SHAPE_FINGERPRINT>
10165383 225 16895081100036207300
10989021 7 18411700941841970085
11045515 52 18059858367688923588
11265709 11 18411695487191267213
11680986 33 18053946143453312243
12173636 292 17616249625511550388
12553582 1 18342466940845806787
12707595 3 18272374118442075979
12788726 201 18198071467461829113
13149001 5 17915739773730635515
133893 2 17985535655265200173
13583140 156 17755620292649934490
13681431 1 18268430139920325237
14181834 199 17979091396097374623
14347332 77 18268995474266833166
14787075 74 17987235534965119800
17357779 13 18263383480348847309
1813 80 18410289198902797903
18222031 100 18336277751101173743
19868273 325 18412544344469502927
200 152 17274823575406246362
20097449 115 18341899562881024477
20510252 161 18269275832113521546
20600515 1 18410846638386954054
20645477 70 18052268293452874599
20671657 53 18270691874357304491
20871999 31 18270971236220505967
21041028 32 18410002209636647521
21304303 282 17121188961622697556
21339142 36 18341342170404300973
21524375 3 17189254331813546513
22112679 90 18337933662909933773
2297311 6 18337663200820233334
23352939 185 18260820472085553624
23402539 116 18341895225206941006
23419403 2 17912682079069898068
23557571 272 18337107968743363550
23559900 14 18265904549354014179
3286 77 17385732365730373730
34934 24 18270119166264339659
458136 41 17406815303714055977
5902787 121 18200033932588215107
621550 5 17967526900637702970
6442390 28 17397814061178716761
7364860 26 18120933906565853449
81228 2 18266732665855174449

> <PUBCHEM_SHAPE_MULTIPOLES>
386.78
7.96
3.26
1.3
4.59
3.91
-0.09
-6.89
0.03
-1.13
-0.48
-0.03
-0.06
-0.06

> <PUBCHEM_SHAPE_SELFOVERLAP>
800.166

> <PUBCHEM_SHAPE_VOLUME>
224.6

> <PUBCHEM_COORDINATE_TYPE>
2
5
10

$$$$

