13742
  -OEChem-06241222403D

 30 30  0     0  0  0  0  0  0999 V2000
    5.4266    1.4388    1.1250 Cl  0  0  0  0  0  0  0  0  0  0  0  0
   -4.0103    3.7333   -0.7807 Cl  0  0  0  0  0  0  0  0  0  0  0  0
   -1.0289   -5.0548    0.9385 Cl  0  0  0  0  0  0  0  0  0  0  0  0
    2.7194    1.0562   -0.2316 O   0  0  0  0  0  0  0  0  0  0  0  0
   -1.7746    1.9889    0.3483 O   0  0  0  0  0  0  0  0  0  0  0  0
   -0.3891   -2.3679   -0.3602 O   0  0  0  0  0  0  0  0  0  0  0  0
    0.4832    1.5709    0.0639 N   0  0  0  0  0  0  0  0  0  0  0  0
    1.2018   -0.6888   -0.3037 N   0  0  0  0  0  0  0  0  0  0  0  0
   -1.1292   -0.2050   -0.0029 N   0  0  0  0  0  0  0  0  0  0  0  0
    3.7024    0.0572   -0.4622 C   0  0  0  0  0  0  0  0  0  0  0  0
   -3.0943    1.4679    0.4148 C   0  0  0  0  0  0  0  0  0  0  0  0
   -1.7598   -2.7283   -0.2674 C   0  0  0  0  0  0  0  0  0  0  0  0
    1.4146    0.6285   -0.1539 C   0  0  0  0  0  0  0  0  0  0  0  0
   -0.7655    1.0810    0.1274 C   0  0  0  0  0  0  0  0  0  0  0  0
   -0.0933   -1.0325   -0.2163 C   0  0  0  0  0  0  0  0  0  0  0  0
    5.0836    0.6860   -0.4534 C   0  0  0  0  0  0  0  0  0  0  0  0
   -4.0847    2.6034    0.5954 C   0  0  0  0  0  0  0  0  0  0  0  0
   -1.9020   -4.2349   -0.3810 C   0  0  0  0  0  0  0  0  0  0  0  0
    3.6526   -0.7171    0.3144 H   0  0  0  0  0  0  0  0  0  0  0  0
    3.5345   -0.4074   -1.4415 H   0  0  0  0  0  0  0  0  0  0  0  0
   -3.3370    0.9185   -0.5040 H   0  0  0  0  0  0  0  0  0  0  0  0
   -3.1801    0.7874    1.2709 H   0  0  0  0  0  0  0  0  0  0  0  0
   -2.1801   -2.3962    0.6908 H   0  0  0  0  0  0  0  0  0  0  0  0
   -2.3214   -2.2597   -1.0850 H   0  0  0  0  0  0  0  0  0  0  0  0
    5.1541    1.4798   -1.2027 H   0  0  0  0  0  0  0  0  0  0  0  0
    5.8579   -0.0610   -0.6480 H   0  0  0  0  0  0  0  0  0  0  0  0
   -3.8513    3.1840    1.4925 H   0  0  0  0  0  0  0  0  0  0  0  0
   -5.1082    2.2256    0.6685 H   0  0  0  0  0  0  0  0  0  0  0  0
   -1.4684   -4.5968   -1.3179 H   0  0  0  0  0  0  0  0  0  0  0  0
   -2.9518   -4.5365   -0.3313 H   0  0  0  0  0  0  0  0  0  0  0  0
  1 16  1  0  0  0  0
  2 17  1  0  0  0  0
  3 18  1  0  0  0  0
  4 10  1  0  0  0  0
  4 13  1  0  0  0  0
  5 11  1  0  0  0  0
  5 14  1  0  0  0  0
  6 12  1  0  0  0  0
  6 15  1  0  0  0  0
  7 13  2  0  0  0  0
  7 14  1  0  0  0  0
  8 13  1  0  0  0  0
  8 15  2  0  0  0  0
  9 14  2  0  0  0  0
  9 15  1  0  0  0  0
 10 16  1  0  0  0  0
 10 19  1  0  0  0  0
 10 20  1  0  0  0  0
 11 17  1  0  0  0  0
 11 21  1  0  0  0  0
 11 22  1  0  0  0  0
 12 18  1  0  0  0  0
 12 23  1  0  0  0  0
 12 24  1  0  0  0  0
 16 25  1  0  0  0  0
 16 26  1  0  0  0  0
 17 27  1  0  0  0  0
 17 28  1  0  0  0  0
 18 29  1  0  0  0  0
 18 30  1  0  0  0  0
M  END
> <PUBCHEM_COMPOUND_CID>
13742

> <PUBCHEM_CONFORMER_RMSD>
0.8

> <PUBCHEM_CONFORMER_DIVERSEORDER>
1
56
34
14
8
11
60
49
2
39
13
27
46
40
52
63
31
47
62
36
57
55
6
21
15
29
28
24
12
59
25
19
43
30
44
50
26
23
35
17
61
33
9
45
41
53
22
16
37
42
54
18
38
48
7
20
32
58
51
3
5
4
10

> <PUBCHEM_MMFF94_PARTIAL_CHARGES>
18
1 -0.29
10 0.28
11 0.28
12 0.28
13 0.7
14 0.7
15 0.7
16 0.29
17 0.29
18 0.29
2 -0.29
3 -0.29
4 -0.36
5 -0.36
6 -0.36
7 -0.62
8 -0.62
9 -0.62

> <PUBCHEM_EFFECTIVE_ROTOR_COUNT>
9

> <PUBCHEM_PHARMACOPHORE_FEATURES>
4
3 7 8 13 cation
3 7 9 14 cation
3 8 9 15 cation
6 7 8 9 13 14 15 rings

> <PUBCHEM_HEAVY_ATOM_COUNT>
18

> <PUBCHEM_ATOM_DEF_STEREO_COUNT>
0

> <PUBCHEM_ATOM_UDEF_STEREO_COUNT>
0

> <PUBCHEM_BOND_DEF_STEREO_COUNT>
0

> <PUBCHEM_BOND_UDEF_STEREO_COUNT>
0

> <PUBCHEM_ISOTOPIC_ATOM_COUNT>
0

> <PUBCHEM_COMPONENT_COUNT>
1

> <PUBCHEM_CACTVS_TAUTO_COUNT>
1

> <PUBCHEM_CONFORMER_ID>
000035AE00000001

> <PUBCHEM_MMFF94_ENERGY>
38.6046

> <PUBCHEM_FEATURE_SELFOVERLAP>
23.07

> <PUBCHEM_SHAPE_FINGERPRINT>
10411042 1 17760929545809850014
12293681 160 17750520743970458705
12532896 13 18335979865054139534
12788726 201 18267316347553190323
13052359 8 18410573963808522447
13134695 92 17327462423971603631
13140716 1 17905322931833615563
138480 1 17185873338111493999
13955234 65 17834386105606787569
13968360 50 18197508530915724629
14178000 22 18410859892571756860
14178342 30 18339652135945290466
14866123 147 18410853244152754706
15042514 8 18194673779275164259
15842332 3 17773305748024451452
17539 30 18190748531169114575
18915476 22 17766851898037054309
19427546 20 18196360434649733468
19784866 34 18191307280808550497
20645477 70 17837490018558660201
21426921 1 18265612087766213412
22224240 67 18260818324844570473
23557571 272 18115854236266122252
23558518 356 18127127464313643776
23559900 14 17475238371845748425
2748010 2 18122316198798161215
3091708 16 9557476795766102107
3759504 43 18410854386497426101
53917941 68 18263380181845943845
54173680 148 18193552272861162071
6025842 7 17977951516615848149
633830 44 17679293332946228917
77188 2 17545882629374552063
81539 233 18124872619204491965
9981440 41 18268144434786138953

> <PUBCHEM_SHAPE_MULTIPOLES>
343.49
8.73
6.14
0.86
11.42
9.24
-0.11
-10.51
-0.87
-9.31
-0.63
0.19
-0.01
0.51

> <PUBCHEM_SHAPE_SELFOVERLAP>
654.685

> <PUBCHEM_SHAPE_VOLUME>
212.3

> <PUBCHEM_COORDINATE_TYPE>
2
5
10

$$$$

