12912
  -OEChem-06261207323D

 31 32  0     0  0  0  0  0  0999 V2000
    2.0169    1.7634   -1.0991 O   0  0  0  0  0  0  0  0  0  0  0  0
   -2.4371    2.6555    1.0621 O   0  0  0  0  0  0  0  0  0  0  0  0
   -5.4762   -2.0563    0.4896 O   0  0  0  0  0  0  0  0  0  0  0  0
   -0.0787    1.3097    0.5938 N   0  0  0  0  0  0  0  0  0  0  0  0
    1.0768    0.5815    0.6575 N   0  0  0  0  0  0  0  0  0  0  0  0
   -4.7608   -2.0157   -0.5104 N   0  0  0  0  0  0  0  0  0  0  0  0
   -1.2856    0.7012    0.3719 C   0  0  0  0  0  0  0  0  0  0  0  0
    3.3218    0.0787   -0.1162 C   0  0  0  0  0  0  0  0  0  0  0  0
    2.0798    0.8859   -0.2416 C   0  0  0  0  0  0  0  0  0  0  0  0
   -1.4058   -0.6223    0.1839 C   0  0  0  0  0  0  0  0  0  0  0  0
   -2.4499    1.6351    0.3754 C   0  0  0  0  0  0  0  0  0  0  0  0
    4.5171    0.6292   -0.5285 C   0  0  0  0  0  0  0  0  0  0  0  0
    3.2381   -1.1937    0.4086 C   0  0  0  0  0  0  0  0  0  0  0  0
   -2.5945   -1.4301    0.0550 C   0  0  0  0  0  0  0  0  0  0  0  0
   -3.5673    1.4137   -0.5702 C   0  0  0  0  0  0  0  0  0  0  0  0
   -3.7991   -1.0843   -0.4352 C   0  0  0  0  0  0  0  0  0  0  0  0
   -4.1079    0.2450   -0.9293 C   0  0  0  0  0  0  0  0  0  0  0  0
    5.6827   -0.1279   -0.4107 C   0  0  0  0  0  0  0  0  0  0  0  0
    4.4037   -1.9508    0.5265 C   0  0  0  0  0  0  0  0  0  0  0  0
    5.6260   -1.4178    0.1169 C   0  0  0  0  0  0  0  0  0  0  0  0
   -0.0299    2.3053    0.7741 H   0  0  0  0  0  0  0  0  0  0  0  0
   -0.5124   -1.2461    0.1933 H   0  0  0  0  0  0  0  0  0  0  0  0
    1.1460   -0.0685    1.4326 H   0  0  0  0  0  0  0  0  0  0  0  0
    4.5788    1.6337   -0.9364 H   0  0  0  0  0  0  0  0  0  0  0  0
    2.3025   -1.6530    0.7104 H   0  0  0  0  0  0  0  0  0  0  0  0
   -2.4370   -2.4601    0.3809 H   0  0  0  0  0  0  0  0  0  0  0  0
   -4.0010    2.3259   -0.9746 H   0  0  0  0  0  0  0  0  0  0  0  0
   -4.9373    0.2954   -1.6358 H   0  0  0  0  0  0  0  0  0  0  0  0
    6.6346    0.2872   -0.7287 H   0  0  0  0  0  0  0  0  0  0  0  0
    4.3593   -2.9579    0.9309 H   0  0  0  0  0  0  0  0  0  0  0  0
    6.5333   -2.0079    0.2074 H   0  0  0  0  0  0  0  0  0  0  0  0
  1  9  2  0  0  0  0
  2 11  2  0  0  0  0
  3  6  2  0  0  0  0
  4  5  1  0  0  0  0
  4  7  1  0  0  0  0
  4 21  1  0  0  0  0
  5  9  1  0  0  0  0
  5 23  1  0  0  0  0
  6 16  1  0  0  0  0
  7 10  2  0  0  0  0
  7 11  1  0  0  0  0
  8  9  1  0  0  0  0
  8 12  2  0  0  0  0
  8 13  1  0  0  0  0
 10 14  1  0  0  0  0
 10 22  1  0  0  0  0
 11 15  1  0  0  0  0
 12 18  1  0  0  0  0
 12 24  1  0  0  0  0
 13 19  2  0  0  0  0
 13 25  1  0  0  0  0
 14 16  2  0  0  0  0
 14 26  1  0  0  0  0
 15 17  2  0  0  0  0
 15 27  1  0  0  0  0
 16 17  1  0  0  0  0
 17 28  1  0  0  0  0
 18 20  2  0  0  0  0
 18 29  1  0  0  0  0
 19 20  1  0  0  0  0
 19 30  1  0  0  0  0
 20 31  1  0  0  0  0
M  END
> <PUBCHEM_COMPOUND_CID>
12912

> <PUBCHEM_CONFORMER_RMSD>
0.8

> <PUBCHEM_CONFORMER_DIVERSEORDER>
2
30
19
4
21
24
14
26
11
27
22
10
23
18
29
7
6
16
8
15
25
3
9
13
17
28
12
20
5
1

> <PUBCHEM_MMFF94_PARTIAL_CHARGES>
31
1 -0.57
10 -0.15
11 0.54
12 -0.15
13 -0.15
14 -0.15
15 -0.14
16 0.29
17 -0.15
18 -0.15
19 -0.15
2 -0.57
20 -0.15
21 0.4
22 0.15
23 0.37
24 0.15
25 0.15
26 0.15
27 0.15
28 0.15
29 0.15
3 -0.16
30 0.15
31 0.15
4 -0.52
5 -0.41
6 -0.13
7 0.11
8 0.09
9 0.54

> <PUBCHEM_EFFECTIVE_ROTOR_COUNT>
5

> <PUBCHEM_PHARMACOPHORE_FEATURES>
6
1 1 acceptor
1 2 acceptor
1 4 donor
1 5 donor
6 8 12 13 18 19 20 rings
7 7 10 11 14 15 16 17 rings

> <PUBCHEM_HEAVY_ATOM_COUNT>
20

> <PUBCHEM_ATOM_DEF_STEREO_COUNT>
0

> <PUBCHEM_ATOM_UDEF_STEREO_COUNT>
0

> <PUBCHEM_BOND_DEF_STEREO_COUNT>
0

> <PUBCHEM_BOND_UDEF_STEREO_COUNT>
0

> <PUBCHEM_ISOTOPIC_ATOM_COUNT>
0

> <PUBCHEM_COMPONENT_COUNT>
1

> <PUBCHEM_CACTVS_TAUTO_COUNT>
22

> <PUBCHEM_CONFORMER_ID>
0000327000000002

> <PUBCHEM_MMFF94_ENERGY>
71.1956

> <PUBCHEM_FEATURE_SELFOVERLAP>
32.01

> <PUBCHEM_SHAPE_FINGERPRINT>
10595046 47 18412823582301281708
10616163 171 18334575793195888254
11315181 36 18408885157394037624
11796584 16 18261674891145879838
12107183 9 17690562313797576746
12236239 1 18413670227723964630
12760667 363 18335422336146277303
13167823 11 18409731781199517678
13288520 33 18335420162586454693
13533116 47 18338796702412780444
14251740 79 17775000146766489603
14251764 30 18056470661412469099
14347332 77 18412269423934847359
14528608 73 18343012282292930300
14576447 43 18342175562270259374
15183329 4 18059864998960042887
15196674 1 18411982485775644714
15352361 1 18410857655078132638
17492 89 18336543910420095046
17834072 33 18341894095693527444
17857418 61 18340774822921222514
18681886 176 18408042901907472474
19784866 140 18343308029061032027
200 152 18409450271530687766
20281475 54 18339926017198425048
20511986 3 18269854124011831986
20645477 70 18342738525077129030
21054139 6 18342459244944926546
21267235 1 18411130320908360918
23402539 116 18335706074006367653
23403322 49 18408044004864760879
23522609 53 18047439324151477857
23559900 14 18335433334777034745
2916195 48 11383529176448832214
3004659 81 18272094872204797062
312423 11 18338504266447642641
34797466 226 17458616767365278828
351380 3 18260267412787881982
4214541 1 18410575127829302580
46194498 28 17203329940628200366
463206 1 18191309269299410943
465052 167 18116145576540527863
4921388 177 16558740187908593683
5104073 3 18113339730234968456
559249 180 18340210803035823122
573450 72 18336549429594852192
633830 44 16630236013278125420
960060 61 17775278392259699774
9709674 26 18271242712165263186

> <PUBCHEM_SHAPE_MULTIPOLES>
379.04
13.42
2.33
0.88
6.54
0.06
0.03
6.68
1.57
-1.99
-0.3
-0.2
-0.21
-0.86

> <PUBCHEM_SHAPE_SELFOVERLAP>
813.832

> <PUBCHEM_SHAPE_VOLUME>
205.2

> <PUBCHEM_COORDINATE_TYPE>
2
5
10

$$$$

