442351
  -OEChem-07051212573D

 39 40  0     1  0  0  0  0  0999 V2000
   -0.1947    0.1896    0.0679 C   0  0  1  0  0  0  0  0  0  0  0  0
   -1.6154    0.9577    0.0725 C   0  0  0  0  0  0  0  0  0  0  0  0
    0.5331    0.4049   -1.2983 C   0  0  0  0  0  0  0  0  0  0  0  0
   -2.5877    0.2643   -0.9185 C   0  0  0  0  0  0  0  0  0  0  0  0
    0.7203    0.7803    1.1938 C   0  0  0  0  0  0  0  0  0  0  0  0
   -0.4513   -1.3365    0.2696 C   0  0  0  0  0  0  0  0  0  0  0  0
   -1.5294    2.4414   -0.3721 C   0  0  0  0  0  0  0  0  0  0  0  0
   -2.2524    0.9639    1.4890 C   0  0  0  0  0  0  0  0  0  0  0  0
   -2.8204   -1.2075   -0.6105 C   0  0  0  0  0  0  0  0  0  0  0  0
    1.9770   -0.1040   -1.3658 C   0  0  0  0  0  0  0  0  0  0  0  0
   -1.6248   -1.9118   -0.0608 C   0  0  0  0  0  0  0  0  0  0  0  0
    2.2019    0.5978    1.0108 C   0  0  0  0  0  0  0  0  0  0  0  0
    2.7805    0.1913   -0.1301 C   0  0  0  0  0  0  0  0  0  0  0  0
    0.5999   -2.2248    0.8937 C   0  0  0  0  0  0  0  0  0  0  0  0
    4.2633   -0.0066   -0.2412 C   0  0  0  0  0  0  0  0  0  0  0  0
    0.5826    1.4775   -1.5193 H   0  0  0  0  0  0  0  0  0  0  0  0
   -0.0279   -0.0517   -2.1220 H   0  0  0  0  0  0  0  0  0  0  0  0
   -2.2042    0.3542   -1.9427 H   0  0  0  0  0  0  0  0  0  0  0  0
   -3.5583    0.7782   -0.9283 H   0  0  0  0  0  0  0  0  0  0  0  0
    0.4370    0.3570    2.1656 H   0  0  0  0  0  0  0  0  0  0  0  0
    0.5710    1.8604    1.2888 H   0  0  0  0  0  0  0  0  0  0  0  0
   -2.5038    2.9338   -0.2623 H   0  0  0  0  0  0  0  0  0  0  0  0
   -0.8159    3.0180    0.2218 H   0  0  0  0  0  0  0  0  0  0  0  0
   -1.2545    2.5410   -1.4268 H   0  0  0  0  0  0  0  0  0  0  0  0
   -3.2780    1.3503    1.4540 H   0  0  0  0  0  0  0  0  0  0  0  0
   -2.2971   -0.0324    1.9382 H   0  0  0  0  0  0  0  0  0  0  0  0
   -1.6935    1.6083    2.1764 H   0  0  0  0  0  0  0  0  0  0  0  0
   -3.1595   -1.7180   -1.5193 H   0  0  0  0  0  0  0  0  0  0  0  0
   -3.6336   -1.3008    0.1199 H   0  0  0  0  0  0  0  0  0  0  0  0
    2.4592    0.3669   -2.2321 H   0  0  0  0  0  0  0  0  0  0  0  0
    1.9874   -1.1817   -1.5621 H   0  0  0  0  0  0  0  0  0  0  0  0
   -1.7645   -2.9775    0.1089 H   0  0  0  0  0  0  0  0  0  0  0  0
    2.8201    0.8139    1.8787 H   0  0  0  0  0  0  0  0  0  0  0  0
    0.8783   -1.8702    1.8898 H   0  0  0  0  0  0  0  0  0  0  0  0
    1.4944   -2.2953    0.2742 H   0  0  0  0  0  0  0  0  0  0  0  0
    0.2419   -3.2526    1.0279 H   0  0  0  0  0  0  0  0  0  0  0  0
    4.7807    0.2072    0.6999 H   0  0  0  0  0  0  0  0  0  0  0  0
    4.6787    0.6552   -1.0079 H   0  0  0  0  0  0  0  0  0  0  0  0
    4.4873   -1.0422   -0.5166 H   0  0  0  0  0  0  0  0  0  0  0  0
  1  2  1  0  0  0  0
  1  3  1  0  0  0  0
  1  5  1  0  0  0  0
  1  6  1  0  0  0  0
  2  4  1  0  0  0  0
  2  7  1  0  0  0  0
  2  8  1  0  0  0  0
  3 10  1  0  0  0  0
  3 16  1  0  0  0  0
  3 17  1  0  0  0  0
  4  9  1  0  0  0  0
  4 18  1  0  0  0  0
  4 19  1  0  0  0  0
  5 12  1  0  0  0  0
  5 20  1  0  0  0  0
  5 21  1  0  0  0  0
  6 11  2  0  0  0  0
  6 14  1  0  0  0  0
  7 22  1  0  0  0  0
  7 23  1  0  0  0  0
  7 24  1  0  0  0  0
  8 25  1  0  0  0  0
  8 26  1  0  0  0  0
  8 27  1  0  0  0  0
  9 11  1  0  0  0  0
  9 28  1  0  0  0  0
  9 29  1  0  0  0  0
 10 13  1  0  0  0  0
 10 30  1  0  0  0  0
 10 31  1  0  0  0  0
 11 32  1  0  0  0  0
 12 13  2  0  0  0  0
 12 33  1  0  0  0  0
 13 15  1  0  0  0  0
 14 34  1  0  0  0  0
 14 35  1  0  0  0  0
 14 36  1  0  0  0  0
 15 37  1  0  0  0  0
 15 38  1  0  0  0  0
 15 39  1  0  0  0  0
M  END
> <PUBCHEM_COMPOUND_CID>
442351

> <PUBCHEM_CONFORMER_RMSD>
0.6

> <PUBCHEM_CONFORMER_DIVERSEORDER>
1
3
4
2

> <PUBCHEM_MMFF94_PARTIAL_CHARGES>
12
1 0.14
10 0.14
11 -0.29
12 -0.29
13 -0.28
14 0.14
15 0.14
32 0.15
33 0.15
5 0.14
6 -0.28
9 0.14

> <PUBCHEM_EFFECTIVE_ROTOR_COUNT>
1.2

> <PUBCHEM_PHARMACOPHORE_FEATURES>
3
3 2 7 8 hydrophobe
6 1 2 4 6 9 11 rings
6 1 3 5 10 12 13 rings

> <PUBCHEM_HEAVY_ATOM_COUNT>
15

> <PUBCHEM_ATOM_DEF_STEREO_COUNT>
1

> <PUBCHEM_ATOM_UDEF_STEREO_COUNT>
0

> <PUBCHEM_BOND_DEF_STEREO_COUNT>
0

> <PUBCHEM_BOND_UDEF_STEREO_COUNT>
0

> <PUBCHEM_ISOTOPIC_ATOM_COUNT>
0

> <PUBCHEM_COMPONENT_COUNT>
1

> <PUBCHEM_CACTVS_TAUTO_COUNT>
1

> <PUBCHEM_CONFORMER_ID>
0006BFEF00000001

> <PUBCHEM_MMFF94_ENERGY>
39.0068

> <PUBCHEM_FEATURE_SELFOVERLAP>
15.224

> <PUBCHEM_SHAPE_FINGERPRINT>
12138202 97 18187367665930907076
12423570 1 11557448224047521641
12491281 212 18130785702480846472
12716758 59 18261386805850438806
13024252 1 17704352152198873405
13132413 78 16029865594486251752
13172582 1 18201707436419235685
13581323 91 18271799112530772304
14181834 199 17766283454371918663
14614273 12 18340210781819300285
14817 1 7131608992877903483
14993402 34 17632024065294467070
15219456 202 17822297812424559008
15309172 13 17917990598633775162
15490181 7 18266734881989785713
15775835 57 18337670935549645329
16945 1 18412270540193613201
18186145 218 18261667177537577508
20201158 50 17894346661919615302
20510252 161 18338800005047309512
20511035 2 17552910037742368301
20645476 183 17489035859378448251
21501502 16 18262520406818577702
22344851 341 18194953260965134291
22802520 49 18261106335917252290
23402539 116 18187936040681367343
23419403 2 17681018209234504773
23559900 14 18335708226544176904
2748010 2 17979090288080227539
276578 36 18193820760046622057
305870 269 18055351594017222404
3286 77 16806170938701134835
353137 74 18411423925104603279
5084963 1 18260553302974914584
528886 8 17918001559248071678
77492 1 17346329175930868760
81228 2 18336537206001831211

> <PUBCHEM_SHAPE_MULTIPOLES>
308.69
4.84
2.01
1.32
3.65
0.34
-0.06
-0.23
0.63
-1.29
-0.25
0.01
-0.17
-0.18

> <PUBCHEM_SHAPE_SELFOVERLAP>
630.823

> <PUBCHEM_SHAPE_VOLUME>
177.5

> <PUBCHEM_COORDINATE_TYPE>
2
5
10

$$$$

