439459
  -OEChem-07051212453D

 24 23  0     1  0  0  0  0  0999 V2000
   -0.5757    0.0561   -1.6046 O   0  0  0  0  0  0  0  0  0  0  0  0
   -0.5875    1.3087    1.7871 O   0  0  0  0  0  0  0  0  0  0  0  0
   -0.8317    2.3314   -0.2173 O   0  0  0  0  0  0  0  0  0  0  0  0
   -3.8068   -1.6124    0.3698 O   0  0  0  0  0  0  0  0  0  0  0  0
    4.5056    0.3079   -0.4861 O   0  0  0  0  0  0  0  0  0  0  0  0
   -3.2742    0.3260   -0.6935 O   0  0  0  0  0  0  0  0  0  0  0  0
    3.5615   -1.4067    0.6700 O   0  0  0  0  0  0  0  0  0  0  0  0
   -0.4380   -0.0729   -0.1897 C   0  0  2  0  0  0  0  0  0  0  0  0
    0.9661   -0.6376    0.1205 C   0  0  0  0  0  0  0  0  0  0  0  0
   -1.5160   -1.0717    0.2759 C   0  0  0  0  0  0  0  0  0  0  0  0
    2.1251    0.2254   -0.3829 C   0  0  0  0  0  0  0  0  0  0  0  0
   -0.6418    1.3093    0.4316 C   0  0  0  0  0  0  0  0  0  0  0  0
   -2.9342   -0.6707   -0.0743 C   0  0  0  0  0  0  0  0  0  0  0  0
    3.4479   -0.3929   -0.0065 C   0  0  0  0  0  0  0  0  0  0  0  0
    1.0592   -1.6298   -0.3425 H   0  0  0  0  0  0  0  0  0  0  0  0
    1.0674   -0.7860    1.2037 H   0  0  0  0  0  0  0  0  0  0  0  0
   -1.3424   -2.0411   -0.2084 H   0  0  0  0  0  0  0  0  0  0  0  0
   -1.4644   -1.2044    1.3629 H   0  0  0  0  0  0  0  0  0  0  0  0
    2.0829    1.2243    0.0628 H   0  0  0  0  0  0  0  0  0  0  0  0
    2.0850    0.3137   -1.4735 H   0  0  0  0  0  0  0  0  0  0  0  0
   -1.4527    0.4262   -1.8005 H   0  0  0  0  0  0  0  0  0  0  0  0
   -0.7181    2.2070    2.1590 H   0  0  0  0  0  0  0  0  0  0  0  0
   -4.7341   -1.3877    0.1420 H   0  0  0  0  0  0  0  0  0  0  0  0
    5.3607   -0.0984   -0.2292 H   0  0  0  0  0  0  0  0  0  0  0  0
  1  8  1  0  0  0  0
  1 21  1  0  0  0  0
  2 12  1  0  0  0  0
  2 22  1  0  0  0  0
  3 12  2  0  0  0  0
  4 13  1  0  0  0  0
  4 23  1  0  0  0  0
  5 14  1  0  0  0  0
  5 24  1  0  0  0  0
  6 13  2  0  0  0  0
  7 14  2  0  0  0  0
  8  9  1  0  0  0  0
  8 10  1  0  0  0  0
  8 12  1  0  0  0  0
  9 11  1  0  0  0  0
  9 15  1  0  0  0  0
  9 16  1  0  0  0  0
 10 13  1  0  0  0  0
 10 17  1  0  0  0  0
 10 18  1  0  0  0  0
 11 14  1  0  0  0  0
 11 19  1  0  0  0  0
 11 20  1  0  0  0  0
M  END
> <PUBCHEM_COMPOUND_CID>
439459

> <PUBCHEM_CONFORMER_RMSD>
0.6

> <PUBCHEM_CONFORMER_DIVERSEORDER>
2
80
43
77
36
33
4
70
74
28
44
56
72
3
76
24
17
48
29
79
60
20
27
37
68
18
61
35
34
53
32
64
63
8
59
11
66
49
73
14
58
46
65
21
75
62
54
52
13
1
39
30
40
16
57
5
10
69
41
9
71
50
67
12
51
78
22
55
26
47
31
38
7
45
23
42
25
19
6
15

> <PUBCHEM_MMFF94_PARTIAL_CHARGES>
17
1 -0.68
10 0.06
11 0.06
12 0.66
13 0.66
14 0.66
2 -0.65
21 0.4
22 0.5
23 0.5
24 0.5
3 -0.57
4 -0.65
5 -0.65
6 -0.57
7 -0.57
8 0.34

> <PUBCHEM_EFFECTIVE_ROTOR_COUNT>
6

> <PUBCHEM_PHARMACOPHORE_FEATURES>
11
1 1 acceptor
1 1 donor
1 2 acceptor
1 3 acceptor
1 4 acceptor
1 5 acceptor
1 6 acceptor
1 7 acceptor
3 2 3 12 anion
3 4 6 13 anion
3 5 7 14 anion

> <PUBCHEM_HEAVY_ATOM_COUNT>
14

> <PUBCHEM_ATOM_DEF_STEREO_COUNT>
1

> <PUBCHEM_ATOM_UDEF_STEREO_COUNT>
0

> <PUBCHEM_BOND_DEF_STEREO_COUNT>
0

> <PUBCHEM_BOND_UDEF_STEREO_COUNT>
0

> <PUBCHEM_ISOTOPIC_ATOM_COUNT>
0

> <PUBCHEM_COMPONENT_COUNT>
1

> <PUBCHEM_CACTVS_TAUTO_COUNT>
1

> <PUBCHEM_CONFORMER_ID>
0006B4A300000002

> <PUBCHEM_MMFF94_ENERGY>
17.4648

> <PUBCHEM_FEATURE_SELFOVERLAP>
56.005

> <PUBCHEM_SHAPE_FINGERPRINT>
10219947 1 17313098618951397671
11769659 78 18273219689801272394
12032990 46 18410571751958679595
12932764 1 16660937668218512470
13024252 1 13542456592297954589
13380536 53 17531231860140640349
14943859 89 9439404614261942462
14993402 34 17240492381464307247
16945 1 18261386763090637357
17844478 74 16732979855791790954
18186145 218 13830132775882015703
200 152 18202565068785272370
20281407 28 18187369822057418770
21061003 4 17022906748056704528
21296965 67 18410009901574629051
22959321 105 18130791165499762846
23380061 50 12750945591044848734
23402539 116 18334301963155352766
23559900 14 18411990186868089562
25610 137 18412261714325931198
3250762 1 16737737575696449055
3312278 4 18343021099037927339
366044 4 11671787048300469737

> <PUBCHEM_SHAPE_MULTIPOLES>
247.03
6.52
1.6
1.03
4.12
0.6
0.08
-2.61
-0.32
-0.74
0.32
-0.17
0.24
-0.15

> <PUBCHEM_SHAPE_SELFOVERLAP>
487.801

> <PUBCHEM_SHAPE_VOLUME>
145.5

> <PUBCHEM_COORDINATE_TYPE>
2
5
10

$$$$

