441563
  -OEChem-07051213083D

 45 47  0     1  0  0  0  0  0999 V2000
    1.8118   -0.6565   -0.0089 O   0  0  0  0  0  0  0  0  0  0  0  0
    1.0173    1.4905    0.4419 O   0  0  0  0  0  0  0  0  0  0  0  0
    5.6523    0.4186    0.9718 O   0  0  0  0  0  0  0  0  0  0  0  0
    5.1783   -1.9946   -0.5473 O   0  0  0  0  0  0  0  0  0  0  0  0
    3.6636    2.4799    0.2810 O   0  0  0  0  0  0  0  0  0  0  0  0
    1.1287   -3.0522   -1.1706 O   0  0  0  0  0  0  0  0  0  0  0  0
   -0.8299    0.0709    0.4611 O   0  0  0  0  0  0  0  0  0  0  0  0
   -0.5064    3.5981   -0.1633 O   0  0  0  0  0  0  0  0  0  0  0  0
   -3.2106    3.3810   -0.4499 O   0  0  0  0  0  0  0  0  0  0  0  0
   -4.6367   -2.7580    0.4211 O   0  0  0  0  0  0  0  0  0  0  0  0
   -2.3773    2.2588   -0.3428 N   0  0  0  0  0  0  0  0  0  0  0  0
    4.5389    0.2387    0.0953 C   0  0  1  0  0  0  0  0  0  0  0  0
    4.1609   -1.2425    0.1089 C   0  0  1  0  0  0  0  0  0  0  0  0
    3.3749    1.1112    0.5654 C   0  0  2  0  0  0  0  0  0  0  0  0
    2.8253   -1.4688   -0.6037 C   0  0  1  0  0  0  0  0  0  0  0  0
    2.0760    0.7375   -0.1489 C   0  0  1  0  0  0  0  0  0  0  0  0
    2.3698   -2.9210   -0.5016 C   0  0  0  0  0  0  0  0  0  0  0  0
   -0.2328    1.1915   -0.1679 C   0  0  1  0  0  0  0  0  0  0  0  0
   -1.0348    2.4896   -0.2011 C   0  0  0  0  0  0  0  0  0  0  0  0
   -2.1689   -0.0670    0.2060 C   0  0  0  0  0  0  0  0  0  0  0  0
   -2.9772    1.0051   -0.1854 C   0  0  0  0  0  0  0  0  0  0  0  0
   -2.7267   -1.3276    0.4237 C   0  0  0  0  0  0  0  0  0  0  0  0
   -4.3491    0.8048   -0.3712 C   0  0  0  0  0  0  0  0  0  0  0  0
   -4.0929   -1.5252    0.2282 C   0  0  0  0  0  0  0  0  0  0  0  0
   -4.9020   -0.4614   -0.1696 C   0  0  0  0  0  0  0  0  0  0  0  0
   -3.7526   -3.8017    0.8277 C   0  0  0  0  0  0  0  0  0  0  0  0
    4.8741    0.5531   -0.9009 H   0  0  0  0  0  0  0  0  0  0  0  0
    4.1092   -1.5959    1.1460 H   0  0  0  0  0  0  0  0  0  0  0  0
    3.2497    1.0284    1.6522 H   0  0  0  0  0  0  0  0  0  0  0  0
    2.8978   -1.2102   -1.6689 H   0  0  0  0  0  0  0  0  0  0  0  0
    2.1402    1.0071   -1.2123 H   0  0  0  0  0  0  0  0  0  0  0  0
    2.2207   -3.2220    0.5407 H   0  0  0  0  0  0  0  0  0  0  0  0
    3.0861   -3.6040   -0.9671 H   0  0  0  0  0  0  0  0  0  0  0  0
   -0.0770    0.9362   -1.2275 H   0  0  0  0  0  0  0  0  0  0  0  0
    6.3691   -0.1566    0.6535 H   0  0  0  0  0  0  0  0  0  0  0  0
    5.2270   -1.6924   -1.4703 H   0  0  0  0  0  0  0  0  0  0  0  0
    4.5034    2.6968    0.7210 H   0  0  0  0  0  0  0  0  0  0  0  0
    0.5011   -2.4397   -0.7499 H   0  0  0  0  0  0  0  0  0  0  0  0
   -2.0484   -2.1128    0.7415 H   0  0  0  0  0  0  0  0  0  0  0  0
   -5.0031    1.6176   -0.6748 H   0  0  0  0  0  0  0  0  0  0  0  0
   -5.9676   -0.6113   -0.3214 H   0  0  0  0  0  0  0  0  0  0  0  0
   -2.8906    3.9290    0.2868 H   0  0  0  0  0  0  0  0  0  0  0  0
   -3.3106   -3.5953    1.8083 H   0  0  0  0  0  0  0  0  0  0  0  0
   -2.9939   -4.0067    0.0648 H   0  0  0  0  0  0  0  0  0  0  0  0
   -4.3533   -4.7110    0.9332 H   0  0  0  0  0  0  0  0  0  0  0  0
  1 15  1  0  0  0  0
  1 16  1  0  0  0  0
  2 16  1  0  0  0  0
  2 18  1  0  0  0  0
  3 12  1  0  0  0  0
  3 35  1  0  0  0  0
  4 13  1  0  0  0  0
  4 36  1  0  0  0  0
  5 14  1  0  0  0  0
  5 37  1  0  0  0  0
  6 17  1  0  0  0  0
  6 38  1  0  0  0  0
  7 18  1  0  0  0  0
  7 20  1  0  0  0  0
  8 19  2  0  0  0  0
  9 11  1  0  0  0  0
  9 42  1  0  0  0  0
 10 24  1  0  0  0  0
 10 26  1  0  0  0  0
 11 19  1  0  0  0  0
 11 21  1  0  0  0  0
 12 13  1  0  0  0  0
 12 14  1  0  0  0  0
 12 27  1  0  0  0  0
 13 15  1  0  0  0  0
 13 28  1  0  0  0  0
 14 16  1  0  0  0  0
 14 29  1  0  0  0  0
 15 17  1  0  0  0  0
 15 30  1  0  0  0  0
 16 31  1  0  0  0  0
 17 32  1  0  0  0  0
 17 33  1  0  0  0  0
 18 19  1  0  0  0  0
 18 34  1  0  0  0  0
 20 21  2  0  0  0  0
 20 22  1  0  0  0  0
 21 23  1  0  0  0  0
 22 24  2  0  0  0  0
 22 39  1  0  0  0  0
 23 25  2  0  0  0  0
 23 40  1  0  0  0  0
 24 25  1  0  0  0  0
 25 41  1  0  0  0  0
 26 43  1  0  0  0  0
 26 44  1  0  0  0  0
 26 45  1  0  0  0  0
M  END
> <PUBCHEM_COMPOUND_CID>
441563

> <PUBCHEM_CONFORMER_RMSD>
0.8

> <PUBCHEM_CONFORMER_DIVERSEORDER>
1
71
11
85
31
30
81
83
13
14
65
10
87
43
25
46
90
49
23
55
34
75
12
9
21
57
92
18
6
69
45
89
94
80
52
15
64
61
44
74
28
62
4
66
93
68
37
50
38
7
48
20
79
2
70
84
35
63
5
86
76
78
3
29
53
26
51
24
59
96
8
82
47
17
77
73
36
88
41
19
27
60
56
22
72
67
42
16
32
91
58
95
33
40
54
39

> <PUBCHEM_MMFF94_PARTIAL_CHARGES>
34
1 -0.56
10 -0.36
11 -0.14
12 0.28
13 0.28
14 0.28
15 0.28
16 0.56
17 0.28
18 0.62
19 0.57
2 -0.56
20 0.08
21 0.12
22 -0.15
23 -0.15
24 0.08
25 -0.15
26 0.28
3 -0.68
35 0.4
36 0.4
37 0.4
38 0.4
39 0.15
4 -0.68
40 0.15
41 0.15
42 0.4
5 -0.68
6 -0.68
7 -0.36
8 -0.57
9 -0.44

> <PUBCHEM_EFFECTIVE_ROTOR_COUNT>
5.8

> <PUBCHEM_PHARMACOPHORE_FEATURES>
16
1 1 acceptor
1 10 acceptor
1 2 acceptor
1 3 acceptor
1 3 donor
1 4 acceptor
1 4 donor
1 5 acceptor
1 5 donor
1 6 acceptor
1 6 donor
1 7 acceptor
1 8 acceptor
6 1 12 13 14 15 16 rings
6 20 21 22 23 24 25 rings
6 7 11 18 19 20 21 rings

> <PUBCHEM_HEAVY_ATOM_COUNT>
26

> <PUBCHEM_ATOM_DEF_STEREO_COUNT>
6

> <PUBCHEM_ATOM_UDEF_STEREO_COUNT>
0

> <PUBCHEM_BOND_DEF_STEREO_COUNT>
0

> <PUBCHEM_BOND_UDEF_STEREO_COUNT>
0

> <PUBCHEM_ISOTOPIC_ATOM_COUNT>
0

> <PUBCHEM_COMPONENT_COUNT>
1

> <PUBCHEM_CACTVS_TAUTO_COUNT>
1

> <PUBCHEM_CONFORMER_ID>
0006BCDB00000001

> <PUBCHEM_MMFF94_ENERGY>
86.0853

> <PUBCHEM_FEATURE_SELFOVERLAP>
81.34

> <PUBCHEM_SHAPE_FINGERPRINT>
10616163 171 18410012156195089174
11828532 37 16481053996829329123
12553582 1 18268405993941130719
13402501 40 18409448076702679459
138480 1 15746135541249808897
13911882 115 18187078460493384206
14790565 3 17474666153116240028
15196674 1 18410855438658626066
15352361 1 18339923719179912067
17492 89 18411982464295754466
1813 80 17489585632746479365
18681886 176 18340205190453012276
19141452 34 18410005542720958977
21133410 171 17620530913521991371
221490 88 18408601487704551044
22393880 68 18266171923900494062
23557571 272 18335699489568126341
23559900 14 18410300232737500504
3004659 81 18202847651414990190
3421961 26 18050845516684332809
350125 39 18336547132262336104
4214541 1 18338799025768794769
463206 1 18194962938085790199
5104073 3 18262243334468072456
5309563 4 18266457607897636203
6433294 58 18266458900203088674
6823239 73 18116708724336757846
9709674 26 18264768929329402286

> <PUBCHEM_SHAPE_MULTIPOLES>
471.39
11.32
4.27
0.78
4.11
0.55
0.01
4.61
-1.05
-2.6
0.27
0.18
0.26
1.87

> <PUBCHEM_SHAPE_SELFOVERLAP>
1005.319

> <PUBCHEM_SHAPE_VOLUME>
257.1

> <PUBCHEM_COORDINATE_TYPE>
2
5
10

$$$$

