246484
  -OEChem-07051213063D

 49 52  0     1  0  0  0  0  0999 V2000
    3.8555   -1.0227    0.4075 O   0  0  0  0  0  0  0  0  0  0  0  0
   -1.6363    2.3904   -1.5042 O   0  0  0  0  0  0  0  0  0  0  0  0
    5.7063   -0.1610    1.3582 O   0  0  0  0  0  0  0  0  0  0  0  0
   -5.7104   -0.0606    1.3236 O   0  0  0  0  0  0  0  0  0  0  0  0
   -0.3935   -0.6544    0.0724 C   0  0  1  0  0  0  0  0  0  0  0  0
    0.4608    0.6076   -0.2482 C   0  0  2  0  0  0  0  0  0  0  0  0
    1.9160    0.4330    0.2696 C   0  0  1  0  0  0  0  0  0  0  0  0
   -1.8987   -0.5309   -0.3889 C   0  0  2  0  0  0  0  0  0  0  0  0
    2.5963   -0.8279   -0.2899 C   0  0  2  0  0  0  0  0  0  0  0  0
    0.2998   -1.9322   -0.4483 C   0  0  0  0  0  0  0  0  0  0  0  0
   -0.2079    1.8506    0.3698 C   0  0  0  0  0  0  0  0  0  0  0  0
    1.7354   -2.0539    0.0538 C   0  0  0  0  0  0  0  0  0  0  0  0
   -2.4837    0.8100    0.0770 C   0  0  0  0  0  0  0  0  0  0  0  0
   -1.6398    2.0472   -0.1197 C   0  0  2  0  0  0  0  0  0  0  0  0
    2.8065    1.6527    0.0233 C   0  0  0  0  0  0  0  0  0  0  0  0
   -2.7003   -1.7013    0.2583 C   0  0  0  0  0  0  0  0  0  0  0  0
   -2.0397   -0.6314   -1.9257 C   0  0  0  0  0  0  0  0  0  0  0  0
    2.8882   -0.7973   -1.7999 C   0  0  0  0  0  0  0  0  0  0  0  0
    4.2955    1.3707    0.1869 C   0  0  0  0  0  0  0  0  0  0  0  0
   -4.2085   -1.5262    0.1742 C   0  0  0  0  0  0  0  0  0  0  0  0
   -3.6951    0.9382    0.6464 C   0  0  0  0  0  0  0  0  0  0  0  0
    4.6702    0.0120    0.7207 C   0  0  0  0  0  0  0  0  0  0  0  0
   -4.6167   -0.2125    0.7831 C   0  0  0  0  0  0  0  0  0  0  0  0
   -0.4068   -0.7382    1.1712 H   0  0  0  0  0  0  0  0  0  0  0  0
    0.5007    0.7480   -1.3352 H   0  0  0  0  0  0  0  0  0  0  0  0
    1.8640    0.3179    1.3640 H   0  0  0  0  0  0  0  0  0  0  0  0
    0.2981   -1.9525   -1.5429 H   0  0  0  0  0  0  0  0  0  0  0  0
   -0.2442   -2.8232   -0.1183 H   0  0  0  0  0  0  0  0  0  0  0  0
    0.3679    2.7454    0.1082 H   0  0  0  0  0  0  0  0  0  0  0  0
   -0.2016    1.7668    1.4642 H   0  0  0  0  0  0  0  0  0  0  0  0
    1.7264   -2.2009    1.1427 H   0  0  0  0  0  0  0  0  0  0  0  0
    2.1943   -2.9649   -0.3517 H   0  0  0  0  0  0  0  0  0  0  0  0
   -2.0721    2.9031    0.4130 H   0  0  0  0  0  0  0  0  0  0  0  0
    2.5274    2.4562    0.7163 H   0  0  0  0  0  0  0  0  0  0  0  0
    2.6329    2.0568   -0.9823 H   0  0  0  0  0  0  0  0  0  0  0  0
   -2.4261   -1.7895    1.3190 H   0  0  0  0  0  0  0  0  0  0  0  0
   -2.4402   -2.6582   -0.2091 H   0  0  0  0  0  0  0  0  0  0  0  0
   -1.8631   -1.6532   -2.2792 H   0  0  0  0  0  0  0  0  0  0  0  0
   -3.0451   -0.3486   -2.2588 H   0  0  0  0  0  0  0  0  0  0  0  0
   -1.3327    0.0166   -2.4519 H   0  0  0  0  0  0  0  0  0  0  0  0
    3.3591   -1.7364   -2.1143 H   0  0  0  0  0  0  0  0  0  0  0  0
    1.9864   -0.6538   -2.4009 H   0  0  0  0  0  0  0  0  0  0  0  0
    3.5972   -0.0102   -2.0704 H   0  0  0  0  0  0  0  0  0  0  0  0
    4.7161    2.1204    0.8684 H   0  0  0  0  0  0  0  0  0  0  0  0
    4.8085    1.4978   -0.7733 H   0  0  0  0  0  0  0  0  0  0  0  0
   -4.6950   -2.3340    0.7320 H   0  0  0  0  0  0  0  0  0  0  0  0
   -4.5659   -1.5620   -0.8597 H   0  0  0  0  0  0  0  0  0  0  0  0
   -4.0708    1.8997    0.9808 H   0  0  0  0  0  0  0  0  0  0  0  0
   -1.0993    3.1945   -1.6073 H   0  0  0  0  0  0  0  0  0  0  0  0
  1  9  1  0  0  0  0
  1 22  1  0  0  0  0
  2 14  1  0  0  0  0
  2 49  1  0  0  0  0
  3 22  2  0  0  0  0
  4 23  2  0  0  0  0
  5  6  1  0  0  0  0
  5  8  1  0  0  0  0
  5 10  1  0  0  0  0
  5 24  1  0  0  0  0
  6  7  1  0  0  0  0
  6 11  1  0  0  0  0
  6 25  1  0  0  0  0
  7  9  1  0  0  0  0
  7 15  1  0  0  0  0
  7 26  1  0  0  0  0
  8 13  1  0  0  0  0
  8 16  1  0  0  0  0
  8 17  1  0  0  0  0
  9 12  1  0  0  0  0
  9 18  1  0  0  0  0
 10 12  1  0  0  0  0
 10 27  1  0  0  0  0
 10 28  1  0  0  0  0
 11 14  1  0  0  0  0
 11 29  1  0  0  0  0
 11 30  1  0  0  0  0
 12 31  1  0  0  0  0
 12 32  1  0  0  0  0
 13 14  1  0  0  0  0
 13 21  2  0  0  0  0
 14 33  1  0  0  0  0
 15 19  1  0  0  0  0
 15 34  1  0  0  0  0
 15 35  1  0  0  0  0
 16 20  1  0  0  0  0
 16 36  1  0  0  0  0
 16 37  1  0  0  0  0
 17 38  1  0  0  0  0
 17 39  1  0  0  0  0
 17 40  1  0  0  0  0
 18 41  1  0  0  0  0
 18 42  1  0  0  0  0
 18 43  1  0  0  0  0
 19 22  1  0  0  0  0
 19 44  1  0  0  0  0
 19 45  1  0  0  0  0
 20 23  1  0  0  0  0
 20 46  1  0  0  0  0
 20 47  1  0  0  0  0
 21 23  1  0  0  0  0
 21 48  1  0  0  0  0
M  END
> <PUBCHEM_COMPOUND_CID>
246484

> <PUBCHEM_CONFORMER_RMSD>
0.6

> <PUBCHEM_CONFORMER_DIVERSEORDER>
1

> <PUBCHEM_MMFF94_PARTIAL_CHARGES>
15
1 -0.43
13 -0.28
14 0.42
19 0.06
2 -0.68
20 0.06
21 -0.14
22 0.66
23 0.49
3 -0.57
4 -0.57
48 0.15
49 0.4
8 0.14
9 0.28

> <PUBCHEM_EFFECTIVE_ROTOR_COUNT>
1.8

> <PUBCHEM_PHARMACOPHORE_FEATURES>
8
1 2 acceptor
1 2 donor
1 3 acceptor
1 4 acceptor
6 1 7 9 15 19 22 rings
6 5 6 7 9 10 12 rings
6 5 6 8 11 13 14 rings
6 8 13 16 20 21 23 rings

> <PUBCHEM_HEAVY_ATOM_COUNT>
23

> <PUBCHEM_ATOM_DEF_STEREO_COUNT>
6

> <PUBCHEM_ATOM_UDEF_STEREO_COUNT>
0

> <PUBCHEM_BOND_DEF_STEREO_COUNT>
0

> <PUBCHEM_BOND_UDEF_STEREO_COUNT>
0

> <PUBCHEM_ISOTOPIC_ATOM_COUNT>
0

> <PUBCHEM_COMPONENT_COUNT>
1

> <PUBCHEM_CACTVS_TAUTO_COUNT>
2

> <PUBCHEM_CONFORMER_ID>
0003C2D400000001

> <PUBCHEM_MMFF94_ENERGY>
65.2787

> <PUBCHEM_FEATURE_SELFOVERLAP>
40.649

> <PUBCHEM_SHAPE_FINGERPRINT>
11132069 177 18408598175963090371
11315181 36 12175621802557959414
12236239 1 17603303756789175563
12403259 415 18334021588370933696
12403814 3 18411141342216240765
12553582 1 18341603824433838695
12633257 1 18261396611498288904
13140716 1 18267021652545134522
13214271 11 18407762534420498423
13224815 77 18410012130493811766
13583140 156 17274282602874026326
13675066 3 18040433295692296282
14178342 30 18266740379880604424
14223421 5 18268145529649033151
14341114 176 18412262861414664778
14341114 328 18409724032698688058
14787075 74 18336827489755888945
14790565 3 18050275977650601957
15163728 17 14130157708455456779
15196674 1 18409165502166348579
15209289 33 18336267842843496707
15536298 74 18186793694970078159
15788980 27 17132121229459125374
16945 1 18265331900810193245
17349148 13 17060336336122471018
17492 89 18270123559811012970
1813 80 17489297577848021381
19050596 39 18409168792417284872
19141452 34 18333727988601104975
192875 21 16845286146637880636
19784866 170 18409442583713457147
19862831 5 9799690398139129036
20261772 1 18333450928259820498
20775438 99 12386396875922596985
21267235 1 18410565197801623754
21421861 104 18201161073682597546
21637258 2 16199861770841853891
22182313 1 18262237853936587748
23402539 116 18340776961525025895
23557571 272 18262507191372844364
23559900 14 18191586561046111686
26918003 58 17989207032001203355
2748010 2 18335709381094015524
296302 2 15213018245470969558
34934 24 18336269028618337155
350125 39 18410855430776034520
392239 28 18270951367702087475
5104073 3 18265333000290225138
9709674 26 18335699489668353214

> <PUBCHEM_SHAPE_MULTIPOLES>
449.85
10.03
2.19
1.22
1.44
0.32
-0.47
-0.33
4.28
-0.24
-0.31
-0.06
-0.05
0.26

> <PUBCHEM_SHAPE_SELFOVERLAP>
966.849

> <PUBCHEM_SHAPE_VOLUME>
243.4

> <PUBCHEM_COORDINATE_TYPE>
2
5
10

$$$$

