94136
  -OEChem-07051212452D

 37 39  0     1  0  0  0  0  0999 V2000
    7.6628    0.4714    0.0000 P   0  0  0  0  0  0  0  0  0  0  0  0
    4.4026    1.1580    0.0000 O   0  0  0  0  0  0  0  0  0  0  0  0
    6.7485    0.0662    0.0000 O   0  0  0  0  0  0  0  0  0  0  0  0
    6.7523    2.2418    0.0000 O   0  0  0  0  0  0  0  0  0  0  0  0
    3.7066    3.1272    0.0000 O   0  0  0  0  0  0  0  0  0  0  0  0
    8.5770    0.8765    0.0000 O   0  0  0  0  0  0  0  0  0  0  0  0
    8.0679   -0.4429    0.0000 O   0  0  0  0  0  0  0  0  0  0  0  0
    7.2576    1.3856    0.0000 O   0  0  0  0  0  0  0  0  0  0  0  0
    4.6783   -0.6025    0.0000 N   0  0  0  0  0  0  0  0  0  0  0  0
    4.6783   -2.2120    0.0000 N   0  0  0  0  0  0  0  0  0  0  0  0
    2.8660   -0.4072    0.0000 N   0  0  0  0  0  0  0  0  0  0  0  0
    2.0000   -1.9072    0.0000 N   0  0  0  0  0  0  0  0  0  0  0  0
    2.8660   -3.4072    0.0000 N   0  0  0  0  0  0  0  0  0  0  0  0
    5.9405    0.6554    0.0000 C   0  0  2  0  0  0  0  0  0  0  0  0
    5.9422    1.6554    0.0000 C   0  0  1  0  0  0  0  0  0  0  0  0
    4.9889    0.3480    0.0000 C   0  0  1  0  0  0  0  0  0  0  0  0
    4.9917    1.9660    0.0000 C   0  0  1  0  0  0  0  0  0  0  0  0
    4.6844    2.9176    0.0000 C   0  0  0  0  0  0  0  0  0  0  0  0
    3.7320   -0.9072    0.0000 C   0  0  0  0  0  0  0  0  0  0  0  0
    5.2619   -1.4072    0.0000 C   0  0  0  0  0  0  0  0  0  0  0  0
    3.7320   -1.9072    0.0000 C   0  0  0  0  0  0  0  0  0  0  0  0
    2.8660   -2.4072    0.0000 C   0  0  0  0  0  0  0  0  0  0  0  0
    2.0000   -0.9072    0.0000 C   0  0  0  0  0  0  0  0  0  0  0  0
    6.4934    0.9359    0.0000 H   0  0  0  0  0  0  0  0  0  0  0  0
    5.4266   -0.0911    0.0000 H   0  0  0  0  0  0  0  0  0  0  0  0
    5.8463    2.2679    0.0000 H   0  0  0  0  0  0  0  0  0  0  0  0
    4.3795    2.0641    0.0000 H   0  0  0  0  0  0  0  0  0  0  0  0
    5.2985    3.0029    0.0000 H   0  0  0  0  0  0  0  0  0  0  0  0
    4.7071    3.5372    0.0000 H   0  0  0  0  0  0  0  0  0  0  0  0
    6.6886    2.8585    0.0000 H   0  0  0  0  0  0  0  0  0  0  0  0
    5.8819   -1.4072    0.0000 H   0  0  0  0  0  0  0  0  0  0  0  0
    3.5160    3.7172    0.0000 H   0  0  0  0  0  0  0  0  0  0  0  0
    1.4631   -0.5972    0.0000 H   0  0  0  0  0  0  0  0  0  0  0  0
    8.6844   -0.5088    0.0000 H   0  0  0  0  0  0  0  0  0  0  0  0
    9.0780    0.5112    0.0000 H   0  0  0  0  0  0  0  0  0  0  0  0
    2.3291   -3.7172    0.0000 H   0  0  0  0  0  0  0  0  0  0  0  0
    3.4030   -3.7172    0.0000 H   0  0  0  0  0  0  0  0  0  0  0  0
  1  3  1  0  0  0  0
  1  6  1  0  0  0  0
  1  7  1  0  0  0  0
  1  8  2  0  0  0  0
  2 16  1  0  0  0  0
  2 17  1  0  0  0  0
 14  3  1  1  0  0  0
 15  4  1  1  0  0  0
  4 30  1  0  0  0  0
  5 18  1  0  0  0  0
  5 32  1  0  0  0  0
  6 35  1  0  0  0  0
  7 34  1  0  0  0  0
 16  9  1  6  0  0  0
  9 19  1  0  0  0  0
  9 20  1  0  0  0  0
 10 20  2  0  0  0  0
 10 21  1  0  0  0  0
 11 19  2  0  0  0  0
 11 23  1  0  0  0  0
 12 22  1  0  0  0  0
 12 23  2  0  0  0  0
 13 22  1  0  0  0  0
 13 36  1  0  0  0  0
 13 37  1  0  0  0  0
 14 15  1  0  0  0  0
 14 16  1  0  0  0  0
 14 24  1  0  0  0  0
 15 17  1  0  0  0  0
 15 26  1  0  0  0  0
 16 25  1  0  0  0  0
 17 18  1  6  0  0  0
 17 27  1  0  0  0  0
 18 28  1  0  0  0  0
 18 29  1  0  0  0  0
 19 21  1  0  0  0  0
 20 31  1  0  0  0  0
 21 22  2  0  0  0  0
 23 33  1  0  0  0  0
M  END
> <PUBCHEM_COMPOUND_CID>
94136

> <PUBCHEM_COMPOUND_CANONICALIZED>
1

> <PUBCHEM_CACTVS_COMPLEXITY>
481

> <PUBCHEM_CACTVS_HBOND_ACCEPTOR>
11

> <PUBCHEM_CACTVS_HBOND_DONOR>
5

> <PUBCHEM_CACTVS_ROTATABLE_BOND>
4

> <PUBCHEM_CACTVS_SUBSKEYS>
AAADccBzuAIAAAAAAAAAAAAAAAAAAWJAAAAsAAAAAAAAAFgB+AAAHgAQCCAACBzhlwYF8L9MFxCgQQZhZICAgC0REKABUCAoVBCDWAJAyEAeRAgPAALTACDwMAIAAAAAAAAAAAAAAAAAAAAAAAAAAAAAAA==

> <PUBCHEM_IUPAC_OPENEYE_NAME>
[(2R,3R,4R,5R)-2-(6-aminopurin-9-yl)-4-hydroxy-5-(hydroxymethyl)tetrahydrofuran-3-yl] dihydrogen phosphate

> <PUBCHEM_IUPAC_CAS_NAME>
[(2R,3R,4R,5R)-2-(6-aminopurin-9-yl)-4-hydroxy-5-(hydroxymethyl)-3-oxolanyl] dihydrogen phosphate

> <PUBCHEM_IUPAC_NAME>
[(2R,3R,4R,5R)-2-(6-aminopurin-9-yl)-4-hydroxy-5-(hydroxymethyl)oxolan-3-yl] dihydrogen phosphate

> <PUBCHEM_IUPAC_SYSTEMATIC_NAME>
[(2R,3R,4R,5R)-2-(6-aminopurin-9-yl)-5-(hydroxymethyl)-4-oxidanyl-oxolan-3-yl] dihydrogen phosphate

> <PUBCHEM_IUPAC_TRADITIONAL_NAME>
[(2R,3R,4R,5R)-2-adenin-9-yl-4-hydroxy-5-methylol-tetrahydrofuran-3-yl] dihydrogen phosphate

> <PUBCHEM_IUPAC_INCHI>
InChI=1S/C10H14N5O7P/c11-8-5-9(13-2-12-8)15(3-14-5)10-7(22-23(18,19)20)6(17)4(1-16)21-10/h2-4,6-7,10,16-17H,1H2,(H2,11,12,13)(H2,18,19,20)/t4-,6-,7-,10-/m1/s1

> <PUBCHEM_IUPAC_INCHIKEY>
QDFHPFSBQFLLSW-KQYNXXCUSA-N

> <PUBCHEM_XLOGP3>
-2.1

> <PUBCHEM_EXACT_MASS>
347.063084

> <PUBCHEM_MOLECULAR_FORMULA>
C10H14N5O7P

> <PUBCHEM_MOLECULAR_WEIGHT>
347.221222

> <PUBCHEM_OPENEYE_CAN_SMILES>
C1=NC2=C(C(=N1)N)N=CN2C3C(C(C(O3)CO)O)OP(=O)(O)O

> <PUBCHEM_OPENEYE_ISO_SMILES>
C1=NC2=C(C(=N1)N)N=CN2[C@H]3[C@@H]([C@@H]([C@H](O3)CO)O)OP(=O)(O)O

> <PUBCHEM_CACTVS_TPSA>
186

> <PUBCHEM_MONOISOTOPIC_WEIGHT>
347.063084

> <PUBCHEM_TOTAL_CHARGE>
0

> <PUBCHEM_HEAVY_ATOM_COUNT>
23

> <PUBCHEM_ATOM_DEF_STEREO_COUNT>
4

> <PUBCHEM_ATOM_UDEF_STEREO_COUNT>
0

> <PUBCHEM_BOND_DEF_STEREO_COUNT>
0

> <PUBCHEM_BOND_UDEF_STEREO_COUNT>
0

> <PUBCHEM_ISOTOPIC_ATOM_COUNT>
0

> <PUBCHEM_COMPONENT_COUNT>
1

> <PUBCHEM_CACTVS_TAUTO_COUNT>
3

> <PUBCHEM_COORDINATE_TYPE>
1
5
255

> <PUBCHEM_BONDANNOTATIONS>
10  20  8
10  21  8
11  19  8
11  23  8
12  22  8
12  23  8
17  18  6
19  21  8
21  22  8
14  3  5
15  4  5
16  9  6
9  19  8
9  20  8

$$$$

