92157
  -OEChem-07051212552D

 86 90  0     1  0  0  0  0  0999 V2000
    3.7320   -2.6896    0.0000 O   0  0  0  0  0  0  0  0  0  0  0  0
    2.8718   -1.1862    0.0000 O   0  0  0  0  0  0  0  0  0  0  0  0
    8.2591   -1.1372    0.0000 C   0  0  1  0  0  0  0  0  0  0  0  0
    9.1251   -0.6372    0.0000 C   0  0  1  0  0  0  0  0  0  0  0  0
    7.3931   -0.6372    0.0000 C   0  0  1  0  0  0  0  0  0  0  0  0
    9.1251    0.3628    0.0000 C   0  0  1  0  0  0  0  0  0  0  0  0
    6.4831   -1.1441    0.0000 C   0  0  2  0  0  0  0  0  0  0  0  0
   10.0191    0.8974    0.0000 C   0  0  2  0  0  0  0  0  0  0  0  0
   10.9251    0.3836    0.0000 C   0  0  1  0  0  0  0  0  0  0  0  0
    6.4750   -2.1857    0.0000 C   0  0  1  0  0  0  0  0  0  0  0  0
   10.0191   -1.1719    0.0000 C   0  0  0  0  0  0  0  0  0  0  0  0
    8.2752   -2.1788    0.0000 C   0  0  0  0  0  0  0  0  0  0  0  0
    7.3931    0.3628    0.0000 C   0  0  0  0  0  0  0  0  0  0  0  0
    8.2591    0.8628    0.0000 C   0  0  0  0  0  0  0  0  0  0  0  0
   10.9251   -0.6581    0.0000 C   0  0  0  0  0  0  0  0  0  0  0  0
    7.3771   -2.7065    0.0000 C   0  0  0  0  0  0  0  0  0  0  0  0
   10.2292    1.9113    0.0000 C   0  0  1  0  0  0  0  0  0  0  0  0
    5.5396   -2.7354    0.0000 C   0  0  0  0  0  0  0  0  0  0  0  0
    5.5562   -0.5800    0.0000 C   0  0  0  0  0  0  0  0  0  0  0  0
    8.9019   -1.9033    0.0000 C   0  0  0  0  0  0  0  0  0  0  0  0
    9.4672   -1.5769    0.0000 C   0  0  0  0  0  0  0  0  0  0  0  0
   11.6875    1.0843    0.0000 C   0  0  0  0  0  0  0  0  0  0  0  0
   11.2582    2.0266    0.0000 C   0  0  0  0  0  0  0  0  0  0  0  0
    6.4908   -0.1441    0.0000 C   0  0  0  0  0  0  0  0  0  0  0  0
    4.6000   -2.1929    0.0000 C   0  0  2  0  0  0  0  0  0  0  0  0
    4.6084   -1.1080    0.0000 C   0  0  0  0  0  0  0  0  0  0  0  0
   11.7950   -0.1097    0.0000 C   0  0  0  0  0  0  0  0  0  0  0  0
    5.0430   -3.6034    0.0000 C   0  0  0  0  0  0  0  0  0  0  0  0
    6.0430   -3.5995    0.0000 C   0  0  0  0  0  0  0  0  0  0  0  0
    9.5556    2.6505    0.0000 C   0  0  0  0  0  0  0  0  0  0  0  0
    9.8589    3.6034    0.0000 C   0  0  0  0  0  0  0  0  0  0  0  0
    8.5787    2.4367    0.0000 C   0  0  0  0  0  0  0  0  0  0  0  0
    2.8680   -2.1862    0.0000 C   0  0  0  0  0  0  0  0  0  0  0  0
    2.0000   -2.6829    0.0000 C   0  0  0  0  0  0  0  0  0  0  0  0
    8.1292   -0.2122    0.0000 H   0  0  0  0  0  0  0  0  0  0  0  0
    9.1186    1.2127    0.0000 H   0  0  0  0  0  0  0  0  0  0  0  0
    9.3263    1.3900    0.0000 H   0  0  0  0  0  0  0  0  0  0  0  0
    6.4783   -3.0357    0.0000 H   0  0  0  0  0  0  0  0  0  0  0  0
    9.6145   -1.6417    0.0000 H   0  0  0  0  0  0  0  0  0  0  0  0
   10.4127   -1.6509    0.0000 H   0  0  0  0  0  0  0  0  0  0  0  0
    8.4932   -2.7592    0.0000 H   0  0  0  0  0  0  0  0  0  0  0  0
    8.8843   -2.0632    0.0000 H   0  0  0  0  0  0  0  0  0  0  0  0
    7.1810    0.9454    0.0000 H   0  0  0  0  0  0  0  0  0  0  0  0
    6.7825    0.2551    0.0000 H   0  0  0  0  0  0  0  0  0  0  0  0
    8.6576    1.3377    0.0000 H   0  0  0  0  0  0  0  0  0  0  0  0
    7.8606    1.3377    0.0000 H   0  0  0  0  0  0  0  0  0  0  0  0
   11.1342   -1.2418    0.0000 H   0  0  0  0  0  0  0  0  0  0  0  0
   11.5360   -0.5520    0.0000 H   0  0  0  0  0  0  0  0  0  0  0  0
    6.9798   -3.1825    0.0000 H   0  0  0  0  0  0  0  0  0  0  0  0
    7.7781   -3.1794    0.0000 H   0  0  0  0  0  0  0  0  0  0  0  0
    9.6312    1.7476    0.0000 H   0  0  0  0  0  0  0  0  0  0  0  0
    5.9644   -0.1134    0.0000 H   0  0  0  0  0  0  0  0  0  0  0  0
    5.1663   -0.0980    0.0000 H   0  0  0  0  0  0  0  0  0  0  0  0
    8.4269   -2.3018    0.0000 H   0  0  0  0  0  0  0  0  0  0  0  0
    9.3004   -2.3782    0.0000 H   0  0  0  0  0  0  0  0  0  0  0  0
    9.3768   -1.5048    0.0000 H   0  0  0  0  0  0  0  0  0  0  0  0
    8.8846   -1.7890    0.0000 H   0  0  0  0  0  0  0  0  0  0  0  0
    9.6794   -2.1595    0.0000 H   0  0  0  0  0  0  0  0  0  0  0  0
   10.0498   -1.3648    0.0000 H   0  0  0  0  0  0  0  0  0  0  0  0
   12.0567    0.5863    0.0000 H   0  0  0  0  0  0  0  0  0  0  0  0
   12.2215    1.3992    0.0000 H   0  0  0  0  0  0  0  0  0  0  0  0
   11.8463    2.2229    0.0000 H   0  0  0  0  0  0  0  0  0  0  0  0
   11.1248    2.6321    0.0000 H   0  0  0  0  0  0  0  0  0  0  0  0
    7.1108   -0.1489    0.0000 H   0  0  0  0  0  0  0  0  0  0  0  0
    6.4956    0.4759    0.0000 H   0  0  0  0  0  0  0  0  0  0  0  0
    5.8708   -0.1393    0.0000 H   0  0  0  0  0  0  0  0  0  0  0  0
    4.0648   -1.8798    0.0000 H   0  0  0  0  0  0  0  0  0  0  0  0
    4.4038   -0.5227    0.0000 H   0  0  0  0  0  0  0  0  0  0  0  0
    3.9967   -1.2093    0.0000 H   0  0  0  0  0  0  0  0  0  0  0  0
   11.4891   -0.6490    0.0000 H   0  0  0  0  0  0  0  0  0  0  0  0
   12.3343   -0.4156    0.0000 H   0  0  0  0  0  0  0  0  0  0  0  0
   12.1008    0.4296    0.0000 H   0  0  0  0  0  0  0  0  0  0  0  0
    4.5048   -3.2954    0.0000 H   0  0  0  0  0  0  0  0  0  0  0  0
    4.7350   -4.1415    0.0000 H   0  0  0  0  0  0  0  0  0  0  0  0
    5.5811   -3.9113    0.0000 H   0  0  0  0  0  0  0  0  0  0  0  0
    5.5072   -3.9116    0.0000 H   0  0  0  0  0  0  0  0  0  0  0  0
    6.3550   -4.1352    0.0000 H   0  0  0  0  0  0  0  0  0  0  0  0
    6.5787   -3.2874    0.0000 H   0  0  0  0  0  0  0  0  0  0  0  0
   10.4497    3.4153    0.0000 H   0  0  0  0  0  0  0  0  0  0  0  0
   10.0470    4.1941    0.0000 H   0  0  0  0  0  0  0  0  0  0  0  0
    9.2681    3.7914    0.0000 H   0  0  0  0  0  0  0  0  0  0  0  0
    8.1611    2.8950    0.0000 H   0  0  0  0  0  0  0  0  0  0  0  0
    8.3907    1.8459    0.0000 H   0  0  0  0  0  0  0  0  0  0  0  0
    1.6921   -2.1448    0.0000 H   0  0  0  0  0  0  0  0  0  0  0  0
    1.4619   -2.9908    0.0000 H   0  0  0  0  0  0  0  0  0  0  0  0
    2.3079   -3.2210    0.0000 H   0  0  0  0  0  0  0  0  0  0  0  0
 25  1  1  1  0  0  0
  1 33  1  0  0  0  0
  2 33  2  0  0  0  0
  3  4  1  0  0  0  0
  3  5  1  0  0  0  0
  3 12  1  0  0  0  0
  3 20  1  1  0  0  0
  4  6  1  0  0  0  0
  4 11  1  0  0  0  0
  4 21  1  6  0  0  0
  5  7  1  0  0  0  0
  5 13  1  0  0  0  0
  5 35  1  6  0  0  0
  6  8  1  0  0  0  0
  6 14  1  0  0  0  0
  6 36  1  1  0  0  0
  7 10  1  0  0  0  0
  7 19  1  0  0  0  0
  7 24  1  1  0  0  0
  8  9  1  0  0  0  0
  8 17  1  0  0  0  0
  8 37  1  6  0  0  0
  9 15  1  0  0  0  0
  9 22  1  0  0  0  0
  9 27  1  1  0  0  0
 10 16  1  0  0  0  0
 10 18  1  0  0  0  0
 10 38  1  6  0  0  0
 11 15  1  0  0  0  0
 11 39  1  0  0  0  0
 11 40  1  0  0  0  0
 12 16  1  0  0  0  0
 12 41  1  0  0  0  0
 12 42  1  0  0  0  0
 13 14  1  0  0  0  0
 13 43  1  0  0  0  0
 13 44  1  0  0  0  0
 14 45  1  0  0  0  0
 14 46  1  0  0  0  0
 15 47  1  0  0  0  0
 15 48  1  0  0  0  0
 16 49  1  0  0  0  0
 16 50  1  0  0  0  0
 17 23  1  0  0  0  0
 17 30  1  6  0  0  0
 17 51  1  0  0  0  0
 18 25  1  0  0  0  0
 18 28  1  0  0  0  0
 18 29  1  0  0  0  0
 19 26  1  0  0  0  0
 19 52  1  0  0  0  0
 19 53  1  0  0  0  0
 20 54  1  0  0  0  0
 20 55  1  0  0  0  0
 20 56  1  0  0  0  0
 21 57  1  0  0  0  0
 21 58  1  0  0  0  0
 21 59  1  0  0  0  0
 22 23  1  0  0  0  0
 22 60  1  0  0  0  0
 22 61  1  0  0  0  0
 23 62  1  0  0  0  0
 23 63  1  0  0  0  0
 24 64  1  0  0  0  0
 24 65  1  0  0  0  0
 24 66  1  0  0  0  0
 25 26  1  0  0  0  0
 25 67  1  0  0  0  0
 26 68  1  0  0  0  0
 26 69  1  0  0  0  0
 27 70  1  0  0  0  0
 27 71  1  0  0  0  0
 27 72  1  0  0  0  0
 28 73  1  0  0  0  0
 28 74  1  0  0  0  0
 28 75  1  0  0  0  0
 29 76  1  0  0  0  0
 29 77  1  0  0  0  0
 29 78  1  0  0  0  0
 30 31  1  0  0  0  0
 30 32  2  0  0  0  0
 31 79  1  0  0  0  0
 31 80  1  0  0  0  0
 31 81  1  0  0  0  0
 32 82  1  0  0  0  0
 32 83  1  0  0  0  0
 33 34  1  0  0  0  0
 34 84  1  0  0  0  0
 34 85  1  0  0  0  0
 34 86  1  0  0  0  0
M  END
> <PUBCHEM_COMPOUND_CID>
92157

> <PUBCHEM_COMPOUND_CANONICALIZED>
1

> <PUBCHEM_CACTVS_COMPLEXITY>
872

> <PUBCHEM_CACTVS_HBOND_ACCEPTOR>
2

> <PUBCHEM_CACTVS_HBOND_DONOR>
0

> <PUBCHEM_CACTVS_ROTATABLE_BOND>
3

> <PUBCHEM_CACTVS_SUBSKEYS>
AAADcfB8MAAAAAAAAAAAAAAAAAAAAYAAAAAwYMGAAAAAAGDAAAAAGgAAAAAADxSggAICCAAABACIAgDSCAAAAAAgAAAAAAAAAAgAAAIAAQACAAAEgAAAAAGAwPAPgAAAAAAAAADAAAYAADAAAQAACAAAAA==

> <PUBCHEM_IUPAC_OPENEYE_NAME>
[(1R,3aR,5aR,5bR,7aR,9S,11aR,11bR,13aR,13bR)-1-isopropenyl-3a,5a,5b,8,8,11a-hexamethyl-1,2,3,4,5,6,7,7a,9,10,11,11b,12,13,13a,13b-hexadecahydrocyclopenta[a]chrysen-9-yl] acetate

> <PUBCHEM_IUPAC_CAS_NAME>
acetic acid [(1R,3aR,5aR,5bR,7aR,9S,11aR,11bR,13aR,13bR)-3a,5a,5b,8,8,11a-hexamethyl-1-(1-methylethenyl)-1,2,3,4,5,6,7,7a,9,10,11,11b,12,13,13a,13b-hexadecahydrocyclopenta[a]chrysen-9-yl] ester

> <PUBCHEM_IUPAC_NAME>
[(1R,3aR,5aR,5bR,7aR,9S,11aR,11bR,13aR,13bR)-3a,5a,5b,8,8,11a-hexamethyl-1-prop-1-en-2-yl-1,2,3,4,5,6,7,7a,9,10,11,11b,12,13,13a,13b-hexadecahydrocyclopenta[a]chrysen-9-yl] acetate

> <PUBCHEM_IUPAC_SYSTEMATIC_NAME>
[(1R,3aR,5aR,5bR,7aR,9S,11aR,11bR,13aR,13bR)-3a,5a,5b,8,8,11a-hexamethyl-1-prop-1-en-2-yl-1,2,3,4,5,6,7,7a,9,10,11,11b,12,13,13a,13b-hexadecahydrocyclopenta[a]chrysen-9-yl] ethanoate

> <PUBCHEM_IUPAC_TRADITIONAL_NAME>
acetic acid [(1R,3aR,5aR,5bR,7aR,9S,11aR,11bR,13aR,13bR)-1-isopropenyl-3a,5a,5b,8,8,11a-hexamethyl-1,2,3,4,5,6,7,7a,9,10,11,11b,12,13,13a,13b-hexadecahydrocyclopenta[a]chrysen-9-yl] ester

> <PUBCHEM_IUPAC_INCHI>
InChI=1S/C32H52O2/c1-20(2)22-12-15-29(6)18-19-31(8)23(27(22)29)10-11-25-30(7)16-14-26(34-21(3)33)28(4,5)24(30)13-17-32(25,31)9/h22-27H,1,10-19H2,2-9H3/t22-,23+,24-,25+,26-,27+,29+,30-,31+,32+/m0/s1

> <PUBCHEM_IUPAC_INCHIKEY>
ODSSDTBFHAYYMD-YOJQYFTNSA-N

> <PUBCHEM_XLOGP3_AA>
10.4

> <PUBCHEM_EXACT_MASS>
468.396731

> <PUBCHEM_MOLECULAR_FORMULA>
C32H52O2

> <PUBCHEM_MOLECULAR_WEIGHT>
468.75408

> <PUBCHEM_OPENEYE_CAN_SMILES>
CC(=C)C1CCC2(C1C3CCC4C5(CCC(C(C5CCC4(C3(CC2)C)C)(C)C)OC(=O)C)C)C

> <PUBCHEM_OPENEYE_ISO_SMILES>
CC(=C)[C@@H]1CC[C@]2([C@H]1[C@H]3CC[C@@H]4[C@]5(CC[C@@H](C([C@@H]5CC[C@]4([C@@]3(CC2)C)C)(C)C)OC(=O)C)C)C

> <PUBCHEM_CACTVS_TPSA>
26.3

> <PUBCHEM_MONOISOTOPIC_WEIGHT>
468.396731

> <PUBCHEM_TOTAL_CHARGE>
0

> <PUBCHEM_HEAVY_ATOM_COUNT>
34

> <PUBCHEM_ATOM_DEF_STEREO_COUNT>
10

> <PUBCHEM_ATOM_UDEF_STEREO_COUNT>
0

> <PUBCHEM_BOND_DEF_STEREO_COUNT>
0

> <PUBCHEM_BOND_UDEF_STEREO_COUNT>
0

> <PUBCHEM_ISOTOPIC_ATOM_COUNT>
0

> <PUBCHEM_COMPONENT_COUNT>
1

> <PUBCHEM_CACTVS_TAUTO_COUNT>
1

> <PUBCHEM_COORDINATE_TYPE>
1
5
255

> <PUBCHEM_BONDANNOTATIONS>
25  1  5
10  38  6
17  30  6
3  20  5
4  21  6
5  35  6
6  36  5
7  24  5
8  37  6
9  27  5

$$$$

