443489
  -OEChem-07051213022D

 63 66  0     1  0  0  0  0  0999 V2000
    5.1483   -3.3280    0.0000 O   0  0  0  0  0  0  0  0  0  0  0  0
    6.3178   -1.7185    0.0000 O   0  0  0  0  0  0  0  0  0  0  0  0
    6.8065   -1.1506    0.0000 O   0  0  0  0  0  0  0  0  0  0  0  0
    7.4821    0.4804    0.0000 O   0  0  0  0  0  0  0  0  0  0  0  0
    2.4962   -0.6714    0.0000 O   0  0  0  0  0  0  0  0  0  0  0  0
    2.8690    0.4804    0.0000 O   0  0  0  0  0  0  0  0  0  0  0  0
    3.5446    2.1114    0.0000 O   0  0  0  0  0  0  0  0  0  0  0  0
    7.5875    2.8924    0.0000 O   0  0  0  0  0  0  0  0  0  0  0  0
    7.9231   -2.3689    0.0000 O   0  0  0  0  0  0  0  0  0  0  0  0
    5.1755   -0.8261    0.0000 C   0  0  2  0  0  0  0  0  0  0  0  0
    5.3274   -1.8566    0.0000 C   0  0  2  0  0  0  0  0  0  0  0  0
    4.2517   -0.4434    0.0000 C   0  0  1  0  0  0  0  0  0  0  0  0
    4.5059   -2.4971    0.0000 C   0  0  1  0  0  0  0  0  0  0  0  0
    6.0994   -0.4434    0.0000 C   0  0  1  0  0  0  0  0  0  0  0  0
    6.4821    0.4804    0.0000 C   0  0  2  0  0  0  0  0  0  0  0  0
    3.4156   -1.0647    0.0000 C   0  0  2  0  0  0  0  0  0  0  0  0
    3.5436   -2.0985    0.0000 C   0  0  0  0  0  0  0  0  0  0  0  0
    6.0994    1.4043    0.0000 C   0  0  0  0  0  0  0  0  0  0  0  0
    5.9766   -2.6822    0.0000 C   0  0  0  0  0  0  0  0  0  0  0  0
    3.8690    0.4804    0.0000 C   0  0  0  0  0  0  0  0  0  0  0  0
    7.1552    1.2221    0.0000 C   0  0  0  0  0  0  0  0  0  0  0  0
    5.1755    1.7870    0.0000 C   0  0  0  0  0  0  0  0  0  0  0  0
    3.3278   -0.0608    0.0000 C   0  0  0  0  0  0  0  0  0  0  0  0
    4.2517    1.4043    0.0000 C   0  0  1  0  0  0  0  0  0  0  0  0
    6.8804    2.1853    0.0000 C   0  0  1  0  0  0  0  0  0  0  0  0
    5.9172    2.4601    0.0000 C   0  0  0  0  0  0  0  0  0  0  0  0
    6.3971    2.5151    0.0000 C   0  0  0  0  0  0  0  0  0  0  0  0
    7.2102    1.7020    0.0000 C   0  0  0  0  0  0  0  0  0  0  0  0
    5.6897    3.4339    0.0000 C   0  0  0  0  0  0  0  0  0  0  0  0
    6.9327   -2.5071    0.0000 C   0  0  0  0  0  0  0  0  0  0  0  0
    6.5571   -3.4339    0.0000 C   0  0  0  0  0  0  0  0  0  0  0  0
    5.9608   -1.1514    0.0000 H   0  0  0  0  0  0  0  0  0  0  0  0
    3.9897   -3.1724    0.0000 H   0  0  0  0  0  0  0  0  0  0  0  0
    5.9785   -1.0515    0.0000 H   0  0  0  0  0  0  0  0  0  0  0  0
    2.9201   -1.4374    0.0000 H   0  0  0  0  0  0  0  0  0  0  0  0
    2.9243   -2.0682    0.0000 H   0  0  0  0  0  0  0  0  0  0  0  0
    3.4078   -2.7034    0.0000 H   0  0  0  0  0  0  0  0  0  0  0  0
    6.3585   -3.1707    0.0000 H   0  0  0  0  0  0  0  0  0  0  0  0
    6.4645   -2.2997    0.0000 H   0  0  0  0  0  0  0  0  0  0  0  0
    7.5297    0.7280    0.0000 H   0  0  0  0  0  0  0  0  0  0  0  0
    7.7099    1.4992    0.0000 H   0  0  0  0  0  0  0  0  0  0  0  0
    3.5650    0.5120    0.0000 H   0  0  0  0  0  0  0  0  0  0  0  0
    2.7550    0.1765    0.0000 H   0  0  0  0  0  0  0  0  0  0  0  0
    3.0905   -0.6336    0.0000 H   0  0  0  0  0  0  0  0  0  0  0  0
    4.3726    2.0124    0.0000 H   0  0  0  0  0  0  0  0  0  0  0  0
    6.7248    2.7854    0.0000 H   0  0  0  0  0  0  0  0  0  0  0  0
    6.9959    2.3547    0.0000 H   0  0  0  0  0  0  0  0  0  0  0  0
    6.5575    3.1140    0.0000 H   0  0  0  0  0  0  0  0  0  0  0  0
    5.7982    2.6756    0.0000 H   0  0  0  0  0  0  0  0  0  0  0  0
    7.3707    1.1031    0.0000 H   0  0  0  0  0  0  0  0  0  0  0  0
    7.8091    1.8624    0.0000 H   0  0  0  0  0  0  0  0  0  0  0  0
    7.0498    2.3008    0.0000 H   0  0  0  0  0  0  0  0  0  0  0  0
    7.4054   -0.9901    0.0000 H   0  0  0  0  0  0  0  0  0  0  0  0
    7.7921   -0.0565    0.0000 H   0  0  0  0  0  0  0  0  0  0  0  0
    2.0000   -1.0431    0.0000 H   0  0  0  0  0  0  0  0  0  0  0  0
    6.2935    3.5750    0.0000 H   0  0  0  0  0  0  0  0  0  0  0  0
    5.5487    4.0376    0.0000 H   0  0  0  0  0  0  0  0  0  0  0  0
    5.0860    3.2928    0.0000 H   0  0  0  0  0  0  0  0  0  0  0  0
    3.7050    2.7103    0.0000 H   0  0  0  0  0  0  0  0  0  0  0  0
    8.1864    2.7319    0.0000 H   0  0  0  0  0  0  0  0  0  0  0  0
    5.9825   -3.2011    0.0000 H   0  0  0  0  0  0  0  0  0  0  0  0
    6.3243   -4.0085    0.0000 H   0  0  0  0  0  0  0  0  0  0  0  0
    7.1317   -3.6667    0.0000 H   0  0  0  0  0  0  0  0  0  0  0  0
  1 13  1  0  0  0  0
  1 19  1  0  0  0  0
 11  2  1  1  0  0  0
  2 30  1  0  0  0  0
 14  3  1  1  0  0  0
  3 53  1  0  0  0  0
 15  4  1  6  0  0  0
  4 54  1  0  0  0  0
 16  5  1  6  0  0  0
  5 55  1  0  0  0  0
  6 20  2  0  0  0  0
 24  7  1  6  0  0  0
  7 59  1  0  0  0  0
 25  8  1  1  0  0  0
  8 60  1  0  0  0  0
  9 30  2  0  0  0  0
 10 11  1  0  0  0  0
 10 12  1  0  0  0  0
 10 14  1  0  0  0  0
 10 32  1  1  0  0  0
 11 13  1  0  0  0  0
 11 19  1  0  0  0  0
 12 16  1  0  0  0  0
 12 20  1  0  0  0  0
 12 23  1  6  0  0  0
 13 17  1  0  0  0  0
 13 33  1  1  0  0  0
 14 15  1  0  0  0  0
 14 34  1  0  0  0  0
 15 18  1  0  0  0  0
 15 21  1  0  0  0  0
 16 17  1  0  0  0  0
 16 35  1  0  0  0  0
 17 36  1  0  0  0  0
 17 37  1  0  0  0  0
 18 22  1  0  0  0  0
 18 27  1  0  0  0  0
 18 28  1  0  0  0  0
 19 38  1  0  0  0  0
 19 39  1  0  0  0  0
 20 24  1  0  0  0  0
 21 25  1  0  0  0  0
 21 40  1  0  0  0  0
 21 41  1  0  0  0  0
 22 24  1  0  0  0  0
 22 26  2  0  0  0  0
 23 42  1  0  0  0  0
 23 43  1  0  0  0  0
 23 44  1  0  0  0  0
 24 45  1  0  0  0  0
 25 26  1  0  0  0  0
 25 46  1  0  0  0  0
 26 29  1  0  0  0  0
 27 47  1  0  0  0  0
 27 48  1  0  0  0  0
 27 49  1  0  0  0  0
 28 50  1  0  0  0  0
 28 51  1  0  0  0  0
 28 52  1  0  0  0  0
 29 56  1  0  0  0  0
 29 57  1  0  0  0  0
 29 58  1  0  0  0  0
 30 31  1  0  0  0  0
 31 61  1  0  0  0  0
 31 62  1  0  0  0  0
 31 63  1  0  0  0  0
M  END
> <PUBCHEM_COMPOUND_CID>
443489

> <PUBCHEM_COMPOUND_CANONICALIZED>
1

> <PUBCHEM_CACTVS_COMPLEXITY>
865

> <PUBCHEM_CACTVS_HBOND_ACCEPTOR>
9

> <PUBCHEM_CACTVS_HBOND_DONOR>
5

> <PUBCHEM_CACTVS_ROTATABLE_BOND>
2

> <PUBCHEM_CACTVS_SUBSKEYS>
AAADcfB4PAAAAAAAAAAAAAAAAABIAAAAAAAwQAAAAAAaIACAAAAAGgAACAAAD1SggAICCAAABgCIAoDQCAIAAAAgAAAACAFAAAgBFBYAAAACUAAF4AALEAPK7PzPgAAAAAAAAABCAAYQADCAAAAAAAAAAA==

> <PUBCHEM_IUPAC_INCHI>
InChI=1S/C22H32O9/c1-9-11(24)7-22(29)18(28)16-20(5,17(27)15(26)14(9)19(22,3)4)12(25)6-13-21(16,8-30-13)31-10(2)23/h11-13,15-16,18,24-26,28-29H,6-8H2,1-5H3/t11-,12-,13+,15+,16-,18-,20+,21-,22+/m0/s1

> <PUBCHEM_IUPAC_INCHIKEY>
LHXBWTCSJBQSGI-QOBCYHTASA-N

> <PUBCHEM_XLOGP3>
-1.6

> <PUBCHEM_EXACT_MASS>
440.204633

> <PUBCHEM_MOLECULAR_FORMULA>
C22H32O9

> <PUBCHEM_MOLECULAR_WEIGHT>
440.48408

> <PUBCHEM_OPENEYE_CAN_SMILES>
CC1=C2C(C(=O)C3(C(CC4C(C3C(C(C2(C)C)(CC1O)O)O)(CO4)OC(=O)C)O)C)O

> <PUBCHEM_OPENEYE_ISO_SMILES>
CC1=C2[C@H](C(=O)[C@@]3([C@H](C[C@@H]4[C@]([C@H]3[C@@H]([C@@](C2(C)C)(C[C@@H]1O)O)O)(CO4)OC(=O)C)O)C)O

> <PUBCHEM_CACTVS_TPSA>
154

> <PUBCHEM_MONOISOTOPIC_WEIGHT>
440.204633

> <PUBCHEM_TOTAL_CHARGE>
0

> <PUBCHEM_HEAVY_ATOM_COUNT>
31

> <PUBCHEM_ATOM_DEF_STEREO_COUNT>
9

> <PUBCHEM_ATOM_UDEF_STEREO_COUNT>
0

> <PUBCHEM_BOND_DEF_STEREO_COUNT>
0

> <PUBCHEM_BOND_UDEF_STEREO_COUNT>
0

> <PUBCHEM_ISOTOPIC_ATOM_COUNT>
0

> <PUBCHEM_COMPONENT_COUNT>
1

> <PUBCHEM_CACTVS_TAUTO_COUNT>
9

> <PUBCHEM_COORDINATE_TYPE>
1
5
255

> <PUBCHEM_BONDANNOTATIONS>
10  32  5
12  23  6
13  33  5
11  2  5
14  3  5
15  4  6
16  5  6
24  7  6
25  8  5

$$$$

