5676
  -OEChem-06261200482D

 98 99  0     1  0  0  0  0  0999 V2000
   10.3591   -2.7889    0.0000 O   0  0  0  0  0  0  0  0  0  0  0  0
    6.8671   -0.7543    0.0000 O   0  0  0  0  0  0  0  0  0  0  0  0
    6.0010   -2.2543    0.0000 O   0  0  0  0  0  0  0  0  0  0  0  0
    2.5369   -1.2543    0.0000 O   0  0  0  0  0  0  0  0  0  0  0  0
    3.4030    0.2457    0.0000 O   0  0  0  0  0  0  0  0  0  0  0  0
   14.2718   -0.5546    0.0000 C   0  0  0  0  0  0  0  0  0  0  0  0
   14.7751    0.3095    0.0000 C   0  0  0  0  0  0  0  0  0  0  0  0
   13.7685   -1.4187    0.0000 C   0  0  0  0  0  0  0  0  0  0  0  0
   17.2785    1.1659    0.0000 C   0  0  0  0  0  0  0  0  0  0  0  0
   11.2651   -2.2751    0.0000 C   0  0  3  0  0  0  0  0  0  0  0  0
   15.7751    0.3056    0.0000 C   0  0  0  0  0  0  0  0  0  0  0  0
   12.7685   -1.4149    0.0000 C   0  0  0  0  0  0  0  0  0  0  0  0
   16.2785    1.1697    0.0000 C   0  0  0  0  0  0  0  0  0  0  0  0
   12.2651   -2.2790    0.0000 C   0  0  0  0  0  0  0  0  0  0  0  0
   11.2651   -1.2335    0.0000 C   0  0  0  0  0  0  0  0  0  0  0  0
   18.2784    1.1620    0.0000 C   0  0  0  0  0  0  0  0  0  0  0  0
   15.1359   -1.0580    0.0000 C   0  0  0  0  0  0  0  0  0  0  0  0
   13.4077   -0.0513    0.0000 C   0  0  0  0  0  0  0  0  0  0  0  0
   10.3591   -0.7196    0.0000 C   0  0  0  0  0  0  0  0  0  0  0  0
   17.2823    2.1658    0.0000 C   0  0  0  0  0  0  0  0  0  0  0  0
   17.2746    0.1659    0.0000 C   0  0  0  0  0  0  0  0  0  0  0  0
   11.7618   -3.1430    0.0000 C   0  0  0  0  0  0  0  0  0  0  0  0
   18.7818    2.0261    0.0000 C   0  0  0  0  0  0  0  0  0  0  0  0
    9.4651   -1.2543    0.0000 C   0  0  0  0  0  0  0  0  0  0  0  0
    9.4651   -2.2543    0.0000 C   0  0  0  0  0  0  0  0  0  0  0  0
   19.7818    2.0222    0.0000 C   0  0  0  0  0  0  0  0  0  0  0  0
    8.5991   -0.7543    0.0000 C   0  0  0  0  0  0  0  0  0  0  0  0
    8.5991   -2.7543    0.0000 C   0  0  0  0  0  0  0  0  0  0  0  0
   20.2851    2.8863    0.0000 C   0  0  0  0  0  0  0  0  0  0  0  0
    7.7331   -2.2543    0.0000 C   0  0  0  0  0  0  0  0  0  0  0  0
    7.7331   -1.2543    0.0000 C   0  0  0  0  0  0  0  0  0  0  0  0
    8.5991    0.2457    0.0000 C   0  0  0  0  0  0  0  0  0  0  0  0
    8.5991   -3.7543    0.0000 C   0  0  0  0  0  0  0  0  0  0  0  0
   21.2851    2.8825    0.0000 C   0  0  0  0  0  0  0  0  0  0  0  0
   19.7885    3.7543    0.0000 C   0  0  0  0  0  0  0  0  0  0  0  0
    6.8671   -2.7543    0.0000 C   0  0  0  0  0  0  0  0  0  0  0  0
    6.0010   -1.2543    0.0000 C   0  0  0  0  0  0  0  0  0  0  0  0
    5.1350   -0.7543    0.0000 C   0  0  0  0  0  0  0  0  0  0  0  0
    4.2690   -1.2543    0.0000 C   0  0  0  0  0  0  0  0  0  0  0  0
    3.4030   -0.7543    0.0000 C   0  0  0  0  0  0  0  0  0  0  0  0
   14.8852    0.9196    0.0000 H   0  0  0  0  0  0  0  0  0  0  0  0
   14.1933    0.5238    0.0000 H   0  0  0  0  0  0  0  0  0  0  0  0
   13.6585   -2.0289    0.0000 H   0  0  0  0  0  0  0  0  0  0  0  0
   14.3503   -1.6330    0.0000 H   0  0  0  0  0  0  0  0  0  0  0  0
   15.6651   -0.3045    0.0000 H   0  0  0  0  0  0  0  0  0  0  0  0
   16.3569    0.0913    0.0000 H   0  0  0  0  0  0  0  0  0  0  0  0
   12.8785   -0.8047    0.0000 H   0  0  0  0  0  0  0  0  0  0  0  0
   12.1867   -1.2006    0.0000 H   0  0  0  0  0  0  0  0  0  0  0  0
   16.3885    1.7799    0.0000 H   0  0  0  0  0  0  0  0  0  0  0  0
   15.6967    1.3840    0.0000 H   0  0  0  0  0  0  0  0  0  0  0  0
   12.1551   -2.8891    0.0000 H   0  0  0  0  0  0  0  0  0  0  0  0
   12.8469   -2.4932    0.0000 H   0  0  0  0  0  0  0  0  0  0  0  0
   11.8760   -1.3396    0.0000 H   0  0  0  0  0  0  0  0  0  0  0  0
   11.4742   -0.6498    0.0000 H   0  0  0  0  0  0  0  0  0  0  0  0
   18.1684    0.5518    0.0000 H   0  0  0  0  0  0  0  0  0  0  0  0
   18.8602    0.9477    0.0000 H   0  0  0  0  0  0  0  0  0  0  0  0
   13.7198    0.4845    0.0000 H   0  0  0  0  0  0  0  0  0  0  0  0
   12.8720    0.2608    0.0000 H   0  0  0  0  0  0  0  0  0  0  0  0
   13.0956   -0.5870    0.0000 H   0  0  0  0  0  0  0  0  0  0  0  0
   14.8238   -1.5937    0.0000 H   0  0  0  0  0  0  0  0  0  0  0  0
   15.6716   -1.3700    0.0000 H   0  0  0  0  0  0  0  0  0  0  0  0
   15.4480   -0.5222    0.0000 H   0  0  0  0  0  0  0  0  0  0  0  0
   10.7527   -0.2406    0.0000 H   0  0  0  0  0  0  0  0  0  0  0  0
    9.9545   -0.2498    0.0000 H   0  0  0  0  0  0  0  0  0  0  0  0
   17.9023    2.1635    0.0000 H   0  0  0  0  0  0  0  0  0  0  0  0
   17.2847    2.7858    0.0000 H   0  0  0  0  0  0  0  0  0  0  0  0
   16.6623    2.1682    0.0000 H   0  0  0  0  0  0  0  0  0  0  0  0
   16.6546    0.1683    0.0000 H   0  0  0  0  0  0  0  0  0  0  0  0
   17.2722   -0.4541    0.0000 H   0  0  0  0  0  0  0  0  0  0  0  0
   17.8946    0.1635    0.0000 H   0  0  0  0  0  0  0  0  0  0  0  0
   11.2237   -3.4510    0.0000 H   0  0  0  0  0  0  0  0  0  0  0  0
   12.0697   -3.6812    0.0000 H   0  0  0  0  0  0  0  0  0  0  0  0
   12.2999   -2.8351    0.0000 H   0  0  0  0  0  0  0  0  0  0  0  0
   18.8918    2.6362    0.0000 H   0  0  0  0  0  0  0  0  0  0  0  0
   18.2000    2.2404    0.0000 H   0  0  0  0  0  0  0  0  0  0  0  0
   19.6718    1.4121    0.0000 H   0  0  0  0  0  0  0  0  0  0  0  0
   20.3636    1.8079    0.0000 H   0  0  0  0  0  0  0  0  0  0  0  0
   20.5930    2.3482    0.0000 H   0  0  0  0  0  0  0  0  0  0  0  0
    9.2191    0.2457    0.0000 H   0  0  0  0  0  0  0  0  0  0  0  0
    8.5991    0.8657    0.0000 H   0  0  0  0  0  0  0  0  0  0  0  0
    7.9791    0.2457    0.0000 H   0  0  0  0  0  0  0  0  0  0  0  0
    7.9791   -3.7543    0.0000 H   0  0  0  0  0  0  0  0  0  0  0  0
    8.5991   -4.3743    0.0000 H   0  0  0  0  0  0  0  0  0  0  0  0
    9.2191   -3.7543    0.0000 H   0  0  0  0  0  0  0  0  0  0  0  0
   20.3266    4.0622    0.0000 H   0  0  0  0  0  0  0  0  0  0  0  0
   19.4805    4.2924    0.0000 H   0  0  0  0  0  0  0  0  0  0  0  0
   19.2503    3.4464    0.0000 H   0  0  0  0  0  0  0  0  0  0  0  0
   21.2827    2.2625    0.0000 H   0  0  0  0  0  0  0  0  0  0  0  0
   21.9051    2.8801    0.0000 H   0  0  0  0  0  0  0  0  0  0  0  0
   21.2875    3.5025    0.0000 H   0  0  0  0  0  0  0  0  0  0  0  0
    6.5571   -2.2173    0.0000 H   0  0  0  0  0  0  0  0  0  0  0  0
    6.3301   -3.0643    0.0000 H   0  0  0  0  0  0  0  0  0  0  0  0
    7.1771   -3.2912    0.0000 H   0  0  0  0  0  0  0  0  0  0  0  0
    5.5335   -0.2793    0.0000 H   0  0  0  0  0  0  0  0  0  0  0  0
    4.7365   -0.2793    0.0000 H   0  0  0  0  0  0  0  0  0  0  0  0
    3.8705   -1.7292    0.0000 H   0  0  0  0  0  0  0  0  0  0  0  0
    4.6675   -1.7292    0.0000 H   0  0  0  0  0  0  0  0  0  0  0  0
    2.0000   -0.9443    0.0000 H   0  0  0  0  0  0  0  0  0  0  0  0
  1 10  1  0  0  0  0
  1 25  1  0  0  0  0
  2 31  1  0  0  0  0
  2 37  1  0  0  0  0
  3 37  2  0  0  0  0
  4 40  1  0  0  0  0
  4 98  1  0  0  0  0
  5 40  2  0  0  0  0
  6  7  1  0  0  0  0
  6  8  1  0  0  0  0
  6 17  1  0  0  0  0
  6 18  1  0  0  0  0
  7 11  1  0  0  0  0
  7 41  1  0  0  0  0
  7 42  1  0  0  0  0
  8 12  1  0  0  0  0
  8 43  1  0  0  0  0
  8 44  1  0  0  0  0
  9 13  1  0  0  0  0
  9 16  1  0  0  0  0
  9 20  1  0  0  0  0
  9 21  1  0  0  0  0
 10 14  1  0  0  0  0
 10 15  1  0  0  0  0
 10 22  1  0  0  0  0
 11 13  1  0  0  0  0
 11 45  1  0  0  0  0
 11 46  1  0  0  0  0
 12 14  1  0  0  0  0
 12 47  1  0  0  0  0
 12 48  1  0  0  0  0
 13 49  1  0  0  0  0
 13 50  1  0  0  0  0
 14 51  1  0  0  0  0
 14 52  1  0  0  0  0
 15 19  1  0  0  0  0
 15 53  1  0  0  0  0
 15 54  1  0  0  0  0
 16 23  1  0  0  0  0
 16 55  1  0  0  0  0
 16 56  1  0  0  0  0
 17 60  1  0  0  0  0
 17 61  1  0  0  0  0
 17 62  1  0  0  0  0
 18 57  1  0  0  0  0
 18 58  1  0  0  0  0
 18 59  1  0  0  0  0
 19 24  1  0  0  0  0
 19 63  1  0  0  0  0
 19 64  1  0  0  0  0
 20 65  1  0  0  0  0
 20 66  1  0  0  0  0
 20 67  1  0  0  0  0
 21 68  1  0  0  0  0
 21 69  1  0  0  0  0
 21 70  1  0  0  0  0
 22 71  1  0  0  0  0
 22 72  1  0  0  0  0
 22 73  1  0  0  0  0
 23 26  1  0  0  0  0
 23 74  1  0  0  0  0
 23 75  1  0  0  0  0
 24 25  1  0  0  0  0
 24 27  2  0  0  0  0
 25 28  2  0  0  0  0
 26 29  1  0  0  0  0
 26 76  1  0  0  0  0
 26 77  1  0  0  0  0
 27 31  1  0  0  0  0
 27 32  1  0  0  0  0
 28 30  1  0  0  0  0
 28 33  1  0  0  0  0
 29 34  1  0  0  0  0
 29 35  1  0  0  0  0
 29 78  1  0  0  0  0
 30 31  2  0  0  0  0
 30 36  1  0  0  0  0
 32 79  1  0  0  0  0
 32 80  1  0  0  0  0
 32 81  1  0  0  0  0
 33 82  1  0  0  0  0
 33 83  1  0  0  0  0
 33 84  1  0  0  0  0
 34 88  1  0  0  0  0
 34 89  1  0  0  0  0
 34 90  1  0  0  0  0
 35 85  1  0  0  0  0
 35 86  1  0  0  0  0
 35 87  1  0  0  0  0
 36 91  1  0  0  0  0
 36 92  1  0  0  0  0
 36 93  1  0  0  0  0
 37 38  1  0  0  0  0
 38 39  1  0  0  0  0
 38 94  1  0  0  0  0
 38 95  1  0  0  0  0
 39 40  1  0  0  0  0
 39 96  1  0  0  0  0
 39 97  1  0  0  0  0
M  END
> <PUBCHEM_COMPOUND_CID>
5676

> <PUBCHEM_COMPOUND_CANONICALIZED>
1

> <PUBCHEM_CACTVS_COMPLEXITY>
802

> <PUBCHEM_CACTVS_HBOND_ACCEPTOR>
5

> <PUBCHEM_CACTVS_HBOND_DONOR>
1

> <PUBCHEM_CACTVS_ROTATABLE_BOND>
17

> <PUBCHEM_CACTVS_SUBSKEYS>
AAADcfB8OAAAAAAAAAAAAAAAAAAAAAAAAAA0QAAAAAAAAACRAAAAGgAACAAAD0SAmAACDoAABgCIAgDQCAACCAAgIAAAiAEECIgMJjKEMBqCeiCkwBEIqAfDwPAPwQADAAAYAACCAAYAADAAAAAAAAAAAA==

> <PUBCHEM_IUPAC_OPENEYE_NAME>
4-oxo-4-[2,5,7,8-tetramethyl-2-(4,4,8,8,12-pentamethyltridecyl)chroman-6-yl]oxy-butanoic acid

> <PUBCHEM_IUPAC_CAS_NAME>
4-oxo-4-[[2,5,7,8-tetramethyl-2-(4,4,8,8,12-pentamethyltridecyl)-3,4-dihydro-2H-1-benzopyran-6-yl]oxy]butanoic acid

> <PUBCHEM_IUPAC_NAME>
4-oxo-4-[[2,5,7,8-tetramethyl-2-(4,4,8,8,12-pentamethyltridecyl)-3,4-dihydrochromen-6-yl]oxy]butanoic acid

> <PUBCHEM_IUPAC_SYSTEMATIC_NAME>
4-oxidanylidene-4-[[2,5,7,8-tetramethyl-2-(4,4,8,8,12-pentamethyltridecyl)-3,4-dihydrochromen-6-yl]oxy]butanoic acid

> <PUBCHEM_IUPAC_TRADITIONAL_NAME>
4-keto-4-[2,5,7,8-tetramethyl-2-(4,4,8,8,12-pentamethyltridecyl)chroman-6-yl]oxy-butyric acid

> <PUBCHEM_IUPAC_INCHI>
InChI=1S/C35H58O5/c1-24(2)14-11-18-33(6,7)19-12-20-34(8,9)21-13-22-35(10)23-17-28-27(5)31(25(3)26(4)32(28)40-35)39-30(38)16-15-29(36)37/h24H,11-23H2,1-10H3,(H,36,37)

> <PUBCHEM_IUPAC_INCHIKEY>
ZFYJKUWDEIUIGI-UHFFFAOYSA-N

> <PUBCHEM_XLOGP3_AA>
11

> <PUBCHEM_EXACT_MASS>
558.428425

> <PUBCHEM_MOLECULAR_FORMULA>
C35H58O5

> <PUBCHEM_MOLECULAR_WEIGHT>
558.83202

> <PUBCHEM_OPENEYE_CAN_SMILES>
CC1=C2C(=C(C(=C1C)OC(=O)CCC(=O)O)C)CCC(O2)(C)CCCC(C)(C)CCCC(C)(C)CCCC(C)C

> <PUBCHEM_OPENEYE_ISO_SMILES>
CC1=C2C(=C(C(=C1C)OC(=O)CCC(=O)O)C)CCC(O2)(C)CCCC(C)(C)CCCC(C)(C)CCCC(C)C

> <PUBCHEM_CACTVS_TPSA>
72.8

> <PUBCHEM_MONOISOTOPIC_WEIGHT>
558.428425

> <PUBCHEM_TOTAL_CHARGE>
0

> <PUBCHEM_HEAVY_ATOM_COUNT>
40

> <PUBCHEM_ATOM_DEF_STEREO_COUNT>
0

> <PUBCHEM_ATOM_UDEF_STEREO_COUNT>
1

> <PUBCHEM_BOND_DEF_STEREO_COUNT>
0

> <PUBCHEM_BOND_UDEF_STEREO_COUNT>
0

> <PUBCHEM_ISOTOPIC_ATOM_COUNT>
0

> <PUBCHEM_COMPONENT_COUNT>
1

> <PUBCHEM_CACTVS_TAUTO_COUNT>
1

> <PUBCHEM_COORDINATE_TYPE>
1
5
255

> <PUBCHEM_BONDANNOTATIONS>
10  22  3
24  25  8
24  27  8
25  28  8
27  31  8
28  30  8
30  31  8

$$$$

