10952
  -OEChem-06261205093D

 18 18  0     0  0  0  0  0  0999 V2000
    2.0616   -0.0002    0.9461 Cl  0  0  0  0  0  0  0  0  0  0  0  0
    1.0943    0.0002   -0.5634 C   0  0  0  0  0  0  0  0  0  0  0  0
    0.2365   -1.2653   -0.6460 C   0  0  0  0  0  0  0  0  0  0  0  0
    0.2366    1.2656   -0.6455 C   0  0  0  0  0  0  0  0  0  0  0  0
   -0.9277   -1.2644    0.3450 C   0  0  0  0  0  0  0  0  0  0  0  0
   -0.9281    1.2643    0.3449 C   0  0  0  0  0  0  0  0  0  0  0  0
   -1.7731   -0.0002    0.2189 C   0  0  0  0  0  0  0  0  0  0  0  0
    1.8214    0.0003   -1.3821 H   0  0  0  0  0  0  0  0  0  0  0  0
    0.8525   -2.1591   -0.4907 H   0  0  0  0  0  0  0  0  0  0  0  0
   -0.1721   -1.3444   -1.6619 H   0  0  0  0  0  0  0  0  0  0  0  0
   -0.1715    1.3452   -1.6615 H   0  0  0  0  0  0  0  0  0  0  0  0
    0.8526    2.1593   -0.4896 H   0  0  0  0  0  0  0  0  0  0  0  0
   -0.5485   -1.3510    1.3700 H   0  0  0  0  0  0  0  0  0  0  0  0
   -1.5574   -2.1440    0.1686 H   0  0  0  0  0  0  0  0  0  0  0  0
   -1.5581    2.1437    0.1681 H   0  0  0  0  0  0  0  0  0  0  0  0
   -0.5493    1.3512    1.3701 H   0  0  0  0  0  0  0  0  0  0  0  0
   -2.2834   -0.0003   -0.7522 H   0  0  0  0  0  0  0  0  0  0  0  0
   -2.5537   -0.0003    0.9881 H   0  0  0  0  0  0  0  0  0  0  0  0
  1  2  1  0  0  0  0
  2  3  1  0  0  0  0
  2  4  1  0  0  0  0
  2  8  1  0  0  0  0
  3  5  1  0  0  0  0
  3  9  1  0  0  0  0
  3 10  1  0  0  0  0
  4  6  1  0  0  0  0
  4 11  1  0  0  0  0
  4 12  1  0  0  0  0
  5  7  1  0  0  0  0
  5 13  1  0  0  0  0
  5 14  1  0  0  0  0
  6  7  1  0  0  0  0
  6 15  1  0  0  0  0
  6 16  1  0  0  0  0
  7 17  1  0  0  0  0
  7 18  1  0  0  0  0
M  END
> <PUBCHEM_COMPOUND_CID>
10952

> <PUBCHEM_CONFORMER_RMSD>
0.4

> <PUBCHEM_CONFORMER_DIVERSEORDER>
1
2
3
4

> <PUBCHEM_MMFF94_PARTIAL_CHARGES>
2
1 -0.29
2 0.29

> <PUBCHEM_EFFECTIVE_ROTOR_COUNT>
1.2

> <PUBCHEM_PHARMACOPHORE_FEATURES>
1
6 2 3 4 5 6 7 rings

> <PUBCHEM_HEAVY_ATOM_COUNT>
7

> <PUBCHEM_ATOM_DEF_STEREO_COUNT>
0

> <PUBCHEM_ATOM_UDEF_STEREO_COUNT>
0

> <PUBCHEM_BOND_DEF_STEREO_COUNT>
0

> <PUBCHEM_BOND_UDEF_STEREO_COUNT>
0

> <PUBCHEM_ISOTOPIC_ATOM_COUNT>
0

> <PUBCHEM_COMPONENT_COUNT>
1

> <PUBCHEM_CACTVS_TAUTO_COUNT>
1

> <PUBCHEM_CONFORMER_ID>
00002AC800000001

> <PUBCHEM_MMFF94_ENERGY>
1.0612

> <PUBCHEM_FEATURE_SELFOVERLAP>
5.074

> <PUBCHEM_SHAPE_FINGERPRINT>
137420 1 11647663054501512626
16714656 1 18338782473238655636
18185500 45 17908424649761184010
20653085 51 4894987915765647122
21040471 1 18194668483300582005
24536 1 18338499907171479061
29004967 10 14548734010736766388
5084963 1 18263635332856813894
5943 1 14798585830330933212

> <PUBCHEM_SHAPE_MULTIPOLES>
145.93
2.15
1.52
0.96
0.48
0
0.03
0
0.68
-0.33
-0.14
0.29
0
0

> <PUBCHEM_SHAPE_SELFOVERLAP>
268.554

> <PUBCHEM_SHAPE_VOLUME>
91.2

> <PUBCHEM_COORDINATE_TYPE>
2
5
10

$$$$

