441736
  -OEChem-07051212563D

 51 57  0     1  0  0  0  0  0999 V2000
   -1.5324    2.2898   -1.4085 O   0  0  0  0  0  0  0  0  0  0  0  0
   -1.4180    1.9527    1.6249 O   0  0  0  0  0  0  0  0  0  0  0  0
    2.5256    2.3049    1.0649 O   0  0  0  0  0  0  0  0  0  0  0  0
    1.2936   -1.2302    1.2784 N   0  0  1  0  0  0  0  0  0  0  0  0
    0.5976    0.2797   -0.4721 C   0  0  1  0  0  0  0  0  0  0  0  0
   -1.2709   -1.2198   -0.1346 C   0  0  2  0  0  0  0  0  0  0  0  0
    0.4308   -0.0235    1.0512 C   0  0  1  0  0  0  0  0  0  0  0  0
    1.6132   -0.8416   -0.8601 C   0  0  2  0  0  0  0  0  0  0  0  0
   -0.7940   -0.0977   -1.1125 C   0  0  1  0  0  0  0  0  0  0  0  0
   -1.0411   -0.4556    1.2024 C   0  0  1  0  0  0  0  0  0  0  0  0
    1.1269   -1.9978    0.0145 C   0  0  2  0  0  0  0  0  0  0  0  0
    3.0112   -0.5637   -0.2658 C   0  0  2  0  0  0  0  0  0  0  0  0
   -0.3229   -2.4213   -0.2223 C   0  0  0  0  0  0  0  0  0  0  0  0
    1.1374    1.6737   -0.8063 C   0  0  0  0  0  0  0  0  0  0  0  0
   -1.9394    0.9520   -1.2095 C   0  0  1  0  0  0  0  0  0  0  0  0
    2.7264   -0.8170    1.2311 C   0  0  0  0  0  0  0  0  0  0  0  0
   -2.0539    0.7202    1.3158 C   0  0  2  0  0  0  0  0  0  0  0  0
   -2.8713    0.8490    0.0154 C   0  0  2  0  0  0  0  0  0  0  0  0
   -2.7401   -1.6405   -0.3242 C   0  0  0  0  0  0  0  0  0  0  0  0
    3.5250    0.8469   -0.5987 C   0  0  0  0  0  0  0  0  0  0  0  0
    2.5504    1.9802   -0.3206 C   0  0  2  0  0  0  0  0  0  0  0  0
   -3.6378   -0.4444   -0.1444 C   0  0  0  0  0  0  0  0  0  0  0  0
    4.0581   -1.5692   -0.7935 C   0  0  0  0  0  0  0  0  0  0  0  0
   -4.9743   -0.5269   -0.1257 C   0  0  0  0  0  0  0  0  0  0  0  0
    0.6947    0.7800    1.7420 H   0  0  0  0  0  0  0  0  0  0  0  0
    1.6323   -1.0591   -1.9326 H   0  0  0  0  0  0  0  0  0  0  0  0
   -0.6313   -0.4915   -2.1247 H   0  0  0  0  0  0  0  0  0  0  0  0
   -1.1735   -1.1160    2.0695 H   0  0  0  0  0  0  0  0  0  0  0  0
    1.7636   -2.8879   -0.0072 H   0  0  0  0  0  0  0  0  0  0  0  0
   -0.4062   -2.8922   -1.2095 H   0  0  0  0  0  0  0  0  0  0  0  0
   -0.6068   -3.1752    0.5230 H   0  0  0  0  0  0  0  0  0  0  0  0
    0.4934    2.4429   -0.3760 H   0  0  0  0  0  0  0  0  0  0  0  0
    1.1247    1.7900   -1.8975 H   0  0  0  0  0  0  0  0  0  0  0  0
   -2.5340    0.7046   -2.1009 H   0  0  0  0  0  0  0  0  0  0  0  0
    3.3344   -1.6436    1.6194 H   0  0  0  0  0  0  0  0  0  0  0  0
    2.9242    0.0361    1.8855 H   0  0  0  0  0  0  0  0  0  0  0  0
   -2.7332    0.5100    2.1517 H   0  0  0  0  0  0  0  0  0  0  0  0
   -3.5300    1.7242    0.0661 H   0  0  0  0  0  0  0  0  0  0  0  0
   -3.0051   -2.4135    0.4073 H   0  0  0  0  0  0  0  0  0  0  0  0
   -2.8783   -2.0581   -1.3288 H   0  0  0  0  0  0  0  0  0  0  0  0
    3.7687    0.8802   -1.6695 H   0  0  0  0  0  0  0  0  0  0  0  0
    4.4613    1.0268   -0.0548 H   0  0  0  0  0  0  0  0  0  0  0  0
    2.9026    2.8849   -0.8308 H   0  0  0  0  0  0  0  0  0  0  0  0
    3.8051   -2.6091   -0.5679 H   0  0  0  0  0  0  0  0  0  0  0  0
    4.1635   -1.4883   -1.8813 H   0  0  0  0  0  0  0  0  0  0  0  0
    5.0399   -1.3745   -0.3463 H   0  0  0  0  0  0  0  0  0  0  0  0
   -1.0870    2.3332   -2.2717 H   0  0  0  0  0  0  0  0  0  0  0  0
   -1.2537    2.4381    0.8010 H   0  0  0  0  0  0  0  0  0  0  0  0
   -5.5903    0.3557    0.0079 H   0  0  0  0  0  0  0  0  0  0  0  0
   -5.4772   -1.4807   -0.2439 H   0  0  0  0  0  0  0  0  0  0  0  0
    3.4324    2.5338    1.3309 H   0  0  0  0  0  0  0  0  0  0  0  0
  1 15  1  0  0  0  0
  1 47  1  0  0  0  0
  2 17  1  0  0  0  0
  2 48  1  0  0  0  0
  3 21  1  0  0  0  0
  3 51  1  0  0  0  0
  4  7  1  0  0  0  0
  4 11  1  0  0  0  0
  4 16  1  0  0  0  0
  5  7  1  0  0  0  0
  5  8  1  0  0  0  0
  5  9  1  0  0  0  0
  5 14  1  0  0  0  0
  6  9  1  0  0  0  0
  6 10  1  0  0  0  0
  6 13  1  0  0  0  0
  6 19  1  0  0  0  0
  7 10  1  0  0  0  0
  7 25  1  0  0  0  0
  8 11  1  0  0  0  0
  8 12  1  0  0  0  0
  8 26  1  0  0  0  0
  9 15  1  0  0  0  0
  9 27  1  0  0  0  0
 10 17  1  0  0  0  0
 10 28  1  0  0  0  0
 11 13  1  0  0  0  0
 11 29  1  0  0  0  0
 12 16  1  0  0  0  0
 12 20  1  0  0  0  0
 12 23  1  0  0  0  0
 13 30  1  0  0  0  0
 13 31  1  0  0  0  0
 14 21  1  0  0  0  0
 14 32  1  0  0  0  0
 14 33  1  0  0  0  0
 15 18  1  0  0  0  0
 15 34  1  0  0  0  0
 16 35  1  0  0  0  0
 16 36  1  0  0  0  0
 17 18  1  0  0  0  0
 17 37  1  0  0  0  0
 18 22  1  0  0  0  0
 18 38  1  0  0  0  0
 19 22  1  0  0  0  0
 19 39  1  0  0  0  0
 19 40  1  0  0  0  0
 20 21  1  0  0  0  0
 20 41  1  0  0  0  0
 20 42  1  0  0  0  0
 21 43  1  0  0  0  0
 22 24  2  0  0  0  0
 23 44  1  0  0  0  0
 23 45  1  0  0  0  0
 23 46  1  0  0  0  0
 24 49  1  0  0  0  0
 24 50  1  0  0  0  0
M  END
> <PUBCHEM_COMPOUND_CID>
441736

> <PUBCHEM_CONFORMER_RMSD>
0.6

> <PUBCHEM_CONFORMER_DIVERSEORDER>
1

> <PUBCHEM_MMFF94_PARTIAL_CHARGES>
19
1 -0.68
11 0.27
15 0.28
16 0.27
17 0.28
18 0.14
19 0.14
2 -0.68
21 0.28
22 -0.28
24 -0.3
3 -0.68
4 -0.81
47 0.4
48 0.4
49 0.15
50 0.15
51 0.4
7 0.27

> <PUBCHEM_EFFECTIVE_ROTOR_COUNT>
1.6

> <PUBCHEM_PHARMACOPHORE_FEATURES>
12
1 1 acceptor
1 1 donor
1 2 acceptor
1 2 donor
1 3 acceptor
1 3 donor
1 4 cation
6 5 8 12 14 20 21 rings
7 4 5 7 8 11 12 16 rings
7 5 7 9 10 15 17 18 rings
8 6 9 10 15 17 18 19 22 rings
9 4 5 6 7 8 9 10 11 13 rings

> <PUBCHEM_HEAVY_ATOM_COUNT>
24

> <PUBCHEM_ATOM_DEF_STEREO_COUNT>
9

> <PUBCHEM_ATOM_UDEF_STEREO_COUNT>
3

> <PUBCHEM_BOND_DEF_STEREO_COUNT>
0

> <PUBCHEM_BOND_UDEF_STEREO_COUNT>
0

> <PUBCHEM_ISOTOPIC_ATOM_COUNT>
0

> <PUBCHEM_COMPONENT_COUNT>
1

> <PUBCHEM_CACTVS_TAUTO_COUNT>
1

> <PUBCHEM_CONFORMER_ID>
0006BD8800000001

> <PUBCHEM_MMFF94_ENERGY>
128.3456

> <PUBCHEM_FEATURE_SELFOVERLAP>
66.796

> <PUBCHEM_SHAPE_FINGERPRINT>
10366900 7 17561074839001345410
10863032 1 18189895322972709711
10948715 1 18339360743108468901
10967382 1 18342458093075624166
11578080 2 18117870808858012977
12011746 2 18131347522683828542
12403259 226 18341617056969569310
12403814 3 18272094894323192391
12491281 212 18337092528151207576
13140716 1 18340774715009476771
13172582 1 18340209703619069394
13224815 77 17846499222855779173
14115302 16 18040435477641431071
14178342 30 18046915045565988651
14223421 5 18339641127200416154
144361 1 18273215291738638280
14787075 74 17249770949711771889
15309172 13 18341322396443623459
15536298 74 18410856520990365343
15848702 151 18115296908013720630
15852999 172 14836124372910852299
16945 1 18271823344499236879
18186145 218 18341618104962870375
18981168 100 18261125057827557800
200 152 18333450950066979535
20691752 17 17560252314431397319
21267235 1 18340476829099826007
2334 1 18197215849789005398
23419403 2 16027652698417385628
23559900 14 18113900433973312002
2748010 2 18127399064748947734
296302 2 14620786102811071807
3286 77 18334855026157225668
350125 39 18410852178820912861
4340502 62 18264772060972367235
474 4 17986950756631343388
5104073 3 18412543185266339619
7364860 26 18334575716070748926
9981440 41 17615975409414406528

> <PUBCHEM_SHAPE_MULTIPOLES>
471.32
6.35
2.34
1.33
1.79
0.38
-0.28
-0.51
0.68
-0.78
0.12
0
0.35
0.02

> <PUBCHEM_SHAPE_SELFOVERLAP>
1094.271

> <PUBCHEM_SHAPE_VOLUME>
242.8

> <PUBCHEM_COORDINATE_TYPE>
2
5
10

$$$$

