3045997
  -OEChem-07051213102D

 58 60  0     1  0  0  0  0  0999 V2000
    6.6009   -4.1334    0.0000 O   0  0  0  0  0  0  0  0  0  0  0  0
    2.5369   -3.5086    0.0000 O   0  0  0  0  0  0  0  0  0  0  0  0
    3.4030   -2.0086    0.0000 O   0  0  0  0  0  0  0  0  0  0  0  0
    6.3598   -0.3014    0.0000 O   0  0  0  0  0  0  0  0  0  0  0  0
    4.2690   -7.5086    0.0000 O   0  0  0  0  0  0  0  0  0  0  0  0
    8.9578   -0.8014    0.0000 O   0  0  0  0  0  0  0  0  0  0  0  0
    8.0918    3.6986    0.0000 O   0  0  0  0  0  0  0  0  0  0  0  0
   10.6899    7.1986    0.0000 O   0  0  0  0  0  0  0  0  0  0  0  0
    8.9578    7.1986    0.0000 O   0  0  0  0  0  0  0  0  0  0  0  0
    5.1350   -3.0086    0.0000 N   0  0  0  0  0  0  0  0  0  0  0  0
    7.2258   -1.8014    0.0000 N   0  0  0  0  0  0  0  0  0  0  0  0
   10.6899    5.1986    0.0000 N   0  0  0  0  0  0  0  0  0  0  0  0
    6.3598   -2.3014    0.0000 C   0  0  1  0  0  0  0  0  0  0  0  0
    5.3938   -2.0426    0.0000 C   0  0  0  0  0  0  0  0  0  0  0  0
    6.1009   -3.2674    0.0000 C   0  0  0  0  0  0  0  0  0  0  0  0
    4.2690   -3.5086    0.0000 C   0  0  2  0  0  0  0  0  0  0  0  0
    4.2690   -4.5085    0.0000 C   0  0  0  0  0  0  0  0  0  0  0  0
    3.4030   -3.0086    0.0000 C   0  0  0  0  0  0  0  0  0  0  0  0
    7.2258   -0.8014    0.0000 C   0  0  0  0  0  0  0  0  0  0  0  0
    3.4030   -5.0085    0.0000 C   0  0  0  0  0  0  0  0  0  0  0  0
    5.1350   -5.0085    0.0000 C   0  0  0  0  0  0  0  0  0  0  0  0
    3.4030   -6.0085    0.0000 C   0  0  0  0  0  0  0  0  0  0  0  0
    5.1350   -6.0085    0.0000 C   0  0  0  0  0  0  0  0  0  0  0  0
    8.0918   -0.3014    0.0000 C   0  0  0  0  0  0  0  0  0  0  0  0
    4.2690   -6.5085    0.0000 C   0  0  0  0  0  0  0  0  0  0  0  0
    8.0918    0.6986    0.0000 C   0  0  0  0  0  0  0  0  0  0  0  0
    8.9578    5.1986    0.0000 C   0  0  0  0  0  0  0  0  0  0  0  0
    8.9578    1.1986    0.0000 C   0  0  0  0  0  0  0  0  0  0  0  0
    7.2258    1.1986    0.0000 C   0  0  0  0  0  0  0  0  0  0  0  0
    9.8239    5.6986    0.0000 C   0  0  2  0  0  0  0  0  0  0  0  0
    8.9578    4.1986    0.0000 C   0  0  0  0  0  0  0  0  0  0  0  0
    8.0918    2.6986    0.0000 C   0  0  0  0  0  0  0  0  0  0  0  0
    8.9578    2.1986    0.0000 C   0  0  0  0  0  0  0  0  0  0  0  0
    7.2258    2.1986    0.0000 C   0  0  0  0  0  0  0  0  0  0  0  0
    9.8239    6.6986    0.0000 C   0  0  0  0  0  0  0  0  0  0  0  0
    6.8516   -2.6789    0.0000 H   0  0  0  0  0  0  0  0  0  0  0  0
    5.5543   -1.4438    0.0000 H   0  0  0  0  0  0  0  0  0  0  0  0
    4.7950   -1.8822    0.0000 H   0  0  0  0  0  0  0  0  0  0  0  0
    4.2690   -2.8886    0.0000 H   0  0  0  0  0  0  0  0  0  0  0  0
    7.7627   -2.1114    0.0000 H   0  0  0  0  0  0  0  0  0  0  0  0
    2.8660   -4.6986    0.0000 H   0  0  0  0  0  0  0  0  0  0  0  0
    5.6720   -4.6986    0.0000 H   0  0  0  0  0  0  0  0  0  0  0  0
    2.8660   -6.3186    0.0000 H   0  0  0  0  0  0  0  0  0  0  0  0
    5.6720   -6.3186    0.0000 H   0  0  0  0  0  0  0  0  0  0  0  0
    2.0000   -3.1986    0.0000 H   0  0  0  0  0  0  0  0  0  0  0  0
    8.7458    5.7812    0.0000 H   0  0  0  0  0  0  0  0  0  0  0  0
    8.3472    5.0909    0.0000 H   0  0  0  0  0  0  0  0  0  0  0  0
    9.4948    0.8886    0.0000 H   0  0  0  0  0  0  0  0  0  0  0  0
    6.6888    0.8886    0.0000 H   0  0  0  0  0  0  0  0  0  0  0  0
    9.8239    5.0786    0.0000 H   0  0  0  0  0  0  0  0  0  0  0  0
    9.1699    3.6159    0.0000 H   0  0  0  0  0  0  0  0  0  0  0  0
    9.5684    4.3062    0.0000 H   0  0  0  0  0  0  0  0  0  0  0  0
    9.4948    2.5086    0.0000 H   0  0  0  0  0  0  0  0  0  0  0  0
    6.6888    2.5086    0.0000 H   0  0  0  0  0  0  0  0  0  0  0  0
    3.7320   -7.8186    0.0000 H   0  0  0  0  0  0  0  0  0  0  0  0
   11.2268    5.5085    0.0000 H   0  0  0  0  0  0  0  0  0  0  0  0
   10.6899    4.5786    0.0000 H   0  0  0  0  0  0  0  0  0  0  0  0
   10.6899    7.8186    0.0000 H   0  0  0  0  0  0  0  0  0  0  0  0
  1 15  2  0  0  0  0
  2 18  1  0  0  0  0
  2 45  1  0  0  0  0
  3 18  2  0  0  0  0
  4 19  2  0  0  0  0
  5 25  1  0  0  0  0
  5 55  1  0  0  0  0
  6 24  2  0  0  0  0
  7 31  1  0  0  0  0
  7 32  1  0  0  0  0
  8 35  1  0  0  0  0
  8 58  1  0  0  0  0
  9 35  2  0  0  0  0
 10 14  1  0  0  0  0
 10 15  1  0  0  0  0
 10 16  1  0  0  0  0
 13 11  1  6  0  0  0
 11 19  1  0  0  0  0
 11 40  1  0  0  0  0
 30 12  1  6  0  0  0
 12 56  1  0  0  0  0
 12 57  1  0  0  0  0
 13 14  1  0  0  0  0
 13 15  1  0  0  0  0
 13 36  1  0  0  0  0
 14 37  1  0  0  0  0
 14 38  1  0  0  0  0
 16 17  1  0  0  0  0
 16 18  1  6  0  0  0
 16 39  1  0  0  0  0
 17 20  2  0  0  0  0
 17 21  1  0  0  0  0
 19 24  1  0  0  0  0
 20 22  1  0  0  0  0
 20 41  1  0  0  0  0
 21 23  2  0  0  0  0
 21 42  1  0  0  0  0
 22 25  2  0  0  0  0
 22 43  1  0  0  0  0
 23 25  1  0  0  0  0
 23 44  1  0  0  0  0
 24 26  1  0  0  0  0
 26 28  2  0  0  0  0
 26 29  1  0  0  0  0
 27 30  1  0  0  0  0
 27 31  1  0  0  0  0
 27 46  1  0  0  0  0
 27 47  1  0  0  0  0
 28 33  1  0  0  0  0
 28 48  1  0  0  0  0
 29 34  2  0  0  0  0
 29 49  1  0  0  0  0
 30 35  1  0  0  0  0
 30 50  1  0  0  0  0
 31 51  1  0  0  0  0
 31 52  1  0  0  0  0
 32 33  2  0  0  0  0
 32 34  1  0  0  0  0
 33 53  1  0  0  0  0
 34 54  1  0  0  0  0
M  END
> <PUBCHEM_COMPOUND_CID>
3045997

> <PUBCHEM_COMPOUND_CANONICALIZED>
1

> <PUBCHEM_CACTVS_COMPLEXITY>
819

> <PUBCHEM_CACTVS_HBOND_ACCEPTOR>
10

> <PUBCHEM_CACTVS_HBOND_DONOR>
5

> <PUBCHEM_CACTVS_ROTATABLE_BOND>
11

> <PUBCHEM_CACTVS_SUBSKEYS>
AAADceB7PAAAAAAAAAAAAAAAAABYAAAAAAAwYAAAAAAAAAABQAAAHgAQCAAADCzhmAYwDoPABgCIAqHSGACCCAAkIAAIiIGODMgOZjqGtTuWeSjm1hGYuYfa3KPOIAAAAAAAAABAAAAAAAAAAAAAAAAAAA==

> <PUBCHEM_IUPAC_OPENEYE_NAME>
(2R)-2-amino-4-[4-[2-[[(3S)-1-[(R)-carboxy-(4-hydroxyphenyl)methyl]-2-oxo-azetidin-3-yl]amino]-2-oxo-acetyl]phenoxy]butanoic acid

> <PUBCHEM_IUPAC_CAS_NAME>
(2R)-2-amino-4-[4-[2-[[(3S)-1-[(R)-carboxy-(4-hydroxyphenyl)methyl]-2-oxo-3-azetidinyl]amino]-1,2-dioxoethyl]phenoxy]butanoic acid

> <PUBCHEM_IUPAC_NAME>
(2R)-2-amino-4-[4-[2-[[(3S)-1-[(R)-carboxy-(4-hydroxyphenyl)methyl]-2-oxoazetidin-3-yl]amino]-2-oxoacetyl]phenoxy]butanoic acid

> <PUBCHEM_IUPAC_SYSTEMATIC_NAME>
(2R)-2-azanyl-4-[4-[2-[[(3S)-1-[(1R)-1-(4-hydroxyphenyl)-2-oxidanyl-2-oxidanylidene-ethyl]-2-oxidanylidene-azetidin-3-yl]amino]-2-oxidanylidene-ethanoyl]phenoxy]butanoic acid

> <PUBCHEM_IUPAC_TRADITIONAL_NAME>
(2R)-2-amino-4-[4-[2-[[(3S)-1-[(R)-carboxy-(4-hydroxyphenyl)methyl]-2-keto-azetidin-3-yl]amino]-2-keto-acetyl]phenoxy]butyric acid

> <PUBCHEM_IUPAC_INCHI>
InChI=1S/C23H23N3O9/c24-16(22(31)32)9-10-35-15-7-3-13(4-8-15)19(28)20(29)25-17-11-26(21(17)30)18(23(33)34)12-1-5-14(27)6-2-12/h1-8,16-18,27H,9-11,24H2,(H,25,29)(H,31,32)(H,33,34)/t16-,17+,18-/m1/s1

> <PUBCHEM_IUPAC_INCHIKEY>
QJZHIGKJGFPGRN-FGTMMUONSA-N

> <PUBCHEM_XLOGP3_AA>
-1.9

> <PUBCHEM_EXACT_MASS>
485.143429

> <PUBCHEM_MOLECULAR_FORMULA>
C23H23N3O9

> <PUBCHEM_MOLECULAR_WEIGHT>
485.44342

> <PUBCHEM_OPENEYE_CAN_SMILES>
C1C(C(=O)N1C(C2=CC=C(C=C2)O)C(=O)O)NC(=O)C(=O)C3=CC=C(C=C3)OCCC(C(=O)O)N

> <PUBCHEM_OPENEYE_ISO_SMILES>
C1[C@@H](C(=O)N1[C@H](C2=CC=C(C=C2)O)C(=O)O)NC(=O)C(=O)C3=CC=C(C=C3)OCC[C@H](C(=O)O)N

> <PUBCHEM_CACTVS_TPSA>
197

> <PUBCHEM_MONOISOTOPIC_WEIGHT>
485.143429

> <PUBCHEM_TOTAL_CHARGE>
0

> <PUBCHEM_HEAVY_ATOM_COUNT>
35

> <PUBCHEM_ATOM_DEF_STEREO_COUNT>
3

> <PUBCHEM_ATOM_UDEF_STEREO_COUNT>
0

> <PUBCHEM_BOND_DEF_STEREO_COUNT>
0

> <PUBCHEM_BOND_UDEF_STEREO_COUNT>
0

> <PUBCHEM_ISOTOPIC_ATOM_COUNT>
0

> <PUBCHEM_COMPONENT_COUNT>
1

> <PUBCHEM_CACTVS_TAUTO_COUNT>
14

> <PUBCHEM_COORDINATE_TYPE>
1
5
255

> <PUBCHEM_BONDANNOTATIONS>
13  11  6
30  12  6
16  18  6
17  20  8
17  21  8
20  22  8
21  23  8
22  25  8
23  25  8
26  28  8
26  29  8
28  33  8
29  34  8
32  33  8
32  34  8

$$$$

