5200193
  -OEChem-07051213082D

 74 77  0     1  0  0  0  0  0999 V2000
   12.7425    3.2239    0.0000 S   0  0  0  0  0  0  0  0  0  0  0  0
    7.0628    0.9490    0.0000 O   0  0  0  0  0  0  0  0  0  0  0  0
    7.9506   -3.5825    0.0000 O   0  0  0  0  0  0  0  0  0  0  0  0
    2.5357   -3.6034    0.0000 O   0  0  0  0  0  0  0  0  0  0  0  0
   11.7640    3.0177    0.0000 O   0  0  0  0  0  0  0  0  0  0  0  0
   13.7211    3.4302    0.0000 O   0  0  0  0  0  0  0  0  0  0  0  0
   12.5363    4.2024    0.0000 O   0  0  0  0  0  0  0  0  0  0  0  0
   12.9488    2.2454    0.0000 O   0  0  0  0  0  0  0  0  0  0  0  0
    7.9288   -0.5510    0.0000 C   0  0  1  0  0  0  0  0  0  0  0  0
    7.9288   -1.5510    0.0000 C   0  0  2  0  0  0  0  0  0  0  0  0
    7.0628   -2.0510    0.0000 C   0  0  1  0  0  0  0  0  0  0  0  0
    6.1968   -1.5510    0.0000 C   0  0  1  0  0  0  0  0  0  0  0  0
    5.2868   -2.0579    0.0000 C   0  0  2  0  0  0  0  0  0  0  0  0
    8.8750   -0.2463    0.0000 C   0  0  2  0  0  0  0  0  0  0  0  0
    7.0628   -0.0510    0.0000 C   0  0  2  0  0  0  0  0  0  0  0  0
    6.1968   -0.5510    0.0000 C   0  0  0  0  0  0  0  0  0  0  0  0
    5.2787   -3.0995    0.0000 C   0  0  1  0  0  0  0  0  0  0  0  0
    8.8750   -1.8558    0.0000 C   0  0  0  0  0  0  0  0  0  0  0  0
    7.0789   -3.0925    0.0000 C   0  0  1  0  0  0  0  0  0  0  0  0
    9.4586   -1.0510    0.0000 C   0  0  0  0  0  0  0  0  0  0  0  0
    6.1808   -3.6203    0.0000 C   0  0  0  0  0  0  0  0  0  0  0  0
    4.3599   -1.4938    0.0000 C   0  0  0  0  0  0  0  0  0  0  0  0
    7.9288    0.4490    0.0000 C   0  0  0  0  0  0  0  0  0  0  0  0
    9.1857    0.7042    0.0000 C   0  0  1  0  0  0  0  0  0  0  0  0
    4.3433   -3.6492    0.0000 C   0  0  0  0  0  0  0  0  0  0  0  0
    5.2945   -1.0579    0.0000 C   0  0  0  0  0  0  0  0  0  0  0  0
    3.4120   -2.0217    0.0000 C   0  0  0  0  0  0  0  0  0  0  0  0
    3.4037   -3.1067    0.0000 C   0  0  1  0  0  0  0  0  0  0  0  0
   10.1642    0.9105    0.0000 C   0  0  0  0  0  0  0  0  0  0  0  0
    8.5179    1.4485    0.0000 C   0  0  0  0  0  0  0  0  0  0  0  0
   10.4749    1.8610    0.0000 C   0  0  0  0  0  0  0  0  0  0  0  0
   11.4534    2.0672    0.0000 C   0  0  0  0  0  0  0  0  0  0  0  0
    8.0188   -2.3963    0.0000 H   0  0  0  0  0  0  0  0  0  0  0  0
    7.8022   -2.4703    0.0000 H   0  0  0  0  0  0  0  0  0  0  0  0
    6.9329   -1.1260    0.0000 H   0  0  0  0  0  0  0  0  0  0  0  0
    9.7148   -0.1144    0.0000 H   0  0  0  0  0  0  0  0  0  0  0  0
    7.5997    0.2590    0.0000 H   0  0  0  0  0  0  0  0  0  0  0  0
    5.9847    0.0316    0.0000 H   0  0  0  0  0  0  0  0  0  0  0  0
    5.5862   -0.6587    0.0000 H   0  0  0  0  0  0  0  0  0  0  0  0
    5.2820   -3.9495    0.0000 H   0  0  0  0  0  0  0  0  0  0  0  0
    8.6240   -2.4227    0.0000 H   0  0  0  0  0  0  0  0  0  0  0  0
    9.4124   -2.1650    0.0000 H   0  0  0  0  0  0  0  0  0  0  0  0
    7.6116   -2.7753    0.0000 H   0  0  0  0  0  0  0  0  0  0  0  0
    9.9195   -1.4658    0.0000 H   0  0  0  0  0  0  0  0  0  0  0  0
    9.9195   -0.6363    0.0000 H   0  0  0  0  0  0  0  0  0  0  0  0
    5.7835   -4.0963    0.0000 H   0  0  0  0  0  0  0  0  0  0  0  0
    6.5818   -4.0932    0.0000 H   0  0  0  0  0  0  0  0  0  0  0  0
    4.7681   -1.0271    0.0000 H   0  0  0  0  0  0  0  0  0  0  0  0
    3.9700   -1.0117    0.0000 H   0  0  0  0  0  0  0  0  0  0  0  0
    8.5488    0.4490    0.0000 H   0  0  0  0  0  0  0  0  0  0  0  0
    7.9288    1.0690    0.0000 H   0  0  0  0  0  0  0  0  0  0  0  0
    7.3088    0.4490    0.0000 H   0  0  0  0  0  0  0  0  0  0  0  0
    9.3783    1.2936    0.0000 H   0  0  0  0  0  0  0  0  0  0  0  0
    3.9460   -4.1252    0.0000 H   0  0  0  0  0  0  0  0  0  0  0  0
    4.7443   -4.1221    0.0000 H   0  0  0  0  0  0  0  0  0  0  0  0
    5.9145   -1.0627    0.0000 H   0  0  0  0  0  0  0  0  0  0  0  0
    5.2993   -0.4379    0.0000 H   0  0  0  0  0  0  0  0  0  0  0  0
    4.6745   -1.0531    0.0000 H   0  0  0  0  0  0  0  0  0  0  0  0
    3.2075   -1.4364    0.0000 H   0  0  0  0  0  0  0  0  0  0  0  0
    2.8004   -2.1231    0.0000 H   0  0  0  0  0  0  0  0  0  0  0  0
    3.4025   -3.7267    0.0000 H   0  0  0  0  0  0  0  0  0  0  0  0
    6.5259    1.2590    0.0000 H   0  0  0  0  0  0  0  0  0  0  0  0
   10.1848    0.2908    0.0000 H   0  0  0  0  0  0  0  0  0  0  0  0
   10.7780    0.8231    0.0000 H   0  0  0  0  0  0  0  0  0  0  0  0
    7.9578   -4.2024    0.0000 H   0  0  0  0  0  0  0  0  0  0  0  0
    8.9793    1.8626    0.0000 H   0  0  0  0  0  0  0  0  0  0  0  0
    8.1038    1.9100    0.0000 H   0  0  0  0  0  0  0  0  0  0  0  0
    8.0564    1.0345    0.0000 H   0  0  0  0  0  0  0  0  0  0  0  0
   10.4543    2.4806    0.0000 H   0  0  0  0  0  0  0  0  0  0  0  0
    9.8611    1.9483    0.0000 H   0  0  0  0  0  0  0  0  0  0  0  0
    2.0000   -3.2913    0.0000 H   0  0  0  0  0  0  0  0  0  0  0  0
   11.4739    1.4475    0.0000 H   0  0  0  0  0  0  0  0  0  0  0  0
   12.0672    1.9798    0.0000 H   0  0  0  0  0  0  0  0  0  0  0  0
   13.9137    4.0195    0.0000 H   0  0  0  0  0  0  0  0  0  0  0  0
  1  5  1  0  0  0  0
  1  6  1  0  0  0  0
  1  7  2  0  0  0  0
  1  8  2  0  0  0  0
 15  2  1  6  0  0  0
  2 62  1  0  0  0  0
 19  3  1  6  0  0  0
  3 65  1  0  0  0  0
 28  4  1  6  0  0  0
  4 71  1  0  0  0  0
  5 32  1  0  0  0  0
  6 74  1  0  0  0  0
  9 10  1  0  0  0  0
  9 14  1  0  0  0  0
  9 15  1  0  0  0  0
  9 23  1  1  0  0  0
 10 11  1  0  0  0  0
 10 18  1  0  0  0  0
 10 33  1  6  0  0  0
 11 12  1  0  0  0  0
 11 19  1  0  0  0  0
 11 34  1  1  0  0  0
 12 13  1  0  0  0  0
 12 16  1  0  0  0  0
 12 35  1  6  0  0  0
 13 17  1  0  0  0  0
 13 22  1  0  0  0  0
 13 26  1  1  0  0  0
 14 20  1  0  0  0  0
 14 24  1  0  0  0  0
 14 36  1  6  0  0  0
 15 16  1  0  0  0  0
 15 37  1  0  0  0  0
 16 38  1  0  0  0  0
 16 39  1  0  0  0  0
 17 21  1  0  0  0  0
 17 25  1  0  0  0  0
 17 40  1  6  0  0  0
 18 20  1  0  0  0  0
 18 41  1  0  0  0  0
 18 42  1  0  0  0  0
 19 21  1  0  0  0  0
 19 43  1  0  0  0  0
 20 44  1  0  0  0  0
 20 45  1  0  0  0  0
 21 46  1  0  0  0  0
 21 47  1  0  0  0  0
 22 27  1  0  0  0  0
 22 48  1  0  0  0  0
 22 49  1  0  0  0  0
 23 50  1  0  0  0  0
 23 51  1  0  0  0  0
 23 52  1  0  0  0  0
 24 29  1  0  0  0  0
 24 30  1  6  0  0  0
 24 53  1  0  0  0  0
 25 28  1  0  0  0  0
 25 54  1  0  0  0  0
 25 55  1  0  0  0  0
 26 56  1  0  0  0  0
 26 57  1  0  0  0  0
 26 58  1  0  0  0  0
 27 28  1  0  0  0  0
 27 59  1  0  0  0  0
 27 60  1  0  0  0  0
 28 61  1  0  0  0  0
 29 31  1  0  0  0  0
 29 63  1  0  0  0  0
 29 64  1  0  0  0  0
 30 66  1  0  0  0  0
 30 67  1  0  0  0  0
 30 68  1  0  0  0  0
 31 32  1  0  0  0  0
 31 69  1  0  0  0  0
 31 70  1  0  0  0  0
 32 72  1  0  0  0  0
 32 73  1  0  0  0  0
M  END
> <PUBCHEM_COMPOUND_CID>
5200193

> <PUBCHEM_COMPOUND_CANONICALIZED>
1

> <PUBCHEM_CACTVS_COMPLEXITY>
782

> <PUBCHEM_CACTVS_HBOND_ACCEPTOR>
7

> <PUBCHEM_CACTVS_HBOND_DONOR>
4

> <PUBCHEM_CACTVS_ROTATABLE_BOND>
6

> <PUBCHEM_CACTVS_SUBSKEYS>
AAADcfB4OABAAAAAAAAAAAAAAAAAAYAAAAAwYMAAAAAAAGDAAAAAGgAACAAADxSggAICAAAAAoAAAAAAADAAAAAAAAAAAAAAAAAAEAIAAAAAQAAEAAAAAAGA4PQPgAAAAAAAAADAAAYAADAAAQAACAAAAA==

> <PUBCHEM_IUPAC_OPENEYE_NAME>
[(4R)-4-[(3R,5R,7R,8R,9S,10S,12S,13R,14S,17R)-3,7,12-trihydroxy-10,13-dimethyl-2,3,4,5,6,7,8,9,11,12,14,15,16,17-tetradecahydro-1H-cyclopenta[a]phenanthren-17-yl]pentyl] hydrogen sulfate

> <PUBCHEM_IUPAC_CAS_NAME>
sulfuric acid [(4R)-4-[(3R,5R,7R,8R,9S,10S,12S,13R,14S,17R)-3,7,12-trihydroxy-10,13-dimethyl-2,3,4,5,6,7,8,9,11,12,14,15,16,17-tetradecahydro-1H-cyclopenta[a]phenanthren-17-yl]pentyl] ester

> <PUBCHEM_IUPAC_NAME>
[(4R)-4-[(3R,5R,7R,8R,9S,10S,12S,13R,14S,17R)-3,7,12-trihydroxy-10,13-dimethyl-2,3,4,5,6,7,8,9,11,12,14,15,16,17-tetradecahydro-1H-cyclopenta[a]phenanthren-17-yl]pentyl] hydrogen sulfate

> <PUBCHEM_IUPAC_SYSTEMATIC_NAME>
[(4R)-4-[(3R,5R,7R,8R,9S,10S,12S,13R,14S,17R)-10,13-dimethyl-3,7,12-tris(oxidanyl)-2,3,4,5,6,7,8,9,11,12,14,15,16,17-tetradecahydro-1H-cyclopenta[a]phenanthren-17-yl]pentyl] hydrogen sulfate

> <PUBCHEM_IUPAC_TRADITIONAL_NAME>
sulfuric acid [(4R)-4-[(3R,5R,7R,8R,9S,10S,12S,13R,14S,17R)-3,7,12-trihydroxy-10,13-dimethyl-2,3,4,5,6,7,8,9,11,12,14,15,16,17-tetradecahydro-1H-cyclopenta[a]phenanthren-17-yl]pentyl] ester

> <PUBCHEM_IUPAC_INCHI>
InChI=1S/C24H42O7S/c1-14(5-4-10-31-32(28,29)30)17-6-7-18-22-19(13-21(27)24(17,18)3)23(2)9-8-16(25)11-15(23)12-20(22)26/h14-22,25-27H,4-13H2,1-3H3,(H,28,29,30)/t14-,15-,16-,17-,18+,19+,20-,21+,22+,23+,24-/m1/s1

> <PUBCHEM_IUPAC_INCHIKEY>
BKZKSSHAWFCVDU-JLIFGLSWSA-N

> <PUBCHEM_XLOGP3_AA>
3.4

> <PUBCHEM_EXACT_MASS>
474.265125

> <PUBCHEM_MOLECULAR_FORMULA>
C24H42O7S

> <PUBCHEM_MOLECULAR_WEIGHT>
474.65108

> <PUBCHEM_OPENEYE_CAN_SMILES>
CC(CCCOS(=O)(=O)O)C1CCC2C1(C(CC3C2C(CC4C3(CCC(C4)O)C)O)O)C

> <PUBCHEM_OPENEYE_ISO_SMILES>
C[C@H](CCCOS(=O)(=O)O)[C@H]1CC[C@@H]2[C@@]1([C@H](C[C@H]3[C@H]2[C@@H](C[C@@H]4[C@@]3(CC[C@H](C4)O)C)O)O)C

> <PUBCHEM_CACTVS_TPSA>
133

> <PUBCHEM_MONOISOTOPIC_WEIGHT>
474.265125

> <PUBCHEM_TOTAL_CHARGE>
0

> <PUBCHEM_HEAVY_ATOM_COUNT>
32

> <PUBCHEM_ATOM_DEF_STEREO_COUNT>
11

> <PUBCHEM_ATOM_UDEF_STEREO_COUNT>
0

> <PUBCHEM_BOND_DEF_STEREO_COUNT>
0

> <PUBCHEM_BOND_UDEF_STEREO_COUNT>
0

> <PUBCHEM_ISOTOPIC_ATOM_COUNT>
0

> <PUBCHEM_COMPONENT_COUNT>
1

> <PUBCHEM_CACTVS_TAUTO_COUNT>
1

> <PUBCHEM_COORDINATE_TYPE>
1
5
255

> <PUBCHEM_BONDANNOTATIONS>
10  33  6
11  34  5
12  35  6
13  26  5
14  36  6
17  40  6
15  2  6
24  30  6
19  3  6
28  4  6
9  23  5

$$$$

