585973
  -OEChem-06241222452D

 55 57  0     0  0  0  0  0  0999 V2000
   10.7923   -3.5154    0.0000 Cl  0  5  0  0  0  0  0  0  0  0  0  0
    8.1301    4.0121    0.0000 S   0  0  0  0  0  0  0  0  0  0  0  0
    6.3981   -2.9879    0.0000 O   0  0  0  0  0  0  0  0  0  0  0  0
    4.2053    1.6255    0.0000 O   0  0  0  0  0  0  0  0  0  0  0  0
    3.9045   -0.0804    0.0000 O   0  0  0  0  0  0  0  0  0  0  0  0
    9.9282   -3.0121    0.0000 N   0  3  0  0  0  0  0  0  0  0  0  0
    2.8680   -3.0121    0.0000 N   0  0  0  0  0  0  0  0  0  0  0  0
    6.3981    3.0121    0.0000 N   0  0  0  0  0  0  0  0  0  0  0  0
    6.3981   -0.9879    0.0000 C   0  0  0  0  0  0  0  0  0  0  0  0
    7.2641   -1.4879    0.0000 C   0  0  0  0  0  0  0  0  0  0  0  0
    5.5320   -1.4879    0.0000 C   0  0  0  0  0  0  0  0  0  0  0  0
    7.2641   -2.4879    0.0000 C   0  0  0  0  0  0  0  0  0  0  0  0
    9.0641   -2.5087    0.0000 C   0  0  0  0  0  0  0  0  0  0  0  0
    5.5320   -2.4879    0.0000 C   0  0  0  0  0  0  0  0  0  0  0  0
    8.1580   -3.0226    0.0000 C   0  0  0  0  0  0  0  0  0  0  0  0
    6.3981    0.0121    0.0000 C   0  0  0  0  0  0  0  0  0  0  0  0
    8.1580   -0.9533    0.0000 C   0  0  0  0  0  0  0  0  0  0  0  0
    9.0641   -1.4671    0.0000 C   0  0  0  0  0  0  0  0  0  0  0  0
    4.6381   -0.9533    0.0000 C   0  0  0  0  0  0  0  0  0  0  0  0
    4.6381   -3.0226    0.0000 C   0  0  0  0  0  0  0  0  0  0  0  0
    3.7320   -2.5087    0.0000 C   0  0  0  0  0  0  0  0  0  0  0  0
   10.4315   -2.1480    0.0000 C   0  0  0  0  0  0  0  0  0  0  0  0
    9.4249   -3.8762    0.0000 C   0  0  0  0  0  0  0  0  0  0  0  0
    3.7320   -1.4671    0.0000 C   0  0  0  0  0  0  0  0  0  0  0  0
    5.5320    0.5121    0.0000 C   0  0  0  0  0  0  0  0  0  0  0  0
    7.2641    0.5121    0.0000 C   0  0  0  0  0  0  0  0  0  0  0  0
    5.5320    1.5121    0.0000 C   0  0  0  0  0  0  0  0  0  0  0  0
    7.2641    1.5121    0.0000 C   0  0  0  0  0  0  0  0  0  0  0  0
    6.3981    2.0121    0.0000 C   0  0  0  0  0  0  0  0  0  0  0  0
    4.5472    0.6858    0.0000 C   0  0  0  0  0  0  0  0  0  0  0  0
    2.0000   -2.5154    0.0000 C   0  0  0  0  0  0  0  0  0  0  0  0
    2.8718   -4.0121    0.0000 C   0  0  0  0  0  0  0  0  0  0  0  0
    7.2641    3.5121    0.0000 C   0  0  0  0  0  0  0  0  0  0  0  0
    8.1509   -3.6426    0.0000 H   0  0  0  0  0  0  0  0  0  0  0  0
    8.1509   -0.3333    0.0000 H   0  0  0  0  0  0  0  0  0  0  0  0
    9.5998   -1.1550    0.0000 H   0  0  0  0  0  0  0  0  0  0  0  0
    4.6453   -0.3333    0.0000 H   0  0  0  0  0  0  0  0  0  0  0  0
    4.6453   -3.6426    0.0000 H   0  0  0  0  0  0  0  0  0  0  0  0
    8.8891   -3.5641    0.0000 H   0  0  0  0  0  0  0  0  0  0  0  0
    9.1128   -4.4119    0.0000 H   0  0  0  0  0  0  0  0  0  0  0  0
    9.9606   -4.1882    0.0000 H   0  0  0  0  0  0  0  0  0  0  0  0
   10.9673   -2.4600    0.0000 H   0  0  0  0  0  0  0  0  0  0  0  0
   10.7436   -1.6122    0.0000 H   0  0  0  0  0  0  0  0  0  0  0  0
    9.8958   -1.8359    0.0000 H   0  0  0  0  0  0  0  0  0  0  0  0
    3.1963   -1.1550    0.0000 H   0  0  0  0  0  0  0  0  0  0  0  0
    7.8010    0.2021    0.0000 H   0  0  0  0  0  0  0  0  0  0  0  0
    4.9951    1.8221    0.0000 H   0  0  0  0  0  0  0  0  0  0  0  0
    7.8010    1.8221    0.0000 H   0  0  0  0  0  0  0  0  0  0  0  0
    2.3079   -1.9773    0.0000 H   0  0  0  0  0  0  0  0  0  0  0  0
    2.2518   -4.0145    0.0000 H   0  0  0  0  0  0  0  0  0  0  0  0
    2.8742   -4.6321    0.0000 H   0  0  0  0  0  0  0  0  0  0  0  0
    3.4918   -4.0097    0.0000 H   0  0  0  0  0  0  0  0  0  0  0  0
    1.4619   -2.2075    0.0000 H   0  0  0  0  0  0  0  0  0  0  0  0
    1.6921   -3.0536    0.0000 H   0  0  0  0  0  0  0  0  0  0  0  0
    4.6038    2.1004    0.0000 H   0  0  0  0  0  0  0  0  0  0  0  0
  2 33  2  0  0  0  0
  3 12  1  0  0  0  0
  3 14  1  0  0  0  0
  4 30  1  0  0  0  0
  4 55  1  0  0  0  0
  5 30  2  0  0  0  0
  6 13  2  0  0  0  0
  6 22  1  0  0  0  0
  6 23  1  0  0  0  0
  7 21  1  0  0  0  0
  7 31  1  0  0  0  0
  7 32  1  0  0  0  0
  8 29  1  0  0  0  0
  8 33  2  0  0  0  0
  9 10  2  0  0  0  0
  9 11  1  0  0  0  0
  9 16  1  0  0  0  0
 10 12  1  0  0  0  0
 10 17  1  0  0  0  0
 11 14  2  0  0  0  0
 11 19  1  0  0  0  0
 12 15  2  0  0  0  0
 13 15  1  0  0  0  0
 13 18  1  0  0  0  0
 14 20  1  0  0  0  0
 15 34  1  0  0  0  0
 16 25  2  0  0  0  0
 16 26  1  0  0  0  0
 17 18  2  0  0  0  0
 17 35  1  0  0  0  0
 18 36  1  0  0  0  0
 19 24  2  0  0  0  0
 19 37  1  0  0  0  0
 20 21  2  0  0  0  0
 20 38  1  0  0  0  0
 21 24  1  0  0  0  0
 22 42  1  0  0  0  0
 22 43  1  0  0  0  0
 22 44  1  0  0  0  0
 23 39  1  0  0  0  0
 23 40  1  0  0  0  0
 23 41  1  0  0  0  0
 24 45  1  0  0  0  0
 25 27  1  0  0  0  0
 25 30  1  0  0  0  0
 26 28  2  0  0  0  0
 26 46  1  0  0  0  0
 27 29  2  0  0  0  0
 27 47  1  0  0  0  0
 28 29  1  0  0  0  0
 28 48  1  0  0  0  0
 31 49  1  0  0  0  0
 31 53  1  0  0  0  0
 31 54  1  0  0  0  0
 32 50  1  0  0  0  0
 32 51  1  0  0  0  0
 32 52  1  0  0  0  0
M  CHG  2   1  -1   6   1
M  END
> <PUBCHEM_COMPOUND_CID>
585973

> <PUBCHEM_COMPOUND_CANONICALIZED>
1

> <PUBCHEM_CACTVS_COMPLEXITY>
960

> <PUBCHEM_CACTVS_HBOND_ACCEPTOR>
7

> <PUBCHEM_CACTVS_HBOND_DONOR>
1

> <PUBCHEM_CACTVS_ROTATABLE_BOND>
4

> <PUBCHEM_CACTVS_SUBSKEYS>
AAADceB7MABEAAAAAAAAAAAAAAAAAAAAAAAwYIEAAAAAAACBQAAAHgQACAAADAyBmAQyzoMABgCsAyTyTACCCAAlIgAIiAEebNgMJjLEtZuGeSjmwBlI+Ye82POOiAAAQgAYAAAQAACEADAAAAAAAAAAAA==

> <PUBCHEM_IUPAC_OPENEYE_NAME>
[9-(2-carboxy-4-isothiocyanato-phenyl)-6-(dimethylamino)xanthen-3-ylidene]-dimethyl-ammonium chloride

> <PUBCHEM_IUPAC_CAS_NAME>
[9-(2-carboxy-4-isothiocyanatophenyl)-6-(dimethylamino)-3-xanthenylidene]-dimethylammonium chloride

> <PUBCHEM_IUPAC_NAME>
[9-(2-carboxy-4-isothiocyanatophenyl)-6-(dimethylamino)xanthen-3-ylidene]-dimethylazanium chloride

> <PUBCHEM_IUPAC_SYSTEMATIC_NAME>
[9-(2-carboxy-4-isothiocyanato-phenyl)-6-(dimethylamino)xanthen-3-ylidene]-dimethyl-azanium chloride

> <PUBCHEM_IUPAC_TRADITIONAL_NAME>
[9-(2-carboxy-4-isothiocyanato-phenyl)-6-(dimethylamino)xanthen-3-ylidene]-dimethyl-ammonium chloride

> <PUBCHEM_IUPAC_INCHI>
InChI=1S/C25H21N3O3S.ClH/c1-27(2)16-6-9-19-22(12-16)31-23-13-17(28(3)4)7-10-20(23)24(19)18-8-5-15(26-14-32)11-21(18)25(29)30;/h5-13H,1-4H3;1H

> <PUBCHEM_IUPAC_INCHIKEY>
ZIDZWKOOWSJOJR-UHFFFAOYSA-N

> <PUBCHEM_EXACT_MASS>
479.10704

> <PUBCHEM_MOLECULAR_FORMULA>
C25H22ClN3O3S

> <PUBCHEM_MOLECULAR_WEIGHT>
479.97848

> <PUBCHEM_OPENEYE_CAN_SMILES>
CN(C)C1=CC2=C(C=C1)C(=C3C=CC(=[N+](C)C)C=C3O2)C4=C(C=C(C=C4)N=C=S)C(=O)O.[Cl-]

> <PUBCHEM_OPENEYE_ISO_SMILES>
CN(C)C1=CC2=C(C=C1)C(=C3C=CC(=[N+](C)C)C=C3O2)C4=C(C=C(C=C4)N=C=S)C(=O)O.[Cl-]

> <PUBCHEM_CACTVS_TPSA>
97.2

> <PUBCHEM_MONOISOTOPIC_WEIGHT>
479.10704

> <PUBCHEM_TOTAL_CHARGE>
0

> <PUBCHEM_HEAVY_ATOM_COUNT>
33

> <PUBCHEM_ATOM_DEF_STEREO_COUNT>
0

> <PUBCHEM_ATOM_UDEF_STEREO_COUNT>
0

> <PUBCHEM_BOND_DEF_STEREO_COUNT>
0

> <PUBCHEM_BOND_UDEF_STEREO_COUNT>
0

> <PUBCHEM_ISOTOPIC_ATOM_COUNT>
0

> <PUBCHEM_COMPONENT_COUNT>
2

> <PUBCHEM_CACTVS_TAUTO_COUNT>
1

> <PUBCHEM_NONSTANDARDBOND>
1  6  7

> <PUBCHEM_COORDINATE_TYPE>
1
5
255

> <PUBCHEM_BONDANNOTATIONS>
10  17  8
11  14  8
11  19  8
12  15  8
13  15  8
13  18  8
14  20  8
16  25  8
16  26  8
17  18  8
19  24  8
20  21  8
21  24  8
25  27  8
26  28  8
27  29  8
28  29  8
3  12  8
3  14  8
9  10  8
9  11  8

$$$$

