12684
  -OEChem-06261207143D

 36 35  0     0  0  0  0  0  0999 V2000
   -0.4681   -0.9878    0.2870 P   0  0  0  0  0  0  0  0  0  0  0  0
    1.6825    0.3966   -1.2040 P   0  0  0  0  0  0  0  0  0  0  0  0
   -1.0521    0.3938    0.9003 O   0  0  0  0  0  0  0  0  0  0  0  0
   -1.7808   -1.7305   -0.3050 O   0  0  0  0  0  0  0  0  0  0  0  0
    0.3519   -0.5065   -1.0226 O   0  0  0  0  0  0  0  0  0  0  0  0
    1.1408    1.7564   -0.5062 O   0  0  0  0  0  0  0  0  0  0  0  0
    2.5203   -0.1822    0.0587 O   0  0  0  0  0  0  0  0  0  0  0  0
    0.3233   -1.8173    1.2579 O   0  0  0  0  0  0  0  0  0  0  0  0
   -1.9389    0.3204    2.0033 C   0  0  0  0  0  0  0  0  0  0  0  0
   -2.6186   -1.0617   -1.2322 C   0  0  0  0  0  0  0  0  0  0  0  0
   -2.3491    1.7225    2.4003 C   0  0  0  0  0  0  0  0  0  0  0  0
   -3.7600   -1.9790   -1.6164 C   0  0  0  0  0  0  0  0  0  0  0  0
    0.3259    2.5916   -1.3163 C   0  0  0  0  0  0  0  0  0  0  0  0
    3.5180   -1.1488   -0.2393 C   0  0  0  0  0  0  0  0  0  0  0  0
   -0.0878    3.8061   -0.5129 C   0  0  0  0  0  0  0  0  0  0  0  0
    4.1929   -1.5737    1.0474 C   0  0  0  0  0  0  0  0  0  0  0  0
   -2.8207   -0.2667    1.7302 H   0  0  0  0  0  0  0  0  0  0  0  0
   -1.4326   -0.1745    2.8380 H   0  0  0  0  0  0  0  0  0  0  0  0
   -3.0107   -0.1441   -0.7842 H   0  0  0  0  0  0  0  0  0  0  0  0
   -2.0377   -0.7974   -2.1211 H   0  0  0  0  0  0  0  0  0  0  0  0
   -1.4712    2.3196    2.6681 H   0  0  0  0  0  0  0  0  0  0  0  0
   -2.8378    2.2322    1.5634 H   0  0  0  0  0  0  0  0  0  0  0  0
   -3.0355    1.7027    3.2514 H   0  0  0  0  0  0  0  0  0  0  0  0
   -4.3408   -2.2620   -0.7323 H   0  0  0  0  0  0  0  0  0  0  0  0
   -3.3783   -2.9060   -2.0568 H   0  0  0  0  0  0  0  0  0  0  0  0
   -4.4258   -1.4942   -2.3358 H   0  0  0  0  0  0  0  0  0  0  0  0
   -0.5751    2.0551   -1.6399 H   0  0  0  0  0  0  0  0  0  0  0  0
    0.8814    2.9209   -2.2036 H   0  0  0  0  0  0  0  0  0  0  0  0
    4.2699   -0.7240   -0.9164 H   0  0  0  0  0  0  0  0  0  0  0  0
    3.0664   -2.0285   -0.7151 H   0  0  0  0  0  0  0  0  0  0  0  0
   -0.6392    3.5065    0.3839 H   0  0  0  0  0  0  0  0  0  0  0  0
    0.7924    4.3622   -0.1737 H   0  0  0  0  0  0  0  0  0  0  0  0
   -0.7183    4.4726   -1.1079 H   0  0  0  0  0  0  0  0  0  0  0  0
    4.6473   -0.7119    1.5474 H   0  0  0  0  0  0  0  0  0  0  0  0
    3.4624   -1.9972    1.7447 H   0  0  0  0  0  0  0  0  0  0  0  0
    4.9693   -2.3193    0.8544 H   0  0  0  0  0  0  0  0  0  0  0  0
  1  3  1  0  0  0  0
  1  4  1  0  0  0  0
  1  5  1  0  0  0  0
  1  8  2  0  0  0  0
  2  5  1  0  0  0  0
  2  6  1  0  0  0  0
  2  7  1  0  0  0  0
  3  9  1  0  0  0  0
  4 10  1  0  0  0  0
  6 13  1  0  0  0  0
  7 14  1  0  0  0  0
  9 11  1  0  0  0  0
  9 17  1  0  0  0  0
  9 18  1  0  0  0  0
 10 12  1  0  0  0  0
 10 19  1  0  0  0  0
 10 20  1  0  0  0  0
 11 21  1  0  0  0  0
 11 22  1  0  0  0  0
 11 23  1  0  0  0  0
 12 24  1  0  0  0  0
 12 25  1  0  0  0  0
 12 26  1  0  0  0  0
 13 15  1  0  0  0  0
 13 27  1  0  0  0  0
 13 28  1  0  0  0  0
 14 16  1  0  0  0  0
 14 29  1  0  0  0  0
 14 30  1  0  0  0  0
 15 31  1  0  0  0  0
 15 32  1  0  0  0  0
 15 33  1  0  0  0  0
 16 34  1  0  0  0  0
 16 35  1  0  0  0  0
 16 36  1  0  0  0  0
M  END
> <PUBCHEM_COMPOUND_CID>
12684

> <PUBCHEM_CONFORMER_RMSD>
0.8

> <PUBCHEM_CONFORMER_DIVERSEORDER>
1
24
120
132
196
36
163
110
97
43
186
41
8
198
67
83
109
127
20
23
138
53
113
149
123
119
180
102
142
169
14
73
78
72
45
146
37
183
27
92
164
173
130
16
29
49
30
99
65
80
38
159
57
100
52
168
175
160
133
193
162
134
165
205
9
70
206
84
69
15
33
11
140
79
141
63
12
122
51
136
18
54
47
192
190
89
161
96
121
81
129
176
207
208
184
104
135
10
55
148
66
156
112
3
157
87
179
125
189
34
114
93
210
62
17
147
7
154
172
166
144
139
150
39
185
85
155
137
68
145
42
46
40
188
151
21
88
203
117
111
95
32
126
71
91
6
13
44
61
94
86
187
124
201
48
103
58
98
90
194
197
101
200
59
75
202
167
181
209
64
2
143
174
82
195
77
177
116
178
170
26
211
31
60
152
191
115
35
131
153
118
204
108
171
158
56
5
50
28
199
74
4
105
22
76
182
19
128
25
107
106

> <PUBCHEM_MMFF94_PARTIAL_CHARGES>
12
1 1.51
10 0.28
13 0.28
14 0.28
2 0.3
3 -0.55
4 -0.55
5 -0.37
6 -0.38
7 -0.38
8 -0.7
9 0.28

> <PUBCHEM_EFFECTIVE_ROTOR_COUNT>
10

> <PUBCHEM_PHARMACOPHORE_FEATURES>
1
1 8 acceptor

> <PUBCHEM_HEAVY_ATOM_COUNT>
16

> <PUBCHEM_ATOM_DEF_STEREO_COUNT>
0

> <PUBCHEM_ATOM_UDEF_STEREO_COUNT>
0

> <PUBCHEM_BOND_DEF_STEREO_COUNT>
0

> <PUBCHEM_BOND_UDEF_STEREO_COUNT>
0

> <PUBCHEM_ISOTOPIC_ATOM_COUNT>
0

> <PUBCHEM_COMPONENT_COUNT>
1

> <PUBCHEM_CACTVS_TAUTO_COUNT>
1

> <PUBCHEM_CONFORMER_ID>
0000318C00000001

> <PUBCHEM_MMFF94_ENERGY>
5.7059

> <PUBCHEM_FEATURE_SELFOVERLAP>
5.074

> <PUBCHEM_SHAPE_FINGERPRINT>
13296909 8 17458346368217453562
17876694 64 18114181891416491725
19010151 120 18340498815047846950
19765921 60 17036975819757436461
20671657 53 18340220599914390983
22112679 90 18336811061648451956
23419403 2 17607847999148918153
23526113 38 16916513540592776518
23557571 272 16371550528224210663
23598291 2 18189877786626424286
6992083 37 18262787570847862767
81228 2 18058735852643486876

> <PUBCHEM_SHAPE_MULTIPOLES>
301.76
5.55
3.42
2.06
3.21
3.6
0.94
-4.66
0.36
-1.03
-1.03
-1.73
0.41
-2.47

> <PUBCHEM_SHAPE_SELFOVERLAP>
527.465

> <PUBCHEM_SHAPE_VOLUME>
199.1

> <PUBCHEM_COORDINATE_TYPE>
2
5
10

$$$$

