56928067
  -OEChem-07051212503D

 32 33  0     1  0  0  0  0  0999 V2000
    1.4881    0.1293    1.0218 O   0  0  0  0  0  0  0  0  0  0  0  0
    0.4405   -1.7439   -1.8716 O   0  0  0  0  0  0  0  0  0  0  0  0
    2.1494   -2.6717    0.0755 O   0  0  0  0  0  0  0  0  0  0  0  0
    3.8726    1.5804    1.2677 O   0  0  0  0  0  0  0  0  0  0  0  0
   -3.8870   -2.0859    0.6433 O   0  0  0  0  0  0  0  0  0  0  0  0
   -3.0341   -0.3268    1.7977 O   0  0  0  0  0  0  0  0  0  0  0  0
   -0.4815    0.8545   -0.2240 N   0  0  0  0  0  0  0  0  0  0  0  0
   -1.1805    2.9337   -0.5702 N   0  0  0  0  0  0  0  0  0  0  0  0
    1.1980   -0.8071   -1.1322 C   0  0  1  0  0  0  0  0  0  0  0  0
    0.4614   -0.2813    0.0955 C   0  0  1  0  0  0  0  0  0  0  0  0
    2.4461   -1.4079   -0.5167 C   0  0  1  0  0  0  0  0  0  0  0  0
    2.7561   -0.4246    0.6047 C   0  0  1  0  0  0  0  0  0  0  0  0
    3.6545    0.7222    0.1618 C   0  0  0  0  0  0  0  0  0  0  0  0
   -1.8110    0.7572   -0.5239 C   0  0  0  0  0  0  0  0  0  0  0  0
   -0.1481    2.1798   -0.2639 C   0  0  0  0  0  0  0  0  0  0  0  0
   -2.5412   -0.5209   -0.5789 C   0  0  0  0  0  0  0  0  0  0  0  0
   -2.2204    2.0530   -0.7336 C   0  0  0  0  0  0  0  0  0  0  0  0
   -3.1629   -0.9402    0.7471 C   0  0  0  0  0  0  0  0  0  0  0  0
    1.4687    0.0197   -1.8003 H   0  0  0  0  0  0  0  0  0  0  0  0
   -0.1458   -1.0480    0.5888 H   0  0  0  0  0  0  0  0  0  0  0  0
    3.2572   -1.5556   -1.2354 H   0  0  0  0  0  0  0  0  0  0  0  0
    3.1879   -0.9151    1.4845 H   0  0  0  0  0  0  0  0  0  0  0  0
    3.1886    1.3156   -0.6310 H   0  0  0  0  0  0  0  0  0  0  0  0
    4.6213    0.3475   -0.1883 H   0  0  0  0  0  0  0  0  0  0  0  0
    1.0195   -2.1051   -2.5643 H   0  0  0  0  0  0  0  0  0  0  0  0
    2.9676   -2.9993    0.4866 H   0  0  0  0  0  0  0  0  0  0  0  0
    0.8528    2.5380   -0.0666 H   0  0  0  0  0  0  0  0  0  0  0  0
   -1.9053   -1.3392   -0.9259 H   0  0  0  0  0  0  0  0  0  0  0  0
   -3.3633   -0.4242   -1.2993 H   0  0  0  0  0  0  0  0  0  0  0  0
   -3.2105    2.3989   -0.9933 H   0  0  0  0  0  0  0  0  0  0  0  0
    4.4497    2.3009    0.9621 H   0  0  0  0  0  0  0  0  0  0  0  0
   -4.2821   -2.3472    1.5023 H   0  0  0  0  0  0  0  0  0  0  0  0
  1 10  1  0  0  0  0
  1 12  1  0  0  0  0
  2  9  1  0  0  0  0
  2 25  1  0  0  0  0
  3 11  1  0  0  0  0
  3 26  1  0  0  0  0
  4 13  1  0  0  0  0
  4 31  1  0  0  0  0
  5 18  1  0  0  0  0
  5 32  1  0  0  0  0
  6 18  2  0  0  0  0
  7 10  1  0  0  0  0
  7 14  1  0  0  0  0
  7 15  1  0  0  0  0
  8 15  2  0  0  0  0
  8 17  1  0  0  0  0
  9 10  1  0  0  0  0
  9 11  1  0  0  0  0
  9 19  1  0  0  0  0
 10 20  1  0  0  0  0
 11 12  1  0  0  0  0
 11 21  1  0  0  0  0
 12 13  1  0  0  0  0
 12 22  1  0  0  0  0
 13 23  1  0  0  0  0
 13 24  1  0  0  0  0
 14 16  1  0  0  0  0
 14 17  2  0  0  0  0
 15 27  1  0  0  0  0
 16 18  1  0  0  0  0
 16 28  1  0  0  0  0
 16 29  1  0  0  0  0
 17 30  1  0  0  0  0
M  END
> <PUBCHEM_COMPOUND_CID>
56928067

> <PUBCHEM_CONFORMER_RMSD>
0.6

> <PUBCHEM_CONFORMER_DIVERSEORDER>
1
64
39
91
82
66
57
16
79
25
61
85
53
87
76
93
27
86
60
30
95
35
72
49
73
21
69
48
47
14
7
62
67
31
46
58
8
11
75
54
78
41
89
96
71
94
22
51
26
34
80
90
18
88
52
63
37
42
81
2
40
4
36
83
28
17
29
68
84
6
59
3
38
92
77
13
55
50
24
70
9
33
65
32
56
5
74
23
45
44
15
43
20
19
12
10

> <PUBCHEM_MMFF94_PARTIAL_CHARGES>
24
1 -0.56
10 0.54
11 0.28
12 0.28
13 0.28
14 -0.33
15 0.04
16 0.24
17 0.08
18 0.66
2 -0.68
25 0.4
26 0.4
27 0.15
3 -0.68
30 0.15
31 0.4
32 0.5
4 -0.68
5 -0.65
6 -0.57
7 0.05
8 -0.57
9 0.28

> <PUBCHEM_EFFECTIVE_ROTOR_COUNT>
5

> <PUBCHEM_PHARMACOPHORE_FEATURES>
13
1 1 acceptor
1 2 acceptor
1 2 donor
1 3 acceptor
1 3 donor
1 4 acceptor
1 4 donor
1 5 acceptor
1 6 acceptor
3 5 6 18 anion
3 7 8 15 cation
5 1 9 10 11 12 rings
5 7 8 14 15 17 rings

> <PUBCHEM_HEAVY_ATOM_COUNT>
18

> <PUBCHEM_ATOM_DEF_STEREO_COUNT>
4

> <PUBCHEM_ATOM_UDEF_STEREO_COUNT>
0

> <PUBCHEM_BOND_DEF_STEREO_COUNT>
0

> <PUBCHEM_BOND_UDEF_STEREO_COUNT>
0

> <PUBCHEM_ISOTOPIC_ATOM_COUNT>
0

> <PUBCHEM_COMPONENT_COUNT>
1

> <PUBCHEM_CACTVS_TAUTO_COUNT>
1

> <PUBCHEM_CONFORMER_ID>
0364A74300000001

> <PUBCHEM_MMFF94_ENERGY>
34.6778

> <PUBCHEM_FEATURE_SELFOVERLAP>
66.04

> <PUBCHEM_SHAPE_FINGERPRINT>
10608611 8 18192724551222569532
107287 299 18040439914468839150
11132069 177 18261682454409175744
12500047 106 17769941508103441174
12553582 1 18199728285910056771
13083527 12 18055073164483723413
13294875 104 5156711625966018462
13296908 3 18341893034272245726
14026960 21 18338526235732966856
14223421 5 18340209690823688882
14252887 29 18339911637379009995
14289901 80 18131066052286739642
14648413 74 17974297813305699452
14787075 74 17701538390311246320
15219456 202 18335423525271560276
15309172 13 17822296760057286094
15375358 24 18341059579179126789
15375462 6 18410862091942808374
16945 1 18412547574448504980
17844478 74 18408040727625372452
18186145 218 17385727980848306576
18380122 1 18334856129879262236
20681677 274 18270689786971738778
20871998 22 18340758274375236195
21501502 16 18118133686488512668
221490 88 18337107994724533998
22802520 49 18193272129176379726
23532345 11 17988081217703620977
23557571 272 18342449365707437749
23559900 14 18199475531279102886
2748010 2 18262807392264599276
458136 41 17676195850071970990
6049 1 18263073478425962916
74978 22 17981047736483929312
81228 2 18058155297513890369
8809292 202 17977666742349503214
9709674 26 18193283124356325143
9882013 296 18260546675924701547

> <PUBCHEM_SHAPE_MULTIPOLES>
325.25
6.12
2.69
1.27
0.61
0.67
0.03
-1.21
2.24
-0.66
-0.37
-0.14
-0.3
1.41

> <PUBCHEM_SHAPE_SELFOVERLAP>
680.201

> <PUBCHEM_SHAPE_VOLUME>
185.9

> <PUBCHEM_COORDINATE_TYPE>
2
5
10

$$$$

