12808
  -OEChem-06261207243D

 20 20  0     0  0  0  0  0  0999 V2000
   -4.2457   -0.5187    0.3473 Cl  0  0  0  0  0  0  0  0  0  0  0  0
    2.0214   -0.8589    1.2108 S   0  0  0  0  0  0  0  0  0  0  0  0
    4.0713    0.7352   -0.1599 S   0  0  0  0  0  0  0  0  0  0  0  0
    1.3880    0.9768   -0.6242 N   0  0  0  0  0  0  0  0  0  0  0  0
    0.0546    0.6229   -0.3944 C   0  0  0  0  0  0  0  0  0  0  0  0
   -0.6842    1.2868    0.5849 C   0  0  0  0  0  0  0  0  0  0  0  0
   -0.5364   -0.3939   -1.1444 C   0  0  0  0  0  0  0  0  0  0  0  0
   -2.0140    0.9337    0.8143 C   0  0  0  0  0  0  0  0  0  0  0  0
   -1.8662   -0.7469   -0.9150 C   0  0  0  0  0  0  0  0  0  0  0  0
   -2.6051   -0.0831    0.0643 C   0  0  0  0  0  0  0  0  0  0  0  0
    2.3551    0.3971    0.0218 C   0  0  0  0  0  0  0  0  0  0  0  0
    2.0611   -2.3508    0.1945 C   0  0  0  0  0  0  0  0  0  0  0  0
   -0.2332    2.0814    1.1735 H   0  0  0  0  0  0  0  0  0  0  0  0
    0.0238   -0.9053   -1.9227 H   0  0  0  0  0  0  0  0  0  0  0  0
   -2.5775    1.4597    1.5806 H   0  0  0  0  0  0  0  0  0  0  0  0
   -2.3147   -1.5386   -1.5097 H   0  0  0  0  0  0  0  0  0  0  0  0
    1.2786   -2.3499   -0.5637 H   0  0  0  0  0  0  0  0  0  0  0  0
    1.9135   -3.2233    0.8367 H   0  0  0  0  0  0  0  0  0  0  0  0
    3.0323   -2.4478   -0.2982 H   0  0  0  0  0  0  0  0  0  0  0  0
    4.5083   -0.1616    0.7363 H   0  0  0  0  0  0  0  0  0  0  0  0
  1 10  1  0  0  0  0
  2 11  1  0  0  0  0
  2 12  1  0  0  0  0
  3 11  1  0  0  0  0
  3 20  1  0  0  0  0
  4  5  1  0  0  0  0
  4 11  2  0  0  0  0
  5  6  2  0  0  0  0
  5  7  1  0  0  0  0
  6  8  1  0  0  0  0
  6 13  1  0  0  0  0
  7  9  2  0  0  0  0
  7 14  1  0  0  0  0
  8 10  2  0  0  0  0
  8 15  1  0  0  0  0
  9 10  1  0  0  0  0
  9 16  1  0  0  0  0
 12 17  1  0  0  0  0
 12 18  1  0  0  0  0
 12 19  1  0  0  0  0
M  END
> <PUBCHEM_COMPOUND_CID>
12808

> <PUBCHEM_CONFORMER_RMSD>
0.6

> <PUBCHEM_CONFORMER_DIVERSEORDER>
2
1

> <PUBCHEM_MMFF94_PARTIAL_CHARGES>
17
1 -0.18
10 0.18
11 0.73
12 0.23
13 0.15
14 0.15
15 0.15
16 0.15
2 -0.37
20 0.18
3 -0.32
4 -0.63
5 0.18
6 -0.15
7 -0.15
8 -0.15
9 -0.15

> <PUBCHEM_EFFECTIVE_ROTOR_COUNT>
2

> <PUBCHEM_PHARMACOPHORE_FEATURES>
3
1 12 hydrophobe
1 4 acceptor
6 5 6 7 8 9 10 rings

> <PUBCHEM_HEAVY_ATOM_COUNT>
12

> <PUBCHEM_ATOM_DEF_STEREO_COUNT>
0

> <PUBCHEM_ATOM_UDEF_STEREO_COUNT>
0

> <PUBCHEM_BOND_DEF_STEREO_COUNT>
0

> <PUBCHEM_BOND_UDEF_STEREO_COUNT>
0

> <PUBCHEM_ISOTOPIC_ATOM_COUNT>
0

> <PUBCHEM_COMPONENT_COUNT>
1

> <PUBCHEM_CACTVS_TAUTO_COUNT>
2

> <PUBCHEM_CONFORMER_ID>
0000320800000002

> <PUBCHEM_MMFF94_ENERGY>
32.6646

> <PUBCHEM_FEATURE_SELFOVERLAP>
15.223

> <PUBCHEM_SHAPE_FINGERPRINT>
10857977 72 17022905631718732577
12932764 1 17749403571452341952
14252887 29 18060411426227011059
15076042 46 17970067961634159008
15207287 21 16200435741048386352
15279307 12 18335704922955145310
15375462 189 18334862692510253778
15775835 57 17894911827923174026
16945 1 18261407623609754381
19422 9 18335697303809385914
20201158 50 16128658548134568464
20279233 1 16056879134722593945
20645477 70 18201731686110888239
22445834 79 18335985349764293026
23402539 116 16805324392637764789
23557571 272 14836413552943042150
23598294 1 17895754122634092561
528862 383 18343867731570719330
81228 2 14492768795647245124

> <PUBCHEM_SHAPE_MULTIPOLES>
251.54
6.4
1.6
1.08
0.73
0.78
0.02
0.3
0.65
-0.98
0.18
0.04
0.09
-0.59

> <PUBCHEM_SHAPE_SELFOVERLAP>
481.88

> <PUBCHEM_SHAPE_VOLUME>
157.5

> <PUBCHEM_COORDINATE_TYPE>
2
5
10

$$$$

