5281627
  -OEChem-07051212582D

 58 63  0     0  0  0  0  0  0999 V2000
   13.8904    0.2643    0.0000 O   0  0  0  0  0  0  0  0  0  0  0  0
   10.3984   -1.7704    0.0000 O   0  0  0  0  0  0  0  0  0  0  0  0
    6.0682   -0.2704    0.0000 O   0  0  0  0  0  0  0  0  0  0  0  0
   12.1304   -2.7704    0.0000 O   0  0  0  0  0  0  0  0  0  0  0  0
   10.3984    0.2296    0.0000 O   0  0  0  0  0  0  0  0  0  0  0  0
   13.8788   -2.8050    0.0000 O   0  0  0  0  0  0  0  0  0  0  0  0
    4.3198    2.7642    0.0000 O   0  0  0  0  0  0  0  0  0  0  0  0
    6.0682    2.7296    0.0000 O   0  0  0  0  0  0  0  0  0  0  0  0
    2.5381   -0.2945    0.0000 O   0  0  0  0  0  0  0  0  0  0  0  0
   18.2528    1.7638    0.0000 O   0  0  0  0  0  0  0  0  0  0  0  0
   12.9965   -1.2704    0.0000 C   0  0  0  0  0  0  0  0  0  0  0  0
   12.9965   -0.2704    0.0000 C   0  0  0  0  0  0  0  0  0  0  0  0
   12.1304   -1.7704    0.0000 C   0  0  0  0  0  0  0  0  0  0  0  0
   11.2644   -1.2704    0.0000 C   0  0  0  0  0  0  0  0  0  0  0  0
   14.7965   -0.2496    0.0000 C   0  0  0  0  0  0  0  0  0  0  0  0
    7.8003   -0.2704    0.0000 C   0  0  0  0  0  0  0  0  0  0  0  0
    6.9343    0.2296    0.0000 C   0  0  0  0  0  0  0  0  0  0  0  0
   13.8904   -1.8050    0.0000 C   0  0  0  0  0  0  0  0  0  0  0  0
   12.1304    0.2296    0.0000 C   0  0  0  0  0  0  0  0  0  0  0  0
   11.2644   -0.2704    0.0000 C   0  0  0  0  0  0  0  0  0  0  0  0
    5.2022    1.2296    0.0000 C   0  0  0  0  0  0  0  0  0  0  0  0
    5.2022    0.2296    0.0000 C   0  0  0  0  0  0  0  0  0  0  0  0
   14.7965   -1.2912    0.0000 C   0  0  0  0  0  0  0  0  0  0  0  0
    9.5323   -1.2704    0.0000 C   0  0  0  0  0  0  0  0  0  0  0  0
   15.6606    0.2538    0.0000 C   0  0  0  0  0  0  0  0  0  0  0  0
    6.9343    1.2296    0.0000 C   0  0  0  0  0  0  0  0  0  0  0  0
    6.0682    1.7296    0.0000 C   0  0  0  0  0  0  0  0  0  0  0  0
    7.8003   -1.2704    0.0000 C   0  0  0  0  0  0  0  0  0  0  0  0
    8.6663    0.2296    0.0000 C   0  0  0  0  0  0  0  0  0  0  0  0
    8.6663   -1.7704    0.0000 C   0  0  0  0  0  0  0  0  0  0  0  0
    9.5323   -0.2704    0.0000 C   0  0  0  0  0  0  0  0  0  0  0  0
    4.3083    1.7643    0.0000 C   0  0  0  0  0  0  0  0  0  0  0  0
    4.3083   -0.3051    0.0000 C   0  0  0  0  0  0  0  0  0  0  0  0
    3.4022    0.2088    0.0000 C   0  0  0  0  0  0  0  0  0  0  0  0
    3.4022    1.2504    0.0000 C   0  0  0  0  0  0  0  0  0  0  0  0
   16.5285   -0.2429    0.0000 C   0  0  0  0  0  0  0  0  0  0  0  0
   15.6567    1.2538    0.0000 C   0  0  0  0  0  0  0  0  0  0  0  0
   17.3926    0.2604    0.0000 C   0  0  0  0  0  0  0  0  0  0  0  0
   16.5208    1.7571    0.0000 C   0  0  0  0  0  0  0  0  0  0  0  0
   17.3887    1.2604    0.0000 C   0  0  0  0  0  0  0  0  0  0  0  0
   12.1304    0.8496    0.0000 H   0  0  0  0  0  0  0  0  0  0  0  0
   15.3322   -1.6033    0.0000 H   0  0  0  0  0  0  0  0  0  0  0  0
    7.4712    1.5396    0.0000 H   0  0  0  0  0  0  0  0  0  0  0  0
    7.2634   -1.5804    0.0000 H   0  0  0  0  0  0  0  0  0  0  0  0
    8.6663    0.8496    0.0000 H   0  0  0  0  0  0  0  0  0  0  0  0
    8.6663   -2.3904    0.0000 H   0  0  0  0  0  0  0  0  0  0  0  0
   10.0693    0.0396    0.0000 H   0  0  0  0  0  0  0  0  0  0  0  0
    4.3154   -0.9250    0.0000 H   0  0  0  0  0  0  0  0  0  0  0  0
    2.8665    1.5625    0.0000 H   0  0  0  0  0  0  0  0  0  0  0  0
   16.5309   -0.8629    0.0000 H   0  0  0  0  0  0  0  0  0  0  0  0
   15.1186    1.5617    0.0000 H   0  0  0  0  0  0  0  0  0  0  0  0
   11.5935   -3.0804    0.0000 H   0  0  0  0  0  0  0  0  0  0  0  0
   17.9307   -0.0475    0.0000 H   0  0  0  0  0  0  0  0  0  0  0  0
   16.5184    2.3771    0.0000 H   0  0  0  0  0  0  0  0  0  0  0  0
   10.3984    0.8496    0.0000 H   0  0  0  0  0  0  0  0  0  0  0  0
    3.7865    3.0804    0.0000 H   0  0  0  0  0  0  0  0  0  0  0  0
    2.0000    0.0134    0.0000 H   0  0  0  0  0  0  0  0  0  0  0  0
   18.7910    1.4558    0.0000 H   0  0  0  0  0  0  0  0  0  0  0  0
  1 12  1  0  0  0  0
  1 15  1  0  0  0  0
  2 14  1  0  0  0  0
  2 24  1  0  0  0  0
  3 17  1  0  0  0  0
  3 22  1  0  0  0  0
  4 13  1  0  0  0  0
  4 52  1  0  0  0  0
  5 20  1  0  0  0  0
  5 55  1  0  0  0  0
  6 18  2  0  0  0  0
  7 32  1  0  0  0  0
  7 56  1  0  0  0  0
  8 27  2  0  0  0  0
  9 34  1  0  0  0  0
  9 57  1  0  0  0  0
 10 40  1  0  0  0  0
 10 58  1  0  0  0  0
 11 12  2  0  0  0  0
 11 13  1  0  0  0  0
 11 18  1  0  0  0  0
 12 19  1  0  0  0  0
 13 14  2  0  0  0  0
 14 20  1  0  0  0  0
 15 23  2  0  0  0  0
 15 25  1  0  0  0  0
 16 17  1  0  0  0  0
 16 28  2  0  0  0  0
 16 29  1  0  0  0  0
 17 26  2  0  0  0  0
 18 23  1  0  0  0  0
 19 20  2  0  0  0  0
 19 41  1  0  0  0  0
 21 22  1  0  0  0  0
 21 27  1  0  0  0  0
 21 32  2  0  0  0  0
 22 33  2  0  0  0  0
 23 42  1  0  0  0  0
 24 30  2  0  0  0  0
 24 31  1  0  0  0  0
 25 36  2  0  0  0  0
 25 37  1  0  0  0  0
 26 27  1  0  0  0  0
 26 43  1  0  0  0  0
 28 30  1  0  0  0  0
 28 44  1  0  0  0  0
 29 31  2  0  0  0  0
 29 45  1  0  0  0  0
 30 46  1  0  0  0  0
 31 47  1  0  0  0  0
 32 35  1  0  0  0  0
 33 34  1  0  0  0  0
 33 48  1  0  0  0  0
 34 35  2  0  0  0  0
 35 49  1  0  0  0  0
 36 38  1  0  0  0  0
 36 50  1  0  0  0  0
 37 39  2  0  0  0  0
 37 51  1  0  0  0  0
 38 40  2  0  0  0  0
 38 53  1  0  0  0  0
 39 40  1  0  0  0  0
 39 54  1  0  0  0  0
M  END
> <PUBCHEM_COMPOUND_CID>
5281627

> <PUBCHEM_COMPOUND_CANONICALIZED>
1

> <PUBCHEM_CACTVS_COMPLEXITY>
1020

> <PUBCHEM_CACTVS_HBOND_ACCEPTOR>
10

> <PUBCHEM_CACTVS_HBOND_DONOR>
5

> <PUBCHEM_CACTVS_ROTATABLE_BOND>
4

> <PUBCHEM_CACTVS_SUBSKEYS>
AAADceB4PAAAAAAAAAAAAAAAAAAAAAAAAAAwYMGCAAAAAACBVAAAGgAACAAADASAmAAwBoAABgCIAqBSAAACCAAkIAAIiAEGiMgNJzaGNRqCeWOl4BULuQfK7LzOIQABCAAIQABCAAIQABCAAAAAAAAAAA==

> <PUBCHEM_IUPAC_OPENEYE_NAME>
6-[4-(5,7-dihydroxy-4-oxo-chromen-2-yl)phenoxy]-5,7-dihydroxy-2-(4-hydroxyphenyl)chromen-4-one

> <PUBCHEM_IUPAC_CAS_NAME>
6-[4-(5,7-dihydroxy-4-oxo-1-benzopyran-2-yl)phenoxy]-5,7-dihydroxy-2-(4-hydroxyphenyl)-1-benzopyran-4-one

> <PUBCHEM_IUPAC_NAME>
6-[4-(5,7-dihydroxy-4-oxochromen-2-yl)phenoxy]-5,7-dihydroxy-2-(4-hydroxyphenyl)chromen-4-one

> <PUBCHEM_IUPAC_SYSTEMATIC_NAME>
6-[4-[5,7-bis(oxidanyl)-4-oxidanylidene-chromen-2-yl]phenoxy]-2-(4-hydroxyphenyl)-5,7-bis(oxidanyl)chromen-4-one

> <PUBCHEM_IUPAC_TRADITIONAL_NAME>
6-[4-(5,7-dihydroxy-4-keto-chromen-2-yl)phenoxy]-5,7-dihydroxy-2-(4-hydroxyphenyl)chromone

> <PUBCHEM_IUPAC_INCHI>
InChI=1S/C30H18O10/c31-16-5-1-14(2-6-16)24-12-21(35)28-26(40-24)13-22(36)30(29(28)37)38-18-7-3-15(4-8-18)23-11-20(34)27-19(33)9-17(32)10-25(27)39-23/h1-13,31-33,36-37H

> <PUBCHEM_IUPAC_INCHIKEY>
WTDHMFBJQJSTMH-UHFFFAOYSA-N

> <PUBCHEM_XLOGP3>
4.4

> <PUBCHEM_EXACT_MASS>
538.089997

> <PUBCHEM_MOLECULAR_FORMULA>
C30H18O10

> <PUBCHEM_MOLECULAR_WEIGHT>
538.45792

> <PUBCHEM_OPENEYE_CAN_SMILES>
C1=CC(=CC=C1C2=CC(=O)C3=C(C(=C(C=C3O2)O)OC4=CC=C(C=C4)C5=CC(=O)C6=C(C=C(C=C6O5)O)O)O)O

> <PUBCHEM_OPENEYE_ISO_SMILES>
C1=CC(=CC=C1C2=CC(=O)C3=C(C(=C(C=C3O2)O)OC4=CC=C(C=C4)C5=CC(=O)C6=C(C=C(C=C6O5)O)O)O)O

> <PUBCHEM_CACTVS_TPSA>
163

> <PUBCHEM_MONOISOTOPIC_WEIGHT>
538.089997

> <PUBCHEM_TOTAL_CHARGE>
0

> <PUBCHEM_HEAVY_ATOM_COUNT>
40

> <PUBCHEM_ATOM_DEF_STEREO_COUNT>
0

> <PUBCHEM_ATOM_UDEF_STEREO_COUNT>
0

> <PUBCHEM_BOND_DEF_STEREO_COUNT>
0

> <PUBCHEM_BOND_UDEF_STEREO_COUNT>
0

> <PUBCHEM_ISOTOPIC_ATOM_COUNT>
0

> <PUBCHEM_COMPONENT_COUNT>
1

> <PUBCHEM_CACTVS_TAUTO_COUNT>
684

> <PUBCHEM_COORDINATE_TYPE>
1
5
255

> <PUBCHEM_BONDANNOTATIONS>
1  12  8
1  15  8
11  12  8
11  13  8
11  18  8
12  19  8
13  14  8
14  20  8
15  23  8
16  28  8
16  29  8
17  26  8
18  23  8
19  20  8
21  22  8
21  27  8
21  32  8
22  33  8
24  30  8
24  31  8
25  36  8
25  37  8
26  27  8
28  30  8
29  31  8
3  17  8
3  22  8
32  35  8
33  34  8
34  35  8
36  38  8
37  39  8
38  40  8
39  40  8

$$$$

