10958
  -OEChem-06261205102D

 16 15  0     0  0  0  0  0  0999 V2000
    4.5981    0.2500    0.0000 O   0  0  0  0  0  0  0  0  0  0  0  0
    6.3301    0.2500    0.0000 O   0  0  0  0  0  0  0  0  0  0  0  0
    5.4641    0.7500    0.0000 N   0  0  0  0  0  0  0  0  0  0  0  0
    2.8660    0.2500    0.0000 C   0  0  0  0  0  0  0  0  0  0  0  0
    3.7320    0.7500    0.0000 C   0  0  0  0  0  0  0  0  0  0  0  0
    2.0000    0.7500    0.0000 C   0  0  0  0  0  0  0  0  0  0  0  0
    2.8660   -0.7500    0.0000 C   0  0  0  0  0  0  0  0  0  0  0  0
    2.8660    0.8700    0.0000 H   0  0  0  0  0  0  0  0  0  0  0  0
    4.1306    1.2250    0.0000 H   0  0  0  0  0  0  0  0  0  0  0  0
    3.3335    1.2250    0.0000 H   0  0  0  0  0  0  0  0  0  0  0  0
    2.3100    1.2869    0.0000 H   0  0  0  0  0  0  0  0  0  0  0  0
    1.4631    1.0600    0.0000 H   0  0  0  0  0  0  0  0  0  0  0  0
    1.6900    0.2131    0.0000 H   0  0  0  0  0  0  0  0  0  0  0  0
    2.2460   -0.7500    0.0000 H   0  0  0  0  0  0  0  0  0  0  0  0
    2.8660   -1.3700    0.0000 H   0  0  0  0  0  0  0  0  0  0  0  0
    3.4860   -0.7500    0.0000 H   0  0  0  0  0  0  0  0  0  0  0  0
  1  3  1  0  0  0  0
  1  5  1  0  0  0  0
  2  3  2  0  0  0  0
  4  5  1  0  0  0  0
  4  6  1  0  0  0  0
  4  7  1  0  0  0  0
  4  8  1  0  0  0  0
  5  9  1  0  0  0  0
  5 10  1  0  0  0  0
  6 11  1  0  0  0  0
  6 12  1  0  0  0  0
  6 13  1  0  0  0  0
  7 14  1  0  0  0  0
  7 15  1  0  0  0  0
  7 16  1  0  0  0  0
M  END
> <PUBCHEM_COMPOUND_CID>
10958

> <PUBCHEM_COMPOUND_CANONICALIZED>
1

> <PUBCHEM_CACTVS_COMPLEXITY>
53.7

> <PUBCHEM_CACTVS_HBOND_ACCEPTOR>
3

> <PUBCHEM_CACTVS_HBOND_DONOR>
0

> <PUBCHEM_CACTVS_ROTATABLE_BOND>
2

> <PUBCHEM_CACTVS_SUBSKEYS>
AAADccBiMAAAAAAAAAAAAAAAAAAAAAAAAAAAAAAAAAAAAAAAAAAAGgAEAAAADQCggAICAAAAQAABAAAAAQAAAAAAAAAAAAAAAAAAAAAAAAAAAAAAAAAAAAAAAAAAAAAAAAAAAAAAAAAAAAAAAAAAAAAAAA==

> <PUBCHEM_IUPAC_OPENEYE_NAME>
isobutyl nitrite

> <PUBCHEM_IUPAC_CAS_NAME>
nitrous acid 2-methylpropyl ester

> <PUBCHEM_IUPAC_NAME>
2-methylpropyl nitrite

> <PUBCHEM_IUPAC_SYSTEMATIC_NAME>
2-methylpropyl nitrite

> <PUBCHEM_IUPAC_TRADITIONAL_NAME>
nitrous acid isobutyl ester

> <PUBCHEM_IUPAC_INCHI>
InChI=1S/C4H9NO2/c1-4(2)3-7-5-6/h4H,3H2,1-2H3

> <PUBCHEM_IUPAC_INCHIKEY>
APNSGVMLAYLYCT-UHFFFAOYSA-N

> <PUBCHEM_XLOGP3_AA>
1.4

> <PUBCHEM_EXACT_MASS>
103.063329

> <PUBCHEM_MOLECULAR_FORMULA>
C4H9NO2

> <PUBCHEM_MOLECULAR_WEIGHT>
103.11976

> <PUBCHEM_OPENEYE_CAN_SMILES>
CC(C)CON=O

> <PUBCHEM_OPENEYE_ISO_SMILES>
CC(C)CON=O

> <PUBCHEM_CACTVS_TPSA>
38.7

> <PUBCHEM_MONOISOTOPIC_WEIGHT>
103.063329

> <PUBCHEM_TOTAL_CHARGE>
0

> <PUBCHEM_HEAVY_ATOM_COUNT>
7

> <PUBCHEM_ATOM_DEF_STEREO_COUNT>
0

> <PUBCHEM_ATOM_UDEF_STEREO_COUNT>
0

> <PUBCHEM_BOND_DEF_STEREO_COUNT>
0

> <PUBCHEM_BOND_UDEF_STEREO_COUNT>
0

> <PUBCHEM_ISOTOPIC_ATOM_COUNT>
0

> <PUBCHEM_COMPONENT_COUNT>
1

> <PUBCHEM_CACTVS_TAUTO_COUNT>
1

> <PUBCHEM_COORDINATE_TYPE>
1
5
255

$$$$

