125004
  -OEChem-07051212493D

 34 34  0     1  0  0  0  0  0999 V2000
   -3.2806   -0.9149    0.0774 P   0  0  0  0  0  0  0  0  0  0  0  0
    3.1924   -0.9497    0.1843 P   0  0  0  0  0  0  0  0  0  0  0  0
   -1.7722   -0.9186   -0.4925 O   0  0  0  0  0  0  0  0  0  0  0  0
    1.6762   -0.6979    0.6725 O   0  0  0  0  0  0  0  0  0  0  0  0
   -0.1020    1.1272    2.0177 O   0  0  0  0  0  0  0  0  0  0  0  0
    0.0507    0.1343   -2.4994 O   0  0  0  0  0  0  0  0  0  0  0  0
   -0.9134    3.2054    0.3159 O   0  0  0  0  0  0  0  0  0  0  0  0
    1.6564    2.1316    0.0909 O   0  0  0  0  0  0  0  0  0  0  0  0
   -3.2979   -2.1375    1.1358 O   0  0  0  0  0  0  0  0  0  0  0  0
   -4.1279   -1.4933   -1.1727 O   0  0  0  0  0  0  0  0  0  0  0  0
    3.1955   -2.4963   -0.2884 O   0  0  0  0  0  0  0  0  0  0  0  0
    4.0081   -0.9858    1.5801 O   0  0  0  0  0  0  0  0  0  0  0  0
   -3.7591    0.4032    0.6118 O   0  0  0  0  0  0  0  0  0  0  0  0
    3.7097    0.0312   -0.8270 O   0  0  0  0  0  0  0  0  0  0  0  0
   -0.7165   -0.5754    0.4020 C   0  0  1  0  0  0  0  0  0  0  0  0
    0.6418   -0.7296   -0.3076 C   0  0  1  0  0  0  0  0  0  0  0  0
   -0.9636    0.8505    0.9163 C   0  0  2  0  0  0  0  0  0  0  0  0
    0.8968    0.3542   -1.3732 C   0  0  2  0  0  0  0  0  0  0  0  0
   -0.7394    1.8862   -0.1953 C   0  0  2  0  0  0  0  0  0  0  0  0
    0.6450    1.7751   -0.8486 C   0  0  1  0  0  0  0  0  0  0  0  0
   -0.7374   -1.2686    1.2523 H   0  0  0  0  0  0  0  0  0  0  0  0
    0.6558   -1.7117   -0.7968 H   0  0  0  0  0  0  0  0  0  0  0  0
   -1.9349    1.0028    1.3633 H   0  0  0  0  0  0  0  0  0  0  0  0
    1.8869    0.3046   -1.8026 H   0  0  0  0  0  0  0  0  0  0  0  0
   -1.5130    1.7482   -0.9598 H   0  0  0  0  0  0  0  0  0  0  0  0
    0.7080    2.4939   -1.6748 H   0  0  0  0  0  0  0  0  0  0  0  0
   -0.2274    2.0598    2.2635 H   0  0  0  0  0  0  0  0  0  0  0  0
   -0.8637    0.0335   -2.1877 H   0  0  0  0  0  0  0  0  0  0  0  0
   -0.7947    3.8255   -0.4236 H   0  0  0  0  0  0  0  0  0  0  0  0
    1.4442    3.0201    0.4242 H   0  0  0  0  0  0  0  0  0  0  0  0
   -4.1102   -2.2983    1.6616 H   0  0  0  0  0  0  0  0  0  0  0  0
   -5.1071   -1.5065   -1.1165 H   0  0  0  0  0  0  0  0  0  0  0  0
    4.0109   -2.8693   -0.6861 H   0  0  0  0  0  0  0  0  0  0  0  0
    4.9875   -1.0362    1.5562 H   0  0  0  0  0  0  0  0  0  0  0  0
  1  3  1  0  0  0  0
  1  9  1  0  0  0  0
  1 10  1  0  0  0  0
  1 13  2  0  0  0  0
  2  4  1  0  0  0  0
  2 11  1  0  0  0  0
  2 12  1  0  0  0  0
  2 14  2  0  0  0  0
  3 15  1  0  0  0  0
  4 16  1  0  0  0  0
  5 17  1  0  0  0  0
  5 27  1  0  0  0  0
  6 18  1  0  0  0  0
  6 28  1  0  0  0  0
  7 19  1  0  0  0  0
  7 29  1  0  0  0  0
  8 20  1  0  0  0  0
  8 30  1  0  0  0  0
  9 31  1  0  0  0  0
 10 32  1  0  0  0  0
 11 33  1  0  0  0  0
 12 34  1  0  0  0  0
 15 16  1  0  0  0  0
 15 17  1  0  0  0  0
 15 21  1  0  0  0  0
 16 18  1  0  0  0  0
 16 22  1  0  0  0  0
 17 19  1  0  0  0  0
 17 23  1  0  0  0  0
 18 20  1  0  0  0  0
 18 24  1  0  0  0  0
 19 20  1  0  0  0  0
 19 25  1  0  0  0  0
 20 26  1  0  0  0  0
M  END
> <PUBCHEM_COMPOUND_CID>
125004

> <PUBCHEM_CONFORMER_RMSD>
0.8

> <PUBCHEM_CONFORMER_DIVERSEORDER>
1
4
3
5
6
2

> <PUBCHEM_MMFF94_PARTIAL_CHARGES>
28
1 1.51
10 -0.77
11 -0.77
12 -0.77
13 -0.7
14 -0.7
15 0.28
16 0.28
17 0.28
18 0.28
19 0.28
2 1.51
20 0.28
27 0.4
28 0.4
29 0.4
3 -0.55
30 0.4
31 0.5
32 0.5
33 0.5
34 0.5
4 -0.55
5 -0.68
6 -0.68
7 -0.68
8 -0.68
9 -0.77

> <PUBCHEM_EFFECTIVE_ROTOR_COUNT>
5.2

> <PUBCHEM_PHARMACOPHORE_FEATURES>
17
1 10 acceptor
1 11 acceptor
1 12 acceptor
1 13 acceptor
1 14 acceptor
1 5 acceptor
1 5 donor
1 6 acceptor
1 6 donor
1 7 acceptor
1 7 donor
1 8 acceptor
1 8 donor
1 9 acceptor
4 1 9 10 13 anion
4 2 11 12 14 anion
6 15 16 17 18 19 20 rings

> <PUBCHEM_HEAVY_ATOM_COUNT>
20

> <PUBCHEM_ATOM_DEF_STEREO_COUNT>
6

> <PUBCHEM_ATOM_UDEF_STEREO_COUNT>
0

> <PUBCHEM_BOND_DEF_STEREO_COUNT>
0

> <PUBCHEM_BOND_UDEF_STEREO_COUNT>
0

> <PUBCHEM_ISOTOPIC_ATOM_COUNT>
0

> <PUBCHEM_COMPONENT_COUNT>
1

> <PUBCHEM_CACTVS_TAUTO_COUNT>
1

> <PUBCHEM_CONFORMER_ID>
0001E84C00000001

> <PUBCHEM_MMFF94_ENERGY>
-4.8551

> <PUBCHEM_FEATURE_SELFOVERLAP>
86.362

> <PUBCHEM_SHAPE_FINGERPRINT>
11578080 2 17775017794586804764
12553582 1 18411128130422467835
12808571 1 7997966847452893692
13132413 78 18334572426025605801
13134695 92 18190471471709031925
14181834 199 17774430573677630590
14817 1 18119232111378975269
16945 1 18262243325435038428
17834072 14 18413393137275886345
18186145 218 17203327784681314955
19010151 120 18408318873981368881
200 152 17704075139946696434
20671657 53 17274822458435025399
21296965 67 18413112766116365822
21452121 71 18271232868079056548
22112679 90 18118373276991794289
232386 152 18339068363547248039
23388829 49 18270668853052899772
23402539 116 18341622554670594018
23419403 2 17984457124484139172
23526113 38 16415193434448618648
23557571 272 18190745426414090122
23559900 14 18264205992867524782
7364860 26 18124029031618603931
81228 2 18268705198125945699

> <PUBCHEM_SHAPE_MULTIPOLES>
348.86
6.11
2.52
1.52
0.44
1.11
0.26
-4.68
-0.62
0.21
-0.26
-0.14
0.07
-0.45

> <PUBCHEM_SHAPE_SELFOVERLAP>
681.94

> <PUBCHEM_SHAPE_VOLUME>
210.8

> <PUBCHEM_COORDINATE_TYPE>
2
5
10

$$$$

