4365
  -OEChem-06261200043D

 42 42  0     1  0  0  0  0  0999 V2000
    0.9479    3.8174   -0.6058 S   0  0  0  0  0  0  0  0  0  0  0  0
    1.3740   -1.0873    1.6799 O   0  0  0  0  0  0  0  0  0  0  0  0
    0.6320   -3.7551   -0.5186 O   0  0  0  0  0  0  0  0  0  0  0  0
   -1.3782   -4.2432    0.3932 O   0  0  0  0  0  0  0  0  0  0  0  0
    5.3377   -0.0283   -0.8022 O   0  0  0  0  0  0  0  0  0  0  0  0
    0.3178   -1.1611   -0.3845 N   0  0  0  0  0  0  0  0  0  0  0  0
    3.5519    0.1327    0.6995 N   0  0  0  0  0  0  0  0  0  0  0  0
    2.4621   -0.0519   -0.2237 C   0  0  2  0  0  0  0  0  0  0  0  0
   -0.8399   -1.9112    0.0428 C   0  0  1  0  0  0  0  0  0  0  0  0
    1.9940    1.2773   -0.8319 C   0  0  0  0  0  0  0  0  0  0  0  0
   -2.0655   -1.5735   -0.8164 C   0  0  0  0  0  0  0  0  0  0  0  0
    1.3412   -0.8077    0.4832 C   0  0  0  0  0  0  0  0  0  0  0  0
   -2.7083   -0.2616   -0.4356 C   0  0  0  0  0  0  0  0  0  0  0  0
    1.4669    2.2743    0.2028 C   0  0  0  0  0  0  0  0  0  0  0  0
   -0.5709   -3.4082   -0.0013 C   0  0  0  0  0  0  0  0  0  0  0  0
   -3.7162   -0.2327    0.5285 C   0  0  0  0  0  0  0  0  0  0  0  0
   -2.2943    0.9217   -1.0473 C   0  0  0  0  0  0  0  0  0  0  0  0
   -4.3101    0.9793    0.8805 C   0  0  0  0  0  0  0  0  0  0  0  0
   -2.8882    2.1337   -0.6951 C   0  0  0  0  0  0  0  0  0  0  0  0
    4.8787    0.1267    0.3221 C   0  0  0  0  0  0  0  0  0  0  0  0
   -3.8961    2.1624    0.2688 C   0  0  0  0  0  0  0  0  0  0  0  0
    0.3637    4.6963    0.8611 C   0  0  0  0  0  0  0  0  0  0  0  0
    2.8214   -0.6940   -1.0387 H   0  0  0  0  0  0  0  0  0  0  0  0
   -1.0249   -1.6721    1.0979 H   0  0  0  0  0  0  0  0  0  0  0  0
    2.8401    1.7294   -1.3673 H   0  0  0  0  0  0  0  0  0  0  0  0
    1.2178    1.0863   -1.5832 H   0  0  0  0  0  0  0  0  0  0  0  0
   -1.8001   -1.5578   -1.8824 H   0  0  0  0  0  0  0  0  0  0  0  0
   -2.8261   -2.3610   -0.7274 H   0  0  0  0  0  0  0  0  0  0  0  0
    0.4272   -0.9797   -1.3779 H   0  0  0  0  0  0  0  0  0  0  0  0
    2.2436    2.5131    0.9359 H   0  0  0  0  0  0  0  0  0  0  0  0
    0.6060    1.8540    0.7320 H   0  0  0  0  0  0  0  0  0  0  0  0
    3.3345    0.2919    1.6794 H   0  0  0  0  0  0  0  0  0  0  0  0
   -4.0456   -1.1474    1.0141 H   0  0  0  0  0  0  0  0  0  0  0  0
   -1.5109    0.9132   -1.8003 H   0  0  0  0  0  0  0  0  0  0  0  0
   -5.0943    1.0020    1.6317 H   0  0  0  0  0  0  0  0  0  0  0  0
   -2.5664    3.0552   -1.1714 H   0  0  0  0  0  0  0  0  0  0  0  0
    5.5299    0.2898    1.1966 H   0  0  0  0  0  0  0  0  0  0  0  0
   -4.3580    3.1063    0.5432 H   0  0  0  0  0  0  0  0  0  0  0  0
    0.7597   -4.7276   -0.5298 H   0  0  0  0  0  0  0  0  0  0  0  0
    0.0013    5.6852    0.5680 H   0  0  0  0  0  0  0  0  0  0  0  0
    1.1777    4.8237    1.5794 H   0  0  0  0  0  0  0  0  0  0  0  0
   -0.4594    4.1504    1.3297 H   0  0  0  0  0  0  0  0  0  0  0  0
  1 14  1  0  0  0  0
  1 22  1  0  0  0  0
  2 12  2  0  0  0  0
  3 15  1  0  0  0  0
  3 39  1  0  0  0  0
  4 15  2  0  0  0  0
  5 20  2  0  0  0  0
  6  9  1  0  0  0  0
  6 12  1  0  0  0  0
  6 29  1  0  0  0  0
  7  8  1  0  0  0  0
  7 20  1  0  0  0  0
  7 32  1  0  0  0  0
  8 10  1  0  0  0  0
  8 12  1  0  0  0  0
  8 23  1  0  0  0  0
  9 11  1  0  0  0  0
  9 15  1  0  0  0  0
  9 24  1  0  0  0  0
 10 14  1  0  0  0  0
 10 25  1  0  0  0  0
 10 26  1  0  0  0  0
 11 13  1  0  0  0  0
 11 27  1  0  0  0  0
 11 28  1  0  0  0  0
 13 16  2  0  0  0  0
 13 17  1  0  0  0  0
 14 30  1  0  0  0  0
 14 31  1  0  0  0  0
 16 18  1  0  0  0  0
 16 33  1  0  0  0  0
 17 19  2  0  0  0  0
 17 34  1  0  0  0  0
 18 21  2  0  0  0  0
 18 35  1  0  0  0  0
 19 21  1  0  0  0  0
 19 36  1  0  0  0  0
 20 37  1  0  0  0  0
 21 38  1  0  0  0  0
 22 40  1  0  0  0  0
 22 41  1  0  0  0  0
 22 42  1  0  0  0  0
M  END
> <PUBCHEM_COMPOUND_CID>
4365

> <PUBCHEM_CONFORMER_RMSD>
1

> <PUBCHEM_CONFORMER_DIVERSEORDER>
1
63
161
36
157
2
58
33
83
162
171
72
110
18
88
26
108
132
30
137
29
77
48
142
126
74
109
159
118
80
65
143
140
37
139
61
41
154
153
28
23
125
62
121
53
148
152
21
57
87
97
47
129
40
34
32
164
45
167
22
130
104
138
46
68
158
112
102
24
91
95
103
135
25
94
15
79
136
145
71
19
114
144
128
100
12
122
38
117
73
115
59
31
107
67
86
105
27
98
163
84
10
17
60
75
149
127
64
134
14
42
155
92
13
160
131
120
151
39
172
147
99
35
6
116
146
4
50
111
44
70
96
106
76
66
43
93
101
5
51
7
55
20
11
89
165
119
169
16
124
170
156
78
69
56
123
141
168
3
81
85
54
49
166
113
133
150
90
82
9
52
8

> <PUBCHEM_MMFF94_PARTIAL_CHARGES>
30
1 -0.46
11 0.14
12 0.57
13 -0.14
14 0.23
15 0.66
16 -0.15
17 -0.15
18 -0.15
19 -0.15
2 -0.57
20 0.57
21 -0.15
22 0.23
29 0.37
3 -0.65
32 0.37
33 0.15
34 0.15
35 0.15
36 0.15
37 0.06
38 0.15
39 0.5
4 -0.57
5 -0.57
6 -0.73
7 -0.73
8 0.36
9 0.36

> <PUBCHEM_EFFECTIVE_ROTOR_COUNT>
11

> <PUBCHEM_PHARMACOPHORE_FEATURES>
9
1 2 acceptor
1 22 hydrophobe
1 3 acceptor
1 4 acceptor
1 5 acceptor
1 6 donor
1 7 donor
3 3 4 15 anion
6 13 16 17 18 19 21 rings

> <PUBCHEM_HEAVY_ATOM_COUNT>
22

> <PUBCHEM_ATOM_DEF_STEREO_COUNT>
0

> <PUBCHEM_ATOM_UDEF_STEREO_COUNT>
2

> <PUBCHEM_BOND_DEF_STEREO_COUNT>
0

> <PUBCHEM_BOND_UDEF_STEREO_COUNT>
0

> <PUBCHEM_ISOTOPIC_ATOM_COUNT>
0

> <PUBCHEM_COMPONENT_COUNT>
1

> <PUBCHEM_CACTVS_TAUTO_COUNT>
4

> <PUBCHEM_CONFORMER_ID>
0000110D00000001

> <PUBCHEM_MMFF94_ENERGY>
43.5663

> <PUBCHEM_FEATURE_SELFOVERLAP>
45.73

> <PUBCHEM_SHAPE_FINGERPRINT>
10366900 7 17703791392800125313
10382601 240 17829030349849617809
1100329 8 18338233765260137817
12633257 1 18336819810618517093
12788726 201 18263920111544447120
13140716 1 17980760441958947115
14251757 5 18339908347755756324
14790565 3 18339633534041933828
14955137 171 18339063960831496049
20600515 1 18259980462181620776
21524375 3 18272089383569382899
23402539 116 18260555541132702980
23558518 356 17983012241497799516
3084891 72 18337394949883900382
350125 39 18339640023736556519
484989 97 18197225746275000551
7226269 152 18410580613135665800
7832392 63 18339367357790536994

> <PUBCHEM_SHAPE_MULTIPOLES>
423.16
7.67
5.46
1.04
4.07
0.58
0.09
2.06
0.44
-0.78
0.36
-0.03
0.19
-0.18

> <PUBCHEM_SHAPE_SELFOVERLAP>
838.654

> <PUBCHEM_SHAPE_VOLUME>
251.7

> <PUBCHEM_COORDINATE_TYPE>
2
5
10

$$$$

