107901
  -OEChem-07051213012D

 36 39  0     1  0  0  0  0  0999 V2000
    7.5468    1.9330    0.0000 Cl  0  0  0  0  0  0  0  0  0  0  0  0
    5.3147   -3.9330    0.0000 F   0  0  0  0  0  0  0  0  0  0  0  0
    6.3147    0.0670    0.0000 O   0  0  0  0  0  0  0  0  0  0  0  0
    3.5827    0.0670    0.0000 N   0  0  0  0  0  0  0  0  0  0  0  0
    2.6691    0.4737    0.0000 N   0  0  0  0  0  0  0  0  0  0  0  0
    2.5000   -1.1354    0.0000 N   0  0  0  0  0  0  0  0  0  0  0  0
    5.3147    0.0670    0.0000 C   0  0  2  0  0  0  0  0  0  0  0  0
    5.8147    0.9330    0.0000 C   0  0  1  0  0  0  0  0  0  0  0  0
    4.4487    0.5670    0.0000 C   0  0  0  0  0  0  0  0  0  0  0  0
    5.3147   -0.9330    0.0000 C   0  0  0  0  0  0  0  0  0  0  0  0
    5.8147    1.9330    0.0000 C   0  0  0  0  0  0  0  0  0  0  0  0
    4.4487   -1.4330    0.0000 C   0  0  0  0  0  0  0  0  0  0  0  0
    6.1808   -1.4330    0.0000 C   0  0  0  0  0  0  0  0  0  0  0  0
    6.6808    2.4330    0.0000 C   0  0  0  0  0  0  0  0  0  0  0  0
    4.9487    2.4330    0.0000 C   0  0  0  0  0  0  0  0  0  0  0  0
    4.4487   -2.4330    0.0000 C   0  0  0  0  0  0  0  0  0  0  0  0
    6.1808   -2.4330    0.0000 C   0  0  0  0  0  0  0  0  0  0  0  0
    3.4782   -0.9275    0.0000 C   0  0  0  0  0  0  0  0  0  0  0  0
    6.6808    3.4330    0.0000 C   0  0  0  0  0  0  0  0  0  0  0  0
    4.9487    3.4330    0.0000 C   0  0  0  0  0  0  0  0  0  0  0  0
    5.3147   -2.9330    0.0000 C   0  0  0  0  0  0  0  0  0  0  0  0
    5.8147    3.9330    0.0000 C   0  0  0  0  0  0  0  0  0  0  0  0
    2.0000   -0.2694    0.0000 C   0  0  0  0  0  0  0  0  0  0  0  0
    6.4136    1.0935    0.0000 H   0  0  0  0  0  0  0  0  0  0  0  0
    4.8472    1.0419    0.0000 H   0  0  0  0  0  0  0  0  0  0  0  0
    4.0502    1.0419    0.0000 H   0  0  0  0  0  0  0  0  0  0  0  0
    3.9118   -1.1230    0.0000 H   0  0  0  0  0  0  0  0  0  0  0  0
    6.7177   -1.1230    0.0000 H   0  0  0  0  0  0  0  0  0  0  0  0
    4.4118    2.1230    0.0000 H   0  0  0  0  0  0  0  0  0  0  0  0
    3.9118   -2.7430    0.0000 H   0  0  0  0  0  0  0  0  0  0  0  0
    6.7177   -2.7430    0.0000 H   0  0  0  0  0  0  0  0  0  0  0  0
    3.9389   -1.3424    0.0000 H   0  0  0  0  0  0  0  0  0  0  0  0
    7.2177    3.7430    0.0000 H   0  0  0  0  0  0  0  0  0  0  0  0
    4.4118    3.7430    0.0000 H   0  0  0  0  0  0  0  0  0  0  0  0
    5.8147    4.5530    0.0000 H   0  0  0  0  0  0  0  0  0  0  0  0
    1.3834   -0.2046    0.0000 H   0  0  0  0  0  0  0  0  0  0  0  0
  1 14  1  0  0  0  0
  2 21  1  0  0  0  0
  3  7  1  0  0  0  0
  3  8  1  0  0  0  0
  4  5  1  0  0  0  0
  4  9  1  0  0  0  0
  4 18  1  0  0  0  0
  5 23  2  0  0  0  0
  6 18  2  0  0  0  0
  6 23  1  0  0  0  0
  7  8  1  0  0  0  0
  7  9  1  1  0  0  0
  7 10  1  0  0  0  0
  8 11  1  1  0  0  0
  8 24  1  0  0  0  0
  9 25  1  0  0  0  0
  9 26  1  0  0  0  0
 10 12  2  0  0  0  0
 10 13  1  0  0  0  0
 11 14  1  0  0  0  0
 11 15  2  0  0  0  0
 12 16  1  0  0  0  0
 12 27  1  0  0  0  0
 13 17  2  0  0  0  0
 13 28  1  0  0  0  0
 14 19  2  0  0  0  0
 15 20  1  0  0  0  0
 15 29  1  0  0  0  0
 16 21  2  0  0  0  0
 16 30  1  0  0  0  0
 17 21  1  0  0  0  0
 17 31  1  0  0  0  0
 18 32  1  0  0  0  0
 19 22  1  0  0  0  0
 19 33  1  0  0  0  0
 20 22  2  0  0  0  0
 20 34  1  0  0  0  0
 22 35  1  0  0  0  0
 23 36  1  0  0  0  0
M  END
> <PUBCHEM_COMPOUND_CID>
107901

> <PUBCHEM_COMPOUND_CANONICALIZED>
1

> <PUBCHEM_CACTVS_COMPLEXITY>
421

> <PUBCHEM_CACTVS_HBOND_ACCEPTOR>
4

> <PUBCHEM_CACTVS_HBOND_DONOR>
0

> <PUBCHEM_CACTVS_ROTATABLE_BOND>
4

> <PUBCHEM_CACTVS_SUBSKEYS>
AAADccB7IQAEAAAAAAAAAAAAEgAAAWAAAAAwYAAAAAAAAAAB0AAAHwIIAAAADFbhmC41EIYIFACiAiBDJAASAAswhYAdyAAICoiKLiKBuxmHMAAuwAMYqAeQwOAOgAAAAAABAAAAAAAAAAIAAAAAAAAAAA==

> <PUBCHEM_IUPAC_OPENEYE_NAME>
1-[[(2S,3R)-3-(2-chlorophenyl)-2-(4-fluorophenyl)oxiran-2-yl]methyl]-1,2,4-triazole

> <PUBCHEM_IUPAC_CAS_NAME>
1-[[(2S,3R)-3-(2-chlorophenyl)-2-(4-fluorophenyl)-2-oxiranyl]methyl]-1,2,4-triazole

> <PUBCHEM_IUPAC_NAME>
1-[[(2S,3R)-3-(2-chlorophenyl)-2-(4-fluorophenyl)oxiran-2-yl]methyl]-1,2,4-triazole

> <PUBCHEM_IUPAC_SYSTEMATIC_NAME>
1-[[(2S,3R)-3-(2-chlorophenyl)-2-(4-fluorophenyl)oxiran-2-yl]methyl]-1,2,4-triazole

> <PUBCHEM_IUPAC_TRADITIONAL_NAME>
1-[[(2S,3R)-3-(2-chlorophenyl)-2-(4-fluorophenyl)oxiran-2-yl]methyl]-1,2,4-triazole

> <PUBCHEM_IUPAC_INCHI>
InChI=1S/C17H13ClFN3O/c18-15-4-2-1-3-14(15)16-17(23-16,9-22-11-20-10-21-22)12-5-7-13(19)8-6-12/h1-8,10-11,16H,9H2/t16-,17-/m1/s1

> <PUBCHEM_IUPAC_INCHIKEY>
ZMYFCFLJBGAQRS-IAGOWNOFSA-N

> <PUBCHEM_XLOGP3_AA>
3.2

> <PUBCHEM_EXACT_MASS>
329.073118

> <PUBCHEM_MOLECULAR_FORMULA>
C17H13ClFN3O

> <PUBCHEM_MOLECULAR_WEIGHT>
329.756023

> <PUBCHEM_OPENEYE_CAN_SMILES>
C1=CC=C(C(=C1)C2C(O2)(CN3C=NC=N3)C4=CC=C(C=C4)F)Cl

> <PUBCHEM_OPENEYE_ISO_SMILES>
C1=CC=C(C(=C1)[C@@H]2[C@@](O2)(CN3C=NC=N3)C4=CC=C(C=C4)F)Cl

> <PUBCHEM_CACTVS_TPSA>
43.2

> <PUBCHEM_MONOISOTOPIC_WEIGHT>
329.073118

> <PUBCHEM_TOTAL_CHARGE>
0

> <PUBCHEM_HEAVY_ATOM_COUNT>
23

> <PUBCHEM_ATOM_DEF_STEREO_COUNT>
2

> <PUBCHEM_ATOM_UDEF_STEREO_COUNT>
0

> <PUBCHEM_BOND_DEF_STEREO_COUNT>
0

> <PUBCHEM_BOND_UDEF_STEREO_COUNT>
0

> <PUBCHEM_ISOTOPIC_ATOM_COUNT>
0

> <PUBCHEM_COMPONENT_COUNT>
1

> <PUBCHEM_CACTVS_TAUTO_COUNT>
1

> <PUBCHEM_COORDINATE_TYPE>
1
5
255

> <PUBCHEM_BONDANNOTATIONS>
10  12  8
10  13  8
11  14  8
11  15  8
12  16  8
13  17  8
14  19  8
15  20  8
16  21  8
17  21  8
19  22  8
20  22  8
4  18  8
4  5  8
5  23  8
6  18  8
6  23  8
7  9  5
8  11  5

$$$$

