4518
  -OEChem-06261200113D

 24 23  0     1  0  0  0  0  0999 V2000
    0.1104    0.8709    1.9888 O   0  5  0  0  0  0  0  0  0  0  0  0
   -0.3001    2.0830   -1.3306 O   0  0  0  0  0  0  0  0  0  0  0  0
    0.0407   -0.3944   -0.2181 N   0  0  2  0  0  0  0  0  0  0  0  0
   -3.5749   -1.3396   -0.0822 N   0  3  0  0  0  0  0  0  0  0  0  0
   -0.0099    0.8766    0.5661 N   0  0  0  0  0  0  0  0  0  0  0  0
    3.7096   -1.0883   -0.1641 N   0  0  0  0  0  0  0  0  0  0  0  0
   -0.1966    2.1772   -0.1025 N   0  0  0  0  0  0  0  0  0  0  0  0
   -1.1312   -1.2594   -0.0644 C   0  0  0  0  0  0  0  0  0  0  0  0
    1.2646   -1.1919   -0.1201 C   0  0  0  0  0  0  0  0  0  0  0  0
   -2.4025   -0.4375   -0.1936 C   0  0  0  0  0  0  0  0  0  0  0  0
    2.4898   -0.2967   -0.2794 C   0  0  0  0  0  0  0  0  0  0  0  0
   -1.1164   -1.7622    0.9112 H   0  0  0  0  0  0  0  0  0  0  0  0
   -1.1215   -2.0377   -0.8377 H   0  0  0  0  0  0  0  0  0  0  0  0
    1.2719   -1.9597   -0.9041 H   0  0  0  0  0  0  0  0  0  0  0  0
    1.3090   -1.7064    0.8489 H   0  0  0  0  0  0  0  0  0  0  0  0
   -2.4811    0.0529   -1.1689 H   0  0  0  0  0  0  0  0  0  0  0  0
   -2.5279    0.3017    0.6019 H   0  0  0  0  0  0  0  0  0  0  0  0
    2.5324    0.4862    0.4836 H   0  0  0  0  0  0  0  0  0  0  0  0
    2.4771    0.1935   -1.2595 H   0  0  0  0  0  0  0  0  0  0  0  0
   -4.4555   -0.8151   -0.1695 H   0  0  0  0  0  0  0  0  0  0  0  0
   -3.5961   -1.8242    0.8252 H   0  0  0  0  0  0  0  0  0  0  0  0
   -3.5728   -2.0579   -0.8187 H   0  0  0  0  0  0  0  0  0  0  0  0
    3.7540   -1.5192    0.7585 H   0  0  0  0  0  0  0  0  0  0  0  0
    4.5198   -0.4735   -0.2314 H   0  0  0  0  0  0  0  0  0  0  0  0
  1  5  1  0  0  0  0
  2  7  2  0  0  0  0
  3  5  1  0  0  0  0
  3  8  1  0  0  0  0
  3  9  1  0  0  0  0
  4 10  1  0  0  0  0
  4 20  1  0  0  0  0
  4 21  1  0  0  0  0
  4 22  1  0  0  0  0
  5  7  1  0  0  0  0
  6 11  1  0  0  0  0
  6 23  1  0  0  0  0
  6 24  1  0  0  0  0
  8 10  1  0  0  0  0
  8 12  1  0  0  0  0
  8 13  1  0  0  0  0
  9 11  1  0  0  0  0
  9 14  1  0  0  0  0
  9 15  1  0  0  0  0
 10 16  1  0  0  0  0
 10 17  1  0  0  0  0
 11 18  1  0  0  0  0
 11 19  1  0  0  0  0
M  CHG  2   1  -1   4   1
M  END
> <PUBCHEM_COMPOUND_CID>
4518

> <PUBCHEM_CONFORMER_RMSD>
0.6

> <PUBCHEM_CONFORMER_DIVERSEORDER>
1
87
126
86
98
115
67
16
106
111
18
58
9
64
119
41
33
95
108
82
99
62
109
124
81
125
101
89
85
102
14
90
107
127
56
96
59
22
40
116
123
128
117
44
2
66
84
43
105
103
71
42
76
77
20
88
94
35
129
34
78
70
55
118
75
120
4
113
68
61
48
19
121
83
7
57
110
11
28
13
93
65
10
72
80
73
60
15
54
74
46
5
100
25
39
79
63
52
29
6
32
112
122
27
37
23
50
114
91
24
3
49
17
104
21
30
53
31
47
8
36
92
26
69
97
45
51
12
38

> <PUBCHEM_MMFF94_PARTIAL_CHARGES>
16
1 -0.86
10 0.5
11 0.27
2 -0.16
20 0.45
21 0.45
22 0.45
23 0.36
24 0.36
3 -0.69
4 -0.85
5 0.34
6 -0.99
7 -0.17
8 0.27
9 0.27

> <PUBCHEM_EFFECTIVE_ROTOR_COUNT>
6

> <PUBCHEM_PHARMACOPHORE_FEATURES>
4
1 4 cation
1 4 donor
1 6 cation
1 6 donor

> <PUBCHEM_HEAVY_ATOM_COUNT>
11

> <PUBCHEM_ATOM_DEF_STEREO_COUNT>
0

> <PUBCHEM_ATOM_UDEF_STEREO_COUNT>
0

> <PUBCHEM_BOND_DEF_STEREO_COUNT>
0

> <PUBCHEM_BOND_UDEF_STEREO_COUNT>
0

> <PUBCHEM_ISOTOPIC_ATOM_COUNT>
0

> <PUBCHEM_COMPONENT_COUNT>
1

> <PUBCHEM_CACTVS_TAUTO_COUNT>
1

> <PUBCHEM_CONFORMER_ID>
000011A600000001

> <PUBCHEM_MMFF94_ENERGY>
9.2688

> <PUBCHEM_FEATURE_SELFOVERLAP>
20.297

> <PUBCHEM_SHAPE_FINGERPRINT>
14128692 85 18262230015431491519
14648413 74 17840585899309071619
20711985 344 18270411623092728569
23211744 25 17397017980257757605

> <PUBCHEM_SHAPE_MULTIPOLES>
189.73
4.36
2.01
1.05
0.57
1.24
0.42
-3.15
-0.5
-0.34
-0.38
0
0.6
0.11

> <PUBCHEM_SHAPE_SELFOVERLAP>
336.594

> <PUBCHEM_SHAPE_VOLUME>
123.4

> <PUBCHEM_COORDINATE_TYPE>
2
5
10

$$$$

