51090931
  -OEChem-06241223002D

 40 42  0     1  0  0  0  0  0999 V2000
    2.0000   -1.4675    0.0000 F   0  0  0  0  0  0  0  0  0  0  0  0
    3.0990   -2.3575    0.0000 F   0  0  0  0  0  0  0  0  0  0  0  0
    2.8900   -0.3685    0.0000 F   0  0  0  0  0  0  0  0  0  0  0  0
    8.0765    2.3575    0.0000 O   0  0  0  0  0  0  0  0  0  0  0  0
   11.6208    1.1622    0.0000 O   0  0  0  0  0  0  0  0  0  0  0  0
   11.6208   -0.4472    0.0000 O   0  0  0  0  0  0  0  0  0  0  0  0
    4.3958   -0.3449    0.0000 N   0  0  3  0  0  0  0  0  0  0  0  0
    7.2105    0.8575    0.0000 N   0  0  0  0  0  0  0  0  0  0  0  0
    5.4785    0.8575    0.0000 C   0  0  3  0  0  0  0  0  0  0  0  0
    4.5649    1.2643    0.0000 C   0  0  0  0  0  0  0  0  0  0  0  0
    5.3739   -0.1370    0.0000 C   0  0  0  0  0  0  0  0  0  0  0  0
    3.8958    0.5211    0.0000 C   0  0  0  0  0  0  0  0  0  0  0  0
    6.3445    1.3575    0.0000 C   0  0  0  0  0  0  0  0  0  0  0  0
    3.9890   -1.2585    0.0000 C   0  0  0  0  0  0  0  0  0  0  0  0
    2.9945   -1.3630    0.0000 C   0  0  0  0  0  0  0  0  0  0  0  0
    8.0765    1.3575    0.0000 C   0  0  0  0  0  0  0  0  0  0  0  0
    8.9426    0.8575    0.0000 C   0  0  0  0  0  0  0  0  0  0  0  0
    9.8086    1.3575    0.0000 C   0  0  0  0  0  0  0  0  0  0  0  0
    8.9426   -0.1425    0.0000 C   0  0  0  0  0  0  0  0  0  0  0  0
   10.6746    0.8575    0.0000 C   0  0  0  0  0  0  0  0  0  0  0  0
   10.6746   -0.1425    0.0000 C   0  0  0  0  0  0  0  0  0  0  0  0
    9.8086   -0.6425    0.0000 C   0  0  0  0  0  0  0  0  0  0  0  0
   12.2044    0.3575    0.0000 C   0  0  0  0  0  0  0  0  0  0  0  0
    5.4460    1.4767    0.0000 H   0  0  0  0  0  0  0  0  0  0  0  0
    4.8749    1.8012    0.0000 H   0  0  0  0  0  0  0  0  0  0  0  0
    4.0633    1.6287    0.0000 H   0  0  0  0  0  0  0  0  0  0  0  0
    5.4387   -0.7536    0.0000 H   0  0  0  0  0  0  0  0  0  0  0  0
    5.9939   -0.1370    0.0000 H   0  0  0  0  0  0  0  0  0  0  0  0
    3.4809    0.9819    0.0000 H   0  0  0  0  0  0  0  0  0  0  0  0
    3.3942    0.1567    0.0000 H   0  0  0  0  0  0  0  0  0  0  0  0
    6.7430    1.8325    0.0000 H   0  0  0  0  0  0  0  0  0  0  0  0
    5.9460    1.8325    0.0000 H   0  0  0  0  0  0  0  0  0  0  0  0
    3.9458   -1.8770    0.0000 H   0  0  0  0  0  0  0  0  0  0  0  0
    4.5906   -1.4085    0.0000 H   0  0  0  0  0  0  0  0  0  0  0  0
    7.2105    0.2375    0.0000 H   0  0  0  0  0  0  0  0  0  0  0  0
    9.8086    1.9775    0.0000 H   0  0  0  0  0  0  0  0  0  0  0  0
    8.4056   -0.4525    0.0000 H   0  0  0  0  0  0  0  0  0  0  0  0
    9.8086   -1.2625    0.0000 H   0  0  0  0  0  0  0  0  0  0  0  0
   12.6653   -0.0572    0.0000 H   0  0  0  0  0  0  0  0  0  0  0  0
   12.6653    0.7722    0.0000 H   0  0  0  0  0  0  0  0  0  0  0  0
  1 15  1  0  0  0  0
  2 15  1  0  0  0  0
  3 15  1  0  0  0  0
  4 16  2  0  0  0  0
  5 20  1  0  0  0  0
  5 23  1  0  0  0  0
  6 21  1  0  0  0  0
  6 23  1  0  0  0  0
  7 11  1  0  0  0  0
  7 12  1  0  0  0  0
  7 14  1  0  0  0  0
  8 13  1  0  0  0  0
  8 16  1  0  0  0  0
  8 35  1  0  0  0  0
  9 10  1  0  0  0  0
  9 11  1  0  0  0  0
  9 13  1  0  0  0  0
  9 24  1  0  0  0  0
 10 12  1  0  0  0  0
 10 25  1  0  0  0  0
 10 26  1  0  0  0  0
 11 27  1  0  0  0  0
 11 28  1  0  0  0  0
 12 29  1  0  0  0  0
 12 30  1  0  0  0  0
 13 31  1  0  0  0  0
 13 32  1  0  0  0  0
 14 15  1  0  0  0  0
 14 33  1  0  0  0  0
 14 34  1  0  0  0  0
 16 17  1  0  0  0  0
 17 18  2  0  0  0  0
 17 19  1  0  0  0  0
 18 20  1  0  0  0  0
 18 36  1  0  0  0  0
 19 22  2  0  0  0  0
 19 37  1  0  0  0  0
 20 21  2  0  0  0  0
 21 22  1  0  0  0  0
 22 38  1  0  0  0  0
 23 39  1  0  0  0  0
 23 40  1  0  0  0  0
M  END
> <PUBCHEM_COMPOUND_CID>
51090931

> <PUBCHEM_COMPOUND_CANONICALIZED>
1

> <PUBCHEM_CACTVS_COMPLEXITY>
433

> <PUBCHEM_CACTVS_HBOND_ACCEPTOR>
7

> <PUBCHEM_CACTVS_HBOND_DONOR>
1

> <PUBCHEM_CACTVS_ROTATABLE_BOND>
4

> <PUBCHEM_CACTVS_SUBSKEYS>
AAADceBzMYAAAAAAAAAAAAAAAAAAAWJAAAAwAAAAAAAAAEgBAAAAHwAQAAAADQTBmBcwDoPABACIAiFSEACCCAAkIAAIiIEOjMgdJjKE9RukMSpk1hGOqYe63BLOIAABAAAAQABAAAIAAACAAAAAAAAAAA==

> <PUBCHEM_IUPAC_OPENEYE_NAME>
N-[[1-(2,2,2-trifluoroethyl)pyrrolidin-3-yl]methyl]-1,3-benzodioxole-5-carboxamide

> <PUBCHEM_IUPAC_CAS_NAME>
N-[[1-(2,2,2-trifluoroethyl)-3-pyrrolidinyl]methyl]-1,3-benzodioxole-5-carboxamide

> <PUBCHEM_IUPAC_NAME>
N-[[1-(2,2,2-trifluoroethyl)pyrrolidin-3-yl]methyl]-1,3-benzodioxole-5-carboxamide

> <PUBCHEM_IUPAC_SYSTEMATIC_NAME>
N-[[1-[2,2,2-tris(fluoranyl)ethyl]pyrrolidin-3-yl]methyl]-1,3-benzodioxole-5-carboxamide

> <PUBCHEM_IUPAC_TRADITIONAL_NAME>
N-[[1-(2,2,2-trifluoroethyl)pyrrolidin-3-yl]methyl]-piperonylamide

> <PUBCHEM_IUPAC_INCHI>
InChI=1S/C15H17F3N2O3/c16-15(17,18)8-20-4-3-10(7-20)6-19-14(21)11-1-2-12-13(5-11)23-9-22-12/h1-2,5,10H,3-4,6-9H2,(H,19,21)

> <PUBCHEM_IUPAC_INCHIKEY>
BDYDMEXOPAGIGA-UHFFFAOYSA-N

> <PUBCHEM_XLOGP3_AA>
2.6

> <PUBCHEM_EXACT_MASS>
330.119127

> <PUBCHEM_MOLECULAR_FORMULA>
C15H17F3N2O3

> <PUBCHEM_MOLECULAR_WEIGHT>
330.30229

> <PUBCHEM_OPENEYE_CAN_SMILES>
C1CN(CC1CNC(=O)C2=CC3=C(C=C2)OCO3)CC(F)(F)F

> <PUBCHEM_OPENEYE_ISO_SMILES>
C1CN(CC1CNC(=O)C2=CC3=C(C=C2)OCO3)CC(F)(F)F

> <PUBCHEM_CACTVS_TPSA>
50.8

> <PUBCHEM_MONOISOTOPIC_WEIGHT>
330.119127

> <PUBCHEM_TOTAL_CHARGE>
0

> <PUBCHEM_HEAVY_ATOM_COUNT>
23

> <PUBCHEM_ATOM_DEF_STEREO_COUNT>
0

> <PUBCHEM_ATOM_UDEF_STEREO_COUNT>
1

> <PUBCHEM_BOND_DEF_STEREO_COUNT>
0

> <PUBCHEM_BOND_UDEF_STEREO_COUNT>
0

> <PUBCHEM_ISOTOPIC_ATOM_COUNT>
0

> <PUBCHEM_COMPONENT_COUNT>
1

> <PUBCHEM_CACTVS_TAUTO_COUNT>
2

> <PUBCHEM_COORDINATE_TYPE>
1
5
255

> <PUBCHEM_BONDANNOTATIONS>
17  18  8
17  19  8
18  20  8
19  22  8
20  21  8
21  22  8
9  13  3

$$$$

