53297375
  -OEChem-07051213112D

 21 20  0     0  0  0  0  0  0999 V2000
    5.6720    2.8285    0.0000 K   0  4  0  0  0  0  0  0  0  0  0  0
    2.2690    1.0369    0.0000 O   0  0  0  0  0  0  0  0  0  0  0  0
    0.5369    4.0369    0.0000 O   0  0  0  0  0  0  0  0  0  0  0  0
    3.1350    5.5369    0.0000 O   0  0  0  0  0  0  0  0  0  0  0  0
    1.4030    5.5369    0.0000 O   0  0  0  0  0  0  0  0  0  0  0  0
    2.2690    4.0369    0.0000 C   0  0  0  0  0  0  0  0  0  0  0  0
    2.2690    2.0369    0.0000 C   0  0  0  0  0  0  0  0  0  0  0  0
    1.4030    3.5369    0.0000 C   0  0  0  0  0  0  0  0  0  0  0  0
    1.4030    2.5369    0.0000 C   0  0  0  0  0  0  0  0  0  0  0  0
    3.1350    3.5369    0.0000 C   0  0  0  0  0  0  0  0  0  0  0  0
    3.1350    2.5369    0.0000 C   0  0  0  0  0  0  0  0  0  0  0  0
    2.2690    5.0369    0.0000 C   0  0  0  0  0  0  0  0  0  0  0  0
    3.1350    0.5369    0.0000 C   0  0  0  0  0  0  0  0  0  0  0  0
    0.8660    2.2269    0.0000 H   0  0  0  0  0  0  0  0  0  0  0  0
    3.6720    3.8469    0.0000 H   0  0  0  0  0  0  0  0  0  0  0  0
    3.6720    2.2269    0.0000 H   0  0  0  0  0  0  0  0  0  0  0  0
    2.8250    0.0000    0.0000 H   0  0  0  0  0  0  0  0  0  0  0  0
    3.6720    0.2269    0.0000 H   0  0  0  0  0  0  0  0  0  0  0  0
    3.4450    1.0739    0.0000 H   0  0  0  0  0  0  0  0  0  0  0  0
    0.0000    3.7269    0.0000 H   0  0  0  0  0  0  0  0  0  0  0  0
    3.1350    6.1569    0.0000 H   0  0  0  0  0  0  0  0  0  0  0  0
  2  7  1  0  0  0  0
  2 13  1  0  0  0  0
  3  8  1  0  0  0  0
  3 20  1  0  0  0  0
  4 12  1  0  0  0  0
  4 21  1  0  0  0  0
  5 12  2  0  0  0  0
  6  8  2  0  0  0  0
  6 10  1  0  0  0  0
  6 12  1  0  0  0  0
  7  9  2  0  0  0  0
  7 11  1  0  0  0  0
  8  9  1  0  0  0  0
  9 14  1  0  0  0  0
 10 11  2  0  0  0  0
 10 15  1  0  0  0  0
 11 16  1  0  0  0  0
 13 17  1  0  0  0  0
 13 18  1  0  0  0  0
 13 19  1  0  0  0  0
M  RAD  1   1   2
M  END
> <PUBCHEM_COMPOUND_CID>
53297375

> <PUBCHEM_COMPOUND_CANONICALIZED>
1

> <PUBCHEM_CACTVS_COMPLEXITY>
168

> <PUBCHEM_CACTVS_HBOND_ACCEPTOR>
4

> <PUBCHEM_CACTVS_HBOND_DONOR>
2

> <PUBCHEM_CACTVS_ROTATABLE_BOND>
2

> <PUBCHEM_CACTVS_SUBSKEYS>
AAADccBwOAAAQAAAAAAAAAAAAAAAAAAAAAAwAAAAAAAAAAABAAAAGgAACAAADASAmAIyDoAABgCIAiDSCAACCAAkIAAIiAEGCMgMJzaGNRqAcWAl4BUIuYeI7CzOIAAACAAIAABAAAAQABAAAAAAAAAAAA==

> <PUBCHEM_IUPAC_OPENEYE_NAME>
2-hydroxy-4-methoxy-benzoic acid; potassium

> <PUBCHEM_IUPAC_CAS_NAME>
2-hydroxy-4-methoxybenzoic acid; potassium

> <PUBCHEM_IUPAC_NAME>
2-hydroxy-4-methoxybenzoic acid; potassium

> <PUBCHEM_IUPAC_SYSTEMATIC_NAME>
4-methoxy-2-oxidanyl-benzoic acid; potassium

> <PUBCHEM_IUPAC_TRADITIONAL_NAME>
2-hydroxy-4-methoxy-benzoic acid; potassium

> <PUBCHEM_IUPAC_INCHI>
InChI=1S/C8H8O4.K/c1-12-5-2-3-6(8(10)11)7(9)4-5;/h2-4,9H,1H3,(H,10,11);

> <PUBCHEM_IUPAC_INCHIKEY>
PLISWQKGWPUZID-UHFFFAOYSA-N

> <PUBCHEM_EXACT_MASS>
207.005965

> <PUBCHEM_MOLECULAR_FORMULA>
C8H8KO4

> <PUBCHEM_MOLECULAR_WEIGHT>
207.24502

> <PUBCHEM_OPENEYE_CAN_SMILES>
COC1=CC(=C(C=C1)C(=O)O)O.[K]

> <PUBCHEM_OPENEYE_ISO_SMILES>
COC1=CC(=C(C=C1)C(=O)O)O.[K]

> <PUBCHEM_CACTVS_TPSA>
66.8

> <PUBCHEM_MONOISOTOPIC_WEIGHT>
207.005965

> <PUBCHEM_TOTAL_CHARGE>
0

> <PUBCHEM_HEAVY_ATOM_COUNT>
13

> <PUBCHEM_ATOM_DEF_STEREO_COUNT>
0

> <PUBCHEM_ATOM_UDEF_STEREO_COUNT>
0

> <PUBCHEM_BOND_DEF_STEREO_COUNT>
0

> <PUBCHEM_BOND_UDEF_STEREO_COUNT>
0

> <PUBCHEM_ISOTOPIC_ATOM_COUNT>
0

> <PUBCHEM_COMPONENT_COUNT>
2

> <PUBCHEM_CACTVS_TAUTO_COUNT>
4

> <PUBCHEM_COORDINATE_TYPE>
1
5
255

> <PUBCHEM_BONDANNOTATIONS>
10  11  8
6  10  8
6  8  8
7  11  8
7  9  8
8  9  8

$$$$

