353825
  -OEChem-07051213003D

 34 37  0     0  0  0  0  0  0999 V2000
   -4.2754    0.1294   -1.7032 O   0  0  0  0  0  0  0  0  0  0  0  0
   -5.2873    0.1610    0.4838 O   0  0  0  0  0  0  0  0  0  0  0  0
    2.6257   -2.8944   -0.1208 O   0  0  0  0  0  0  0  0  0  0  0  0
    1.0401    0.8612    0.1237 N   0  0  0  0  0  0  0  0  0  0  0  0
    0.2440   -0.2880    0.1542 C   0  0  0  0  0  0  0  0  0  0  0  0
    2.4524    0.7263    0.0028 C   0  0  0  0  0  0  0  0  0  0  0  0
   -1.2037   -0.1717    0.2771 C   0  0  0  0  0  0  0  0  0  0  0  0
    3.0317   -0.5590   -0.0838 C   0  0  0  0  0  0  0  0  0  0  0  0
    0.7122   -1.5446    0.0775 C   0  0  0  0  0  0  0  0  0  0  0  0
   -1.9894   -0.0801   -0.8728 C   0  0  0  0  0  0  0  0  0  0  0  0
    2.1677   -1.7610   -0.0489 C   0  0  0  0  0  0  0  0  0  0  0  0
   -3.3547    0.0285   -0.7060 C   0  0  0  0  0  0  0  0  0  0  0  0
   -1.7916   -0.1534    1.5527 C   0  0  0  0  0  0  0  0  0  0  0  0
    0.5071    2.2235    0.2092 C   0  0  0  0  0  0  0  0  0  0  0  0
   -3.9326    0.0467    0.5427 C   0  0  0  0  0  0  0  0  0  0  0  0
    3.3348    1.8234   -0.0375 C   0  0  0  0  0  0  0  0  0  0  0  0
   -3.1770   -0.0427    1.6936 C   0  0  0  0  0  0  0  0  0  0  0  0
    4.4177   -0.7365   -0.2040 C   0  0  0  0  0  0  0  0  0  0  0  0
    4.7178    1.6482   -0.1574 C   0  0  0  0  0  0  0  0  0  0  0  0
    5.2580    0.3707   -0.2406 C   0  0  0  0  0  0  0  0  0  0  0  0
   -5.4976    0.2124   -0.9420 C   0  0  0  0  0  0  0  0  0  0  0  0
    0.0771   -2.4241    0.1031 H   0  0  0  0  0  0  0  0  0  0  0  0
   -1.5523   -0.0910   -1.8661 H   0  0  0  0  0  0  0  0  0  0  0  0
   -1.1760   -0.2236    2.4470 H   0  0  0  0  0  0  0  0  0  0  0  0
    0.9059    2.7407    1.0897 H   0  0  0  0  0  0  0  0  0  0  0  0
    0.7567    2.7940   -0.6931 H   0  0  0  0  0  0  0  0  0  0  0  0
   -0.5819    2.2637    0.3017 H   0  0  0  0  0  0  0  0  0  0  0  0
    2.9727    2.8464    0.0231 H   0  0  0  0  0  0  0  0  0  0  0  0
   -3.6361   -0.0273    2.6756 H   0  0  0  0  0  0  0  0  0  0  0  0
    4.8568   -1.7283   -0.2703 H   0  0  0  0  0  0  0  0  0  0  0  0
    5.3710    2.5159   -0.1857 H   0  0  0  0  0  0  0  0  0  0  0  0
   -6.1482   -0.6210   -1.2310 H   0  0  0  0  0  0  0  0  0  0  0  0
   -6.0014    1.1541   -1.1888 H   0  0  0  0  0  0  0  0  0  0  0  0
    6.3316    0.2377   -0.3336 H   0  0  0  0  0  0  0  0  0  0  0  0
  1 12  1  0  0  0  0
  1 21  1  0  0  0  0
  2 15  1  0  0  0  0
  2 21  1  0  0  0  0
  3 11  2  0  0  0  0
  4  5  1  0  0  0  0
  4  6  1  0  0  0  0
  4 14  1  0  0  0  0
  5  7  1  0  0  0  0
  5  9  2  0  0  0  0
  6  8  1  0  0  0  0
  6 16  2  0  0  0  0
  7 10  2  0  0  0  0
  7 13  1  0  0  0  0
  8 11  1  0  0  0  0
  8 18  2  0  0  0  0
  9 11  1  0  0  0  0
  9 22  1  0  0  0  0
 10 12  1  0  0  0  0
 10 23  1  0  0  0  0
 12 15  2  0  0  0  0
 13 17  2  0  0  0  0
 13 24  1  0  0  0  0
 14 25  1  0  0  0  0
 14 26  1  0  0  0  0
 14 27  1  0  0  0  0
 15 17  1  0  0  0  0
 16 19  1  0  0  0  0
 16 28  1  0  0  0  0
 17 29  1  0  0  0  0
 18 20  1  0  0  0  0
 18 30  1  0  0  0  0
 19 20  2  0  0  0  0
 19 31  1  0  0  0  0
 20 34  1  0  0  0  0
 21 32  1  0  0  0  0
 21 33  1  0  0  0  0
M  END
> <PUBCHEM_COMPOUND_CID>
353825

> <PUBCHEM_CONFORMER_RMSD>
0.6

> <PUBCHEM_CONFORMER_DIVERSEORDER>
2
1

> <PUBCHEM_MMFF94_PARTIAL_CHARGES>
29
1 -0.36
10 -0.15
11 0.47
12 0.08
13 -0.15
14 0.37
15 0.08
16 -0.15
17 -0.15
18 -0.15
19 -0.15
2 -0.36
20 -0.15
21 0.56
22 0.15
23 0.15
24 0.15
28 0.15
29 0.15
3 -0.57
30 0.15
31 0.15
34 0.15
4 -0.57
5 0.07
6 0.1
7 0.03
8 0.09
9 -0.14

> <PUBCHEM_EFFECTIVE_ROTOR_COUNT>
1.6

> <PUBCHEM_PHARMACOPHORE_FEATURES>
8
1 1 acceptor
1 2 acceptor
1 3 acceptor
1 4 cation
5 1 2 12 15 21 rings
6 4 5 6 8 9 11 rings
6 6 8 16 18 19 20 rings
6 7 10 12 13 15 17 rings

> <PUBCHEM_HEAVY_ATOM_COUNT>
21

> <PUBCHEM_ATOM_DEF_STEREO_COUNT>
0

> <PUBCHEM_ATOM_UDEF_STEREO_COUNT>
0

> <PUBCHEM_BOND_DEF_STEREO_COUNT>
0

> <PUBCHEM_BOND_UDEF_STEREO_COUNT>
0

> <PUBCHEM_ISOTOPIC_ATOM_COUNT>
0

> <PUBCHEM_COMPONENT_COUNT>
1

> <PUBCHEM_CACTVS_TAUTO_COUNT>
1

> <PUBCHEM_CONFORMER_ID>
0005662100000002

> <PUBCHEM_MMFF94_ENERGY>
73.3849

> <PUBCHEM_FEATURE_SELFOVERLAP>
40.773

> <PUBCHEM_SHAPE_FINGERPRINT>
10411042 1 17906169904265559382
10693767 8 18041276681969038958
11471102 20 18410854356864937648
11796584 16 14418400131610930948
12107183 9 17467339454341392915
12236239 1 17676203585096794899
12670546 56 17675925404075488792
12730499 353 18272366473083732683
12788726 201 17095796715942754603
13140716 1 18338235939209636370
13631057 29 18044383716871213575
13911987 19 18341318995209346668
14386348 63 17846492643097808899
14528608 73 18261394425212131700
15375358 24 17988924465749235043
15788980 27 16487254365496852474
17138139 8 17461190702041705455
17834072 33 17748828501148612661
1813 80 17680978901773336494
18681886 176 16443353035532774568
19489759 90 16415481536881626873
19862831 5 17675925378458347157
200 152 18186521012171250081
20279233 1 17917986187565361731
20511986 3 17676781932276208129
20612939 158 18408882945337881886
20645477 56 17704353260595880355
20645477 70 18412265072938057438
21033648 29 18059868237503014693
21033650 10 16010683141218858696
21065201 7 16343697759519506147
21267235 1 18334566966937647270
21285901 2 18060145387294177893
21641784 216 18200857578778286852
221357 26 18340779216773513181
22289505 5 18341622563075821700
231179 274 17988927756116131416
23175994 123 18201712942799826957
23402539 116 16008748017902284161
23402655 69 18335706056899903189
23557571 272 16988562441521971567
23559900 14 16916783045781067402
2871803 45 18411134771042800508
29717793 49 17530679939563170756
335352 9 18410571770093142918
33824 294 18412544323474993778
3545911 37 18341891870747513179
4072396 5 18271259274271144402
42630746 31 18335420175561248286
474 4 18335980866187727152
5283173 99 17845381105572751637
542803 24 17676202477042724785
602551 16 16271635690088440450
633830 44 18042661984603505340
77492 1 17676203602287356651
8272917 22 18335979860885948038

> <PUBCHEM_SHAPE_MULTIPOLES>
409.58
11.43
1.84
1.11
4.28
0.4
0.13
-1.88
-2.05
-2.68
-0.02
1.64
-0.02
0.16

> <PUBCHEM_SHAPE_SELFOVERLAP>
924.273

> <PUBCHEM_SHAPE_VOLUME>
215.8

> <PUBCHEM_COORDINATE_TYPE>
2
5
10

$$$$

