17395547
  -OEChem-06241222513D

 49 52  0     0  0  0  0  0  0999 V2000
   -4.7665   -0.3663    1.7588 S   0  0  0  0  0  0  0  0  0  0  0  0
    4.7203   -2.1862   -1.1735 O   0  0  0  0  0  0  0  0  0  0  0  0
    5.9511    1.9245    0.4940 O   0  0  0  0  0  0  0  0  0  0  0  0
    2.6766    0.1685    0.8027 O   0  0  0  0  0  0  0  0  0  0  0  0
    5.0228    0.0343   -0.5209 N   0  0  0  0  0  0  0  0  0  0  0  0
    6.8417   -0.2165    0.7423 N   0  0  0  0  0  0  0  0  0  0  0  0
    1.6130    1.2777   -0.9742 N   0  0  0  0  0  0  0  0  0  0  0  0
   -5.3499    0.8659   -0.4306 N   0  0  0  0  0  0  0  0  0  0  0  0
    6.5655   -1.5631    0.2915 C   0  0  0  0  0  0  0  0  0  0  0  0
    5.3227   -1.3103   -0.5655 C   0  0  0  0  0  0  0  0  0  0  0  0
    6.2306   -2.4787    1.4615 C   0  0  0  0  0  0  0  0  0  0  0  0
    7.7044   -2.1027   -0.5634 C   0  0  0  0  0  0  0  0  0  0  0  0
    5.9305    0.7235    0.2582 C   0  0  0  0  0  0  0  0  0  0  0  0
    3.9099    0.6611   -1.2057 C   0  0  0  0  0  0  0  0  0  0  0  0
    2.6765    0.6606   -0.3209 C   0  0  0  0  0  0  0  0  0  0  0  0
    0.2992    1.4757   -0.4871 C   0  0  0  0  0  0  0  0  0  0  0  0
   -2.2910    1.8667    0.4725 C   0  0  0  0  0  0  0  0  0  0  0  0
   -3.6761    2.0754    0.9843 C   0  0  0  0  0  0  0  0  0  0  0  0
   -0.6495    2.1187   -1.2823 C   0  0  0  0  0  0  0  0  0  0  0  0
   -0.0472    1.0283    0.7879 C   0  0  0  0  0  0  0  0  0  0  0  0
   -1.9446    2.3142   -0.8026 C   0  0  0  0  0  0  0  0  0  0  0  0
   -1.3422    1.2237    1.2676 C   0  0  0  0  0  0  0  0  0  0  0  0
   -4.6195    0.9344    0.6578 C   0  0  0  0  0  0  0  0  0  0  0  0
   -5.9118   -1.1130    0.7083 C   0  0  0  0  0  0  0  0  0  0  0  0
   -6.0968   -0.3030   -0.4162 C   0  0  0  0  0  0  0  0  0  0  0  0
   -6.5974   -2.3281    0.8680 C   0  0  0  0  0  0  0  0  0  0  0  0
   -7.0004   -0.7264   -1.4149 C   0  0  0  0  0  0  0  0  0  0  0  0
   -7.4858   -2.7238   -0.1351 C   0  0  0  0  0  0  0  0  0  0  0  0
   -7.6862   -1.9350   -1.2625 C   0  0  0  0  0  0  0  0  0  0  0  0
    7.6194    0.0257    1.3484 H   0  0  0  0  0  0  0  0  0  0  0  0
    7.0790   -2.5652    2.1494 H   0  0  0  0  0  0  0  0  0  0  0  0
    5.3782   -2.0969    2.0359 H   0  0  0  0  0  0  0  0  0  0  0  0
    5.9667   -3.4841    1.1153 H   0  0  0  0  0  0  0  0  0  0  0  0
    8.6331   -2.1689    0.0142 H   0  0  0  0  0  0  0  0  0  0  0  0
    7.4708   -3.1004   -0.9513 H   0  0  0  0  0  0  0  0  0  0  0  0
    7.8984   -1.4541   -1.4259 H   0  0  0  0  0  0  0  0  0  0  0  0
    3.6899    0.1011   -2.1206 H   0  0  0  0  0  0  0  0  0  0  0  0
    4.1717    1.6951   -1.4540 H   0  0  0  0  0  0  0  0  0  0  0  0
    1.7825    1.6340   -1.9125 H   0  0  0  0  0  0  0  0  0  0  0  0
   -4.0923    2.9979    0.5574 H   0  0  0  0  0  0  0  0  0  0  0  0
   -3.6550    2.2543    2.0677 H   0  0  0  0  0  0  0  0  0  0  0  0
   -0.3928    2.4718   -2.2778 H   0  0  0  0  0  0  0  0  0  0  0  0
    0.6310    0.5237    1.4614 H   0  0  0  0  0  0  0  0  0  0  0  0
   -2.6747    2.8149   -1.4330 H   0  0  0  0  0  0  0  0  0  0  0  0
   -1.5984    0.8725    2.2638 H   0  0  0  0  0  0  0  0  0  0  0  0
   -6.4460   -2.9490    1.7455 H   0  0  0  0  0  0  0  0  0  0  0  0
   -7.1646   -0.1180   -2.2997 H   0  0  0  0  0  0  0  0  0  0  0  0
   -8.0266   -3.6608   -0.0312 H   0  0  0  0  0  0  0  0  0  0  0  0
   -8.3811   -2.2590   -2.0323 H   0  0  0  0  0  0  0  0  0  0  0  0
  1 23  1  0  0  0  0
  1 24  1  0  0  0  0
  2 10  2  0  0  0  0
  3 13  2  0  0  0  0
  4 15  2  0  0  0  0
  5 10  1  0  0  0  0
  5 13  1  0  0  0  0
  5 14  1  0  0  0  0
  6  9  1  0  0  0  0
  6 13  1  0  0  0  0
  6 30  1  0  0  0  0
  7 15  1  0  0  0  0
  7 16  1  0  0  0  0
  7 39  1  0  0  0  0
  8 23  2  0  0  0  0
  8 25  1  0  0  0  0
  9 10  1  0  0  0  0
  9 11  1  0  0  0  0
  9 12  1  0  0  0  0
 11 31  1  0  0  0  0
 11 32  1  0  0  0  0
 11 33  1  0  0  0  0
 12 34  1  0  0  0  0
 12 35  1  0  0  0  0
 12 36  1  0  0  0  0
 14 15  1  0  0  0  0
 14 37  1  0  0  0  0
 14 38  1  0  0  0  0
 16 19  2  0  0  0  0
 16 20  1  0  0  0  0
 17 18  1  0  0  0  0
 17 21  2  0  0  0  0
 17 22  1  0  0  0  0
 18 23  1  0  0  0  0
 18 40  1  0  0  0  0
 18 41  1  0  0  0  0
 19 21  1  0  0  0  0
 19 42  1  0  0  0  0
 20 22  2  0  0  0  0
 20 43  1  0  0  0  0
 21 44  1  0  0  0  0
 22 45  1  0  0  0  0
 24 25  1  0  0  0  0
 24 26  2  0  0  0  0
 25 27  2  0  0  0  0
 26 28  1  0  0  0  0
 26 46  1  0  0  0  0
 27 29  1  0  0  0  0
 27 47  1  0  0  0  0
 28 29  2  0  0  0  0
 28 48  1  0  0  0  0
 29 49  1  0  0  0  0
M  END
> <PUBCHEM_COMPOUND_CID>
17395547

> <PUBCHEM_CONFORMER_RMSD>
1

> <PUBCHEM_CONFORMER_DIVERSEORDER>
1
51
77
70
44
29
42
108
8
116
72
62
19
14
105
91
50
37
78
40
49
52
32
115
17
58
23
104
57
107
90
43
63
103
39
87
89
61
98
122
117
68
31
9
22
30
85
10
74
81
28
96
97
24
71
113
65
27
79
80
56
75
12
45
109
25
47
48
64
93
53
110
35
15
36
16
69
106
55
112
86
54
94
66
83
6
33
76
95
119
84
5
7
59
60
26
120
34
11
4
99
88
114
46
18
20
111
73
41
13
67
100
2
121
82
123
3
102
101
92
21
38
118

> <PUBCHEM_MMFF94_PARTIAL_CHARGES>
37
1 -0.08
10 0.57
13 0.69
14 0.36
15 0.57
16 0.12
17 -0.14
18 0.32
19 -0.15
2 -0.57
20 -0.15
21 -0.15
22 -0.15
23 0.2
24 0.04
25 0.23
26 -0.15
27 -0.15
28 -0.15
29 -0.15
3 -0.57
30 0.37
39 0.37
4 -0.57
42 0.15
43 0.15
44 0.15
45 0.15
46 0.15
47 0.15
48 0.15
49 0.15
5 -0.42
6 -0.73
7 -0.55
8 -0.57
9 0.36

> <PUBCHEM_EFFECTIVE_ROTOR_COUNT>
6.6

> <PUBCHEM_PHARMACOPHORE_FEATURES>
11
1 2 acceptor
1 3 acceptor
1 4 acceptor
1 6 donor
1 7 donor
1 8 acceptor
3 9 11 12 hydrophobe
5 1 8 23 24 25 rings
5 5 6 9 10 13 rings
6 16 17 19 20 21 22 rings
6 24 25 26 27 28 29 rings

> <PUBCHEM_HEAVY_ATOM_COUNT>
29

> <PUBCHEM_ATOM_DEF_STEREO_COUNT>
0

> <PUBCHEM_ATOM_UDEF_STEREO_COUNT>
0

> <PUBCHEM_BOND_DEF_STEREO_COUNT>
0

> <PUBCHEM_BOND_UDEF_STEREO_COUNT>
0

> <PUBCHEM_ISOTOPIC_ATOM_COUNT>
0

> <PUBCHEM_COMPONENT_COUNT>
1

> <PUBCHEM_CACTVS_TAUTO_COUNT>
4

> <PUBCHEM_CONFORMER_ID>
01096F5B00000001

> <PUBCHEM_MMFF94_ENERGY>
67.8207

> <PUBCHEM_FEATURE_SELFOVERLAP>
55.889

> <PUBCHEM_SHAPE_FINGERPRINT>
10 15 6122512302693764783
10066227 112 10087641489895137713
10369192 42 11024108759804471745
10391435 84 18200036123079103955
10906281 52 7492994189794258232
10939801 23 18042125350009483708
11103572 95 17896029005627320327
11135926 11 17846780737294466931
11456790 92 13984941892287856358
11475781 23 13758071844981631140
11761917 87 15647878483892995182
11991303 11 14548722981113279489
12522641 68 17411074133319694405
12895837 130 9799688200028366819
13668630 136 18202847634694043847
13782708 43 18409447024741348448
14020679 6 14345807036402038423
14211702 104 18334284401176575767
14359421 15 18200324226151682395
14849402 71 7204477940640599395
14931854 50 17489315166229910339
15183329 4 14117517653419696060
15188451 53 18408886243398368701
15352257 5 18333731329399924187
15510800 12 18342167835592874587
15519825 34 16371016157321054183
16126227 98 8214138565000383061
16994733 274 9223224131282288452
18603816 31 17822302241622616383
190975 80 17749109967477411840
19958102 18 17632856425651084043
20028762 73 18411978096382774486
2026 5 18412546496998172351
20691028 202 8502368927940340047
21130935 74 18262236733335180224
21197605 99 18334010593202155414
21424621 283 8214145161738067941
21585483 132 17916596452355957618
21637258 2 18335420158307727357
21756936 100 8646764492077605089
21987483 16 18189901915626385051
22149856 69 16443326690008104795
22864921 47 18260557726939306255
23081809 10 18342161285203524740
23389318 12 18059566967723157092
23522609 53 18052501556752586652
23559900 14 17774715355959364245
2838139 119 10952053329860134075
3014063 24 18343019995257498188
3383291 50 18409446960491711347
3504750 166 18125157388104938672
3627633 1 18341614879702135077
397830 11 17894922814702978592
406291 66 18336828598654672903
4173938 188 18334021580192326418
44880568 143 17418381293981162189
4938544 92 16370990959069539249
50009960 94 17771918396390105114
5104073 3 15214129946421672892
5223283 242 7997428143587306544
5470011 282 17988921112112967909
5718773 13 18411138043211709573
5758199 1 6555413119871814605
5937810 71 9006760021985917586
6376802 90 18048031071844840421
7226269 152 10015867578906189343
96874 4 18412267220622288911
9689198 14 8502378849451664781

> <PUBCHEM_SHAPE_MULTIPOLES>
563.12
26.3
3.01
1.43
5.68
0.88
-0.09
23.26
1.57
-0.9
0.09
-0.93
0.14
-0.82

> <PUBCHEM_SHAPE_SELFOVERLAP>
1215.67

> <PUBCHEM_SHAPE_VOLUME>
311.6

> <PUBCHEM_COORDINATE_TYPE>
2
5
10

$$$$

