5281804
  -OEChem-07051212593D

 33 35  0     0  0  0  0  0  0999 V2000
   -0.8638    2.0626   -0.0230 O   0  0  0  0  0  0  0  0  0  0  0  0
   -5.4262    0.7495    0.0336 O   0  0  0  0  0  0  0  0  0  0  0  0
   -2.0883   -2.6266   -0.0106 O   0  0  0  0  0  0  0  0  0  0  0  0
    0.3839   -1.8219   -0.0708 O   0  0  0  0  0  0  0  0  0  0  0  0
    6.5474   -0.3258    0.0485 O   0  0  0  0  0  0  0  0  0  0  0  0
   -1.4128   -0.3016   -0.0162 C   0  0  0  0  0  0  0  0  0  0  0  0
    0.9807    0.4828   -0.0283 C   0  0  0  0  0  0  0  0  0  0  0  0
   -1.7810    1.0433   -0.0114 C   0  0  0  0  0  0  0  0  0  0  0  0
    0.0190   -0.6539   -0.0368 C   0  0  0  0  0  0  0  0  0  0  0  0
    2.4372    0.2706   -0.0079 C   0  0  0  0  0  0  0  0  0  0  0  0
   -2.3918   -1.2986   -0.0052 C   0  0  0  0  0  0  0  0  0  0  0  0
   -3.1301    1.3990    0.0044 C   0  0  0  0  0  0  0  0  0  0  0  0
    0.4672    1.7222   -0.0210 C   0  0  0  0  0  0  0  0  0  0  0  0
   -4.1091    0.4055    0.0159 C   0  0  0  0  0  0  0  0  0  0  0  0
   -3.7405   -0.9404    0.0111 C   0  0  0  0  0  0  0  0  0  0  0  0
    3.1116    0.1547    1.2092 C   0  0  0  0  0  0  0  0  0  0  0  0
    3.1492    0.1854   -1.2063 C   0  0  0  0  0  0  0  0  0  0  0  0
    4.4919   -0.0456    1.2280 C   0  0  0  0  0  0  0  0  0  0  0  0
    4.5295   -0.0151   -1.1874 C   0  0  0  0  0  0  0  0  0  0  0  0
    5.2008   -0.1306    0.0297 C   0  0  0  0  0  0  0  0  0  0  0  0
   -6.3751   -0.3156    0.0445 C   0  0  0  0  0  0  0  0  0  0  0  0
   -3.4195    2.4469    0.0083 H   0  0  0  0  0  0  0  0  0  0  0  0
    1.0692    2.6226   -0.0101 H   0  0  0  0  0  0  0  0  0  0  0  0
   -4.4580   -1.7546    0.0195 H   0  0  0  0  0  0  0  0  0  0  0  0
    2.5733    0.2178    2.1519 H   0  0  0  0  0  0  0  0  0  0  0  0
    2.6401    0.2726   -2.1633 H   0  0  0  0  0  0  0  0  0  0  0  0
    5.0094   -0.1349    2.1793 H   0  0  0  0  0  0  0  0  0  0  0  0
    5.0702   -0.0796   -2.1278 H   0  0  0  0  0  0  0  0  0  0  0  0
   -1.1280   -2.7574   -0.0025 H   0  0  0  0  0  0  0  0  0  0  0  0
   -6.2896   -0.9219    0.9528 H   0  0  0  0  0  0  0  0  0  0  0  0
   -6.3125   -0.9203   -0.8666 H   0  0  0  0  0  0  0  0  0  0  0  0
   -7.3710    0.1393    0.0575 H   0  0  0  0  0  0  0  0  0  0  0  0
    6.8737   -0.3593   -0.8672 H   0  0  0  0  0  0  0  0  0  0  0  0
  1  8  1  0  0  0  0
  1 13  1  0  0  0  0
  2 14  1  0  0  0  0
  2 21  1  0  0  0  0
  3 11  1  0  0  0  0
  3 29  1  0  0  0  0
  4  9  2  0  0  0  0
  5 20  1  0  0  0  0
  5 33  1  0  0  0  0
  6  8  1  0  0  0  0
  6  9  1  0  0  0  0
  6 11  2  0  0  0  0
  7  9  1  0  0  0  0
  7 10  1  0  0  0  0
  7 13  2  0  0  0  0
  8 12  2  0  0  0  0
 10 16  2  0  0  0  0
 10 17  1  0  0  0  0
 11 15  1  0  0  0  0
 12 14  1  0  0  0  0
 12 22  1  0  0  0  0
 13 23  1  0  0  0  0
 14 15  2  0  0  0  0
 15 24  1  0  0  0  0
 16 18  1  0  0  0  0
 16 25  1  0  0  0  0
 17 19  2  0  0  0  0
 17 26  1  0  0  0  0
 18 20  2  0  0  0  0
 18 27  1  0  0  0  0
 19 20  1  0  0  0  0
 19 28  1  0  0  0  0
 21 30  1  0  0  0  0
 21 31  1  0  0  0  0
 21 32  1  0  0  0  0
M  END
> <PUBCHEM_COMPOUND_CID>
5281804

> <PUBCHEM_CONFORMER_RMSD>
0.6

> <PUBCHEM_CONFORMER_DIVERSEORDER>
1
2

> <PUBCHEM_MMFF94_PARTIAL_CHARGES>
30
1 -0.16
10 0.03
11 0.08
12 -0.15
13 -0.07
14 0.08
15 -0.15
16 -0.15
17 -0.15
18 -0.15
19 -0.15
2 -0.36
20 0.08
21 0.28
22 0.15
23 0.15
24 0.15
25 0.15
26 0.15
27 0.15
28 0.15
29 0.45
3 -0.53
33 0.45
4 -0.57
5 -0.53
6 0.09
7 -0.01
8 0.08
9 0.47

> <PUBCHEM_EFFECTIVE_ROTOR_COUNT>
2

> <PUBCHEM_PHARMACOPHORE_FEATURES>
8
1 1 acceptor
1 2 acceptor
1 3 donor
1 4 acceptor
1 5 donor
6 1 6 7 8 9 13 rings
6 10 16 17 18 19 20 rings
6 6 8 11 12 14 15 rings

> <PUBCHEM_HEAVY_ATOM_COUNT>
21

> <PUBCHEM_ATOM_DEF_STEREO_COUNT>
0

> <PUBCHEM_ATOM_UDEF_STEREO_COUNT>
0

> <PUBCHEM_BOND_DEF_STEREO_COUNT>
0

> <PUBCHEM_BOND_UDEF_STEREO_COUNT>
0

> <PUBCHEM_ISOTOPIC_ATOM_COUNT>
0

> <PUBCHEM_COMPONENT_COUNT>
1

> <PUBCHEM_CACTVS_TAUTO_COUNT>
10

> <PUBCHEM_CONFORMER_ID>
0050980C00000001

> <PUBCHEM_MMFF94_ENERGY>
74.6504

> <PUBCHEM_FEATURE_SELFOVERLAP>
40.623

> <PUBCHEM_SHAPE_FINGERPRINT>
10 15 17822025186103611648
10062212 137 18272371932087275543
11045977 3 18041005007511033104
11315181 36 17822006497793798400
11646440 116 18113890547169373025
11963148 33 18342743983786384203
12011746 2 18409169922283840645
12107183 9 16982392149992656968
12236239 1 17775284971912148588
12390115 104 18043520815007429481
12403259 415 18334870427789117048
12403814 3 17489872661094694245
12788726 201 18272092754881360072
13140716 1 18266179431392245785
13288520 33 18410292510254024213
13533116 47 17489315226032106250
13760787 19 17489586740378523683
13862211 1 18410858742142688887
14386348 63 17894628158661111332
15042514 8 18339641115043956259
15099037 51 18410290298762448917
15196674 1 18338516318394627693
17804303 29 18408604725645987001
1813 80 16988277689981404462
19141452 34 17676490510344988535
19489759 90 17894911841103429585
200 152 16487259885068040884
20028762 73 18042406838051360503
20279233 1 17749384862896515134
20645477 70 16370998663823850724
21033648 29 16878238544313300097
21267235 1 18412257320817078035
21279426 13 18118399781097516389
2297311 6 18334287691242843412
23035841 295 18341895212295308226
23175994 123 17240481394743097257
23402539 116 18334300850732248015
23536379 177 16056603170521330653
23557571 272 18186798123656749888
23559900 14 18334293133356758612
23569943 247 17534043440328462879
26918003 58 16732984215278697674
3004659 81 18201716250261832980
335352 9 18410856543177430013
34797466 226 18040704845823012892
3545911 37 18408885152576811294
4072396 5 18340496641752002203
4340502 62 15068337900066022581
465052 167 17988917860263633187
5104073 3 18265891368041153217
5385378 56 18264197184016506731
542803 24 17561081406280504500

> <PUBCHEM_SHAPE_MULTIPOLES>
402.82
12.96
1.64
0.89
1.63
0.29
-0.01
0.91
-0.26
-1.47
0.02
1.14
-0.02
-0.03

> <PUBCHEM_SHAPE_SELFOVERLAP>
895.772

> <PUBCHEM_SHAPE_VOLUME>
214.2

> <PUBCHEM_COORDINATE_TYPE>
2
5
10

$$$$

