17396269
  -OEChem-06241222552D

 35 37  0     0  0  0  0  0  0999 V2000
    2.0000   -2.2694    0.0000 Br  0  0  0  0  0  0  0  0  0  0  0  0
    5.4641   -4.2694    0.0000 Br  0  0  0  0  0  0  0  0  0  0  0  0
    3.7320   -1.2694    0.0000 S   0  0  0  0  0  0  0  0  0  0  0  0
    2.9230    3.3184    0.0000 S   0  0  0  0  0  0  0  0  0  0  0  0
    2.7320   -1.2694    0.0000 O   0  0  0  0  0  0  0  0  0  0  0  0
    4.7320   -1.2694    0.0000 O   0  0  0  0  0  0  0  0  0  0  0  0
    3.7320   -0.2694    0.0000 N   0  0  0  0  0  0  0  0  0  0  0  0
    3.7320    1.7306    0.0000 N   0  0  0  0  0  0  0  0  0  0  0  0
    4.5411    3.3184    0.0000 N   0  0  0  0  0  0  0  0  0  0  0  0
    2.8660    0.2306    0.0000 C   0  0  0  0  0  0  0  0  0  0  0  0
    4.5981    0.2306    0.0000 C   0  0  0  0  0  0  0  0  0  0  0  0
    2.8660    1.2306    0.0000 C   0  0  0  0  0  0  0  0  0  0  0  0
    4.5981    1.2306    0.0000 C   0  0  0  0  0  0  0  0  0  0  0  0
    3.7320   -2.2694    0.0000 C   0  0  0  0  0  0  0  0  0  0  0  0
    3.7320    2.7306    0.0000 C   0  0  0  0  0  0  0  0  0  0  0  0
    2.8660   -2.7694    0.0000 C   0  0  0  0  0  0  0  0  0  0  0  0
    4.5981   -2.7694    0.0000 C   0  0  0  0  0  0  0  0  0  0  0  0
    4.5981   -3.7694    0.0000 C   0  0  0  0  0  0  0  0  0  0  0  0
    2.8660   -3.7694    0.0000 C   0  0  0  0  0  0  0  0  0  0  0  0
    3.2320    4.2694    0.0000 C   0  0  0  0  0  0  0  0  0  0  0  0
    4.2320    4.2694    0.0000 C   0  0  0  0  0  0  0  0  0  0  0  0
    3.7320   -4.2694    0.0000 C   0  0  0  0  0  0  0  0  0  0  0  0
    2.2554    0.3382    0.0000 H   0  0  0  0  0  0  0  0  0  0  0  0
    2.6540   -0.3520    0.0000 H   0  0  0  0  0  0  0  0  0  0  0  0
    4.8101   -0.3520    0.0000 H   0  0  0  0  0  0  0  0  0  0  0  0
    5.2087    0.3382    0.0000 H   0  0  0  0  0  0  0  0  0  0  0  0
    2.6540    1.8132    0.0000 H   0  0  0  0  0  0  0  0  0  0  0  0
    2.2554    1.1229    0.0000 H   0  0  0  0  0  0  0  0  0  0  0  0
    5.2087    1.1229    0.0000 H   0  0  0  0  0  0  0  0  0  0  0  0
    4.8101    1.8132    0.0000 H   0  0  0  0  0  0  0  0  0  0  0  0
    5.1350   -2.4594    0.0000 H   0  0  0  0  0  0  0  0  0  0  0  0
    2.3291   -4.0794    0.0000 H   0  0  0  0  0  0  0  0  0  0  0  0
    2.8676    4.7710    0.0000 H   0  0  0  0  0  0  0  0  0  0  0  0
    4.5965    4.7710    0.0000 H   0  0  0  0  0  0  0  0  0  0  0  0
    3.7320   -4.8894    0.0000 H   0  0  0  0  0  0  0  0  0  0  0  0
  1 16  1  0  0  0  0
  2 18  1  0  0  0  0
  3  5  2  0  0  0  0
  3  6  2  0  0  0  0
  3  7  1  0  0  0  0
  3 14  1  0  0  0  0
  4 15  1  0  0  0  0
  4 20  1  0  0  0  0
  7 10  1  0  0  0  0
  7 11  1  0  0  0  0
  8 12  1  0  0  0  0
  8 13  1  0  0  0  0
  8 15  1  0  0  0  0
  9 15  2  0  0  0  0
  9 21  1  0  0  0  0
 10 12  1  0  0  0  0
 10 23  1  0  0  0  0
 10 24  1  0  0  0  0
 11 13  1  0  0  0  0
 11 25  1  0  0  0  0
 11 26  1  0  0  0  0
 12 27  1  0  0  0  0
 12 28  1  0  0  0  0
 13 29  1  0  0  0  0
 13 30  1  0  0  0  0
 14 16  2  0  0  0  0
 14 17  1  0  0  0  0
 16 19  1  0  0  0  0
 17 18  2  0  0  0  0
 17 31  1  0  0  0  0
 18 22  1  0  0  0  0
 19 22  2  0  0  0  0
 19 32  1  0  0  0  0
 20 21  2  0  0  0  0
 20 33  1  0  0  0  0
 21 34  1  0  0  0  0
 22 35  1  0  0  0  0
M  END
> <PUBCHEM_COMPOUND_CID>
17396269

> <PUBCHEM_COMPOUND_CANONICALIZED>
1

> <PUBCHEM_CACTVS_COMPLEXITY>
480

> <PUBCHEM_CACTVS_HBOND_ACCEPTOR>
6

> <PUBCHEM_CACTVS_HBOND_DONOR>
0

> <PUBCHEM_CACTVS_ROTATABLE_BOND>
3

> <PUBCHEM_CACTVS_SUBSKEYS>
AAADccBzMABgGAAAAAAAAAAAAAAAAWAAAAA8QAAAAAAAAAABwAAAHARAQAABqADFUgS9kZMIEAqkADBnZHBC8LlxCjxJyBwYIKiIYCKAGRCQIAAogAKIijcAAAAAAAAEAAgAAEAAAAgAEAAAgAAAAAAAAA==

> <PUBCHEM_IUPAC_OPENEYE_NAME>
2-[4-(2,5-dibromophenyl)sulfonylpiperazin-1-yl]thiazole

> <PUBCHEM_IUPAC_CAS_NAME>
2-[4-(2,5-dibromophenyl)sulfonyl-1-piperazinyl]thiazole

> <PUBCHEM_IUPAC_NAME>
2-[4-(2,5-dibromophenyl)sulfonylpiperazin-1-yl]-1,3-thiazole

> <PUBCHEM_IUPAC_SYSTEMATIC_NAME>
2-[4-[2,5-bis(bromanyl)phenyl]sulfonylpiperazin-1-yl]-1,3-thiazole

> <PUBCHEM_IUPAC_TRADITIONAL_NAME>
2-[4-(2,5-dibromophenyl)sulfonylpiperazino]thiazole

> <PUBCHEM_IUPAC_INCHI>
InChI=1S/C13H13Br2N3O2S2/c14-10-1-2-11(15)12(9-10)22(19,20)18-6-4-17(5-7-18)13-16-3-8-21-13/h1-3,8-9H,4-7H2

> <PUBCHEM_IUPAC_INCHIKEY>
AEFKWEDTSKVZPX-UHFFFAOYSA-N

> <PUBCHEM_XLOGP3_AA>
3.4

> <PUBCHEM_EXACT_MASS>
466.879546

> <PUBCHEM_MOLECULAR_FORMULA>
C13H13Br2N3O2S2

> <PUBCHEM_MOLECULAR_WEIGHT>
467.19922

> <PUBCHEM_OPENEYE_CAN_SMILES>
C1CN(CCN1C2=NC=CS2)S(=O)(=O)C3=C(C=CC(=C3)Br)Br

> <PUBCHEM_OPENEYE_ISO_SMILES>
C1CN(CCN1C2=NC=CS2)S(=O)(=O)C3=C(C=CC(=C3)Br)Br

> <PUBCHEM_CACTVS_TPSA>
90.1

> <PUBCHEM_MONOISOTOPIC_WEIGHT>
464.881593

> <PUBCHEM_TOTAL_CHARGE>
0

> <PUBCHEM_HEAVY_ATOM_COUNT>
22

> <PUBCHEM_ATOM_DEF_STEREO_COUNT>
0

> <PUBCHEM_ATOM_UDEF_STEREO_COUNT>
0

> <PUBCHEM_BOND_DEF_STEREO_COUNT>
0

> <PUBCHEM_BOND_UDEF_STEREO_COUNT>
0

> <PUBCHEM_ISOTOPIC_ATOM_COUNT>
0

> <PUBCHEM_COMPONENT_COUNT>
1

> <PUBCHEM_CACTVS_TAUTO_COUNT>
1

> <PUBCHEM_COORDINATE_TYPE>
1
5
255

> <PUBCHEM_BONDANNOTATIONS>
14  16  8
14  17  8
16  19  8
17  18  8
18  22  8
19  22  8
20  21  8
4  15  8
4  20  8
9  15  8
9  21  8

$$$$

