11954152
  -OEChem-07051213073D

 50 53  0     1  0  0  0  0  0999 V2000
   -0.2526    2.7684   -0.2343 O   0  0  0  0  0  0  0  0  0  0  0  0
    5.0485    0.9730   -0.4975 O   0  0  0  0  0  0  0  0  0  0  0  0
   -5.1025   -0.0374   -1.5949 O   0  0  0  0  0  0  0  0  0  0  0  0
    1.8609   -0.8036   -0.4267 C   0  0  2  0  0  0  0  0  0  0  0  0
    2.6784    0.4339   -0.0144 C   0  0  2  0  0  0  0  0  0  0  0  0
    0.5553   -0.9290    0.3613 C   0  0  1  0  0  0  0  0  0  0  0  0
   -0.3361    0.3453    0.0942 C   0  0  1  0  0  0  0  0  0  0  0  0
   -1.7105    0.2324    0.8718 C   0  0  2  0  0  0  0  0  0  0  0  0
    1.8524    1.6737   -0.3585 C   0  0  0  0  0  0  0  0  0  0  0  0
    0.4649    1.6651    0.3183 C   0  0  1  0  0  0  0  0  0  0  0  0
    3.9204    0.2218   -0.9027 C   0  0  2  0  0  0  0  0  0  0  0  0
    2.8783   -1.9406   -0.3591 C   0  0  0  0  0  0  0  0  0  0  0  0
   -0.1886   -2.2325    0.0125 C   0  0  0  0  0  0  0  0  0  0  0  0
    4.2006   -1.2884   -0.7990 C   0  0  0  0  0  0  0  0  0  0  0  0
   -2.3412   -1.0854    0.3947 C   0  0  0  0  0  0  0  0  0  0  0  0
   -1.5508   -2.3319    0.6991 C   0  0  0  0  0  0  0  0  0  0  0  0
    3.0835    0.4815    1.4799 C   0  0  0  0  0  0  0  0  0  0  0  0
   -2.7155    1.3919    0.6226 C   0  0  0  0  0  0  0  0  0  0  0  0
   -1.4965    0.2179    2.4081 C   0  0  0  0  0  0  0  0  0  0  0  0
   -3.3448    1.3616   -0.7576 C   0  0  0  0  0  0  0  0  0  0  0  0
   -3.4371   -1.1686   -0.3790 C   0  0  0  0  0  0  0  0  0  0  0  0
   -4.0672    0.0510   -0.9389 C   0  0  0  0  0  0  0  0  0  0  0  0
    1.5836   -0.7044   -1.4895 H   0  0  0  0  0  0  0  0  0  0  0  0
    0.8025   -0.9836    1.4260 H   0  0  0  0  0  0  0  0  0  0  0  0
   -0.5878    0.3338   -0.9784 H   0  0  0  0  0  0  0  0  0  0  0  0
    1.7122    1.7466   -1.4462 H   0  0  0  0  0  0  0  0  0  0  0  0
    2.3921    2.5890   -0.0825 H   0  0  0  0  0  0  0  0  0  0  0  0
    0.5773    1.8538    1.3902 H   0  0  0  0  0  0  0  0  0  0  0  0
    3.7027    0.4828   -1.9455 H   0  0  0  0  0  0  0  0  0  0  0  0
    2.6071   -2.7732   -1.0162 H   0  0  0  0  0  0  0  0  0  0  0  0
    2.9697   -2.3371    0.6584 H   0  0  0  0  0  0  0  0  0  0  0  0
    0.4152   -3.0998    0.3043 H   0  0  0  0  0  0  0  0  0  0  0  0
   -0.3254   -2.2966   -1.0754 H   0  0  0  0  0  0  0  0  0  0  0  0
    5.0021   -1.5228   -0.0894 H   0  0  0  0  0  0  0  0  0  0  0  0
    4.5192   -1.6767   -1.7730 H   0  0  0  0  0  0  0  0  0  0  0  0
   -1.4335   -2.4605    1.7802 H   0  0  0  0  0  0  0  0  0  0  0  0
   -2.0635   -3.2329    0.3407 H   0  0  0  0  0  0  0  0  0  0  0  0
    3.6595    1.3890    1.6959 H   0  0  0  0  0  0  0  0  0  0  0  0
    2.2201    0.4945    2.1506 H   0  0  0  0  0  0  0  0  0  0  0  0
    3.7008   -0.3730    1.7743 H   0  0  0  0  0  0  0  0  0  0  0  0
   -2.2685    2.3695    0.8190 H   0  0  0  0  0  0  0  0  0  0  0  0
   -3.5360    1.3134    1.3530 H   0  0  0  0  0  0  0  0  0  0  0  0
   -1.1472    1.1925    2.7668 H   0  0  0  0  0  0  0  0  0  0  0  0
   -2.4348   -0.0033    2.9321 H   0  0  0  0  0  0  0  0  0  0  0  0
   -0.7714   -0.5265    2.7446 H   0  0  0  0  0  0  0  0  0  0  0  0
   -2.6046    1.4785   -1.5546 H   0  0  0  0  0  0  0  0  0  0  0  0
   -4.0744    2.1744   -0.8411 H   0  0  0  0  0  0  0  0  0  0  0  0
    0.2423    3.5781   -0.0221 H   0  0  0  0  0  0  0  0  0  0  0  0
   -3.8355   -2.1207   -0.7128 H   0  0  0  0  0  0  0  0  0  0  0  0
    5.3835    0.6119    0.3399 H   0  0  0  0  0  0  0  0  0  0  0  0
  1 10  1  0  0  0  0
  1 48  1  0  0  0  0
  2 11  1  0  0  0  0
  2 50  1  0  0  0  0
  3 22  2  0  0  0  0
  4  5  1  0  0  0  0
  4  6  1  0  0  0  0
  4 12  1  0  0  0  0
  4 23  1  0  0  0  0
  5  9  1  0  0  0  0
  5 11  1  0  0  0  0
  5 17  1  0  0  0  0
  6  7  1  0  0  0  0
  6 13  1  0  0  0  0
  6 24  1  0  0  0  0
  7  8  1  0  0  0  0
  7 10  1  0  0  0  0
  7 25  1  0  0  0  0
  8 15  1  0  0  0  0
  8 18  1  0  0  0  0
  8 19  1  0  0  0  0
  9 10  1  0  0  0  0
  9 26  1  0  0  0  0
  9 27  1  0  0  0  0
 10 28  1  0  0  0  0
 11 14  1  0  0  0  0
 11 29  1  0  0  0  0
 12 14  1  0  0  0  0
 12 30  1  0  0  0  0
 12 31  1  0  0  0  0
 13 16  1  0  0  0  0
 13 32  1  0  0  0  0
 13 33  1  0  0  0  0
 14 34  1  0  0  0  0
 14 35  1  0  0  0  0
 15 16  1  0  0  0  0
 15 21  2  0  0  0  0
 16 36  1  0  0  0  0
 16 37  1  0  0  0  0
 17 38  1  0  0  0  0
 17 39  1  0  0  0  0
 17 40  1  0  0  0  0
 18 20  1  0  0  0  0
 18 41  1  0  0  0  0
 18 42  1  0  0  0  0
 19 43  1  0  0  0  0
 19 44  1  0  0  0  0
 19 45  1  0  0  0  0
 20 22  1  0  0  0  0
 20 46  1  0  0  0  0
 20 47  1  0  0  0  0
 21 22  1  0  0  0  0
 21 49  1  0  0  0  0
M  END
> <PUBCHEM_COMPOUND_CID>
11954152

> <PUBCHEM_CONFORMER_RMSD>
0.6

> <PUBCHEM_CONFORMER_DIVERSEORDER>
1

> <PUBCHEM_MMFF94_PARTIAL_CHARGES>
14
1 -0.68
10 0.28
11 0.28
15 -0.28
16 0.14
2 -0.68
20 0.06
21 -0.14
22 0.49
3 -0.57
48 0.4
49 0.15
50 0.4
8 0.14

> <PUBCHEM_EFFECTIVE_ROTOR_COUNT>
1.8

> <PUBCHEM_PHARMACOPHORE_FEATURES>
9
1 1 acceptor
1 1 donor
1 2 acceptor
1 2 donor
1 3 acceptor
5 4 5 11 12 14 rings
6 4 5 6 7 9 10 rings
6 6 7 8 13 15 16 rings
6 8 15 18 20 21 22 rings

> <PUBCHEM_HEAVY_ATOM_COUNT>
22

> <PUBCHEM_ATOM_DEF_STEREO_COUNT>
7

> <PUBCHEM_ATOM_UDEF_STEREO_COUNT>
0

> <PUBCHEM_BOND_DEF_STEREO_COUNT>
0

> <PUBCHEM_BOND_UDEF_STEREO_COUNT>
0

> <PUBCHEM_ISOTOPIC_ATOM_COUNT>
0

> <PUBCHEM_COMPONENT_COUNT>
1

> <PUBCHEM_CACTVS_TAUTO_COUNT>
5

> <PUBCHEM_CONFORMER_ID>
00B667E800000001

> <PUBCHEM_MMFF94_ENERGY>
78.3854

> <PUBCHEM_FEATURE_SELFOVERLAP>
45.785

> <PUBCHEM_SHAPE_FINGERPRINT>
10366900 7 17894347753162951608
10498660 4 18341606006377451718
10693767 8 18116452477866335527
10863032 1 18260831526687548027
10967382 1 18339353188450931794
11796584 16 15719399425814139941
11961588 58 17632302237493886285
12011746 2 18407758127778622260
12236239 1 17821721767537747913
12403260 363 18195817481647206450
12553582 1 18338497708507114496
12592029 89 18202288026336319507
12596599 1 17604977294552764510
12788726 201 18339085989687563648
13140716 1 18266166408655967074
13224815 77 18186516609708445794
14289901 80 15502365760123287594
14790565 3 17977654635143534329
15163728 17 15696604475290680815
15196674 1 18410288138125009982
15238133 3 14979960297939488046
15375358 24 18413388718245155680
16752209 62 18200317752638005840
16945 1 18264764359563288187
17349148 13 18261115187839613706
17357779 13 18411139151408529692
17492 54 18342184371058214879
1813 80 13912610424826644419
18186145 218 18410012169386089051
18769570 83 16845302635012335028
192875 21 18334864938815027235
19862831 5 18411418422982627599
200 152 17530965778442821239
20775438 99 16959615376256397327
20871999 31 18411415120215957229
21029758 11 18334013878160695785
21069387 34 17967810565557214949
21285901 2 18200601400809964877
21637258 2 15502671377580609719
221357 26 18410302415166034109
22182313 1 18196659484479313489
22393880 68 18337681926502837927
2334 1 18409440375863013746
23402539 116 18261673774074438358
23493267 7 17274526720066824328
23559900 14 18262522481525217200
25 1 18272374217473918775
2748010 2 18337379470489761514
2838139 119 16342326694964544799
2871803 45 18409447012009251934
296302 2 17275101721730126302
3286 77 17168150082782149802
335352 9 18194956564206052086
34934 24 18341334409936395418
4028521 119 18413670218590958039
4280585 95 17249480042877097950
5104073 3 18409721881453083402
74978 22 18341888550468677162
9709674 26 18337955563043101991

> <PUBCHEM_SHAPE_MULTIPOLES>
435.14
8.29
2.31
1.34
1.28
0.12
-0.54
-0.06
3.54
0.05
0.04
-0.7
-0.12
0.31

> <PUBCHEM_SHAPE_SELFOVERLAP>
935.189

> <PUBCHEM_SHAPE_VOLUME>
238.7

> <PUBCHEM_COORDINATE_TYPE>
2
5
10

$$$$

