23672568
  -OEChem-07051213042D

 49 51  0     1  0  0  0  0  0999 V2000
    7.0468   -1.2154    0.0000 S   0  0  0  0  0  0  0  0  0  0  0  0
    4.4487    0.2846    0.0000 S   0  0  0  0  0  0  0  0  0  0  0  0
    6.1808    3.2846    0.0000 Na  0  3  0  0  0  0  0  0  0  0  0  0
    9.6267    0.9973    0.0000 O   0  0  0  0  0  0  0  0  0  0  0  0
    6.1808    2.2846    0.0000 O   0  5  0  0  0  0  0  0  0  0  0  0
   10.8540   -0.2059    0.0000 O   0  0  0  0  0  0  0  0  0  0  0  0
    7.9128    2.2846    0.0000 O   0  0  0  0  0  0  0  0  0  0  0  0
   11.0380   -2.8453    0.0000 O   0  0  0  0  0  0  0  0  0  0  0  0
    7.9128    0.2846    0.0000 N   0  0  0  0  0  0  0  0  0  0  0  0
    9.6267   -1.4281    0.0000 N   0  0  0  0  0  0  0  0  0  0  0  0
    2.6691    0.3778    0.0000 N   0  0  0  0  0  0  0  0  0  0  0  0
    3.4782    1.7791    0.0000 N   0  0  0  0  0  0  0  0  0  0  0  0
    2.0000    1.1210    0.0000 N   0  0  0  0  0  0  0  0  0  0  0  0
    2.5000    1.9870    0.0000 N   0  0  0  0  0  0  0  0  0  0  0  0
    7.9128   -0.7154    0.0000 C   0  0  1  0  0  0  0  0  0  0  0  0
    8.9211   -0.7196    0.0000 C   0  0  1  0  0  0  0  0  0  0  0  0
    8.9211    0.2887    0.0000 C   0  0  0  0  0  0  0  0  0  0  0  0
    7.0468    0.7846    0.0000 C   0  0  0  0  0  0  0  0  0  0  0  0
    6.1808    0.2846    0.0000 C   0  0  0  0  0  0  0  0  0  0  0  0
    6.1808   -0.7154    0.0000 C   0  0  0  0  0  0  0  0  0  0  0  0
    5.3147    0.7846    0.0000 C   0  0  0  0  0  0  0  0  0  0  0  0
   10.5932   -1.1713    0.0000 C   0  0  0  0  0  0  0  0  0  0  0  0
    7.0468    1.7846    0.0000 C   0  0  0  0  0  0  0  0  0  0  0  0
   11.2988   -1.8799    0.0000 C   0  0  1  0  0  0  0  0  0  0  0  0
   12.2653   -1.6230    0.0000 C   0  0  0  0  0  0  0  0  0  0  0  0
    3.5827    0.7846    0.0000 C   0  0  0  0  0  0  0  0  0  0  0  0
   12.9710   -2.3316    0.0000 C   0  0  0  0  0  0  0  0  0  0  0  0
   12.5261   -0.6576    0.0000 C   0  0  0  0  0  0  0  0  0  0  0  0
   13.9374   -2.0748    0.0000 C   0  0  0  0  0  0  0  0  0  0  0  0
   13.4926   -0.4008    0.0000 C   0  0  0  0  0  0  0  0  0  0  0  0
   14.1982   -1.1094    0.0000 C   0  0  0  0  0  0  0  0  0  0  0  0
    2.4612   -0.6003    0.0000 C   0  0  0  0  0  0  0  0  0  0  0  0
    8.1311   -1.5369    0.0000 H   0  0  0  0  0  0  0  0  0  0  0  0
    8.6821   -1.2916    0.0000 H   0  0  0  0  0  0  0  0  0  0  0  0
    5.5702   -0.6078    0.0000 H   0  0  0  0  0  0  0  0  0  0  0  0
    5.9687   -1.2980    0.0000 H   0  0  0  0  0  0  0  0  0  0  0  0
    9.4650   -2.0267    0.0000 H   0  0  0  0  0  0  0  0  0  0  0  0
    5.7133    1.2595    0.0000 H   0  0  0  0  0  0  0  0  0  0  0  0
    4.9162    1.2595    0.0000 H   0  0  0  0  0  0  0  0  0  0  0  0
   11.7363   -2.3192    0.0000 H   0  0  0  0  0  0  0  0  0  0  0  0
   11.4755   -3.2846    0.0000 H   0  0  0  0  0  0  0  0  0  0  0  0
   12.8093   -2.9301    0.0000 H   0  0  0  0  0  0  0  0  0  0  0  0
   12.0886   -0.2183    0.0000 H   0  0  0  0  0  0  0  0  0  0  0  0
   14.3749   -2.5141    0.0000 H   0  0  0  0  0  0  0  0  0  0  0  0
   13.6543    0.1977    0.0000 H   0  0  0  0  0  0  0  0  0  0  0  0
   14.7974   -0.9501    0.0000 H   0  0  0  0  0  0  0  0  0  0  0  0
    1.8548   -0.4714    0.0000 H   0  0  0  0  0  0  0  0  0  0  0  0
    2.3323   -1.2068    0.0000 H   0  0  0  0  0  0  0  0  0  0  0  0
    3.0677   -0.7292    0.0000 H   0  0  0  0  0  0  0  0  0  0  0  0
  1 15  1  0  0  0  0
  1 20  1  0  0  0  0
  2 21  1  0  0  0  0
  2 26  1  0  0  0  0
  4 17  2  0  0  0  0
  5 23  1  0  0  0  0
  6 22  2  0  0  0  0
  7 23  2  0  0  0  0
 24  8  1  1  0  0  0
  8 41  1  0  0  0  0
  9 15  1  0  0  0  0
  9 17  1  0  0  0  0
  9 18  1  0  0  0  0
 16 10  1  1  0  0  0
 10 22  1  0  0  0  0
 10 37  1  0  0  0  0
 11 13  1  0  0  0  0
 11 26  1  0  0  0  0
 11 32  1  0  0  0  0
 12 14  1  0  0  0  0
 12 26  2  0  0  0  0
 13 14  2  0  0  0  0
 15 16  1  0  0  0  0
 15 33  1  6  0  0  0
 16 17  1  0  0  0  0
 16 34  1  0  0  0  0
 18 19  2  0  0  0  0
 18 23  1  0  0  0  0
 19 20  1  0  0  0  0
 19 21  1  0  0  0  0
 20 35  1  0  0  0  0
 20 36  1  0  0  0  0
 21 38  1  0  0  0  0
 21 39  1  0  0  0  0
 22 24  1  0  0  0  0
 24 25  1  0  0  0  0
 24 40  1  0  0  0  0
 25 27  2  0  0  0  0
 25 28  1  0  0  0  0
 27 29  1  0  0  0  0
 27 42  1  0  0  0  0
 28 30  2  0  0  0  0
 28 43  1  0  0  0  0
 29 31  2  0  0  0  0
 29 44  1  0  0  0  0
 30 31  1  0  0  0  0
 30 45  1  0  0  0  0
 31 46  1  0  0  0  0
 32 47  1  0  0  0  0
 32 48  1  0  0  0  0
 32 49  1  0  0  0  0
M  CHG  2   3   1   5  -1
M  END
> <PUBCHEM_COMPOUND_CID>
23672568

> <PUBCHEM_COMPOUND_CANONICALIZED>
1

> <PUBCHEM_CACTVS_COMPLEXITY>
783

> <PUBCHEM_CACTVS_HBOND_ACCEPTOR>
10

> <PUBCHEM_CACTVS_HBOND_DONOR>
2

> <PUBCHEM_CACTVS_ROTATABLE_BOND>
7

> <PUBCHEM_CACTVS_SUBSKEYS>
AAADceB7uCBgAAAAAAAAAAAAAABYAWAAAAAwQAAAAAAQAAABwAAAHgQYCAAADDzl2AazGIfIAgiqAiXSfAICEANggJANyIHICMiKdjqglTGUcAAk1gG4mQeYyKCOAAAAAAAAAAAAAAAAAAAAAAAAAAAAAA==

> <PUBCHEM_IUPAC_OPENEYE_NAME>
sodium (6R,7R)-7-[[(2R)-2-hydroxy-2-phenyl-acetyl]amino]-3-[(1-methyltetrazol-5-yl)sulfanylmethyl]-8-oxo-5-thia-1-azabicyclo[4.2.0]oct-2-ene-2-carboxylate

> <PUBCHEM_IUPAC_CAS_NAME>
sodium (6R,7R)-7-[[(2R)-2-hydroxy-1-oxo-2-phenylethyl]amino]-3-[[(1-methyl-5-tetrazolyl)thio]methyl]-8-oxo-5-thia-1-azabicyclo[4.2.0]oct-2-ene-2-carboxylate

> <PUBCHEM_IUPAC_NAME>
sodium (6R,7R)-7-[[(2R)-2-hydroxy-2-phenylacetyl]amino]-3-[(1-methyltetrazol-5-yl)sulfanylmethyl]-8-oxo-5-thia-1-azabicyclo[4.2.0]oct-2-ene-2-carboxylate

> <PUBCHEM_IUPAC_SYSTEMATIC_NAME>
sodium (6R,7R)-3-[(1-methyl-1,2,3,4-tetrazol-5-yl)sulfanylmethyl]-8-oxidanylidene-7-[[(2R)-2-oxidanyl-2-phenyl-ethanoyl]amino]-5-thia-1-azabicyclo[4.2.0]oct-2-ene-2-carboxylate

> <PUBCHEM_IUPAC_TRADITIONAL_NAME>
sodium (6R,7R)-7-[[(2R)-2-hydroxy-2-phenyl-acetyl]amino]-8-keto-3-[[(1-methyltetrazol-5-yl)thio]methyl]-5-thia-1-azabicyclo[4.2.0]oct-2-ene-2-carboxylate

> <PUBCHEM_IUPAC_INCHI>
InChI=1S/C18H18N6O5S2.Na/c1-23-18(20-21-22-23)31-8-10-7-30-16-11(15(27)24(16)12(10)17(28)29)19-14(26)13(25)9-5-3-2-4-6-9;/h2-6,11,13,16,25H,7-8H2,1H3,(H,19,26)(H,28,29);/q;+1/p-1/t11-,13-,16-;/m1./s1

> <PUBCHEM_IUPAC_INCHIKEY>
OJMNTWPPFNMOCJ-CFOLLTDRSA-M

> <PUBCHEM_EXACT_MASS>
484.059954

> <PUBCHEM_MOLECULAR_FORMULA>
C18H17N6NaO5S2

> <PUBCHEM_MOLECULAR_WEIGHT>
484.484549

> <PUBCHEM_OPENEYE_CAN_SMILES>
CN1C(=NN=N1)SCC2=C(N3C(C(C3=O)NC(=O)C(C4=CC=CC=C4)O)SC2)C(=O)[O-].[Na+]

> <PUBCHEM_OPENEYE_ISO_SMILES>
CN1C(=NN=N1)SCC2=C(N3[C@@H]([C@@H](C3=O)NC(=O)[C@@H](C4=CC=CC=C4)O)SC2)C(=O)[O-].[Na+]

> <PUBCHEM_CACTVS_TPSA>
204

> <PUBCHEM_MONOISOTOPIC_WEIGHT>
484.059954

> <PUBCHEM_TOTAL_CHARGE>
0

> <PUBCHEM_HEAVY_ATOM_COUNT>
32

> <PUBCHEM_ATOM_DEF_STEREO_COUNT>
3

> <PUBCHEM_ATOM_UDEF_STEREO_COUNT>
0

> <PUBCHEM_BOND_DEF_STEREO_COUNT>
0

> <PUBCHEM_BOND_UDEF_STEREO_COUNT>
0

> <PUBCHEM_ISOTOPIC_ATOM_COUNT>
0

> <PUBCHEM_COMPONENT_COUNT>
2

> <PUBCHEM_CACTVS_TAUTO_COUNT>
4

> <PUBCHEM_NONSTANDARDBOND>
3  5  7

> <PUBCHEM_COORDINATE_TYPE>
1
5
255

> <PUBCHEM_BONDANNOTATIONS>
16  10  5
11  13  8
11  26  8
12  14  8
12  26  8
13  14  8
15  33  6
25  27  8
25  28  8
27  29  8
28  30  8
29  31  8
30  31  8
24  8  5

$$$$

