11954186
  -OEChem-07051213073D

 29 29  0     1  0  0  0  0  0999 V2000
   -1.6946   -1.3180   -0.1386 O   0  0  0  0  0  0  0  0  0  0  0  0
    0.2013    2.3429    0.2025 O   0  0  0  0  0  0  0  0  0  0  0  0
   -1.9453    1.3050   -1.2159 O   0  0  0  0  0  0  0  0  0  0  0  0
    0.3417   -2.4198   -0.3941 O   0  0  0  0  0  0  0  0  0  0  0  0
    2.9236    0.1794   -1.3586 O   0  0  0  0  0  0  0  0  0  0  0  0
    1.7262   -0.1044    0.6171 N   0  0  0  0  0  0  0  0  0  0  0  0
    0.3948   -0.0614    0.0483 C   0  0  2  0  0  0  0  0  0  0  0  0
   -0.3921    1.1190    0.6289 C   0  0  2  0  0  0  0  0  0  0  0  0
   -1.8581    1.0765    0.1922 C   0  0  2  0  0  0  0  0  0  0  0  0
   -2.4565   -0.2957    0.5129 C   0  0  1  0  0  0  0  0  0  0  0  0
   -0.3410   -1.3836    0.3111 C   0  0  1  0  0  0  0  0  0  0  0  0
   -3.8976   -0.4264    0.0343 C   0  0  0  0  0  0  0  0  0  0  0  0
    2.8760    0.0205   -0.1416 C   0  0  0  0  0  0  0  0  0  0  0  0
    4.1217   -0.0339    0.7016 C   0  0  0  0  0  0  0  0  0  0  0  0
    0.5004    0.0798   -1.0349 H   0  0  0  0  0  0  0  0  0  0  0  0
   -0.3471    1.0978    1.7255 H   0  0  0  0  0  0  0  0  0  0  0  0
   -2.4200    1.8806    0.6791 H   0  0  0  0  0  0  0  0  0  0  0  0
   -2.4324   -0.4743    1.5955 H   0  0  0  0  0  0  0  0  0  0  0  0
   -0.3243   -1.6362    1.3791 H   0  0  0  0  0  0  0  0  0  0  0  0
    1.8083   -0.2263    1.6226 H   0  0  0  0  0  0  0  0  0  0  0  0
   -3.9676   -0.3635   -1.0570 H   0  0  0  0  0  0  0  0  0  0  0  0
   -4.2992   -1.4071    0.3126 H   0  0  0  0  0  0  0  0  0  0  0  0
   -4.5341    0.3465    0.4755 H   0  0  0  0  0  0  0  0  0  0  0  0
    1.1278    2.3354    0.4978 H   0  0  0  0  0  0  0  0  0  0  0  0
   -1.5987    0.5217   -1.6752 H   0  0  0  0  0  0  0  0  0  0  0  0
    0.1483   -3.2536    0.0672 H   0  0  0  0  0  0  0  0  0  0  0  0
    5.0003   -0.1177    0.0559 H   0  0  0  0  0  0  0  0  0  0  0  0
    4.1991    0.8794    1.2978 H   0  0  0  0  0  0  0  0  0  0  0  0
    4.0916   -0.9022    1.3660 H   0  0  0  0  0  0  0  0  0  0  0  0
  1 10  1  0  0  0  0
  1 11  1  0  0  0  0
  2  8  1  0  0  0  0
  2 24  1  0  0  0  0
  3  9  1  0  0  0  0
  3 25  1  0  0  0  0
  4 11  1  0  0  0  0
  4 26  1  0  0  0  0
  5 13  2  0  0  0  0
  6  7  1  0  0  0  0
  6 13  1  0  0  0  0
  6 20  1  0  0  0  0
  7  8  1  0  0  0  0
  7 11  1  0  0  0  0
  7 15  1  0  0  0  0
  8  9  1  0  0  0  0
  8 16  1  0  0  0  0
  9 10  1  0  0  0  0
  9 17  1  0  0  0  0
 10 12  1  0  0  0  0
 10 18  1  0  0  0  0
 11 19  1  0  0  0  0
 12 21  1  0  0  0  0
 12 22  1  0  0  0  0
 12 23  1  0  0  0  0
 13 14  1  0  0  0  0
 14 27  1  0  0  0  0
 14 28  1  0  0  0  0
 14 29  1  0  0  0  0
M  END
> <PUBCHEM_COMPOUND_CID>
11954186

> <PUBCHEM_CONFORMER_RMSD>
0.6

> <PUBCHEM_CONFORMER_DIVERSEORDER>
1
13
12
4
8
5
11
10
3
9
7
2
6

> <PUBCHEM_MMFF94_PARTIAL_CHARGES>
17
1 -0.56
10 0.28
11 0.56
13 0.57
14 0.06
2 -0.68
20 0.37
24 0.4
25 0.4
26 0.4
3 -0.68
4 -0.68
5 -0.57
6 -0.73
7 0.3
8 0.28
9 0.28

> <PUBCHEM_EFFECTIVE_ROTOR_COUNT>
3.2

> <PUBCHEM_PHARMACOPHORE_FEATURES>
10
1 1 acceptor
1 2 acceptor
1 2 donor
1 3 acceptor
1 3 donor
1 4 acceptor
1 4 donor
1 5 acceptor
1 6 donor
6 1 7 8 9 10 11 rings

> <PUBCHEM_HEAVY_ATOM_COUNT>
14

> <PUBCHEM_ATOM_DEF_STEREO_COUNT>
4

> <PUBCHEM_ATOM_UDEF_STEREO_COUNT>
1

> <PUBCHEM_BOND_DEF_STEREO_COUNT>
0

> <PUBCHEM_BOND_UDEF_STEREO_COUNT>
0

> <PUBCHEM_ISOTOPIC_ATOM_COUNT>
0

> <PUBCHEM_COMPONENT_COUNT>
1

> <PUBCHEM_CACTVS_TAUTO_COUNT>
2

> <PUBCHEM_CONFORMER_ID>
00B6680A00000001

> <PUBCHEM_MMFF94_ENERGY>
26.8994

> <PUBCHEM_FEATURE_SELFOVERLAP>
50.805

> <PUBCHEM_SHAPE_FINGERPRINT>
11132069 177 18409446972990698683
11206711 2 18413116060804720501
12032990 46 18335695031534439387
13024252 1 16343984710726958649
13380535 21 18047178928683760625
14614273 12 18271528709863810365
14911166 2 18410580561305615631
14993402 34 18411695456978666677
15775835 57 18060410305520193052
16945 1 18409442575244751019
17846911 113 18408325488289013986
193761 8 17760645163165919715
20201158 50 17894627046164497602
20588541 1 18412538808652622187
20645476 183 17845639340581461710
21028194 46 18343020025417260162
21061003 4 18334009488962627905
21501502 16 18120651593996751731
22802520 49 17824530005770449918
2334 1 17833268619324619067
23402539 116 18188220848547229750
23463225 33 18342177816695703250
23552423 10 18054504983065119315
23559900 14 18260831532058551778
2748010 2 18193550301671607303
43471831 8 18340488983931302362
53812653 11 18262234409346565583
6333449 129 18333737905363801184

> <PUBCHEM_SHAPE_MULTIPOLES>
253.79
5.73
1.81
0.91
2.57
0.09
0.18
0.28
-0.11
-0.49
0.12
0.28
-0.13
0.13

> <PUBCHEM_SHAPE_SELFOVERLAP>
504.945

> <PUBCHEM_SHAPE_VOLUME>
147.8

> <PUBCHEM_COORDINATE_TYPE>
2
5
10

$$$$

