443441
  -OEChem-07051213023D

 40 41  0     1  0  0  0  0  0999 V2000
   -0.9012   -2.6886   -0.7553 O   0  0  0  0  0  0  0  0  0  0  0  0
   -3.1125   -2.4212    0.8977 O   0  0  0  0  0  0  0  0  0  0  0  0
   -1.1334    0.7490   -0.8367 N   0  0  0  0  0  0  0  0  0  0  0  0
    3.3895   -0.0738   -0.6557 C   0  0  0  0  0  0  0  0  0  0  0  0
    1.9353   -0.0633   -0.1695 C   0  0  0  0  0  0  0  0  0  0  0  0
    4.3991    0.3059    0.4298 C   0  0  0  0  0  0  0  0  0  0  0  0
    0.8998   -0.4572   -1.2187 C   0  0  0  0  0  0  0  0  0  0  0  0
    5.8328    0.2478   -0.1029 C   0  0  0  0  0  0  0  0  0  0  0  0
   -0.4851   -0.3597   -0.6713 C   0  0  0  0  0  0  0  0  0  0  0  0
   -1.0388   -1.5505    0.0701 C   0  0  1  0  0  0  0  0  0  0  0  0
    6.8457    0.5948    0.9879 C   0  0  0  0  0  0  0  0  0  0  0  0
   -2.4855   -1.4578    0.4702 C   0  0  0  0  0  0  0  0  0  0  0  0
   -3.1283   -0.1393    0.3271 C   0  0  0  0  0  0  0  0  0  0  0  0
   -2.4278    0.8905   -0.3116 C   0  0  0  0  0  0  0  0  0  0  0  0
    8.2691    0.5703    0.4543 C   0  0  0  0  0  0  0  0  0  0  0  0
   -4.4242    0.0629    0.8165 C   0  0  0  0  0  0  0  0  0  0  0  0
   -3.0564    2.1357   -0.4469 C   0  0  0  0  0  0  0  0  0  0  0  0
   -5.0305    1.3090    0.6728 C   0  0  0  0  0  0  0  0  0  0  0  0
   -4.3475    2.3454    0.0421 C   0  0  0  0  0  0  0  0  0  0  0  0
    3.4876    0.6185   -1.5010 H   0  0  0  0  0  0  0  0  0  0  0  0
    3.6268   -1.0748   -1.0370 H   0  0  0  0  0  0  0  0  0  0  0  0
    1.8476   -0.7385    0.6914 H   0  0  0  0  0  0  0  0  0  0  0  0
    1.6983    0.9390    0.2110 H   0  0  0  0  0  0  0  0  0  0  0  0
    4.1805    1.3158    0.7971 H   0  0  0  0  0  0  0  0  0  0  0  0
    4.2944   -0.3782    1.2805 H   0  0  0  0  0  0  0  0  0  0  0  0
    0.9837    0.2097   -2.0854 H   0  0  0  0  0  0  0  0  0  0  0  0
    1.0957   -1.4715   -1.5797 H   0  0  0  0  0  0  0  0  0  0  0  0
    6.0422   -0.7567   -0.4904 H   0  0  0  0  0  0  0  0  0  0  0  0
    5.9399    0.9465   -0.9417 H   0  0  0  0  0  0  0  0  0  0  0  0
   -0.4439   -1.6986    0.9772 H   0  0  0  0  0  0  0  0  0  0  0  0
    6.7589   -0.1171    1.8169 H   0  0  0  0  0  0  0  0  0  0  0  0
    6.6314    1.5912    1.3918 H   0  0  0  0  0  0  0  0  0  0  0  0
    8.3977    1.2967   -0.3545 H   0  0  0  0  0  0  0  0  0  0  0  0
    8.9769    0.8203    1.2508 H   0  0  0  0  0  0  0  0  0  0  0  0
    8.5268   -0.4216    0.0697 H   0  0  0  0  0  0  0  0  0  0  0  0
   -4.9721   -0.7341    1.3114 H   0  0  0  0  0  0  0  0  0  0  0  0
   -2.5398    2.9567   -0.9395 H   0  0  0  0  0  0  0  0  0  0  0  0
   -1.4339   -2.5477   -1.5570 H   0  0  0  0  0  0  0  0  0  0  0  0
   -6.0351    1.4718    1.0520 H   0  0  0  0  0  0  0  0  0  0  0  0
   -4.8190    3.3172   -0.0715 H   0  0  0  0  0  0  0  0  0  0  0  0
  1 10  1  0  0  0  0
  1 38  1  0  0  0  0
  2 12  2  0  0  0  0
  3  9  2  0  0  0  0
  3 14  1  0  0  0  0
  4  5  1  0  0  0  0
  4  6  1  0  0  0  0
  4 20  1  0  0  0  0
  4 21  1  0  0  0  0
  5  7  1  0  0  0  0
  5 22  1  0  0  0  0
  5 23  1  0  0  0  0
  6  8  1  0  0  0  0
  6 24  1  0  0  0  0
  6 25  1  0  0  0  0
  7  9  1  0  0  0  0
  7 26  1  0  0  0  0
  7 27  1  0  0  0  0
  8 11  1  0  0  0  0
  8 28  1  0  0  0  0
  8 29  1  0  0  0  0
  9 10  1  0  0  0  0
 10 12  1  0  0  0  0
 10 30  1  0  0  0  0
 11 15  1  0  0  0  0
 11 31  1  0  0  0  0
 11 32  1  0  0  0  0
 12 13  1  0  0  0  0
 13 14  1  0  0  0  0
 13 16  2  0  0  0  0
 14 17  2  0  0  0  0
 15 33  1  0  0  0  0
 15 34  1  0  0  0  0
 15 35  1  0  0  0  0
 16 18  1  0  0  0  0
 16 36  1  0  0  0  0
 17 19  1  0  0  0  0
 17 37  1  0  0  0  0
 18 19  2  0  0  0  0
 18 39  1  0  0  0  0
 19 40  1  0  0  0  0
M  END
> <PUBCHEM_COMPOUND_CID>
443441

> <PUBCHEM_CONFORMER_RMSD>
0.8

> <PUBCHEM_CONFORMER_DIVERSEORDER>
1
4
47
64
56
46
58
39
49
36
43
15
53
48
29
32
38
2
23
67
28
9
65
11
59
61
52
19
66
3
42
44
31
45
50
22
60
30
5
54
62
34
40
57
33
55
51
12
18
16
14
21
27
8
25
10
20
35
26
17
6
41
63
37
7
24
13

> <PUBCHEM_MMFF94_PARTIAL_CHARGES>
18
1 -0.68
10 0.4
12 0.42
13 0.09
14 0.18
16 -0.15
17 -0.15
18 -0.15
19 -0.15
2 -0.57
3 -0.63
36 0.15
37 0.15
38 0.4
39 0.15
40 0.15
7 0.06
9 0.33

> <PUBCHEM_EFFECTIVE_ROTOR_COUNT>
6.2

> <PUBCHEM_PHARMACOPHORE_FEATURES>
9
1 1 acceptor
1 1 donor
1 15 hydrophobe
1 2 acceptor
1 3 acceptor
3 4 5 7 hydrophobe
3 6 8 11 hydrophobe
6 13 14 16 17 18 19 rings
6 3 9 10 12 13 14 rings

> <PUBCHEM_HEAVY_ATOM_COUNT>
19

> <PUBCHEM_ATOM_DEF_STEREO_COUNT>
0

> <PUBCHEM_ATOM_UDEF_STEREO_COUNT>
1

> <PUBCHEM_BOND_DEF_STEREO_COUNT>
0

> <PUBCHEM_BOND_UDEF_STEREO_COUNT>
0

> <PUBCHEM_ISOTOPIC_ATOM_COUNT>
0

> <PUBCHEM_COMPONENT_COUNT>
1

> <PUBCHEM_CACTVS_TAUTO_COUNT>
44

> <PUBCHEM_CONFORMER_ID>
0006C43100000001

> <PUBCHEM_MMFF94_ENERGY>
25.6384

> <PUBCHEM_FEATURE_SELFOVERLAP>
45.713

> <PUBCHEM_SHAPE_FINGERPRINT>
10 15 18342736300294632312
10319926 262 18338244769593675968
10411042 1 17979071588299971339
11089746 13 13912324569574141946
11315181 36 18059858320728853188
12236239 1 17203602670961779420
12616971 3 16702296837495067534
13140716 1 18125981808036793857
13288520 33 10231754491758767315
13403585 85 18410573968330544616
13668630 136 12823296819307444848
14844126 61 18129093438396500347
14933364 13 18410573964906054176
15183329 4 13912317993974177268
15348495 7 18337956693384249392
15716309 27 16702305655289811640
16110190 28 18343582907126543436
16945 1 18198878432578735911
17093844 174 18040724636963110682
17780758 139 17703790293019485066
1813 80 15913038872363156382
18643901 69 10159696923580710585
20281389 69 18334860520132716144
20645477 56 18335140899343860740
20871999 31 8142088641362563127
21150785 3 8142080980058564680
21307412 95 9871168515976367825
220451 1 17703794722143629954
23198884 109 4967611676787987084
23522609 53 17416946427697450308
23559900 14 18193251187369941934
2748010 2 17768788095575142591
2838139 119 16370727041338944000
2916195 48 18114184159149025336
5104073 3 18270673302618114899
5364581 5 18193564355206059680
7226269 152 18114183059980386888
9981440 41 18340760533565444955

> <PUBCHEM_SHAPE_MULTIPOLES>
374.29
16.51
2.14
0.99
40.53
0.63
0.03
-7.95
-5.87
-3.66
-0.01
0.09
0.08
0.73

> <PUBCHEM_SHAPE_SELFOVERLAP>
772.177

> <PUBCHEM_SHAPE_VOLUME>
213.4

> <PUBCHEM_COORDINATE_TYPE>
2
5
10

$$$$

