6365330
  -OEChem-07051213093D

 39 39  0     0  0  0  0  0  0999 V2000
   -1.9665    0.9660   -0.1399 C   0  0  0  0  0  0  0  0  0  0  0  0
   -2.4756   -0.4635   -0.5132 C   0  0  0  0  0  0  0  0  0  0  0  0
   -2.0635   -1.6541    0.3782 C   0  0  0  0  0  0  0  0  0  0  0  0
   -0.8988   -2.5158   -0.1443 C   0  0  0  0  0  0  0  0  0  0  0  0
   -2.3785    1.3281    1.3010 C   0  0  0  0  0  0  0  0  0  0  0  0
   -2.6615    1.9732   -1.0855 C   0  0  0  0  0  0  0  0  0  0  0  0
   -0.4755    1.0727   -0.4119 C   0  0  0  0  0  0  0  0  0  0  0  0
    0.4866   -1.9685    0.1280 C   0  0  0  0  0  0  0  0  0  0  0  0
    0.4950    1.4485    0.4382 C   0  0  0  0  0  0  0  0  0  0  0  0
    2.5875   -0.8480   -0.8218 C   0  0  0  0  0  0  0  0  0  0  0  0
    2.5004    0.6786   -1.0187 C   0  0  0  0  0  0  0  0  0  0  0  0
    1.2456   -1.5220   -0.8924 C   0  0  0  0  0  0  0  0  0  0  0  0
    1.9329    1.4243    0.1779 C   0  0  0  0  0  0  0  0  0  0  0  0
    0.9058   -1.9660    1.5735 C   0  0  0  0  0  0  0  0  0  0  0  0
    2.7660    2.0464    1.0309 C   0  0  0  0  0  0  0  0  0  0  0  0
   -2.2248   -0.6887   -1.5588 H   0  0  0  0  0  0  0  0  0  0  0  0
   -3.5748   -0.4266   -0.4861 H   0  0  0  0  0  0  0  0  0  0  0  0
   -2.9340   -2.3247    0.4128 H   0  0  0  0  0  0  0  0  0  0  0  0
   -1.8982   -1.3512    1.4149 H   0  0  0  0  0  0  0  0  0  0  0  0
   -1.0443   -2.7060   -1.2153 H   0  0  0  0  0  0  0  0  0  0  0  0
   -0.9612   -3.5035    0.3323 H   0  0  0  0  0  0  0  0  0  0  0  0
   -2.1665    2.3809    1.5232 H   0  0  0  0  0  0  0  0  0  0  0  0
   -3.4536    1.1757    1.4509 H   0  0  0  0  0  0  0  0  0  0  0  0
   -1.8526    0.7269    2.0494 H   0  0  0  0  0  0  0  0  0  0  0  0
   -2.3260    2.9994   -0.8923 H   0  0  0  0  0  0  0  0  0  0  0  0
   -2.4512    1.7492   -2.1383 H   0  0  0  0  0  0  0  0  0  0  0  0
   -3.7498    1.9521   -0.9560 H   0  0  0  0  0  0  0  0  0  0  0  0
   -0.2007    0.7878   -1.4257 H   0  0  0  0  0  0  0  0  0  0  0  0
    0.2159    1.7783    1.4363 H   0  0  0  0  0  0  0  0  0  0  0  0
    3.1223   -1.0784    0.1043 H   0  0  0  0  0  0  0  0  0  0  0  0
    3.2050   -1.2667   -1.6269 H   0  0  0  0  0  0  0  0  0  0  0  0
    1.9456    0.9259   -1.9318 H   0  0  0  0  0  0  0  0  0  0  0  0
    3.5212    1.0377   -1.2115 H   0  0  0  0  0  0  0  0  0  0  0  0
    0.8345   -1.5834   -1.8997 H   0  0  0  0  0  0  0  0  0  0  0  0
    1.9426   -1.6606    1.7268 H   0  0  0  0  0  0  0  0  0  0  0  0
    0.8053   -2.9722    1.9941 H   0  0  0  0  0  0  0  0  0  0  0  0
    0.2788   -1.2857    2.1575 H   0  0  0  0  0  0  0  0  0  0  0  0
    3.8406    2.0359    0.8781 H   0  0  0  0  0  0  0  0  0  0  0  0
    2.4031    2.5810    1.9034 H   0  0  0  0  0  0  0  0  0  0  0  0
  1  2  1  0  0  0  0
  1  5  1  0  0  0  0
  1  6  1  0  0  0  0
  1  7  1  0  0  0  0
  2  3  1  0  0  0  0
  2 16  1  0  0  0  0
  2 17  1  0  0  0  0
  3  4  1  0  0  0  0
  3 18  1  0  0  0  0
  3 19  1  0  0  0  0
  4  8  1  0  0  0  0
  4 20  1  0  0  0  0
  4 21  1  0  0  0  0
  5 22  1  0  0  0  0
  5 23  1  0  0  0  0
  5 24  1  0  0  0  0
  6 25  1  0  0  0  0
  6 26  1  0  0  0  0
  6 27  1  0  0  0  0
  7  9  2  0  0  0  0
  7 28  1  0  0  0  0
  8 12  2  0  0  0  0
  8 14  1  0  0  0  0
  9 13  1  0  0  0  0
  9 29  1  0  0  0  0
 10 11  1  0  0  0  0
 10 12  1  0  0  0  0
 10 30  1  0  0  0  0
 10 31  1  0  0  0  0
 11 13  1  0  0  0  0
 11 32  1  0  0  0  0
 11 33  1  0  0  0  0
 12 34  1  0  0  0  0
 13 15  2  0  0  0  0
 14 35  1  0  0  0  0
 14 36  1  0  0  0  0
 14 37  1  0  0  0  0
 15 38  1  0  0  0  0
 15 39  1  0  0  0  0
M  END
> <PUBCHEM_COMPOUND_CID>
6365330

> <PUBCHEM_CONFORMER_RMSD>
0.6

> <PUBCHEM_CONFORMER_DIVERSEORDER>
1

> <PUBCHEM_MMFF94_PARTIAL_CHARGES>
16
1 0.14
10 0.14
11 0.14
12 -0.29
13 -0.14
14 0.14
15 -0.3
28 0.15
29 0.15
34 0.15
38 0.15
39 0.15
4 0.14
7 -0.29
8 -0.28
9 -0.15

> <PUBCHEM_EFFECTIVE_ROTOR_COUNT>
1.2

> <PUBCHEM_PHARMACOPHORE_FEATURES>
1
3 1 5 6 hydrophobe

> <PUBCHEM_HEAVY_ATOM_COUNT>
15

> <PUBCHEM_ATOM_DEF_STEREO_COUNT>
0

> <PUBCHEM_ATOM_UDEF_STEREO_COUNT>
0

> <PUBCHEM_BOND_DEF_STEREO_COUNT>
2

> <PUBCHEM_BOND_UDEF_STEREO_COUNT>
0

> <PUBCHEM_ISOTOPIC_ATOM_COUNT>
0

> <PUBCHEM_COMPONENT_COUNT>
1

> <PUBCHEM_CACTVS_TAUTO_COUNT>
1

> <PUBCHEM_CONFORMER_ID>
0061209200000001

> <PUBCHEM_MMFF94_ENERGY>
34.4006

> <PUBCHEM_FEATURE_SELFOVERLAP>
5.074

> <PUBCHEM_SHAPE_FINGERPRINT>
13140716 1 18409727399879162920
14178342 30 18408322163958544473
14251711 518 17256518050964697487
14251745 187 18265604399611203692
14386348 128 18339624711772172325
14817 1 6899380390097620952
15490181 7 18341617018283364313
15775835 57 18271513307884259542
15852999 172 18193584253040085141
15881359 60 17611761002212958198
16945 1 18046620114372219742
17775402 16 17620194668788778773
18219364 16 18196638808316878681
19930374 2 18126027999555844732
20388701 513 17905052447846857784
20871998 184 17832148216596139565
20905425 154 18265341615963406870
21041028 32 16679762672700749683
21947302 44 18187643566282744814
22344851 341 18411703170951161042
22721475 48 17976245851172149332
22802520 49 18262784169365997014
2334 1 18410008797557069964
23402539 116 17541957385674746014
23419403 2 15745473321274306567
23559900 14 18261944250821650334
23590187 152 17610632907847080296
238 59 18053407640601465893
2748010 2 18410288094958929421
2897 32 17907288102567052860
353137 74 18339649914861850179
5262128 65 17677608842302983047
66348 1 18411134749088065559
81228 2 17980473460459155600

> <PUBCHEM_SHAPE_MULTIPOLES>
308.69
4.3
3.05
1.27
0.03
0.86
0.24
-1.93
-0.39
0.07
0.43
-0.16
-0.06
0.53

> <PUBCHEM_SHAPE_SELFOVERLAP>
603.887

> <PUBCHEM_SHAPE_VOLUME>
184.2

> <PUBCHEM_COORDINATE_TYPE>
2
5
10

$$$$

