582980
  -OEChem-06241222443D

 32 33  0     0  0  0  0  0  0999 V2000
   -0.3958   -2.0898   -0.1284 O   0  0  0  0  0  0  0  0  0  0  0  0
    6.5422    1.0196    0.0817 O   0  5  0  0  0  0  0  0  0  0  0  0
    4.9644    2.5444    0.1496 O   0  0  0  0  0  0  0  0  0  0  0  0
    0.6669    0.0003   -0.0111 N   0  0  0  0  0  0  0  0  0  0  0  0
    5.3306    1.3456    0.0910 N   0  3  0  0  0  0  0  0  0  0  0  0
    2.0415   -0.3419   -0.0182 C   0  0  0  0  0  0  0  0  0  0  0  0
    2.9901    0.6646    0.0406 C   0  0  0  0  0  0  0  0  0  0  0  0
    4.3434    0.3265    0.0332 C   0  0  0  0  0  0  0  0  0  0  0  0
    2.4048   -1.6762   -0.0841 C   0  0  0  0  0  0  0  0  0  0  0  0
   -4.1538   -0.1290   -0.0186 C   0  0  0  0  0  0  0  0  0  0  0  0
    4.7273   -1.0129   -0.0327 C   0  0  0  0  0  0  0  0  0  0  0  0
    3.7580   -2.0143   -0.0915 C   0  0  0  0  0  0  0  0  0  0  0  0
   -0.4174   -0.8662   -0.0640 C   0  0  0  0  0  0  0  0  0  0  0  0
   -2.8558   -0.7841   -0.0613 C   0  0  0  0  0  0  0  0  0  0  0  0
   -1.7086   -0.1106   -0.0350 C   0  0  0  0  0  0  0  0  0  0  0  0
   -4.2668    1.2180   -0.3628 C   0  0  0  0  0  0  0  0  0  0  0  0
   -5.2856   -0.8478    0.3659 C   0  0  0  0  0  0  0  0  0  0  0  0
   -5.5116    1.8462   -0.3225 C   0  0  0  0  0  0  0  0  0  0  0  0
   -6.5305   -0.2197    0.4062 C   0  0  0  0  0  0  0  0  0  0  0  0
   -6.6433    1.1274    0.0619 C   0  0  0  0  0  0  0  0  0  0  0  0
    2.6652    1.7010    0.0911 H   0  0  0  0  0  0  0  0  0  0  0  0
    1.7178   -2.5076   -0.1318 H   0  0  0  0  0  0  0  0  0  0  0  0
    0.4793    0.9995    0.0388 H   0  0  0  0  0  0  0  0  0  0  0  0
    5.7718   -1.3136   -0.0407 H   0  0  0  0  0  0  0  0  0  0  0  0
    4.0580   -3.0570   -0.1430 H   0  0  0  0  0  0  0  0  0  0  0  0
   -2.8698   -1.8698   -0.1051 H   0  0  0  0  0  0  0  0  0  0  0  0
   -1.6438    0.9681    0.0415 H   0  0  0  0  0  0  0  0  0  0  0  0
   -3.4247    1.8170   -0.6957 H   0  0  0  0  0  0  0  0  0  0  0  0
   -5.2170   -1.8982    0.6387 H   0  0  0  0  0  0  0  0  0  0  0  0
   -5.6015    2.8934   -0.5966 H   0  0  0  0  0  0  0  0  0  0  0  0
   -7.4119   -0.7792    0.7054 H   0  0  0  0  0  0  0  0  0  0  0  0
   -7.6128    1.6160    0.0919 H   0  0  0  0  0  0  0  0  0  0  0  0
  1 13  2  0  0  0  0
  2  5  1  0  0  0  0
  3  5  2  0  0  0  0
  4  6  1  0  0  0  0
  4 13  1  0  0  0  0
  4 23  1  0  0  0  0
  5  8  1  0  0  0  0
  6  7  2  0  0  0  0
  6  9  1  0  0  0  0
  7  8  1  0  0  0  0
  7 21  1  0  0  0  0
  8 11  2  0  0  0  0
  9 12  2  0  0  0  0
  9 22  1  0  0  0  0
 10 14  1  0  0  0  0
 10 16  2  0  0  0  0
 10 17  1  0  0  0  0
 11 12  1  0  0  0  0
 11 24  1  0  0  0  0
 12 25  1  0  0  0  0
 13 15  1  0  0  0  0
 14 15  2  0  0  0  0
 14 26  1  0  0  0  0
 15 27  1  0  0  0  0
 16 18  1  0  0  0  0
 16 28  1  0  0  0  0
 17 19  2  0  0  0  0
 17 29  1  0  0  0  0
 18 20  2  0  0  0  0
 18 30  1  0  0  0  0
 19 20  1  0  0  0  0
 19 31  1  0  0  0  0
 20 32  1  0  0  0  0
M  CHG  2   2  -1   5   1
M  END
> <PUBCHEM_COMPOUND_CID>
582980

> <PUBCHEM_CONFORMER_RMSD>
0.8

> <PUBCHEM_CONFORMER_DIVERSEORDER>
1
2
3
5
4

> <PUBCHEM_MMFF94_PARTIAL_CHARGES>
32
1 -0.57
10 0.03
11 -0.15
12 -0.15
13 0.62
14 -0.18
15 -0.14
16 -0.15
17 -0.15
18 -0.15
19 -0.15
2 -0.52
20 -0.15
21 0.15
22 0.15
23 0.37
24 0.15
25 0.15
26 0.15
27 0.15
28 0.15
29 0.15
3 -0.52
30 0.15
31 0.15
32 0.15
4 -0.55
5 0.91
6 0.12
7 -0.15
8 0.13
9 -0.15

> <PUBCHEM_EFFECTIVE_ROTOR_COUNT>
5

> <PUBCHEM_PHARMACOPHORE_FEATURES>
7
1 1 acceptor
1 2 acceptor
1 2 anion
1 3 acceptor
1 4 donor
6 10 16 17 18 19 20 rings
6 6 7 8 9 11 12 rings

> <PUBCHEM_HEAVY_ATOM_COUNT>
20

> <PUBCHEM_ATOM_DEF_STEREO_COUNT>
0

> <PUBCHEM_ATOM_UDEF_STEREO_COUNT>
0

> <PUBCHEM_BOND_DEF_STEREO_COUNT>
0

> <PUBCHEM_BOND_UDEF_STEREO_COUNT>
1

> <PUBCHEM_ISOTOPIC_ATOM_COUNT>
0

> <PUBCHEM_COMPONENT_COUNT>
1

> <PUBCHEM_CACTVS_TAUTO_COUNT>
2

> <PUBCHEM_CONFORMER_ID>
0008E54400000001

> <PUBCHEM_MMFF94_ENERGY>
64.5419

> <PUBCHEM_FEATURE_SELFOVERLAP>
35.602

> <PUBCHEM_SHAPE_FINGERPRINT>
10 15 18131068208138893249
10411042 1 17833268997936849710
10595046 47 18335423487044369383
10835480 77 18340492265776790397
11287383 113 18412543219399327883
12107183 9 17546447142901726595
12236239 1 18186802495885731215
12403259 415 18130511937007226063
12596602 18 17989490731823727745
12730499 353 18411412925809844522
12788726 201 17240758527418058185
13073987 5 18271806856552161475
13167372 99 18336827592803734857
13533116 47 17676487302099772742
13785724 45 17761213619453219610
14251732 16 18412261710379357459
14251764 18 18272936020201619162
14341114 176 18341325669735827393
14461889 52 18272368624862426571
14933364 13 18410853270085302425
15048467 5 18408604751273216432
15183329 4 18259982708190638345
15196674 1 18411419540074732877
15419008 145 18200889486469974040
15475509 35 16414931867421149834
15716309 27 11167934763231416593
17844677 252 18338791320945326549
19427546 62 18340485565601369642
20157964 124 18335700567647076542
20281389 69 18272652385341765749
20645477 70 18261671588131965230
21033650 10 14129603485533390715
21150785 3 16370731404888475173
21315763 28 18410576201470906275
21315764 268 18271812370784124781
21641784 216 16805871974628626153
220451 1 17095244726740740519
23035841 295 8214145153411487485
23081809 10 17603872238813325023
23272321 79 18410575072432369791
23402539 116 18335144206933025903
23402655 69 18259990366106809934
23536379 177 18412262874120257555
239999 70 18262233434574288094
2916195 48 18343303660809941553
29717793 49 17386000715387144142
300161 21 18040721354933122950
3004659 81 18339922714315963282
335352 9 18409164420990150798
34797466 226 17967243196140455493
3545911 37 18410291397983984622
4073 2 18059850636595212802
4214541 1 18412544340791831007
42788 4 18411699915719365155
4340502 62 17275105037476956738
5104073 3 18201716301701201251
542803 24 18408044026492695079
5718773 13 8790348611774186428
90127 26 18271235118942723747

> <PUBCHEM_SHAPE_MULTIPOLES>
384.02
18.56
2.02
0.63
7.43
0.36
0
7.76
-1.06
-1.84
0.04
0.21
-0.01
0.6

> <PUBCHEM_SHAPE_SELFOVERLAP>
823.92

> <PUBCHEM_SHAPE_VOLUME>
211.2

> <PUBCHEM_COORDINATE_TYPE>
2
5
10

$$$$

