439736
  -OEChem-07051212472D

 21 20  0     1  0  0  0  0  0999 V2000
    4.6350    0.9821    0.0000 O   0  0  0  0  0  0  0  0  0  0  0  0
    6.8671    0.1160    0.0000 O   0  0  0  0  0  0  0  0  0  0  0  0
    6.0010    1.6160    0.0000 O   0  0  0  0  0  0  0  0  0  0  0  0
    2.5369   -0.3840    0.0000 O   0  0  0  0  0  0  0  0  0  0  0  0
    3.4030    1.1160    0.0000 O   0  0  0  0  0  0  0  0  0  0  0  0
    5.1350    0.1160    0.0000 C   0  0  3  0  0  0  0  0  0  0  0  0
    5.6350   -0.7500    0.0000 C   0  0  0  0  0  0  0  0  0  0  0  0
    4.2690   -0.3840    0.0000 C   0  0  0  0  0  0  0  0  0  0  0  0
    5.1350   -1.6160    0.0000 C   0  0  0  0  0  0  0  0  0  0  0  0
    6.0010    0.6160    0.0000 C   0  0  0  0  0  0  0  0  0  0  0  0
    3.4030    0.1160    0.0000 C   0  0  0  0  0  0  0  0  0  0  0  0
    6.1100   -1.1485    0.0000 H   0  0  0  0  0  0  0  0  0  0  0  0
    6.1100   -0.3515    0.0000 H   0  0  0  0  0  0  0  0  0  0  0  0
    3.8705   -0.8589    0.0000 H   0  0  0  0  0  0  0  0  0  0  0  0
    4.6675   -0.8589    0.0000 H   0  0  0  0  0  0  0  0  0  0  0  0
    4.5981   -1.3060    0.0000 H   0  0  0  0  0  0  0  0  0  0  0  0
    4.8250   -2.1530    0.0000 H   0  0  0  0  0  0  0  0  0  0  0  0
    5.6720   -1.9260    0.0000 H   0  0  0  0  0  0  0  0  0  0  0  0
    4.0150    0.9821    0.0000 H   0  0  0  0  0  0  0  0  0  0  0  0
    7.4040    0.4260    0.0000 H   0  0  0  0  0  0  0  0  0  0  0  0
    2.0000   -0.0740    0.0000 H   0  0  0  0  0  0  0  0  0  0  0  0
  1  6  1  0  0  0  0
  1 19  1  0  0  0  0
  2 10  1  0  0  0  0
  2 20  1  0  0  0  0
  3 10  2  0  0  0  0
  4 11  1  0  0  0  0
  4 21  1  0  0  0  0
  5 11  2  0  0  0  0
  6  7  1  0  0  0  0
  6  8  1  0  0  0  0
  6 10  1  0  0  0  0
  7  9  1  0  0  0  0
  7 12  1  0  0  0  0
  7 13  1  0  0  0  0
  8 11  1  0  0  0  0
  8 14  1  0  0  0  0
  8 15  1  0  0  0  0
  9 16  1  0  0  0  0
  9 17  1  0  0  0  0
  9 18  1  0  0  0  0
M  END
> <PUBCHEM_COMPOUND_CID>
439736

> <PUBCHEM_COMPOUND_CANONICALIZED>
1

> <PUBCHEM_CACTVS_COMPLEXITY>
176

> <PUBCHEM_CACTVS_HBOND_ACCEPTOR>
5

> <PUBCHEM_CACTVS_HBOND_DONOR>
3

> <PUBCHEM_CACTVS_ROTATABLE_BOND>
4

> <PUBCHEM_CACTVS_SUBSKEYS>
AAADccBgOAAAAAAAAAAAAAAAAAAAAAAAAAAAAAAAAAAAAAAAAAAAGgAACAAADESAgAACCAAAAgAIAACQCAIAAAAAAAAAAAFAAAABABYAAAAAQAAFIAABAADLAAAKAAAAAAAAAAAAAAAAAAAAAAAAAAAAAA==

> <PUBCHEM_IUPAC_OPENEYE_NAME>
2-ethyl-2-hydroxy-butanedioic acid

> <PUBCHEM_IUPAC_CAS_NAME>
2-ethyl-2-hydroxybutanedioic acid

> <PUBCHEM_IUPAC_NAME>
2-ethyl-2-hydroxybutanedioic acid

> <PUBCHEM_IUPAC_SYSTEMATIC_NAME>
2-ethyl-2-oxidanyl-butanedioic acid

> <PUBCHEM_IUPAC_TRADITIONAL_NAME>
2-ethyl-2-hydroxy-succinic acid

> <PUBCHEM_IUPAC_INCHI>
InChI=1S/C6H10O5/c1-2-6(11,5(9)10)3-4(7)8/h11H,2-3H2,1H3,(H,7,8)(H,9,10)

> <PUBCHEM_IUPAC_INCHIKEY>
YVYGHRNLPUMVBU-UHFFFAOYSA-N

> <PUBCHEM_XLOGP3_AA>
-0.6

> <PUBCHEM_EXACT_MASS>
162.052823

> <PUBCHEM_MOLECULAR_FORMULA>
C6H10O5

> <PUBCHEM_MOLECULAR_WEIGHT>
162.1406

> <PUBCHEM_OPENEYE_CAN_SMILES>
CCC(CC(=O)O)(C(=O)O)O

> <PUBCHEM_OPENEYE_ISO_SMILES>
CCC(CC(=O)O)(C(=O)O)O

> <PUBCHEM_CACTVS_TPSA>
94.8

> <PUBCHEM_MONOISOTOPIC_WEIGHT>
162.052823

> <PUBCHEM_TOTAL_CHARGE>
0

> <PUBCHEM_HEAVY_ATOM_COUNT>
11

> <PUBCHEM_ATOM_DEF_STEREO_COUNT>
0

> <PUBCHEM_ATOM_UDEF_STEREO_COUNT>
1

> <PUBCHEM_BOND_DEF_STEREO_COUNT>
0

> <PUBCHEM_BOND_UDEF_STEREO_COUNT>
0

> <PUBCHEM_ISOTOPIC_ATOM_COUNT>
0

> <PUBCHEM_COMPONENT_COUNT>
1

> <PUBCHEM_CACTVS_TAUTO_COUNT>
1

> <PUBCHEM_COORDINATE_TYPE>
1
5
255

> <PUBCHEM_BONDANNOTATIONS>
6  1  3

$$$$

