42029
  -OEChem-07051213053D

 33 37  0     0  0  0  0  0  0999 V2000
   -0.9344    3.1157    0.0014 O   0  0  0  0  0  0  0  0  0  0  0  0
    0.3554   -0.3570   -0.0002 C   0  0  0  0  0  0  0  0  0  0  0  0
    1.7461   -0.0528   -0.0001 C   0  0  0  0  0  0  0  0  0  0  0  0
   -0.6194    0.6762   -0.0003 C   0  0  0  0  0  0  0  0  0  0  0  0
   -0.0453   -1.7106    0.0000 C   0  0  0  0  0  0  0  0  0  0  0  0
   -2.0160    0.3324   -0.0003 C   0  0  0  0  0  0  0  0  0  0  0  0
    2.1793    1.2906   -0.0003 C   0  0  0  0  0  0  0  0  0  0  0  0
    2.7092   -1.0912    0.0001 C   0  0  0  0  0  0  0  0  0  0  0  0
   -2.3899   -1.0344   -0.0002 C   0  0  0  0  0  0  0  0  0  0  0  0
   -0.1386    2.0057   -0.0003 C   0  0  0  0  0  0  0  0  0  0  0  0
   -1.4062   -2.0287   -0.0001 C   0  0  0  0  0  0  0  0  0  0  0  0
    1.2256    2.3079   -0.0004 C   0  0  0  0  0  0  0  0  0  0  0  0
    0.9205   -2.7261    0.0004 C   0  0  0  0  0  0  0  0  0  0  0  0
    2.2802   -2.4213    0.0004 C   0  0  0  0  0  0  0  0  0  0  0  0
    3.5518    1.5816   -0.0002 C   0  0  0  0  0  0  0  0  0  0  0  0
    4.0753   -0.7729    0.0002 C   0  0  0  0  0  0  0  0  0  0  0  0
   -3.0711    1.2801   -0.0001 C   0  0  0  0  0  0  0  0  0  0  0  0
   -3.7463   -1.4048   -0.0001 C   0  0  0  0  0  0  0  0  0  0  0  0
    4.4929    0.5555    0.0000 C   0  0  0  0  0  0  0  0  0  0  0  0
   -4.4156    0.8990    0.0001 C   0  0  0  0  0  0  0  0  0  0  0  0
   -4.7534   -0.4449    0.0001 C   0  0  0  0  0  0  0  0  0  0  0  0
   -1.7068   -3.0771    0.0000 H   0  0  0  0  0  0  0  0  0  0  0  0
    1.5570    3.3455   -0.0002 H   0  0  0  0  0  0  0  0  0  0  0  0
    0.6230   -3.7731    0.0007 H   0  0  0  0  0  0  0  0  0  0  0  0
    2.9997   -3.2375    0.0005 H   0  0  0  0  0  0  0  0  0  0  0  0
    3.9005    2.6123   -0.0002 H   0  0  0  0  0  0  0  0  0  0  0  0
    4.8278   -1.5587    0.0004 H   0  0  0  0  0  0  0  0  0  0  0  0
   -2.9172    2.3499   -0.0003 H   0  0  0  0  0  0  0  0  0  0  0  0
   -4.0327   -2.4551   -0.0001 H   0  0  0  0  0  0  0  0  0  0  0  0
    5.5531    0.7912    0.0000 H   0  0  0  0  0  0  0  0  0  0  0  0
   -5.1946    1.6559    0.0002 H   0  0  0  0  0  0  0  0  0  0  0  0
   -5.7960   -0.7474    0.0002 H   0  0  0  0  0  0  0  0  0  0  0  0
   -0.3998    3.9273    0.0011 H   0  0  0  0  0  0  0  0  0  0  0  0
  1 10  1  0  0  0  0
  1 33  1  0  0  0  0
  2  3  1  0  0  0  0
  2  4  2  0  0  0  0
  2  5  1  0  0  0  0
  3  7  1  0  0  0  0
  3  8  2  0  0  0  0
  4  6  1  0  0  0  0
  4 10  1  0  0  0  0
  5 11  2  0  0  0  0
  5 13  1  0  0  0  0
  6  9  1  0  0  0  0
  6 17  2  0  0  0  0
  7 12  1  0  0  0  0
  7 15  2  0  0  0  0
  8 14  1  0  0  0  0
  8 16  1  0  0  0  0
  9 11  1  0  0  0  0
  9 18  2  0  0  0  0
 10 12  2  0  0  0  0
 11 22  1  0  0  0  0
 12 23  1  0  0  0  0
 13 14  2  0  0  0  0
 13 24  1  0  0  0  0
 14 25  1  0  0  0  0
 15 19  1  0  0  0  0
 15 26  1  0  0  0  0
 16 19  2  0  0  0  0
 16 27  1  0  0  0  0
 17 20  1  0  0  0  0
 17 28  1  0  0  0  0
 18 21  1  0  0  0  0
 18 29  1  0  0  0  0
 19 30  1  0  0  0  0
 20 21  2  0  0  0  0
 20 31  1  0  0  0  0
 21 32  1  0  0  0  0
M  END
> <PUBCHEM_COMPOUND_CID>
42029

> <PUBCHEM_CONFORMER_RMSD>
0.6

> <PUBCHEM_CONFORMER_DIVERSEORDER>
1

> <PUBCHEM_MMFF94_PARTIAL_CHARGES>
25
1 -0.53
10 0.08
11 -0.15
12 -0.15
13 -0.15
14 -0.15
15 -0.15
16 -0.15
17 -0.15
18 -0.15
19 -0.15
20 -0.15
21 -0.15
22 0.15
23 0.15
24 0.15
25 0.15
26 0.15
27 0.15
28 0.15
29 0.15
30 0.15
31 0.15
32 0.15
33 0.45

> <PUBCHEM_EFFECTIVE_ROTOR_COUNT>
0

> <PUBCHEM_PHARMACOPHORE_FEATURES>
6
1 1 donor
6 2 3 4 7 10 12 rings
6 2 3 5 8 13 14 rings
6 2 4 5 6 9 11 rings
6 3 7 8 15 16 19 rings
6 6 9 17 18 20 21 rings

> <PUBCHEM_HEAVY_ATOM_COUNT>
21

> <PUBCHEM_ATOM_DEF_STEREO_COUNT>
0

> <PUBCHEM_ATOM_UDEF_STEREO_COUNT>
0

> <PUBCHEM_BOND_DEF_STEREO_COUNT>
0

> <PUBCHEM_BOND_UDEF_STEREO_COUNT>
0

> <PUBCHEM_ISOTOPIC_ATOM_COUNT>
0

> <PUBCHEM_COMPONENT_COUNT>
1

> <PUBCHEM_CACTVS_TAUTO_COUNT>
3

> <PUBCHEM_CONFORMER_ID>
0000A42D00000001

> <PUBCHEM_MMFF94_ENERGY>
82.6395

> <PUBCHEM_FEATURE_SELFOVERLAP>
30.598

> <PUBCHEM_SHAPE_FINGERPRINT>
10411042 1 17762055840685170991
10616163 171 18409728478047894151
10906281 52 18341032052765401160
10967382 1 18410575080468416358
1100329 8 18193839245253353026
11471102 20 18410578378924211023
11578080 2 16914546720470546326
12011746 2 18410572890024526742
12236239 1 17749388166116703651
12553582 1 18410302422964540932
12838862 33 18338255789826051368
12954195 1 17971170742465465372
13132413 78 18408322168411240949
13140716 1 18339086969377249002
13583140 156 13985234387327104887
138480 1 18194401332251196266
13862211 1 18410862057319669994
14178342 30 17543649538638719144
14223421 5 18266459999787764068
14790565 3 18267575815291666228
15196674 1 18410575076083752294
15442244 35 18193838373391030579
15536298 74 18334294275153206670
1601671 61 18410291419274165816
16945 1 18266459986987433478
19591789 44 18338516326757858399
200 152 18113622261900071191
20028762 73 17971191435323414591
20510252 161 18262237823566205704
20739085 24 18123723582498781953
20905425 154 18263924517542492214
21267235 1 18410565189079917710
21421861 104 17986113139097561218
221490 88 18269267968076167715
2334 1 18266458694223239970
23402539 116 18261681393515395558
23463225 33 18411982463841605999
23558518 356 18055063521923649272
23559900 14 18264775535453437398
23566358 2 18193276518891406630
238 59 17766607630234902517
2748010 2 18266456516759255926
2871803 45 18411138069234727604
335352 9 18338517559365766134
34934 24 18409736157328249503
350125 39 18411419540502234632
3680242 22 18270401718898287378
4409770 3 16114311356381043766
5104073 3 18411419513925180363
6138700 20 18411133684674966254
7364860 26 18408322215434516822
7832392 63 18336270024491892526
9709674 26 18410849962718424079
9981440 41 17114107664311151121

> <PUBCHEM_SHAPE_MULTIPOLES>
426.3
7.88
2.99
0.61
2.54
0.15
0
0.25
0
-0.62
0
0
-0.01
0

> <PUBCHEM_SHAPE_SELFOVERLAP>
1006.207

> <PUBCHEM_SHAPE_VOLUME>
215.4

> <PUBCHEM_COORDINATE_TYPE>
2
5
10

$$$$

