11720
  -OEChem-06261206023D

 11 10  0     0  0  0  0  0  0999 V2000
   -0.2855    1.6071    0.0000 S   0  0  0  0  0  0  0  0  0  0  0  0
    0.6373   -0.8270    0.0000 N   0  0  0  0  0  0  0  0  0  0  0  0
   -1.7635   -0.5753    0.0000 N   0  0  0  0  0  0  0  0  0  0  0  0
   -0.4607   -0.1522    0.0000 C   0  0  0  0  0  0  0  0  0  0  0  0
    1.8724   -0.0527    0.0000 C   0  0  0  0  0  0  0  0  0  0  0  0
    2.7003   -0.7724   -0.0273 H   0  0  0  0  0  0  0  0  0  0  0  0
    2.0311    0.5162    0.9230 H   0  0  0  0  0  0  0  0  0  0  0  0
    2.0083    0.5578   -0.9002 H   0  0  0  0  0  0  0  0  0  0  0  0
   -1.9962   -1.5624    0.0001 H   0  0  0  0  0  0  0  0  0  0  0  0
   -2.5321    0.0863    0.0003 H   0  0  0  0  0  0  0  0  0  0  0  0
    0.1949    1.7311    1.2459 H   0  0  0  0  0  0  0  0  0  0  0  0
  1  4  1  0  0  0  0
  1 11  1  0  0  0  0
  2  4  2  0  0  0  0
  2  5  1  0  0  0  0
  3  4  1  0  0  0  0
  3  9  1  0  0  0  0
  3 10  1  0  0  0  0
  5  6  1  0  0  0  0
  5  7  1  0  0  0  0
  5  8  1  0  0  0  0
M  END
> <PUBCHEM_COMPOUND_CID>
11720

> <PUBCHEM_CONFORMER_RMSD>
0.4

> <PUBCHEM_CONFORMER_DIVERSEORDER>
1

> <PUBCHEM_MMFF94_PARTIAL_CHARGES>
8
1 -0.32
10 0.4
11 0.18
2 -0.7
3 -0.85
4 0.64
5 0.25
9 0.4

> <PUBCHEM_EFFECTIVE_ROTOR_COUNT>
0

> <PUBCHEM_PHARMACOPHORE_FEATURES>
3
1 3 donor
3 1 3 4 anion
3 2 3 4 cation

> <PUBCHEM_HEAVY_ATOM_COUNT>
5

> <PUBCHEM_ATOM_DEF_STEREO_COUNT>
0

> <PUBCHEM_ATOM_UDEF_STEREO_COUNT>
0

> <PUBCHEM_BOND_DEF_STEREO_COUNT>
0

> <PUBCHEM_BOND_UDEF_STEREO_COUNT>
0

> <PUBCHEM_ISOTOPIC_ATOM_COUNT>
0

> <PUBCHEM_COMPONENT_COUNT>
1

> <PUBCHEM_CACTVS_TAUTO_COUNT>
3

> <PUBCHEM_CONFORMER_ID>
00002DC800000001

> <PUBCHEM_MMFF94_ENERGY>
22.4582

> <PUBCHEM_FEATURE_SELFOVERLAP>
15.223

> <PUBCHEM_SHAPE_FINGERPRINT>
139733 1 17618223248624464516
16714656 1 8286203876725127378
20096714 4 9079116656793745662
21015797 1 17832990442502814574
21040471 1 9295291637978153826
5460574 1 18410856559745498982
5943 1 5577897160130531801

> <PUBCHEM_SHAPE_MULTIPOLES>
96.79
1.98
1.4
0.6
0.49
0.69
0
-0.4
0
-0.36
0
0.01
0.06
0

> <PUBCHEM_SHAPE_SELFOVERLAP>
162.499

> <PUBCHEM_SHAPE_VOLUME>
67.6

> <PUBCHEM_COORDINATE_TYPE>
2
5
10

$$$$

