11958
  -OEChem-06261206203D

 19 19  0     0  0  0  0  0  0999 V2000
    2.4082   -0.6415   -0.4230 O   0  0  0  0  0  0  0  0  0  0  0  0
   -2.1348   -1.8326   -0.0339 O   0  0  0  0  0  0  0  0  0  0  0  0
    1.5619    1.9976   -0.1357 O   0  0  0  0  0  0  0  0  0  0  0  0
   -1.6660    0.4938    0.0913 C   0  0  0  0  0  0  0  0  0  0  0  0
    1.0789   -0.3153   -0.2583 C   0  0  0  0  0  0  0  0  0  0  0  0
   -1.2947   -0.9383   -0.0550 C   0  0  0  0  0  0  0  0  0  0  0  0
   -0.7170    1.4369    0.0619 C   0  0  0  0  0  0  0  0  0  0  0  0
    0.7140    1.1116   -0.1133 C   0  0  0  0  0  0  0  0  0  0  0  0
    0.1370   -1.2634   -0.2301 C   0  0  0  0  0  0  0  0  0  0  0  0
   -3.1189    0.8099    0.2681 C   0  0  0  0  0  0  0  0  0  0  0  0
    3.0315   -0.8589    0.8282 C   0  0  0  0  0  0  0  0  0  0  0  0
   -0.9656    2.4882    0.1669 H   0  0  0  0  0  0  0  0  0  0  0  0
    0.3944   -2.3121   -0.3372 H   0  0  0  0  0  0  0  0  0  0  0  0
   -3.5089    0.3256    1.1693 H   0  0  0  0  0  0  0  0  0  0  0  0
   -3.6947    0.4576   -0.5940 H   0  0  0  0  0  0  0  0  0  0  0  0
   -3.2949    1.8863    0.3672 H   0  0  0  0  0  0  0  0  0  0  0  0
    4.0854   -1.0916    0.6480 H   0  0  0  0  0  0  0  0  0  0  0  0
    2.5840   -1.7101    1.3532 H   0  0  0  0  0  0  0  0  0  0  0  0
    2.9872    0.0363    1.4583 H   0  0  0  0  0  0  0  0  0  0  0  0
  1  5  1  0  0  0  0
  1 11  1  0  0  0  0
  2  6  2  0  0  0  0
  3  8  2  0  0  0  0
  4  6  1  0  0  0  0
  4  7  2  0  0  0  0
  4 10  1  0  0  0  0
  5  8  1  0  0  0  0
  5  9  2  0  0  0  0
  6  9  1  0  0  0  0
  7  8  1  0  0  0  0
  7 12  1  0  0  0  0
  9 13  1  0  0  0  0
 10 14  1  0  0  0  0
 10 15  1  0  0  0  0
 10 16  1  0  0  0  0
 11 17  1  0  0  0  0
 11 18  1  0  0  0  0
 11 19  1  0  0  0  0
M  END
> <PUBCHEM_COMPOUND_CID>
11958

> <PUBCHEM_CONFORMER_RMSD>
0.4

> <PUBCHEM_CONFORMER_DIVERSEORDER>
2
4
3
1

> <PUBCHEM_MMFF94_PARTIAL_CHARGES>
13
1 -0.36
10 0.14
11 0.28
12 0.15
13 0.15
2 -0.57
3 -0.57
4 -0.12
5 0.09
6 0.54
7 -0.14
8 0.54
9 -0.14

> <PUBCHEM_EFFECTIVE_ROTOR_COUNT>
1

> <PUBCHEM_PHARMACOPHORE_FEATURES>
4
1 1 acceptor
1 2 acceptor
1 3 acceptor
6 4 5 6 7 8 9 rings

> <PUBCHEM_HEAVY_ATOM_COUNT>
11

> <PUBCHEM_ATOM_DEF_STEREO_COUNT>
0

> <PUBCHEM_ATOM_UDEF_STEREO_COUNT>
0

> <PUBCHEM_BOND_DEF_STEREO_COUNT>
0

> <PUBCHEM_BOND_UDEF_STEREO_COUNT>
0

> <PUBCHEM_ISOTOPIC_ATOM_COUNT>
0

> <PUBCHEM_COMPONENT_COUNT>
1

> <PUBCHEM_CACTVS_TAUTO_COUNT>
3

> <PUBCHEM_CONFORMER_ID>
00002EB600000002

> <PUBCHEM_MMFF94_ENERGY>
26.4486

> <PUBCHEM_FEATURE_SELFOVERLAP>
20.301

> <PUBCHEM_SHAPE_FINGERPRINT>
10857977 72 18335995241364028730
15310529 11 16916776435456665932
16945 1 18337667628398356125
193761 8 18193837046377900877
19973954 147 18337951173575644685
20511035 2 18335140834629304885
20653091 64 18200036123142439530
21040471 1 18121210137149956575
21501502 16 18338233748174772397
23235685 24 18262804097913744177
2334 1 18265894649026816949
23402655 69 17905344166975431845
23552423 10 18199745834586934316
241688 4 17471558305979033299
2748010 2 18337669698635922413
5084963 1 18187082858101752955

> <PUBCHEM_SHAPE_MULTIPOLES>
208.77
4.02
1.87
0.69
0.38
0.19
0.05
-0.46
0.77
-0.19
-0.07
0.2
-0.04
-0.22

> <PUBCHEM_SHAPE_SELFOVERLAP>
432.083

> <PUBCHEM_SHAPE_VOLUME>
119.9

> <PUBCHEM_COORDINATE_TYPE>
2
5
10

$$$$

