312145
  -OEChem-07051213062D

 55 59  0     1  0  0  0  0  0999 V2000
    3.7319    0.1169    0.0000 O   0  0  0  0  0  0  0  0  0  0  0  0
    4.5841   -2.4285    0.0000 O   0  0  0  0  0  0  0  0  0  0  0  0
    7.8521   -1.6584    0.0000 O   0  0  0  0  0  0  0  0  0  0  0  0
    5.0498    3.9492    0.0000 O   0  0  0  0  0  0  0  0  0  0  0  0
    8.1002    0.6200    0.0000 O   0  0  0  0  0  0  0  0  0  0  0  0
    2.8602   -1.3668    0.0000 O   0  0  0  0  0  0  0  0  0  0  0  0
    5.4900   -3.9492    0.0000 O   0  0  0  0  0  0  0  0  0  0  0  0
    2.8486    1.6067    0.0000 O   0  0  0  0  0  0  0  0  0  0  0  0
    5.4862    2.1893    0.0000 C   0  0  2  0  0  0  0  0  0  0  0  0
    6.3842    1.6615    0.0000 C   0  0  2  0  0  0  0  0  0  0  0  0
    5.5021    0.1200    0.0000 C   0  0  0  0  0  0  0  0  0  0  0  0
    4.5841    1.6684    0.0000 C   0  0  0  0  0  0  0  0  0  0  0  0
    5.5021   -0.8800    0.0000 C   0  0  2  0  0  0  0  0  0  0  0  0
    6.3682    0.6200    0.0000 C   0  0  0  0  0  0  0  0  0  0  0  0
    4.5921    0.6268    0.0000 C   0  0  1  0  0  0  0  0  0  0  0  0
    7.1572    2.3504    0.0000 C   0  0  0  0  0  0  0  0  0  0  0  0
    5.7119    3.1998    0.0000 C   0  0  0  0  0  0  0  0  0  0  0  0
    6.7426    3.2992    0.0000 C   0  0  0  0  0  0  0  0  0  0  0  0
    4.6240    2.6959    0.0000 C   0  0  0  0  0  0  0  0  0  0  0  0
    6.3682   -1.3800    0.0000 C   0  0  0  0  0  0  0  0  0  0  0  0
    4.5921   -1.3868    0.0000 C   0  0  1  0  0  0  0  0  0  0  0  0
    7.2342    0.1200    0.0000 C   0  0  0  0  0  0  0  0  0  0  0  0
    7.2342   -0.8800    0.0000 C   0  0  0  0  0  0  0  0  0  0  0  0
    4.6361   -0.3800    0.0000 C   0  0  0  0  0  0  0  0  0  0  0  0
    6.3842   -2.4215    0.0000 C   0  0  0  0  0  0  0  0  0  0  0  0
    3.7319   -0.8769    0.0000 C   0  0  0  0  0  0  0  0  0  0  0  0
    5.4862   -2.9493    0.0000 C   0  0  0  0  0  0  0  0  0  0  0  0
    7.3722   -2.5286    0.0000 C   0  0  0  0  0  0  0  0  0  0  0  0
    2.8602    0.6068    0.0000 C   0  0  0  0  0  0  0  0  0  0  0  0
    2.0000    0.0968    0.0000 C   0  0  0  0  0  0  0  0  0  0  0  0
    2.8486   -2.3668    0.0000 C   0  0  0  0  0  0  0  0  0  0  0  0
    7.1571    1.3078    0.0000 H   0  0  0  0  0  0  0  0  0  0  0  0
    4.3705    2.2505    0.0000 H   0  0  0  0  0  0  0  0  0  0  0  0
    3.9741    1.5576    0.0000 H   0  0  0  0  0  0  0  0  0  0  0  0
    4.0522    0.9317    0.0000 H   0  0  0  0  0  0  0  0  0  0  0  0
    7.5188    1.8468    0.0000 H   0  0  0  0  0  0  0  0  0  0  0  0
    7.6961    2.6570    0.0000 H   0  0  0  0  0  0  0  0  0  0  0  0
    7.3336    3.4864    0.0000 H   0  0  0  0  0  0  0  0  0  0  0  0
    6.6185    3.9067    0.0000 H   0  0  0  0  0  0  0  0  0  0  0  0
    4.9382    3.2304    0.0000 H   0  0  0  0  0  0  0  0  0  0  0  0
    4.0895    3.0100    0.0000 H   0  0  0  0  0  0  0  0  0  0  0  0
    4.3099    2.1614    0.0000 H   0  0  0  0  0  0  0  0  0  0  0  0
    4.0522   -1.6917    0.0000 H   0  0  0  0  0  0  0  0  0  0  0  0
    4.9461    0.1569    0.0000 H   0  0  0  0  0  0  0  0  0  0  0  0
    4.0992   -0.0700    0.0000 H   0  0  0  0  0  0  0  0  0  0  0  0
    4.3261   -0.9169    0.0000 H   0  0  0  0  0  0  0  0  0  0  0  0
    4.1359   -0.4066    0.0000 H   0  0  0  0  0  0  0  0  0  0  0  0
    3.3389   -0.3973    0.0000 H   0  0  0  0  0  0  0  0  0  0  0  0
    7.6582   -3.0788    0.0000 H   0  0  0  0  0  0  0  0  0  0  0  0
    1.6838    0.6302    0.0000 H   0  0  0  0  0  0  0  0  0  0  0  0
    1.4667   -0.2194    0.0000 H   0  0  0  0  0  0  0  0  0  0  0  0
    2.3162   -0.4365    0.0000 H   0  0  0  0  0  0  0  0  0  0  0  0
    2.2287   -2.3596    0.0000 H   0  0  0  0  0  0  0  0  0  0  0  0
    2.8414   -2.9867    0.0000 H   0  0  0  0  0  0  0  0  0  0  0  0
    3.4686   -2.3739    0.0000 H   0  0  0  0  0  0  0  0  0  0  0  0
 15  1  1  6  0  0  0
  1 29  1  0  0  0  0
  2 21  1  0  0  0  0
  2 27  1  0  0  0  0
  3 23  1  0  0  0  0
  3 28  1  0  0  0  0
  4 17  2  0  0  0  0
  5 22  2  0  0  0  0
  6 26  1  0  0  0  0
  6 31  1  0  0  0  0
  7 27  2  0  0  0  0
  8 29  2  0  0  0  0
  9 10  1  0  0  0  0
  9 12  1  0  0  0  0
  9 17  1  0  0  0  0
  9 19  1  1  0  0  0
 10 14  1  0  0  0  0
 10 16  1  0  0  0  0
 10 32  1  6  0  0  0
 11 13  1  0  0  0  0
 11 14  2  0  0  0  0
 11 15  1  0  0  0  0
 12 15  1  0  0  0  0
 12 33  1  0  0  0  0
 12 34  1  0  0  0  0
 13 20  1  0  0  0  0
 13 21  1  0  0  0  0
 13 24  1  1  0  0  0
 14 22  1  0  0  0  0
 15 35  1  0  0  0  0
 16 18  1  0  0  0  0
 16 36  1  0  0  0  0
 16 37  1  0  0  0  0
 17 18  1  0  0  0  0
 18 38  1  0  0  0  0
 18 39  1  0  0  0  0
 19 40  1  0  0  0  0
 19 41  1  0  0  0  0
 19 42  1  0  0  0  0
 20 23  2  0  0  0  0
 20 25  1  0  0  0  0
 21 26  1  6  0  0  0
 21 43  1  0  0  0  0
 22 23  1  0  0  0  0
 24 44  1  0  0  0  0
 24 45  1  0  0  0  0
 24 46  1  0  0  0  0
 25 27  1  0  0  0  0
 25 28  2  0  0  0  0
 26 47  1  0  0  0  0
 26 48  1  0  0  0  0
 28 49  1  0  0  0  0
 29 30  1  0  0  0  0
 30 50  1  0  0  0  0
 30 51  1  0  0  0  0
 30 52  1  0  0  0  0
 31 53  1  0  0  0  0
 31 54  1  0  0  0  0
 31 55  1  0  0  0  0
M  END
> <PUBCHEM_COMPOUND_CID>
312145

> <PUBCHEM_COMPOUND_CANONICALIZED>
1

> <PUBCHEM_CACTVS_COMPLEXITY>
921

> <PUBCHEM_CACTVS_HBOND_ACCEPTOR>
8

> <PUBCHEM_CACTVS_HBOND_DONOR>
0

> <PUBCHEM_CACTVS_ROTATABLE_BOND>
4

> <PUBCHEM_CACTVS_SUBSKEYS>
AAADceB4PAAAAAAAAAAAAAAAAAAAAaIAAAAkQIAAAAAAAEjBgAAAGgAAAAAADxSgmAIiDIAABECIAojSiAICCAAkIAAAiAFECMgNJzaMNB6CGWCl4BEKqYfL7vzvgAAAAAAAAAAAAAAAAAAAAAAACAAAAA==

> <PUBCHEM_IUPAC_INCHI>
InChI=1S/C23H24O8/c1-10(24)30-13-7-22(2)12(5-6-14(22)25)16-18(13)23(3)15(9-28-4)31-21(27)11-8-29-20(17(11)23)19(16)26/h8,12-13,15H,5-7,9H2,1-4H3/t12-,13+,15+,22-,23-/m0/s1

> <PUBCHEM_IUPAC_INCHIKEY>
QDLHCMPXEPAAMD-QAIWCSMKSA-N

> <PUBCHEM_XLOGP3_AA>
1.2

> <PUBCHEM_EXACT_MASS>
428.147118

> <PUBCHEM_MOLECULAR_FORMULA>
C23H24O8

> <PUBCHEM_MOLECULAR_WEIGHT>
428.43186

> <PUBCHEM_OPENEYE_CAN_SMILES>
CC(=O)OC1CC2(C(CCC2=O)C3=C1C4(C(OC(=O)C5=COC(=C54)C3=O)COC)C)C

> <PUBCHEM_OPENEYE_ISO_SMILES>
CC(=O)O[C@@H]1C[C@]2([C@@H](CCC2=O)C3=C1[C@]4([C@H](OC(=O)C5=COC(=C54)C3=O)COC)C)C

> <PUBCHEM_CACTVS_TPSA>
109

> <PUBCHEM_MONOISOTOPIC_WEIGHT>
428.147118

> <PUBCHEM_TOTAL_CHARGE>
0

> <PUBCHEM_HEAVY_ATOM_COUNT>
31

> <PUBCHEM_ATOM_DEF_STEREO_COUNT>
5

> <PUBCHEM_ATOM_UDEF_STEREO_COUNT>
0

> <PUBCHEM_BOND_DEF_STEREO_COUNT>
0

> <PUBCHEM_BOND_UDEF_STEREO_COUNT>
0

> <PUBCHEM_ISOTOPIC_ATOM_COUNT>
0

> <PUBCHEM_COMPONENT_COUNT>
1

> <PUBCHEM_CACTVS_TAUTO_COUNT>
2

> <PUBCHEM_COORDINATE_TYPE>
1
5
255

> <PUBCHEM_BONDANNOTATIONS>
15  1  6
10  32  6
13  24  5
20  23  8
20  25  8
21  26  6
25  28  8
3  23  8
3  28  8
9  19  5

$$$$

