23724767
  -OEChem-07051213082D

 50 49  0     1  0  0  0  0  0999 V2000
    3.4030   -0.2500    0.0000 P   0  0  0  0  0  0  0  0  0  0  0  0
    6.8671   -1.2500    0.0000 O   0  0  0  0  0  0  0  0  0  0  0  0
    7.7331    1.2500    0.0000 O   0  0  0  0  0  0  0  0  0  0  0  0
    6.0010    1.2500    0.0000 O   0  0  0  0  0  0  0  0  0  0  0  0
    4.2690    0.2500    0.0000 O   0  0  0  0  0  0  0  0  0  0  0  0
    8.5991   -1.2500    0.0000 O   0  0  0  0  0  0  0  0  0  0  0  0
   16.3933    0.2500    0.0000 O   0  0  0  0  0  0  0  0  0  0  0  0
   15.5273   -1.2500    0.0000 O   0  0  0  0  0  0  0  0  0  0  0  0
    2.5369   -0.7500    0.0000 O   0  0  0  0  0  0  0  0  0  0  0  0
    2.9030    0.6160    0.0000 O   0  0  0  0  0  0  0  0  0  0  0  0
    3.9030   -1.1160    0.0000 O   0  0  0  0  0  0  0  0  0  0  0  0
   10.3312   -0.2500    0.0000 N   0  0  0  0  0  0  0  0  0  0  0  0
   14.6613    1.2500    0.0000 N   0  0  0  0  0  0  0  0  0  0  0  0
    6.8671   -0.2500    0.0000 C   0  0  3  0  0  0  0  0  0  0  0  0
    7.7331    0.2500    0.0000 C   0  0  3  0  0  0  0  0  0  0  0  0
    6.0010    0.2500    0.0000 C   0  0  3  0  0  0  0  0  0  0  0  0
   12.0632   -0.2500    0.0000 C   0  0  0  0  0  0  0  0  0  0  0  0
   12.9292    0.2500    0.0000 C   0  0  0  0  0  0  0  0  0  0  0  0
   11.1972    0.2500    0.0000 C   0  0  0  0  0  0  0  0  0  0  0  0
   13.7953   -0.2500    0.0000 C   0  0  0  0  0  0  0  0  0  0  0  0
    8.5991   -0.2500    0.0000 C   0  0  0  0  0  0  0  0  0  0  0  0
    9.4651    0.2500    0.0000 C   0  0  0  0  0  0  0  0  0  0  0  0
    5.1350   -0.2500    0.0000 C   0  0  0  0  0  0  0  0  0  0  0  0
   14.6613    0.2500    0.0000 C   0  0  3  0  0  0  0  0  0  0  0  0
   15.5273   -0.2500    0.0000 C   0  0  0  0  0  0  0  0  0  0  0  0
    6.3301   -0.5600    0.0000 H   0  0  0  0  0  0  0  0  0  0  0  0
    8.2700    0.5600    0.0000 H   0  0  0  0  0  0  0  0  0  0  0  0
    6.5380    0.5600    0.0000 H   0  0  0  0  0  0  0  0  0  0  0  0
   11.6647   -0.7249    0.0000 H   0  0  0  0  0  0  0  0  0  0  0  0
   12.4617   -0.7249    0.0000 H   0  0  0  0  0  0  0  0  0  0  0  0
   13.3278    0.7249    0.0000 H   0  0  0  0  0  0  0  0  0  0  0  0
   12.5307    0.7249    0.0000 H   0  0  0  0  0  0  0  0  0  0  0  0
   11.5957    0.7249    0.0000 H   0  0  0  0  0  0  0  0  0  0  0  0
   10.7987    0.7249    0.0000 H   0  0  0  0  0  0  0  0  0  0  0  0
   13.3967   -0.7249    0.0000 H   0  0  0  0  0  0  0  0  0  0  0  0
   14.1938   -0.7249    0.0000 H   0  0  0  0  0  0  0  0  0  0  0  0
    9.8637    0.7249    0.0000 H   0  0  0  0  0  0  0  0  0  0  0  0
    9.0666    0.7249    0.0000 H   0  0  0  0  0  0  0  0  0  0  0  0
   10.3312   -0.8700    0.0000 H   0  0  0  0  0  0  0  0  0  0  0  0
    4.7365   -0.7249    0.0000 H   0  0  0  0  0  0  0  0  0  0  0  0
    5.5335   -0.7249    0.0000 H   0  0  0  0  0  0  0  0  0  0  0  0
   14.1244    0.5600    0.0000 H   0  0  0  0  0  0  0  0  0  0  0  0
    6.3301   -1.5600    0.0000 H   0  0  0  0  0  0  0  0  0  0  0  0
    8.2700    1.5600    0.0000 H   0  0  0  0  0  0  0  0  0  0  0  0
    5.4641    1.5600    0.0000 H   0  0  0  0  0  0  0  0  0  0  0  0
   15.1982    1.5600    0.0000 H   0  0  0  0  0  0  0  0  0  0  0  0
   14.1244    1.5600    0.0000 H   0  0  0  0  0  0  0  0  0  0  0  0
   16.9303   -0.0600    0.0000 H   0  0  0  0  0  0  0  0  0  0  0  0
    3.2130    1.1530    0.0000 H   0  0  0  0  0  0  0  0  0  0  0  0
    2.0000   -0.4400    0.0000 H   0  0  0  0  0  0  0  0  0  0  0  0
  1  5  1  0  0  0  0
  1  9  1  0  0  0  0
  1 10  1  0  0  0  0
  1 11  2  0  0  0  0
  2 14  1  0  0  0  0
  2 43  1  0  0  0  0
  3 15  1  0  0  0  0
  3 44  1  0  0  0  0
  4 16  1  0  0  0  0
  4 45  1  0  0  0  0
  5 23  1  0  0  0  0
  6 21  2  0  0  0  0
  7 25  1  0  0  0  0
  7 48  1  0  0  0  0
  8 25  2  0  0  0  0
  9 50  1  0  0  0  0
 10 49  1  0  0  0  0
 12 19  1  0  0  0  0
 12 22  1  0  0  0  0
 12 39  1  0  0  0  0
 13 24  1  0  0  0  0
 13 46  1  0  0  0  0
 13 47  1  0  0  0  0
 14 15  1  0  0  0  0
 14 16  1  0  0  0  0
 14 26  1  0  0  0  0
 15 21  1  0  0  0  0
 15 27  1  0  0  0  0
 16 23  1  0  0  0  0
 16 28  1  0  0  0  0
 17 18  1  0  0  0  0
 17 19  1  0  0  0  0
 17 29  1  0  0  0  0
 17 30  1  0  0  0  0
 18 20  1  0  0  0  0
 18 31  1  0  0  0  0
 18 32  1  0  0  0  0
 19 33  1  0  0  0  0
 19 34  1  0  0  0  0
 20 24  1  0  0  0  0
 20 35  1  0  0  0  0
 20 36  1  0  0  0  0
 21 22  1  0  0  0  0
 22 37  1  0  0  0  0
 22 38  1  0  0  0  0
 23 40  1  0  0  0  0
 23 41  1  0  0  0  0
 24 25  1  0  0  0  0
 24 42  1  0  0  0  0
M  END
> <PUBCHEM_COMPOUND_CID>
23724767

> <PUBCHEM_COMPOUND_CANONICALIZED>
1

> <PUBCHEM_CACTVS_COMPLEXITY>
471

> <PUBCHEM_CACTVS_HBOND_ACCEPTOR>
12

> <PUBCHEM_CACTVS_HBOND_DONOR>
8

> <PUBCHEM_CACTVS_ROTATABLE_BOND>
14

> <PUBCHEM_CACTVS_SUBSKEYS>
AAADceBzPAIAAAAAAAAAAAAAAAAAAAAAAAAAAAAAAAAAAAAAAAAAHgAQCCAACDzhgAYACALAAxAIQICQCIIAAAAAAAAAAIHIAAADEBYAgCAEQAAHMACBAAH6XAIAAAAAAAAAAAAAAAAAAAAAAAAAAAAAAA==

> <PUBCHEM_IUPAC_OPENEYE_NAME>
2-amino-6-[(3,4,5-trihydroxy-2-oxo-6-phosphonooxy-hexyl)amino]hexanoic acid

> <PUBCHEM_IUPAC_CAS_NAME>
2-amino-6-[(3,4,5-trihydroxy-2-oxo-6-phosphonooxyhexyl)amino]hexanoic acid

> <PUBCHEM_IUPAC_NAME>
2-amino-6-[(3,4,5-trihydroxy-2-oxo-6-phosphonooxyhexyl)amino]hexanoic acid

> <PUBCHEM_IUPAC_SYSTEMATIC_NAME>
2-azanyl-6-[[3,4,5-tris(oxidanyl)-2-oxidanylidene-6-phosphonooxy-hexyl]amino]hexanoic acid

> <PUBCHEM_IUPAC_TRADITIONAL_NAME>
2-amino-6-[(3,4,5-trihydroxy-2-keto-6-phosphonooxy-hexyl)amino]hexanoic acid

> <PUBCHEM_IUPAC_INCHI>
InChI=1S/C12H25N2O10P/c13-7(12(19)20)3-1-2-4-14-5-8(15)10(17)11(18)9(16)6-24-25(21,22)23/h7,9-11,14,16-18H,1-6,13H2,(H,19,20)(H2,21,22,23)

> <PUBCHEM_IUPAC_INCHIKEY>
ZICZRZZPXBCXCE-UHFFFAOYSA-N

> <PUBCHEM_XLOGP3_AA>
-8.9

> <PUBCHEM_EXACT_MASS>
388.124682

> <PUBCHEM_MOLECULAR_FORMULA>
C12H25N2O10P

> <PUBCHEM_MOLECULAR_WEIGHT>
388.308062

> <PUBCHEM_OPENEYE_CAN_SMILES>
C(CCNCC(=O)C(C(C(COP(=O)(O)O)O)O)O)CC(C(=O)O)N

> <PUBCHEM_OPENEYE_ISO_SMILES>
C(CCNCC(=O)C(C(C(COP(=O)(O)O)O)O)O)CC(C(=O)O)N

> <PUBCHEM_CACTVS_TPSA>
220

> <PUBCHEM_MONOISOTOPIC_WEIGHT>
388.124682

> <PUBCHEM_TOTAL_CHARGE>
0

> <PUBCHEM_HEAVY_ATOM_COUNT>
25

> <PUBCHEM_ATOM_DEF_STEREO_COUNT>
0

> <PUBCHEM_ATOM_UDEF_STEREO_COUNT>
4

> <PUBCHEM_BOND_DEF_STEREO_COUNT>
0

> <PUBCHEM_BOND_UDEF_STEREO_COUNT>
0

> <PUBCHEM_ISOTOPIC_ATOM_COUNT>
0

> <PUBCHEM_COMPONENT_COUNT>
1

> <PUBCHEM_CACTVS_TAUTO_COUNT>
9

> <PUBCHEM_COORDINATE_TYPE>
1
5
255

> <PUBCHEM_BONDANNOTATIONS>
24  13  3
14  2  3
15  3  3
16  4  3

$$$$

