9798
  -OEChem-06261204043D

 44 50  0     0  0  0  0  0  0999 V2000
   -0.3672    0.7059    0.0085 C   0  0  0  0  0  0  0  0  0  0  0  0
   -0.3674   -0.7058   -0.0078 C   0  0  0  0  0  0  0  0  0  0  0  0
    2.1146    0.6787    0.1827 C   0  0  0  0  0  0  0  0  0  0  0  0
    2.1144   -0.6791   -0.1825 C   0  0  0  0  0  0  0  0  0  0  0  0
    0.8882    1.3723    0.3014 C   0  0  0  0  0  0  0  0  0  0  0  0
    0.8878   -1.3725   -0.3009 C   0  0  0  0  0  0  0  0  0  0  0  0
   -1.6172    1.3763   -0.2789 C   0  0  0  0  0  0  0  0  0  0  0  0
   -1.6176   -1.3760    0.2793 C   0  0  0  0  0  0  0  0  0  0  0  0
   -2.8530    0.6872   -0.1843 C   0  0  0  0  0  0  0  0  0  0  0  0
   -2.8531   -0.6866    0.1845 C   0  0  0  0  0  0  0  0  0  0  0  0
    3.3585    1.3409    0.4030 C   0  0  0  0  0  0  0  0  0  0  0  0
    3.3581   -1.3414   -0.4033 C   0  0  0  0  0  0  0  0  0  0  0  0
    0.9807    2.7025    0.7877 C   0  0  0  0  0  0  0  0  0  0  0  0
    0.9799   -2.7026   -0.7871 C   0  0  0  0  0  0  0  0  0  0  0  0
    4.5629    0.6623    0.2060 C   0  0  0  0  0  0  0  0  0  0  0  0
    4.5627   -0.6630   -0.2071 C   0  0  0  0  0  0  0  0  0  0  0  0
    3.3820    2.6718    0.8188 C   0  0  0  0  0  0  0  0  0  0  0  0
    3.3813   -2.6723   -0.8189 C   0  0  0  0  0  0  0  0  0  0  0  0
   -1.6716    2.7175   -0.7511 C   0  0  0  0  0  0  0  0  0  0  0  0
   -1.6724   -2.7172    0.7512 C   0  0  0  0  0  0  0  0  0  0  0  0
    2.1940    3.3454    1.0327 C   0  0  0  0  0  0  0  0  0  0  0  0
    2.1931   -3.3458   -1.0323 C   0  0  0  0  0  0  0  0  0  0  0  0
   -4.0510    1.4101   -0.4527 C   0  0  0  0  0  0  0  0  0  0  0  0
   -4.0515   -1.4093    0.4524 C   0  0  0  0  0  0  0  0  0  0  0  0
   -2.8591    3.3963   -1.0201 C   0  0  0  0  0  0  0  0  0  0  0  0
   -2.8600   -3.3961    1.0197 C   0  0  0  0  0  0  0  0  0  0  0  0
   -4.0581    2.7431   -0.8526 C   0  0  0  0  0  0  0  0  0  0  0  0
   -4.0589   -2.7426    0.8518 C   0  0  0  0  0  0  0  0  0  0  0  0
    0.0853    3.2682    1.0360 H   0  0  0  0  0  0  0  0  0  0  0  0
    0.0845   -3.2681   -1.0353 H   0  0  0  0  0  0  0  0  0  0  0  0
    5.5174    1.1601    0.3639 H   0  0  0  0  0  0  0  0  0  0  0  0
    5.5172   -1.1608   -0.3656 H   0  0  0  0  0  0  0  0  0  0  0  0
    4.3215    3.1881    1.0015 H   0  0  0  0  0  0  0  0  0  0  0  0
    4.3206   -3.1888   -1.0019 H   0  0  0  0  0  0  0  0  0  0  0  0
   -0.7594    3.2653   -0.9772 H   0  0  0  0  0  0  0  0  0  0  0  0
   -0.7602   -3.2652    0.9775 H   0  0  0  0  0  0  0  0  0  0  0  0
    2.2030    4.3688    1.3959 H   0  0  0  0  0  0  0  0  0  0  0  0
    2.2018   -4.3692   -1.3954 H   0  0  0  0  0  0  0  0  0  0  0  0
   -5.0271    0.9380   -0.3795 H   0  0  0  0  0  0  0  0  0  0  0  0
   -5.0274   -0.9369    0.3790 H   0  0  0  0  0  0  0  0  0  0  0  0
   -2.8343    4.4226   -1.3725 H   0  0  0  0  0  0  0  0  0  0  0  0
   -2.8354   -4.4225    1.3719 H   0  0  0  0  0  0  0  0  0  0  0  0
   -4.9962    3.2491   -1.0573 H   0  0  0  0  0  0  0  0  0  0  0  0
   -4.9972   -3.2485    1.0561 H   0  0  0  0  0  0  0  0  0  0  0  0
  1  2  2  0  0  0  0
  1  5  1  0  0  0  0
  1  7  1  0  0  0  0
  2  6  1  0  0  0  0
  2  8  1  0  0  0  0
  3  4  1  0  0  0  0
  3  5  1  0  0  0  0
  3 11  2  0  0  0  0
  4  6  1  0  0  0  0
  4 12  2  0  0  0  0
  5 13  2  0  0  0  0
  6 14  2  0  0  0  0
  7  9  1  0  0  0  0
  7 19  2  0  0  0  0
  8 10  1  0  0  0  0
  8 20  2  0  0  0  0
  9 10  1  0  0  0  0
  9 23  2  0  0  0  0
 10 24  2  0  0  0  0
 11 15  1  0  0  0  0
 11 17  1  0  0  0  0
 12 16  1  0  0  0  0
 12 18  1  0  0  0  0
 13 21  1  0  0  0  0
 13 29  1  0  0  0  0
 14 22  1  0  0  0  0
 14 30  1  0  0  0  0
 15 16  2  0  0  0  0
 15 31  1  0  0  0  0
 16 32  1  0  0  0  0
 17 21  2  0  0  0  0
 17 33  1  0  0  0  0
 18 22  2  0  0  0  0
 18 34  1  0  0  0  0
 19 25  1  0  0  0  0
 19 35  1  0  0  0  0
 20 26  1  0  0  0  0
 20 36  1  0  0  0  0
 21 37  1  0  0  0  0
 22 38  1  0  0  0  0
 23 27  1  0  0  0  0
 23 39  1  0  0  0  0
 24 28  1  0  0  0  0
 24 40  1  0  0  0  0
 25 27  2  0  0  0  0
 25 41  1  0  0  0  0
 26 28  2  0  0  0  0
 26 42  1  0  0  0  0
 27 43  1  0  0  0  0
 28 44  1  0  0  0  0
M  END
> <PUBCHEM_COMPOUND_CID>
9798

> <PUBCHEM_CONFORMER_RMSD>
0.6

> <PUBCHEM_CONFORMER_DIVERSEORDER>
2
1

> <PUBCHEM_MMFF94_PARTIAL_CHARGES>
32
13 -0.15
14 -0.15
15 -0.15
16 -0.15
17 -0.15
18 -0.15
19 -0.15
20 -0.15
21 -0.15
22 -0.15
23 -0.15
24 -0.15
25 -0.15
26 -0.15
27 -0.15
28 -0.15
29 0.15
30 0.15
31 0.15
32 0.15
33 0.15
34 0.15
35 0.15
36 0.15
37 0.15
38 0.15
39 0.15
40 0.15
41 0.15
42 0.15
43 0.15
44 0.15

> <PUBCHEM_EFFECTIVE_ROTOR_COUNT>
0

> <PUBCHEM_PHARMACOPHORE_FEATURES>
7
6 1 2 3 4 5 6 rings
6 1 2 7 8 9 10 rings
6 3 4 11 12 15 16 rings
6 3 5 11 13 17 21 rings
6 4 6 12 14 18 22 rings
6 7 9 19 23 25 27 rings
6 8 10 20 24 26 28 rings

> <PUBCHEM_HEAVY_ATOM_COUNT>
28

> <PUBCHEM_ATOM_DEF_STEREO_COUNT>
0

> <PUBCHEM_ATOM_UDEF_STEREO_COUNT>
0

> <PUBCHEM_BOND_DEF_STEREO_COUNT>
0

> <PUBCHEM_BOND_UDEF_STEREO_COUNT>
0

> <PUBCHEM_ISOTOPIC_ATOM_COUNT>
0

> <PUBCHEM_COMPONENT_COUNT>
1

> <PUBCHEM_CACTVS_TAUTO_COUNT>
1

> <PUBCHEM_CONFORMER_ID>
0000264600000002

> <PUBCHEM_MMFF94_ENERGY>
144.5678

> <PUBCHEM_FEATURE_SELFOVERLAP>
35.716

> <PUBCHEM_SHAPE_FINGERPRINT>
10165383 225 17610896786279807448
10319926 262 18341069462315470634
10675989 125 17259914442367820548
10693767 8 17467941978592939303
10906281 52 17972589159583108396
10967382 1 18263082274761675468
1100329 8 17545319043475580336
11828532 37 15473098624688288091
12403259 226 18337671910406877802
12422481 6 18266719330619998571
12553582 1 17901089039273114866
13140716 1 18337387132605636945
13402501 40 18410011035198029825
13583140 156 18334295366011440871
138480 1 16468125397837140355
140371 6 18046059626110389600
14223421 5 18338233765085596803
14363568 33 17334188162394561777
14725015 67 18341618057687264202
14790565 3 17115497442919465853
15351339 4 17332529480299955139
19591789 44 18119808015380684316
1979834 28 17833532519469605099
20739085 24 17908120102436547915
20775438 99 17975455474849118383
21033648 29 18127985306585043245
21133410 32 16767265888744307714
221490 88 18409164415929993236
22182313 1 18261108561285227230
22440779 20 17123892519007929931
23559900 14 18264773345178385062
238 59 18119280378226488685
27425 322 17060328656383965837
2748010 2 18194122914926748869
3298306 158 18335423482522412724
335352 9 18266179628791800068
3380486 145 18338779179162491153
350125 39 18265327305628118784
4015057 19 18263095460131965365
5047190 48 17906452121506273008
508706 21 18413395345031501517
5104073 3 18409732833282091128
5309563 4 17980758243009616107
7399639 24 18120662326951329928
9709674 26 18409731793789131039

> <PUBCHEM_SHAPE_MULTIPOLES>
576.23
8.42
5.01
1
0.31
0
0
0
0
-1.57
0
-0.13
0
3.32

> <PUBCHEM_SHAPE_SELFOVERLAP>
1369.957

> <PUBCHEM_SHAPE_VOLUME>
256.7

> <PUBCHEM_COORDINATE_TYPE>
2
5
10

$$$$

