442144
  -OEChem-07051212573D

 43 46  0     1  0  0  0  0  0999 V2000
   -0.0139   -2.6618    0.9709 O   0  0  0  0  0  0  0  0  0  0  0  0
   -0.2553    0.2495   -2.5696 O   0  0  0  0  0  0  0  0  0  0  0  0
   -3.6948   -0.7505    0.5278 O   0  0  0  0  0  0  0  0  0  0  0  0
    3.3422    1.0728    0.4327 O   0  0  0  0  0  0  0  0  0  0  0  0
   -5.2716    0.7880    1.2150 O   0  0  0  0  0  0  0  0  0  0  0  0
    4.6219   -0.7220    1.1244 O   0  0  0  0  0  0  0  0  0  0  0  0
   -0.3062   -2.0700   -0.3092 C   0  0  2  0  0  0  0  0  0  0  0  0
    0.7383   -1.1055   -0.8371 C   0  0  1  0  0  0  0  0  0  0  0  0
    0.3167    0.3222   -1.2645 C   0  0  2  0  0  0  0  0  0  0  0  0
   -1.7731   -1.8258   -0.5309 C   0  0  0  0  0  0  0  0  0  0  0  0
    0.1284   -3.5210   -0.1604 C   0  0  0  0  0  0  0  0  0  0  0  0
    1.8930   -0.8417    0.1393 C   0  0  0  0  0  0  0  0  0  0  0  0
   -0.6003    1.1192   -0.3056 C   0  0  0  0  0  0  0  0  0  0  0  0
   -2.2739   -0.6736    0.3254 C   0  0  1  0  0  0  0  0  0  0  0  0
   -2.0598    0.6733   -0.3287 C   0  0  1  0  0  0  0  0  0  0  0  0
    1.6759    1.0168   -1.3370 C   0  0  0  0  0  0  0  0  0  0  0  0
    2.7018    0.2595   -0.5349 C   0  0  1  0  0  0  0  0  0  0  0  0
   -3.0659    1.4464    0.4561 C   0  0  0  0  0  0  0  0  0  0  0  0
    1.9614    2.1154   -2.0501 C   0  0  0  0  0  0  0  0  0  0  0  0
   -4.1620    0.5079    0.8009 C   0  0  0  0  0  0  0  0  0  0  0  0
   -3.0709    2.7183    0.8591 C   0  0  0  0  0  0  0  0  0  0  0  0
    4.2895    0.4530    1.2021 C   0  0  0  0  0  0  0  0  0  0  0  0
    4.8786    1.4295    2.1744 C   0  0  0  0  0  0  0  0  0  0  0  0
    1.1601   -1.6021   -1.7266 H   0  0  0  0  0  0  0  0  0  0  0  0
   -2.3422   -2.7233   -0.2515 H   0  0  0  0  0  0  0  0  0  0  0  0
   -2.0059   -1.6814   -1.5903 H   0  0  0  0  0  0  0  0  0  0  0  0
   -0.6041   -4.3079   -0.2892 H   0  0  0  0  0  0  0  0  0  0  0  0
    1.1324   -3.8029   -0.4527 H   0  0  0  0  0  0  0  0  0  0  0  0
    2.4915   -1.7462    0.2929 H   0  0  0  0  0  0  0  0  0  0  0  0
    1.5268   -0.5284    1.1257 H   0  0  0  0  0  0  0  0  0  0  0  0
   -0.5842    2.1728   -0.6172 H   0  0  0  0  0  0  0  0  0  0  0  0
   -0.2066    1.0997    0.7188 H   0  0  0  0  0  0  0  0  0  0  0  0
   -1.8125   -0.7231    1.3228 H   0  0  0  0  0  0  0  0  0  0  0  0
   -2.4280    0.6615   -1.3641 H   0  0  0  0  0  0  0  0  0  0  0  0
    3.4433   -0.1701   -1.2220 H   0  0  0  0  0  0  0  0  0  0  0  0
   -0.6922   -0.6079   -2.6870 H   0  0  0  0  0  0  0  0  0  0  0  0
    1.1986    2.6216   -2.6316 H   0  0  0  0  0  0  0  0  0  0  0  0
    2.9639    2.5295   -2.0639 H   0  0  0  0  0  0  0  0  0  0  0  0
   -2.2564    3.3892    0.6099 H   0  0  0  0  0  0  0  0  0  0  0  0
   -3.8869    3.1257    1.4465 H   0  0  0  0  0  0  0  0  0  0  0  0
    4.0961    1.8120    2.8345 H   0  0  0  0  0  0  0  0  0  0  0  0
    5.3593    2.2474    1.6322 H   0  0  0  0  0  0  0  0  0  0  0  0
    5.6331    0.9242    2.7843 H   0  0  0  0  0  0  0  0  0  0  0  0
  1  7  1  0  0  0  0
  1 11  1  0  0  0  0
  2  9  1  0  0  0  0
  2 36  1  0  0  0  0
  3 14  1  0  0  0  0
  3 20  1  0  0  0  0
  4 17  1  0  0  0  0
  4 22  1  0  0  0  0
  5 20  2  0  0  0  0
  6 22  2  0  0  0  0
  7  8  1  0  0  0  0
  7 10  1  0  0  0  0
  7 11  1  0  0  0  0
  8  9  1  0  0  0  0
  8 12  1  0  0  0  0
  8 24  1  0  0  0  0
  9 13  1  0  0  0  0
  9 16  1  0  0  0  0
 10 14  1  0  0  0  0
 10 25  1  0  0  0  0
 10 26  1  0  0  0  0
 11 27  1  0  0  0  0
 11 28  1  0  0  0  0
 12 17  1  0  0  0  0
 12 29  1  0  0  0  0
 12 30  1  0  0  0  0
 13 15  1  0  0  0  0
 13 31  1  0  0  0  0
 13 32  1  0  0  0  0
 14 15  1  0  0  0  0
 14 33  1  0  0  0  0
 15 18  1  0  0  0  0
 15 34  1  0  0  0  0
 16 17  1  0  0  0  0
 16 19  2  0  0  0  0
 17 35  1  0  0  0  0
 18 20  1  0  0  0  0
 18 21  2  0  0  0  0
 19 37  1  0  0  0  0
 19 38  1  0  0  0  0
 21 39  1  0  0  0  0
 21 40  1  0  0  0  0
 22 23  1  0  0  0  0
 23 41  1  0  0  0  0
 23 42  1  0  0  0  0
 23 43  1  0  0  0  0
M  END
> <PUBCHEM_COMPOUND_CID>
442144

> <PUBCHEM_CONFORMER_RMSD>
0.6

> <PUBCHEM_CONFORMER_DIVERSEORDER>
1
6
2
11
8
7
9
3
5
4
10

> <PUBCHEM_MMFF94_PARTIAL_CHARGES>
28
1 -0.3
10 0.09
11 -0.05
14 0.28
15 0.14
16 -0.28
17 0.42
18 -0.12
19 -0.3
2 -0.68
20 0.71
21 -0.3
22 0.66
23 0.06
27 0.1
28 0.1
3 -0.43
36 0.4
37 0.15
38 0.15
39 0.15
4 -0.43
40 0.15
5 -0.57
6 -0.57
7 -0.04
8 0.09
9 0.42

> <PUBCHEM_EFFECTIVE_ROTOR_COUNT>
3.4

> <PUBCHEM_PHARMACOPHORE_FEATURES>
8
1 1 acceptor
1 2 acceptor
1 2 donor
1 5 acceptor
1 6 acceptor
5 3 14 15 18 20 rings
5 8 9 12 16 17 rings
7 7 8 9 10 13 14 15 rings

> <PUBCHEM_HEAVY_ATOM_COUNT>
23

> <PUBCHEM_ATOM_DEF_STEREO_COUNT>
6

> <PUBCHEM_ATOM_UDEF_STEREO_COUNT>
0

> <PUBCHEM_BOND_DEF_STEREO_COUNT>
0

> <PUBCHEM_BOND_UDEF_STEREO_COUNT>
0

> <PUBCHEM_ISOTOPIC_ATOM_COUNT>
0

> <PUBCHEM_COMPONENT_COUNT>
1

> <PUBCHEM_CACTVS_TAUTO_COUNT>
1

> <PUBCHEM_CONFORMER_ID>
0006BF2000000001

> <PUBCHEM_MMFF94_ENERGY>
65.0356

> <PUBCHEM_FEATURE_SELFOVERLAP>
40.653

> <PUBCHEM_SHAPE_FINGERPRINT>
10948715 1 17967817179690948895
11370993 70 18408890671551530841
11582403 64 17240774977338006150
11725454 13 17167869642670842386
12422481 6 17987244515071842648
12553582 1 17632308843791994718
12633257 1 18194427544874246568
12644460 14 17346303874605855412
12670546 177 8646766712047598850
12788726 201 17693641628807503202
12839892 36 18342450414254841499
12892183 10 18409737227181281938
12930653 34 18265617774013328089
13103583 49 16773512260901972897
13140716 1 18267295440189690353
13544653 18 13973962125426191720
13965767 371 17909541006293588401
14178342 30 18270108158200278593
14787075 74 17968106287098753929
15061688 2 17458062655393820615
15163728 17 16370994183745900480
15209294 21 18334863805149402426
15295992 7 17677064442988520410
15420108 30 18266470986515203839
16945 1 18194390100573880254
17349148 13 18059564772767982367
17980427 23 18190187797434941260
1813 80 16917066702917292430
20739085 24 18129376176045563830
21033648 29 18265354917909977392
212916 134 18334859411265983432
21731228 192 18408888429726632906
21756936 100 17824276916897750040
22182313 1 17914342517642117919
23184049 59 18273218616407517074
23379529 103 10807345551935273065
23557571 272 17605540068423225703
23559900 14 18115849880958378772
25147074 1 17843400670751345350
2748010 2 17625544870878830951
2838139 119 16370735824557685432
352729 6 18197480853888298591
394222 165 17557675046090853580
427121 178 18187919607782928291
4280585 95 9655570782511218712
4340502 62 18334286600774382827
465052 167 17274809264326913235
6992083 37 18059021570826404910
7064713 232 18411418418677078465
7097593 13 18058171622710813420
7364860 26 18120360215010345695
9862522 239 18200609097465296341

> <PUBCHEM_SHAPE_MULTIPOLES>
438.11
8.22
2.89
1.75
1.33
1.78
0.51
-4.69
-6.24
-0.76
-0.24
1.53
-0.86
-0.36

> <PUBCHEM_SHAPE_SELFOVERLAP>
948.758

> <PUBCHEM_SHAPE_VOLUME>
240.7

> <PUBCHEM_COORDINATE_TYPE>
2
5
10

$$$$

