162916
  -OEChem-07051212482D

 72 71  0     1  0  0  0  0  0999 V2000
   13.2583    0.8100    0.0000 O   0  0  0  0  0  0  0  0  0  0  0  0
   10.6603    0.3100    0.0000 O   0  0  0  0  0  0  0  0  0  0  0  0
   14.1244   -0.6900    0.0000 O   0  0  0  0  0  0  0  0  0  0  0  0
    9.7942    1.8100    0.0000 O   0  0  0  0  0  0  0  0  0  0  0  0
   11.5263   -1.1900    0.0000 O   0  0  0  0  0  0  0  0  0  0  0  0
   17.5885    0.3100    0.0000 C   0  0  0  0  0  0  0  0  0  0  0  0
   18.4545    0.8100    0.0000 C   0  0  0  0  0  0  0  0  0  0  0  0
    6.3301    0.8100    0.0000 C   0  0  0  0  0  0  0  0  0  0  0  0
    5.4641    0.3100    0.0000 C   0  0  0  0  0  0  0  0  0  0  0  0
   16.7224    0.8100    0.0000 C   0  0  0  0  0  0  0  0  0  0  0  0
   19.3205    0.3100    0.0000 C   0  0  0  0  0  0  0  0  0  0  0  0
    7.1962    0.3100    0.0000 C   0  0  0  0  0  0  0  0  0  0  0  0
    4.5981    0.8100    0.0000 C   0  0  0  0  0  0  0  0  0  0  0  0
   15.8564    0.3100    0.0000 C   0  0  0  0  0  0  0  0  0  0  0  0
   20.1865    0.8100    0.0000 C   0  0  0  0  0  0  0  0  0  0  0  0
    8.0622    0.8100    0.0000 C   0  0  0  0  0  0  0  0  0  0  0  0
    3.7320    0.3100    0.0000 C   0  0  0  0  0  0  0  0  0  0  0  0
   14.9904    0.8100    0.0000 C   0  0  0  0  0  0  0  0  0  0  0  0
   21.0526    0.3100    0.0000 C   0  0  0  0  0  0  0  0  0  0  0  0
    8.9282    0.3100    0.0000 C   0  0  0  0  0  0  0  0  0  0  0  0
    2.8660    0.8100    0.0000 C   0  0  0  0  0  0  0  0  0  0  0  0
   12.3923    0.3100    0.0000 C   0  0  2  0  0  0  0  0  0  0  0  0
   14.1244    0.3100    0.0000 C   0  0  0  0  0  0  0  0  0  0  0  0
   21.9186    0.8100    0.0000 C   0  0  0  0  0  0  0  0  0  0  0  0
    9.7942    0.8100    0.0000 C   0  0  0  0  0  0  0  0  0  0  0  0
    2.0000    0.3100    0.0000 C   0  0  0  0  0  0  0  0  0  0  0  0
   11.5263    0.8100    0.0000 C   0  0  0  0  0  0  0  0  0  0  0  0
   12.3923   -0.6900    0.0000 C   0  0  0  0  0  0  0  0  0  0  0  0
   17.1899   -0.1649    0.0000 H   0  0  0  0  0  0  0  0  0  0  0  0
   17.9870   -0.1649    0.0000 H   0  0  0  0  0  0  0  0  0  0  0  0
   18.8530    1.2850    0.0000 H   0  0  0  0  0  0  0  0  0  0  0  0
   18.0560    1.2850    0.0000 H   0  0  0  0  0  0  0  0  0  0  0  0
    6.7287    1.2850    0.0000 H   0  0  0  0  0  0  0  0  0  0  0  0
    5.9316    1.2850    0.0000 H   0  0  0  0  0  0  0  0  0  0  0  0
    5.0656   -0.1649    0.0000 H   0  0  0  0  0  0  0  0  0  0  0  0
    5.8626   -0.1649    0.0000 H   0  0  0  0  0  0  0  0  0  0  0  0
   17.1210    1.2850    0.0000 H   0  0  0  0  0  0  0  0  0  0  0  0
   16.3239    1.2850    0.0000 H   0  0  0  0  0  0  0  0  0  0  0  0
   18.9220   -0.1649    0.0000 H   0  0  0  0  0  0  0  0  0  0  0  0
   19.7190   -0.1649    0.0000 H   0  0  0  0  0  0  0  0  0  0  0  0
    6.7976   -0.1649    0.0000 H   0  0  0  0  0  0  0  0  0  0  0  0
    7.5947   -0.1649    0.0000 H   0  0  0  0  0  0  0  0  0  0  0  0
    4.9966    1.2850    0.0000 H   0  0  0  0  0  0  0  0  0  0  0  0
    4.1996    1.2850    0.0000 H   0  0  0  0  0  0  0  0  0  0  0  0
   15.4579   -0.1649    0.0000 H   0  0  0  0  0  0  0  0  0  0  0  0
   16.2549   -0.1649    0.0000 H   0  0  0  0  0  0  0  0  0  0  0  0
   20.5851    1.2850    0.0000 H   0  0  0  0  0  0  0  0  0  0  0  0
   19.7880    1.2850    0.0000 H   0  0  0  0  0  0  0  0  0  0  0  0
    8.4607    1.2850    0.0000 H   0  0  0  0  0  0  0  0  0  0  0  0
    7.6636    1.2850    0.0000 H   0  0  0  0  0  0  0  0  0  0  0  0
    3.3335   -0.1649    0.0000 H   0  0  0  0  0  0  0  0  0  0  0  0
    4.1306   -0.1649    0.0000 H   0  0  0  0  0  0  0  0  0  0  0  0
   15.3889    1.2850    0.0000 H   0  0  0  0  0  0  0  0  0  0  0  0
   14.5919    1.2850    0.0000 H   0  0  0  0  0  0  0  0  0  0  0  0
    8.5297   -0.1649    0.0000 H   0  0  0  0  0  0  0  0  0  0  0  0
    9.3267   -0.1649    0.0000 H   0  0  0  0  0  0  0  0  0  0  0  0
   20.6540   -0.1649    0.0000 H   0  0  0  0  0  0  0  0  0  0  0  0
   21.4511   -0.1649    0.0000 H   0  0  0  0  0  0  0  0  0  0  0  0
    3.2646    1.2850    0.0000 H   0  0  0  0  0  0  0  0  0  0  0  0
    2.4675    1.2850    0.0000 H   0  0  0  0  0  0  0  0  0  0  0  0
   12.3923    0.9300    0.0000 H   0  0  0  0  0  0  0  0  0  0  0  0
   22.2286    0.2731    0.0000 H   0  0  0  0  0  0  0  0  0  0  0  0
   22.4555    1.1200    0.0000 H   0  0  0  0  0  0  0  0  0  0  0  0
   21.6086    1.3469    0.0000 H   0  0  0  0  0  0  0  0  0  0  0  0
    1.6900    0.8469    0.0000 H   0  0  0  0  0  0  0  0  0  0  0  0
    1.4631    0.0000    0.0000 H   0  0  0  0  0  0  0  0  0  0  0  0
    2.3100   -0.2269    0.0000 H   0  0  0  0  0  0  0  0  0  0  0  0
   11.9248    1.2850    0.0000 H   0  0  0  0  0  0  0  0  0  0  0  0
   11.1278    1.2850    0.0000 H   0  0  0  0  0  0  0  0  0  0  0  0
   12.6044   -1.2726    0.0000 H   0  0  0  0  0  0  0  0  0  0  0  0
   13.0029   -0.5823    0.0000 H   0  0  0  0  0  0  0  0  0  0  0  0
   11.5263   -1.8100    0.0000 H   0  0  0  0  0  0  0  0  0  0  0  0
 22  1  1  1  0  0  0
  1 23  1  0  0  0  0
  2 25  1  0  0  0  0
  2 27  1  0  0  0  0
  3 23  2  0  0  0  0
  4 25  2  0  0  0  0
  5 28  1  0  0  0  0
  5 72  1  0  0  0  0
  6  7  1  0  0  0  0
  6 10  1  0  0  0  0
  6 29  1  0  0  0  0
  6 30  1  0  0  0  0
  7 11  1  0  0  0  0
  7 31  1  0  0  0  0
  7 32  1  0  0  0  0
  8  9  1  0  0  0  0
  8 12  1  0  0  0  0
  8 33  1  0  0  0  0
  8 34  1  0  0  0  0
  9 13  1  0  0  0  0
  9 35  1  0  0  0  0
  9 36  1  0  0  0  0
 10 14  1  0  0  0  0
 10 37  1  0  0  0  0
 10 38  1  0  0  0  0
 11 15  1  0  0  0  0
 11 39  1  0  0  0  0
 11 40  1  0  0  0  0
 12 16  1  0  0  0  0
 12 41  1  0  0  0  0
 12 42  1  0  0  0  0
 13 17  1  0  0  0  0
 13 43  1  0  0  0  0
 13 44  1  0  0  0  0
 14 18  1  0  0  0  0
 14 45  1  0  0  0  0
 14 46  1  0  0  0  0
 15 19  1  0  0  0  0
 15 47  1  0  0  0  0
 15 48  1  0  0  0  0
 16 20  1  0  0  0  0
 16 49  1  0  0  0  0
 16 50  1  0  0  0  0
 17 21  1  0  0  0  0
 17 51  1  0  0  0  0
 17 52  1  0  0  0  0
 18 23  1  0  0  0  0
 18 53  1  0  0  0  0
 18 54  1  0  0  0  0
 19 24  1  0  0  0  0
 19 57  1  0  0  0  0
 19 58  1  0  0  0  0
 20 25  1  0  0  0  0
 20 55  1  0  0  0  0
 20 56  1  0  0  0  0
 21 26  1  0  0  0  0
 21 59  1  0  0  0  0
 21 60  1  0  0  0  0
 22 27  1  0  0  0  0
 22 28  1  0  0  0  0
 22 61  1  0  0  0  0
 24 62  1  0  0  0  0
 24 63  1  0  0  0  0
 24 64  1  0  0  0  0
 26 65  1  0  0  0  0
 26 66  1  0  0  0  0
 26 67  1  0  0  0  0
 27 68  1  0  0  0  0
 27 69  1  0  0  0  0
 28 70  1  0  0  0  0
 28 71  1  0  0  0  0
M  END
> <PUBCHEM_COMPOUND_CID>
162916

> <PUBCHEM_COMPOUND_CANONICALIZED>
1

> <PUBCHEM_CACTVS_COMPLEXITY>
370

> <PUBCHEM_CACTVS_HBOND_ACCEPTOR>
5

> <PUBCHEM_CACTVS_HBOND_DONOR>
1

> <PUBCHEM_CACTVS_ROTATABLE_BOND>
22

> <PUBCHEM_CACTVS_SUBSKEYS>
AAADcfB4OAAAAAAAAAAAAAAAAAAAAAAAAAAAAAAAAAAAAAAAAAAAGgAACAAACBSggAICCAAABgAIAACQCAAAAAAAAAAAAAEAAAABEBIAAAACQAAFAAADAAGIyKCAAAAAAAAAAAAAAAAAAAAAAAAAAAAAAA==

> <PUBCHEM_IUPAC_OPENEYE_NAME>
[(2S)-2-decanoyloxy-3-hydroxy-propyl] decanoate

> <PUBCHEM_IUPAC_CAS_NAME>
decanoic acid [(2S)-3-hydroxy-2-(1-oxodecoxy)propyl] ester

> <PUBCHEM_IUPAC_NAME>
[(2S)-2-decanoyloxy-3-hydroxypropyl] decanoate

> <PUBCHEM_IUPAC_SYSTEMATIC_NAME>
[(2S)-2-decanoyloxy-3-oxidanyl-propyl] decanoate

> <PUBCHEM_IUPAC_TRADITIONAL_NAME>
capric acid [(2S)-2-capryloxy-3-hydroxy-propyl] ester

> <PUBCHEM_IUPAC_INCHI>
InChI=1S/C23H44O5/c1-3-5-7-9-11-13-15-17-22(25)27-20-21(19-24)28-23(26)18-16-14-12-10-8-6-4-2/h21,24H,3-20H2,1-2H3/t21-/m0/s1

> <PUBCHEM_IUPAC_INCHIKEY>
GNSDEDOVXZDMKM-NRFANRHFSA-N

> <PUBCHEM_XLOGP3_AA>
7.5

> <PUBCHEM_EXACT_MASS>
400.318875

> <PUBCHEM_MOLECULAR_FORMULA>
C23H44O5

> <PUBCHEM_MOLECULAR_WEIGHT>
400.59246

> <PUBCHEM_OPENEYE_CAN_SMILES>
CCCCCCCCCC(=O)OCC(CO)OC(=O)CCCCCCCCC

> <PUBCHEM_OPENEYE_ISO_SMILES>
CCCCCCCCCC(=O)OC[C@H](CO)OC(=O)CCCCCCCCC

> <PUBCHEM_CACTVS_TPSA>
72.8

> <PUBCHEM_MONOISOTOPIC_WEIGHT>
400.318875

> <PUBCHEM_TOTAL_CHARGE>
0

> <PUBCHEM_HEAVY_ATOM_COUNT>
28

> <PUBCHEM_ATOM_DEF_STEREO_COUNT>
1

> <PUBCHEM_ATOM_UDEF_STEREO_COUNT>
0

> <PUBCHEM_BOND_DEF_STEREO_COUNT>
0

> <PUBCHEM_BOND_UDEF_STEREO_COUNT>
0

> <PUBCHEM_ISOTOPIC_ATOM_COUNT>
0

> <PUBCHEM_COMPONENT_COUNT>
1

> <PUBCHEM_CACTVS_TAUTO_COUNT>
1

> <PUBCHEM_COORDINATE_TYPE>
1
5
255

> <PUBCHEM_BONDANNOTATIONS>
22  1  5

$$$$

