9186
  -OEChem-06261203292D

 42 47  0     0  0  0  0  0  0999 V2000
    4.6501   -0.3512    0.0000 C   0  0  0  0  0  0  0  0  0  0  0  0
    3.7841    0.1488    0.0000 C   0  0  0  0  0  0  0  0  0  0  0  0
    3.7841   -1.8512    0.0000 C   0  0  0  0  0  0  0  0  0  0  0  0
    4.6660    1.7181    0.0000 C   0  0  0  0  0  0  0  0  0  0  0  0
    5.5681    1.1973    0.0000 C   0  0  0  0  0  0  0  0  0  0  0  0
    2.9180   -1.3512    0.0000 C   0  0  0  0  0  0  0  0  0  0  0  0
    3.7680    1.1903    0.0000 C   0  0  0  0  0  0  0  0  0  0  0  0
    4.6501   -1.3512    0.0000 C   0  0  0  0  0  0  0  0  0  0  0  0
    5.5601    0.1557    0.0000 C   0  0  0  0  0  0  0  0  0  0  0  0
    2.9180   -0.3512    0.0000 C   0  0  0  0  0  0  0  0  0  0  0  0
    3.8001   -2.8927    0.0000 C   0  0  0  0  0  0  0  0  0  0  0  0
    4.6493    2.8030    0.0000 C   0  0  0  0  0  0  0  0  0  0  0  0
    5.5847    3.3527    0.0000 C   0  0  0  0  0  0  0  0  0  0  0  0
    2.9021   -3.4204    0.0000 C   0  0  0  0  0  0  0  0  0  0  0  0
    6.5160    1.7252    0.0000 C   0  0  0  0  0  0  0  0  0  0  0  0
    2.0080   -1.8580    0.0000 C   0  0  0  0  0  0  0  0  0  0  0  0
    6.5244    2.8102    0.0000 C   0  0  0  0  0  0  0  0  0  0  0  0
    2.0000   -2.8996    0.0000 C   0  0  0  0  0  0  0  0  0  0  0  0
    3.6578    3.3452    0.0000 C   0  0  0  0  0  0  0  0  0  0  0  0
    4.7520   -3.4133    0.0000 C   0  0  0  0  0  0  0  0  0  0  0  0
    2.8937   -4.5054    0.0000 C   0  0  0  0  0  0  0  0  0  0  0  0
    5.5934    4.4828    0.0000 C   0  0  0  0  0  0  0  0  0  0  0  0
    4.7688   -4.4982    0.0000 C   0  0  0  0  0  0  0  0  0  0  0  0
    3.6403    4.4753    0.0000 C   0  0  0  0  0  0  0  0  0  0  0  0
    3.8334   -5.0479    0.0000 C   0  0  0  0  0  0  0  0  0  0  0  0
    4.6147    5.0479    0.0000 C   0  0  0  0  0  0  0  0  0  0  0  0
    5.1870   -1.6612    0.0000 H   0  0  0  0  0  0  0  0  0  0  0  0
    3.2275    1.4941    0.0000 H   0  0  0  0  0  0  0  0  0  0  0  0
    6.0934   -0.1605    0.0000 H   0  0  0  0  0  0  0  0  0  0  0  0
    2.3811   -0.0412    0.0000 H   0  0  0  0  0  0  0  0  0  0  0  0
    7.0493    1.4090    0.0000 H   0  0  0  0  0  0  0  0  0  0  0  0
    1.4747   -1.5418    0.0000 H   0  0  0  0  0  0  0  0  0  0  0  0
    7.0625    3.1181    0.0000 H   0  0  0  0  0  0  0  0  0  0  0  0
    1.4619   -3.2076    0.0000 H   0  0  0  0  0  0  0  0  0  0  0  0
    3.1269    3.0250    0.0000 H   0  0  0  0  0  0  0  0  0  0  0  0
    5.2829   -3.0930    0.0000 H   0  0  0  0  0  0  0  0  0  0  0  0
    6.1316    4.7907    0.0000 H   0  0  0  0  0  0  0  0  0  0  0  0
    2.3556   -4.8133    0.0000 H   0  0  0  0  0  0  0  0  0  0  0  0
    3.0998    4.7790    0.0000 H   0  0  0  0  0  0  0  0  0  0  0  0
    5.3093   -4.8019    0.0000 H   0  0  0  0  0  0  0  0  0  0  0  0
    3.8357   -5.6679    0.0000 H   0  0  0  0  0  0  0  0  0  0  0  0
    4.6123    5.6679    0.0000 H   0  0  0  0  0  0  0  0  0  0  0  0
  1  2  2  0  0  0  0
  1  8  1  0  0  0  0
  1  9  1  0  0  0  0
  2  7  1  0  0  0  0
  2 10  1  0  0  0  0
  3  6  1  0  0  0  0
  3  8  2  0  0  0  0
  3 11  1  0  0  0  0
  4  5  1  0  0  0  0
  4  7  2  0  0  0  0
  4 12  1  0  0  0  0
  5  9  2  0  0  0  0
  5 15  1  0  0  0  0
  6 10  2  0  0  0  0
  6 16  1  0  0  0  0
  7 28  1  0  0  0  0
  8 27  1  0  0  0  0
  9 29  1  0  0  0  0
 10 30  1  0  0  0  0
 11 14  1  0  0  0  0
 11 20  2  0  0  0  0
 12 13  1  0  0  0  0
 12 19  2  0  0  0  0
 13 17  1  0  0  0  0
 13 22  2  0  0  0  0
 14 18  1  0  0  0  0
 14 21  2  0  0  0  0
 15 17  2  0  0  0  0
 15 31  1  0  0  0  0
 16 18  2  0  0  0  0
 16 32  1  0  0  0  0
 17 33  1  0  0  0  0
 18 34  1  0  0  0  0
 19 24  1  0  0  0  0
 19 35  1  0  0  0  0
 20 23  1  0  0  0  0
 20 36  1  0  0  0  0
 21 25  1  0  0  0  0
 21 38  1  0  0  0  0
 22 26  1  0  0  0  0
 22 37  1  0  0  0  0
 23 25  2  0  0  0  0
 23 40  1  0  0  0  0
 24 26  2  0  0  0  0
 24 39  1  0  0  0  0
 25 41  1  0  0  0  0
 26 42  1  0  0  0  0
M  END
> <PUBCHEM_COMPOUND_CID>
9186

> <PUBCHEM_COMPOUND_CANONICALIZED>
1

> <PUBCHEM_CACTVS_COMPLEXITY>
462

> <PUBCHEM_CACTVS_HBOND_ACCEPTOR>
0

> <PUBCHEM_CACTVS_HBOND_DONOR>
0

> <PUBCHEM_CACTVS_ROTATABLE_BOND>
0

> <PUBCHEM_CACTVS_SUBSKEYS>
AAADceB4AAAAAAAAAAAAAAAAAAAAAAAAAAAwYMGDAAAAAADBVAAAGAAAAAAADACAGAAwAMAAAACAAiBCAAACAAAgAAAIiAAAAIgIICKAERCAIAAggAAIiAcAgMAOwAACAAAQAACAAAQAACAAAAAAAAAAAA==

> <PUBCHEM_IUPAC_INCHI>
InChI=1S/C26H16/c1-3-7-23-17(5-1)9-11-19-13-22-16-26-20(14-21(22)15-25(19)23)12-10-18-6-2-4-8-24(18)26/h1-16H

> <PUBCHEM_IUPAC_INCHIKEY>
KKWNFCVLJZXKCD-UHFFFAOYSA-N

> <PUBCHEM_XLOGP3>
7.7

> <PUBCHEM_EXACT_MASS>
328.125201

> <PUBCHEM_MOLECULAR_FORMULA>
C26H16

> <PUBCHEM_MOLECULAR_WEIGHT>
328.40524

> <PUBCHEM_OPENEYE_CAN_SMILES>
C1=CC=C2C(=C1)C=CC3=CC4=C(C=C5C=CC6=CC=CC=C6C5=C4)C=C32

> <PUBCHEM_OPENEYE_ISO_SMILES>
C1=CC=C2C(=C1)C=CC3=CC4=C(C=C5C=CC6=CC=CC=C6C5=C4)C=C32

> <PUBCHEM_CACTVS_TPSA>
0

> <PUBCHEM_MONOISOTOPIC_WEIGHT>
328.125201

> <PUBCHEM_TOTAL_CHARGE>
0

> <PUBCHEM_HEAVY_ATOM_COUNT>
26

> <PUBCHEM_ATOM_DEF_STEREO_COUNT>
0

> <PUBCHEM_ATOM_UDEF_STEREO_COUNT>
0

> <PUBCHEM_BOND_DEF_STEREO_COUNT>
0

> <PUBCHEM_BOND_UDEF_STEREO_COUNT>
0

> <PUBCHEM_ISOTOPIC_ATOM_COUNT>
0

> <PUBCHEM_COMPONENT_COUNT>
1

> <PUBCHEM_CACTVS_TAUTO_COUNT>
1

> <PUBCHEM_COORDINATE_TYPE>
1
5
255

> <PUBCHEM_BONDANNOTATIONS>
1  2  8
1  8  8
1  9  8
11  14  8
11  20  8
12  13  8
12  19  8
13  17  8
13  22  8
14  18  8
14  21  8
15  17  8
16  18  8
19  24  8
2  10  8
2  7  8
20  23  8
21  25  8
22  26  8
23  25  8
24  26  8
3  11  8
3  6  8
3  8  8
4  12  8
4  5  8
4  7  8
5  15  8
5  9  8
6  10  8
6  16  8

$$$$

