440724
  -OEChem-07051212503D

 56 58  0     1  0  0  0  0  0999 V2000
   -3.7252    2.4453   -1.0355 P   0  0  2  0  0  0  0  0  0  0  0  0
   -2.3108   -1.6136   -0.5748 O   0  0  0  0  0  0  0  0  0  0  0  0
   -1.4821   -3.1518    2.5665 O   0  0  0  0  0  0  0  0  0  0  0  0
   -3.9178   -3.3226    1.3733 O   0  0  0  0  0  0  0  0  0  0  0  0
   -3.6503    0.8302   -0.9373 O   0  0  0  0  0  0  0  0  0  0  0  0
   -2.4414    2.9661   -0.2007 O   0  0  0  0  0  0  0  0  0  0  0  0
   -4.9828    2.8126   -0.0853 O   0  0  0  0  0  0  0  0  0  0  0  0
   -3.8307    2.9853   -2.4326 O   0  0  0  0  0  0  0  0  0  0  0  0
   -0.7595    2.1740   -1.5402 O   0  0  0  0  0  0  0  0  0  0  0  0
    3.5129    1.3191    2.1017 O   0  0  0  0  0  0  0  0  0  0  0  0
    4.3125    1.3899   -0.0189 O   0  0  0  0  0  0  0  0  0  0  0  0
   -0.0333   -1.9324    0.0097 N   0  0  0  0  0  0  0  0  0  0  0  0
    1.7541   -0.6030   -0.1161 N   0  0  0  0  0  0  0  0  0  0  0  0
    0.9308   -4.0025   -0.8194 N   0  0  0  0  0  0  0  0  0  0  0  0
    3.2878   -3.7200   -1.3861 N   0  0  0  0  0  0  0  0  0  0  0  0
    4.4305   -1.6334   -1.1261 N   0  0  0  0  0  0  0  0  0  0  0  0
    4.1456    4.0780   -0.1566 N   0  0  0  0  0  0  0  0  0  0  0  0
   -1.8703   -2.1058    1.6996 C   0  0  2  0  0  0  0  0  0  0  0  0
   -3.3724   -2.0112    1.5185 C   0  0  1  0  0  0  0  0  0  0  0  0
   -1.4083   -2.3518    0.2713 C   0  0  1  0  0  0  0  0  0  0  0  0
   -3.4939   -1.2778    0.1864 C   0  0  1  0  0  0  0  0  0  0  0  0
   -3.5493    0.2352    0.3450 C   0  0  0  0  0  0  0  0  0  0  0  0
    0.9824   -2.7059   -0.4791 C   0  0  0  0  0  0  0  0  0  0  0  0
    0.4808   -0.6777    0.2110 C   0  0  0  0  0  0  0  0  0  0  0  0
    2.0806   -1.8637   -0.5490 C   0  0  0  0  0  0  0  0  0  0  0  0
    3.2667   -2.4148   -1.0233 C   0  0  0  0  0  0  0  0  0  0  0  0
    2.1356   -4.4224   -1.2635 C   0  0  0  0  0  0  0  0  0  0  0  0
    1.2437    3.1780    0.1994 C   0  0  0  0  0  0  0  0  0  0  0  0
    2.1457    3.7601    1.2958 C   0  0  0  0  0  0  0  0  0  0  0  0
   -0.2397    3.4151    0.4844 C   0  0  0  0  0  0  0  0  0  0  0  0
    3.6363    3.4683    1.0718 C   0  0  1  0  0  0  0  0  0  0  0  0
   -1.1396    2.7827   -0.5501 C   0  0  0  0  0  0  0  0  0  0  0  0
    3.8615    1.9703    0.9600 C   0  0  0  0  0  0  0  0  0  0  0  0
   -1.4839   -1.1613    2.0985 H   0  0  0  0  0  0  0  0  0  0  0  0
   -3.8820   -1.5275    2.3567 H   0  0  0  0  0  0  0  0  0  0  0  0
   -1.4852   -3.4124    0.0038 H   0  0  0  0  0  0  0  0  0  0  0  0
   -4.3524   -1.6214   -0.4015 H   0  0  0  0  0  0  0  0  0  0  0  0
   -4.4181    0.5182    0.9474 H   0  0  0  0  0  0  0  0  0  0  0  0
   -2.6432    0.6066    0.8323 H   0  0  0  0  0  0  0  0  0  0  0  0
   -1.9132   -2.9947    3.4239 H   0  0  0  0  0  0  0  0  0  0  0  0
   -4.8717   -3.2234    1.2124 H   0  0  0  0  0  0  0  0  0  0  0  0
   -0.1145    0.1373    0.5971 H   0  0  0  0  0  0  0  0  0  0  0  0
    2.1891   -5.4637   -1.5627 H   0  0  0  0  0  0  0  0  0  0  0  0
    1.4962    3.6252   -0.7698 H   0  0  0  0  0  0  0  0  0  0  0  0
    1.4154    2.1034    0.0975 H   0  0  0  0  0  0  0  0  0  0  0  0
    1.9906    4.8450    1.3560 H   0  0  0  0  0  0  0  0  0  0  0  0
    1.8376    3.3490    2.2655 H   0  0  0  0  0  0  0  0  0  0  0  0
   -0.4445    4.4911    0.5047 H   0  0  0  0  0  0  0  0  0  0  0  0
   -0.4960    2.9856    1.4597 H   0  0  0  0  0  0  0  0  0  0  0  0
    4.2252    3.8428    1.9165 H   0  0  0  0  0  0  0  0  0  0  0  0
    5.2802   -2.0567   -1.4735 H   0  0  0  0  0  0  0  0  0  0  0  0
    4.4172   -0.6593   -0.8561 H   0  0  0  0  0  0  0  0  0  0  0  0
   -5.3200    3.7336   -0.0806 H   0  0  0  0  0  0  0  0  0  0  0  0
    3.9993    5.0861   -0.1218 H   0  0  0  0  0  0  0  0  0  0  0  0
    5.1538    3.9385   -0.2157 H   0  0  0  0  0  0  0  0  0  0  0  0
    3.6593    0.3518    2.0288 H   0  0  0  0  0  0  0  0  0  0  0  0
  1  5  1  0  0  0  0
  1  6  1  0  0  0  0
  1  7  1  0  0  0  0
  1  8  2  0  0  0  0
  2 20  1  0  0  0  0
  2 21  1  0  0  0  0
  3 18  1  0  0  0  0
  3 40  1  0  0  0  0
  4 19  1  0  0  0  0
  4 41  1  0  0  0  0
  5 22  1  0  0  0  0
  6 32  1  0  0  0  0
  7 53  1  0  0  0  0
  9 32  2  0  0  0  0
 10 33  1  0  0  0  0
 10 56  1  0  0  0  0
 11 33  2  0  0  0  0
 12 20  1  0  0  0  0
 12 23  1  0  0  0  0
 12 24  1  0  0  0  0
 13 24  2  0  0  0  0
 13 25  1  0  0  0  0
 14 23  2  0  0  0  0
 14 27  1  0  0  0  0
 15 26  1  0  0  0  0
 15 27  2  0  0  0  0
 16 26  1  0  0  0  0
 16 51  1  0  0  0  0
 16 52  1  0  0  0  0
 17 31  1  0  0  0  0
 17 54  1  0  0  0  0
 17 55  1  0  0  0  0
 18 19  1  0  0  0  0
 18 20  1  0  0  0  0
 18 34  1  0  0  0  0
 19 21  1  0  0  0  0
 19 35  1  0  0  0  0
 20 36  1  0  0  0  0
 21 22  1  0  0  0  0
 21 37  1  0  0  0  0
 22 38  1  0  0  0  0
 22 39  1  0  0  0  0
 23 25  1  0  0  0  0
 24 42  1  0  0  0  0
 25 26  2  0  0  0  0
 27 43  1  0  0  0  0
 28 29  1  0  0  0  0
 28 30  1  0  0  0  0
 28 44  1  0  0  0  0
 28 45  1  0  0  0  0
 29 31  1  0  0  0  0
 29 46  1  0  0  0  0
 29 47  1  0  0  0  0
 30 32  1  0  0  0  0
 30 48  1  0  0  0  0
 30 49  1  0  0  0  0
 31 33  1  0  0  0  0
 31 50  1  0  0  0  0
M  END
> <PUBCHEM_COMPOUND_CID>
440724

> <PUBCHEM_CONFORMER_RMSD>
1.2

> <PUBCHEM_CONFORMER_DIVERSEORDER>
1
372
437
239
130
278
104
300
410
384
412
281
336
361
251
394
354
12
167
417
115
436
10
120
205
142
6
173
181
353
262
209
296
49
132
123
53
64
442
369
211
89
342
398
275
256
270
443
292
314
195
269
234
225
129
367
444
102
271
170
301
75
383
387
413
263
352
17
289
199
434
460
297
344
72
365
400
395
304
426
196
366
163
151
316
76
356
424
73
25
339
22
88
355
404
223
441
162
69
418
164
61
452
216
305
243
469
236
105
224
201
50
458
306
127
351
122
345
399
423
232
308
98
20
147
359
429
317
245
27
55
169
391
389
156
439
66
364
346
290
178
95
186
41
101
388
91
126
378
375
315
446
44
284
117
108
37
194
438
303
15
379
138
183
377
291
266
231
299
294
325
3
274
313
286
160
440
148
293
165
82
235
238
150
385
45
85
432
431
217
246
172
197
470
448
128
259
330
179
118
453
190
187
428
133
214
135
174
119
340
257
137
203
206
341
457
454
228
358
415
451
24
347
407
208
143
52
260
461
420
230
311
79
276
414
319
184
471
250
185
87
273
84
96
349
430
371
475
473
90
38
241
116
111
409
227
177
321
249
182
113
445
136
287
334
425
265
62
408
233
370
134
175
253
435
268
272
455
229
386
279
393
71
5
267
19
31
158
427
146
468
168
32
411
210
450
153
218
26
59
459
58
207
264
283
335
80
212
295
449
433
419
416
307
78
402
348
363
320
171
18
93
125
106
9
392
110
193
35
252
328
191
298
166
220
112
381
213
86
466
161
312
215
140
343
447
63
155
77
380
189
124
192
382
401
237
302
154
54
261
131
97
322
226
323
16
337
74
376
285
360
338
188
107
65
83
8
456
36
42
139
48
219
333
350
141
288
472
109
152
248
39
396
103
176
332
280
421
258
67
474
198
242
202
92
357
43
51
244
255
94
56
30
406
144
318
282
200
403
145
254
21
397
204
11
29
463
465
222
362
240
390
40
159
309
23
47
33
324
464
68
373
7
467
46
374
368
70
221
405
180
331
121
14
329
149
310
326
422
28
327
4
13
60
157
114
57
34
247
99
462
81
100
277
2

> <PUBCHEM_MMFF94_PARTIAL_CHARGES>
41
1 1.51
10 -0.65
11 -0.57
12 0.05
13 -0.57
14 -0.57
15 -0.62
16 -0.9
17 -0.99
18 0.28
19 0.28
2 -0.56
20 0.54
21 0.28
22 0.28
23 0.11
24 0.04
25 0.23
26 0.41
27 0.47
3 -0.68
30 0.06
31 0.33
32 0.66
33 0.66
4 -0.68
40 0.4
41 0.4
42 0.15
43 0.15
5 -0.55
51 0.4
52 0.4
53 0.5
54 0.36
55 0.36
56 0.5
6 -0.42
7 -0.77
8 -0.7
9 -0.57

> <PUBCHEM_EFFECTIVE_ROTOR_COUNT>
12

> <PUBCHEM_PHARMACOPHORE_FEATURES>
21
1 10 acceptor
1 11 acceptor
1 16 cation
1 16 donor
1 17 cation
1 17 donor
1 2 acceptor
1 3 acceptor
1 3 donor
1 4 acceptor
1 4 donor
1 7 acceptor
1 8 acceptor
1 9 acceptor
3 10 11 33 anion
3 12 13 24 cation
3 12 14 23 cation
3 14 15 27 cation
5 12 13 23 24 25 rings
5 2 18 19 20 21 rings
6 14 15 23 25 26 27 rings

> <PUBCHEM_HEAVY_ATOM_COUNT>
33

> <PUBCHEM_ATOM_DEF_STEREO_COUNT>
5

> <PUBCHEM_ATOM_UDEF_STEREO_COUNT>
0

> <PUBCHEM_BOND_DEF_STEREO_COUNT>
0

> <PUBCHEM_BOND_UDEF_STEREO_COUNT>
0

> <PUBCHEM_ISOTOPIC_ATOM_COUNT>
0

> <PUBCHEM_COMPONENT_COUNT>
1

> <PUBCHEM_CACTVS_TAUTO_COUNT>
3

> <PUBCHEM_CONFORMER_ID>
0006B99400000001

> <PUBCHEM_MMFF94_ENERGY>
37.7561

> <PUBCHEM_FEATURE_SELFOVERLAP>
107.251

> <PUBCHEM_SHAPE_FINGERPRINT>
10305334 12 17771101342531144192
11513181 2 18189618237779506972
12422481 6 18197766710069132105
12788726 201 17473820010167417642
13402501 40 18267306426352484785
14114206 34 16968878129747858708
14117953 113 17616813232906191695
14400156 96 17973410289085999131
14932702 115 18125972040632752340
15351339 4 17335340918879495427
15403338 16 17198860374126816387
15968369 26 18267603462333644028
16114785 44 17538310348486903745
19311894 1 15884052764599044878
19319366 153 16682021077926261857
20764821 26 18408323293972474620
20775438 99 18120405222172730863
21033648 29 17753891606181848088
21141583 151 17832704956153289167
23559900 14 18337675333870469516
238918 7 18262813856417220008
5047190 48 17978507534059556388
508706 21 18343588425573605413
5171179 24 18335136479601142526
7399639 24 18265888060700771355

> <PUBCHEM_SHAPE_MULTIPOLES>
594.39
8.69
7.53
1.72
0.12
0.12
0.36
-4.21
0.08
-3.35
-1.02
0.65
0.35
5.38

> <PUBCHEM_SHAPE_SELFOVERLAP>
1237.869

> <PUBCHEM_SHAPE_VOLUME>
338.9

> <PUBCHEM_COORDINATE_TYPE>
2
5
10

$$$$

