226965
  -OEChem-07051213062D

 36 37  0     0  0  0  0  0  0999 V2000
    7.1962    2.8450    0.0000 O   0  0  0  0  0  0  0  0  0  0  0  0
    3.7320   -3.1550    0.0000 O   0  0  0  0  0  0  0  0  0  0  0  0
    3.7320    0.8450    0.0000 C   0  0  0  0  0  0  0  0  0  0  0  0
    2.8660    1.3450    0.0000 C   0  0  0  0  0  0  0  0  0  0  0  0
    3.7320   -0.1550    0.0000 C   0  0  0  0  0  0  0  0  0  0  0  0
    4.5981    1.3450    0.0000 C   0  0  0  0  0  0  0  0  0  0  0  0
    2.8660    2.3450    0.0000 C   0  0  0  0  0  0  0  0  0  0  0  0
    5.4641    0.8450    0.0000 C   0  0  0  0  0  0  0  0  0  0  0  0
    2.8660   -0.6550    0.0000 C   0  0  0  0  0  0  0  0  0  0  0  0
    4.5981    2.3450    0.0000 C   0  0  0  0  0  0  0  0  0  0  0  0
    4.5981   -0.6550    0.0000 C   0  0  0  0  0  0  0  0  0  0  0  0
    2.0000    2.8450    0.0000 C   0  0  0  0  0  0  0  0  0  0  0  0
    2.8660   -1.6550    0.0000 C   0  0  0  0  0  0  0  0  0  0  0  0
    6.3301    1.3450    0.0000 C   0  0  0  0  0  0  0  0  0  0  0  0
    4.5981   -1.6550    0.0000 C   0  0  0  0  0  0  0  0  0  0  0  0
    5.4641    2.8450    0.0000 C   0  0  0  0  0  0  0  0  0  0  0  0
    3.7320   -2.1550    0.0000 C   0  0  0  0  0  0  0  0  0  0  0  0
    6.3301    2.3450    0.0000 C   0  0  0  0  0  0  0  0  0  0  0  0
    3.7320    1.4650    0.0000 H   0  0  0  0  0  0  0  0  0  0  0  0
    2.2554    1.4527    0.0000 H   0  0  0  0  0  0  0  0  0  0  0  0
    2.6540    0.7624    0.0000 H   0  0  0  0  0  0  0  0  0  0  0  0
    3.4766    2.2373    0.0000 H   0  0  0  0  0  0  0  0  0  0  0  0
    3.0781    2.9276    0.0000 H   0  0  0  0  0  0  0  0  0  0  0  0
    2.3291   -0.3450    0.0000 H   0  0  0  0  0  0  0  0  0  0  0  0
    5.4641    0.2250    0.0000 H   0  0  0  0  0  0  0  0  0  0  0  0
    5.1350   -0.3450    0.0000 H   0  0  0  0  0  0  0  0  0  0  0  0
    4.0611    2.6550    0.0000 H   0  0  0  0  0  0  0  0  0  0  0  0
    2.3100    3.3819    0.0000 H   0  0  0  0  0  0  0  0  0  0  0  0
    1.4631    3.1550    0.0000 H   0  0  0  0  0  0  0  0  0  0  0  0
    1.6900    2.3081    0.0000 H   0  0  0  0  0  0  0  0  0  0  0  0
    2.3291   -1.9650    0.0000 H   0  0  0  0  0  0  0  0  0  0  0  0
    6.8671    1.0350    0.0000 H   0  0  0  0  0  0  0  0  0  0  0  0
    5.1350   -1.9650    0.0000 H   0  0  0  0  0  0  0  0  0  0  0  0
    5.4641    3.4650    0.0000 H   0  0  0  0  0  0  0  0  0  0  0  0
    7.1962    3.4650    0.0000 H   0  0  0  0  0  0  0  0  0  0  0  0
    3.1951   -3.4650    0.0000 H   0  0  0  0  0  0  0  0  0  0  0  0
  1 18  1  0  0  0  0
  1 35  1  0  0  0  0
  2 17  1  0  0  0  0
  2 36  1  0  0  0  0
  3  4  1  0  0  0  0
  3  5  1  0  0  0  0
  3  6  1  0  0  0  0
  3 19  1  0  0  0  0
  4  7  1  0  0  0  0
  4 20  1  0  0  0  0
  4 21  1  0  0  0  0
  5  9  2  0  0  0  0
  5 11  1  0  0  0  0
  6  8  2  0  0  0  0
  6 10  1  0  0  0  0
  7 12  1  0  0  0  0
  7 22  1  0  0  0  0
  7 23  1  0  0  0  0
  8 14  1  0  0  0  0
  8 25  1  0  0  0  0
  9 13  1  0  0  0  0
  9 24  1  0  0  0  0
 10 16  2  0  0  0  0
 10 27  1  0  0  0  0
 11 15  2  0  0  0  0
 11 26  1  0  0  0  0
 12 28  1  0  0  0  0
 12 29  1  0  0  0  0
 12 30  1  0  0  0  0
 13 17  2  0  0  0  0
 13 31  1  0  0  0  0
 14 18  2  0  0  0  0
 14 32  1  0  0  0  0
 15 17  1  0  0  0  0
 15 33  1  0  0  0  0
 16 18  1  0  0  0  0
 16 34  1  0  0  0  0
M  END
> <PUBCHEM_COMPOUND_CID>
226965

> <PUBCHEM_COMPOUND_CANONICALIZED>
1

> <PUBCHEM_CACTVS_COMPLEXITY>
203

> <PUBCHEM_CACTVS_HBOND_ACCEPTOR>
2

> <PUBCHEM_CACTVS_HBOND_DONOR>
2

> <PUBCHEM_CACTVS_ROTATABLE_BOND>
4

> <PUBCHEM_CACTVS_SUBSKEYS>
AAADceB4MAAAAAAAAAAAAAAAAAAAAAAAAAAwYAAAAAAAAAABQAAAGgAACAAADQSAmAAyBoAAAgCAAiBCAAACAAAgIAAIiAAGCIgIJiKCERKAcAAkwBEImAeAwPAOoAAAAAAAAABAAAAAAAAAAAAAAAAAAA==

> <PUBCHEM_IUPAC_OPENEYE_NAME>
4-[1-(4-hydroxyphenyl)butyl]phenol

> <PUBCHEM_IUPAC_CAS_NAME>
4-[1-(4-hydroxyphenyl)butyl]phenol

> <PUBCHEM_IUPAC_NAME>
4-[1-(4-hydroxyphenyl)butyl]phenol

> <PUBCHEM_IUPAC_SYSTEMATIC_NAME>
4-[1-(4-hydroxyphenyl)butyl]phenol

> <PUBCHEM_IUPAC_TRADITIONAL_NAME>
4-[1-(4-hydroxyphenyl)butyl]phenol

> <PUBCHEM_IUPAC_INCHI>
InChI=1S/C16H18O2/c1-2-3-16(12-4-8-14(17)9-5-12)13-6-10-15(18)11-7-13/h4-11,16-18H,2-3H2,1H3

> <PUBCHEM_IUPAC_INCHIKEY>
GXDIDDARPBFKNG-UHFFFAOYSA-N

> <PUBCHEM_XLOGP3_AA>
4.5

> <PUBCHEM_EXACT_MASS>
242.13068

> <PUBCHEM_MOLECULAR_FORMULA>
C16H18O2

> <PUBCHEM_MOLECULAR_WEIGHT>
242.31292

> <PUBCHEM_OPENEYE_CAN_SMILES>
CCCC(C1=CC=C(C=C1)O)C2=CC=C(C=C2)O

> <PUBCHEM_OPENEYE_ISO_SMILES>
CCCC(C1=CC=C(C=C1)O)C2=CC=C(C=C2)O

> <PUBCHEM_CACTVS_TPSA>
40.5

> <PUBCHEM_MONOISOTOPIC_WEIGHT>
242.13068

> <PUBCHEM_TOTAL_CHARGE>
0

> <PUBCHEM_HEAVY_ATOM_COUNT>
18

> <PUBCHEM_ATOM_DEF_STEREO_COUNT>
0

> <PUBCHEM_ATOM_UDEF_STEREO_COUNT>
0

> <PUBCHEM_BOND_DEF_STEREO_COUNT>
0

> <PUBCHEM_BOND_UDEF_STEREO_COUNT>
0

> <PUBCHEM_ISOTOPIC_ATOM_COUNT>
0

> <PUBCHEM_COMPONENT_COUNT>
1

> <PUBCHEM_CACTVS_TAUTO_COUNT>
3

> <PUBCHEM_COORDINATE_TYPE>
1
5
255

> <PUBCHEM_BONDANNOTATIONS>
10  16  8
11  15  8
13  17  8
14  18  8
15  17  8
16  18  8
5  11  8
5  9  8
6  10  8
6  8  8
8  14  8
9  13  8

$$$$

