440044
  -OEChem-07051212483D

 13 13  0     1  0  0  0  0  0999 V2000
   -0.0410   -1.1480    0.6471 O   0  0  0  0  0  0  0  0  0  0  0  0
    2.7378    1.0082    0.5168 O   0  0  0  0  0  0  0  0  0  0  0  0
   -2.0861    1.4686   -0.3241 O   0  0  0  0  0  0  0  0  0  0  0  0
    2.2978   -0.7259   -0.9064 O   0  0  0  0  0  0  0  0  0  0  0  0
   -2.8520   -0.6171    0.2140 O   0  0  0  0  0  0  0  0  0  0  0  0
    0.5475    0.1370    0.4476 C   0  0  2  0  0  0  0  0  0  0  0  0
   -0.5887   -0.3352   -0.3987 C   0  0  2  0  0  0  0  0  0  0  0  0
    1.9387    0.0789   -0.0603 C   0  0  0  0  0  0  0  0  0  0  0  0
   -1.9539    0.1336   -0.1360 C   0  0  0  0  0  0  0  0  0  0  0  0
    0.3422    0.8919    1.1989 H   0  0  0  0  0  0  0  0  0  0  0  0
   -0.3899   -0.6504   -1.4159 H   0  0  0  0  0  0  0  0  0  0  0  0
    3.6565    0.9647    0.1756 H   0  0  0  0  0  0  0  0  0  0  0  0
   -3.0006    1.7754   -0.1457 H   0  0  0  0  0  0  0  0  0  0  0  0
  1  6  1  0  0  0  0
  1  7  1  0  0  0  0
  2  8  1  0  0  0  0
  2 12  1  0  0  0  0
  3  9  1  0  0  0  0
  3 13  1  0  0  0  0
  4  8  2  0  0  0  0
  5  9  2  0  0  0  0
  6  7  1  0  0  0  0
  6  8  1  0  0  0  0
  6 10  1  0  0  0  0
  7  9  1  0  0  0  0
  7 11  1  0  0  0  0
M  END
> <PUBCHEM_COMPOUND_CID>
440044

> <PUBCHEM_CONFORMER_RMSD>
0.6

> <PUBCHEM_CONFORMER_DIVERSEORDER>
2
1
3

> <PUBCHEM_MMFF94_PARTIAL_CHARGES>
13
1 -0.3
10 0.1
11 0.1
12 0.5
13 0.5
2 -0.65
3 -0.65
4 -0.57
5 -0.57
6 0.05
7 0.05
8 0.72
9 0.72

> <PUBCHEM_EFFECTIVE_ROTOR_COUNT>
2.6

> <PUBCHEM_PHARMACOPHORE_FEATURES>
7
1 1 acceptor
1 2 acceptor
1 3 acceptor
1 4 acceptor
1 5 acceptor
3 2 4 8 anion
3 3 5 9 anion

> <PUBCHEM_HEAVY_ATOM_COUNT>
9

> <PUBCHEM_ATOM_DEF_STEREO_COUNT>
2

> <PUBCHEM_ATOM_UDEF_STEREO_COUNT>
0

> <PUBCHEM_BOND_DEF_STEREO_COUNT>
0

> <PUBCHEM_BOND_UDEF_STEREO_COUNT>
0

> <PUBCHEM_ISOTOPIC_ATOM_COUNT>
0

> <PUBCHEM_COMPONENT_COUNT>
1

> <PUBCHEM_CACTVS_TAUTO_COUNT>
1

> <PUBCHEM_CONFORMER_ID>
0006B6EC00000002

> <PUBCHEM_MMFF94_ENERGY>
10.3733

> <PUBCHEM_FEATURE_SELFOVERLAP>
35.635

> <PUBCHEM_SHAPE_FINGERPRINT>
10857977 72 18130508526871809921
12897270 3 18412266155316853639
12932764 1 18335698360002172974
14325111 11 18413109467581423976
14390081 3 18412550937307820157
15310529 11 17458345234214056277
19973954 147 18335699463877606064
20653085 51 18263069045698239361
21040471 1 18131631196773445706
23552423 10 17916865862415474827
29004967 10 17312820476610852234
3248919 1 17313390053667136711
5084963 1 18412254056140838061
5460574 1 9295294945018562731

> <PUBCHEM_SHAPE_MULTIPOLES>
155.87
4.03
1.09
0.76
0.03
0.19
-0.03
0.58
-0.14
-0.15
0.02
0.2
-0.08
0.41

> <PUBCHEM_SHAPE_SELFOVERLAP>
312.752

> <PUBCHEM_SHAPE_VOLUME>
92

> <PUBCHEM_COORDINATE_TYPE>
2
5
10

$$$$

