17395292
  -OEChem-06241222493D

 47 48  0     0  0  0  0  0  0999 V2000
    6.8013   -0.8101   -0.0842 O   0  0  0  0  0  0  0  0  0  0  0  0
    2.2800    0.0428   -0.0769 O   0  0  0  0  0  0  0  0  0  0  0  0
   -5.9673   -1.6934    0.0867 O   0  0  0  0  0  0  0  0  0  0  0  0
    7.9629    1.8526    1.0201 O   0  0  0  0  0  0  0  0  0  0  0  0
    0.6123    2.1139   -0.2019 O   0  0  0  0  0  0  0  0  0  0  0  0
    2.7827   -2.1861    0.1109 O   0  0  0  0  0  0  0  0  0  0  0  0
   -5.6025    0.6166   -0.0961 N   0  0  0  0  0  0  0  0  0  0  0  0
   -7.8708   -0.2153   -0.0336 C   0  0  0  0  0  0  0  0  0  0  0  0
   -6.3738   -0.5388   -0.0083 C   0  0  0  0  0  0  0  0  0  0  0  0
   -4.1905    0.7142   -0.1029 C   0  0  0  0  0  0  0  0  0  0  0  0
   -8.6683   -1.3414   -0.6885 C   0  0  0  0  0  0  0  0  0  0  0  0
   -8.3764    0.0388    1.3853 C   0  0  0  0  0  0  0  0  0  0  0  0
    4.5610   -0.6315   -0.0602 C   0  0  0  0  0  0  0  0  0  0  0  0
   -1.4075    0.9067   -0.1141 C   0  0  0  0  0  0  0  0  0  0  0  0
    5.6305   -1.4947   -0.0024 C   0  0  0  0  0  0  0  0  0  0  0  0
    6.4759    0.5047   -0.1954 C   0  0  0  0  0  0  0  0  0  0  0  0
   -3.4113   -0.4395   -0.0148 C   0  0  0  0  0  0  0  0  0  0  0  0
   -3.5782    1.9640   -0.1966 C   0  0  0  0  0  0  0  0  0  0  0  0
    5.1101    0.6669   -0.1854 C   0  0  0  0  0  0  0  0  0  0  0  0
   -2.0198   -0.3431   -0.0204 C   0  0  0  0  0  0  0  0  0  0  0  0
   -2.1868    2.0602   -0.2022 C   0  0  0  0  0  0  0  0  0  0  0  0
    0.0433    1.0065   -0.1205 C   0  0  0  0  0  0  0  0  0  0  0  0
    0.8989   -0.2636   -0.0241 C   0  0  0  0  0  0  0  0  0  0  0  0
    3.1496   -1.0208    0.0010 C   0  0  0  0  0  0  0  0  0  0  0  0
    7.5993    1.4461   -0.3009 C   0  0  0  0  0  0  0  0  0  0  0  0
    5.7456   -2.9558    0.1253 C   0  0  0  0  0  0  0  0  0  0  0  0
   -8.0274    0.6916   -0.6311 H   0  0  0  0  0  0  0  0  0  0  0  0
   -8.5945   -2.2724   -0.1156 H   0  0  0  0  0  0  0  0  0  0  0  0
   -8.2941   -1.5438   -1.6980 H   0  0  0  0  0  0  0  0  0  0  0  0
   -9.7274   -1.0745   -0.7663 H   0  0  0  0  0  0  0  0  0  0  0  0
   -8.2344   -0.8427    2.0203 H   0  0  0  0  0  0  0  0  0  0  0  0
   -9.4416    0.2921    1.3824 H   0  0  0  0  0  0  0  0  0  0  0  0
   -7.8325    0.8682    1.8501 H   0  0  0  0  0  0  0  0  0  0  0  0
   -6.0924    1.5063   -0.1589 H   0  0  0  0  0  0  0  0  0  0  0  0
    4.5817    1.6071   -0.2594 H   0  0  0  0  0  0  0  0  0  0  0  0
   -3.8110   -1.4408    0.0602 H   0  0  0  0  0  0  0  0  0  0  0  0
   -4.1739    2.8707   -0.2656 H   0  0  0  0  0  0  0  0  0  0  0  0
   -1.4526   -1.2659    0.0513 H   0  0  0  0  0  0  0  0  0  0  0  0
   -1.7335    3.0452   -0.2761 H   0  0  0  0  0  0  0  0  0  0  0  0
    0.6809   -0.7550    0.9305 H   0  0  0  0  0  0  0  0  0  0  0  0
    0.6514   -0.9129   -0.8711 H   0  0  0  0  0  0  0  0  0  0  0  0
    7.3168    2.3350   -0.8732 H   0  0  0  0  0  0  0  0  0  0  0  0
    8.4687    0.9809   -0.7756 H   0  0  0  0  0  0  0  0  0  0  0  0
    5.2504   -3.4561   -0.7126 H   0  0  0  0  0  0  0  0  0  0  0  0
    6.7924   -3.2759    0.1345 H   0  0  0  0  0  0  0  0  0  0  0  0
    5.2827   -3.2989    1.0558 H   0  0  0  0  0  0  0  0  0  0  0  0
    8.7037    2.4762    0.9301 H   0  0  0  0  0  0  0  0  0  0  0  0
  1 15  1  0  0  0  0
  1 16  1  0  0  0  0
  2 23  1  0  0  0  0
  2 24  1  0  0  0  0
  3  9  2  0  0  0  0
  4 25  1  0  0  0  0
  4 47  1  0  0  0  0
  5 22  2  0  0  0  0
  6 24  2  0  0  0  0
  7  9  1  0  0  0  0
  7 10  1  0  0  0  0
  7 34  1  0  0  0  0
  8  9  1  0  0  0  0
  8 11  1  0  0  0  0
  8 12  1  0  0  0  0
  8 27  1  0  0  0  0
 10 17  2  0  0  0  0
 10 18  1  0  0  0  0
 11 28  1  0  0  0  0
 11 29  1  0  0  0  0
 11 30  1  0  0  0  0
 12 31  1  0  0  0  0
 12 32  1  0  0  0  0
 12 33  1  0  0  0  0
 13 15  2  0  0  0  0
 13 19  1  0  0  0  0
 13 24  1  0  0  0  0
 14 20  2  0  0  0  0
 14 21  1  0  0  0  0
 14 22  1  0  0  0  0
 15 26  1  0  0  0  0
 16 19  2  0  0  0  0
 16 25  1  0  0  0  0
 17 20  1  0  0  0  0
 17 36  1  0  0  0  0
 18 21  2  0  0  0  0
 18 37  1  0  0  0  0
 19 35  1  0  0  0  0
 20 38  1  0  0  0  0
 21 39  1  0  0  0  0
 22 23  1  0  0  0  0
 23 40  1  0  0  0  0
 23 41  1  0  0  0  0
 25 42  1  0  0  0  0
 25 43  1  0  0  0  0
 26 44  1  0  0  0  0
 26 45  1  0  0  0  0
 26 46  1  0  0  0  0
M  END
> <PUBCHEM_COMPOUND_CID>
17395292

> <PUBCHEM_CONFORMER_RMSD>
1

> <PUBCHEM_CONFORMER_DIVERSEORDER>
1
36
24
41
9
40
6
8
28
12
7
51
49
29
31
44
47
5
23
21
11
34
46
10
38
48
52
35
53
18
27
25
45
39
20
33
32
2
16
54
26
17
22
42
3
50
14
19
37
4
15
13
43
30

> <PUBCHEM_MMFF94_PARTIAL_CHARGES>
31
1 -0.28
10 0.12
13 -0.09
14 0.09
15 -0.04
16 -0.04
17 -0.15
18 -0.15
19 -0.15
2 -0.43
20 -0.15
21 -0.15
22 0.42
23 0.34
24 0.81
25 0.46
26 0.18
3 -0.57
34 0.37
35 0.15
36 0.15
37 0.15
38 0.15
39 0.15
4 -0.68
47 0.4
5 -0.57
6 -0.57
7 -0.55
8 0.06
9 0.57

> <PUBCHEM_EFFECTIVE_ROTOR_COUNT>
9

> <PUBCHEM_PHARMACOPHORE_FEATURES>
10
1 1 acceptor
1 3 acceptor
1 4 acceptor
1 4 donor
1 5 acceptor
1 6 acceptor
1 7 donor
3 8 11 12 hydrophobe
5 1 13 15 16 19 rings
6 10 14 17 18 20 21 rings

> <PUBCHEM_HEAVY_ATOM_COUNT>
26

> <PUBCHEM_ATOM_DEF_STEREO_COUNT>
0

> <PUBCHEM_ATOM_UDEF_STEREO_COUNT>
0

> <PUBCHEM_BOND_DEF_STEREO_COUNT>
0

> <PUBCHEM_BOND_UDEF_STEREO_COUNT>
0

> <PUBCHEM_ISOTOPIC_ATOM_COUNT>
0

> <PUBCHEM_COMPONENT_COUNT>
1

> <PUBCHEM_CACTVS_TAUTO_COUNT>
9

> <PUBCHEM_CONFORMER_ID>
01096E5C00000001

> <PUBCHEM_MMFF94_ENERGY>
50.5094

> <PUBCHEM_FEATURE_SELFOVERLAP>
50.744

> <PUBCHEM_SHAPE_FINGERPRINT>
10050765 1 18051131685844071879
10299344 5 18187363242299260131
10391435 84 18131350761416366955
10595046 47 18340205293072680920
106641 1 17894632526410859589
10666366 153 10591770913295473160
11315181 36 18186800284700098121
11408170 108 14764083293761234536
11524674 6 16515688832199397351
11638347 137 16988850493032641800
11724838 91 18272370867726495260
12516196 113 18407760348008052400
12522641 24 17822295626376552328
12643181 29 17846496998933593635
12838862 33 18201171974588948043
13685833 64 18411698798937963585
13885169 127 18341613763621631973
13899415 154 17385444323896419224
13968360 50 14548743919094801417
14123256 10 18413671301218031156
14150022 121 17240473754819535841
14178184 131 18116714020443585671
14251732 16 18411419522805270876
14251764 18 18260827103425023609
14251764 46 18411136926514944361
14461889 52 18342740694267612306
14671636 106 18041284245458836919
14849402 71 18113898217422658585
15183329 4 12535626098389008607
15301273 46 15140954076218081893
15716309 27 18261111889784765247
15728490 51 18335986371966678654
18006028 8 18334576841795441469
18335252 114 9295285011081428403
18335252 98 18410855469345817890
18608769 82 18412545379973840075
21049683 271 18335983086422958680
21130935 74 18336263556392438202
21150785 3 14836403627906448105
21267235 1 18410851092225595141
21315763 28 18340487867523940134
21774942 28 12966863376318328335
220451 1 15140967274652622108
22149856 69 18114457976351612904
22224240 67 17240204330866669511
22896161 15 18411138034632499980
23522609 53 18120904361734712137
23559900 14 18342178809249990425
249057 3 15985097484529580111
3004659 81 17989208136013545917
335352 9 18411141321532559015
34797466 226 17748821922034396404
4073 2 18131345289981563578
4325135 7 18413387623023220796
67123 10 18408041797494202871
999808 66 18131340909383875619

> <PUBCHEM_SHAPE_MULTIPOLES>
494.87
28.02
2.26
0.74
11.47
0.43
0.12
5.16
2.37
-2.72
0
0.56
-0.04
-0.02

> <PUBCHEM_SHAPE_SELFOVERLAP>
1040.739

> <PUBCHEM_SHAPE_VOLUME>
279

> <PUBCHEM_COORDINATE_TYPE>
2
5
10

$$$$

