11106
  -OEChem-06261205193D

 35 37  0     0  0  0  0  0  0999 V2000
    4.5982   -0.5546   -0.0196 N   0  0  0  0  0  0  0  0  0  0  0  0
   -0.1693   -1.1494   -0.0604 N   0  0  0  0  0  0  0  0  0  0  0  0
   -0.5266    1.5780    0.0801 N   0  0  0  0  0  0  0  0  0  0  0  0
   -4.9199   -1.8141   -0.1052 N   0  0  0  0  0  0  0  0  0  0  0  0
    0.8917   -0.3283   -0.0153 C   0  0  0  0  0  0  0  0  0  0  0  0
   -1.5877    0.7568    0.0350 C   0  0  0  0  0  0  0  0  0  0  0  0
    0.7102    1.0568    0.0560 C   0  0  0  0  0  0  0  0  0  0  0  0
   -1.4063   -0.6281   -0.0365 C   0  0  0  0  0  0  0  0  0  0  0  0
    3.2997   -0.0079    0.0072 C   0  0  0  0  0  0  0  0  0  0  0  0
    2.1858   -0.8441   -0.0389 C   0  0  0  0  0  0  0  0  0  0  0  0
   -3.9957    0.4366    0.0126 C   0  0  0  0  0  0  0  0  0  0  0  0
   -2.8818    1.2727    0.0586 C   0  0  0  0  0  0  0  0  0  0  0  0
   -3.8159   -0.9367   -0.0584 C   0  0  0  0  0  0  0  0  0  0  0  0
   -2.5240   -1.4588   -0.0823 C   0  0  0  0  0  0  0  0  0  0  0  0
    1.8279    1.8874    0.1018 C   0  0  0  0  0  0  0  0  0  0  0  0
    3.1198    1.3653    0.0778 C   0  0  0  0  0  0  0  0  0  0  0  0
   -5.3603    1.0425    0.0417 C   0  0  0  0  0  0  0  0  0  0  0  0
    5.6968    0.1883   -0.6056 C   0  0  0  0  0  0  0  0  0  0  0  0
    4.8572   -1.8623    0.5512 C   0  0  0  0  0  0  0  0  0  0  0  0
    2.3047   -1.9238   -0.1072 H   0  0  0  0  0  0  0  0  0  0  0  0
   -3.0167    2.3518    0.1144 H   0  0  0  0  0  0  0  0  0  0  0  0
   -2.3805   -2.5372   -0.1377 H   0  0  0  0  0  0  0  0  0  0  0  0
    1.6988    2.9664    0.1598 H   0  0  0  0  0  0  0  0  0  0  0  0
    3.9565    2.0558    0.1271 H   0  0  0  0  0  0  0  0  0  0  0  0
   -5.9170    0.6939    0.9178 H   0  0  0  0  0  0  0  0  0  0  0  0
   -5.3196    2.1359    0.0983 H   0  0  0  0  0  0  0  0  0  0  0  0
   -5.9140    0.7863   -0.8677 H   0  0  0  0  0  0  0  0  0  0  0  0
    6.5340   -0.4740   -0.8531 H   0  0  0  0  0  0  0  0  0  0  0  0
    6.0699    0.9445    0.0930 H   0  0  0  0  0  0  0  0  0  0  0  0
    5.3968    0.6785   -1.5387 H   0  0  0  0  0  0  0  0  0  0  0  0
    4.3289   -1.9968    1.5018 H   0  0  0  0  0  0  0  0  0  0  0  0
    5.9240   -1.9972    0.7621 H   0  0  0  0  0  0  0  0  0  0  0  0
    4.5559   -2.6545   -0.1421 H   0  0  0  0  0  0  0  0  0  0  0  0
   -4.7643   -2.8122   -0.1586 H   0  0  0  0  0  0  0  0  0  0  0  0
   -5.8664   -1.4608   -0.0916 H   0  0  0  0  0  0  0  0  0  0  0  0
  1  9  1  0  0  0  0
  1 18  1  0  0  0  0
  1 19  1  0  0  0  0
  2  5  1  0  0  0  0
  2  8  2  0  0  0  0
  3  6  2  0  0  0  0
  3  7  1  0  0  0  0
  4 13  1  0  0  0  0
  4 34  1  0  0  0  0
  4 35  1  0  0  0  0
  5  7  2  0  0  0  0
  5 10  1  0  0  0  0
  6  8  1  0  0  0  0
  6 12  1  0  0  0  0
  7 15  1  0  0  0  0
  8 14  1  0  0  0  0
  9 10  2  0  0  0  0
  9 16  1  0  0  0  0
 10 20  1  0  0  0  0
 11 12  2  0  0  0  0
 11 13  1  0  0  0  0
 11 17  1  0  0  0  0
 12 21  1  0  0  0  0
 13 14  2  0  0  0  0
 14 22  1  0  0  0  0
 15 16  2  0  0  0  0
 15 23  1  0  0  0  0
 16 24  1  0  0  0  0
 17 25  1  0  0  0  0
 17 26  1  0  0  0  0
 17 27  1  0  0  0  0
 18 28  1  0  0  0  0
 18 29  1  0  0  0  0
 18 30  1  0  0  0  0
 19 31  1  0  0  0  0
 19 32  1  0  0  0  0
 19 33  1  0  0  0  0
M  END
> <PUBCHEM_COMPOUND_CID>
11106

> <PUBCHEM_CONFORMER_RMSD>
0.6

> <PUBCHEM_CONFORMER_DIVERSEORDER>
1

> <PUBCHEM_MMFF94_PARTIAL_CHARGES>
26
1 -0.84
10 -0.15
11 -0.14
12 -0.15
13 0.1
14 -0.15
15 -0.15
16 -0.15
17 0.14
18 0.37
19 0.37
2 -0.62
20 0.15
21 0.15
22 0.15
23 0.15
24 0.15
3 -0.62
34 0.4
35 0.4
4 -0.9
5 0.31
6 0.31
7 0.31
8 0.31
9 0.1

> <PUBCHEM_EFFECTIVE_ROTOR_COUNT>
1

> <PUBCHEM_PHARMACOPHORE_FEATURES>
8
1 1 cation
1 2 acceptor
1 3 acceptor
1 4 cation
1 4 donor
6 2 3 5 6 7 8 rings
6 5 7 9 10 15 16 rings
6 6 8 11 12 13 14 rings

> <PUBCHEM_HEAVY_ATOM_COUNT>
19

> <PUBCHEM_ATOM_DEF_STEREO_COUNT>
0

> <PUBCHEM_ATOM_UDEF_STEREO_COUNT>
0

> <PUBCHEM_BOND_DEF_STEREO_COUNT>
0

> <PUBCHEM_BOND_UDEF_STEREO_COUNT>
0

> <PUBCHEM_ISOTOPIC_ATOM_COUNT>
0

> <PUBCHEM_COMPONENT_COUNT>
1

> <PUBCHEM_CACTVS_TAUTO_COUNT>
3

> <PUBCHEM_CONFORMER_ID>
00002B6200000001

> <PUBCHEM_MMFF94_ENERGY>
85.4746

> <PUBCHEM_FEATURE_SELFOVERLAP>
40.672

> <PUBCHEM_SHAPE_FINGERPRINT>
10062212 137 18334583429747811455
11315181 36 18113894962111007296
12032990 46 18410292488779168217
12107183 9 17691971878892879002
12236239 1 18131349717765440374
12403259 226 18410582764265798281
12403259 415 18412272735038667069
13167823 11 18412266133673536810
13288520 33 18408319999241616876
13675066 3 18040722441512155232
13690532 89 18411138052097095280
13862211 1 18409453591488082302
14115302 16 17846768603452705478
14251731 8 18411418427351266133
14251764 18 18407755933256120609
15099037 51 18408886252056602335
15196674 1 18410012104871895769
15536298 74 18334578997373242960
15788980 27 18273212001978357865
17804303 29 18407758123040809297
17834072 33 18412823560694407612
1813 80 17418097615849199572
18186145 218 17775013357747754897
19141452 34 18335139791295091399
200 152 18113620075418793651
20374829 77 18411703196488641488
20645477 70 18408884023475133846
21267235 1 18338228280908524199
21452121 103 18115881711124818952
221490 88 18269549434119708160
23175994 123 17095241427620203929
23402539 116 18333737918206505207
23522609 53 18123156143930554805
23559900 14 18334582308724657976
26918003 58 18186522124499266425
3004659 81 18200872981042101638
335352 9 18410012169591882661
350125 39 18411134749120084245
3545911 37 18409165528585096181
4214541 1 18410011035614917125
4463277 17 18410291406916979508
465052 167 18334571322382918142
4921388 177 16128363836195226683
5104073 3 18335983086553814745
542803 24 17418372489107520646
559249 180 18411705417166523355
633830 44 17418095386386691017
77779 3 18411418384427960297
8809292 202 18343299232429829099
9709674 26 18268991981962010379
9981440 41 17332808249564269040

> <PUBCHEM_SHAPE_MULTIPOLES>
371.09
11.64
1.89
0.64
2.2
0.08
0
2.4
0.43
-0.15
-0.11
0.2
0.02
-0.37

> <PUBCHEM_SHAPE_SELFOVERLAP>
823.169

> <PUBCHEM_SHAPE_VOLUME>
199.5

> <PUBCHEM_COORDINATE_TYPE>
2
5
10

$$$$

