25271610
  -OEChem-07051213152D

 56 57  0     1  0  0  0  0  0999 V2000
    8.5991    2.2985    0.0000 P   0  0  0  0  0  0  0  0  0  0  0  0
    6.0010   -1.2015    0.0000 O   0  0  0  0  0  0  0  0  0  0  0  0
    5.1350    0.2985    0.0000 O   0  0  0  0  0  0  0  0  0  0  0  0
    7.7331    1.7985    0.0000 O   0  0  0  0  0  0  0  0  0  0  0  0
    6.0010    0.7985    0.0000 O   0  0  0  0  0  0  0  0  0  0  0  0
    7.7331   -2.2015    0.0000 O   0  0  0  0  0  0  0  0  0  0  0  0
    9.4651   -1.2015    0.0000 O   0  0  0  0  0  0  0  0  0  0  0  0
    9.4651    0.7985    0.0000 O   0  0  0  0  0  0  0  0  0  0  0  0
    2.5369   -1.2015    0.0000 O   0  0  0  0  0  0  0  0  0  0  0  0
    2.5369    0.7985    0.0000 O   0  0  0  0  0  0  0  0  0  0  0  0
    3.4030    2.2985    0.0000 O   0  0  0  0  0  0  0  0  0  0  0  0
    9.4651    2.7985    0.0000 O   0  0  0  0  0  0  0  0  0  0  0  0
    8.0991    3.1645    0.0000 O   0  0  0  0  0  0  0  0  0  0  0  0
    9.0991    1.4325    0.0000 O   0  0  0  0  0  0  0  0  0  0  0  0
    2.5369   -2.2015    0.0000 O   0  0  0  0  0  0  0  0  0  0  0  0
    4.2690   -2.2015    0.0000 N   0  0  0  0  0  0  0  0  0  0  0  0
    6.8671   -0.7015    0.0000 C   0  0  2  0  0  0  0  0  0  0  0  0
    6.8671    0.2985    0.0000 C   0  0  1  0  0  0  0  0  0  0  0  0
    7.7331   -1.2015    0.0000 C   0  0  1  0  0  0  0  0  0  0  0  0
    7.7331    0.7985    0.0000 C   0  0  1  0  0  0  0  0  0  0  0  0
    8.5991   -0.7015    0.0000 C   0  0  2  0  0  0  0  0  0  0  0  0
    8.5991    0.2985    0.0000 C   0  0  2  0  0  0  0  0  0  0  0  0
    5.1350   -0.7015    0.0000 C   0  0  1  0  0  0  0  0  0  0  0  0
    4.2690   -1.2015    0.0000 C   0  0  1  0  0  0  0  0  0  0  0  0
    3.4030   -0.7015    0.0000 C   0  0  2  0  0  0  0  0  0  0  0  0
    3.4030    0.2985    0.0000 C   0  0  1  0  0  0  0  0  0  0  0  0
    4.2690    0.7985    0.0000 C   0  0  1  0  0  0  0  0  0  0  0  0
    4.2690    1.7985    0.0000 C   0  0  0  0  0  0  0  0  0  0  0  0
    3.4030   -2.7015    0.0000 C   0  0  0  0  0  0  0  0  0  0  0  0
    3.4030   -3.7015    0.0000 C   0  0  0  0  0  0  0  0  0  0  0  0
    6.3301   -0.3915    0.0000 H   0  0  0  0  0  0  0  0  0  0  0  0
    6.3301   -0.0115    0.0000 H   0  0  0  0  0  0  0  0  0  0  0  0
    8.2700   -1.5115    0.0000 H   0  0  0  0  0  0  0  0  0  0  0  0
    8.2700    1.1085    0.0000 H   0  0  0  0  0  0  0  0  0  0  0  0
    8.5991   -1.3215    0.0000 H   0  0  0  0  0  0  0  0  0  0  0  0
    8.5991    0.9185    0.0000 H   0  0  0  0  0  0  0  0  0  0  0  0
    5.1350   -1.3215    0.0000 H   0  0  0  0  0  0  0  0  0  0  0  0
    4.8059   -1.5115    0.0000 H   0  0  0  0  0  0  0  0  0  0  0  0
    2.8660   -0.3915    0.0000 H   0  0  0  0  0  0  0  0  0  0  0  0
    3.4030    0.9185    0.0000 H   0  0  0  0  0  0  0  0  0  0  0  0
    4.8059    1.1085    0.0000 H   0  0  0  0  0  0  0  0  0  0  0  0
    4.8059   -2.5115    0.0000 H   0  0  0  0  0  0  0  0  0  0  0  0
    6.0010    1.4185    0.0000 H   0  0  0  0  0  0  0  0  0  0  0  0
    8.2700   -2.5115    0.0000 H   0  0  0  0  0  0  0  0  0  0  0  0
    4.8796    1.6909    0.0000 H   0  0  0  0  0  0  0  0  0  0  0  0
    4.4810    2.3811    0.0000 H   0  0  0  0  0  0  0  0  0  0  0  0
   10.0021   -0.8915    0.0000 H   0  0  0  0  0  0  0  0  0  0  0  0
   10.0021    0.4885    0.0000 H   0  0  0  0  0  0  0  0  0  0  0  0
    2.0000   -0.8915    0.0000 H   0  0  0  0  0  0  0  0  0  0  0  0
    2.0000    0.4885    0.0000 H   0  0  0  0  0  0  0  0  0  0  0  0
    3.4030    2.9185    0.0000 H   0  0  0  0  0  0  0  0  0  0  0  0
    2.7830   -3.7015    0.0000 H   0  0  0  0  0  0  0  0  0  0  0  0
    3.4030   -4.3215    0.0000 H   0  0  0  0  0  0  0  0  0  0  0  0
    4.0230   -3.7015    0.0000 H   0  0  0  0  0  0  0  0  0  0  0  0
    8.4091    3.7015    0.0000 H   0  0  0  0  0  0  0  0  0  0  0  0
    9.4651    3.4185    0.0000 H   0  0  0  0  0  0  0  0  0  0  0  0
  1  4  1  0  0  0  0
  1 12  1  0  0  0  0
  1 13  1  0  0  0  0
  1 14  2  0  0  0  0
 17  2  1  6  0  0  0
 23  2  1  6  0  0  0
  3 23  1  0  0  0  0
  3 27  1  0  0  0  0
 20  4  1  6  0  0  0
 18  5  1  6  0  0  0
  5 43  1  0  0  0  0
 19  6  1  1  0  0  0
  6 44  1  0  0  0  0
 21  7  1  6  0  0  0
  7 47  1  0  0  0  0
 22  8  1  1  0  0  0
  8 48  1  0  0  0  0
 25  9  1  1  0  0  0
  9 49  1  0  0  0  0
 26 10  1  6  0  0  0
 10 50  1  0  0  0  0
 11 28  1  0  0  0  0
 11 51  1  0  0  0  0
 12 56  1  0  0  0  0
 13 55  1  0  0  0  0
 15 29  2  0  0  0  0
 24 16  1  6  0  0  0
 16 29  1  0  0  0  0
 16 42  1  0  0  0  0
 17 18  1  0  0  0  0
 17 19  1  0  0  0  0
 17 31  1  0  0  0  0
 18 20  1  0  0  0  0
 18 32  1  0  0  0  0
 19 21  1  0  0  0  0
 19 33  1  0  0  0  0
 20 22  1  0  0  0  0
 20 34  1  0  0  0  0
 21 22  1  0  0  0  0
 21 35  1  0  0  0  0
 22 36  1  0  0  0  0
 23 24  1  0  0  0  0
 23 37  1  0  0  0  0
 24 25  1  0  0  0  0
 24 38  1  0  0  0  0
 25 26  1  0  0  0  0
 25 39  1  0  0  0  0
 26 27  1  0  0  0  0
 26 40  1  0  0  0  0
 27 28  1  1  0  0  0
 27 41  1  0  0  0  0
 28 45  1  0  0  0  0
 28 46  1  0  0  0  0
 29 30  1  0  0  0  0
 30 52  1  0  0  0  0
 30 53  1  0  0  0  0
 30 54  1  0  0  0  0
M  END
> <PUBCHEM_COMPOUND_CID>
25271610

> <PUBCHEM_COMPOUND_CANONICALIZED>
1

> <PUBCHEM_CACTVS_COMPLEXITY>
646

> <PUBCHEM_CACTVS_HBOND_ACCEPTOR>
14

> <PUBCHEM_CACTVS_HBOND_DONOR>
10

> <PUBCHEM_CACTVS_ROTATABLE_BOND>
6

> <PUBCHEM_CACTVS_SUBSKEYS>
AAADceByPAIAAAAAAAAAAAAAAAAAAAAAAAA0QAAAAAAAAAAAAAAAHgAQCCAACDzxgAcCCALABxAIQAEQEIAAAAAAAAAAAIAIAAATEAIAgAAnQAAHFgCXAAHwcA8AAAAAAAAAAAACAAAQAACAAAAAAAAAAA==

> <PUBCHEM_IUPAC_OPENEYE_NAME>
[(1R,2S,3S,4R,5R,6S)-3-[(2R,3R,4R,5S,6R)-3-acetamido-4,5-dihydroxy-6-(hydroxymethyl)tetrahydropyran-2-yl]oxy-2,4,5,6-tetrahydroxy-cyclohexyl] dihydrogen phosphate

> <PUBCHEM_IUPAC_CAS_NAME>
[(1R,2S,3S,4R,5R,6S)-3-[[(2R,3R,4R,5S,6R)-3-acetamido-4,5-dihydroxy-6-(hydroxymethyl)-2-oxanyl]oxy]-2,4,5,6-tetrahydroxycyclohexyl] dihydrogen phosphate

> <PUBCHEM_IUPAC_NAME>
[(1R,2S,3S,4R,5R,6S)-3-[(2R,3R,4R,5S,6R)-3-acetamido-4,5-dihydroxy-6-(hydroxymethyl)oxan-2-yl]oxy-2,4,5,6-tetrahydroxycyclohexyl] dihydrogen phosphate

> <PUBCHEM_IUPAC_SYSTEMATIC_NAME>
[(1R,2S,3S,4R,5R,6S)-3-[(2R,3R,4R,5S,6R)-3-acetamido-6-(hydroxymethyl)-4,5-bis(oxidanyl)oxan-2-yl]oxy-2,4,5,6-tetrakis(oxidanyl)cyclohexyl] dihydrogen phosphate

> <PUBCHEM_IUPAC_TRADITIONAL_NAME>
[(1R,2S,3S,4R,5R,6S)-3-[(2R,3R,4R,5S,6R)-3-acetamido-4,5-dihydroxy-6-methylol-tetrahydropyran-2-yl]oxy-2,4,5,6-tetrahydroxy-cyclohexyl] dihydrogen phosphate

> <PUBCHEM_IUPAC_INCHI>
InChI=1S/C14H26NO14P/c1-3(17)15-5-7(19)6(18)4(2-16)27-14(5)28-12-9(21)8(20)10(22)13(11(12)23)29-30(24,25)26/h4-14,16,18-23H,2H2,1H3,(H,15,17)(H2,24,25,26)/t4-,5-,6-,7-,8-,9-,10+,11+,12+,13-,14-/m1/s1

> <PUBCHEM_IUPAC_INCHIKEY>
CHTTVMDQGBOCME-DNSWDBFXSA-N

> <PUBCHEM_XLOGP3_AA>
-6.4

> <PUBCHEM_EXACT_MASS>
463.109091

> <PUBCHEM_MOLECULAR_FORMULA>
C14H26NO14P

> <PUBCHEM_MOLECULAR_WEIGHT>
463.328302

> <PUBCHEM_OPENEYE_CAN_SMILES>
CC(=O)NC1C(C(C(OC1OC2C(C(C(C(C2O)OP(=O)(O)O)O)O)O)CO)O)O

> <PUBCHEM_OPENEYE_ISO_SMILES>
CC(=O)N[C@@H]1[C@H]([C@@H]([C@H](O[C@@H]1O[C@H]2[C@@H]([C@H]([C@@H]([C@H]([C@H]2O)OP(=O)(O)O)O)O)O)CO)O)O

> <PUBCHEM_CACTVS_TPSA>
256

> <PUBCHEM_MONOISOTOPIC_WEIGHT>
463.109091

> <PUBCHEM_TOTAL_CHARGE>
0

> <PUBCHEM_HEAVY_ATOM_COUNT>
30

> <PUBCHEM_ATOM_DEF_STEREO_COUNT>
11

> <PUBCHEM_ATOM_UDEF_STEREO_COUNT>
0

> <PUBCHEM_BOND_DEF_STEREO_COUNT>
0

> <PUBCHEM_BOND_UDEF_STEREO_COUNT>
0

> <PUBCHEM_ISOTOPIC_ATOM_COUNT>
0

> <PUBCHEM_COMPONENT_COUNT>
1

> <PUBCHEM_CACTVS_TAUTO_COUNT>
2

> <PUBCHEM_COORDINATE_TYPE>
1
5
255

> <PUBCHEM_BONDANNOTATIONS>
26  10  6
24  16  6
17  2  6
23  2  6
27  28  5
20  4  6
18  5  6
19  6  5
21  7  6
22  8  5
25  9  5

$$$$

