68213
  -OEChem-07051212582D

 29 30  0     0  0  0  0  0  0999 V2000
    2.5369   -0.1550    0.0000 O   0  0  0  0  0  0  0  0  0  0  0  0
    6.0010   -0.1550    0.0000 O   0  0  0  0  0  0  0  0  0  0  0  0
    3.4030    1.3450    0.0000 O   0  0  0  0  0  0  0  0  0  0  0  0
    4.2690   -3.1550    0.0000 O   0  0  0  0  0  0  0  0  0  0  0  0
    7.7331    0.8450    0.0000 O   0  0  0  0  0  0  0  0  0  0  0  0
    7.7331    2.8450    0.0000 O   0  0  0  0  0  0  0  0  0  0  0  0
    4.2690   -0.1550    0.0000 C   0  0  0  0  0  0  0  0  0  0  0  0
    5.1350    1.3450    0.0000 C   0  0  0  0  0  0  0  0  0  0  0  0
    4.2690    0.8450    0.0000 C   0  0  0  0  0  0  0  0  0  0  0  0
    3.4030   -0.6550    0.0000 C   0  0  0  0  0  0  0  0  0  0  0  0
    5.1350   -0.6550    0.0000 C   0  0  0  0  0  0  0  0  0  0  0  0
    6.0010    0.8450    0.0000 C   0  0  0  0  0  0  0  0  0  0  0  0
    5.1350    2.3450    0.0000 C   0  0  0  0  0  0  0  0  0  0  0  0
    3.4030   -1.6550    0.0000 C   0  0  0  0  0  0  0  0  0  0  0  0
    5.1350   -1.6550    0.0000 C   0  0  0  0  0  0  0  0  0  0  0  0
    4.2690   -2.1550    0.0000 C   0  0  0  0  0  0  0  0  0  0  0  0
    6.8671    1.3450    0.0000 C   0  0  0  0  0  0  0  0  0  0  0  0
    6.0010    2.8450    0.0000 C   0  0  0  0  0  0  0  0  0  0  0  0
    6.8671    2.3450    0.0000 C   0  0  0  0  0  0  0  0  0  0  0  0
    6.0010    0.2250    0.0000 H   0  0  0  0  0  0  0  0  0  0  0  0
    4.5981    2.6550    0.0000 H   0  0  0  0  0  0  0  0  0  0  0  0
    2.8660   -1.9650    0.0000 H   0  0  0  0  0  0  0  0  0  0  0  0
    5.6720   -1.9650    0.0000 H   0  0  0  0  0  0  0  0  0  0  0  0
    6.0010    3.4650    0.0000 H   0  0  0  0  0  0  0  0  0  0  0  0
    2.0000   -0.4650    0.0000 H   0  0  0  0  0  0  0  0  0  0  0  0
    6.5380   -0.4650    0.0000 H   0  0  0  0  0  0  0  0  0  0  0  0
    3.7320   -3.4650    0.0000 H   0  0  0  0  0  0  0  0  0  0  0  0
    8.2700    1.1550    0.0000 H   0  0  0  0  0  0  0  0  0  0  0  0
    7.7331    3.4650    0.0000 H   0  0  0  0  0  0  0  0  0  0  0  0
  1 10  1  0  0  0  0
  1 25  1  0  0  0  0
  2 11  1  0  0  0  0
  2 26  1  0  0  0  0
  3  9  2  0  0  0  0
  4 16  1  0  0  0  0
  4 27  1  0  0  0  0
  5 17  1  0  0  0  0
  5 28  1  0  0  0  0
  6 19  1  0  0  0  0
  6 29  1  0  0  0  0
  7  9  1  0  0  0  0
  7 10  2  0  0  0  0
  7 11  1  0  0  0  0
  8  9  1  0  0  0  0
  8 12  2  0  0  0  0
  8 13  1  0  0  0  0
 10 14  1  0  0  0  0
 11 15  2  0  0  0  0
 12 17  1  0  0  0  0
 12 20  1  0  0  0  0
 13 18  2  0  0  0  0
 13 21  1  0  0  0  0
 14 16  2  0  0  0  0
 14 22  1  0  0  0  0
 15 16  1  0  0  0  0
 15 23  1  0  0  0  0
 17 19  2  0  0  0  0
 18 19  1  0  0  0  0
 18 24  1  0  0  0  0
M  END
> <PUBCHEM_COMPOUND_CID>
68213

> <PUBCHEM_COMPOUND_CANONICALIZED>
1

> <PUBCHEM_CACTVS_COMPLEXITY>
321

> <PUBCHEM_CACTVS_HBOND_ACCEPTOR>
6

> <PUBCHEM_CACTVS_HBOND_DONOR>
5

> <PUBCHEM_CACTVS_ROTATABLE_BOND>
2

> <PUBCHEM_CACTVS_SUBSKEYS>
AAADccBwOAAAAAAAAAAAAAAAAAAAAAAAAAAwYAAAAAAAAAABQAAAGgAACAAADASAmAAwBoAAAgCIAqBSAAACAAAkIAAIiAEGiMgJJzaCFRKAcUEl4BUJmYeK7PTOIAABCAAIQABAAAIQABCAAAAAAAAAAA==

> <PUBCHEM_IUPAC_OPENEYE_NAME>
(3,4-dihydroxyphenyl)-(2,4,6-trihydroxyphenyl)methanone

> <PUBCHEM_IUPAC_CAS_NAME>
(3,4-dihydroxyphenyl)-(2,4,6-trihydroxyphenyl)methanone

> <PUBCHEM_IUPAC_NAME>
(3,4-dihydroxyphenyl)-(2,4,6-trihydroxyphenyl)methanone

> <PUBCHEM_IUPAC_SYSTEMATIC_NAME>
[3,4-bis(oxidanyl)phenyl]-[2,4,6-tris(oxidanyl)phenyl]methanone

> <PUBCHEM_IUPAC_TRADITIONAL_NAME>
(3,4-dihydroxyphenyl)-(2,4,6-trihydroxyphenyl)methanone

> <PUBCHEM_IUPAC_INCHI>
InChI=1S/C13H10O6/c14-7-4-10(17)12(11(18)5-7)13(19)6-1-2-8(15)9(16)3-6/h1-5,14-18H

> <PUBCHEM_IUPAC_INCHIKEY>
XNWPXDGRBWJIES-UHFFFAOYSA-N

> <PUBCHEM_XLOGP3_AA>
2

> <PUBCHEM_EXACT_MASS>
262.047738

> <PUBCHEM_MOLECULAR_FORMULA>
C13H10O6

> <PUBCHEM_MOLECULAR_WEIGHT>
262.2149

> <PUBCHEM_OPENEYE_CAN_SMILES>
C1=CC(=C(C=C1C(=O)C2=C(C=C(C=C2O)O)O)O)O

> <PUBCHEM_OPENEYE_ISO_SMILES>
C1=CC(=C(C=C1C(=O)C2=C(C=C(C=C2O)O)O)O)O

> <PUBCHEM_CACTVS_TPSA>
118

> <PUBCHEM_MONOISOTOPIC_WEIGHT>
262.047738

> <PUBCHEM_TOTAL_CHARGE>
0

> <PUBCHEM_HEAVY_ATOM_COUNT>
19

> <PUBCHEM_ATOM_DEF_STEREO_COUNT>
0

> <PUBCHEM_ATOM_UDEF_STEREO_COUNT>
0

> <PUBCHEM_BOND_DEF_STEREO_COUNT>
0

> <PUBCHEM_BOND_UDEF_STEREO_COUNT>
0

> <PUBCHEM_ISOTOPIC_ATOM_COUNT>
0

> <PUBCHEM_COMPONENT_COUNT>
1

> <PUBCHEM_CACTVS_TAUTO_COUNT>
170

> <PUBCHEM_COORDINATE_TYPE>
1
5
255

> <PUBCHEM_BONDANNOTATIONS>
10  14  8
11  15  8
12  17  8
13  18  8
14  16  8
15  16  8
17  19  8
18  19  8
7  10  8
7  11  8
8  12  8
8  13  8

$$$$

