12810388
  -OEChem-07051212463D

 68 70  0     1  0  0  0  0  0999 V2000
    1.6500    0.4366   -0.0923 O   0  0  0  0  0  0  0  0  0  0  0  0
   -1.1984    0.5671   -0.2235 O   0  0  0  0  0  0  0  0  0  0  0  0
    0.4536    3.3156   -1.9601 O   0  0  0  0  0  0  0  0  0  0  0  0
    3.7651   -0.3249   -0.8310 O   0  0  0  0  0  0  0  0  0  0  0  0
   -3.0165   -0.1347   -1.5322 O   0  0  0  0  0  0  0  0  0  0  0  0
    1.8290   -3.8964   -0.0680 O   0  0  0  0  0  0  0  0  0  0  0  0
   -2.0741   -1.9953    0.5162 O   0  0  0  0  0  0  0  0  0  0  0  0
    3.8710   -2.9702    1.7315 O   0  0  0  0  0  0  0  0  0  0  0  0
   -4.4495   -2.7034   -1.1905 O   0  0  0  0  0  0  0  0  0  0  0  0
    5.9830    0.5426    0.5036 O   0  0  0  0  0  0  0  0  0  0  0  0
    1.8727    4.0641    0.5662 N   0  0  0  0  0  0  0  0  0  0  0  0
   -1.1705    4.2008    0.4234 N   0  0  0  0  0  0  0  0  0  0  0  0
    0.3878   -1.7574   -1.4134 N   0  0  0  0  0  0  0  0  0  0  0  0
   -5.1919   -0.2833    1.4638 N   0  0  0  0  0  0  0  0  0  0  0  0
    1.5844    1.8218   -0.4386 C   0  0  1  0  0  0  0  0  0  0  0  0
   -0.9760    1.9395   -0.5561 C   0  0  2  0  0  0  0  0  0  0  0  0
    0.3504    2.0432   -1.3291 C   0  0  1  0  0  0  0  0  0  0  0  0
    1.5769    2.6604    0.8539 C   0  0  2  0  0  0  0  0  0  0  0  0
   -1.0103    2.7794    0.7348 C   0  0  1  0  0  0  0  0  0  0  0  0
    0.2377    2.5207    1.6003 C   0  0  0  0  0  0  0  0  0  0  0  0
    2.3564   -0.3093   -1.0812 C   0  0  1  0  0  0  0  0  0  0  0  0
    1.8291   -1.7472   -1.1605 C   0  0  1  0  0  0  0  0  0  0  0  0
   -2.5893    0.2545   -0.2259 C   0  0  1  0  0  0  0  0  0  0  0  0
    2.1557   -2.5186    0.1229 C   0  0  2  0  0  0  0  0  0  0  0  0
   -2.8898   -0.8522    0.7916 C   0  0  1  0  0  0  0  0  0  0  0  0
    3.6512   -2.4080    0.4400 C   0  0  1  0  0  0  0  0  0  0  0  0
    4.1184   -0.9478    0.4089 C   0  0  1  0  0  0  0  0  0  0  0  0
   -4.3687   -1.2773    0.7678 C   0  0  2  0  0  0  0  0  0  0  0  0
   -4.8879   -1.4456   -0.6719 C   0  0  1  0  0  0  0  0  0  0  0  0
   -4.4316   -0.3245   -1.6063 C   0  0  0  0  0  0  0  0  0  0  0  0
    5.6332   -0.8283    0.5527 C   0  0  0  0  0  0  0  0  0  0  0  0
   -5.0510   -0.4219    2.9032 C   0  0  0  0  0  0  0  0  0  0  0  0
    2.4950    2.0961   -0.9916 H   0  0  0  0  0  0  0  0  0  0  0  0
   -1.7699    2.2838   -1.2357 H   0  0  0  0  0  0  0  0  0  0  0  0
    0.3255    1.2946   -2.1291 H   0  0  0  0  0  0  0  0  0  0  0  0
    2.3639    2.2843    1.5202 H   0  0  0  0  0  0  0  0  0  0  0  0
   -1.8767    2.4867    1.3400 H   0  0  0  0  0  0  0  0  0  0  0  0
    0.2269    3.1770    2.4811 H   0  0  0  0  0  0  0  0  0  0  0  0
    0.1722    1.4990    1.9992 H   0  0  0  0  0  0  0  0  0  0  0  0
    2.2265    0.1418   -2.0732 H   0  0  0  0  0  0  0  0  0  0  0  0
    2.3210   -2.2550   -2.0010 H   0  0  0  0  0  0  0  0  0  0  0  0
   -3.1662    1.1411    0.0705 H   0  0  0  0  0  0  0  0  0  0  0  0
    1.5560   -2.1611    0.9690 H   0  0  0  0  0  0  0  0  0  0  0  0
   -2.5637   -0.5133    1.7797 H   0  0  0  0  0  0  0  0  0  0  0  0
    4.2237   -3.0073   -0.2784 H   0  0  0  0  0  0  0  0  0  0  0  0
    3.6616   -0.3765    1.2279 H   0  0  0  0  0  0  0  0  0  0  0  0
   -4.4733   -2.2550    1.2589 H   0  0  0  0  0  0  0  0  0  0  0  0
    1.9105    4.5924    1.4368 H   0  0  0  0  0  0  0  0  0  0  0  0
    2.7960    4.1410    0.1419 H   0  0  0  0  0  0  0  0  0  0  0  0
   -1.2339    4.7362    1.2881 H   0  0  0  0  0  0  0  0  0  0  0  0
   -2.0491    4.3468   -0.0719 H   0  0  0  0  0  0  0  0  0  0  0  0
    1.2722    3.3192   -2.4847 H   0  0  0  0  0  0  0  0  0  0  0  0
   -5.9836   -1.4956   -0.6784 H   0  0  0  0  0  0  0  0  0  0  0  0
   -4.9331    0.6209   -1.3698 H   0  0  0  0  0  0  0  0  0  0  0  0
   -4.6638   -0.5754   -2.6464 H   0  0  0  0  0  0  0  0  0  0  0  0
    5.9787   -1.2485    1.5021 H   0  0  0  0  0  0  0  0  0  0  0  0
    6.1440   -1.3330   -0.2741 H   0  0  0  0  0  0  0  0  0  0  0  0
    0.0640   -2.7189   -1.5095 H   0  0  0  0  0  0  0  0  0  0  0  0
    0.1912   -1.2949   -2.2998 H   0  0  0  0  0  0  0  0  0  0  0  0
   -6.1733   -0.4250    1.2249 H   0  0  0  0  0  0  0  0  0  0  0  0
    2.3493   -4.2294   -0.8188 H   0  0  0  0  0  0  0  0  0  0  0  0
   -2.2429   -2.6511    1.2140 H   0  0  0  0  0  0  0  0  0  0  0  0
    3.3947   -2.4256    2.3811 H   0  0  0  0  0  0  0  0  0  0  0  0
   -4.8197   -2.7984   -2.0846 H   0  0  0  0  0  0  0  0  0  0  0  0
   -4.0473   -0.1749    3.2582 H   0  0  0  0  0  0  0  0  0  0  0  0
   -5.3170   -1.4275    3.2462 H   0  0  0  0  0  0  0  0  0  0  0  0
   -5.7343    0.2788    3.3948 H   0  0  0  0  0  0  0  0  0  0  0  0
    6.9497    0.5956    0.5939 H   0  0  0  0  0  0  0  0  0  0  0  0
  1 15  1  0  0  0  0
  1 21  1  0  0  0  0
  2 16  1  0  0  0  0
  2 23  1  0  0  0  0
  3 17  1  0  0  0  0
  3 52  1  0  0  0  0
  4 21  1  0  0  0  0
  4 27  1  0  0  0  0
  5 23  1  0  0  0  0
  5 30  1  0  0  0  0
  6 24  1  0  0  0  0
  6 61  1  0  0  0  0
  7 25  1  0  0  0  0
  7 62  1  0  0  0  0
  8 26  1  0  0  0  0
  8 63  1  0  0  0  0
  9 29  1  0  0  0  0
  9 64  1  0  0  0  0
 10 31  1  0  0  0  0
 10 68  1  0  0  0  0
 11 18  1  0  0  0  0
 11 48  1  0  0  0  0
 11 49  1  0  0  0  0
 12 19  1  0  0  0  0
 12 50  1  0  0  0  0
 12 51  1  0  0  0  0
 13 22  1  0  0  0  0
 13 58  1  0  0  0  0
 13 59  1  0  0  0  0
 14 28  1  0  0  0  0
 14 32  1  0  0  0  0
 14 60  1  0  0  0  0
 15 17  1  0  0  0  0
 15 18  1  0  0  0  0
 15 33  1  0  0  0  0
 16 17  1  0  0  0  0
 16 19  1  0  0  0  0
 16 34  1  0  0  0  0
 17 35  1  0  0  0  0
 18 20  1  0  0  0  0
 18 36  1  0  0  0  0
 19 20  1  0  0  0  0
 19 37  1  0  0  0  0
 20 38  1  0  0  0  0
 20 39  1  0  0  0  0
 21 22  1  0  0  0  0
 21 40  1  0  0  0  0
 22 24  1  0  0  0  0
 22 41  1  0  0  0  0
 23 25  1  0  0  0  0
 23 42  1  0  0  0  0
 24 26  1  0  0  0  0
 24 43  1  0  0  0  0
 25 28  1  0  0  0  0
 25 44  1  0  0  0  0
 26 27  1  0  0  0  0
 26 45  1  0  0  0  0
 27 31  1  0  0  0  0
 27 46  1  0  0  0  0
 28 29  1  0  0  0  0
 28 47  1  0  0  0  0
 29 30  1  0  0  0  0
 29 53  1  0  0  0  0
 30 54  1  0  0  0  0
 30 55  1  0  0  0  0
 31 56  1  0  0  0  0
 31 57  1  0  0  0  0
 32 65  1  0  0  0  0
 32 66  1  0  0  0  0
 32 67  1  0  0  0  0
M  END
> <PUBCHEM_COMPOUND_CID>
12810388

> <PUBCHEM_CONFORMER_RMSD>
1

> <PUBCHEM_CONFORMER_DIVERSEORDER>
1
54
38
14
72
71
23
42
50
58
59
60
13
63
78
30
56
65
68
55
74
22
57
36
11
35
28
62
12
80
40
75
7
79
16
51
41
81
5
34
82
69
61
70
73
17
66
67
19
47
45
25
32
4
76
18
33
49
77
3
39
8
44
43
64
9
24
2
27
46
48
20
31
21
15
6
37
52
29
53
10
26

> <PUBCHEM_MMFF94_PARTIAL_CHARGES>
44
1 -0.56
10 -0.68
11 -0.99
12 -0.99
13 -0.99
14 -0.9
15 0.28
16 0.28
17 0.28
18 0.27
19 0.27
2 -0.56
21 0.56
22 0.27
23 0.56
24 0.28
25 0.28
26 0.28
27 0.28
28 0.27
29 0.28
3 -0.68
30 0.28
31 0.28
32 0.27
4 -0.56
48 0.36
49 0.36
5 -0.56
50 0.36
51 0.36
52 0.4
58 0.36
59 0.36
6 -0.68
60 0.36
61 0.4
62 0.4
63 0.4
64 0.4
68 0.4
7 -0.68
8 -0.68
9 -0.68

> <PUBCHEM_EFFECTIVE_ROTOR_COUNT>
9.6

> <PUBCHEM_PHARMACOPHORE_FEATURES>
27
1 1 acceptor
1 10 acceptor
1 10 donor
1 11 cation
1 11 donor
1 12 cation
1 12 donor
1 13 cation
1 13 donor
1 14 cation
1 14 donor
1 2 acceptor
1 3 acceptor
1 3 donor
1 4 acceptor
1 5 acceptor
1 6 acceptor
1 6 donor
1 7 acceptor
1 7 donor
1 8 acceptor
1 8 donor
1 9 acceptor
1 9 donor
6 15 16 17 18 19 20 rings
6 4 21 22 24 26 27 rings
6 5 23 25 28 29 30 rings

> <PUBCHEM_HEAVY_ATOM_COUNT>
32

> <PUBCHEM_ATOM_DEF_STEREO_COUNT>
14

> <PUBCHEM_ATOM_UDEF_STEREO_COUNT>
0

> <PUBCHEM_BOND_DEF_STEREO_COUNT>
0

> <PUBCHEM_BOND_UDEF_STEREO_COUNT>
0

> <PUBCHEM_ISOTOPIC_ATOM_COUNT>
0

> <PUBCHEM_COMPONENT_COUNT>
1

> <PUBCHEM_CACTVS_TAUTO_COUNT>
1

> <PUBCHEM_CONFORMER_ID>
00C3789400000001

> <PUBCHEM_MMFF94_ENERGY>
74.4837

> <PUBCHEM_FEATURE_SELFOVERLAP>
137.119

> <PUBCHEM_SHAPE_FINGERPRINT>
10675989 125 16828422129296945349
1100329 8 18192154798388786206
11578080 2 5111467333133277081
11828532 37 16054888899261612203
12107183 9 18261661650357974737
12422481 6 17970896998166065371
12553582 1 18335971051929019039
12633257 1 18335975394447215427
12788726 201 18265315386734955521
13140716 1 18192990426761808606
13533116 47 18117274749734494219
13544653 18 18410576214334494948
13631057 29 18339646737145038486
14787075 74 18341898472423684822
14840074 17 18260268538274736606
14844126 61 18050860114930428259
15420108 30 17750798731691420702
15927050 60 17686627844898330612
17980427 23 17749385953945042647
19315092 285 17534365357254432167
20642791 268 17749379373785950961
20764821 26 18126276446223694603
20775530 9 18270113651326215794
21421861 104 18262497252681663777
23559900 14 18201169741269167101
3737641 26 18189327038839199086
392239 28 18334303054678146866
463206 1 18339642218254517287
469060 322 18335979861355252008
5309563 4 18336270050535788543

> <PUBCHEM_SHAPE_MULTIPOLES>
579.93
10.72
4.69
1.78
1.65
2.83
-0.45
-8.12
-3.33
-2.23
-0.37
1.87
0.03
-0.68

> <PUBCHEM_SHAPE_SELFOVERLAP>
1189.965

> <PUBCHEM_SHAPE_VOLUME>
327.6

> <PUBCHEM_COORDINATE_TYPE>
2
5
10

$$$$

