91612
  -OEChem-07051213123D

 42 43  0     0  0  0  0  0  0999 V2000
    0.8981    2.5385    0.6454 Cl  0  0  0  0  0  0  0  0  0  0  0  0
    3.6671   -1.3604    0.3224 O   0  0  0  0  0  0  0  0  0  0  0  0
    1.7792   -2.5706    0.8222 O   0  0  0  0  0  0  0  0  0  0  0  0
   -4.6012   -1.5495   -0.4360 O   0  0  0  0  0  0  0  0  0  0  0  0
    1.7355   -0.3324    0.0955 N   0  0  0  0  0  0  0  0  0  0  0  0
    2.6967    0.5742   -0.2521 N   0  0  0  0  0  0  0  0  0  0  0  0
   -3.7729    0.5744    0.0505 N   0  0  0  0  0  0  0  0  0  0  0  0
   -6.1100    0.1786   -0.1269 N   0  0  0  0  0  0  0  0  0  0  0  0
    5.1960    0.4129   -0.3321 C   0  0  0  0  0  0  0  0  0  0  0  0
    3.7953   -0.0866   -0.0978 C   0  0  0  0  0  0  0  0  0  0  0  0
    5.9821    0.3168    0.9777 C   0  0  0  0  0  0  0  0  0  0  0  0
    5.1072    1.8684   -0.7948 C   0  0  0  0  0  0  0  0  0  0  0  0
    5.8559   -0.4501   -1.4102 C   0  0  0  0  0  0  0  0  0  0  0  0
    0.3752   -0.0819    0.0891 C   0  0  0  0  0  0  0  0  0  0  0  0
    2.3147   -1.5366    0.4550 C   0  0  0  0  0  0  0  0  0  0  0  0
   -0.1455    1.1982    0.3288 C   0  0  0  0  0  0  0  0  0  0  0  0
   -0.5110   -1.1385   -0.1638 C   0  0  0  0  0  0  0  0  0  0  0  0
   -2.3947    0.3571    0.0631 C   0  0  0  0  0  0  0  0  0  0  0  0
   -1.5232    1.4165    0.3157 C   0  0  0  0  0  0  0  0  0  0  0  0
   -1.8887   -0.9204   -0.1766 C   0  0  0  0  0  0  0  0  0  0  0  0
   -4.8035   -0.3600   -0.1828 C   0  0  0  0  0  0  0  0  0  0  0  0
   -7.2948   -0.6360   -0.3644 C   0  0  0  0  0  0  0  0  0  0  0  0
   -6.3576    1.5875    0.1725 C   0  0  0  0  0  0  0  0  0  0  0  0
    6.0721   -0.7204    1.3205 H   0  0  0  0  0  0  0  0  0  0  0  0
    6.9952    0.7171    0.8606 H   0  0  0  0  0  0  0  0  0  0  0  0
    5.4878    0.8801    1.7777 H   0  0  0  0  0  0  0  0  0  0  0  0
    6.1055    2.2810   -0.9806 H   0  0  0  0  0  0  0  0  0  0  0  0
    4.6248    2.5038   -0.0425 H   0  0  0  0  0  0  0  0  0  0  0  0
    4.5348    1.9637   -1.7251 H   0  0  0  0  0  0  0  0  0  0  0  0
    5.2710   -0.4406   -2.3374 H   0  0  0  0  0  0  0  0  0  0  0  0
    5.9435   -1.4958   -1.0940 H   0  0  0  0  0  0  0  0  0  0  0  0
    6.8633   -0.0882   -1.6441 H   0  0  0  0  0  0  0  0  0  0  0  0
   -0.1670   -2.1400   -0.4036 H   0  0  0  0  0  0  0  0  0  0  0  0
   -1.9198    2.4124    0.5024 H   0  0  0  0  0  0  0  0  0  0  0  0
   -2.4884   -1.7928   -0.3900 H   0  0  0  0  0  0  0  0  0  0  0  0
   -4.0397    1.5354    0.2357 H   0  0  0  0  0  0  0  0  0  0  0  0
   -7.8433   -0.2212   -1.2150 H   0  0  0  0  0  0  0  0  0  0  0  0
   -7.9238   -0.6128    0.5302 H   0  0  0  0  0  0  0  0  0  0  0  0
   -7.0256   -1.6720   -0.5843 H   0  0  0  0  0  0  0  0  0  0  0  0
   -7.4323    1.7911    0.1966 H   0  0  0  0  0  0  0  0  0  0  0  0
   -5.8959    2.2068   -0.6022 H   0  0  0  0  0  0  0  0  0  0  0  0
   -5.9299    1.8319    1.1493 H   0  0  0  0  0  0  0  0  0  0  0  0
  1 16  1  0  0  0  0
  2 10  1  0  0  0  0
  2 15  1  0  0  0  0
  3 15  2  0  0  0  0
  4 21  2  0  0  0  0
  5  6  1  0  0  0  0
  5 14  1  0  0  0  0
  5 15  1  0  0  0  0
  6 10  2  0  0  0  0
  7 18  1  0  0  0  0
  7 21  1  0  0  0  0
  7 36  1  0  0  0  0
  8 21  1  0  0  0  0
  8 22  1  0  0  0  0
  8 23  1  0  0  0  0
  9 10  1  0  0  0  0
  9 11  1  0  0  0  0
  9 12  1  0  0  0  0
  9 13  1  0  0  0  0
 11 24  1  0  0  0  0
 11 25  1  0  0  0  0
 11 26  1  0  0  0  0
 12 27  1  0  0  0  0
 12 28  1  0  0  0  0
 12 29  1  0  0  0  0
 13 30  1  0  0  0  0
 13 31  1  0  0  0  0
 13 32  1  0  0  0  0
 14 16  2  0  0  0  0
 14 17  1  0  0  0  0
 16 19  1  0  0  0  0
 17 20  2  0  0  0  0
 17 33  1  0  0  0  0
 18 19  2  0  0  0  0
 18 20  1  0  0  0  0
 19 34  1  0  0  0  0
 20 35  1  0  0  0  0
 22 37  1  0  0  0  0
 22 38  1  0  0  0  0
 22 39  1  0  0  0  0
 23 40  1  0  0  0  0
 23 41  1  0  0  0  0
 23 42  1  0  0  0  0
M  END
> <PUBCHEM_COMPOUND_CID>
91612

> <PUBCHEM_CONFORMER_RMSD>
0.8

> <PUBCHEM_CONFORMER_DIVERSEORDER>
1
12
20
23
25
13
10
24
6
14
5
4
9
11
15
18
16
22
21
3
2
8
19
7
17

> <PUBCHEM_MMFF94_PARTIAL_CHARGES>
24
1 -0.18
10 0.54
14 0.12
15 0.78
16 0.18
17 -0.15
18 0.12
19 -0.15
2 -0.3
20 -0.15
21 0.69
22 0.3
23 0.3
3 -0.57
33 0.15
34 0.15
35 0.15
36 0.37
4 -0.57
5 -0.11
6 -0.51
7 -0.55
8 -0.66
9 0.06

> <PUBCHEM_EFFECTIVE_ROTOR_COUNT>
5

> <PUBCHEM_PHARMACOPHORE_FEATURES>
6
1 3 acceptor
1 4 acceptor
1 7 donor
4 9 11 12 13 hydrophobe
5 2 5 6 10 15 rings
6 14 16 17 18 19 20 rings

> <PUBCHEM_HEAVY_ATOM_COUNT>
23

> <PUBCHEM_ATOM_DEF_STEREO_COUNT>
0

> <PUBCHEM_ATOM_UDEF_STEREO_COUNT>
0

> <PUBCHEM_BOND_DEF_STEREO_COUNT>
0

> <PUBCHEM_BOND_UDEF_STEREO_COUNT>
0

> <PUBCHEM_ISOTOPIC_ATOM_COUNT>
0

> <PUBCHEM_COMPONENT_COUNT>
1

> <PUBCHEM_CACTVS_TAUTO_COUNT>
2

> <PUBCHEM_CONFORMER_ID>
000165DC00000001

> <PUBCHEM_MMFF94_ENERGY>
76.0091

> <PUBCHEM_FEATURE_SELFOVERLAP>
30.446

> <PUBCHEM_SHAPE_FINGERPRINT>
10090160 65 18131634491134849946
10906281 52 18336248116317039043
11578080 2 12749796592587682228
12011746 2 18334573546848455375
12107183 9 17546729713110720593
12236239 1 18410292514548887695
12516196 113 18113620084019583233
12788726 201 17895754118655545513
12838862 33 18337973219975461280
13533116 47 16845301578924718152
13862211 1 18409168813871048354
13899415 154 18040712550186966953
14251764 18 18334856126607668241
14528608 73 18412823573426283268
14787075 74 18341612603146596554
14790565 3 18409162216738406921
15048467 5 17988924461549180965
15183329 4 18411139156389285829
15196674 1 18338236080083512336
15849732 13 17675926482465682125
16120349 18 18273217470163147325
16993438 75 17773024264226620659
17492 89 18050853509302602546
18681886 176 17822018571152543651
20612939 158 18340484465884137093
21033648 29 14274025497487739067
21049683 118 17773612511773915280
21150785 3 18335427846683874247
21267235 1 18334850623688984126
21344244 181 17822559578166361238
21521721 280 18340478972140619168
21641784 216 18130493240936264764
21792934 111 18263659505001633456
221357 26 18187359948507938372
23035841 295 18186518817448359943
23402539 116 18187369817936291223
23522609 53 18190152690588983137
23536379 177 16845578629715932409
23559900 14 18335709278273419257
29717793 49 18040991860911331260
300161 21 18342462560385041091
3004659 81 18413385441369926756
335352 9 18408886204843675756
34797466 226 16226045557588308008
34934 24 18408608054140263150
350125 39 18409449198322347801
3545911 37 18343300370585521894
4073 2 17917143905919129227
4325135 7 18413671313770442044
4340502 62 16845573127636129554
4463277 17 18335421270598534593
5104073 3 18268148828115170088
5486654 2 18412540998790524414
6328613 192 18410290303179300457

> <PUBCHEM_SHAPE_MULTIPOLES>
437.67
16.88
2.02
0.85
14.27
0.28
0.07
0.86
3.01
-0.45
-0.33
-1.01
-0.02
-0.62

> <PUBCHEM_SHAPE_SELFOVERLAP>
914.547

> <PUBCHEM_SHAPE_VOLUME>
252.4

> <PUBCHEM_COORDINATE_TYPE>
2
5
10

$$$$

