4810
  -OEChem-07051212533D

 28 29  0     0  0  0  0  0  0999 V2000
   -1.4356   -3.1556   -0.0540 Cl  0  0  0  0  0  0  0  0  0  0  0  0
    0.2827    1.6323    0.3839 O   0  0  0  0  0  0  0  0  0  0  0  0
    3.1042   -0.8299    0.7485 N   0  0  0  0  0  0  0  0  0  0  0  0
    0.8317   -1.1141    0.3453 N   0  0  0  0  0  0  0  0  0  0  0  0
    2.2083    0.3039   -1.0013 N   0  0  0  0  0  0  0  0  0  0  0  0
   -1.9724    1.2575    0.0513 N   0  0  0  0  0  0  0  0  0  0  0  0
   -2.8239   -0.9871   -0.1592 N   0  0  0  0  0  0  0  0  0  0  0  0
    4.2584   -0.1390    0.2599 C   0  0  0  0  0  0  0  0  0  0  0  0
    3.6650    0.6296   -0.9277 C   0  0  0  0  0  0  0  0  0  0  0  0
    2.0107   -0.5278   -0.0065 C   0  0  0  0  0  0  0  0  0  0  0  0
   -0.4688   -0.6192    0.1843 C   0  0  0  0  0  0  0  0  0  0  0  0
   -0.7375    0.7351    0.2022 C   0  0  0  0  0  0  0  0  0  0  0  0
   -1.5629   -1.4405   -0.0018 C   0  0  0  0  0  0  0  0  0  0  0  0
   -2.9547    0.3528   -0.1225 C   0  0  0  0  0  0  0  0  0  0  0  0
   -4.3344    0.8919   -0.2931 C   0  0  0  0  0  0  0  0  0  0  0  0
   -0.0707    3.0101    0.3906 C   0  0  0  0  0  0  0  0  0  0  0  0
    5.0373   -0.8365   -0.0614 H   0  0  0  0  0  0  0  0  0  0  0  0
    4.6675    0.5400    1.0136 H   0  0  0  0  0  0  0  0  0  0  0  0
    3.7899    1.7098   -0.7972 H   0  0  0  0  0  0  0  0  0  0  0  0
    4.1509    0.3392   -1.8651 H   0  0  0  0  0  0  0  0  0  0  0  0
    3.1164   -1.4481    1.5502 H   0  0  0  0  0  0  0  0  0  0  0  0
    0.8746   -2.0206    0.8022 H   0  0  0  0  0  0  0  0  0  0  0  0
   -4.4194    1.8953    0.1359 H   0  0  0  0  0  0  0  0  0  0  0  0
   -4.5813    0.9448   -1.3575 H   0  0  0  0  0  0  0  0  0  0  0  0
   -5.0641    0.2467    0.2058 H   0  0  0  0  0  0  0  0  0  0  0  0
   -0.7542    3.2372    1.2157 H   0  0  0  0  0  0  0  0  0  0  0  0
   -0.5031    3.3101   -0.5699 H   0  0  0  0  0  0  0  0  0  0  0  0
    0.8444    3.5901    0.5427 H   0  0  0  0  0  0  0  0  0  0  0  0
  1 13  1  0  0  0  0
  2 12  1  0  0  0  0
  2 16  1  0  0  0  0
  3  8  1  0  0  0  0
  3 10  1  0  0  0  0
  3 21  1  0  0  0  0
  4 10  1  0  0  0  0
  4 11  1  0  0  0  0
  4 22  1  0  0  0  0
  5  9  1  0  0  0  0
  5 10  2  0  0  0  0
  6 12  1  0  0  0  0
  6 14  2  0  0  0  0
  7 13  2  0  0  0  0
  7 14  1  0  0  0  0
  8  9  1  0  0  0  0
  8 17  1  0  0  0  0
  8 18  1  0  0  0  0
  9 19  1  0  0  0  0
  9 20  1  0  0  0  0
 11 12  2  0  0  0  0
 11 13  1  0  0  0  0
 14 15  1  0  0  0  0
 15 23  1  0  0  0  0
 15 24  1  0  0  0  0
 15 25  1  0  0  0  0
 16 26  1  0  0  0  0
 16 27  1  0  0  0  0
 16 28  1  0  0  0  0
M  END
> <PUBCHEM_COMPOUND_CID>
4810

> <PUBCHEM_CONFORMER_RMSD>
0.6

> <PUBCHEM_CONFORMER_DIVERSEORDER>
1
9
6
11
7
3
10
8
12
4
2
5

> <PUBCHEM_MMFF94_PARTIAL_CHARGES>
18
1 -0.18
10 0.55
11 0.1
12 0.39
13 0.49
14 0.48
15 0.14
16 0.28
2 -0.36
21 0.4
22 0.4
3 -0.82
4 -0.55
5 -0.7
6 -0.62
7 -0.62
8 0.37
9 0.25

> <PUBCHEM_EFFECTIVE_ROTOR_COUNT>
3.6

> <PUBCHEM_PHARMACOPHORE_FEATURES>
8
1 2 acceptor
1 3 donor
1 4 donor
1 7 acceptor
3 6 7 14 cation
4 3 4 5 10 cation
5 3 5 8 9 10 rings
6 6 7 11 12 13 14 rings

> <PUBCHEM_HEAVY_ATOM_COUNT>
16

> <PUBCHEM_ATOM_DEF_STEREO_COUNT>
0

> <PUBCHEM_ATOM_UDEF_STEREO_COUNT>
0

> <PUBCHEM_BOND_DEF_STEREO_COUNT>
0

> <PUBCHEM_BOND_UDEF_STEREO_COUNT>
0

> <PUBCHEM_ISOTOPIC_ATOM_COUNT>
0

> <PUBCHEM_COMPONENT_COUNT>
1

> <PUBCHEM_CACTVS_TAUTO_COUNT>
2

> <PUBCHEM_CONFORMER_ID>
000012CA00000001

> <PUBCHEM_MMFF94_ENERGY>
59.2825

> <PUBCHEM_FEATURE_SELFOVERLAP>
40.64

> <PUBCHEM_SHAPE_FINGERPRINT>
10062212 137 18272941492048197626
10967382 1 18410293657036724483
11132069 177 18408888442637564272
11578080 2 17413348760551630780
11680986 33 18118974581140234641
12403814 3 17632580461338817365
13380535 76 18408604798534148807
13538477 17 18343303652272929794
14115302 16 18342451539229908556
14614273 12 18055355992275068197
14790565 3 18264760120916682193
14911166 2 18408891737225731053
14993402 34 18408325501479864341
15669948 3 18411139091442744894
15775835 57 18130784568445807342
16945 1 18335412469856889915
17846911 113 18336550502988347440
18186145 218 17418096524700762926
193761 8 17977669710546275625
20279233 1 17312821580723526014
20510252 161 18189054372581748600
20645476 183 18130499769280843903
20871999 31 18337112263536859223
21029758 11 18260838089746106305
21339142 51 18410292471546519126
21501502 16 18121778327185096525
22213442 358 18191585246595883594
2334 1 18048879585050314633
23366157 5 17841158753283523888
23402539 116 18260841418055279278
23557571 272 18187641346053684546
23559900 14 18334577937154279938
2748010 2 17977110063364708619
3084891 72 18336831991087544675
3250762 1 17976827480291840393
34934 24 18410018714958368194
353137 74 18268994361168261385
4340502 62 16630238204080322465
537710 114 18412823611838642485
589210 1 17977387131694385059
69090 78 18412830208887212743
7364860 26 17900543376146640609
74978 22 18337957762187319571
77492 1 17989490714696663898
81228 2 18042668667319709496

> <PUBCHEM_SHAPE_MULTIPOLES>
300.37
6.69
2.63
0.77
2.59
0.24
0.08
-0.47
0.86
-1.54
-0.28
0.4
-0.05
-0.25

> <PUBCHEM_SHAPE_SELFOVERLAP>
623.224

> <PUBCHEM_SHAPE_VOLUME>
174.5

> <PUBCHEM_COORDINATE_TYPE>
2
5
10

$$$$

