128057
  -OEChem-07051213073D

 17 16  0     1  0  0  0  0  0999 V2000
   -2.8403   -0.0066    0.6961 F   0  0  0  0  0  0  0  0  0  0  0  0
   -1.0740    1.4106   -0.7494 O   0  0  0  0  0  0  0  0  0  0  0  0
    1.9406    1.4133   -0.0129 O   0  0  0  0  0  0  0  0  0  0  0  0
    1.6780   -0.3635    1.3692 O   0  0  0  0  0  0  0  0  0  0  0  0
    0.7630   -1.8232   -0.8293 N   0  0  0  0  0  0  0  0  0  0  0  0
   -0.9211   -0.0070   -0.6445 C   0  0  1  0  0  0  0  0  0  0  0  0
    0.5640   -0.3726   -0.8074 C   0  0  1  0  0  0  0  0  0  0  0  0
   -1.5482   -0.4418    0.6739 C   0  0  0  0  0  0  0  0  0  0  0  0
    1.4380    0.1908    0.3042 C   0  0  0  0  0  0  0  0  0  0  0  0
   -1.5021   -0.4340   -1.4700 H   0  0  0  0  0  0  0  0  0  0  0  0
    0.9412    0.0314   -1.7548 H   0  0  0  0  0  0  0  0  0  0  0  0
   -1.0546    0.0137    1.5366 H   0  0  0  0  0  0  0  0  0  0  0  0
   -1.5596   -1.5280    0.7933 H   0  0  0  0  0  0  0  0  0  0  0  0
    0.1789   -2.2355   -1.5559 H   0  0  0  0  0  0  0  0  0  0  0  0
    0.4499   -2.2346    0.0489 H   0  0  0  0  0  0  0  0  0  0  0  0
   -0.6215    1.8209    0.0071 H   0  0  0  0  0  0  0  0  0  0  0  0
    2.5016    1.7751    0.7059 H   0  0  0  0  0  0  0  0  0  0  0  0
  1  8  1  0  0  0  0
  2  6  1  0  0  0  0
  2 16  1  0  0  0  0
  3  9  1  0  0  0  0
  3 17  1  0  0  0  0
  4  9  2  0  0  0  0
  5  7  1  0  0  0  0
  5 14  1  0  0  0  0
  5 15  1  0  0  0  0
  6  7  1  0  0  0  0
  6  8  1  0  0  0  0
  6 10  1  0  0  0  0
  7  9  1  0  0  0  0
  7 11  1  0  0  0  0
  8 12  1  0  0  0  0
  8 13  1  0  0  0  0
M  END
> <PUBCHEM_COMPOUND_CID>
128057

> <PUBCHEM_CONFORMER_RMSD>
0.6

> <PUBCHEM_CONFORMER_DIVERSEORDER>
1
18
14
2
15
13
16
17
9
6
5
7
10
11
4
12
8
3

> <PUBCHEM_MMFF94_PARTIAL_CHARGES>
13
1 -0.34
14 0.36
15 0.36
16 0.4
17 0.5
2 -0.68
3 -0.65
4 -0.57
5 -0.99
6 0.28
7 0.33
8 0.34
9 0.66

> <PUBCHEM_EFFECTIVE_ROTOR_COUNT>
3

> <PUBCHEM_PHARMACOPHORE_FEATURES>
7
1 2 acceptor
1 2 donor
1 3 acceptor
1 4 acceptor
1 5 cation
1 5 donor
3 3 4 9 anion

> <PUBCHEM_HEAVY_ATOM_COUNT>
9

> <PUBCHEM_ATOM_DEF_STEREO_COUNT>
2

> <PUBCHEM_ATOM_UDEF_STEREO_COUNT>
0

> <PUBCHEM_BOND_DEF_STEREO_COUNT>
0

> <PUBCHEM_BOND_UDEF_STEREO_COUNT>
0

> <PUBCHEM_ISOTOPIC_ATOM_COUNT>
0

> <PUBCHEM_COMPONENT_COUNT>
1

> <PUBCHEM_CACTVS_TAUTO_COUNT>
1

> <PUBCHEM_CONFORMER_ID>
0001F43900000001

> <PUBCHEM_MMFF94_ENERGY>
8.1741

> <PUBCHEM_FEATURE_SELFOVERLAP>
35.58

> <PUBCHEM_SHAPE_FINGERPRINT>
20096714 4 15719110253607297987
20653085 51 14491030437920258970
21040471 1 17531530875721673958
23552333 60 14764048044146463861
24536 1 18265058100929666245
29004967 10 18118117202483262174
5084963 1 17823155474417452054

> <PUBCHEM_SHAPE_MULTIPOLES>
155.35
2.79
1.33
1.11
1.14
0.13
0.15
-0.48
0.94
-0.42
-0.4
-0.07
0.12
0.2

> <PUBCHEM_SHAPE_SELFOVERLAP>
293.111

> <PUBCHEM_SHAPE_VOLUME>
95.9

> <PUBCHEM_COORDINATE_TYPE>
2
5
10

$$$$

