14061801
  -OEChem-07051213113D

 45 44  0     1  0  0  0  0  0999 V2000
    4.1448   -1.8809    0.4179 P   0  0  0  0  0  0  0  0  0  0  0  0
   -0.0119    0.0305    1.1984 O   0  0  0  0  0  0  0  0  0  0  0  0
    0.7102    3.1457   -0.2283 O   0  0  0  0  0  0  0  0  0  0  0  0
    2.7262    3.4697    0.7570 O   0  0  0  0  0  0  0  0  0  0  0  0
    5.2046   -2.4865   -0.6342 O   0  0  0  0  0  0  0  0  0  0  0  0
    4.5596   -2.5611    1.8186 O   0  0  0  0  0  0  0  0  0  0  0  0
    2.7080   -1.9962    0.0364 O   0  0  0  0  0  0  0  0  0  0  0  0
    1.0768    0.6257   -0.7607 N   0  0  0  0  0  0  0  0  0  0  0  0
   -0.5216   -1.9525   -1.1860 N   0  0  0  0  0  0  0  0  0  0  0  0
   -5.3413   -0.3389   -0.2899 N   0  0  0  0  0  0  0  0  0  0  0  0
   -7.4056   -1.3896   -0.3721 N   0  0  0  0  0  0  0  0  0  0  0  0
   -7.1121    0.1901    1.2446 N   0  0  0  0  0  0  0  0  0  0  0  0
   -2.3886   -0.6563   -0.2452 C   0  0  0  0  0  0  0  0  0  0  0  0
   -1.0092   -0.5982   -0.9179 C   0  0  1  0  0  0  0  0  0  0  0  0
   -3.1203    0.6913   -0.3172 C   0  0  0  0  0  0  0  0  0  0  0  0
    0.0474    0.0501   -0.0297 C   0  0  0  0  0  0  0  0  0  0  0  0
   -4.4840    0.6506    0.3650 C   0  0  0  0  0  0  0  0  0  0  0  0
    2.2000    1.2702   -0.1234 C   0  0  1  0  0  0  0  0  0  0  0  0
    3.3910    1.1590   -1.0238 C   0  0  0  0  0  0  0  0  0  0  0  0
    4.5144    0.5069   -0.6885 C   0  0  0  0  0  0  0  0  0  0  0  0
    4.7122   -0.1846    0.6187 C   0  0  0  0  0  0  0  0  0  0  0  0
    1.9381    2.7356    0.1728 C   0  0  0  0  0  0  0  0  0  0  0  0
   -6.5386   -0.4806    0.1873 C   0  0  0  0  0  0  0  0  0  0  0  0
   -2.3057   -0.9792    0.8000 H   0  0  0  0  0  0  0  0  0  0  0  0
   -3.0028   -1.4088   -0.7567 H   0  0  0  0  0  0  0  0  0  0  0  0
   -1.0840   -0.0569   -1.8683 H   0  0  0  0  0  0  0  0  0  0  0  0
   -2.5104    1.4688    0.1576 H   0  0  0  0  0  0  0  0  0  0  0  0
   -3.2484    0.9778   -1.3685 H   0  0  0  0  0  0  0  0  0  0  0  0
    2.3278    0.7943    0.8513 H   0  0  0  0  0  0  0  0  0  0  0  0
   -4.9347    1.6480    0.2972 H   0  0  0  0  0  0  0  0  0  0  0  0
   -4.3478    0.4010    1.4244 H   0  0  0  0  0  0  0  0  0  0  0  0
    1.0212    0.6296   -1.7756 H   0  0  0  0  0  0  0  0  0  0  0  0
   -1.1842   -2.4424   -1.7861 H   0  0  0  0  0  0  0  0  0  0  0  0
    0.3511   -1.9038   -1.7111 H   0  0  0  0  0  0  0  0  0  0  0  0
    3.3398    1.6314   -2.0024 H   0  0  0  0  0  0  0  0  0  0  0  0
    5.3306    0.4690   -1.4046 H   0  0  0  0  0  0  0  0  0  0  0  0
    4.2138    0.3053    1.4583 H   0  0  0  0  0  0  0  0  0  0  0  0
    5.7805   -0.1853    0.8629 H   0  0  0  0  0  0  0  0  0  0  0  0
    0.5479    4.0876   -0.0073 H   0  0  0  0  0  0  0  0  0  0  0  0
    5.0983   -3.4127   -0.9391 H   0  0  0  0  0  0  0  0  0  0  0  0
    4.3313   -3.5015    1.9785 H   0  0  0  0  0  0  0  0  0  0  0  0
   -7.1269   -1.9611   -1.1622 H   0  0  0  0  0  0  0  0  0  0  0  0
   -8.3462   -1.5149   -0.0146 H   0  0  0  0  0  0  0  0  0  0  0  0
   -6.6124    0.8971    1.7719 H   0  0  0  0  0  0  0  0  0  0  0  0
   -8.0650   -0.0054    1.5323 H   0  0  0  0  0  0  0  0  0  0  0  0
  1  5  1  0  0  0  0
  1  6  1  0  0  0  0
  1  7  2  0  0  0  0
  1 21  1  0  0  0  0
  2 16  2  0  0  0  0
  3 22  1  0  0  0  0
  3 39  1  0  0  0  0
  4 22  2  0  0  0  0
  5 40  1  0  0  0  0
  6 41  1  0  0  0  0
  8 16  1  0  0  0  0
  8 18  1  0  0  0  0
  8 32  1  0  0  0  0
  9 14  1  0  0  0  0
  9 33  1  0  0  0  0
  9 34  1  0  0  0  0
 10 17  1  0  0  0  0
 10 23  2  0  0  0  0
 11 23  1  0  0  0  0
 11 42  1  0  0  0  0
 11 43  1  0  0  0  0
 12 23  1  0  0  0  0
 12 44  1  0  0  0  0
 12 45  1  0  0  0  0
 13 14  1  0  0  0  0
 13 15  1  0  0  0  0
 13 24  1  0  0  0  0
 13 25  1  0  0  0  0
 14 16  1  0  0  0  0
 14 26  1  0  0  0  0
 15 17  1  0  0  0  0
 15 27  1  0  0  0  0
 15 28  1  0  0  0  0
 17 30  1  0  0  0  0
 17 31  1  0  0  0  0
 18 19  1  0  0  0  0
 18 22  1  0  0  0  0
 18 29  1  0  0  0  0
 19 20  2  0  0  0  0
 19 35  1  0  0  0  0
 20 21  1  0  0  0  0
 20 36  1  0  0  0  0
 21 37  1  0  0  0  0
 21 38  1  0  0  0  0
M  END
> <PUBCHEM_COMPOUND_CID>
14061801

> <PUBCHEM_CONFORMER_RMSD>
1

> <PUBCHEM_CONFORMER_DIVERSEORDER>
1
5
21
93
103
65
86
82
75
39
63
44
20
94
17
98
92
35
90
68
85
40
73
59
60
43
48
78
34
61
41
37
47
10
31
52
89
87
95
57
100
58
3
53
83
79
46
81
102
45
104
22
69
33
67
32
62
54
55
42
105
38
50
18
88
28
72
64
76
71
16
91
74
66
27
77
19
49
84
9
12
51
29
56
8
13
99
101
7
6
97
25
96
30
70
11
80
26
23
14
15
2
4
36
24

> <PUBCHEM_MMFF94_PARTIAL_CHARGES>
33
1 1.24
10 -0.7
11 -0.85
12 -0.85
14 0.33
16 0.57
17 0.25
18 0.5
19 -0.29
2 -0.57
20 -0.29
21 0.14
22 0.66
23 0.55
3 -0.65
32 0.37
33 0.36
34 0.36
35 0.15
36 0.15
39 0.5
4 -0.57
40 0.5
41 0.5
42 0.4
43 0.4
44 0.4
45 0.4
5 -0.77
6 -0.77
7 -0.7
8 -0.73
9 -0.99

> <PUBCHEM_EFFECTIVE_ROTOR_COUNT>
11

> <PUBCHEM_PHARMACOPHORE_FEATURES>
14
1 11 donor
1 12 donor
1 2 acceptor
1 3 acceptor
1 4 acceptor
1 5 acceptor
1 6 acceptor
1 7 acceptor
1 8 donor
1 9 cation
1 9 donor
3 3 4 22 anion
4 1 5 6 7 anion
4 10 11 12 23 cation

> <PUBCHEM_HEAVY_ATOM_COUNT>
23

> <PUBCHEM_ATOM_DEF_STEREO_COUNT>
2

> <PUBCHEM_ATOM_UDEF_STEREO_COUNT>
0

> <PUBCHEM_BOND_DEF_STEREO_COUNT>
1

> <PUBCHEM_BOND_UDEF_STEREO_COUNT>
0

> <PUBCHEM_ISOTOPIC_ATOM_COUNT>
0

> <PUBCHEM_COMPONENT_COUNT>
1

> <PUBCHEM_CACTVS_TAUTO_COUNT>
4

> <PUBCHEM_CONFORMER_ID>
00D690E900000001

> <PUBCHEM_MMFF94_ENERGY>
4.0328

> <PUBCHEM_FEATURE_SELFOVERLAP>
71.193

> <PUBCHEM_SHAPE_FINGERPRINT>
10688039 33 18059575836161190948
10763959 59 18131357388957450557
12166972 35 18040714775074868057
12553582 1 18336277816385214710
12616971 3 18113903745698715069
13533116 47 18342457032487707827
13583140 156 18268979895776262123
13782708 43 17918277562964000539
13785724 45 18044927124332924550
14251764 18 18411980252149784996
20369508 70 18408605855538955468
21267235 1 18338231674201746126
21421861 104 18341065042784138296
23558518 356 17833274112466530262
23559900 14 17561076974254011347
3014965 18 18272657861324711535
345986 75 18268723886098395768
34797466 226 15913319170328423621
4073 2 18127406748650999947
465052 167 18408881849678486655
8509985 295 18335420170844125532

> <PUBCHEM_SHAPE_MULTIPOLES>
417.06
15.88
3.01
1.08
30.41
1.38
-0.18
-7.27
-2.67
-5.06
-0.45
-0.49
-0.31
-0.99

> <PUBCHEM_SHAPE_SELFOVERLAP>
802.34

> <PUBCHEM_SHAPE_VOLUME>
253.3

> <PUBCHEM_COORDINATE_TYPE>
2
5
10

$$$$

