14398
  -OEChem-06241222432D

 31 32  0     0  0  0  0  0  0999 V2000
    5.4641    4.0600    0.0000 I   0  0  0  0  0  0  0  0  0  0  0  0
    2.0000    0.0600    0.0000 I   0  0  0  0  0  0  0  0  0  0  0  0
    5.4641    0.0600    0.0000 I   0  0  0  0  0  0  0  0  0  0  0  0
    3.7320    1.0600    0.0000 O   0  0  0  0  0  0  0  0  0  0  0  0
    7.1962    4.0600    0.0000 O   0  0  0  0  0  0  0  0  0  0  0  0
    2.8660   -3.4400    0.0000 O   0  0  0  0  0  0  0  0  0  0  0  0
    4.5981   -3.4400    0.0000 O   0  0  0  0  0  0  0  0  0  0  0  0
    4.5981    1.5600    0.0000 C   0  0  0  0  0  0  0  0  0  0  0  0
    3.7320    0.0600    0.0000 C   0  0  0  0  0  0  0  0  0  0  0  0
    6.3301    2.5600    0.0000 C   0  0  0  0  0  0  0  0  0  0  0  0
    4.5981    2.5600    0.0000 C   0  0  0  0  0  0  0  0  0  0  0  0
    5.4641    1.0600    0.0000 C   0  0  0  0  0  0  0  0  0  0  0  0
    5.4641    3.0600    0.0000 C   0  0  0  0  0  0  0  0  0  0  0  0
    6.3301    1.5600    0.0000 C   0  0  0  0  0  0  0  0  0  0  0  0
    2.8660   -0.4400    0.0000 C   0  0  0  0  0  0  0  0  0  0  0  0
    4.5981   -0.4400    0.0000 C   0  0  0  0  0  0  0  0  0  0  0  0
    3.7320   -1.9400    0.0000 C   0  0  0  0  0  0  0  0  0  0  0  0
    2.8660   -1.4400    0.0000 C   0  0  0  0  0  0  0  0  0  0  0  0
    4.5981   -1.4400    0.0000 C   0  0  0  0  0  0  0  0  0  0  0  0
    7.1962    3.0600    0.0000 C   0  0  0  0  0  0  0  0  0  0  0  0
    8.0622    2.5600    0.0000 C   0  0  0  0  0  0  0  0  0  0  0  0
    3.7320   -2.9400    0.0000 C   0  0  0  0  0  0  0  0  0  0  0  0
    4.0611    2.8700    0.0000 H   0  0  0  0  0  0  0  0  0  0  0  0
    5.4641    0.4400    0.0000 H   0  0  0  0  0  0  0  0  0  0  0  0
    6.8671    1.2500    0.0000 H   0  0  0  0  0  0  0  0  0  0  0  0
    2.3291   -1.7500    0.0000 H   0  0  0  0  0  0  0  0  0  0  0  0
    5.1350   -1.7500    0.0000 H   0  0  0  0  0  0  0  0  0  0  0  0
    7.7522    2.0231    0.0000 H   0  0  0  0  0  0  0  0  0  0  0  0
    8.5991    2.2500    0.0000 H   0  0  0  0  0  0  0  0  0  0  0  0
    8.3722    3.0969    0.0000 H   0  0  0  0  0  0  0  0  0  0  0  0
    2.8660   -4.0600    0.0000 H   0  0  0  0  0  0  0  0  0  0  0  0
  1 13  1  0  0  0  0
  2 15  1  0  0  0  0
  3 16  1  0  0  0  0
  4  8  1  0  0  0  0
  4  9  1  0  0  0  0
  5 20  2  0  0  0  0
  6 22  1  0  0  0  0
  6 31  1  0  0  0  0
  7 22  2  0  0  0  0
  8 11  2  0  0  0  0
  8 12  1  0  0  0  0
  9 15  2  0  0  0  0
  9 16  1  0  0  0  0
 10 13  2  0  0  0  0
 10 14  1  0  0  0  0
 10 20  1  0  0  0  0
 11 13  1  0  0  0  0
 11 23  1  0  0  0  0
 12 14  2  0  0  0  0
 12 24  1  0  0  0  0
 14 25  1  0  0  0  0
 15 18  1  0  0  0  0
 16 19  2  0  0  0  0
 17 18  2  0  0  0  0
 17 19  1  0  0  0  0
 17 22  1  0  0  0  0
 18 26  1  0  0  0  0
 19 27  1  0  0  0  0
 20 21  1  0  0  0  0
 21 28  1  0  0  0  0
 21 29  1  0  0  0  0
 21 30  1  0  0  0  0
M  END
> <PUBCHEM_COMPOUND_CID>
14398

> <PUBCHEM_COMPOUND_CANONICALIZED>
1

> <PUBCHEM_CACTVS_COMPLEXITY>
419

> <PUBCHEM_CACTVS_HBOND_ACCEPTOR>
4

> <PUBCHEM_CACTVS_HBOND_DONOR>
1

> <PUBCHEM_CACTVS_ROTATABLE_BOND>
4

> <PUBCHEM_CACTVS_SUBSKEYS>
AAADccBwOAAAAwAAAAAAAAAAAAAAAAAAAAAwYAAAAAAAAAABQAAAGgAgCAAADASCmAAyDoAABgCIAqDSCAACCAAkIAAIiAEGCMgMJjKENRqCeSCkwBEIuYeI7KzOIAAAAAAAAABAAAAAAAAAAAAAAAAAAA==

> <PUBCHEM_IUPAC_OPENEYE_NAME>
4-(4-acetyl-3-iodo-phenoxy)-3,5-diiodo-benzoic acid

> <PUBCHEM_IUPAC_CAS_NAME>
4-(4-acetyl-3-iodophenoxy)-3,5-diiodobenzoic acid

> <PUBCHEM_IUPAC_NAME>
4-(4-acetyl-3-iodophenoxy)-3,5-diiodobenzoic acid

> <PUBCHEM_IUPAC_SYSTEMATIC_NAME>
4-(4-ethanoyl-3-iodanyl-phenoxy)-3,5-bis(iodanyl)benzoic acid

> <PUBCHEM_IUPAC_TRADITIONAL_NAME>
4-(4-acetyl-3-iodo-phenoxy)-3,5-diiodo-benzoic acid

> <PUBCHEM_IUPAC_INCHI>
InChI=1S/C15H9I3O4/c1-7(19)10-3-2-9(6-11(10)16)22-14-12(17)4-8(15(20)21)5-13(14)18/h2-6H,1H3,(H,20,21)

> <PUBCHEM_IUPAC_INCHIKEY>
ODLJOXGVKAAUFP-UHFFFAOYSA-N

> <PUBCHEM_XLOGP3_AA>
4.6

> <PUBCHEM_EXACT_MASS>
633.763503

> <PUBCHEM_MOLECULAR_FORMULA>
C15H9I3O4

> <PUBCHEM_MOLECULAR_WEIGHT>
633.94297

> <PUBCHEM_OPENEYE_CAN_SMILES>
CC(=O)C1=C(C=C(C=C1)OC2=C(C=C(C=C2I)C(=O)O)I)I

> <PUBCHEM_OPENEYE_ISO_SMILES>
CC(=O)C1=C(C=C(C=C1)OC2=C(C=C(C=C2I)C(=O)O)I)I

> <PUBCHEM_CACTVS_TPSA>
63.6

> <PUBCHEM_MONOISOTOPIC_WEIGHT>
633.763503

> <PUBCHEM_TOTAL_CHARGE>
0

> <PUBCHEM_HEAVY_ATOM_COUNT>
22

> <PUBCHEM_ATOM_DEF_STEREO_COUNT>
0

> <PUBCHEM_ATOM_UDEF_STEREO_COUNT>
0

> <PUBCHEM_BOND_DEF_STEREO_COUNT>
0

> <PUBCHEM_BOND_UDEF_STEREO_COUNT>
0

> <PUBCHEM_ISOTOPIC_ATOM_COUNT>
0

> <PUBCHEM_COMPONENT_COUNT>
1

> <PUBCHEM_CACTVS_TAUTO_COUNT>
2

> <PUBCHEM_COORDINATE_TYPE>
1
5
255

> <PUBCHEM_BONDANNOTATIONS>
10  13  8
10  14  8
11  13  8
12  14  8
15  18  8
16  19  8
17  18  8
17  19  8
8  11  8
8  12  8
9  15  8
9  16  8

$$$$

