11953999
  -OEChem-07051213023D

 71 70  0     1  0  0  0  0  0999 V2000
   -2.7469   -3.1513   -2.1162 O   0  0  0  0  0  0  0  0  0  0  0  0
   -3.5007    5.1548   -0.1121 O   0  0  0  0  0  0  0  0  0  0  0  0
    3.3466   -0.6535   -3.1432 O   0  0  0  0  0  0  0  0  0  0  0  0
    5.2155    1.4198    0.3567 O   0  0  0  0  0  0  0  0  0  0  0  0
    3.5602   -0.0480   -0.3780 N   0  0  0  0  0  0  0  0  0  0  0  0
   -3.7720   -2.0871   -0.1494 C   0  0  1  0  0  0  0  0  0  0  0  0
   -2.7263   -3.1007   -0.6895 C   0  0  2  0  0  0  0  0  0  0  0  0
   -1.3047   -2.8472   -0.1970 C   0  0  0  0  0  0  0  0  0  0  0  0
   -3.4645   -0.6597   -0.5506 C   0  0  0  0  0  0  0  0  0  0  0  0
   -5.1860   -2.4399   -0.6303 C   0  0  0  0  0  0  0  0  0  0  0  0
    0.4415   -3.2997    1.6347 C   0  0  0  0  0  0  0  0  0  0  0  0
   -0.8947   -3.4367    0.9453 C   0  0  0  0  0  0  0  0  0  0  0  0
   -0.4388   -1.9328   -1.0232 C   0  0  0  0  0  0  0  0  0  0  0  0
   -3.2338    0.4070    0.2449 C   0  0  0  0  0  0  0  0  0  0  0  0
    0.2530   -2.6954    3.0275 C   0  0  0  0  0  0  0  0  0  0  0  0
    1.1219   -4.6645    1.7305 C   0  0  0  0  0  0  0  0  0  0  0  0
   -2.9891    1.7054   -0.3884 C   0  0  0  0  0  0  0  0  0  0  0  0
   -3.2458    0.3590    1.7504 C   0  0  0  0  0  0  0  0  0  0  0  0
   -2.4927    4.1996   -0.4331 C   0  0  2  0  0  0  0  0  0  0  0  0
   -2.7430    2.8693    0.2366 C   0  0  0  0  0  0  0  0  0  0  0  0
   -1.1045    4.7661   -0.0887 C   0  0  0  0  0  0  0  0  0  0  0  0
    4.4197   -1.0173   -1.0183 C   0  0  2  0  0  0  0  0  0  0  0  0
    0.0242    3.8487   -0.4834 C   0  0  0  0  0  0  0  0  0  0  0  0
    3.7126   -1.6622   -2.2084 C   0  0  0  0  0  0  0  0  0  0  0  0
    4.8600   -2.0675   -0.0066 C   0  0  0  0  0  0  0  0  0  0  0  0
    2.9536    1.9570    0.7867 C   0  0  0  0  0  0  0  0  0  0  0  0
    0.9174    3.3539    0.3873 C   0  0  0  0  0  0  0  0  0  0  0  0
    4.0396    1.0853    0.2527 C   0  0  0  0  0  0  0  0  0  0  0  0
    2.0148    2.4970   -0.0110 C   0  0  0  0  0  0  0  0  0  0  0  0
    2.9630    2.1405    2.2741 C   0  0  0  0  0  0  0  0  0  0  0  0
   -3.7788   -2.1919    0.9392 H   0  0  0  0  0  0  0  0  0  0  0  0
   -3.0274   -4.1042   -0.3578 H   0  0  0  0  0  0  0  0  0  0  0  0
   -3.4504   -0.5050   -1.6308 H   0  0  0  0  0  0  0  0  0  0  0  0
   -5.4332   -3.4772   -0.3802 H   0  0  0  0  0  0  0  0  0  0  0  0
   -5.9298   -1.7968   -0.1460 H   0  0  0  0  0  0  0  0  0  0  0  0
   -5.2982   -2.3152   -1.7129 H   0  0  0  0  0  0  0  0  0  0  0  0
    1.1122   -2.6420    1.0737 H   0  0  0  0  0  0  0  0  0  0  0  0
   -1.6061   -4.0786    1.4657 H   0  0  0  0  0  0  0  0  0  0  0  0
    0.0713   -2.5093   -1.8017 H   0  0  0  0  0  0  0  0  0  0  0  0
    0.3140   -1.4114   -0.4267 H   0  0  0  0  0  0  0  0  0  0  0  0
   -1.0205   -1.1525   -1.5196 H   0  0  0  0  0  0  0  0  0  0  0  0
   -3.5746   -3.5827   -2.3874 H   0  0  0  0  0  0  0  0  0  0  0  0
   -0.3792   -3.3284    3.6606 H   0  0  0  0  0  0  0  0  0  0  0  0
   -0.2155   -1.7067    2.9641 H   0  0  0  0  0  0  0  0  0  0  0  0
    1.2186   -2.5752    3.5304 H   0  0  0  0  0  0  0  0  0  0  0  0
    0.5241   -5.3744    2.3135 H   0  0  0  0  0  0  0  0  0  0  0  0
    2.1013   -4.5751    2.2132 H   0  0  0  0  0  0  0  0  0  0  0  0
    1.2796   -5.0941    0.7350 H   0  0  0  0  0  0  0  0  0  0  0  0
   -3.0038    1.7172   -1.4774 H   0  0  0  0  0  0  0  0  0  0  0  0
   -2.2741    0.6709    2.1500 H   0  0  0  0  0  0  0  0  0  0  0  0
   -3.4435   -0.6322    2.1613 H   0  0  0  0  0  0  0  0  0  0  0  0
   -4.0203    1.0229    2.1502 H   0  0  0  0  0  0  0  0  0  0  0  0
   -2.5470    4.0603   -1.5210 H   0  0  0  0  0  0  0  0  0  0  0  0
   -2.7224    2.9054    1.3236 H   0  0  0  0  0  0  0  0  0  0  0  0
   -0.9692    5.7246   -0.6060 H   0  0  0  0  0  0  0  0  0  0  0  0
   -1.0630    5.0080    0.9818 H   0  0  0  0  0  0  0  0  0  0  0  0
    5.3049   -0.4812   -1.3826 H   0  0  0  0  0  0  0  0  0  0  0  0
    0.1035    3.6084   -1.5414 H   0  0  0  0  0  0  0  0  0  0  0  0
    2.8013   -2.1824   -1.8936 H   0  0  0  0  0  0  0  0  0  0  0  0
    4.3714   -2.3771   -2.7118 H   0  0  0  0  0  0  0  0  0  0  0  0
    2.5622   -0.2400   -0.3612 H   0  0  0  0  0  0  0  0  0  0  0  0
    3.9994   -2.6060    0.4067 H   0  0  0  0  0  0  0  0  0  0  0  0
    5.3922   -1.6060    0.8324 H   0  0  0  0  0  0  0  0  0  0  0  0
    5.5304   -2.7991   -0.4691 H   0  0  0  0  0  0  0  0  0  0  0  0
   -3.2944    5.9740   -0.5939 H   0  0  0  0  0  0  0  0  0  0  0  0
    0.8276    3.6162    1.4368 H   0  0  0  0  0  0  0  0  0  0  0  0
    2.0784    2.2935   -1.0798 H   0  0  0  0  0  0  0  0  0  0  0  0
    3.5292    1.3401    2.7638 H   0  0  0  0  0  0  0  0  0  0  0  0
    3.4342    3.0927    2.5378 H   0  0  0  0  0  0  0  0  0  0  0  0
    1.9561    2.1086    2.7021 H   0  0  0  0  0  0  0  0  0  0  0  0
    2.8985   -1.0993   -3.8822 H   0  0  0  0  0  0  0  0  0  0  0  0
  1  7  1  0  0  0  0
  1 42  1  0  0  0  0
  2 19  1  0  0  0  0
  2 65  1  0  0  0  0
  3 24  1  0  0  0  0
  3 71  1  0  0  0  0
  4 28  2  0  0  0  0
  5 22  1  0  0  0  0
  5 28  1  0  0  0  0
  5 61  1  0  0  0  0
  6  7  1  0  0  0  0
  6  9  1  0  0  0  0
  6 10  1  0  0  0  0
  6 31  1  0  0  0  0
  7  8  1  0  0  0  0
  7 32  1  0  0  0  0
  8 12  2  0  0  0  0
  8 13  1  0  0  0  0
  9 14  2  0  0  0  0
  9 33  1  0  0  0  0
 10 34  1  0  0  0  0
 10 35  1  0  0  0  0
 10 36  1  0  0  0  0
 11 12  1  0  0  0  0
 11 15  1  0  0  0  0
 11 16  1  0  0  0  0
 11 37  1  0  0  0  0
 12 38  1  0  0  0  0
 13 39  1  0  0  0  0
 13 40  1  0  0  0  0
 13 41  1  0  0  0  0
 14 17  1  0  0  0  0
 14 18  1  0  0  0  0
 15 43  1  0  0  0  0
 15 44  1  0  0  0  0
 15 45  1  0  0  0  0
 16 46  1  0  0  0  0
 16 47  1  0  0  0  0
 16 48  1  0  0  0  0
 17 20  2  0  0  0  0
 17 49  1  0  0  0  0
 18 50  1  0  0  0  0
 18 51  1  0  0  0  0
 18 52  1  0  0  0  0
 19 20  1  0  0  0  0
 19 21  1  0  0  0  0
 19 53  1  0  0  0  0
 20 54  1  0  0  0  0
 21 23  1  0  0  0  0
 21 55  1  0  0  0  0
 21 56  1  0  0  0  0
 22 24  1  0  0  0  0
 22 25  1  0  0  0  0
 22 57  1  0  0  0  0
 23 27  2  0  0  0  0
 23 58  1  0  0  0  0
 24 59  1  0  0  0  0
 24 60  1  0  0  0  0
 25 62  1  0  0  0  0
 25 63  1  0  0  0  0
 25 64  1  0  0  0  0
 26 28  1  0  0  0  0
 26 29  2  0  0  0  0
 26 30  1  0  0  0  0
 27 29  1  0  0  0  0
 27 66  1  0  0  0  0
 29 67  1  0  0  0  0
 30 68  1  0  0  0  0
 30 69  1  0  0  0  0
 30 70  1  0  0  0  0
M  END
> <PUBCHEM_COMPOUND_CID>
11953999

> <PUBCHEM_CONFORMER_RMSD>
1.4

> <PUBCHEM_CONFORMER_DIVERSEORDER>
1
185
59
198
54
19
74
201
72
73
174
139
164
163
104
135
160
194
24
86
154
49
165
166
168
159
147
203
142
133
186
96
67
5
202
3
38
20
137
65
102
136
25
110
132
144
13
131
93
94
158
77
103
123
76
55
7
99
146
138
150
167
119
46
118
53
162
108
42
15
71
34
125
84
51
172
16
130
97
189
187
45
30
107
145
171
8
157
127
47
91
181
180
37
161
88
200
39
124
33
89
35
151
82
75
121
64
92
141
57
21
170
6
120
98
106
70
128
29
191
12
100
178
115
129
196
112
143
83
40
78
113
60
184
43
101
22
62
199
195
17
149
182
85
36
134
48
68
90
183
179
153
10
116
155
111
66
50
169
56
177
32
27
117
87
63
148
41
44
140
109
193
69
14
156
105
31
114
9
122
81
190
173
26
126
176
188
61
28
204
79
152
197
23
2
11
4
58
192
95
52
175
80
18

> <PUBCHEM_MMFF94_PARTIAL_CHARGES>
37
1 -0.68
11 0.14
12 -0.29
13 0.14
14 -0.14
17 -0.15
18 0.14
19 0.42
2 -0.68
20 -0.29
21 0.14
22 0.3
23 -0.29
24 0.28
26 -0.12
27 -0.15
28 0.62
29 -0.15
3 -0.68
30 0.14
33 0.15
38 0.15
4 -0.57
42 0.4
49 0.15
5 -0.73
54 0.15
58 0.15
6 0.14
61 0.37
65 0.4
66 0.15
67 0.15
7 0.42
71 0.4
8 -0.28
9 -0.29

> <PUBCHEM_EFFECTIVE_ROTOR_COUNT>
13

> <PUBCHEM_PHARMACOPHORE_FEATURES>
13
1 1 acceptor
1 1 donor
1 10 hydrophobe
1 13 hydrophobe
1 18 hydrophobe
1 2 acceptor
1 2 donor
1 3 acceptor
1 3 donor
1 30 hydrophobe
1 4 acceptor
1 5 donor
3 11 15 16 hydrophobe

> <PUBCHEM_HEAVY_ATOM_COUNT>
30

> <PUBCHEM_ATOM_DEF_STEREO_COUNT>
3

> <PUBCHEM_ATOM_UDEF_STEREO_COUNT>
1

> <PUBCHEM_BOND_DEF_STEREO_COUNT>
5

> <PUBCHEM_BOND_UDEF_STEREO_COUNT>
0

> <PUBCHEM_ISOTOPIC_ATOM_COUNT>
0

> <PUBCHEM_COMPONENT_COUNT>
1

> <PUBCHEM_CACTVS_TAUTO_COUNT>
2

> <PUBCHEM_CONFORMER_ID>
00B6674F00000001

> <PUBCHEM_MMFF94_ENERGY>
45.3278

> <PUBCHEM_FEATURE_SELFOVERLAP>
65.97

> <PUBCHEM_SHAPE_FINGERPRINT>
12788726 201 18270405979769543280
14251757 17 18114176458404629842
14659021 117 18196666107156191952
14725015 67 18337681823175696323
161222 619 16971941897360905842
17627616 140 18199478842335164219
20764821 26 18341332270726287932
325973 47 17547011823383881290
3493558 16 16590802067645212355
463206 1 17550956888543550881
474144 1 17119998280882319342
508706 21 18335138751591467093

> <PUBCHEM_SHAPE_MULTIPOLES>
588.93
9.56
8.06
2.14
4.97
5.17
0.14
-1.5
-2.73
-4.9
1.49
1.64
-2.17
0.32

> <PUBCHEM_SHAPE_SELFOVERLAP>
1141.007

> <PUBCHEM_SHAPE_VOLUME>
356.4

> <PUBCHEM_COORDINATE_TYPE>
2
5
10

$$$$

