440052
  -OEChem-07051212482D

 81 86  0     1  0  0  0  0  0999 V2000
    5.5214    1.9633    0.0000 P   0  0  3  0  0  0  0  0  0  0  0  0
    6.3981    5.4878    0.0000 O   0  0  0  0  0  0  0  0  0  0  0  0
    6.3981    3.4878    0.0000 O   0  0  0  0  0  0  0  0  0  0  0  0
    4.6497    2.4532    0.0000 O   0  0  0  0  0  0  0  0  0  0  0  0
    2.8680    5.5120    0.0000 O   0  0  0  0  0  0  0  0  0  0  0  0
    8.1580    3.4532    0.0000 O   0  0  0  0  0  0  0  0  0  0  0  0
    7.2641    5.9878    0.0000 O   0  0  0  0  0  0  0  0  0  0  0  0
    5.0315    1.0915    0.0000 O   0  0  0  0  0  0  0  0  0  0  0  0
    8.1465    6.5224    0.0000 O   0  0  0  0  0  0  0  0  0  0  0  0
    5.4688   -1.5492    0.0000 O   0  0  0  0  0  0  0  0  0  0  0  0
    6.3932    1.4733    0.0000 O   0  0  0  0  0  0  0  0  0  0  0  0
    6.0114    2.8350    0.0000 O   0  0  0  0  0  0  0  0  0  0  0  0
    3.3806   -0.0211    0.0000 O   0  0  0  0  0  0  0  0  0  0  0  0
    2.9529   -2.1542    0.0000 O   0  0  0  0  0  0  0  0  0  0  0  0
    4.6497    6.5224    0.0000 N   0  0  0  0  0  0  0  0  0  0  0  0
    2.8680    3.4637    0.0000 N   0  0  0  0  0  0  0  0  0  0  0  0
    4.8494   -3.2201    0.0000 N   0  0  0  0  0  0  0  0  0  0  0  0
    5.5236   -4.6816    0.0000 N   0  0  0  0  0  0  0  0  0  0  0  0
    3.1220   -3.8018    0.0000 N   0  0  0  0  0  0  0  0  0  0  0  0
    2.9639   -5.5267    0.0000 N   0  0  0  0  0  0  0  0  0  0  0  0
    4.3786   -6.5260    0.0000 N   0  0  0  0  0  0  0  0  0  0  0  0
    5.5320    4.9878    0.0000 C   0  0  1  0  0  0  0  0  0  0  0  0
    5.5320    3.9878    0.0000 C   0  0  1  0  0  0  0  0  0  0  0  0
    4.6381    5.5225    0.0000 C   0  0  2  0  0  0  0  0  0  0  0  0
    4.6381    3.4532    0.0000 C   0  0  2  0  0  0  0  0  0  0  0  0
    3.7320    3.9670    0.0000 C   0  0  1  0  0  0  0  0  0  0  0  0
    3.7320    5.0086    0.0000 C   0  0  2  0  0  0  0  0  0  0  0  0
    7.2641    4.9878    0.0000 C   0  0  2  0  0  0  0  0  0  0  0  0
    7.2641    3.9878    0.0000 C   0  0  2  0  0  0  0  0  0  0  0  0
    8.1580    5.5225    0.0000 C   0  0  0  0  0  0  0  0  0  0  0  0
    9.0641    3.9670    0.0000 C   0  0  1  0  0  0  0  0  0  0  0  0
    9.0641    5.0086    0.0000 C   0  0  0  0  0  0  0  0  0  0  0  0
    3.7895    7.0324    0.0000 C   0  0  0  0  0  0  0  0  0  0  0  0
    2.0000    3.9603    0.0000 C   0  0  0  0  0  0  0  0  0  0  0  0
    9.9282    3.4637    0.0000 C   0  0  0  0  0  0  0  0  0  0  0  0
    5.0515   -0.6404    0.0000 C   0  0  1  0  0  0  0  0  0  0  0  0
    4.0582   -0.7564    0.0000 C   0  0  2  0  0  0  0  0  0  0  0  0
    3.8617   -1.7369    0.0000 C   0  0  2  0  0  0  0  0  0  0  0  0
    5.5414    0.2313    0.0000 C   0  0  0  0  0  0  0  0  0  0  0  0
    4.7334   -2.2269    0.0000 C   0  0  1  0  0  0  0  0  0  0  0  0
    4.1178   -3.8931    0.0000 C   0  0  0  0  0  0  0  0  0  0  0  0
    5.7164   -3.7064    0.0000 C   0  0  0  0  0  0  0  0  0  0  0  0
    4.5367   -4.8012    0.0000 C   0  0  0  0  0  0  0  0  0  0  0  0
    3.9597   -5.6180    0.0000 C   0  0  0  0  0  0  0  0  0  0  0  0
    2.5450   -4.6186    0.0000 C   0  0  0  0  0  0  0  0  0  0  0  0
    5.5386    5.8378    0.0000 H   0  0  0  0  0  0  0  0  0  0  0  0
    5.5386    3.1379    0.0000 H   0  0  0  0  0  0  0  0  0  0  0  0
    4.1042    5.8376    0.0000 H   0  0  0  0  0  0  0  0  0  0  0  0
    4.1042    3.1380    0.0000 H   0  0  0  0  0  0  0  0  0  0  0  0
    3.7356    3.3470    0.0000 H   0  0  0  0  0  0  0  0  0  0  0  0
    3.1945    4.6997    0.0000 H   0  0  0  0  0  0  0  0  0  0  0  0
    7.2575    3.1379    0.0000 H   0  0  0  0  0  0  0  0  0  0  0  0
    5.1902    6.8262    0.0000 H   0  0  0  0  0  0  0  0  0  0  0  0
    2.8703    2.8437    0.0000 H   0  0  0  0  0  0  0  0  0  0  0  0
    9.0605    3.3470    0.0000 H   0  0  0  0  0  0  0  0  0  0  0  0
    9.6750    4.9026    0.0000 H   0  0  0  0  0  0  0  0  0  0  0  0
    9.2732    5.5923    0.0000 H   0  0  0  0  0  0  0  0  0  0  0  0
    2.3298    5.2040    0.0000 H   0  0  0  0  0  0  0  0  0  0  0  0
    4.1057    7.5657    0.0000 H   0  0  0  0  0  0  0  0  0  0  0  0
    3.2562    7.3486    0.0000 H   0  0  0  0  0  0  0  0  0  0  0  0
    3.4733    6.4991    0.0000 H   0  0  0  0  0  0  0  0  0  0  0  0
    6.7272    6.2978    0.0000 H   0  0  0  0  0  0  0  0  0  0  0  0
    2.3079    4.4985    0.0000 H   0  0  0  0  0  0  0  0  0  0  0  0
    1.4619    4.2683    0.0000 H   0  0  0  0  0  0  0  0  0  0  0  0
    1.6921    3.4222    0.0000 H   0  0  0  0  0  0  0  0  0  0  0  0
    9.6161    2.9279    0.0000 H   0  0  0  0  0  0  0  0  0  0  0  0
   10.4639    3.1516    0.0000 H   0  0  0  0  0  0  0  0  0  0  0  0
   10.2403    3.9994    0.0000 H   0  0  0  0  0  0  0  0  0  0  0  0
    5.6710   -0.6657    0.0000 H   0  0  0  0  0  0  0  0  0  0  0  0
    3.4613   -0.9238    0.0000 H   0  0  0  0  0  0  0  0  0  0  0  0
    3.3754   -1.3523    0.0000 H   0  0  0  0  0  0  0  0  0  0  0  0
    6.0210   -0.1617    0.0000 H   0  0  0  0  0  0  0  0  0  0  0  0
    6.0118    0.6353    0.0000 H   0  0  0  0  0  0  0  0  0  0  0  0
    5.3148   -2.4423    0.0000 H   0  0  0  0  0  0  0  0  0  0  0  0
    6.4003    0.8534    0.0000 H   0  0  0  0  0  0  0  0  0  0  0  0
    2.7756   -0.1570    0.0000 H   0  0  0  0  0  0  0  0  0  0  0  0
    2.4471   -1.7956    0.0000 H   0  0  0  0  0  0  0  0  0  0  0  0
    6.2794   -3.4467    0.0000 H   0  0  0  0  0  0  0  0  0  0  0  0
    1.9276   -4.5620    0.0000 H   0  0  0  0  0  0  0  0  0  0  0  0
    4.0208   -7.0324    0.0000 H   0  0  0  0  0  0  0  0  0  0  0  0
    4.9960   -6.5826    0.0000 H   0  0  0  0  0  0  0  0  0  0  0  0
  1  4  1  0  0  0  0
  1  8  1  0  0  0  0
  1 11  1  0  0  0  0
  1 12  2  0  0  0  0
  2 22  1  0  0  0  0
  2 28  1  0  0  0  0
  3 23  1  0  0  0  0
  3 29  1  0  0  0  0
 25  4  1  1  0  0  0
 27  5  1  6  0  0  0
  5 58  1  0  0  0  0
  6 29  1  0  0  0  0
  6 31  1  0  0  0  0
 28  7  1  6  0  0  0
  7 62  1  0  0  0  0
  8 39  1  0  0  0  0
  9 30  2  0  0  0  0
 10 36  1  0  0  0  0
 10 40  1  0  0  0  0
 11 75  1  0  0  0  0
 37 13  1  6  0  0  0
 13 76  1  0  0  0  0
 38 14  1  6  0  0  0
 14 77  1  0  0  0  0
 24 15  1  6  0  0  0
 15 33  1  0  0  0  0
 15 53  1  0  0  0  0
 26 16  1  6  0  0  0
 16 34  1  0  0  0  0
 16 54  1  0  0  0  0
 40 17  1  1  0  0  0
 17 41  1  0  0  0  0
 17 42  1  0  0  0  0
 18 42  2  0  0  0  0
 18 43  1  0  0  0  0
 19 41  1  0  0  0  0
 19 45  2  0  0  0  0
 20 44  2  0  0  0  0
 20 45  1  0  0  0  0
 21 44  1  0  0  0  0
 21 80  1  0  0  0  0
 21 81  1  0  0  0  0
 22 23  1  0  0  0  0
 22 24  1  0  0  0  0
 22 46  1  6  0  0  0
 23 25  1  0  0  0  0
 23 47  1  1  0  0  0
 24 27  1  0  0  0  0
 24 48  1  0  0  0  0
 25 26  1  0  0  0  0
 25 49  1  0  0  0  0
 26 27  1  0  0  0  0
 26 50  1  0  0  0  0
 27 51  1  0  0  0  0
 28 29  1  0  0  0  0
 28 30  1  0  0  0  0
 29 52  1  6  0  0  0
 30 32  1  0  0  0  0
 31 32  1  0  0  0  0
 31 35  1  1  0  0  0
 31 55  1  0  0  0  0
 32 56  1  0  0  0  0
 32 57  1  0  0  0  0
 33 59  1  0  0  0  0
 33 60  1  0  0  0  0
 33 61  1  0  0  0  0
 34 63  1  0  0  0  0
 34 64  1  0  0  0  0
 34 65  1  0  0  0  0
 35 66  1  0  0  0  0
 35 67  1  0  0  0  0
 35 68  1  0  0  0  0
 36 37  1  0  0  0  0
 36 39  1  1  0  0  0
 36 69  1  0  0  0  0
 37 38  1  0  0  0  0
 37 70  1  0  0  0  0
 38 40  1  0  0  0  0
 38 71  1  0  0  0  0
 39 72  1  0  0  0  0
 39 73  1  0  0  0  0
 40 74  1  0  0  0  0
 41 43  2  0  0  0  0
 42 78  1  0  0  0  0
 43 44  1  0  0  0  0
 45 79  1  0  0  0  0
M  END
> <PUBCHEM_COMPOUND_CID>
440052

> <PUBCHEM_COMPOUND_CANONICALIZED>
1

> <PUBCHEM_CACTVS_COMPLEXITY>
1150

> <PUBCHEM_CACTVS_HBOND_ACCEPTOR>
19

> <PUBCHEM_CACTVS_HBOND_DONOR>
8

> <PUBCHEM_CACTVS_ROTATABLE_BOND>
8

> <PUBCHEM_CACTVS_SUBSKEYS>
AAADcfB7vAIAAAAAAAAAAAAAAAAAAWJAAAA8SJEAAAAAAFiR+AAAHgAQCCAACDzxlwcH+L/MFxCoQYZxZIKAgC0REKABUKFoVBCTWBZAyEQ/RAgPMALXACHwcA8AAAAAAAAAAAACgAAUCACgAAAAAAAAAA==

> <PUBCHEM_IUPAC_INCHI>
InChI=1S/C24H36N7O13P/c1-8-4-10(32)24(36)23(40-8)42-19-17(43-24)11(26-2)15(34)12(27-3)18(19)44-45(37,38)39-5-9-14(33)16(35)22(41-9)31-7-30-13-20(25)28-6-29-21(13)31/h6-9,11-12,14-19,22-23,26-27,33-36H,4-5H2,1-3H3,(H,37,38)(H2,25,28,29)/t8-,9-,11+,12-,14-,15-,16-,17-,18+,19+,22-,23+,24+/m1/s1

> <PUBCHEM_IUPAC_INCHIKEY>
YWELMMKQVLJFMW-QEYXCPIGSA-N

> <PUBCHEM_XLOGP3_AA>
-7.9

> <PUBCHEM_EXACT_MASS>
661.210871

> <PUBCHEM_MOLECULAR_FORMULA>
C24H36N7O13P

> <PUBCHEM_MOLECULAR_WEIGHT>
661.555502

> <PUBCHEM_OPENEYE_CAN_SMILES>
CC1CC(=O)C2(C(O1)OC3C(O2)C(C(C(C3OP(=O)(O)OCC4C(C(C(O4)N5C=NC6=C5N=CN=C6N)O)O)NC)O)NC)O

> <PUBCHEM_OPENEYE_ISO_SMILES>
C[C@@H]1CC(=O)[C@]2([C@@H](O1)O[C@H]3[C@H](O2)[C@H]([C@H]([C@H]([C@@H]3OP(=O)(O)OC[C@@H]4[C@H]([C@H]([C@@H](O4)N5C=NC6=C5N=CN=C6N)O)O)NC)O)NC)O

> <PUBCHEM_CACTVS_TPSA>
284

> <PUBCHEM_MONOISOTOPIC_WEIGHT>
661.210871

> <PUBCHEM_TOTAL_CHARGE>
0

> <PUBCHEM_HEAVY_ATOM_COUNT>
45

> <PUBCHEM_ATOM_DEF_STEREO_COUNT>
13

> <PUBCHEM_ATOM_UDEF_STEREO_COUNT>
0

> <PUBCHEM_BOND_DEF_STEREO_COUNT>
0

> <PUBCHEM_BOND_UDEF_STEREO_COUNT>
0

> <PUBCHEM_ISOTOPIC_ATOM_COUNT>
0

> <PUBCHEM_COMPONENT_COUNT>
1

> <PUBCHEM_CACTVS_TAUTO_COUNT>
6

> <PUBCHEM_COORDINATE_TYPE>
1
5
255

> <PUBCHEM_BONDANNOTATIONS>
37  13  6
38  14  6
24  15  6
26  16  6
40  17  5
17  41  8
17  42  8
18  42  8
18  43  8
19  41  8
19  45  8
20  44  8
20  45  8
22  46  6
23  47  5
29  52  6
31  35  5
36  39  5
25  4  5
41  43  8
43  44  8
27  5  6
28  7  6

$$$$

