14256
  -OEChem-06241222422D

 39 38  0     0  0  0  0  0  0999 V2000
   11.5263   -1.0600    0.0000 O   0  0  0  0  0  0  0  0  0  0  0  0
   12.3923    0.4400    0.0000 N   0  0  0  0  0  0  0  0  0  0  0  0
    6.3301   -0.0600    0.0000 C   0  0  0  0  0  0  0  0  0  0  0  0
    7.1962    0.4400    0.0000 C   0  0  0  0  0  0  0  0  0  0  0  0
    5.4641    0.4400    0.0000 C   0  0  0  0  0  0  0  0  0  0  0  0
    8.0622   -0.0600    0.0000 C   0  0  0  0  0  0  0  0  0  0  0  0
    4.5981   -0.0600    0.0000 C   0  0  0  0  0  0  0  0  0  0  0  0
    8.9282    0.4400    0.0000 C   0  0  0  0  0  0  0  0  0  0  0  0
    3.7320    0.4400    0.0000 C   0  0  0  0  0  0  0  0  0  0  0  0
    9.7942   -0.0600    0.0000 C   0  0  0  0  0  0  0  0  0  0  0  0
    2.8660   -0.0600    0.0000 C   0  0  0  0  0  0  0  0  0  0  0  0
   10.6603    0.4400    0.0000 C   0  0  0  0  0  0  0  0  0  0  0  0
    2.0000    0.4400    0.0000 C   0  0  0  0  0  0  0  0  0  0  0  0
   11.5263   -0.0600    0.0000 C   0  0  0  0  0  0  0  0  0  0  0  0
    5.9316   -0.5349    0.0000 H   0  0  0  0  0  0  0  0  0  0  0  0
    6.7287   -0.5349    0.0000 H   0  0  0  0  0  0  0  0  0  0  0  0
    7.5947    0.9149    0.0000 H   0  0  0  0  0  0  0  0  0  0  0  0
    6.7976    0.9149    0.0000 H   0  0  0  0  0  0  0  0  0  0  0  0
    5.8626    0.9149    0.0000 H   0  0  0  0  0  0  0  0  0  0  0  0
    5.0656    0.9149    0.0000 H   0  0  0  0  0  0  0  0  0  0  0  0
    7.6636   -0.5349    0.0000 H   0  0  0  0  0  0  0  0  0  0  0  0
    8.4607   -0.5349    0.0000 H   0  0  0  0  0  0  0  0  0  0  0  0
    4.1996   -0.5349    0.0000 H   0  0  0  0  0  0  0  0  0  0  0  0
    4.9966   -0.5349    0.0000 H   0  0  0  0  0  0  0  0  0  0  0  0
    9.3267    0.9149    0.0000 H   0  0  0  0  0  0  0  0  0  0  0  0
    8.5297    0.9149    0.0000 H   0  0  0  0  0  0  0  0  0  0  0  0
    4.1306    0.9149    0.0000 H   0  0  0  0  0  0  0  0  0  0  0  0
    3.3335    0.9149    0.0000 H   0  0  0  0  0  0  0  0  0  0  0  0
    9.3957   -0.5349    0.0000 H   0  0  0  0  0  0  0  0  0  0  0  0
   10.1928   -0.5349    0.0000 H   0  0  0  0  0  0  0  0  0  0  0  0
    2.4675   -0.5349    0.0000 H   0  0  0  0  0  0  0  0  0  0  0  0
    3.2646   -0.5349    0.0000 H   0  0  0  0  0  0  0  0  0  0  0  0
   11.0588    0.9149    0.0000 H   0  0  0  0  0  0  0  0  0  0  0  0
   10.2617    0.9149    0.0000 H   0  0  0  0  0  0  0  0  0  0  0  0
    2.3100    0.9769    0.0000 H   0  0  0  0  0  0  0  0  0  0  0  0
    1.4631    0.7500    0.0000 H   0  0  0  0  0  0  0  0  0  0  0  0
    1.6900   -0.0969    0.0000 H   0  0  0  0  0  0  0  0  0  0  0  0
   12.9292    0.1300    0.0000 H   0  0  0  0  0  0  0  0  0  0  0  0
   12.3923    1.0600    0.0000 H   0  0  0  0  0  0  0  0  0  0  0  0
  1 14  2  0  0  0  0
  2 14  1  0  0  0  0
  2 38  1  0  0  0  0
  2 39  1  0  0  0  0
  3  4  1  0  0  0  0
  3  5  1  0  0  0  0
  3 15  1  0  0  0  0
  3 16  1  0  0  0  0
  4  6  1  0  0  0  0
  4 17  1  0  0  0  0
  4 18  1  0  0  0  0
  5  7  1  0  0  0  0
  5 19  1  0  0  0  0
  5 20  1  0  0  0  0
  6  8  1  0  0  0  0
  6 21  1  0  0  0  0
  6 22  1  0  0  0  0
  7  9  1  0  0  0  0
  7 23  1  0  0  0  0
  7 24  1  0  0  0  0
  8 10  1  0  0  0  0
  8 25  1  0  0  0  0
  8 26  1  0  0  0  0
  9 11  1  0  0  0  0
  9 27  1  0  0  0  0
  9 28  1  0  0  0  0
 10 12  1  0  0  0  0
 10 29  1  0  0  0  0
 10 30  1  0  0  0  0
 11 13  1  0  0  0  0
 11 31  1  0  0  0  0
 11 32  1  0  0  0  0
 12 14  1  0  0  0  0
 12 33  1  0  0  0  0
 12 34  1  0  0  0  0
 13 35  1  0  0  0  0
 13 36  1  0  0  0  0
 13 37  1  0  0  0  0
M  END
> <PUBCHEM_COMPOUND_CID>
14256

> <PUBCHEM_COMPOUND_CANONICALIZED>
1

> <PUBCHEM_CACTVS_COMPLEXITY>
134

> <PUBCHEM_CACTVS_HBOND_ACCEPTOR>
1

> <PUBCHEM_CACTVS_HBOND_DONOR>
1

> <PUBCHEM_CACTVS_ROTATABLE_BOND>
10

> <PUBCHEM_CACTVS_SUBSKEYS>
AAADceByIAAAAAAAAAAAAAAAAAAAAAAAAAAAAAAAAAAAAAAAAAAAHgAQAAAACACBgAACAABAAAAIAAEQEAAAAAAAAAAAAAEAAAAAABIAgAAAAAAAEAAAAAEYiICAAAAAAAAAAAAAAAAAAAAAAAAAAAAAAA==

> <PUBCHEM_IUPAC_OPENEYE_NAME>
dodecanamide

> <PUBCHEM_IUPAC_CAS_NAME>
dodecanamide

> <PUBCHEM_IUPAC_NAME>
dodecanamide

> <PUBCHEM_IUPAC_SYSTEMATIC_NAME>
dodecanamide

> <PUBCHEM_IUPAC_TRADITIONAL_NAME>
lauramide

> <PUBCHEM_IUPAC_INCHI>
InChI=1S/C12H25NO/c1-2-3-4-5-6-7-8-9-10-11-12(13)14/h2-11H2,1H3,(H2,13,14)

> <PUBCHEM_IUPAC_INCHIKEY>
ILRSCQWREDREME-UHFFFAOYSA-N

> <PUBCHEM_XLOGP3>
3.5

> <PUBCHEM_EXACT_MASS>
199.193614

> <PUBCHEM_MOLECULAR_FORMULA>
C12H25NO

> <PUBCHEM_MOLECULAR_WEIGHT>
199.333

> <PUBCHEM_OPENEYE_CAN_SMILES>
CCCCCCCCCCCC(=O)N

> <PUBCHEM_OPENEYE_ISO_SMILES>
CCCCCCCCCCCC(=O)N

> <PUBCHEM_CACTVS_TPSA>
43.1

> <PUBCHEM_MONOISOTOPIC_WEIGHT>
199.193614

> <PUBCHEM_TOTAL_CHARGE>
0

> <PUBCHEM_HEAVY_ATOM_COUNT>
14

> <PUBCHEM_ATOM_DEF_STEREO_COUNT>
0

> <PUBCHEM_ATOM_UDEF_STEREO_COUNT>
0

> <PUBCHEM_BOND_DEF_STEREO_COUNT>
0

> <PUBCHEM_BOND_UDEF_STEREO_COUNT>
0

> <PUBCHEM_ISOTOPIC_ATOM_COUNT>
0

> <PUBCHEM_COMPONENT_COUNT>
1

> <PUBCHEM_CACTVS_TAUTO_COUNT>
3

> <PUBCHEM_COORDINATE_TYPE>
1
5
255

$$$$

