5281460
  -OEChem-07051212573D

 38 39  0     1  0  0  0  0  0999 V2000
   -1.8444    1.6477    0.0743 O   0  0  0  0  0  0  0  0  0  0  0  0
   -0.5037   -2.0130    1.3858 O   0  0  0  0  0  0  0  0  0  0  0  0
   -4.1276    1.4646   -0.0896 O   0  0  0  0  0  0  0  0  0  0  0  0
   -1.1812   -0.5687   -0.4907 C   0  0  1  0  0  0  0  0  0  0  0  0
   -0.7508    0.7258    0.2315 C   0  0  1  0  0  0  0  0  0  0  0  0
   -0.5416   -1.9089   -0.0339 C   0  0  1  0  0  0  0  0  0  0  0  0
    0.8475   -2.2715   -0.6286 C   0  0  0  0  0  0  0  0  0  0  0  0
   -2.6663   -0.4519   -0.2835 C   0  0  0  0  0  0  0  0  0  0  0  0
    0.4590    1.3461   -0.3996 C   0  0  0  0  0  0  0  0  0  0  0  0
    2.0423   -1.4471   -0.1880 C   0  0  0  0  0  0  0  0  0  0  0  0
   -3.0145    0.9709   -0.0864 C   0  0  0  0  0  0  0  0  0  0  0  0
    1.5879    1.7618    0.2097 C   0  0  0  0  0  0  0  0  0  0  0  0
    2.8500    1.8750   -0.6320 C   0  0  0  0  0  0  0  0  0  0  0  0
    3.5948    0.5170   -0.7042 C   0  0  0  0  0  0  0  0  0  0  0  0
    2.6410   -0.6035   -1.0560 C   0  0  0  0  0  0  0  0  0  0  0  0
   -3.6203   -1.3866   -0.2403 C   0  0  0  0  0  0  0  0  0  0  0  0
    2.4643   -1.6211    1.2460 C   0  0  0  0  0  0  0  0  0  0  0  0
    1.7637    1.9634    1.6856 C   0  0  0  0  0  0  0  0  0  0  0  0
   -1.0254   -0.4720   -1.5751 H   0  0  0  0  0  0  0  0  0  0  0  0
   -0.6149    0.5569    1.3046 H   0  0  0  0  0  0  0  0  0  0  0  0
   -1.1919   -2.7244   -0.3735 H   0  0  0  0  0  0  0  0  0  0  0  0
    0.7602   -2.2573   -1.7231 H   0  0  0  0  0  0  0  0  0  0  0  0
    1.0676   -3.3155   -0.3655 H   0  0  0  0  0  0  0  0  0  0  0  0
    0.4679    1.2931   -1.4889 H   0  0  0  0  0  0  0  0  0  0  0  0
    2.5984    2.2026   -1.6497 H   0  0  0  0  0  0  0  0  0  0  0  0
    3.5146    2.6457   -0.2241 H   0  0  0  0  0  0  0  0  0  0  0  0
    4.1079    0.3365    0.2447 H   0  0  0  0  0  0  0  0  0  0  0  0
    4.3791    0.5710   -1.4681 H   0  0  0  0  0  0  0  0  0  0  0  0
    2.2835   -0.5791   -2.0849 H   0  0  0  0  0  0  0  0  0  0  0  0
   -1.4075   -1.8834    1.7190 H   0  0  0  0  0  0  0  0  0  0  0  0
   -3.3943   -2.4371   -0.3810 H   0  0  0  0  0  0  0  0  0  0  0  0
   -4.6612   -1.1323   -0.0685 H   0  0  0  0  0  0  0  0  0  0  0  0
    1.7959   -1.0804    1.9207 H   0  0  0  0  0  0  0  0  0  0  0  0
    3.4853   -1.2801    1.4336 H   0  0  0  0  0  0  0  0  0  0  0  0
    2.4445   -2.6818    1.5193 H   0  0  0  0  0  0  0  0  0  0  0  0
    2.1269    2.9789    1.8777 H   0  0  0  0  0  0  0  0  0  0  0  0
    2.4957    1.2600    2.0922 H   0  0  0  0  0  0  0  0  0  0  0  0
    0.8333    1.8479    2.2470 H   0  0  0  0  0  0  0  0  0  0  0  0
  1  5  1  0  0  0  0
  1 11  1  0  0  0  0
  2  6  1  0  0  0  0
  2 30  1  0  0  0  0
  3 11  2  0  0  0  0
  4  5  1  0  0  0  0
  4  6  1  0  0  0  0
  4  8  1  0  0  0  0
  4 19  1  0  0  0  0
  5  9  1  0  0  0  0
  5 20  1  0  0  0  0
  6  7  1  0  0  0  0
  6 21  1  0  0  0  0
  7 10  1  0  0  0  0
  7 22  1  0  0  0  0
  7 23  1  0  0  0  0
  8 11  1  0  0  0  0
  8 16  2  0  0  0  0
  9 12  2  0  0  0  0
  9 24  1  0  0  0  0
 10 15  2  0  0  0  0
 10 17  1  0  0  0  0
 12 13  1  0  0  0  0
 12 18  1  0  0  0  0
 13 14  1  0  0  0  0
 13 25  1  0  0  0  0
 13 26  1  0  0  0  0
 14 15  1  0  0  0  0
 14 27  1  0  0  0  0
 14 28  1  0  0  0  0
 15 29  1  0  0  0  0
 16 31  1  0  0  0  0
 16 32  1  0  0  0  0
 17 33  1  0  0  0  0
 17 34  1  0  0  0  0
 17 35  1  0  0  0  0
 18 36  1  0  0  0  0
 18 37  1  0  0  0  0
 18 38  1  0  0  0  0
M  END
> <PUBCHEM_COMPOUND_CID>
5281460

> <PUBCHEM_CONFORMER_RMSD>
0.6

> <PUBCHEM_CONFORMER_DIVERSEORDER>
1
3
2
4

> <PUBCHEM_MMFF94_PARTIAL_CHARGES>
23
1 -0.43
10 -0.28
11 0.71
12 -0.28
13 0.14
14 0.14
15 -0.29
16 -0.3
17 0.14
18 0.14
2 -0.68
24 0.15
29 0.15
3 -0.57
30 0.4
31 0.15
32 0.15
4 0.14
5 0.42
6 0.28
7 0.14
8 -0.12
9 -0.29

> <PUBCHEM_EFFECTIVE_ROTOR_COUNT>
1

> <PUBCHEM_PHARMACOPHORE_FEATURES>
4
1 2 acceptor
1 2 donor
1 3 acceptor
5 1 4 5 8 11 rings

> <PUBCHEM_HEAVY_ATOM_COUNT>
18

> <PUBCHEM_ATOM_DEF_STEREO_COUNT>
3

> <PUBCHEM_ATOM_UDEF_STEREO_COUNT>
0

> <PUBCHEM_BOND_DEF_STEREO_COUNT>
2

> <PUBCHEM_BOND_UDEF_STEREO_COUNT>
0

> <PUBCHEM_ISOTOPIC_ATOM_COUNT>
0

> <PUBCHEM_COMPONENT_COUNT>
1

> <PUBCHEM_CACTVS_TAUTO_COUNT>
1

> <PUBCHEM_CONFORMER_ID>
005096B400000001

> <PUBCHEM_MMFF94_ENERGY>
46.0106

> <PUBCHEM_FEATURE_SELFOVERLAP>
20.297

> <PUBCHEM_SHAPE_FINGERPRINT>
10062212 137 18336554884108502375
10948715 1 18269552750235497676
10967382 1 18337951315283295789
10980938 120 18410008840538410926
11132069 177 18337394962325924326
12716301 132 17976549308456528896
13140716 1 18409736187804367081
13897977 150 18411136956833001253
14251745 187 18266455400189214760
15196674 1 18410007732721594390
15536298 74 18333169466072981908
15775835 57 18342451573357421364
16945 1 18191022502869340975
18186145 218 18341895216321217893
20511035 2 18338514119418916646
20691752 17 17847066588130545687
20905425 154 18191586350249777438
21501502 16 18411421713249147871
2334 1 18410296865635718477
23402539 116 18261961863881637966
23463225 33 18341334482439110660
23526113 38 17896862297585392012
23557571 272 16878526547851562807
23559900 14 18335136549006473614
25 1 18411695521376841517
2748010 2 17256811092288323221
2871803 45 18337957766672353735
3323516 105 18261388906279279037
495365 180 17895777148027807281
5262128 65 17605530306326383580
53812653 166 18408604760047864836
5939293 188 18335987553335833868
7364860 26 18260270784315616404
7832392 63 18116713117623506077
81228 2 17617950127559331995
9709674 26 18336818676678286982

> <PUBCHEM_SHAPE_MULTIPOLES>
352.82
5.91
2.74
1.12
3.16
0.3
0.38
-1.34
-0.89
-0.57
0.43
-0.79
0.05
0.02

> <PUBCHEM_SHAPE_SELFOVERLAP>
727.941

> <PUBCHEM_SHAPE_VOLUME>
201.5

> <PUBCHEM_COORDINATE_TYPE>
2
5
10

$$$$

