119242
  -OEChem-07051213102D

 83 87  0     1  0  0  0  0  0999 V2000
   11.1246    2.5364    0.0000 O   0  0  0  0  0  0  0  0  0  0  0  0
    6.6507   -1.1080    0.0000 C   0  0  1  0  0  0  0  0  0  0  0  0
    5.7847   -0.6080    0.0000 C   0  0  2  0  0  0  0  0  0  0  0  0
    7.5167   -0.6080    0.0000 C   0  0  2  0  0  0  0  0  0  0  0  0
    7.5167    0.3920    0.0000 C   0  0  2  0  0  0  0  0  0  0  0  0
    4.8746   -1.1148    0.0000 C   0  0  1  0  0  0  0  0  0  0  0  0
    8.4106    0.9267    0.0000 C   0  0  1  0  0  0  0  0  0  0  0  0
    4.8666   -2.1564    0.0000 C   0  0  1  0  0  0  0  0  0  0  0  0
    5.7847    0.3920    0.0000 C   0  0  0  0  0  0  0  0  0  0  0  0
    9.3167    0.4128    0.0000 C   0  0  2  0  0  0  0  0  0  0  0  0
    6.6507    0.8920    0.0000 C   0  0  0  0  0  0  0  0  0  0  0  0
    6.6667   -2.1495    0.0000 C   0  0  0  0  0  0  0  0  0  0  0  0
    8.4106   -1.1426    0.0000 C   0  0  0  0  0  0  0  0  0  0  0  0
    5.7687   -2.6772    0.0000 C   0  0  0  0  0  0  0  0  0  0  0  0
    9.3167   -0.6288    0.0000 C   0  0  0  0  0  0  0  0  0  0  0  0
    3.9478   -0.5507    0.0000 C   0  0  0  0  0  0  0  0  0  0  0  0
    7.5167   -1.6080    0.0000 C   0  0  0  0  0  0  0  0  0  0  0  0
    4.9186   -0.1080    0.0000 C   0  0  0  0  0  0  0  0  0  0  0  0
   10.2605    0.9481    0.0000 C   0  0  2  0  0  0  0  0  0  0  0  0
    8.3856    2.0114    0.0000 C   0  0  0  0  0  0  0  0  0  0  0  0
    3.9312   -2.7062    0.0000 C   0  0  0  0  0  0  0  0  0  0  0  0
    7.5167    1.3920    0.0000 C   0  0  0  0  0  0  0  0  0  0  0  0
    2.9999   -1.0787    0.0000 C   0  0  0  0  0  0  0  0  0  0  0  0
    2.9916   -2.1636    0.0000 C   0  0  0  0  0  0  0  0  0  0  0  0
    4.8589   -3.1564    0.0000 C   0  0  0  0  0  0  0  0  0  0  0  0
   10.2605    2.0331    0.0000 C   0  0  2  0  0  0  0  0  0  0  0  0
   10.1866   -0.0805    0.0000 C   0  0  0  0  0  0  0  0  0  0  0  0
    9.3167    2.5683    0.0000 C   0  0  0  0  0  0  0  0  0  0  0  0
   11.1246    0.4447    0.0000 C   0  0  0  0  0  0  0  0  0  0  0  0
    2.0000   -1.0671    0.0000 C   0  0  0  0  0  0  0  0  0  0  0  0
    2.5100   -0.2069    0.0000 C   0  0  0  0  0  0  0  0  0  0  0  0
    7.5102   -1.4580    0.0000 H   0  0  0  0  0  0  0  0  0  0  0  0
    4.8910   -0.2650    0.0000 H   0  0  0  0  0  0  0  0  0  0  0  0
    9.1401    1.3630    0.0000 H   0  0  0  0  0  0  0  0  0  0  0  0
    5.5726    0.9746    0.0000 H   0  0  0  0  0  0  0  0  0  0  0  0
    5.1741    0.2844    0.0000 H   0  0  0  0  0  0  0  0  0  0  0  0
    7.0492    1.3670    0.0000 H   0  0  0  0  0  0  0  0  0  0  0  0
    6.2522    1.3670    0.0000 H   0  0  0  0  0  0  0  0  0  0  0  0
    6.8848   -2.7299    0.0000 H   0  0  0  0  0  0  0  0  0  0  0  0
    7.2759   -2.0340    0.0000 H   0  0  0  0  0  0  0  0  0  0  0  0
    8.0060   -1.6124    0.0000 H   0  0  0  0  0  0  0  0  0  0  0  0
    8.8043   -1.6217    0.0000 H   0  0  0  0  0  0  0  0  0  0  0  0
    5.3714   -3.1532    0.0000 H   0  0  0  0  0  0  0  0  0  0  0  0
    6.1697   -3.1501    0.0000 H   0  0  0  0  0  0  0  0  0  0  0  0
    9.5258   -1.2125    0.0000 H   0  0  0  0  0  0  0  0  0  0  0  0
    9.9276   -0.5227    0.0000 H   0  0  0  0  0  0  0  0  0  0  0  0
    4.3560   -0.0841    0.0000 H   0  0  0  0  0  0  0  0  0  0  0  0
    3.5579   -0.0687    0.0000 H   0  0  0  0  0  0  0  0  0  0  0  0
    7.2067   -2.1449    0.0000 H   0  0  0  0  0  0  0  0  0  0  0  0
    8.0536   -1.9180    0.0000 H   0  0  0  0  0  0  0  0  0  0  0  0
    7.8267   -1.0710    0.0000 H   0  0  0  0  0  0  0  0  0  0  0  0
    5.2286    0.4290    0.0000 H   0  0  0  0  0  0  0  0  0  0  0  0
    4.3817    0.2020    0.0000 H   0  0  0  0  0  0  0  0  0  0  0  0
    4.6086   -0.6449    0.0000 H   0  0  0  0  0  0  0  0  0  0  0  0
   10.7980    1.2570    0.0000 H   0  0  0  0  0  0  0  0  0  0  0  0
    8.1631    2.5901    0.0000 H   0  0  0  0  0  0  0  0  0  0  0  0
    7.7773    1.8912    0.0000 H   0  0  0  0  0  0  0  0  0  0  0  0
    3.5339   -3.1821    0.0000 H   0  0  0  0  0  0  0  0  0  0  0  0
    4.3322   -3.1790    0.0000 H   0  0  0  0  0  0  0  0  0  0  0  0
    8.1367    1.3920    0.0000 H   0  0  0  0  0  0  0  0  0  0  0  0
    7.5167    2.0120    0.0000 H   0  0  0  0  0  0  0  0  0  0  0  0
    6.8967    1.3920    0.0000 H   0  0  0  0  0  0  0  0  0  0  0  0
    2.3816   -2.0529    0.0000 H   0  0  0  0  0  0  0  0  0  0  0  0
    2.7780   -2.7457    0.0000 H   0  0  0  0  0  0  0  0  0  0  0  0
    4.2389   -3.1516    0.0000 H   0  0  0  0  0  0  0  0  0  0  0  0
    4.8541   -3.7764    0.0000 H   0  0  0  0  0  0  0  0  0  0  0  0
    5.4789   -3.1612    0.0000 H   0  0  0  0  0  0  0  0  0  0  0  0
   10.7980    1.7241    0.0000 H   0  0  0  0  0  0  0  0  0  0  0  0
    9.8807   -0.6198    0.0000 H   0  0  0  0  0  0  0  0  0  0  0  0
   10.7259   -0.3863    0.0000 H   0  0  0  0  0  0  0  0  0  0  0  0
   10.4924    0.4588    0.0000 H   0  0  0  0  0  0  0  0  0  0  0  0
    9.7103    3.0473    0.0000 H   0  0  0  0  0  0  0  0  0  0  0  0
    8.9121    3.0381    0.0000 H   0  0  0  0  0  0  0  0  0  0  0  0
   10.8125   -0.0910    0.0000 H   0  0  0  0  0  0  0  0  0  0  0  0
   11.6603    0.1327    0.0000 H   0  0  0  0  0  0  0  0  0  0  0  0
   11.4367    0.9805    0.0000 H   0  0  0  0  0  0  0  0  0  0  0  0
    3.0505    0.0968    0.0000 H   0  0  0  0  0  0  0  0  0  0  0  0
    2.2062    0.3335    0.0000 H   0  0  0  0  0  0  0  0  0  0  0  0
    1.9695   -0.5107    0.0000 H   0  0  0  0  0  0  0  0  0  0  0  0
    2.0072   -0.4472    0.0000 H   0  0  0  0  0  0  0  0  0  0  0  0
    1.3800   -1.0600    0.0000 H   0  0  0  0  0  0  0  0  0  0  0  0
    1.9928   -1.6871    0.0000 H   0  0  0  0  0  0  0  0  0  0  0  0
   11.1222    3.1564    0.0000 H   0  0  0  0  0  0  0  0  0  0  0  0
 26  1  1  6  0  0  0
  1 83  1  0  0  0  0
  2  3  1  0  0  0  0
  2  4  1  0  0  0  0
  2 12  1  0  0  0  0
  2 17  1  6  0  0  0
  3  6  1  0  0  0  0
  3  9  1  0  0  0  0
  3 18  1  1  0  0  0
  4  5  1  0  0  0  0
  4 13  1  0  0  0  0
  4 32  1  1  0  0  0
  5  7  1  0  0  0  0
  5 11  1  0  0  0  0
  5 22  1  6  0  0  0
  6  8  1  0  0  0  0
  6 16  1  0  0  0  0
  6 33  1  6  0  0  0
  7 10  1  0  0  0  0
  7 20  1  0  0  0  0
  7 34  1  1  0  0  0
  8 14  1  0  0  0  0
  8 21  1  0  0  0  0
  8 25  1  6  0  0  0
  9 11  1  0  0  0  0
  9 35  1  0  0  0  0
  9 36  1  0  0  0  0
 10 15  1  0  0  0  0
 10 19  1  0  0  0  0
 10 27  1  6  0  0  0
 11 37  1  0  0  0  0
 11 38  1  0  0  0  0
 12 14  1  0  0  0  0
 12 39  1  0  0  0  0
 12 40  1  0  0  0  0
 13 15  1  0  0  0  0
 13 41  1  0  0  0  0
 13 42  1  0  0  0  0
 14 43  1  0  0  0  0
 14 44  1  0  0  0  0
 15 45  1  0  0  0  0
 15 46  1  0  0  0  0
 16 23  1  0  0  0  0
 16 47  1  0  0  0  0
 16 48  1  0  0  0  0
 17 49  1  0  0  0  0
 17 50  1  0  0  0  0
 17 51  1  0  0  0  0
 18 52  1  0  0  0  0
 18 53  1  0  0  0  0
 18 54  1  0  0  0  0
 19 26  1  0  0  0  0
 19 29  1  6  0  0  0
 19 55  1  0  0  0  0
 20 28  1  0  0  0  0
 20 56  1  0  0  0  0
 20 57  1  0  0  0  0
 21 24  1  0  0  0  0
 21 58  1  0  0  0  0
 21 59  1  0  0  0  0
 22 60  1  0  0  0  0
 22 61  1  0  0  0  0
 22 62  1  0  0  0  0
 23 24  1  0  0  0  0
 23 30  1  0  0  0  0
 23 31  1  0  0  0  0
 24 63  1  0  0  0  0
 24 64  1  0  0  0  0
 25 65  1  0  0  0  0
 25 66  1  0  0  0  0
 25 67  1  0  0  0  0
 26 28  1  0  0  0  0
 26 68  1  0  0  0  0
 27 69  1  0  0  0  0
 27 70  1  0  0  0  0
 27 71  1  0  0  0  0
 28 72  1  0  0  0  0
 28 73  1  0  0  0  0
 29 74  1  0  0  0  0
 29 75  1  0  0  0  0
 29 76  1  0  0  0  0
 30 80  1  0  0  0  0
 30 81  1  0  0  0  0
 30 82  1  0  0  0  0
 31 77  1  0  0  0  0
 31 78  1  0  0  0  0
 31 79  1  0  0  0  0
M  END
> <PUBCHEM_COMPOUND_CID>
119242

> <PUBCHEM_COMPOUND_CANONICALIZED>
1

> <PUBCHEM_CACTVS_COMPLEXITY>
741

> <PUBCHEM_CACTVS_HBOND_ACCEPTOR>
1

> <PUBCHEM_CACTVS_HBOND_DONOR>
1

> <PUBCHEM_CACTVS_ROTATABLE_BOND>
0

> <PUBCHEM_CACTVS_SUBSKEYS>
AAADcfB4IAAAAAAAAAAAAAAAAAAAAAAAAAAwYMGDAAAAAADAAAAAGgAACAAADxSggAICAAAAAgAAAAAAAAAAAAAAAAAAAAAAAAAAEAIAAAAAQAAEAAAAAAGAwPAPgAAAAAAAAADAAAYAADAAAAAAAAAAAA==

> <PUBCHEM_IUPAC_OPENEYE_NAME>
(3S,4R,4aS,6aS,6aS,6bR,8aR,12aR,14aS,14bS)-4,4a,6a,6b,8a,11,11,14a-octamethyl-1,2,3,4,5,6,6a,7,8,9,10,12,12a,13,14,14b-hexadecahydropicen-3-ol

> <PUBCHEM_IUPAC_CAS_NAME>
(3S,4R,4aS,6aS,6aS,6bR,8aR,12aR,14aS,14bS)-4,4a,6a,6b,8a,11,11,14a-octamethyl-1,2,3,4,5,6,6a,7,8,9,10,12,12a,13,14,14b-hexadecahydropicen-3-ol

> <PUBCHEM_IUPAC_NAME>
(3S,4R,4aS,6aS,6aS,6bR,8aR,12aR,14aS,14bS)-4,4a,6a,6b,8a,11,11,14a-octamethyl-1,2,3,4,5,6,6a,7,8,9,10,12,12a,13,14,14b-hexadecahydropicen-3-ol

> <PUBCHEM_IUPAC_SYSTEMATIC_NAME>
(3S,4R,4aS,6aS,6aS,6bR,8aR,12aR,14aS,14bS)-4,4a,6a,6b,8a,11,11,14a-octamethyl-1,2,3,4,5,6,6a,7,8,9,10,12,12a,13,14,14b-hexadecahydropicen-3-ol

> <PUBCHEM_IUPAC_TRADITIONAL_NAME>
(3S,4R,4aS,6aS,6aS,6bR,8aR,12aR,14aS,14bS)-4,4a,6a,6b,8a,11,11,14a-octamethyl-1,2,3,4,5,6,6a,7,8,9,10,12,12a,13,14,14b-hexadecahydropicen-3-ol

> <PUBCHEM_IUPAC_INCHI>
InChI=1S/C30H52O/c1-20-21(31)9-10-22-27(20,5)12-11-23-28(22,6)16-18-30(8)24-19-25(2,3)13-14-26(24,4)15-17-29(23,30)7/h20-24,31H,9-19H2,1-8H3/t20-,21-,22+,23-,24+,26+,27+,28-,29+,30-/m0/s1

> <PUBCHEM_IUPAC_INCHIKEY>
XCDQFROEGGNAER-PFOIMGGJSA-N

> <PUBCHEM_XLOGP3_AA>
10.1

> <PUBCHEM_EXACT_MASS>
428.401816

> <PUBCHEM_MOLECULAR_FORMULA>
C30H52O

> <PUBCHEM_MOLECULAR_WEIGHT>
428.73328

> <PUBCHEM_OPENEYE_CAN_SMILES>
CC1C(CCC2C1(CCC3C2(CCC4(C3(CCC5(C4CC(CC5)(C)C)C)C)C)C)C)O

> <PUBCHEM_OPENEYE_ISO_SMILES>
C[C@H]1[C@H](CC[C@@H]2[C@@]1(CC[C@H]3[C@]2(CC[C@@]4([C@@]3(CC[C@@]5([C@H]4CC(CC5)(C)C)C)C)C)C)C)O

> <PUBCHEM_CACTVS_TPSA>
20.2

> <PUBCHEM_MONOISOTOPIC_WEIGHT>
428.401816

> <PUBCHEM_TOTAL_CHARGE>
0

> <PUBCHEM_HEAVY_ATOM_COUNT>
31

> <PUBCHEM_ATOM_DEF_STEREO_COUNT>
10

> <PUBCHEM_ATOM_UDEF_STEREO_COUNT>
0

> <PUBCHEM_BOND_DEF_STEREO_COUNT>
0

> <PUBCHEM_BOND_UDEF_STEREO_COUNT>
0

> <PUBCHEM_ISOTOPIC_ATOM_COUNT>
0

> <PUBCHEM_COMPONENT_COUNT>
1

> <PUBCHEM_CACTVS_TAUTO_COUNT>
1

> <PUBCHEM_COORDINATE_TYPE>
1
5
255

> <PUBCHEM_BONDANNOTATIONS>
26  1  6
10  27  6
19  29  6
2  17  6
3  18  5
4  32  5
5  22  6
6  33  6
7  34  5
8  25  6

$$$$

