250208
  -OEChem-07051213063D

 66 69  0     1  0  0  0  0  0999 V2000
    7.2482    0.6443    0.7389 O   0  0  0  0  0  0  0  0  0  0  0  0
   -5.0989    3.4941    0.0001 O   0  0  0  0  0  0  0  0  0  0  0  0
   -6.4132   -1.2801    1.8952 O   0  0  0  0  0  0  0  0  0  0  0  0
   -3.9108    0.0347   -0.4738 N   0  0  0  0  0  0  0  0  0  0  0  0
   -1.3736   -0.1114   -0.4784 C   0  0  1  0  0  0  0  0  0  0  0  0
   -0.4675   -1.2810   -0.0464 C   0  0  2  0  0  0  0  0  0  0  0  0
    1.0013   -1.0806   -0.4322 C   0  0  1  0  0  0  0  0  0  0  0  0
    1.5301    0.2386    0.2032 C   0  0  1  0  0  0  0  0  0  0  0  0
   -2.7327   -0.6742   -0.0017 C   0  0  2  0  0  0  0  0  0  0  0  0
    3.0361    0.5100   -0.1966 C   0  0  2  0  0  0  0  0  0  0  0  0
   -0.8978    1.1481    0.2573 C   0  0  0  0  0  0  0  0  0  0  0  0
    0.5823    1.4461   -0.0393 C   0  0  0  0  0  0  0  0  0  0  0  0
   -1.2018   -2.5212   -0.5548 C   0  0  0  0  0  0  0  0  0  0  0  0
   -2.6950   -2.1504   -0.4516 C   0  0  0  0  0  0  0  0  0  0  0  0
    1.8525   -2.2711    0.0340 C   0  0  0  0  0  0  0  0  0  0  0  0
   -1.3844    0.1434   -2.0085 C   0  0  0  0  0  0  0  0  0  0  0  0
    3.8711   -0.7732   -0.0836 C   0  0  0  0  0  0  0  0  0  0  0  0
    3.6137    1.5813    0.7761 C   0  0  0  0  0  0  0  0  0  0  0  0
    3.3216   -1.9947    0.0318 C   0  0  0  0  0  0  0  0  0  0  0  0
    3.1478    1.0258   -1.6516 C   0  0  0  0  0  0  0  0  0  0  0  0
    5.3748   -0.6218   -0.0985 C   0  0  0  0  0  0  0  0  0  0  0  0
    5.1295    1.7552    0.6932 C   0  0  0  0  0  0  0  0  0  0  0  0
    5.8502    0.4281    0.9020 C   0  0  2  0  0  0  0  0  0  0  0  0
   -3.8949    1.4272   -0.0190 C   0  0  0  0  0  0  0  0  0  0  0  0
   -5.1337   -0.6314   -0.0189 C   0  0  0  0  0  0  0  0  0  0  0  0
   -5.1485    2.1557   -0.4766 C   0  0  0  0  0  0  0  0  0  0  0  0
   -5.2063   -0.6416    1.4997 C   0  0  0  0  0  0  0  0  0  0  0  0
   -0.4924   -1.3460    1.0547 H   0  0  0  0  0  0  0  0  0  0  0  0
    1.0841   -1.0205   -1.5233 H   0  0  0  0  0  0  0  0  0  0  0  0
    1.5143    0.0727    1.2929 H   0  0  0  0  0  0  0  0  0  0  0  0
   -2.6893   -0.6607    1.0957 H   0  0  0  0  0  0  0  0  0  0  0  0
   -1.0195    1.0232    1.3409 H   0  0  0  0  0  0  0  0  0  0  0  0
   -1.4126    2.0665   -0.0108 H   0  0  0  0  0  0  0  0  0  0  0  0
    0.6622    1.7950   -1.0730 H   0  0  0  0  0  0  0  0  0  0  0  0
    0.8913    2.2872    0.5921 H   0  0  0  0  0  0  0  0  0  0  0  0
   -0.9696   -3.4055    0.0476 H   0  0  0  0  0  0  0  0  0  0  0  0
   -0.9360   -2.7482   -1.5932 H   0  0  0  0  0  0  0  0  0  0  0  0
   -3.1664   -2.3029   -1.4301 H   0  0  0  0  0  0  0  0  0  0  0  0
   -3.2063   -2.8007    0.2668 H   0  0  0  0  0  0  0  0  0  0  0  0
    1.6550   -3.1295   -0.6195 H   0  0  0  0  0  0  0  0  0  0  0  0
    1.5693   -2.5749    1.0495 H   0  0  0  0  0  0  0  0  0  0  0  0
   -1.7703   -0.7111   -2.5732 H   0  0  0  0  0  0  0  0  0  0  0  0
   -2.0079    1.0051   -2.2677 H   0  0  0  0  0  0  0  0  0  0  0  0
   -0.3874    0.3526   -2.4056 H   0  0  0  0  0  0  0  0  0  0  0  0
    3.3628    1.3107    1.8109 H   0  0  0  0  0  0  0  0  0  0  0  0
    3.1472    2.5562    0.5909 H   0  0  0  0  0  0  0  0  0  0  0  0
    3.9658   -2.8652    0.1295 H   0  0  0  0  0  0  0  0  0  0  0  0
    4.1879    1.1222   -1.9808 H   0  0  0  0  0  0  0  0  0  0  0  0
    2.6544    0.3530   -2.3604 H   0  0  0  0  0  0  0  0  0  0  0  0
    2.7017    2.0191   -1.7643 H   0  0  0  0  0  0  0  0  0  0  0  0
    5.8803   -1.5710    0.1217 H   0  0  0  0  0  0  0  0  0  0  0  0
    5.7060   -0.3560   -1.1103 H   0  0  0  0  0  0  0  0  0  0  0  0
    5.4130    2.1972   -0.2699 H   0  0  0  0  0  0  0  0  0  0  0  0
    5.4618    2.4755    1.4511 H   0  0  0  0  0  0  0  0  0  0  0  0
    5.6880    0.0724    1.9262 H   0  0  0  0  0  0  0  0  0  0  0  0
   -3.1320    1.9754   -0.5630 H   0  0  0  0  0  0  0  0  0  0  0  0
   -3.7070    1.5682    1.0513 H   0  0  0  0  0  0  0  0  0  0  0  0
   -5.1788   -1.6647   -0.3858 H   0  0  0  0  0  0  0  0  0  0  0  0
   -6.0403   -0.2092   -0.4650 H   0  0  0  0  0  0  0  0  0  0  0  0
   -6.0688    1.7445   -0.0579 H   0  0  0  0  0  0  0  0  0  0  0  0
   -5.2281    2.1751   -1.5691 H   0  0  0  0  0  0  0  0  0  0  0  0
   -5.2228    0.3540    1.9494 H   0  0  0  0  0  0  0  0  0  0  0  0
   -4.4097   -1.2211    1.9700 H   0  0  0  0  0  0  0  0  0  0  0  0
    7.4019    0.9521   -0.1707 H   0  0  0  0  0  0  0  0  0  0  0  0
   -5.8994    3.9430   -0.3214 H   0  0  0  0  0  0  0  0  0  0  0  0
   -7.1523   -0.7608    1.5350 H   0  0  0  0  0  0  0  0  0  0  0  0
  1 23  1  0  0  0  0
  1 64  1  0  0  0  0
  2 26  1  0  0  0  0
  2 65  1  0  0  0  0
  3 27  1  0  0  0  0
  3 66  1  0  0  0  0
  4  9  1  0  0  0  0
  4 24  1  0  0  0  0
  4 25  1  0  0  0  0
  5  6  1  0  0  0  0
  5  9  1  0  0  0  0
  5 11  1  0  0  0  0
  5 16  1  0  0  0  0
  6  7  1  0  0  0  0
  6 13  1  0  0  0  0
  6 28  1  0  0  0  0
  7  8  1  0  0  0  0
  7 15  1  0  0  0  0
  7 29  1  0  0  0  0
  8 10  1  0  0  0  0
  8 12  1  0  0  0  0
  8 30  1  0  0  0  0
  9 14  1  0  0  0  0
  9 31  1  0  0  0  0
 10 17  1  0  0  0  0
 10 18  1  0  0  0  0
 10 20  1  0  0  0  0
 11 12  1  0  0  0  0
 11 32  1  0  0  0  0
 11 33  1  0  0  0  0
 12 34  1  0  0  0  0
 12 35  1  0  0  0  0
 13 14  1  0  0  0  0
 13 36  1  0  0  0  0
 13 37  1  0  0  0  0
 14 38  1  0  0  0  0
 14 39  1  0  0  0  0
 15 19  1  0  0  0  0
 15 40  1  0  0  0  0
 15 41  1  0  0  0  0
 16 42  1  0  0  0  0
 16 43  1  0  0  0  0
 16 44  1  0  0  0  0
 17 19  2  0  0  0  0
 17 21  1  0  0  0  0
 18 22  1  0  0  0  0
 18 45  1  0  0  0  0
 18 46  1  0  0  0  0
 19 47  1  0  0  0  0
 20 48  1  0  0  0  0
 20 49  1  0  0  0  0
 20 50  1  0  0  0  0
 21 23  1  0  0  0  0
 21 51  1  0  0  0  0
 21 52  1  0  0  0  0
 22 23  1  0  0  0  0
 22 53  1  0  0  0  0
 22 54  1  0  0  0  0
 23 55  1  0  0  0  0
 24 26  1  0  0  0  0
 24 56  1  0  0  0  0
 24 57  1  0  0  0  0
 25 27  1  0  0  0  0
 25 58  1  0  0  0  0
 25 59  1  0  0  0  0
 26 60  1  0  0  0  0
 26 61  1  0  0  0  0
 27 62  1  0  0  0  0
 27 63  1  0  0  0  0
M  END
> <PUBCHEM_COMPOUND_CID>
250208

> <PUBCHEM_CONFORMER_RMSD>
0.8

> <PUBCHEM_CONFORMER_DIVERSEORDER>
1
2

> <PUBCHEM_MMFF94_PARTIAL_CHARGES>
19
1 -0.68
10 0.14
15 0.14
17 -0.28
19 -0.29
2 -0.68
21 0.14
23 0.28
24 0.27
25 0.27
26 0.28
27 0.28
3 -0.68
4 -0.81
47 0.15
64 0.4
65 0.4
66 0.4
9 0.27

> <PUBCHEM_EFFECTIVE_ROTOR_COUNT>
7

> <PUBCHEM_PHARMACOPHORE_FEATURES>
11
1 1 acceptor
1 1 donor
1 2 acceptor
1 2 donor
1 3 acceptor
1 3 donor
1 4 cation
5 5 6 9 13 14 rings
6 10 17 18 21 22 23 rings
6 5 6 7 8 11 12 rings
6 7 8 10 15 17 19 rings

> <PUBCHEM_HEAVY_ATOM_COUNT>
27

> <PUBCHEM_ATOM_DEF_STEREO_COUNT>
7

> <PUBCHEM_ATOM_UDEF_STEREO_COUNT>
0

> <PUBCHEM_BOND_DEF_STEREO_COUNT>
0

> <PUBCHEM_BOND_UDEF_STEREO_COUNT>
0

> <PUBCHEM_ISOTOPIC_ATOM_COUNT>
0

> <PUBCHEM_COMPONENT_COUNT>
1

> <PUBCHEM_CACTVS_TAUTO_COUNT>
1

> <PUBCHEM_CONFORMER_ID>
0003D16000000001

> <PUBCHEM_MMFF94_ENERGY>
87.6513

> <PUBCHEM_FEATURE_SELFOVERLAP>
55.913

> <PUBCHEM_SHAPE_FINGERPRINT>
10 15 18342740672323205664
10366900 7 5400798384622224086
10411042 1 17183344461173372671
11089746 13 16950570943628680440
11646440 116 18187919556380653096
12236239 1 18060422417628667368
12403259 118 18131626794748660549
12403259 415 18335415790056598269
12403814 3 17775012275479443343
12422481 6 18272939357580995540
12507560 40 18412541033556230307
12596602 18 17676479515345112675
12788726 201 17240764042298673008
12892183 10 18343578564829801455
13073987 5 18342458179260047067
13140716 1 18049721823863185489
13583140 156 18261117374442314285
13782708 43 13973974207475222496
14251764 18 17822570517378822275
14790565 3 18409167722791398396
15081414 286 18187075166010673560
15196674 1 18409451422513494287
15238133 3 18342451556679076116
17844677 252 18411132528853983845
1813 80 16988841683068293654
18222031 100 11240006615927796990
20715895 44 18264775530678539188
21033648 29 18261406545726282321
21267235 1 18410566306425542470
21279426 13 18262235650454873412
21304253 335 18340484564383133020
21421861 104 17915193510273577738
23402539 116 18114191783258911668
23559900 14 18187931737509602638
2838139 119 18187938248357867124
335352 9 18336550525165005710
34934 24 18335991938497462622
350125 39 18339644550822146612
3545911 37 18408604747526894838
3680242 22 18339931510588236714
4073 2 18202278130203921371
4093350 32 16805314514529534262
4340502 62 18409725140900860450
460360 51 18119509167219056831
465052 167 17203610359385840266
5104073 3 18271525411508269075
7226269 152 17967253108804090681
7495541 125 13973962091377495124

> <PUBCHEM_SHAPE_MULTIPOLES>
533.06
14.8
2.63
1.19
1.55
0.45
-0.09
4.74
5.44
-2.07
-0.06
-0.7
0.01
1.05

> <PUBCHEM_SHAPE_SELFOVERLAP>
1117.26

> <PUBCHEM_SHAPE_VOLUME>
300.2

> <PUBCHEM_COORDINATE_TYPE>
2
5
10

$$$$

