92114
  -OEChem-07051213002D

 56 60  0     1  0  0  0  0  0999 V2000
    9.0462   -1.2127    0.0000 O   0  0  0  0  0  0  0  0  0  0  0  0
    2.8641    2.3566    0.0000 O   0  0  0  0  0  0  0  0  0  0  0  0
    9.0462    0.8356    0.0000 O   0  0  0  0  0  0  0  0  0  0  0  0
    4.6380    3.3807    0.0000 O   0  0  0  0  0  0  0  0  0  0  0  0
    3.7320   -2.2370    0.0000 N   0  0  3  0  0  0  0  0  0  0  0  0
    4.6341   -2.7578    0.0000 C   0  0  1  0  0  0  0  0  0  0  0  0
    4.4162   -3.7700    0.0000 C   0  0  0  0  0  0  0  0  0  0  0  0
    5.5322   -2.2300    0.0000 C   0  0  0  0  0  0  0  0  0  0  0  0
    2.9643   -2.9318    0.0000 C   0  0  0  0  0  0  0  0  0  0  0  0
    3.3863   -3.8774    0.0000 C   0  0  0  0  0  0  0  0  0  0  0  0
    3.7401   -1.1954    0.0000 C   0  0  0  0  0  0  0  0  0  0  0  0
    5.5161   -1.1885    0.0000 C   0  0  0  0  0  0  0  0  0  0  0  0
    4.6501   -0.6885    0.0000 C   0  0  0  0  0  0  0  0  0  0  0  0
    6.3821   -0.6885    0.0000 C   0  0  0  0  0  0  0  0  0  0  0  0
    4.6501    0.3115    0.0000 C   0  0  0  0  0  0  0  0  0  0  0  0
    6.3821    0.3115    0.0000 C   0  0  0  0  0  0  0  0  0  0  0  0
    5.5161    0.8115    0.0000 C   0  0  0  0  0  0  0  0  0  0  0  0
    7.2761   -1.2232    0.0000 C   0  0  0  0  0  0  0  0  0  0  0  0
    3.7401    0.8183    0.0000 C   0  0  0  0  0  0  0  0  0  0  0  0
    7.2761    0.8461    0.0000 C   0  0  0  0  0  0  0  0  0  0  0  0
    5.5322    1.8530    0.0000 C   0  0  0  0  0  0  0  0  0  0  0  0
    8.1821   -0.7093    0.0000 C   0  0  0  0  0  0  0  0  0  0  0  0
    3.7320    1.8599    0.0000 C   0  0  0  0  0  0  0  0  0  0  0  0
    8.1821    0.3323    0.0000 C   0  0  0  0  0  0  0  0  0  0  0  0
    4.6341    2.3807    0.0000 C   0  0  0  0  0  0  0  0  0  0  0  0
    9.0424   -2.2127    0.0000 C   0  0  0  0  0  0  0  0  0  0  0  0
    2.0000    1.8532    0.0000 C   0  0  0  0  0  0  0  0  0  0  0  0
    9.0424    1.8356    0.0000 C   0  0  0  0  0  0  0  0  0  0  0  0
    5.5059    3.8774    0.0000 C   0  0  0  0  0  0  0  0  0  0  0  0
    5.3231   -3.2556    0.0000 H   0  0  0  0  0  0  0  0  0  0  0  0
    4.4153   -4.3900    0.0000 H   0  0  0  0  0  0  0  0  0  0  0  0
    5.0327   -3.8361    0.0000 H   0  0  0  0  0  0  0  0  0  0  0  0
    5.7502   -2.8104    0.0000 H   0  0  0  0  0  0  0  0  0  0  0  0
    6.1413   -2.1145    0.0000 H   0  0  0  0  0  0  0  0  0  0  0  0
    2.5989   -2.4310    0.0000 H   0  0  0  0  0  0  0  0  0  0  0  0
    2.4278   -3.2426    0.0000 H   0  0  0  0  0  0  0  0  0  0  0  0
    2.7967   -4.0692    0.0000 H   0  0  0  0  0  0  0  0  0  0  0  0
    3.5150   -4.4839    0.0000 H   0  0  0  0  0  0  0  0  0  0  0  0
    3.5355   -0.6101    0.0000 H   0  0  0  0  0  0  0  0  0  0  0  0
    3.1284   -1.2967    0.0000 H   0  0  0  0  0  0  0  0  0  0  0  0
    7.2689   -1.8431    0.0000 H   0  0  0  0  0  0  0  0  0  0  0  0
    3.2068    0.5021    0.0000 H   0  0  0  0  0  0  0  0  0  0  0  0
    7.2689    1.4661    0.0000 H   0  0  0  0  0  0  0  0  0  0  0  0
    6.0726    2.1568    0.0000 H   0  0  0  0  0  0  0  0  0  0  0  0
    8.4224   -2.2103    0.0000 H   0  0  0  0  0  0  0  0  0  0  0  0
    9.0400   -2.8326    0.0000 H   0  0  0  0  0  0  0  0  0  0  0  0
    9.6624   -2.2151    0.0000 H   0  0  0  0  0  0  0  0  0  0  0  0
    1.6879    2.3890    0.0000 H   0  0  0  0  0  0  0  0  0  0  0  0
    1.4643    1.5412    0.0000 H   0  0  0  0  0  0  0  0  0  0  0  0
    2.3121    1.3175    0.0000 H   0  0  0  0  0  0  0  0  0  0  0  0
    9.6624    1.8380    0.0000 H   0  0  0  0  0  0  0  0  0  0  0  0
    9.0400    2.4556    0.0000 H   0  0  0  0  0  0  0  0  0  0  0  0
    8.4224    1.8332    0.0000 H   0  0  0  0  0  0  0  0  0  0  0  0
    5.8139    3.3393    0.0000 H   0  0  0  0  0  0  0  0  0  0  0  0
    6.0440    4.1853    0.0000 H   0  0  0  0  0  0  0  0  0  0  0  0
    5.1980    4.4155    0.0000 H   0  0  0  0  0  0  0  0  0  0  0  0
  1 22  1  0  0  0  0
  1 26  1  0  0  0  0
  2 23  1  0  0  0  0
  2 27  1  0  0  0  0
  3 24  1  0  0  0  0
  3 28  1  0  0  0  0
  4 25  1  0  0  0  0
  4 29  1  0  0  0  0
  5  6  1  0  0  0  0
  5  9  1  0  0  0  0
  5 11  1  0  0  0  0
  6  7  1  0  0  0  0
  6  8  1  0  0  0  0
  6 30  1  1  0  0  0
  7 10  1  0  0  0  0
  7 31  1  0  0  0  0
  7 32  1  0  0  0  0
  8 12  1  0  0  0  0
  8 33  1  0  0  0  0
  8 34  1  0  0  0  0
  9 10  1  0  0  0  0
  9 35  1  0  0  0  0
  9 36  1  0  0  0  0
 10 37  1  0  0  0  0
 10 38  1  0  0  0  0
 11 13  1  0  0  0  0
 11 39  1  0  0  0  0
 11 40  1  0  0  0  0
 12 13  2  0  0  0  0
 12 14  1  0  0  0  0
 13 15  1  0  0  0  0
 14 16  1  0  0  0  0
 14 18  2  0  0  0  0
 15 17  1  0  0  0  0
 15 19  2  0  0  0  0
 16 17  1  0  0  0  0
 16 20  2  0  0  0  0
 17 21  2  0  0  0  0
 18 22  1  0  0  0  0
 18 41  1  0  0  0  0
 19 23  1  0  0  0  0
 19 42  1  0  0  0  0
 20 24  1  0  0  0  0
 20 43  1  0  0  0  0
 21 25  1  0  0  0  0
 21 44  1  0  0  0  0
 22 24  2  0  0  0  0
 23 25  2  0  0  0  0
 26 45  1  0  0  0  0
 26 46  1  0  0  0  0
 26 47  1  0  0  0  0
 27 48  1  0  0  0  0
 27 49  1  0  0  0  0
 27 50  1  0  0  0  0
 28 51  1  0  0  0  0
 28 52  1  0  0  0  0
 28 53  1  0  0  0  0
 29 54  1  0  0  0  0
 29 55  1  0  0  0  0
 29 56  1  0  0  0  0
M  END
> <PUBCHEM_COMPOUND_CID>
92114

> <PUBCHEM_COMPOUND_CANONICALIZED>
1

> <PUBCHEM_CACTVS_COMPLEXITY>
573

> <PUBCHEM_CACTVS_HBOND_ACCEPTOR>
5

> <PUBCHEM_CACTVS_HBOND_DONOR>
0

> <PUBCHEM_CACTVS_ROTATABLE_BOND>
4

> <PUBCHEM_CACTVS_SUBSKEYS>
AAADceB6OAAAAAAAAAAAAAAAAAAAAWAAAAA8YMEAAAAAAFjxVAAAHgAAAAAADCzBmAYyBsMABACAAiBCAACCCAAgIAAAiAAOjIgNJiKEsBuEMCpkwBGKqAeQ0PIO4AADAAAQQADAAAYAACCAAAAAAAAAAA==

> <PUBCHEM_IUPAC_OPENEYE_NAME>
(13aS)-2,3,6,7-tetramethoxy-9,11,12,13,13a,14-hexahydrophenanthro[9,10-f]indolizine

> <PUBCHEM_IUPAC_CAS_NAME>
(13aS)-2,3,6,7-tetramethoxy-9,11,12,13,13a,14-hexahydrophenanthro[9,10-f]indolizine

> <PUBCHEM_IUPAC_NAME>
(13aS)-2,3,6,7-tetramethoxy-9,11,12,13,13a,14-hexahydrophenanthro[9,10-f]indolizine

> <PUBCHEM_IUPAC_SYSTEMATIC_NAME>
(13aS)-2,3,6,7-tetramethoxy-9,11,12,13,13a,14-hexahydrophenanthro[9,10-f]indolizine

> <PUBCHEM_IUPAC_TRADITIONAL_NAME>
(13aS)-2,3,6,7-tetramethoxy-9,11,12,13,13a,14-hexahydrophenanthr[9,10-f]indolizine

> <PUBCHEM_IUPAC_INCHI>
InChI=1S/C24H27NO4/c1-26-21-9-16-15-8-14-6-5-7-25(14)13-20(15)19-12-24(29-4)23(28-3)11-18(19)17(16)10-22(21)27-2/h9-12,14H,5-8,13H2,1-4H3/t14-/m0/s1

> <PUBCHEM_IUPAC_INCHIKEY>
SSEUDFYBEOIWGF-AWEZNQCLSA-N

> <PUBCHEM_XLOGP3_AA>
4.7

> <PUBCHEM_EXACT_MASS>
393.194008

> <PUBCHEM_MOLECULAR_FORMULA>
C24H27NO4

> <PUBCHEM_MOLECULAR_WEIGHT>
393.47548

> <PUBCHEM_OPENEYE_CAN_SMILES>
COC1=C(C=C2C(=C1)C3=C(CN4CCCC4C3)C5=CC(=C(C=C52)OC)OC)OC

> <PUBCHEM_OPENEYE_ISO_SMILES>
COC1=C(C=C2C(=C1)C3=C(CN4CCC[C@H]4C3)C5=CC(=C(C=C52)OC)OC)OC

> <PUBCHEM_CACTVS_TPSA>
40.2

> <PUBCHEM_MONOISOTOPIC_WEIGHT>
393.194008

> <PUBCHEM_TOTAL_CHARGE>
0

> <PUBCHEM_HEAVY_ATOM_COUNT>
29

> <PUBCHEM_ATOM_DEF_STEREO_COUNT>
1

> <PUBCHEM_ATOM_UDEF_STEREO_COUNT>
0

> <PUBCHEM_BOND_DEF_STEREO_COUNT>
0

> <PUBCHEM_BOND_UDEF_STEREO_COUNT>
0

> <PUBCHEM_ISOTOPIC_ATOM_COUNT>
0

> <PUBCHEM_COMPONENT_COUNT>
1

> <PUBCHEM_CACTVS_TAUTO_COUNT>
1

> <PUBCHEM_COORDINATE_TYPE>
1
5
255

> <PUBCHEM_BONDANNOTATIONS>
12  13  8
12  14  8
13  15  8
14  16  8
14  18  8
15  17  8
15  19  8
16  17  8
16  20  8
17  21  8
18  22  8
19  23  8
20  24  8
21  25  8
22  24  8
23  25  8
6  30  5

$$$$

