5280890
  -OEChem-07051212513D

 60 60  0     1  0  0  0  0  0999 V2000
   -2.9228   -1.2085    1.1324 O   0  0  0  0  0  0  0  0  0  0  0  0
   -3.3820   -0.5057   -2.4064 O   0  0  0  0  0  0  0  0  0  0  0  0
   -4.5456   -2.3016   -0.2146 O   0  0  0  0  0  0  0  0  0  0  0  0
    1.3397   -3.8147    2.4616 O   0  0  0  0  0  0  0  0  0  0  0  0
    2.1189    2.9772    3.0403 O   0  0  0  0  0  0  0  0  0  0  0  0
    0.1057    2.1832    2.3584 O   0  0  0  0  0  0  0  0  0  0  0  0
   -1.8440    0.1440   -0.5915 C   0  0  1  0  0  0  0  0  0  0  0  0
   -3.2091    0.3526   -1.2808 C   0  0  2  0  0  0  0  0  0  0  0  0
   -1.8323   -1.1822    0.2033 C   0  0  1  0  0  0  0  0  0  0  0  0
   -4.3633    0.1466   -0.2990 C   0  0  0  0  0  0  0  0  0  0  0  0
   -0.7027    0.2399   -1.6096 C   0  0  0  0  0  0  0  0  0  0  0  0
   -4.2120   -1.1322    0.5256 C   0  0  2  0  0  0  0  0  0  0  0  0
   -0.5848   -1.3762    1.0096 C   0  0  0  0  0  0  0  0  0  0  0  0
   -0.6328    1.4996   -2.4206 C   0  0  0  0  0  0  0  0  0  0  0  0
    0.2337   -2.4302    0.8767 C   0  0  0  0  0  0  0  0  0  0  0  0
    1.4837   -2.6213    1.6890 C   0  0  2  0  0  0  0  0  0  0  0  0
    2.7400   -2.7831    0.8225 C   0  0  0  0  0  0  0  0  0  0  0  0
   -0.0057    2.6421   -2.1020 C   0  0  0  0  0  0  0  0  0  0  0  0
    2.9683   -1.6101   -0.1354 C   0  0  0  0  0  0  0  0  0  0  0  0
    0.7577    2.8435   -0.8254 C   0  0  0  0  0  0  0  0  0  0  0  0
    4.1768   -1.8047   -1.0570 C   0  0  0  0  0  0  0  0  0  0  0  0
    0.2118    3.9831    0.0462 C   0  0  0  0  0  0  0  0  0  0  0  0
    4.4496   -0.6054   -1.9657 C   0  0  0  0  0  0  0  0  0  0  0  0
    0.9989    4.2073    1.3409 C   0  0  0  0  0  0  0  0  0  0  0  0
    5.6506   -0.8542   -2.8658 C   0  0  0  0  0  0  0  0  0  0  0  0
    1.0018    3.0110    2.2675 C   0  0  0  0  0  0  0  0  0  0  0  0
   -1.7348    0.9640    0.1342 H   0  0  0  0  0  0  0  0  0  0  0  0
   -3.2710    1.3784   -1.6638 H   0  0  0  0  0  0  0  0  0  0  0  0
   -1.9553   -2.0246   -0.4905 H   0  0  0  0  0  0  0  0  0  0  0  0
   -4.3680    0.9994    0.3913 H   0  0  0  0  0  0  0  0  0  0  0  0
   -5.3194    0.1294   -0.8344 H   0  0  0  0  0  0  0  0  0  0  0  0
   -0.7686   -0.6004   -2.3143 H   0  0  0  0  0  0  0  0  0  0  0  0
    0.2588    0.0867   -1.1088 H   0  0  0  0  0  0  0  0  0  0  0  0
   -4.9363   -1.0746    1.3465 H   0  0  0  0  0  0  0  0  0  0  0  0
   -0.3473   -0.6098    1.7434 H   0  0  0  0  0  0  0  0  0  0  0  0
   -1.1627    1.4749   -3.3713 H   0  0  0  0  0  0  0  0  0  0  0  0
   -4.2402   -0.2929   -2.8108 H   0  0  0  0  0  0  0  0  0  0  0  0
   -0.0052   -3.2035    0.1503 H   0  0  0  0  0  0  0  0  0  0  0  0
    1.6346   -1.7908    2.3888 H   0  0  0  0  0  0  0  0  0  0  0  0
   -4.8796   -2.9588    0.4193 H   0  0  0  0  0  0  0  0  0  0  0  0
    2.6706   -3.7172    0.2485 H   0  0  0  0  0  0  0  0  0  0  0  0
    3.6133   -2.9074    1.4757 H   0  0  0  0  0  0  0  0  0  0  0  0
   -0.0447    3.4746   -2.7995 H   0  0  0  0  0  0  0  0  0  0  0  0
    3.0993   -0.6905    0.4482 H   0  0  0  0  0  0  0  0  0  0  0  0
    2.0879   -1.4627   -0.7701 H   0  0  0  0  0  0  0  0  0  0  0  0
    1.7958    3.0759   -1.0955 H   0  0  0  0  0  0  0  0  0  0  0  0
    0.8047    1.9282   -0.2306 H   0  0  0  0  0  0  0  0  0  0  0  0
    4.0160   -2.6987   -1.6725 H   0  0  0  0  0  0  0  0  0  0  0  0
    5.0652   -1.9993   -0.4434 H   0  0  0  0  0  0  0  0  0  0  0  0
   -0.8363    3.7717    0.2949 H   0  0  0  0  0  0  0  0  0  0  0  0
    0.2158    4.9165   -0.5305 H   0  0  0  0  0  0  0  0  0  0  0  0
    4.6318    0.2876   -1.3568 H   0  0  0  0  0  0  0  0  0  0  0  0
    3.5688   -0.4019   -2.5854 H   0  0  0  0  0  0  0  0  0  0  0  0
    0.5728   -3.6954    3.0481 H   0  0  0  0  0  0  0  0  0  0  0  0
    0.5765    5.0541    1.8925 H   0  0  0  0  0  0  0  0  0  0  0  0
    2.0359    4.4527    1.0833 H   0  0  0  0  0  0  0  0  0  0  0  0
    6.5544   -1.0314   -2.2741 H   0  0  0  0  0  0  0  0  0  0  0  0
    5.4848   -1.7237   -3.5098 H   0  0  0  0  0  0  0  0  0  0  0  0
    5.8292    0.0145   -3.5072 H   0  0  0  0  0  0  0  0  0  0  0  0
    2.1150    2.2123    3.6544 H   0  0  0  0  0  0  0  0  0  0  0  0
  1  9  1  0  0  0  0
  1 12  1  0  0  0  0
  2  8  1  0  0  0  0
  2 37  1  0  0  0  0
  3 12  1  0  0  0  0
  3 40  1  0  0  0  0
  4 16  1  0  0  0  0
  4 54  1  0  0  0  0
  5 26  1  0  0  0  0
  5 60  1  0  0  0  0
  6 26  2  0  0  0  0
  7  8  1  0  0  0  0
  7  9  1  0  0  0  0
  7 11  1  0  0  0  0
  7 27  1  0  0  0  0
  8 10  1  0  0  0  0
  8 28  1  0  0  0  0
  9 13  1  0  0  0  0
  9 29  1  0  0  0  0
 10 12  1  0  0  0  0
 10 30  1  0  0  0  0
 10 31  1  0  0  0  0
 11 14  1  0  0  0  0
 11 32  1  0  0  0  0
 11 33  1  0  0  0  0
 12 34  1  0  0  0  0
 13 15  2  0  0  0  0
 13 35  1  0  0  0  0
 14 18  2  0  0  0  0
 14 36  1  0  0  0  0
 15 16  1  0  0  0  0
 15 38  1  0  0  0  0
 16 17  1  0  0  0  0
 16 39  1  0  0  0  0
 17 19  1  0  0  0  0
 17 41  1  0  0  0  0
 17 42  1  0  0  0  0
 18 20  1  0  0  0  0
 18 43  1  0  0  0  0
 19 21  1  0  0  0  0
 19 44  1  0  0  0  0
 19 45  1  0  0  0  0
 20 22  1  0  0  0  0
 20 46  1  0  0  0  0
 20 47  1  0  0  0  0
 21 23  1  0  0  0  0
 21 48  1  0  0  0  0
 21 49  1  0  0  0  0
 22 24  1  0  0  0  0
 22 50  1  0  0  0  0
 22 51  1  0  0  0  0
 23 25  1  0  0  0  0
 23 52  1  0  0  0  0
 23 53  1  0  0  0  0
 24 26  1  0  0  0  0
 24 55  1  0  0  0  0
 24 56  1  0  0  0  0
 25 57  1  0  0  0  0
 25 58  1  0  0  0  0
 25 59  1  0  0  0  0
M  END
> <PUBCHEM_COMPOUND_CID>
5280890

> <PUBCHEM_CONFORMER_RMSD>
1.2

> <PUBCHEM_CONFORMER_DIVERSEORDER>
1
99
112
145
78
76
2
131
55
101
77
16
92
89
32
127
45
36
46
37
87
17
105
140
98
100
121
28
104
43
23
136
29
54
79
86
72
4
118
135
85
53
109
41
106
93
128
3
20
139
148
21
8
34
119
137
124
83
60
15
90
10
52
81
13
115
68
123
142
82
26
132
63
94
71
120
88
129
24
117
97
65
56
80
64
122
144
61
70
48
111
39
27
114
130
143
74
12
67
14
125
113
25
47
50
95
102
75
59
5
62
73
126
103
116
42
49
9
18
96
138
57
44
11
134
141
19
6
91
51
146
110
84
107
35
108
22
38
147
58
133
33
40
7
31
30
66
69

> <PUBCHEM_MMFF94_PARTIAL_CHARGES>
26
1 -0.56
11 0.14
12 0.56
13 -0.29
14 -0.29
15 -0.29
16 0.42
18 -0.29
2 -0.68
20 0.14
24 0.06
26 0.66
3 -0.68
35 0.15
36 0.15
37 0.4
38 0.15
4 -0.68
40 0.4
43 0.15
5 -0.65
54 0.4
6 -0.57
60 0.5
8 0.28
9 0.42

> <PUBCHEM_EFFECTIVE_ROTOR_COUNT>
13.2

> <PUBCHEM_PHARMACOPHORE_FEATURES>
14
1 1 acceptor
1 2 acceptor
1 2 donor
1 25 hydrophobe
1 3 acceptor
1 3 donor
1 4 acceptor
1 4 donor
1 5 acceptor
1 6 acceptor
3 5 6 26 anion
4 17 19 21 23 hydrophobe
4 18 20 22 24 hydrophobe
6 1 7 8 9 10 12 rings

> <PUBCHEM_HEAVY_ATOM_COUNT>
26

> <PUBCHEM_ATOM_DEF_STEREO_COUNT>
5

> <PUBCHEM_ATOM_UDEF_STEREO_COUNT>
0

> <PUBCHEM_BOND_DEF_STEREO_COUNT>
2

> <PUBCHEM_BOND_UDEF_STEREO_COUNT>
0

> <PUBCHEM_ISOTOPIC_ATOM_COUNT>
0

> <PUBCHEM_COMPONENT_COUNT>
1

> <PUBCHEM_CACTVS_TAUTO_COUNT>
1

> <PUBCHEM_CONFORMER_ID>
0050947A00000001

> <PUBCHEM_MMFF94_ENERGY>
28.2162

> <PUBCHEM_FEATURE_SELFOVERLAP>
71.137

> <PUBCHEM_SHAPE_FINGERPRINT>
12788726 201 17903359543168363844
13615921 28 17900503888380539456
14932701 244 18188769569959905368
14932702 115 18055645155100976676
21795232 40 17624937618828790388
23559900 14 17986952951971171887
35225 105 17393321435329573592
469060 322 17128413719685228020
5283178 26 17979099097275066552
9981440 41 16415179192812364642

> <PUBCHEM_SHAPE_MULTIPOLES>
499.85
7.98
5.41
3.11
4
4.58
0.47
-6.87
-6.15
1.77
4.35
2.23
1.71
0.4

> <PUBCHEM_SHAPE_SELFOVERLAP>
972.326

> <PUBCHEM_SHAPE_VOLUME>
297.1

> <PUBCHEM_COORDINATE_TYPE>
2
5
10

$$$$

