46174053
  -OEChem-07051213112D

 23 26  0     1  0  0  0  0  0999 V2000
    2.0000   -1.2354    0.0000 Cl  0  0  0  0  0  0  0  0  0  0  0  0
    5.9613   -1.2769    0.0000 Cl  0  0  0  0  0  0  0  0  0  0  0  0
    6.7378    1.6209    0.0000 Cl  0  0  0  0  0  0  0  0  0  0  0  0
    2.2720    0.0137    0.0000 Cl  0  0  0  0  0  0  0  0  0  0  0  0
    4.8288    2.0443    0.0000 Cl  0  0  0  0  0  0  0  0  0  0  0  0
    5.8468    2.6321    0.0000 Cl  0  0  0  0  0  0  0  0  0  0  0  0
    8.5521   -1.9358    0.0000 Cl  0  0  0  0  0  0  0  0  0  0  0  0
    9.1769    0.3961    0.0000 Cl  0  0  0  0  0  0  0  0  0  0  0  0
    3.0160   -2.6321    0.0000 O   0  0  0  0  0  0  0  0  0  0  0  0
    4.4881   -1.3110    0.0000 C   0  0  3  0  0  0  0  0  0  0  0  0
    3.9881   -0.4450    0.0000 C   0  0  3  0  0  0  0  0  0  0  0  0
    3.8210   -2.0480    0.0000 C   0  0  3  0  0  0  0  0  0  0  0  0
    2.9132   -1.6429    0.0000 C   0  0  3  0  0  0  0  0  0  0  0  0
    6.2201   -0.3110    0.0000 C   0  0  2  0  0  0  0  0  0  0  0  0
    6.4789    0.6549    0.0000 C   0  0  1  0  0  0  0  0  0  0  0  0
    3.0162   -0.6542    0.0000 C   0  0  3  0  0  0  0  0  0  0  0  0
    5.7423    1.6376    0.0000 C   0  0  0  0  0  0  0  0  0  0  0  0
    8.0521   -1.0698    0.0000 C   0  0  0  0  0  0  0  0  0  0  0  0
    8.3109   -0.1039    0.0000 C   0  0  0  0  0  0  0  0  0  0  0  0
    4.8776   -1.7933    0.0000 H   0  0  0  0  0  0  0  0  0  0  0  0
    3.7966    0.1447    0.0000 H   0  0  0  0  0  0  0  0  0  0  0  0
    4.2351   -2.5094    0.0000 H   0  0  0  0  0  0  0  0  0  0  0  0
    2.4377   -0.8771    0.0000 H   0  0  0  0  0  0  0  0  0  0  0  0
  1 13  1  0  0  0  0
  2 14  1  0  0  0  0
 15  3  1  1  0  0  0
  4 16  1  0  0  0  0
  5 17  1  0  0  0  0
  6 17  1  0  0  0  0
  7 18  1  0  0  0  0
  8 19  1  0  0  0  0
  9 12  1  0  0  0  0
  9 13  1  0  0  0  0
 10 11  1  0  0  0  0
 10 12  1  0  0  0  0
 10 14  1  0  0  0  0
 10 20  1  0  0  0  0
 11 15  1  0  0  0  0
 11 16  1  0  0  0  0
 11 21  1  0  0  0  0
 12 13  1  0  0  0  0
 12 22  1  0  0  0  0
 13 16  1  0  0  0  0
 14 17  1  0  0  0  0
 14 18  1  0  0  0  0
 15 17  1  0  0  0  0
 15 19  1  0  0  0  0
 16 23  1  0  0  0  0
 18 19  2  0  0  0  0
M  END
> <PUBCHEM_COMPOUND_CID>
46174053

> <PUBCHEM_COMPOUND_CANONICALIZED>
1

> <PUBCHEM_CACTVS_COMPLEXITY>
548

> <PUBCHEM_CACTVS_HBOND_ACCEPTOR>
1

> <PUBCHEM_CACTVS_HBOND_DONOR>
0

> <PUBCHEM_CACTVS_ROTATABLE_BOND>
0

> <PUBCHEM_CACTVS_SUBSKEYS>
AAADcYBwIAAHgAAAAAAAAAAAEgAAAYMEAAAkQAAAAAAYAAAAAAAAGgIAAAAADReggMIAAAAABACAAABAAAAAAAAgAAAACEAAAwgAAAIBAAACAAAEgAAIAAOAwPAOgAAAAAAAAAAAAAAAAAAAAZCATIQCAA==

> <PUBCHEM_IUPAC_INCHI>
InChI=1S/C10H4Cl8O/c11-3-1-2(6-9(3,16)19-6)8(15)5(13)4(12)7(1,14)10(8,17)18/h1-3,6H/t1?,2?,3?,6?,7-,8+,9?/m1/s1

> <PUBCHEM_IUPAC_INCHIKEY>
VWGNQYSIWFHEQU-IBAUKUMTSA-N

> <PUBCHEM_XLOGP3_AA>
4.2

> <PUBCHEM_EXACT_MASS>
423.771136

> <PUBCHEM_MOLECULAR_FORMULA>
C10H4Cl8O

> <PUBCHEM_MOLECULAR_WEIGHT>
423.76216

> <PUBCHEM_OPENEYE_CAN_SMILES>
C12C(C(C3(C1O3)Cl)Cl)C4(C(=C(C2(C4(Cl)Cl)Cl)Cl)Cl)Cl

> <PUBCHEM_OPENEYE_ISO_SMILES>
C12C(C(C3(C1O3)Cl)Cl)[C@]4(C(=C([C@@]2(C4(Cl)Cl)Cl)Cl)Cl)Cl

> <PUBCHEM_CACTVS_TPSA>
12.5

> <PUBCHEM_MONOISOTOPIC_WEIGHT>
419.777036

> <PUBCHEM_TOTAL_CHARGE>
0

> <PUBCHEM_HEAVY_ATOM_COUNT>
19

> <PUBCHEM_ATOM_DEF_STEREO_COUNT>
2

> <PUBCHEM_ATOM_UDEF_STEREO_COUNT>
5

> <PUBCHEM_BOND_DEF_STEREO_COUNT>
0

> <PUBCHEM_BOND_UDEF_STEREO_COUNT>
0

> <PUBCHEM_ISOTOPIC_ATOM_COUNT>
0

> <PUBCHEM_COMPONENT_COUNT>
1

> <PUBCHEM_CACTVS_TAUTO_COUNT>
1

> <PUBCHEM_COORDINATE_TYPE>
1
5
255

> <PUBCHEM_BONDANNOTATIONS>
13  1  3
10  14  3
11  16  3
15  3  5
16  4  3
12  9  3

$$$$

