11578
  -OEChem-06261205512D

 31 28  0     0  0  0  0  0  0999 V2000
    7.1962   -0.2500    0.0000 Ca  0  2  0  0  0  0  0  0  0  0  0  0
   11.5263    1.2500    0.0000 O   0  0  0  0  0  0  0  0  0  0  0  0
    2.8660    1.2500    0.0000 O   0  0  0  0  0  0  0  0  0  0  0  0
    8.0622    0.2500    0.0000 O   0  5  0  0  0  0  0  0  0  0  0  0
    6.3301    0.2500    0.0000 O   0  5  0  0  0  0  0  0  0  0  0  0
    8.9282   -1.2500    0.0000 O   0  0  0  0  0  0  0  0  0  0  0  0
    5.4641   -1.2500    0.0000 O   0  0  0  0  0  0  0  0  0  0  0  0
   10.6603   -0.2500    0.0000 C   0  0  0  0  0  0  0  0  0  0  0  0
    3.7320   -0.2500    0.0000 C   0  0  0  0  0  0  0  0  0  0  0  0
    9.7942    0.2500    0.0000 C   0  0  0  0  0  0  0  0  0  0  0  0
    4.5981    0.2500    0.0000 C   0  0  0  0  0  0  0  0  0  0  0  0
    2.8660    0.2500    0.0000 C   0  0  0  0  0  0  0  0  0  0  0  0
   11.5263    0.2500    0.0000 C   0  0  0  0  0  0  0  0  0  0  0  0
    2.0000   -0.2500    0.0000 C   0  0  0  0  0  0  0  0  0  0  0  0
   12.3923   -0.2500    0.0000 C   0  0  0  0  0  0  0  0  0  0  0  0
    8.9282   -0.2500    0.0000 C   0  0  0  0  0  0  0  0  0  0  0  0
    5.4641   -0.2500    0.0000 C   0  0  0  0  0  0  0  0  0  0  0  0
   10.2617   -0.7249    0.0000 H   0  0  0  0  0  0  0  0  0  0  0  0
   11.0588   -0.7249    0.0000 H   0  0  0  0  0  0  0  0  0  0  0  0
    3.3335   -0.7249    0.0000 H   0  0  0  0  0  0  0  0  0  0  0  0
    4.1306   -0.7249    0.0000 H   0  0  0  0  0  0  0  0  0  0  0  0
   10.1928    0.7249    0.0000 H   0  0  0  0  0  0  0  0  0  0  0  0
    9.3957    0.7249    0.0000 H   0  0  0  0  0  0  0  0  0  0  0  0
    4.9966    0.7249    0.0000 H   0  0  0  0  0  0  0  0  0  0  0  0
    4.1996    0.7249    0.0000 H   0  0  0  0  0  0  0  0  0  0  0  0
    1.6900    0.2869    0.0000 H   0  0  0  0  0  0  0  0  0  0  0  0
    1.4631   -0.5600    0.0000 H   0  0  0  0  0  0  0  0  0  0  0  0
    2.3100   -0.7869    0.0000 H   0  0  0  0  0  0  0  0  0  0  0  0
   12.0823   -0.7869    0.0000 H   0  0  0  0  0  0  0  0  0  0  0  0
   12.9292   -0.5600    0.0000 H   0  0  0  0  0  0  0  0  0  0  0  0
   12.7023    0.2869    0.0000 H   0  0  0  0  0  0  0  0  0  0  0  0
  2 13  2  0  0  0  0
  3 12  2  0  0  0  0
  4 16  1  0  0  0  0
  5 17  1  0  0  0  0
  6 16  2  0  0  0  0
  7 17  2  0  0  0  0
  8 10  1  0  0  0  0
  8 13  1  0  0  0  0
  8 18  1  0  0  0  0
  8 19  1  0  0  0  0
  9 11  1  0  0  0  0
  9 12  1  0  0  0  0
  9 20  1  0  0  0  0
  9 21  1  0  0  0  0
 10 16  1  0  0  0  0
 10 22  1  0  0  0  0
 10 23  1  0  0  0  0
 11 17  1  0  0  0  0
 11 24  1  0  0  0  0
 11 25  1  0  0  0  0
 12 14  1  0  0  0  0
 13 15  1  0  0  0  0
 14 26  1  0  0  0  0
 14 27  1  0  0  0  0
 14 28  1  0  0  0  0
 15 29  1  0  0  0  0
 15 30  1  0  0  0  0
 15 31  1  0  0  0  0
M  CHG  3   1   2   4  -1   5  -1
M  END
> <PUBCHEM_COMPOUND_CID>
11578

> <PUBCHEM_COMPOUND_CANONICALIZED>
1

> <PUBCHEM_CACTVS_COMPLEXITY>
101

> <PUBCHEM_CACTVS_HBOND_ACCEPTOR>
6

> <PUBCHEM_CACTVS_HBOND_DONOR>
0

> <PUBCHEM_CACTVS_ROTATABLE_BOND>
4

> <PUBCHEM_CACTVS_SUBSKEYS>
AAADccBwOAAAAAgAAAAAAAAAAAAAAAAAAAAAAAAAAAAAAAAAAAAAGgAAAAAACASAgAACCAAAAAAIAICQCAAAAAAAAAAAAAEAAAAAABIAAAAAAAAEAAAAAACLAAAAAAAAAAAAAAAAAAAAAAAAAAAAAAAAAA==

> <PUBCHEM_IUPAC_OPENEYE_NAME>
calcium 4-oxopentanoate

> <PUBCHEM_IUPAC_CAS_NAME>
calcium 4-oxopentanoate

> <PUBCHEM_IUPAC_NAME>
calcium 4-oxopentanoate

> <PUBCHEM_IUPAC_SYSTEMATIC_NAME>
calcium 4-oxidanylidenepentanoate

> <PUBCHEM_IUPAC_TRADITIONAL_NAME>
calcium 4-ketovalerate

> <PUBCHEM_IUPAC_INCHI>
InChI=1S/2C5H8O3.Ca/c2*1-4(6)2-3-5(7)8;/h2*2-3H2,1H3,(H,7,8);/q;;+2/p-2

> <PUBCHEM_IUPAC_INCHIKEY>
APKDPOQXVKRLEP-UHFFFAOYSA-L

> <PUBCHEM_EXACT_MASS>
270.041629

> <PUBCHEM_MOLECULAR_FORMULA>
C10H14CaO6

> <PUBCHEM_MOLECULAR_WEIGHT>
270.29256

> <PUBCHEM_OPENEYE_CAN_SMILES>
CC(=O)CCC(=O)[O-].CC(=O)CCC(=O)[O-].[Ca+2]

> <PUBCHEM_OPENEYE_ISO_SMILES>
CC(=O)CCC(=O)[O-].CC(=O)CCC(=O)[O-].[Ca+2]

> <PUBCHEM_CACTVS_TPSA>
114

> <PUBCHEM_MONOISOTOPIC_WEIGHT>
270.041629

> <PUBCHEM_TOTAL_CHARGE>
0

> <PUBCHEM_HEAVY_ATOM_COUNT>
17

> <PUBCHEM_ATOM_DEF_STEREO_COUNT>
0

> <PUBCHEM_ATOM_UDEF_STEREO_COUNT>
0

> <PUBCHEM_BOND_DEF_STEREO_COUNT>
0

> <PUBCHEM_BOND_UDEF_STEREO_COUNT>
0

> <PUBCHEM_ISOTOPIC_ATOM_COUNT>
0

> <PUBCHEM_COMPONENT_COUNT>
3

> <PUBCHEM_CACTVS_TAUTO_COUNT>
6

> <PUBCHEM_COORDINATE_TYPE>
1
5
255

$$$$

