46174051
  -OEChem-07051213112D

102107  0     1  0  0  0  0  0999 V2000
    8.4752    3.3426    0.0000 P   0  0  3  0  0  0  0  0  0  0  0  0
   11.5221   -0.8664    0.0000 O   0  0  0  0  0  0  0  0  0  0  0  0
    9.4908    1.9396    0.0000 O   0  0  0  0  0  0  0  0  0  0  0  0
   11.3165    1.1230    0.0000 O   0  0  0  0  0  0  0  0  0  0  0  0
   11.7002   -2.5893    0.0000 O   0  0  0  0  0  0  0  0  0  0  0  0
   11.2137    2.1177    0.0000 O   0  0  0  0  0  0  0  0  0  0  0  0
    9.2852    3.9290    0.0000 O   0  0  0  0  0  0  0  0  0  0  0  0
   14.6843   -2.2809    0.0000 O   0  0  0  0  0  0  0  0  0  0  0  0
   13.8676   -4.1066    0.0000 O   0  0  0  0  0  0  0  0  0  0  0  0
   12.7309    4.2851    0.0000 O   0  0  0  0  0  0  0  0  0  0  0  0
    5.9405    1.5782    0.0000 O   0  0  0  0  0  0  0  0  0  0  0  0
    7.6651    2.7562    0.0000 O   0  0  0  0  0  0  0  0  0  0  0  0
   12.4647   -5.1222    0.0000 O   0  0  0  0  0  0  0  0  0  0  0  0
    4.6844    3.8404    0.0000 O   0  0  0  0  0  0  0  0  0  0  0  0
    3.4026    2.0826    0.0000 O   0  0  0  0  0  0  0  0  0  0  0  0
    9.0615    2.5326    0.0000 O   0  0  0  0  0  0  0  0  0  0  0  0
    7.8888    4.1527    0.0000 O   0  0  0  0  0  0  0  0  0  0  0  0
    9.3909   -1.9573    0.0000 N   0  0  0  0  0  0  0  0  0  0  0  0
    7.8707    0.7668    0.0000 N   0  0  0  0  0  0  0  0  0  0  0  0
   10.9053    5.1018    0.0000 N   0  0  0  0  0  0  0  0  0  0  0  0
   13.5115   -0.6608    0.0000 N   0  0  0  0  0  0  0  0  0  0  0  0
    4.6783    0.3203    0.0000 N   0  0  0  0  0  0  0  0  0  0  0  0
    4.6783   -1.2892    0.0000 N   0  0  0  0  0  0  0  0  0  0  0  0
    2.8660    0.5156    0.0000 N   0  0  0  0  0  0  0  0  0  0  0  0
    2.0000   -0.9844    0.0000 N   0  0  0  0  0  0  0  0  0  0  0  0
    2.8660   -2.4844    0.0000 N   0  0  0  0  0  0  0  0  0  0  0  0
   10.6093   -0.4581    0.0000 C   0  0  1  0  0  0  0  0  0  0  0  0
    9.5936    0.9449    0.0000 C   0  0  2  0  0  0  0  0  0  0  0  0
   10.5065    0.5366    0.0000 C   0  0  1  0  0  0  0  0  0  0  0  0
    9.7992   -1.0445    0.0000 C   0  0  2  0  0  0  0  0  0  0  0  0
    8.7836    0.3585    0.0000 C   0  0  1  0  0  0  0  0  0  0  0  0
    8.8864   -0.6362    0.0000 C   0  0  0  0  0  0  0  0  0  0  0  0
   12.1085   -1.6765    0.0000 C   0  0  1  0  0  0  0  0  0  0  0  0
   10.3008    2.5260    0.0000 C   0  0  1  0  0  0  0  0  0  0  0  0
   10.1980    3.5207    0.0000 C   0  0  1  0  0  0  0  0  0  0  0  0
   13.1032   -1.5737    0.0000 C   0  0  1  0  0  0  0  0  0  0  0  0
   11.0081    4.1071    0.0000 C   0  0  2  0  0  0  0  0  0  0  0  0
   13.6896   -2.3837    0.0000 C   0  0  2  0  0  0  0  0  0  0  0  0
   13.2813   -3.2965    0.0000 C   0  0  1  0  0  0  0  0  0  0  0  0
   12.2866   -3.3993    0.0000 C   0  0  1  0  0  0  0  0  0  0  0  0
   11.9209    3.6988    0.0000 C   0  0  1  0  0  0  0  0  0  0  0  0
   12.0237    2.7041    0.0000 C   0  0  0  0  0  0  0  0  0  0  0  0
   11.8783   -4.3122    0.0000 C   0  0  0  0  0  0  0  0  0  0  0  0
    5.9422    2.5782    0.0000 C   0  0  1  0  0  0  0  0  0  0  0  0
    4.9917    2.8888    0.0000 C   0  0  2  0  0  0  0  0  0  0  0  0
    4.4026    2.0808    0.0000 C   0  0  2  0  0  0  0  0  0  0  0  0
    4.9889    1.2708    0.0000 C   0  0  1  0  0  0  0  0  0  0  0  0
    6.7523    3.1646    0.0000 C   0  0  0  0  0  0  0  0  0  0  0  0
   11.7153    5.6882    0.0000 C   0  0  0  0  0  0  0  0  0  0  0  0
    3.7320    0.0156    0.0000 C   0  0  0  0  0  0  0  0  0  0  0  0
    5.2619   -0.4844    0.0000 C   0  0  0  0  0  0  0  0  0  0  0  0
    3.7320   -0.9844    0.0000 C   0  0  0  0  0  0  0  0  0  0  0  0
    2.8660   -1.4844    0.0000 C   0  0  0  0  0  0  0  0  0  0  0  0
    2.0000    0.0156    0.0000 C   0  0  0  0  0  0  0  0  0  0  0  0
   10.6730   -1.0748    0.0000 H   0  0  0  0  0  0  0  0  0  0  0  0
   10.0958    1.3085    0.0000 H   0  0  0  0  0  0  0  0  0  0  0  0
   11.0724    0.2834    0.0000 H   0  0  0  0  0  0  0  0  0  0  0  0
   10.2804   -1.4355    0.0000 H   0  0  0  0  0  0  0  0  0  0  0  0
    8.2814   -0.0050    0.0000 H   0  0  0  0  0  0  0  0  0  0  0  0
    8.2680   -0.5919    0.0000 H   0  0  0  0  0  0  0  0  0  0  0  0
    8.7354   -1.2375    0.0000 H   0  0  0  0  0  0  0  0  0  0  0  0
   11.4918   -1.7402    0.0000 H   0  0  0  0  0  0  0  0  0  0  0  0
    9.7349    2.7792    0.0000 H   0  0  0  0  0  0  0  0  0  0  0  0
    9.6958    3.1571    0.0000 H   0  0  0  0  0  0  0  0  0  0  0  0
   13.7199   -1.5099    0.0000 H   0  0  0  0  0  0  0  0  0  0  0  0
   10.4421    4.3602    0.0000 H   0  0  0  0  0  0  0  0  0  0  0  0
   14.0531   -2.8859    0.0000 H   0  0  0  0  0  0  0  0  0  0  0  0
    7.3685    0.4033    0.0000 H   0  0  0  0  0  0  0  0  0  0  0  0
    7.8070    1.3836    0.0000 H   0  0  0  0  0  0  0  0  0  0  0  0
    8.7742   -2.0211    0.0000 H   0  0  0  0  0  0  0  0  0  0  0  0
    9.7545   -2.4596    0.0000 H   0  0  0  0  0  0  0  0  0  0  0  0
   13.0281   -3.8625    0.0000 H   0  0  0  0  0  0  0  0  0  0  0  0
   11.6699   -3.4631    0.0000 H   0  0  0  0  0  0  0  0  0  0  0  0
   12.4869    3.4456    0.0000 H   0  0  0  0  0  0  0  0  0  0  0  0
   11.8824    0.8698    0.0000 H   0  0  0  0  0  0  0  0  0  0  0  0
   12.2945    2.1463    0.0000 H   0  0  0  0  0  0  0  0  0  0  0  0
   12.6200    2.8739    0.0000 H   0  0  0  0  0  0  0  0  0  0  0  0
   10.3393    5.3549    0.0000 H   0  0  0  0  0  0  0  0  0  0  0  0
   14.1282   -0.5971    0.0000 H   0  0  0  0  0  0  0  0  0  0  0  0
   13.1479   -0.1586    0.0000 H   0  0  0  0  0  0  0  0  0  0  0  0
   11.3649   -3.9646    0.0000 H   0  0  0  0  0  0  0  0  0  0  0  0
   11.4468   -4.7574    0.0000 H   0  0  0  0  0  0  0  0  0  0  0  0
    6.4942    2.2957    0.0000 H   0  0  0  0  0  0  0  0  0  0  0  0
    5.4309    3.3265    0.0000 H   0  0  0  0  0  0  0  0  0  0  0  0
    4.1220    2.6338    0.0000 H   0  0  0  0  0  0  0  0  0  0  0  0
    5.4266    0.8316    0.0000 H   0  0  0  0  0  0  0  0  0  0  0  0
   15.0478   -2.7831    0.0000 H   0  0  0  0  0  0  0  0  0  0  0  0
   14.4844   -4.0428    0.0000 H   0  0  0  0  0  0  0  0  0  0  0  0
    7.0999    3.6780    0.0000 H   0  0  0  0  0  0  0  0  0  0  0  0
    6.3070    3.5960    0.0000 H   0  0  0  0  0  0  0  0  0  0  0  0
   13.2969    4.0320    0.0000 H   0  0  0  0  0  0  0  0  0  0  0  0
   12.0788    5.1859    0.0000 H   0  0  0  0  0  0  0  0  0  0  0  0
   12.2175    6.0517    0.0000 H   0  0  0  0  0  0  0  0  0  0  0  0
   11.3517    6.1904    0.0000 H   0  0  0  0  0  0  0  0  0  0  0  0
   12.2115   -5.6882    0.0000 H   0  0  0  0  0  0  0  0  0  0  0  0
    5.1000    4.3005    0.0000 H   0  0  0  0  0  0  0  0  0  0  0  0
    3.0935    2.6200    0.0000 H   0  0  0  0  0  0  0  0  0  0  0  0
    8.8084    1.9666    0.0000 H   0  0  0  0  0  0  0  0  0  0  0  0
    5.8819   -0.4844    0.0000 H   0  0  0  0  0  0  0  0  0  0  0  0
    1.4631    0.3256    0.0000 H   0  0  0  0  0  0  0  0  0  0  0  0
    2.3291   -2.7944    0.0000 H   0  0  0  0  0  0  0  0  0  0  0  0
    3.4030   -2.7944    0.0000 H   0  0  0  0  0  0  0  0  0  0  0  0
  1  7  1  0  0  0  0
  1 12  1  0  0  0  0
  1 16  1  0  0  0  0
  1 17  2  0  0  0  0
 27  2  1  6  0  0  0
 33  2  1  6  0  0  0
 28  3  1  6  0  0  0
 34  3  1  6  0  0  0
 29  4  1  1  0  0  0
  4 75  1  0  0  0  0
  5 33  1  0  0  0  0
  5 40  1  0  0  0  0
  6 34  1  0  0  0  0
  6 42  1  0  0  0  0
 35  7  1  6  0  0  0
 38  8  1  1  0  0  0
  8 87  1  0  0  0  0
 39  9  1  6  0  0  0
  9 88  1  0  0  0  0
 41 10  1  6  0  0  0
 10 91  1  0  0  0  0
 11 44  1  0  0  0  0
 11 47  1  0  0  0  0
 12 48  1  0  0  0  0
 13 43  1  0  0  0  0
 13 95  1  0  0  0  0
 45 14  1  6  0  0  0
 14 96  1  0  0  0  0
 46 15  1  6  0  0  0
 15 97  1  0  0  0  0
 16 98  1  0  0  0  0
 30 18  1  1  0  0  0
 18 70  1  0  0  0  0
 18 71  1  0  0  0  0
 31 19  1  1  0  0  0
 19 68  1  0  0  0  0
 19 69  1  0  0  0  0
 37 20  1  1  0  0  0
 20 49  1  0  0  0  0
 20 78  1  0  0  0  0
 36 21  1  6  0  0  0
 21 79  1  0  0  0  0
 21 80  1  0  0  0  0
 47 22  1  1  0  0  0
 22 50  1  0  0  0  0
 22 51  1  0  0  0  0
 23 51  2  0  0  0  0
 23 52  1  0  0  0  0
 24 50  2  0  0  0  0
 24 54  1  0  0  0  0
 25 53  1  0  0  0  0
 25 54  2  0  0  0  0
 26 53  1  0  0  0  0
 26101  1  0  0  0  0
 26102  1  0  0  0  0
 27 29  1  0  0  0  0
 27 30  1  0  0  0  0
 27 55  1  0  0  0  0
 28 29  1  0  0  0  0
 28 31  1  0  0  0  0
 28 56  1  0  0  0  0
 29 57  1  0  0  0  0
 30 32  1  0  0  0  0
 30 58  1  0  0  0  0
 31 32  1  0  0  0  0
 31 59  1  0  0  0  0
 32 60  1  0  0  0  0
 32 61  1  0  0  0  0
 33 36  1  0  0  0  0
 33 62  1  0  0  0  0
 34 35  1  0  0  0  0
 34 63  1  0  0  0  0
 35 37  1  0  0  0  0
 35 64  1  0  0  0  0
 36 38  1  0  0  0  0
 36 65  1  0  0  0  0
 37 41  1  0  0  0  0
 37 66  1  0  0  0  0
 38 39  1  0  0  0  0
 38 67  1  0  0  0  0
 39 40  1  0  0  0  0
 39 72  1  0  0  0  0
 40 43  1  1  0  0  0
 40 73  1  0  0  0  0
 41 42  1  0  0  0  0
 41 74  1  0  0  0  0
 42 76  1  0  0  0  0
 42 77  1  0  0  0  0
 43 81  1  0  0  0  0
 43 82  1  0  0  0  0
 44 45  1  0  0  0  0
 44 48  1  1  0  0  0
 44 83  1  0  0  0  0
 45 46  1  0  0  0  0
 45 84  1  0  0  0  0
 46 47  1  0  0  0  0
 46 85  1  0  0  0  0
 47 86  1  0  0  0  0
 48 89  1  0  0  0  0
 48 90  1  0  0  0  0
 49 92  1  0  0  0  0
 49 93  1  0  0  0  0
 49 94  1  0  0  0  0
 50 52  1  0  0  0  0
 51 99  1  0  0  0  0
 52 53  2  0  0  0  0
 54100  1  0  0  0  0
M  END
> <PUBCHEM_COMPOUND_CID>
46174051

> <PUBCHEM_COMPOUND_CANONICALIZED>
1

> <PUBCHEM_CACTVS_COMPLEXITY>
1290

> <PUBCHEM_CACTVS_HBOND_ACCEPTOR>
24

> <PUBCHEM_CACTVS_HBOND_DONOR>
13

> <PUBCHEM_CACTVS_ROTATABLE_BOND>
12

> <PUBCHEM_CACTVS_SUBSKEYS>
AAADcfB7/gIAAAAAAAAAAAAAAAAAAWJAAAA8SJEAAAAAAFgB+AAAHgAQCCAACDzxlwcH+L/MFxCgQQZhZICAgC0REKABUKAoVBCTWAJAyEA/RAgPEALXACHwcA8AAAAAAAAAAAAAgAAUCACgAAAAAAAAAA==

> <PUBCHEM_IUPAC_OPENEYE_NAME>
[(2R,3S,4R,5R)-5-(6-aminopurin-9-yl)-3,4-dihydroxy-tetrahydrofuran-2-yl]methyl [(2R,3R,4S,5S)-2-[(1S,2S,3R,4S,6R)-4,6-diamino-3-[(2S,3R,4R,5S,6R)-3-amino-4,5-dihydroxy-6-(hydroxymethyl)tetrahydropyran-2-yl]oxy-2-hydroxy-cyclohexoxy]-5-hydroxy-4-(methylamino)tetrahydropyran-3-yl] hydrogen phosphate

> <PUBCHEM_IUPAC_CAS_NAME>
[(2R,3S,4R,5R)-5-(6-aminopurin-9-yl)-3,4-dihydroxy-2-oxolanyl]methyl [(2R,3R,4S,5S)-2-[(1S,2S,3R,4S,6R)-4,6-diamino-3-[[(2S,3R,4R,5S,6R)-3-amino-4,5-dihydroxy-6-(hydroxymethyl)-2-oxanyl]oxy]-2-hydroxycyclohexyl]oxy-5-hydroxy-4-(methylamino)-3-oxanyl] hydrogen phosphate

> <PUBCHEM_IUPAC_NAME>
[(2R,3S,4R,5R)-5-(6-aminopurin-9-yl)-3,4-dihydroxyoxolan-2-yl]methyl [(2R,3R,4S,5S)-2-[(1S,2S,3R,4S,6R)-4,6-diamino-3-[(2S,3R,4R,5S,6R)-3-amino-4,5-dihydroxy-6-(hydroxymethyl)oxan-2-yl]oxy-2-hydroxycyclohexyl]oxy-5-hydroxy-4-(methylamino)oxan-3-yl] hydrogen phosphate

> <PUBCHEM_IUPAC_SYSTEMATIC_NAME>
[(2R,3S,4R,5R)-5-(6-aminopurin-9-yl)-3,4-bis(oxidanyl)oxolan-2-yl]methyl [(2R,3R,4S,5S)-2-[(1S,2S,3R,4S,6R)-4,6-bis(azanyl)-3-[(2S,3R,4R,5S,6R)-3-azanyl-6-(hydroxymethyl)-4,5-bis(oxidanyl)oxan-2-yl]oxy-2-oxidanyl-cyclohexyl]oxy-4-(methylamino)-5-oxidanyl-oxan-3-yl] hydrogen phosphate

> <PUBCHEM_IUPAC_TRADITIONAL_NAME>
[(2R,3S,4R,5R)-5-adenin-9-yl-3,4-dihydroxy-tetrahydrofuran-2-yl]methyl [(2R,3R,4S,5S)-2-[(1S,2S,3R,4S,6R)-4,6-diamino-3-[(2S,3R,4R,5S,6R)-3-amino-4,5-dihydroxy-6-methylol-tetrahydropyran-2-yl]oxy-2-hydroxy-cyclohexoxy]-5-hydroxy-4-(methylamino)tetrahydropyran-3-yl] hydrogen phosphate

> <PUBCHEM_IUPAC_INCHI>
InChI=1S/C28H48N9O16P/c1-33-14-10(39)4-47-28(52-22-9(30)2-8(29)21(20(22)44)51-27-13(31)18(42)16(40)11(3-38)50-27)23(14)53-54(45,46)48-5-12-17(41)19(43)26(49-12)37-7-36-15-24(32)34-6-35-25(15)37/h6-14,16-23,26-28,33,38-44H,2-5,29-31H2,1H3,(H,45,46)(H2,32,34,35)/t8-,9+,10+,11+,12+,13+,14-,16+,17+,18+,19+,20-,21+,22-,23+,26+,27+,28+/m0/s1

> <PUBCHEM_IUPAC_INCHIKEY>
VNYFJZQRMVOPNW-SWPLHRKISA-N

> <PUBCHEM_XLOGP3>
-11.2

> <PUBCHEM_EXACT_MASS>
797.295663

> <PUBCHEM_MOLECULAR_FORMULA>
C28H48N9O16P

> <PUBCHEM_MOLECULAR_WEIGHT>
797.705182

> <PUBCHEM_OPENEYE_CAN_SMILES>
CNC1C(COC(C1OP(=O)(O)OCC2C(C(C(O2)N3C=NC4=C3N=CN=C4N)O)O)OC5C(CC(C(C5O)OC6C(C(C(C(O6)CO)O)O)N)N)N)O

> <PUBCHEM_OPENEYE_ISO_SMILES>
CN[C@H]1[C@@H](CO[C@@H]([C@@H]1OP(=O)(O)OC[C@@H]2[C@H]([C@H]([C@@H](O2)N3C=NC4=C3N=CN=C4N)O)O)O[C@H]5[C@@H](C[C@@H]([C@H]([C@@H]5O)O[C@@H]6[C@@H]([C@H]([C@@H]([C@H](O6)CO)O)O)N)N)N)O

> <PUBCHEM_CACTVS_TPSA>
403

> <PUBCHEM_MONOISOTOPIC_WEIGHT>
797.295663

> <PUBCHEM_TOTAL_CHARGE>
0

> <PUBCHEM_HEAVY_ATOM_COUNT>
54

> <PUBCHEM_ATOM_DEF_STEREO_COUNT>
18

> <PUBCHEM_ATOM_UDEF_STEREO_COUNT>
0

> <PUBCHEM_BOND_DEF_STEREO_COUNT>
0

> <PUBCHEM_BOND_UDEF_STEREO_COUNT>
0

> <PUBCHEM_ISOTOPIC_ATOM_COUNT>
0

> <PUBCHEM_COMPONENT_COUNT>
1

> <PUBCHEM_CACTVS_TAUTO_COUNT>
3

> <PUBCHEM_COORDINATE_TYPE>
1
5
255

> <PUBCHEM_BONDANNOTATIONS>
41  10  6
45  14  6
46  15  6
30  18  5
31  19  5
27  2  6
33  2  6
37  20  5
36  21  6
47  22  5
22  50  8
22  51  8
23  51  8
23  52  8
24  50  8
24  54  8
25  53  8
25  54  8
28  3  6
34  3  6
29  4  5
40  43  5
44  48  5
50  52  8
52  53  8
35  7  6
38  8  5
39  9  6

$$$$

