504
  -OEChem-07051212512D

 10 10  0     0  0  0  0  0  0999 V2000
    4.5691   -0.1807    0.0000 O   0  0  0  0  0  0  0  0  0  0  0  0
    2.8090   -0.4594    0.0000 N   0  0  0  0  0  0  0  0  0  0  0  0
    2.3090    1.0794    0.0000 N   0  0  0  0  0  0  0  0  0  0  0  0
    3.3090    1.0794    0.0000 C   0  0  0  0  0  0  0  0  0  0  0  0
    3.6180    0.1284    0.0000 C   0  0  0  0  0  0  0  0  0  0  0  0
    2.0000    0.1284    0.0000 C   0  0  0  0  0  0  0  0  0  0  0  0
    3.9155    1.2083    0.0000 H   0  0  0  0  0  0  0  0  0  0  0  0
    3.2442    1.6960    0.0000 H   0  0  0  0  0  0  0  0  0  0  0  0
    2.8090   -1.0794    0.0000 H   0  0  0  0  0  0  0  0  0  0  0  0
    1.4103   -0.0632    0.0000 H   0  0  0  0  0  0  0  0  0  0  0  0
  1  5  2  0  0  0  0
  2  5  1  0  0  0  0
  2  6  1  0  0  0  0
  2  9  1  0  0  0  0
  3  4  1  0  0  0  0
  3  6  2  0  0  0  0
  4  5  1  0  0  0  0
  4  7  1  0  0  0  0
  4  8  1  0  0  0  0
  6 10  1  0  0  0  0
M  END
> <PUBCHEM_COMPOUND_CID>
504

> <PUBCHEM_COMPOUND_CANONICALIZED>
1

> <PUBCHEM_CACTVS_COMPLEXITY>
97

> <PUBCHEM_CACTVS_HBOND_ACCEPTOR>
2

> <PUBCHEM_CACTVS_HBOND_DONOR>
1

> <PUBCHEM_CACTVS_ROTATABLE_BOND>
0

> <PUBCHEM_CACTVS_SUBSKEYS>
AAADcYBDIAAAAAAAAAAAAAAAAAAAAQAAAAAAAAAAAAAAAAAAAAAAHgAQAAAAAADBgAQBAALAAAAoAAERNAAAAAEAAAABAICIAAAAQAAACAAQAAAAEgAAAAAAAAAAAAAAAAAAAAAAAAAAAAAAAAAAAAAAAA==

> <PUBCHEM_IUPAC_OPENEYE_NAME>
1,4-dihydroimidazol-5-one

> <PUBCHEM_IUPAC_CAS_NAME>
1,4-dihydroimidazol-5-one

> <PUBCHEM_IUPAC_NAME>
1,4-dihydroimidazol-5-one

> <PUBCHEM_IUPAC_SYSTEMATIC_NAME>
1,4-dihydroimidazol-5-one

> <PUBCHEM_IUPAC_TRADITIONAL_NAME>
2-imidazolin-4-one

> <PUBCHEM_IUPAC_INCHI>
InChI=1S/C3H4N2O/c6-3-1-4-2-5-3/h2H,1H2,(H,4,5,6)

> <PUBCHEM_IUPAC_INCHIKEY>
CAAMSDWKXXPUJR-UHFFFAOYSA-N

> <PUBCHEM_XLOGP3_AA>
-0.8

> <PUBCHEM_EXACT_MASS>
84.032363

> <PUBCHEM_MOLECULAR_FORMULA>
C3H4N2O

> <PUBCHEM_MOLECULAR_WEIGHT>
84.07666

> <PUBCHEM_OPENEYE_CAN_SMILES>
C1C(=O)NC=N1

> <PUBCHEM_OPENEYE_ISO_SMILES>
C1C(=O)NC=N1

> <PUBCHEM_CACTVS_TPSA>
41.5

> <PUBCHEM_MONOISOTOPIC_WEIGHT>
84.032363

> <PUBCHEM_TOTAL_CHARGE>
0

> <PUBCHEM_HEAVY_ATOM_COUNT>
6

> <PUBCHEM_ATOM_DEF_STEREO_COUNT>
0

> <PUBCHEM_ATOM_UDEF_STEREO_COUNT>
0

> <PUBCHEM_BOND_DEF_STEREO_COUNT>
0

> <PUBCHEM_BOND_UDEF_STEREO_COUNT>
0

> <PUBCHEM_ISOTOPIC_ATOM_COUNT>
0

> <PUBCHEM_COMPONENT_COUNT>
1

> <PUBCHEM_CACTVS_TAUTO_COUNT>
5

> <PUBCHEM_COORDINATE_TYPE>
1
5
255

$$$$

