5281637
  -OEChem-07051212583D

 51 54  0     1  0  0  0  0  0999 V2000
    3.1873    0.6450    0.7294 O   0  0  0  0  0  0  0  0  0  0  0  0
    3.2459   -2.4085   -1.3060 O   0  0  0  0  0  0  0  0  0  0  0  0
    5.4773   -0.8155   -2.3636 O   0  0  0  0  0  0  0  0  0  0  0  0
    6.7075    0.7434   -0.2751 O   0  0  0  0  0  0  0  0  0  0  0  0
    4.1213    2.3795    2.6434 O   0  0  0  0  0  0  0  0  0  0  0  0
    1.2015    1.4793   -0.3665 O   0  0  0  0  0  0  0  0  0  0  0  0
   -2.8091   -1.1807    0.2650 O   0  0  0  0  0  0  0  0  0  0  0  0
    1.4618   -3.0875    0.9863 O   0  0  0  0  0  0  0  0  0  0  0  0
   -1.2036    2.4458   -0.7415 O   0  0  0  0  0  0  0  0  0  0  0  0
   -5.4780   -1.5723    0.2779 O   0  0  0  0  0  0  0  0  0  0  0  0
   -7.2140    0.4718   -0.3920 O   0  0  0  0  0  0  0  0  0  0  0  0
    3.4728   -1.0264   -1.0305 C   0  0  2  0  0  0  0  0  0  0  0  0
    4.9807   -0.7606   -1.0250 C   0  0  2  0  0  0  0  0  0  0  0  0
    2.8500   -0.6882    0.3327 C   0  0  2  0  0  0  0  0  0  0  0  0
    5.2994    0.6234   -0.4600 C   0  0  1  0  0  0  0  0  0  0  0  0
    4.5943    0.8382    0.8805 C   0  0  1  0  0  0  0  0  0  0  0  0
    1.3376   -0.7914    0.3063 C   0  0  0  0  0  0  0  0  0  0  0  0
    4.8083    2.2517    1.4118 C   0  0  0  0  0  0  0  0  0  0  0  0
    0.5660    0.3154   -0.0482 C   0  0  0  0  0  0  0  0  0  0  0  0
    0.7208   -1.9980    0.6379 C   0  0  0  0  0  0  0  0  0  0  0  0
   -0.8270    0.2062   -0.0686 C   0  0  0  0  0  0  0  0  0  0  0  0
   -1.4482   -0.9977    0.2623 C   0  0  0  0  0  0  0  0  0  0  0  0
   -0.6705   -2.1021    0.6163 C   0  0  0  0  0  0  0  0  0  0  0  0
   -1.6663    1.3560   -0.4386 C   0  0  0  0  0  0  0  0  0  0  0  0
   -3.1212    1.1395   -0.4301 C   0  0  0  0  0  0  0  0  0  0  0  0
   -3.6091   -0.1187   -0.0782 C   0  0  0  0  0  0  0  0  0  0  0  0
   -4.9868   -0.3463   -0.0637 C   0  0  0  0  0  0  0  0  0  0  0  0
   -3.9994    2.1725   -0.7679 C   0  0  0  0  0  0  0  0  0  0  0  0
   -5.8677    0.6822   -0.4003 C   0  0  0  0  0  0  0  0  0  0  0  0
   -5.3747    1.9391   -0.7517 C   0  0  0  0  0  0  0  0  0  0  0  0
   -5.7570   -1.7950    1.6577 C   0  0  0  0  0  0  0  0  0  0  0  0
    3.0031   -0.4535   -1.8391 H   0  0  0  0  0  0  0  0  0  0  0  0
    5.5151   -1.5379   -0.4650 H   0  0  0  0  0  0  0  0  0  0  0  0
    3.2324   -1.3644    1.1090 H   0  0  0  0  0  0  0  0  0  0  0  0
    4.9967    1.3907   -1.1831 H   0  0  0  0  0  0  0  0  0  0  0  0
    4.9633    0.1328    1.6374 H   0  0  0  0  0  0  0  0  0  0  0  0
    4.4046    3.0031    0.7249 H   0  0  0  0  0  0  0  0  0  0  0  0
    5.8672    2.4641    1.5843 H   0  0  0  0  0  0  0  0  0  0  0  0
    3.6604   -2.9290   -0.5969 H   0  0  0  0  0  0  0  0  0  0  0  0
    5.2454   -1.6890   -2.7229 H   0  0  0  0  0  0  0  0  0  0  0  0
    6.9838    0.0729    0.3728 H   0  0  0  0  0  0  0  0  0  0  0  0
   -1.1548   -3.0410    0.8743 H   0  0  0  0  0  0  0  0  0  0  0  0
    3.1827    2.1854    2.4781 H   0  0  0  0  0  0  0  0  0  0  0  0
    2.1249    1.3182   -0.6135 H   0  0  0  0  0  0  0  0  0  0  0  0
    0.8643   -3.8297    1.1811 H   0  0  0  0  0  0  0  0  0  0  0  0
   -3.6351    3.1579   -1.0444 H   0  0  0  0  0  0  0  0  0  0  0  0
   -6.0521    2.7469   -1.0159 H   0  0  0  0  0  0  0  0  0  0  0  0
   -7.6650    1.2939   -0.6505 H   0  0  0  0  0  0  0  0  0  0  0  0
   -6.1356   -2.8147    1.7702 H   0  0  0  0  0  0  0  0  0  0  0  0
   -6.5214   -1.0973    2.0142 H   0  0  0  0  0  0  0  0  0  0  0  0
   -4.8471   -1.6924    2.2576 H   0  0  0  0  0  0  0  0  0  0  0  0
  1 14  1  0  0  0  0
  1 16  1  0  0  0  0
  2 12  1  0  0  0  0
  2 39  1  0  0  0  0
  3 13  1  0  0  0  0
  3 40  1  0  0  0  0
  4 15  1  0  0  0  0
  4 41  1  0  0  0  0
  5 18  1  0  0  0  0
  5 43  1  0  0  0  0
  6 19  1  0  0  0  0
  6 44  1  0  0  0  0
  7 22  1  0  0  0  0
  7 26  1  0  0  0  0
  8 20  1  0  0  0  0
  8 45  1  0  0  0  0
  9 24  2  0  0  0  0
 10 27  1  0  0  0  0
 10 31  1  0  0  0  0
 11 29  1  0  0  0  0
 11 48  1  0  0  0  0
 12 13  1  0  0  0  0
 12 14  1  0  0  0  0
 12 32  1  0  0  0  0
 13 15  1  0  0  0  0
 13 33  1  0  0  0  0
 14 17  1  0  0  0  0
 14 34  1  0  0  0  0
 15 16  1  0  0  0  0
 15 35  1  0  0  0  0
 16 18  1  0  0  0  0
 16 36  1  0  0  0  0
 17 19  2  0  0  0  0
 17 20  1  0  0  0  0
 18 37  1  0  0  0  0
 18 38  1  0  0  0  0
 19 21  1  0  0  0  0
 20 23  2  0  0  0  0
 21 22  2  0  0  0  0
 21 24  1  0  0  0  0
 22 23  1  0  0  0  0
 23 42  1  0  0  0  0
 24 25  1  0  0  0  0
 25 26  2  0  0  0  0
 25 28  1  0  0  0  0
 26 27  1  0  0  0  0
 27 29  2  0  0  0  0
 28 30  2  0  0  0  0
 28 46  1  0  0  0  0
 29 30  1  0  0  0  0
 30 47  1  0  0  0  0
 31 49  1  0  0  0  0
 31 50  1  0  0  0  0
 31 51  1  0  0  0  0
M  END
> <PUBCHEM_COMPOUND_CID>
5281637

> <PUBCHEM_CONFORMER_RMSD>
0.8

> <PUBCHEM_CONFORMER_DIVERSEORDER>
1
5
6
3
4
2

> <PUBCHEM_MMFF94_PARTIAL_CHARGES>
41
1 -0.56
10 -0.36
11 -0.53
12 0.28
13 0.28
14 0.42
15 0.28
16 0.28
17 -0.14
18 0.28
19 0.08
2 -0.68
20 0.08
21 0.09
22 0.08
23 -0.15
24 0.4
25 0.09
26 0.08
27 0.08
28 -0.15
29 0.08
3 -0.68
30 -0.15
31 0.28
39 0.4
4 -0.68
40 0.4
41 0.4
42 0.15
43 0.4
44 0.45
45 0.45
46 0.15
47 0.15
48 0.45
5 -0.68
6 -0.53
7 -0.17
8 -0.53
9 -0.57

> <PUBCHEM_EFFECTIVE_ROTOR_COUNT>
4.2

> <PUBCHEM_PHARMACOPHORE_FEATURES>
19
1 1 acceptor
1 10 acceptor
1 11 donor
1 2 acceptor
1 2 donor
1 3 acceptor
1 3 donor
1 4 acceptor
1 4 donor
1 5 acceptor
1 5 donor
1 6 donor
1 7 acceptor
1 8 donor
1 9 acceptor
6 1 12 13 14 15 16 rings
6 17 19 20 21 22 23 rings
6 25 26 27 28 29 30 rings
6 7 21 22 24 25 26 rings

> <PUBCHEM_HEAVY_ATOM_COUNT>
31

> <PUBCHEM_ATOM_DEF_STEREO_COUNT>
5

> <PUBCHEM_ATOM_UDEF_STEREO_COUNT>
0

> <PUBCHEM_BOND_DEF_STEREO_COUNT>
0

> <PUBCHEM_BOND_UDEF_STEREO_COUNT>
0

> <PUBCHEM_ISOTOPIC_ATOM_COUNT>
0

> <PUBCHEM_COMPONENT_COUNT>
1

> <PUBCHEM_CACTVS_TAUTO_COUNT>
57

> <PUBCHEM_CONFORMER_ID>
0050976500000001

> <PUBCHEM_MMFF94_ENERGY>
110.1701

> <PUBCHEM_FEATURE_SELFOVERLAP>
96.493

> <PUBCHEM_SHAPE_FINGERPRINT>
10 15 18270691857093384176
10411042 1 17767678357430820915
10670039 82 17988353875729587228
10906281 52 17703212010217601889
11112241 14 17243319131006718080
11488393 25 17825091860313091255
11497681 19 17387985175352426103
12236239 1 16917349225406996038
12403259 415 18408041792745724073
12730499 353 18260265240177644338
13402501 40 18409452466707791272
13617811 41 18131349721945007005
13782708 43 18334010605522587094
14790565 3 18272364248390978229
15183329 4 17022900155308369510
15196674 1 18271247222118365587
15324884 4 17973987481003305354
17844677 252 17749387100464167697
18608769 82 18341889658850139259
18681886 176 18060410288572484700
19377110 9 16343988017873031433
21033648 29 18337400348273027384
21267235 1 18342730803089784695
21792961 116 18261376872820230566
22122407 14 14979660131054109084
221357 26 17968094257249103832
22149856 69 18339341004340720851
22393880 68 18197780109844634719
23559900 14 18408041801763277156
23569914 152 17035012646441644927
239999 70 18261675960619142894
2747138 104 18200301114530911155
3004659 81 18130504266728988974
34797466 226 17894632556560065845
350125 39 18272650117319679709
4073 2 17989200460838631163
4093350 32 17458061594637275037
46194498 28 17676767660701303204
495365 180 17749118751550520474
5104073 3 18270967954923410675
53794403 172 18199465463939980988
9658208 31 18340767048951912850

> <PUBCHEM_SHAPE_MULTIPOLES>
573.4
16.17
2.69
1.39
4.69
0.29
0.29
-3.58
-1.2
0.14
0.62
-2.04
-0.19
3.28

> <PUBCHEM_SHAPE_SELFOVERLAP>
1270.799

> <PUBCHEM_SHAPE_VOLUME>
303.3

> <PUBCHEM_COORDINATE_TYPE>
2
5
10

$$$$

