10853
  -OEChem-06261205023D

 21 21  0     0  0  0  0  0  0999 V2000
   -2.5298    1.2716   -0.3594 O   0  0  0  0  0  0  0  0  0  0  0  0
   -1.7207   -0.8951   -0.1094 N   0  0  0  0  0  0  0  0  0  0  0  0
   -3.4922   -0.1562    1.1589 N   0  0  0  0  0  0  0  0  0  0  0  0
    0.6227   -0.3621   -0.5081 C   0  0  0  0  0  0  0  0  0  0  0  0
   -0.6686   -0.8280   -1.0916 C   0  0  0  0  0  0  0  0  0  0  0  0
    0.9248    0.9993   -0.4808 C   0  0  0  0  0  0  0  0  0  0  0  0
    1.5282   -1.2879    0.0098 C   0  0  0  0  0  0  0  0  0  0  0  0
    2.1326    1.4350    0.0643 C   0  0  0  0  0  0  0  0  0  0  0  0
    2.7360   -0.8523    0.5551 C   0  0  0  0  0  0  0  0  0  0  0  0
    3.0381    0.5092    0.5824 C   0  0  0  0  0  0  0  0  0  0  0  0
   -2.5710    0.1665    0.1787 C   0  0  0  0  0  0  0  0  0  0  0  0
   -0.9793   -0.1672   -1.9098 H   0  0  0  0  0  0  0  0  0  0  0  0
   -0.5587   -1.8296   -1.5229 H   0  0  0  0  0  0  0  0  0  0  0  0
    0.2307    1.7321   -0.8832 H   0  0  0  0  0  0  0  0  0  0  0  0
    1.3041   -2.3513   -0.0038 H   0  0  0  0  0  0  0  0  0  0  0  0
   -1.8325   -1.7574    0.4153 H   0  0  0  0  0  0  0  0  0  0  0  0
    2.3682    2.4950    0.0850 H   0  0  0  0  0  0  0  0  0  0  0  0
    3.4410   -1.5731    0.9589 H   0  0  0  0  0  0  0  0  0  0  0  0
    3.9784    0.8484    1.0069 H   0  0  0  0  0  0  0  0  0  0  0  0
   -3.5108   -1.0735    1.5915 H   0  0  0  0  0  0  0  0  0  0  0  0
   -4.1801    0.5187    1.4758 H   0  0  0  0  0  0  0  0  0  0  0  0
  1 11  2  0  0  0  0
  2  5  1  0  0  0  0
  2 11  1  0  0  0  0
  2 16  1  0  0  0  0
  3 11  1  0  0  0  0
  3 20  1  0  0  0  0
  3 21  1  0  0  0  0
  4  5  1  0  0  0  0
  4  6  2  0  0  0  0
  4  7  1  0  0  0  0
  5 12  1  0  0  0  0
  5 13  1  0  0  0  0
  6  8  1  0  0  0  0
  6 14  1  0  0  0  0
  7  9  2  0  0  0  0
  7 15  1  0  0  0  0
  8 10  2  0  0  0  0
  8 17  1  0  0  0  0
  9 10  1  0  0  0  0
  9 18  1  0  0  0  0
 10 19  1  0  0  0  0
M  END
> <PUBCHEM_COMPOUND_CID>
10853

> <PUBCHEM_CONFORMER_RMSD>
0.6

> <PUBCHEM_CONFORMER_DIVERSEORDER>
1
5
2
4
3

> <PUBCHEM_MMFF94_PARTIAL_CHARGES>
19
1 -0.57
10 -0.15
11 0.69
14 0.15
15 0.15
16 0.37
17 0.15
18 0.15
19 0.15
2 -0.73
20 0.37
21 0.37
3 -0.8
4 -0.14
5 0.44
6 -0.15
7 -0.15
8 -0.15
9 -0.15

> <PUBCHEM_EFFECTIVE_ROTOR_COUNT>
3

> <PUBCHEM_PHARMACOPHORE_FEATURES>
4
1 1 acceptor
1 2 donor
1 3 donor
6 4 6 7 8 9 10 rings

> <PUBCHEM_HEAVY_ATOM_COUNT>
11

> <PUBCHEM_ATOM_DEF_STEREO_COUNT>
0

> <PUBCHEM_ATOM_UDEF_STEREO_COUNT>
0

> <PUBCHEM_BOND_DEF_STEREO_COUNT>
0

> <PUBCHEM_BOND_UDEF_STEREO_COUNT>
0

> <PUBCHEM_ISOTOPIC_ATOM_COUNT>
0

> <PUBCHEM_COMPONENT_COUNT>
1

> <PUBCHEM_CACTVS_TAUTO_COUNT>
3

> <PUBCHEM_CONFORMER_ID>
00002A6500000001

> <PUBCHEM_MMFF94_ENERGY>
20.2034

> <PUBCHEM_FEATURE_SELFOVERLAP>
20.348

> <PUBCHEM_SHAPE_FINGERPRINT>
10149128 111 17240472615945715721
10857977 72 16988564597711741151
11471102 22 18273491264999341106
12251169 10 18341614793421713731
124424 183 17986968516167767694
12696612 119 18342736286739674612
12932764 1 18410292501595420607
15775835 57 18114460059126102793
16945 1 18409739469059082846
17834069 15 18341336690015370980
17844478 74 17918277566699675292
20281407 28 15769781277011823714
20361792 2 14117515407362926623
20715346 28 18343302608389953911
20871998 22 18047189928338092414
230 275 17894907455577836236
2748010 2 17904214968031616774

> <PUBCHEM_SHAPE_MULTIPOLES>
210.54
5.24
1.41
0.93
2.61
0.15
-0.02
0.68
-1.89
-0.49
0.11
0.29
-0.08
-0.06

> <PUBCHEM_SHAPE_SELFOVERLAP>
430.975

> <PUBCHEM_SHAPE_VOLUME>
121.4

> <PUBCHEM_COORDINATE_TYPE>
2
5
10

$$$$

