15573391
  -OEChem-07051213103D

 18 19  0     1  0  0  0  0  0999 V2000
    0.3763    1.1964   -0.3314 O   0  0  0  0  0  0  0  0  0  0  0  0
   -2.9500   -1.2778   -0.3490 O   0  0  0  0  0  0  0  0  0  0  0  0
    2.8944   -1.3219   -0.2565 O   0  0  0  0  0  0  0  0  0  0  0  0
    2.9185    0.9006    0.2492 O   0  0  0  0  0  0  0  0  0  0  0  0
   -1.1386   -0.2256    0.7366 N   0  0  0  0  0  0  0  0  0  0  0  0
   -0.8787    1.1772    0.3891 C   0  0  2  0  0  0  0  0  0  0  0  0
    0.0601   -1.0166    0.5352 C   0  0  0  0  0  0  0  0  0  0  0  0
   -2.2049    1.1617   -0.3885 C   0  0  0  0  0  0  0  0  0  0  0  0
    0.8708   -0.1590   -0.4512 C   0  0  2  0  0  0  0  0  0  0  0  0
   -2.2684   -0.3326   -0.0227 C   0  0  0  0  0  0  0  0  0  0  0  0
    2.3206   -0.1026   -0.1106 C   0  0  0  0  0  0  0  0  0  0  0  0
   -0.8566    1.8333    1.2646 H   0  0  0  0  0  0  0  0  0  0  0  0
   -0.1767   -1.9993    0.1174 H   0  0  0  0  0  0  0  0  0  0  0  0
    0.5569   -1.1291    1.5037 H   0  0  0  0  0  0  0  0  0  0  0  0
   -2.1237    1.3519   -1.4615 H   0  0  0  0  0  0  0  0  0  0  0  0
   -3.0095    1.7609    0.0444 H   0  0  0  0  0  0  0  0  0  0  0  0
    0.7304   -0.4686   -1.4917 H   0  0  0  0  0  0  0  0  0  0  0  0
    3.8504   -1.3056   -0.0373 H   0  0  0  0  0  0  0  0  0  0  0  0
  1  6  1  0  0  0  0
  1  9  1  0  0  0  0
  2 10  2  0  0  0  0
  3 11  1  0  0  0  0
  3 18  1  0  0  0  0
  4 11  2  0  0  0  0
  5  6  1  0  0  0  0
  5  7  1  0  0  0  0
  5 10  1  0  0  0  0
  6  8  1  0  0  0  0
  6 12  1  0  0  0  0
  7  9  1  0  0  0  0
  7 13  1  0  0  0  0
  7 14  1  0  0  0  0
  8 10  1  0  0  0  0
  8 15  1  0  0  0  0
  8 16  1  0  0  0  0
  9 11  1  0  0  0  0
  9 17  1  0  0  0  0
M  END
> <PUBCHEM_COMPOUND_CID>
15573391

> <PUBCHEM_CONFORMER_RMSD>
0.4

> <PUBCHEM_CONFORMER_DIVERSEORDER>
1
5
3
4
2

> <PUBCHEM_MMFF94_PARTIAL_CHARGES>
12
1 -0.54
10 0.58
11 0.66
18 0.5
2 -0.57
3 -0.65
4 -0.57
5 -0.59
6 0.48
7 0.3
8 0.05
9 0.34

> <PUBCHEM_EFFECTIVE_ROTOR_COUNT>
1.8

> <PUBCHEM_PHARMACOPHORE_FEATURES>
6
1 1 acceptor
1 2 acceptor
1 3 acceptor
1 4 acceptor
3 3 4 11 anion
7 1 5 6 7 8 9 10 rings

> <PUBCHEM_HEAVY_ATOM_COUNT>
11

> <PUBCHEM_ATOM_DEF_STEREO_COUNT>
2

> <PUBCHEM_ATOM_UDEF_STEREO_COUNT>
0

> <PUBCHEM_BOND_DEF_STEREO_COUNT>
0

> <PUBCHEM_BOND_UDEF_STEREO_COUNT>
0

> <PUBCHEM_ISOTOPIC_ATOM_COUNT>
0

> <PUBCHEM_COMPONENT_COUNT>
1

> <PUBCHEM_CACTVS_TAUTO_COUNT>
1

> <PUBCHEM_CONFORMER_ID>
00EDA18F00000001

> <PUBCHEM_MMFF94_ENERGY>
30.3705

> <PUBCHEM_FEATURE_SELFOVERLAP>
30.512

> <PUBCHEM_SHAPE_FINGERPRINT>
10857977 72 18261967266348648248
11769659 78 18334020496657878151
12716758 59 18339928224384165409
12897270 3 18408887372990325495
12932764 1 18342167920953610706
13024252 1 17346588707993523657
14128692 85 18263363603472147295
14325111 11 18411138052007469932
16945 1 18198895929267918033
19973954 147 18335979852449065528
20653085 51 16702299079024897381
23552423 10 18273209833004113994
2748010 2 18412542136766642084
29004967 10 16443342087297107707
3248919 1 17168142398716223012
369184 2 18334855043199860185
5084963 1 18410851075135442152

> <PUBCHEM_SHAPE_MULTIPOLES>
197.92
4.35
1.4
0.72
1.36
0.03
0.03
-0.67
-0.46
-0.24
-0.03
-0.08
-0.01
0.08

> <PUBCHEM_SHAPE_SELFOVERLAP>
418.345

> <PUBCHEM_SHAPE_VOLUME>
110.8

> <PUBCHEM_COORDINATE_TYPE>
2
5
10

$$$$

