5460171
  -OEChem-07051212473D

 63 66  0     1  0  0  0  0  0999 V2000
    3.2182   -1.7202   -1.1102 P   0  0  2  0  0  0  0  0  0  0  0  0
    1.4940    0.2310   -2.4800 P   0  0  1  0  0  0  0  0  0  0  0  0
    0.1909   -1.8251    0.8316 O   0  0  0  0  0  0  0  0  0  0  0  0
    1.7263    1.0726    0.7502 O   0  0  0  0  0  0  0  0  0  0  0  0
   -1.5445   -3.2333    3.1335 O   0  0  0  0  0  0  0  0  0  0  0  0
   -0.3049   -5.2532    1.7861 O   0  0  0  0  0  0  0  0  0  0  0  0
    2.8333   -2.6079    0.1864 O   0  0  0  0  0  0  0  0  0  0  0  0
    1.7076    1.5500   -1.5730 O   0  0  0  0  0  0  0  0  0  0  0  0
    1.7201    5.2283    0.7014 O   0  0  0  0  0  0  0  0  0  0  0  0
    2.0678    3.2615    2.6706 O   0  0  0  0  0  0  0  0  0  0  0  0
   -0.2186    3.2300    1.0053 O   0  0  0  0  0  0  0  0  0  0  0  0
    1.8195   -1.0040   -1.4890 O   0  0  0  0  0  0  0  0  0  0  0  0
    3.3987   -2.8124   -2.2897 O   0  0  0  0  0  0  0  0  0  0  0  0
   -0.1081    0.1316   -2.6822 O   0  0  0  0  0  0  0  0  0  0  0  0
    4.3744   -0.7794   -0.9352 O   0  0  0  0  0  0  0  0  0  0  0  0
    2.2814    0.2186   -3.7582 O   0  0  0  0  0  0  0  0  0  0  0  0
   -4.7346    1.1576   -2.5305 O   0  0  0  0  0  0  0  0  0  0  0  0
   -2.0109   -1.2473    0.1588 N   0  0  0  0  0  0  0  0  0  0  0  0
   -2.8869    0.8308    1.0698 N   0  0  0  0  0  0  0  0  0  0  0  0
   -3.0026   -1.1298   -1.8512 N   0  0  0  0  0  0  0  0  0  0  0  0
   -4.3231    2.0404   -0.4273 N   0  0  0  0  0  0  0  0  0  0  0  0
   -3.8287    2.8335    1.7366 N   0  0  0  0  0  0  0  0  0  0  0  0
   -1.5921   -3.1706    1.7090 C   0  0  2  0  0  0  0  0  0  0  0  0
   -0.5236   -4.0482    1.0846 C   0  0  1  0  0  0  0  0  0  0  0  0
   -1.1887   -1.7675    1.2526 C   0  0  1  0  0  0  0  0  0  0  0  0
    0.6947   -3.1415    1.1111 C   0  0  1  0  0  0  0  0  0  0  0  0
    2.0201    3.8901    0.3241 C   0  0  1  0  0  0  0  0  0  0  0  0
    1.7505   -3.5163    0.0866 C   0  0  0  0  0  0  0  0  0  0  0  0
    2.7810    3.1658    1.4380 C   0  0  2  0  0  0  0  0  0  0  0  0
    0.7315    3.1561   -0.0568 C   0  0  1  0  0  0  0  0  0  0  0  0
    2.9828    1.6941    1.0522 C   0  0  1  0  0  0  0  0  0  0  0  0
    1.0139    1.6781   -0.3360 C   0  0  2  0  0  0  0  0  0  0  0  0
   -2.7354   -0.1049    0.1290 C   0  0  0  0  0  0  0  0  0  0  0  0
   -2.2044   -1.8378   -1.0699 C   0  0  0  0  0  0  0  0  0  0  0  0
    3.6309    0.8856    2.1707 C   0  0  0  0  0  0  0  0  0  0  0  0
   -3.3345   -0.0409   -1.0952 C   0  0  0  0  0  0  0  0  0  0  0  0
   -4.1875    1.0796   -1.4372 C   0  0  0  0  0  0  0  0  0  0  0  0
   -3.7083    1.9051    0.7336 C   0  0  0  0  0  0  0  0  0  0  0  0
   -2.6015   -3.4720    1.4110 H   0  0  0  0  0  0  0  0  0  0  0  0
   -0.7937   -4.2924    0.0516 H   0  0  0  0  0  0  0  0  0  0  0  0
   -1.2420   -1.0472    2.0754 H   0  0  0  0  0  0  0  0  0  0  0  0
    1.1517   -3.1125    2.1087 H   0  0  0  0  0  0  0  0  0  0  0  0
    2.6633    3.9418   -0.5636 H   0  0  0  0  0  0  0  0  0  0  0  0
    3.7470    3.6600    1.5962 H   0  0  0  0  0  0  0  0  0  0  0  0
    2.1337   -4.5241    0.2733 H   0  0  0  0  0  0  0  0  0  0  0  0
    1.3138   -3.4975   -0.9167 H   0  0  0  0  0  0  0  0  0  0  0  0
    0.2820    3.6452   -0.9288 H   0  0  0  0  0  0  0  0  0  0  0  0
    3.6252    1.6345    0.1656 H   0  0  0  0  0  0  0  0  0  0  0  0
    0.0618    1.1439   -0.4027 H   0  0  0  0  0  0  0  0  0  0  0  0
   -2.2235   -2.6257    3.4734 H   0  0  0  0  0  0  0  0  0  0  0  0
   -1.1532   -5.7271    1.8228 H   0  0  0  0  0  0  0  0  0  0  0  0
   -1.7372   -2.7712   -1.3487 H   0  0  0  0  0  0  0  0  0  0  0  0
    2.9697    0.7948    3.0390 H   0  0  0  0  0  0  0  0  0  0  0  0
    3.8250   -0.1378    1.8318 H   0  0  0  0  0  0  0  0  0  0  0  0
    4.5790    1.3305    2.4868 H   0  0  0  0  0  0  0  0  0  0  0  0
    2.5583    5.6611    0.9373 H   0  0  0  0  0  0  0  0  0  0  0  0
    2.6738    3.0028    3.3852 H   0  0  0  0  0  0  0  0  0  0  0  0
   -1.0328    2.7942    0.7017 H   0  0  0  0  0  0  0  0  0  0  0  0
   -2.4435    0.7917    1.9814 H   0  0  0  0  0  0  0  0  0  0  0  0
    2.6579   -3.4069   -2.5316 H   0  0  0  0  0  0  0  0  0  0  0  0
   -0.4661   -0.5228   -3.3192 H   0  0  0  0  0  0  0  0  0  0  0  0
   -3.3494    2.7200    2.6230 H   0  0  0  0  0  0  0  0  0  0  0  0
   -4.3993    3.6635    1.6176 H   0  0  0  0  0  0  0  0  0  0  0  0
  1  7  1  0  0  0  0
  1 12  1  0  0  0  0
  1 13  1  0  0  0  0
  1 15  2  0  0  0  0
  2  8  1  0  0  0  0
  2 12  1  0  0  0  0
  2 14  1  0  0  0  0
  2 16  2  0  0  0  0
  3 25  1  0  0  0  0
  3 26  1  0  0  0  0
  4 31  1  0  0  0  0
  4 32  1  0  0  0  0
  5 23  1  0  0  0  0
  5 50  1  0  0  0  0
  6 24  1  0  0  0  0
  6 51  1  0  0  0  0
  7 28  1  0  0  0  0
  8 32  1  0  0  0  0
  9 27  1  0  0  0  0
  9 56  1  0  0  0  0
 10 29  1  0  0  0  0
 10 57  1  0  0  0  0
 11 30  1  0  0  0  0
 11 58  1  0  0  0  0
 13 60  1  0  0  0  0
 14 61  1  0  0  0  0
 17 37  2  0  0  0  0
 18 25  1  0  0  0  0
 18 33  1  0  0  0  0
 18 34  1  0  0  0  0
 19 33  1  0  0  0  0
 19 38  1  0  0  0  0
 19 59  1  0  0  0  0
 20 34  2  0  0  0  0
 20 36  1  0  0  0  0
 21 37  1  0  0  0  0
 21 38  2  0  0  0  0
 22 38  1  0  0  0  0
 22 62  1  0  0  0  0
 22 63  1  0  0  0  0
 23 24  1  0  0  0  0
 23 25  1  0  0  0  0
 23 39  1  0  0  0  0
 24 26  1  0  0  0  0
 24 40  1  0  0  0  0
 25 41  1  0  0  0  0
 26 28  1  0  0  0  0
 26 42  1  0  0  0  0
 27 29  1  0  0  0  0
 27 30  1  0  0  0  0
 27 43  1  0  0  0  0
 28 45  1  0  0  0  0
 28 46  1  0  0  0  0
 29 31  1  0  0  0  0
 29 44  1  0  0  0  0
 30 32  1  0  0  0  0
 30 47  1  0  0  0  0
 31 35  1  0  0  0  0
 31 48  1  0  0  0  0
 32 49  1  0  0  0  0
 33 36  2  0  0  0  0
 34 52  1  0  0  0  0
 35 53  1  0  0  0  0
 35 54  1  0  0  0  0
 35 55  1  0  0  0  0
 36 37  1  0  0  0  0
M  END
> <PUBCHEM_COMPOUND_CID>
5460171

> <PUBCHEM_CONFORMER_RMSD>
1.6

> <PUBCHEM_CONFORMER_DIVERSEORDER>
9
117
125
95
7
23
72
149
136
68
118
40
124
153
34
148
137
74
71
2
126
88
66
131
48
113
77
16
63
46
119
62
55
114
4
103
143
146
15
154
58
147
21
123
130
44
73
37
152
115
30
83
52
89
108
90
101
19
35
59
100
54
79
86
65
105
106
91
121
132
3
26
49
45
110
56
64
17
81
104
120
57
20
139
14
8
142
84
151
107
69
1
93
99
70
6
22
141
138
80
78
150
60
51
47
82
135
98
92
75
32
122
127
67
102
128
133
85
18
12
38
111
94
42
134
76
96
97
10
27
33
129
50
144
112
43
25
109
36
87
28
24
39
140
116
5
29
31
61
11
13
145
53
41

> <PUBCHEM_MMFF94_PARTIAL_CHARGES>
48
1 1.51
10 -0.68
11 -0.68
12 -0.54
13 -0.77
14 -0.77
15 -0.7
16 -0.7
17 -0.57
18 0.05
19 -0.53
2 1.51
20 -0.57
21 -0.66
22 -0.85
23 0.28
24 0.28
25 0.54
26 0.28
27 0.28
28 0.28
29 0.28
3 -0.56
30 0.28
31 0.28
32 0.56
33 -0.07
34 0.04
36 0.14
37 0.87
38 0.55
4 -0.56
5 -0.68
50 0.4
51 0.4
52 0.15
56 0.4
57 0.4
58 0.4
59 0.4
6 -0.68
60 0.5
61 0.5
62 0.4
63 0.4
7 -0.55
8 -0.55
9 -0.68

> <PUBCHEM_EFFECTIVE_ROTOR_COUNT>
10.2

> <PUBCHEM_PHARMACOPHORE_FEATURES>
25
1 10 acceptor
1 10 donor
1 11 acceptor
1 11 donor
1 13 acceptor
1 14 acceptor
1 15 acceptor
1 16 acceptor
1 17 acceptor
1 19 donor
1 21 donor
1 22 donor
1 3 acceptor
1 4 acceptor
1 5 acceptor
1 5 donor
1 6 acceptor
1 6 donor
1 9 acceptor
1 9 donor
3 18 20 34 cation
5 18 20 33 34 36 rings
5 3 23 24 25 26 rings
6 19 21 33 36 37 38 rings
6 4 27 29 30 31 32 rings

> <PUBCHEM_HEAVY_ATOM_COUNT>
38

> <PUBCHEM_ATOM_DEF_STEREO_COUNT>
9

> <PUBCHEM_ATOM_UDEF_STEREO_COUNT>
0

> <PUBCHEM_BOND_DEF_STEREO_COUNT>
0

> <PUBCHEM_BOND_UDEF_STEREO_COUNT>
0

> <PUBCHEM_ISOTOPIC_ATOM_COUNT>
0

> <PUBCHEM_COMPONENT_COUNT>
1

> <PUBCHEM_CACTVS_TAUTO_COUNT>
6

> <PUBCHEM_CONFORMER_ID>
005350CB00000009

> <PUBCHEM_MMFF94_ENERGY>
59.5272

> <PUBCHEM_FEATURE_SELFOVERLAP>
127.163

> <PUBCHEM_SHAPE_FINGERPRINT>
10032420 55 18193556903437307020
10165383 225 17626622186490147781
10675989 125 18053945335999830844
10721379 63 17621935020298358431
12107698 1 18114183016993504815
12160290 23 17842826734324802435
12633257 1 18056508143158979376
12788726 201 17904466752010608694
133893 2 17242429665096774740
14955137 171 17829595507817253123
19319366 153 18054208093482308175
20600515 1 18200866358028581598
20764821 26 18267564850065183584
21860390 5 18187942689375046212
22223350 30 18131071562630444250
35225 105 17253167332434471156
392239 28 17977401743453039282
469060 322 16263176357142233398
9981440 41 17827656750304186545

> <PUBCHEM_SHAPE_MULTIPOLES>
676.78
7.14
6.53
2.96
2.42
1.8
-1.25
-4.61
-0.89
-1.09
3.77
-0.59
0.67
3.28

> <PUBCHEM_SHAPE_SELFOVERLAP>
1412.267

> <PUBCHEM_SHAPE_VOLUME>
385.8

> <PUBCHEM_COORDINATE_TYPE>
2
5
10

$$$$

