9975065
  -OEChem-07051213072D

 57 57  0     1  0  0  0  0  0999 V2000
    2.8660    1.7500    0.0000 O   0  0  0  0  0  0  0  0  0  0  0  0
    7.1962    0.2500    0.0000 O   0  0  0  0  0  0  0  0  0  0  0  0
    3.7320   -2.7500    0.0000 O   0  0  0  0  0  0  0  0  0  0  0  0
    8.0622    1.7500    0.0000 O   0  0  0  0  0  0  0  0  0  0  0  0
    3.7320    0.2500    0.0000 C   0  0  2  0  0  0  0  0  0  0  0  0
    3.7320    1.2500    0.0000 C   0  0  1  0  0  0  0  0  0  0  0  0
    2.8660   -0.2500    0.0000 C   0  0  0  0  0  0  0  0  0  0  0  0
    4.5981    1.7500    0.0000 C   0  0  1  0  0  0  0  0  0  0  0  0
    2.8660   -1.2500    0.0000 C   0  0  1  0  0  0  0  0  0  0  0  0
    4.7320    0.2500    0.0000 C   0  0  0  0  0  0  0  0  0  0  0  0
    4.5981    2.7500    0.0000 C   0  0  0  0  0  0  0  0  0  0  0  0
    2.0000   -1.7500    0.0000 C   0  0  0  0  0  0  0  0  0  0  0  0
    5.4641    1.2500    0.0000 C   0  0  0  0  0  0  0  0  0  0  0  0
    3.7320   -1.7500    0.0000 C   0  0  0  0  0  0  0  0  0  0  0  0
    8.0622   -0.2500    0.0000 C   0  0  1  0  0  0  0  0  0  0  0  0
    8.0622   -1.2500    0.0000 C   0  0  2  0  0  0  0  0  0  0  0  0
    8.9282    0.2500    0.0000 C   0  0  0  0  0  0  0  0  0  0  0  0
    6.3301    1.7500    0.0000 C   0  0  0  0  0  0  0  0  0  0  0  0
    4.5981   -1.2500    0.0000 C   0  0  0  0  0  0  0  0  0  0  0  0
    7.1962   -1.7500    0.0000 C   0  0  0  0  0  0  0  0  0  0  0  0
    8.9282   -1.7500    0.0000 C   0  0  0  0  0  0  0  0  0  0  0  0
    7.1962    1.2500    0.0000 C   0  0  0  0  0  0  0  0  0  0  0  0
    5.4641   -1.7500    0.0000 C   0  0  0  0  0  0  0  0  0  0  0  0
    9.7942   -0.2500    0.0000 C   0  0  0  0  0  0  0  0  0  0  0  0
    6.3301   -1.2500    0.0000 C   0  0  0  0  0  0  0  0  0  0  0  0
    3.8925   -0.3489    0.0000 H   0  0  0  0  0  0  0  0  0  0  0  0
    3.7320    1.8700    0.0000 H   0  0  0  0  0  0  0  0  0  0  0  0
    2.6540    0.3326    0.0000 H   0  0  0  0  0  0  0  0  0  0  0  0
    2.2554   -0.3577    0.0000 H   0  0  0  0  0  0  0  0  0  0  0  0
    5.1350    2.0600    0.0000 H   0  0  0  0  0  0  0  0  0  0  0  0
    2.8660   -1.8700    0.0000 H   0  0  0  0  0  0  0  0  0  0  0  0
    4.7320   -0.3700    0.0000 H   0  0  0  0  0  0  0  0  0  0  0  0
    5.3520    0.2500    0.0000 H   0  0  0  0  0  0  0  0  0  0  0  0
    4.7320    0.8700    0.0000 H   0  0  0  0  0  0  0  0  0  0  0  0
    5.2181    2.7500    0.0000 H   0  0  0  0  0  0  0  0  0  0  0  0
    4.5981    3.3700    0.0000 H   0  0  0  0  0  0  0  0  0  0  0  0
    3.9781    2.7500    0.0000 H   0  0  0  0  0  0  0  0  0  0  0  0
    1.6900   -1.2131    0.0000 H   0  0  0  0  0  0  0  0  0  0  0  0
    1.4631   -2.0600    0.0000 H   0  0  0  0  0  0  0  0  0  0  0  0
    2.3100   -2.2869    0.0000 H   0  0  0  0  0  0  0  0  0  0  0  0
    5.4641    0.6300    0.0000 H   0  0  0  0  0  0  0  0  0  0  0  0
    2.8660    2.3700    0.0000 H   0  0  0  0  0  0  0  0  0  0  0  0
    8.0622    0.3700    0.0000 H   0  0  0  0  0  0  0  0  0  0  0  0
    8.0622   -1.8700    0.0000 H   0  0  0  0  0  0  0  0  0  0  0  0
    9.3267    0.7249    0.0000 H   0  0  0  0  0  0  0  0  0  0  0  0
    8.5297    0.7249    0.0000 H   0  0  0  0  0  0  0  0  0  0  0  0
    6.3301    2.3700    0.0000 H   0  0  0  0  0  0  0  0  0  0  0  0
    4.9081   -0.7131    0.0000 H   0  0  0  0  0  0  0  0  0  0  0  0
    7.1962   -2.3700    0.0000 H   0  0  0  0  0  0  0  0  0  0  0  0
    8.6182   -2.2869    0.0000 H   0  0  0  0  0  0  0  0  0  0  0  0
    9.4651   -2.0600    0.0000 H   0  0  0  0  0  0  0  0  0  0  0  0
    9.2382   -1.2131    0.0000 H   0  0  0  0  0  0  0  0  0  0  0  0
    5.4641   -2.3700    0.0000 H   0  0  0  0  0  0  0  0  0  0  0  0
    9.4842   -0.7869    0.0000 H   0  0  0  0  0  0  0  0  0  0  0  0
   10.3312   -0.5600    0.0000 H   0  0  0  0  0  0  0  0  0  0  0  0
   10.1042    0.2869    0.0000 H   0  0  0  0  0  0  0  0  0  0  0  0
    6.3301   -0.6300    0.0000 H   0  0  0  0  0  0  0  0  0  0  0  0
  6  1  1  6  0  0  0
  1 42  1  0  0  0  0
  2 15  1  0  0  0  0
  2 22  1  0  0  0  0
  3 14  2  0  0  0  0
  4 22  2  0  0  0  0
  5  6  1  0  0  0  0
  5  7  1  0  0  0  0
  5 10  1  1  0  0  0
  5 26  1  0  0  0  0
  6  8  1  0  0  0  0
  6 27  1  0  0  0  0
  7  9  1  0  0  0  0
  7 28  1  0  0  0  0
  7 29  1  0  0  0  0
  8 11  1  1  0  0  0
  8 13  1  0  0  0  0
  8 30  1  0  0  0  0
  9 12  1  6  0  0  0
  9 14  1  0  0  0  0
  9 31  1  0  0  0  0
 10 32  1  0  0  0  0
 10 33  1  0  0  0  0
 10 34  1  0  0  0  0
 11 35  1  0  0  0  0
 11 36  1  0  0  0  0
 11 37  1  0  0  0  0
 12 38  1  0  0  0  0
 12 39  1  0  0  0  0
 12 40  1  0  0  0  0
 13 18  2  0  0  0  0
 13 41  1  0  0  0  0
 14 19  1  0  0  0  0
 15 16  1  0  0  0  0
 15 17  1  6  0  0  0
 15 43  1  0  0  0  0
 16 20  1  0  0  0  0
 16 21  1  1  0  0  0
 16 44  1  0  0  0  0
 17 24  1  0  0  0  0
 17 45  1  0  0  0  0
 17 46  1  0  0  0  0
 18 22  1  0  0  0  0
 18 47  1  0  0  0  0
 19 23  2  0  0  0  0
 19 48  1  0  0  0  0
 20 25  2  0  0  0  0
 20 49  1  0  0  0  0
 21 50  1  0  0  0  0
 21 51  1  0  0  0  0
 21 52  1  0  0  0  0
 23 25  1  0  0  0  0
 23 53  1  0  0  0  0
 24 54  1  0  0  0  0
 24 55  1  0  0  0  0
 24 56  1  0  0  0  0
 25 57  1  0  0  0  0
M  END
> <PUBCHEM_COMPOUND_CID>
9975065

> <PUBCHEM_COMPOUND_CANONICALIZED>
1

> <PUBCHEM_CACTVS_COMPLEXITY>
532

> <PUBCHEM_CACTVS_HBOND_ACCEPTOR>
4

> <PUBCHEM_CACTVS_HBOND_DONOR>
1

> <PUBCHEM_CACTVS_ROTATABLE_BOND>
1

> <PUBCHEM_CACTVS_SUBSKEYS>
AAADcfB4OAAAAAAAAAAAAAAAAAAAAAAAAAAAAAAAAAAAAAAAAAAAGgAACAAADRSggAICCAAABgCIAKDSCAAAAAAgAAAICAEAAEgIFBIAIQACUAAEwAAIoYOIzMDOAAAAAAAAAAAAAAAAAAAAAAAAAAAAAA==

> <PUBCHEM_IUPAC_OPENEYE_NAME>
(3E,5S,6S,7S,9R,11E,13E,15S,16R)-16-ethyl-6-hydroxy-5,7,9,15-tetramethyl-1-oxacyclohexadeca-3,11,13-triene-2,10-dione

> <PUBCHEM_IUPAC_CAS_NAME>
(3E,5S,6S,7S,9R,11E,13E,15S,16R)-16-ethyl-6-hydroxy-5,7,9,15-tetramethyl-1-oxacyclohexadeca-3,11,13-triene-2,10-dione

> <PUBCHEM_IUPAC_NAME>
(3E,5S,6S,7S,9R,11E,13E,15S,16R)-16-ethyl-6-hydroxy-5,7,9,15-tetramethyl-1-oxacyclohexadeca-3,11,13-triene-2,10-dione

> <PUBCHEM_IUPAC_SYSTEMATIC_NAME>
(3E,5S,6S,7S,9R,11E,13E,15S,16R)-16-ethyl-5,7,9,15-tetramethyl-6-oxidanyl-1-oxacyclohexadeca-3,11,13-triene-2,10-dione

> <PUBCHEM_IUPAC_TRADITIONAL_NAME>
(3E,5S,6S,7S,9R,11E,13E,15S,16R)-16-ethyl-6-hydroxy-5,7,9,15-tetramethyl-1-oxacyclohexadeca-3,11,13-triene-2,10-quinone

> <PUBCHEM_IUPAC_INCHI>
InChI=1S/C21H32O4/c1-6-19-14(2)9-7-8-10-18(22)16(4)13-17(5)21(24)15(3)11-12-20(23)25-19/h7-12,14-17,19,21,24H,6,13H2,1-5H3/b9-7+,10-8+,12-11+/t14-,15-,16+,17-,19+,21+/m0/s1

> <PUBCHEM_IUPAC_INCHIKEY>
OKKXFUWPZCKUST-BLBACJNTSA-N

> <PUBCHEM_XLOGP3_AA>
4.7

> <PUBCHEM_EXACT_MASS>
348.23006

> <PUBCHEM_MOLECULAR_FORMULA>
C21H32O4

> <PUBCHEM_MOLECULAR_WEIGHT>
348.47638

> <PUBCHEM_OPENEYE_CAN_SMILES>
CCC1C(C=CC=CC(=O)C(CC(C(C(C=CC(=O)O1)C)O)C)C)C

> <PUBCHEM_OPENEYE_ISO_SMILES>
CC[C@@H]1[C@H](/C=C/C=C/C(=O)[C@@H](C[C@@H]([C@@H]([C@H](/C=C/C(=O)O1)C)O)C)C)C

> <PUBCHEM_CACTVS_TPSA>
63.6

> <PUBCHEM_MONOISOTOPIC_WEIGHT>
348.23006

> <PUBCHEM_TOTAL_CHARGE>
0

> <PUBCHEM_HEAVY_ATOM_COUNT>
25

> <PUBCHEM_ATOM_DEF_STEREO_COUNT>
6

> <PUBCHEM_ATOM_UDEF_STEREO_COUNT>
0

> <PUBCHEM_BOND_DEF_STEREO_COUNT>
3

> <PUBCHEM_BOND_UDEF_STEREO_COUNT>
0

> <PUBCHEM_ISOTOPIC_ATOM_COUNT>
0

> <PUBCHEM_COMPONENT_COUNT>
1

> <PUBCHEM_CACTVS_TAUTO_COUNT>
7

> <PUBCHEM_COORDINATE_TYPE>
1
5
255

> <PUBCHEM_BONDANNOTATIONS>
6  1  6
15  17  6
16  21  5
5  10  5
8  11  5
9  12  6

$$$$

