439376
  -OEChem-07051212452D

 21 20  0     1  0  0  0  0  0999 V2000
    2.5369    1.0600    0.0000 O   0  0  0  0  0  0  0  0  0  0  0  0
    3.4030    2.5600    0.0000 O   0  0  0  0  0  0  0  0  0  0  0  0
    2.5369   -1.9400    0.0000 O   0  0  0  0  0  0  0  0  0  0  0  0
    4.2690   -1.9400    0.0000 O   0  0  0  0  0  0  0  0  0  0  0  0
    6.8671    1.5600    0.0000 O   0  0  0  0  0  0  0  0  0  0  0  0
    5.1350    1.5600    0.0000 N   0  0  0  0  0  0  0  0  0  0  0  0
    4.2690    0.0600    0.0000 C   0  0  0  0  0  0  0  0  0  0  0  0
    4.2690    1.0600    0.0000 C   0  0  1  0  0  0  0  0  0  0  0  0
    3.4030   -0.4400    0.0000 C   0  0  0  0  0  0  0  0  0  0  0  0
    3.4030    1.5600    0.0000 C   0  0  0  0  0  0  0  0  0  0  0  0
    3.4030   -1.4400    0.0000 C   0  0  0  0  0  0  0  0  0  0  0  0
    6.0010    1.0600    0.0000 C   0  0  0  0  0  0  0  0  0  0  0  0
    4.4810   -0.5226    0.0000 H   0  0  0  0  0  0  0  0  0  0  0  0
    4.8796    0.1677    0.0000 H   0  0  0  0  0  0  0  0  0  0  0  0
    4.2690    1.6800    0.0000 H   0  0  0  0  0  0  0  0  0  0  0  0
    3.1909    0.1426    0.0000 H   0  0  0  0  0  0  0  0  0  0  0  0
    2.7924   -0.5477    0.0000 H   0  0  0  0  0  0  0  0  0  0  0  0
    5.1350    2.1800    0.0000 H   0  0  0  0  0  0  0  0  0  0  0  0
    6.0010    0.4400    0.0000 H   0  0  0  0  0  0  0  0  0  0  0  0
    2.0000    1.3700    0.0000 H   0  0  0  0  0  0  0  0  0  0  0  0
    2.5369   -2.5600    0.0000 H   0  0  0  0  0  0  0  0  0  0  0  0
  1 10  1  0  0  0  0
  1 20  1  0  0  0  0
  2 10  2  0  0  0  0
  3 11  1  0  0  0  0
  3 21  1  0  0  0  0
  4 11  2  0  0  0  0
  5 12  2  0  0  0  0
  8  6  1  1  0  0  0
  6 12  1  0  0  0  0
  6 18  1  0  0  0  0
  7  8  1  0  0  0  0
  7  9  1  0  0  0  0
  7 13  1  0  0  0  0
  7 14  1  0  0  0  0
  8 10  1  0  0  0  0
  8 15  1  0  0  0  0
  9 11  1  0  0  0  0
  9 16  1  0  0  0  0
  9 17  1  0  0  0  0
 12 19  1  0  0  0  0
M  END
> <PUBCHEM_COMPOUND_CID>
439376

> <PUBCHEM_COMPOUND_CANONICALIZED>
1

> <PUBCHEM_CACTVS_COMPLEXITY>
190

> <PUBCHEM_CACTVS_HBOND_ACCEPTOR>
5

> <PUBCHEM_CACTVS_HBOND_DONOR>
3

> <PUBCHEM_CACTVS_ROTATABLE_BOND>
5

> <PUBCHEM_CACTVS_SUBSKEYS>
AAADccBiOAAAAAAAAAAAAAAAAAAAAAAAAAAAAAAAAAAAAAAAAAAAHgAQCAAACCjBgAYACALAAgAIAACQmAAAAAAAAAAAAIGIAAACABIAgCAEQAAEFgAQAACsJgAAAAAAAAAAAAAAAAAAAAAAAAAAAAAAAA==

> <PUBCHEM_IUPAC_OPENEYE_NAME>
(2S)-2-formamidopentanedioic acid

> <PUBCHEM_IUPAC_CAS_NAME>
(2S)-2-formamidopentanedioic acid

> <PUBCHEM_IUPAC_NAME>
(2S)-2-formamidopentanedioic acid

> <PUBCHEM_IUPAC_SYSTEMATIC_NAME>
(2S)-2-formamidopentanedioic acid

> <PUBCHEM_IUPAC_TRADITIONAL_NAME>
(2S)-2-formamidoglutaric acid

> <PUBCHEM_IUPAC_INCHI>
InChI=1S/C6H9NO5/c8-3-7-4(6(11)12)1-2-5(9)10/h3-4H,1-2H2,(H,7,8)(H,9,10)(H,11,12)/t4-/m0/s1

> <PUBCHEM_IUPAC_INCHIKEY>
ADZLWSMFHHHOBV-BYPYZUCNSA-N

> <PUBCHEM_XLOGP3_AA>
-1

> <PUBCHEM_EXACT_MASS>
175.048072

> <PUBCHEM_MOLECULAR_FORMULA>
C6H9NO5

> <PUBCHEM_MOLECULAR_WEIGHT>
175.13936

> <PUBCHEM_OPENEYE_CAN_SMILES>
C(CC(=O)O)C(C(=O)O)NC=O

> <PUBCHEM_OPENEYE_ISO_SMILES>
C(CC(=O)O)[C@@H](C(=O)O)NC=O

> <PUBCHEM_CACTVS_TPSA>
104

> <PUBCHEM_MONOISOTOPIC_WEIGHT>
175.048072

> <PUBCHEM_TOTAL_CHARGE>
0

> <PUBCHEM_HEAVY_ATOM_COUNT>
12

> <PUBCHEM_ATOM_DEF_STEREO_COUNT>
1

> <PUBCHEM_ATOM_UDEF_STEREO_COUNT>
0

> <PUBCHEM_BOND_DEF_STEREO_COUNT>
0

> <PUBCHEM_BOND_UDEF_STEREO_COUNT>
0

> <PUBCHEM_ISOTOPIC_ATOM_COUNT>
0

> <PUBCHEM_COMPONENT_COUNT>
1

> <PUBCHEM_CACTVS_TAUTO_COUNT>
2

> <PUBCHEM_COORDINATE_TYPE>
1
5
255

> <PUBCHEM_BONDANNOTATIONS>
8  6  5

$$$$

