24892783
  -OEChem-07051213083D

 56 58  0     1  0  0  0  0  0999 V2000
    1.4960    3.3003    0.3244 P   0  0  2  0  0  0  0  0  0  0  0  0
   -0.8913    2.3522   -1.1099 P   0  0  0  0  0  0  0  0  0  0  0  0
    2.9632   -0.3549    1.1183 O   0  0  0  0  0  0  0  0  0  0  0  0
    4.5237   -2.5607   -1.2645 O   0  0  0  0  0  0  0  0  0  0  0  0
    5.8564   -1.1372    0.6766 O   0  0  0  0  0  0  0  0  0  0  0  0
    2.7395    2.4284    0.8833 O   0  0  0  0  0  0  0  0  0  0  0  0
    0.6128    2.2482   -0.5282 O   0  0  0  0  0  0  0  0  0  0  0  0
    2.1469    4.2468   -0.8148 O   0  0  0  0  0  0  0  0  0  0  0  0
    0.7235    4.0407    1.3774 O   0  0  0  0  0  0  0  0  0  0  0  0
   -1.7989    2.4010    0.2266 O   0  0  0  0  0  0  0  0  0  0  0  0
   -1.1664    0.8731   -1.7002 O   0  0  0  0  0  0  0  0  0  0  0  0
   -1.1126    3.4791   -2.0751 O   0  0  0  0  0  0  0  0  0  0  0  0
   -4.9746    2.2234    0.1059 O   0  0  0  0  0  0  0  0  0  0  0  0
    1.5944   -1.9825   -0.0805 N   0  0  0  0  0  0  0  0  0  0  0  0
   -0.0071   -2.9000   -1.3308 N   0  0  0  0  0  0  0  0  0  0  0  0
    0.2352   -0.9615    1.6546 N   0  0  0  0  0  0  0  0  0  0  0  0
   -2.9448   -2.6336   -0.5918 N   0  0  0  0  0  0  0  0  0  0  0  0
   -2.1404   -1.3732    1.2766 N   0  0  0  0  0  0  0  0  0  0  0  0
    3.9450   -1.3635   -0.7848 C   0  0  2  0  0  0  0  0  0  0  0  0
    4.9594   -0.4199   -0.1700 C   0  0  1  0  0  0  0  0  0  0  0  0
    2.9803   -1.5910    0.3746 C   0  0  1  0  0  0  0  0  0  0  0  0
    4.0845    0.4615    0.7122 C   0  0  1  0  0  0  0  0  0  0  0  0
    3.5444    1.6852   -0.0152 C   0  0  0  0  0  0  0  0  0  0  0  0
    0.4131   -1.6725    0.5309 C   0  0  0  0  0  0  0  0  0  0  0  0
    1.2901   -2.7198   -1.1941 C   0  0  0  0  0  0  0  0  0  0  0  0
   -0.5673   -2.2508   -0.2594 C   0  0  0  0  0  0  0  0  0  0  0  0
   -1.8861   -2.0811    0.1497 C   0  0  0  0  0  0  0  0  0  0  0  0
   -1.0796   -0.8650    1.9491 C   0  0  0  0  0  0  0  0  0  0  0  0
   -4.3201   -2.4898   -0.2168 C   0  0  0  0  0  0  0  0  0  0  0  0
   -4.7957   -1.1298   -0.6251 C   0  0  0  0  0  0  0  0  0  0  0  0
   -5.2709   -0.1506    0.1688 C   0  0  0  0  0  0  0  0  0  0  0  0
   -5.7394    1.1516   -0.4305 C   0  0  0  0  0  0  0  0  0  0  0  0
   -5.4133   -0.2542    1.6625 C   0  0  0  0  0  0  0  0  0  0  0  0
    3.4380   -0.8640   -1.6198 H   0  0  0  0  0  0  0  0  0  0  0  0
    5.5559    0.1200   -0.9108 H   0  0  0  0  0  0  0  0  0  0  0  0
    3.2923   -2.4080    1.0365 H   0  0  0  0  0  0  0  0  0  0  0  0
    4.5943    0.7721    1.6313 H   0  0  0  0  0  0  0  0  0  0  0  0
    2.9477    1.3891   -0.8835 H   0  0  0  0  0  0  0  0  0  0  0  0
    4.3630    2.3262   -0.3568 H   0  0  0  0  0  0  0  0  0  0  0  0
    5.1992   -2.3157   -1.9195 H   0  0  0  0  0  0  0  0  0  0  0  0
    6.4623   -0.4887    1.0743 H   0  0  0  0  0  0  0  0  0  0  0  0
    2.0393   -3.1088   -1.8688 H   0  0  0  0  0  0  0  0  0  0  0  0
   -1.3205   -0.3027    2.8449 H   0  0  0  0  0  0  0  0  0  0  0  0
   -2.7119   -3.1433   -1.4368 H   0  0  0  0  0  0  0  0  0  0  0  0
   -4.4636   -2.7235    0.8406 H   0  0  0  0  0  0  0  0  0  0  0  0
   -4.9127   -3.2298   -0.7675 H   0  0  0  0  0  0  0  0  0  0  0  0
    1.5989    4.9580   -1.2099 H   0  0  0  0  0  0  0  0  0  0  0  0
   -4.7571   -0.9415   -1.6980 H   0  0  0  0  0  0  0  0  0  0  0  0
   -6.7949    1.3178   -0.1899 H   0  0  0  0  0  0  0  0  0  0  0  0
   -5.6311    1.1692   -1.5201 H   0  0  0  0  0  0  0  0  0  0  0  0
   -4.7613    0.4743    2.1557 H   0  0  0  0  0  0  0  0  0  0  0  0
   -6.4474   -0.0416    1.9547 H   0  0  0  0  0  0  0  0  0  0  0  0
   -5.1649   -1.2365    2.0668 H   0  0  0  0  0  0  0  0  0  0  0  0
   -2.7649    2.5464    0.1397 H   0  0  0  0  0  0  0  0  0  0  0  0
   -2.0063    0.6996   -2.1762 H   0  0  0  0  0  0  0  0  0  0  0  0
   -5.3162    3.0436   -0.2892 H   0  0  0  0  0  0  0  0  0  0  0  0
  1  6  1  0  0  0  0
  1  7  1  0  0  0  0
  1  8  1  0  0  0  0
  1  9  2  0  0  0  0
  2  7  1  0  0  0  0
  2 10  1  0  0  0  0
  2 11  1  0  0  0  0
  2 12  2  0  0  0  0
  3 21  1  0  0  0  0
  3 22  1  0  0  0  0
  4 19  1  0  0  0  0
  4 40  1  0  0  0  0
  5 20  1  0  0  0  0
  5 41  1  0  0  0  0
  6 23  1  0  0  0  0
  8 47  1  0  0  0  0
 10 54  1  0  0  0  0
 11 55  1  0  0  0  0
 13 32  1  0  0  0  0
 13 56  1  0  0  0  0
 14 21  1  0  0  0  0
 14 24  1  0  0  0  0
 14 25  1  0  0  0  0
 15 25  2  0  0  0  0
 15 26  1  0  0  0  0
 16 24  2  0  0  0  0
 16 28  1  0  0  0  0
 17 27  1  0  0  0  0
 17 29  1  0  0  0  0
 17 44  1  0  0  0  0
 18 27  1  0  0  0  0
 18 28  2  0  0  0  0
 19 20  1  0  0  0  0
 19 21  1  0  0  0  0
 19 34  1  0  0  0  0
 20 22  1  0  0  0  0
 20 35  1  0  0  0  0
 21 36  1  0  0  0  0
 22 23  1  0  0  0  0
 22 37  1  0  0  0  0
 23 38  1  0  0  0  0
 23 39  1  0  0  0  0
 24 26  1  0  0  0  0
 25 42  1  0  0  0  0
 26 27  2  0  0  0  0
 28 43  1  0  0  0  0
 29 30  1  0  0  0  0
 29 45  1  0  0  0  0
 29 46  1  0  0  0  0
 30 31  2  0  0  0  0
 30 48  1  0  0  0  0
 31 32  1  0  0  0  0
 31 33  1  0  0  0  0
 32 49  1  0  0  0  0
 32 50  1  0  0  0  0
 33 51  1  0  0  0  0
 33 52  1  0  0  0  0
 33 53  1  0  0  0  0
M  END
> <PUBCHEM_COMPOUND_CID>
24892783

> <PUBCHEM_CONFORMER_RMSD>
1

> <PUBCHEM_CONFORMER_DIVERSEORDER>
5
114
116
11
7
132
61
83
44
14
46
129
92
89
133
86
10
110
93
35
77
113
36
134
59
122
118
29
109
117
78
119
94
20
81
42
22
120
101
32
130
52
91
103
37
79
70
87
8
75
96
23
102
108
126
12
84
26
62
31
128
85
2
17
107
127
115
41
54
4
9
53
69
106
73
63
58
55
25
16
49
72
66
123
71
90
105
67
15
125
121
64
57
112
47
68
50
56
82
43
34
99
19
6
27
40
88
38
98
104
21
111
100
124
60
76
28
51
65
39
18
13
3
97
30
45
24
74
80
95
33
131
48
1

> <PUBCHEM_MMFF94_PARTIAL_CHARGES>
43
1 1.51
10 -0.77
11 -0.77
12 -0.7
13 -0.68
14 0.05
15 -0.57
16 -0.57
17 -0.87
18 -0.62
19 0.28
2 1.51
20 0.28
21 0.54
22 0.28
23 0.28
24 0.11
25 0.04
26 0.23
27 0.41
28 0.47
29 0.51
3 -0.56
30 -0.29
31 -0.28
32 0.42
33 0.14
4 -0.68
40 0.4
41 0.4
42 0.15
43 0.15
44 0.4
47 0.5
48 0.15
5 -0.68
54 0.5
55 0.5
56 0.4
6 -0.55
7 -0.54
8 -0.77
9 -0.7

> <PUBCHEM_EFFECTIVE_ROTOR_COUNT>
11

> <PUBCHEM_PHARMACOPHORE_FEATURES>
22
1 10 acceptor
1 11 acceptor
1 12 acceptor
1 13 acceptor
1 13 donor
1 17 cation
1 17 donor
1 3 acceptor
1 33 hydrophobe
1 4 acceptor
1 4 donor
1 5 acceptor
1 5 donor
1 8 acceptor
1 9 acceptor
3 14 15 25 cation
3 14 16 24 cation
3 16 18 28 cation
4 2 10 11 12 anion
5 14 15 24 25 26 rings
5 3 19 20 21 22 rings
6 16 18 24 26 27 28 rings

> <PUBCHEM_HEAVY_ATOM_COUNT>
33

> <PUBCHEM_ATOM_DEF_STEREO_COUNT>
4

> <PUBCHEM_ATOM_UDEF_STEREO_COUNT>
0

> <PUBCHEM_BOND_DEF_STEREO_COUNT>
1

> <PUBCHEM_BOND_UDEF_STEREO_COUNT>
0

> <PUBCHEM_ISOTOPIC_ATOM_COUNT>
0

> <PUBCHEM_COMPONENT_COUNT>
1

> <PUBCHEM_CACTVS_TAUTO_COUNT>
3

> <PUBCHEM_CONFORMER_ID>
017BD56F00000005

> <PUBCHEM_MMFF94_ENERGY>
14.5169

> <PUBCHEM_FEATURE_SELFOVERLAP>
112.3

> <PUBCHEM_SHAPE_FINGERPRINT>
10006869 2 18051705631119772255
10864689 126 17979356691943214221
11513181 2 18115303345900542510
11578080 2 17606141506158796752
12156800 1 16893917657988905380
12422481 6 18267328476529797952
13402501 40 18411983602118910660
14251764 38 18268429032208945005
14725015 67 18270694176386019928
1601671 61 18408887334415072427
18769570 83 18201439211733384635
20567600 299 18190182282617616713
20715895 44 18261111885215725315
20764821 26 18193542583762829172
23559900 14 17821725052893343426
338550 245 18342736286877214525
3493558 16 18041268972074727273
4144715 1 18270954644551747907
469060 322 16844717772430720183
5265222 85 17334202434656205284
550186 83 17917168125134456552

> <PUBCHEM_SHAPE_MULTIPOLES>
597.36
11.22
4.98
1.5
5.94
4.41
-0.09
-2
-0.87
-1.41
1.34
0.36
0.2
0.85

> <PUBCHEM_SHAPE_SELFOVERLAP>
1222.923

> <PUBCHEM_SHAPE_VOLUME>
347.4

> <PUBCHEM_COORDINATE_TYPE>
2
5
10

$$$$

