4081
  -OEChem-06251223523D

 52 55  0     1  0  0  0  0  0999 V2000
   -3.7782    0.9929   -0.2299 S   0  0  0  0  0  0  0  0  0  0  0  0
   -4.2983    0.7881   -1.5762 O   0  0  0  0  0  0  0  0  0  0  0  0
   -2.7507    2.0029   -0.0086 O   0  0  0  0  0  0  0  0  0  0  0  0
   -0.3287   -2.8579   -0.7158 N   0  0  2  0  0  0  0  0  0  0  0  0
    4.3165    0.5019    1.1679 N   0  0  0  0  0  0  0  0  0  0  0  0
   -5.0972    1.2992    0.8349 N   0  0  0  0  0  0  0  0  0  0  0  0
    0.3914   -0.5058   -1.1450 C   0  0  1  0  0  0  0  0  0  0  0  0
    0.8215   -1.9375   -0.6211 C   0  0  1  0  0  0  0  0  0  0  0  0
   -0.8405    0.0049   -0.3846 C   0  0  0  0  0  0  0  0  0  0  0  0
   -1.9761   -1.0215   -0.4484 C   0  0  1  0  0  0  0  0  0  0  0  0
   -1.5019   -2.4003    0.0359 C   0  0  0  0  0  0  0  0  0  0  0  0
    1.5427   -1.9253    0.7841 C   0  0  0  0  0  0  0  0  0  0  0  0
    1.5320    0.4824   -1.0269 C   0  0  0  0  0  0  0  0  0  0  0  0
    2.5093    0.2322   -0.0582 C   0  0  0  0  0  0  0  0  0  0  0  0
    2.5923   -0.8647    0.8226 C   0  0  0  0  0  0  0  0  0  0  0  0
   -3.1767   -0.5464    0.3688 C   0  0  0  0  0  0  0  0  0  0  0  0
    3.5810    1.0774    0.1544 C   0  0  0  0  0  0  0  0  0  0  0  0
    0.0093   -4.2368   -0.3745 C   0  0  0  0  0  0  0  0  0  0  0  0
    1.6739    1.6518   -1.7807 C   0  0  0  0  0  0  0  0  0  0  0  0
    3.7243   -0.6758    1.5803 C   0  0  0  0  0  0  0  0  0  0  0  0
    3.7420    2.2447   -0.5933 C   0  0  0  0  0  0  0  0  0  0  0  0
    2.7619    2.5117   -1.5656 C   0  0  0  0  0  0  0  0  0  0  0  0
    5.5360    1.0414    1.7295 C   0  0  0  0  0  0  0  0  0  0  0  0
   -6.2020    0.3086    0.8663 C   0  0  0  0  0  0  0  0  0  0  0  0
   -4.7838    1.8322    2.1842 C   0  0  0  0  0  0  0  0  0  0  0  0
    0.1397   -0.6060   -2.2107 H   0  0  0  0  0  0  0  0  0  0  0  0
    1.5738   -2.2944   -1.3423 H   0  0  0  0  0  0  0  0  0  0  0  0
   -0.5915    0.2507    0.6553 H   0  0  0  0  0  0  0  0  0  0  0  0
   -1.1064    0.9277   -0.9000 H   0  0  0  0  0  0  0  0  0  0  0  0
   -2.2848   -1.1196   -1.4990 H   0  0  0  0  0  0  0  0  0  0  0  0
   -1.2977   -2.3770    1.1137 H   0  0  0  0  0  0  0  0  0  0  0  0
   -2.3253   -3.1112   -0.1118 H   0  0  0  0  0  0  0  0  0  0  0  0
    2.0072   -2.8988    0.9775 H   0  0  0  0  0  0  0  0  0  0  0  0
    0.8241   -1.7311    1.5879 H   0  0  0  0  0  0  0  0  0  0  0  0
   -2.9050   -0.4198    1.4214 H   0  0  0  0  0  0  0  0  0  0  0  0
   -3.9865   -1.2783    0.2942 H   0  0  0  0  0  0  0  0  0  0  0  0
    0.8811   -4.5772   -0.9441 H   0  0  0  0  0  0  0  0  0  0  0  0
   -0.8163   -4.9063   -0.6412 H   0  0  0  0  0  0  0  0  0  0  0  0
    0.2165   -4.3688    0.6928 H   0  0  0  0  0  0  0  0  0  0  0  0
    0.9379    1.9031   -2.5400 H   0  0  0  0  0  0  0  0  0  0  0  0
    4.1601   -1.2715    2.3712 H   0  0  0  0  0  0  0  0  0  0  0  0
    4.5767    2.9187   -0.4380 H   0  0  0  0  0  0  0  0  0  0  0  0
    2.8494    3.4138   -2.1674 H   0  0  0  0  0  0  0  0  0  0  0  0
    5.9024    0.3784    2.5173 H   0  0  0  0  0  0  0  0  0  0  0  0
    6.2788    1.1155    0.9313 H   0  0  0  0  0  0  0  0  0  0  0  0
    5.3158    2.0273    2.1466 H   0  0  0  0  0  0  0  0  0  0  0  0
   -5.9594   -0.5245    1.5319 H   0  0  0  0  0  0  0  0  0  0  0  0
   -6.4081   -0.0747   -0.1368 H   0  0  0  0  0  0  0  0  0  0  0  0
   -7.1163    0.7934    1.2228 H   0  0  0  0  0  0  0  0  0  0  0  0
   -4.3153    1.0632    2.8043 H   0  0  0  0  0  0  0  0  0  0  0  0
   -5.7028    2.1692    2.6744 H   0  0  0  0  0  0  0  0  0  0  0  0
   -4.1217    2.6989    2.1091 H   0  0  0  0  0  0  0  0  0  0  0  0
  1  2  2  0  0  0  0
  1  3  2  0  0  0  0
  1  6  1  0  0  0  0
  1 16  1  0  0  0  0
  4  8  1  0  0  0  0
  4 11  1  0  0  0  0
  4 18  1  0  0  0  0
  5 17  1  0  0  0  0
  5 20  1  0  0  0  0
  5 23  1  0  0  0  0
  6 24  1  0  0  0  0
  6 25  1  0  0  0  0
  7  8  1  0  0  0  0
  7  9  1  0  0  0  0
  7 13  1  0  0  0  0
  7 26  1  0  0  0  0
  8 12  1  0  0  0  0
  8 27  1  0  0  0  0
  9 10  1  0  0  0  0
  9 28  1  0  0  0  0
  9 29  1  0  0  0  0
 10 11  1  0  0  0  0
 10 16  1  0  0  0  0
 10 30  1  0  0  0  0
 11 31  1  0  0  0  0
 11 32  1  0  0  0  0
 12 15  1  0  0  0  0
 12 33  1  0  0  0  0
 12 34  1  0  0  0  0
 13 14  2  0  0  0  0
 13 19  1  0  0  0  0
 14 15  1  0  0  0  0
 14 17  1  0  0  0  0
 15 20  2  0  0  0  0
 16 35  1  0  0  0  0
 16 36  1  0  0  0  0
 17 21  2  0  0  0  0
 18 37  1  0  0  0  0
 18 38  1  0  0  0  0
 18 39  1  0  0  0  0
 19 22  2  0  0  0  0
 19 40  1  0  0  0  0
 20 41  1  0  0  0  0
 21 22  1  0  0  0  0
 21 42  1  0  0  0  0
 22 43  1  0  0  0  0
 23 44  1  0  0  0  0
 23 45  1  0  0  0  0
 23 46  1  0  0  0  0
 24 47  1  0  0  0  0
 24 48  1  0  0  0  0
 24 49  1  0  0  0  0
 25 50  1  0  0  0  0
 25 51  1  0  0  0  0
 25 52  1  0  0  0  0
M  END
> <PUBCHEM_COMPOUND_CID>
4081

> <PUBCHEM_CONFORMER_RMSD>
0.8

> <PUBCHEM_CONFORMER_DIVERSEORDER>
3
32
16
31
50
42
9
22
29
36
49
45
44
52
27
35
38
20
56
11
8
18
15
54
55
39
17
14
47
2
10
43
7
30
28
23
57
4
26
19
53
5
40
46
21
12
33
48
41
1
24
6
25
34
13
51
58
37

> <PUBCHEM_MMFF94_PARTIAL_CHARGES>
26
1 1.33
11 0.27
12 0.18
13 -0.14
15 -0.18
16 0.11
17 -0.15
18 0.27
19 -0.15
2 -0.65
20 -0.3
21 -0.15
22 -0.15
23 0.26
24 0.36
25 0.36
3 -0.65
4 -0.81
40 0.15
41 0.15
42 0.15
43 0.15
5 0.05
6 -0.85
7 0.14
8 0.27

> <PUBCHEM_EFFECTIVE_ROTOR_COUNT>
4

> <PUBCHEM_PHARMACOPHORE_FEATURES>
8
1 2 acceptor
1 3 acceptor
1 4 cation
1 5 cation
5 5 14 15 17 20 rings
6 13 14 17 19 21 22 rings
6 4 7 8 9 10 11 rings
6 7 8 12 13 14 15 rings

> <PUBCHEM_HEAVY_ATOM_COUNT>
25

> <PUBCHEM_ATOM_DEF_STEREO_COUNT>
0

> <PUBCHEM_ATOM_UDEF_STEREO_COUNT>
3

> <PUBCHEM_BOND_DEF_STEREO_COUNT>
0

> <PUBCHEM_BOND_UDEF_STEREO_COUNT>
0

> <PUBCHEM_ISOTOPIC_ATOM_COUNT>
0

> <PUBCHEM_COMPONENT_COUNT>
1

> <PUBCHEM_CACTVS_TAUTO_COUNT>
1

> <PUBCHEM_CONFORMER_ID>
00000FF100000003

> <PUBCHEM_MMFF94_ENERGY>
59.3492

> <PUBCHEM_FEATURE_SELFOVERLAP>
40.887

> <PUBCHEM_SHAPE_FINGERPRINT>
10498660 4 15936408979005047609
10674148 151 18341599380166639316
10692045 39 18042132110410028458
10928967 22 10447922846184210857
11640471 11 18335703827516646207
11720765 8 16157060196406240420
11725454 13 16950859024175310842
11796584 16 13397258420172199992
12035758 1 18193289696437419034
12107183 9 18411428319420786410
12422481 6 18130237076180242360
12633257 1 17489305261138286531
12788726 201 17904763280420852623
12978246 48 18342175574733720337
13140716 1 18058742282220065356
13540713 5 17913777111673946870
13583140 156 17060070267341144039
13965767 371 18341051929473282840
14178342 30 18196670501324200298
14341114 328 18343013363944278081
14739800 52 17758406180084207624
14955137 171 18131629002709633208
15183329 4 10159703478644809579
15188451 53 15410889631630526641
15210252 30 5400505888348456307
15238133 3 18261391114214826976
15475509 8 18341319060287763052
15842332 3 17771064891650052550
1601671 61 18272650186418516454
19377110 9 18335133186284236691
19784866 140 8790608143002598848
1979834 28 18270103730363199125
20157964 124 18341336708176597869
20715895 44 18055363689321128157
20739085 24 18198058282176136758
21033648 29 18114756936377770522
21033650 10 17604414207255497492
21049683 271 17977649133395956182
21427221 339 18272375226722622694
221357 26 8142084235290425107
22149856 69 18189872337452604027
22182313 1 17985285198853297918
23184049 59 18201451297818529654
235170 7 14851606587631220033
23559900 14 18188195568623141534
23569917 315 18408888421285346767
23622692 88 18201726149923949908
25147074 1 17915184503616115102
2748010 2 17767719361519635454
2838139 119 16515983483866642616
2871803 45 8070024480314351842
3472631 163 17385450890474270073
38570 142 17558242381775525460
427121 178 18113898290446754906
474 4 18337105761188234423
5104073 3 17986121712564589880
633830 44 18114174276713724615
7064713 232 18409737222712169616
7097593 13 18129677317835830338
7808743 9 18192988219254334380
960060 61 7925625567057702985
9981440 41 18410013243386558299

> <PUBCHEM_SHAPE_MULTIPOLES>
491.66
10.99
3.37
1.67
9.35
3.01
0.33
-8.26
6.17
-0.18
-0.77
-0.44
-0.82
-1.58

> <PUBCHEM_SHAPE_SELFOVERLAP>
1043.541

> <PUBCHEM_SHAPE_VOLUME>
279.1

> <PUBCHEM_COORDINATE_TYPE>
2
5
10

$$$$

