5280866
  -OEChem-07051212513D

 47 47  0     0  0  0  0  0  0999 V2000
    8.7228    1.1169   -0.6144 O   0  0  0  0  0  0  0  0  0  0  0  0
   -4.5579   -0.8653   -0.3816 C   0  0  0  0  0  0  0  0  0  0  0  0
   -5.6566   -0.0407   -1.1236 C   0  0  0  0  0  0  0  0  0  0  0  0
   -3.4179    0.0473    0.1361 C   0  0  0  0  0  0  0  0  0  0  0  0
   -4.0754   -1.9414   -1.3834 C   0  0  0  0  0  0  0  0  0  0  0  0
   -5.1971   -1.5808    0.8311 C   0  0  0  0  0  0  0  0  0  0  0  0
   -3.6381    1.3631    0.3829 C   0  0  0  0  0  0  0  0  0  0  0  0
   -5.9065    1.3076   -0.5281 C   0  0  0  0  0  0  0  0  0  0  0  0
   -4.9598    1.9393    0.1738 C   0  0  0  0  0  0  0  0  0  0  0  0
   -2.1359   -0.5881    0.3739 C   0  0  0  0  0  0  0  0  0  0  0  0
   -2.6431    2.3583    0.9238 C   0  0  0  0  0  0  0  0  0  0  0  0
   -0.9612    0.0005    0.0964 C   0  0  0  0  0  0  0  0  0  0  0  0
    0.3672   -0.5759    0.3068 C   0  0  0  0  0  0  0  0  0  0  0  0
    0.4362   -1.9685    0.8912 C   0  0  0  0  0  0  0  0  0  0  0  0
    1.5241    0.0560    0.0116 C   0  0  0  0  0  0  0  0  0  0  0  0
    2.8848   -0.4230    0.1802 C   0  0  0  0  0  0  0  0  0  0  0  0
    3.9588    0.3135   -0.1571 C   0  0  0  0  0  0  0  0  0  0  0  0
    5.3598   -0.0851   -0.0247 C   0  0  0  0  0  0  0  0  0  0  0  0
    5.6440   -1.4556    0.5459 C   0  0  0  0  0  0  0  0  0  0  0  0
    6.4081    0.6855   -0.3757 C   0  0  0  0  0  0  0  0  0  0  0  0
    7.8437    0.3365   -0.2650 C   0  0  0  0  0  0  0  0  0  0  0  0
   -6.5988   -0.6035   -1.1344 H   0  0  0  0  0  0  0  0  0  0  0  0
   -5.3794    0.1136   -2.1752 H   0  0  0  0  0  0  0  0  0  0  0  0
   -3.5355   -1.4878   -2.2228 H   0  0  0  0  0  0  0  0  0  0  0  0
   -3.4101   -2.6738   -0.9132 H   0  0  0  0  0  0  0  0  0  0  0  0
   -4.9234   -2.5008   -1.7963 H   0  0  0  0  0  0  0  0  0  0  0  0
   -5.5939   -0.8661    1.5612 H   0  0  0  0  0  0  0  0  0  0  0  0
   -6.0263   -2.2251    0.5164 H   0  0  0  0  0  0  0  0  0  0  0  0
   -4.4730   -2.2172    1.3525 H   0  0  0  0  0  0  0  0  0  0  0  0
   -6.8681    1.7821   -0.6954 H   0  0  0  0  0  0  0  0  0  0  0  0
   -5.1730    2.9228    0.5812 H   0  0  0  0  0  0  0  0  0  0  0  0
   -2.1746   -1.5756    0.8228 H   0  0  0  0  0  0  0  0  0  0  0  0
   -1.8849    1.9028    1.5665 H   0  0  0  0  0  0  0  0  0  0  0  0
   -3.1346    3.1015    1.5641 H   0  0  0  0  0  0  0  0  0  0  0  0
   -2.1571    2.9014    0.1067 H   0  0  0  0  0  0  0  0  0  0  0  0
   -0.9384    0.9709   -0.3938 H   0  0  0  0  0  0  0  0  0  0  0  0
    1.4281   -2.3984    1.0208 H   0  0  0  0  0  0  0  0  0  0  0  0
   -0.1088   -2.6706    0.2484 H   0  0  0  0  0  0  0  0  0  0  0  0
   -0.0298   -1.9800    1.8838 H   0  0  0  0  0  0  0  0  0  0  0  0
    1.4495    1.0597   -0.4090 H   0  0  0  0  0  0  0  0  0  0  0  0
    3.0407   -1.4091    0.5939 H   0  0  0  0  0  0  0  0  0  0  0  0
    3.8042    1.3083   -0.5736 H   0  0  0  0  0  0  0  0  0  0  0  0
    5.1796   -2.2239   -0.0845 H   0  0  0  0  0  0  0  0  0  0  0  0
    5.2154   -1.5349    1.5524 H   0  0  0  0  0  0  0  0  0  0  0  0
    6.6851   -1.7513    0.6484 H   0  0  0  0  0  0  0  0  0  0  0  0
    6.2240    1.6757   -0.7879 H   0  0  0  0  0  0  0  0  0  0  0  0
    8.1174   -0.6434    0.1379 H   0  0  0  0  0  0  0  0  0  0  0  0
  1 21  2  0  0  0  0
  2  3  1  0  0  0  0
  2  4  1  0  0  0  0
  2  5  1  0  0  0  0
  2  6  1  0  0  0  0
  3  8  1  0  0  0  0
  3 22  1  0  0  0  0
  3 23  1  0  0  0  0
  4  7  2  0  0  0  0
  4 10  1  0  0  0  0
  5 24  1  0  0  0  0
  5 25  1  0  0  0  0
  5 26  1  0  0  0  0
  6 27  1  0  0  0  0
  6 28  1  0  0  0  0
  6 29  1  0  0  0  0
  7  9  1  0  0  0  0
  7 11  1  0  0  0  0
  8  9  2  0  0  0  0
  8 30  1  0  0  0  0
  9 31  1  0  0  0  0
 10 12  2  0  0  0  0
 10 32  1  0  0  0  0
 11 33  1  0  0  0  0
 11 34  1  0  0  0  0
 11 35  1  0  0  0  0
 12 13  1  0  0  0  0
 12 36  1  0  0  0  0
 13 14  1  0  0  0  0
 13 15  2  0  0  0  0
 14 37  1  0  0  0  0
 14 38  1  0  0  0  0
 14 39  1  0  0  0  0
 15 16  1  0  0  0  0
 15 40  1  0  0  0  0
 16 17  2  0  0  0  0
 16 41  1  0  0  0  0
 17 18  1  0  0  0  0
 17 42  1  0  0  0  0
 18 19  1  0  0  0  0
 18 20  2  0  0  0  0
 19 43  1  0  0  0  0
 19 44  1  0  0  0  0
 19 45  1  0  0  0  0
 20 21  1  0  0  0  0
 20 46  1  0  0  0  0
 21 47  1  0  0  0  0
M  END
> <PUBCHEM_COMPOUND_CID>
5280866

> <PUBCHEM_CONFORMER_RMSD>
0.8

> <PUBCHEM_CONFORMER_DIVERSEORDER>
1
14
13
12
23
3
18
10
22
5
16
6
4
11
2
15
8
20
9
21
7
17
19

> <PUBCHEM_MMFF94_PARTIAL_CHARGES>
28
1 -0.57
10 -0.15
11 0.14
12 -0.15
13 -0.14
14 0.14
15 -0.15
16 -0.15
17 -0.15
18 -0.14
19 0.14
2 0.14
20 -0.14
21 0.5
3 0.14
30 0.15
31 0.15
32 0.15
36 0.15
4 -0.14
40 0.15
41 0.15
42 0.15
46 0.15
47 0.06
7 -0.14
8 -0.29
9 -0.15

> <PUBCHEM_EFFECTIVE_ROTOR_COUNT>
5.4

> <PUBCHEM_PHARMACOPHORE_FEATURES>
5
1 1 acceptor
1 14 hydrophobe
1 19 hydrophobe
3 2 5 6 hydrophobe
6 2 3 4 7 8 9 rings

> <PUBCHEM_HEAVY_ATOM_COUNT>
21

> <PUBCHEM_ATOM_DEF_STEREO_COUNT>
0

> <PUBCHEM_ATOM_UDEF_STEREO_COUNT>
0

> <PUBCHEM_BOND_DEF_STEREO_COUNT>
4

> <PUBCHEM_BOND_UDEF_STEREO_COUNT>
0

> <PUBCHEM_ISOTOPIC_ATOM_COUNT>
0

> <PUBCHEM_COMPONENT_COUNT>
1

> <PUBCHEM_CACTVS_TAUTO_COUNT>
1

> <PUBCHEM_CONFORMER_ID>
0050946200000001

> <PUBCHEM_MMFF94_ENERGY>
61.5282

> <PUBCHEM_FEATURE_SELFOVERLAP>
25.371

> <PUBCHEM_SHAPE_FINGERPRINT>
10066227 49 17386276714898147374
10076449 9 18260268526407764079
10411042 1 17976261241159199407
10595046 47 18409731798131746402
10730089 173 18334575750219601057
11315181 36 18272369759250314829
11524674 6 15213021527073930567
12091667 2 18410009918570070291
12236239 1 18343304785833059666
13631057 29 17917147183644054835
14251764 18 18272373071086747106
14251764 46 17489870432275608075
14933364 13 18408321086411843528
15183329 4 18259704519285720186
15419008 47 17095530604148822088
1577012 14 18343866641023306418
17093844 174 15769777948944867357
18643901 69 16950570931329361231
18681886 176 18336554823725544928
18927931 339 18187644687606890831
19489759 90 18408041822984464353
20281389 69 17775006800071484212
21150785 3 18342739585817883142
21267235 1 18334296423565224007
220451 1 17821727239120887174
23081809 10 18343306985373332018
23402539 116 18410578387693467727
23466295 7 15142682405887353837
23559900 14 18187657881472306137
328310 630 17917419904870520844
335352 9 18260555533197253429
4073 2 18130782373945067906
4325135 7 18333450932549428980
445580 37 18260543442125667756

> <PUBCHEM_SHAPE_MULTIPOLES>
426.3
21.72
1.98
0.96
41.84
0.17
-0.09
5.06
-4.83
-2.55
0.28
-0.81
-0.2
-1.14

> <PUBCHEM_SHAPE_SELFOVERLAP>
859.907

> <PUBCHEM_SHAPE_VOLUME>
249.1

> <PUBCHEM_COORDINATE_TYPE>
2
5
10

$$$$

