68257
  -OEChem-07051212483D

 16 16  0     0  0  0  0  0  0999 V2000
    0.2407   -2.9668    0.0001 I   0  0  0  0  0  0  0  0  0  0  0  0
    1.8972   -0.1509    0.0000 O   0  0  0  0  0  0  0  0  0  0  0  0
    0.5528    0.0768   -0.0001 C   0  0  0  0  0  0  0  0  0  0  0  0
   -0.3706   -0.9685   -0.0001 C   0  0  0  0  0  0  0  0  0  0  0  0
    0.1094    1.3993    0.0001 C   0  0  0  0  0  0  0  0  0  0  0  0
   -1.7377   -0.6913    0.0000 C   0  0  0  0  0  0  0  0  0  0  0  0
   -1.2577    1.6765    0.0001 C   0  0  0  0  0  0  0  0  0  0  0  0
   -2.1813    0.6312   -0.0001 C   0  0  0  0  0  0  0  0  0  0  0  0
    2.7473    0.9937    0.0000 C   0  0  0  0  0  0  0  0  0  0  0  0
    0.7597    2.2669    0.0001 H   0  0  0  0  0  0  0  0  0  0  0  0
   -2.4763   -1.4890    0.0000 H   0  0  0  0  0  0  0  0  0  0  0  0
   -1.6047    2.7058    0.0001 H   0  0  0  0  0  0  0  0  0  0  0  0
   -3.2456    0.8472   -0.0001 H   0  0  0  0  0  0  0  0  0  0  0  0
    2.6273    1.5889    0.9117 H   0  0  0  0  0  0  0  0  0  0  0  0
    2.6273    1.5890   -0.9118 H   0  0  0  0  0  0  0  0  0  0  0  0
    3.7788    0.6255    0.0000 H   0  0  0  0  0  0  0  0  0  0  0  0
  1  4  1  0  0  0  0
  2  3  1  0  0  0  0
  2  9  1  0  0  0  0
  3  4  1  0  0  0  0
  3  5  2  0  0  0  0
  4  6  2  0  0  0  0
  5  7  1  0  0  0  0
  5 10  1  0  0  0  0
  6  8  1  0  0  0  0
  6 11  1  0  0  0  0
  7  8  2  0  0  0  0
  7 12  1  0  0  0  0
  8 13  1  0  0  0  0
  9 14  1  0  0  0  0
  9 15  1  0  0  0  0
  9 16  1  0  0  0  0
M  END
> <PUBCHEM_COMPOUND_CID>
68257

> <PUBCHEM_CONFORMER_RMSD>
0.4

> <PUBCHEM_CONFORMER_DIVERSEORDER>
3
1
2

> <PUBCHEM_MMFF94_PARTIAL_CHARGES>
13
1 -0.08
10 0.15
11 0.15
12 0.15
13 0.15
2 -0.36
3 0.08
4 0.08
5 -0.15
6 -0.15
7 -0.15
8 -0.15
9 0.28

> <PUBCHEM_EFFECTIVE_ROTOR_COUNT>
1

> <PUBCHEM_PHARMACOPHORE_FEATURES>
3
1 1 hydrophobe
1 2 acceptor
6 3 4 5 6 7 8 rings

> <PUBCHEM_HEAVY_ATOM_COUNT>
9

> <PUBCHEM_ATOM_DEF_STEREO_COUNT>
0

> <PUBCHEM_ATOM_UDEF_STEREO_COUNT>
0

> <PUBCHEM_BOND_DEF_STEREO_COUNT>
0

> <PUBCHEM_BOND_UDEF_STEREO_COUNT>
0

> <PUBCHEM_ISOTOPIC_ATOM_COUNT>
0

> <PUBCHEM_COMPONENT_COUNT>
1

> <PUBCHEM_CACTVS_TAUTO_COUNT>
1

> <PUBCHEM_CONFORMER_ID>
00010AA100000003

> <PUBCHEM_MMFF94_ENERGY>
31.7253

> <PUBCHEM_FEATURE_SELFOVERLAP>
15.223

> <PUBCHEM_SHAPE_FINGERPRINT>
16945 1 18050568735563472967
193761 8 17978229688208326145
20871998 184 17973435504005322014
21040471 1 18410573976704058272
23552423 10 18123466339300059863
23552449 1 17977666403294954514
241688 4 16753254038190285675
2748010 2 18411978074390395302
5084963 1 18114181942871670888

> <PUBCHEM_SHAPE_MULTIPOLES>
191.28
2.94
2.78
0.64
2.17
2.08
0
-1.24
0
-0.53
0
0.1
-0.04
0

> <PUBCHEM_SHAPE_SELFOVERLAP>
371.392

> <PUBCHEM_SHAPE_VOLUME>
119.3

> <PUBCHEM_COORDINATE_TYPE>
2
5
10

$$$$

