5462148
  -OEChem-07051213073D

 25 24  0     0  0  0  0  0  0999 V2000
   -3.8521    1.9572    0.0057 S   0  0  0  0  0  0  0  0  0  0  0  0
    3.2068    0.9313   -0.0775 P   0  0  0  0  0  0  0  0  0  0  0  0
    2.3435   -0.4256   -0.0562 O   0  0  0  0  0  0  0  0  0  0  0  0
   -2.0823   -2.2611    0.0083 O   0  0  0  0  0  0  0  0  0  0  0  0
    0.6360   -2.8161   -0.0172 O   0  0  0  0  0  0  0  0  0  0  0  0
    4.7261    0.3944    0.0685 O   0  0  0  0  0  0  0  0  0  0  0  0
    2.9263    1.6057    1.3663 O   0  0  0  0  0  0  0  0  0  0  0  0
    2.9826    1.8418   -1.2494 O   0  0  0  0  0  0  0  0  0  0  0  0
   -1.7900    0.1340   -0.0148 C   0  0  0  0  0  0  0  0  0  0  0  0
   -3.3118    0.2245    0.0288 C   0  0  0  0  0  0  0  0  0  0  0  0
   -1.3039   -1.3093   -0.0083 C   0  0  0  0  0  0  0  0  0  0  0  0
    0.1813   -1.5172   -0.0236 C   0  0  0  0  0  0  0  0  0  0  0  0
    0.9751   -0.4356   -0.0417 C   0  0  0  0  0  0  0  0  0  0  0  0
   -5.6376    1.6758    0.0110 C   0  0  0  0  0  0  0  0  0  0  0  0
   -1.4312    0.6164   -0.9319 H   0  0  0  0  0  0  0  0  0  0  0  0
   -1.3842    0.6428    0.8678 H   0  0  0  0  0  0  0  0  0  0  0  0
   -3.6926   -0.2554    0.9369 H   0  0  0  0  0  0  0  0  0  0  0  0
   -3.7434   -0.2937   -0.8345 H   0  0  0  0  0  0  0  0  0  0  0  0
    0.6254    0.5870   -0.0498 H   0  0  0  0  0  0  0  0  0  0  0  0
   -5.9351    1.1311    0.9108 H   0  0  0  0  0  0  0  0  0  0  0  0
   -5.9378    1.1131   -0.8767 H   0  0  0  0  0  0  0  0  0  0  0  0
   -6.1540    2.6393    0.0020 H   0  0  0  0  0  0  0  0  0  0  0  0
   -0.1423   -3.3996   -0.0032 H   0  0  0  0  0  0  0  0  0  0  0  0
    5.1795    0.0336   -0.7230 H   0  0  0  0  0  0  0  0  0  0  0  0
    2.0859    2.0911    1.5089 H   0  0  0  0  0  0  0  0  0  0  0  0
  1 10  1  0  0  0  0
  1 14  1  0  0  0  0
  2  3  1  0  0  0  0
  2  6  1  0  0  0  0
  2  7  1  0  0  0  0
  2  8  2  0  0  0  0
  3 13  1  0  0  0  0
  4 11  2  0  0  0  0
  5 12  1  0  0  0  0
  5 23  1  0  0  0  0
  6 24  1  0  0  0  0
  7 25  1  0  0  0  0
  9 10  1  0  0  0  0
  9 11  1  0  0  0  0
  9 15  1  0  0  0  0
  9 16  1  0  0  0  0
 10 17  1  0  0  0  0
 10 18  1  0  0  0  0
 11 12  1  0  0  0  0
 12 13  2  0  0  0  0
 13 19  1  0  0  0  0
 14 20  1  0  0  0  0
 14 21  1  0  0  0  0
 14 22  1  0  0  0  0
M  END
> <PUBCHEM_COMPOUND_CID>
5462148

> <PUBCHEM_CONFORMER_RMSD>
0.6

> <PUBCHEM_CONFORMER_DIVERSEORDER>
1
382
472
3
406
364
223
99
391
53
63
2
189
313
360
295
143
431
111
109
448
20
483
255
4
371
25
400
297
7
129
307
188
354
147
462
385
214
142
73
376
458
484
9
319
274
136
213
248
337
474
464
323
445
218
172
18
178
475
460
427
10
459
203
90
13
302
450
231
174
393
402
346
19
40
471
276
176
225
395
75
455
32
215
429
383
67
430
17
328
415
131
217
97
193
434
140
89
454
473
373
239
309
23
272
54
72
457
318
43
341
138
352
84
386
485
290
261
36
467
209
437
62
446
377
27
262
22
479
153
374
247
211
45
320
180
182
146
173
196
465
33
426
423
135
254
39
439
113
155
55
480
322
70
207
266
190
192
5
420
367
444
42
452
300
124
48
468
478
117
198
64
77
41
333
108
413
59
416
476
361
56
398
259
206
179
35
344
208
260
482
234
52
380
197
394
362
186
107
305
128
359
384
81
310
424
102
401
312
363
115
187
34
298
481
200
388
26
28
453
412
163
133
421
317
15
181
164
47
100
443
252
219
125
336
368
396
301
83
105
88
442
51
14
469
375
347
299
8
158
168
165
93
68
349
228
264
256
348
425
379
292
195
157
116
82
477
242
451
403
141
440
6
408
241
145
76
418
238
410
275
331
342
232
112
449
404
80
466
177
422
235
306
16
127
332
134
95
104
288
224
345
119
316
407
106
258
162
152
11
194
151
65
159
372
277
456
343
308
21
92
122
123
265
405
285
335
356
175
91
315
250
69
273
397
44
357
114
249
447
205
202
37
366
220
436
237
120
46
334
330
103
110
381
353
170
184
79
199
150
222
389
57
78
149
339
126
169
327
463
166
251
38
24
98
326
246
435
227
438
409
12
411
230
233
183
139
280
29
287
161
324
31
229
281
279
212
432
236
270
267
66
201
118
470
101
30
86
314
417
240
156
365
49
167
350
329
269
325
61
304
278
340
148
284
283
311
321
132
369
160
121
87
286
71
130
74
461
216
226
441
291
245
171
221
293
294
358
204
96
338
94
137
60
296
289
414
303
433
390
263
244
185
387
58
282
392
428
253
85
144
399
191
210
370
419
355
243
268
257
154
351
378
271
50

> <PUBCHEM_MMFF94_PARTIAL_CHARGES>
18
1 -0.46
10 0.23
11 0.49
12 0.09
13 -0.07
14 0.23
19 0.15
2 1.51
23 0.45
24 0.5
25 0.5
3 -0.35
4 -0.57
5 -0.53
6 -0.77
7 -0.77
8 -0.7
9 0.06

> <PUBCHEM_EFFECTIVE_ROTOR_COUNT>
6

> <PUBCHEM_PHARMACOPHORE_FEATURES>
7
1 14 hydrophobe
1 4 acceptor
1 5 donor
1 6 acceptor
1 7 acceptor
1 8 acceptor
4 2 6 7 8 anion

> <PUBCHEM_HEAVY_ATOM_COUNT>
14

> <PUBCHEM_ATOM_DEF_STEREO_COUNT>
0

> <PUBCHEM_ATOM_UDEF_STEREO_COUNT>
0

> <PUBCHEM_BOND_DEF_STEREO_COUNT>
1

> <PUBCHEM_BOND_UDEF_STEREO_COUNT>
0

> <PUBCHEM_ISOTOPIC_ATOM_COUNT>
0

> <PUBCHEM_COMPONENT_COUNT>
1

> <PUBCHEM_CACTVS_TAUTO_COUNT>
4

> <PUBCHEM_CONFORMER_ID>
0053588400000001

> <PUBCHEM_MMFF94_ENERGY>
-10.6232

> <PUBCHEM_FEATURE_SELFOVERLAP>
35.558

> <PUBCHEM_SHAPE_FINGERPRINT>
122479 349 18343297063756038195
14123255 52 18410012160891047953
14252887 29 11312055474107902144
14897335 6 18409731785362843511
15342168 16 18343015623482236981
1741750 31 18408039615555981451
17834072 32 18340482274997148565
17834072 8 18260821644664054630
1798214 55 18410012147864078545
18186145 218 17749941164193115514
20621476 66 18412819171412385132
20645477 56 18409445882263969815
20671657 53 7925908167162786187
20711983 171 18341326683163558276
212847 35 18410575115081615808
21499 59 18337959003949884999
21524375 3 18409730681429569895
23500284 214 18412542119987647641
23590187 49 18410013256123604157
43658 37 18335145314786629209
44154327 71 18343858935451596533
449060 62 18336827601868305957
474 4 18343579668356776269
6430166 295 18411420609537511272
7364860 26 18191305085774105846
8199 26 18411696582492544645

> <PUBCHEM_SHAPE_MULTIPOLES>
260.6
9.55
2.66
0.78
5.08
1.16
0.03
-8.26
0.1
0.31
-0.05
-0.52
-0.38
-0.02

> <PUBCHEM_SHAPE_SELFOVERLAP>
471.115

> <PUBCHEM_SHAPE_VOLUME>
167.9

> <PUBCHEM_COORDINATE_TYPE>
2
5
10

$$$$

