439620
  -OEChem-07051212462D

 20 19  0     1  0  0  0  0  0999 V2000
    6.0010    1.6550    0.0000 O   0  0  0  0  0  0  0  0  0  0  0  0
    4.2690   -1.3450    0.0000 O   0  0  0  0  0  0  0  0  0  0  0  0
    4.2690    1.6550    0.0000 O   0  0  0  0  0  0  0  0  0  0  0  0
    7.7331    0.6550    0.0000 O   0  0  0  0  0  0  0  0  0  0  0  0
    6.0010   -1.3450    0.0000 O   0  0  0  0  0  0  0  0  0  0  0  0
    6.8671   -0.8450    0.0000 O   0  0  0  0  0  0  0  0  0  0  0  0
    2.5369    0.6550    0.0000 O   0  0  0  0  0  0  0  0  0  0  0  0
    3.4030   -0.8450    0.0000 O   0  0  0  0  0  0  0  0  0  0  0  0
    5.1350    0.1550    0.0000 C   0  0  3  0  0  0  0  0  0  0  0  0
    6.0010    0.6550    0.0000 C   0  0  3  0  0  0  0  0  0  0  0  0
    4.2690    0.6550    0.0000 C   0  0  0  0  0  0  0  0  0  0  0  0
    5.1350   -0.8450    0.0000 C   0  0  0  0  0  0  0  0  0  0  0  0
    6.8671    0.1550    0.0000 C   0  0  0  0  0  0  0  0  0  0  0  0
    3.4030    0.1550    0.0000 C   0  0  0  0  0  0  0  0  0  0  0  0
    5.1350    0.7750    0.0000 H   0  0  0  0  0  0  0  0  0  0  0  0
    6.5380    0.9650    0.0000 H   0  0  0  0  0  0  0  0  0  0  0  0
    6.5380    1.9650    0.0000 H   0  0  0  0  0  0  0  0  0  0  0  0
    4.2690   -1.9650    0.0000 H   0  0  0  0  0  0  0  0  0  0  0  0
    8.2700    0.3450    0.0000 H   0  0  0  0  0  0  0  0  0  0  0  0
    2.0000    0.3450    0.0000 H   0  0  0  0  0  0  0  0  0  0  0  0
  1 10  1  0  0  0  0
  1 17  1  0  0  0  0
  2 12  1  0  0  0  0
  2 18  1  0  0  0  0
  3 11  2  0  0  0  0
  4 13  1  0  0  0  0
  4 19  1  0  0  0  0
  5 12  2  0  0  0  0
  6 13  2  0  0  0  0
  7 14  1  0  0  0  0
  7 20  1  0  0  0  0
  8 14  2  0  0  0  0
  9 10  1  0  0  0  0
  9 11  1  0  0  0  0
  9 12  1  0  0  0  0
  9 15  1  0  0  0  0
 10 13  1  0  0  0  0
 10 16  1  0  0  0  0
 11 14  1  0  0  0  0
M  END
> <PUBCHEM_COMPOUND_CID>
439620

> <PUBCHEM_COMPOUND_CANONICALIZED>
1

> <PUBCHEM_CACTVS_COMPLEXITY>
292

> <PUBCHEM_CACTVS_HBOND_ACCEPTOR>
8

> <PUBCHEM_CACTVS_HBOND_DONOR>
4

> <PUBCHEM_CACTVS_ROTATABLE_BOND>
5

> <PUBCHEM_CACTVS_SUBSKEYS>
AAADcYBgPAAAAAAAAAAAAAAAAAAAAAAAAAAAAAAAAAAAAAAAAAAAGgAACAAADRSggAIACAAAAgAIAICQCAIAAAAAAAAAAAFAAAABEBYIAAAAQAAFIAABAADLJgAKAAAAAAAAAAAAAAAAAAAAAAAAAAAAAA==

> <PUBCHEM_IUPAC_OPENEYE_NAME>
1-hydroxy-3-oxo-propane-1,2,3-tricarboxylic acid

> <PUBCHEM_IUPAC_CAS_NAME>
1-hydroxy-3-oxopropane-1,2,3-tricarboxylic acid

> <PUBCHEM_IUPAC_NAME>
1-hydroxy-3-oxopropane-1,2,3-tricarboxylic acid

> <PUBCHEM_IUPAC_SYSTEMATIC_NAME>
1-oxidanyl-3-oxidanylidene-propane-1,2,3-tricarboxylic acid

> <PUBCHEM_IUPAC_TRADITIONAL_NAME>
1-hydroxy-3-keto-propane-1,2,3-tricarboxylic acid

> <PUBCHEM_IUPAC_INCHI>
InChI=1S/C6H6O8/c7-2(5(11)12)1(4(9)10)3(8)6(13)14/h1-2,7H,(H,9,10)(H,11,12)(H,13,14)

> <PUBCHEM_IUPAC_INCHIKEY>
YILAUJBAPQXZGM-UHFFFAOYSA-N

> <PUBCHEM_XLOGP3_AA>
-1.7

> <PUBCHEM_EXACT_MASS>
206.006267

> <PUBCHEM_MOLECULAR_FORMULA>
C6H6O8

> <PUBCHEM_MOLECULAR_WEIGHT>
206.10704

> <PUBCHEM_OPENEYE_CAN_SMILES>
C(C(C(=O)O)O)(C(=O)C(=O)O)C(=O)O

> <PUBCHEM_OPENEYE_ISO_SMILES>
C(C(C(=O)O)O)(C(=O)C(=O)O)C(=O)O

> <PUBCHEM_CACTVS_TPSA>
149

> <PUBCHEM_MONOISOTOPIC_WEIGHT>
206.006267

> <PUBCHEM_TOTAL_CHARGE>
0

> <PUBCHEM_HEAVY_ATOM_COUNT>
14

> <PUBCHEM_ATOM_DEF_STEREO_COUNT>
0

> <PUBCHEM_ATOM_UDEF_STEREO_COUNT>
2

> <PUBCHEM_BOND_DEF_STEREO_COUNT>
0

> <PUBCHEM_BOND_UDEF_STEREO_COUNT>
0

> <PUBCHEM_ISOTOPIC_ATOM_COUNT>
0

> <PUBCHEM_COMPONENT_COUNT>
1

> <PUBCHEM_CACTVS_TAUTO_COUNT>
3

> <PUBCHEM_COORDINATE_TYPE>
1
5
255

> <PUBCHEM_BONDANNOTATIONS>
10  1  3
9  12  3

$$$$

