442085
  -OEChem-07051212573D

 52 56  0     1  0  0  0  0  0999 V2000
    0.0888    1.7015   -1.8509 O   0  0  0  0  0  0  0  0  0  0  0  0
    4.0731    0.8540    0.4579 O   0  0  0  0  0  0  0  0  0  0  0  0
   -1.4461   -1.9969   -2.1060 O   0  0  0  0  0  0  0  0  0  0  0  0
    2.7120    2.3865   -0.6903 O   0  0  0  0  0  0  0  0  0  0  0  0
   -1.4987    1.4987    2.0000 O   0  0  0  0  0  0  0  0  0  0  0  0
   -1.1686    3.0188   -0.5374 O   0  0  0  0  0  0  0  0  0  0  0  0
    0.8350   -0.4495   -0.8741 C   0  0  1  0  0  0  0  0  0  0  0  0
   -0.5852   -0.6596   -0.2199 C   0  0  1  0  0  0  0  0  0  0  0  0
    1.7721    0.3060    0.1529 C   0  0  1  0  0  0  0  0  0  0  0  0
   -1.4686    0.6396   -0.3012 C   0  0  1  0  0  0  0  0  0  0  0  0
    2.4002   -0.5904    1.2572 C   0  0  1  0  0  0  0  0  0  0  0  0
    1.5592   -1.7560   -1.2899 C   0  0  0  0  0  0  0  0  0  0  0  0
   -1.3867   -1.9179   -0.6833 C   0  0  1  0  0  0  0  0  0  0  0  0
   -2.8199    0.4005   -1.0185 C   0  0  0  0  0  0  0  0  0  0  0  0
    0.5854    0.3885   -2.1478 C   0  0  0  0  0  0  0  0  0  0  0  0
   -3.5257   -0.5883   -0.0893 C   0  0  1  0  0  0  0  0  0  0  0  0
    1.9768   -2.0640    1.2339 C   0  0  0  0  0  0  0  0  0  0  0  0
    2.9971    1.0129   -0.4712 C   0  0  2  0  0  0  0  0  0  0  0  0
    1.9695   -2.6917   -0.1533 C   0  0  0  0  0  0  0  0  0  0  0  0
   -2.8292   -1.9620   -0.1311 C   0  0  0  0  0  0  0  0  0  0  0  0
    3.9067   -0.4461    1.0209 C   0  0  0  0  0  0  0  0  0  0  0  0
   -2.0210    0.8502    1.1085 C   0  0  0  0  0  0  0  0  0  0  0  0
   -0.8324    1.8878   -0.8800 C   0  0  0  0  0  0  0  0  0  0  0  0
   -3.2956    0.0860    1.2390 C   0  0  0  0  0  0  0  0  0  0  0  0
    2.0665   -0.0038    2.6463 C   0  0  0  0  0  0  0  0  0  0  0  0
   -4.0647    0.0952    2.3277 C   0  0  0  0  0  0  0  0  0  0  0  0
   -0.4121   -0.8488    0.8460 H   0  0  0  0  0  0  0  0  0  0  0  0
    1.1575    1.0696    0.6452 H   0  0  0  0  0  0  0  0  0  0  0  0
    2.4774   -1.4877   -1.8303 H   0  0  0  0  0  0  0  0  0  0  0  0
    0.9819   -2.3225   -2.0282 H   0  0  0  0  0  0  0  0  0  0  0  0
   -0.8716   -2.8229   -0.3462 H   0  0  0  0  0  0  0  0  0  0  0  0
   -2.7102    0.0376   -2.0444 H   0  0  0  0  0  0  0  0  0  0  0  0
   -3.3990    1.3336   -1.0917 H   0  0  0  0  0  0  0  0  0  0  0  0
    1.5096    0.5276   -2.7182 H   0  0  0  0  0  0  0  0  0  0  0  0
   -0.1155   -0.0878   -2.8400 H   0  0  0  0  0  0  0  0  0  0  0  0
   -4.5928   -0.6767   -0.3171 H   0  0  0  0  0  0  0  0  0  0  0  0
    0.9778   -2.1774    1.6703 H   0  0  0  0  0  0  0  0  0  0  0  0
    2.6331   -2.6551    1.8866 H   0  0  0  0  0  0  0  0  0  0  0  0
    3.3176    0.5730   -1.4193 H   0  0  0  0  0  0  0  0  0  0  0  0
    1.3099   -3.5677   -0.1380 H   0  0  0  0  0  0  0  0  0  0  0  0
    2.9667   -3.0918   -0.3770 H   0  0  0  0  0  0  0  0  0  0  0  0
   -2.8184   -2.4074    0.8720 H   0  0  0  0  0  0  0  0  0  0  0  0
   -3.4318   -2.6299   -0.7599 H   0  0  0  0  0  0  0  0  0  0  0  0
    4.5021   -0.5243    1.9360 H   0  0  0  0  0  0  0  0  0  0  0  0
    4.2951   -1.1764    0.3021 H   0  0  0  0  0  0  0  0  0  0  0  0
    2.4002    1.0364    2.7350 H   0  0  0  0  0  0  0  0  0  0  0  0
    0.9873   -0.0242    2.8336 H   0  0  0  0  0  0  0  0  0  0  0  0
    2.5533   -0.5772    3.4434 H   0  0  0  0  0  0  0  0  0  0  0  0
   -1.8702   -2.8402   -2.3386 H   0  0  0  0  0  0  0  0  0  0  0  0
    2.1996    2.7231    0.0630 H   0  0  0  0  0  0  0  0  0  0  0  0
   -4.9959   -0.4606    2.3508 H   0  0  0  0  0  0  0  0  0  0  0  0
   -3.7874    0.6510    3.2167 H   0  0  0  0  0  0  0  0  0  0  0  0
  1 15  1  0  0  0  0
  1 23  1  0  0  0  0
  2 18  1  0  0  0  0
  2 21  1  0  0  0  0
  3 13  1  0  0  0  0
  3 49  1  0  0  0  0
  4 18  1  0  0  0  0
  4 50  1  0  0  0  0
  5 22  2  0  0  0  0
  6 23  2  0  0  0  0
  7  8  1  0  0  0  0
  7  9  1  0  0  0  0
  7 12  1  0  0  0  0
  7 15  1  0  0  0  0
  8 10  1  0  0  0  0
  8 13  1  0  0  0  0
  8 27  1  0  0  0  0
  9 11  1  0  0  0  0
  9 18  1  0  0  0  0
  9 28  1  0  0  0  0
 10 14  1  0  0  0  0
 10 22  1  0  0  0  0
 10 23  1  0  0  0  0
 11 17  1  0  0  0  0
 11 21  1  0  0  0  0
 11 25  1  0  0  0  0
 12 19  1  0  0  0  0
 12 29  1  0  0  0  0
 12 30  1  0  0  0  0
 13 20  1  0  0  0  0
 13 31  1  0  0  0  0
 14 16  1  0  0  0  0
 14 32  1  0  0  0  0
 14 33  1  0  0  0  0
 15 34  1  0  0  0  0
 15 35  1  0  0  0  0
 16 20  1  0  0  0  0
 16 24  1  0  0  0  0
 16 36  1  0  0  0  0
 17 19  1  0  0  0  0
 17 37  1  0  0  0  0
 17 38  1  0  0  0  0
 18 39  1  0  0  0  0
 19 40  1  0  0  0  0
 19 41  1  0  0  0  0
 20 42  1  0  0  0  0
 20 43  1  0  0  0  0
 21 44  1  0  0  0  0
 21 45  1  0  0  0  0
 22 24  1  0  0  0  0
 24 26  2  0  0  0  0
 25 46  1  0  0  0  0
 25 47  1  0  0  0  0
 25 48  1  0  0  0  0
 26 51  1  0  0  0  0
 26 52  1  0  0  0  0
M  END
> <PUBCHEM_COMPOUND_CID>
442085

> <PUBCHEM_CONFORMER_RMSD>
0.6

> <PUBCHEM_CONFORMER_DIVERSEORDER>
1
3
2

> <PUBCHEM_MMFF94_PARTIAL_CHARGES>
20
1 -0.43
10 0.12
13 0.28
15 0.28
16 0.14
18 0.56
2 -0.56
21 0.28
22 0.49
23 0.66
24 -0.12
26 -0.3
3 -0.68
4 -0.68
49 0.4
5 -0.57
50 0.4
51 0.15
52 0.15
6 -0.57

> <PUBCHEM_EFFECTIVE_ROTOR_COUNT>
2.2

> <PUBCHEM_PHARMACOPHORE_FEATURES>
11
1 2 acceptor
1 3 acceptor
1 3 donor
1 4 acceptor
1 4 donor
1 5 acceptor
1 6 acceptor
5 2 9 11 18 21 rings
6 1 7 8 10 15 23 rings
6 7 9 11 12 17 19 rings
8 8 10 13 14 16 20 22 24 rings

> <PUBCHEM_HEAVY_ATOM_COUNT>
26

> <PUBCHEM_ATOM_DEF_STEREO_COUNT>
8

> <PUBCHEM_ATOM_UDEF_STEREO_COUNT>
0

> <PUBCHEM_BOND_DEF_STEREO_COUNT>
0

> <PUBCHEM_BOND_UDEF_STEREO_COUNT>
0

> <PUBCHEM_ISOTOPIC_ATOM_COUNT>
0

> <PUBCHEM_COMPONENT_COUNT>
1

> <PUBCHEM_CACTVS_TAUTO_COUNT>
1

> <PUBCHEM_CONFORMER_ID>
0006BEE500000001

> <PUBCHEM_MMFF94_ENERGY>
113.8644

> <PUBCHEM_FEATURE_SELFOVERLAP>
56.096

> <PUBCHEM_SHAPE_FINGERPRINT>
10165383 225 17749373876211948912
10366900 7 17676497132957731387
10863032 1 16557927713197835213
10948715 1 15430037651659408185
1100329 8 17188132293314171350
11578080 2 18120928662210838268
12011746 2 17531251647234340233
12156800 1 5245201773479108847
12403814 3 18413395336679067137
12633257 1 17895198851960994147
128993 33 15864365609582104554
13140716 1 18265614273477578416
13224815 77 18343864415676508310
13583140 156 17703793591849949181
13965767 371 18046039791682541217
14178342 30 18261377911458920047
14223421 5 18271248330061451566
14787075 74 17107075209245348468
14955137 171 18125411173442913580
15238133 3 16733816635659316898
16945 1 18411419544000474334
17349148 13 18188214178922195511
18981168 100 6266601084493215131
20691752 17 18340190964766700759
20715895 44 18052837015895238925
21731516 1 16987418988126052611
22112679 90 18265890263859900941
23388829 49 18201440229255317397
23419403 2 15589146699541291423
23559900 14 18263934404404486774
2748010 2 17977952606882926580
350125 39 17970899183866614319
35225 105 17677917719123633691
3797600 57 18042405738079912922
427121 178 17605248801227041627
81228 2 16986879183688346413

> <PUBCHEM_SHAPE_MULTIPOLES>
499.85
6.15
2.54
2.17
0.12
0.11
-0.65
-0.2
-2.95
-0.43
0.85
0.38
0.05
-0.6

> <PUBCHEM_SHAPE_SELFOVERLAP>
1103.076

> <PUBCHEM_SHAPE_VOLUME>
263.6

> <PUBCHEM_COORDINATE_TYPE>
2
5
10

$$$$

