440431
  -OEChem-07051212493D

 26 26  0     1  0  0  0  0  0999 V2000
    3.8972   -0.1792   -0.1047 P   0  0  0  0  0  0  0  0  0  0  0  0
   -0.2032   -1.4867    0.3196 O   0  0  0  0  0  0  0  0  0  0  0  0
    2.3410   -0.5136   -0.3804 O   0  0  0  0  0  0  0  0  0  0  0  0
   -1.0510    2.0497   -0.0976 O   0  0  0  0  0  0  0  0  0  0  0  0
    3.9926   -0.0881    1.5071 O   0  0  0  0  0  0  0  0  0  0  0  0
    4.0165    1.3642   -0.5721 O   0  0  0  0  0  0  0  0  0  0  0  0
    4.8744   -1.1153   -0.7534 O   0  0  0  0  0  0  0  0  0  0  0  0
   -3.4065   -0.1027    1.0687 N   0  0  0  0  0  0  0  0  0  0  0  0
   -4.4106   -0.4891   -0.8741 N   0  0  0  0  0  0  0  0  0  0  0  0
   -0.0423   -0.1572   -0.1798 C   0  0  1  0  0  0  0  0  0  0  0  0
   -1.1484    0.7240    0.4199 C   0  0  2  0  0  0  0  0  0  0  0  0
    1.3555    0.3331    0.2041 C   0  0  0  0  0  0  0  0  0  0  0  0
   -2.5370    0.2094    0.0949 C   0  0  0  0  0  0  0  0  0  0  0  0
   -3.1375   -0.0223   -1.0857 C   0  0  0  0  0  0  0  0  0  0  0  0
   -4.5406   -0.5262    0.4335 C   0  0  0  0  0  0  0  0  0  0  0  0
   -0.1216   -0.2022   -1.2729 H   0  0  0  0  0  0  0  0  0  0  0  0
   -1.0240    0.7749    1.5094 H   0  0  0  0  0  0  0  0  0  0  0  0
    1.5096    1.3588   -0.1440 H   0  0  0  0  0  0  0  0  0  0  0  0
    1.4753    0.3014    1.2921 H   0  0  0  0  0  0  0  0  0  0  0  0
   -3.2663   -0.0426    2.0691 H   0  0  0  0  0  0  0  0  0  0  0  0
   -2.7499    0.1127   -2.0848 H   0  0  0  0  0  0  0  0  0  0  0  0
    0.5119   -2.0274   -0.0575 H   0  0  0  0  0  0  0  0  0  0  0  0
   -1.6963    2.6004    0.3783 H   0  0  0  0  0  0  0  0  0  0  0  0
   -5.4184   -0.8450    0.9773 H   0  0  0  0  0  0  0  0  0  0  0  0
    4.8699    0.0497    1.9235 H   0  0  0  0  0  0  0  0  0  0  0  0
    4.9012    1.7876   -0.5900 H   0  0  0  0  0  0  0  0  0  0  0  0
  1  3  1  0  0  0  0
  1  5  1  0  0  0  0
  1  6  1  0  0  0  0
  1  7  2  0  0  0  0
  2 10  1  0  0  0  0
  2 22  1  0  0  0  0
  3 12  1  0  0  0  0
  4 11  1  0  0  0  0
  4 23  1  0  0  0  0
  5 25  1  0  0  0  0
  6 26  1  0  0  0  0
  8 13  1  0  0  0  0
  8 15  1  0  0  0  0
  8 20  1  0  0  0  0
  9 14  1  0  0  0  0
  9 15  2  0  0  0  0
 10 11  1  0  0  0  0
 10 12  1  0  0  0  0
 10 16  1  0  0  0  0
 11 13  1  0  0  0  0
 11 17  1  0  0  0  0
 12 18  1  0  0  0  0
 12 19  1  0  0  0  0
 13 14  2  0  0  0  0
 14 21  1  0  0  0  0
 15 24  1  0  0  0  0
M  END
> <PUBCHEM_COMPOUND_CID>
440431

> <PUBCHEM_CONFORMER_RMSD>
0.6

> <PUBCHEM_CONFORMER_DIVERSEORDER>
1
62
37
66
31
44
68
4
70
59
45
49
29
74
16
61
53
41
11
21
52
15
56
20
50
54
69
35
32
67
58
51
8
25
55
57
2
12
48
65
7
71
34
10
75
76
14
73
24
19
63
36
3
72
43
26
38
39
33
5
42
18
23
6
64
9
17
40
46
60
13
28
30
47
22
27

> <PUBCHEM_MMFF94_PARTIAL_CHARGES>
22
1 1.51
10 0.28
11 0.46
12 0.28
13 -0.33
14 0.08
15 0.04
2 -0.68
20 0.27
21 0.15
22 0.4
23 0.4
24 0.15
25 0.5
26 0.5
3 -0.55
4 -0.68
5 -0.77
6 -0.77
7 -0.7
8 0.03
9 -0.57

> <PUBCHEM_EFFECTIVE_ROTOR_COUNT>
5

> <PUBCHEM_PHARMACOPHORE_FEATURES>
11
1 2 acceptor
1 2 donor
1 4 acceptor
1 4 donor
1 5 acceptor
1 6 acceptor
1 7 acceptor
1 8 donor
3 8 9 15 cation
4 1 5 6 7 anion
5 8 9 13 14 15 rings

> <PUBCHEM_HEAVY_ATOM_COUNT>
15

> <PUBCHEM_ATOM_DEF_STEREO_COUNT>
2

> <PUBCHEM_ATOM_UDEF_STEREO_COUNT>
0

> <PUBCHEM_BOND_DEF_STEREO_COUNT>
0

> <PUBCHEM_BOND_UDEF_STEREO_COUNT>
0

> <PUBCHEM_ISOTOPIC_ATOM_COUNT>
0

> <PUBCHEM_COMPONENT_COUNT>
1

> <PUBCHEM_CACTVS_TAUTO_COUNT>
2

> <PUBCHEM_CONFORMER_ID>
0006B86F00000001

> <PUBCHEM_MMFF94_ENERGY>
-12.5709

> <PUBCHEM_FEATURE_SELFOVERLAP>
55.854

> <PUBCHEM_SHAPE_FINGERPRINT>
11132069 177 18186810166169632215
11401426 45 18409173212160178493
11543360 7 15554157095413087568
13690532 89 18413669119195225246
13760787 5 18409163303217108493
14123238 8 16370729214270277912
14943859 89 7637399622916549733
14993402 34 17632292380554562742
17834072 33 14562825326146938341
18186145 218 17846776312797669344
187816 3 17989204850278941259
200 152 18272934933569475645
20281475 54 17967534549388972390
20645477 70 14836130996167180274
22485316 2 17240485822943789863
23402539 116 18335423494990563596
23557571 272 18261384615354249837
23559900 14 16702305641935495856
42 15 16370723738070982914
5374978 207 18341899576013989400
69090 78 18040720259790465086
77779 3 15647053754764918547

> <PUBCHEM_SHAPE_MULTIPOLES>
267.36
10.28
1.2
1
4.38
0.35
0.1
-1.92
-0.61
0.37
-0.1
-0.02
-0.05
0.03

> <PUBCHEM_SHAPE_SELFOVERLAP>
528.387

> <PUBCHEM_SHAPE_VOLUME>
161.5

> <PUBCHEM_COORDINATE_TYPE>
2
5
10

$$$$

