5359810
  -OEChem-07051213142D

 39 39  0     0  0  0  0  0  0999 V2000
    3.7320    4.0941    0.0000 S   0  0  0  0  0  0  0  0  0  0  0  0
    8.0264   -3.4502    0.0000 S   0  0  0  0  0  0  0  0  0  0  0  0
    2.0000    4.0941    0.0000 Na  0  3  0  0  0  0  0  0  0  0  0  0
    8.8751   -4.9601    0.0000 Na  0  3  0  0  0  0  0  0  0  0  0  0
    8.9942    2.0700    0.0000 O   0  0  0  0  0  0  0  0  0  0  0  0
    2.8660    4.5941    0.0000 O   0  5  0  0  0  0  0  0  0  0  0  0
    3.2320    3.2281    0.0000 O   0  0  0  0  0  0  0  0  0  0  0  0
    4.2320    4.9601    0.0000 O   0  0  0  0  0  0  0  0  0  0  0  0
    8.0149   -4.4501    0.0000 O   0  5  0  0  0  0  0  0  0  0  0  0
    9.0264   -3.4618    0.0000 O   0  0  0  0  0  0  0  0  0  0  0  0
    7.0265   -3.4386    0.0000 O   0  0  0  0  0  0  0  0  0  0  0  0
    7.2125    1.0595    0.0000 N   0  0  0  0  0  0  0  0  0  0  0  0
    8.0727    0.5495    0.0000 N   0  0  0  0  0  0  0  0  0  0  0  0
    6.3301    2.5941    0.0000 C   0  0  0  0  0  0  0  0  0  0  0  0
    6.3301    3.5941    0.0000 C   0  0  0  0  0  0  0  0  0  0  0  0
    7.2241    2.0594    0.0000 C   0  0  0  0  0  0  0  0  0  0  0  0
    5.4641    4.0941    0.0000 C   0  0  0  0  0  0  0  0  0  0  0  0
    4.5981    3.5941    0.0000 C   0  0  0  0  0  0  0  0  0  0  0  0
    5.4641    2.0941    0.0000 C   0  0  0  0  0  0  0  0  0  0  0  0
    7.2241    4.1288    0.0000 C   0  0  0  0  0  0  0  0  0  0  0  0
    4.5981    2.5941    0.0000 C   0  0  0  0  0  0  0  0  0  0  0  0
    8.1301    2.5733    0.0000 C   0  0  0  0  0  0  0  0  0  0  0  0
    8.1301    3.6149    0.0000 C   0  0  0  0  0  0  0  0  0  0  0  0
    8.0611   -0.4504    0.0000 C   0  0  0  0  0  0  0  0  0  0  0  0
    8.0380   -2.4503    0.0000 C   0  0  0  0  0  0  0  0  0  0  0  0
    7.1894   -0.9404    0.0000 C   0  0  0  0  0  0  0  0  0  0  0  0
    8.9213   -0.9604    0.0000 C   0  0  0  0  0  0  0  0  0  0  0  0
    7.1778   -1.9403    0.0000 C   0  0  0  0  0  0  0  0  0  0  0  0
    8.9098   -1.9603    0.0000 C   0  0  0  0  0  0  0  0  0  0  0  0
    5.4641    4.7141    0.0000 H   0  0  0  0  0  0  0  0  0  0  0  0
    5.4641    1.4741    0.0000 H   0  0  0  0  0  0  0  0  0  0  0  0
    7.2169    4.7487    0.0000 H   0  0  0  0  0  0  0  0  0  0  0  0
    4.0611    2.2841    0.0000 H   0  0  0  0  0  0  0  0  0  0  0  0
    8.6659    3.9270    0.0000 H   0  0  0  0  0  0  0  0  0  0  0  0
    8.6132    0.8533    0.0000 H   0  0  0  0  0  0  0  0  0  0  0  0
    6.6561   -0.6242    0.0000 H   0  0  0  0  0  0  0  0  0  0  0  0
    9.4618   -0.6566    0.0000 H   0  0  0  0  0  0  0  0  0  0  0  0
    6.6373   -2.2441    0.0000 H   0  0  0  0  0  0  0  0  0  0  0  0
    9.4431   -2.2765    0.0000 H   0  0  0  0  0  0  0  0  0  0  0  0
  1  6  1  0  0  0  0
  1  7  2  0  0  0  0
  1  8  2  0  0  0  0
  1 18  1  0  0  0  0
  2  9  1  0  0  0  0
  2 10  2  0  0  0  0
  2 11  2  0  0  0  0
  2 25  1  0  0  0  0
  5 22  2  0  0  0  0
 12 13  1  0  0  0  0
 12 16  2  0  0  0  0
 13 24  1  0  0  0  0
 13 35  1  0  0  0  0
 14 15  2  0  0  0  0
 14 16  1  0  0  0  0
 14 19  1  0  0  0  0
 15 17  1  0  0  0  0
 15 20  1  0  0  0  0
 16 22  1  0  0  0  0
 17 18  2  0  0  0  0
 17 30  1  0  0  0  0
 18 21  1  0  0  0  0
 19 21  2  0  0  0  0
 19 31  1  0  0  0  0
 20 23  2  0  0  0  0
 20 32  1  0  0  0  0
 21 33  1  0  0  0  0
 22 23  1  0  0  0  0
 23 34  1  0  0  0  0
 24 26  2  0  0  0  0
 24 27  1  0  0  0  0
 25 28  2  0  0  0  0
 25 29  1  0  0  0  0
 26 28  1  0  0  0  0
 26 36  1  0  0  0  0
 27 29  2  0  0  0  0
 27 37  1  0  0  0  0
 28 38  1  0  0  0  0
 29 39  1  0  0  0  0
M  CHG  4   3   1   4   1   6  -1   9  -1
M  END
> <PUBCHEM_COMPOUND_CID>
5359810

> <PUBCHEM_COMPOUND_CANONICALIZED>
1

> <PUBCHEM_CACTVS_COMPLEXITY>
818

> <PUBCHEM_CACTVS_HBOND_ACCEPTOR>
9

> <PUBCHEM_CACTVS_HBOND_DONOR>
1

> <PUBCHEM_CACTVS_ROTATABLE_BOND>
2

> <PUBCHEM_CACTVS_SUBSKEYS>
AAADccB7ODBgAAAAAAAAAAAAAAAAAAAAAAAwYIAAAAAAAACBQAAAHgQYAAAADAyB2AAwwYBiAAKoA6RyQHDSBEAgAgAYiBkgZNgIILKAlZGAIABgmAAIyYcYiICOkAQAgAAQAAAgCAEAACAAAAAAAAAAAA==

> <PUBCHEM_IUPAC_OPENEYE_NAME>
disodium (5Z)-6-oxo-5-[(4-sulfonatophenyl)hydrazono]naphthalene-2-sulfonate

> <PUBCHEM_IUPAC_CAS_NAME>
disodium (5Z)-6-oxo-5-[(4-sulfonatophenyl)hydrazinylidene]-2-naphthalenesulfonate

> <PUBCHEM_IUPAC_NAME>
disodium (5Z)-6-oxo-5-[(4-sulfonatophenyl)hydrazinylidene]naphthalene-2-sulfonate

> <PUBCHEM_IUPAC_SYSTEMATIC_NAME>
disodium (5Z)-6-oxidanylidene-5-[(4-sulfonatophenyl)hydrazinylidene]naphthalene-2-sulfonate

> <PUBCHEM_IUPAC_TRADITIONAL_NAME>
disodium (5Z)-6-keto-5-[(4-sulfonatophenyl)hydrazono]naphthalene-2-sulfonate

> <PUBCHEM_IUPAC_INCHI>
InChI=1S/C16H12N2O7S2.2Na/c19-15-8-1-10-9-13(27(23,24)25)6-7-14(10)16(15)18-17-11-2-4-12(5-3-11)26(20,21)22;;/h1-9,17H,(H,20,21,22)(H,23,24,25);;/q;2*+1/p-2/b18-16-;;

> <PUBCHEM_IUPAC_INCHIKEY>
TXVRKNUZLYFDTJ-KZYDBBBVSA-L

> <PUBCHEM_EXACT_MASS>
451.972481

> <PUBCHEM_MOLECULAR_FORMULA>
C16H10N2Na2O7S2

> <PUBCHEM_MOLECULAR_WEIGHT>
452.369339

> <PUBCHEM_OPENEYE_CAN_SMILES>
C1=CC(=CC=C1NN=C2C3=C(C=CC2=O)C=C(C=C3)S(=O)(=O)[O-])S(=O)(=O)[O-].[Na+].[Na+]

> <PUBCHEM_OPENEYE_ISO_SMILES>
C1=CC(=CC=C1N/N=C\2/C3=C(C=CC2=O)C=C(C=C3)S(=O)(=O)[O-])S(=O)(=O)[O-].[Na+].[Na+]

> <PUBCHEM_CACTVS_TPSA>
173

> <PUBCHEM_MONOISOTOPIC_WEIGHT>
451.972481

> <PUBCHEM_TOTAL_CHARGE>
0

> <PUBCHEM_HEAVY_ATOM_COUNT>
29

> <PUBCHEM_ATOM_DEF_STEREO_COUNT>
0

> <PUBCHEM_ATOM_UDEF_STEREO_COUNT>
0

> <PUBCHEM_BOND_DEF_STEREO_COUNT>
1

> <PUBCHEM_BOND_UDEF_STEREO_COUNT>
0

> <PUBCHEM_ISOTOPIC_ATOM_COUNT>
0

> <PUBCHEM_COMPONENT_COUNT>
3

> <PUBCHEM_CACTVS_TAUTO_COUNT>
4

> <PUBCHEM_COORDINATE_TYPE>
1
5
255

> <PUBCHEM_BONDANNOTATIONS>
14  15  8
14  19  8
15  17  8
17  18  8
18  21  8
19  21  8
24  26  8
24  27  8
25  28  8
25  29  8
26  28  8
27  29  8

$$$$

