17395646
  -OEChem-06241222512D

 54 55  0     1  0  0  0  0  0999 V2000
    5.4641    4.5000    0.0000 S   0  0  0  0  0  0  0  0  0  0  0  0
    2.8660   -7.0000    0.0000 F   0  0  0  0  0  0  0  0  0  0  0  0
    6.4641    4.5000    0.0000 O   0  0  0  0  0  0  0  0  0  0  0  0
    4.4641    4.5000    0.0000 O   0  0  0  0  0  0  0  0  0  0  0  0
    2.8660   -3.0000    0.0000 O   0  0  0  0  0  0  0  0  0  0  0  0
    6.3301    0.0000    0.0000 O   0  0  0  0  0  0  0  0  0  0  0  0
    2.8660   -1.0000    0.0000 O   0  0  0  0  0  0  0  0  0  0  0  0
    5.4641    5.5000    0.0000 N   0  0  0  0  0  0  0  0  0  0  0  0
    4.5981    0.0000    0.0000 N   0  0  0  0  0  0  0  0  0  0  0  0
    4.5981   -1.0000    0.0000 N   0  0  0  0  0  0  0  0  0  0  0  0
    6.3301    6.0000    0.0000 C   0  0  0  0  0  0  0  0  0  0  0  0
    4.5981    6.0000    0.0000 C   0  0  0  0  0  0  0  0  0  0  0  0
    5.4641    3.5000    0.0000 C   0  0  0  0  0  0  0  0  0  0  0  0
    6.3301    7.0000    0.0000 C   0  0  0  0  0  0  0  0  0  0  0  0
    4.5981    7.0000    0.0000 C   0  0  0  0  0  0  0  0  0  0  0  0
    4.5981    3.0000    0.0000 C   0  0  0  0  0  0  0  0  0  0  0  0
    6.3301    3.0000    0.0000 C   0  0  0  0  0  0  0  0  0  0  0  0
    5.4641    1.5000    0.0000 C   0  0  0  0  0  0  0  0  0  0  0  0
    4.5981    2.0000    0.0000 C   0  0  0  0  0  0  0  0  0  0  0  0
    6.3301    2.0000    0.0000 C   0  0  0  0  0  0  0  0  0  0  0  0
    5.4641    0.5000    0.0000 C   0  0  0  0  0  0  0  0  0  0  0  0
    3.7320   -2.5000    0.0000 C   0  0  3  0  0  0  0  0  0  0  0  0
    3.7320   -1.5000    0.0000 C   0  0  0  0  0  0  0  0  0  0  0  0
    4.5981   -3.0000    0.0000 C   0  0  0  0  0  0  0  0  0  0  0  0
    2.8660   -4.0000    0.0000 C   0  0  0  0  0  0  0  0  0  0  0  0
    2.0000   -4.5000    0.0000 C   0  0  0  0  0  0  0  0  0  0  0  0
    3.7320   -4.5000    0.0000 C   0  0  0  0  0  0  0  0  0  0  0  0
    2.0000   -5.5000    0.0000 C   0  0  0  0  0  0  0  0  0  0  0  0
    3.7320   -5.5000    0.0000 C   0  0  0  0  0  0  0  0  0  0  0  0
    2.8660   -6.0000    0.0000 C   0  0  0  0  0  0  0  0  0  0  0  0
    3.9875    6.1077    0.0000 H   0  0  0  0  0  0  0  0  0  0  0  0
    4.3860    5.4174    0.0000 H   0  0  0  0  0  0  0  0  0  0  0  0
    6.5422    5.4174    0.0000 H   0  0  0  0  0  0  0  0  0  0  0  0
    6.9407    6.1077    0.0000 H   0  0  0  0  0  0  0  0  0  0  0  0
    6.9501    7.0000    0.0000 H   0  0  0  0  0  0  0  0  0  0  0  0
    5.2181    7.0000    0.0000 H   0  0  0  0  0  0  0  0  0  0  0  0
    4.5981    7.6200    0.0000 H   0  0  0  0  0  0  0  0  0  0  0  0
    3.9781    7.0000    0.0000 H   0  0  0  0  0  0  0  0  0  0  0  0
    6.3301    7.6200    0.0000 H   0  0  0  0  0  0  0  0  0  0  0  0
    5.7101    7.0000    0.0000 H   0  0  0  0  0  0  0  0  0  0  0  0
    4.0611    3.3100    0.0000 H   0  0  0  0  0  0  0  0  0  0  0  0
    6.8671    3.3100    0.0000 H   0  0  0  0  0  0  0  0  0  0  0  0
    4.0611    1.6900    0.0000 H   0  0  0  0  0  0  0  0  0  0  0  0
    6.8671    1.6900    0.0000 H   0  0  0  0  0  0  0  0  0  0  0  0
    3.7320   -3.1200    0.0000 H   0  0  0  0  0  0  0  0  0  0  0  0
    4.0611    0.3100    0.0000 H   0  0  0  0  0  0  0  0  0  0  0  0
    5.1350   -1.3100    0.0000 H   0  0  0  0  0  0  0  0  0  0  0  0
    4.2881   -3.5369    0.0000 H   0  0  0  0  0  0  0  0  0  0  0  0
    5.1350   -3.3100    0.0000 H   0  0  0  0  0  0  0  0  0  0  0  0
    4.9081   -2.4631    0.0000 H   0  0  0  0  0  0  0  0  0  0  0  0
    1.4631   -4.1900    0.0000 H   0  0  0  0  0  0  0  0  0  0  0  0
    4.2690   -4.1900    0.0000 H   0  0  0  0  0  0  0  0  0  0  0  0
    1.4631   -5.8100    0.0000 H   0  0  0  0  0  0  0  0  0  0  0  0
    4.2690   -5.8100    0.0000 H   0  0  0  0  0  0  0  0  0  0  0  0
  1  3  2  0  0  0  0
  1  4  2  0  0  0  0
  1  8  1  0  0  0  0
  1 13  1  0  0  0  0
  2 30  1  0  0  0  0
  5 22  1  0  0  0  0
  5 25  1  0  0  0  0
  6 21  2  0  0  0  0
  7 23  2  0  0  0  0
  8 11  1  0  0  0  0
  8 12  1  0  0  0  0
  9 10  1  0  0  0  0
  9 21  1  0  0  0  0
  9 46  1  0  0  0  0
 10 23  1  0  0  0  0
 10 47  1  0  0  0  0
 11 14  1  0  0  0  0
 11 33  1  0  0  0  0
 11 34  1  0  0  0  0
 12 15  1  0  0  0  0
 12 31  1  0  0  0  0
 12 32  1  0  0  0  0
 13 16  2  0  0  0  0
 13 17  1  0  0  0  0
 14 35  1  0  0  0  0
 14 39  1  0  0  0  0
 14 40  1  0  0  0  0
 15 36  1  0  0  0  0
 15 37  1  0  0  0  0
 15 38  1  0  0  0  0
 16 19  1  0  0  0  0
 16 41  1  0  0  0  0
 17 20  2  0  0  0  0
 17 42  1  0  0  0  0
 18 19  2  0  0  0  0
 18 20  1  0  0  0  0
 18 21  1  0  0  0  0
 19 43  1  0  0  0  0
 20 44  1  0  0  0  0
 22 23  1  0  0  0  0
 22 24  1  0  0  0  0
 22 45  1  0  0  0  0
 24 48  1  0  0  0  0
 24 49  1  0  0  0  0
 24 50  1  0  0  0  0
 25 26  2  0  0  0  0
 25 27  1  0  0  0  0
 26 28  1  0  0  0  0
 26 51  1  0  0  0  0
 27 29  2  0  0  0  0
 27 52  1  0  0  0  0
 28 30  2  0  0  0  0
 28 53  1  0  0  0  0
 29 30  1  0  0  0  0
 29 54  1  0  0  0  0
M  END
> <PUBCHEM_COMPOUND_CID>
17395646

> <PUBCHEM_COMPOUND_CANONICALIZED>
1

> <PUBCHEM_CACTVS_COMPLEXITY>
664

> <PUBCHEM_CACTVS_HBOND_ACCEPTOR>
7

> <PUBCHEM_CACTVS_HBOND_DONOR>
2

> <PUBCHEM_CACTVS_ROTATABLE_BOND>
8

> <PUBCHEM_CACTVS_SUBSKEYS>
AAADceB7OQBAAAAAAAAAAAAAAAAAAAAAAAAwYAAAAAAAAAABQAAAHwQYQAAADBTh2A4yB4JiBAKIAiFSEHLCCBAkIAIaqBlODMgOJjKEtR+DOSDk0BGIqYeYyACOEAAAAAAAAAAgAAAAAAAAAAAAAAAAAA==

> <PUBCHEM_IUPAC_OPENEYE_NAME>
N,N-diethyl-4-[[2-(4-fluorophenoxy)propanoylamino]carbamoyl]benzenesulfonamide

> <PUBCHEM_IUPAC_CAS_NAME>
N,N-diethyl-4-[[[2-(4-fluorophenoxy)-1-oxopropyl]hydrazo]-oxomethyl]benzenesulfonamide

> <PUBCHEM_IUPAC_NAME>
N,N-diethyl-4-[[2-(4-fluorophenoxy)propanoylamino]carbamoyl]benzenesulfonamide

> <PUBCHEM_IUPAC_SYSTEMATIC_NAME>
N,N-diethyl-4-[[2-(4-fluoranylphenoxy)propanoylamino]carbamoyl]benzenesulfonamide

> <PUBCHEM_IUPAC_TRADITIONAL_NAME>
N,N-diethyl-4-[[2-(4-fluorophenoxy)propanoylamino]carbamoyl]benzenesulfonamide

> <PUBCHEM_IUPAC_INCHI>
InChI=1S/C20H24FN3O5S/c1-4-24(5-2)30(27,28)18-12-6-15(7-13-18)20(26)23-22-19(25)14(3)29-17-10-8-16(21)9-11-17/h6-14H,4-5H2,1-3H3,(H,22,25)(H,23,26)

> <PUBCHEM_IUPAC_INCHIKEY>
NYMMAHGHLHYHEY-UHFFFAOYSA-N

> <PUBCHEM_XLOGP3_AA>
2.8

> <PUBCHEM_EXACT_MASS>
437.14207

> <PUBCHEM_MOLECULAR_FORMULA>
C20H24FN3O5S

> <PUBCHEM_MOLECULAR_WEIGHT>
437.485063

> <PUBCHEM_OPENEYE_CAN_SMILES>
CCN(CC)S(=O)(=O)C1=CC=C(C=C1)C(=O)NNC(=O)C(C)OC2=CC=C(C=C2)F

> <PUBCHEM_OPENEYE_ISO_SMILES>
CCN(CC)S(=O)(=O)C1=CC=C(C=C1)C(=O)NNC(=O)C(C)OC2=CC=C(C=C2)F

> <PUBCHEM_CACTVS_TPSA>
113

> <PUBCHEM_MONOISOTOPIC_WEIGHT>
437.14207

> <PUBCHEM_TOTAL_CHARGE>
0

> <PUBCHEM_HEAVY_ATOM_COUNT>
30

> <PUBCHEM_ATOM_DEF_STEREO_COUNT>
0

> <PUBCHEM_ATOM_UDEF_STEREO_COUNT>
1

> <PUBCHEM_BOND_DEF_STEREO_COUNT>
0

> <PUBCHEM_BOND_UDEF_STEREO_COUNT>
0

> <PUBCHEM_ISOTOPIC_ATOM_COUNT>
0

> <PUBCHEM_COMPONENT_COUNT>
1

> <PUBCHEM_CACTVS_TAUTO_COUNT>
4

> <PUBCHEM_COORDINATE_TYPE>
1
5
255

> <PUBCHEM_BONDANNOTATIONS>
13  16  8
13  17  8
16  19  8
17  20  8
18  19  8
18  20  8
22  24  3
25  26  8
25  27  8
26  28  8
27  29  8
28  30  8
29  30  8

$$$$

