5281839
  -OEChem-07051213003D

 46 48  0     0  0  0  0  0  0999 V2000
    2.7935   -0.4368    1.1591 O   0  0  0  0  0  0  0  0  0  0  0  0
    2.3128    2.2368    0.6600 O   0  0  0  0  0  0  0  0  0  0  0  0
   -0.1985    3.0842    0.0604 O   0  0  0  0  0  0  0  0  0  0  0  0
   -2.6515    2.4845   -0.1907 O   0  0  0  0  0  0  0  0  0  0  0  0
   -1.9320   -1.4328    0.5322 N   0  0  0  0  0  0  0  0  0  0  0  0
   -0.8383   -0.5380    0.5643 C   0  0  0  0  0  0  0  0  0  0  0  0
   -1.0505    0.8268    0.2882 C   0  0  0  0  0  0  0  0  0  0  0  0
   -3.1969   -1.0727    0.0144 C   0  0  0  0  0  0  0  0  0  0  0  0
   -3.4687    0.2786   -0.2753 C   0  0  0  0  0  0  0  0  0  0  0  0
   -2.4109    1.2911   -0.0624 C   0  0  0  0  0  0  0  0  0  0  0  0
    0.4833   -0.9307    0.8449 C   0  0  0  0  0  0  0  0  0  0  0  0
   -0.0043    1.7596    0.3251 C   0  0  0  0  0  0  0  0  0  0  0  0
    1.5314   -0.0043    0.8787 C   0  0  0  0  0  0  0  0  0  0  0  0
    1.2869    1.3399    0.6249 C   0  0  0  0  0  0  0  0  0  0  0  0
   -1.7327   -2.8040    1.0102 C   0  0  0  0  0  0  0  0  0  0  0  0
   -4.2231   -1.9977   -0.2523 C   0  0  0  0  0  0  0  0  0  0  0  0
   -4.7130    0.6923   -0.7718 C   0  0  0  0  0  0  0  0  0  0  0  0
   -5.4649   -1.5903   -0.7520 C   0  0  0  0  0  0  0  0  0  0  0  0
   -5.7115   -0.2465   -1.0058 C   0  0  0  0  0  0  0  0  0  0  0  0
    3.3578   -1.4029    0.2753 C   0  0  0  0  0  0  0  0  0  0  0  0
    4.8467   -1.2541    0.2586 C   0  0  0  0  0  0  0  0  0  0  0  0
    3.0127    2.4677   -0.5605 C   0  0  0  0  0  0  0  0  0  0  0  0
    5.6468   -1.0138   -0.7973 C   0  0  0  0  0  0  0  0  0  0  0  0
    7.1372   -0.9013   -0.6115 C   0  0  0  0  0  0  0  0  0  0  0  0
    5.1876   -0.8355   -2.2168 C   0  0  0  0  0  0  0  0  0  0  0  0
    0.7225   -1.9732    1.0374 H   0  0  0  0  0  0  0  0  0  0  0  0
   -1.0149   -2.8566    1.8362 H   0  0  0  0  0  0  0  0  0  0  0  0
   -1.3854   -3.4478    0.1951 H   0  0  0  0  0  0  0  0  0  0  0  0
   -2.6446   -3.2342    1.4388 H   0  0  0  0  0  0  0  0  0  0  0  0
   -4.0836   -3.0638   -0.0956 H   0  0  0  0  0  0  0  0  0  0  0  0
   -4.9163    1.7374   -0.9887 H   0  0  0  0  0  0  0  0  0  0  0  0
   -6.2373   -2.3292   -0.9460 H   0  0  0  0  0  0  0  0  0  0  0  0
   -6.6756    0.0674   -1.3940 H   0  0  0  0  0  0  0  0  0  0  0  0
    3.1160   -2.4017    0.6573 H   0  0  0  0  0  0  0  0  0  0  0  0
    2.9176   -1.3156   -0.7220 H   0  0  0  0  0  0  0  0  0  0  0  0
   -1.0908    3.2424   -0.2813 H   0  0  0  0  0  0  0  0  0  0  0  0
    5.3140   -1.3657    1.2365 H   0  0  0  0  0  0  0  0  0  0  0  0
    2.3526    2.9361   -1.2972 H   0  0  0  0  0  0  0  0  0  0  0  0
    3.4166    1.5338   -0.9623 H   0  0  0  0  0  0  0  0  0  0  0  0
    3.8443    3.1473   -0.3551 H   0  0  0  0  0  0  0  0  0  0  0  0
    7.6518   -1.6621   -1.2076 H   0  0  0  0  0  0  0  0  0  0  0  0
    7.4854    0.0862   -0.9321 H   0  0  0  0  0  0  0  0  0  0  0  0
    7.4401   -1.0369    0.4322 H   0  0  0  0  0  0  0  0  0  0  0  0
    5.6371   -1.6035   -2.8551 H   0  0  0  0  0  0  0  0  0  0  0  0
    4.1058   -0.8988   -2.3445 H   0  0  0  0  0  0  0  0  0  0  0  0
    5.4994    0.1460   -2.5899 H   0  0  0  0  0  0  0  0  0  0  0  0
  1 13  1  0  0  0  0
  1 20  1  0  0  0  0
  2 14  1  0  0  0  0
  2 22  1  0  0  0  0
  3 12  1  0  0  0  0
  3 36  1  0  0  0  0
  4 10  2  0  0  0  0
  5  6  1  0  0  0  0
  5  8  1  0  0  0  0
  5 15  1  0  0  0  0
  6  7  1  0  0  0  0
  6 11  2  0  0  0  0
  7 10  1  0  0  0  0
  7 12  2  0  0  0  0
  8  9  1  0  0  0  0
  8 16  2  0  0  0  0
  9 10  1  0  0  0  0
  9 17  2  0  0  0  0
 11 13  1  0  0  0  0
 11 26  1  0  0  0  0
 12 14  1  0  0  0  0
 13 14  2  0  0  0  0
 15 27  1  0  0  0  0
 15 28  1  0  0  0  0
 15 29  1  0  0  0  0
 16 18  1  0  0  0  0
 16 30  1  0  0  0  0
 17 19  1  0  0  0  0
 17 31  1  0  0  0  0
 18 19  2  0  0  0  0
 18 32  1  0  0  0  0
 19 33  1  0  0  0  0
 20 21  1  0  0  0  0
 20 34  1  0  0  0  0
 20 35  1  0  0  0  0
 21 23  2  0  0  0  0
 21 37  1  0  0  0  0
 22 38  1  0  0  0  0
 22 39  1  0  0  0  0
 22 40  1  0  0  0  0
 23 24  1  0  0  0  0
 23 25  1  0  0  0  0
 24 41  1  0  0  0  0
 24 42  1  0  0  0  0
 24 43  1  0  0  0  0
 25 44  1  0  0  0  0
 25 45  1  0  0  0  0
 25 46  1  0  0  0  0
M  END
> <PUBCHEM_COMPOUND_CID>
5281839

> <PUBCHEM_CONFORMER_RMSD>
0.8

> <PUBCHEM_CONFORMER_DIVERSEORDER>
1
19
14
9
16
21
11
5
3
6
12
18
8
10
7
20
17
2
13
15
4

> <PUBCHEM_MMFF94_PARTIAL_CHARGES>
32
1 -0.36
10 0.4
11 -0.15
12 0.08
13 0.08
14 0.08
15 0.37
16 -0.15
17 -0.15
18 -0.15
19 -0.15
2 -0.36
20 0.42
21 -0.29
22 0.28
23 -0.28
24 0.14
25 0.14
26 0.15
3 -0.53
30 0.15
31 0.15
32 0.15
33 0.15
36 0.45
37 0.15
4 -0.57
5 -0.57
6 0.1
7 0.09
8 0.1
9 0.09

> <PUBCHEM_EFFECTIVE_ROTOR_COUNT>
4

> <PUBCHEM_PHARMACOPHORE_FEATURES>
9
1 1 acceptor
1 2 acceptor
1 3 donor
1 4 acceptor
1 5 cation
3 23 24 25 hydrophobe
6 5 6 7 8 9 10 rings
6 6 7 11 12 13 14 rings
6 8 9 16 17 18 19 rings

> <PUBCHEM_HEAVY_ATOM_COUNT>
25

> <PUBCHEM_ATOM_DEF_STEREO_COUNT>
0

> <PUBCHEM_ATOM_UDEF_STEREO_COUNT>
0

> <PUBCHEM_BOND_DEF_STEREO_COUNT>
0

> <PUBCHEM_BOND_UDEF_STEREO_COUNT>
0

> <PUBCHEM_ISOTOPIC_ATOM_COUNT>
0

> <PUBCHEM_COMPONENT_COUNT>
1

> <PUBCHEM_CACTVS_TAUTO_COUNT>
5

> <PUBCHEM_CONFORMER_ID>
0050982F00000001

> <PUBCHEM_MMFF94_ENERGY>
101.4867

> <PUBCHEM_FEATURE_SELFOVERLAP>
45.718

> <PUBCHEM_SHAPE_FINGERPRINT>
10693767 8 18117014216675804975
10967382 1 18198072374248723769
12011746 2 18409735075107449183
12236239 1 17489308632767105146
12596602 18 4750875918935459790
12788726 201 18268432502289319730
12954195 1 18335139851461719121
13583140 156 14490753528346253330
13782708 43 17168975868182361646
14251757 5 18272083885832045474
14790565 3 17182210856105471209
14931854 50 18272093841481822222
15183329 4 18342176682718712054
15196674 1 18341061718405091089
17492 89 18047197341404419591
1813 80 14851597770231803216
18222031 100 18187367640678334202
19319366 153 17560807666619932202
19784866 240 17530962483918172531
20871999 31 18341047514457814754
21267235 1 18410857638636969099
21279426 13 18411992347215748421
21307412 95 18260540138916620334
221357 26 18411424998804144781
22393880 68 18271254888461078245
23379529 103 18116997689335752999
23559900 14 18338243665027685128
2838139 119 15267060358926432310
3004659 81 18343590628807211096
335352 9 18410300242144729669
350125 39 18270683185765338009
4280585 95 18413110567820980488
437815 12 17894349986039536658
5104073 3 18340780243449629761
6823239 73 18336554845817495322
7237137 82 18200878490498712244
86090 222 16515952749344858798
9709674 26 18196940972335865595

> <PUBCHEM_SHAPE_MULTIPOLES>
486.03
13.75
2.85
1.17
10.89
1.29
-0.37
-7.13
-7.09
-0.51
0.27
0.95
-0.32
0.52

> <PUBCHEM_SHAPE_SELFOVERLAP>
1051.576

> <PUBCHEM_SHAPE_VOLUME>
266.7

> <PUBCHEM_COORDINATE_TYPE>
2
5
10

$$$$

