6867
  -OEChem-06261201333D

 28 29  0     0  0  0  0  0  0999 V2000
   -1.3151   -1.5532   -0.0846 O   0  0  0  0  0  0  0  0  0  0  0  0
   -3.5215   -2.1528   -0.1235 O   0  0  0  0  0  0  0  0  0  0  0  0
    3.3446   -0.3493   -0.0072 N   0  0  0  0  0  0  0  0  0  0  0  0
   -0.7221    0.8134    0.0382 C   0  0  0  0  0  0  0  0  0  0  0  0
    1.9883    0.0343    0.0077 C   0  0  0  0  0  0  0  0  0  0  0  0
   -0.3481   -0.5295   -0.0294 C   0  0  0  0  0  0  0  0  0  0  0  0
   -2.1532    1.1455    0.0505 C   0  0  0  0  0  0  0  0  0  0  0  0
    0.9887   -0.9314   -0.0452 C   0  0  0  0  0  0  0  0  0  0  0  0
    0.2997    1.7709    0.0909 C   0  0  0  0  0  0  0  0  0  0  0  0
    1.6444    1.3833    0.0758 C   0  0  0  0  0  0  0  0  0  0  0  0
   -3.0508    0.1512   -0.0033 C   0  0  0  0  0  0  0  0  0  0  0  0
   -2.5879    2.5801    0.1222 C   0  0  0  0  0  0  0  0  0  0  0  0
    4.3485    0.5228   -0.5845 C   0  0  0  0  0  0  0  0  0  0  0  0
    3.7564   -1.6152    0.5672 C   0  0  0  0  0  0  0  0  0  0  0  0
   -2.6720   -1.2701   -0.0745 C   0  0  0  0  0  0  0  0  0  0  0  0
    1.2189   -1.9909   -0.1100 H   0  0  0  0  0  0  0  0  0  0  0  0
    0.0760    2.8331    0.1473 H   0  0  0  0  0  0  0  0  0  0  0  0
    2.3992    2.1632    0.1306 H   0  0  0  0  0  0  0  0  0  0  0  0
   -4.1163    0.3602    0.0037 H   0  0  0  0  0  0  0  0  0  0  0  0
   -2.2149    3.1432   -0.7400 H   0  0  0  0  0  0  0  0  0  0  0  0
   -2.2217    3.0522    1.0401 H   0  0  0  0  0  0  0  0  0  0  0  0
   -3.6794    2.6768    0.1229 H   0  0  0  0  0  0  0  0  0  0  0  0
    4.6229    1.3167    0.1179 H   0  0  0  0  0  0  0  0  0  0  0  0
    3.9976    0.9754   -1.5189 H   0  0  0  0  0  0  0  0  0  0  0  0
    5.2613   -0.0326   -0.8275 H   0  0  0  0  0  0  0  0  0  0  0  0
    3.2443   -1.8102    1.5163 H   0  0  0  0  0  0  0  0  0  0  0  0
    4.8310   -1.6212    0.7819 H   0  0  0  0  0  0  0  0  0  0  0  0
    3.5545   -2.4392   -0.1253 H   0  0  0  0  0  0  0  0  0  0  0  0
  1  6  1  0  0  0  0
  1 15  1  0  0  0  0
  2 15  2  0  0  0  0
  3  5  1  0  0  0  0
  3 13  1  0  0  0  0
  3 14  1  0  0  0  0
  4  6  2  0  0  0  0
  4  7  1  0  0  0  0
  4  9  1  0  0  0  0
  5  8  2  0  0  0  0
  5 10  1  0  0  0  0
  6  8  1  0  0  0  0
  7 11  2  0  0  0  0
  7 12  1  0  0  0  0
  8 16  1  0  0  0  0
  9 10  2  0  0  0  0
  9 17  1  0  0  0  0
 10 18  1  0  0  0  0
 11 15  1  0  0  0  0
 11 19  1  0  0  0  0
 12 20  1  0  0  0  0
 12 21  1  0  0  0  0
 12 22  1  0  0  0  0
 13 23  1  0  0  0  0
 13 24  1  0  0  0  0
 13 25  1  0  0  0  0
 14 26  1  0  0  0  0
 14 27  1  0  0  0  0
 14 28  1  0  0  0  0
M  END
> <PUBCHEM_COMPOUND_CID>
6867

> <PUBCHEM_CONFORMER_RMSD>
0.4

> <PUBCHEM_CONFORMER_DIVERSEORDER>
2
1

> <PUBCHEM_MMFF94_PARTIAL_CHARGES>
19
1 -0.23
10 -0.15
11 -0.14
12 0.14
13 0.37
14 0.37
15 0.71
16 0.15
17 0.15
18 0.15
19 0.15
2 -0.57
3 -0.84
4 0.03
5 0.1
6 0.08
7 -0.17
8 -0.15
9 -0.15

> <PUBCHEM_EFFECTIVE_ROTOR_COUNT>
1

> <PUBCHEM_PHARMACOPHORE_FEATURES>
4
1 2 acceptor
1 3 cation
6 1 4 6 7 11 15 rings
6 4 5 6 8 9 10 rings

> <PUBCHEM_HEAVY_ATOM_COUNT>
15

> <PUBCHEM_ATOM_DEF_STEREO_COUNT>
0

> <PUBCHEM_ATOM_UDEF_STEREO_COUNT>
0

> <PUBCHEM_BOND_DEF_STEREO_COUNT>
0

> <PUBCHEM_BOND_UDEF_STEREO_COUNT>
0

> <PUBCHEM_ISOTOPIC_ATOM_COUNT>
0

> <PUBCHEM_COMPONENT_COUNT>
1

> <PUBCHEM_CACTVS_TAUTO_COUNT>
1

> <PUBCHEM_CONFORMER_ID>
00001AD300000002

> <PUBCHEM_MMFF94_ENERGY>
61.6757

> <PUBCHEM_FEATURE_SELFOVERLAP>
20.324

> <PUBCHEM_SHAPE_FINGERPRINT>
10062212 137 18270688682896001418
10608611 8 18335144189231189920
10616163 171 18409445920956164046
10967382 1 18049723223980280337
11132069 177 18337960111650559624
11769659 78 18411986840529461602
11806522 49 18340770317210365622
12032990 46 18335698321590053902
13140716 1 18335423486427347264
13380535 76 18118688948714114253
13760787 19 18271801376084025884
14144814 61 18410293618571812530
14325111 11 18411418449105735776
14965852 173 18409730668518216353
15196674 1 18410856572540522210
15375462 189 18272932751752554466
15442244 35 18340488975567512728
15536298 74 18189616051652091864
15669948 3 18408326592254033446
16945 1 18409166640601882673
17804303 29 18334009480082354209
18186145 218 16415191308830132290
19422 9 18343863342382973306
200 152 17968105187977516367
20281475 54 18341333370443462058
20510252 161 18260546714494907496
20871998 184 18186519899611183855
21267235 1 18411691110815070202
21501502 16 18411978048747367388
21501925 9 18337965488875722226
2334 1 18337674105135464728
23402539 116 18261684761360722821
23463225 33 18340769338153078846
23557571 272 18260535724375145492
23559900 14 18117277172048550646
2748010 2 18264217923817388877
3312278 4 18335980951839166200
335352 9 18122626329849386116
5104073 3 18410013264829428346
54173680 148 18410293639972730969
633830 44 16486682688665939636
7364860 26 18046626707479913104
8809292 202 18342736278424189491
9709674 26 18189333640182658902

> <PUBCHEM_SHAPE_MULTIPOLES>
291.97
6.79
2.31
0.65
4.34
0.2
0
-1.45
-0.24
-1.76
0.09
0.19
0.01
-0.48

> <PUBCHEM_SHAPE_SELFOVERLAP>
623.188

> <PUBCHEM_SHAPE_VOLUME>
163.4

> <PUBCHEM_COORDINATE_TYPE>
2
5
10

$$$$

