442515
  -OEChem-07051212583D

 28 29  0     1  0  0  0  0  0999 V2000
   -2.2436    1.8928    1.2309 O   0  0  0  0  0  0  0  0  0  0  0  0
    3.2201   -0.1091    0.5601 O   0  0  0  0  0  0  0  0  0  0  0  0
    2.3265    1.4731   -0.8529 O   0  0  0  0  0  0  0  0  0  0  0  0
    0.0032   -2.5861    0.0930 N   0  0  0  0  0  0  0  0  0  0  0  0
   -2.6370    0.1357   -0.4554 C   0  0  1  0  0  0  0  0  0  0  0  0
   -2.1235    1.5673   -0.1540 C   0  0  2  0  0  0  0  0  0  0  0  0
   -0.6278    1.5812   -0.5208 C   0  0  0  0  0  0  0  0  0  0  0  0
   -1.3863   -0.6642   -0.2335 C   0  0  0  0  0  0  0  0  0  0  0  0
   -0.2541    0.1504   -0.2775 C   0  0  0  0  0  0  0  0  0  0  0  0
   -3.8297   -0.3073    0.3789 C   0  0  0  0  0  0  0  0  0  0  0  0
    1.0115   -0.3854   -0.1446 C   0  0  0  0  0  0  0  0  0  0  0  0
   -1.2165   -2.0187   -0.0549 C   0  0  0  0  0  0  0  0  0  0  0  0
    1.0802   -1.7574    0.0439 C   0  0  0  0  0  0  0  0  0  0  0  0
    2.2150    0.4252   -0.2005 C   0  0  0  0  0  0  0  0  0  0  0  0
    4.4620    0.6026    0.5872 C   0  0  0  0  0  0  0  0  0  0  0  0
   -2.8881    0.0657   -1.5220 H   0  0  0  0  0  0  0  0  0  0  0  0
   -2.6895    2.3201   -0.7126 H   0  0  0  0  0  0  0  0  0  0  0  0
   -0.0568    2.2687    0.1098 H   0  0  0  0  0  0  0  0  0  0  0  0
   -0.4867    1.8184   -1.5804 H   0  0  0  0  0  0  0  0  0  0  0  0
   -3.5883   -0.3564    1.4464 H   0  0  0  0  0  0  0  0  0  0  0  0
   -4.6681    0.3846    0.2482 H   0  0  0  0  0  0  0  0  0  0  0  0
   -4.1688   -1.3040    0.0761 H   0  0  0  0  0  0  0  0  0  0  0  0
   -2.0538   -2.7061   -0.0294 H   0  0  0  0  0  0  0  0  0  0  0  0
   -1.9149    2.8006    1.3473 H   0  0  0  0  0  0  0  0  0  0  0  0
    2.0287   -2.2756    0.1522 H   0  0  0  0  0  0  0  0  0  0  0  0
    5.1545    0.0549    1.2317 H   0  0  0  0  0  0  0  0  0  0  0  0
    4.3131    1.6046    1.0000 H   0  0  0  0  0  0  0  0  0  0  0  0
    4.8862    0.6584   -0.4196 H   0  0  0  0  0  0  0  0  0  0  0  0
  1  6  1  0  0  0  0
  1 24  1  0  0  0  0
  2 14  1  0  0  0  0
  2 15  1  0  0  0  0
  3 14  2  0  0  0  0
  4 12  1  0  0  0  0
  4 13  2  0  0  0  0
  5  6  1  0  0  0  0
  5  8  1  0  0  0  0
  5 10  1  0  0  0  0
  5 16  1  0  0  0  0
  6  7  1  0  0  0  0
  6 17  1  0  0  0  0
  7  9  1  0  0  0  0
  7 18  1  0  0  0  0
  7 19  1  0  0  0  0
  8  9  1  0  0  0  0
  8 12  2  0  0  0  0
  9 11  2  0  0  0  0
 10 20  1  0  0  0  0
 10 21  1  0  0  0  0
 10 22  1  0  0  0  0
 11 13  1  0  0  0  0
 11 14  1  0  0  0  0
 12 23  1  0  0  0  0
 13 25  1  0  0  0  0
 15 26  1  0  0  0  0
 15 27  1  0  0  0  0
 15 28  1  0  0  0  0
M  END
> <PUBCHEM_COMPOUND_CID>
442515

> <PUBCHEM_CONFORMER_RMSD>
0.6

> <PUBCHEM_CONFORMER_DIVERSEORDER>
1
4
2
3

> <PUBCHEM_MMFF94_PARTIAL_CHARGES>
17
1 -0.68
11 0.09
12 0.16
13 0.16
14 0.63
15 0.28
2 -0.43
23 0.15
24 0.4
25 0.15
3 -0.57
4 -0.62
5 0.14
6 0.28
7 0.14
8 -0.14
9 -0.14

> <PUBCHEM_EFFECTIVE_ROTOR_COUNT>
2.6

> <PUBCHEM_PHARMACOPHORE_FEATURES>
6
1 1 acceptor
1 1 donor
1 3 acceptor
1 4 acceptor
5 5 6 7 8 9 rings
6 4 8 9 11 12 13 rings

> <PUBCHEM_HEAVY_ATOM_COUNT>
15

> <PUBCHEM_ATOM_DEF_STEREO_COUNT>
2

> <PUBCHEM_ATOM_UDEF_STEREO_COUNT>
0

> <PUBCHEM_BOND_DEF_STEREO_COUNT>
0

> <PUBCHEM_BOND_UDEF_STEREO_COUNT>
0

> <PUBCHEM_ISOTOPIC_ATOM_COUNT>
0

> <PUBCHEM_COMPONENT_COUNT>
1

> <PUBCHEM_CACTVS_TAUTO_COUNT>
1

> <PUBCHEM_CONFORMER_ID>
0006C09300000001

> <PUBCHEM_MMFF94_ENERGY>
44.9312

> <PUBCHEM_FEATURE_SELFOVERLAP>
30.529

> <PUBCHEM_SHAPE_FINGERPRINT>
10967382 1 18412263930244277934
11132069 177 18409167688478853463
12251169 10 18272092669303292576
12346645 44 18334576883916725178
12382932 28 18339082716911551136
13024252 1 14189585143199248685
13140716 1 18122621656882750467
13380535 76 18411140233724626166
14144814 61 18343025518770037576
14614273 12 18271815669629913221
15042514 8 18267866077502374122
15309172 13 18342457066773567080
15536298 74 18261956370264778406
15775835 57 18260268589571549497
16945 1 18409161087156298191
17846911 113 18408889511984220153
1813 80 16844735369529312486
18186145 218 18189892187804819828
193761 8 17907863151643794037
200 152 18334872605922403717
20510252 161 18333450949740165952
20645476 183 17487599845747638406
20871998 184 18190177893055675150
21501502 16 18193277618503397115
21524375 3 18409169917567055502
2334 1 17762335812638618639
23402539 116 18262812778053257815
23419403 2 16463112169758507084
23463225 33 18272937124155764406
23557571 272 17972592183197945358
23559900 14 18261391101915221060
257057 1 17326907170536324862
2748010 2 18125442170269160527
305870 269 18267869565183837506
43471831 8 18342461494743009194
53655031 270 18410573981262685267
5706482 22 18410583893688709754
6992083 37 18130790044893386068
7364860 26 18045503276936451814
81228 2 18194961846720647554

> <PUBCHEM_SHAPE_MULTIPOLES>
286.1
5.76
2.22
0.81
3.79
0.76
-0.07
-1.73
-1.29
-0.6
-0.06
-0.06
-0.25
-0.27

> <PUBCHEM_SHAPE_SELFOVERLAP>
612.752

> <PUBCHEM_SHAPE_VOLUME>
159.8

> <PUBCHEM_COORDINATE_TYPE>
2
5
10

$$$$

