656705
  -OEChem-07051213043D

 35 36  0     0  0  0  0  0  0999 V2000
    3.0263    2.8769   -0.1160 O   0  0  0  0  0  0  0  0  0  0  0  0
   -3.5955    0.4437    0.1491 N   0  3  0  0  0  0  0  0  0  0  0  0
    1.5871   -2.4062    0.1579 N   0  0  0  0  0  0  0  0  0  0  0  0
   -2.2549   -0.1379    0.5745 C   0  0  0  0  0  0  0  0  0  0  0  0
   -1.4198   -0.4988   -0.6498 C   0  0  0  0  0  0  0  0  0  0  0  0
   -4.3503   -0.5800   -0.6869 C   0  0  0  0  0  0  0  0  0  0  0  0
   -4.4127    0.7913    1.3850 C   0  0  0  0  0  0  0  0  0  0  0  0
   -3.3640    1.7012   -0.6763 C   0  0  0  0  0  0  0  0  0  0  0  0
   -0.0535   -1.0259   -0.3187 C   0  0  0  0  0  0  0  0  0  0  0  0
    1.1126   -0.2507   -0.1672 C   0  0  0  0  0  0  0  0  0  0  0  0
    2.1408   -1.1461    0.1348 C   0  0  0  0  0  0  0  0  0  0  0  0
    0.2478   -2.3385   -0.1185 C   0  0  0  0  0  0  0  0  0  0  0  0
    1.4133    1.1231   -0.2537 C   0  0  0  0  0  0  0  0  0  0  0  0
    3.4600   -0.7346    0.3558 C   0  0  0  0  0  0  0  0  0  0  0  0
    2.7283    1.5493   -0.0349 C   0  0  0  0  0  0  0  0  0  0  0  0
    3.7344    0.6331    0.2650 C   0  0  0  0  0  0  0  0  0  0  0  0
   -1.7495    0.6117    1.1959 H   0  0  0  0  0  0  0  0  0  0  0  0
   -2.4539   -1.0203    1.1952 H   0  0  0  0  0  0  0  0  0  0  0  0
   -1.2742    0.3588   -1.3135 H   0  0  0  0  0  0  0  0  0  0  0  0
   -1.9158   -1.2708   -1.2490 H   0  0  0  0  0  0  0  0  0  0  0  0
   -4.3636   -1.5324   -0.1490 H   0  0  0  0  0  0  0  0  0  0  0  0
   -5.3734   -0.2149   -0.8240 H   0  0  0  0  0  0  0  0  0  0  0  0
   -3.8828   -0.6835   -1.6691 H   0  0  0  0  0  0  0  0  0  0  0  0
   -3.8558    1.5285    1.9708 H   0  0  0  0  0  0  0  0  0  0  0  0
   -5.3733    1.2057    1.0651 H   0  0  0  0  0  0  0  0  0  0  0  0
   -4.5670   -0.1233    1.9654 H   0  0  0  0  0  0  0  0  0  0  0  0
   -2.6625    2.3493   -0.1427 H   0  0  0  0  0  0  0  0  0  0  0  0
   -2.9908    1.4397   -1.6692 H   0  0  0  0  0  0  0  0  0  0  0  0
   -4.3265    2.2104   -0.7916 H   0  0  0  0  0  0  0  0  0  0  0  0
   -0.3550   -3.2356   -0.1435 H   0  0  0  0  0  0  0  0  0  0  0  0
    2.0962   -3.2577    0.3511 H   0  0  0  0  0  0  0  0  0  0  0  0
    0.6361    1.8464   -0.4853 H   0  0  0  0  0  0  0  0  0  0  0  0
    4.2438   -1.4473    0.5894 H   0  0  0  0  0  0  0  0  0  0  0  0
    4.7539    0.9725    0.4337 H   0  0  0  0  0  0  0  0  0  0  0  0
    3.9747    2.9992    0.0616 H   0  0  0  0  0  0  0  0  0  0  0  0
  1 15  1  0  0  0  0
  1 35  1  0  0  0  0
  2  4  1  0  0  0  0
  2  6  1  0  0  0  0
  2  7  1  0  0  0  0
  2  8  1  0  0  0  0
  3 11  1  0  0  0  0
  3 12  1  0  0  0  0
  3 31  1  0  0  0  0
  4  5  1  0  0  0  0
  4 17  1  0  0  0  0
  4 18  1  0  0  0  0
  5  9  1  0  0  0  0
  5 19  1  0  0  0  0
  5 20  1  0  0  0  0
  6 21  1  0  0  0  0
  6 22  1  0  0  0  0
  6 23  1  0  0  0  0
  7 24  1  0  0  0  0
  7 25  1  0  0  0  0
  7 26  1  0  0  0  0
  8 27  1  0  0  0  0
  8 28  1  0  0  0  0
  8 29  1  0  0  0  0
  9 10  1  0  0  0  0
  9 12  2  0  0  0  0
 10 11  2  0  0  0  0
 10 13  1  0  0  0  0
 11 14  1  0  0  0  0
 12 30  1  0  0  0  0
 13 15  2  0  0  0  0
 13 32  1  0  0  0  0
 14 16  2  0  0  0  0
 14 33  1  0  0  0  0
 15 16  1  0  0  0  0
 16 34  1  0  0  0  0
M  CHG  1   2   1
M  END
> <PUBCHEM_COMPOUND_CID>
656705

> <PUBCHEM_CONFORMER_RMSD>
0.6

> <PUBCHEM_CONFORMER_DIVERSEORDER>
2
1

> <PUBCHEM_MMFF94_PARTIAL_CHARGES>
21
1 -0.53
11 -0.15
12 -0.3
13 -0.15
14 -0.15
15 0.08
16 -0.15
2 -1.01
3 0.03
30 0.15
31 0.27
32 0.15
33 0.15
34 0.15
35 0.45
4 0.5
5 0.18
6 0.5
7 0.5
8 0.5
9 -0.18

> <PUBCHEM_EFFECTIVE_ROTOR_COUNT>
3

> <PUBCHEM_PHARMACOPHORE_FEATURES>
6
1 1 donor
1 2 cation
1 3 cation
1 3 donor
5 3 9 10 11 12 rings
6 10 11 13 14 15 16 rings

> <PUBCHEM_HEAVY_ATOM_COUNT>
16

> <PUBCHEM_ATOM_DEF_STEREO_COUNT>
0

> <PUBCHEM_ATOM_UDEF_STEREO_COUNT>
0

> <PUBCHEM_BOND_DEF_STEREO_COUNT>
0

> <PUBCHEM_BOND_UDEF_STEREO_COUNT>
0

> <PUBCHEM_ISOTOPIC_ATOM_COUNT>
0

> <PUBCHEM_COMPONENT_COUNT>
1

> <PUBCHEM_CACTVS_TAUTO_COUNT>
8

> <PUBCHEM_CONFORMER_ID>
000A054100000002

> <PUBCHEM_MMFF94_ENERGY>
40.0591

> <PUBCHEM_FEATURE_SELFOVERLAP>
30.538

> <PUBCHEM_SHAPE_FINGERPRINT>
10366900 7 17988917890397047379
10465860 228 18334570286894574114
10608611 8 18270965751494618677
10980938 120 18410577309519617238
11471102 20 18411986879410981742
12390115 104 17979056199146988340
13140716 1 18269282270586106978
13583140 156 16988299602529735553
13922767 16 18411704309159458290
14026960 21 18271238322829999249
14123255 52 18266459810994286956
14251717 144 18410299111740097063
14415576 193 18411138043232860748
14897335 6 18336270045982455830
15442244 35 18048879894272096707
15475509 8 18042944641255353036
15775835 57 18260265226812629605
16945 1 18341063960241155374
1741750 31 18119248359714859808
18186145 218 18261387870923174479
19050596 39 18409445904013216963
20645477 70 18267031729124226863
21524375 3 18262521390118032334
21639500 275 18337685169134457469
21665062 11 18412822516838175528
21709351 56 18337117846835796295
22094290 62 18410858737604966024
22485316 2 10519987058502166007
22854114 111 18410292523080760881
22854114 59 18413108359838577205
23402539 116 15574720226426870986
23557571 272 4750861634074069571
23558518 356 17984140349514328194
25 1 18410292501970031766
2838139 119 15431187685599528432
293599 30 18340199701357759396
474 4 18410293588290679201
49207404 50 18200015266797087723
5104073 3 18411419496982915339
602551 16 16056583331808727001
6333272 397 18339362972275720723
633830 44 18187635903887009261
7364860 26 18262797496533530494
84936 182 18114749230900719936

> <PUBCHEM_SHAPE_MULTIPOLES>
313.44
8.24
2.38
0.87
6.49
0.25
-0.13
3.23
-1.1
-1.81
0.16
0.82
0.1
-0.36

> <PUBCHEM_SHAPE_SELFOVERLAP>
659.459

> <PUBCHEM_SHAPE_VOLUME>
180.7

> <PUBCHEM_COORDINATE_TYPE>
2
5
10

$$$$

