5281816
  -OEChem-07051212592D

 44 46  0     0  0  0  0  0  0999 V2000
    4.6551    0.7436    0.0000 O   0  0  0  0  0  0  0  0  0  0  0  0
    2.8660   -4.3442    0.0000 O   0  0  0  0  0  0  0  0  0  0  0  0
    4.5981   -5.3442    0.0000 O   0  0  0  0  0  0  0  0  0  0  0  0
    2.6130    4.9307    0.0000 O   0  0  0  0  0  0  0  0  0  0  0  0
    6.2731    0.7436    0.0000 N   0  0  0  0  0  0  0  0  0  0  0  0
    4.3763    2.5036    0.0000 C   0  0  0  0  0  0  0  0  0  0  0  0
    4.5981   -2.3442    0.0000 C   0  0  0  0  0  0  0  0  0  0  0  0
    4.9641    1.6946    0.0000 C   0  0  0  0  0  0  0  0  0  0  0  0
    3.7320   -2.8442    0.0000 C   0  0  0  0  0  0  0  0  0  0  0  0
    3.7320   -3.8442    0.0000 C   0  0  0  0  0  0  0  0  0  0  0  0
    4.5981   -4.3442    0.0000 C   0  0  0  0  0  0  0  0  0  0  0  0
    5.4641    0.1558    0.0000 C   0  0  0  0  0  0  0  0  0  0  0  0
    5.4641   -2.8442    0.0000 C   0  0  0  0  0  0  0  0  0  0  0  0
    4.5981   -1.3442    0.0000 C   0  0  0  0  0  0  0  0  0  0  0  0
    3.3818    2.3991    0.0000 C   0  0  0  0  0  0  0  0  0  0  0  0
    4.7830    3.4172    0.0000 C   0  0  0  0  0  0  0  0  0  0  0  0
    5.4641   -3.8442    0.0000 C   0  0  0  0  0  0  0  0  0  0  0  0
    5.4641   -0.8442    0.0000 C   0  0  0  0  0  0  0  0  0  0  0  0
    5.9641    1.6946    0.0000 C   0  0  0  0  0  0  0  0  0  0  0  0
    3.2008    4.1217    0.0000 C   0  0  0  0  0  0  0  0  0  0  0  0
    2.7940    3.2081    0.0000 C   0  0  0  0  0  0  0  0  0  0  0  0
    4.1953    4.2262    0.0000 C   0  0  0  0  0  0  0  0  0  0  0  0
    2.0000   -3.8442    0.0000 C   0  0  0  0  0  0  0  0  0  0  0  0
    5.4641   -5.8442    0.0000 C   0  0  0  0  0  0  0  0  0  0  0  0
    3.0197    5.8442    0.0000 C   0  0  0  0  0  0  0  0  0  0  0  0
    3.1951   -2.5342    0.0000 H   0  0  0  0  0  0  0  0  0  0  0  0
    6.0010   -2.5342    0.0000 H   0  0  0  0  0  0  0  0  0  0  0  0
    4.0611   -1.0342    0.0000 H   0  0  0  0  0  0  0  0  0  0  0  0
    3.1296    1.8327    0.0000 H   0  0  0  0  0  0  0  0  0  0  0  0
    5.3997    3.4820    0.0000 H   0  0  0  0  0  0  0  0  0  0  0  0
    6.0010   -4.1542    0.0000 H   0  0  0  0  0  0  0  0  0  0  0  0
    6.0010   -1.1542    0.0000 H   0  0  0  0  0  0  0  0  0  0  0  0
    6.3285    2.1962    0.0000 H   0  0  0  0  0  0  0  0  0  0  0  0
    2.1774    3.1433    0.0000 H   0  0  0  0  0  0  0  0  0  0  0  0
    4.4474    4.7926    0.0000 H   0  0  0  0  0  0  0  0  0  0  0  0
    2.3100   -3.3073    0.0000 H   0  0  0  0  0  0  0  0  0  0  0  0
    1.4631   -3.5342    0.0000 H   0  0  0  0  0  0  0  0  0  0  0  0
    1.6900   -4.3812    0.0000 H   0  0  0  0  0  0  0  0  0  0  0  0
    5.1541   -6.3812    0.0000 H   0  0  0  0  0  0  0  0  0  0  0  0
    6.0010   -6.1542    0.0000 H   0  0  0  0  0  0  0  0  0  0  0  0
    5.7741   -5.3073    0.0000 H   0  0  0  0  0  0  0  0  0  0  0  0
    3.5861    5.5921    0.0000 H   0  0  0  0  0  0  0  0  0  0  0  0
    3.2719    6.4106    0.0000 H   0  0  0  0  0  0  0  0  0  0  0  0
    2.4533    6.0964    0.0000 H   0  0  0  0  0  0  0  0  0  0  0  0
  1  8  1  0  0  0  0
  1 12  1  0  0  0  0
  2 10  1  0  0  0  0
  2 23  1  0  0  0  0
  3 11  1  0  0  0  0
  3 24  1  0  0  0  0
  4 20  1  0  0  0  0
  4 25  1  0  0  0  0
  5 12  2  0  0  0  0
  5 19  1  0  0  0  0
  6  8  1  0  0  0  0
  6 15  2  0  0  0  0
  6 16  1  0  0  0  0
  7  9  2  0  0  0  0
  7 13  1  0  0  0  0
  7 14  1  0  0  0  0
  8 19  2  0  0  0  0
  9 10  1  0  0  0  0
  9 26  1  0  0  0  0
 10 11  2  0  0  0  0
 11 17  1  0  0  0  0
 12 18  1  0  0  0  0
 13 17  2  0  0  0  0
 13 27  1  0  0  0  0
 14 18  2  0  0  0  0
 14 28  1  0  0  0  0
 15 21  1  0  0  0  0
 15 29  1  0  0  0  0
 16 22  2  0  0  0  0
 16 30  1  0  0  0  0
 17 31  1  0  0  0  0
 18 32  1  0  0  0  0
 19 33  1  0  0  0  0
 20 21  2  0  0  0  0
 20 22  1  0  0  0  0
 21 34  1  0  0  0  0
 22 35  1  0  0  0  0
 23 36  1  0  0  0  0
 23 37  1  0  0  0  0
 23 38  1  0  0  0  0
 24 39  1  0  0  0  0
 24 40  1  0  0  0  0
 24 41  1  0  0  0  0
 25 42  1  0  0  0  0
 25 43  1  0  0  0  0
 25 44  1  0  0  0  0
M  END
> <PUBCHEM_COMPOUND_CID>
5281816

> <PUBCHEM_COMPOUND_CANONICALIZED>
1

> <PUBCHEM_CACTVS_COMPLEXITY>
422

> <PUBCHEM_CACTVS_HBOND_ACCEPTOR>
5

> <PUBCHEM_CACTVS_HBOND_DONOR>
0

> <PUBCHEM_CACTVS_ROTATABLE_BOND>
6

> <PUBCHEM_CACTVS_SUBSKEYS>
AAADceB6OAAAAAAAAAAAAAAAAAAAAWAAAAAwYAAAAAAAAAAB0AAAHgAAAAAADATBmgY+hpIIFECoArF3VASCiCA/YCAI2AG/yNgPJjLEtTuPOSKkxhHa6YeY7LzOIAABAAAAQABAAAIAAACAAAAAAAAAAA==

> <PUBCHEM_IUPAC_OPENEYE_NAME>
2-[(E)-2-(3,4-dimethoxyphenyl)vinyl]-5-(4-methoxyphenyl)oxazole

> <PUBCHEM_IUPAC_CAS_NAME>
2-[(E)-2-(3,4-dimethoxyphenyl)ethenyl]-5-(4-methoxyphenyl)oxazole

> <PUBCHEM_IUPAC_NAME>
2-[(E)-2-(3,4-dimethoxyphenyl)ethenyl]-5-(4-methoxyphenyl)-1,3-oxazole

> <PUBCHEM_IUPAC_SYSTEMATIC_NAME>
2-[(E)-2-(3,4-dimethoxyphenyl)ethenyl]-5-(4-methoxyphenyl)-1,3-oxazole

> <PUBCHEM_IUPAC_TRADITIONAL_NAME>
2-[(E)-2-(3,4-dimethoxyphenyl)vinyl]-5-(4-methoxyphenyl)oxazole

> <PUBCHEM_IUPAC_INCHI>
InChI=1S/C20H19NO4/c1-22-16-8-6-15(7-9-16)19-13-21-20(25-19)11-5-14-4-10-17(23-2)18(12-14)24-3/h4-13H,1-3H3/b11-5+

> <PUBCHEM_IUPAC_INCHIKEY>
VGJRJYYLGKAWDE-VZUCSPMQSA-N

> <PUBCHEM_XLOGP3_AA>
4.2

> <PUBCHEM_EXACT_MASS>
337.131408

> <PUBCHEM_MOLECULAR_FORMULA>
C20H19NO4

> <PUBCHEM_MOLECULAR_WEIGHT>
337.36916

> <PUBCHEM_OPENEYE_CAN_SMILES>
COC1=CC=C(C=C1)C2=CN=C(O2)C=CC3=CC(=C(C=C3)OC)OC

> <PUBCHEM_OPENEYE_ISO_SMILES>
COC1=CC=C(C=C1)C2=CN=C(O2)/C=C/C3=CC(=C(C=C3)OC)OC

> <PUBCHEM_CACTVS_TPSA>
53.7

> <PUBCHEM_MONOISOTOPIC_WEIGHT>
337.131408

> <PUBCHEM_TOTAL_CHARGE>
0

> <PUBCHEM_HEAVY_ATOM_COUNT>
25

> <PUBCHEM_ATOM_DEF_STEREO_COUNT>
0

> <PUBCHEM_ATOM_UDEF_STEREO_COUNT>
0

> <PUBCHEM_BOND_DEF_STEREO_COUNT>
1

> <PUBCHEM_BOND_UDEF_STEREO_COUNT>
0

> <PUBCHEM_ISOTOPIC_ATOM_COUNT>
0

> <PUBCHEM_COMPONENT_COUNT>
1

> <PUBCHEM_CACTVS_TAUTO_COUNT>
1

> <PUBCHEM_COORDINATE_TYPE>
1
5
255

> <PUBCHEM_BONDANNOTATIONS>
1  12  8
1  8  8
10  11  8
11  17  8
13  17  8
15  21  8
16  22  8
20  21  8
20  22  8
5  12  8
5  19  8
6  15  8
6  16  8
7  13  8
7  9  8
8  19  8
9  10  8

$$$$

