5460449
  -OEChem-07051213073D

 71 73  0     1  0  0  0  0  0999 V2000
   -1.0881   -0.1760   -2.4033 O   0  0  0  0  0  0  0  0  0  0  0  0
   -3.0127    1.4482    0.2995 O   0  0  0  0  0  0  0  0  0  0  0  0
    0.1286   -3.4120    2.7124 O   0  0  0  0  0  0  0  0  0  0  0  0
    2.5410    1.8116   -0.2509 O   0  0  0  0  0  0  0  0  0  0  0  0
   -2.9509   -1.5205   -2.6465 O   0  0  0  0  0  0  0  0  0  0  0  0
   -2.1795    3.5033    0.9473 O   0  0  0  0  0  0  0  0  0  0  0  0
    4.7494    2.3346    0.1810 O   0  0  0  0  0  0  0  0  0  0  0  0
    1.7950   -1.7761   -0.4132 C   0  0  2  0  0  0  0  0  0  0  0  0
    0.8765   -0.5601   -0.8929 C   0  0  2  0  0  0  0  0  0  0  0  0
   -1.7329   -0.5915   -0.1444 C   0  0  2  0  0  0  0  0  0  0  0  0
   -1.7335   -1.5750    1.0631 C   0  0  0  0  0  0  0  0  0  0  0  0
   -0.6260   -0.8937   -1.2487 C   0  0  1  0  0  0  0  0  0  0  0  0
    1.2068   -2.7916    0.6240 C   0  0  0  0  0  0  0  0  0  0  0  0
   -0.4430   -1.2617    1.8432 C   0  0  0  0  0  0  0  0  0  0  0  0
   -1.6909    0.8985    0.3313 C   0  0  2  0  0  0  0  0  0  0  0  0
    3.1005   -1.1772    0.2115 C   0  0  0  0  0  0  0  0  0  0  0  0
    0.6371   -2.3044    1.9694 C   0  0  1  0  0  0  0  0  0  0  0  0
    1.7226    0.2594   -1.8937 C   0  0  0  0  0  0  0  0  0  0  0  0
    3.8523   -0.1853   -0.6867 C   0  0  0  0  0  0  0  0  0  0  0  0
   -1.0890    1.1477    1.7297 C   0  0  0  0  0  0  0  0  0  0  0  0
    2.9464    0.9013   -1.2699 C   0  0  2  0  0  0  0  0  0  0  0  0
    2.1846   -2.6611   -1.6368 C   0  0  0  0  0  0  0  0  0  0  0  0
   -0.2372    0.0150    2.2642 C   0  0  0  0  0  0  0  0  0  0  0  0
   -2.9518   -1.3489    2.0162 C   0  0  0  0  0  0  0  0  0  0  0  0
   -2.0014   -3.0213    0.5626 C   0  0  0  0  0  0  0  0  0  0  0  0
    0.8746    0.4804    3.1669 C   0  0  0  0  0  0  0  0  0  0  0  0
    1.5552    0.3482   -3.2240 C   0  0  0  0  0  0  0  0  0  0  0  0
   -2.3625   -0.4573   -2.7909 C   0  0  0  0  0  0  0  0  0  0  0  0
   -3.1037    2.7661    0.6319 C   0  0  0  0  0  0  0  0  0  0  0  0
    3.5518    2.4632    0.3968 C   0  0  0  0  0  0  0  0  0  0  0  0
   -2.9635    0.7533   -3.4384 C   0  0  0  0  0  0  0  0  0  0  0  0
   -4.5358    3.2014    0.5551 C   0  0  0  0  0  0  0  0  0  0  0  0
    2.9800    3.3813    1.4341 C   0  0  0  0  0  0  0  0  0  0  0  0
    0.8061    0.1129   -0.0390 H   0  0  0  0  0  0  0  0  0  0  0  0
   -2.7345   -0.7174   -0.5623 H   0  0  0  0  0  0  0  0  0  0  0  0
   -0.6577   -1.9472   -1.5355 H   0  0  0  0  0  0  0  0  0  0  0  0
    2.0138   -3.4953    0.8870 H   0  0  0  0  0  0  0  0  0  0  0  0
    0.5020   -3.4567    0.1264 H   0  0  0  0  0  0  0  0  0  0  0  0
   -1.1128    1.4742   -0.4042 H   0  0  0  0  0  0  0  0  0  0  0  0
    2.8539   -0.6636    1.1473 H   0  0  0  0  0  0  0  0  0  0  0  0
    3.7902   -1.9877    0.4811 H   0  0  0  0  0  0  0  0  0  0  0  0
    1.4840   -1.9349    2.5517 H   0  0  0  0  0  0  0  0  0  0  0  0
    4.7081    0.1800   -0.1185 H   0  0  0  0  0  0  0  0  0  0  0  0
    4.2958   -0.7456   -1.5205 H   0  0  0  0  0  0  0  0  0  0  0  0
   -1.8366    1.4129    2.4865 H   0  0  0  0  0  0  0  0  0  0  0  0
   -0.4299    2.0229    1.6402 H   0  0  0  0  0  0  0  0  0  0  0  0
    3.5089    1.4709   -2.0216 H   0  0  0  0  0  0  0  0  0  0  0  0
    1.2953   -3.0942   -2.1076 H   0  0  0  0  0  0  0  0  0  0  0  0
    2.7323   -2.1203   -2.4123 H   0  0  0  0  0  0  0  0  0  0  0  0
    2.8295   -3.4927   -1.3278 H   0  0  0  0  0  0  0  0  0  0  0  0
   -3.8990   -1.4482    1.4719 H   0  0  0  0  0  0  0  0  0  0  0  0
   -2.9535   -2.0938    2.8223 H   0  0  0  0  0  0  0  0  0  0  0  0
   -2.9828   -0.3738    2.5024 H   0  0  0  0  0  0  0  0  0  0  0  0
   -1.3715   -3.3505   -0.2587 H   0  0  0  0  0  0  0  0  0  0  0  0
   -3.0244   -3.1056    0.1715 H   0  0  0  0  0  0  0  0  0  0  0  0
   -1.9174   -3.7557    1.3699 H   0  0  0  0  0  0  0  0  0  0  0  0
    1.2539   -0.3120    3.8171 H   0  0  0  0  0  0  0  0  0  0  0  0
    1.7006    0.8850    2.5779 H   0  0  0  0  0  0  0  0  0  0  0  0
    0.5113    1.2683    3.8366 H   0  0  0  0  0  0  0  0  0  0  0  0
    0.7752   -0.1760   -3.7594 H   0  0  0  0  0  0  0  0  0  0  0  0
    2.2444    0.9204   -3.8378 H   0  0  0  0  0  0  0  0  0  0  0  0
    0.8424   -4.0674    2.7924 H   0  0  0  0  0  0  0  0  0  0  0  0
   -3.9973    0.5367   -3.7222 H   0  0  0  0  0  0  0  0  0  0  0  0
   -2.9658    1.5895   -2.7347 H   0  0  0  0  0  0  0  0  0  0  0  0
   -2.4000    1.0096   -4.3389 H   0  0  0  0  0  0  0  0  0  0  0  0
   -5.1371    2.6230    1.2610 H   0  0  0  0  0  0  0  0  0  0  0  0
   -4.9079    3.0727   -0.4644 H   0  0  0  0  0  0  0  0  0  0  0  0
   -4.6078    4.2598    0.8214 H   0  0  0  0  0  0  0  0  0  0  0  0
    3.0596    2.9153    2.4183 H   0  0  0  0  0  0  0  0  0  0  0  0
    1.9311    3.6058    1.2195 H   0  0  0  0  0  0  0  0  0  0  0  0
    3.5315    4.3253    1.4194 H   0  0  0  0  0  0  0  0  0  0  0  0
  1 12  1  0  0  0  0
  1 28  1  0  0  0  0
  2 15  1  0  0  0  0
  2 29  1  0  0  0  0
  3 17  1  0  0  0  0
  3 62  1  0  0  0  0
  4 21  1  0  0  0  0
  4 30  1  0  0  0  0
  5 28  2  0  0  0  0
  6 29  2  0  0  0  0
  7 30  2  0  0  0  0
  8  9  1  0  0  0  0
  8 13  1  0  0  0  0
  8 16  1  0  0  0  0
  8 22  1  0  0  0  0
  9 12  1  0  0  0  0
  9 18  1  0  0  0  0
  9 34  1  0  0  0  0
 10 11  1  0  0  0  0
 10 12  1  0  0  0  0
 10 15  1  0  0  0  0
 10 35  1  0  0  0  0
 11 14  1  0  0  0  0
 11 24  1  0  0  0  0
 11 25  1  0  0  0  0
 12 36  1  0  0  0  0
 13 17  1  0  0  0  0
 13 37  1  0  0  0  0
 13 38  1  0  0  0  0
 14 17  1  0  0  0  0
 14 23  2  0  0  0  0
 15 20  1  0  0  0  0
 15 39  1  0  0  0  0
 16 19  1  0  0  0  0
 16 40  1  0  0  0  0
 16 41  1  0  0  0  0
 17 42  1  0  0  0  0
 18 21  1  0  0  0  0
 18 27  2  0  0  0  0
 19 21  1  0  0  0  0
 19 43  1  0  0  0  0
 19 44  1  0  0  0  0
 20 23  1  0  0  0  0
 20 45  1  0  0  0  0
 20 46  1  0  0  0  0
 21 47  1  0  0  0  0
 22 48  1  0  0  0  0
 22 49  1  0  0  0  0
 22 50  1  0  0  0  0
 23 26  1  0  0  0  0
 24 51  1  0  0  0  0
 24 52  1  0  0  0  0
 24 53  1  0  0  0  0
 25 54  1  0  0  0  0
 25 55  1  0  0  0  0
 25 56  1  0  0  0  0
 26 57  1  0  0  0  0
 26 58  1  0  0  0  0
 26 59  1  0  0  0  0
 27 60  1  0  0  0  0
 27 61  1  0  0  0  0
 28 31  1  0  0  0  0
 29 32  1  0  0  0  0
 30 33  1  0  0  0  0
 31 63  1  0  0  0  0
 31 64  1  0  0  0  0
 31 65  1  0  0  0  0
 32 66  1  0  0  0  0
 32 67  1  0  0  0  0
 32 68  1  0  0  0  0
 33 69  1  0  0  0  0
 33 70  1  0  0  0  0
 33 71  1  0  0  0  0
M  END
> <PUBCHEM_COMPOUND_CID>
5460449

> <PUBCHEM_CONFORMER_RMSD>
1

> <PUBCHEM_CONFORMER_DIVERSEORDER>
1
2

> <PUBCHEM_MMFF94_PARTIAL_CHARGES>
28
1 -0.43
11 0.14
12 0.28
14 -0.28
15 0.28
17 0.42
18 -0.28
2 -0.43
20 0.14
21 0.42
23 -0.28
26 0.14
27 -0.3
28 0.66
29 0.66
3 -0.68
30 0.66
31 0.06
32 0.06
33 0.06
4 -0.43
5 -0.57
6 -0.57
60 0.15
61 0.15
62 0.4
7 -0.57
9 0.14

> <PUBCHEM_EFFECTIVE_ROTOR_COUNT>
7.8

> <PUBCHEM_PHARMACOPHORE_FEATURES>
8
1 3 acceptor
1 3 donor
1 5 acceptor
1 6 acceptor
1 7 acceptor
3 11 24 25 hydrophobe
6 10 11 14 15 20 23 rings
6 8 9 16 18 19 21 rings

> <PUBCHEM_HEAVY_ATOM_COUNT>
33

> <PUBCHEM_ATOM_DEF_STEREO_COUNT>
7

> <PUBCHEM_ATOM_UDEF_STEREO_COUNT>
0

> <PUBCHEM_BOND_DEF_STEREO_COUNT>
0

> <PUBCHEM_BOND_UDEF_STEREO_COUNT>
0

> <PUBCHEM_ISOTOPIC_ATOM_COUNT>
0

> <PUBCHEM_COMPONENT_COUNT>
1

> <PUBCHEM_CACTVS_TAUTO_COUNT>
1

> <PUBCHEM_CONFORMER_ID>
005351E100000001

> <PUBCHEM_MMFF94_ENERGY>
141.9419

> <PUBCHEM_FEATURE_SELFOVERLAP>
40.594

> <PUBCHEM_SHAPE_FINGERPRINT>
10165383 225 17199635766073830062
10863032 1 18197196239031778435
11421498 54 18115889420264126223
11578080 2 18343025450066521483
12156800 1 17170997783327601816
12422481 6 16630808833403678449
12633257 1 16773503387773806932
12788726 201 17625778779409275035
13583140 156 18262216915607113487
13642711 20 17329476806435374777
13965767 371 16485534703604991981
15664445 248 16884743075326837257
16945 1 18043781317194356635
17492 54 16882457147344068804
17980427 23 18120122669064517122
229495 10 17822273674761375679
23419403 2 16470090671292201139
3052486 1 17245305081714969157
35225 105 17481935230471311089
469060 322 17390505195118780940

> <PUBCHEM_SHAPE_MULTIPOLES>
638.04
6.31
4.05
3.51
0.63
1.36
-1.6
5.38
-1.18
-0.15
2.23
-1.45
-0.89
0.26

> <PUBCHEM_SHAPE_SELFOVERLAP>
1327.818

> <PUBCHEM_SHAPE_VOLUME>
356.6

> <PUBCHEM_COORDINATE_TYPE>
2
5
10

$$$$

