9107
  -OEChem-06261203253D

 36 41  0     0  0  0  0  0  0999 V2000
    0.6921    1.8676    0.0003 N   0  0  0  0  0  0  0  0  0  0  0  0
   -0.6921    1.8676    0.0003 N   0  0  0  0  0  0  0  0  0  0  0  0
    0.7081   -0.4904    0.0002 C   0  0  0  0  0  0  0  0  0  0  0  0
   -0.7080   -0.4905    0.0002 C   0  0  0  0  0  0  0  0  0  0  0  0
    1.4104   -1.7165    0.0001 C   0  0  0  0  0  0  0  0  0  0  0  0
   -1.4104   -1.7164    0.0001 C   0  0  0  0  0  0  0  0  0  0  0  0
    1.3994    0.7297    0.0002 C   0  0  0  0  0  0  0  0  0  0  0  0
   -1.3994    0.7298    0.0002 C   0  0  0  0  0  0  0  0  0  0  0  0
    2.8102    0.7246    0.0002 C   0  0  0  0  0  0  0  0  0  0  0  0
   -2.8102    0.7247    0.0001 C   0  0  0  0  0  0  0  0  0  0  0  0
    3.5178   -0.5019    0.0001 C   0  0  0  0  0  0  0  0  0  0  0  0
   -3.5177   -0.5019   -0.0001 C   0  0  0  0  0  0  0  0  0  0  0  0
    2.8084   -1.7072    0.0001 C   0  0  0  0  0  0  0  0  0  0  0  0
   -2.8084   -1.7072   -0.0001 C   0  0  0  0  0  0  0  0  0  0  0  0
    0.6968   -2.9212    0.0000 C   0  0  0  0  0  0  0  0  0  0  0  0
   -0.6969   -2.9212   -0.0001 C   0  0  0  0  0  0  0  0  0  0  0  0
    3.5612    1.9194   -0.0001 C   0  0  0  0  0  0  0  0  0  0  0  0
   -3.5613    1.9194    0.0000 C   0  0  0  0  0  0  0  0  0  0  0  0
    4.9230   -0.5020   -0.0002 C   0  0  0  0  0  0  0  0  0  0  0  0
   -4.9230   -0.5020   -0.0002 C   0  0  0  0  0  0  0  0  0  0  0  0
    4.9574    1.9041   -0.0004 C   0  0  0  0  0  0  0  0  0  0  0  0
   -4.9574    1.9041   -0.0003 C   0  0  0  0  0  0  0  0  0  0  0  0
    5.6379    0.6937   -0.0004 C   0  0  0  0  0  0  0  0  0  0  0  0
   -5.6379    0.6937   -0.0003 C   0  0  0  0  0  0  0  0  0  0  0  0
    3.3518   -2.6518    0.0000 H   0  0  0  0  0  0  0  0  0  0  0  0
   -3.3518   -2.6519   -0.0001 H   0  0  0  0  0  0  0  0  0  0  0  0
    1.2193   -3.8756   -0.0001 H   0  0  0  0  0  0  0  0  0  0  0  0
   -1.2195   -3.8756   -0.0002 H   0  0  0  0  0  0  0  0  0  0  0  0
    3.0646    2.8880   -0.0002 H   0  0  0  0  0  0  0  0  0  0  0  0
   -3.0646    2.8880    0.0001 H   0  0  0  0  0  0  0  0  0  0  0  0
    5.4759   -1.4394   -0.0003 H   0  0  0  0  0  0  0  0  0  0  0  0
   -5.4759   -1.4394   -0.0003 H   0  0  0  0  0  0  0  0  0  0  0  0
    5.5098    2.8391   -0.0006 H   0  0  0  0  0  0  0  0  0  0  0  0
   -5.5098    2.8392   -0.0004 H   0  0  0  0  0  0  0  0  0  0  0  0
    6.7237    0.6784   -0.0006 H   0  0  0  0  0  0  0  0  0  0  0  0
   -6.7237    0.6784   -0.0005 H   0  0  0  0  0  0  0  0  0  0  0  0
  1  2  1  0  0  0  0
  1  7  2  0  0  0  0
  2  8  2  0  0  0  0
  3  4  2  0  0  0  0
  3  5  1  0  0  0  0
  3  7  1  0  0  0  0
  4  6  1  0  0  0  0
  4  8  1  0  0  0  0
  5 13  2  0  0  0  0
  5 15  1  0  0  0  0
  6 14  2  0  0  0  0
  6 16  1  0  0  0  0
  7  9  1  0  0  0  0
  8 10  1  0  0  0  0
  9 11  1  0  0  0  0
  9 17  2  0  0  0  0
 10 12  1  0  0  0  0
 10 18  2  0  0  0  0
 11 13  1  0  0  0  0
 11 19  2  0  0  0  0
 12 14  1  0  0  0  0
 12 20  2  0  0  0  0
 13 25  1  0  0  0  0
 14 26  1  0  0  0  0
 15 16  2  0  0  0  0
 15 27  1  0  0  0  0
 16 28  1  0  0  0  0
 17 21  1  0  0  0  0
 17 29  1  0  0  0  0
 18 22  1  0  0  0  0
 18 30  1  0  0  0  0
 19 23  1  0  0  0  0
 19 31  1  0  0  0  0
 20 24  1  0  0  0  0
 20 32  1  0  0  0  0
 21 23  2  0  0  0  0
 21 33  1  0  0  0  0
 22 24  2  0  0  0  0
 22 34  1  0  0  0  0
 23 35  1  0  0  0  0
 24 36  1  0  0  0  0
M  END
> <PUBCHEM_COMPOUND_CID>
9107

> <PUBCHEM_CONFORMER_RMSD>
0.6

> <PUBCHEM_CONFORMER_DIVERSEORDER>
1

> <PUBCHEM_MMFF94_PARTIAL_CHARGES>
28
1 -0.31
13 -0.15
14 -0.15
15 -0.15
16 -0.15
17 -0.15
18 -0.15
19 -0.15
2 -0.31
20 -0.15
21 -0.15
22 -0.15
23 -0.15
24 -0.15
25 0.15
26 0.15
27 0.15
28 0.15
29 0.15
30 0.15
31 0.15
32 0.15
33 0.15
34 0.15
35 0.15
36 0.15
7 0.31
8 0.31

> <PUBCHEM_EFFECTIVE_ROTOR_COUNT>
0

> <PUBCHEM_PHARMACOPHORE_FEATURES>
8
1 1 acceptor
1 2 acceptor
6 1 2 3 4 7 8 rings
6 10 12 18 20 22 24 rings
6 3 4 5 6 15 16 rings
6 3 5 7 9 11 13 rings
6 4 6 8 10 12 14 rings
6 9 11 17 19 21 23 rings

> <PUBCHEM_HEAVY_ATOM_COUNT>
24

> <PUBCHEM_ATOM_DEF_STEREO_COUNT>
0

> <PUBCHEM_ATOM_UDEF_STEREO_COUNT>
0

> <PUBCHEM_BOND_DEF_STEREO_COUNT>
0

> <PUBCHEM_BOND_UDEF_STEREO_COUNT>
0

> <PUBCHEM_ISOTOPIC_ATOM_COUNT>
0

> <PUBCHEM_COMPONENT_COUNT>
1

> <PUBCHEM_CACTVS_TAUTO_COUNT>
1

> <PUBCHEM_CONFORMER_ID>
0000239300000001

> <PUBCHEM_MMFF94_ENERGY>
89.1384

> <PUBCHEM_FEATURE_SELFOVERLAP>
42.282

> <PUBCHEM_SHAPE_FINGERPRINT>
10 15 18272091544243868872
10411042 1 17473826121711045247
10493431 412 18411138013146945005
10616163 171 18338515244383953790
10906281 52 18338780278199163232
10948715 1 18410573985151814919
10967382 1 18410575119059993895
1100329 8 18337671888874454241
11112241 14 16228883285393519352
12107183 9 17616531096034655425
12390115 104 18262501654817147273
12403814 3 17632303358301054573
12788726 201 17531804782966425641
12838862 33 18338536182323232417
13140716 1 18341333387185916874
13402501 40 18410855464423323980
13785724 45 17834963349280909618
138480 1 17762338419457667362
14528608 73 18408324388698310413
14787075 74 18333736810184057305
14790565 3 18410569591400401024
15042514 8 18124591973436447043
15131766 46 16126393413043464324
15196674 1 18410573985151613543
1601671 61 18411983572128005544
1813 80 16917347051937345100
18608769 82 18338515228127367899
18681886 176 18408890611981391728
19591789 44 18410857659151475811
20715895 44 18268716171905056597
21033648 29 18262245425653162192
21236236 1 18337110064845919215
21267235 1 18410566292865348803
21279426 13 18336824298969767078
21304253 335 18342733031122757564
21421861 104 17916599755554338994
22182313 1 18265027211488502375
23227448 37 18335984177180407110
23402539 116 18334019367096920486
23558518 356 17768251206855486840
23559900 14 18261673779124188870
3004659 81 18341610447853651086
335352 9 18410574007544361238
338550 245 18343015545692758156
34934 24 18410859858180252970
350125 39 18340206396968907740
3545911 37 18410572889940292788
3680242 22 18341615983581394450
4073 2 18059849541409733114
4214541 1 18410573976572410341
4340502 62 18409445894821986589
474 4 18411980290646254627
495365 180 17240774934889291848
5104073 3 18413670231417669483
6138700 20 18338794645503552654
9709674 26 18408598162973219822
9981440 41 18342175544568703731

> <PUBCHEM_SHAPE_MULTIPOLES>
483.95
11.39
2.87
0.61
0
1.08
0
-5.85
0
0
0
0
0.01
0

> <PUBCHEM_SHAPE_SELFOVERLAP>
1149.943

> <PUBCHEM_SHAPE_VOLUME>
238.5

> <PUBCHEM_COORDINATE_TYPE>
2
5
10

$$$$

