91673
  -OEChem-07051213012D

 36 38  0     1  0  0  0  0  0999 V2000
    3.4403   -0.1191    0.0000 Cl  0  0  0  0  0  0  0  0  0  0  0  0
    5.1724   -3.1191    0.0000 Cl  0  0  0  0  0  0  0  0  0  0  0  0
    6.1724    0.8809    0.0000 O   0  0  0  0  0  0  0  0  0  0  0  0
    4.8633    1.8320    0.0000 O   0  0  0  0  0  0  0  0  0  0  0  0
    3.4782    1.2410    0.0000 N   0  0  0  0  0  0  0  0  0  0  0  0
    3.5827    2.2355    0.0000 N   0  0  0  0  0  0  0  0  0  0  0  0
    2.0000    1.8991    0.0000 N   0  0  0  0  0  0  0  0  0  0  0  0
    5.1724    0.8809    0.0000 C   0  0  3  0  0  0  0  0  0  0  0  0
    6.4814    1.8320    0.0000 C   0  0  3  0  0  0  0  0  0  0  0  0
    5.6724    2.4197    0.0000 C   0  0  0  0  0  0  0  0  0  0  0  0
    4.2213    0.5719    0.0000 C   0  0  0  0  0  0  0  0  0  0  0  0
    5.1724   -0.1191    0.0000 C   0  0  0  0  0  0  0  0  0  0  0  0
    7.4324    2.1410    0.0000 C   0  0  0  0  0  0  0  0  0  0  0  0
    7.6403    3.1191    0.0000 C   0  0  0  0  0  0  0  0  0  0  0  0
    4.3063   -0.6191    0.0000 C   0  0  0  0  0  0  0  0  0  0  0  0
    6.0384   -0.6191    0.0000 C   0  0  0  0  0  0  0  0  0  0  0  0
    4.3063   -1.6191    0.0000 C   0  0  0  0  0  0  0  0  0  0  0  0
    6.0384   -1.6191    0.0000 C   0  0  0  0  0  0  0  0  0  0  0  0
    2.5000    1.0331    0.0000 C   0  0  0  0  0  0  0  0  0  0  0  0
    5.1724   -2.1191    0.0000 C   0  0  0  0  0  0  0  0  0  0  0  0
    2.6691    2.6423    0.0000 C   0  0  0  0  0  0  0  0  0  0  0  0
    7.0824    1.2309    0.0000 H   0  0  0  0  0  0  0  0  0  0  0  0
    6.0872    2.8805    0.0000 H   0  0  0  0  0  0  0  0  0  0  0  0
    5.2575    2.8805    0.0000 H   0  0  0  0  0  0  0  0  0  0  0  0
    3.7327    0.1902    0.0000 H   0  0  0  0  0  0  0  0  0  0  0  0
    4.5124    0.0244    0.0000 H   0  0  0  0  0  0  0  0  0  0  0  0
    7.5187    1.5270    0.0000 H   0  0  0  0  0  0  0  0  0  0  0  0
    8.0520    2.1193    0.0000 H   0  0  0  0  0  0  0  0  0  0  0  0
    8.2468    2.9902    0.0000 H   0  0  0  0  0  0  0  0  0  0  0  0
    7.7692    3.7256    0.0000 H   0  0  0  0  0  0  0  0  0  0  0  0
    7.0339    3.2480    0.0000 H   0  0  0  0  0  0  0  0  0  0  0  0
    6.5753   -0.3091    0.0000 H   0  0  0  0  0  0  0  0  0  0  0  0
    3.7694   -1.9291    0.0000 H   0  0  0  0  0  0  0  0  0  0  0  0
    6.5753   -1.9291    0.0000 H   0  0  0  0  0  0  0  0  0  0  0  0
    2.2478    0.4667    0.0000 H   0  0  0  0  0  0  0  0  0  0  0  0
    2.5402    3.2487    0.0000 H   0  0  0  0  0  0  0  0  0  0  0  0
  1 15  1  0  0  0  0
  2 20  1  0  0  0  0
  3  8  1  0  0  0  0
  3  9  1  0  0  0  0
  4  8  1  0  0  0  0
  4 10  1  0  0  0  0
  5  6  1  0  0  0  0
  5 11  1  0  0  0  0
  5 19  1  0  0  0  0
  6 21  2  0  0  0  0
  7 19  2  0  0  0  0
  7 21  1  0  0  0  0
  8 11  1  0  0  0  0
  8 12  1  0  0  0  0
  9 10  1  0  0  0  0
  9 13  1  0  0  0  0
  9 22  1  0  0  0  0
 10 23  1  0  0  0  0
 10 24  1  0  0  0  0
 11 25  1  0  0  0  0
 11 26  1  0  0  0  0
 12 15  2  0  0  0  0
 12 16  1  0  0  0  0
 13 14  1  0  0  0  0
 13 27  1  0  0  0  0
 13 28  1  0  0  0  0
 14 29  1  0  0  0  0
 14 30  1  0  0  0  0
 14 31  1  0  0  0  0
 15 17  1  0  0  0  0
 16 18  2  0  0  0  0
 16 32  1  0  0  0  0
 17 20  2  0  0  0  0
 17 33  1  0  0  0  0
 18 20  1  0  0  0  0
 18 34  1  0  0  0  0
 19 35  1  0  0  0  0
 21 36  1  0  0  0  0
M  END
> <PUBCHEM_COMPOUND_CID>
91673

> <PUBCHEM_COMPOUND_CANONICALIZED>
1

> <PUBCHEM_CACTVS_COMPLEXITY>
363

> <PUBCHEM_CACTVS_HBOND_ACCEPTOR>
4

> <PUBCHEM_CACTVS_HBOND_DONOR>
0

> <PUBCHEM_CACTVS_ROTATABLE_BOND>
4

> <PUBCHEM_CACTVS_SUBSKEYS>
AAADccBzMAAGAAAAAAAAAAAAAAAAAWJAAAAwAAAAAAAAAAABwAAAHgIIAAAADBbhmCY3GIYIFACiAiBDJAASAAswhYAdyAAICoibLiKBuxmnMAAswAMeqAeQwKAOBAAAAACBAAAIAAAAAQIAAAAAAAAAAA==

> <PUBCHEM_IUPAC_OPENEYE_NAME>
1-[[2-(2,4-dichlorophenyl)-4-ethyl-1,3-dioxolan-2-yl]methyl]-1,2,4-triazole

> <PUBCHEM_IUPAC_CAS_NAME>
1-[[2-(2,4-dichlorophenyl)-4-ethyl-1,3-dioxolan-2-yl]methyl]-1,2,4-triazole

> <PUBCHEM_IUPAC_NAME>
1-[[2-(2,4-dichlorophenyl)-4-ethyl-1,3-dioxolan-2-yl]methyl]-1,2,4-triazole

> <PUBCHEM_IUPAC_SYSTEMATIC_NAME>
1-[[2-(2,4-dichlorophenyl)-4-ethyl-1,3-dioxolan-2-yl]methyl]-1,2,4-triazole

> <PUBCHEM_IUPAC_TRADITIONAL_NAME>
1-[[2-(2,4-dichlorophenyl)-4-ethyl-1,3-dioxolan-2-yl]methyl]-1,2,4-triazole

> <PUBCHEM_IUPAC_INCHI>
InChI=1S/C14H15Cl2N3O2/c1-2-11-6-20-14(21-11,7-19-9-17-8-18-19)12-4-3-10(15)5-13(12)16/h3-5,8-9,11H,2,6-7H2,1H3

> <PUBCHEM_IUPAC_INCHIKEY>
DWRKFAJEBUWTQM-UHFFFAOYSA-N

> <PUBCHEM_XLOGP3>
3

> <PUBCHEM_EXACT_MASS>
327.054132

> <PUBCHEM_MOLECULAR_FORMULA>
C14H15Cl2N3O2

> <PUBCHEM_MOLECULAR_WEIGHT>
328.1938

> <PUBCHEM_OPENEYE_CAN_SMILES>
CCC1COC(O1)(CN2C=NC=N2)C3=C(C=C(C=C3)Cl)Cl

> <PUBCHEM_OPENEYE_ISO_SMILES>
CCC1COC(O1)(CN2C=NC=N2)C3=C(C=C(C=C3)Cl)Cl

> <PUBCHEM_CACTVS_TPSA>
49.2

> <PUBCHEM_MONOISOTOPIC_WEIGHT>
327.054132

> <PUBCHEM_TOTAL_CHARGE>
0

> <PUBCHEM_HEAVY_ATOM_COUNT>
21

> <PUBCHEM_ATOM_DEF_STEREO_COUNT>
0

> <PUBCHEM_ATOM_UDEF_STEREO_COUNT>
2

> <PUBCHEM_BOND_DEF_STEREO_COUNT>
0

> <PUBCHEM_BOND_UDEF_STEREO_COUNT>
0

> <PUBCHEM_ISOTOPIC_ATOM_COUNT>
0

> <PUBCHEM_COMPONENT_COUNT>
1

> <PUBCHEM_CACTVS_TAUTO_COUNT>
1

> <PUBCHEM_COORDINATE_TYPE>
1
5
255

> <PUBCHEM_BONDANNOTATIONS>
12  15  8
12  16  8
15  17  8
16  18  8
17  20  8
18  20  8
5  19  8
5  6  8
6  21  8
7  19  8
7  21  8
8  11  3
9  22  3

$$$$

