5281239
  -OEChem-07051212552D

106108  0     1  0  0  0  0  0999 V2000
    6.0016   -4.3301    0.0000 O   0  0  0  0  0  0  0  0  0  0  0  0
    2.5369   -5.3301    0.0000 O   0  0  0  0  0  0  0  0  0  0  0  0
    7.1350   -3.8301    0.0000 O   0  0  0  0  0  0  0  0  0  0  0  0
   22.6350    3.9641    0.0000 O   0  0  0  0  0  0  0  0  0  0  0  0
   20.1350    2.0981    0.0000 O   0  0  0  0  0  0  0  0  0  0  0  0
   22.6350    5.6962    0.0000 O   0  0  0  0  0  0  0  0  0  0  0  0
    5.1350   -3.8301    0.0000 C   0  0  2  0  0  0  0  0  0  0  0  0
    5.1350   -4.8301    0.0000 C   0  0  1  0  0  0  0  0  0  0  0  0
    4.2690   -3.3301    0.0000 C   0  0  0  0  0  0  0  0  0  0  0  0
    4.2690   -5.3301    0.0000 C   0  0  0  0  0  0  0  0  0  0  0  0
    3.4030   -3.8301    0.0000 C   0  0  0  0  0  0  0  0  0  0  0  0
    3.4030   -4.8301    0.0000 C   0  0  2  0  0  0  0  0  0  0  0  0
    5.6350   -2.9641    0.0000 C   0  0  0  0  0  0  0  0  0  0  0  0
    5.1350   -5.8301    0.0000 C   0  0  0  0  0  0  0  0  0  0  0  0
    3.7690   -2.4641    0.0000 C   0  0  0  0  0  0  0  0  0  0  0  0
    4.7690   -2.4641    0.0000 C   0  0  0  0  0  0  0  0  0  0  0  0
    6.6350   -2.9641    0.0000 C   0  0  0  0  0  0  0  0  0  0  0  0
    7.1350   -2.0981    0.0000 C   0  0  0  0  0  0  0  0  0  0  0  0
    6.6350   -1.2320    0.0000 C   0  0  0  0  0  0  0  0  0  0  0  0
    8.1350   -2.0981    0.0000 C   0  0  0  0  0  0  0  0  0  0  0  0
    8.6350   -1.2320    0.0000 C   0  0  0  0  0  0  0  0  0  0  0  0
   20.1350    4.8301    0.0000 C   0  0  0  0  0  0  0  0  0  0  0  0
    9.6350   -1.2320    0.0000 C   0  0  0  0  0  0  0  0  0  0  0  0
   20.1350    3.0981    0.0000 C   0  0  2  0  0  0  0  0  0  0  0  0
   21.1350    4.8301    0.0000 C   0  0  0  0  0  0  0  0  0  0  0  0
   21.6350    3.9641    0.0000 C   0  0  1  0  0  0  0  0  0  0  0  0
   21.1350    3.0981    0.0000 C   0  0  0  0  0  0  0  0  0  0  0  0
   19.6350    3.9641    0.0000 C   0  0  0  0  0  0  0  0  0  0  0  0
   20.1350    5.8301    0.0000 C   0  0  0  0  0  0  0  0  0  0  0  0
   19.2690    5.3301    0.0000 C   0  0  0  0  0  0  0  0  0  0  0  0
   19.2690    2.5981    0.0000 C   0  0  0  0  0  0  0  0  0  0  0  0
   10.1350   -0.3660    0.0000 C   0  0  0  0  0  0  0  0  0  0  0  0
   18.6350    3.9641    0.0000 C   0  0  0  0  0  0  0  0  0  0  0  0
    9.6350    0.5000    0.0000 C   0  0  0  0  0  0  0  0  0  0  0  0
   11.1350   -0.3660    0.0000 C   0  0  0  0  0  0  0  0  0  0  0  0
   23.1350    4.8301    0.0000 C   0  0  0  0  0  0  0  0  0  0  0  0
   17.6350    3.9641    0.0000 C   0  0  0  0  0  0  0  0  0  0  0  0
   24.1350    4.8301    0.0000 C   0  0  0  0  0  0  0  0  0  0  0  0
   17.1350    3.0981    0.0000 C   0  0  0  0  0  0  0  0  0  0  0  0
   11.6350    0.5000    0.0000 C   0  0  0  0  0  0  0  0  0  0  0  0
   17.6350    2.2320    0.0000 C   0  0  0  0  0  0  0  0  0  0  0  0
   16.1350    3.0981    0.0000 C   0  0  0  0  0  0  0  0  0  0  0  0
   12.6350    0.5000    0.0000 C   0  0  0  0  0  0  0  0  0  0  0  0
   15.6350    2.2320    0.0000 C   0  0  0  0  0  0  0  0  0  0  0  0
   13.1350    1.3660    0.0000 C   0  0  0  0  0  0  0  0  0  0  0  0
   14.6350    2.2320    0.0000 C   0  0  0  0  0  0  0  0  0  0  0  0
   14.1350    1.3660    0.0000 C   0  0  0  0  0  0  0  0  0  0  0  0
   14.6350    0.5000    0.0000 C   0  0  0  0  0  0  0  0  0  0  0  0
    3.8705   -5.8051    0.0000 H   0  0  0  0  0  0  0  0  0  0  0  0
    4.6675   -5.8051    0.0000 H   0  0  0  0  0  0  0  0  0  0  0  0
    3.1909   -3.2475    0.0000 H   0  0  0  0  0  0  0  0  0  0  0  0
    2.7924   -3.9378    0.0000 H   0  0  0  0  0  0  0  0  0  0  0  0
    3.4030   -5.4501    0.0000 H   0  0  0  0  0  0  0  0  0  0  0  0
    5.7427   -2.3535    0.0000 H   0  0  0  0  0  0  0  0  0  0  0  0
    5.0524   -2.7520    0.0000 H   0  0  0  0  0  0  0  0  0  0  0  0
    4.5150   -5.8301    0.0000 H   0  0  0  0  0  0  0  0  0  0  0  0
    5.1350   -6.4501    0.0000 H   0  0  0  0  0  0  0  0  0  0  0  0
    5.7550   -5.8301    0.0000 H   0  0  0  0  0  0  0  0  0  0  0  0
    4.3059   -2.1541    0.0000 H   0  0  0  0  0  0  0  0  0  0  0  0
    3.4590   -1.9272    0.0000 H   0  0  0  0  0  0  0  0  0  0  0  0
    3.2320   -2.7741    0.0000 H   0  0  0  0  0  0  0  0  0  0  0  0
    5.3059   -2.7741    0.0000 H   0  0  0  0  0  0  0  0  0  0  0  0
    5.0790   -1.9272    0.0000 H   0  0  0  0  0  0  0  0  0  0  0  0
    4.2320   -2.1541    0.0000 H   0  0  0  0  0  0  0  0  0  0  0  0
    2.0000   -5.0201    0.0000 H   0  0  0  0  0  0  0  0  0  0  0  0
    7.1720   -0.9221    0.0000 H   0  0  0  0  0  0  0  0  0  0  0  0
    6.3250   -0.6951    0.0000 H   0  0  0  0  0  0  0  0  0  0  0  0
    6.0981   -1.5420    0.0000 H   0  0  0  0  0  0  0  0  0  0  0  0
    8.4450   -2.6350    0.0000 H   0  0  0  0  0  0  0  0  0  0  0  0
    8.3250   -0.6951    0.0000 H   0  0  0  0  0  0  0  0  0  0  0  0
    9.9450   -1.7690    0.0000 H   0  0  0  0  0  0  0  0  0  0  0  0
   21.7176    5.0422    0.0000 H   0  0  0  0  0  0  0  0  0  0  0  0
   21.0273    5.4407    0.0000 H   0  0  0  0  0  0  0  0  0  0  0  0
   21.9450    3.4272    0.0000 H   0  0  0  0  0  0  0  0  0  0  0  0
   21.0273    2.4875    0.0000 H   0  0  0  0  0  0  0  0  0  0  0  0
   21.7176    2.8860    0.0000 H   0  0  0  0  0  0  0  0  0  0  0  0
   19.5790    5.8671    0.0000 H   0  0  0  0  0  0  0  0  0  0  0  0
   18.7320    5.6401    0.0000 H   0  0  0  0  0  0  0  0  0  0  0  0
   20.7550    5.8301    0.0000 H   0  0  0  0  0  0  0  0  0  0  0  0
   20.1350    6.4501    0.0000 H   0  0  0  0  0  0  0  0  0  0  0  0
   19.5150    5.8301    0.0000 H   0  0  0  0  0  0  0  0  0  0  0  0
   18.9590    4.7932    0.0000 H   0  0  0  0  0  0  0  0  0  0  0  0
   18.9590    3.1350    0.0000 H   0  0  0  0  0  0  0  0  0  0  0  0
   18.7320    2.2881    0.0000 H   0  0  0  0  0  0  0  0  0  0  0  0
   19.5790    2.0611    0.0000 H   0  0  0  0  0  0  0  0  0  0  0  0
   20.6719    1.7881    0.0000 H   0  0  0  0  0  0  0  0  0  0  0  0
   10.1719    0.8100    0.0000 H   0  0  0  0  0  0  0  0  0  0  0  0
    9.3250    1.0369    0.0000 H   0  0  0  0  0  0  0  0  0  0  0  0
    9.0981    0.1900    0.0000 H   0  0  0  0  0  0  0  0  0  0  0  0
   11.4450   -0.9030    0.0000 H   0  0  0  0  0  0  0  0  0  0  0  0
   17.3250    4.5010    0.0000 H   0  0  0  0  0  0  0  0  0  0  0  0
   24.1350    4.2101    0.0000 H   0  0  0  0  0  0  0  0  0  0  0  0
   24.7550    4.8301    0.0000 H   0  0  0  0  0  0  0  0  0  0  0  0
   24.1350    5.4501    0.0000 H   0  0  0  0  0  0  0  0  0  0  0  0
   11.3250    1.0369    0.0000 H   0  0  0  0  0  0  0  0  0  0  0  0
   17.0981    1.9220    0.0000 H   0  0  0  0  0  0  0  0  0  0  0  0
   17.9450    1.6951    0.0000 H   0  0  0  0  0  0  0  0  0  0  0  0
   18.1719    2.5420    0.0000 H   0  0  0  0  0  0  0  0  0  0  0  0
   15.8250    3.6350    0.0000 H   0  0  0  0  0  0  0  0  0  0  0  0
   12.9450   -0.0369    0.0000 H   0  0  0  0  0  0  0  0  0  0  0  0
   15.9450    1.6951    0.0000 H   0  0  0  0  0  0  0  0  0  0  0  0
   12.8250    1.9030    0.0000 H   0  0  0  0  0  0  0  0  0  0  0  0
   14.3250    2.7690    0.0000 H   0  0  0  0  0  0  0  0  0  0  0  0
   14.0981    0.1900    0.0000 H   0  0  0  0  0  0  0  0  0  0  0  0
   14.9450   -0.0369    0.0000 H   0  0  0  0  0  0  0  0  0  0  0  0
   15.1719    0.8100    0.0000 H   0  0  0  0  0  0  0  0  0  0  0  0
  1  7  1  0  0  0  0
  1  8  1  0  0  0  0
 12  2  1  1  0  0  0
  2 65  1  0  0  0  0
  3 17  2  0  0  0  0
 26  4  1  6  0  0  0
  4 36  1  0  0  0  0
 24  5  1  1  0  0  0
  5 86  1  0  0  0  0
  6 36  2  0  0  0  0
  7  8  1  0  0  0  0
  7  9  1  0  0  0  0
  7 13  1  1  0  0  0
  8 10  1  0  0  0  0
  8 14  1  1  0  0  0
  9 11  1  0  0  0  0
  9 15  1  0  0  0  0
  9 16  1  0  0  0  0
 10 12  1  0  0  0  0
 10 49  1  0  0  0  0
 10 50  1  0  0  0  0
 11 12  1  0  0  0  0
 11 51  1  0  0  0  0
 11 52  1  0  0  0  0
 12 53  1  0  0  0  0
 13 17  1  0  0  0  0
 13 54  1  0  0  0  0
 13 55  1  0  0  0  0
 14 56  1  0  0  0  0
 14 57  1  0  0  0  0
 14 58  1  0  0  0  0
 15 59  1  0  0  0  0
 15 60  1  0  0  0  0
 15 61  1  0  0  0  0
 16 62  1  0  0  0  0
 16 63  1  0  0  0  0
 16 64  1  0  0  0  0
 17 18  1  0  0  0  0
 18 19  1  0  0  0  0
 18 20  2  0  0  0  0
 19 66  1  0  0  0  0
 19 67  1  0  0  0  0
 19 68  1  0  0  0  0
 20 21  1  0  0  0  0
 20 69  1  0  0  0  0
 21 23  2  0  0  0  0
 21 70  1  0  0  0  0
 22 25  1  0  0  0  0
 22 28  1  0  0  0  0
 22 29  1  0  0  0  0
 22 30  1  0  0  0  0
 23 32  1  0  0  0  0
 23 71  1  0  0  0  0
 24 27  1  0  0  0  0
 24 28  1  0  0  0  0
 24 31  1  0  0  0  0
 25 26  1  0  0  0  0
 25 72  1  0  0  0  0
 25 73  1  0  0  0  0
 26 27  1  0  0  0  0
 26 74  1  0  0  0  0
 27 75  1  0  0  0  0
 27 76  1  0  0  0  0
 28 33  2  0  0  0  0
 29 79  1  0  0  0  0
 29 80  1  0  0  0  0
 29 81  1  0  0  0  0
 30 77  1  0  0  0  0
 30 78  1  0  0  0  0
 30 82  1  0  0  0  0
 31 83  1  0  0  0  0
 31 84  1  0  0  0  0
 31 85  1  0  0  0  0
 32 34  1  0  0  0  0
 32 35  2  0  0  0  0
 33 37  2  0  0  0  0
 34 87  1  0  0  0  0
 34 88  1  0  0  0  0
 34 89  1  0  0  0  0
 35 40  1  0  0  0  0
 35 90  1  0  0  0  0
 36 38  1  0  0  0  0
 37 39  1  0  0  0  0
 37 91  1  0  0  0  0
 38 92  1  0  0  0  0
 38 93  1  0  0  0  0
 38 94  1  0  0  0  0
 39 41  1  0  0  0  0
 39 42  2  0  0  0  0
 40 43  2  0  0  0  0
 40 95  1  0  0  0  0
 41 96  1  0  0  0  0
 41 97  1  0  0  0  0
 41 98  1  0  0  0  0
 42 44  1  0  0  0  0
 42 99  1  0  0  0  0
 43 45  1  0  0  0  0
 43100  1  0  0  0  0
 44 46  2  0  0  0  0
 44101  1  0  0  0  0
 45 47  2  0  0  0  0
 45102  1  0  0  0  0
 46 47  1  0  0  0  0
 46103  1  0  0  0  0
 47 48  1  0  0  0  0
 48104  1  0  0  0  0
 48105  1  0  0  0  0
 48106  1  0  0  0  0
M  END
> <PUBCHEM_COMPOUND_CID>
5281239

> <PUBCHEM_COMPOUND_CANONICALIZED>
1

> <PUBCHEM_CACTVS_COMPLEXITY>
1530

> <PUBCHEM_CACTVS_HBOND_ACCEPTOR>
6

> <PUBCHEM_CACTVS_HBOND_DONOR>
2

> <PUBCHEM_CACTVS_ROTATABLE_BOND>
12

> <PUBCHEM_CACTVS_SUBSKEYS>
AAADcfB8OAAAAAAAAAAAAAAAEgAAAAAAAAAwYAAABIAAAAAAAAAAGgAACAAADlSggAICCAAABgCIAqDSCAAAAAAgAAAICAEAAEgIFBYAAQACQAAFoAAIkYPK6PyPgAAAAAAAAABCAAYQADAAAAAAAAAAAA==

> <PUBCHEM_IUPAC_OPENEYE_NAME>
[(1S,3R)-3-hydroxy-4-[(3E,5E,7E,9E,11E,13E,15E)-18-[(1R,3S,6S)-3-hydroxy-1,5,5-trimethyl-7-oxabicyclo[4.1.0]heptan-6-yl]-3,7,12,16-tetramethyl-17-oxo-octadeca-1,3,5,7,9,11,13,15-octaenylidene]-3,5,5-trimethyl-cyclohexyl] acetate

> <PUBCHEM_IUPAC_CAS_NAME>
acetic acid [(1S,3R)-3-hydroxy-4-[(3E,5E,7E,9E,11E,13E,15E)-18-[(1R,3S,6S)-3-hydroxy-1,5,5-trimethyl-7-oxabicyclo[4.1.0]heptan-6-yl]-3,7,12,16-tetramethyl-17-oxooctadeca-1,3,5,7,9,11,13,15-octaenylidene]-3,5,5-trimethylcyclohexyl] ester

> <PUBCHEM_IUPAC_NAME>
[(1S,3R)-3-hydroxy-4-[(3E,5E,7E,9E,11E,13E,15E)-18-[(1R,3S,6S)-3-hydroxy-1,5,5-trimethyl-7-oxabicyclo[4.1.0]heptan-6-yl]-3,7,12,16-tetramethyl-17-oxooctadeca-1,3,5,7,9,11,13,15-octaenylidene]-3,5,5-trimethylcyclohexyl] acetate

> <PUBCHEM_IUPAC_SYSTEMATIC_NAME>
[(1S,5R)-3,3,5-trimethyl-5-oxidanyl-4-[(3E,5E,7E,9E,11E,13E,15E)-3,7,12,16-tetramethyl-17-oxidanylidene-18-[(1R,3S,6S)-1,5,5-trimethyl-3-oxidanyl-7-oxabicyclo[4.1.0]heptan-6-yl]octadeca-1,3,5,7,9,11,13,15-octaenylidene]cyclohexyl] ethanoate

> <PUBCHEM_IUPAC_TRADITIONAL_NAME>
acetic acid [(1S,3R)-3-hydroxy-4-[(3E,5E,7E,9E,11E,13E,15E)-18-[(1R,3S,6S)-3-hydroxy-1,5,5-trimethyl-7-oxabicyclo[4.1.0]heptan-6-yl]-17-keto-3,7,12,16-tetramethyl-octadeca-1,3,5,7,9,11,13,15-octaenylidene]-3,5,5-trimethyl-cyclohexyl] ester

> <PUBCHEM_IUPAC_INCHI>
InChI=1S/C42H58O6/c1-29(18-14-19-31(3)22-23-37-38(6,7)26-35(47-33(5)43)27-40(37,10)46)16-12-13-17-30(2)20-15-21-32(4)36(45)28-42-39(8,9)24-34(44)25-41(42,11)48-42/h12-22,34-35,44,46H,24-28H2,1-11H3/b13-12+,18-14+,20-15+,29-16+,30-17+,31-19+,32-21+/t23?,34-,35-,40+,41+,42-/m0/s1

> <PUBCHEM_IUPAC_INCHIKEY>
SJWWTRQNNRNTPU-ABBNZJFMSA-N

> <PUBCHEM_XLOGP3_AA>
8.1

> <PUBCHEM_EXACT_MASS>
658.42334

> <PUBCHEM_MOLECULAR_FORMULA>
C42H58O6

> <PUBCHEM_MOLECULAR_WEIGHT>
658.90632

> <PUBCHEM_OPENEYE_CAN_SMILES>
CC(=CC=CC=C(C)C=CC=C(C)C(=O)CC12C(CC(CC1(O2)C)O)(C)C)C=CC=C(C)C=C=C3C(CC(CC3(C)O)OC(=O)C)(C)C

> <PUBCHEM_OPENEYE_ISO_SMILES>
C/C(=C\C=C\C=C(/C)\C=C\C=C(/C)\C(=O)C[C@]12[C@](O1)(C[C@H](CC2(C)C)O)C)/C=C/C=C(\C)/C=C=C3[C@](C[C@H](CC3(C)C)OC(=O)C)(C)O

> <PUBCHEM_CACTVS_TPSA>
96.4

> <PUBCHEM_MONOISOTOPIC_WEIGHT>
658.42334

> <PUBCHEM_TOTAL_CHARGE>
0

> <PUBCHEM_HEAVY_ATOM_COUNT>
48

> <PUBCHEM_ATOM_DEF_STEREO_COUNT>
5

> <PUBCHEM_ATOM_UDEF_STEREO_COUNT>
0

> <PUBCHEM_BOND_DEF_STEREO_COUNT>
7

> <PUBCHEM_BOND_UDEF_STEREO_COUNT>
0

> <PUBCHEM_ISOTOPIC_ATOM_COUNT>
0

> <PUBCHEM_COMPONENT_COUNT>
1

> <PUBCHEM_CACTVS_TAUTO_COUNT>
2

> <PUBCHEM_COORDINATE_TYPE>
1
5
255

> <PUBCHEM_BONDANNOTATIONS>
12  2  5
26  4  6
24  5  5
7  13  5
8  14  5

$$$$

