51090957
  -OEChem-06241223012D

 42 43  0     1  0  0  0  0  0999 V2000
    6.1808    4.3080    0.0000 O   0  0  0  0  0  0  0  0  0  0  0  0
    7.0468    0.8080    0.0000 O   0  0  0  0  0  0  0  0  0  0  0  0
    5.3147   -2.1920    0.0000 O   0  0  0  0  0  0  0  0  0  0  0  0
    2.0000   -2.5284    0.0000 O   0  0  0  0  0  0  0  0  0  0  0  0
    6.1808    2.3080    0.0000 N   0  0  0  0  0  0  0  0  0  0  0  0
    4.4487   -0.6920    0.0000 N   0  0  0  0  0  0  0  0  0  0  0  0
    2.6691   -1.7853    0.0000 N   0  0  0  0  0  0  0  0  0  0  0  0
    7.0468    3.8080    0.0000 C   0  0  3  0  0  0  0  0  0  0  0  0
    5.3147    3.8080    0.0000 C   0  0  3  0  0  0  0  0  0  0  0  0
    7.0468    2.8080    0.0000 C   0  0  0  0  0  0  0  0  0  0  0  0
    5.3147    2.8080    0.0000 C   0  0  0  0  0  0  0  0  0  0  0  0
    6.1808    1.3080    0.0000 C   0  0  0  0  0  0  0  0  0  0  0  0
    4.4487    4.3080    0.0000 C   0  0  0  0  0  0  0  0  0  0  0  0
    7.9128    4.3080    0.0000 C   0  0  0  0  0  0  0  0  0  0  0  0
    5.3147    0.8080    0.0000 C   0  0  0  0  0  0  0  0  0  0  0  0
    5.3147   -0.1920    0.0000 C   0  0  0  0  0  0  0  0  0  0  0  0
    4.4487   -1.6920    0.0000 C   0  0  0  0  0  0  0  0  0  0  0  0
    3.5827   -2.1920    0.0000 C   0  0  0  0  0  0  0  0  0  0  0  0
    3.4782   -3.1865    0.0000 C   0  0  0  0  0  0  0  0  0  0  0  0
    2.5000   -3.3944    0.0000 C   0  0  0  0  0  0  0  0  0  0  0  0
    2.0933   -4.3080    0.0000 C   0  0  0  0  0  0  0  0  0  0  0  0
    5.3147    4.4280    0.0000 H   0  0  0  0  0  0  0  0  0  0  0  0
    7.0468    4.4280    0.0000 H   0  0  0  0  0  0  0  0  0  0  0  0
    7.2588    2.2254    0.0000 H   0  0  0  0  0  0  0  0  0  0  0  0
    7.6574    2.9156    0.0000 H   0  0  0  0  0  0  0  0  0  0  0  0
    4.7042    2.9156    0.0000 H   0  0  0  0  0  0  0  0  0  0  0  0
    5.1027    2.2254    0.0000 H   0  0  0  0  0  0  0  0  0  0  0  0
    4.7587    4.8449    0.0000 H   0  0  0  0  0  0  0  0  0  0  0  0
    3.9118    4.6180    0.0000 H   0  0  0  0  0  0  0  0  0  0  0  0
    4.1387    3.7710    0.0000 H   0  0  0  0  0  0  0  0  0  0  0  0
    8.2228    3.7710    0.0000 H   0  0  0  0  0  0  0  0  0  0  0  0
    8.4497    4.6180    0.0000 H   0  0  0  0  0  0  0  0  0  0  0  0
    7.6028    4.8449    0.0000 H   0  0  0  0  0  0  0  0  0  0  0  0
    5.1027    1.3906    0.0000 H   0  0  0  0  0  0  0  0  0  0  0  0
    4.7042    0.7003    0.0000 H   0  0  0  0  0  0  0  0  0  0  0  0
    5.5268   -0.7746    0.0000 H   0  0  0  0  0  0  0  0  0  0  0  0
    5.9253   -0.0843    0.0000 H   0  0  0  0  0  0  0  0  0  0  0  0
    3.9118   -0.3820    0.0000 H   0  0  0  0  0  0  0  0  0  0  0  0
    3.9389   -3.6014    0.0000 H   0  0  0  0  0  0  0  0  0  0  0  0
    1.5269   -4.0558    0.0000 H   0  0  0  0  0  0  0  0  0  0  0  0
    1.8411   -4.8744    0.0000 H   0  0  0  0  0  0  0  0  0  0  0  0
    2.6597   -4.5602    0.0000 H   0  0  0  0  0  0  0  0  0  0  0  0
  1  8  1  0  0  0  0
  1  9  1  0  0  0  0
  2 12  2  0  0  0  0
  3 17  2  0  0  0  0
  4  7  1  0  0  0  0
  4 20  1  0  0  0  0
  5 10  1  0  0  0  0
  5 11  1  0  0  0  0
  5 12  1  0  0  0  0
  6 16  1  0  0  0  0
  6 17  1  0  0  0  0
  6 38  1  0  0  0  0
  7 18  2  0  0  0  0
  8 10  1  0  0  0  0
  8 14  1  0  0  0  0
  8 23  1  0  0  0  0
  9 11  1  0  0  0  0
  9 13  1  0  0  0  0
  9 22  1  0  0  0  0
 10 24  1  0  0  0  0
 10 25  1  0  0  0  0
 11 26  1  0  0  0  0
 11 27  1  0  0  0  0
 12 15  1  0  0  0  0
 13 28  1  0  0  0  0
 13 29  1  0  0  0  0
 13 30  1  0  0  0  0
 14 31  1  0  0  0  0
 14 32  1  0  0  0  0
 14 33  1  0  0  0  0
 15 16  1  0  0  0  0
 15 34  1  0  0  0  0
 15 35  1  0  0  0  0
 16 36  1  0  0  0  0
 16 37  1  0  0  0  0
 17 18  1  0  0  0  0
 18 19  1  0  0  0  0
 19 20  2  0  0  0  0
 19 39  1  0  0  0  0
 20 21  1  0  0  0  0
 21 40  1  0  0  0  0
 21 41  1  0  0  0  0
 21 42  1  0  0  0  0
M  END
> <PUBCHEM_COMPOUND_CID>
51090957

> <PUBCHEM_COMPOUND_CANONICALIZED>
1

> <PUBCHEM_CACTVS_COMPLEXITY>
380

> <PUBCHEM_CACTVS_HBOND_ACCEPTOR>
5

> <PUBCHEM_CACTVS_HBOND_DONOR>
1

> <PUBCHEM_CACTVS_ROTATABLE_BOND>
4

> <PUBCHEM_CACTVS_SUBSKEYS>
AAADceBzOAAAAAAAAAAAAAAAAAAAAWAAAAAsAAAAAAAAAAABgAAAHgAUAAAACBzhlgYyhJPQBACpAaVyUgCAAAAmIgAgGKG+bFoCZhoAxZMXEYhmFhiYScI/AAAAAAAAAAAAAAAAAAAAAAAAAAAAAAAAAA==

> <PUBCHEM_IUPAC_OPENEYE_NAME>
N-[3-(2,6-dimethylmorpholin-4-yl)-3-oxo-propyl]-5-methyl-isoxazole-3-carboxamide

> <PUBCHEM_IUPAC_CAS_NAME>
N-[3-(2,6-dimethyl-4-morpholinyl)-3-oxopropyl]-5-methyl-3-isoxazolecarboxamide

> <PUBCHEM_IUPAC_NAME>
N-[3-(2,6-dimethylmorpholin-4-yl)-3-oxopropyl]-5-methyl-1,2-oxazole-3-carboxamide

> <PUBCHEM_IUPAC_SYSTEMATIC_NAME>
N-[3-(2,6-dimethylmorpholin-4-yl)-3-oxidanylidene-propyl]-5-methyl-1,2-oxazole-3-carboxamide

> <PUBCHEM_IUPAC_TRADITIONAL_NAME>
N-[3-(2,6-dimethylmorpholino)-3-keto-propyl]-5-methyl-isoxazole-3-carboxamide

> <PUBCHEM_IUPAC_INCHI>
InChI=1S/C14H21N3O4/c1-9-6-12(16-21-9)14(19)15-5-4-13(18)17-7-10(2)20-11(3)8-17/h6,10-11H,4-5,7-8H2,1-3H3,(H,15,19)

> <PUBCHEM_IUPAC_INCHIKEY>
WMDYTHFSMNZFIS-UHFFFAOYSA-N

> <PUBCHEM_XLOGP3_AA>
0.3

> <PUBCHEM_EXACT_MASS>
295.153206

> <PUBCHEM_MOLECULAR_FORMULA>
C14H21N3O4

> <PUBCHEM_MOLECULAR_WEIGHT>
295.33424

> <PUBCHEM_OPENEYE_CAN_SMILES>
CC1CN(CC(O1)C)C(=O)CCNC(=O)C2=NOC(=C2)C

> <PUBCHEM_OPENEYE_ISO_SMILES>
CC1CN(CC(O1)C)C(=O)CCNC(=O)C2=NOC(=C2)C

> <PUBCHEM_CACTVS_TPSA>
84.7

> <PUBCHEM_MONOISOTOPIC_WEIGHT>
295.153206

> <PUBCHEM_TOTAL_CHARGE>
0

> <PUBCHEM_HEAVY_ATOM_COUNT>
21

> <PUBCHEM_ATOM_DEF_STEREO_COUNT>
0

> <PUBCHEM_ATOM_UDEF_STEREO_COUNT>
2

> <PUBCHEM_BOND_DEF_STEREO_COUNT>
0

> <PUBCHEM_BOND_UDEF_STEREO_COUNT>
0

> <PUBCHEM_ISOTOPIC_ATOM_COUNT>
0

> <PUBCHEM_COMPONENT_COUNT>
1

> <PUBCHEM_CACTVS_TAUTO_COUNT>
2

> <PUBCHEM_COORDINATE_TYPE>
1
5
255

> <PUBCHEM_BONDANNOTATIONS>
18  19  8
19  20  8
4  20  8
4  7  8
7  18  8
8  14  3
9  13  3

$$$$

