443743
  -OEChem-07051213033D

 41 45  0     1  0  0  0  0  0999 V2000
   -0.9612    2.1513   -0.3944 O   0  0  0  0  0  0  0  0  0  0  0  0
    0.5359    1.2168    1.7116 O   0  0  0  0  0  0  0  0  0  0  0  0
    5.3281   -0.6440    1.7983 O   0  0  0  0  0  0  0  0  0  0  0  0
    5.9922   -0.9102   -0.5022 O   0  0  0  0  0  0  0  0  0  0  0  0
   -4.8472    0.4984    0.3988 O   0  0  0  0  0  0  0  0  0  0  0  0
   -3.1214    2.8398    0.0524 O   0  0  0  0  0  0  0  0  0  0  0  0
   -4.7525   -2.2815    0.3764 O   0  0  0  0  0  0  0  0  0  0  0  0
   -0.2343    0.9010   -0.5592 C   0  0  2  0  0  0  0  0  0  0  0  0
   -1.3063   -0.1068   -0.3410 C   0  0  0  0  0  0  0  0  0  0  0  0
    0.8045    0.8757    0.5620 C   0  0  0  0  0  0  0  0  0  0  0  0
   -2.5055    0.5320   -0.0891 C   0  0  0  0  0  0  0  0  0  0  0  0
    0.3476    0.8716   -1.9377 C   0  0  0  0  0  0  0  0  0  0  0  0
    2.1721    0.3958    0.2375 C   0  0  0  0  0  0  0  0  0  0  0  0
    2.5522    0.2428   -1.1152 C   0  0  0  0  0  0  0  0  0  0  0  0
    1.6234    0.5645   -2.1978 C   0  0  0  0  0  0  0  0  0  0  0  0
   -2.2924    1.9697   -0.1243 C   0  0  0  0  0  0  0  0  0  0  0  0
   -1.2439   -1.4910   -0.3529 C   0  0  0  0  0  0  0  0  0  0  0  0
   -3.6819   -0.1524    0.1551 C   0  0  0  0  0  0  0  0  0  0  0  0
    3.0680    0.1145    1.2779 C   0  0  0  0  0  0  0  0  0  0  0  0
    3.8472   -0.1989   -1.4252 C   0  0  0  0  0  0  0  0  0  0  0  0
    4.3298   -0.3215    0.9311 C   0  0  0  0  0  0  0  0  0  0  0  0
    4.7085   -0.4739   -0.3816 C   0  0  0  0  0  0  0  0  0  0  0  0
   -3.6284   -1.5464    0.1420 C   0  0  0  0  0  0  0  0  0  0  0  0
   -2.4170   -2.2119   -0.1098 C   0  0  0  0  0  0  0  0  0  0  0  0
    6.3782   -1.0170    0.8830 C   0  0  0  0  0  0  0  0  0  0  0  0
   -5.1494    0.8102    1.7599 C   0  0  0  0  0  0  0  0  0  0  0  0
   -5.5463   -2.6286   -0.7558 C   0  0  0  0  0  0  0  0  0  0  0  0
   -0.3092    1.1012   -2.7740 H   0  0  0  0  0  0  0  0  0  0  0  0
    1.9859    0.5468   -3.2200 H   0  0  0  0  0  0  0  0  0  0  0  0
   -0.3110   -2.0104   -0.5448 H   0  0  0  0  0  0  0  0  0  0  0  0
    2.7938    0.2263    2.3213 H   0  0  0  0  0  0  0  0  0  0  0  0
    4.1740   -0.3230   -2.4531 H   0  0  0  0  0  0  0  0  0  0  0  0
   -2.3848   -3.2987   -0.1153 H   0  0  0  0  0  0  0  0  0  0  0  0
    6.6701   -2.0536    1.0873 H   0  0  0  0  0  0  0  0  0  0  0  0
    7.2432   -0.3668    1.0576 H   0  0  0  0  0  0  0  0  0  0  0  0
   -5.3022   -0.1086    2.3346 H   0  0  0  0  0  0  0  0  0  0  0  0
   -6.0739    1.3935    1.7795 H   0  0  0  0  0  0  0  0  0  0  0  0
   -4.3493    1.4052    2.2111 H   0  0  0  0  0  0  0  0  0  0  0  0
   -4.9706   -3.2450   -1.4535 H   0  0  0  0  0  0  0  0  0  0  0  0
   -5.9109   -1.7290   -1.2617 H   0  0  0  0  0  0  0  0  0  0  0  0
   -6.4067   -3.2063   -0.4071 H   0  0  0  0  0  0  0  0  0  0  0  0
  1  8  1  0  0  0  0
  1 16  1  0  0  0  0
  2 10  2  0  0  0  0
  3 21  1  0  0  0  0
  3 25  1  0  0  0  0
  4 22  1  0  0  0  0
  4 25  1  0  0  0  0
  5 18  1  0  0  0  0
  5 26  1  0  0  0  0
  6 16  2  0  0  0  0
  7 23  1  0  0  0  0
  7 27  1  0  0  0  0
  8  9  1  0  0  0  0
  8 10  1  0  0  0  0
  8 12  1  0  0  0  0
  9 11  2  0  0  0  0
  9 17  1  0  0  0  0
 10 13  1  0  0  0  0
 11 16  1  0  0  0  0
 11 18  1  0  0  0  0
 12 15  2  0  0  0  0
 12 28  1  0  0  0  0
 13 14  1  0  0  0  0
 13 19  2  0  0  0  0
 14 15  1  0  0  0  0
 14 20  2  0  0  0  0
 15 29  1  0  0  0  0
 17 24  2  0  0  0  0
 17 30  1  0  0  0  0
 18 23  2  0  0  0  0
 19 21  1  0  0  0  0
 19 31  1  0  0  0  0
 20 22  1  0  0  0  0
 20 32  1  0  0  0  0
 21 22  2  0  0  0  0
 23 24  1  0  0  0  0
 24 33  1  0  0  0  0
 25 34  1  0  0  0  0
 25 35  1  0  0  0  0
 26 36  1  0  0  0  0
 26 37  1  0  0  0  0
 26 38  1  0  0  0  0
 27 39  1  0  0  0  0
 27 40  1  0  0  0  0
 27 41  1  0  0  0  0
M  END
> <PUBCHEM_COMPOUND_CID>
443743

> <PUBCHEM_CONFORMER_RMSD>
0.6

> <PUBCHEM_CONFORMER_DIVERSEORDER>
2
1

> <PUBCHEM_MMFF94_PARTIAL_CHARGES>
33
1 -0.43
10 0.42
11 0.09
12 -0.29
13 0.09
14 0.03
15 -0.18
16 0.63
17 -0.15
18 0.08
19 -0.15
2 -0.57
20 -0.15
21 0.08
22 0.08
23 0.08
24 -0.15
25 0.56
26 0.28
27 0.28
28 0.15
29 0.15
3 -0.36
30 0.15
31 0.15
32 0.15
33 0.15
4 -0.36
5 -0.36
6 -0.57
7 -0.36
8 0.62
9 -0.14

> <PUBCHEM_EFFECTIVE_ROTOR_COUNT>
2.8

> <PUBCHEM_PHARMACOPHORE_FEATURES>
11
1 2 acceptor
1 3 acceptor
1 4 acceptor
1 5 acceptor
1 6 acceptor
1 7 acceptor
5 1 8 9 11 16 rings
5 3 4 21 22 25 rings
6 13 14 19 20 21 22 rings
6 8 10 12 13 14 15 rings
6 9 11 17 18 23 24 rings

> <PUBCHEM_HEAVY_ATOM_COUNT>
27

> <PUBCHEM_ATOM_DEF_STEREO_COUNT>
1

> <PUBCHEM_ATOM_UDEF_STEREO_COUNT>
0

> <PUBCHEM_BOND_DEF_STEREO_COUNT>
0

> <PUBCHEM_BOND_UDEF_STEREO_COUNT>
0

> <PUBCHEM_ISOTOPIC_ATOM_COUNT>
0

> <PUBCHEM_COMPONENT_COUNT>
1

> <PUBCHEM_CACTVS_TAUTO_COUNT>
1

> <PUBCHEM_CONFORMER_ID>
0006C55F00000002

> <PUBCHEM_MMFF94_ENERGY>
95.3717

> <PUBCHEM_FEATURE_SELFOVERLAP>
56.097

> <PUBCHEM_SHAPE_FINGERPRINT>
10319926 262 18040992968801987654
10369192 42 17829628167055437144
12035758 1 17967803960345945697
12166972 35 17845096173616586983
12236239 1 17704065218081703724
12553582 1 17131840854326209000
12633257 1 18187361025821985040
12788726 201 18269822160195308653
13009979 54 18130777932969423749
13140716 1 18264758884255601681
13540713 5 18121762964778545541
13583140 156 17895207635590749828
13782708 43 17967251979285882902
13911987 19 14692563343412628386
14294032 229 18129390474725630629
15163728 17 9295024495244019484
15183329 4 16845027757548561031
15188451 53 18411146813535343990
15537594 2 18060420243837399378
16752209 62 18059307482831158927
17349148 13 17989200443167975687
17804303 29 18335701611608725753
1813 80 17632308826021515844
18222031 100 17561093479507426556
19784866 240 17703794695245289111
200 152 16559032714084037204
20600515 1 18187633739350897677
21033648 29 16805900583853696488
21267235 1 16988271075757804224
21637258 2 18201449051445366030
22182313 1 16299220371530975020
22393880 68 14189576286860841497
23366157 5 17912635809524706069
23522609 53 18197186261965830572
23559900 14 18115288051938667780
23569914 152 14041017010098465978
2838139 119 8142087559268642746
3004659 81 17845941736048374670
351380 3 17703790323279642698
3633792 109 17702959036812783615
397830 11 18187942633914979376
474 4 4678815052131873948
5104073 3 18263915566962665969
5265222 85 18261383409533823006
602551 16 18409449189494464666
7226269 152 18040995202095662041
7970288 3 18199188391099072251

> <PUBCHEM_SHAPE_MULTIPOLES>
514.56
13.07
2.21
1.58
6.69
0.18
0.15
7.01
-3.87
-3.81
0.12
1.16
-0.29
-1.06

> <PUBCHEM_SHAPE_SELFOVERLAP>
1176.358

> <PUBCHEM_SHAPE_VOLUME>
267.3

> <PUBCHEM_COORDINATE_TYPE>
2
5
10

$$$$

