4448
  -OEChem-06261200073D

 53 54  0     1  0  0  0  0  0999 V2000
   -2.7305    0.5085    1.5644 S   0  0  0  0  0  0  0  0  0  0  0  0
   -2.7342    1.9583    1.5186 O   0  0  0  0  0  0  0  0  0  0  0  0
   -2.4897   -0.1813    2.8173 O   0  0  0  0  0  0  0  0  0  0  0  0
   -2.3337   -0.6299   -3.1320 O   0  0  0  0  0  0  0  0  0  0  0  0
   -2.1593   -2.0525   -1.3741 O   0  0  0  0  0  0  0  0  0  0  0  0
    4.0548    0.8796   -0.1378 O   0  0  0  0  0  0  0  0  0  0  0  0
    2.9527    2.4488    1.1261 O   0  0  0  0  0  0  0  0  0  0  0  0
   -1.6560   -0.0907    0.3927 N   0  0  0  0  0  0  0  0  0  0  0  0
    2.2918    1.9493   -1.0419 N   0  0  0  0  0  0  0  0  0  0  0  0
   -1.7959    0.3293   -1.0206 C   0  0  1  0  0  0  0  0  0  0  0  0
   -0.4975    0.9788   -1.5028 C   0  0  0  0  0  0  0  0  0  0  0  0
   -0.1330    2.2256   -0.6863 C   0  0  0  0  0  0  0  0  0  0  0  0
    1.1809    2.8559   -1.1393 C   0  0  0  0  0  0  0  0  0  0  0  0
   -2.1101   -0.9143   -1.8217 C   0  0  0  0  0  0  0  0  0  0  0  0
   -4.2889   -0.0604    0.9541 C   0  0  0  0  0  0  0  0  0  0  0  0
   -5.0082    0.7426    0.0861 C   0  0  0  0  0  0  0  0  0  0  0  0
   -4.7612   -1.2979    1.3558 C   0  0  0  0  0  0  0  0  0  0  0  0
   -6.7296   -0.9503   -0.0012 C   0  0  0  0  0  0  0  0  0  0  0  0
   -6.2381    0.2943   -0.3954 C   0  0  0  0  0  0  0  0  0  0  0  0
   -5.9912   -1.7464    0.8743 C   0  0  0  0  0  0  0  0  0  0  0  0
    3.0873    1.8193    0.0821 C   0  0  0  0  0  0  0  0  0  0  0  0
   -8.0452   -1.4291   -0.5150 C   0  0  0  0  0  0  0  0  0  0  0  0
    4.9542    0.6428    0.9510 C   0  0  0  0  0  0  0  0  0  0  0  0
    5.9461   -0.4083    0.5473 C   0  0  0  0  0  0  0  0  0  0  0  0
    5.6640   -1.7489    0.7849 C   0  0  0  0  0  0  0  0  0  0  0  0
    7.1387   -0.0322   -0.0605 C   0  0  0  0  0  0  0  0  0  0  0  0
    6.5862   -2.7259    0.4099 C   0  0  0  0  0  0  0  0  0  0  0  0
    8.0610   -1.0091   -0.4356 C   0  0  0  0  0  0  0  0  0  0  0  0
    7.7847   -2.3560   -0.2003 C   0  0  0  0  0  0  0  0  0  0  0  0
   -2.6177    1.0374   -1.1448 H   0  0  0  0  0  0  0  0  0  0  0  0
    0.3139    0.2419   -1.4439 H   0  0  0  0  0  0  0  0  0  0  0  0
   -0.5873    1.2558   -2.5605 H   0  0  0  0  0  0  0  0  0  0  0  0
   -0.0433    1.9663    0.3750 H   0  0  0  0  0  0  0  0  0  0  0  0
   -0.9350    2.9681   -0.7727 H   0  0  0  0  0  0  0  0  0  0  0  0
   -1.0711   -0.9117    0.5895 H   0  0  0  0  0  0  0  0  0  0  0  0
    1.1099    3.1722   -2.1854 H   0  0  0  0  0  0  0  0  0  0  0  0
    1.3903    3.7439   -0.5329 H   0  0  0  0  0  0  0  0  0  0  0  0
    2.5074    1.3664   -1.8451 H   0  0  0  0  0  0  0  0  0  0  0  0
   -4.6499    1.7182   -0.2269 H   0  0  0  0  0  0  0  0  0  0  0  0
   -4.1981   -1.9357    2.0300 H   0  0  0  0  0  0  0  0  0  0  0  0
   -6.8060    0.9251   -1.0741 H   0  0  0  0  0  0  0  0  0  0  0  0
   -6.3636   -2.7178    1.1887 H   0  0  0  0  0  0  0  0  0  0  0  0
   -2.5351   -1.4373   -3.6516 H   0  0  0  0  0  0  0  0  0  0  0  0
   -8.8494   -1.1072    0.1541 H   0  0  0  0  0  0  0  0  0  0  0  0
   -8.2444   -1.0361   -1.5178 H   0  0  0  0  0  0  0  0  0  0  0  0
   -8.0666   -2.5217   -0.5895 H   0  0  0  0  0  0  0  0  0  0  0  0
    4.3897    0.3129    1.8321 H   0  0  0  0  0  0  0  0  0  0  0  0
    5.4732    1.5738    1.2115 H   0  0  0  0  0  0  0  0  0  0  0  0
    4.7327   -2.0482    1.2576 H   0  0  0  0  0  0  0  0  0  0  0  0
    7.3633    1.0138   -0.2504 H   0  0  0  0  0  0  0  0  0  0  0  0
    6.3708   -3.7747    0.5925 H   0  0  0  0  0  0  0  0  0  0  0  0
    8.9940   -0.7214   -0.9113 H   0  0  0  0  0  0  0  0  0  0  0  0
    8.5026   -3.1167   -0.4925 H   0  0  0  0  0  0  0  0  0  0  0  0
  1  2  2  0  0  0  0
  1  3  2  0  0  0  0
  1  8  1  0  0  0  0
  1 15  1  0  0  0  0
  4 14  1  0  0  0  0
  4 43  1  0  0  0  0
  5 14  2  0  0  0  0
  6 21  1  0  0  0  0
  6 23  1  0  0  0  0
  7 21  2  0  0  0  0
  8 10  1  0  0  0  0
  8 35  1  0  0  0  0
  9 13  1  0  0  0  0
  9 21  1  0  0  0  0
  9 38  1  0  0  0  0
 10 11  1  0  0  0  0
 10 14  1  0  0  0  0
 10 30  1  0  0  0  0
 11 12  1  0  0  0  0
 11 31  1  0  0  0  0
 11 32  1  0  0  0  0
 12 13  1  0  0  0  0
 12 33  1  0  0  0  0
 12 34  1  0  0  0  0
 13 36  1  0  0  0  0
 13 37  1  0  0  0  0
 15 16  2  0  0  0  0
 15 17  1  0  0  0  0
 16 19  1  0  0  0  0
 16 39  1  0  0  0  0
 17 20  2  0  0  0  0
 17 40  1  0  0  0  0
 18 19  2  0  0  0  0
 18 20  1  0  0  0  0
 18 22  1  0  0  0  0
 19 41  1  0  0  0  0
 20 42  1  0  0  0  0
 22 44  1  0  0  0  0
 22 45  1  0  0  0  0
 22 46  1  0  0  0  0
 23 24  1  0  0  0  0
 23 47  1  0  0  0  0
 23 48  1  0  0  0  0
 24 25  2  0  0  0  0
 24 26  1  0  0  0  0
 25 27  1  0  0  0  0
 25 49  1  0  0  0  0
 26 28  2  0  0  0  0
 26 50  1  0  0  0  0
 27 29  2  0  0  0  0
 27 51  1  0  0  0  0
 28 29  1  0  0  0  0
 28 52  1  0  0  0  0
 29 53  1  0  0  0  0
M  END
> <PUBCHEM_COMPOUND_CID>
4448

> <PUBCHEM_CONFORMER_RMSD>
1.4

> <PUBCHEM_CONFORMER_DIVERSEORDER>
3
263
316
465
248
386
496
25
78
362
313
76
33
358
37
34
265
175
453
60
74
236
526
39
64
10
186
164
207
112
414
117
196
216
191
269
21
231
352
11
374
334
7
428
203
422
15
14
157
247
363
43
378
300
271
49
479
141
17
131
22
485
61
53
19
228
176
16
138
171
75
28
87
327
210
439
24
5
340
148
211
4
128
129
494
9
41
237
264
345
193
355
12
97
123
115
266
107
98
474
481
174
329
507
385
2
109
310
42
206
224
143
36
317
154
253
106
40
306
67
520
351
1
8
144
54
51
246
383
218
189
219
427
20
444
486
86
500
448
32
111
104
413
146
140
262
46
277
509
208
392
299
249
26
198
464
105
502
284
482
73
302

> <PUBCHEM_MMFF94_PARTIAL_CHARGES>
39
1 1.45
10 0.42
13 0.3
14 0.66
15 -0.01
16 -0.15
17 -0.15
18 -0.14
19 -0.15
2 -0.65
20 -0.15
21 0.78
22 0.14
23 0.42
24 -0.14
25 -0.15
26 -0.15
27 -0.15
28 -0.15
29 -0.15
3 -0.65
35 0.42
38 0.37
39 0.15
4 -0.65
40 0.15
41 0.15
42 0.15
43 0.5
49 0.15
5 -0.57
50 0.15
51 0.15
52 0.15
53 0.15
6 -0.43
7 -0.57
8 -0.91
9 -0.73

> <PUBCHEM_EFFECTIVE_ROTOR_COUNT>
12

> <PUBCHEM_PHARMACOPHORE_FEATURES>
10
1 2 acceptor
1 3 acceptor
1 4 acceptor
1 5 acceptor
1 7 acceptor
1 8 donor
1 9 donor
3 4 5 14 anion
6 15 16 17 18 19 20 rings
6 24 25 26 27 28 29 rings

> <PUBCHEM_HEAVY_ATOM_COUNT>
29

> <PUBCHEM_ATOM_DEF_STEREO_COUNT>
0

> <PUBCHEM_ATOM_UDEF_STEREO_COUNT>
1

> <PUBCHEM_BOND_DEF_STEREO_COUNT>
0

> <PUBCHEM_BOND_UDEF_STEREO_COUNT>
0

> <PUBCHEM_ISOTOPIC_ATOM_COUNT>
0

> <PUBCHEM_COMPONENT_COUNT>
1

> <PUBCHEM_CACTVS_TAUTO_COUNT>
2

> <PUBCHEM_CONFORMER_ID>
0000116000000003

> <PUBCHEM_MMFF94_ENERGY>
41.7917

> <PUBCHEM_FEATURE_SELFOVERLAP>
50.82

> <PUBCHEM_SHAPE_FINGERPRINT>
10319688 67 15719396113893590791
11273773 42 11599725120799049470
12035758 1 14996278064482439871
12592606 108 18341334418389407519
12633257 1 17240766160060661272
12895836 83 10087639286651450369
13103583 49 17458065984964315336
13533116 47 18338516335485307264
14216079 64 18343867723112426274
14931854 50 16702023106154435832
15150948 74 18410575090113892490
15183329 4 16415484843611241489
15352257 5 17917711301348148834
16994733 274 6338968754186091143
173720 79 17749384811694667405
18393751 57 13912325668178843573
21307412 95 17275096215661363323
21585481 104 13613973261260020334
21682296 61 18343581845862737457
21987483 16 17461451213541129403
2838139 119 7781508184469849712
3918712 181 11671481367832968334
437815 12 17989766687472381508
445580 126 7565346410124889982
474113 269 18261117366063045343
54039377 194 18341045303298769830
56633871 153 18407763633810917622
9896288 288 17752479021751169960

> <PUBCHEM_SHAPE_MULTIPOLES>
555.48
24
2.76
1.88
21.81
0.57
-0.31
-18.62
1.19
3.09
-0.18
-2.17
-0.02
0.03

> <PUBCHEM_SHAPE_SELFOVERLAP>
1139.93

> <PUBCHEM_SHAPE_VOLUME>
319.3

> <PUBCHEM_COORDINATE_TYPE>
2
5
10

$$$$

