440168
  -OEChem-07051212493D

 45 48  0     1  0  0  0  0  0999 V2000
    5.1788    1.1261    0.3525 O   0  0  0  0  0  0  0  0  0  0  0  0
   -1.4940   -2.5790    1.1048 O   0  0  0  0  0  0  0  0  0  0  0  0
   -5.7896    0.3744    0.3244 O   0  0  0  0  0  0  0  0  0  0  0  0
    2.7518    0.6249    0.1925 C   0  0  1  0  0  0  0  0  0  0  0  0
    2.0469   -0.5645   -0.4919 C   0  0  2  0  0  0  0  0  0  0  0  0
    0.5722   -0.6643   -0.1007 C   0  0  1  0  0  0  0  0  0  0  0  0
   -0.1547    0.6344   -0.5637 C   0  0  2  0  0  0  0  0  0  0  0  0
    4.1808    0.4050   -0.3441 C   0  0  2  0  0  0  0  0  0  0  0  0
    2.0766    1.9167   -0.2842 C   0  0  0  0  0  0  0  0  0  0  0  0
    2.9779   -1.7406   -0.2089 C   0  0  0  0  0  0  0  0  0  0  0  0
    0.5585    1.9016   -0.0195 C   0  0  0  0  0  0  0  0  0  0  0  0
    4.3868   -1.1202   -0.2501 C   0  0  0  0  0  0  0  0  0  0  0  0
   -0.1233   -1.8750   -0.7331 C   0  0  0  0  0  0  0  0  0  0  0  0
    2.7361    0.5826    1.7416 C   0  0  0  0  0  0  0  0  0  0  0  0
   -1.6532    0.5625   -0.2821 C   0  0  0  0  0  0  0  0  0  0  0  0
   -1.5522   -1.9986   -0.2014 C   0  0  2  0  0  0  0  0  0  0  0  0
   -2.3026   -0.6857   -0.1544 C   0  0  0  0  0  0  0  0  0  0  0  0
   -2.4388    1.7282   -0.2343 C   0  0  0  0  0  0  0  0  0  0  0  0
   -3.6933   -0.7319    0.0568 C   0  0  0  0  0  0  0  0  0  0  0  0
   -3.8186    1.6665   -0.0269 C   0  0  0  0  0  0  0  0  0  0  0  0
   -4.4459    0.4369    0.1225 C   0  0  0  0  0  0  0  0  0  0  0  0
    2.0771   -0.4097   -1.5836 H   0  0  0  0  0  0  0  0  0  0  0  0
    0.4913   -0.7626    0.9889 H   0  0  0  0  0  0  0  0  0  0  0  0
   -0.0759    0.6852   -1.6609 H   0  0  0  0  0  0  0  0  0  0  0  0
    4.2426    0.6999   -1.3998 H   0  0  0  0  0  0  0  0  0  0  0  0
    2.2376    2.0468   -1.3624 H   0  0  0  0  0  0  0  0  0  0  0  0
    2.5256    2.7916    0.2010 H   0  0  0  0  0  0  0  0  0  0  0  0
    2.8728   -2.5354   -0.9544 H   0  0  0  0  0  0  0  0  0  0  0  0
    2.7823   -2.1809    0.7751 H   0  0  0  0  0  0  0  0  0  0  0  0
    0.3643    2.0039    1.0550 H   0  0  0  0  0  0  0  0  0  0  0  0
    0.1443    2.8007   -0.4902 H   0  0  0  0  0  0  0  0  0  0  0  0
    4.9630   -1.4015    0.6385 H   0  0  0  0  0  0  0  0  0  0  0  0
    4.9476   -1.4792   -1.1203 H   0  0  0  0  0  0  0  0  0  0  0  0
    0.4298   -2.7936   -0.5059 H   0  0  0  0  0  0  0  0  0  0  0  0
   -0.1404   -1.7611   -1.8247 H   0  0  0  0  0  0  0  0  0  0  0  0
    3.2295   -0.3097    2.1394 H   0  0  0  0  0  0  0  0  0  0  0  0
    3.2633    1.4507    2.1544 H   0  0  0  0  0  0  0  0  0  0  0  0
    1.7255    0.6000    2.1575 H   0  0  0  0  0  0  0  0  0  0  0  0
   -2.0927   -2.7057   -0.8417 H   0  0  0  0  0  0  0  0  0  0  0  0
    4.9539    2.0700    0.2902 H   0  0  0  0  0  0  0  0  0  0  0  0
   -1.9959    2.7106   -0.3670 H   0  0  0  0  0  0  0  0  0  0  0  0
   -4.1910   -1.6931    0.1695 H   0  0  0  0  0  0  0  0  0  0  0  0
   -1.5032   -1.8664    1.7661 H   0  0  0  0  0  0  0  0  0  0  0  0
   -4.3905    2.5900    0.0094 H   0  0  0  0  0  0  0  0  0  0  0  0
   -6.1485    1.2783    0.3406 H   0  0  0  0  0  0  0  0  0  0  0  0
  1  8  1  0  0  0  0
  1 40  1  0  0  0  0
  2 16  1  0  0  0  0
  2 43  1  0  0  0  0
  3 21  1  0  0  0  0
  3 45  1  0  0  0  0
  4  5  1  0  0  0  0
  4  8  1  0  0  0  0
  4  9  1  0  0  0  0
  4 14  1  0  0  0  0
  5  6  1  0  0  0  0
  5 10  1  0  0  0  0
  5 22  1  0  0  0  0
  6  7  1  0  0  0  0
  6 13  1  0  0  0  0
  6 23  1  0  0  0  0
  7 11  1  0  0  0  0
  7 15  1  0  0  0  0
  7 24  1  0  0  0  0
  8 12  1  0  0  0  0
  8 25  1  0  0  0  0
  9 11  1  0  0  0  0
  9 26  1  0  0  0  0
  9 27  1  0  0  0  0
 10 12  1  0  0  0  0
 10 28  1  0  0  0  0
 10 29  1  0  0  0  0
 11 30  1  0  0  0  0
 11 31  1  0  0  0  0
 12 32  1  0  0  0  0
 12 33  1  0  0  0  0
 13 16  1  0  0  0  0
 13 34  1  0  0  0  0
 13 35  1  0  0  0  0
 14 36  1  0  0  0  0
 14 37  1  0  0  0  0
 14 38  1  0  0  0  0
 15 17  2  0  0  0  0
 15 18  1  0  0  0  0
 16 17  1  0  0  0  0
 16 39  1  0  0  0  0
 17 19  1  0  0  0  0
 18 20  2  0  0  0  0
 18 41  1  0  0  0  0
 19 21  2  0  0  0  0
 19 42  1  0  0  0  0
 20 21  1  0  0  0  0
 20 44  1  0  0  0  0
M  END
> <PUBCHEM_COMPOUND_CID>
440168

> <PUBCHEM_CONFORMER_RMSD>
0.6

> <PUBCHEM_CONFORMER_DIVERSEORDER>
1

> <PUBCHEM_MMFF94_PARTIAL_CHARGES>
18
1 -0.68
15 -0.14
16 0.42
17 -0.14
18 -0.15
19 -0.15
2 -0.68
20 -0.15
21 0.08
3 -0.53
40 0.4
41 0.15
42 0.15
43 0.4
44 0.15
45 0.45
7 0.14
8 0.28

> <PUBCHEM_EFFECTIVE_ROTOR_COUNT>
1.4

> <PUBCHEM_PHARMACOPHORE_FEATURES>
9
1 1 acceptor
1 1 donor
1 2 acceptor
1 2 donor
1 3 donor
5 4 5 8 10 12 rings
6 15 17 18 19 20 21 rings
6 4 5 6 7 9 11 rings
6 6 7 13 15 16 17 rings

> <PUBCHEM_HEAVY_ATOM_COUNT>
21

> <PUBCHEM_ATOM_DEF_STEREO_COUNT>
6

> <PUBCHEM_ATOM_UDEF_STEREO_COUNT>
0

> <PUBCHEM_BOND_DEF_STEREO_COUNT>
0

> <PUBCHEM_BOND_UDEF_STEREO_COUNT>
0

> <PUBCHEM_ISOTOPIC_ATOM_COUNT>
0

> <PUBCHEM_COMPONENT_COUNT>
1

> <PUBCHEM_CACTVS_TAUTO_COUNT>
3

> <PUBCHEM_CONFORMER_ID>
0006B76800000001

> <PUBCHEM_MMFF94_ENERGY>
74.3148

> <PUBCHEM_FEATURE_SELFOVERLAP>
45.766

> <PUBCHEM_SHAPE_FINGERPRINT>
10411042 1 16464737807023896407
10616163 171 18338514115002746918
10967382 1 18410292544550309814
11132069 177 18409736161944840261
11578080 2 17024605377557761715
12011746 2 18409726287524844286
12236239 1 17418093225996892756
12251169 10 18341613693968173293
12403259 415 18339363075571441269
12403814 3 17632582651518989373
12500047 106 18333737883794096942
12592029 89 18271525398681532275
12633257 1 18272100365694770264
12788726 201 17677040352021728192
128620 24 11959731568513811768
13140716 1 18196093244064212385
13402501 40 18408884065865455676
13533116 47 17749106741994103719
14022347 108 18272363213651557942
14115302 16 18130494280391358382
14178342 30 18119832221901273986
14341114 176 18410004459898635249
14790565 3 18339353162417981677
14866123 147 16963501513687881634
15042514 8 18268706122409590635
15196674 1 18409729590296652901
15209289 33 18411135870353948687
15256400 18 18409447028809553165
15295992 7 17822296747087917203
15375358 24 18334858312012863886
15536298 74 18333732441838405014
1601671 61 18410573977094708396
16945 1 18339086977524149710
17349148 13 18408610262154042405
17804303 29 18410569565730505941
1813 80 17203607107747535620
18186145 218 18334860562486010781
19591789 44 18195809801992473686
200 152 17822015311362088741
20028762 73 18259988141921042663
20510252 161 18335420222431628089
20645477 70 17603861252255392486
21033648 29 18335715969721995545
21267235 1 18337945796619760950
21279426 13 18120370118887964700
21421861 104 17988093313038538938
21524375 3 18409165541343612039
22892500 29 17095531669157811592
23402539 116 18335989701119883247
23558518 356 17698441027158398602
23559900 14 18408040723821041670
2748010 2 18337675337748575766
3004659 81 18270956960261241710
335352 9 18410291445028191351
34934 24 18410296883026551742
350125 39 18410851088485100413
351380 180 18409730664544853023
3545911 37 18408602561177531652
4214541 1 18410292536081986749
4340502 62 16486969600596383488
465052 167 18060692893004034257
495365 180 17240778267499239154
5104073 3 18410011065278690970
6138700 20 18194116554481818366
69090 78 18333735714957100903
7832392 63 18335144141959851126
8809292 202 18341609300153319339
9709674 26 18409443652844153758
9981440 41 17261872148564746112

> <PUBCHEM_SHAPE_MULTIPOLES>
414.56
9.49
2.3
0.89
2.21
0.51
0.27
-1.77
0.87
0.17
0.03
-0.38
0.05
0.45

> <PUBCHEM_SHAPE_SELFOVERLAP>
903.654

> <PUBCHEM_SHAPE_VOLUME>
225.2

> <PUBCHEM_COORDINATE_TYPE>
2
5
10

$$$$

