6003770
  -OEChem-07051212533D

 32 33  0     0  0  0  0  0  0999 V2000
    5.5443   -0.9766   -0.7756 O   0  0  0  0  0  0  0  0  0  0  0  0
   -5.7411   -0.1459   -0.4385 O   0  0  0  0  0  0  0  0  0  0  0  0
    3.9242    2.7006   -0.0130 O   0  0  0  0  0  0  0  0  0  0  0  0
   -5.0154    2.2499    0.2171 O   0  0  0  0  0  0  0  0  0  0  0  0
    5.8119    1.5035    0.3992 O   0  0  0  0  0  0  0  0  0  0  0  0
   -2.9451    2.7917   -0.5893 O   0  0  0  0  0  0  0  0  0  0  0  0
    0.1904   -0.5151    0.6630 N   0  0  0  0  0  0  0  0  0  0  0  0
   -0.6328   -1.5743    0.5679 N   0  0  0  0  0  0  0  0  0  0  0  0
    1.5419   -0.6265    0.3004 C   0  0  0  0  0  0  0  0  0  0  0  0
    3.7358    0.3676    0.0475 C   0  0  0  0  0  0  0  0  0  0  0  0
    2.3924    0.4784    0.4061 C   0  0  0  0  0  0  0  0  0  0  0  0
   -1.8618   -1.2447    0.3264 C   0  0  0  0  0  0  0  0  0  0  0  0
    2.0477   -1.8431   -0.1673 C   0  0  0  0  0  0  0  0  0  0  0  0
    4.2353   -0.8486   -0.4185 C   0  0  0  0  0  0  0  0  0  0  0  0
    3.3911   -1.9541   -0.5258 C   0  0  0  0  0  0  0  0  0  0  0  0
   -2.2401    0.1805    0.1829 C   0  0  0  0  0  0  0  0  0  0  0  0
   -3.5017    0.5407   -0.0664 C   0  0  0  0  0  0  0  0  0  0  0  0
   -2.9410   -2.2491    0.1818 C   0  0  0  0  0  0  0  0  0  0  0  0
   -4.5790   -0.4642   -0.2103 C   0  0  0  0  0  0  0  0  0  0  0  0
   -4.2003   -1.8850   -0.0671 C   0  0  0  0  0  0  0  0  0  0  0  0
    4.6004    1.5337    0.1656 C   0  0  0  0  0  0  0  0  0  0  0  0
   -3.7569    1.9808   -0.1861 C   0  0  0  0  0  0  0  0  0  0  0  0
    1.9890    1.4160    0.7829 H   0  0  0  0  0  0  0  0  0  0  0  0
    1.4199   -2.7250   -0.2641 H   0  0  0  0  0  0  0  0  0  0  0  0
    3.7668   -2.9075   -0.8876 H   0  0  0  0  0  0  0  0  0  0  0  0
   -0.0434    0.2663    1.2664 H   0  0  0  0  0  0  0  0  0  0  0  0
   -1.4991    0.9668    0.2551 H   0  0  0  0  0  0  0  0  0  0  0  0
   -2.6740   -3.2951    0.2850 H   0  0  0  0  0  0  0  0  0  0  0  0
   -4.9839   -2.6273   -0.1714 H   0  0  0  0  0  0  0  0  0  0  0  0
    5.7049   -1.8886   -1.0731 H   0  0  0  0  0  0  0  0  0  0  0  0
    4.5138    3.4805    0.0680 H   0  0  0  0  0  0  0  0  0  0  0  0
   -5.2272    3.2056    0.1524 H   0  0  0  0  0  0  0  0  0  0  0  0
  1 14  1  0  0  0  0
  1 30  1  0  0  0  0
  2 19  2  0  0  0  0
  3 21  1  0  0  0  0
  3 31  1  0  0  0  0
  4 22  1  0  0  0  0
  4 32  1  0  0  0  0
  5 21  2  0  0  0  0
  6 22  2  0  0  0  0
  7  8  1  0  0  0  0
  7  9  1  0  0  0  0
  7 26  1  0  0  0  0
  8 12  2  0  0  0  0
  9 11  2  0  0  0  0
  9 13  1  0  0  0  0
 10 11  1  0  0  0  0
 10 14  2  0  0  0  0
 10 21  1  0  0  0  0
 11 23  1  0  0  0  0
 12 16  1  0  0  0  0
 12 18  1  0  0  0  0
 13 15  2  0  0  0  0
 13 24  1  0  0  0  0
 14 15  1  0  0  0  0
 15 25  1  0  0  0  0
 16 17  2  0  0  0  0
 16 27  1  0  0  0  0
 17 19  1  0  0  0  0
 17 22  1  0  0  0  0
 18 20  2  0  0  0  0
 18 28  1  0  0  0  0
 19 20  1  0  0  0  0
 20 29  1  0  0  0  0
M  END
> <PUBCHEM_COMPOUND_CID>
6003770

> <PUBCHEM_CONFORMER_RMSD>
0.6

> <PUBCHEM_CONFORMER_DIVERSEORDER>
1
6
9
10
15
4
17
11
13
12
7
8
2
3
16
5
18
14

> <PUBCHEM_MMFF94_PARTIAL_CHARGES>
32
1 -0.53
10 0.09
11 -0.15
12 0.42
13 -0.15
14 0.08
15 -0.15
16 -0.14
17 0.03
18 -0.14
19 0.54
2 -0.57
20 -0.14
21 0.63
22 0.71
23 0.15
24 0.15
25 0.15
26 0.4
27 0.15
28 0.15
29 0.15
3 -0.65
30 0.45
31 0.5
32 0.5
4 -0.65
5 -0.57
6 -0.57
7 -0.46
8 -0.49
9 0.1

> <PUBCHEM_EFFECTIVE_ROTOR_COUNT>
4

> <PUBCHEM_PHARMACOPHORE_FEATURES>
13
1 1 donor
1 17 anion
1 2 acceptor
1 3 acceptor
1 4 acceptor
1 5 acceptor
1 6 acceptor
1 7 donor
1 8 acceptor
3 3 5 21 anion
3 4 6 22 anion
6 12 16 17 18 19 20 rings
6 9 10 11 13 14 15 rings

> <PUBCHEM_HEAVY_ATOM_COUNT>
22

> <PUBCHEM_ATOM_DEF_STEREO_COUNT>
0

> <PUBCHEM_ATOM_UDEF_STEREO_COUNT>
0

> <PUBCHEM_BOND_DEF_STEREO_COUNT>
1

> <PUBCHEM_BOND_UDEF_STEREO_COUNT>
0

> <PUBCHEM_ISOTOPIC_ATOM_COUNT>
0

> <PUBCHEM_COMPONENT_COUNT>
1

> <PUBCHEM_CACTVS_TAUTO_COUNT>
13

> <PUBCHEM_CONFORMER_ID>
005B9C3A00000001

> <PUBCHEM_MMFF94_ENERGY>
77.8687

> <PUBCHEM_FEATURE_SELFOVERLAP>
66.424

> <PUBCHEM_SHAPE_FINGERPRINT>
10498660 4 18201165463471398405
10595046 47 18409451358115657407
10670039 82 18129930209879228404
11405975 8 18341050808618876082
11595378 159 17060066985617280516
12107183 9 17837782479344153626
12390115 104 18189887803302853609
12596602 18 16486413174862068328
12916748 109 18343580720338907955
14251764 38 18271521988287990996
14528608 73 18408885109843422878
14739800 52 18270419208416567080
15183329 4 18340484573279243026
15196674 1 18410292523117801128
15961568 22 18129943360884810020
17844677 252 18409158918018452506
17959699 21 18410572885882481706
20645477 56 18342452694792369199
20645477 70 17749100115482143022
21065198 57 18411135857306029694
21315763 129 18411421683448075410
21315764 268 18343309179526503500
21709351 56 18334858329393375326
221357 26 18334016098911813449
22393880 68 18335977640810115542
23227448 37 18410857659568343917
23402655 69 18334295374807395638
23557571 272 18335413582417118911
23559900 14 18189336943207921890
245318 6 16768999633549129404
29717793 49 17240754108334728790
3004659 81 18410011065948785186
34797466 226 17895185584796083758
3545911 37 18410571777554286674
4073 2 18130219372789480130
4214541 1 18409728490959143763
441001 317 18413390912699202483
474 4 17560795498723503622
5104073 3 18272087227184389403
5281201 14 18334288790738445718
5283173 99 18410012164985698368
77779 3 18409448093898249391
90127 26 18342448236474002026
9709674 26 18410287012691045774

> <PUBCHEM_SHAPE_MULTIPOLES>
407.57
13.92
2.82
0.71
2.9
1.21
-0.01
4.22
-1.55
-0.8
-0.18
0.13
-0.06
0.86

> <PUBCHEM_SHAPE_SELFOVERLAP>
885.774

> <PUBCHEM_SHAPE_VOLUME>
220

> <PUBCHEM_COORDINATE_TYPE>
2
5
10

$$$$

