9618
  -OEChem-06261203523D

 38 37  0     0  0  0  0  0  0999 V2000
    8.0786    0.3347    0.0267 F   0  0  0  0  0  0  0  0  0  0  0  0
   -8.0887   -0.3412   -0.0463 F   0  0  0  0  0  0  0  0  0  0  0  0
    0.6604    0.4379   -0.0809 C   0  0  0  0  0  0  0  0  0  0  0  0
   -0.6398   -0.3729   -0.0501 C   0  0  0  0  0  0  0  0  0  0  0  0
    1.9181   -0.4329   -0.0339 C   0  0  0  0  0  0  0  0  0  0  0  0
   -1.9345    0.4451   -0.0054 C   0  0  0  0  0  0  0  0  0  0  0  0
    3.2164    0.3799   -0.0049 C   0  0  0  0  0  0  0  0  0  0  0  0
   -3.1984   -0.4167    0.0494 C   0  0  0  0  0  0  0  0  0  0  0  0
    4.4750   -0.4905    0.0185 C   0  0  0  0  0  0  0  0  0  0  0  0
   -4.4591    0.4517    0.0660 C   0  0  0  0  0  0  0  0  0  0  0  0
    5.7398    0.3661    0.0154 C   0  0  0  0  0  0  0  0  0  0  0  0
   -5.7530   -0.3621    0.0514 C   0  0  0  0  0  0  0  0  0  0  0  0
    6.9953   -0.4872    0.0026 C   0  0  0  0  0  0  0  0  0  0  0  0
   -7.0101    0.4881   -0.0086 C   0  0  0  0  0  0  0  0  0  0  0  0
    0.6692    1.1265    0.7730 H   0  0  0  0  0  0  0  0  0  0  0  0
    0.6776    1.0563   -0.9865 H   0  0  0  0  0  0  0  0  0  0  0  0
   -0.6185   -1.0339    0.8259 H   0  0  0  0  0  0  0  0  0  0  0  0
   -0.6657   -1.0279   -0.9301 H   0  0  0  0  0  0  0  0  0  0  0  0
    1.8801   -1.0756    0.8544 H   0  0  0  0  0  0  0  0  0  0  0  0
    1.9268   -1.0981   -0.9061 H   0  0  0  0  0  0  0  0  0  0  0  0
   -1.9088    1.1053    0.8702 H   0  0  0  0  0  0  0  0  0  0  0  0
   -1.9730    1.0934   -0.8894 H   0  0  0  0  0  0  0  0  0  0  0  0
    3.2460    1.0345   -0.8850 H   0  0  0  0  0  0  0  0  0  0  0  0
    3.2114    1.0336    0.8762 H   0  0  0  0  0  0  0  0  0  0  0  0
   -3.2231   -1.0835   -0.8209 H   0  0  0  0  0  0  0  0  0  0  0  0
   -3.1762   -1.0510    0.9434 H   0  0  0  0  0  0  0  0  0  0  0  0
    4.4625   -1.1302    0.9091 H   0  0  0  0  0  0  0  0  0  0  0  0
    4.4767   -1.1527   -0.8558 H   0  0  0  0  0  0  0  0  0  0  0  0
   -4.4475    1.0948    0.9546 H   0  0  0  0  0  0  0  0  0  0  0  0
   -4.4489    1.1169   -0.8065 H   0  0  0  0  0  0  0  0  0  0  0  0
    5.7584    1.0196    0.8956 H   0  0  0  0  0  0  0  0  0  0  0  0
    5.7503    1.0291   -0.8579 H   0  0  0  0  0  0  0  0  0  0  0  0
   -5.7991   -1.0030    0.9403 H   0  0  0  0  0  0  0  0  0  0  0  0
   -5.7521   -1.0438   -0.8079 H   0  0  0  0  0  0  0  0  0  0  0  0
    7.0567   -1.1002   -0.9013 H   0  0  0  0  0  0  0  0  0  0  0  0
    7.0483   -1.1385    0.8799 H   0  0  0  0  0  0  0  0  0  0  0  0
   -7.1047    1.1282    0.8732 H   0  0  0  0  0  0  0  0  0  0  0  0
   -7.0320    1.1106   -0.9077 H   0  0  0  0  0  0  0  0  0  0  0  0
  1 13  1  0  0  0  0
  2 14  1  0  0  0  0
  3  4  1  0  0  0  0
  3  5  1  0  0  0  0
  3 15  1  0  0  0  0
  3 16  1  0  0  0  0
  4  6  1  0  0  0  0
  4 17  1  0  0  0  0
  4 18  1  0  0  0  0
  5  7  1  0  0  0  0
  5 19  1  0  0  0  0
  5 20  1  0  0  0  0
  6  8  1  0  0  0  0
  6 21  1  0  0  0  0
  6 22  1  0  0  0  0
  7  9  1  0  0  0  0
  7 23  1  0  0  0  0
  7 24  1  0  0  0  0
  8 10  1  0  0  0  0
  8 25  1  0  0  0  0
  8 26  1  0  0  0  0
  9 11  1  0  0  0  0
  9 27  1  0  0  0  0
  9 28  1  0  0  0  0
 10 12  1  0  0  0  0
 10 29  1  0  0  0  0
 10 30  1  0  0  0  0
 11 13  1  0  0  0  0
 11 31  1  0  0  0  0
 11 32  1  0  0  0  0
 12 14  1  0  0  0  0
 12 33  1  0  0  0  0
 12 34  1  0  0  0  0
 13 35  1  0  0  0  0
 13 36  1  0  0  0  0
 14 37  1  0  0  0  0
 14 38  1  0  0  0  0
M  END
> <PUBCHEM_COMPOUND_CID>
9618

> <PUBCHEM_CONFORMER_RMSD>
1

> <PUBCHEM_CONFORMER_DIVERSEORDER>
1
128
53
9
40
141
110
2
13
95
185
7
34
181
55
165
32
43
52
10
154
28
6
184
33
26
21
16
39
179
12
147
100
129
4
99
31
133
35
176
85
158
56
3
151
27
93
171
144
38
54
91
84
102
174
70
152
47
65
82
5
72
121
134
69
11
89
46
90
20
167
58
98
115
60
59
114
136
48
113
66
73
120
126
180
101
92
78
169
80
116
143
67
24
88
61
76
45
182
8
83
105
108
17
49
74
36
97
104
41
64
173
130
63
94
164
109
68
140
96
135
119
25
183
155
111
77
50
132
44
18
14
51
149
103
107
145
112
148
163
122
162
15
117
131
81
168
177
62
153
29
37
160
118
161
166
42
170
159
106
86
178
22
138
75
23
124
156
30
139
123
19
142
137
175
87
127
57
79
146
125
172
150
71
157

> <PUBCHEM_MMFF94_PARTIAL_CHARGES>
4
1 -0.34
13 0.34
14 0.34
2 -0.34

> <PUBCHEM_EFFECTIVE_ROTOR_COUNT>
11

> <PUBCHEM_PHARMACOPHORE_FEATURES>
0

> <PUBCHEM_HEAVY_ATOM_COUNT>
14

> <PUBCHEM_ATOM_DEF_STEREO_COUNT>
0

> <PUBCHEM_ATOM_UDEF_STEREO_COUNT>
0

> <PUBCHEM_BOND_DEF_STEREO_COUNT>
0

> <PUBCHEM_BOND_UDEF_STEREO_COUNT>
0

> <PUBCHEM_ISOTOPIC_ATOM_COUNT>
0

> <PUBCHEM_COMPONENT_COUNT>
1

> <PUBCHEM_CACTVS_TAUTO_COUNT>
1

> <PUBCHEM_CONFORMER_ID>
0000259200000001

> <PUBCHEM_MMFF94_ENERGY>
-1.0322

> <PUBCHEM_FEATURE_SELFOVERLAP>
0

> <PUBCHEM_SHAPE_FINGERPRINT>
11315181 36 18186516588660747675
12091667 2 18413107265207381729
13533116 47 18341620368869955002
14123256 10 18410573993741392251
14251764 18 18410574006626307297
14251764 46 18410855464423148587
17834076 25 18410573989446431435
18006028 8 18334013895520049369
22224240 67 18408325475636545278
23402539 116 18259990357316239966
23521765 1 18335420170664673285
33684 2 18412827992578391547
42788 4 18410573989857946536
8209 1 18410856563940038125

> <PUBCHEM_SHAPE_MULTIPOLES>
273.57
24.48
0.78
0.6
0.27
0
0
0.09
0.21
0
0
0
0
0

> <PUBCHEM_SHAPE_SELFOVERLAP>
488.897

> <PUBCHEM_SHAPE_VOLUME>
177.1

> <PUBCHEM_COORDINATE_TYPE>
2
5
10

$$$$

