656501
  -OEChem-07051212482D

 73 75  0     1  0  0  0  0  0999 V2000
    8.3671    1.6996    0.0000 P   0  0  3  0  0  0  0  0  0  0  0  0
    6.0010    0.3336    0.0000 O   0  0  0  0  0  0  0  0  0  0  0  0
    7.3671    1.6996    0.0000 O   0  0  0  0  0  0  0  0  0  0  0  0
   11.4548    1.7566    0.0000 O   0  0  0  0  0  0  0  0  0  0  0  0
    8.5991   -1.1664    0.0000 O   0  0  0  0  0  0  0  0  0  0  0  0
    5.1350   -2.1664    0.0000 O   0  0  0  0  0  0  0  0  0  0  0  0
    9.3671    1.6996    0.0000 O   0  0  0  0  0  0  0  0  0  0  0  0
   11.1458    4.3257    0.0000 O   0  0  0  0  0  0  0  0  0  0  0  0
    4.2690    0.3336    0.0000 O   0  0  0  0  0  0  0  0  0  0  0  0
   13.2149    3.6534    0.0000 O   0  0  0  0  0  0  0  0  0  0  0  0
    5.3671    1.6996    0.0000 O   0  0  0  0  0  0  0  0  0  0  0  0
    6.8671    2.5656    0.0000 O   0  0  0  0  0  0  0  0  0  0  0  0
    8.3671    2.6996    0.0000 O   0  0  0  0  0  0  0  0  0  0  0  0
    2.5369   -0.6664    0.0000 O   0  0  0  0  0  0  0  0  0  0  0  0
    8.3671    0.6996    0.0000 O   0  0  0  0  0  0  0  0  0  0  0  0
    8.5991   -2.1664    0.0000 O   0  0  0  0  0  0  0  0  0  0  0  0
    8.5991   -4.1664    0.0000 O   0  0  0  0  0  0  0  0  0  0  0  0
   12.1968    0.0766    0.0000 O   0  0  0  0  0  0  0  0  0  0  0  0
    6.8671   -2.1664    0.0000 N   0  0  0  0  0  0  0  0  0  0  0  0
   13.2149    1.4778    0.0000 N   0  0  0  0  0  0  0  0  0  0  0  0
   13.9194   -0.1045    0.0000 N   0  0  0  0  0  0  0  0  0  0  0  0
   15.6420   -0.2855    0.0000 N   0  0  0  0  0  0  0  0  0  0  0  0
    6.8671   -1.1664    0.0000 C   0  0  1  0  0  0  0  0  0  0  0  0
    6.0010   -0.6664    0.0000 C   0  0  2  0  0  0  0  0  0  0  0  0
    7.7331   -0.6664    0.0000 C   0  0  2  0  0  0  0  0  0  0  0  0
    7.7331    0.3336    0.0000 C   0  0  0  0  0  0  0  0  0  0  0  0
    6.8671    0.8336    0.0000 C   0  0  1  0  0  0  0  0  0  0  0  0
    5.1350   -1.1664    0.0000 C   0  0  1  0  0  0  0  0  0  0  0  0
   10.8671    2.5656    0.0000 C   0  0  1  0  0  0  0  0  0  0  0  0
   11.4548    3.3746    0.0000 C   0  0  2  0  0  0  0  0  0  0  0  0
    4.2690   -0.6664    0.0000 C   0  0  1  0  0  0  0  0  0  0  0  0
   12.4059    3.0656    0.0000 C   0  0  2  0  0  0  0  0  0  0  0  0
   12.4059    2.0656    0.0000 C   0  0  1  0  0  0  0  0  0  0  0  0
    6.3671    1.6996    0.0000 C   0  0  0  0  0  0  0  0  0  0  0  0
    9.8671    2.5656    0.0000 C   0  0  0  0  0  0  0  0  0  0  0  0
    3.4030   -1.1664    0.0000 C   0  0  0  0  0  0  0  0  0  0  0  0
    7.7331   -2.6664    0.0000 C   0  0  0  0  0  0  0  0  0  0  0  0
    7.7331   -3.6664    0.0000 C   0  0  0  0  0  0  0  0  0  0  0  0
   14.1285    1.8846    0.0000 C   0  0  0  0  0  0  0  0  0  0  0  0
   13.1104    0.4833    0.0000 C   0  0  0  0  0  0  0  0  0  0  0  0
   14.9375    1.2968    0.0000 C   0  0  0  0  0  0  0  0  0  0  0  0
   14.8330    0.3023    0.0000 C   0  0  0  0  0  0  0  0  0  0  0  0
    6.3301   -1.4764    0.0000 H   0  0  0  0  0  0  0  0  0  0  0  0
    5.2649   -0.2414    0.0000 H   0  0  0  0  0  0  0  0  0  0  0  0
    7.7331   -1.2864    0.0000 H   0  0  0  0  0  0  0  0  0  0  0  0
    8.3437    0.2259    0.0000 H   0  0  0  0  0  0  0  0  0  0  0  0
    7.9451    0.9162    0.0000 H   0  0  0  0  0  0  0  0  0  0  0  0
    5.6720   -1.4764    0.0000 H   0  0  0  0  0  0  0  0  0  0  0  0
   10.5856    2.0132    0.0000 H   0  0  0  0  0  0  0  0  0  0  0  0
   11.8933    3.8130    0.0000 H   0  0  0  0  0  0  0  0  0  0  0  0
    6.3301   -2.4764    0.0000 H   0  0  0  0  0  0  0  0  0  0  0  0
    4.8059   -0.3564    0.0000 H   0  0  0  0  0  0  0  0  0  0  0  0
   12.3089    3.6780    0.0000 H   0  0  0  0  0  0  0  0  0  0  0  0
   12.3089    1.4532    0.0000 H   0  0  0  0  0  0  0  0  0  0  0  0
    9.9747    3.1762    0.0000 H   0  0  0  0  0  0  0  0  0  0  0  0
    9.2844    2.7777    0.0000 H   0  0  0  0  0  0  0  0  0  0  0  0
    9.1360   -0.8564    0.0000 H   0  0  0  0  0  0  0  0  0  0  0  0
    3.0044   -1.6414    0.0000 H   0  0  0  0  0  0  0  0  0  0  0  0
    3.8015   -1.6414    0.0000 H   0  0  0  0  0  0  0  0  0  0  0  0
    4.5981   -2.4764    0.0000 H   0  0  0  0  0  0  0  0  0  0  0  0
   11.5607    4.7864    0.0000 H   0  0  0  0  0  0  0  0  0  0  0  0
   13.1501    4.2700    0.0000 H   0  0  0  0  0  0  0  0  0  0  0  0
    3.7320    0.6436    0.0000 H   0  0  0  0  0  0  0  0  0  0  0  0
    7.1225   -3.5588    0.0000 H   0  0  0  0  0  0  0  0  0  0  0  0
    7.5210   -4.2491    0.0000 H   0  0  0  0  0  0  0  0  0  0  0  0
   14.1933    2.5012    0.0000 H   0  0  0  0  0  0  0  0  0  0  0  0
    5.0571    2.2365    0.0000 H   0  0  0  0  0  0  0  0  0  0  0  0
    8.9040    3.0096    0.0000 H   0  0  0  0  0  0  0  0  0  0  0  0
    2.0000   -0.9764    0.0000 H   0  0  0  0  0  0  0  0  0  0  0  0
   15.5039    1.5490    0.0000 H   0  0  0  0  0  0  0  0  0  0  0  0
    8.5991   -4.7864    0.0000 H   0  0  0  0  0  0  0  0  0  0  0  0
   16.2084   -0.0334    0.0000 H   0  0  0  0  0  0  0  0  0  0  0  0
   15.5772   -0.9021    0.0000 H   0  0  0  0  0  0  0  0  0  0  0  0
  1  3  1  0  0  0  0
  1  7  1  0  0  0  0
  1 13  1  0  0  0  0
  1 15  2  0  0  0  0
  2 24  1  0  0  0  0
  2 27  1  0  0  0  0
 27  3  1  1  0  0  0
  4 29  1  0  0  0  0
  4 33  1  0  0  0  0
 25  5  1  6  0  0  0
  5 57  1  0  0  0  0
 28  6  1  6  0  0  0
  6 60  1  0  0  0  0
  7 35  1  0  0  0  0
 30  8  1  1  0  0  0
  8 61  1  0  0  0  0
 31  9  1  1  0  0  0
  9 63  1  0  0  0  0
 32 10  1  1  0  0  0
 10 62  1  0  0  0  0
 11 34  1  0  0  0  0
 11 67  1  0  0  0  0
 12 34  2  0  0  0  0
 13 68  1  0  0  0  0
 14 36  1  0  0  0  0
 14 69  1  0  0  0  0
 16 37  2  0  0  0  0
 17 38  1  0  0  0  0
 17 71  1  0  0  0  0
 18 40  2  0  0  0  0
 23 19  1  1  0  0  0
 19 37  1  0  0  0  0
 19 51  1  0  0  0  0
 33 20  1  6  0  0  0
 20 39  1  0  0  0  0
 20 40  1  0  0  0  0
 21 40  1  0  0  0  0
 21 42  2  0  0  0  0
 22 42  1  0  0  0  0
 22 72  1  0  0  0  0
 22 73  1  0  0  0  0
 23 24  1  0  0  0  0
 23 25  1  0  0  0  0
 23 43  1  0  0  0  0
 24 28  1  0  0  0  0
 24 44  1  1  0  0  0
 25 26  1  0  0  0  0
 25 45  1  0  0  0  0
 26 27  1  0  0  0  0
 26 46  1  0  0  0  0
 26 47  1  0  0  0  0
 27 34  1  0  0  0  0
 28 31  1  0  0  0  0
 28 48  1  0  0  0  0
 29 30  1  0  0  0  0
 29 35  1  6  0  0  0
 29 49  1  0  0  0  0
 30 32  1  0  0  0  0
 30 50  1  0  0  0  0
 31 36  1  0  0  0  0
 31 52  1  0  0  0  0
 32 33  1  0  0  0  0
 32 53  1  0  0  0  0
 33 54  1  0  0  0  0
 35 55  1  0  0  0  0
 35 56  1  0  0  0  0
 36 58  1  0  0  0  0
 36 59  1  0  0  0  0
 37 38  1  0  0  0  0
 38 64  1  0  0  0  0
 38 65  1  0  0  0  0
 39 41  2  0  0  0  0
 39 66  1  0  0  0  0
 41 42  1  0  0  0  0
 41 70  1  0  0  0  0
M  END
> <PUBCHEM_COMPOUND_CID>
656501

> <PUBCHEM_COMPOUND_CANONICALIZED>
1

> <PUBCHEM_CACTVS_COMPLEXITY>
1140

> <PUBCHEM_CACTVS_HBOND_ACCEPTOR>
17

> <PUBCHEM_CACTVS_HBOND_DONOR>
11

> <PUBCHEM_CACTVS_ROTATABLE_BOND>
12

> <PUBCHEM_CACTVS_SUBSKEYS>
AAADceB7vgIAAAAAAAAAAAAAAAAAASAAAAAkQAAAAAAAAAAAAAAAHgAQCCAACDzhgAYBCAPABxCoQCP2fIKAAAEAAgAIAIFYABCTEBIAgAQPQAAHFgKXAAH6+aeQAAAAAAAAAAAAAAAAAAAAAAAAAAAAAA==

> <PUBCHEM_IUPAC_OPENEYE_NAME>
(2R,4S,5R,6R)-2-[[(2R,3S,4R,5R)-5-(4-amino-2-oxo-pyrimidin-1-yl)-3,4-dihydroxy-tetrahydrofuran-2-yl]methoxy-hydroxy-phosphoryl]oxy-4-hydroxy-5-[(2-hydroxyacetyl)amino]-6-[(1R,2R)-1,2,3-trihydroxypropyl]tetrahydropyran-2-carboxylic acid

> <PUBCHEM_IUPAC_CAS_NAME>
(2R,4S,5R,6R)-2-[[(2R,3S,4R,5R)-5-(4-amino-2-oxo-1-pyrimidinyl)-3,4-dihydroxy-2-oxolanyl]methoxy-hydroxyphosphoryl]oxy-4-hydroxy-5-[(2-hydroxy-1-oxoethyl)amino]-6-[(1R,2R)-1,2,3-trihydroxypropyl]-2-oxanecarboxylic acid

> <PUBCHEM_IUPAC_NAME>
(2R,4S,5R,6R)-2-[[(2R,3S,4R,5R)-5-(4-amino-2-oxopyrimidin-1-yl)-3,4-dihydroxyoxolan-2-yl]methoxy-hydroxyphosphoryl]oxy-4-hydroxy-5-[(2-hydroxyacetyl)amino]-6-[(1R,2R)-1,2,3-trihydroxypropyl]oxane-2-carboxylic acid

> <PUBCHEM_IUPAC_SYSTEMATIC_NAME>
(2R,4S,5R,6R)-2-[[(2R,3S,4R,5R)-5-(4-azanyl-2-oxidanylidene-pyrimidin-1-yl)-3,4-bis(oxidanyl)oxolan-2-yl]methoxy-oxidanyl-phosphoryl]oxy-4-oxidanyl-5-(2-oxidanylethanoylamino)-6-[(1R,2R)-1,2,3-tris(oxidanyl)propyl]oxane-2-carboxylic acid

> <PUBCHEM_IUPAC_TRADITIONAL_NAME>
(2R,4S,5R,6R)-2-[[(2R,3S,4R,5R)-5-(4-amino-2-keto-pyrimidin-1-yl)-3,4-dihydroxy-tetrahydrofuran-2-yl]methoxy-hydroxy-phosphoryl]oxy-5-(glycoloylamino)-4-hydroxy-6-[(1R,2R)-1,2,3-trihydroxypropyl]tetrahydropyran-2-carboxylic acid

> <PUBCHEM_IUPAC_INCHI>
InChI=1S/C20H31N4O17P/c21-10-1-2-24(19(35)22-10)17-15(32)14(31)9(39-17)6-38-42(36,37)41-20(18(33)34)3-7(27)12(23-11(29)5-26)16(40-20)13(30)8(28)4-25/h1-2,7-9,12-17,25-28,30-32H,3-6H2,(H,23,29)(H,33,34)(H,36,37)(H2,21,22,35)/t7-,8+,9+,12+,13+,14+,15+,16+,17+,20+/m0/s1

> <PUBCHEM_IUPAC_INCHIKEY>
HOEWKBQADMRCLO-UIUGZIMDSA-N

> <PUBCHEM_XLOGP3_AA>
-7.4

> <PUBCHEM_EXACT_MASS>
630.142182

> <PUBCHEM_MOLECULAR_FORMULA>
C20H31N4O17P

> <PUBCHEM_MOLECULAR_WEIGHT>
630.450502

> <PUBCHEM_OPENEYE_CAN_SMILES>
C1C(C(C(OC1(C(=O)O)OP(=O)(O)OCC2C(C(C(O2)N3C=CC(=NC3=O)N)O)O)C(C(CO)O)O)NC(=O)CO)O

> <PUBCHEM_OPENEYE_ISO_SMILES>
C1[C@@H]([C@H]([C@@H](O[C@@]1(C(=O)O)OP(=O)(O)OC[C@@H]2[C@H]([C@H]([C@@H](O2)N3C=CC(=NC3=O)N)O)O)[C@@H]([C@@H](CO)O)O)NC(=O)CO)O

> <PUBCHEM_CACTVS_TPSA>
341

> <PUBCHEM_MONOISOTOPIC_WEIGHT>
630.142182

> <PUBCHEM_TOTAL_CHARGE>
0

> <PUBCHEM_HEAVY_ATOM_COUNT>
42

> <PUBCHEM_ATOM_DEF_STEREO_COUNT>
10

> <PUBCHEM_ATOM_UDEF_STEREO_COUNT>
0

> <PUBCHEM_BOND_DEF_STEREO_COUNT>
0

> <PUBCHEM_BOND_UDEF_STEREO_COUNT>
0

> <PUBCHEM_ISOTOPIC_ATOM_COUNT>
0

> <PUBCHEM_COMPONENT_COUNT>
1

> <PUBCHEM_CACTVS_TAUTO_COUNT>
6

> <PUBCHEM_COORDINATE_TYPE>
1
5
255

> <PUBCHEM_BONDANNOTATIONS>
32  10  5
23  19  5
33  20  6
20  39  8
20  40  8
21  40  8
21  42  8
24  44  5
29  35  6
27  3  5
39  41  8
41  42  8
25  5  6
28  6  6
30  8  5
31  9  5

$$$$

