4277
  -OEChem-06261200003D

 40 41  0     0  0  0  0  0  0999 V2000
   -0.0051   -2.1001    0.6892 O   0  0  0  0  0  0  0  0  0  0  0  0
    1.1500   -0.3943   -0.3816 N   0  0  0  0  0  0  0  0  0  0  0  0
   -1.1486   -0.3901   -0.3841 N   0  0  0  0  0  0  0  0  0  0  0  0
    2.4854   -0.8644   -0.0867 C   0  0  0  0  0  0  0  0  0  0  0  0
   -2.4826   -0.8626   -0.0877 C   0  0  0  0  0  0  0  0  0  0  0  0
    3.4584   -0.5017   -1.2136 C   0  0  0  0  0  0  0  0  0  0  0  0
    2.9734   -0.3269    1.2629 C   0  0  0  0  0  0  0  0  0  0  0  0
   -2.9696   -0.3260    1.2626 C   0  0  0  0  0  0  0  0  0  0  0  0
   -3.4579   -0.5017   -1.2133 C   0  0  0  0  0  0  0  0  0  0  0  0
    3.7740    0.9935   -1.2552 C   0  0  0  0  0  0  0  0  0  0  0  0
    3.2897    1.1680    1.2172 C   0  0  0  0  0  0  0  0  0  0  0  0
   -3.2889    1.1683    1.2173 C   0  0  0  0  0  0  0  0  0  0  0  0
   -3.7762    0.9929   -1.2545 C   0  0  0  0  0  0  0  0  0  0  0  0
    4.2681    1.5025    0.0956 C   0  0  0  0  0  0  0  0  0  0  0  0
   -4.2694    1.5010    0.0969 C   0  0  0  0  0  0  0  0  0  0  0  0
   -0.0007   -1.0582    0.0349 C   0  0  0  0  0  0  0  0  0  0  0  0
    2.4355   -1.9583   -0.0185 H   0  0  0  0  0  0  0  0  0  0  0  0
   -2.4318   -1.9566   -0.0199 H   0  0  0  0  0  0  0  0  0  0  0  0
    3.0518   -0.8141   -2.1830 H   0  0  0  0  0  0  0  0  0  0  0  0
    4.3948   -1.0554   -1.0680 H   0  0  0  0  0  0  0  0  0  0  0  0
    3.8820   -0.8694    1.5540 H   0  0  0  0  0  0  0  0  0  0  0  0
    2.2283   -0.5158    2.0450 H   0  0  0  0  0  0  0  0  0  0  0  0
   -2.2234   -0.5135    2.0439 H   0  0  0  0  0  0  0  0  0  0  0  0
   -3.8769   -0.8702    1.5549 H   0  0  0  0  0  0  0  0  0  0  0  0
   -4.3931   -1.0571   -1.0663 H   0  0  0  0  0  0  0  0  0  0  0  0
   -3.0521   -0.8136   -2.1832 H   0  0  0  0  0  0  0  0  0  0  0  0
    2.8841    1.5581   -1.5571 H   0  0  0  0  0  0  0  0  0  0  0  0
    4.5381    1.1830   -2.0179 H   0  0  0  0  0  0  0  0  0  0  0  0
    3.7123    1.4822    2.1784 H   0  0  0  0  0  0  0  0  0  0  0  0
    2.3634    1.7381    1.0773 H   0  0  0  0  0  0  0  0  0  0  0  0
   -2.3637    1.7402    1.0760 H   0  0  0  0  0  0  0  0  0  0  0  0
   -3.7107    1.4819    2.1790 H   0  0  0  0  0  0  0  0  0  0  0  0
   -4.5415    1.1810   -2.0163 H   0  0  0  0  0  0  0  0  0  0  0  0
   -2.8876    1.5589   -1.5575 H   0  0  0  0  0  0  0  0  0  0  0  0
    5.2443    1.0542    0.3185 H   0  0  0  0  0  0  0  0  0  0  0  0
    4.4189    2.5868    0.0485 H   0  0  0  0  0  0  0  0  0  0  0  0
   -5.2444    1.0508    0.3211 H   0  0  0  0  0  0  0  0  0  0  0  0
   -4.4224    2.5851    0.0500 H   0  0  0  0  0  0  0  0  0  0  0  0
    1.0396    0.4972   -0.8545 H   0  0  0  0  0  0  0  0  0  0  0  0
   -1.0372    0.5015   -0.8565 H   0  0  0  0  0  0  0  0  0  0  0  0
  1 16  2  0  0  0  0
  2  4  1  0  0  0  0
  2 16  1  0  0  0  0
  2 39  1  0  0  0  0
  3  5  1  0  0  0  0
  3 16  1  0  0  0  0
  3 40  1  0  0  0  0
  4  6  1  0  0  0  0
  4  7  1  0  0  0  0
  4 17  1  0  0  0  0
  5  8  1  0  0  0  0
  5  9  1  0  0  0  0
  5 18  1  0  0  0  0
  6 10  1  0  0  0  0
  6 19  1  0  0  0  0
  6 20  1  0  0  0  0
  7 11  1  0  0  0  0
  7 21  1  0  0  0  0
  7 22  1  0  0  0  0
  8 12  1  0  0  0  0
  8 23  1  0  0  0  0
  8 24  1  0  0  0  0
  9 13  1  0  0  0  0
  9 25  1  0  0  0  0
  9 26  1  0  0  0  0
 10 14  1  0  0  0  0
 10 27  1  0  0  0  0
 10 28  1  0  0  0  0
 11 14  1  0  0  0  0
 11 29  1  0  0  0  0
 11 30  1  0  0  0  0
 12 15  1  0  0  0  0
 12 31  1  0  0  0  0
 12 32  1  0  0  0  0
 13 15  1  0  0  0  0
 13 33  1  0  0  0  0
 13 34  1  0  0  0  0
 14 35  1  0  0  0  0
 14 36  1  0  0  0  0
 15 37  1  0  0  0  0
 15 38  1  0  0  0  0
M  END
> <PUBCHEM_COMPOUND_CID>
4277

> <PUBCHEM_CONFORMER_RMSD>
0.8

> <PUBCHEM_CONFORMER_DIVERSEORDER>
1
14
4
18
7
2
19
11
17
8
12
15
3
13
20
10
9
5
16
6

> <PUBCHEM_MMFF94_PARTIAL_CHARGES>
8
1 -0.57
16 0.69
2 -0.73
3 -0.73
39 0.37
4 0.3
40 0.37
5 0.3

> <PUBCHEM_EFFECTIVE_ROTOR_COUNT>
6.4

> <PUBCHEM_PHARMACOPHORE_FEATURES>
5
1 1 acceptor
1 2 donor
1 3 donor
6 4 6 7 10 11 14 rings
6 5 8 9 12 13 15 rings

> <PUBCHEM_HEAVY_ATOM_COUNT>
16

> <PUBCHEM_ATOM_DEF_STEREO_COUNT>
0

> <PUBCHEM_ATOM_UDEF_STEREO_COUNT>
0

> <PUBCHEM_BOND_DEF_STEREO_COUNT>
0

> <PUBCHEM_BOND_UDEF_STEREO_COUNT>
0

> <PUBCHEM_ISOTOPIC_ATOM_COUNT>
0

> <PUBCHEM_COMPONENT_COUNT>
1

> <PUBCHEM_CACTVS_TAUTO_COUNT>
2

> <PUBCHEM_CONFORMER_ID>
000010B500000001

> <PUBCHEM_MMFF94_ENERGY>
6.4889

> <PUBCHEM_FEATURE_SELFOVERLAP>
25.423

> <PUBCHEM_SHAPE_FINGERPRINT>
10498660 4 18260551125489929113
11543360 7 16732707120815071319
12363563 72 7925913681520992558
12670546 177 15719395018471195005
12707595 3 7132428029855714118
12788726 201 17981899535757968778
12892183 10 14836402531935511077
13296908 3 8358258133331061467
13583140 156 15410620224667801199
13675066 3 14764355958788932855
14123260 362 18334852814338771269
1420 369 9871743594352455693
14252887 29 10447925062407603110
14289901 80 14476954567107131150
15239154 128 18409162212248065900
15239191 94 9439403544667496469
1813 80 8646488552458969659
18186145 218 18335133202609634750
18915474 69 6050441543890315916
19050596 39 14620797093663758028
193927 3 9151172086236949133
20112054 13 18131067143060733167
20281475 54 10087642615203137882
20432913 95 11672060839422588157
20645477 70 16370993101793904998
20671657 53 7060367116177480971
21065199 12 14620798205865219300
21503847 285 17632286887697729188
21713013 43 14490197081094682645
21864079 5 18410007749559098272
22079108 93 18410845561025234003
22646028 1 8502654800683727204
22646028 28 8574712399011328116
23402655 69 17385715911673667808
23503953 91 14836408033862509301
235170 7 15864069858029145772
23557571 272 17604429583549491383
23559900 14 17458627865043839614
251288 83 10735871734599949078
27216 239 17917986179534453241
2838139 119 17899984833758566984
3082319 5 16443063906570895023
4028521 119 18113901571902223241
474 4 18411982446725228705
49207404 50 16271922727074211890
5281201 14 17095234804981041212
5924683 9 15195278686915411353
633830 44 18335978752647112167
7808743 9 18057313986577473028
90316 7 14692573255954522655
9882013 296 16128364935432436771

> <PUBCHEM_SHAPE_MULTIPOLES>
313.44
9.96
1.65
1.44
0
0.12
-0.04
4.59
-1.46
0
0.22
0
0.14
0

> <PUBCHEM_SHAPE_SELFOVERLAP>
623.37

> <PUBCHEM_SHAPE_VOLUME>
182.6

> <PUBCHEM_COORDINATE_TYPE>
2
5
10

$$$$

