443150
  -OEChem-07051213012D

 51 51  0     1  0  0  0  0  0999 V2000
    7.7331    1.5406    0.0000 S   0  0  0  0  0  0  0  0  0  0  0  0
    6.8671   -1.9594    0.0000 O   0  0  0  0  0  0  0  0  0  0  0  0
    6.0010   -1.4594    0.0000 O   0  0  0  0  0  0  0  0  0  0  0  0
   10.3312   -4.9594    0.0000 O   0  0  0  0  0  0  0  0  0  0  0  0
    8.5991   -4.9594    0.0000 O   0  0  0  0  0  0  0  0  0  0  0  0
   10.3592    4.3194    0.0000 O   0  0  0  0  0  0  0  0  0  0  0  0
    6.8390    4.3194    0.0000 O   0  0  0  0  0  0  0  0  0  0  0  0
    2.5369   -0.4594    0.0000 O   0  0  0  0  0  0  0  0  0  0  0  0
    3.4030    1.0406    0.0000 O   0  0  0  0  0  0  0  0  0  0  0  0
    7.7331   -0.4594    0.0000 N   0  0  0  0  0  0  0  0  0  0  0  0
    8.5991    4.0406    0.0000 N   0  0  0  0  0  0  0  0  0  0  0  0
    5.1350    0.0406    0.0000 N   0  0  0  0  0  0  0  0  0  0  0  0
   10.3312   -2.9594    0.0000 N   0  0  0  0  0  0  0  0  0  0  0  0
    6.8671    0.0406    0.0000 C   0  0  1  0  0  0  0  0  0  0  0  0
    6.8671    1.0406    0.0000 C   0  0  0  0  0  0  0  0  0  0  0  0
    8.5991   -2.9594    0.0000 C   0  0  0  0  0  0  0  0  0  0  0  0
    8.5991   -1.9594    0.0000 C   0  0  0  0  0  0  0  0  0  0  0  0
    9.4651   -3.4594    0.0000 C   0  0  1  0  0  0  0  0  0  0  0  0
    7.7331   -1.4594    0.0000 C   0  0  0  0  0  0  0  0  0  0  0  0
    7.7331    2.5406    0.0000 C   0  0  0  0  0  0  0  0  0  0  0  0
    6.0010   -0.4594    0.0000 C   0  0  0  0  0  0  0  0  0  0  0  0
    8.5991    3.0406    0.0000 C   0  0  0  0  0  0  0  0  0  0  0  0
    9.4651   -4.4594    0.0000 C   0  0  0  0  0  0  0  0  0  0  0  0
    9.4081    4.6284    0.0000 C   0  0  0  0  0  0  0  0  0  0  0  0
    7.7901    4.6284    0.0000 C   0  0  0  0  0  0  0  0  0  0  0  0
    4.2690   -0.4594    0.0000 C   0  0  0  0  0  0  0  0  0  0  0  0
    9.0991    5.5794    0.0000 C   0  0  0  0  0  0  0  0  0  0  0  0
    8.0991    5.5794    0.0000 C   0  0  0  0  0  0  0  0  0  0  0  0
    3.4030    0.0406    0.0000 C   0  0  0  0  0  0  0  0  0  0  0  0
    7.4040    0.3506    0.0000 H   0  0  0  0  0  0  0  0  0  0  0  0
    6.6550    1.6232    0.0000 H   0  0  0  0  0  0  0  0  0  0  0  0
    6.2565    0.9329    0.0000 H   0  0  0  0  0  0  0  0  0  0  0  0
    7.9885   -2.8518    0.0000 H   0  0  0  0  0  0  0  0  0  0  0  0
    8.3871   -3.5420    0.0000 H   0  0  0  0  0  0  0  0  0  0  0  0
    9.2097   -2.0671    0.0000 H   0  0  0  0  0  0  0  0  0  0  0  0
    8.8112   -1.3768    0.0000 H   0  0  0  0  0  0  0  0  0  0  0  0
    8.2700   -0.1494    0.0000 H   0  0  0  0  0  0  0  0  0  0  0  0
   10.0021   -3.7694    0.0000 H   0  0  0  0  0  0  0  0  0  0  0  0
    7.5210    3.1232    0.0000 H   0  0  0  0  0  0  0  0  0  0  0  0
    7.1225    2.4329    0.0000 H   0  0  0  0  0  0  0  0  0  0  0  0
    8.8112    2.4580    0.0000 H   0  0  0  0  0  0  0  0  0  0  0  0
    9.2097    3.1482    0.0000 H   0  0  0  0  0  0  0  0  0  0  0  0
    5.1350    0.6606    0.0000 H   0  0  0  0  0  0  0  0  0  0  0  0
   10.8681   -3.2694    0.0000 H   0  0  0  0  0  0  0  0  0  0  0  0
   10.3312   -2.3394    0.0000 H   0  0  0  0  0  0  0  0  0  0  0  0
    3.8705   -0.9344    0.0000 H   0  0  0  0  0  0  0  0  0  0  0  0
    4.6675   -0.9344    0.0000 H   0  0  0  0  0  0  0  0  0  0  0  0
    9.4635    6.0810    0.0000 H   0  0  0  0  0  0  0  0  0  0  0  0
    7.7347    6.0810    0.0000 H   0  0  0  0  0  0  0  0  0  0  0  0
   10.3312   -5.5794    0.0000 H   0  0  0  0  0  0  0  0  0  0  0  0
    2.0000   -0.1494    0.0000 H   0  0  0  0  0  0  0  0  0  0  0  0
  1 15  1  0  0  0  0
  1 20  1  0  0  0  0
  2 19  2  0  0  0  0
  3 21  2  0  0  0  0
  4 23  1  0  0  0  0
  4 50  1  0  0  0  0
  5 23  2  0  0  0  0
  6 24  2  0  0  0  0
  7 25  2  0  0  0  0
  8 29  1  0  0  0  0
  8 51  1  0  0  0  0
  9 29  2  0  0  0  0
 14 10  1  6  0  0  0
 10 19  1  0  0  0  0
 10 37  1  0  0  0  0
 11 22  1  0  0  0  0
 11 24  1  0  0  0  0
 11 25  1  0  0  0  0
 12 21  1  0  0  0  0
 12 26  1  0  0  0  0
 12 43  1  0  0  0  0
 18 13  1  6  0  0  0
 13 44  1  0  0  0  0
 13 45  1  0  0  0  0
 14 15  1  0  0  0  0
 14 21  1  0  0  0  0
 14 30  1  0  0  0  0
 15 31  1  0  0  0  0
 15 32  1  0  0  0  0
 16 17  1  0  0  0  0
 16 18  1  0  0  0  0
 16 33  1  0  0  0  0
 16 34  1  0  0  0  0
 17 19  1  0  0  0  0
 17 35  1  0  0  0  0
 17 36  1  0  0  0  0
 18 23  1  0  0  0  0
 18 38  1  0  0  0  0
 20 22  1  0  0  0  0
 20 39  1  0  0  0  0
 20 40  1  0  0  0  0
 22 41  1  0  0  0  0
 22 42  1  0  0  0  0
 24 27  1  0  0  0  0
 25 28  1  0  0  0  0
 26 29  1  0  0  0  0
 26 46  1  0  0  0  0
 26 47  1  0  0  0  0
 27 28  2  0  0  0  0
 27 48  1  0  0  0  0
 28 49  1  0  0  0  0
M  END
> <PUBCHEM_COMPOUND_CID>
443150

> <PUBCHEM_COMPOUND_CANONICALIZED>
1

> <PUBCHEM_CACTVS_COMPLEXITY>
693

> <PUBCHEM_CACTVS_HBOND_ACCEPTOR>
10

> <PUBCHEM_CACTVS_HBOND_DONOR>
5

> <PUBCHEM_CACTVS_ROTATABLE_BOND>
13

> <PUBCHEM_CACTVS_SUBSKEYS>
AAADceB7vABAAAAAAAAAAAAAAAAAAQAAAAAAAAAAAAAAAAAAAAAAHgQQCAAACCjFwASACAPAAgiIACHSGACAAAAAABAICIGIAEACQBIggCAUQAAEFiCwAYCcFwIAAAAAAAAAAAAAAAAAAAAAAAAAAAAAAA==

> <PUBCHEM_IUPAC_OPENEYE_NAME>
(2S)-2-amino-5-[[(1R)-2-(carboxymethylamino)-1-[2-(2,5-dioxopyrrol-1-yl)ethylsulfanylmethyl]-2-oxo-ethyl]amino]-5-oxo-pentanoic acid

> <PUBCHEM_IUPAC_CAS_NAME>
(2S)-2-amino-5-[[(2R)-1-(carboxymethylamino)-3-[2-(2,5-dioxo-1-pyrrolyl)ethylthio]-1-oxopropan-2-yl]amino]-5-oxopentanoic acid

> <PUBCHEM_IUPAC_NAME>
(2S)-2-amino-5-[[(2R)-1-(carboxymethylamino)-3-[2-(2,5-dioxopyrrol-1-yl)ethylsulfanyl]-1-oxopropan-2-yl]amino]-5-oxopentanoic acid

> <PUBCHEM_IUPAC_SYSTEMATIC_NAME>
(2S)-2-azanyl-5-[[(2R)-3-[2-[2,5-bis(oxidanylidene)pyrrol-1-yl]ethylsulfanyl]-1-(2-hydroxy-2-oxoethylamino)-1-oxidanylidene-propan-2-yl]amino]-5-oxidanylidene-pentanoic acid

> <PUBCHEM_IUPAC_TRADITIONAL_NAME>
(2S)-2-amino-5-[[(1R)-2-(carboxymethylamino)-2-keto-1-[(2-maleimidoethylthio)methyl]ethyl]amino]-5-keto-valeric acid

> <PUBCHEM_IUPAC_INCHI>
InChI=1S/C16H22N4O8S/c17-9(16(27)28)1-2-11(21)19-10(15(26)18-7-14(24)25)8-29-6-5-20-12(22)3-4-13(20)23/h3-4,9-10H,1-2,5-8,17H2,(H,18,26)(H,19,21)(H,24,25)(H,27,28)/t9-,10-/m0/s1

> <PUBCHEM_IUPAC_INCHIKEY>
VQDKPBCISILESC-UWVGGRQHSA-N

> <PUBCHEM_XLOGP3_AA>
-4.9

> <PUBCHEM_EXACT_MASS>
430.115835

> <PUBCHEM_MOLECULAR_FORMULA>
C16H22N4O8S

> <PUBCHEM_MOLECULAR_WEIGHT>
430.43288

> <PUBCHEM_OPENEYE_CAN_SMILES>
C1=CC(=O)N(C1=O)CCSCC(C(=O)NCC(=O)O)NC(=O)CCC(C(=O)O)N

> <PUBCHEM_OPENEYE_ISO_SMILES>
C1=CC(=O)N(C1=O)CCSC[C@@H](C(=O)NCC(=O)O)NC(=O)CC[C@@H](C(=O)O)N

> <PUBCHEM_CACTVS_TPSA>
222

> <PUBCHEM_MONOISOTOPIC_WEIGHT>
430.115835

> <PUBCHEM_TOTAL_CHARGE>
0

> <PUBCHEM_HEAVY_ATOM_COUNT>
29

> <PUBCHEM_ATOM_DEF_STEREO_COUNT>
2

> <PUBCHEM_ATOM_UDEF_STEREO_COUNT>
0

> <PUBCHEM_BOND_DEF_STEREO_COUNT>
0

> <PUBCHEM_BOND_UDEF_STEREO_COUNT>
0

> <PUBCHEM_ISOTOPIC_ATOM_COUNT>
0

> <PUBCHEM_COMPONENT_COUNT>
1

> <PUBCHEM_CACTVS_TAUTO_COUNT>
4

> <PUBCHEM_COORDINATE_TYPE>
1
5
255

> <PUBCHEM_BONDANNOTATIONS>
14  10  6
18  13  6

$$$$

