245230
  -OEChem-07051213063D

 53 56  0     1  0  0  0  0  0999 V2000
   -4.0829   -0.9266   -0.6130 O   0  0  0  0  0  0  0  0  0  0  0  0
    5.8873    0.2311   -0.2038 O   0  0  0  0  0  0  0  0  0  0  0  0
    0.1678   -0.5089   -0.2867 C   0  0  2  0  0  0  0  0  0  0  0  0
    1.6648   -0.4208    0.1976 C   0  0  2  0  0  0  0  0  0  0  0  0
   -0.7171    0.6466    0.2835 C   0  0  2  0  0  0  0  0  0  0  0  0
    2.2045    0.9869   -0.2055 C   0  0  1  0  0  0  0  0  0  0  0  0
   -2.1580    0.5365   -0.2872 C   0  0  1  0  0  0  0  0  0  0  0  0
   -2.8120   -0.8266    0.0583 C   0  0  2  0  0  0  0  0  0  0  0  0
   -0.0857    2.0192   -0.0149 C   0  0  0  0  0  0  0  0  0  0  0  0
   -0.4831   -1.8881   -0.0483 C   0  0  0  0  0  0  0  0  0  0  0  0
    1.3773    2.1172    0.4086 C   0  0  0  0  0  0  0  0  0  0  0  0
    2.5394   -1.4853   -0.5264 C   0  0  0  0  0  0  0  0  0  0  0  0
   -1.9328   -1.9450   -0.5292 C   0  0  0  0  0  0  0  0  0  0  0  0
    3.6990    1.1647    0.0909 C   0  0  0  0  0  0  0  0  0  0  0  0
   -3.0980    1.6909    0.0932 C   0  0  0  0  0  0  0  0  0  0  0  0
    1.7645   -0.6659    1.7255 C   0  0  0  0  0  0  0  0  0  0  0  0
    4.0399   -1.3172   -0.2780 C   0  0  0  0  0  0  0  0  0  0  0  0
    4.5292    0.0899   -0.6067 C   0  0  2  0  0  0  0  0  0  0  0  0
   -3.0127   -1.0760    1.5682 C   0  0  0  0  0  0  0  0  0  0  0  0
   -4.4688    1.4840   -0.5471 C   0  0  0  0  0  0  0  0  0  0  0  0
   -5.0223    0.0935   -0.2790 C   0  0  0  0  0  0  0  0  0  0  0  0
    0.1865   -0.3731   -1.3797 H   0  0  0  0  0  0  0  0  0  0  0  0
   -0.7765    0.5519    1.3735 H   0  0  0  0  0  0  0  0  0  0  0  0
    2.0982    1.0794   -1.2979 H   0  0  0  0  0  0  0  0  0  0  0  0
   -2.0728    0.5864   -1.3848 H   0  0  0  0  0  0  0  0  0  0  0  0
   -0.6366    2.8105    0.5054 H   0  0  0  0  0  0  0  0  0  0  0  0
   -0.1615    2.2319   -1.0890 H   0  0  0  0  0  0  0  0  0  0  0  0
   -0.4440   -2.1570    1.0114 H   0  0  0  0  0  0  0  0  0  0  0  0
    0.0732   -2.6647   -0.5843 H   0  0  0  0  0  0  0  0  0  0  0  0
    1.7717    3.0871    0.0813 H   0  0  0  0  0  0  0  0  0  0  0  0
    1.4524    2.1081    1.5019 H   0  0  0  0  0  0  0  0  0  0  0  0
    2.3585   -1.4312   -1.6080 H   0  0  0  0  0  0  0  0  0  0  0  0
    2.2562   -2.4969   -0.2134 H   0  0  0  0  0  0  0  0  0  0  0  0
   -1.9508   -1.8840   -1.6262 H   0  0  0  0  0  0  0  0  0  0  0  0
   -2.3626   -2.9270   -0.2924 H   0  0  0  0  0  0  0  0  0  0  0  0
    4.0368    2.1504   -0.2549 H   0  0  0  0  0  0  0  0  0  0  0  0
    3.8968    1.1606    1.1695 H   0  0  0  0  0  0  0  0  0  0  0  0
   -2.7038    2.6493   -0.2606 H   0  0  0  0  0  0  0  0  0  0  0  0
   -3.1960    1.7701    1.1814 H   0  0  0  0  0  0  0  0  0  0  0  0
    1.1071   -0.0101    2.3015 H   0  0  0  0  0  0  0  0  0  0  0  0
    1.4986   -1.6974    1.9799 H   0  0  0  0  0  0  0  0  0  0  0  0
    2.7765   -0.5067    2.1080 H   0  0  0  0  0  0  0  0  0  0  0  0
    4.2873   -1.5657    0.7614 H   0  0  0  0  0  0  0  0  0  0  0  0
    4.5945   -2.0455   -0.8829 H   0  0  0  0  0  0  0  0  0  0  0  0
    4.4871    0.2495   -1.6910 H   0  0  0  0  0  0  0  0  0  0  0  0
   -3.6046   -0.2908    2.0468 H   0  0  0  0  0  0  0  0  0  0  0  0
   -3.5631   -2.0110    1.7269 H   0  0  0  0  0  0  0  0  0  0  0  0
   -2.0717   -1.1420    2.1200 H   0  0  0  0  0  0  0  0  0  0  0  0
   -5.1720    2.2470   -0.1964 H   0  0  0  0  0  0  0  0  0  0  0  0
   -4.3634    1.6159   -1.6316 H   0  0  0  0  0  0  0  0  0  0  0  0
   -5.3425   -0.0150    0.7621 H   0  0  0  0  0  0  0  0  0  0  0  0
   -5.9129   -0.0689   -0.8954 H   0  0  0  0  0  0  0  0  0  0  0  0
    6.4022   -0.4540   -0.6634 H   0  0  0  0  0  0  0  0  0  0  0  0
  1  8  1  0  0  0  0
  1 21  1  0  0  0  0
  2 18  1  0  0  0  0
  2 53  1  0  0  0  0
  3  4  1  0  0  0  0
  3  5  1  0  0  0  0
  3 10  1  0  0  0  0
  3 22  1  0  0  0  0
  4  6  1  0  0  0  0
  4 12  1  0  0  0  0
  4 16  1  0  0  0  0
  5  7  1  0  0  0  0
  5  9  1  0  0  0  0
  5 23  1  0  0  0  0
  6 11  1  0  0  0  0
  6 14  1  0  0  0  0
  6 24  1  0  0  0  0
  7  8  1  0  0  0  0
  7 15  1  0  0  0  0
  7 25  1  0  0  0  0
  8 13  1  0  0  0  0
  8 19  1  0  0  0  0
  9 11  1  0  0  0  0
  9 26  1  0  0  0  0
  9 27  1  0  0  0  0
 10 13  1  0  0  0  0
 10 28  1  0  0  0  0
 10 29  1  0  0  0  0
 11 30  1  0  0  0  0
 11 31  1  0  0  0  0
 12 17  1  0  0  0  0
 12 32  1  0  0  0  0
 12 33  1  0  0  0  0
 13 34  1  0  0  0  0
 13 35  1  0  0  0  0
 14 18  1  0  0  0  0
 14 36  1  0  0  0  0
 14 37  1  0  0  0  0
 15 20  1  0  0  0  0
 15 38  1  0  0  0  0
 15 39  1  0  0  0  0
 16 40  1  0  0  0  0
 16 41  1  0  0  0  0
 16 42  1  0  0  0  0
 17 18  1  0  0  0  0
 17 43  1  0  0  0  0
 17 44  1  0  0  0  0
 18 45  1  0  0  0  0
 19 46  1  0  0  0  0
 19 47  1  0  0  0  0
 19 48  1  0  0  0  0
 20 21  1  0  0  0  0
 20 49  1  0  0  0  0
 20 50  1  0  0  0  0
 21 51  1  0  0  0  0
 21 52  1  0  0  0  0
M  END
> <PUBCHEM_COMPOUND_CID>
245230

> <PUBCHEM_CONFORMER_RMSD>
0.6

> <PUBCHEM_CONFORMER_DIVERSEORDER>
1

> <PUBCHEM_MMFF94_PARTIAL_CHARGES>
6
1 -0.56
18 0.28
2 -0.68
21 0.28
53 0.4
8 0.28

> <PUBCHEM_EFFECTIVE_ROTOR_COUNT>
2.4

> <PUBCHEM_PHARMACOPHORE_FEATURES>
7
1 1 acceptor
1 2 acceptor
1 2 donor
6 1 7 8 15 20 21 rings
6 3 4 5 6 9 11 rings
6 3 5 7 8 10 13 rings
6 4 6 12 14 17 18 rings

> <PUBCHEM_HEAVY_ATOM_COUNT>
21

> <PUBCHEM_ATOM_DEF_STEREO_COUNT>
7

> <PUBCHEM_ATOM_UDEF_STEREO_COUNT>
0

> <PUBCHEM_BOND_DEF_STEREO_COUNT>
0

> <PUBCHEM_BOND_UDEF_STEREO_COUNT>
0

> <PUBCHEM_ISOTOPIC_ATOM_COUNT>
0

> <PUBCHEM_COMPONENT_COUNT>
1

> <PUBCHEM_CACTVS_TAUTO_COUNT>
1

> <PUBCHEM_CONFORMER_ID>
0003BDEE00000001

> <PUBCHEM_MMFF94_ENERGY>
65.5365

> <PUBCHEM_FEATURE_SELFOVERLAP>
35.569

> <PUBCHEM_SHAPE_FINGERPRINT>
10366900 7 17846504694965978219
10498660 4 18340772636361103109
10967382 1 18409167752734492911
11132069 177 18335708208689061472
11471102 20 18408323280870924612
11578080 2 16662629644176814419
12011746 2 18411141346447872381
12236239 1 17989489628143654542
12403259 415 18187374224842048065
12788726 201 18263930015027447513
13140716 1 18338513165645890337
13221675 6 18412262800710103026
13583140 156 17203324525054474953
14790565 3 18048307035909193313
15099037 51 18408887351837216527
15196674 1 18409730685523856380
15375358 24 18407760343639069822
15536298 74 18333735688960450096
15788980 27 18411698781594577094
1601671 61 18410576214434961964
16752209 62 18336835272521582769
16945 1 18194398888076720553
17349148 13 17530685407335892391
17804303 29 18408322164090062133
1813 80 4895558480970358264
18186145 218 17917719010703370031
19862831 5 18412825789275986421
200 152 17822012012478941677
20645477 70 18260547883005911734
20871999 31 18411139138481195711
21029758 11 18260548930698246329
21267235 1 18409440371504671390
21279426 13 18265895954559777365
21285901 2 18189048866533616500
21421861 104 17773043162234787482
21452121 103 18188221892620363672
221357 26 18335708243328628149
221490 88 18267861688023886648
23175994 123 16950556675573269424
23402539 116 18335144193726162758
23402655 69 18408885152835066452
23493267 7 18131069329178124699
23557571 272 18187357753694961980
23559900 14 18187653466140593040
2748010 2 18410860949360376565
3004659 81 18270960258748684638
335352 9 18409449214990046780
34934 24 18410860962461387382
350125 39 18409164437853709873
3545911 37 18410291415063698573
4214541 1 18409729569027778589
4340502 62 16558460980547871777
474 4 17489299725458458244
4921388 177 16486681485942955779
495365 180 17241061928577256850
5104073 3 18410575101922096266
633830 44 17774442681480451612
7364860 26 18188776020288894032
9709674 26 18339644413172176915

> <PUBCHEM_SHAPE_MULTIPOLES>
420.43
9.77
2.14
0.98
2.3
0.26
0.39
0.64
-1.63
-0.43
-0.04
-0.12
-0.25
0.33

> <PUBCHEM_SHAPE_SELFOVERLAP>
884.131

> <PUBCHEM_SHAPE_VOLUME>
232.9

> <PUBCHEM_COORDINATE_TYPE>
2
5
10

$$$$

