38
  -OEChem-07051212452D

 20 19  0     0  0  0  0  0  0999 V2000
    2.5369   -0.2500    0.0000 O   0  0  0  0  0  0  0  0  0  0  0  0
    5.1350    1.2500    0.0000 O   0  0  0  0  0  0  0  0  0  0  0  0
    6.8671    0.2500    0.0000 O   0  0  0  0  0  0  0  0  0  0  0  0
    6.0010   -1.2500    0.0000 O   0  0  0  0  0  0  0  0  0  0  0  0
    4.2690   -0.2500    0.0000 C   0  0  0  0  0  0  0  0  0  0  0  0
    3.4030   -0.7500    0.0000 C   0  0  0  0  0  0  0  0  0  0  0  0
    3.7690    0.6160    0.0000 C   0  0  0  0  0  0  0  0  0  0  0  0
    4.7690   -1.1160    0.0000 C   0  0  0  0  0  0  0  0  0  0  0  0
    5.1350    0.2500    0.0000 C   0  0  0  0  0  0  0  0  0  0  0  0
    6.0010   -0.2500    0.0000 C   0  0  0  0  0  0  0  0  0  0  0  0
    3.0044   -1.2250    0.0000 H   0  0  0  0  0  0  0  0  0  0  0  0
    3.8015   -1.2250    0.0000 H   0  0  0  0  0  0  0  0  0  0  0  0
    4.3059    0.9260    0.0000 H   0  0  0  0  0  0  0  0  0  0  0  0
    3.4590    1.1530    0.0000 H   0  0  0  0  0  0  0  0  0  0  0  0
    3.2320    0.3060    0.0000 H   0  0  0  0  0  0  0  0  0  0  0  0
    4.2320   -1.4260    0.0000 H   0  0  0  0  0  0  0  0  0  0  0  0
    5.0790   -1.6530    0.0000 H   0  0  0  0  0  0  0  0  0  0  0  0
    5.3059   -0.8060    0.0000 H   0  0  0  0  0  0  0  0  0  0  0  0
    2.0000   -0.5600    0.0000 H   0  0  0  0  0  0  0  0  0  0  0  0
    7.4040   -0.0600    0.0000 H   0  0  0  0  0  0  0  0  0  0  0  0
  1  6  1  0  0  0  0
  1 19  1  0  0  0  0
  2  9  2  0  0  0  0
  3 10  1  0  0  0  0
  3 20  1  0  0  0  0
  4 10  2  0  0  0  0
  5  6  1  0  0  0  0
  5  7  1  0  0  0  0
  5  8  1  0  0  0  0
  5  9  1  0  0  0  0
  6 11  1  0  0  0  0
  6 12  1  0  0  0  0
  7 13  1  0  0  0  0
  7 14  1  0  0  0  0
  7 15  1  0  0  0  0
  8 16  1  0  0  0  0
  8 17  1  0  0  0  0
  8 18  1  0  0  0  0
  9 10  1  0  0  0  0
M  END
> <PUBCHEM_COMPOUND_CID>
38

> <PUBCHEM_COMPOUND_CANONICALIZED>
1

> <PUBCHEM_CACTVS_COMPLEXITY>
159

> <PUBCHEM_CACTVS_HBOND_ACCEPTOR>
4

> <PUBCHEM_CACTVS_HBOND_DONOR>
2

> <PUBCHEM_CACTVS_ROTATABLE_BOND>
3

> <PUBCHEM_CACTVS_SUBSKEYS>
AAADccBgOAAAAAAAAAAAAAAAAAAAAAAAAAAAAAAAAAAAAAAAAAAAGgAACAAADgSggAICCAAAAgAIAICQCAIAAAAAAAAAAAFAAAAAEBQAAAAAQAAEIAAAAABCAAAJAAAAAAAAAAAAAAAAAAAAAAAAAAAAAA==

> <PUBCHEM_IUPAC_OPENEYE_NAME>
4-hydroxy-3,3-dimethyl-2-oxo-butanoic acid

> <PUBCHEM_IUPAC_CAS_NAME>
4-hydroxy-3,3-dimethyl-2-oxobutanoic acid

> <PUBCHEM_IUPAC_NAME>
4-hydroxy-3,3-dimethyl-2-oxobutanoic acid

> <PUBCHEM_IUPAC_SYSTEMATIC_NAME>
3,3-dimethyl-4-oxidanyl-2-oxidanylidene-butanoic acid

> <PUBCHEM_IUPAC_TRADITIONAL_NAME>
4-hydroxy-2-keto-3,3-dimethyl-butyric acid

> <PUBCHEM_IUPAC_INCHI>
InChI=1S/C6H10O4/c1-6(2,3-7)4(8)5(9)10/h7H,3H2,1-2H3,(H,9,10)

> <PUBCHEM_IUPAC_INCHIKEY>
PKVVTUWHANFMQC-UHFFFAOYSA-N

> <PUBCHEM_XLOGP3_AA>
-0.1

> <PUBCHEM_EXACT_MASS>
146.057909

> <PUBCHEM_MOLECULAR_FORMULA>
C6H10O4

> <PUBCHEM_MOLECULAR_WEIGHT>
146.1412

> <PUBCHEM_OPENEYE_CAN_SMILES>
CC(C)(CO)C(=O)C(=O)O

> <PUBCHEM_OPENEYE_ISO_SMILES>
CC(C)(CO)C(=O)C(=O)O

> <PUBCHEM_CACTVS_TPSA>
74.6

> <PUBCHEM_MONOISOTOPIC_WEIGHT>
146.057909

> <PUBCHEM_TOTAL_CHARGE>
0

> <PUBCHEM_HEAVY_ATOM_COUNT>
10

> <PUBCHEM_ATOM_DEF_STEREO_COUNT>
0

> <PUBCHEM_ATOM_UDEF_STEREO_COUNT>
0

> <PUBCHEM_BOND_DEF_STEREO_COUNT>
0

> <PUBCHEM_BOND_UDEF_STEREO_COUNT>
0

> <PUBCHEM_ISOTOPIC_ATOM_COUNT>
0

> <PUBCHEM_COMPONENT_COUNT>
1

> <PUBCHEM_CACTVS_TAUTO_COUNT>
1

> <PUBCHEM_COORDINATE_TYPE>
1
5
255

$$$$

