656583
  -OEChem-07051213033D

 51 55  0     1  0  0  0  0  0999 V2000
    2.0073   -1.6633    1.2595 O   0  0  0  0  0  0  0  0  0  0  0  0
   -5.6032    1.5755    0.2665 O   0  0  0  0  0  0  0  0  0  0  0  0
    5.3111   -0.8375   -0.0879 O   0  0  0  0  0  0  0  0  0  0  0  0
    5.2777    2.6830    0.0492 N   0  0  0  0  0  0  0  0  0  0  0  0
    1.1254    0.0882   -0.3107 C   0  0  1  0  0  0  0  0  0  0  0  0
    1.5501   -1.3659   -0.0710 C   0  0  1  0  0  0  0  0  0  0  0  0
   -0.3356    0.2536    0.2440 C   0  0  2  0  0  0  0  0  0  0  0  0
   -1.3075   -0.8314   -0.3328 C   0  0  2  0  0  0  0  0  0  0  0  0
   -2.6907   -0.6241    0.2924 C   0  0  1  0  0  0  0  0  0  0  0  0
   -3.2773    0.7688   -0.0108 C   0  0  2  0  0  0  0  0  0  0  0  0
    3.0094   -1.6586    0.2251 C   0  0  1  0  0  0  0  0  0  0  0  0
    0.6419   -2.4364   -0.6046 C   0  0  0  0  0  0  0  0  0  0  0  0
   -0.7739   -2.2491   -0.0633 C   0  0  0  0  0  0  0  0  0  0  0  0
   -0.9091    1.6874    0.1022 C   0  0  0  0  0  0  0  0  0  0  0  0
   -2.3541    1.8221    0.6160 C   0  0  0  0  0  0  0  0  0  0  0  0
    2.1050    1.0685    0.4194 C   0  0  0  0  0  0  0  0  0  0  0  0
   -3.8242   -1.5767   -0.0779 C   0  0  0  0  0  0  0  0  0  0  0  0
   -4.6469    0.6187    0.6804 C   0  0  2  0  0  0  0  0  0  0  0  0
    1.2043    0.3900   -1.8302 C   0  0  0  0  0  0  0  0  0  0  0  0
   -5.0996   -0.8065    0.3097 C   0  0  0  0  0  0  0  0  0  0  0  0
    3.9695   -0.5416    0.1079 C   0  0  0  0  0  0  0  0  0  0  0  0
   -3.4657    1.0771   -1.5179 C   0  0  0  0  0  0  0  0  0  0  0  0
    3.5729    0.7448    0.2123 C   0  0  0  0  0  0  0  0  0  0  0  0
    4.5131    1.8136    0.1225 C   0  0  0  0  0  0  0  0  0  0  0  0
   -0.2779    0.0633    1.3279 H   0  0  0  0  0  0  0  0  0  0  0  0
   -1.3878   -0.7155   -1.4187 H   0  0  0  0  0  0  0  0  0  0  0  0
   -2.5617   -0.7168    1.3841 H   0  0  0  0  0  0  0  0  0  0  0  0
    3.3930   -2.6251   -0.0836 H   0  0  0  0  0  0  0  0  0  0  0  0
    1.0037   -3.4330   -0.3234 H   0  0  0  0  0  0  0  0  0  0  0  0
    0.6344   -2.4082   -1.6998 H   0  0  0  0  0  0  0  0  0  0  0  0
   -1.4308   -2.9961   -0.5234 H   0  0  0  0  0  0  0  0  0  0  0  0
   -0.7772   -2.4432    1.0171 H   0  0  0  0  0  0  0  0  0  0  0  0
   -0.8698    2.0110   -0.9425 H   0  0  0  0  0  0  0  0  0  0  0  0
   -0.2889    2.3934    0.6657 H   0  0  0  0  0  0  0  0  0  0  0  0
   -2.3460    1.7123    1.7083 H   0  0  0  0  0  0  0  0  0  0  0  0
   -2.7257    2.8333    0.4111 H   0  0  0  0  0  0  0  0  0  0  0  0
    1.9116    1.0618    1.5009 H   0  0  0  0  0  0  0  0  0  0  0  0
    1.9108    2.0938    0.0786 H   0  0  0  0  0  0  0  0  0  0  0  0
   -3.7545   -2.5273    0.4605 H   0  0  0  0  0  0  0  0  0  0  0  0
   -3.8251   -1.8017   -1.1502 H   0  0  0  0  0  0  0  0  0  0  0  0
   -4.5442    0.6986    1.7695 H   0  0  0  0  0  0  0  0  0  0  0  0
    2.1934    0.1465   -2.2346 H   0  0  0  0  0  0  0  0  0  0  0  0
    0.4842   -0.1920   -2.4116 H   0  0  0  0  0  0  0  0  0  0  0  0
    1.0187    1.4479   -2.0420 H   0  0  0  0  0  0  0  0  0  0  0  0
   -5.8245   -0.8206   -0.5118 H   0  0  0  0  0  0  0  0  0  0  0  0
   -5.5892   -1.2772    1.1700 H   0  0  0  0  0  0  0  0  0  0  0  0
   -2.5278    1.0330   -2.0779 H   0  0  0  0  0  0  0  0  0  0  0  0
   -4.1564    0.3818   -2.0053 H   0  0  0  0  0  0  0  0  0  0  0  0
   -3.8685    2.0869   -1.6587 H   0  0  0  0  0  0  0  0  0  0  0  0
   -5.8621    1.3862   -0.6505 H   0  0  0  0  0  0  0  0  0  0  0  0
    5.4008   -1.8056   -0.1099 H   0  0  0  0  0  0  0  0  0  0  0  0
  1  6  1  0  0  0  0
  1 11  1  0  0  0  0
  2 18  1  0  0  0  0
  2 50  1  0  0  0  0
  3 21  1  0  0  0  0
  3 51  1  0  0  0  0
  4 24  3  0  0  0  0
  5  6  1  0  0  0  0
  5  7  1  0  0  0  0
  5 16  1  0  0  0  0
  5 19  1  0  0  0  0
  6 11  1  0  0  0  0
  6 12  1  0  0  0  0
  7  8  1  0  0  0  0
  7 14  1  0  0  0  0
  7 25  1  0  0  0  0
  8  9  1  0  0  0  0
  8 13  1  0  0  0  0
  8 26  1  0  0  0  0
  9 10  1  0  0  0  0
  9 17  1  0  0  0  0
  9 27  1  0  0  0  0
 10 15  1  0  0  0  0
 10 18  1  0  0  0  0
 10 22  1  0  0  0  0
 11 21  1  0  0  0  0
 11 28  1  0  0  0  0
 12 13  1  0  0  0  0
 12 29  1  0  0  0  0
 12 30  1  0  0  0  0
 13 31  1  0  0  0  0
 13 32  1  0  0  0  0
 14 15  1  0  0  0  0
 14 33  1  0  0  0  0
 14 34  1  0  0  0  0
 15 35  1  0  0  0  0
 15 36  1  0  0  0  0
 16 23  1  0  0  0  0
 16 37  1  0  0  0  0
 16 38  1  0  0  0  0
 17 20  1  0  0  0  0
 17 39  1  0  0  0  0
 17 40  1  0  0  0  0
 18 20  1  0  0  0  0
 18 41  1  0  0  0  0
 19 42  1  0  0  0  0
 19 43  1  0  0  0  0
 19 44  1  0  0  0  0
 20 45  1  0  0  0  0
 20 46  1  0  0  0  0
 21 23  2  0  0  0  0
 22 47  1  0  0  0  0
 22 48  1  0  0  0  0
 22 49  1  0  0  0  0
 23 24  1  0  0  0  0
M  END
> <PUBCHEM_COMPOUND_CID>
656583

> <PUBCHEM_CONFORMER_RMSD>
0.6

> <PUBCHEM_CONFORMER_DIVERSEORDER>
1

> <PUBCHEM_MMFF94_PARTIAL_CHARGES>
16
1 -0.3
11 0.09
12 0.09
16 0.14
18 0.28
2 -0.68
21 0.04
23 -0.07
24 0.49
28 0.1
3 -0.53
4 -0.56
5 0.09
50 0.4
51 0.45
6 -0.04

> <PUBCHEM_EFFECTIVE_ROTOR_COUNT>
1.8

> <PUBCHEM_PHARMACOPHORE_FEATURES>
9
1 1 acceptor
1 2 acceptor
1 2 donor
1 3 donor
1 4 acceptor
5 9 10 17 18 20 rings
6 5 6 7 8 12 13 rings
6 7 8 9 10 14 15 rings
7 1 5 6 11 16 21 23 rings

> <PUBCHEM_HEAVY_ATOM_COUNT>
24

> <PUBCHEM_ATOM_DEF_STEREO_COUNT>
8

> <PUBCHEM_ATOM_UDEF_STEREO_COUNT>
0

> <PUBCHEM_BOND_DEF_STEREO_COUNT>
0

> <PUBCHEM_BOND_UDEF_STEREO_COUNT>
0

> <PUBCHEM_ISOTOPIC_ATOM_COUNT>
0

> <PUBCHEM_COMPONENT_COUNT>
1

> <PUBCHEM_CACTVS_TAUTO_COUNT>
3

> <PUBCHEM_CONFORMER_ID>
000A04C700000001

> <PUBCHEM_MMFF94_ENERGY>
75.8526

> <PUBCHEM_FEATURE_SELFOVERLAP>
45.771

> <PUBCHEM_SHAPE_FINGERPRINT>
10366900 7 14996002155598689471
10411042 1 17544473510598022990
10498660 4 18409729568816729964
10948715 1 18409448064170991002
1100329 8 18050004398568327848
11578080 2 16228032272236561082
12011746 2 18410008879520255262
12107183 9 17689998255267807096
12236239 1 18201997746254463362
12403259 415 18272373104544814965
12403814 3 17989204867917817933
12507560 40 18272655648920636476
12788726 201 17385994104984616041
13140716 1 18340766048203180395
13224815 77 18409165541227346527
13533116 47 17346042284763281802
13583140 156 16558210231756737701
13675066 3 18060696208676575529
14223421 5 18338516472844535045
14341114 176 18411412903965327209
14341114 328 18187362121170462129
14787075 74 18337676317233480915
14790565 3 18335697226131066776
15196674 1 18409448072401982699
15788980 27 17561362898521590813
16945 1 18050570939029648751
17349148 13 17489584567156564160
17492 89 18339643451153159763
17980427 23 17845651439393467869
1813 80 16773795900388745940
200 152 18187373146973775775
20511986 3 18342188756267257629
20715895 44 17982740972081478341
21033648 29 18271260381619098853
21267235 1 18410003364661096626
21304253 335 18343295963912172844
21756936 100 18042694905791794268
23227448 37 18263927635778348388
23402539 116 18186807980347711967
23557571 272 18113614565266319087
23559900 14 18262237854042666998
296302 2 18334574646644913227
335352 9 18409166636755373622
34797466 226 17677038058308276900
34934 24 18408887308618543969
350125 39 18410855486647149256
3545911 37 18341328980854977751
474 4 18335419105539183843
474229 33 18336547127165307671
5104073 3 18413671309422779779
542803 24 17312818286351578761
5486654 2 18263077738717275565
6034566 193 16482168931699748380
633830 44 18113897207962035429
7808743 9 18265055726298061456
9709674 26 18409442626515937199
9999458 23 18344144809154845358

> <PUBCHEM_SHAPE_MULTIPOLES>
471.32
10.88
2.49
0.99
0.21
0.12
-0.34
-4.1
1.2
-1.12
0.09
0.2
-0.08
-0.05

> <PUBCHEM_SHAPE_SELFOVERLAP>
1025.674

> <PUBCHEM_SHAPE_VOLUME>
252.5

> <PUBCHEM_COORDINATE_TYPE>
2
5
10

$$$$

