92421
  -OEChem-07051213123D

 34 35  0     0  0  0  0  0  0999 V2000
   -3.2794   -1.4532   -0.7534 O   0  0  0  0  0  0  0  0  0  0  0  0
   -1.2544   -2.6741   -0.2525 O   0  0  0  0  0  0  0  0  0  0  0  0
   -1.2743    2.0467    0.3729 O   0  0  0  0  0  0  0  0  0  0  0  0
    3.6430    0.4347   -0.4706 O   0  0  0  0  0  0  0  0  0  0  0  0
    3.3376   -0.9660    1.3410 O   0  0  0  0  0  0  0  0  0  0  0  0
   -3.4639    0.9846   -0.4770 C   0  0  0  0  0  0  0  0  0  0  0  0
   -4.1131    1.4584    0.7748 C   0  0  0  0  0  0  0  0  0  0  0  0
   -4.9397    0.8675   -0.3294 C   0  0  0  0  0  0  0  0  0  0  0  0
   -2.6606   -0.2569   -0.4138 C   0  0  0  0  0  0  0  0  0  0  0  0
   -1.3718   -0.2996   -0.0497 C   0  0  0  0  0  0  0  0  0  0  0  0
    1.4678   -0.2927   -0.0164 C   0  0  0  0  0  0  0  0  0  0  0  0
    0.7966   -1.6106    0.3510 C   0  0  0  0  0  0  0  0  0  0  0  0
    0.7870    0.8805    0.6782 C   0  0  0  0  0  0  0  0  0  0  0  0
   -0.6683   -1.6170   -0.0255 C   0  0  0  0  0  0  0  0  0  0  0  0
   -0.6790    0.9721    0.3167 C   0  0  0  0  0  0  0  0  0  0  0  0
    2.9098   -0.3328    0.3853 C   0  0  0  0  0  0  0  0  0  0  0  0
    5.0474    0.4865   -0.2006 C   0  0  0  0  0  0  0  0  0  0  0  0
    5.7152    1.3720   -1.2310 C   0  0  0  0  0  0  0  0  0  0  0  0
   -3.1372    1.7092   -1.2163 H   0  0  0  0  0  0  0  0  0  0  0  0
   -4.1819    2.5275    0.9370 H   0  0  0  0  0  0  0  0  0  0  0  0
   -4.0026    0.8793    1.6840 H   0  0  0  0  0  0  0  0  0  0  0  0
   -5.4183   -0.0801   -0.1149 H   0  0  0  0  0  0  0  0  0  0  0  0
   -5.5602    1.5439   -0.9065 H   0  0  0  0  0  0  0  0  0  0  0  0
    1.4059   -0.1714   -1.1068 H   0  0  0  0  0  0  0  0  0  0  0  0
    0.8642   -1.8167    1.4261 H   0  0  0  0  0  0  0  0  0  0  0  0
    1.2893   -2.4340   -0.1803 H   0  0  0  0  0  0  0  0  0  0  0  0
    1.2699    1.8175    0.3752 H   0  0  0  0  0  0  0  0  0  0  0  0
    0.8662    0.8020    1.7691 H   0  0  0  0  0  0  0  0  0  0  0  0
   -4.0701   -1.2486   -1.2795 H   0  0  0  0  0  0  0  0  0  0  0  0
    5.2115    0.8965    0.8021 H   0  0  0  0  0  0  0  0  0  0  0  0
    5.4669   -0.5244   -0.2535 H   0  0  0  0  0  0  0  0  0  0  0  0
    6.7926    1.4342   -1.0540 H   0  0  0  0  0  0  0  0  0  0  0  0
    5.5445    0.9844   -2.2409 H   0  0  0  0  0  0  0  0  0  0  0  0
    5.2932    2.3819   -1.2026 H   0  0  0  0  0  0  0  0  0  0  0  0
  1  9  1  0  0  0  0
  1 29  1  0  0  0  0
  2 14  2  0  0  0  0
  3 15  2  0  0  0  0
  4 16  1  0  0  0  0
  4 17  1  0  0  0  0
  5 16  2  0  0  0  0
  6  7  1  0  0  0  0
  6  8  1  0  0  0  0
  6  9  1  0  0  0  0
  6 19  1  0  0  0  0
  7  8  1  0  0  0  0
  7 20  1  0  0  0  0
  7 21  1  0  0  0  0
  8 22  1  0  0  0  0
  8 23  1  0  0  0  0
  9 10  2  0  0  0  0
 10 14  1  0  0  0  0
 10 15  1  0  0  0  0
 11 12  1  0  0  0  0
 11 13  1  0  0  0  0
 11 16  1  0  0  0  0
 11 24  1  0  0  0  0
 12 14  1  0  0  0  0
 12 25  1  0  0  0  0
 12 26  1  0  0  0  0
 13 15  1  0  0  0  0
 13 27  1  0  0  0  0
 13 28  1  0  0  0  0
 17 18  1  0  0  0  0
 17 30  1  0  0  0  0
 17 31  1  0  0  0  0
 18 32  1  0  0  0  0
 18 33  1  0  0  0  0
 18 34  1  0  0  0  0
M  END
> <PUBCHEM_COMPOUND_CID>
92421

> <PUBCHEM_CONFORMER_RMSD>
0.8

> <PUBCHEM_CONFORMER_DIVERSEORDER>
1
5
11
14
9
6
15
4
12
8
2
13
3
7
10

> <PUBCHEM_MMFF94_PARTIAL_CHARGES>
23
1 -0.53
10 0.03
11 0.06
12 0.06
13 0.06
14 0.49
15 0.49
16 0.66
17 0.28
19 0.1
2 -0.57
20 0.1
21 0.1
22 0.1
23 0.1
29 0.45
3 -0.57
4 -0.43
5 -0.57
6 -0.06
7 -0.2
8 -0.2
9 0.04

> <PUBCHEM_EFFECTIVE_ROTOR_COUNT>
5.2

> <PUBCHEM_PHARMACOPHORE_FEATURES>
6
1 1 donor
1 10 anion
1 2 acceptor
1 3 acceptor
1 5 acceptor
6 10 11 12 13 14 15 rings

> <PUBCHEM_HEAVY_ATOM_COUNT>
18

> <PUBCHEM_ATOM_DEF_STEREO_COUNT>
0

> <PUBCHEM_ATOM_UDEF_STEREO_COUNT>
0

> <PUBCHEM_BOND_DEF_STEREO_COUNT>
0

> <PUBCHEM_BOND_UDEF_STEREO_COUNT>
0

> <PUBCHEM_ISOTOPIC_ATOM_COUNT>
0

> <PUBCHEM_COMPONENT_COUNT>
1

> <PUBCHEM_CACTVS_TAUTO_COUNT>
13

> <PUBCHEM_CONFORMER_ID>
0001690500000001

> <PUBCHEM_MMFF94_ENERGY>
39.6342

> <PUBCHEM_FEATURE_SELFOVERLAP>
30.446

> <PUBCHEM_SHAPE_FINGERPRINT>
10759866 29 18272373109208930346
11132069 177 18261121815185070075
12236239 1 18202846564904425692
12390115 104 18114729521606761913
12403814 3 17703798037125140141
12788726 201 18114739451265663216
13583140 156 17275098418995559321
13675066 3 12031799050104570816
13760787 19 18343305859601341898
13760787 5 18202010957383987790
14790565 3 18336255859727264953
14911166 2 18259987071724377904
15048467 5 18201720660602753109
15196674 1 18410014350918427387
15242433 33 18411701002002978854
15415430 112 18336828602294836758
16945 1 18334303084141654451
17959699 21 18270396093103338188
18186145 218 18260842487433836913
18785283 64 14332258790137832566
19026448 4 15719406005092301811
19784866 240 5328471388903280292
200 152 7060377011428339204
204376 136 18341894125478905491
20645476 183 18201719509662215838
20645477 56 18412542102728838996
20871999 31 18336829680289722534
21267235 1 18260829251251745095
22079108 93 16486967371730032600
22620623 9 17531818930504328463
23379529 103 16810126878654617415
23402539 116 18334581235098436844
23402655 69 18335420175355331564
23557571 272 18114173086696917382
23559900 14 18187366520029122544
2748010 2 17974584502045582059
293599 30 18409727382852527493
296302 2 17988924487234607915
3004659 81 18337389444242592878
3472631 163 18342448206657287588
350125 39 18339079294697958577
3759504 43 18131628967638232331
4340502 62 16702295780426775761
474 4 17417806185396895860
5104073 3 18413395332294559794
633830 44 18200877378228996998

> <PUBCHEM_SHAPE_MULTIPOLES>
341.08
10.28
2.02
0.92
7.96
0.76
-0.03
-5.32
2.47
-0.8
0.05
0.44
-0.09
-1.21

> <PUBCHEM_SHAPE_SELFOVERLAP>
710.676

> <PUBCHEM_SHAPE_VOLUME>
191.7

> <PUBCHEM_COORDINATE_TYPE>
2
5
10

$$$$

