586054
  -OEChem-06241222452D

 22 23  0     0  0  0  0  0  0999 V2000
    2.8660    2.6739    0.0000 O   0  0  0  0  0  0  0  0  0  0  0  0
    2.3660   -1.8649    0.0000 O   0  0  0  0  0  0  0  0  0  0  0  0
    3.9538   -2.6739    0.0000 O   0  5  0  0  0  0  0  0  0  0  0  0
    2.8660    0.6739    0.0000 N   0  0  0  0  0  0  0  0  0  0  0  0
    2.0570   -0.9139    0.0000 N   0  0  0  0  0  0  0  0  0  0  0  0
    3.3660   -1.8649    0.0000 N   0  3  0  0  0  0  0  0  0  0  0  0
    5.5772   -0.2958    0.0000 N   0  0  0  0  0  0  0  0  0  0  0  0
    3.7320    1.1739    0.0000 C   0  0  0  0  0  0  0  0  0  0  0  0
    2.0000    1.1739    0.0000 C   0  0  0  0  0  0  0  0  0  0  0  0
    3.7320    2.1739    0.0000 C   0  0  0  0  0  0  0  0  0  0  0  0
    2.0000    2.1739    0.0000 C   0  0  0  0  0  0  0  0  0  0  0  0
    2.8660   -0.3261    0.0000 C   0  0  0  0  0  0  0  0  0  0  0  0
    3.6750   -0.9139    0.0000 C   0  0  0  0  0  0  0  0  0  0  0  0
    4.6261   -0.6048    0.0000 C   0  0  0  0  0  0  0  0  0  0  0  0
    3.9441    0.5913    0.0000 H   0  0  0  0  0  0  0  0  0  0  0  0
    4.3426    1.2816    0.0000 H   0  0  0  0  0  0  0  0  0  0  0  0
    1.3894    1.2816    0.0000 H   0  0  0  0  0  0  0  0  0  0  0  0
    1.7880    0.5913    0.0000 H   0  0  0  0  0  0  0  0  0  0  0  0
    4.3426    2.0663    0.0000 H   0  0  0  0  0  0  0  0  0  0  0  0
    3.9441    2.7565    0.0000 H   0  0  0  0  0  0  0  0  0  0  0  0
    1.7880    2.7565    0.0000 H   0  0  0  0  0  0  0  0  0  0  0  0
    1.3894    2.0663    0.0000 H   0  0  0  0  0  0  0  0  0  0  0  0
  1 10  1  0  0  0  0
  1 11  1  0  0  0  0
  2  5  1  0  0  0  0
  2  6  1  0  0  0  0
  3  6  1  0  0  0  0
  4  8  1  0  0  0  0
  4  9  1  0  0  0  0
  4 12  1  0  0  0  0
  5 12  2  0  0  0  0
  6 13  2  0  0  0  0
  7 14  3  0  0  0  0
  8 10  1  0  0  0  0
  8 15  1  0  0  0  0
  8 16  1  0  0  0  0
  9 11  1  0  0  0  0
  9 17  1  0  0  0  0
  9 18  1  0  0  0  0
 10 19  1  0  0  0  0
 10 20  1  0  0  0  0
 11 21  1  0  0  0  0
 11 22  1  0  0  0  0
 12 13  1  0  0  0  0
 13 14  1  0  0  0  0
M  CHG  2   3  -1   6   1
M  END
> <PUBCHEM_COMPOUND_CID>
586054

> <PUBCHEM_COMPOUND_CANONICALIZED>
1

> <PUBCHEM_CACTVS_COMPLEXITY>
247

> <PUBCHEM_CACTVS_HBOND_ACCEPTOR>
6

> <PUBCHEM_CACTVS_HBOND_DONOR>
0

> <PUBCHEM_CACTVS_ROTATABLE_BOND>
1

> <PUBCHEM_CACTVS_SUBSKEYS>
AAADccBjsAAAAAAAAAAAAAAAAAAAAWAAAAAsAAAAAAAAAAABgAAAHgAEAAAACAjhlgYBsBMQZACxBQZgYwAgAAQBEAAhEAAoUAKCwABACAAXAAAAAILQAAAAAAAAAAAAAAAAAAAAAAAAAAAAAAAAAAAAAA==

> <PUBCHEM_IUPAC_OPENEYE_NAME>
4-morpholino-2-oxido-1,2,5-oxadiazol-2-ium-3-carbonitrile

> <PUBCHEM_IUPAC_CAS_NAME>
4-(4-morpholinyl)-2-oxido-1,2,5-oxadiazol-2-ium-3-carbonitrile

> <PUBCHEM_IUPAC_NAME>
4-morpholin-4-yl-2-oxido-1,2,5-oxadiazol-2-ium-3-carbonitrile

> <PUBCHEM_IUPAC_SYSTEMATIC_NAME>
4-morpholin-4-yl-2-oxidanidyl-1,2,5-oxadiazol-2-ium-3-carbonitrile

> <PUBCHEM_IUPAC_TRADITIONAL_NAME>
4-morpholino-2-oxido-furazan-2-ium-3-carbonitrile

> <PUBCHEM_IUPAC_INCHI>
InChI=1S/C7H8N4O3/c8-5-6-7(9-14-11(6)12)10-1-3-13-4-2-10/h1-4H2

> <PUBCHEM_IUPAC_INCHIKEY>
BYNXSOQINVWMKX-UHFFFAOYSA-N

> <PUBCHEM_XLOGP3_AA>
0.1

> <PUBCHEM_EXACT_MASS>
196.05964

> <PUBCHEM_MOLECULAR_FORMULA>
C7H8N4O3

> <PUBCHEM_MOLECULAR_WEIGHT>
196.16342

> <PUBCHEM_OPENEYE_CAN_SMILES>
C1COCCN1C2=NO[N+](=C2C#N)[O-]

> <PUBCHEM_OPENEYE_ISO_SMILES>
C1COCCN1C2=NO[N+](=C2C#N)[O-]

> <PUBCHEM_CACTVS_TPSA>
87.8

> <PUBCHEM_MONOISOTOPIC_WEIGHT>
196.05964

> <PUBCHEM_TOTAL_CHARGE>
0

> <PUBCHEM_HEAVY_ATOM_COUNT>
14

> <PUBCHEM_ATOM_DEF_STEREO_COUNT>
0

> <PUBCHEM_ATOM_UDEF_STEREO_COUNT>
0

> <PUBCHEM_BOND_DEF_STEREO_COUNT>
0

> <PUBCHEM_BOND_UDEF_STEREO_COUNT>
0

> <PUBCHEM_ISOTOPIC_ATOM_COUNT>
0

> <PUBCHEM_COMPONENT_COUNT>
1

> <PUBCHEM_CACTVS_TAUTO_COUNT>
1

> <PUBCHEM_COORDINATE_TYPE>
1
5
255

> <PUBCHEM_BONDANNOTATIONS>
12  13  8
2  5  8
2  6  8
5  12  8
6  13  8

$$$$

