14556935
  -OEChem-07051212492D

123122  0     1  0  0  0  0  0999 V2000
    3.4030   -6.5670    0.0000 P   0  0  0  0  0  0  0  0  0  0  0  0
    6.8671   -6.5670    0.0000 O   0  0  0  0  0  0  0  0  0  0  0  0
    6.8671   -4.5670    0.0000 O   0  0  0  0  0  0  0  0  0  0  0  0
    4.2690   -6.0670    0.0000 O   0  0  0  0  0  0  0  0  0  0  0  0
    2.5369   -7.0670    0.0000 O   0  0  0  0  0  0  0  0  0  0  0  0
    2.9030   -5.7010    0.0000 O   0  0  0  0  0  0  0  0  0  0  0  0
    3.9030   -7.4330    0.0000 O   0  0  0  0  0  0  0  0  0  0  0  0
   13.7953   -6.5670    0.0000 C   0  0  0  0  0  0  0  0  0  0  0  0
   10.3312    1.4330    0.0000 C   0  0  0  0  0  0  0  0  0  0  0  0
   11.1972   -6.0670    0.0000 C   0  0  0  0  0  0  0  0  0  0  0  0
   10.3312   -6.5670    0.0000 C   0  0  0  0  0  0  0  0  0  0  0  0
   12.9292   -6.0670    0.0000 C   0  0  0  0  0  0  0  0  0  0  0  0
   14.6613   -6.0670    0.0000 C   0  0  0  0  0  0  0  0  0  0  0  0
    6.0010   -6.0670    0.0000 C   0  0  1  0  0  0  0  0  0  0  0  0
   10.3312    2.4330    0.0000 C   0  0  0  0  0  0  0  0  0  0  0  0
    8.5991   -0.5670    0.0000 C   0  0  0  0  0  0  0  0  0  0  0  0
    9.4651    0.9330    0.0000 C   0  0  0  0  0  0  0  0  0  0  0  0
    8.5991   -1.5670    0.0000 C   0  0  0  0  0  0  0  0  0  0  0  0
   12.0632   -6.5670    0.0000 C   0  0  0  0  0  0  0  0  0  0  0  0
    9.4651   -6.0670    0.0000 C   0  0  0  0  0  0  0  0  0  0  0  0
    9.4651   -0.0670    0.0000 C   0  0  0  0  0  0  0  0  0  0  0  0
    6.0010   -5.0670    0.0000 C   0  0  0  0  0  0  0  0  0  0  0  0
    7.7331   -2.0670    0.0000 C   0  0  0  0  0  0  0  0  0  0  0  0
   16.3933   -6.0670    0.0000 C   0  0  0  0  0  0  0  0  0  0  0  0
   15.5273   -6.5670    0.0000 C   0  0  0  0  0  0  0  0  0  0  0  0
   11.1972    3.9330    0.0000 C   0  0  0  0  0  0  0  0  0  0  0  0
   11.1972    2.9330    0.0000 C   0  0  0  0  0  0  0  0  0  0  0  0
   17.2594   -6.5670    0.0000 C   0  0  0  0  0  0  0  0  0  0  0  0
   12.0632    4.4330    0.0000 C   0  0  0  0  0  0  0  0  0  0  0  0
    7.7331   -6.0670    0.0000 C   0  0  0  0  0  0  0  0  0  0  0  0
    5.1350   -6.5670    0.0000 C   0  0  0  0  0  0  0  0  0  0  0  0
    8.5991   -6.5670    0.0000 C   0  0  0  0  0  0  0  0  0  0  0  0
   12.9292   -5.0670    0.0000 C   0  0  0  0  0  0  0  0  0  0  0  0
   18.1254   -6.0670    0.0000 C   0  0  0  0  0  0  0  0  0  0  0  0
    7.7331   -3.0670    0.0000 C   0  0  0  0  0  0  0  0  0  0  0  0
   12.0632    5.4330    0.0000 C   0  0  0  0  0  0  0  0  0  0  0  0
    8.5991    1.4330    0.0000 C   0  0  0  0  0  0  0  0  0  0  0  0
    6.8671   -3.5670    0.0000 C   0  0  0  0  0  0  0  0  0  0  0  0
    9.4651   -5.0670    0.0000 C   0  0  0  0  0  0  0  0  0  0  0  0
    6.8671   -1.5670    0.0000 C   0  0  0  0  0  0  0  0  0  0  0  0
   16.3933   -5.0670    0.0000 C   0  0  0  0  0  0  0  0  0  0  0  0
   10.3312    4.4330    0.0000 C   0  0  0  0  0  0  0  0  0  0  0  0
   18.9914   -6.5670    0.0000 C   0  0  0  0  0  0  0  0  0  0  0  0
   12.9292    5.9330    0.0000 C   0  0  0  0  0  0  0  0  0  0  0  0
   19.8574   -6.0670    0.0000 C   0  0  0  0  0  0  0  0  0  0  0  0
   12.9292    6.9330    0.0000 C   0  0  0  0  0  0  0  0  0  0  0  0
   20.7235   -6.5670    0.0000 C   0  0  0  0  0  0  0  0  0  0  0  0
   19.8574   -5.0670    0.0000 C   0  0  0  0  0  0  0  0  0  0  0  0
   13.7953    7.4330    0.0000 C   0  0  0  0  0  0  0  0  0  0  0  0
   12.0632    7.4330    0.0000 C   0  0  0  0  0  0  0  0  0  0  0  0
   13.3967   -7.0419    0.0000 H   0  0  0  0  0  0  0  0  0  0  0  0
   14.1938   -7.0419    0.0000 H   0  0  0  0  0  0  0  0  0  0  0  0
   10.5432    0.8504    0.0000 H   0  0  0  0  0  0  0  0  0  0  0  0
   10.9417    1.5407    0.0000 H   0  0  0  0  0  0  0  0  0  0  0  0
   11.5957   -5.5920    0.0000 H   0  0  0  0  0  0  0  0  0  0  0  0
   10.7987   -5.5920    0.0000 H   0  0  0  0  0  0  0  0  0  0  0  0
    9.9326   -7.0419    0.0000 H   0  0  0  0  0  0  0  0  0  0  0  0
   10.7297   -7.0419    0.0000 H   0  0  0  0  0  0  0  0  0  0  0  0
   15.0598   -5.5920    0.0000 H   0  0  0  0  0  0  0  0  0  0  0  0
   14.2628   -5.5920    0.0000 H   0  0  0  0  0  0  0  0  0  0  0  0
    6.5380   -5.7570    0.0000 H   0  0  0  0  0  0  0  0  0  0  0  0
   10.1191    3.0156    0.0000 H   0  0  0  0  0  0  0  0  0  0  0  0
    9.7206    2.3253    0.0000 H   0  0  0  0  0  0  0  0  0  0  0  0
    8.3871    0.0156    0.0000 H   0  0  0  0  0  0  0  0  0  0  0  0
    7.9885   -0.6746    0.0000 H   0  0  0  0  0  0  0  0  0  0  0  0
    8.8112   -2.1496    0.0000 H   0  0  0  0  0  0  0  0  0  0  0  0
    9.2097   -1.4593    0.0000 H   0  0  0  0  0  0  0  0  0  0  0  0
   12.0632   -7.1870    0.0000 H   0  0  0  0  0  0  0  0  0  0  0  0
   10.0021   -0.3770    0.0000 H   0  0  0  0  0  0  0  0  0  0  0  0
    5.7890   -4.4844    0.0000 H   0  0  0  0  0  0  0  0  0  0  0  0
    5.3905   -5.1746    0.0000 H   0  0  0  0  0  0  0  0  0  0  0  0
   15.5273   -7.1870    0.0000 H   0  0  0  0  0  0  0  0  0  0  0  0
   11.7341    2.6230    0.0000 H   0  0  0  0  0  0  0  0  0  0  0  0
   16.8608   -7.0419    0.0000 H   0  0  0  0  0  0  0  0  0  0  0  0
   17.6579   -7.0419    0.0000 H   0  0  0  0  0  0  0  0  0  0  0  0
   12.2753    3.8504    0.0000 H   0  0  0  0  0  0  0  0  0  0  0  0
   12.6738    4.5407    0.0000 H   0  0  0  0  0  0  0  0  0  0  0  0
    8.1316   -5.5920    0.0000 H   0  0  0  0  0  0  0  0  0  0  0  0
    7.3346   -5.5920    0.0000 H   0  0  0  0  0  0  0  0  0  0  0  0
    4.7365   -7.0419    0.0000 H   0  0  0  0  0  0  0  0  0  0  0  0
    5.5335   -7.0419    0.0000 H   0  0  0  0  0  0  0  0  0  0  0  0
    8.5991   -7.1870    0.0000 H   0  0  0  0  0  0  0  0  0  0  0  0
   13.5492   -5.0670    0.0000 H   0  0  0  0  0  0  0  0  0  0  0  0
   12.9292   -4.4470    0.0000 H   0  0  0  0  0  0  0  0  0  0  0  0
   12.3092   -5.0670    0.0000 H   0  0  0  0  0  0  0  0  0  0  0  0
   18.5239   -5.5920    0.0000 H   0  0  0  0  0  0  0  0  0  0  0  0
   17.7269   -5.5920    0.0000 H   0  0  0  0  0  0  0  0  0  0  0  0
    8.2700   -3.3770    0.0000 H   0  0  0  0  0  0  0  0  0  0  0  0
   11.8512    6.0156    0.0000 H   0  0  0  0  0  0  0  0  0  0  0  0
   11.4526    5.3254    0.0000 H   0  0  0  0  0  0  0  0  0  0  0  0
    8.9091    1.9700    0.0000 H   0  0  0  0  0  0  0  0  0  0  0  0
    8.0622    1.7430    0.0000 H   0  0  0  0  0  0  0  0  0  0  0  0
    8.2891    0.8961    0.0000 H   0  0  0  0  0  0  0  0  0  0  0  0
    6.6550   -2.9844    0.0000 H   0  0  0  0  0  0  0  0  0  0  0  0
    6.2565   -3.6746    0.0000 H   0  0  0  0  0  0  0  0  0  0  0  0
   10.0851   -5.0670    0.0000 H   0  0  0  0  0  0  0  0  0  0  0  0
    9.4651   -4.4470    0.0000 H   0  0  0  0  0  0  0  0  0  0  0  0
    8.8451   -5.0670    0.0000 H   0  0  0  0  0  0  0  0  0  0  0  0
    7.1771   -1.0300    0.0000 H   0  0  0  0  0  0  0  0  0  0  0  0
    6.3301   -1.2570    0.0000 H   0  0  0  0  0  0  0  0  0  0  0  0
    6.5571   -2.1039    0.0000 H   0  0  0  0  0  0  0  0  0  0  0  0
   17.0133   -5.0670    0.0000 H   0  0  0  0  0  0  0  0  0  0  0  0
   16.3933   -4.4470    0.0000 H   0  0  0  0  0  0  0  0  0  0  0  0
   15.7733   -5.0670    0.0000 H   0  0  0  0  0  0  0  0  0  0  0  0
   10.6412    4.9700    0.0000 H   0  0  0  0  0  0  0  0  0  0  0  0
    9.7942    4.7430    0.0000 H   0  0  0  0  0  0  0  0  0  0  0  0
   10.0212    3.8961    0.0000 H   0  0  0  0  0  0  0  0  0  0  0  0
   18.9914   -7.1870    0.0000 H   0  0  0  0  0  0  0  0  0  0  0  0
   13.4662    5.6230    0.0000 H   0  0  0  0  0  0  0  0  0  0  0  0
   20.4774   -5.0670    0.0000 H   0  0  0  0  0  0  0  0  0  0  0  0
   19.8574   -4.4470    0.0000 H   0  0  0  0  0  0  0  0  0  0  0  0
   19.2374   -5.0670    0.0000 H   0  0  0  0  0  0  0  0  0  0  0  0
   20.4135   -7.1039    0.0000 H   0  0  0  0  0  0  0  0  0  0  0  0
   21.2604   -6.8770    0.0000 H   0  0  0  0  0  0  0  0  0  0  0  0
   21.0335   -6.0300    0.0000 H   0  0  0  0  0  0  0  0  0  0  0  0
   14.1053    6.8961    0.0000 H   0  0  0  0  0  0  0  0  0  0  0  0
   14.3322    7.7430    0.0000 H   0  0  0  0  0  0  0  0  0  0  0  0
   13.4853    7.9700    0.0000 H   0  0  0  0  0  0  0  0  0  0  0  0
   12.3732    7.9700    0.0000 H   0  0  0  0  0  0  0  0  0  0  0  0
   11.5263    7.7430    0.0000 H   0  0  0  0  0  0  0  0  0  0  0  0
   11.7532    6.8961    0.0000 H   0  0  0  0  0  0  0  0  0  0  0  0
    3.2130   -5.1640    0.0000 H   0  0  0  0  0  0  0  0  0  0  0  0
    2.0000   -6.7570    0.0000 H   0  0  0  0  0  0  0  0  0  0  0  0
  1  4  1  0  0  0  0
  1  5  1  0  0  0  0
  1  6  1  0  0  0  0
  1  7  2  0  0  0  0
 14  2  1  6  0  0  0
  2 30  1  0  0  0  0
  3 22  1  0  0  0  0
  3 38  1  0  0  0  0
  4 31  1  0  0  0  0
  5123  1  0  0  0  0
  6122  1  0  0  0  0
  8 12  1  0  0  0  0
  8 13  1  0  0  0  0
  8 51  1  0  0  0  0
  8 52  1  0  0  0  0
  9 15  1  0  0  0  0
  9 17  1  0  0  0  0
  9 53  1  0  0  0  0
  9 54  1  0  0  0  0
 10 11  1  0  0  0  0
 10 19  1  0  0  0  0
 10 55  1  0  0  0  0
 10 56  1  0  0  0  0
 11 20  1  0  0  0  0
 11 57  1  0  0  0  0
 11 58  1  0  0  0  0
 12 19  2  0  0  0  0
 12 33  1  0  0  0  0
 13 25  1  0  0  0  0
 13 59  1  0  0  0  0
 13 60  1  0  0  0  0
 14 22  1  0  0  0  0
 14 31  1  0  0  0  0
 14 61  1  0  0  0  0
 15 27  1  0  0  0  0
 15 62  1  0  0  0  0
 15 63  1  0  0  0  0
 16 18  1  0  0  0  0
 16 21  1  0  0  0  0
 16 64  1  0  0  0  0
 16 65  1  0  0  0  0
 17 21  2  0  0  0  0
 17 37  1  0  0  0  0
 18 23  1  0  0  0  0
 18 66  1  0  0  0  0
 18 67  1  0  0  0  0
 19 68  1  0  0  0  0
 20 32  2  0  0  0  0
 20 39  1  0  0  0  0
 21 69  1  0  0  0  0
 22 70  1  0  0  0  0
 22 71  1  0  0  0  0
 23 35  2  0  0  0  0
 23 40  1  0  0  0  0
 24 25  2  0  0  0  0
 24 28  1  0  0  0  0
 24 41  1  0  0  0  0
 25 72  1  0  0  0  0
 26 27  2  0  0  0  0
 26 29  1  0  0  0  0
 26 42  1  0  0  0  0
 27 73  1  0  0  0  0
 28 34  1  0  0  0  0
 28 74  1  0  0  0  0
 28 75  1  0  0  0  0
 29 36  1  0  0  0  0
 29 76  1  0  0  0  0
 29 77  1  0  0  0  0
 30 32  1  0  0  0  0
 30 78  1  0  0  0  0
 30 79  1  0  0  0  0
 31 80  1  0  0  0  0
 31 81  1  0  0  0  0
 32 82  1  0  0  0  0
 33 83  1  0  0  0  0
 33 84  1  0  0  0  0
 33 85  1  0  0  0  0
 34 43  1  0  0  0  0
 34 86  1  0  0  0  0
 34 87  1  0  0  0  0
 35 38  1  0  0  0  0
 35 88  1  0  0  0  0
 36 44  1  0  0  0  0
 36 89  1  0  0  0  0
 36 90  1  0  0  0  0
 37 91  1  0  0  0  0
 37 92  1  0  0  0  0
 37 93  1  0  0  0  0
 38 94  1  0  0  0  0
 38 95  1  0  0  0  0
 39 96  1  0  0  0  0
 39 97  1  0  0  0  0
 39 98  1  0  0  0  0
 40 99  1  0  0  0  0
 40100  1  0  0  0  0
 40101  1  0  0  0  0
 41102  1  0  0  0  0
 41103  1  0  0  0  0
 41104  1  0  0  0  0
 42105  1  0  0  0  0
 42106  1  0  0  0  0
 42107  1  0  0  0  0
 43 45  2  0  0  0  0
 43108  1  0  0  0  0
 44 46  2  0  0  0  0
 44109  1  0  0  0  0
 45 47  1  0  0  0  0
 45 48  1  0  0  0  0
 46 49  1  0  0  0  0
 46 50  1  0  0  0  0
 47113  1  0  0  0  0
 47114  1  0  0  0  0
 47115  1  0  0  0  0
 48110  1  0  0  0  0
 48111  1  0  0  0  0
 48112  1  0  0  0  0
 49116  1  0  0  0  0
 49117  1  0  0  0  0
 49118  1  0  0  0  0
 50119  1  0  0  0  0
 50120  1  0  0  0  0
 50121  1  0  0  0  0
M  END
> <PUBCHEM_COMPOUND_CID>
14556935

> <PUBCHEM_COMPOUND_CANONICALIZED>
1

> <PUBCHEM_CACTVS_COMPLEXITY>
1230

> <PUBCHEM_CACTVS_HBOND_ACCEPTOR>
6

> <PUBCHEM_CACTVS_HBOND_DONOR>
2

> <PUBCHEM_CACTVS_ROTATABLE_BOND>
28

> <PUBCHEM_CACTVS_SUBSKEYS>
AAADcfB8OAIAAAAAAAAAAAAAAAAAAAAAAAAAAAAAAAAAAAAAAAAAGgAACCAADBSggAICAAAABRCAQiBCAIAAAAAgAAAACAAAAAgBBAIAIQACEAABgAAKIAIAAAAAAAAAAAAAAAAAAAAAAAAAAAAAAAAAAA==

> <PUBCHEM_IUPAC_OPENEYE_NAME>
[(2S)-2,3-bis[(2E,6E,10E)-3,7,11,15-tetramethylhexadeca-2,6,10,14-tetraenoxy]propyl] dihydrogen phosphate

> <PUBCHEM_IUPAC_CAS_NAME>
[(2S)-2,3-bis[(2E,6E,10E)-3,7,11,15-tetramethylhexadeca-2,6,10,14-tetraenoxy]propyl] dihydrogen phosphate

> <PUBCHEM_IUPAC_NAME>
[(2S)-2,3-bis[(2E,6E,10E)-3,7,11,15-tetramethylhexadeca-2,6,10,14-tetraenoxy]propyl] dihydrogen phosphate

> <PUBCHEM_IUPAC_SYSTEMATIC_NAME>
[(2S)-2,3-bis[(2E,6E,10E)-3,7,11,15-tetramethylhexadeca-2,6,10,14-tetraenoxy]propyl] dihydrogen phosphate

> <PUBCHEM_IUPAC_TRADITIONAL_NAME>
[(2S)-2,3-bis[(2E,6E,10E)-3,7,11,15-tetramethylhexadeca-2,6,10,14-tetraenoxy]propyl] dihydrogen phosphate

> <PUBCHEM_IUPAC_INCHI>
InChI=1S/C43H73O6P/c1-35(2)17-11-19-37(5)21-13-23-39(7)25-15-27-41(9)29-31-47-33-43(34-49-50(44,45)46)48-32-30-42(10)28-16-26-40(8)24-14-22-38(6)20-12-18-36(3)4/h17-18,21-22,25-26,29-30,43H,11-16,19-20,23-24,27-28,31-34H2,1-10H3,(H2,44,45,46)/b37-21+,38-22+,39-25+,40-26+,41-29+,42-30+/t43-/m0/s1

> <PUBCHEM_IUPAC_INCHIKEY>
WHMXLRRVANEOOG-MVFIEKMPSA-N

> <PUBCHEM_XLOGP3_AA>
12.4

> <PUBCHEM_EXACT_MASS>
716.514477

> <PUBCHEM_MOLECULAR_FORMULA>
C43H73O6P

> <PUBCHEM_MOLECULAR_WEIGHT>
717.009882

> <PUBCHEM_OPENEYE_CAN_SMILES>
CC(=CCCC(=CCCC(=CCCC(=CCOCC(COP(=O)(O)O)OCC=C(C)CCC=C(C)CCC=C(C)CCC=C(C)C)C)C)C)C

> <PUBCHEM_OPENEYE_ISO_SMILES>
CC(=CCC/C(=C/CC/C(=C/CC/C(=C/COC[C@@H](COP(=O)(O)O)OC/C=C(\C)/CC/C=C(\C)/CC/C=C(\C)/CCC=C(C)C)/C)/C)/C)C

> <PUBCHEM_CACTVS_TPSA>
85.2

> <PUBCHEM_MONOISOTOPIC_WEIGHT>
716.514477

> <PUBCHEM_TOTAL_CHARGE>
0

> <PUBCHEM_HEAVY_ATOM_COUNT>
50

> <PUBCHEM_ATOM_DEF_STEREO_COUNT>
1

> <PUBCHEM_ATOM_UDEF_STEREO_COUNT>
0

> <PUBCHEM_BOND_DEF_STEREO_COUNT>
6

> <PUBCHEM_BOND_UDEF_STEREO_COUNT>
0

> <PUBCHEM_ISOTOPIC_ATOM_COUNT>
0

> <PUBCHEM_COMPONENT_COUNT>
1

> <PUBCHEM_CACTVS_TAUTO_COUNT>
1

> <PUBCHEM_COORDINATE_TYPE>
1
5
255

> <PUBCHEM_BONDANNOTATIONS>
14  2  6

$$$$

