46173953
  -OEChem-07051213103D

 42 43  0     1  0  0  0  0  0999 V2000
    1.1215   -1.6561    1.4455 O   0  0  0  0  0  0  0  0  0  0  0  0
    3.1066   -1.5187   -0.4552 O   0  0  0  0  0  0  0  0  0  0  0  0
   -1.6740    3.1110   -0.0676 O   0  0  0  0  0  0  0  0  0  0  0  0
   -0.6989   -1.2851   -0.1645 C   0  0  1  0  0  0  0  0  0  0  0  0
   -0.7396    0.2740    0.0307 C   0  0  1  0  0  0  0  0  0  0  0  0
    0.7481   -1.8137    0.0743 C   0  0  1  0  0  0  0  0  0  0  0  0
    1.7124    0.4606   -0.7315 C   0  0  2  0  0  0  0  0  0  0  0  0
    0.2665    0.9685   -0.9124 C   0  0  0  0  0  0  0  0  0  0  0  0
    1.7912   -1.0769   -0.7858 C   0  0  1  0  0  0  0  0  0  0  0  0
   -1.6885   -1.9076    0.8568 C   0  0  0  0  0  0  0  0  0  0  0  0
    2.3564    1.0645    0.5251 C   0  0  0  0  0  0  0  0  0  0  0  0
   -1.1335   -1.7127   -1.5957 C   0  0  0  0  0  0  0  0  0  0  0  0
   -2.1613    0.8008   -0.0082 C   0  0  0  0  0  0  0  0  0  0  0  0
   -3.1281   -1.4119    0.6678 C   0  0  0  0  0  0  0  0  0  0  0  0
   -3.2278    0.0377    0.2862 C   0  0  0  0  0  0  0  0  0  0  0  0
    1.9377    2.5210    0.6851 C   0  0  0  0  0  0  0  0  0  0  0  0
    3.8736    0.9392    0.4532 C   0  0  0  0  0  0  0  0  0  0  0  0
   -2.4626    2.2054   -0.3037 C   0  0  0  0  0  0  0  0  0  0  0  0
   -0.3998    0.4889    1.0549 H   0  0  0  0  0  0  0  0  0  0  0  0
    0.8080   -2.8888   -0.1372 H   0  0  0  0  0  0  0  0  0  0  0  0
    2.2796    0.8400   -1.5945 H   0  0  0  0  0  0  0  0  0  0  0  0
    0.2101    2.0551   -0.8858 H   0  0  0  0  0  0  0  0  0  0  0  0
   -0.0297    0.7476   -1.9472 H   0  0  0  0  0  0  0  0  0  0  0  0
    1.6406   -1.3689   -1.8316 H   0  0  0  0  0  0  0  0  0  0  0  0
   -1.6699   -3.0029    0.7977 H   0  0  0  0  0  0  0  0  0  0  0  0
   -1.3817   -1.6486    1.8786 H   0  0  0  0  0  0  0  0  0  0  0  0
    2.0237    0.5520    1.4322 H   0  0  0  0  0  0  0  0  0  0  0  0
   -0.4479   -1.3664   -2.3728 H   0  0  0  0  0  0  0  0  0  0  0  0
   -2.1229   -1.3362   -1.8706 H   0  0  0  0  0  0  0  0  0  0  0  0
   -1.1718   -2.8061   -1.6699 H   0  0  0  0  0  0  0  0  0  0  0  0
   -3.6241   -2.0077   -0.1077 H   0  0  0  0  0  0  0  0  0  0  0  0
   -3.6876   -1.5806    1.5953 H   0  0  0  0  0  0  0  0  0  0  0  0
   -4.2332    0.4516    0.2636 H   0  0  0  0  0  0  0  0  0  0  0  0
    0.6776   -2.3546    1.9550 H   0  0  0  0  0  0  0  0  0  0  0  0
    0.8988    2.6261    1.0115 H   0  0  0  0  0  0  0  0  0  0  0  0
    2.5323    3.0015    1.4718 H   0  0  0  0  0  0  0  0  0  0  0  0
    2.1003    3.1002   -0.2304 H   0  0  0  0  0  0  0  0  0  0  0  0
    4.3532    1.6741    1.1112 H   0  0  0  0  0  0  0  0  0  0  0  0
    4.2310   -0.0293    0.8109 H   0  0  0  0  0  0  0  0  0  0  0  0
    4.2633    1.1146   -0.5549 H   0  0  0  0  0  0  0  0  0  0  0  0
    3.1192   -2.4879   -0.5322 H   0  0  0  0  0  0  0  0  0  0  0  0
   -3.4774    2.4185   -0.6806 H   0  0  0  0  0  0  0  0  0  0  0  0
  1  6  1  0  0  0  0
  1 34  1  0  0  0  0
  2  9  1  0  0  0  0
  2 41  1  0  0  0  0
  3 18  2  0  0  0  0
  4  5  1  0  0  0  0
  4  6  1  0  0  0  0
  4 10  1  0  0  0  0
  4 12  1  0  0  0  0
  5  8  1  0  0  0  0
  5 13  1  0  0  0  0
  5 19  1  0  0  0  0
  6  9  1  0  0  0  0
  6 20  1  0  0  0  0
  7  8  1  0  0  0  0
  7  9  1  0  0  0  0
  7 11  1  0  0  0  0
  7 21  1  0  0  0  0
  8 22  1  0  0  0  0
  8 23  1  0  0  0  0
  9 24  1  0  0  0  0
 10 14  1  0  0  0  0
 10 25  1  0  0  0  0
 10 26  1  0  0  0  0
 11 16  1  0  0  0  0
 11 17  1  0  0  0  0
 11 27  1  0  0  0  0
 12 28  1  0  0  0  0
 12 29  1  0  0  0  0
 12 30  1  0  0  0  0
 13 15  2  0  0  0  0
 13 18  1  0  0  0  0
 14 15  1  0  0  0  0
 14 31  1  0  0  0  0
 14 32  1  0  0  0  0
 15 33  1  0  0  0  0
 16 35  1  0  0  0  0
 16 36  1  0  0  0  0
 16 37  1  0  0  0  0
 17 38  1  0  0  0  0
 17 39  1  0  0  0  0
 17 40  1  0  0  0  0
 18 42  1  0  0  0  0
M  END
> <PUBCHEM_COMPOUND_CID>
46173953

> <PUBCHEM_CONFORMER_RMSD>
0.6

> <PUBCHEM_CONFORMER_DIVERSEORDER>
1

> <PUBCHEM_MMFF94_PARTIAL_CHARGES>
14
1 -0.68
13 -0.12
14 0.14
15 -0.29
18 0.5
2 -0.68
3 -0.57
33 0.15
34 0.4
41 0.4
42 0.06
5 0.14
6 0.28
9 0.28

> <PUBCHEM_EFFECTIVE_ROTOR_COUNT>
3.2

> <PUBCHEM_PHARMACOPHORE_FEATURES>
8
1 1 acceptor
1 1 donor
1 2 acceptor
1 2 donor
1 3 acceptor
3 11 16 17 hydrophobe
6 4 5 10 13 14 15 rings
6 4 5 6 7 8 9 rings

> <PUBCHEM_HEAVY_ATOM_COUNT>
18

> <PUBCHEM_ATOM_DEF_STEREO_COUNT>
5

> <PUBCHEM_ATOM_UDEF_STEREO_COUNT>
0

> <PUBCHEM_BOND_DEF_STEREO_COUNT>
0

> <PUBCHEM_BOND_UDEF_STEREO_COUNT>
0

> <PUBCHEM_ISOTOPIC_ATOM_COUNT>
0

> <PUBCHEM_COMPONENT_COUNT>
1

> <PUBCHEM_CACTVS_TAUTO_COUNT>
1

> <PUBCHEM_CONFORMER_ID>
02C08F0100000001

> <PUBCHEM_MMFF94_ENERGY>
61.3002

> <PUBCHEM_FEATURE_SELFOVERLAP>
40.619

> <PUBCHEM_SHAPE_FINGERPRINT>
10608611 8 18409448102509075116
10863032 1 18339922735484597762
10967382 1 18050564041264536213
11132069 177 17970635077880171160
11680986 33 18410571829120079694
12382932 28 18196649601490513947
12403259 226 18408321081531190328
12423570 1 7565048459385041847
13140716 1 18122622751936198937
13581323 91 18341614750735804312
14223421 5 18410854334867939793
14787075 74 17698434430326385531
15219456 202 18334853909608088326
15775835 57 18188203208763117083
16945 1 18340193103522984783
17804303 29 18339067289578869590
18981168 100 17241630354260572402
19049666 15 18337104674218591176
19786989 88 17241034431890854670
20510252 161 18410007745585663657
20511035 2 18339636866518947375
20525323 117 18265059024347712903
20905425 154 18410287038386405542
22344851 341 18341895233590991642
2334 1 17762054337562005957
23388829 49 17179970631375471151
23402539 116 18118413838652446855
23419403 2 14528579919597491387
23559900 14 18410570712829535524
238 59 17190978314817951341
2748010 2 18337666520217718221
34934 24 18337956667292685359
3524813 1 18188492376074228265
589210 1 18411419556969778473
5939293 188 17617665800487453477
69090 78 18186803552152261135
7364860 26 18336263543560458978
81228 2 18200865202360404521

> <PUBCHEM_SHAPE_MULTIPOLES>
352.82
5.11
2.93
1.1
1.49
1.44
-0.1
0.75
0.95
-0.57
0.07
-0.01
-0.41
0.58

> <PUBCHEM_SHAPE_SELFOVERLAP>
728.662

> <PUBCHEM_SHAPE_VOLUME>
198.3

> <PUBCHEM_COORDINATE_TYPE>
2
5
10

$$$$

