9543398
  -OEChem-07051213083D

 19 19  0     1  0  0  0  0  0999 V2000
    2.8570   -1.0937    0.4308 F   0  0  0  0  0  0  0  0  0  0  0  0
   -0.8715   -0.2904   -1.7242 O   0  0  0  0  0  0  0  0  0  0  0  0
    0.3747   -2.1046   -0.2652 O   0  0  0  0  0  0  0  0  0  0  0  0
   -1.8150    0.3965    1.6455 O   0  0  0  0  0  0  0  0  0  0  0  0
   -2.9703   -0.5003   -0.1029 O   0  0  0  0  0  0  0  0  0  0  0  0
   -0.6295    0.1053   -0.3791 C   0  0  1  0  0  0  0  0  0  0  0  0
    0.4113   -0.8025    0.3170 C   0  0  2  0  0  0  0  0  0  0  0  0
   -0.2759    1.5674   -0.3720 C   0  0  0  0  0  0  0  0  0  0  0  0
    1.8133   -0.2557    0.2432 C   0  0  0  0  0  0  0  0  0  0  0  0
   -1.9394   -0.0458    0.3703 C   0  0  0  0  0  0  0  0  0  0  0  0
    0.9845    1.9830   -0.1754 C   0  0  0  0  0  0  0  0  0  0  0  0
    2.0607    1.0409    0.0122 C   0  0  0  0  0  0  0  0  0  0  0  0
    0.1895   -0.9363    1.3827 H   0  0  0  0  0  0  0  0  0  0  0  0
   -1.0529    2.3036   -0.5609 H   0  0  0  0  0  0  0  0  0  0  0  0
    1.2299    3.0391   -0.1919 H   0  0  0  0  0  0  0  0  0  0  0  0
    3.0777    1.4151   -0.0244 H   0  0  0  0  0  0  0  0  0  0  0  0
   -1.0113   -1.2529   -1.7316 H   0  0  0  0  0  0  0  0  0  0  0  0
    1.0468   -2.6491    0.1797 H   0  0  0  0  0  0  0  0  0  0  0  0
   -2.6531    0.3079    2.1475 H   0  0  0  0  0  0  0  0  0  0  0  0
  1  9  1  0  0  0  0
  2  6  1  0  0  0  0
  2 17  1  0  0  0  0
  3  7  1  0  0  0  0
  3 18  1  0  0  0  0
  4 10  1  0  0  0  0
  4 19  1  0  0  0  0
  5 10  2  0  0  0  0
  6  7  1  0  0  0  0
  6  8  1  0  0  0  0
  6 10  1  0  0  0  0
  7  9  1  0  0  0  0
  7 13  1  0  0  0  0
  8 11  2  0  0  0  0
  8 14  1  0  0  0  0
  9 12  2  0  0  0  0
 11 12  1  0  0  0  0
 11 15  1  0  0  0  0
 12 16  1  0  0  0  0
M  END
> <PUBCHEM_COMPOUND_CID>
9543398

> <PUBCHEM_CONFORMER_RMSD>
0.4

> <PUBCHEM_CONFORMER_DIVERSEORDER>
2
5
3
6
1
4

> <PUBCHEM_MMFF94_PARTIAL_CHARGES>
18
1 -0.15
10 0.66
11 -0.15
12 -0.15
14 0.15
15 0.15
16 0.15
17 0.4
18 0.4
19 0.5
2 -0.68
3 -0.68
4 -0.65
5 -0.57
6 0.48
7 0.42
8 -0.29
9 0.01

> <PUBCHEM_EFFECTIVE_ROTOR_COUNT>
1.4

> <PUBCHEM_PHARMACOPHORE_FEATURES>
8
1 2 acceptor
1 2 donor
1 3 acceptor
1 3 donor
1 4 acceptor
1 5 acceptor
3 4 5 10 anion
6 6 7 8 9 11 12 rings

> <PUBCHEM_HEAVY_ATOM_COUNT>
12

> <PUBCHEM_ATOM_DEF_STEREO_COUNT>
2

> <PUBCHEM_ATOM_UDEF_STEREO_COUNT>
0

> <PUBCHEM_BOND_DEF_STEREO_COUNT>
0

> <PUBCHEM_BOND_UDEF_STEREO_COUNT>
0

> <PUBCHEM_ISOTOPIC_ATOM_COUNT>
0

> <PUBCHEM_COMPONENT_COUNT>
1

> <PUBCHEM_CACTVS_TAUTO_COUNT>
1

> <PUBCHEM_CONFORMER_ID>
00919EE600000002

> <PUBCHEM_MMFF94_ENERGY>
17.9636

> <PUBCHEM_FEATURE_SELFOVERLAP>
40.678

> <PUBCHEM_SHAPE_FINGERPRINT>
10219947 1 18411696578218364523
12423570 1 9464020622260710729
13024252 1 17416121913375364820
14993402 34 18336262353685193540
16945 1 18262788704640205097
21040471 1 18051128094977261724
2748010 2 18269287901103849468
29004967 10 18131068203775548888
5084963 1 18186238428765870937
528862 383 18271528576698835448
528886 8 18339370664414350936

> <PUBCHEM_SHAPE_MULTIPOLES>
216.2
3.19
1.75
1.03
0.43
0.05
0.04
-0.43
-0.58
-0.83
0.13
0.52
0.02
-0.21

> <PUBCHEM_SHAPE_SELFOVERLAP>
453.477

> <PUBCHEM_SHAPE_VOLUME>
121.6

> <PUBCHEM_COORDINATE_TYPE>
2
5
10

$$$$

