25188420
  -OEChem-07051213112D

 15 14  0     0  0  0  0  0  0999 V2000
    4.5981    0.5000    0.0000 O   0  0  0  0  0  0  0  0  0  0  0  0
    2.0000    1.0000    0.0000 O   0  0  0  0  0  0  0  0  0  0  0  0
    3.7320    1.0000    0.0000 O   0  0  0  0  0  0  0  0  0  0  0  0
    7.1962   -1.0000    0.0000 O   0  0  0  0  0  0  0  0  0  0  0  0
    5.4641   -1.0000    0.0000 N   0  0  0  0  0  0  0  0  0  0  0  0
    3.7320   -1.0000    0.0000 C   0  0  0  0  0  0  0  0  0  0  0  0
    4.5981   -0.5000    0.0000 C   0  0  0  0  0  0  0  0  0  0  0  0
    2.8660   -0.5000    0.0000 C   0  0  0  0  0  0  0  0  0  0  0  0
    2.8660    0.5000    0.0000 C   0  0  0  0  0  0  0  0  0  0  0  0
    6.3301   -0.5000    0.0000 C   0  0  0  0  0  0  0  0  0  0  0  0
    3.7320   -1.6200    0.0000 H   0  0  0  0  0  0  0  0  0  0  0  0
    2.3291   -0.8100    0.0000 H   0  0  0  0  0  0  0  0  0  0  0  0
    5.4641   -1.6200    0.0000 H   0  0  0  0  0  0  0  0  0  0  0  0
    6.3301    0.1200    0.0000 H   0  0  0  0  0  0  0  0  0  0  0  0
    2.0000    1.6200    0.0000 H   0  0  0  0  0  0  0  0  0  0  0  0
  1  7  2  0  0  0  0
  2  9  1  0  0  0  0
  2 15  1  0  0  0  0
  3  9  2  0  0  0  0
  4 10  2  0  0  0  0
  5  7  1  0  0  0  0
  5 10  1  0  0  0  0
  5 13  1  0  0  0  0
  6  7  1  0  0  0  0
  6  8  2  0  0  0  0
  6 11  1  0  0  0  0
  8  9  1  0  0  0  0
  8 12  1  0  0  0  0
 10 14  1  0  0  0  0
M  END
> <PUBCHEM_COMPOUND_CID>
25188420

> <PUBCHEM_COMPOUND_CANONICALIZED>
1

> <PUBCHEM_CACTVS_COMPLEXITY>
184

> <PUBCHEM_CACTVS_HBOND_ACCEPTOR>
4

> <PUBCHEM_CACTVS_HBOND_DONOR>
2

> <PUBCHEM_CACTVS_ROTATABLE_BOND>
2

> <PUBCHEM_CACTVS_SUBSKEYS>
AAADcYBiOAAAAAAAAAAAAAAAAAAAAAAAAAAAAAAAAAAAAAAAAAAAHgAQCAAACACBgAYACALAAgCIACHSmACAAAAAAAAICIAIAEAABAAAAAAAEAAAFiAAEYAAAAAAAAAAAAAAAAAAAAAAAAAAAAAAAAAAAA==

> <PUBCHEM_IUPAC_OPENEYE_NAME>
(Z)-4-formamido-4-oxo-but-2-enoic acid

> <PUBCHEM_IUPAC_CAS_NAME>
(Z)-4-formamido-4-oxo-2-butenoic acid

> <PUBCHEM_IUPAC_NAME>
(Z)-4-formamido-4-oxobut-2-enoic acid

> <PUBCHEM_IUPAC_SYSTEMATIC_NAME>
(Z)-4-formamido-4-oxidanylidene-but-2-enoic acid

> <PUBCHEM_IUPAC_TRADITIONAL_NAME>
(Z)-4-formamido-4-keto-but-2-enoic acid

> <PUBCHEM_IUPAC_INCHI>
InChI=1S/C5H5NO4/c7-3-6-4(8)1-2-5(9)10/h1-3H,(H,9,10)(H,6,7,8)/b2-1-

> <PUBCHEM_IUPAC_INCHIKEY>
HSKSAKBZUITULZ-UPHRSURJSA-N

> <PUBCHEM_XLOGP3_AA>
-0.9

> <PUBCHEM_EXACT_MASS>
143.021858

> <PUBCHEM_MOLECULAR_FORMULA>
C5H5NO4

> <PUBCHEM_MOLECULAR_WEIGHT>
143.0975

> <PUBCHEM_OPENEYE_CAN_SMILES>
C(=CC(=O)O)C(=O)NC=O

> <PUBCHEM_OPENEYE_ISO_SMILES>
C(=C\C(=O)O)\C(=O)NC=O

> <PUBCHEM_CACTVS_TPSA>
83.5

> <PUBCHEM_MONOISOTOPIC_WEIGHT>
143.021858

> <PUBCHEM_TOTAL_CHARGE>
0

> <PUBCHEM_HEAVY_ATOM_COUNT>
10

> <PUBCHEM_ATOM_DEF_STEREO_COUNT>
0

> <PUBCHEM_ATOM_UDEF_STEREO_COUNT>
0

> <PUBCHEM_BOND_DEF_STEREO_COUNT>
1

> <PUBCHEM_BOND_UDEF_STEREO_COUNT>
0

> <PUBCHEM_ISOTOPIC_ATOM_COUNT>
0

> <PUBCHEM_COMPONENT_COUNT>
1

> <PUBCHEM_CACTVS_TAUTO_COUNT>
3

> <PUBCHEM_COORDINATE_TYPE>
1
5
255

$$$$

