6801
  -OEChem-06261201313D

 51 52  0     0  0  0  0  0  0999 V2000
    1.4846   -1.8319   -0.5683 O   0  0  0  0  0  0  0  0  0  0  0  0
   -2.6770   -2.9583    1.4801 O   0  0  0  0  0  0  0  0  0  0  0  0
   -4.7618   -1.6297    0.5006 O   0  0  0  0  0  0  0  0  0  0  0  0
   -5.9539    0.1637   -1.5617 O   0  0  0  0  0  0  0  0  0  0  0  0
    6.1129   -0.2443   -0.0698 C   0  0  0  0  0  0  0  0  0  0  0  0
    7.1185    0.8978   -0.2428 C   0  0  0  0  0  0  0  0  0  0  0  0
    4.6991    0.1146   -0.5325 C   0  0  0  0  0  0  0  0  0  0  0  0
    8.5149    0.5650    0.2874 C   0  0  0  0  0  0  0  0  0  0  0  0
    3.7340   -1.0501   -0.3161 C   0  0  0  0  0  0  0  0  0  0  0  0
    9.4566    1.7630    0.1556 C   0  0  0  0  0  0  0  0  0  0  0  0
    2.3332   -0.7185   -0.8111 C   0  0  0  0  0  0  0  0  0  0  0  0
   10.8355    1.4517    0.7155 C   0  0  0  0  0  0  0  0  0  0  0  0
    0.1574   -1.5633   -0.3550 C   0  0  0  0  0  0  0  0  0  0  0  0
   -0.6013   -2.4008    0.4626 C   0  0  0  0  0  0  0  0  0  0  0  0
   -0.4348   -0.4532   -0.9575 C   0  0  0  0  0  0  0  0  0  0  0  0
   -2.5445   -1.0185    0.0751 C   0  0  0  0  0  0  0  0  0  0  0  0
   -1.9524   -2.1285    0.6776 C   0  0  0  0  0  0  0  0  0  0  0  0
   -1.7857   -0.1810   -0.7425 C   0  0  0  0  0  0  0  0  0  0  0  0
   -3.9531   -0.7155    0.2878 C   0  0  0  0  0  0  0  0  0  0  0  0
   -4.4827    0.6802    0.2616 C   0  0  0  0  0  0  0  0  0  0  0  0
   -5.4586    1.0584   -0.6607 C   0  0  0  0  0  0  0  0  0  0  0  0
   -3.9878    1.6115    1.1745 C   0  0  0  0  0  0  0  0  0  0  0  0
   -5.9396    2.3679   -0.6695 C   0  0  0  0  0  0  0  0  0  0  0  0
   -4.4687    2.9208    1.1655 C   0  0  0  0  0  0  0  0  0  0  0  0
   -5.4445    3.2990    0.2434 C   0  0  0  0  0  0  0  0  0  0  0  0
    6.4677   -1.1204   -0.6267 H   0  0  0  0  0  0  0  0  0  0  0  0
    6.0809   -0.5337    0.9880 H   0  0  0  0  0  0  0  0  0  0  0  0
    6.7386    1.7854    0.2789 H   0  0  0  0  0  0  0  0  0  0  0  0
    7.1856    1.1605   -1.3057 H   0  0  0  0  0  0  0  0  0  0  0  0
    4.7216    0.3849   -1.5951 H   0  0  0  0  0  0  0  0  0  0  0  0
    4.3449    0.9943    0.0182 H   0  0  0  0  0  0  0  0  0  0  0  0
    8.9224   -0.2914   -0.2630 H   0  0  0  0  0  0  0  0  0  0  0  0
    8.4440    0.2687    1.3410 H   0  0  0  0  0  0  0  0  0  0  0  0
    3.6919   -1.3149    0.7479 H   0  0  0  0  0  0  0  0  0  0  0  0
    4.0974   -1.9466   -0.8341 H   0  0  0  0  0  0  0  0  0  0  0  0
    9.5506    2.0478   -0.8987 H   0  0  0  0  0  0  0  0  0  0  0  0
    9.0404    2.6255    0.6892 H   0  0  0  0  0  0  0  0  0  0  0  0
    2.3539   -0.5107   -1.8871 H   0  0  0  0  0  0  0  0  0  0  0  0
    1.9914    0.1759   -0.2739 H   0  0  0  0  0  0  0  0  0  0  0  0
   10.7789    1.1961    1.7785 H   0  0  0  0  0  0  0  0  0  0  0  0
   11.4926    2.3206    0.6096 H   0  0  0  0  0  0  0  0  0  0  0  0
   11.2940    0.6119    0.1838 H   0  0  0  0  0  0  0  0  0  0  0  0
   -0.1317   -3.2638    0.9282 H   0  0  0  0  0  0  0  0  0  0  0  0
    0.1124    0.2056   -1.6251 H   0  0  0  0  0  0  0  0  0  0  0  0
   -2.2224    0.6792   -1.2428 H   0  0  0  0  0  0  0  0  0  0  0  0
   -3.2311    1.3308    1.9026 H   0  0  0  0  0  0  0  0  0  0  0  0
   -6.6997    2.6766   -1.3823 H   0  0  0  0  0  0  0  0  0  0  0  0
   -2.0992   -3.6693    1.8066 H   0  0  0  0  0  0  0  0  0  0  0  0
   -4.0842    3.6456    1.8771 H   0  0  0  0  0  0  0  0  0  0  0  0
   -5.8190    4.3184    0.2366 H   0  0  0  0  0  0  0  0  0  0  0  0
   -6.6182    0.6067   -2.1170 H   0  0  0  0  0  0  0  0  0  0  0  0
  1 11  1  0  0  0  0
  1 13  1  0  0  0  0
  2 17  1  0  0  0  0
  2 48  1  0  0  0  0
  3 19  2  0  0  0  0
  4 21  1  0  0  0  0
  4 51  1  0  0  0  0
  5  6  1  0  0  0  0
  5  7  1  0  0  0  0
  5 26  1  0  0  0  0
  5 27  1  0  0  0  0
  6  8  1  0  0  0  0
  6 28  1  0  0  0  0
  6 29  1  0  0  0  0
  7  9  1  0  0  0  0
  7 30  1  0  0  0  0
  7 31  1  0  0  0  0
  8 10  1  0  0  0  0
  8 32  1  0  0  0  0
  8 33  1  0  0  0  0
  9 11  1  0  0  0  0
  9 34  1  0  0  0  0
  9 35  1  0  0  0  0
 10 12  1  0  0  0  0
 10 36  1  0  0  0  0
 10 37  1  0  0  0  0
 11 38  1  0  0  0  0
 11 39  1  0  0  0  0
 12 40  1  0  0  0  0
 12 41  1  0  0  0  0
 12 42  1  0  0  0  0
 13 14  2  0  0  0  0
 13 15  1  0  0  0  0
 14 17  1  0  0  0  0
 14 43  1  0  0  0  0
 15 18  2  0  0  0  0
 15 44  1  0  0  0  0
 16 17  2  0  0  0  0
 16 18  1  0  0  0  0
 16 19  1  0  0  0  0
 18 45  1  0  0  0  0
 19 20  1  0  0  0  0
 20 21  1  0  0  0  0
 20 22  2  0  0  0  0
 21 23  2  0  0  0  0
 22 24  1  0  0  0  0
 22 46  1  0  0  0  0
 23 25  1  0  0  0  0
 23 47  1  0  0  0  0
 24 25  2  0  0  0  0
 24 49  1  0  0  0  0
 25 50  1  0  0  0  0
M  END
> <PUBCHEM_COMPOUND_CID>
6801

> <PUBCHEM_CONFORMER_RMSD>
1

> <PUBCHEM_CONFORMER_DIVERSEORDER>
1
258
237
91
47
389
14
293
354
85
395
396
335
280
360
265
346
145
5
325
232
345
312
281
75
393
257
413
229
407
375
187
89
177
410
267
144
132
300
240
247
351
315
285
12
200
277
41
93
209
23
217
49
307
274
317
128
222
349
120
72
388
381
84
412
399
4
76
301
32
343
170
361
54
245
270
376
297
199
262
122
252
118
391
44
159
103
153
22
249
296
214
241
168
188
182
330
283
295
392
386
411
140
7
352
104
181
309
250
363
332
25
129
97
213
121
341
191
319
27
110
26
119
20
253
11
248
126
269
288
273
67
397
106
344
290
372
243
356
99
45
380
223
234
387
221
266
340
276
175
70
284
357
71
64
230
66
366
69
338
310
398
98
359
36
180
96
141
320
92
154
151
156
334
107
350
235
16
206
219
127
8
147
48
63
370
326
58
272
259
173
379
409
136
382
113
35
342
81
190
133
130
401
165
220
353
348
193
29
101
112
51
225
2
109
131
174
264
261
10
408
339
358
292
65
212
197
233
364
178
202
347
365
279
50
123
78
143
377
56
61
194
155
40
134
246
228
139
94
227
160
82
184
298
31
74
114
6
329
373
289
52
80
406
394
77
3
179
384
208
374
189
405
256
251
318
278
244
333
402
355
105
322
152
305
239
166
400
314
55
198
224
369
185
115
167
161
30
203
236
37
327
287
282
367
331
95
87
90
21
306
195
42
163
207
73
210
43
148
271
53
231
17
39
62
205
138
46
294
34
117
403
79
19
316
211
162
146
390
302
308
172
321
9
68
100
218
102
108
33
60
135
311
323
18
149
336
83
24
183
313
291
254
242
260
324
263
158
176
38
368
186
59
215
28
15
404
299
192
57
171
362
125
226
238
86
304
275
303
124
164
88
169
204
116
371
255
337
216
137
268
328
378
383
150
142
385
13
286
201
111
196
157

> <PUBCHEM_MMFF94_PARTIAL_CHARGES>
27
1 -0.36
11 0.28
13 0.08
14 -0.15
15 -0.15
16 0.09
17 0.08
18 -0.15
19 0.4
2 -0.53
20 0.09
21 0.08
22 -0.15
23 -0.15
24 -0.15
25 -0.15
3 -0.57
4 -0.53
43 0.15
44 0.15
45 0.15
46 0.15
47 0.15
48 0.45
49 0.15
50 0.15
51 0.45

> <PUBCHEM_EFFECTIVE_ROTOR_COUNT>
10

> <PUBCHEM_PHARMACOPHORE_FEATURES>
9
1 1 acceptor
1 12 hydrophobe
1 2 donor
1 3 acceptor
1 4 donor
3 5 7 9 hydrophobe
3 6 8 10 hydrophobe
6 13 14 15 16 17 18 rings
6 20 21 22 23 24 25 rings

> <PUBCHEM_HEAVY_ATOM_COUNT>
25

> <PUBCHEM_ATOM_DEF_STEREO_COUNT>
0

> <PUBCHEM_ATOM_UDEF_STEREO_COUNT>
0

> <PUBCHEM_BOND_DEF_STEREO_COUNT>
0

> <PUBCHEM_BOND_UDEF_STEREO_COUNT>
0

> <PUBCHEM_ISOTOPIC_ATOM_COUNT>
0

> <PUBCHEM_COMPONENT_COUNT>
1

> <PUBCHEM_CACTVS_TAUTO_COUNT>
24

> <PUBCHEM_CONFORMER_ID>
00001A9100000001

> <PUBCHEM_MMFF94_ENERGY>
63.7035

> <PUBCHEM_FEATURE_SELFOVERLAP>
45.681

> <PUBCHEM_SHAPE_FINGERPRINT>
10411042 1 17907293253062269523
10835480 77 18408885153257156998
10883706 163 18202282524146324532
11135609 201 18264759034732159225
11315181 36 18410856542459926887
11477941 20 17895204281585750197
11607047 191 12462751619595581991
125118 31 18339359666343419100
13668630 136 10591769788356627020
13782708 43 9799403387508925382
14150023 24 18040156215628342270
14347424 109 18341618179074989154
14598715 104 18113908143793030384
14729087 3 18335421258145941572
15289351 153 18261114115200199978
15350500 55 18333449842677359502
15461852 350 17676492713816049470
17093844 174 18341330011779264154
1818759 1 12751243632385861048
18643901 69 9079116674363953008
21130935 74 18272931648627357362
21307412 95 7276247420104584397
21756936 100 18410014325169781414
22288116 15 15647341809842601948
23522609 53 17130401551294042846
23559900 14 18119802771026162999
2748736 6 18411420635223081596
2838139 119 18260551134037412357
393628 179 18113911446533632448
4169191 19 18412266151254105516
437795 83 17313097584033559320
44802255 64 17385724686117865694
5104073 3 17988917920298899419
54039377 194 7420939898512262893
54728670 133 15051469257350634911
5937810 71 17240756328416486408
636775 72 18409167701844478920
636775 8 6699804319731281564
7970288 3 8501212220745182573
9953998 17 17703794691830880422
9995097 26 10375870793491844648
999808 66 12247681565522658592

> <PUBCHEM_SHAPE_MULTIPOLES>
491.01
27.3
3.21
1.08
88.23
0.84
0.04
25.27
2.55
-5.06
1.07
-1.1
-0.03
0.92

> <PUBCHEM_SHAPE_SELFOVERLAP>
1018.984

> <PUBCHEM_SHAPE_VOLUME>
280.6

> <PUBCHEM_COORDINATE_TYPE>
2
5
10

$$$$

