75795
  -OEChem-07051212513D

 11 10  0     0  0  0  0  0  0999 V2000
   -0.4542   -0.1057   -0.0214 P   0  0  0  0  0  0  0  0  0  0  0  0
   -0.5210    0.2927    1.5437 O   0  0  0  0  0  0  0  0  0  0  0  0
   -1.5948    0.8245   -0.6893 O   0  0  0  0  0  0  0  0  0  0  0  0
    2.0926   -0.0810    0.0615 O   0  0  0  0  0  0  0  0  0  0  0  0
   -0.5800   -1.5713   -0.3130 O   0  0  0  0  0  0  0  0  0  0  0  0
    1.0574    0.6408   -0.5815 C   0  0  0  0  0  0  0  0  0  0  0  0
    1.1703    0.5444   -1.6646 H   0  0  0  0  0  0  0  0  0  0  0  0
    1.1196    1.6949   -0.2984 H   0  0  0  0  0  0  0  0  0  0  0  0
   -1.2681   -0.0382    2.0864 H   0  0  0  0  0  0  0  0  0  0  0  0
   -2.5377    0.5909   -0.5535 H   0  0  0  0  0  0  0  0  0  0  0  0
    2.9352    0.3058   -0.2315 H   0  0  0  0  0  0  0  0  0  0  0  0
  1  2  1  0  0  0  0
  1  3  1  0  0  0  0
  1  5  2  0  0  0  0
  1  6  1  0  0  0  0
  2  9  1  0  0  0  0
  3 10  1  0  0  0  0
  4  6  1  0  0  0  0
  4 11  1  0  0  0  0
  6  7  1  0  0  0  0
  6  8  1  0  0  0  0
M  END
> <PUBCHEM_COMPOUND_CID>
75795

> <PUBCHEM_CONFORMER_RMSD>
0.4

> <PUBCHEM_CONFORMER_DIVERSEORDER>
1

> <PUBCHEM_MMFF94_PARTIAL_CHARGES>
9
1 1.24
10 0.5
11 0.4
2 -0.77
3 -0.77
4 -0.68
5 -0.7
6 0.28
9 0.5

> <PUBCHEM_EFFECTIVE_ROTOR_COUNT>
1

> <PUBCHEM_PHARMACOPHORE_FEATURES>
6
1 2 acceptor
1 3 acceptor
1 4 acceptor
1 4 donor
1 5 acceptor
4 1 2 3 5 anion

> <PUBCHEM_HEAVY_ATOM_COUNT>
6

> <PUBCHEM_ATOM_DEF_STEREO_COUNT>
0

> <PUBCHEM_ATOM_UDEF_STEREO_COUNT>
0

> <PUBCHEM_BOND_DEF_STEREO_COUNT>
0

> <PUBCHEM_BOND_UDEF_STEREO_COUNT>
0

> <PUBCHEM_ISOTOPIC_ATOM_COUNT>
0

> <PUBCHEM_COMPONENT_COUNT>
1

> <PUBCHEM_CACTVS_TAUTO_COUNT>
1

> <PUBCHEM_CONFORMER_ID>
0001281300000001

> <PUBCHEM_MMFF94_ENERGY>
-26.1509

> <PUBCHEM_FEATURE_SELFOVERLAP>
30.484

> <PUBCHEM_SHAPE_FINGERPRINT>
139733 1 10446004202234359126
20096714 4 17775011218722374332
24536 1 17532069658099881620
29004967 10 17194876736114430379
5943 1 9141673117621678875

> <PUBCHEM_SHAPE_MULTIPOLES>
103.85
1.9
1.11
1.04
0.9
0.14
-0.45
-0.26
0.14
-0.31
0.31
-0.27
0.11
-0.03

> <PUBCHEM_SHAPE_SELFOVERLAP>
171.713

> <PUBCHEM_SHAPE_VOLUME>
71.7

> <PUBCHEM_COORDINATE_TYPE>
2
5
10

$$$$

