5281660
  -OEChem-07051212583D

 33 35  0     0  0  0  0  0  0999 V2000
    0.1364    1.2499    0.1470 O   0  0  0  0  0  0  0  0  0  0  0  0
    2.3428    2.8138    0.2929 O   0  0  0  0  0  0  0  0  0  0  0  0
    0.4235   -2.8233   -0.1169 O   0  0  0  0  0  0  0  0  0  0  0  0
   -4.6005    1.0680    0.0410 O   0  0  0  0  0  0  0  0  0  0  0  0
   -2.1842   -3.0108   -0.1825 O   0  0  0  0  0  0  0  0  0  0  0  0
    3.0324   -2.6514   -0.0557 O   0  0  0  0  0  0  0  0  0  0  0  0
    1.5318   -0.7513    0.0404 C   0  0  0  0  0  0  0  0  0  0  0  0
   -0.9647   -0.9235   -0.0193 C   0  0  0  0  0  0  0  0  0  0  0  0
    1.3615    0.6299    0.1291 C   0  0  0  0  0  0  0  0  0  0  0  0
   -0.9898    0.4679    0.0726 C   0  0  0  0  0  0  0  0  0  0  0  0
    0.3377   -1.6067   -0.0392 C   0  0  0  0  0  0  0  0  0  0  0  0
   -2.1550   -1.6519   -0.0911 C   0  0  0  0  0  0  0  0  0  0  0  0
    2.4812    1.4606    0.2062 C   0  0  0  0  0  0  0  0  0  0  0  0
    2.8127   -1.3095    0.0290 C   0  0  0  0  0  0  0  0  0  0  0  0
   -2.2153    1.1371    0.0926 C   0  0  0  0  0  0  0  0  0  0  0  0
   -3.4066    0.4140    0.0215 C   0  0  0  0  0  0  0  0  0  0  0  0
   -3.3761   -0.9777   -0.0702 C   0  0  0  0  0  0  0  0  0  0  0  0
    3.7623    0.9081    0.1943 C   0  0  0  0  0  0  0  0  0  0  0  0
    3.9274   -0.4744    0.1063 C   0  0  0  0  0  0  0  0  0  0  0  0
    2.3021    3.5404   -0.9333 C   0  0  0  0  0  0  0  0  0  0  0  0
   -4.5597    2.4908    0.1353 C   0  0  0  0  0  0  0  0  0  0  0  0
   -2.1776    2.2192    0.1650 H   0  0  0  0  0  0  0  0  0  0  0  0
   -4.3075   -1.5363   -0.1257 H   0  0  0  0  0  0  0  0  0  0  0  0
    4.6375    1.5495    0.2547 H   0  0  0  0  0  0  0  0  0  0  0  0
    4.9339   -0.8849    0.0990 H   0  0  0  0  0  0  0  0  0  0  0  0
   -1.2839   -3.3699   -0.1896 H   0  0  0  0  0  0  0  0  0  0  0  0
    3.9893   -2.8245   -0.0481 H   0  0  0  0  0  0  0  0  0  0  0  0
    1.4569    3.2146   -1.5479 H   0  0  0  0  0  0  0  0  0  0  0  0
    3.2388    3.4133   -1.4852 H   0  0  0  0  0  0  0  0  0  0  0  0
    2.1755    4.6009   -0.6991 H   0  0  0  0  0  0  0  0  0  0  0  0
   -4.1084    2.8193    1.0778 H   0  0  0  0  0  0  0  0  0  0  0  0
   -5.5961    2.8441    0.1380 H   0  0  0  0  0  0  0  0  0  0  0  0
   -4.0723    2.9386   -0.7375 H   0  0  0  0  0  0  0  0  0  0  0  0
  1  9  1  0  0  0  0
  1 10  1  0  0  0  0
  2 13  1  0  0  0  0
  2 20  1  0  0  0  0
  3 11  2  0  0  0  0
  4 16  1  0  0  0  0
  4 21  1  0  0  0  0
  5 12  1  0  0  0  0
  5 26  1  0  0  0  0
  6 14  1  0  0  0  0
  6 27  1  0  0  0  0
  7  9  1  0  0  0  0
  7 11  1  0  0  0  0
  7 14  2  0  0  0  0
  8 10  1  0  0  0  0
  8 11  1  0  0  0  0
  8 12  2  0  0  0  0
  9 13  2  0  0  0  0
 10 15  2  0  0  0  0
 12 17  1  0  0  0  0
 13 18  1  0  0  0  0
 14 19  1  0  0  0  0
 15 16  1  0  0  0  0
 15 22  1  0  0  0  0
 16 17  2  0  0  0  0
 17 23  1  0  0  0  0
 18 19  2  0  0  0  0
 18 24  1  0  0  0  0
 19 25  1  0  0  0  0
 20 28  1  0  0  0  0
 20 29  1  0  0  0  0
 20 30  1  0  0  0  0
 21 31  1  0  0  0  0
 21 32  1  0  0  0  0
 21 33  1  0  0  0  0
M  END
> <PUBCHEM_COMPOUND_CID>
5281660

> <PUBCHEM_CONFORMER_RMSD>
0.6

> <PUBCHEM_CONFORMER_DIVERSEORDER>
1
2

> <PUBCHEM_MMFF94_PARTIAL_CHARGES>
27
1 -0.17
10 0.08
11 0.4
12 0.08
13 0.08
14 0.08
15 -0.15
16 0.08
17 -0.15
18 -0.15
19 -0.15
2 -0.36
20 0.28
21 0.28
22 0.15
23 0.15
24 0.15
25 0.15
26 0.45
27 0.45
3 -0.57
4 -0.36
5 -0.53
6 -0.53
7 0.09
8 0.09
9 0.08

> <PUBCHEM_EFFECTIVE_ROTOR_COUNT>
2

> <PUBCHEM_PHARMACOPHORE_FEATURES>
9
1 1 acceptor
1 2 acceptor
1 3 acceptor
1 4 acceptor
1 5 donor
1 6 donor
6 1 7 8 9 10 11 rings
6 7 9 13 14 18 19 rings
6 8 10 12 15 16 17 rings

> <PUBCHEM_HEAVY_ATOM_COUNT>
21

> <PUBCHEM_ATOM_DEF_STEREO_COUNT>
0

> <PUBCHEM_ATOM_UDEF_STEREO_COUNT>
0

> <PUBCHEM_BOND_DEF_STEREO_COUNT>
0

> <PUBCHEM_BOND_UDEF_STEREO_COUNT>
0

> <PUBCHEM_ISOTOPIC_ATOM_COUNT>
0

> <PUBCHEM_COMPONENT_COUNT>
1

> <PUBCHEM_CACTVS_TAUTO_COUNT>
18

> <PUBCHEM_CONFORMER_ID>
0050977C00000001

> <PUBCHEM_MMFF94_ENERGY>
85.0858

> <PUBCHEM_FEATURE_SELFOVERLAP>
45.733

> <PUBCHEM_SHAPE_FINGERPRINT>
10411042 1 17112692047928785511
10608611 8 18410577245137234345
10616163 171 18265050236828911439
10967382 1 18337954605349589650
11471102 20 18337676433086529189
12173636 292 18121503444851622037
12403260 363 18267035959223810414
13140716 1 18411142411230373256
13583140 156 17346331396676965441
138480 1 17977665634375041386
14022347 108 18124868217026745226
14178342 30 18266197049242436706
14223421 5 18267581299674161691
14790565 3 18266166426047280524
15196674 1 18409449215063951315
15442244 35 18337392741948956850
15475509 8 17319551862762999967
15536298 74 18333452049494256594
1601671 61 18412261766161191292
16945 1 18337670918253809426
17492 89 18338517443407910907
18186145 218 18187633691846995648
19591789 44 17906451378508196028
20510252 161 17902225616136164481
20739085 24 17760623147211371289
21267235 1 18337946805536415011
21501502 16 18338519612344302446
221490 88 18340198575664903650
23227448 37 18409451379959350071
2334 1 18265333897896152130
23366157 5 18130510730411546194
23463225 33 18411139125759843458
23558518 356 18127414453658857162
23559900 14 18333453157954495650
2748010 2 18338515244420818606
335352 9 18265615570531334878
34934 24 18410580621382670082
350125 39 18338792299912916569
474 4 18411981368925918369
495365 180 17313684701445551802
5104073 3 18410856589979193027
543358 83 18337668715136007688
5939293 188 18410296951587720928
6443956 14 18267017456652340572
7364860 26 18336264557504627992
7832392 63 18409732867646888910
9709674 26 18409164385565133071
9981440 41 17908429052451121648
9999458 23 18272929461939337711

> <PUBCHEM_SHAPE_MULTIPOLES>
396.95
7.73
3.6
0.65
4.05
0.74
0.04
3.01
-0.26
-0.82
0.54
-0.11
0.17
-0.4

> <PUBCHEM_SHAPE_SELFOVERLAP>
887.363

> <PUBCHEM_SHAPE_VOLUME>
210.4

> <PUBCHEM_COORDINATE_TYPE>
2
5
10

$$$$

