17395753
  -OEChem-06241222522D

 28 29  0     0  0  0  0  0  0999 V2000
    4.2601   -0.5468    0.0000 S   0  0  0  0  0  0  0  0  0  0  0  0
    2.5790    2.0418    0.0000 S   0  0  0  0  0  0  0  0  0  0  0  0
    2.0000   -1.8068    0.0000 O   0  0  0  0  0  0  0  0  0  0  0  0
    3.7601   -2.0856    0.0000 N   0  0  0  0  0  0  0  0  0  0  0  0
    5.9360   -3.7631    0.0000 N   0  0  0  0  0  0  0  0  0  0  0  0
    7.0064   -0.4686    0.0000 N   0  0  0  0  0  0  0  0  0  0  0  0
    3.2601   -0.5468    0.0000 C   0  0  0  0  0  0  0  0  0  0  0  0
    2.9511   -1.4978    0.0000 C   0  0  0  0  0  0  0  0  0  0  0  0
    4.5691   -1.4978    0.0000 C   0  0  0  0  0  0  0  0  0  0  0  0
    2.6723    0.2623    0.0000 C   0  0  0  0  0  0  0  0  0  0  0  0
    3.0790    1.1758    0.0000 C   0  0  0  0  0  0  0  0  0  0  0  0
    3.7601   -3.0856    0.0000 C   0  0  0  0  0  0  0  0  0  0  0  0
    4.0572    1.3837    0.0000 C   0  0  0  0  0  0  0  0  0  0  0  0
    3.2482    2.7850    0.0000 C   0  0  0  0  0  0  0  0  0  0  0  0
    4.1617    2.3782    0.0000 C   0  0  0  0  0  0  0  0  0  0  0  0
    5.5202   -1.8068    0.0000 C   0  0  0  0  0  0  0  0  0  0  0  0
    3.0402    3.7631    0.0000 C   0  0  0  0  0  0  0  0  0  0  0  0
    6.2633   -1.1377    0.0000 C   0  0  0  0  0  0  0  0  0  0  0  0
    5.7281   -2.7850    0.0000 C   0  0  0  0  0  0  0  0  0  0  0  0
    2.0557    0.1975    0.0000 H   0  0  0  0  0  0  0  0  0  0  0  0
    3.1401   -3.0856    0.0000 H   0  0  0  0  0  0  0  0  0  0  0  0
    3.7601   -3.7056    0.0000 H   0  0  0  0  0  0  0  0  0  0  0  0
    4.3801   -3.0856    0.0000 H   0  0  0  0  0  0  0  0  0  0  0  0
    4.5179    0.9689    0.0000 H   0  0  0  0  0  0  0  0  0  0  0  0
    4.6986    2.6882    0.0000 H   0  0  0  0  0  0  0  0  0  0  0  0
    3.6467    3.8920    0.0000 H   0  0  0  0  0  0  0  0  0  0  0  0
    2.9113    4.3696    0.0000 H   0  0  0  0  0  0  0  0  0  0  0  0
    2.4338    3.6342    0.0000 H   0  0  0  0  0  0  0  0  0  0  0  0
  1  7  1  0  0  0  0
  1  9  1  0  0  0  0
  2 11  1  0  0  0  0
  2 14  1  0  0  0  0
  3  8  2  0  0  0  0
  4  8  1  0  0  0  0
  4  9  1  0  0  0  0
  4 12  1  0  0  0  0
  5 19  3  0  0  0  0
  6 18  3  0  0  0  0
  7  8  1  0  0  0  0
  7 10  2  0  0  0  0
  9 16  2  0  0  0  0
 10 11  1  0  0  0  0
 10 20  1  0  0  0  0
 11 13  2  0  0  0  0
 12 21  1  0  0  0  0
 12 22  1  0  0  0  0
 12 23  1  0  0  0  0
 13 15  1  0  0  0  0
 13 24  1  0  0  0  0
 14 15  2  0  0  0  0
 14 17  1  0  0  0  0
 15 25  1  0  0  0  0
 16 18  1  0  0  0  0
 16 19  1  0  0  0  0
 17 26  1  0  0  0  0
 17 27  1  0  0  0  0
 17 28  1  0  0  0  0
M  END
> <PUBCHEM_COMPOUND_CID>
17395753

> <PUBCHEM_COMPOUND_CANONICALIZED>
1

> <PUBCHEM_CACTVS_COMPLEXITY>
557

> <PUBCHEM_CACTVS_HBOND_ACCEPTOR>
5

> <PUBCHEM_CACTVS_HBOND_DONOR>
0

> <PUBCHEM_CACTVS_ROTATABLE_BOND>
1

> <PUBCHEM_CACTVS_SUBSKEYS>
AAADccBzIABgAAAAAAAAAAAAAAAAAWJAAAAAAAAAAAAAAAABgAAAHgQAAAAADACB0AQyAYMAAAicBiFSUACjAIBgCBBIiBgIAMgIoCKgERCAAAAgggAoiYcAAAAAAAAAAAAAAAAAAAAAAAAAAAAAAAAAAA==

> <PUBCHEM_IUPAC_OPENEYE_NAME>
2-[(5Z)-3-methyl-5-[(5-methyl-2-thienyl)methylene]-4-oxo-thiazolidin-2-ylidene]propanedinitrile

> <PUBCHEM_IUPAC_CAS_NAME>
2-[(5Z)-3-methyl-5-[(5-methyl-2-thiophenyl)methylidene]-4-oxo-2-thiazolidinylidene]propanedinitrile

> <PUBCHEM_IUPAC_NAME>
2-[(5Z)-3-methyl-5-[(5-methylthiophen-2-yl)methylidene]-4-oxo-1,3-thiazolidin-2-ylidene]propanedinitrile

> <PUBCHEM_IUPAC_SYSTEMATIC_NAME>
2-[(5Z)-3-methyl-5-[(5-methylthiophen-2-yl)methylidene]-4-oxidanylidene-1,3-thiazolidin-2-ylidene]propanedinitrile

> <PUBCHEM_IUPAC_TRADITIONAL_NAME>
2-[(5Z)-4-keto-3-methyl-5-[(5-methyl-2-thienyl)methylene]thiazolidin-2-ylidene]malononitrile

> <PUBCHEM_IUPAC_INCHI>
InChI=1S/C13H9N3OS2/c1-8-3-4-10(18-8)5-11-12(17)16(2)13(19-11)9(6-14)7-15/h3-5H,1-2H3/b11-5-

> <PUBCHEM_IUPAC_INCHIKEY>
SBYNTWAXFBUUEK-WZUFQYTHSA-N

> <PUBCHEM_XLOGP3_AA>
2.3

> <PUBCHEM_EXACT_MASS>
287.018704

> <PUBCHEM_MOLECULAR_FORMULA>
C13H9N3OS2

> <PUBCHEM_MOLECULAR_WEIGHT>
287.36006

> <PUBCHEM_OPENEYE_CAN_SMILES>
CC1=CC=C(S1)C=C2C(=O)N(C(=C(C#N)C#N)S2)C

> <PUBCHEM_OPENEYE_ISO_SMILES>
CC1=CC=C(S1)/C=C\2/C(=O)N(C(=C(C#N)C#N)S2)C

> <PUBCHEM_CACTVS_TPSA>
121

> <PUBCHEM_MONOISOTOPIC_WEIGHT>
287.018704

> <PUBCHEM_TOTAL_CHARGE>
0

> <PUBCHEM_HEAVY_ATOM_COUNT>
19

> <PUBCHEM_ATOM_DEF_STEREO_COUNT>
0

> <PUBCHEM_ATOM_UDEF_STEREO_COUNT>
0

> <PUBCHEM_BOND_DEF_STEREO_COUNT>
1

> <PUBCHEM_BOND_UDEF_STEREO_COUNT>
0

> <PUBCHEM_ISOTOPIC_ATOM_COUNT>
0

> <PUBCHEM_COMPONENT_COUNT>
1

> <PUBCHEM_CACTVS_TAUTO_COUNT>
1

> <PUBCHEM_COORDINATE_TYPE>
1
5
255

> <PUBCHEM_BONDANNOTATIONS>
1  7  8
1  9  8
11  13  8
13  15  8
14  15  8
2  11  8
2  14  8
4  8  8
4  9  8
7  8  8

$$$$

