586086
  -OEChem-06241222452D

 44 44  0     1  0  0  0  0  0999 V2000
    5.9178   -1.1758    0.0000 O   0  0  0  0  0  0  0  0  0  0  0  0
    4.3802   -2.9880    0.0000 O   0  0  0  0  0  0  0  0  0  0  0  0
    5.1663   -2.7363    0.0000 O   0  0  0  0  0  0  0  0  0  0  0  0
    6.1420    1.5569    0.0000 O   0  0  0  0  0  0  0  0  0  0  0  0
    6.8936   -0.0036    0.0000 O   0  0  0  0  0  0  0  0  0  0  0  0
    4.1906   -1.3052    0.0000 C   0  0  3  0  0  0  0  0  0  0  0  0
    3.7568   -0.4043    0.0000 C   0  0  0  0  0  0  0  0  0  0  0  0
    2.7818   -0.1817    0.0000 C   0  0  0  0  0  0  0  0  0  0  0  0
    5.0916   -0.8713    0.0000 C   0  0  0  0  0  0  0  0  0  0  0  0
    3.7568   -2.2062    0.0000 C   0  0  0  0  0  0  0  0  0  0  0  0
    2.0000   -0.8052    0.0000 C   0  0  0  0  0  0  0  0  0  0  0  0
    2.7818   -2.4287    0.0000 C   0  0  0  0  0  0  0  0  0  0  0  0
    2.0000   -1.8052    0.0000 C   0  0  0  0  0  0  0  0  0  0  0  0
    5.0916   -1.7391    0.0000 C   0  0  0  0  0  0  0  0  0  0  0  0
    5.1663    0.1259    0.0000 C   0  0  0  0  0  0  0  0  0  0  0  0
    6.0673    0.5597    0.0000 C   0  0  0  0  0  0  0  0  0  0  0  0
    6.8188   -1.6097    0.0000 C   0  0  0  0  0  0  0  0  0  0  0  0
    6.8936   -2.6069    0.0000 C   0  0  0  0  0  0  0  0  0  0  0  0
    7.0430    1.9908    0.0000 C   0  0  0  0  0  0  0  0  0  0  0  0
    7.1177    2.9880    0.0000 C   0  0  0  0  0  0  0  0  0  0  0  0
    4.3612   -0.2663    0.0000 H   0  0  0  0  0  0  0  0  0  0  0  0
    3.7568    0.2157    0.0000 H   0  0  0  0  0  0  0  0  0  0  0  0
    3.0508    0.3769    0.0000 H   0  0  0  0  0  0  0  0  0  0  0  0
    2.2971    0.2048    0.0000 H   0  0  0  0  0  0  0  0  0  0  0  0
    5.2595   -1.4682    0.0000 H   0  0  0  0  0  0  0  0  0  0  0  0
    5.7085   -0.8096    0.0000 H   0  0  0  0  0  0  0  0  0  0  0  0
    1.7310   -0.2466    0.0000 H   0  0  0  0  0  0  0  0  0  0  0  0
    1.3955   -0.9432    0.0000 H   0  0  0  0  0  0  0  0  0  0  0  0
    2.2971   -2.8153    0.0000 H   0  0  0  0  0  0  0  0  0  0  0  0
    3.0508   -2.9873    0.0000 H   0  0  0  0  0  0  0  0  0  0  0  0
    1.3955   -1.6673    0.0000 H   0  0  0  0  0  0  0  0  0  0  0  0
    1.7310   -2.3638    0.0000 H   0  0  0  0  0  0  0  0  0  0  0  0
    4.9984    0.7227    0.0000 H   0  0  0  0  0  0  0  0  0  0  0  0
    4.5494    0.0641    0.0000 H   0  0  0  0  0  0  0  0  0  0  0  0
    7.4357   -1.6714    0.0000 H   0  0  0  0  0  0  0  0  0  0  0  0
    6.9867   -1.0128    0.0000 H   0  0  0  0  0  0  0  0  0  0  0  0
    6.2753   -2.6532    0.0000 H   0  0  0  0  0  0  0  0  0  0  0  0
    6.9399   -3.2252    0.0000 H   0  0  0  0  0  0  0  0  0  0  0  0
    7.5118   -2.5606    0.0000 H   0  0  0  0  0  0  0  0  0  0  0  0
    7.2109    1.3940    0.0000 H   0  0  0  0  0  0  0  0  0  0  0  0
    7.6599    2.0526    0.0000 H   0  0  0  0  0  0  0  0  0  0  0  0
    7.7360    2.9417    0.0000 H   0  0  0  0  0  0  0  0  0  0  0  0
    7.1641    3.6063    0.0000 H   0  0  0  0  0  0  0  0  0  0  0  0
    6.4995    3.0344    0.0000 H   0  0  0  0  0  0  0  0  0  0  0  0
  1 14  1  0  0  0  0
  1 17  1  0  0  0  0
  2 10  2  0  0  0  0
  3 14  2  0  0  0  0
  4 16  1  0  0  0  0
  4 19  1  0  0  0  0
  5 16  2  0  0  0  0
  6  7  1  0  0  0  0
  6  9  1  0  0  0  0
  6 10  1  0  0  0  0
  6 14  1  0  0  0  0
  7  8  1  0  0  0  0
  7 21  1  0  0  0  0
  7 22  1  0  0  0  0
  8 11  1  0  0  0  0
  8 23  1  0  0  0  0
  8 24  1  0  0  0  0
  9 15  1  0  0  0  0
  9 25  1  0  0  0  0
  9 26  1  0  0  0  0
 10 12  1  0  0  0  0
 11 13  1  0  0  0  0
 11 27  1  0  0  0  0
 11 28  1  0  0  0  0
 12 13  1  0  0  0  0
 12 29  1  0  0  0  0
 12 30  1  0  0  0  0
 13 31  1  0  0  0  0
 13 32  1  0  0  0  0
 15 16  1  0  0  0  0
 15 33  1  0  0  0  0
 15 34  1  0  0  0  0
 17 18  1  0  0  0  0
 17 35  1  0  0  0  0
 17 36  1  0  0  0  0
 18 37  1  0  0  0  0
 18 38  1  0  0  0  0
 18 39  1  0  0  0  0
 19 20  1  0  0  0  0
 19 40  1  0  0  0  0
 19 41  1  0  0  0  0
 20 42  1  0  0  0  0
 20 43  1  0  0  0  0
 20 44  1  0  0  0  0
M  END
> <PUBCHEM_COMPOUND_CID>
586086

> <PUBCHEM_COMPOUND_CANONICALIZED>
1

> <PUBCHEM_CACTVS_COMPLEXITY>
363

> <PUBCHEM_CACTVS_HBOND_ACCEPTOR>
5

> <PUBCHEM_CACTVS_HBOND_DONOR>
0

> <PUBCHEM_CACTVS_ROTATABLE_BOND>
8

> <PUBCHEM_CACTVS_SUBSKEYS>
AAADceBwOAAAAAAAAAAAAAAAAAAAAAAAAAAAAAAABgAAAAAAAAAAGgAAAAAADgSggAICCAAABAAIAICQCAAAAAAAAAAAAAEAAAAAABYIAAACAAAEIAAAAAGI7uivAAAAAAAAAAAAAAAAAAAAAAAAAAAAAA==

> <PUBCHEM_IUPAC_OPENEYE_NAME>
ethyl 1-(3-ethoxy-3-oxo-propyl)-2-oxo-cycloheptanecarboxylate

> <PUBCHEM_IUPAC_CAS_NAME>
1-(3-ethoxy-3-oxopropyl)-2-oxo-1-cycloheptanecarboxylic acid ethyl ester

> <PUBCHEM_IUPAC_NAME>
ethyl 1-(3-ethoxy-3-oxopropyl)-2-oxocycloheptane-1-carboxylate

> <PUBCHEM_IUPAC_SYSTEMATIC_NAME>
ethyl 1-(3-ethoxy-3-oxidanylidene-propyl)-2-oxidanylidene-cycloheptane-1-carboxylate

> <PUBCHEM_IUPAC_TRADITIONAL_NAME>
1-(3-ethoxy-3-keto-propyl)-2-keto-cycloheptanecarboxylic acid ethyl ester

> <PUBCHEM_IUPAC_INCHI>
InChI=1S/C15H24O5/c1-3-19-13(17)9-11-15(14(18)20-4-2)10-7-5-6-8-12(15)16/h3-11H2,1-2H3

> <PUBCHEM_IUPAC_INCHIKEY>
NDAVHJYMJQMSDH-UHFFFAOYSA-N

> <PUBCHEM_XLOGP3_AA>
2.3

> <PUBCHEM_EXACT_MASS>
284.162374

> <PUBCHEM_MOLECULAR_FORMULA>
C15H24O5

> <PUBCHEM_MOLECULAR_WEIGHT>
284.34806

> <PUBCHEM_OPENEYE_CAN_SMILES>
CCOC(=O)CCC1(CCCCCC1=O)C(=O)OCC

> <PUBCHEM_OPENEYE_ISO_SMILES>
CCOC(=O)CCC1(CCCCCC1=O)C(=O)OCC

> <PUBCHEM_CACTVS_TPSA>
69.7

> <PUBCHEM_MONOISOTOPIC_WEIGHT>
284.162374

> <PUBCHEM_TOTAL_CHARGE>
0

> <PUBCHEM_HEAVY_ATOM_COUNT>
20

> <PUBCHEM_ATOM_DEF_STEREO_COUNT>
0

> <PUBCHEM_ATOM_UDEF_STEREO_COUNT>
1

> <PUBCHEM_BOND_DEF_STEREO_COUNT>
0

> <PUBCHEM_BOND_UDEF_STEREO_COUNT>
0

> <PUBCHEM_ISOTOPIC_ATOM_COUNT>
0

> <PUBCHEM_COMPONENT_COUNT>
1

> <PUBCHEM_CACTVS_TAUTO_COUNT>
2

> <PUBCHEM_COORDINATE_TYPE>
1
5
255

> <PUBCHEM_BONDANNOTATIONS>
6  9  3

$$$$

