87752
  -OEChem-07051213002D

 43 45  0     1  0  0  0  0  0999 V2000
    2.8660   -0.4827    0.0000 O   0  0  0  0  0  0  0  0  0  0  0  0
    4.5981    2.5173    0.0000 O   0  0  0  0  0  0  0  0  0  0  0  0
    5.4641   -1.9827    0.0000 N   0  0  3  0  0  0  0  0  0  0  0  0
    3.7320    1.0173    0.0000 N   0  0  0  0  0  0  0  0  0  0  0  0
    5.4641   -0.9827    0.0000 C   0  0  1  0  0  0  0  0  0  0  0  0
    4.5981   -0.4827    0.0000 C   0  0  2  0  0  0  0  0  0  0  0  0
    6.3580   -0.4480    0.0000 C   0  0  0  0  0  0  0  0  0  0  0  0
    3.7320   -0.9827    0.0000 C   0  0  0  0  0  0  0  0  0  0  0  0
    4.5981   -2.4827    0.0000 C   0  0  0  0  0  0  0  0  0  0  0  0
    3.7320   -1.9827    0.0000 C   0  0  0  0  0  0  0  0  0  0  0  0
    6.3580   -2.5173    0.0000 C   0  0  0  0  0  0  0  0  0  0  0  0
    7.2641   -0.9619    0.0000 C   0  0  0  0  0  0  0  0  0  0  0  0
    4.5981    0.5173    0.0000 C   0  0  0  0  0  0  0  0  0  0  0  0
    7.2641   -2.0035    0.0000 C   0  0  0  0  0  0  0  0  0  0  0  0
    3.7320    2.0173    0.0000 C   0  0  0  0  0  0  0  0  0  0  0  0
    2.8660    0.5173    0.0000 C   0  0  0  0  0  0  0  0  0  0  0  0
    2.8660    2.5173    0.0000 C   0  0  0  0  0  0  0  0  0  0  0  0
    2.0000    1.0173    0.0000 C   0  0  0  0  0  0  0  0  0  0  0  0
    2.0000    2.0173    0.0000 C   0  0  0  0  0  0  0  0  0  0  0  0
    5.4576   -0.1327    0.0000 H   0  0  0  0  0  0  0  0  0  0  0  0
    5.1350   -0.1727    0.0000 H   0  0  0  0  0  0  0  0  0  0  0  0
    6.7517    0.0310    0.0000 H   0  0  0  0  0  0  0  0  0  0  0  0
    5.9534    0.0218    0.0000 H   0  0  0  0  0  0  0  0  0  0  0  0
    3.5200   -0.4001    0.0000 H   0  0  0  0  0  0  0  0  0  0  0  0
    3.1215   -1.0903    0.0000 H   0  0  0  0  0  0  0  0  0  0  0  0
    4.1996   -2.9576    0.0000 H   0  0  0  0  0  0  0  0  0  0  0  0
    4.9966   -2.9576    0.0000 H   0  0  0  0  0  0  0  0  0  0  0  0
    3.1215   -1.8750    0.0000 H   0  0  0  0  0  0  0  0  0  0  0  0
    3.5200   -2.5653    0.0000 H   0  0  0  0  0  0  0  0  0  0  0  0
    5.9534   -2.9871    0.0000 H   0  0  0  0  0  0  0  0  0  0  0  0
    6.7517   -2.9964    0.0000 H   0  0  0  0  0  0  0  0  0  0  0  0
    5.2087    0.4097    0.0000 H   0  0  0  0  0  0  0  0  0  0  0  0
    4.8101    1.0999    0.0000 H   0  0  0  0  0  0  0  0  0  0  0  0
    7.8750   -1.0680    0.0000 H   0  0  0  0  0  0  0  0  0  0  0  0
    7.4732   -0.3782    0.0000 H   0  0  0  0  0  0  0  0  0  0  0  0
    7.4732   -2.5872    0.0000 H   0  0  0  0  0  0  0  0  0  0  0  0
    7.8750   -1.8974    0.0000 H   0  0  0  0  0  0  0  0  0  0  0  0
    3.2646    2.9923    0.0000 H   0  0  0  0  0  0  0  0  0  0  0  0
    2.4675    2.9923    0.0000 H   0  0  0  0  0  0  0  0  0  0  0  0
    1.3894    1.1250    0.0000 H   0  0  0  0  0  0  0  0  0  0  0  0
    1.7880    0.4347    0.0000 H   0  0  0  0  0  0  0  0  0  0  0  0
    1.7880    2.5999    0.0000 H   0  0  0  0  0  0  0  0  0  0  0  0
    1.3894    1.9097    0.0000 H   0  0  0  0  0  0  0  0  0  0  0  0
  1 16  2  0  0  0  0
  2 15  2  0  0  0  0
  3  5  1  0  0  0  0
  3  9  1  0  0  0  0
  3 11  1  0  0  0  0
  4 13  1  0  0  0  0
  4 15  1  0  0  0  0
  4 16  1  0  0  0  0
  5  6  1  0  0  0  0
  5  7  1  0  0  0  0
  5 20  1  6  0  0  0
  6  8  1  0  0  0  0
  6 13  1  6  0  0  0
  6 21  1  0  0  0  0
  7 12  1  0  0  0  0
  7 22  1  0  0  0  0
  7 23  1  0  0  0  0
  8 10  1  0  0  0  0
  8 24  1  0  0  0  0
  8 25  1  0  0  0  0
  9 10  1  0  0  0  0
  9 26  1  0  0  0  0
  9 27  1  0  0  0  0
 10 28  1  0  0  0  0
 10 29  1  0  0  0  0
 11 14  1  0  0  0  0
 11 30  1  0  0  0  0
 11 31  1  0  0  0  0
 12 14  1  0  0  0  0
 12 34  1  0  0  0  0
 12 35  1  0  0  0  0
 13 32  1  0  0  0  0
 13 33  1  0  0  0  0
 14 36  1  0  0  0  0
 14 37  1  0  0  0  0
 15 17  1  0  0  0  0
 16 18  1  0  0  0  0
 17 19  1  0  0  0  0
 17 38  1  0  0  0  0
 17 39  1  0  0  0  0
 18 19  1  0  0  0  0
 18 40  1  0  0  0  0
 18 41  1  0  0  0  0
 19 42  1  0  0  0  0
 19 43  1  0  0  0  0
M  END
> <PUBCHEM_COMPOUND_CID>
87752

> <PUBCHEM_COMPOUND_CANONICALIZED>
1

> <PUBCHEM_CACTVS_COMPLEXITY>
353

> <PUBCHEM_CACTVS_HBOND_ACCEPTOR>
3

> <PUBCHEM_CACTVS_HBOND_DONOR>
0

> <PUBCHEM_CACTVS_ROTATABLE_BOND>
2

> <PUBCHEM_CACTVS_SUBSKEYS>
AAADceBzMAAAAAAAAAAAAAAAAAAAAAAAAAAsWLAAAAAAAACwAAAAHgAAAAAADSjBgAQAAAMAAAAIAAEQEAAAAAAAAAAAAAEIAAAAABIAwAAEAAAABiCAAAEYg8AOAAAAAAAAAAAAAAAAAAAAAAAAAAAAAA==

> <PUBCHEM_IUPAC_OPENEYE_NAME>
1-[[(1R,9aR)-2,3,4,6,7,8,9,9a-octahydro-1H-quinolizin-1-yl]methyl]piperidine-2,6-dione

> <PUBCHEM_IUPAC_CAS_NAME>
1-[[(1R,9aR)-2,3,4,6,7,8,9,9a-octahydro-1H-quinolizin-1-yl]methyl]piperidine-2,6-dione

> <PUBCHEM_IUPAC_NAME>
1-[[(1R,9aR)-2,3,4,6,7,8,9,9a-octahydro-1H-quinolizin-1-yl]methyl]piperidine-2,6-dione

> <PUBCHEM_IUPAC_SYSTEMATIC_NAME>
1-[[(1R,9aR)-2,3,4,6,7,8,9,9a-octahydro-1H-quinolizin-1-yl]methyl]piperidine-2,6-dione

> <PUBCHEM_IUPAC_TRADITIONAL_NAME>
1-[[(1R,9aR)-quinolizidin-1-yl]methyl]piperidine-2,6-quinone

> <PUBCHEM_IUPAC_INCHI>
InChI=1S/C15H24N2O2/c18-14-7-3-8-15(19)17(14)11-12-5-4-10-16-9-2-1-6-13(12)16/h12-13H,1-11H2/t12-,13-/m1/s1

> <PUBCHEM_IUPAC_INCHIKEY>
IFGFYNRAHYENJQ-CHWSQXEVSA-N

> <PUBCHEM_XLOGP3_AA>
1.2

> <PUBCHEM_EXACT_MASS>
264.183778

> <PUBCHEM_MOLECULAR_FORMULA>
C15H24N2O2

> <PUBCHEM_MOLECULAR_WEIGHT>
264.36326

> <PUBCHEM_OPENEYE_CAN_SMILES>
C1CCN2CCCC(C2C1)CN3C(=O)CCCC3=O

> <PUBCHEM_OPENEYE_ISO_SMILES>
C1CCN2CCC[C@@H]([C@H]2C1)CN3C(=O)CCCC3=O

> <PUBCHEM_CACTVS_TPSA>
40.6

> <PUBCHEM_MONOISOTOPIC_WEIGHT>
264.183778

> <PUBCHEM_TOTAL_CHARGE>
0

> <PUBCHEM_HEAVY_ATOM_COUNT>
19

> <PUBCHEM_ATOM_DEF_STEREO_COUNT>
2

> <PUBCHEM_ATOM_UDEF_STEREO_COUNT>
0

> <PUBCHEM_BOND_DEF_STEREO_COUNT>
0

> <PUBCHEM_BOND_UDEF_STEREO_COUNT>
0

> <PUBCHEM_ISOTOPIC_ATOM_COUNT>
0

> <PUBCHEM_COMPONENT_COUNT>
1

> <PUBCHEM_CACTVS_TAUTO_COUNT>
3

> <PUBCHEM_COORDINATE_TYPE>
1
5
255

> <PUBCHEM_BONDANNOTATIONS>
5  20  6
6  13  6

$$$$

