5321980
  -OEChem-07051213103D

 32 34  0     0  0  0  0  0  0999 V2000
    3.9434   -0.3154   -0.0001 O   0  0  0  0  0  0  0  0  0  0  0  0
    0.3981   -2.5065    0.0005 O   0  0  0  0  0  0  0  0  0  0  0  0
   -2.1565   -2.5909    0.0003 O   0  0  0  0  0  0  0  0  0  0  0  0
   -4.5970    1.4577   -0.0007 O   0  0  0  0  0  0  0  0  0  0  0  0
    2.9263   -2.3211    0.0001 O   0  0  0  0  0  0  0  0  0  0  0  0
   -0.9132   -0.4958    0.0000 C   0  0  0  0  0  0  0  0  0  0  0  0
   -0.9637    0.9171    0.0005 C   0  0  0  0  0  0  0  0  0  0  0  0
    1.4758    0.9982   -0.0001 C   0  0  0  0  0  0  0  0  0  0  0  0
    1.5210   -0.3959   -0.0004 C   0  0  0  0  0  0  0  0  0  0  0  0
    0.3349   -1.1403   -0.0003 C   0  0  0  0  0  0  0  0  0  0  0  0
    0.2359    1.6489    0.0004 C   0  0  0  0  0  0  0  0  0  0  0  0
   -2.1135   -1.2255   -0.0001 C   0  0  0  0  0  0  0  0  0  0  0  0
   -2.2128    1.5595    0.0009 C   0  0  0  0  0  0  0  0  0  0  0  0
    2.7151    1.7596   -0.0006 C   0  0  0  0  0  0  0  0  0  0  0  0
   -3.3952    0.8190    0.0007 C   0  0  0  0  0  0  0  0  0  0  0  0
    2.8248   -1.1015   -0.0006 C   0  0  0  0  0  0  0  0  0  0  0  0
   -3.3456   -0.5713    0.0002 C   0  0  0  0  0  0  0  0  0  0  0  0
    3.8771    1.0967   -0.0009 C   0  0  0  0  0  0  0  0  0  0  0  0
    5.2117    1.7667    0.0010 C   0  0  0  0  0  0  0  0  0  0  0  0
   -5.7666    0.6407   -0.0009 C   0  0  0  0  0  0  0  0  0  0  0  0
    0.2005    2.7378    0.0007 H   0  0  0  0  0  0  0  0  0  0  0  0
   -2.2692    2.6467    0.0010 H   0  0  0  0  0  0  0  0  0  0  0  0
    2.6729    2.8429   -0.0002 H   0  0  0  0  0  0  0  0  0  0  0  0
   -4.2306   -1.1995    0.0000 H   0  0  0  0  0  0  0  0  0  0  0  0
    5.7819    1.4751   -0.8867 H   0  0  0  0  0  0  0  0  0  0  0  0
    5.7806    1.4732    0.8889 H   0  0  0  0  0  0  0  0  0  0  0  0
    5.1242    2.8580    0.0020 H   0  0  0  0  0  0  0  0  0  0  0  0
    1.2639   -2.8139   -0.3072 H   0  0  0  0  0  0  0  0  0  0  0  0
   -1.2648   -2.9676    0.0017 H   0  0  0  0  0  0  0  0  0  0  0  0
   -5.8340    0.0343   -0.9105 H   0  0  0  0  0  0  0  0  0  0  0  0
   -6.6304    1.3135   -0.0014 H   0  0  0  0  0  0  0  0  0  0  0  0
   -5.8348    0.0347    0.9090 H   0  0  0  0  0  0  0  0  0  0  0  0
  1 16  1  0  0  0  0
  1 18  1  0  0  0  0
  2 10  1  0  0  0  0
  2 28  1  0  0  0  0
  3 12  1  0  0  0  0
  3 29  1  0  0  0  0
  4 15  1  0  0  0  0
  4 20  1  0  0  0  0
  5 16  2  0  0  0  0
  6  7  1  0  0  0  0
  6 10  1  0  0  0  0
  6 12  2  0  0  0  0
  7 11  1  0  0  0  0
  7 13  2  0  0  0  0
  8  9  1  0  0  0  0
  8 11  2  0  0  0  0
  8 14  1  0  0  0  0
  9 10  2  0  0  0  0
  9 16  1  0  0  0  0
 11 21  1  0  0  0  0
 12 17  1  0  0  0  0
 13 15  1  0  0  0  0
 13 22  1  0  0  0  0
 14 18  2  0  0  0  0
 14 23  1  0  0  0  0
 15 17  2  0  0  0  0
 17 24  1  0  0  0  0
 18 19  1  0  0  0  0
 19 25  1  0  0  0  0
 19 26  1  0  0  0  0
 19 27  1  0  0  0  0
 20 30  1  0  0  0  0
 20 31  1  0  0  0  0
 20 32  1  0  0  0  0
M  END
> <PUBCHEM_COMPOUND_CID>
5321980

> <PUBCHEM_CONFORMER_RMSD>
0.6

> <PUBCHEM_CONFORMER_DIVERSEORDER>
1

> <PUBCHEM_MMFF94_PARTIAL_CHARGES>
24
1 -0.23
10 0.08
11 -0.15
12 0.08
13 -0.15
14 -0.18
15 0.08
16 0.63
17 -0.15
18 -0.06
19 0.14
2 -0.53
20 0.28
21 0.15
22 0.15
23 0.15
24 0.15
28 0.45
29 0.45
3 -0.53
4 -0.36
5 -0.57
8 0.03
9 0.09

> <PUBCHEM_EFFECTIVE_ROTOR_COUNT>
1

> <PUBCHEM_PHARMACOPHORE_FEATURES>
7
1 2 donor
1 3 donor
1 4 acceptor
1 5 acceptor
6 1 8 9 14 16 18 rings
6 6 7 12 13 15 17 rings
6 6 7 8 9 10 11 rings

> <PUBCHEM_HEAVY_ATOM_COUNT>
20

> <PUBCHEM_ATOM_DEF_STEREO_COUNT>
0

> <PUBCHEM_ATOM_UDEF_STEREO_COUNT>
0

> <PUBCHEM_BOND_DEF_STEREO_COUNT>
0

> <PUBCHEM_BOND_UDEF_STEREO_COUNT>
0

> <PUBCHEM_ISOTOPIC_ATOM_COUNT>
0

> <PUBCHEM_COMPONENT_COUNT>
1

> <PUBCHEM_CACTVS_TAUTO_COUNT>
24

> <PUBCHEM_CONFORMER_ID>
005134FC00000001

> <PUBCHEM_MMFF94_ENERGY>
77.6495

> <PUBCHEM_FEATURE_SELFOVERLAP>
35.586

> <PUBCHEM_SHAPE_FINGERPRINT>
10411042 1 17473825512205386887
10493431 412 18410853248689704233
10608611 8 18411140233750791924
10616163 171 18337952268771531046
10967382 1 18410856598347242758
11132069 177 18412266116493570208
11471102 20 18410577322462554389
12236239 1 17822292409714565409
12403259 415 18129944610783200173
12403814 3 17775008981482328117
12788726 201 17458898348925031241
13140716 1 18412548721073216162
138480 1 17690280829851843779
14790565 3 18337383967568927497
15196674 1 18410573976577470723
15442244 35 18265614479904748202
15536298 74 18335138713326748292
16945 1 18266459999666444646
19591789 44 18195808689827818637
200 152 17967818236822661389
20645477 56 18342177743797420493
20645477 70 18335421326063838135
21267235 1 18337945809045746222
21421861 104 17916598664484673426
21501502 16 18410297990616567078
2334 1 18410573942376000898
23366157 5 18131631223271412058
23402539 116 18262243222456089308
23402655 69 18333733502774597860
23463225 33 18412545435507266620
23558518 356 17697879172353228441
23559900 14 18334575746604946892
25147074 1 18338533966262610454
2748010 2 18410851045054944318
296302 2 18408039611118569789
335352 9 18410574007322737206
33824 294 18413108394108657922
34934 24 18410296891173303190
350125 39 18267582601212899556
3545911 37 18410854352090260252
474 4 17989201508668187100
495365 180 17458639886472301632
5104073 3 18412262839354279523
69090 78 18410295826380070949
7364860 26 18335983176932957782
8272917 22 18334853969431688622
9709674 26 18409443670171709398

> <PUBCHEM_SHAPE_MULTIPOLES>
382.24
9.48
2.46
0.59
2.53
1.16
0
-4.24
0
-0.64
0
0
-0.03
0

> <PUBCHEM_SHAPE_SELFOVERLAP>
856.074

> <PUBCHEM_SHAPE_VOLUME>
202.2

> <PUBCHEM_COORDINATE_TYPE>
2
5
10

$$$$

