443330
  -OEChem-07051213023D

 69 71  0     1  0  0  0  0  0999 V2000
   -1.0766    0.1071    0.6335 O   0  0  0  0  0  0  0  0  0  0  0  0
   -2.1191   -0.9884   -1.1788 O   0  0  0  0  0  0  0  0  0  0  0  0
    0.8392   -1.1714    0.2610 O   0  0  0  0  0  0  0  0  0  0  0  0
    0.3813    2.4425   -0.0214 O   0  0  0  0  0  0  0  0  0  0  0  0
    3.2578    2.1363    0.5378 O   0  0  0  0  0  0  0  0  0  0  0  0
    4.2705   -0.2884   -0.6667 O   0  0  0  0  0  0  0  0  0  0  0  0
   -5.0591    2.5713   -0.6431 O   0  0  0  0  0  0  0  0  0  0  0  0
   -5.0271    1.6079   -2.7171 O   0  0  0  0  0  0  0  0  0  0  0  0
    1.7010   -3.6488   -0.5612 O   0  0  0  0  0  0  0  0  0  0  0  0
   -0.8799    2.5115    1.9129 O   0  0  0  0  0  0  0  0  0  0  0  0
    2.7149    3.7359   -1.0382 O   0  0  0  0  0  0  0  0  0  0  0  0
    5.4396    0.5393    1.1458 O   0  0  0  0  0  0  0  0  0  0  0  0
    3.0672   -5.3657    0.1623 O   0  0  0  0  0  0  0  0  0  0  0  0
   -3.2278   -0.8869    1.0377 C   0  0  1  0  0  0  0  0  0  0  0  0
   -4.1168    0.2919    0.5755 C   0  0  2  0  0  0  0  0  0  0  0  0
   -4.1471   -2.1112    0.9023 C   0  0  2  0  0  0  0  0  0  0  0  0
   -5.5603   -0.1570    0.8894 C   0  0  0  0  0  0  0  0  0  0  0  0
   -5.4659   -1.5738    1.4496 C   0  0  0  0  0  0  0  0  0  0  0  0
   -1.9209   -0.9784    0.2414 C   0  0  2  0  0  0  0  0  0  0  0  0
   -3.9090    0.5930   -0.8813 C   0  0  0  0  0  0  0  0  0  0  0  0
   -3.6611   -3.3336    1.6668 C   0  0  0  0  0  0  0  0  0  0  0  0
    0.1790    0.0551   -0.0431 C   0  0  2  0  0  0  0  0  0  0  0  0
   -3.0035   -0.0442   -1.6324 C   0  0  0  0  0  0  0  0  0  0  0  0
    1.0162    1.2450    0.4261 C   0  0  1  0  0  0  0  0  0  0  0  0
    2.4360    1.1825   -0.1371 C   0  0  2  0  0  0  0  0  0  0  0  0
    3.0523   -0.2015    0.0679 C   0  0  1  0  0  0  0  0  0  0  0  0
    2.0957   -1.2977   -0.4072 C   0  0  1  0  0  0  0  0  0  0  0  0
   -4.7179    1.6216   -1.5392 C   0  0  0  0  0  0  0  0  0  0  0  0
    2.6389   -2.6909   -0.1058 C   0  0  0  0  0  0  0  0  0  0  0  0
   -0.5502    2.9683    0.8267 C   0  0  0  0  0  0  0  0  0  0  0  0
    3.3035    3.3777   -0.0270 C   0  0  0  0  0  0  0  0  0  0  0  0
    5.3927    0.1171   -0.0017 C   0  0  0  0  0  0  0  0  0  0  0  0
   -1.1290    4.2154    0.2302 C   0  0  0  0  0  0  0  0  0  0  0  0
    4.1972    4.2670    0.7833 C   0  0  0  0  0  0  0  0  0  0  0  0
    2.0394   -4.9619   -0.3647 C   0  0  0  0  0  0  0  0  0  0  0  0
    6.5897   -0.0297   -0.8914 C   0  0  0  0  0  0  0  0  0  0  0  0
    0.9592   -5.8567   -0.8924 C   0  0  0  0  0  0  0  0  0  0  0  0
   -2.9863   -0.7323    2.0996 H   0  0  0  0  0  0  0  0  0  0  0  0
   -3.8584    1.1823    1.1629 H   0  0  0  0  0  0  0  0  0  0  0  0
   -4.2780   -2.3838   -0.1529 H   0  0  0  0  0  0  0  0  0  0  0  0
   -6.1986   -0.1559   -0.0019 H   0  0  0  0  0  0  0  0  0  0  0  0
   -6.0297    0.5113    1.6199 H   0  0  0  0  0  0  0  0  0  0  0  0
   -5.4494   -1.5367    2.5460 H   0  0  0  0  0  0  0  0  0  0  0  0
   -6.3207   -2.1886    1.1503 H   0  0  0  0  0  0  0  0  0  0  0  0
   -1.4252   -1.9190    0.5050 H   0  0  0  0  0  0  0  0  0  0  0  0
   -2.7283   -3.7176    1.2427 H   0  0  0  0  0  0  0  0  0  0  0  0
   -4.4042   -4.1366    1.6196 H   0  0  0  0  0  0  0  0  0  0  0  0
   -3.4822   -3.1022    2.7222 H   0  0  0  0  0  0  0  0  0  0  0  0
    0.0106    0.1346   -1.1250 H   0  0  0  0  0  0  0  0  0  0  0  0
   -2.8673    0.1021   -2.6956 H   0  0  0  0  0  0  0  0  0  0  0  0
    1.0921    1.2457    1.5227 H   0  0  0  0  0  0  0  0  0  0  0  0
    2.4284    1.3981   -1.2147 H   0  0  0  0  0  0  0  0  0  0  0  0
    3.2375   -0.3524    1.1412 H   0  0  0  0  0  0  0  0  0  0  0  0
    1.9250   -1.2271   -1.4901 H   0  0  0  0  0  0  0  0  0  0  0  0
    3.5995   -2.8482   -0.6093 H   0  0  0  0  0  0  0  0  0  0  0  0
    2.7702   -2.8157    0.9760 H   0  0  0  0  0  0  0  0  0  0  0  0
   -5.6037    3.2804   -1.0465 H   0  0  0  0  0  0  0  0  0  0  0  0
   -1.6342    3.9753   -0.7087 H   0  0  0  0  0  0  0  0  0  0  0  0
   -1.8616    4.6417    0.9214 H   0  0  0  0  0  0  0  0  0  0  0  0
   -0.3368    4.9500    0.0657 H   0  0  0  0  0  0  0  0  0  0  0  0
    5.2095    3.8555    0.8031 H   0  0  0  0  0  0  0  0  0  0  0  0
    4.2333    5.2595    0.3253 H   0  0  0  0  0  0  0  0  0  0  0  0
    3.8009    4.3651    1.7971 H   0  0  0  0  0  0  0  0  0  0  0  0
    6.7127   -1.0775   -1.1770 H   0  0  0  0  0  0  0  0  0  0  0  0
    7.4848    0.2917   -0.3512 H   0  0  0  0  0  0  0  0  0  0  0  0
    6.4721    0.6002   -1.7767 H   0  0  0  0  0  0  0  0  0  0  0  0
    0.8396   -5.6982   -1.9670 H   0  0  0  0  0  0  0  0  0  0  0  0
    1.2370   -6.9007   -0.7220 H   0  0  0  0  0  0  0  0  0  0  0  0
    0.0224   -5.6553   -0.3668 H   0  0  0  0  0  0  0  0  0  0  0  0
  1 19  1  0  0  0  0
  1 22  1  0  0  0  0
  2 19  1  0  0  0  0
  2 23  1  0  0  0  0
  3 22  1  0  0  0  0
  3 27  1  0  0  0  0
  4 24  1  0  0  0  0
  4 30  1  0  0  0  0
  5 25  1  0  0  0  0
  5 31  1  0  0  0  0
  6 26  1  0  0  0  0
  6 32  1  0  0  0  0
  7 28  1  0  0  0  0
  7 57  1  0  0  0  0
  8 28  2  0  0  0  0
  9 29  1  0  0  0  0
  9 35  1  0  0  0  0
 10 30  2  0  0  0  0
 11 31  2  0  0  0  0
 12 32  2  0  0  0  0
 13 35  2  0  0  0  0
 14 15  1  0  0  0  0
 14 16  1  0  0  0  0
 14 19  1  0  0  0  0
 14 38  1  0  0  0  0
 15 17  1  0  0  0  0
 15 20  1  0  0  0  0
 15 39  1  0  0  0  0
 16 18  1  0  0  0  0
 16 21  1  0  0  0  0
 16 40  1  0  0  0  0
 17 18  1  0  0  0  0
 17 41  1  0  0  0  0
 17 42  1  0  0  0  0
 18 43  1  0  0  0  0
 18 44  1  0  0  0  0
 19 45  1  0  0  0  0
 20 23  2  0  0  0  0
 20 28  1  0  0  0  0
 21 46  1  0  0  0  0
 21 47  1  0  0  0  0
 21 48  1  0  0  0  0
 22 24  1  0  0  0  0
 22 49  1  0  0  0  0
 23 50  1  0  0  0  0
 24 25  1  0  0  0  0
 24 51  1  0  0  0  0
 25 26  1  0  0  0  0
 25 52  1  0  0  0  0
 26 27  1  0  0  0  0
 26 53  1  0  0  0  0
 27 29  1  0  0  0  0
 27 54  1  0  0  0  0
 29 55  1  0  0  0  0
 29 56  1  0  0  0  0
 30 33  1  0  0  0  0
 31 34  1  0  0  0  0
 32 36  1  0  0  0  0
 33 58  1  0  0  0  0
 33 59  1  0  0  0  0
 33 60  1  0  0  0  0
 34 61  1  0  0  0  0
 34 62  1  0  0  0  0
 34 63  1  0  0  0  0
 35 37  1  0  0  0  0
 36 64  1  0  0  0  0
 36 65  1  0  0  0  0
 36 66  1  0  0  0  0
 37 67  1  0  0  0  0
 37 68  1  0  0  0  0
 37 69  1  0  0  0  0
M  END
> <PUBCHEM_COMPOUND_CID>
443330

> <PUBCHEM_CONFORMER_RMSD>
1.2

> <PUBCHEM_CONFORMER_DIVERSEORDER>
1
9
7
3
6
12
5
10
8
4
2
11

> <PUBCHEM_MMFF94_PARTIAL_CHARGES>
34
1 -0.56
10 -0.57
11 -0.57
12 -0.57
13 -0.57
15 0.14
19 0.56
2 -0.36
20 -0.12
22 0.56
23 -0.07
24 0.28
25 0.28
26 0.28
27 0.28
28 0.71
29 0.28
3 -0.56
30 0.66
31 0.66
32 0.66
33 0.06
34 0.06
35 0.66
36 0.06
37 0.06
4 -0.43
5 -0.43
50 0.15
57 0.5
6 -0.43
7 -0.65
8 -0.57
9 -0.43

> <PUBCHEM_EFFECTIVE_ROTOR_COUNT>
14.2

> <PUBCHEM_PHARMACOPHORE_FEATURES>
13
1 1 acceptor
1 10 acceptor
1 11 acceptor
1 12 acceptor
1 13 acceptor
1 2 acceptor
1 3 acceptor
1 7 acceptor
1 8 acceptor
3 7 8 28 anion
5 14 15 16 17 18 rings
6 2 14 15 19 20 23 rings
6 3 22 24 25 26 27 rings

> <PUBCHEM_HEAVY_ATOM_COUNT>
37

> <PUBCHEM_ATOM_DEF_STEREO_COUNT>
9

> <PUBCHEM_ATOM_UDEF_STEREO_COUNT>
0

> <PUBCHEM_BOND_DEF_STEREO_COUNT>
0

> <PUBCHEM_BOND_UDEF_STEREO_COUNT>
0

> <PUBCHEM_ISOTOPIC_ATOM_COUNT>
0

> <PUBCHEM_COMPONENT_COUNT>
1

> <PUBCHEM_CACTVS_TAUTO_COUNT>
1

> <PUBCHEM_CONFORMER_ID>
0006C3C200000001

> <PUBCHEM_MMFF94_ENERGY>
84.0851

> <PUBCHEM_FEATURE_SELFOVERLAP>
66.287

> <PUBCHEM_SHAPE_FINGERPRINT>
10190108 129 18192685990894961936
10290309 65 18339078190021009922
1100329 8 18191864527451227346
11135926 11 18337669827617089374
12788726 201 17117485914014274251
13140716 1 18265049137876297034
13583140 156 18410575085280686655
13782708 43 17988642935027984571
13911987 19 18340475665411134902
140371 6 18341040921498418496
14790565 3 18264763260304744472
14866123 147 16897924467197073179
15815584 197 18334852814117459830
19319366 153 18260831440899030503
20028762 73 18187918448759424070
20775438 99 17763779823451224476
22223350 30 17612043581708850032
23559900 14 18339365265861967130
3178227 256 18338223895979017514
613672 6 17906460170338932371
7399639 24 18198055881432187419

> <PUBCHEM_SHAPE_MULTIPOLES>
685.14
12.66
6.9
1.46
0.04
7.14
0.4
-2.44
0.29
5.73
0.3
-2.09
-0.36
2.87

> <PUBCHEM_SHAPE_SELFOVERLAP>
1430.691

> <PUBCHEM_SHAPE_VOLUME>
380.7

> <PUBCHEM_COORDINATE_TYPE>
2
5
10

$$$$

