443682
  -OEChem-07051213022D

 45 49  0     1  0  0  0  0  0999 V2000
    7.1256   -2.4028    0.0000 O   0  0  0  0  0  0  0  0  0  0  0  0
    7.9916   -1.9028    0.0000 O   0  0  0  0  0  0  0  0  0  0  0  0
    4.8449    2.0928    0.0000 O   0  0  0  0  0  0  0  0  0  0  0  0
    2.6079   -1.0645    0.0000 O   0  0  0  0  0  0  0  0  0  0  0  0
    2.6079   -2.7410    0.0000 O   0  0  0  0  0  0  0  0  0  0  0  0
    7.4575    0.1721    0.0000 N   0  0  3  0  0  0  0  0  0  0  0  0
    6.2596   -0.9028    0.0000 C   0  0  1  0  0  0  0  0  0  0  0  0
    6.4688    0.0690    0.0000 C   0  0  2  0  0  0  0  0  0  0  0  0
    7.1256   -1.4028    0.0000 C   0  0  2  0  0  0  0  0  0  0  0  0
    7.8626   -0.7357    0.0000 C   0  0  0  0  0  0  0  0  0  0  0  0
    6.1666    1.0594    0.0000 C   0  0  0  0  0  0  0  0  0  0  0  0
    5.3935   -1.4028    0.0000 C   0  0  0  0  0  0  0  0  0  0  0  0
    5.2440   -0.7005    0.0000 C   0  0  0  0  0  0  0  0  0  0  0  0
    5.3086    1.2069    0.0000 C   0  0  1  0  0  0  0  0  0  0  0  0
    5.3935   -2.4028    0.0000 C   0  0  0  0  0  0  0  0  0  0  0  0
    4.7664    0.3609    0.0000 C   0  0  0  0  0  0  0  0  0  0  0  0
    6.2596   -2.9028    0.0000 C   0  0  0  0  0  0  0  0  0  0  0  0
    7.9575    1.0381    0.0000 C   0  0  0  0  0  0  0  0  0  0  0  0
    4.4996   -0.8681    0.0000 C   0  0  0  0  0  0  0  0  0  0  0  0
    4.4996   -2.9374    0.0000 C   0  0  0  0  0  0  0  0  0  0  0  0
    3.5935   -1.3820    0.0000 C   0  0  0  0  0  0  0  0  0  0  0  0
    3.5935   -2.4236    0.0000 C   0  0  0  0  0  0  0  0  0  0  0  0
    5.3802    2.9374    0.0000 C   0  0  0  0  0  0  0  0  0  0  0  0
    2.0000   -1.9028    0.0000 C   0  0  0  0  0  0  0  0  0  0  0  0
    6.9384    0.7775    0.0000 H   0  0  0  0  0  0  0  0  0  0  0  0
    8.2280   -1.2366    0.0000 H   0  0  0  0  0  0  0  0  0  0  0  0
    8.3991   -0.4249    0.0000 H   0  0  0  0  0  0  0  0  0  0  0  0
    6.7804    1.1464    0.0000 H   0  0  0  0  0  0  0  0  0  0  0  0
    6.1757    1.6794    0.0000 H   0  0  0  0  0  0  0  0  0  0  0  0
    4.8579   -1.1856    0.0000 H   0  0  0  0  0  0  0  0  0  0  0  0
    5.6736    1.7081    0.0000 H   0  0  0  0  0  0  0  0  0  0  0  0
    4.1481    0.4065    0.0000 H   0  0  0  0  0  0  0  0  0  0  0  0
    5.8610   -3.3777    0.0000 H   0  0  0  0  0  0  0  0  0  0  0  0
    6.6581   -3.3777    0.0000 H   0  0  0  0  0  0  0  0  0  0  0  0
    8.4944    0.7281    0.0000 H   0  0  0  0  0  0  0  0  0  0  0  0
    8.2675    1.5750    0.0000 H   0  0  0  0  0  0  0  0  0  0  0  0
    7.4205    1.3481    0.0000 H   0  0  0  0  0  0  0  0  0  0  0  0
    8.5285   -1.5928    0.0000 H   0  0  0  0  0  0  0  0  0  0  0  0
    4.5068   -0.2482    0.0000 H   0  0  0  0  0  0  0  0  0  0  0  0
    4.5068   -3.5574    0.0000 H   0  0  0  0  0  0  0  0  0  0  0  0
    5.9039    2.6055    0.0000 H   0  0  0  0  0  0  0  0  0  0  0  0
    5.7122    3.4611    0.0000 H   0  0  0  0  0  0  0  0  0  0  0  0
    4.8566    3.2694    0.0000 H   0  0  0  0  0  0  0  0  0  0  0  0
    1.5391   -1.4881    0.0000 H   0  0  0  0  0  0  0  0  0  0  0  0
    1.5391   -2.3175    0.0000 H   0  0  0  0  0  0  0  0  0  0  0  0
  1  9  1  0  0  0  0
  1 17  1  0  0  0  0
  9  2  1  1  0  0  0
  2 38  1  0  0  0  0
 14  3  1  1  0  0  0
  3 23  1  0  0  0  0
  4 21  1  0  0  0  0
  4 24  1  0  0  0  0
  5 22  1  0  0  0  0
  5 24  1  0  0  0  0
  6  8  1  0  0  0  0
  6 10  1  0  0  0  0
  6 18  1  0  0  0  0
  7  8  1  0  0  0  0
  7  9  1  0  0  0  0
  7 12  1  0  0  0  0
  7 13  1  6  0  0  0
  8 11  1  0  0  0  0
  8 25  1  1  0  0  0
  9 10  1  0  0  0  0
 10 26  1  0  0  0  0
 10 27  1  0  0  0  0
 11 14  1  0  0  0  0
 11 28  1  0  0  0  0
 11 29  1  0  0  0  0
 12 15  1  0  0  0  0
 12 19  2  0  0  0  0
 13 16  2  0  0  0  0
 13 30  1  0  0  0  0
 14 16  1  0  0  0  0
 14 31  1  0  0  0  0
 15 17  1  0  0  0  0
 15 20  2  0  0  0  0
 16 32  1  0  0  0  0
 17 33  1  0  0  0  0
 17 34  1  0  0  0  0
 18 35  1  0  0  0  0
 18 36  1  0  0  0  0
 18 37  1  0  0  0  0
 19 21  1  0  0  0  0
 19 39  1  0  0  0  0
 20 22  1  0  0  0  0
 20 40  1  0  0  0  0
 21 22  2  0  0  0  0
 23 41  1  0  0  0  0
 23 42  1  0  0  0  0
 23 43  1  0  0  0  0
 24 44  1  0  0  0  0
 24 45  1  0  0  0  0
M  END
> <PUBCHEM_COMPOUND_CID>
443682

> <PUBCHEM_COMPOUND_CANONICALIZED>
1

> <PUBCHEM_CACTVS_COMPLEXITY>
556

> <PUBCHEM_CACTVS_HBOND_ACCEPTOR>
6

> <PUBCHEM_CACTVS_HBOND_DONOR>
1

> <PUBCHEM_CACTVS_ROTATABLE_BOND>
1

> <PUBCHEM_CACTVS_SUBSKEYS>
AAADceB6OAAAAAAAAAAAAAAAAAAAAWJAAAA0QIAAAAAAAFiRAAAAHgAACAAADjzhmAcyDoMABgCAAiBCAAACCAAgIAAIiAAOiIgfJiKEsRuncCImwBGeqAfQ8P8PoAABAAAQQABAAAIAACCAAAAAAAAAAA==

> <PUBCHEM_IUPAC_INCHI>
InChI=1S/C18H21NO5/c1-19-9-18(20)17(4-3-12(21-2)6-16(17)19)13-7-15-14(22-10-23-15)5-11(13)8-24-18/h3-5,7,12,16,20H,6,8-10H2,1-2H3/t12-,16+,17+,18+/m1/s1

> <PUBCHEM_IUPAC_INCHIKEY>
YLWAQARRNQVEHD-IEGACIPQSA-N

> <PUBCHEM_XLOGP3_AA>
1

> <PUBCHEM_EXACT_MASS>
331.141973

> <PUBCHEM_MOLECULAR_FORMULA>
C18H21NO5

> <PUBCHEM_MOLECULAR_WEIGHT>
331.36304

> <PUBCHEM_OPENEYE_CAN_SMILES>
CN1CC2(C3(C1CC(C=C3)OC)C4=CC5=C(C=C4CO2)OCO5)O

> <PUBCHEM_OPENEYE_ISO_SMILES>
CN1C[C@]2([C@]3([C@@H]1C[C@@H](C=C3)OC)C4=CC5=C(C=C4CO2)OCO5)O

> <PUBCHEM_CACTVS_TPSA>
60.4

> <PUBCHEM_MONOISOTOPIC_WEIGHT>
331.141973

> <PUBCHEM_TOTAL_CHARGE>
0

> <PUBCHEM_HEAVY_ATOM_COUNT>
24

> <PUBCHEM_ATOM_DEF_STEREO_COUNT>
4

> <PUBCHEM_ATOM_UDEF_STEREO_COUNT>
0

> <PUBCHEM_BOND_DEF_STEREO_COUNT>
0

> <PUBCHEM_BOND_UDEF_STEREO_COUNT>
0

> <PUBCHEM_ISOTOPIC_ATOM_COUNT>
0

> <PUBCHEM_COMPONENT_COUNT>
1

> <PUBCHEM_CACTVS_TAUTO_COUNT>
1

> <PUBCHEM_COORDINATE_TYPE>
1
5
255

> <PUBCHEM_BONDANNOTATIONS>
12  15  8
12  19  8
15  20  8
19  21  8
9  2  5
20  22  8
21  22  8
14  3  5
7  13  6
8  25  5

$$$$

