5283658
  -OEChem-07051213153D

 77 80  0     1  0  0  0  0  0999 V2000
    8.0209   -0.1642   -0.5476 O   0  0  0  0  0  0  0  0  0  0  0  0
    3.7644   -0.3816   -0.0742 C   0  0  2  0  0  0  0  0  0  0  0  0
    2.2599   -0.3930   -0.5419 C   0  0  2  0  0  0  0  0  0  0  0  0
   -0.4263   -0.4245    0.7947 C   0  0  1  0  0  0  0  0  0  0  0  0
    4.4220    0.9255   -0.6289 C   0  0  1  0  0  0  0  0  0  0  0  0
    1.5332    0.8829   -0.1110 C   0  0  0  0  0  0  0  0  0  0  0  0
    0.3346    0.8545    0.5049 C   0  0  0  0  0  0  0  0  0  0  0  0
   -1.8782    0.0470    0.5412 C   0  0  2  0  0  0  0  0  0  0  0  0
    1.5148   -1.7068   -0.1980 C   0  0  0  0  0  0  0  0  0  0  0  0
   -0.0044   -1.5355   -0.1829 C   0  0  0  0  0  0  0  0  0  0  0  0
    4.5299   -1.5937   -0.6724 C   0  0  0  0  0  0  0  0  0  0  0  0
    3.7049    2.1854   -0.1249 C   0  0  0  0  0  0  0  0  0  0  0  0
    2.2235    2.1695   -0.5038 C   0  0  0  0  0  0  0  0  0  0  0  0
   -0.5365    2.0502    0.8040 C   0  0  0  0  0  0  0  0  0  0  0  0
   -1.9086    1.4604    1.1325 C   0  0  0  0  0  0  0  0  0  0  0  0
    5.9312    0.9974   -0.3642 C   0  0  0  0  0  0  0  0  0  0  0  0
   -2.9759   -0.8462    1.1040 C   0  0  1  0  0  0  0  0  0  0  0  0
    3.8535   -0.4486    1.4751 C   0  0  0  0  0  0  0  0  0  0  0  0
    6.0393   -1.5338   -0.4340 C   0  0  0  0  0  0  0  0  0  0  0  0
   -0.1803   -0.8580    2.2551 C   0  0  0  0  0  0  0  0  0  0  0  0
    6.6506   -0.2268   -0.9290 C   0  0  2  0  0  0  0  0  0  0  0  0
   -4.3606   -0.2210    0.8313 C   0  0  0  0  0  0  0  0  0  0  0  0
   -2.8568   -2.2568    0.5179 C   0  0  0  0  0  0  0  0  0  0  0  0
   -4.6345    0.0381   -0.6552 C   0  0  0  0  0  0  0  0  0  0  0  0
   -6.0276    0.6511   -0.9364 C   0  0  1  0  0  0  0  0  0  0  0  0
   -7.2082   -0.3087   -0.6110 C   0  0  0  0  0  0  0  0  0  0  0  0
   -6.1241    2.0029   -0.2145 C   0  0  0  0  0  0  0  0  0  0  0  0
   -8.5660    0.3164   -0.9526 C   0  0  0  0  0  0  0  0  0  0  0  0
   -7.0947   -1.6821   -1.2782 C   0  0  0  0  0  0  0  0  0  0  0  0
    2.2652   -0.3509   -1.6431 H   0  0  0  0  0  0  0  0  0  0  0  0
    4.3050    0.9137   -1.7240 H   0  0  0  0  0  0  0  0  0  0  0  0
   -1.9966    0.1379   -0.5476 H   0  0  0  0  0  0  0  0  0  0  0  0
    1.8343   -2.1105    0.7666 H   0  0  0  0  0  0  0  0  0  0  0  0
    1.7764   -2.4721   -0.9399 H   0  0  0  0  0  0  0  0  0  0  0  0
   -0.3416   -1.3092   -1.2030 H   0  0  0  0  0  0  0  0  0  0  0  0
   -0.4111   -2.5117    0.0801 H   0  0  0  0  0  0  0  0  0  0  0  0
    4.3506   -1.6395   -1.7547 H   0  0  0  0  0  0  0  0  0  0  0  0
    4.1507   -2.5343   -0.2557 H   0  0  0  0  0  0  0  0  0  0  0  0
    4.1695    3.0769   -0.5643 H   0  0  0  0  0  0  0  0  0  0  0  0
    3.8140    2.2860    0.9615 H   0  0  0  0  0  0  0  0  0  0  0  0
    2.1310    2.2880   -1.5911 H   0  0  0  0  0  0  0  0  0  0  0  0
    1.7467    3.0465   -0.0537 H   0  0  0  0  0  0  0  0  0  0  0  0
   -0.1535    2.6282    1.6506 H   0  0  0  0  0  0  0  0  0  0  0  0
   -0.6145    2.7025   -0.0727 H   0  0  0  0  0  0  0  0  0  0  0  0
   -2.0600    1.4422    2.2184 H   0  0  0  0  0  0  0  0  0  0  0  0
   -2.7027    2.0804    0.7040 H   0  0  0  0  0  0  0  0  0  0  0  0
    6.3488    1.9002   -0.8290 H   0  0  0  0  0  0  0  0  0  0  0  0
    6.1461    1.1057    0.7056 H   0  0  0  0  0  0  0  0  0  0  0  0
   -2.8845   -0.9287    2.1944 H   0  0  0  0  0  0  0  0  0  0  0  0
    3.5535   -1.4314    1.8525 H   0  0  0  0  0  0  0  0  0  0  0  0
    4.8695   -0.2788    1.8419 H   0  0  0  0  0  0  0  0  0  0  0  0
    3.2129    0.2930    1.9617 H   0  0  0  0  0  0  0  0  0  0  0  0
   -0.6405   -1.8259    2.4756 H   0  0  0  0  0  0  0  0  0  0  0  0
    0.8888   -0.9542    2.4739 H   0  0  0  0  0  0  0  0  0  0  0  0
   -0.5752   -0.1342    2.9760 H   0  0  0  0  0  0  0  0  0  0  0  0
    6.2663   -1.6737    0.6299 H   0  0  0  0  0  0  0  0  0  0  0  0
    6.5260   -2.3762   -0.9415 H   0  0  0  0  0  0  0  0  0  0  0  0
    6.6105   -0.2047   -2.0248 H   0  0  0  0  0  0  0  0  0  0  0  0
   -5.1230   -0.8993    1.2323 H   0  0  0  0  0  0  0  0  0  0  0  0
   -4.4545    0.7040    1.4094 H   0  0  0  0  0  0  0  0  0  0  0  0
   -3.8070   -2.7918    0.6387 H   0  0  0  0  0  0  0  0  0  0  0  0
   -2.1264   -2.8592    1.0617 H   0  0  0  0  0  0  0  0  0  0  0  0
   -2.6321   -2.2557   -0.5527 H   0  0  0  0  0  0  0  0  0  0  0  0
   -3.9012    0.7452   -1.0575 H   0  0  0  0  0  0  0  0  0  0  0  0
   -4.5084   -0.8804   -1.2369 H   0  0  0  0  0  0  0  0  0  0  0  0
    8.3864    0.6658   -0.8986 H   0  0  0  0  0  0  0  0  0  0  0  0
   -6.0616    0.8590   -2.0152 H   0  0  0  0  0  0  0  0  0  0  0  0
   -7.2187   -0.4830    0.4728 H   0  0  0  0  0  0  0  0  0  0  0  0
   -5.2109    2.5934   -0.3457 H   0  0  0  0  0  0  0  0  0  0  0  0
   -6.3081    1.8803    0.8575 H   0  0  0  0  0  0  0  0  0  0  0  0
   -6.9465    2.5997   -0.6227 H   0  0  0  0  0  0  0  0  0  0  0  0
   -8.7562    1.2140   -0.3566 H   0  0  0  0  0  0  0  0  0  0  0  0
   -9.3822   -0.3838   -0.7437 H   0  0  0  0  0  0  0  0  0  0  0  0
   -8.6181    0.5889   -2.0120 H   0  0  0  0  0  0  0  0  0  0  0  0
   -7.9839   -2.2898   -1.0779 H   0  0  0  0  0  0  0  0  0  0  0  0
   -6.9904   -1.5838   -2.3638 H   0  0  0  0  0  0  0  0  0  0  0  0
   -6.2358   -2.2430   -0.8984 H   0  0  0  0  0  0  0  0  0  0  0  0
  1 21  1  0  0  0  0
  1 66  1  0  0  0  0
  2  3  1  0  0  0  0
  2  5  1  0  0  0  0
  2 11  1  0  0  0  0
  2 18  1  0  0  0  0
  3  6  1  0  0  0  0
  3  9  1  0  0  0  0
  3 30  1  0  0  0  0
  4  7  1  0  0  0  0
  4  8  1  0  0  0  0
  4 10  1  0  0  0  0
  4 20  1  0  0  0  0
  5 12  1  0  0  0  0
  5 16  1  0  0  0  0
  5 31  1  0  0  0  0
  6  7  2  0  0  0  0
  6 13  1  0  0  0  0
  7 14  1  0  0  0  0
  8 15  1  0  0  0  0
  8 17  1  0  0  0  0
  8 32  1  0  0  0  0
  9 10  1  0  0  0  0
  9 33  1  0  0  0  0
  9 34  1  0  0  0  0
 10 35  1  0  0  0  0
 10 36  1  0  0  0  0
 11 19  1  0  0  0  0
 11 37  1  0  0  0  0
 11 38  1  0  0  0  0
 12 13  1  0  0  0  0
 12 39  1  0  0  0  0
 12 40  1  0  0  0  0
 13 41  1  0  0  0  0
 13 42  1  0  0  0  0
 14 15  1  0  0  0  0
 14 43  1  0  0  0  0
 14 44  1  0  0  0  0
 15 45  1  0  0  0  0
 15 46  1  0  0  0  0
 16 21  1  0  0  0  0
 16 47  1  0  0  0  0
 16 48  1  0  0  0  0
 17 22  1  0  0  0  0
 17 23  1  0  0  0  0
 17 49  1  0  0  0  0
 18 50  1  0  0  0  0
 18 51  1  0  0  0  0
 18 52  1  0  0  0  0
 19 21  1  0  0  0  0
 19 56  1  0  0  0  0
 19 57  1  0  0  0  0
 20 53  1  0  0  0  0
 20 54  1  0  0  0  0
 20 55  1  0  0  0  0
 21 58  1  0  0  0  0
 22 24  1  0  0  0  0
 22 59  1  0  0  0  0
 22 60  1  0  0  0  0
 23 61  1  0  0  0  0
 23 62  1  0  0  0  0
 23 63  1  0  0  0  0
 24 25  1  0  0  0  0
 24 64  1  0  0  0  0
 24 65  1  0  0  0  0
 25 26  1  0  0  0  0
 25 27  1  0  0  0  0
 25 67  1  0  0  0  0
 26 28  1  0  0  0  0
 26 29  1  0  0  0  0
 26 68  1  0  0  0  0
 27 69  1  0  0  0  0
 27 70  1  0  0  0  0
 27 71  1  0  0  0  0
 28 72  1  0  0  0  0
 28 73  1  0  0  0  0
 28 74  1  0  0  0  0
 29 75  1  0  0  0  0
 29 76  1  0  0  0  0
 29 77  1  0  0  0  0
M  END
> <PUBCHEM_COMPOUND_CID>
5283658

> <PUBCHEM_CONFORMER_RMSD>
0.8

> <PUBCHEM_CONFORMER_DIVERSEORDER>
7
1
3
6
4
5
2

> <PUBCHEM_MMFF94_PARTIAL_CHARGES>
9
1 -0.68
13 0.14
14 0.14
21 0.28
3 0.14
4 0.14
6 -0.28
66 0.4
7 -0.28

> <PUBCHEM_EFFECTIVE_ROTOR_COUNT>
7.2

> <PUBCHEM_PHARMACOPHORE_FEATURES>
10
1 1 acceptor
1 1 donor
1 23 hydrophobe
1 27 hydrophobe
3 26 28 29 hydrophobe
5 17 22 24 25 26 hydrophobe
5 4 7 8 14 15 rings
6 2 3 5 6 12 13 rings
6 2 5 11 16 19 21 rings
6 3 4 6 7 9 10 rings

> <PUBCHEM_HEAVY_ATOM_COUNT>
29

> <PUBCHEM_ATOM_DEF_STEREO_COUNT>
8

> <PUBCHEM_ATOM_UDEF_STEREO_COUNT>
0

> <PUBCHEM_BOND_DEF_STEREO_COUNT>
0

> <PUBCHEM_BOND_UDEF_STEREO_COUNT>
0

> <PUBCHEM_ISOTOPIC_ATOM_COUNT>
0

> <PUBCHEM_COMPONENT_COUNT>
1

> <PUBCHEM_CACTVS_TAUTO_COUNT>
1

> <PUBCHEM_CONFORMER_ID>
00509F4A00000007

> <PUBCHEM_MMFF94_ENERGY>
82.662

> <PUBCHEM_FEATURE_SELFOVERLAP>
50.885

> <PUBCHEM_SHAPE_FINGERPRINT>
10 15 12895354400270261207
106641 1 14273460280197617250
10670039 82 17846503664649126845
10835480 77 18271240509216857524
11578080 2 13181582488317050012
11719270 70 18260269667740839902
12011746 2 18341887498845215776
12166972 35 17748827401542390713
12236239 1 17676201385772884921
12838862 33 18411145715094282776
13533116 47 17489034867467603498
13540713 4 18123190096215722817
13668630 136 17748823020812515517
13782708 43 16588020246817071799
13811026 1 18411982429508241584
13914758 101 18273215330646610072
14294032 229 17751066128351801513
14955137 171 7637391943409938874
15082195 135 18270391686103376580
15131766 46 16913672317649974604
15142383 8 17275387603786420524
15183329 4 18273217512822351257
15849732 13 17894915122073302748
18335252 98 5833996049034246004
18681886 176 18260554415344778473
20028762 73 18040433321705337006
21033648 29 16916504744605619376
21150785 3 18335139790936395223
21267235 1 18337935854392767886
21521239 73 18335421270245119839
21756936 100 13254794621304164329
21792934 111 18412833478623531912
21792961 116 18272364283035358491
221357 26 18342178881531347972
22956985 138 16083592990033366292
23198884 109 18343022195045527821
23559900 14 18411698751630429464
23576562 1 18129373796317041631
249057 3 18341611494918511583
2838139 119 18273214201529407133
3004659 81 18412829079400439209
3009799 131 18413108368096221936
335352 9 18411696582813967006
3633792 109 18410854360754100024
4073 2 17845649244433044786
4325135 7 18113617893411942309
4340502 62 6916262931807766108
439807 62 18042971978812473767
474113 269 18059020609387233794
484989 97 18337104541212190523
5283156 175 17676203581165766053
5283173 99 18342177799669100465
6009941 240 17418087698310887619
6081469 158 17775004622380588590

> <PUBCHEM_SHAPE_MULTIPOLES>
590.94
20.6
2.15
1.3
16
0.33
-0.46
-1.06
10.29
-0.08
0.05
0.57
-0.22
-0.1

> <PUBCHEM_SHAPE_SELFOVERLAP>
1224.783

> <PUBCHEM_SHAPE_VOLUME>
337.1

> <PUBCHEM_COORDINATE_TYPE>
2
5
10

$$$$

