10007317
  -OEChem-07051213082D

 94 94  0     0  0  0  0  0  0999 V2000
   14.1244    9.5000    0.0000 C   0  0  0  0  0  0  0  0  0  0  0  0
   13.2583    9.0000    0.0000 C   0  0  0  0  0  0  0  0  0  0  0  0
   13.2583    8.0000    0.0000 C   0  0  0  0  0  0  0  0  0  0  0  0
   12.3923    7.5000    0.0000 C   0  0  0  0  0  0  0  0  0  0  0  0
   14.1244   10.5000    0.0000 C   0  0  0  0  0  0  0  0  0  0  0  0
   14.9904    9.0000    0.0000 C   0  0  0  0  0  0  0  0  0  0  0  0
   12.3923    6.5000    0.0000 C   0  0  0  0  0  0  0  0  0  0  0  0
   13.2583    6.0000    0.0000 C   0  0  0  0  0  0  0  0  0  0  0  0
   11.5263    6.0000    0.0000 C   0  0  0  0  0  0  0  0  0  0  0  0
   11.5263    5.0000    0.0000 C   0  0  0  0  0  0  0  0  0  0  0  0
    2.8660   -9.0000    0.0000 C   0  0  0  0  0  0  0  0  0  0  0  0
    3.7320   -8.5000    0.0000 C   0  0  0  0  0  0  0  0  0  0  0  0
    2.8660  -10.0000    0.0000 C   0  0  0  0  0  0  0  0  0  0  0  0
    4.5981   -9.0000    0.0000 C   0  0  0  0  0  0  0  0  0  0  0  0
   10.6603    4.5000    0.0000 C   0  0  0  0  0  0  0  0  0  0  0  0
    3.7320  -10.5000    0.0000 C   0  0  0  0  0  0  0  0  0  0  0  0
    4.5981  -10.0000    0.0000 C   0  0  0  0  0  0  0  0  0  0  0  0
    2.0000   -8.5000    0.0000 C   0  0  0  0  0  0  0  0  0  0  0  0
    3.7320   -7.5000    0.0000 C   0  0  0  0  0  0  0  0  0  0  0  0
    2.0000  -10.5000    0.0000 C   0  0  0  0  0  0  0  0  0  0  0  0
    5.4641   -8.5000    0.0000 C   0  0  0  0  0  0  0  0  0  0  0  0
   10.6603    3.5000    0.0000 C   0  0  0  0  0  0  0  0  0  0  0  0
    4.5981   -7.0000    0.0000 C   0  0  0  0  0  0  0  0  0  0  0  0
   11.5263    3.0000    0.0000 C   0  0  0  0  0  0  0  0  0  0  0  0
    4.5981   -6.0000    0.0000 C   0  0  0  0  0  0  0  0  0  0  0  0
    9.7942    3.0000    0.0000 C   0  0  0  0  0  0  0  0  0  0  0  0
    3.7320   -5.5000    0.0000 C   0  0  0  0  0  0  0  0  0  0  0  0
    5.4641   -5.5000    0.0000 C   0  0  0  0  0  0  0  0  0  0  0  0
    9.7942    2.0000    0.0000 C   0  0  0  0  0  0  0  0  0  0  0  0
    5.4641   -4.5000    0.0000 C   0  0  0  0  0  0  0  0  0  0  0  0
    8.9282    1.5000    0.0000 C   0  0  0  0  0  0  0  0  0  0  0  0
    8.9282    0.5000    0.0000 C   0  0  0  0  0  0  0  0  0  0  0  0
    6.3301   -4.0000    0.0000 C   0  0  0  0  0  0  0  0  0  0  0  0
    6.3301   -3.0000    0.0000 C   0  0  0  0  0  0  0  0  0  0  0  0
    8.0622    0.0000    0.0000 C   0  0  0  0  0  0  0  0  0  0  0  0
    9.7942    0.0000    0.0000 C   0  0  0  0  0  0  0  0  0  0  0  0
    7.1962   -2.5000    0.0000 C   0  0  0  0  0  0  0  0  0  0  0  0
    5.4641   -2.5000    0.0000 C   0  0  0  0  0  0  0  0  0  0  0  0
    8.0622   -1.0000    0.0000 C   0  0  0  0  0  0  0  0  0  0  0  0
    7.1962   -1.5000    0.0000 C   0  0  0  0  0  0  0  0  0  0  0  0
   13.5874    9.8100    0.0000 H   0  0  0  0  0  0  0  0  0  0  0  0
   13.0463    9.5826    0.0000 H   0  0  0  0  0  0  0  0  0  0  0  0
   12.6477    8.8923    0.0000 H   0  0  0  0  0  0  0  0  0  0  0  0
   13.4704    7.4174    0.0000 H   0  0  0  0  0  0  0  0  0  0  0  0
   13.8689    8.1077    0.0000 H   0  0  0  0  0  0  0  0  0  0  0  0
   12.1803    8.0826    0.0000 H   0  0  0  0  0  0  0  0  0  0  0  0
   11.7817    7.3923    0.0000 H   0  0  0  0  0  0  0  0  0  0  0  0
   14.7444   10.5000    0.0000 H   0  0  0  0  0  0  0  0  0  0  0  0
   14.1244   11.1200    0.0000 H   0  0  0  0  0  0  0  0  0  0  0  0
   13.5044   10.5000    0.0000 H   0  0  0  0  0  0  0  0  0  0  0  0
   14.6804    8.4631    0.0000 H   0  0  0  0  0  0  0  0  0  0  0  0
   15.5273    8.6900    0.0000 H   0  0  0  0  0  0  0  0  0  0  0  0
   15.3004    9.5369    0.0000 H   0  0  0  0  0  0  0  0  0  0  0  0
   12.9483    5.4631    0.0000 H   0  0  0  0  0  0  0  0  0  0  0  0
   13.7953    5.6900    0.0000 H   0  0  0  0  0  0  0  0  0  0  0  0
   13.5683    6.5369    0.0000 H   0  0  0  0  0  0  0  0  0  0  0  0
   10.9893    6.3100    0.0000 H   0  0  0  0  0  0  0  0  0  0  0  0
   12.0632    4.6900    0.0000 H   0  0  0  0  0  0  0  0  0  0  0  0
   10.1233    4.8100    0.0000 H   0  0  0  0  0  0  0  0  0  0  0  0
    3.7320  -11.1200    0.0000 H   0  0  0  0  0  0  0  0  0  0  0  0
    5.1350  -10.3100    0.0000 H   0  0  0  0  0  0  0  0  0  0  0  0
    2.3100   -7.9631    0.0000 H   0  0  0  0  0  0  0  0  0  0  0  0
    1.4631   -8.1900    0.0000 H   0  0  0  0  0  0  0  0  0  0  0  0
    1.6900   -9.0369    0.0000 H   0  0  0  0  0  0  0  0  0  0  0  0
    3.1951   -7.1900    0.0000 H   0  0  0  0  0  0  0  0  0  0  0  0
    1.6900   -9.9631    0.0000 H   0  0  0  0  0  0  0  0  0  0  0  0
    1.4631  -10.8100    0.0000 H   0  0  0  0  0  0  0  0  0  0  0  0
    2.3100  -11.0369    0.0000 H   0  0  0  0  0  0  0  0  0  0  0  0
    5.7741   -9.0369    0.0000 H   0  0  0  0  0  0  0  0  0  0  0  0
    6.0010   -8.1900    0.0000 H   0  0  0  0  0  0  0  0  0  0  0  0
    5.1541   -7.9631    0.0000 H   0  0  0  0  0  0  0  0  0  0  0  0
    5.1350   -7.3100    0.0000 H   0  0  0  0  0  0  0  0  0  0  0  0
   11.2163    2.4631    0.0000 H   0  0  0  0  0  0  0  0  0  0  0  0
   12.0632    2.6900    0.0000 H   0  0  0  0  0  0  0  0  0  0  0  0
   11.8363    3.5369    0.0000 H   0  0  0  0  0  0  0  0  0  0  0  0
    9.2573    3.3100    0.0000 H   0  0  0  0  0  0  0  0  0  0  0  0
    4.0420   -4.9631    0.0000 H   0  0  0  0  0  0  0  0  0  0  0  0
    3.1951   -5.1900    0.0000 H   0  0  0  0  0  0  0  0  0  0  0  0
    3.4220   -6.0369    0.0000 H   0  0  0  0  0  0  0  0  0  0  0  0
    6.0010   -5.8100    0.0000 H   0  0  0  0  0  0  0  0  0  0  0  0
   10.3312    1.6900    0.0000 H   0  0  0  0  0  0  0  0  0  0  0  0
    4.9272   -4.1900    0.0000 H   0  0  0  0  0  0  0  0  0  0  0  0
    8.3913    1.8100    0.0000 H   0  0  0  0  0  0  0  0  0  0  0  0
    6.8671   -4.3100    0.0000 H   0  0  0  0  0  0  0  0  0  0  0  0
    7.5252    0.3100    0.0000 H   0  0  0  0  0  0  0  0  0  0  0  0
    9.4842   -0.5369    0.0000 H   0  0  0  0  0  0  0  0  0  0  0  0
   10.3312   -0.3100    0.0000 H   0  0  0  0  0  0  0  0  0  0  0  0
   10.1042    0.5369    0.0000 H   0  0  0  0  0  0  0  0  0  0  0  0
    7.7331   -2.8100    0.0000 H   0  0  0  0  0  0  0  0  0  0  0  0
    5.7741   -1.9631    0.0000 H   0  0  0  0  0  0  0  0  0  0  0  0
    4.9272   -2.1900    0.0000 H   0  0  0  0  0  0  0  0  0  0  0  0
    5.1541   -3.0369    0.0000 H   0  0  0  0  0  0  0  0  0  0  0  0
    8.5991   -1.3100    0.0000 H   0  0  0  0  0  0  0  0  0  0  0  0
    6.6592   -1.1900    0.0000 H   0  0  0  0  0  0  0  0  0  0  0  0
  1  2  1  0  0  0  0
  1  5  1  0  0  0  0
  1  6  1  0  0  0  0
  1 41  1  0  0  0  0
  2  3  1  0  0  0  0
  2 42  1  0  0  0  0
  2 43  1  0  0  0  0
  3  4  1  0  0  0  0
  3 44  1  0  0  0  0
  3 45  1  0  0  0  0
  4  7  1  0  0  0  0
  4 46  1  0  0  0  0
  4 47  1  0  0  0  0
  5 48  1  0  0  0  0
  5 49  1  0  0  0  0
  5 50  1  0  0  0  0
  6 51  1  0  0  0  0
  6 52  1  0  0  0  0
  6 53  1  0  0  0  0
  7  8  1  0  0  0  0
  7  9  2  0  0  0  0
  8 54  1  0  0  0  0
  8 55  1  0  0  0  0
  8 56  1  0  0  0  0
  9 10  1  0  0  0  0
  9 57  1  0  0  0  0
 10 15  2  0  0  0  0
 10 58  1  0  0  0  0
 11 12  1  0  0  0  0
 11 13  2  0  0  0  0
 11 18  1  0  0  0  0
 12 14  2  0  0  0  0
 12 19  1  0  0  0  0
 13 16  1  0  0  0  0
 13 20  1  0  0  0  0
 14 17  1  0  0  0  0
 14 21  1  0  0  0  0
 15 22  1  0  0  0  0
 15 59  1  0  0  0  0
 16 17  2  0  0  0  0
 16 60  1  0  0  0  0
 17 61  1  0  0  0  0
 18 62  1  0  0  0  0
 18 63  1  0  0  0  0
 18 64  1  0  0  0  0
 19 23  2  0  0  0  0
 19 65  1  0  0  0  0
 20 66  1  0  0  0  0
 20 67  1  0  0  0  0
 20 68  1  0  0  0  0
 21 69  1  0  0  0  0
 21 70  1  0  0  0  0
 21 71  1  0  0  0  0
 22 24  1  0  0  0  0
 22 26  2  0  0  0  0
 23 25  1  0  0  0  0
 23 72  1  0  0  0  0
 24 73  1  0  0  0  0
 24 74  1  0  0  0  0
 24 75  1  0  0  0  0
 25 27  1  0  0  0  0
 25 28  2  0  0  0  0
 26 29  1  0  0  0  0
 26 76  1  0  0  0  0
 27 77  1  0  0  0  0
 27 78  1  0  0  0  0
 27 79  1  0  0  0  0
 28 30  1  0  0  0  0
 28 80  1  0  0  0  0
 29 31  2  0  0  0  0
 29 81  1  0  0  0  0
 30 33  2  0  0  0  0
 30 82  1  0  0  0  0
 31 32  1  0  0  0  0
 31 83  1  0  0  0  0
 32 35  2  0  0  0  0
 32 36  1  0  0  0  0
 33 34  1  0  0  0  0
 33 84  1  0  0  0  0
 34 37  2  0  0  0  0
 34 38  1  0  0  0  0
 35 39  1  0  0  0  0
 35 85  1  0  0  0  0
 36 86  1  0  0  0  0
 36 87  1  0  0  0  0
 36 88  1  0  0  0  0
 37 40  1  0  0  0  0
 37 89  1  0  0  0  0
 38 90  1  0  0  0  0
 38 91  1  0  0  0  0
 38 92  1  0  0  0  0
 39 40  2  0  0  0  0
 39 93  1  0  0  0  0
 40 94  1  0  0  0  0
M  END
> <PUBCHEM_COMPOUND_CID>
10007317

> <PUBCHEM_COMPOUND_CANONICALIZED>
1

> <PUBCHEM_CACTVS_COMPLEXITY>
1040

> <PUBCHEM_CACTVS_HBOND_ACCEPTOR>
0

> <PUBCHEM_CACTVS_HBOND_DONOR>
0

> <PUBCHEM_CACTVS_ROTATABLE_BOND>
14

> <PUBCHEM_CACTVS_SUBSKEYS>
AAADcfB8AAAAAAAAAAAAAAAAAAAAAAAAAAAwAAAAAAAAAAABAAAAGAAAAAAADQCAGAAyAIAAAACAAiBCAAACAAAgAAAIiAAAAIgIICKAERCAIAAggAAIiAcAgMAOwAACAAAQAACAAAQAACAAAAAAAAAAAA==

> <PUBCHEM_IUPAC_OPENEYE_NAME>
2-[(1E,3E,5E,7E,9E,11E,13E,15E,17E,19E)-3,7,12,16,20,24-hexamethylpentacosa-1,3,5,7,9,11,13,15,17,19-decaenyl]-1,3,4-trimethyl-benzene

> <PUBCHEM_IUPAC_CAS_NAME>
2-[(1E,3E,5E,7E,9E,11E,13E,15E,17E,19E)-3,7,12,16,20,24-hexamethylpentacosa-1,3,5,7,9,11,13,15,17,19-decaenyl]-1,3,4-trimethylbenzene

> <PUBCHEM_IUPAC_NAME>
2-[(1E,3E,5E,7E,9E,11E,13E,15E,17E,19E)-3,7,12,16,20,24-hexamethylpentacosa-1,3,5,7,9,11,13,15,17,19-decaenyl]-1,3,4-trimethylbenzene

> <PUBCHEM_IUPAC_SYSTEMATIC_NAME>
2-[(1E,3E,5E,7E,9E,11E,13E,15E,17E,19E)-3,7,12,16,20,24-hexamethylpentacosa-1,3,5,7,9,11,13,15,17,19-decaenyl]-1,3,4-trimethyl-benzene

> <PUBCHEM_IUPAC_TRADITIONAL_NAME>
2-[(1E,3E,5E,7E,9E,11E,13E,15E,17E,19E)-3,7,12,16,20,24-hexamethylpentacosa-1,3,5,7,9,11,13,15,17,19-decaenyl]-1,3,4-trimethyl-benzene

> <PUBCHEM_IUPAC_INCHI>
InChI=1S/C40H54/c1-31(2)17-13-20-34(5)23-15-25-35(6)24-14-21-32(3)18-11-12-19-33(4)22-16-26-36(7)27-30-40-38(9)29-28-37(8)39(40)10/h11-12,14-16,18-19,21-31H,13,17,20H2,1-10H3/b12-11+,21-14+,22-16+,25-15+,30-27+,32-18+,33-19+,34-23+,35-24+,36-26+

> <PUBCHEM_IUPAC_INCHIKEY>
QEIVSWXZEWDIPZ-IQAIWTHGSA-N

> <PUBCHEM_XLOGP3_AA>
15.2

> <PUBCHEM_EXACT_MASS>
534.422552

> <PUBCHEM_MOLECULAR_FORMULA>
C40H54

> <PUBCHEM_MOLECULAR_WEIGHT>
534.85676

> <PUBCHEM_OPENEYE_CAN_SMILES>
CC1=C(C(=C(C=C1)C)C=CC(=CC=CC(=CC=CC=C(C)C=CC=C(C)C=CC=C(C)CCCC(C)C)C)C)C

> <PUBCHEM_OPENEYE_ISO_SMILES>
CC1=C(C(=C(C=C1)C)/C=C/C(=C/C=C/C(=C/C=C/C=C(\C)/C=C/C=C(\C)/C=C/C=C(\C)/CCCC(C)C)/C)/C)C

> <PUBCHEM_CACTVS_TPSA>
0

> <PUBCHEM_MONOISOTOPIC_WEIGHT>
534.422552

> <PUBCHEM_TOTAL_CHARGE>
0

> <PUBCHEM_HEAVY_ATOM_COUNT>
40

> <PUBCHEM_ATOM_DEF_STEREO_COUNT>
0

> <PUBCHEM_ATOM_UDEF_STEREO_COUNT>
0

> <PUBCHEM_BOND_DEF_STEREO_COUNT>
10

> <PUBCHEM_BOND_UDEF_STEREO_COUNT>
0

> <PUBCHEM_ISOTOPIC_ATOM_COUNT>
0

> <PUBCHEM_COMPONENT_COUNT>
1

> <PUBCHEM_CACTVS_TAUTO_COUNT>
1

> <PUBCHEM_COORDINATE_TYPE>
1
5
255

> <PUBCHEM_BONDANNOTATIONS>
11  12  8
11  13  8
12  14  8
13  16  8
14  17  8
16  17  8

$$$$

