442703
  -OEChem-07051212593D

 44 45  0     1  0  0  0  0  0999 V2000
    4.0467   -1.2483   -1.4021 O   0  0  0  0  0  0  0  0  0  0  0  0
    2.1156   -2.4809    0.5330 O   0  0  0  0  0  0  0  0  0  0  0  0
    2.1279    2.2998    0.9069 O   0  0  0  0  0  0  0  0  0  0  0  0
    3.6492   -0.0911    0.6768 C   0  0  0  0  0  0  0  0  0  0  0  0
    2.1382   -0.0906    0.7193 C   0  0  0  0  0  0  0  0  0  0  0  0
   -2.1248   -0.0892    0.8394 C   0  0  0  0  0  0  0  0  0  0  0  0
   -0.6340   -0.0897    0.7973 C   0  0  0  0  0  0  0  0  0  0  0  0
    4.1866    0.0195   -0.7584 C   0  0  1  0  0  0  0  0  0  0  0  0
   -2.7923    0.0206   -0.5459 C   0  0  0  0  0  0  0  0  0  0  0  0
    1.4544   -1.2947    0.6444 C   0  0  0  0  0  0  0  0  0  0  0  0
    1.4606    1.1140    0.8326 C   0  0  0  0  0  0  0  0  0  0  0  0
    0.0600   -1.2941    0.6836 C   0  0  0  0  0  0  0  0  0  0  0  0
    0.0663    1.1144    0.8717 C   0  0  0  0  0  0  0  0  0  0  0  0
   -4.2996    0.0575   -0.4782 C   0  0  0  0  0  0  0  0  0  0  0  0
    5.6423    0.4399   -0.7894 C   0  0  0  0  0  0  0  0  0  0  0  0
   -5.0113   -1.1309   -0.5267 C   0  0  0  0  0  0  0  0  0  0  0  0
   -4.9454    1.2790   -0.3681 C   0  0  0  0  0  0  0  0  0  0  0  0
    6.6411   -0.4197   -0.0656 C   0  0  0  0  0  0  0  0  0  0  0  0
    6.0292    1.5439   -1.4484 C   0  0  0  0  0  0  0  0  0  0  0  0
   -6.4044   -1.0971   -0.4640 C   0  0  0  0  0  0  0  0  0  0  0  0
   -6.3385    1.3128   -0.3052 C   0  0  0  0  0  0  0  0  0  0  0  0
   -7.0679    0.1248   -0.3532 C   0  0  0  0  0  0  0  0  0  0  0  0
    4.0437   -0.9784    1.1880 H   0  0  0  0  0  0  0  0  0  0  0  0
    4.0152    0.7525    1.2781 H   0  0  0  0  0  0  0  0  0  0  0  0
   -2.4758   -0.9994    1.3447 H   0  0  0  0  0  0  0  0  0  0  0  0
   -2.4688    0.7349    1.4794 H   0  0  0  0  0  0  0  0  0  0  0  0
    3.5768    0.7325   -1.3277 H   0  0  0  0  0  0  0  0  0  0  0  0
   -2.4761   -0.8194   -1.1792 H   0  0  0  0  0  0  0  0  0  0  0  0
   -2.4312    0.9198   -1.0633 H   0  0  0  0  0  0  0  0  0  0  0  0
   -0.4805   -2.2357    0.6231 H   0  0  0  0  0  0  0  0  0  0  0  0
   -0.4766    2.0527    0.9580 H   0  0  0  0  0  0  0  0  0  0  0  0
   -4.5031   -2.0873   -0.6107 H   0  0  0  0  0  0  0  0  0  0  0  0
   -4.3858    2.2091   -0.3278 H   0  0  0  0  0  0  0  0  0  0  0  0
    6.4486   -0.4148    1.0116 H   0  0  0  0  0  0  0  0  0  0  0  0
    6.5907   -1.4523   -0.4252 H   0  0  0  0  0  0  0  0  0  0  0  0
    7.6683   -0.0704   -0.2168 H   0  0  0  0  0  0  0  0  0  0  0  0
    4.3783   -1.1555   -2.3117 H   0  0  0  0  0  0  0  0  0  0  0  0
    3.0023   -2.3433    0.1646 H   0  0  0  0  0  0  0  0  0  0  0  0
    1.4827    3.0238    0.9806 H   0  0  0  0  0  0  0  0  0  0  0  0
    5.3149    2.1683   -1.9746 H   0  0  0  0  0  0  0  0  0  0  0  0
    7.0697    1.8503   -1.4764 H   0  0  0  0  0  0  0  0  0  0  0  0
   -6.9723   -2.0221   -0.5007 H   0  0  0  0  0  0  0  0  0  0  0  0
   -6.8553    2.2641   -0.2181 H   0  0  0  0  0  0  0  0  0  0  0  0
   -8.1525    0.1512   -0.3039 H   0  0  0  0  0  0  0  0  0  0  0  0
  1  8  1  0  0  0  0
  1 37  1  0  0  0  0
  2 10  1  0  0  0  0
  2 38  1  0  0  0  0
  3 11  1  0  0  0  0
  3 39  1  0  0  0  0
  4  5  1  0  0  0  0
  4  8  1  0  0  0  0
  4 23  1  0  0  0  0
  4 24  1  0  0  0  0
  5 10  2  0  0  0  0
  5 11  1  0  0  0  0
  6  7  1  0  0  0  0
  6  9  1  0  0  0  0
  6 25  1  0  0  0  0
  6 26  1  0  0  0  0
  7 12  2  0  0  0  0
  7 13  1  0  0  0  0
  8 15  1  0  0  0  0
  8 27  1  0  0  0  0
  9 14  1  0  0  0  0
  9 28  1  0  0  0  0
  9 29  1  0  0  0  0
 10 12  1  0  0  0  0
 11 13  2  0  0  0  0
 12 30  1  0  0  0  0
 13 31  1  0  0  0  0
 14 16  2  0  0  0  0
 14 17  1  0  0  0  0
 15 18  1  0  0  0  0
 15 19  2  0  0  0  0
 16 20  1  0  0  0  0
 16 32  1  0  0  0  0
 17 21  2  0  0  0  0
 17 33  1  0  0  0  0
 18 34  1  0  0  0  0
 18 35  1  0  0  0  0
 18 36  1  0  0  0  0
 19 40  1  0  0  0  0
 19 41  1  0  0  0  0
 20 22  2  0  0  0  0
 20 42  1  0  0  0  0
 21 22  1  0  0  0  0
 21 43  1  0  0  0  0
 22 44  1  0  0  0  0
M  END
> <PUBCHEM_COMPOUND_CID>
442703

> <PUBCHEM_CONFORMER_RMSD>
0.8

> <PUBCHEM_CONFORMER_DIVERSEORDER>
6
41
25
50
4
39
18
23
45
46
43
44
12
7
48
26
14
42
35
47
15
28
36
27
40
30
31
16
13
38
37
20
17
2
24
49
32
22
10
3
11
51
21
33
5
1
8
19
9
29
34

> <PUBCHEM_MMFF94_PARTIAL_CHARGES>
34
1 -0.68
10 0.08
11 0.08
12 -0.15
13 -0.15
14 -0.14
15 -0.28
16 -0.15
17 -0.15
18 0.14
19 -0.3
2 -0.53
20 -0.15
21 -0.15
22 -0.15
3 -0.53
30 0.15
31 0.15
32 0.15
33 0.15
37 0.4
38 0.45
39 0.45
4 0.14
40 0.15
41 0.15
42 0.15
43 0.15
44 0.15
5 -0.14
6 0.14
7 -0.14
8 0.42
9 0.14

> <PUBCHEM_EFFECTIVE_ROTOR_COUNT>
6

> <PUBCHEM_PHARMACOPHORE_FEATURES>
6
1 1 acceptor
1 1 donor
1 2 donor
1 3 donor
6 14 16 17 20 21 22 rings
6 5 7 10 11 12 13 rings

> <PUBCHEM_HEAVY_ATOM_COUNT>
22

> <PUBCHEM_ATOM_DEF_STEREO_COUNT>
0

> <PUBCHEM_ATOM_UDEF_STEREO_COUNT>
1

> <PUBCHEM_BOND_DEF_STEREO_COUNT>
0

> <PUBCHEM_BOND_UDEF_STEREO_COUNT>
0

> <PUBCHEM_ISOTOPIC_ATOM_COUNT>
0

> <PUBCHEM_COMPONENT_COUNT>
1

> <PUBCHEM_CACTVS_TAUTO_COUNT>
10

> <PUBCHEM_CONFORMER_ID>
0006C14F00000006

> <PUBCHEM_MMFF94_ENERGY>
54.206

> <PUBCHEM_FEATURE_SELFOVERLAP>
30.447

> <PUBCHEM_SHAPE_FINGERPRINT>
10595046 47 18272937154658515283
10693767 8 18040998496610196510
11089746 13 13830131667954493795
11796584 16 15285361699599745228
12670543 26 18408882953711544970
12730499 353 18272367572948678259
13533116 47 15625955278396694312
13540713 4 17975129847444892402
13540713 5 18046899661446678898
13668630 136 16226045574662292669
13685833 64 15719390633330386046
13968360 50 18342740745602153634
14123256 10 18060701689192040799
14251752 14 18410294730757248174
14528608 73 18413672396139188557
15048467 5 17632576041711844540
15183329 4 18113613499866373313
15301273 46 10663828490047841672
15348495 7 10807639087226915493
15475509 35 5111732289755562110
15537594 2 16515688861546600639
17834072 8 17894914031578928869
17844677 252 18335140878497103129
18335252 114 17561083592809326940
18335252 98 17918266551126880955
18608769 82 18059002892573174483
18681886 176 17749118759539256723
19784866 240 16081078264642308817
20157964 124 17917991685920033394
20281389 69 16343708728950233100
20715895 44 18059566963391376684
20735858 18 10879993553609729888
21150785 3 18335417950240583725
21267235 1 18260829272726341155
21304304 249 6843929364572783524
21637258 2 15140958504529616430
221357 26 18334014999221266393
22224240 67 10519981548259773724
2297311 6 18186522099499673761
23198884 109 18060699498706050209
23522609 53 18266720528468338153
23559900 14 16009044838464697971
239999 70 18113060415241574538
25147074 1 18192991745464215488
2838139 119 16702024149588804662
29717793 49 16588022402980676008
300161 21 13183026216083416449
3004659 81 18113904844651452697
3009799 131 18187366523939124088
33382 64 14923933583671676790
3545911 37 18411705383555462105
4073 2 17917990590708921291
4098825 35 17916309509563091959
4325135 7 17989489628212291655
4340502 62 12535629379348624057
465052 167 6916258551004180640
542803 24 17703794734580028345

> <PUBCHEM_SHAPE_MULTIPOLES>
435.14
18.66
1.73
1.15
10.04
0.07
-0.09
-2.67
-7.88
-0.58
0.11
-1.04
-0.14
-0.48

> <PUBCHEM_SHAPE_SELFOVERLAP>
916.296

> <PUBCHEM_SHAPE_VOLUME>
244

> <PUBCHEM_COORDINATE_TYPE>
2
5
10

$$$$

