128423
  -OEChem-07051213043D

 21 21  0     1  0  0  0  0  0999 V2000
   -2.2997   -0.0647    0.3045 S   0  0  0  0  0  0  0  0  0  0  0  0
   -0.8232    2.1051    0.0848 O   0  0  0  0  0  0  0  0  0  0  0  0
    0.3785   -0.0105   -0.1569 C   0  0  2  0  0  0  0  0  0  0  0  0
   -0.0379   -1.3935    0.3744 C   0  0  0  0  0  0  0  0  0  0  0  0
    1.5891    0.5141    0.6191 C   0  0  0  0  0  0  0  0  0  0  0  0
   -1.4824   -1.6491   -0.0197 C   0  0  0  0  0  0  0  0  0  0  0  0
   -0.8280    0.8831    0.0801 C   0  0  0  0  0  0  0  0  0  0  0  0
    0.6917   -0.0406   -1.6573 C   0  0  0  0  0  0  0  0  0  0  0  0
    2.8119   -0.3439    0.3710 C   0  0  0  0  0  0  0  0  0  0  0  0
    0.0455   -1.4297    1.4698 H   0  0  0  0  0  0  0  0  0  0  0  0
    0.5984   -2.1959   -0.0158 H   0  0  0  0  0  0  0  0  0  0  0  0
    1.3719    0.5424    1.6945 H   0  0  0  0  0  0  0  0  0  0  0  0
    1.8141    1.5486    0.3299 H   0  0  0  0  0  0  0  0  0  0  0  0
   -1.5723   -1.8969   -1.0815 H   0  0  0  0  0  0  0  0  0  0  0  0
   -1.9320   -2.4512    0.5716 H   0  0  0  0  0  0  0  0  0  0  0  0
    1.1285    0.9083   -1.9898 H   0  0  0  0  0  0  0  0  0  0  0  0
    1.3812   -0.8487   -1.9219 H   0  0  0  0  0  0  0  0  0  0  0  0
   -0.2161   -0.1892   -2.2538 H   0  0  0  0  0  0  0  0  0  0  0  0
    2.6525   -1.3921    0.6383 H   0  0  0  0  0  0  0  0  0  0  0  0
    3.1562   -0.2920   -0.6657 H   0  0  0  0  0  0  0  0  0  0  0  0
    3.6392    0.0192    0.9915 H   0  0  0  0  0  0  0  0  0  0  0  0
  1  6  1  0  0  0  0
  1  7  1  0  0  0  0
  2  7  2  0  0  0  0
  3  4  1  0  0  0  0
  3  5  1  0  0  0  0
  3  7  1  0  0  0  0
  3  8  1  0  0  0  0
  4  6  1  0  0  0  0
  4 10  1  0  0  0  0
  4 11  1  0  0  0  0
  5  9  1  0  0  0  0
  5 12  1  0  0  0  0
  5 13  1  0  0  0  0
  6 14  1  0  0  0  0
  6 15  1  0  0  0  0
  8 16  1  0  0  0  0
  8 17  1  0  0  0  0
  8 18  1  0  0  0  0
  9 19  1  0  0  0  0
  9 20  1  0  0  0  0
  9 21  1  0  0  0  0
M  END
> <PUBCHEM_COMPOUND_CID>
128423

> <PUBCHEM_CONFORMER_RMSD>
0.4

> <PUBCHEM_CONFORMER_DIVERSEORDER>
1
6
2
3
7
5
4

> <PUBCHEM_MMFF94_PARTIAL_CHARGES>
5
1 -0.37
2 -0.57
3 0.06
6 0.23
7 0.65

> <PUBCHEM_EFFECTIVE_ROTOR_COUNT>
1.8

> <PUBCHEM_PHARMACOPHORE_FEATURES>
2
1 9 hydrophobe
5 1 3 4 6 7 rings

> <PUBCHEM_HEAVY_ATOM_COUNT>
9

> <PUBCHEM_ATOM_DEF_STEREO_COUNT>
0

> <PUBCHEM_ATOM_UDEF_STEREO_COUNT>
1

> <PUBCHEM_BOND_DEF_STEREO_COUNT>
0

> <PUBCHEM_BOND_UDEF_STEREO_COUNT>
0

> <PUBCHEM_ISOTOPIC_ATOM_COUNT>
0

> <PUBCHEM_COMPONENT_COUNT>
1

> <PUBCHEM_CACTVS_TAUTO_COUNT>
1

> <PUBCHEM_CONFORMER_ID>
0001F5A700000001

> <PUBCHEM_MMFF94_ENERGY>
14.1655

> <PUBCHEM_FEATURE_SELFOVERLAP>
10.148

> <PUBCHEM_SHAPE_FINGERPRINT>
12423570 1 12072834412711230727
13024252 1 18200894936139166394
137420 1 5882677415299616440
14128692 85 17488179283996177398
16945 1 18410298037919093258
18185500 45 18200313195551032811
20653085 51 8141256422914200250
21040471 1 18123459737961628085
23211744 41 17968384562098066472
23552423 10 18129945568302210066
29004967 10 18122913023021535154
369184 2 18335431153149341402
5084963 1 18041006162777925848
5943 1 5471186743430050108

> <PUBCHEM_SHAPE_MULTIPOLES>
183.2
2.94
1.62
1.02
0.95
0.26
-0.46
-0.4
0.63
-0.69
0.13
0.3
-0.02
-0.03

> <PUBCHEM_SHAPE_SELFOVERLAP>
350.222

> <PUBCHEM_SHAPE_VOLUME>
115.8

> <PUBCHEM_COORDINATE_TYPE>
2
5
10

$$$$

