21589156
  -OEChem-07051213152D

 68 71  0     1  0  0  0  0  0999 V2000
   11.6010    0.6533    0.0000 P   0  0  3  0  0  0  0  0  0  0  0  0
    9.8781    0.4753    0.0000 P   0  0  3  0  0  0  0  0  0  0  0  0
    7.3435   -1.2892    0.0000 O   0  0  0  0  0  0  0  0  0  0  0  0
   13.2211    1.8261    0.0000 O   0  0  0  0  0  0  0  0  0  0  0  0
    4.8055   -0.7848    0.0000 O   0  0  0  0  0  0  0  0  0  0  0  0
    6.0873    0.9731    0.0000 O   0  0  0  0  0  0  0  0  0  0  0  0
   12.5138    0.2450    0.0000 O   0  0  0  0  0  0  0  0  0  0  0  0
   15.7540    2.5905    0.0000 O   0  0  0  0  0  0  0  0  0  0  0  0
   15.9596    0.6011    0.0000 O   0  0  0  0  0  0  0  0  0  0  0  0
   14.3395   -0.5716    0.0000 O   0  0  0  0  0  0  0  0  0  0  0  0
    9.0681   -0.1111    0.0000 O   0  0  0  0  0  0  0  0  0  0  0  0
   13.0154    3.8155    0.0000 O   0  0  0  0  0  0  0  0  0  0  0  0
   10.6882    1.0616    0.0000 O   0  0  0  0  0  0  0  0  0  0  0  0
   14.6355    4.9883    0.0000 O   0  0  0  0  0  0  0  0  0  0  0  0
   12.0093    1.5662    0.0000 O   0  0  0  0  0  0  0  0  0  0  0  0
   10.4645   -0.3348    0.0000 O   0  0  0  0  0  0  0  0  0  0  0  0
   11.1927   -0.2595    0.0000 O   0  0  0  0  0  0  0  0  0  0  0  0
    9.2917    1.2853    0.0000 O   0  0  0  0  0  0  0  0  0  0  0  0
    4.2690   -5.3518    0.0000 O   0  0  0  0  0  0  0  0  0  0  0  0
    6.0812   -2.5471    0.0000 N   0  0  0  0  0  0  0  0  0  0  0  0
    4.2690   -2.3518    0.0000 N   0  0  0  0  0  0  0  0  0  0  0  0
    6.0812   -4.1566    0.0000 N   0  0  0  0  0  0  0  0  0  0  0  0
    3.4030   -3.8518    0.0000 N   0  0  0  0  0  0  0  0  0  0  0  0
    2.5369   -2.3518    0.0000 N   0  0  0  0  0  0  0  0  0  0  0  0
    5.8055   -0.7865    0.0000 C   0  0  2  0  0  0  0  0  0  0  0  0
    6.3947    0.0215    0.0000 C   0  0  1  0  0  0  0  0  0  0  0  0
    6.3919   -1.5966    0.0000 C   0  0  1  0  0  0  0  0  0  0  0  0
    7.3452   -0.2892    0.0000 C   0  0  1  0  0  0  0  0  0  0  0  0
   14.0311    2.4125    0.0000 C   0  0  1  0  0  0  0  0  0  0  0  0
   14.9439    2.0042    0.0000 C   0  0  2  0  0  0  0  0  0  0  0  0
   15.0467    1.0095    0.0000 C   0  0  1  0  0  0  0  0  0  0  0  0
   14.2367    0.4231    0.0000 C   0  0  1  0  0  0  0  0  0  0  0  0
   13.3239    0.8314    0.0000 C   0  0  2  0  0  0  0  0  0  0  0  0
   13.9283    3.4072    0.0000 C   0  0  1  0  0  0  0  0  0  0  0  0
    8.1552    0.2972    0.0000 C   0  0  0  0  0  0  0  0  0  0  0  0
    5.1350   -2.8518    0.0000 C   0  0  0  0  0  0  0  0  0  0  0  0
   14.7383    3.9936    0.0000 C   0  0  0  0  0  0  0  0  0  0  0  0
    6.6648   -3.3518    0.0000 C   0  0  0  0  0  0  0  0  0  0  0  0
    5.1350   -3.8518    0.0000 C   0  0  0  0  0  0  0  0  0  0  0  0
    4.2690   -4.3518    0.0000 C   0  0  0  0  0  0  0  0  0  0  0  0
    3.4030   -2.8518    0.0000 C   0  0  0  0  0  0  0  0  0  0  0  0
    5.5250   -0.2336    0.0000 H   0  0  0  0  0  0  0  0  0  0  0  0
    5.7825    0.1195    0.0000 H   0  0  0  0  0  0  0  0  0  0  0  0
    5.7794   -1.6925    0.0000 H   0  0  0  0  0  0  0  0  0  0  0  0
    7.8972   -0.5716    0.0000 H   0  0  0  0  0  0  0  0  0  0  0  0
   13.2552    2.7595    0.0000 H   0  0  0  0  0  0  0  0  0  0  0  0
   15.5099    1.7510    0.0000 H   0  0  0  0  0  0  0  0  0  0  0  0
   15.1105    0.3927    0.0000 H   0  0  0  0  0  0  0  0  0  0  0  0
   13.7345    0.0595    0.0000 H   0  0  0  0  0  0  0  0  0  0  0  0
   12.7579    1.0845    0.0000 H   0  0  0  0  0  0  0  0  0  0  0  0
   13.8645    4.0239    0.0000 H   0  0  0  0  0  0  0  0  0  0  0  0
    8.5028    0.8106    0.0000 H   0  0  0  0  0  0  0  0  0  0  0  0
    7.7100    0.7286    0.0000 H   0  0  0  0  0  0  0  0  0  0  0  0
   15.0091    3.4358    0.0000 H   0  0  0  0  0  0  0  0  0  0  0  0
   15.3346    4.1634    0.0000 H   0  0  0  0  0  0  0  0  0  0  0  0
    4.4964   -0.2473    0.0000 H   0  0  0  0  0  0  0  0  0  0  0  0
    6.5030    1.4331    0.0000 H   0  0  0  0  0  0  0  0  0  0  0  0
   16.3199    2.3374    0.0000 H   0  0  0  0  0  0  0  0  0  0  0  0
    7.2848   -3.3518    0.0000 H   0  0  0  0  0  0  0  0  0  0  0  0
   16.0233   -0.0156    0.0000 H   0  0  0  0  0  0  0  0  0  0  0  0
   14.9055   -0.8248    0.0000 H   0  0  0  0  0  0  0  0  0  0  0  0
   12.9517    4.4322    0.0000 H   0  0  0  0  0  0  0  0  0  0  0  0
    4.2690   -1.7318    0.0000 H   0  0  0  0  0  0  0  0  0  0  0  0
   15.1377    5.3518    0.0000 H   0  0  0  0  0  0  0  0  0  0  0  0
   11.6458    2.0684    0.0000 H   0  0  0  0  0  0  0  0  0  0  0  0
   10.2113   -0.9007    0.0000 H   0  0  0  0  0  0  0  0  0  0  0  0
    2.0000   -2.6618    0.0000 H   0  0  0  0  0  0  0  0  0  0  0  0
    2.5369   -1.7318    0.0000 H   0  0  0  0  0  0  0  0  0  0  0  0
  1  7  1  0  0  0  0
  1 13  1  0  0  0  0
  1 15  1  0  0  0  0
  1 17  2  0  0  0  0
  2 11  1  0  0  0  0
  2 13  1  0  0  0  0
  2 16  1  0  0  0  0
  2 18  2  0  0  0  0
  3 27  1  0  0  0  0
  3 28  1  0  0  0  0
  4 29  1  0  0  0  0
  4 33  1  0  0  0  0
 25  5  1  6  0  0  0
  5 56  1  0  0  0  0
 26  6  1  6  0  0  0
  6 57  1  0  0  0  0
 33  7  1  1  0  0  0
 30  8  1  1  0  0  0
  8 58  1  0  0  0  0
 31  9  1  6  0  0  0
  9 60  1  0  0  0  0
 32 10  1  6  0  0  0
 10 61  1  0  0  0  0
 11 35  1  0  0  0  0
 34 12  1  6  0  0  0
 12 62  1  0  0  0  0
 14 37  1  0  0  0  0
 14 64  1  0  0  0  0
 15 65  1  0  0  0  0
 16 66  1  0  0  0  0
 19 40  2  0  0  0  0
 27 20  1  1  0  0  0
 20 36  1  0  0  0  0
 20 38  1  0  0  0  0
 21 36  1  0  0  0  0
 21 41  1  0  0  0  0
 21 63  1  0  0  0  0
 22 38  2  0  0  0  0
 22 39  1  0  0  0  0
 23 40  1  0  0  0  0
 23 41  2  0  0  0  0
 24 41  1  0  0  0  0
 24 67  1  0  0  0  0
 24 68  1  0  0  0  0
 25 26  1  0  0  0  0
 25 27  1  0  0  0  0
 25 42  1  0  0  0  0
 26 28  1  0  0  0  0
 26 43  1  0  0  0  0
 27 44  1  0  0  0  0
 28 35  1  1  0  0  0
 28 45  1  0  0  0  0
 29 30  1  0  0  0  0
 29 34  1  0  0  0  0
 29 46  1  1  0  0  0
 30 31  1  0  0  0  0
 30 47  1  0  0  0  0
 31 32  1  0  0  0  0
 31 48  1  0  0  0  0
 32 33  1  0  0  0  0
 32 49  1  0  0  0  0
 33 50  1  0  0  0  0
 34 37  1  0  0  0  0
 34 51  1  0  0  0  0
 35 52  1  0  0  0  0
 35 53  1  0  0  0  0
 36 39  2  0  0  0  0
 37 54  1  0  0  0  0
 37 55  1  0  0  0  0
 38 59  1  0  0  0  0
 39 40  1  0  0  0  0
M  END
> <PUBCHEM_COMPOUND_CID>
21589156

> <PUBCHEM_COMPOUND_CANONICALIZED>
1

> <PUBCHEM_CACTVS_COMPLEXITY>
1100

> <PUBCHEM_CACTVS_HBOND_ACCEPTOR>
18

> <PUBCHEM_CACTVS_HBOND_DONOR>
11

> <PUBCHEM_CACTVS_ROTATABLE_BOND>
10

> <PUBCHEM_CACTVS_SUBSKEYS>
AAADceB7vgMAAAAAAAAAAAAAAAAAAWJAAAAkQAAAAAAAAEABgAAAHgAQCCAACBzxlgcFuBfMFxCoQQdxdICAgC0XEKABUAGoVECTWApAyCAeQIAPAALXAGHw8CYAAAAAAAAAAAAAAAAAAAAAAAAAAAAAAA==

> <PUBCHEM_IUPAC_OPENEYE_NAME>
[[(2R,3S,4R,5R)-5-(2-amino-6-oxo-3H-purin-9-yl)-3,4-dihydroxy-tetrahydrofuran-2-yl]methoxy-hydroxy-phosphoryl] [(2R,3S,4S,5S,6R)-6-[(1R)-1,2-dihydroxyethyl]-3,4,5-trihydroxy-tetrahydropyran-2-yl] hydrogen phosphate

> <PUBCHEM_IUPAC_CAS_NAME>
[[(2R,3S,4R,5R)-5-(2-amino-6-oxo-3H-purin-9-yl)-3,4-dihydroxy-2-oxolanyl]methoxy-hydroxyphosphoryl] [(2R,3S,4S,5S,6R)-6-[(1R)-1,2-dihydroxyethyl]-3,4,5-trihydroxy-2-oxanyl] hydrogen phosphate

> <PUBCHEM_IUPAC_NAME>
[[(2R,3S,4R,5R)-5-(2-amino-6-oxo-3H-purin-9-yl)-3,4-dihydroxyoxolan-2-yl]methoxy-hydroxyphosphoryl] [(2R,3S,4S,5S,6R)-6-[(1R)-1,2-dihydroxyethyl]-3,4,5-trihydroxyoxan-2-yl] hydrogen phosphate

> <PUBCHEM_IUPAC_SYSTEMATIC_NAME>
[[(2R,3S,4R,5R)-5-(2-azanyl-6-oxidanylidene-3H-purin-9-yl)-3,4-bis(oxidanyl)oxolan-2-yl]methoxy-oxidanyl-phosphoryl] [(2R,3S,4S,5S,6R)-6-[(1R)-1,2-bis(oxidanyl)ethyl]-3,4,5-tris(oxidanyl)oxan-2-yl] hydrogen phosphate

> <PUBCHEM_IUPAC_TRADITIONAL_NAME>
[[(2R,3S,4R,5R)-5-(2-amino-6-keto-3H-purin-9-yl)-3,4-dihydroxy-tetrahydrofuran-2-yl]methoxy-hydroxy-phosphoryl] [(2R,3S,4S,5S,6R)-6-[(1R)-1,2-dihydroxyethyl]-3,4,5-trihydroxy-tetrahydropyran-2-yl] hydrogen phosphate

> <PUBCHEM_IUPAC_INCHI>
InChI=1S/C17H27N5O17P2/c18-17-20-13-6(14(30)21-17)19-3-22(13)15-10(28)7(25)5(36-15)2-35-40(31,32)39-41(33,34)38-16-11(29)8(26)9(27)12(37-16)4(24)1-23/h3-5,7-12,15-16,23-29H,1-2H2,(H,31,32)(H,33,34)(H3,18,20,21,30)/t4-,5-,7-,8+,9+,10-,11+,12-,15-,16-/m1/s1

> <PUBCHEM_IUPAC_INCHIKEY>
HRUXIQZFNLQZQA-LNASZZQASA-N

> <PUBCHEM_XLOGP3_AA>
-7.7

> <PUBCHEM_EXACT_MASS>
635.087718

> <PUBCHEM_MOLECULAR_FORMULA>
C17H27N5O17P2

> <PUBCHEM_MOLECULAR_WEIGHT>
635.367104

> <PUBCHEM_OPENEYE_CAN_SMILES>
C1=NC2=C(N1C3C(C(C(O3)COP(=O)(O)OP(=O)(O)OC4C(C(C(C(O4)C(CO)O)O)O)O)O)O)NC(=NC2=O)N

> <PUBCHEM_OPENEYE_ISO_SMILES>
C1=NC2=C(N1[C@H]3[C@@H]([C@@H]([C@H](O3)COP(=O)(O)OP(=O)(O)O[C@@H]4[C@H]([C@H]([C@@H]([C@H](O4)[C@@H](CO)O)O)O)O)O)O)NC(=NC2=O)N

> <PUBCHEM_CACTVS_TPSA>
348

> <PUBCHEM_MONOISOTOPIC_WEIGHT>
635.087718

> <PUBCHEM_TOTAL_CHARGE>
0

> <PUBCHEM_HEAVY_ATOM_COUNT>
41

> <PUBCHEM_ATOM_DEF_STEREO_COUNT>
10

> <PUBCHEM_ATOM_UDEF_STEREO_COUNT>
0

> <PUBCHEM_BOND_DEF_STEREO_COUNT>
0

> <PUBCHEM_BOND_UDEF_STEREO_COUNT>
0

> <PUBCHEM_ISOTOPIC_ATOM_COUNT>
0

> <PUBCHEM_COMPONENT_COUNT>
1

> <PUBCHEM_CACTVS_TAUTO_COUNT>
9

> <PUBCHEM_COORDINATE_TYPE>
1
5
255

> <PUBCHEM_BONDANNOTATIONS>
32  10  6
34  12  6
27  20  5
20  36  8
20  38  8
21  36  8
21  41  8
22  38  8
22  39  8
23  40  8
23  41  8
28  35  5
29  46  5
36  39  8
39  40  8
25  5  6
26  6  6
33  7  5
30  8  5
31  9  6

$$$$

