194139
  -OEChem-07051212462D

 42 43  0     1  0  0  0  0  0999 V2000
    2.8660   -4.8450    0.0000 O   0  0  0  0  0  0  0  0  0  0  0  0
    2.0000   -3.3450    0.0000 O   0  0  0  0  0  0  0  0  0  0  0  0
    4.5981   -0.8450    0.0000 N   0  0  0  0  0  0  0  0  0  0  0  0
    3.7320    0.6550    0.0000 N   0  0  0  0  0  0  0  0  0  0  0  0
    4.5981    2.1550    0.0000 N   0  0  0  0  0  0  0  0  0  0  0  0
    4.5981   -3.8450    0.0000 N   0  0  0  0  0  0  0  0  0  0  0  0
    6.4103   -0.6497    0.0000 N   0  0  0  0  0  0  0  0  0  0  0  0
    6.4103    0.9597    0.0000 N   0  0  0  0  0  0  0  0  0  0  0  0
    4.5981   -1.8450    0.0000 C   0  0  0  0  0  0  0  0  0  0  0  0
    3.7320   -2.3450    0.0000 C   0  0  0  0  0  0  0  0  0  0  0  0
    3.7320   -3.3450    0.0000 C   0  0  3  0  0  0  0  0  0  0  0  0
    5.4641   -0.3450    0.0000 C   0  0  0  0  0  0  0  0  0  0  0  0
    5.4641    0.6550    0.0000 C   0  0  0  0  0  0  0  0  0  0  0  0
    3.7320   -0.3450    0.0000 C   0  0  0  0  0  0  0  0  0  0  0  0
    4.5981    1.1550    0.0000 C   0  0  0  0  0  0  0  0  0  0  0  0
    2.8660   -3.8450    0.0000 C   0  0  0  0  0  0  0  0  0  0  0  0
    3.7320    2.6550    0.0000 C   0  0  0  0  0  0  0  0  0  0  0  0
    6.9939    0.1550    0.0000 C   0  0  0  0  0  0  0  0  0  0  0  0
    3.7320    3.6550    0.0000 C   0  0  0  0  0  0  0  0  0  0  0  0
    2.8660    4.1550    0.0000 C   0  0  0  0  0  0  0  0  0  0  0  0
    2.8660    5.1550    0.0000 C   0  0  0  0  0  0  0  0  0  0  0  0
    2.0000    3.6550    0.0000 C   0  0  0  0  0  0  0  0  0  0  0  0
    4.8101   -2.4276    0.0000 H   0  0  0  0  0  0  0  0  0  0  0  0
    5.2087   -1.7373    0.0000 H   0  0  0  0  0  0  0  0  0  0  0  0
    3.5200   -1.7624    0.0000 H   0  0  0  0  0  0  0  0  0  0  0  0
    3.1215   -2.4527    0.0000 H   0  0  0  0  0  0  0  0  0  0  0  0
    3.7320   -4.1950    0.0000 H   0  0  0  0  0  0  0  0  0  0  0  0
    3.1951   -0.6550    0.0000 H   0  0  0  0  0  0  0  0  0  0  0  0
    5.1350    2.4650    0.0000 H   0  0  0  0  0  0  0  0  0  0  0  0
    4.5981   -4.4650    0.0000 H   0  0  0  0  0  0  0  0  0  0  0  0
    5.1350   -3.5350    0.0000 H   0  0  0  0  0  0  0  0  0  0  0  0
    3.1215    2.7627    0.0000 H   0  0  0  0  0  0  0  0  0  0  0  0
    3.5200    2.0724    0.0000 H   0  0  0  0  0  0  0  0  0  0  0  0
    7.6139    0.1550    0.0000 H   0  0  0  0  0  0  0  0  0  0  0  0
    4.2690    3.9650    0.0000 H   0  0  0  0  0  0  0  0  0  0  0  0
    2.3291   -5.1550    0.0000 H   0  0  0  0  0  0  0  0  0  0  0  0
    3.4860    5.1550    0.0000 H   0  0  0  0  0  0  0  0  0  0  0  0
    2.8660    5.7750    0.0000 H   0  0  0  0  0  0  0  0  0  0  0  0
    2.2460    5.1550    0.0000 H   0  0  0  0  0  0  0  0  0  0  0  0
    1.6900    4.1919    0.0000 H   0  0  0  0  0  0  0  0  0  0  0  0
    1.4631    3.3450    0.0000 H   0  0  0  0  0  0  0  0  0  0  0  0
    2.3100    3.1181    0.0000 H   0  0  0  0  0  0  0  0  0  0  0  0
  1 16  1  0  0  0  0
  1 36  1  0  0  0  0
  2 16  2  0  0  0  0
  3  9  1  0  0  0  0
  3 12  1  0  0  0  0
  3 14  1  0  0  0  0
  4 14  2  0  0  0  0
  4 15  1  0  0  0  0
  5 15  1  0  0  0  0
  5 17  1  0  0  0  0
  5 29  1  0  0  0  0
  6 11  1  0  0  0  0
  6 30  1  0  0  0  0
  6 31  1  0  0  0  0
  7 12  2  0  0  0  0
  7 18  1  0  0  0  0
  8 13  1  0  0  0  0
  8 18  2  0  0  0  0
  9 10  1  0  0  0  0
  9 23  1  0  0  0  0
  9 24  1  0  0  0  0
 10 11  1  0  0  0  0
 10 25  1  0  0  0  0
 10 26  1  0  0  0  0
 11 16  1  0  0  0  0
 11 27  1  0  0  0  0
 12 13  1  0  0  0  0
 13 15  2  0  0  0  0
 14 28  1  0  0  0  0
 17 19  1  0  0  0  0
 17 32  1  0  0  0  0
 17 33  1  0  0  0  0
 18 34  1  0  0  0  0
 19 20  2  0  0  0  0
 19 35  1  0  0  0  0
 20 21  1  0  0  0  0
 20 22  1  0  0  0  0
 21 37  1  0  0  0  0
 21 38  1  0  0  0  0
 21 39  1  0  0  0  0
 22 40  1  0  0  0  0
 22 41  1  0  0  0  0
 22 42  1  0  0  0  0
M  END
> <PUBCHEM_COMPOUND_CID>
194139

> <PUBCHEM_COMPOUND_CANONICALIZED>
1

> <PUBCHEM_CACTVS_COMPLEXITY>
412

> <PUBCHEM_CACTVS_HBOND_ACCEPTOR>
7

> <PUBCHEM_CACTVS_HBOND_DONOR>
3

> <PUBCHEM_CACTVS_ROTATABLE_BOND>
7

> <PUBCHEM_CACTVS_SUBSKEYS>
AAADceBzsAAAAAAAAAAAAAAAAAAAAWAAAAAsAAAAAAAAAFgBgAAAHgAQCAAADCjBlwQH+L/MEgCoAybzbACAgC0REKABWKGoVBCCSBBAyUAURAgMEALAACAkAAAAAAAAAAAAAAAAAAAAAAAAAAAAAAAAAA==

> <PUBCHEM_IUPAC_OPENEYE_NAME>
2-amino-4-[6-(3-methylbut-2-enylamino)purin-3-yl]butanoic acid

> <PUBCHEM_IUPAC_CAS_NAME>
2-amino-4-[6-(3-methylbut-2-enylamino)-3-purinyl]butanoic acid

> <PUBCHEM_IUPAC_NAME>
2-amino-4-[6-(3-methylbut-2-enylamino)purin-3-yl]butanoic acid

> <PUBCHEM_IUPAC_SYSTEMATIC_NAME>
2-azanyl-4-[6-(3-methylbut-2-enylamino)purin-3-yl]butanoic acid

> <PUBCHEM_IUPAC_TRADITIONAL_NAME>
2-amino-4-[6-(3-methylbut-2-enylamino)purin-3-yl]butyric acid

> <PUBCHEM_IUPAC_INCHI>
InChI=1S/C14H20N6O2/c1-9(2)3-5-16-12-11-13(18-7-17-11)20(8-19-12)6-4-10(15)14(21)22/h3,7-8,10,16H,4-6,15H2,1-2H3,(H,21,22)

> <PUBCHEM_IUPAC_INCHIKEY>
KGVAAXZLUAKZEO-UHFFFAOYSA-N

> <PUBCHEM_XLOGP3_AA>
-1.7

> <PUBCHEM_EXACT_MASS>
304.164774

> <PUBCHEM_MOLECULAR_FORMULA>
C14H20N6O2

> <PUBCHEM_MOLECULAR_WEIGHT>
304.3476

> <PUBCHEM_OPENEYE_CAN_SMILES>
CC(=CCNC1=C2C(=NC=N2)N(C=N1)CCC(C(=O)O)N)C

> <PUBCHEM_OPENEYE_ISO_SMILES>
CC(=CCNC1=C2C(=NC=N2)N(C=N1)CCC(C(=O)O)N)C

> <PUBCHEM_CACTVS_TPSA>
119

> <PUBCHEM_MONOISOTOPIC_WEIGHT>
304.164774

> <PUBCHEM_TOTAL_CHARGE>
0

> <PUBCHEM_HEAVY_ATOM_COUNT>
22

> <PUBCHEM_ATOM_DEF_STEREO_COUNT>
0

> <PUBCHEM_ATOM_UDEF_STEREO_COUNT>
1

> <PUBCHEM_BOND_DEF_STEREO_COUNT>
0

> <PUBCHEM_BOND_UDEF_STEREO_COUNT>
0

> <PUBCHEM_ISOTOPIC_ATOM_COUNT>
0

> <PUBCHEM_COMPONENT_COUNT>
1

> <PUBCHEM_CACTVS_TAUTO_COUNT>
3

> <PUBCHEM_COORDINATE_TYPE>
1
5
255

> <PUBCHEM_BONDANNOTATIONS>
11  27  3
13  15  8
3  12  8
3  14  8
4  14  8
4  15  8
7  12  8
7  18  8
8  13  8
8  18  8

$$$$

