244387
  -OEChem-07051213063D

 42 44  0     1  0  0  0  0  0999 V2000
   -0.8222   -0.7304   -0.0996 O   0  0  0  0  0  0  0  0  0  0  0  0
    3.1437    2.0609    0.0672 O   0  0  0  0  0  0  0  0  0  0  0  0
    0.7614    3.0536   -0.1560 O   0  0  0  0  0  0  0  0  0  0  0  0
    4.6698   -0.1947    0.1833 O   0  0  0  0  0  0  0  0  0  0  0  0
    3.4825   -2.6903    0.1242 O   0  0  0  0  0  0  0  0  0  0  0  0
   -7.0892   -0.7505   -0.1930 O   0  0  0  0  0  0  0  0  0  0  0  0
   -1.5725    0.3866    0.4023 C   0  0  1  0  0  0  0  0  0  0  0  0
   -1.1935    1.6737   -0.3274 C   0  0  0  0  0  0  0  0  0  0  0  0
    1.1325    0.7259   -0.0241 C   0  0  0  0  0  0  0  0  0  0  0  0
    0.5334   -0.5372   -0.0308 C   0  0  0  0  0  0  0  0  0  0  0  0
    0.2805    1.9268   -0.1452 C   0  0  0  0  0  0  0  0  0  0  0  0
   -3.0474    0.0830    0.2432 C   0  0  0  0  0  0  0  0  0  0  0  0
    2.5222    0.8476    0.0523 C   0  0  0  0  0  0  0  0  0  0  0  0
    1.3295   -1.6827    0.0047 C   0  0  0  0  0  0  0  0  0  0  0  0
    3.3119   -0.3014    0.1080 C   0  0  0  0  0  0  0  0  0  0  0  0
    2.7176   -1.5636    0.0793 C   0  0  0  0  0  0  0  0  0  0  0  0
   -3.8620   -0.0247    1.3696 C   0  0  0  0  0  0  0  0  0  0  0  0
   -3.5893   -0.0894   -1.0301 C   0  0  0  0  0  0  0  0  0  0  0  0
   -5.2205   -0.3053    1.2227 C   0  0  0  0  0  0  0  0  0  0  0  0
   -4.9478   -0.3698   -1.1769 C   0  0  0  0  0  0  0  0  0  0  0  0
   -5.7634   -0.4778   -0.0506 C   0  0  0  0  0  0  0  0  0  0  0  0
    4.0649    2.3289   -0.9876 C   0  0  0  0  0  0  0  0  0  0  0  0
    5.2424   -0.1397    1.4874 C   0  0  0  0  0  0  0  0  0  0  0  0
    3.9154   -3.2296   -1.1230 C   0  0  0  0  0  0  0  0  0  0  0  0
   -1.3431    0.4876    1.4736 H   0  0  0  0  0  0  0  0  0  0  0  0
   -1.7523    2.5228    0.0819 H   0  0  0  0  0  0  0  0  0  0  0  0
   -1.3738    1.6174   -1.4067 H   0  0  0  0  0  0  0  0  0  0  0  0
    0.8692   -2.6675   -0.0145 H   0  0  0  0  0  0  0  0  0  0  0  0
   -3.4540    0.1069    2.3681 H   0  0  0  0  0  0  0  0  0  0  0  0
   -2.9687   -0.0211   -1.9192 H   0  0  0  0  0  0  0  0  0  0  0  0
   -5.8509   -0.3881    2.1039 H   0  0  0  0  0  0  0  0  0  0  0  0
   -5.3581   -0.5044   -2.1741 H   0  0  0  0  0  0  0  0  0  0  0  0
    3.9555    3.3807   -1.2686 H   0  0  0  0  0  0  0  0  0  0  0  0
    3.8734    1.7191   -1.8776 H   0  0  0  0  0  0  0  0  0  0  0  0
    5.0899    2.1807   -0.6364 H   0  0  0  0  0  0  0  0  0  0  0  0
    6.3262   -0.0413    1.3814 H   0  0  0  0  0  0  0  0  0  0  0  0
    5.0276   -1.0590    2.0413 H   0  0  0  0  0  0  0  0  0  0  0  0
    4.8654    0.7274    2.0390 H   0  0  0  0  0  0  0  0  0  0  0  0
    4.5294   -2.5034   -1.6649 H   0  0  0  0  0  0  0  0  0  0  0  0
    3.0552   -3.5239   -1.7325 H   0  0  0  0  0  0  0  0  0  0  0  0
    4.5209   -4.1173   -0.9207 H   0  0  0  0  0  0  0  0  0  0  0  0
   -7.2926   -0.8383   -1.1401 H   0  0  0  0  0  0  0  0  0  0  0  0
  1  7  1  0  0  0  0
  1 10  1  0  0  0  0
  2 13  1  0  0  0  0
  2 22  1  0  0  0  0
  3 11  2  0  0  0  0
  4 15  1  0  0  0  0
  4 23  1  0  0  0  0
  5 16  1  0  0  0  0
  5 24  1  0  0  0  0
  6 21  1  0  0  0  0
  6 42  1  0  0  0  0
  7  8  1  0  0  0  0
  7 12  1  0  0  0  0
  7 25  1  0  0  0  0
  8 11  1  0  0  0  0
  8 26  1  0  0  0  0
  8 27  1  0  0  0  0
  9 10  1  0  0  0  0
  9 11  1  0  0  0  0
  9 13  2  0  0  0  0
 10 14  2  0  0  0  0
 12 17  2  0  0  0  0
 12 18  1  0  0  0  0
 13 15  1  0  0  0  0
 14 16  1  0  0  0  0
 14 28  1  0  0  0  0
 15 16  2  0  0  0  0
 17 19  1  0  0  0  0
 17 29  1  0  0  0  0
 18 20  2  0  0  0  0
 18 30  1  0  0  0  0
 19 21  2  0  0  0  0
 19 31  1  0  0  0  0
 20 21  1  0  0  0  0
 20 32  1  0  0  0  0
 22 33  1  0  0  0  0
 22 34  1  0  0  0  0
 22 35  1  0  0  0  0
 23 36  1  0  0  0  0
 23 37  1  0  0  0  0
 23 38  1  0  0  0  0
 24 39  1  0  0  0  0
 24 40  1  0  0  0  0
 24 41  1  0  0  0  0
M  END
> <PUBCHEM_COMPOUND_CID>
244387

> <PUBCHEM_CONFORMER_RMSD>
0.8

> <PUBCHEM_CONFORMER_DIVERSEORDER>
1
4
6
2
8
3
7
5

> <PUBCHEM_MMFF94_PARTIAL_CHARGES>
30
1 -0.36
10 0.08
11 0.42
12 -0.14
13 0.08
14 -0.15
15 0.08
16 0.08
17 -0.15
18 -0.15
19 -0.15
2 -0.36
20 -0.15
21 0.08
22 0.28
23 0.28
24 0.28
28 0.15
29 0.15
3 -0.57
30 0.15
31 0.15
32 0.15
4 -0.36
42 0.45
5 -0.36
6 -0.53
7 0.42
8 0.06
9 0.09

> <PUBCHEM_EFFECTIVE_ROTOR_COUNT>
4.6

> <PUBCHEM_PHARMACOPHORE_FEATURES>
9
1 1 acceptor
1 2 acceptor
1 3 acceptor
1 4 acceptor
1 5 acceptor
1 6 donor
6 1 7 8 9 10 11 rings
6 12 17 18 19 20 21 rings
6 9 10 13 14 15 16 rings

> <PUBCHEM_HEAVY_ATOM_COUNT>
24

> <PUBCHEM_ATOM_DEF_STEREO_COUNT>
0

> <PUBCHEM_ATOM_UDEF_STEREO_COUNT>
1

> <PUBCHEM_BOND_DEF_STEREO_COUNT>
0

> <PUBCHEM_BOND_UDEF_STEREO_COUNT>
0

> <PUBCHEM_ISOTOPIC_ATOM_COUNT>
0

> <PUBCHEM_COMPONENT_COUNT>
1

> <PUBCHEM_CACTVS_TAUTO_COUNT>
4

> <PUBCHEM_CONFORMER_ID>
0003BAA300000001

> <PUBCHEM_MMFF94_ENERGY>
102.016

> <PUBCHEM_FEATURE_SELFOVERLAP>
45.722

> <PUBCHEM_SHAPE_FINGERPRINT>
10411042 1 18194964273957684838
10622 236 17896627041026866751
11796584 16 16415765240455891098
12107183 9 17755567593052565809
12236239 1 17821727239252249355
12596602 18 16950565475834846979
12623949 98 17604703516643401718
13009979 54 17750787938227655114
13140716 1 18267029354270699002
13533116 47 18261110764555996883
13540713 4 18047484601991318572
13544653 18 18341891930819000605
13782708 43 17561078086793518515
13862211 1 18412549811931371762
14386348 63 17775283846762488553
14790565 3 17693646022828176548
14863182 85 18335417981044067406
15196674 1 18337954613739057649
15250474 111 18042698204269006775
15961568 22 16414911937981761780
17492 89 18193278717904735854
17844677 252 18340201994537693749
1813 80 18261943150418504869
18222031 100 18336546113632354971
200 152 18334018306931075073
20028762 73 18260552195042742319
20645477 70 18342459244158527223
21033648 29 17917447384535555949
21065198 48 18114172060827247241
21267235 1 18410288129440142854
21279426 13 18199755907050407597
21285901 2 17917999377352087853
21623969 137 18271802398207426667
21641784 216 18059558226821878988
221490 88 18341330114668490684
22182313 1 18267317606447378804
22224240 67 18188220814773067226
23557571 272 17132122359420685757
23559900 14 17203602692246822154
239999 70 17989207027727244096
2748010 2 18050296066124203118
2871803 45 18202282549757034059
3004659 81 18060420218262507460
312423 11 18263069062877952449
314194 84 18334296448839292039
345986 75 18041284386374684243
34797466 226 16558458713248160071
4073 2 17987794108621427011
42630746 31 18408603652120369230
4340502 62 14851604375896850564
46194498 28 17703789180992350949
465052 167 18060706091670676186
5104073 3 18191311687380972458
5283173 99 17703522089977607133
602551 16 15285645335499017157
7164475 11 18338230582805695372
7970288 3 18266178520775796167
9709674 26 18341609364725534906

> <PUBCHEM_SHAPE_MULTIPOLES>
458.69
13.22
2.64
1.07
14.78
0.11
0.12
4.27
0.83
-4.57
-0.82
0.24
0.12
0.04

> <PUBCHEM_SHAPE_SELFOVERLAP>
999.475

> <PUBCHEM_SHAPE_VOLUME>
250.4

> <PUBCHEM_COORDINATE_TYPE>
2
5
10

$$$$

