4728
  -OEChem-07051213092D

 22 22  0     1  0  0  0  0  0999 V2000
    5.3122   -0.2751    0.0000 O   0  0  0  0  0  0  0  0  0  0  0  0
    3.9154    1.1217    0.0000 O   0  0  0  0  0  0  0  0  0  0  0  0
    2.7431    0.0339    0.0000 O   0  0  0  0  0  0  0  0  0  0  0  0
    5.5910   -2.0352    0.0000 O   0  0  0  0  0  0  0  0  0  0  0  0
    4.5032    0.3126    0.0000 C   0  0  3  0  0  0  0  0  0  0  0  0
    3.6942   -0.2751    0.0000 C   0  0  0  0  0  0  0  0  0  0  0  0
    5.0910    1.1217    0.0000 C   0  0  0  0  0  0  0  0  0  0  0  0
    4.0032   -1.2262    0.0000 C   0  0  0  0  0  0  0  0  0  0  0  0
    5.0032   -1.2262    0.0000 C   0  0  0  0  0  0  0  0  0  0  0  0
    6.0855    1.0171    0.0000 C   0  0  0  0  0  0  0  0  0  0  0  0
    4.6843    2.0352    0.0000 C   0  0  0  0  0  0  0  0  0  0  0  0
    2.0000   -0.6353    0.0000 C   0  0  0  0  0  0  0  0  0  0  0  0
    3.6388   -1.7278    0.0000 H   0  0  0  0  0  0  0  0  0  0  0  0
    6.0207    0.4005    0.0000 H   0  0  0  0  0  0  0  0  0  0  0  0
    6.7021    0.9523    0.0000 H   0  0  0  0  0  0  0  0  0  0  0  0
    6.1503    1.6337    0.0000 H   0  0  0  0  0  0  0  0  0  0  0  0
    3.2988    1.0569    0.0000 H   0  0  0  0  0  0  0  0  0  0  0  0
    5.0487    2.5368    0.0000 H   0  0  0  0  0  0  0  0  0  0  0  0
    4.0677    2.1000    0.0000 H   0  0  0  0  0  0  0  0  0  0  0  0
    1.5851   -0.1745    0.0000 H   0  0  0  0  0  0  0  0  0  0  0  0
    1.5392   -1.0501    0.0000 H   0  0  0  0  0  0  0  0  0  0  0  0
    2.4149   -1.0960    0.0000 H   0  0  0  0  0  0  0  0  0  0  0  0
  1  5  1  0  0  0  0
  1  9  1  0  0  0  0
  2  5  1  0  0  0  0
  2 17  1  0  0  0  0
  3  6  1  0  0  0  0
  3 12  1  0  0  0  0
  4  9  2  0  0  0  0
  5  6  1  0  0  0  0
  5  7  1  0  0  0  0
  6  8  2  0  0  0  0
  7 10  1  0  0  0  0
  7 11  2  0  0  0  0
  8  9  1  0  0  0  0
  8 13  1  0  0  0  0
 10 14  1  0  0  0  0
 10 15  1  0  0  0  0
 10 16  1  0  0  0  0
 11 18  1  0  0  0  0
 11 19  1  0  0  0  0
 12 20  1  0  0  0  0
 12 21  1  0  0  0  0
 12 22  1  0  0  0  0
M  END
> <PUBCHEM_COMPOUND_CID>
4728

> <PUBCHEM_COMPOUND_CANONICALIZED>
1

> <PUBCHEM_CACTVS_COMPLEXITY>
266

> <PUBCHEM_CACTVS_HBOND_ACCEPTOR>
4

> <PUBCHEM_CACTVS_HBOND_DONOR>
1

> <PUBCHEM_CACTVS_ROTATABLE_BOND>
2

> <PUBCHEM_CACTVS_SUBSKEYS>
AAADccBwOAAAAAAAAAAAAAAAAAAAAQAAAAAAAAAAAAAAAAAAAAAAGgAACAAADASAgAICCAAABgCIAiDSCAAACAAgIAAACAAAAEgRBAAAIQACUAAEwAAPMQIAAAAAAAAAAAAAAAAAAAAAAAAAAAAAAAAAAA==

> <PUBCHEM_IUPAC_OPENEYE_NAME>
5-hydroxy-5-isopropenyl-4-methoxy-furan-2-one

> <PUBCHEM_IUPAC_CAS_NAME>
5-hydroxy-4-methoxy-5-(1-methylethenyl)-2-furanone

> <PUBCHEM_IUPAC_NAME>
5-hydroxy-4-methoxy-5-prop-1-en-2-ylfuran-2-one

> <PUBCHEM_IUPAC_SYSTEMATIC_NAME>
4-methoxy-5-oxidanyl-5-prop-1-en-2-yl-furan-2-one

> <PUBCHEM_IUPAC_TRADITIONAL_NAME>
5-hydroxy-5-isopropenyl-4-methoxy-furan-2-one

> <PUBCHEM_IUPAC_INCHI>
InChI=1S/C8H10O4/c1-5(2)8(10)6(11-3)4-7(9)12-8/h4,10H,1H2,2-3H3

> <PUBCHEM_IUPAC_INCHIKEY>
YCOFRPYSZKIPBQ-UHFFFAOYSA-N

> <PUBCHEM_XLOGP3_AA>
0.6

> <PUBCHEM_EXACT_MASS>
170.057909

> <PUBCHEM_MOLECULAR_FORMULA>
C8H10O4

> <PUBCHEM_MOLECULAR_WEIGHT>
170.1626

> <PUBCHEM_OPENEYE_CAN_SMILES>
CC(=C)C1(C(=CC(=O)O1)OC)O

> <PUBCHEM_OPENEYE_ISO_SMILES>
CC(=C)C1(C(=CC(=O)O1)OC)O

> <PUBCHEM_CACTVS_TPSA>
55.8

> <PUBCHEM_MONOISOTOPIC_WEIGHT>
170.057909

> <PUBCHEM_TOTAL_CHARGE>
0

> <PUBCHEM_HEAVY_ATOM_COUNT>
12

> <PUBCHEM_ATOM_DEF_STEREO_COUNT>
0

> <PUBCHEM_ATOM_UDEF_STEREO_COUNT>
1

> <PUBCHEM_BOND_DEF_STEREO_COUNT>
0

> <PUBCHEM_BOND_UDEF_STEREO_COUNT>
0

> <PUBCHEM_ISOTOPIC_ATOM_COUNT>
0

> <PUBCHEM_COMPONENT_COUNT>
1

> <PUBCHEM_CACTVS_TAUTO_COUNT>
1

> <PUBCHEM_COORDINATE_TYPE>
1
5
255

> <PUBCHEM_BONDANNOTATIONS>
5  2  3

$$$$

