5281236
  -OEChem-07051212553D

 95 96  0     0  0  0  0  0  0999 V2000
   12.7679    3.1580   -1.0837 O   0  0  0  0  0  0  0  0  0  0  0  0
  -13.1938    0.6078    0.8392 C   0  0  0  0  0  0  0  0  0  0  0  0
  -14.5685   -0.0191    0.4786 C   0  0  0  0  0  0  0  0  0  0  0  0
  -14.4620   -1.5031    0.1768 C   0  0  0  0  0  0  0  0  0  0  0  0
  -12.0804    0.1298   -0.1223 C   0  0  0  0  0  0  0  0  0  0  0  0
  -13.5331   -1.7291   -1.0067 C   0  0  0  0  0  0  0  0  0  0  0  0
  -12.2564   -0.9134   -0.9719 C   0  0  0  0  0  0  0  0  0  0  0  0
  -13.3960    2.1416    0.7801 C   0  0  0  0  0  0  0  0  0  0  0  0
  -12.8275    0.2160    2.2893 C   0  0  0  0  0  0  0  0  0  0  0  0
   12.5501   -0.5305    0.8764 C   0  0  0  0  0  0  0  0  0  0  0  0
   13.5154    0.6022    1.2969 C   0  0  0  0  0  0  0  0  0  0  0  0
   11.3924    0.0376    0.0288 C   0  0  0  0  0  0  0  0  0  0  0  0
  -10.8230    0.8548   -0.0382 C   0  0  0  0  0  0  0  0  0  0  0  0
  -11.2459   -1.4119   -1.9791 C   0  0  0  0  0  0  0  0  0  0  0  0
   13.9251    1.4776    0.1326 C   0  0  0  0  0  0  0  0  0  0  0  0
   13.3143   -1.5944    0.0590 C   0  0  0  0  0  0  0  0  0  0  0  0
   12.0635   -1.1821    2.1954 C   0  0  0  0  0  0  0  0  0  0  0  0
   11.4483    1.2342   -0.6035 C   0  0  0  0  0  0  0  0  0  0  0  0
   12.7093    2.0535   -0.5416 C   0  0  0  0  0  0  0  0  0  0  0  0
   10.2159   -0.8126   -0.0580 C   0  0  0  0  0  0  0  0  0  0  0  0
   -9.6233    0.2536   -0.0890 C   0  0  0  0  0  0  0  0  0  0  0  0
   10.3680    1.8651   -1.4454 C   0  0  0  0  0  0  0  0  0  0  0  0
   -8.3202    0.9149   -0.0148 C   0  0  0  0  0  0  0  0  0  0  0  0
    8.9620   -0.3345   -0.0193 C   0  0  0  0  0  0  0  0  0  0  0  0
    7.7311   -1.1219   -0.0945 C   0  0  0  0  0  0  0  0  0  0  0  0
   -8.3111    2.4201    0.1245 C   0  0  0  0  0  0  0  0  0  0  0  0
   -7.1365    0.2666   -0.0703 C   0  0  0  0  0  0  0  0  0  0  0  0
    7.8638   -2.6229   -0.1930 C   0  0  0  0  0  0  0  0  0  0  0  0
    6.4947   -0.5809   -0.0501 C   0  0  0  0  0  0  0  0  0  0  0  0
   -5.7972    0.8232   -0.0062 C   0  0  0  0  0  0  0  0  0  0  0  0
    5.2098   -1.2486   -0.1146 C   0  0  0  0  0  0  0  0  0  0  0  0
   -4.6938    0.0582   -0.0737 C   0  0  0  0  0  0  0  0  0  0  0  0
    4.0264   -0.6147   -0.0616 C   0  0  0  0  0  0  0  0  0  0  0  0
   -3.3084    0.5251   -0.0147 C   0  0  0  0  0  0  0  0  0  0  0  0
    2.6963   -1.2271   -0.1395 C   0  0  0  0  0  0  0  0  0  0  0  0
   -3.0707    2.0110    0.1035 C   0  0  0  0  0  0  0  0  0  0  0  0
   -2.2431   -0.3012   -0.0888 C   0  0  0  0  0  0  0  0  0  0  0  0
    1.6185   -0.4164   -0.0671 C   0  0  0  0  0  0  0  0  0  0  0  0
    2.6338   -2.7278   -0.2734 C   0  0  0  0  0  0  0  0  0  0  0  0
   -0.8348    0.0361   -0.0426 C   0  0  0  0  0  0  0  0  0  0  0  0
    0.2190   -0.7949   -0.1173 C   0  0  0  0  0  0  0  0  0  0  0  0
  -14.9913    0.4856   -0.4015 H   0  0  0  0  0  0  0  0  0  0  0  0
  -15.2865    0.1357    1.2940 H   0  0  0  0  0  0  0  0  0  0  0  0
  -15.4532   -1.9116   -0.0520 H   0  0  0  0  0  0  0  0  0  0  0  0
  -14.0949   -2.0488    1.0534 H   0  0  0  0  0  0  0  0  0  0  0  0
  -14.0678   -1.4891   -1.9349 H   0  0  0  0  0  0  0  0  0  0  0  0
  -13.2883   -2.7978   -1.0473 H   0  0  0  0  0  0  0  0  0  0  0  0
  -13.5208    2.4881   -0.2524 H   0  0  0  0  0  0  0  0  0  0  0  0
  -12.5584    2.6895    1.2252 H   0  0  0  0  0  0  0  0  0  0  0  0
  -14.2913    2.4392    1.3395 H   0  0  0  0  0  0  0  0  0  0  0  0
  -11.9245    0.7365    2.6292 H   0  0  0  0  0  0  0  0  0  0  0  0
  -12.6385   -0.8585    2.3864 H   0  0  0  0  0  0  0  0  0  0  0  0
  -13.6327    0.4783    2.9851 H   0  0  0  0  0  0  0  0  0  0  0  0
   14.4138    0.1874    1.7715 H   0  0  0  0  0  0  0  0  0  0  0  0
   13.0307    1.2349    2.0544 H   0  0  0  0  0  0  0  0  0  0  0  0
  -10.8893    1.9344    0.0273 H   0  0  0  0  0  0  0  0  0  0  0  0
  -11.7605   -1.7484   -2.8874 H   0  0  0  0  0  0  0  0  0  0  0  0
  -10.5502   -0.6410   -2.3199 H   0  0  0  0  0  0  0  0  0  0  0  0
  -10.6916   -2.2669   -1.5800 H   0  0  0  0  0  0  0  0  0  0  0  0
   14.5383    2.3052    0.5068 H   0  0  0  0  0  0  0  0  0  0  0  0
   14.5141    0.9301   -0.6094 H   0  0  0  0  0  0  0  0  0  0  0  0
   14.2087   -1.9338    0.5941 H   0  0  0  0  0  0  0  0  0  0  0  0
   12.6967   -2.4797   -0.1302 H   0  0  0  0  0  0  0  0  0  0  0  0
   13.6356   -1.2095   -0.9150 H   0  0  0  0  0  0  0  0  0  0  0  0
   12.9122   -1.4835    2.8209 H   0  0  0  0  0  0  0  0  0  0  0  0
   11.4495   -0.4866    2.7797 H   0  0  0  0  0  0  0  0  0  0  0  0
   11.4672   -2.0835    2.0147 H   0  0  0  0  0  0  0  0  0  0  0  0
   10.4049   -1.8734   -0.1886 H   0  0  0  0  0  0  0  0  0  0  0  0
   -9.5582   -0.8316   -0.1205 H   0  0  0  0  0  0  0  0  0  0  0  0
    9.7586    2.5475   -0.8448 H   0  0  0  0  0  0  0  0  0  0  0  0
    9.7281    1.1343   -1.9468 H   0  0  0  0  0  0  0  0  0  0  0  0
   10.7975    2.4472   -2.2691 H   0  0  0  0  0  0  0  0  0  0  0  0
    8.7845    0.7228    0.1611 H   0  0  0  0  0  0  0  0  0  0  0  0
   -8.8481    2.7141    1.0345 H   0  0  0  0  0  0  0  0  0  0  0  0
   -8.8158    2.8779   -0.7348 H   0  0  0  0  0  0  0  0  0  0  0  0
   -7.3367    2.9015    0.1883 H   0  0  0  0  0  0  0  0  0  0  0  0
   -7.1685   -0.8186   -0.1756 H   0  0  0  0  0  0  0  0  0  0  0  0
    6.9404   -3.1986   -0.1475 H   0  0  0  0  0  0  0  0  0  0  0  0
    8.4796   -3.0001    0.6325 H   0  0  0  0  0  0  0  0  0  0  0  0
    8.3531   -2.8930   -1.1362 H   0  0  0  0  0  0  0  0  0  0  0  0
    6.4277    0.5044    0.0376 H   0  0  0  0  0  0  0  0  0  0  0  0
   -5.6816    1.8920    0.1041 H   0  0  0  0  0  0  0  0  0  0  0  0
    5.2043   -2.3240   -0.2303 H   0  0  0  0  0  0  0  0  0  0  0  0
   -4.8100   -1.0199   -0.1810 H   0  0  0  0  0  0  0  0  0  0  0  0
    4.0379    0.4700    0.0463 H   0  0  0  0  0  0  0  0  0  0  0  0
   -3.4884    2.3815    1.0472 H   0  0  0  0  0  0  0  0  0  0  0  0
   -2.0358    2.3479    0.0761 H   0  0  0  0  0  0  0  0  0  0  0  0
   -3.5682    2.5365   -0.7209 H   0  0  0  0  0  0  0  0  0  0  0  0
   -2.4365   -1.3697   -0.1894 H   0  0  0  0  0  0  0  0  0  0  0  0
    1.7782    0.6571    0.0386 H   0  0  0  0  0  0  0  0  0  0  0  0
    3.1264   -3.2104    0.5783 H   0  0  0  0  0  0  0  0  0  0  0  0
    3.1286   -3.0511   -1.1962 H   0  0  0  0  0  0  0  0  0  0  0  0
    1.6186   -3.1276   -0.3097 H   0  0  0  0  0  0  0  0  0  0  0  0
   -0.5797    1.0838    0.0743 H   0  0  0  0  0  0  0  0  0  0  0  0
   -0.0013   -1.8523   -0.2304 H   0  0  0  0  0  0  0  0  0  0  0  0
  1 19  2  0  0  0  0
  2  3  1  0  0  0  0
  2  5  1  0  0  0  0
  2  8  1  0  0  0  0
  2  9  1  0  0  0  0
  3  4  1  0  0  0  0
  3 42  1  0  0  0  0
  3 43  1  0  0  0  0
  4  6  1  0  0  0  0
  4 44  1  0  0  0  0
  4 45  1  0  0  0  0
  5  7  2  0  0  0  0
  5 13  1  0  0  0  0
  6  7  1  0  0  0  0
  6 46  1  0  0  0  0
  6 47  1  0  0  0  0
  7 14  1  0  0  0  0
  8 48  1  0  0  0  0
  8 49  1  0  0  0  0
  8 50  1  0  0  0  0
  9 51  1  0  0  0  0
  9 52  1  0  0  0  0
  9 53  1  0  0  0  0
 10 11  1  0  0  0  0
 10 12  1  0  0  0  0
 10 16  1  0  0  0  0
 10 17  1  0  0  0  0
 11 15  1  0  0  0  0
 11 54  1  0  0  0  0
 11 55  1  0  0  0  0
 12 18  2  0  0  0  0
 12 20  1  0  0  0  0
 13 21  2  0  0  0  0
 13 56  1  0  0  0  0
 14 57  1  0  0  0  0
 14 58  1  0  0  0  0
 14 59  1  0  0  0  0
 15 19  1  0  0  0  0
 15 60  1  0  0  0  0
 15 61  1  0  0  0  0
 16 62  1  0  0  0  0
 16 63  1  0  0  0  0
 16 64  1  0  0  0  0
 17 65  1  0  0  0  0
 17 66  1  0  0  0  0
 17 67  1  0  0  0  0
 18 19  1  0  0  0  0
 18 22  1  0  0  0  0
 20 24  2  0  0  0  0
 20 68  1  0  0  0  0
 21 23  1  0  0  0  0
 21 69  1  0  0  0  0
 22 70  1  0  0  0  0
 22 71  1  0  0  0  0
 22 72  1  0  0  0  0
 23 26  1  0  0  0  0
 23 27  2  0  0  0  0
 24 25  1  0  0  0  0
 24 73  1  0  0  0  0
 25 28  1  0  0  0  0
 25 29  2  0  0  0  0
 26 74  1  0  0  0  0
 26 75  1  0  0  0  0
 26 76  1  0  0  0  0
 27 30  1  0  0  0  0
 27 77  1  0  0  0  0
 28 78  1  0  0  0  0
 28 79  1  0  0  0  0
 28 80  1  0  0  0  0
 29 31  1  0  0  0  0
 29 81  1  0  0  0  0
 30 32  2  0  0  0  0
 30 82  1  0  0  0  0
 31 33  2  0  0  0  0
 31 83  1  0  0  0  0
 32 34  1  0  0  0  0
 32 84  1  0  0  0  0
 33 35  1  0  0  0  0
 33 85  1  0  0  0  0
 34 36  1  0  0  0  0
 34 37  2  0  0  0  0
 35 38  2  0  0  0  0
 35 39  1  0  0  0  0
 36 86  1  0  0  0  0
 36 87  1  0  0  0  0
 36 88  1  0  0  0  0
 37 40  1  0  0  0  0
 37 89  1  0  0  0  0
 38 41  1  0  0  0  0
 38 90  1  0  0  0  0
 39 91  1  0  0  0  0
 39 92  1  0  0  0  0
 39 93  1  0  0  0  0
 40 41  2  0  0  0  0
 40 94  1  0  0  0  0
 41 95  1  0  0  0  0
M  END
> <PUBCHEM_COMPOUND_CID>
5281236

> <PUBCHEM_CONFORMER_RMSD>
1.2

> <PUBCHEM_CONFORMER_DIVERSEORDER>
1
41
48
3
12
64
32
39
66
45
71
77
42
4
22
30
36
74
5
34
72
76
75
52
65
70
20
55
23
10
61
35
7
38
67
18
37
31
51
54
19
40
27
57
28
53
33
73
62
6
63
58
13
25
11
60
50
14
47
56
15
69
68
29
24
17
59
49
21
2
16
43
26
9
46
44
8

> <PUBCHEM_MMFF94_PARTIAL_CHARGES>
48
1 -0.57
10 0.14
12 -0.14
13 -0.15
14 0.14
15 0.06
18 -0.12
19 0.49
2 0.14
20 -0.15
21 -0.15
22 0.14
23 -0.14
24 -0.15
25 -0.14
26 0.14
27 -0.15
28 0.14
29 -0.15
30 -0.15
31 -0.15
32 -0.15
33 -0.15
34 -0.14
35 -0.14
36 0.14
37 -0.15
38 -0.15
39 0.14
40 -0.15
41 -0.15
5 -0.14
56 0.15
6 0.14
68 0.15
69 0.15
7 -0.28
73 0.15
77 0.15
81 0.15
82 0.15
83 0.15
84 0.15
85 0.15
89 0.15
90 0.15
94 0.15
95 0.15

> <PUBCHEM_EFFECTIVE_ROTOR_COUNT>
11.4

> <PUBCHEM_PHARMACOPHORE_FEATURES>
9
1 1 acceptor
1 26 hydrophobe
1 28 hydrophobe
1 36 hydrophobe
1 39 hydrophobe
3 10 16 17 hydrophobe
3 2 8 9 hydrophobe
6 10 11 12 15 18 19 rings
6 2 3 4 5 6 7 rings

> <PUBCHEM_HEAVY_ATOM_COUNT>
41

> <PUBCHEM_ATOM_DEF_STEREO_COUNT>
0

> <PUBCHEM_ATOM_UDEF_STEREO_COUNT>
0

> <PUBCHEM_BOND_DEF_STEREO_COUNT>
9

> <PUBCHEM_BOND_UDEF_STEREO_COUNT>
0

> <PUBCHEM_ISOTOPIC_ATOM_COUNT>
0

> <PUBCHEM_COMPONENT_COUNT>
1

> <PUBCHEM_CACTVS_TAUTO_COUNT>
2

> <PUBCHEM_CONFORMER_ID>
005095D400000001

> <PUBCHEM_MMFF94_ENERGY>
111.0342

> <PUBCHEM_FEATURE_SELFOVERLAP>
45.669

> <PUBCHEM_SHAPE_FINGERPRINT>
12013929 2 7709453918387991567
12013929 94 18333449863951982355
12559415 86 6843929360050670827
12559415 90 17918277579569019364
14251920 1 18259985989434856355
14251920 17 18411699885126963100
15061470 23 18411420648081804549
15274700 256 18408041824050204617
16728433 110 18131632292712591452
20580484 106 13614524061394247343
21057603 130 18413110551390334735
232437 2 18335421288622455103
23581129 1 18411981377278385027
3092352 35 18410576223990481602
3991529 128 17749108894110056478
54131252 152 14476954585817095017
9663363 56 16200432472541214207

> <PUBCHEM_SHAPE_MULTIPOLES>
837.89
97.33
2.33
1.2
31.41
0.45
-0.31
14.47
-9.94
-3.43
0.5
0.44
-0.03
-4.91

> <PUBCHEM_SHAPE_SELFOVERLAP>
1704.162

> <PUBCHEM_SHAPE_VOLUME>
486

> <PUBCHEM_COORDINATE_TYPE>
2
5
10

$$$$

