49384
  -OEChem-07051213003D

 35 36  0     0  0  0  0  0  0999 V2000
    1.8074   -3.9508   -1.2339 Cl  0  0  0  0  0  0  0  0  0  0  0  0
   -0.2621   -2.9682    0.4128 O   0  0  0  0  0  0  0  0  0  0  0  0
    0.1461   -0.6585    0.4789 N   0  0  0  0  0  0  0  0  0  0  0  0
   -2.2432    0.0918    0.6375 N   0  0  0  0  0  0  0  0  0  0  0  0
   -2.4053    1.4079    0.5100 N   0  0  0  0  0  0  0  0  0  0  0  0
    0.9800    0.4136    0.1430 C   0  0  0  0  0  0  0  0  0  0  0  0
   -1.0606   -0.4112    1.3461 C   0  0  0  0  0  0  0  0  0  0  0  0
    0.7682    1.1168   -1.0428 C   0  0  0  0  0  0  0  0  0  0  0  0
    2.0231    0.7792    0.9939 C   0  0  0  0  0  0  0  0  0  0  0  0
    0.4394   -2.0109    0.0740 C   0  0  0  0  0  0  0  0  0  0  0  0
    1.5995    2.1856   -1.3778 C   0  0  0  0  0  0  0  0  0  0  0  0
    2.8542    1.8483    0.6591 C   0  0  0  0  0  0  0  0  0  0  0  0
   -0.3405    0.7495   -1.9752 C   0  0  0  0  0  0  0  0  0  0  0  0
    2.2756    0.0453    2.2710 C   0  0  0  0  0  0  0  0  0  0  0  0
    2.6425    2.5515   -0.5267 C   0  0  0  0  0  0  0  0  0  0  0  0
   -3.2111   -0.6704    0.0859 C   0  0  0  0  0  0  0  0  0  0  0  0
    1.6407   -2.2292   -0.8285 C   0  0  0  0  0  0  0  0  0  0  0  0
   -4.1007    0.2229   -0.4592 C   0  0  0  0  0  0  0  0  0  0  0  0
   -3.5534    1.4869   -0.1680 C   0  0  0  0  0  0  0  0  0  0  0  0
   -0.8047    0.3204    2.1210 H   0  0  0  0  0  0  0  0  0  0  0  0
   -1.3569   -1.3407    1.8439 H   0  0  0  0  0  0  0  0  0  0  0  0
    1.4437    2.7421   -2.2983 H   0  0  0  0  0  0  0  0  0  0  0  0
    3.6708    2.1475    1.3108 H   0  0  0  0  0  0  0  0  0  0  0  0
   -0.7806   -0.2325   -1.7916 H   0  0  0  0  0  0  0  0  0  0  0  0
   -1.1288    1.5063   -1.9440 H   0  0  0  0  0  0  0  0  0  0  0  0
    0.0443    0.7129   -3.0016 H   0  0  0  0  0  0  0  0  0  0  0  0
    1.4573    0.2103    2.9785 H   0  0  0  0  0  0  0  0  0  0  0  0
    2.3908   -1.0284    2.0929 H   0  0  0  0  0  0  0  0  0  0  0  0
    3.1979    0.3846    2.7557 H   0  0  0  0  0  0  0  0  0  0  0  0
    3.2892    3.3842   -0.7873 H   0  0  0  0  0  0  0  0  0  0  0  0
   -3.2001   -1.7512    0.1163 H   0  0  0  0  0  0  0  0  0  0  0  0
    1.5179   -1.6801   -1.7644 H   0  0  0  0  0  0  0  0  0  0  0  0
    2.5575   -1.9162   -0.3243 H   0  0  0  0  0  0  0  0  0  0  0  0
   -5.0117   -0.0084   -0.9910 H   0  0  0  0  0  0  0  0  0  0  0  0
   -3.9427    2.4621   -0.4225 H   0  0  0  0  0  0  0  0  0  0  0  0
  1 17  1  0  0  0  0
  2 10  2  0  0  0  0
  3  6  1  0  0  0  0
  3  7  1  0  0  0  0
  3 10  1  0  0  0  0
  4  5  1  0  0  0  0
  4  7  1  0  0  0  0
  4 16  1  0  0  0  0
  5 19  2  0  0  0  0
  6  8  2  0  0  0  0
  6  9  1  0  0  0  0
  7 20  1  0  0  0  0
  7 21  1  0  0  0  0
  8 11  1  0  0  0  0
  8 13  1  0  0  0  0
  9 12  2  0  0  0  0
  9 14  1  0  0  0  0
 10 17  1  0  0  0  0
 11 15  2  0  0  0  0
 11 22  1  0  0  0  0
 12 15  1  0  0  0  0
 12 23  1  0  0  0  0
 13 24  1  0  0  0  0
 13 25  1  0  0  0  0
 13 26  1  0  0  0  0
 14 27  1  0  0  0  0
 14 28  1  0  0  0  0
 14 29  1  0  0  0  0
 15 30  1  0  0  0  0
 16 18  2  0  0  0  0
 16 31  1  0  0  0  0
 17 32  1  0  0  0  0
 17 33  1  0  0  0  0
 18 19  1  0  0  0  0
 18 34  1  0  0  0  0
 19 35  1  0  0  0  0
M  END
> <PUBCHEM_COMPOUND_CID>
49384

> <PUBCHEM_CONFORMER_RMSD>
0.8

> <PUBCHEM_CONFORMER_DIVERSEORDER>
1
28
16
20
33
3
6
22
17
8
24
36
31
26
21
4
13
15
11
2
35
27
9
25
10
30
5
23
29
12
18
37
38
32
19
14
7
34

> <PUBCHEM_MMFF94_PARTIAL_CHARGES>
25
1 -0.29
10 0.57
11 -0.15
12 -0.15
13 0.14
14 0.14
15 -0.15
16 -0.3
17 0.35
18 -0.15
19 0.14
2 -0.57
22 0.15
23 0.15
3 -0.48
30 0.15
31 0.15
34 0.15
35 0.15
4 0.31
5 -0.71
6 0.12
7 0.56
8 -0.14
9 -0.14

> <PUBCHEM_EFFECTIVE_ROTOR_COUNT>
5

> <PUBCHEM_PHARMACOPHORE_FEATURES>
4
1 2 acceptor
1 5 acceptor
5 4 5 16 18 19 rings
6 6 8 9 11 12 15 rings

> <PUBCHEM_HEAVY_ATOM_COUNT>
19

> <PUBCHEM_ATOM_DEF_STEREO_COUNT>
0

> <PUBCHEM_ATOM_UDEF_STEREO_COUNT>
0

> <PUBCHEM_BOND_DEF_STEREO_COUNT>
0

> <PUBCHEM_BOND_UDEF_STEREO_COUNT>
0

> <PUBCHEM_ISOTOPIC_ATOM_COUNT>
0

> <PUBCHEM_COMPONENT_COUNT>
1

> <PUBCHEM_CACTVS_TAUTO_COUNT>
1

> <PUBCHEM_CONFORMER_ID>
0000C0E800000001

> <PUBCHEM_MMFF94_ENERGY>
64.7223

> <PUBCHEM_FEATURE_SELFOVERLAP>
20.297

> <PUBCHEM_SHAPE_FINGERPRINT>
11370993 70 18336268929243213164
12054548 360 17764306545413311246
13132413 78 17469860634303682528
14004458 79 17181655074552147950
14181834 199 18411133679730970474
14251745 187 18199175372814846582
14617773 55 17264982684497568636
14713325 29 16262850566465479966
14817 1 8777670576526308794
14955137 171 17324324864773473627
15490181 8 18340764849669778531
15852999 172 18335416807784655330
15906896 17 17767121999687098682
16752209 62 17831587470166948742
16945 1 18191840479470258162
20600515 1 17558536157190333298
21339142 36 17545600514463850494
21524375 3 18128817434748785361
22112679 90 16610798490060433794
23419403 2 17393914050811642290
23559900 14 18335425724442567387
23598288 3 17693379936871696698
23598291 2 17914354376600450010
25222932 49 16447333220855340807
2748010 2 18129922530181997915
298252 57 18126836098064030840
576247 118 17689441902479201406
7364860 26 18335418032045247029
81228 2 17035558562265190490
84936 31 18042138698277612358

> <PUBCHEM_SHAPE_MULTIPOLES>
372.07
5.25
3.61
1.65
5.86
3.81
0.13
-2.39
0.38
-3.27
-1.57
-0.94
-0.15
0.49

> <PUBCHEM_SHAPE_SELFOVERLAP>
773.39

> <PUBCHEM_SHAPE_VOLUME>
213.5

> <PUBCHEM_COORDINATE_TYPE>
2
5
10

$$$$

