20965
  -OEChem-07051213132D

 30 30  0     0  0  0  0  0  0999 V2000
    3.7320   -3.2500    0.0000 Br  0  0  0  0  0  0  0  0  0  0  0  0
    2.0000   -0.2500    0.0000 Cl  0  0  0  0  0  0  0  0  0  0  0  0
    5.4641   -2.2500    0.0000 Cl  0  0  0  0  0  0  0  0  0  0  0  0
    5.0981    0.3840    0.0000 S   0  0  0  0  0  0  0  0  0  0  0  0
    4.5981    1.2500    0.0000 P   0  0  0  0  0  0  0  0  0  0  0  0
    3.7320    0.7500    0.0000 O   0  0  0  0  0  0  0  0  0  0  0  0
    5.4641    1.7500    0.0000 O   0  0  0  0  0  0  0  0  0  0  0  0
    4.0981    2.1160    0.0000 O   0  0  0  0  0  0  0  0  0  0  0  0
    3.7320   -0.2500    0.0000 C   0  0  0  0  0  0  0  0  0  0  0  0
    3.0981    2.1160    0.0000 C   0  0  0  0  0  0  0  0  0  0  0  0
    5.4641    2.7500    0.0000 C   0  0  0  0  0  0  0  0  0  0  0  0
    2.8660   -0.7500    0.0000 C   0  0  0  0  0  0  0  0  0  0  0  0
    4.5981   -0.7500    0.0000 C   0  0  0  0  0  0  0  0  0  0  0  0
    6.3301    3.2500    0.0000 C   0  0  0  0  0  0  0  0  0  0  0  0
    2.5981    2.9820    0.0000 C   0  0  0  0  0  0  0  0  0  0  0  0
    4.5981   -1.7500    0.0000 C   0  0  0  0  0  0  0  0  0  0  0  0
    2.8660   -1.7500    0.0000 C   0  0  0  0  0  0  0  0  0  0  0  0
    3.7320   -2.2500    0.0000 C   0  0  0  0  0  0  0  0  0  0  0  0
    5.2520    3.3326    0.0000 H   0  0  0  0  0  0  0  0  0  0  0  0
    4.8535    2.6423    0.0000 H   0  0  0  0  0  0  0  0  0  0  0  0
    2.5155    1.9040    0.0000 H   0  0  0  0  0  0  0  0  0  0  0  0
    3.2057    1.5054    0.0000 H   0  0  0  0  0  0  0  0  0  0  0  0
    5.1350   -0.4400    0.0000 H   0  0  0  0  0  0  0  0  0  0  0  0
    6.6401    2.7131    0.0000 H   0  0  0  0  0  0  0  0  0  0  0  0
    6.8671    3.5600    0.0000 H   0  0  0  0  0  0  0  0  0  0  0  0
    6.0201    3.7869    0.0000 H   0  0  0  0  0  0  0  0  0  0  0  0
    3.1350    3.2920    0.0000 H   0  0  0  0  0  0  0  0  0  0  0  0
    2.2881    3.5190    0.0000 H   0  0  0  0  0  0  0  0  0  0  0  0
    2.0611    2.6720    0.0000 H   0  0  0  0  0  0  0  0  0  0  0  0
    2.3291   -2.0600    0.0000 H   0  0  0  0  0  0  0  0  0  0  0  0
  1 18  1  0  0  0  0
  2 12  1  0  0  0  0
  3 16  1  0  0  0  0
  4  5  2  0  0  0  0
  5  6  1  0  0  0  0
  5  7  1  0  0  0  0
  5  8  1  0  0  0  0
  6  9  1  0  0  0  0
  7 11  1  0  0  0  0
  8 10  1  0  0  0  0
  9 12  1  0  0  0  0
  9 13  2  0  0  0  0
 10 15  1  0  0  0  0
 10 21  1  0  0  0  0
 10 22  1  0  0  0  0
 11 14  1  0  0  0  0
 11 19  1  0  0  0  0
 11 20  1  0  0  0  0
 12 17  2  0  0  0  0
 13 16  1  0  0  0  0
 13 23  1  0  0  0  0
 14 24  1  0  0  0  0
 14 25  1  0  0  0  0
 14 26  1  0  0  0  0
 15 27  1  0  0  0  0
 15 28  1  0  0  0  0
 15 29  1  0  0  0  0
 16 18  2  0  0  0  0
 17 18  1  0  0  0  0
 17 30  1  0  0  0  0
M  END
> <PUBCHEM_COMPOUND_CID>
20965

> <PUBCHEM_COMPOUND_CANONICALIZED>
1

> <PUBCHEM_CACTVS_COMPLEXITY>
301

> <PUBCHEM_CACTVS_HBOND_ACCEPTOR>
4

> <PUBCHEM_CACTVS_HBOND_DONOR>
0

> <PUBCHEM_CACTVS_ROTATABLE_BOND>
6

> <PUBCHEM_CACTVS_SUBSKEYS>
AAADccBwMAJGEAAAAAAAAAAAAAAAAAAAAAAwAAAAAAAAAAABAAAAGgJAACABqAagkCIyBoAAARCAACBCAAACAAAgJUQAiAAGC6gIJiKBEhKAMAAkwBEIiheAQAAAABAQAQBACAIAICACAIAQBAAAAAAAAA==

> <PUBCHEM_IUPAC_OPENEYE_NAME>
(4-bromo-2,5-dichloro-phenoxy)-diethoxy-thioxo-$l^{5}-phosphane

> <PUBCHEM_IUPAC_CAS_NAME>
(4-bromo-2,5-dichlorophenoxy)-diethoxy-sulfanylidenephosphorane

> <PUBCHEM_IUPAC_NAME>
(4-bromo-2,5-dichlorophenoxy)-diethoxy-sulfanylidene-$l^{5}-phosphane

> <PUBCHEM_IUPAC_SYSTEMATIC_NAME>
[4-bromanyl-2,5-bis(chloranyl)phenoxy]-diethoxy-sulfanylidene-$l^{5}-phosphane

> <PUBCHEM_IUPAC_TRADITIONAL_NAME>
(4-bromo-2,5-dichloro-phenoxy)-diethoxy-thioxo-phosphorane

> <PUBCHEM_IUPAC_INCHI>
InChI=1S/C10H12BrCl2O3PS/c1-3-14-17(18,15-4-2)16-10-6-8(12)7(11)5-9(10)13/h5-6H,3-4H2,1-2H3

> <PUBCHEM_IUPAC_INCHIKEY>
KWGUFOITWDSNQY-UHFFFAOYSA-N

> <PUBCHEM_XLOGP3>
6.1

> <PUBCHEM_EXACT_MASS>
391.880519

> <PUBCHEM_MOLECULAR_FORMULA>
C10H12BrCl2O3PS

> <PUBCHEM_MOLECULAR_WEIGHT>
394.049242

> <PUBCHEM_OPENEYE_CAN_SMILES>
CCOP(=S)(OCC)OC1=CC(=C(C=C1Cl)Br)Cl

> <PUBCHEM_OPENEYE_ISO_SMILES>
CCOP(=S)(OCC)OC1=CC(=C(C=C1Cl)Br)Cl

> <PUBCHEM_CACTVS_TPSA>
59.8

> <PUBCHEM_MONOISOTOPIC_WEIGHT>
391.880519

> <PUBCHEM_TOTAL_CHARGE>
0

> <PUBCHEM_HEAVY_ATOM_COUNT>
18

> <PUBCHEM_ATOM_DEF_STEREO_COUNT>
0

> <PUBCHEM_ATOM_UDEF_STEREO_COUNT>
0

> <PUBCHEM_BOND_DEF_STEREO_COUNT>
0

> <PUBCHEM_BOND_UDEF_STEREO_COUNT>
0

> <PUBCHEM_ISOTOPIC_ATOM_COUNT>
0

> <PUBCHEM_COMPONENT_COUNT>
1

> <PUBCHEM_CACTVS_TAUTO_COUNT>
1

> <PUBCHEM_COORDINATE_TYPE>
1
5
255

> <PUBCHEM_BONDANNOTATIONS>
12  17  8
13  16  8
16  18  8
17  18  8
9  12  8
9  13  8

$$$$

