17395701
  -OEChem-06241222513D

 31 32  0     0  0  0  0  0  0999 V2000
   -6.8351   -0.1848    0.0030 Br  0  0  0  0  0  0  0  0  0  0  0  0
    0.0271    1.4109   -0.0009 S   0  0  0  0  0  0  0  0  0  0  0  0
    3.9723    1.4917    0.0075 N   0  0  0  0  0  0  0  0  0  0  0  0
    2.3456   -0.1166   -0.0062 N   0  0  0  0  0  0  0  0  0  0  0  0
    2.7443    2.0320    0.0049 N   0  0  0  0  0  0  0  0  0  0  0  0
    4.7590   -0.8179    0.0018 C   0  0  0  0  0  0  0  0  0  0  0  0
    3.6763    0.1903    0.0003 C   0  0  0  0  0  0  0  0  0  0  0  0
    4.7531   -1.7078   -1.2612 C   0  0  0  0  0  0  0  0  0  0  0  0
    4.7430   -1.7150    1.2596 C   0  0  0  0  0  0  0  0  0  0  0  0
    1.7832    1.0697   -0.0034 C   0  0  0  0  0  0  0  0  0  0  0  0
   -0.6646   -0.2701   -0.0034 C   0  0  0  0  0  0  0  0  0  0  0  0
   -2.1560   -0.2498   -0.0018 C   0  0  0  0  0  0  0  0  0  0  0  0
   -2.8546   -0.2381   -1.2090 C   0  0  0  0  0  0  0  0  0  0  0  0
   -2.8521   -0.2421    1.2071 C   0  0  0  0  0  0  0  0  0  0  0  0
   -4.2492   -0.2187   -1.2077 C   0  0  0  0  0  0  0  0  0  0  0  0
   -4.2468   -0.2228    1.2085 C   0  0  0  0  0  0  0  0  0  0  0  0
   -4.9454   -0.2109    0.0010 C   0  0  0  0  0  0  0  0  0  0  0  0
    5.7268   -0.2967    0.0071 H   0  0  0  0  0  0  0  0  0  0  0  0
    4.8196   -1.0940   -2.1662 H   0  0  0  0  0  0  0  0  0  0  0  0
    5.6029   -2.3982   -1.2551 H   0  0  0  0  0  0  0  0  0  0  0  0
    3.8320   -2.2978   -1.3246 H   0  0  0  0  0  0  0  0  0  0  0  0
    5.5928   -2.4055    1.2564 H   0  0  0  0  0  0  0  0  0  0  0  0
    4.8022   -1.1064    2.1686 H   0  0  0  0  0  0  0  0  0  0  0  0
    3.8214   -2.3054    1.3123 H   0  0  0  0  0  0  0  0  0  0  0  0
    4.8218    2.0497    0.0139 H   0  0  0  0  0  0  0  0  0  0  0  0
   -0.2969   -0.8110   -0.8834 H   0  0  0  0  0  0  0  0  0  0  0  0
   -0.2950   -0.8142    0.8739 H   0  0  0  0  0  0  0  0  0  0  0  0
   -2.3244   -0.2430   -2.1578 H   0  0  0  0  0  0  0  0  0  0  0  0
   -2.3199   -0.2503    2.1548 H   0  0  0  0  0  0  0  0  0  0  0  0
   -4.7783   -0.2095   -2.1571 H   0  0  0  0  0  0  0  0  0  0  0  0
   -4.7742   -0.2168    2.1589 H   0  0  0  0  0  0  0  0  0  0  0  0
  1 17  1  0  0  0  0
  2 10  1  0  0  0  0
  2 11  1  0  0  0  0
  3  5  1  0  0  0  0
  3  7  1  0  0  0  0
  3 25  1  0  0  0  0
  4  7  2  0  0  0  0
  4 10  1  0  0  0  0
  5 10  2  0  0  0  0
  6  7  1  0  0  0  0
  6  8  1  0  0  0  0
  6  9  1  0  0  0  0
  6 18  1  0  0  0  0
  8 19  1  0  0  0  0
  8 20  1  0  0  0  0
  8 21  1  0  0  0  0
  9 22  1  0  0  0  0
  9 23  1  0  0  0  0
  9 24  1  0  0  0  0
 11 12  1  0  0  0  0
 11 26  1  0  0  0  0
 11 27  1  0  0  0  0
 12 13  2  0  0  0  0
 12 14  1  0  0  0  0
 13 15  1  0  0  0  0
 13 28  1  0  0  0  0
 14 16  2  0  0  0  0
 14 29  1  0  0  0  0
 15 17  2  0  0  0  0
 15 30  1  0  0  0  0
 16 17  1  0  0  0  0
 16 31  1  0  0  0  0
M  END
> <PUBCHEM_COMPOUND_CID>
17395701

> <PUBCHEM_CONFORMER_RMSD>
0.6

> <PUBCHEM_CONFORMER_DIVERSEORDER>
1
102
33
57
68
20
18
62
84
47
74
69
59
43
4
10
79
49
26
9
53
65
60
8
54
37
73
2
97
48
66
72
77
40
52
92
16
56
6
41
27
32
63
75
22
76
12
28
71
3
88
17
35
14
44
101
78
81
70
94
25
11
85
82
103
15
95
50
98
83
21
24
31
80
90
64
104
19
36
93
87
39
5
34
100
45
55
42
96
61
58
7
86
29
51
89
99
105
46
13
30
67
38
23
91

> <PUBCHEM_MMFF94_PARTIAL_CHARGES>
20
1 -0.11
10 0.57
11 0.37
12 -0.14
13 -0.15
14 -0.15
15 -0.15
16 -0.15
17 0.11
2 -0.28
25 0.27
28 0.15
29 0.15
3 0.3
30 0.15
31 0.15
4 -0.57
5 -0.71
6 0.18
7 0.01

> <PUBCHEM_EFFECTIVE_ROTOR_COUNT>
4

> <PUBCHEM_PHARMACOPHORE_FEATURES>
7
1 1 hydrophobe
1 3 donor
3 3 4 7 cation
3 4 5 10 cation
3 6 8 9 hydrophobe
5 3 4 5 7 10 rings
6 12 13 14 15 16 17 rings

> <PUBCHEM_HEAVY_ATOM_COUNT>
17

> <PUBCHEM_ATOM_DEF_STEREO_COUNT>
0

> <PUBCHEM_ATOM_UDEF_STEREO_COUNT>
0

> <PUBCHEM_BOND_DEF_STEREO_COUNT>
0

> <PUBCHEM_BOND_UDEF_STEREO_COUNT>
0

> <PUBCHEM_ISOTOPIC_ATOM_COUNT>
0

> <PUBCHEM_COMPONENT_COUNT>
1

> <PUBCHEM_CACTVS_TAUTO_COUNT>
5

> <PUBCHEM_CONFORMER_ID>
01096FF500000001

> <PUBCHEM_MMFF94_ENERGY>
36.1425

> <PUBCHEM_FEATURE_SELFOVERLAP>
38.269

> <PUBCHEM_SHAPE_FINGERPRINT>
10912923 1 17458622272674276929
11858739 19 18186801408868440007
12236239 1 17822009800998045619
12390115 104 16701472294332727869
12596602 18 16008756805342269538
12616971 3 18113341890640233229
12616999 72 15410899574094740240
13167823 11 18113620058170632295
13533116 47 17894348886686359162
13551218 46 17895190047457346295
13685833 64 18343019999373195394
13914758 101 18262236729293732057
14251732 16 8718819899918754413
14251752 14 18260270785212694593
14251764 18 18113338591588547204
14366163 111 14189568629224134062
14573314 32 17418097636975739655
15183329 4 18271809068439219793
15242439 84 17775567533257031409
17834072 8 18060418023286195419
17844677 252 17989485229701927309
1813 80 18338786901381982924
193927 3 18339070584145644666
200 152 18260552225191233409
20325693 3 15985385595077619915
20369508 70 18272376382353525642
20645477 70 18411700980781473462
21728266 224 16298398933133319551
221357 26 18131074843995494117
2215653 11 17846502530376443703
22224240 67 17894925006032987642
22646028 1 17749107785628692252
2297311 6 16559029407233318239
23175994 123 18202561757534636749
23402539 116 15864073166029364525
23536379 177 18334295358218103905
23557571 272 16702024227093686951
23559900 14 17704070659836812096
23590187 198 17748825232852742815
2838139 119 18261959656833248597
2871803 45 18130788984067832952
29717793 49 18187080671937097061
300161 21 17822295639097435928
3004659 81 18408882945337894828
3014965 18 18201445813098001627
32948 21 17274549827059539372
345986 75 18115597092004928210
34797466 226 15626214723774214207
351380 3 18335137622489834478
4325135 7 8646478627232556337
465052 167 18410570691281248678
5104073 3 17968942976977740235
5281201 14 17846499218719464116
5374978 207 17385445410312011984
573450 72 17022619780112195023
90127 26 17846779594311250957
9981440 41 16815199965228108233

> <PUBCHEM_SHAPE_MULTIPOLES>
344.7
15.39
1.53
1.15
6.58
0.33
0
-5.06
0
-2.82
0
0.3
-0.4
0.01

> <PUBCHEM_SHAPE_SELFOVERLAP>
690.446

> <PUBCHEM_SHAPE_VOLUME>
209.8

> <PUBCHEM_COORDINATE_TYPE>
2
5
10

$$$$

