11954094
  -OEChem-07051213062D

 59 62  0     1  0  0  0  0  0999 V2000
    2.0462    0.5683    0.0000 O   0  0  0  0  0  0  0  0  0  0  0  0
    3.7251    4.7650    0.0000 O   0  0  0  0  0  0  0  0  0  0  0  0
    2.0072   -4.4530    0.0000 O   0  0  0  0  0  0  0  0  0  0  0  0
    3.7622    1.6098    0.0000 C   0  0  2  0  0  0  0  0  0  0  0  0
    4.6443    0.0683    0.0000 C   0  0  2  0  0  0  0  0  0  0  0  0
    3.7783    0.5683    0.0000 C   0  0  2  0  0  0  0  0  0  0  0  0
    4.6443   -0.9317    0.0000 C   0  0  1  0  0  0  0  0  0  0  0  0
    4.6603    2.1376    0.0000 C   0  0  2  0  0  0  0  0  0  0  0  0
    3.7783   -1.4317    0.0000 C   0  0  2  0  0  0  0  0  0  0  0  0
    5.5543    0.5752    0.0000 C   0  0  0  0  0  0  0  0  0  0  0  0
    5.5624    1.6168    0.0000 C   0  0  0  0  0  0  0  0  0  0  0  0
    2.8103    2.1305    0.0000 C   0  0  0  0  0  0  0  0  0  0  0  0
    2.9123   -0.9317    0.0000 C   0  0  0  0  0  0  0  0  0  0  0  0
    2.9123    0.0683    0.0000 C   0  0  0  0  0  0  0  0  0  0  0  0
    4.6686    3.2226    0.0000 C   0  0  0  0  0  0  0  0  0  0  0  0
    5.5543   -1.4385    0.0000 C   0  0  0  0  0  0  0  0  0  0  0  0
    2.9001    1.1032    0.0000 C   0  0  0  0  0  0  0  0  0  0  0  0
    2.7936    3.2153    0.0000 C   0  0  0  0  0  0  0  0  0  0  0  0
    3.7622   -2.4732    0.0000 C   0  0  0  0  0  0  0  0  0  0  0  0
    3.7290    3.7650    0.0000 C   0  0  1  0  0  0  0  0  0  0  0  0
    5.5624   -2.4801    0.0000 C   0  0  0  0  0  0  0  0  0  0  0  0
    2.9123   -1.9317    0.0000 C   0  0  0  0  0  0  0  0  0  0  0  0
    4.6603   -3.0009    0.0000 C   0  0  0  0  0  0  0  0  0  0  0  0
    2.8905   -2.9631    0.0000 C   0  0  0  0  0  0  0  0  0  0  0  0
    2.8789   -3.9631    0.0000 C   0  0  0  0  0  0  0  0  0  0  0  0
    5.3771   -0.3623    0.0000 H   0  0  0  0  0  0  0  0  0  0  0  0
    3.0389    0.9876    0.0000 H   0  0  0  0  0  0  0  0  0  0  0  0
    5.3771   -0.5010    0.0000 H   0  0  0  0  0  0  0  0  0  0  0  0
    5.3980    2.5598    0.0000 H   0  0  0  0  0  0  0  0  0  0  0  0
    5.7589   -0.0101    0.0000 H   0  0  0  0  0  0  0  0  0  0  0  0
    6.1660    0.6766    0.0000 H   0  0  0  0  0  0  0  0  0  0  0  0
    6.1724    1.5060    0.0000 H   0  0  0  0  0  0  0  0  0  0  0  0
    5.7759    2.1988    0.0000 H   0  0  0  0  0  0  0  0  0  0  0  0
    2.1979    2.2271    0.0000 H   0  0  0  0  0  0  0  0  0  0  0  0
    2.6103    1.5436    0.0000 H   0  0  0  0  0  0  0  0  0  0  0  0
    2.3017   -0.8240    0.0000 H   0  0  0  0  0  0  0  0  0  0  0  0
    2.7002   -1.5143    0.0000 H   0  0  0  0  0  0  0  0  0  0  0  0
    5.2786    3.1118    0.0000 H   0  0  0  0  0  0  0  0  0  0  0  0
    4.8822    3.8046    0.0000 H   0  0  0  0  0  0  0  0  0  0  0  0
    6.1660   -1.5399    0.0000 H   0  0  0  0  0  0  0  0  0  0  0  0
    5.7589   -0.8532    0.0000 H   0  0  0  0  0  0  0  0  0  0  0  0
    2.5860    1.6377    0.0000 H   0  0  0  0  0  0  0  0  0  0  0  0
    2.3656    0.7890    0.0000 H   0  0  0  0  0  0  0  0  0  0  0  0
    3.2142    0.5686    0.0000 H   0  0  0  0  0  0  0  0  0  0  0  0
    2.5755    3.7957    0.0000 H   0  0  0  0  0  0  0  0  0  0  0  0
    2.1844    3.0998    0.0000 H   0  0  0  0  0  0  0  0  0  0  0  0
    3.1903    4.0719    0.0000 H   0  0  0  0  0  0  0  0  0  0  0  0
    5.7759   -3.0622    0.0000 H   0  0  0  0  0  0  0  0  0  0  0  0
    6.1724   -2.3693    0.0000 H   0  0  0  0  0  0  0  0  0  0  0  0
    2.6023   -1.3947    0.0000 H   0  0  0  0  0  0  0  0  0  0  0  0
    2.3753   -2.2417    0.0000 H   0  0  0  0  0  0  0  0  0  0  0  0
    3.2223   -2.4686    0.0000 H   0  0  0  0  0  0  0  0  0  0  0  0
    4.2593   -3.4738    0.0000 H   0  0  0  0  0  0  0  0  0  0  0  0
    5.0576   -3.4769    0.0000 H   0  0  0  0  0  0  0  0  0  0  0  0
    2.3572   -2.6469    0.0000 H   0  0  0  0  0  0  0  0  0  0  0  0
    3.1870    5.0730    0.0000 H   0  0  0  0  0  0  0  0  0  0  0  0
    3.0842   -4.5481    0.0000 H   0  0  0  0  0  0  0  0  0  0  0  0
    3.4907   -3.8625    0.0000 H   0  0  0  0  0  0  0  0  0  0  0  0
    2.0000   -5.0730    0.0000 H   0  0  0  0  0  0  0  0  0  0  0  0
  1 14  2  0  0  0  0
 20  2  1  1  0  0  0
  2 56  1  0  0  0  0
  3 25  1  0  0  0  0
  3 59  1  0  0  0  0
  4  6  1  0  0  0  0
  4  8  1  0  0  0  0
  4 12  1  0  0  0  0
  4 17  1  6  0  0  0
  5  6  1  0  0  0  0
  5  7  1  0  0  0  0
  5 10  1  0  0  0  0
  5 26  1  6  0  0  0
  6 14  1  0  0  0  0
  6 27  1  1  0  0  0
  7  9  1  0  0  0  0
  7 16  1  0  0  0  0
  7 28  1  1  0  0  0
  8 11  1  0  0  0  0
  8 15  1  0  0  0  0
  8 29  1  6  0  0  0
  9 13  1  0  0  0  0
  9 19  1  0  0  0  0
  9 22  1  6  0  0  0
 10 11  1  0  0  0  0
 10 30  1  0  0  0  0
 10 31  1  0  0  0  0
 11 32  1  0  0  0  0
 11 33  1  0  0  0  0
 12 18  1  0  0  0  0
 12 34  1  0  0  0  0
 12 35  1  0  0  0  0
 13 14  1  0  0  0  0
 13 36  1  0  0  0  0
 13 37  1  0  0  0  0
 15 20  1  0  0  0  0
 15 38  1  0  0  0  0
 15 39  1  0  0  0  0
 16 21  1  0  0  0  0
 16 40  1  0  0  0  0
 16 41  1  0  0  0  0
 17 42  1  0  0  0  0
 17 43  1  0  0  0  0
 17 44  1  0  0  0  0
 18 20  1  0  0  0  0
 18 45  1  0  0  0  0
 18 46  1  0  0  0  0
 19 23  1  0  0  0  0
 19 24  2  0  0  0  0
 20 47  1  0  0  0  0
 21 23  1  0  0  0  0
 21 48  1  0  0  0  0
 21 49  1  0  0  0  0
 22 50  1  0  0  0  0
 22 51  1  0  0  0  0
 22 52  1  0  0  0  0
 23 53  1  0  0  0  0
 23 54  1  0  0  0  0
 24 25  1  0  0  0  0
 24 55  1  0  0  0  0
 25 57  1  0  0  0  0
 25 58  1  0  0  0  0
M  END
> <PUBCHEM_COMPOUND_CID>
11954094

> <PUBCHEM_COMPOUND_CANONICALIZED>
1

> <PUBCHEM_CACTVS_COMPLEXITY>
582

> <PUBCHEM_CACTVS_HBOND_ACCEPTOR>
3

> <PUBCHEM_CACTVS_HBOND_DONOR>
2

> <PUBCHEM_CACTVS_ROTATABLE_BOND>
1

> <PUBCHEM_CACTVS_SUBSKEYS>
AAADcfB4MAAAAAAAAAAAAAAAAAAAAAAAAAAwYMGAAAAAAADAAAAAGgAACAAADxSggAICAAAAAgCIAqBSAAAAAAAgAAAACAEAAAgAFBIAAQAAUAAEgAAIEAOIyPCPgAAAAAAAAADAAAYAACAAAAAAAAAAAA==

> <PUBCHEM_IUPAC_OPENEYE_NAME>
(2R,4aS,4bS,6aS,7E,10aS,10bS,12aR)-2-hydroxy-7-(2-hydroxyethylidene)-4a,6a-dimethyl-1,2,3,4,4b,6,8,9,10,10a,10b,11,12,12a-tetradecahydrochrysen-5-one

> <PUBCHEM_IUPAC_CAS_NAME>
(2R,4aS,4bS,6aS,7E,10aS,10bS,12aR)-2-hydroxy-7-(2-hydroxyethylidene)-4a,6a-dimethyl-1,2,3,4,4b,6,8,9,10,10a,10b,11,12,12a-tetradecahydrochrysen-5-one

> <PUBCHEM_IUPAC_NAME>
(2R,4aS,4bS,6aS,7E,10aS,10bS,12aR)-2-hydroxy-7-(2-hydroxyethylidene)-4a,6a-dimethyl-1,2,3,4,4b,6,8,9,10,10a,10b,11,12,12a-tetradecahydrochrysen-5-one

> <PUBCHEM_IUPAC_SYSTEMATIC_NAME>
(2R,4aS,4bS,6aS,7E,10aS,10bS,12aR)-4a,6a-dimethyl-2-oxidanyl-7-(2-oxidanylethylidene)-1,2,3,4,4b,6,8,9,10,10a,10b,11,12,12a-tetradecahydrochrysen-5-one

> <PUBCHEM_IUPAC_TRADITIONAL_NAME>
(2R,4aS,4bS,6aS,7E,10aS,10bS,12aR)-2-hydroxy-7-(2-hydroxyethylidene)-4a,6a-dimethyl-1,2,3,4,4b,6,8,9,10,10a,10b,11,12,12a-tetradecahydrochrysen-5-one

> <PUBCHEM_IUPAC_INCHI>
InChI=1S/C22H34O3/c1-21-10-8-16(24)12-15(21)6-7-17-18-5-3-4-14(9-11-23)22(18,2)13-19(25)20(17)21/h9,15-18,20,23-24H,3-8,10-13H2,1-2H3/b14-9+/t15-,16-,17+,18+,20-,21+,22-/m1/s1

> <PUBCHEM_IUPAC_INCHIKEY>
JTOOMWOXUKJUIP-YMISHOMTSA-N

> <PUBCHEM_XLOGP3_AA>
3.4

> <PUBCHEM_EXACT_MASS>
346.250795

> <PUBCHEM_MOLECULAR_FORMULA>
C22H34O3

> <PUBCHEM_MOLECULAR_WEIGHT>
346.50356

> <PUBCHEM_OPENEYE_CAN_SMILES>
CC12CCC(CC1CCC3C2C(=O)CC4(C3CCCC4=CCO)C)O

> <PUBCHEM_OPENEYE_ISO_SMILES>
C[C@]12CC[C@H](C[C@H]1CC[C@@H]3[C@@H]2C(=O)C[C@]\4([C@H]3CCC/C4=C\CO)C)O

> <PUBCHEM_CACTVS_TPSA>
57.5

> <PUBCHEM_MONOISOTOPIC_WEIGHT>
346.250795

> <PUBCHEM_TOTAL_CHARGE>
0

> <PUBCHEM_HEAVY_ATOM_COUNT>
25

> <PUBCHEM_ATOM_DEF_STEREO_COUNT>
7

> <PUBCHEM_ATOM_UDEF_STEREO_COUNT>
0

> <PUBCHEM_BOND_DEF_STEREO_COUNT>
1

> <PUBCHEM_BOND_UDEF_STEREO_COUNT>
0

> <PUBCHEM_ISOTOPIC_ATOM_COUNT>
0

> <PUBCHEM_COMPONENT_COUNT>
1

> <PUBCHEM_CACTVS_TAUTO_COUNT>
3

> <PUBCHEM_COORDINATE_TYPE>
1
5
255

> <PUBCHEM_BONDANNOTATIONS>
20  2  5
4  17  6
5  26  6
6  27  5
7  28  5
8  29  6
9  22  6

$$$$

