47205180
  -OEChem-06241222583D

 35 36  0     1  0  0  0  0  0999 V2000
   -5.0123    0.7453   -0.2680 S   0  0  0  0  0  0  0  0  0  0  0  0
   -6.3073    1.0077    0.3245 O   0  0  0  0  0  0  0  0  0  0  0  0
   -4.7316    1.0130   -1.6632 O   0  0  0  0  0  0  0  0  0  0  0  0
   -0.4577   -1.8417    1.0473 O   0  0  0  0  0  0  0  0  0  0  0  0
    4.0528   -0.9356   -0.1193 O   0  0  0  0  0  0  0  0  0  0  0  0
    1.3680    1.2988   -0.7394 O   0  0  0  0  0  0  0  0  0  0  0  0
   -2.1126   -0.8218   -0.2274 N   0  0  0  0  0  0  0  0  0  0  0  0
    1.4026   -1.0194   -0.8300 N   0  0  0  0  0  0  0  0  0  0  0  0
    5.3735   -0.7032    0.2448 N   0  0  0  0  0  0  0  0  0  0  0  0
   -3.1672   -0.8568    0.7583 C   0  0  2  0  0  0  0  0  0  0  0  0
   -4.5458   -0.9425    0.1013 C   0  0  0  0  0  0  0  0  0  0  0  0
   -3.1846    0.4199    1.6065 C   0  0  0  0  0  0  0  0  0  0  0  0
   -3.7543    1.5302    0.7273 C   0  0  0  0  0  0  0  0  0  0  0  0
   -0.8371   -1.3208    0.0014 C   0  0  0  0  0  0  0  0  0  0  0  0
    0.0376   -1.1982   -1.2281 C   0  0  0  0  0  0  0  0  0  0  0  0
    1.9681    0.2345   -0.6139 C   0  0  0  0  0  0  0  0  0  0  0  0
    3.4032    0.2513   -0.2307 C   0  0  0  0  0  0  0  0  0  0  0  0
    4.2655    1.2772    0.0526 C   0  0  0  0  0  0  0  0  0  0  0  0
    5.4768    0.6253    0.3415 C   0  0  0  0  0  0  0  0  0  0  0  0
    6.7625    1.2366    0.7145 C   0  0  0  0  0  0  0  0  0  0  0  0
   -3.0018   -1.7324    1.3959 H   0  0  0  0  0  0  0  0  0  0  0  0
   -4.5593   -1.5343   -0.8171 H   0  0  0  0  0  0  0  0  0  0  0  0
   -5.2857   -1.3319    0.8077 H   0  0  0  0  0  0  0  0  0  0  0  0
   -2.1934    0.6890    1.9855 H   0  0  0  0  0  0  0  0  0  0  0  0
   -3.8431    0.2696    2.4712 H   0  0  0  0  0  0  0  0  0  0  0  0
   -4.1971    2.3389    1.3125 H   0  0  0  0  0  0  0  0  0  0  0  0
   -2.9925    1.9320    0.0530 H   0  0  0  0  0  0  0  0  0  0  0  0
   -2.3142   -0.3765   -1.1181 H   0  0  0  0  0  0  0  0  0  0  0  0
   -0.2740   -0.3571   -1.8553 H   0  0  0  0  0  0  0  0  0  0  0  0
   -0.0359   -2.1243   -1.8057 H   0  0  0  0  0  0  0  0  0  0  0  0
    1.9751   -1.8481   -0.6962 H   0  0  0  0  0  0  0  0  0  0  0  0
    4.0507    2.3358    0.0502 H   0  0  0  0  0  0  0  0  0  0  0  0
    7.0861    0.8870    1.7004 H   0  0  0  0  0  0  0  0  0  0  0  0
    7.5390    0.9799   -0.0135 H   0  0  0  0  0  0  0  0  0  0  0  0
    6.6883    2.3283    0.7541 H   0  0  0  0  0  0  0  0  0  0  0  0
  1  2  2  0  0  0  0
  1  3  2  0  0  0  0
  1 11  1  0  0  0  0
  1 13  1  0  0  0  0
  4 14  2  0  0  0  0
  5  9  1  0  0  0  0
  5 17  1  0  0  0  0
  6 16  2  0  0  0  0
  7 10  1  0  0  0  0
  7 14  1  0  0  0  0
  7 28  1  0  0  0  0
  8 15  1  0  0  0  0
  8 16  1  0  0  0  0
  8 31  1  0  0  0  0
  9 19  2  0  0  0  0
 10 11  1  0  0  0  0
 10 12  1  0  0  0  0
 10 21  1  0  0  0  0
 11 22  1  0  0  0  0
 11 23  1  0  0  0  0
 12 13  1  0  0  0  0
 12 24  1  0  0  0  0
 12 25  1  0  0  0  0
 13 26  1  0  0  0  0
 13 27  1  0  0  0  0
 14 15  1  0  0  0  0
 15 29  1  0  0  0  0
 15 30  1  0  0  0  0
 16 17  1  0  0  0  0
 17 18  2  0  0  0  0
 18 19  1  0  0  0  0
 18 32  1  0  0  0  0
 19 20  1  0  0  0  0
 20 33  1  0  0  0  0
 20 34  1  0  0  0  0
 20 35  1  0  0  0  0
M  END
> <PUBCHEM_COMPOUND_CID>
47205180

> <PUBCHEM_CONFORMER_RMSD>
0.8

> <PUBCHEM_CONFORMER_DIVERSEORDER>
1
248
155
247
11
229
72
175
257
225
154
234
187
41
24
52
68
121
124
85
197
177
34
108
110
252
238
9
19
147
8
29
189
176
218
26
5
13
48
75
58
203
213
245
18
77
161
169
211
152
209
205
250
35
253
83
69
136
89
256
231
55
233
217
230
92
78
3
128
178
142
212
220
255
98
251
117
144
22
156
133
84
42
106
43
193
73
21
258
54
50
219
59
2
243
208
44
240
51
80
60
57
127
20
38
28
39
167
190
174
236
32
227
244
185
162
81
166
131
158
168
30
123
170
7
232
122
183
125
46
132
14
254
204
23
172
109
249
150
129
104
12
228
66
201
160
88
157
159
56
36
64
49
16
137
134
195
74
188
207
33
171
194
86
40
67
135
45
145
111
6
239
93
10
215
182
224
222
140
184
146
4
61
164
114
25
148
27
31
102
237
82
96
206
105
191
173
196
198
62
95
143
97
47
112
118
71
149
181
223
151
63
163
116
99
126
70
165
202
235
107
130
138
153
90
180
103
113
139
192
246
119
214
101
79
37
53
91
100
226
15
216
210
200
94
179
141
65
186
115
120
199
241
87
76
17
221
242

> <PUBCHEM_MMFF94_PARTIAL_CHARGES>
22
1 1.09
10 0.3
11 0.11
13 0.11
14 0.57
15 0.36
16 0.71
17 0.05
18 -0.15
19 0.11
2 -0.65
20 0.18
28 0.37
3 -0.65
31 0.37
32 0.15
4 -0.57
5 -0.02
6 -0.57
7 -0.73
8 -0.73
9 -0.41

> <PUBCHEM_EFFECTIVE_ROTOR_COUNT>
6.8

> <PUBCHEM_PHARMACOPHORE_FEATURES>
9
1 2 acceptor
1 3 acceptor
1 4 acceptor
1 6 acceptor
1 7 donor
1 8 donor
1 9 acceptor
5 1 10 11 12 13 rings
5 5 9 17 18 19 rings

> <PUBCHEM_HEAVY_ATOM_COUNT>
20

> <PUBCHEM_ATOM_DEF_STEREO_COUNT>
0

> <PUBCHEM_ATOM_UDEF_STEREO_COUNT>
1

> <PUBCHEM_BOND_DEF_STEREO_COUNT>
0

> <PUBCHEM_BOND_UDEF_STEREO_COUNT>
0

> <PUBCHEM_ISOTOPIC_ATOM_COUNT>
0

> <PUBCHEM_COMPONENT_COUNT>
1

> <PUBCHEM_CACTVS_TAUTO_COUNT>
4

> <PUBCHEM_CONFORMER_ID>
02D04B3C00000001

> <PUBCHEM_MMFF94_ENERGY>
23.0023

> <PUBCHEM_FEATURE_SELFOVERLAP>
45.685

> <PUBCHEM_SHAPE_FINGERPRINT>
11089746 13 17603589604300920104
11128504 68 6050442622122266842
117890 112 18334294258421594040
12507557 5 18412258415996938593
12596602 18 18201720613742708952
12670546 177 14707212114948183683
13103583 49 13901900142200680333
13288520 33 10303813181593701907
13685833 64 10087633806710484517
14123255 352 18260545619373133704
14123256 10 14418134015194332549
1420 363 8286201660543160068
14251732 17 18060138768976310525
14251758 9 17489870461849892542
14251764 18 17703788080979530030
14251764 30 10735877265916835880
14251764 38 18334569135954875409
14350574 20 10735882772850645830
14466204 15 17917999407469645037
14617045 38 7709460520359659717
15188451 53 16701447945735982435
15238133 3 18201710731250034764
15527383 91 14189570827872901751
15537594 2 11743842443305086672
17780758 139 14692569918717447189
19489759 90 17775287149486889515
20157964 124 18113614620705177222
20281389 69 18409450263489587384
20871999 31 5184349590698487775
21150785 3 6338956698708354424
21315763 191 12823294606850349160
22950370 63 11887951051453692550
23035841 295 10303816483827596472
23402539 116 18335143068286625015
23522609 53 11670926259408609038
2767999 5 17676488345734147120
2838139 119 18113622295727442977
300161 21 18040438759534287958
314173 85 15482674576206218558
328317 168 17167577189525737894
33382 64 14620529943173502992
351380 180 18408039602381007169
351380 3 11455891351691099656
4325135 7 14562528470728777977
465052 167 12607398901608807754
5104073 3 16916214456403451248
5385378 56 17987514978211569819
6328613 192 18269827645744862884
7495541 125 12391513058208237734
9981440 41 18341885325544824723
999808 66 8430309182556580373

> <PUBCHEM_SHAPE_MULTIPOLES>
371.15
16.07
1.64
1.14
9.07
0.06
0.04
-7.19
-1.73
-0.32
-0.09
-0.97
-0.04
0.4

> <PUBCHEM_SHAPE_SELFOVERLAP>
755.53

> <PUBCHEM_SHAPE_VOLUME>
216.5

> <PUBCHEM_COORDINATE_TYPE>
2
5
10

$$$$

