6753
  -OEChem-07051213143D

 35 35  0     0  0  0  0  0  0999 V2000
   -2.0010   -1.3559   -0.1973 O   0  0  0  0  0  0  0  0  0  0  0  0
    1.6010   -3.1944   -0.1168 O   0  5  0  0  0  0  0  0  0  0  0  0
   -0.5931   -3.3158   -0.2101 O   0  0  0  0  0  0  0  0  0  0  0  0
    2.5050    2.9744    0.1398 O   0  5  0  0  0  0  0  0  0  0  0  0
    3.7535    1.1636    0.1275 O   0  0  0  0  0  0  0  0  0  0  0  0
    0.4702   -2.6585   -0.1438 N   0  3  0  0  0  0  0  0  0  0  0  0
    2.6356    1.7290    0.1010 N   0  3  0  0  0  0  0  0  0  0  0  0
   -2.2698    1.4648   -0.1073 C   0  0  0  0  0  0  0  0  0  0  0  0
   -0.8955    0.7534   -0.0781 C   0  0  0  0  0  0  0  0  0  0  0  0
   -2.1296    2.8485   -0.7785 C   0  0  0  0  0  0  0  0  0  0  0  0
   -2.7979    1.6448    1.3326 C   0  0  0  0  0  0  0  0  0  0  0  0
   -3.3458    0.6836   -0.8931 C   0  0  0  0  0  0  0  0  0  0  0  0
   -0.8582   -0.6132   -0.1249 C   0  0  0  0  0  0  0  0  0  0  0  0
    0.2185    1.5463   -0.0044 C   0  0  0  0  0  0  0  0  0  0  0  0
    0.3893   -1.2366   -0.0963 C   0  0  0  0  0  0  0  0  0  0  0  0
    1.5514   -0.4686   -0.0214 C   0  0  0  0  0  0  0  0  0  0  0  0
    1.4659    0.9229    0.0247 C   0  0  0  0  0  0  0  0  0  0  0  0
    2.8930   -1.1363    0.0090 C   0  0  0  0  0  0  0  0  0  0  0  0
   -2.5926   -1.7521    1.0372 C   0  0  0  0  0  0  0  0  0  0  0  0
   -3.1153    3.2981   -0.9540 H   0  0  0  0  0  0  0  0  0  0  0  0
   -1.6006    3.5780   -0.1558 H   0  0  0  0  0  0  0  0  0  0  0  0
   -1.6311    2.7827   -1.7529 H   0  0  0  0  0  0  0  0  0  0  0  0
   -2.1238    2.2836    1.9162 H   0  0  0  0  0  0  0  0  0  0  0  0
   -3.7826    2.1264    1.3316 H   0  0  0  0  0  0  0  0  0  0  0  0
   -2.8871    0.7065    1.8814 H   0  0  0  0  0  0  0  0  0  0  0  0
   -4.1372    1.3732   -1.2200 H   0  0  0  0  0  0  0  0  0  0  0  0
   -2.9524    0.2428   -1.8168 H   0  0  0  0  0  0  0  0  0  0  0  0
   -3.9038   -0.0574   -0.3268 H   0  0  0  0  0  0  0  0  0  0  0  0
    0.1632    2.6238    0.0683 H   0  0  0  0  0  0  0  0  0  0  0  0
    2.8821   -1.8736    0.8228 H   0  0  0  0  0  0  0  0  0  0  0  0
    3.1093   -1.5926   -0.9643 H   0  0  0  0  0  0  0  0  0  0  0  0
    3.8300   -0.7001    0.3255 H   0  0  0  0  0  0  0  0  0  0  0  0
   -3.5764   -1.3030    1.1818 H   0  0  0  0  0  0  0  0  0  0  0  0
   -1.9589   -1.5183    1.9006 H   0  0  0  0  0  0  0  0  0  0  0  0
   -2.7508   -2.8350    1.0162 H   0  0  0  0  0  0  0  0  0  0  0  0
  1 13  1  0  0  0  0
  1 19  1  0  0  0  0
  2  6  1  0  0  0  0
  3  6  2  0  0  0  0
  4  7  1  0  0  0  0
  5  7  2  0  0  0  0
  6 15  1  0  0  0  0
  7 17  1  0  0  0  0
  8  9  1  0  0  0  0
  8 10  1  0  0  0  0
  8 11  1  0  0  0  0
  8 12  1  0  0  0  0
  9 13  1  0  0  0  0
  9 14  2  0  0  0  0
 10 20  1  0  0  0  0
 10 21  1  0  0  0  0
 10 22  1  0  0  0  0
 11 23  1  0  0  0  0
 11 24  1  0  0  0  0
 11 25  1  0  0  0  0
 12 26  1  0  0  0  0
 12 27  1  0  0  0  0
 12 28  1  0  0  0  0
 13 15  2  0  0  0  0
 14 17  1  0  0  0  0
 14 29  1  0  0  0  0
 15 16  1  0  0  0  0
 16 17  2  0  0  0  0
 16 18  1  0  0  0  0
 18 30  1  0  0  0  0
 18 31  1  0  0  0  0
 18 32  1  0  0  0  0
 19 33  1  0  0  0  0
 19 34  1  0  0  0  0
 19 35  1  0  0  0  0
M  CHG  4   2  -1   4  -1   6   1   7   1
M  END
> <PUBCHEM_COMPOUND_CID>
6753

> <PUBCHEM_CONFORMER_RMSD>
0.6

> <PUBCHEM_CONFORMER_DIVERSEORDER>
1
2

> <PUBCHEM_MMFF94_PARTIAL_CHARGES>
17
1 -0.36
13 0.08
14 -0.15
15 0.13
16 -0.14
17 0.13
18 0.14
19 0.28
2 -0.52
29 0.15
3 -0.52
4 -0.52
5 -0.52
6 0.91
7 0.91
8 0.14
9 -0.14

> <PUBCHEM_EFFECTIVE_ROTOR_COUNT>
4

> <PUBCHEM_PHARMACOPHORE_FEATURES>
9
1 1 acceptor
1 2 acceptor
1 2 anion
1 3 acceptor
1 4 acceptor
1 4 anion
1 5 acceptor
4 8 10 11 12 hydrophobe
6 9 13 14 15 16 17 rings

> <PUBCHEM_HEAVY_ATOM_COUNT>
19

> <PUBCHEM_ATOM_DEF_STEREO_COUNT>
0

> <PUBCHEM_ATOM_UDEF_STEREO_COUNT>
0

> <PUBCHEM_BOND_DEF_STEREO_COUNT>
0

> <PUBCHEM_BOND_UDEF_STEREO_COUNT>
0

> <PUBCHEM_ISOTOPIC_ATOM_COUNT>
0

> <PUBCHEM_COMPONENT_COUNT>
1

> <PUBCHEM_CACTVS_TAUTO_COUNT>
1

> <PUBCHEM_CONFORMER_ID>
00001A6100000001

> <PUBCHEM_MMFF94_ENERGY>
129.666

> <PUBCHEM_FEATURE_SELFOVERLAP>
45.86

> <PUBCHEM_SHAPE_FINGERPRINT>
10608611 8 18340770450243841877
10967382 1 18266461099362753756
11680986 33 18339076106972680811
12553582 1 17616246326712636990
12730499 353 17338442620235019693
13140716 1 18410571816409374832
13380535 21 18339347643468882468
13380535 76 18340778112433582985
13897977 150 18411420643533298285
14614273 12 18342745096076385789
14648413 74 18339923843348783458
14790565 3 17764286372458869629
15042514 8 17763182437009042938
15309172 13 18410849932695578321
15490181 8 18339653355156917681
16945 1 18194680590686691373
18186145 218 18261389005069275900
18219364 16 18340482395345773673
193761 8 18410856589736514511
19591789 44 18338505370596953710
19868273 325 17402615143214768518
20510252 161 18118401739566017760
20588541 1 18124873722831498526
20645477 70 18197790001571250093
21041028 32 17185019008913002625
21160774 45 18051134692204985247
21501502 16 18410013242821788993
21524375 3 18341897385311454424
2334 1 18338797814682631548
23402539 116 17974296425619663646
23419403 2 15257206204800022057
23557571 272 17326597117237623356
23559900 14 18338247049699161072
238 59 17767160783210049277
2748010 2 18411976931939553156
31174 14 18051950800743074945
350125 39 18338224994820498160
352729 6 18338240336564953204
589210 1 18411417332224347827
7364860 26 18193278709150692820
7832392 63 17615133616956192109
81228 2 17834391220543500200

> <PUBCHEM_SHAPE_MULTIPOLES>
351.7
5
3.76
0.84
0.09
1.02
0.13
-1.96
0.12
-1.37
-0.01
0.71
-0.06
0.5

> <PUBCHEM_SHAPE_SELFOVERLAP>
746.241

> <PUBCHEM_SHAPE_VOLUME>
198.3

> <PUBCHEM_COORDINATE_TYPE>
2
5
10

$$$$

