23724535
  -OEChem-07051213073D

 63 65  0     1  0  0  0  0  0999 V2000
   -1.1771   -0.5803    1.7493 O   0  0  0  0  0  0  0  0  0  0  0  0
    8.8552   -0.8875    0.9263 O   0  0  0  0  0  0  0  0  0  0  0  0
   -4.8620   -1.1028   -0.6241 O   0  0  0  0  0  0  0  0  0  0  0  0
   -1.6954    0.4777   -2.6022 O   0  0  0  0  0  0  0  0  0  0  0  0
    6.5009   -1.2818   -0.6183 O   0  0  0  0  0  0  0  0  0  0  0  0
   -2.6486    2.3260    1.4554 O   0  0  0  0  0  0  0  0  0  0  0  0
   -2.0117   -1.9045    0.0563 N   0  0  0  0  0  0  0  0  0  0  0  0
   -0.6261    0.9288   -0.5975 N   0  0  0  0  0  0  0  0  0  0  0  0
   -4.2089   -0.1290    1.3763 N   0  0  0  0  0  0  0  0  0  0  0  0
   -3.4618    2.1151   -0.7169 N   0  0  0  0  0  0  0  0  0  0  0  0
   -3.2416   -2.2681    0.7618 C   0  0  2  0  0  0  0  0  0  0  0  0
   -3.6333   -3.6150    0.1637 C   0  0  0  0  0  0  0  0  0  0  0  0
   -1.8211   -2.7242   -1.1371 C   0  0  0  0  0  0  0  0  0  0  0  0
   -3.0819   -3.5675   -1.2578 C   0  0  0  0  0  0  0  0  0  0  0  0
   -0.0773   -0.4078   -0.3749 C   0  0  2  0  0  0  0  0  0  0  0  0
   -1.0986   -1.0047    0.5915 C   0  0  0  0  0  0  0  0  0  0  0  0
    1.3029   -0.3293    0.2579 C   0  0  0  0  0  0  0  0  0  0  0  0
   -4.2293   -1.1460    0.4291 C   0  0  0  0  0  0  0  0  0  0  0  0
    2.3355    0.2325   -0.7191 C   0  0  0  0  0  0  0  0  0  0  0  0
    3.7160    0.3411   -0.0683 C   0  0  0  0  0  0  0  0  0  0  0  0
    4.7403    0.9404   -1.0364 C   0  0  0  0  0  0  0  0  0  0  0  0
   -4.7536    1.1999    1.1212 C   0  0  2  0  0  0  0  0  0  0  0  0
    6.1227    1.0891   -0.4074 C   0  0  0  0  0  0  0  0  0  0  0  0
    7.6131   -0.2408    1.1834 C   0  0  2  0  0  0  0  0  0  0  0  0
   -1.4721    1.2300   -1.6526 C   0  0  0  0  0  0  0  0  0  0  0  0
   -2.2795    2.5134   -1.4776 C   0  0  2  0  0  0  0  0  0  0  0  0
    6.7169   -0.2410   -0.0083 C   0  0  0  0  0  0  0  0  0  0  0  0
    8.8861    0.5299    1.1375 C   0  0  0  0  0  0  0  0  0  0  0  0
   -3.5252    1.9818    0.6647 C   0  0  0  0  0  0  0  0  0  0  0  0
   -5.3552    1.7941    2.3837 C   0  0  0  0  0  0  0  0  0  0  0  0
   -1.5292    3.7307   -0.9599 C   0  0  0  0  0  0  0  0  0  0  0  0
   -3.0763   -2.3309    1.8422 H   0  0  0  0  0  0  0  0  0  0  0  0
   -3.1326   -4.4207    0.7146 H   0  0  0  0  0  0  0  0  0  0  0  0
   -4.7104   -3.8056    0.1850 H   0  0  0  0  0  0  0  0  0  0  0  0
   -1.6732   -2.1037   -2.0233 H   0  0  0  0  0  0  0  0  0  0  0  0
   -0.9309   -3.3429   -0.9821 H   0  0  0  0  0  0  0  0  0  0  0  0
   -3.7990   -3.0772   -1.9259 H   0  0  0  0  0  0  0  0  0  0  0  0
   -2.8801   -4.5622   -1.6658 H   0  0  0  0  0  0  0  0  0  0  0  0
   -0.0298   -0.9468   -1.3217 H   0  0  0  0  0  0  0  0  0  0  0  0
    1.2801    0.2941    1.1614 H   0  0  0  0  0  0  0  0  0  0  0  0
    1.6133   -1.3318    0.5787 H   0  0  0  0  0  0  0  0  0  0  0  0
    2.0239    1.2253   -1.0651 H   0  0  0  0  0  0  0  0  0  0  0  0
    2.3962   -0.4135   -1.6035 H   0  0  0  0  0  0  0  0  0  0  0  0
    3.6510    0.9716    0.8269 H   0  0  0  0  0  0  0  0  0  0  0  0
    4.0340   -0.6542    0.2617 H   0  0  0  0  0  0  0  0  0  0  0  0
   -0.5329    1.5925    0.1644 H   0  0  0  0  0  0  0  0  0  0  0  0
    4.3968    1.9291   -1.3640 H   0  0  0  0  0  0  0  0  0  0  0  0
    4.8051    0.3129   -1.9340 H   0  0  0  0  0  0  0  0  0  0  0  0
   -3.6397   -0.2480    2.2097 H   0  0  0  0  0  0  0  0  0  0  0  0
   -5.5085    1.1490    0.3303 H   0  0  0  0  0  0  0  0  0  0  0  0
    6.8084    1.5613   -1.1192 H   0  0  0  0  0  0  0  0  0  0  0  0
    6.0575    1.7334    0.4766 H   0  0  0  0  0  0  0  0  0  0  0  0
    7.1446   -0.4228    2.1418 H   0  0  0  0  0  0  0  0  0  0  0  0
   -2.6539    2.7746   -2.4761 H   0  0  0  0  0  0  0  0  0  0  0  0
    9.0979    1.1568    0.2812 H   0  0  0  0  0  0  0  0  0  0  0  0
    9.3022    0.8860    2.0712 H   0  0  0  0  0  0  0  0  0  0  0  0
   -4.2526    1.7896   -1.2651 H   0  0  0  0  0  0  0  0  0  0  0  0
   -4.6281    1.8341    3.2028 H   0  0  0  0  0  0  0  0  0  0  0  0
   -6.2039    1.1931    2.7269 H   0  0  0  0  0  0  0  0  0  0  0  0
   -5.7064    2.8150    2.2011 H   0  0  0  0  0  0  0  0  0  0  0  0
   -0.6985    3.9759   -1.6305 H   0  0  0  0  0  0  0  0  0  0  0  0
   -2.1960    4.5984   -0.9115 H   0  0  0  0  0  0  0  0  0  0  0  0
   -1.1032    3.5931    0.0367 H   0  0  0  0  0  0  0  0  0  0  0  0
  1 16  2  0  0  0  0
  2 24  1  0  0  0  0
  2 28  1  0  0  0  0
  3 18  2  0  0  0  0
  4 25  2  0  0  0  0
  5 27  2  0  0  0  0
  6 29  2  0  0  0  0
  7 11  1  0  0  0  0
  7 13  1  0  0  0  0
  7 16  1  0  0  0  0
  8 15  1  0  0  0  0
  8 25  1  0  0  0  0
  8 46  1  0  0  0  0
  9 18  1  0  0  0  0
  9 22  1  0  0  0  0
  9 49  1  0  0  0  0
 10 26  1  0  0  0  0
 10 29  1  0  0  0  0
 10 57  1  0  0  0  0
 11 12  1  0  0  0  0
 11 18  1  0  0  0  0
 11 32  1  0  0  0  0
 12 14  1  0  0  0  0
 12 33  1  0  0  0  0
 12 34  1  0  0  0  0
 13 14  1  0  0  0  0
 13 35  1  0  0  0  0
 13 36  1  0  0  0  0
 14 37  1  0  0  0  0
 14 38  1  0  0  0  0
 15 16  1  0  0  0  0
 15 17  1  0  0  0  0
 15 39  1  0  0  0  0
 17 19  1  0  0  0  0
 17 40  1  0  0  0  0
 17 41  1  0  0  0  0
 19 20  1  0  0  0  0
 19 42  1  0  0  0  0
 19 43  1  0  0  0  0
 20 21  1  0  0  0  0
 20 44  1  0  0  0  0
 20 45  1  0  0  0  0
 21 23  1  0  0  0  0
 21 47  1  0  0  0  0
 21 48  1  0  0  0  0
 22 29  1  0  0  0  0
 22 30  1  0  0  0  0
 22 50  1  0  0  0  0
 23 27  1  0  0  0  0
 23 51  1  0  0  0  0
 23 52  1  0  0  0  0
 24 27  1  0  0  0  0
 24 28  1  0  0  0  0
 24 53  1  0  0  0  0
 25 26  1  0  0  0  0
 26 31  1  0  0  0  0
 26 54  1  0  0  0  0
 28 55  1  0  0  0  0
 28 56  1  0  0  0  0
 30 58  1  0  0  0  0
 30 59  1  0  0  0  0
 30 60  1  0  0  0  0
 31 61  1  0  0  0  0
 31 62  1  0  0  0  0
 31 63  1  0  0  0  0
M  END
> <PUBCHEM_COMPOUND_CID>
23724535

> <PUBCHEM_CONFORMER_RMSD>
1.2

> <PUBCHEM_CONFORMER_DIVERSEORDER>
1
52
72
202
184
193
75
110
157
66
69
60
63
64
83
147
179
225
201
99
148
143
155
12
194
215
145
158
152
54
42
134
176
200
76
84
140
122
3
111
80
133
136
156
20
177
112
180
78
165
161
181
169
57
70
159
53
211
209
217
103
49
125
208
8
22
204
40
2
93
21
186
77
33
175
160
87
95
210
121
170
94
45
146
108
226
92
139
171
137
135
168
11
213
65
10
218
97
44
34
127
14
227
192
88
13
162
178
55
117
115
30
212
206
164
79
219
36
163
129
120
114
102
174
183
221
100
73
189
48
167
124
29
16
96
195
126
149
105
141
172
68
222
123
224
205
59
131
150
90
38
128
130
35
51
142
153
9
199
37
85
24
89
86
32
182
62
228
116
173
188
91
118
190
18
138
82
198
107
56
207
6
220
28
113
185
151
43
144
46
15
203
58
81
104
5
39
197
98
47
214
61
216
196
166
27
4
106
41
191
50
101
7
74
67
109
23
19
71
132
154
26
31
119
25
223
187
17

> <PUBCHEM_MMFF94_PARTIAL_CHARGES>
29
1 -0.57
10 -0.73
11 0.36
13 0.3
15 0.36
16 0.57
18 0.57
2 -0.3
22 0.36
23 0.06
24 0.05
25 0.57
26 0.36
27 0.51
28 -0.05
29 0.57
3 -0.57
4 -0.57
46 0.37
49 0.37
5 -0.57
53 0.1
55 0.1
56 0.1
57 0.37
6 -0.57
7 -0.66
8 -0.73
9 -0.73

> <PUBCHEM_EFFECTIVE_ROTOR_COUNT>
9.4

> <PUBCHEM_PHARMACOPHORE_FEATURES>
11
1 1 acceptor
1 10 donor
1 2 acceptor
1 3 acceptor
1 4 acceptor
1 5 acceptor
1 6 acceptor
1 8 donor
1 9 donor
5 17 19 20 21 23 hydrophobe
5 7 11 12 13 14 rings

> <PUBCHEM_HEAVY_ATOM_COUNT>
31

> <PUBCHEM_ATOM_DEF_STEREO_COUNT>
4

> <PUBCHEM_ATOM_UDEF_STEREO_COUNT>
1

> <PUBCHEM_BOND_DEF_STEREO_COUNT>
0

> <PUBCHEM_BOND_UDEF_STEREO_COUNT>
0

> <PUBCHEM_ISOTOPIC_ATOM_COUNT>
0

> <PUBCHEM_COMPONENT_COUNT>
1

> <PUBCHEM_CACTVS_TAUTO_COUNT>
24

> <PUBCHEM_CONFORMER_ID>
016A01F700000001

> <PUBCHEM_MMFF94_ENERGY>
74.8267

> <PUBCHEM_FEATURE_SELFOVERLAP>
55.822

> <PUBCHEM_SHAPE_FINGERPRINT>
10165383 225 18187921837741516833
14068700 675 17970915458326329103
14347332 77 18271812285617651022
14856354 85 18412261701510082214
15021287 119 17632855318024171596
15131766 46 14977101434267996247
15183329 4 16774083973606360874
21202864 24 18410845577978288413
21236236 1 18411980251991464502
21756936 100 18041000686642220097
23081809 10 18129937880964722230
23522609 53 17985236665834227140
255183 313 18337940264580285155
3504750 166 18411144615235080374
397830 11 18188501168958752160
484985 159 18271816687574391239
5080951 261 18336559247752947582
5104073 3 18337114471867603936
9953998 17 18409448098467471696

> <PUBCHEM_SHAPE_MULTIPOLES>
582.83
19.27
3.68
1.78
62.41
0.84
-0.02
1.29
-8.8
-7.3
1
-1.6
-0.71
-1.31

> <PUBCHEM_SHAPE_SELFOVERLAP>
1191.627

> <PUBCHEM_SHAPE_VOLUME>
334.8

> <PUBCHEM_COORDINATE_TYPE>
2
5
10

$$$$

