6271
  -OEChem-07051213032D

 21 21  0     0  0  0  0  0  0999 V2000
    2.0000    1.9050    0.0000 O   0  0  0  0  0  0  0  0  0  0  0  0
    2.8660   -2.5950    0.0000 O   0  0  0  0  0  0  0  0  0  0  0  0
    2.8660    0.4050    0.0000 C   0  0  0  0  0  0  0  0  0  0  0  0
    3.7320    1.9050    0.0000 C   0  0  0  0  0  0  0  0  0  0  0  0
    2.8660    1.4050    0.0000 C   0  0  0  0  0  0  0  0  0  0  0  0
    2.0000   -0.0950    0.0000 C   0  0  0  0  0  0  0  0  0  0  0  0
    3.7320   -0.0950    0.0000 C   0  0  0  0  0  0  0  0  0  0  0  0
    3.7320    2.9050    0.0000 C   0  0  0  0  0  0  0  0  0  0  0  0
    2.0000   -1.0950    0.0000 C   0  0  0  0  0  0  0  0  0  0  0  0
    3.7320   -1.0950    0.0000 C   0  0  0  0  0  0  0  0  0  0  0  0
    2.8660   -1.5950    0.0000 C   0  0  0  0  0  0  0  0  0  0  0  0
    3.9441    1.3224    0.0000 H   0  0  0  0  0  0  0  0  0  0  0  0
    4.3426    2.0127    0.0000 H   0  0  0  0  0  0  0  0  0  0  0  0
    1.4631    0.2150    0.0000 H   0  0  0  0  0  0  0  0  0  0  0  0
    4.2690    0.2150    0.0000 H   0  0  0  0  0  0  0  0  0  0  0  0
    4.3520    2.9050    0.0000 H   0  0  0  0  0  0  0  0  0  0  0  0
    3.7320    3.5250    0.0000 H   0  0  0  0  0  0  0  0  0  0  0  0
    3.1120    2.9050    0.0000 H   0  0  0  0  0  0  0  0  0  0  0  0
    1.4631   -1.4050    0.0000 H   0  0  0  0  0  0  0  0  0  0  0  0
    4.2690   -1.4050    0.0000 H   0  0  0  0  0  0  0  0  0  0  0  0
    2.3291   -2.9050    0.0000 H   0  0  0  0  0  0  0  0  0  0  0  0
  1  5  2  0  0  0  0
  2 11  1  0  0  0  0
  2 21  1  0  0  0  0
  3  5  1  0  0  0  0
  3  6  2  0  0  0  0
  3  7  1  0  0  0  0
  4  5  1  0  0  0  0
  4  8  1  0  0  0  0
  4 12  1  0  0  0  0
  4 13  1  0  0  0  0
  6  9  1  0  0  0  0
  6 14  1  0  0  0  0
  7 10  2  0  0  0  0
  7 15  1  0  0  0  0
  8 16  1  0  0  0  0
  8 17  1  0  0  0  0
  8 18  1  0  0  0  0
  9 11  2  0  0  0  0
  9 19  1  0  0  0  0
 10 11  1  0  0  0  0
 10 20  1  0  0  0  0
M  END
> <PUBCHEM_COMPOUND_CID>
6271

> <PUBCHEM_COMPOUND_CANONICALIZED>
1

> <PUBCHEM_CACTVS_COMPLEXITY>
135

> <PUBCHEM_CACTVS_HBOND_ACCEPTOR>
2

> <PUBCHEM_CACTVS_HBOND_DONOR>
1

> <PUBCHEM_CACTVS_ROTATABLE_BOND>
2

> <PUBCHEM_CACTVS_SUBSKEYS>
AAADccBwMAAAAAAAAAAAAAAAAAAAAAAAAAAwAAAAAAAAAAABAAAAGgAACAAADASAmAAyBoAAAgCIAqBSAAACAAAkIAAIiAEGCMgIJjKCFRKAcQAkwBEImYeIzKDOIAAAAAAAAABAAAAAAAAAAAAAAAAAAA==

> <PUBCHEM_IUPAC_OPENEYE_NAME>
1-(4-hydroxyphenyl)propan-1-one

> <PUBCHEM_IUPAC_CAS_NAME>
1-(4-hydroxyphenyl)-1-propanone

> <PUBCHEM_IUPAC_NAME>
1-(4-hydroxyphenyl)propan-1-one

> <PUBCHEM_IUPAC_SYSTEMATIC_NAME>
1-(4-hydroxyphenyl)propan-1-one

> <PUBCHEM_IUPAC_TRADITIONAL_NAME>
1-(4-hydroxyphenyl)propan-1-one

> <PUBCHEM_IUPAC_INCHI>
InChI=1S/C9H10O2/c1-2-9(11)7-3-5-8(10)6-4-7/h3-6,10H,2H2,1H3

> <PUBCHEM_IUPAC_INCHIKEY>
RARSHUDCJQSEFJ-UHFFFAOYSA-N

> <PUBCHEM_XLOGP3>
2

> <PUBCHEM_EXACT_MASS>
150.06808

> <PUBCHEM_MOLECULAR_FORMULA>
C9H10O2

> <PUBCHEM_MOLECULAR_WEIGHT>
150.1745

> <PUBCHEM_OPENEYE_CAN_SMILES>
CCC(=O)C1=CC=C(C=C1)O

> <PUBCHEM_OPENEYE_ISO_SMILES>
CCC(=O)C1=CC=C(C=C1)O

> <PUBCHEM_CACTVS_TPSA>
37.3

> <PUBCHEM_MONOISOTOPIC_WEIGHT>
150.06808

> <PUBCHEM_TOTAL_CHARGE>
0

> <PUBCHEM_HEAVY_ATOM_COUNT>
11

> <PUBCHEM_ATOM_DEF_STEREO_COUNT>
0

> <PUBCHEM_ATOM_UDEF_STEREO_COUNT>
0

> <PUBCHEM_BOND_DEF_STEREO_COUNT>
0

> <PUBCHEM_BOND_UDEF_STEREO_COUNT>
0

> <PUBCHEM_ISOTOPIC_ATOM_COUNT>
0

> <PUBCHEM_COMPONENT_COUNT>
1

> <PUBCHEM_CACTVS_TAUTO_COUNT>
7

> <PUBCHEM_COORDINATE_TYPE>
1
5
255

> <PUBCHEM_BONDANNOTATIONS>
10  11  8
3  6  8
3  7  8
6  9  8
7  10  8
9  11  8

$$$$

