442369
  -OEChem-07051212573D

 79 86  0     1  0  0  0  0  0999 V2000
    1.3350    0.4819    0.4400 O   0  0  0  0  0  0  0  0  0  0  0  0
    2.8819    2.8147   -0.0256 O   0  0  0  0  0  0  0  0  0  0  0  0
    5.5970    2.5969   -0.1844 O   0  0  0  0  0  0  0  0  0  0  0  0
   -3.4704   -4.4147   -0.5364 O   0  0  0  0  0  0  0  0  0  0  0  0
   -4.7693   -2.9204    1.2999 O   0  0  0  0  0  0  0  0  0  0  0  0
    3.1346   -3.3216   -0.5832 N   0  0  2  0  0  0  0  0  0  0  0  0
   -3.3218    4.4058    0.2125 N   0  0  1  0  0  0  0  0  0  0  0  0
    2.4074   -2.1299   -0.0775 C   0  0  2  0  0  0  0  0  0  0  0  0
   -2.8278    3.0102    0.1838 C   0  0  2  0  0  0  0  0  0  0  0  0
    3.2722   -0.8746    0.0789 C   0  0  0  0  0  0  0  0  0  0  0  0
   -1.2951    2.9869    0.1544 C   0  0  0  0  0  0  0  0  0  0  0  0
    4.6739   -0.9516   -0.0343 C   0  0  0  0  0  0  0  0  0  0  0  0
    4.4471   -3.4661    0.0543 C   0  0  0  0  0  0  0  0  0  0  0  0
    5.3722   -2.2766   -0.1948 C   0  0  0  0  0  0  0  0  0  0  0  0
    1.6167   -2.5426    1.1948 C   0  0  0  0  0  0  0  0  0  0  0  0
   -0.5497    4.1084   -0.2549 C   0  0  0  0  0  0  0  0  0  0  0  0
   -2.7475    5.2152   -0.8614 C   0  0  0  0  0  0  0  0  0  0  0  0
   -1.2475    5.3961   -0.6085 C   0  0  0  0  0  0  0  0  0  0  0  0
    2.6835    0.4024    0.1937 C   0  0  0  0  0  0  0  0  0  0  0  0
   -3.4141    2.1152   -0.9646 C   0  0  0  0  0  0  0  0  0  0  0  0
   -0.6083    1.8166    0.4877 C   0  0  0  0  0  0  0  0  0  0  0  0
    3.4496    1.5634    0.0555 C   0  0  0  0  0  0  0  0  0  0  0  0
    0.7700    1.7234    0.3262 C   0  0  0  0  0  0  0  0  0  0  0  0
    1.5111    2.8487    0.0072 C   0  0  0  0  0  0  0  0  0  0  0  0
    0.8567    4.0470   -0.2776 C   0  0  0  0  0  0  0  0  0  0  0  0
    5.4420    0.2244   -0.0866 C   0  0  0  0  0  0  0  0  0  0  0  0
    0.2470   -3.0803    0.8224 C   0  0  0  0  0  0  0  0  0  0  0  0
    3.2156   -3.3498   -2.0432 C   0  0  0  0  0  0  0  0  0  0  0  0
    4.8317    1.4772   -0.0659 C   0  0  0  0  0  0  0  0  0  0  0  0
   -3.8124    0.7290   -0.4859 C   0  0  0  0  0  0  0  0  0  0  0  0
   -4.7715    4.5305    0.2870 C   0  0  0  0  0  0  0  0  0  0  0  0
   -0.8254   -2.1878    0.6871 C   0  0  0  0  0  0  0  0  0  0  0  0
   -2.9068   -0.3414   -0.5423 C   0  0  0  0  0  0  0  0  0  0  0  0
   -2.0971   -2.5849    0.2294 C   0  0  0  0  0  0  0  0  0  0  0  0
   -3.1690   -1.5783    0.0834 C   0  0  0  0  0  0  0  0  0  0  0  0
    0.0314   -4.4257    0.5249 C   0  0  0  0  0  0  0  0  0  0  0  0
   -5.0630    0.5123    0.1004 C   0  0  0  0  0  0  0  0  0  0  0  0
   -2.2832   -3.9432   -0.0523 C   0  0  0  0  0  0  0  0  0  0  0  0
   -1.2293   -4.8539    0.0984 C   0  0  0  0  0  0  0  0  0  0  0  0
   -4.4384   -1.7665    0.6468 C   0  0  0  0  0  0  0  0  0  0  0  0
   -5.3818   -0.7348    0.6402 C   0  0  0  0  0  0  0  0  0  0  0  0
    6.0762    3.1860    1.0232 C   0  0  0  0  0  0  0  0  0  0  0  0
   -3.6234   -4.4474   -1.9529 C   0  0  0  0  0  0  0  0  0  0  0  0
    1.6683   -1.8584   -0.8466 H   0  0  0  0  0  0  0  0  0  0  0  0
   -3.1137    2.5829    1.1556 H   0  0  0  0  0  0  0  0  0  0  0  0
    4.9338   -4.3899   -0.2825 H   0  0  0  0  0  0  0  0  0  0  0  0
    4.3103   -3.5943    1.1357 H   0  0  0  0  0  0  0  0  0  0  0  0
    5.7812   -2.3323   -1.2112 H   0  0  0  0  0  0  0  0  0  0  0  0
    6.2159   -2.3328    0.5037 H   0  0  0  0  0  0  0  0  0  0  0  0
    1.4860   -1.6934    1.8772 H   0  0  0  0  0  0  0  0  0  0  0  0
    2.1515   -3.2925    1.7909 H   0  0  0  0  0  0  0  0  0  0  0  0
   -3.2056    6.2116   -0.8898 H   0  0  0  0  0  0  0  0  0  0  0  0
   -2.9230    4.7547   -1.8421 H   0  0  0  0  0  0  0  0  0  0  0  0
   -1.0999    6.1002    0.2205 H   0  0  0  0  0  0  0  0  0  0  0  0
   -0.7889    5.8330   -1.5036 H   0  0  0  0  0  0  0  0  0  0  0  0
   -2.7049    2.0289   -1.7989 H   0  0  0  0  0  0  0  0  0  0  0  0
   -4.3096    2.5599   -1.4113 H   0  0  0  0  0  0  0  0  0  0  0  0
   -1.1571    0.9582    0.8500 H   0  0  0  0  0  0  0  0  0  0  0  0
    1.4343    4.9288   -0.5444 H   0  0  0  0  0  0  0  0  0  0  0  0
    6.5229    0.1572   -0.1928 H   0  0  0  0  0  0  0  0  0  0  0  0
    3.7180   -2.4727   -2.4642 H   0  0  0  0  0  0  0  0  0  0  0  0
    2.2104   -3.4039   -2.4763 H   0  0  0  0  0  0  0  0  0  0  0  0
    3.7455   -4.2468   -2.3825 H   0  0  0  0  0  0  0  0  0  0  0  0
   -5.0438    5.5578    0.5549 H   0  0  0  0  0  0  0  0  0  0  0  0
   -5.1799    3.8873    1.0740 H   0  0  0  0  0  0  0  0  0  0  0  0
   -5.2745    4.2934   -0.6554 H   0  0  0  0  0  0  0  0  0  0  0  0
   -0.6543   -1.1484    0.9455 H   0  0  0  0  0  0  0  0  0  0  0  0
   -1.9434   -0.1849   -1.0257 H   0  0  0  0  0  0  0  0  0  0  0  0
    0.8400   -5.1467    0.6081 H   0  0  0  0  0  0  0  0  0  0  0  0
   -5.7911    1.3174    0.1571 H   0  0  0  0  0  0  0  0  0  0  0  0
   -1.3799   -5.9049   -0.1369 H   0  0  0  0  0  0  0  0  0  0  0  0
   -6.3586   -0.8736    1.0973 H   0  0  0  0  0  0  0  0  0  0  0  0
    6.6634    4.0710    0.7632 H   0  0  0  0  0  0  0  0  0  0  0  0
    6.7202    2.4841    1.5625 H   0  0  0  0  0  0  0  0  0  0  0  0
    5.2406    3.4946    1.6593 H   0  0  0  0  0  0  0  0  0  0  0  0
   -5.6808   -2.8532    1.6322 H   0  0  0  0  0  0  0  0  0  0  0  0
   -3.4936   -3.4492   -2.3828 H   0  0  0  0  0  0  0  0  0  0  0  0
   -4.6348   -4.7954   -2.1797 H   0  0  0  0  0  0  0  0  0  0  0  0
   -2.9064   -5.1436   -2.3992 H   0  0  0  0  0  0  0  0  0  0  0  0
  1 19  1  0  0  0  0
  1 23  1  0  0  0  0
  2 22  1  0  0  0  0
  2 24  1  0  0  0  0
  3 29  1  0  0  0  0
  3 42  1  0  0  0  0
  4 38  1  0  0  0  0
  4 43  1  0  0  0  0
  5 40  1  0  0  0  0
  5 76  1  0  0  0  0
  6  8  1  0  0  0  0
  6 13  1  0  0  0  0
  6 28  1  0  0  0  0
  7  9  1  0  0  0  0
  7 17  1  0  0  0  0
  7 31  1  0  0  0  0
  8 10  1  0  0  0  0
  8 15  1  0  0  0  0
  8 44  1  0  0  0  0
  9 11  1  0  0  0  0
  9 20  1  0  0  0  0
  9 45  1  0  0  0  0
 10 12  1  0  0  0  0
 10 19  2  0  0  0  0
 11 16  1  0  0  0  0
 11 21  2  0  0  0  0
 12 14  1  0  0  0  0
 12 26  2  0  0  0  0
 13 14  1  0  0  0  0
 13 46  1  0  0  0  0
 13 47  1  0  0  0  0
 14 48  1  0  0  0  0
 14 49  1  0  0  0  0
 15 27  1  0  0  0  0
 15 50  1  0  0  0  0
 15 51  1  0  0  0  0
 16 18  1  0  0  0  0
 16 25  2  0  0  0  0
 17 18  1  0  0  0  0
 17 52  1  0  0  0  0
 17 53  1  0  0  0  0
 18 54  1  0  0  0  0
 18 55  1  0  0  0  0
 19 22  1  0  0  0  0
 20 30  1  0  0  0  0
 20 56  1  0  0  0  0
 20 57  1  0  0  0  0
 21 23  1  0  0  0  0
 21 58  1  0  0  0  0
 22 29  2  0  0  0  0
 23 24  2  0  0  0  0
 24 25  1  0  0  0  0
 25 59  1  0  0  0  0
 26 29  1  0  0  0  0
 26 60  1  0  0  0  0
 27 32  2  0  0  0  0
 27 36  1  0  0  0  0
 28 61  1  0  0  0  0
 28 62  1  0  0  0  0
 28 63  1  0  0  0  0
 30 33  2  0  0  0  0
 30 37  1  0  0  0  0
 31 64  1  0  0  0  0
 31 65  1  0  0  0  0
 31 66  1  0  0  0  0
 32 34  1  0  0  0  0
 32 67  1  0  0  0  0
 33 35  1  0  0  0  0
 33 68  1  0  0  0  0
 34 35  1  0  0  0  0
 34 38  2  0  0  0  0
 35 40  2  0  0  0  0
 36 39  2  0  0  0  0
 36 69  1  0  0  0  0
 37 41  2  0  0  0  0
 37 70  1  0  0  0  0
 38 39  1  0  0  0  0
 39 71  1  0  0  0  0
 40 41  1  0  0  0  0
 41 72  1  0  0  0  0
 42 73  1  0  0  0  0
 42 74  1  0  0  0  0
 42 75  1  0  0  0  0
 43 77  1  0  0  0  0
 43 78  1  0  0  0  0
 43 79  1  0  0  0  0
M  END
> <PUBCHEM_COMPOUND_CID>
442369

> <PUBCHEM_CONFORMER_RMSD>
0.8

> <PUBCHEM_CONFORMER_DIVERSEORDER>
1
3
4
6
2
5

> <PUBCHEM_MMFF94_PARTIAL_CHARGES>
51
1 -0.17
10 -0.14
11 -0.14
12 -0.14
13 0.27
14 0.14
15 0.14
16 -0.14
17 0.27
18 0.14
19 0.08
2 -0.17
20 0.14
21 -0.15
22 0.08
23 0.08
24 0.08
25 -0.15
26 -0.15
27 -0.14
28 0.27
29 0.08
3 -0.36
30 -0.14
31 0.27
32 -0.15
33 -0.15
36 -0.15
37 -0.15
38 0.08
39 -0.15
4 -0.36
40 0.08
41 -0.15
42 0.28
43 0.28
5 -0.53
58 0.15
59 0.15
6 -0.81
60 0.15
67 0.15
68 0.15
69 0.15
7 -0.81
70 0.15
71 0.15
72 0.15
76 0.45
8 0.41
9 0.41

> <PUBCHEM_EFFECTIVE_ROTOR_COUNT>
4

> <PUBCHEM_PHARMACOPHORE_FEATURES>
14
1 1 acceptor
1 2 acceptor
1 3 acceptor
1 4 acceptor
1 5 donor
1 6 cation
1 7 cation
6 1 2 19 22 23 24 rings
6 10 12 19 22 26 29 rings
6 11 16 21 23 24 25 rings
6 27 32 34 36 38 39 rings
6 30 33 35 37 40 41 rings
6 6 8 10 12 13 14 rings
6 7 9 11 16 17 18 rings

> <PUBCHEM_HEAVY_ATOM_COUNT>
43

> <PUBCHEM_ATOM_DEF_STEREO_COUNT>
2

> <PUBCHEM_ATOM_UDEF_STEREO_COUNT>
0

> <PUBCHEM_BOND_DEF_STEREO_COUNT>
0

> <PUBCHEM_BOND_UDEF_STEREO_COUNT>
0

> <PUBCHEM_ISOTOPIC_ATOM_COUNT>
0

> <PUBCHEM_COMPONENT_COUNT>
1

> <PUBCHEM_CACTVS_TAUTO_COUNT>
3

> <PUBCHEM_CONFORMER_ID>
0006C00100000001

> <PUBCHEM_MMFF94_ENERGY>
180.084

> <PUBCHEM_FEATURE_SELFOVERLAP>
71.167

> <PUBCHEM_SHAPE_FINGERPRINT>
10439779 11 18048604716255694514
10462674 296 17685501944411726758
10864689 126 17689432007439229278
11513181 2 18260269676293676383
12677640 9 18120930600285398955
1361 2 17331119910614786793
140371 6 18269267959370428808
14068700 686 18408887300588662112
14394314 77 18338792308951595121
144659 178 18125716786315494540
14790565 3 18266739275714910401
15001296 14 18198624530353484592
15200665 1 18265337381252325345
15274700 232 17545314646311661078
15297060 5 17756712201346690035
15320467 1 18267302023805031097
15351339 4 18340495580857981873
15400415 2 18267025153187307844
15483637 11 18340203102153991889
15721738 15 15823836898129259756
16067689 302 18409166585801692287
16112460 7 18117265072503394033
17627616 140 17187561084265493663
19311894 1 18267024955507354147
20764821 26 17980475659645960813
21133410 171 17548476596164172395
21133410 38 18188483696794571153
22311459 1 18338798897031039440
23559900 14 17257942489890708395
24771293 8 17684369460947539456
3380486 145 18197200469463503257
3388396 114 18120392972420133151
3882209 13 17833030132428056847
463206 1 18053660278951271249
50150288 127 16589976364393141633
50677037 204 18336832966087137187
5776283 40 18122326137764123118
653340 110 18410862040519609344

> <PUBCHEM_SHAPE_MULTIPOLES>
845.61
12.03
9.42
1.04
6.64
1.2
-0.29
2.31
0.13
-6
-1.28
-0.16
-0.81
1.09

> <PUBCHEM_SHAPE_SELFOVERLAP>
1897.004

> <PUBCHEM_SHAPE_VOLUME>
444.4

> <PUBCHEM_COORDINATE_TYPE>
2
5
10

$$$$

