242486
  -OEChem-07051213063D

 45 47  0     1  0  0  0  0  0999 V2000
   -0.5346   -0.6831   -0.0032 O   0  0  0  0  0  0  0  0  0  0  0  0
    3.4933    2.0229   -0.0379 O   0  0  0  0  0  0  0  0  0  0  0  0
    1.1269    3.0617   -0.2150 O   0  0  0  0  0  0  0  0  0  0  0  0
    4.9737   -0.2621    0.0944 O   0  0  0  0  0  0  0  0  0  0  0  0
    3.7321   -2.7314    0.1424 O   0  0  0  0  0  0  0  0  0  0  0  0
   -6.8007   -0.5656    0.0985 O   0  0  0  0  0  0  0  0  0  0  0  0
   -1.2447    0.4636    0.4901 C   0  0  1  0  0  0  0  0  0  0  0  0
   -0.8615    1.7215   -0.2869 C   0  0  0  0  0  0  0  0  0  0  0  0
    1.4521    0.7309   -0.0292 C   0  0  0  0  0  0  0  0  0  0  0  0
    0.6226    1.9466   -0.1577 C   0  0  0  0  0  0  0  0  0  0  0  0
    0.8263   -0.5183    0.0182 C   0  0  0  0  0  0  0  0  0  0  0  0
   -2.7300    0.1887    0.3853 C   0  0  0  0  0  0  0  0  0  0  0  0
    2.8458    0.8236    0.0007 C   0  0  0  0  0  0  0  0  0  0  0  0
    1.5984   -1.6798    0.0613 C   0  0  0  0  0  0  0  0  0  0  0  0
    3.6122   -0.3407    0.0643 C   0  0  0  0  0  0  0  0  0  0  0  0
    2.9904   -1.5896    0.0895 C   0  0  0  0  0  0  0  0  0  0  0  0
   -3.5105    0.1301    1.5392 C   0  0  0  0  0  0  0  0  0  0  0  0
   -3.3157   -0.0059   -0.8651 C   0  0  0  0  0  0  0  0  0  0  0  0
   -4.8788   -0.1234    1.4427 C   0  0  0  0  0  0  0  0  0  0  0  0
   -4.6840   -0.2594   -0.9618 C   0  0  0  0  0  0  0  0  0  0  0  0
   -5.4657   -0.3181    0.1922 C   0  0  0  0  0  0  0  0  0  0  0  0
    4.3863    2.2412   -1.1278 C   0  0  0  0  0  0  0  0  0  0  0  0
    5.5882   -0.1841    1.3781 C   0  0  0  0  0  0  0  0  0  0  0  0
    4.1138   -3.3143   -1.1019 C   0  0  0  0  0  0  0  0  0  0  0  0
   -7.3358   -0.7551   -1.2105 C   0  0  0  0  0  0  0  0  0  0  0  0
   -0.9795    0.5890    1.5504 H   0  0  0  0  0  0  0  0  0  0  0  0
   -1.3888    2.5937    0.1154 H   0  0  0  0  0  0  0  0  0  0  0  0
   -1.0769    1.6396   -1.3582 H   0  0  0  0  0  0  0  0  0  0  0  0
    1.1168   -2.6543    0.0841 H   0  0  0  0  0  0  0  0  0  0  0  0
   -3.0682    0.2795    2.5204 H   0  0  0  0  0  0  0  0  0  0  0  0
   -2.7213    0.0242   -1.7741 H   0  0  0  0  0  0  0  0  0  0  0  0
   -5.4825   -0.1680    2.3450 H   0  0  0  0  0  0  0  0  0  0  0  0
   -5.0744   -0.4038   -1.9634 H   0  0  0  0  0  0  0  0  0  0  0  0
    4.2905    3.2870   -1.4348 H   0  0  0  0  0  0  0  0  0  0  0  0
    4.1538    1.6115   -1.9939 H   0  0  0  0  0  0  0  0  0  0  0  0
    5.4184    2.0799   -0.8044 H   0  0  0  0  0  0  0  0  0  0  0  0
    6.6701   -0.1127    1.2358 H   0  0  0  0  0  0  0  0  0  0  0  0
    5.3714   -1.0828    1.9641 H   0  0  0  0  0  0  0  0  0  0  0  0
    5.2475    0.7060    1.9165 H   0  0  0  0  0  0  0  0  0  0  0  0
    4.7257   -2.6170   -1.6828 H   0  0  0  0  0  0  0  0  0  0  0  0
    3.2287   -3.6060   -1.6760 H   0  0  0  0  0  0  0  0  0  0  0  0
    4.7063   -4.2093   -0.8935 H   0  0  0  0  0  0  0  0  0  0  0  0
   -7.2295    0.1466   -1.8231 H   0  0  0  0  0  0  0  0  0  0  0  0
   -8.4091   -0.9399   -1.0973 H   0  0  0  0  0  0  0  0  0  0  0  0
   -6.9086   -1.6393   -1.6957 H   0  0  0  0  0  0  0  0  0  0  0  0
  1  7  1  0  0  0  0
  1 11  1  0  0  0  0
  2 13  1  0  0  0  0
  2 22  1  0  0  0  0
  3 10  2  0  0  0  0
  4 15  1  0  0  0  0
  4 23  1  0  0  0  0
  5 16  1  0  0  0  0
  5 24  1  0  0  0  0
  6 21  1  0  0  0  0
  6 25  1  0  0  0  0
  7  8  1  0  0  0  0
  7 12  1  0  0  0  0
  7 26  1  0  0  0  0
  8 10  1  0  0  0  0
  8 27  1  0  0  0  0
  8 28  1  0  0  0  0
  9 10  1  0  0  0  0
  9 11  1  0  0  0  0
  9 13  2  0  0  0  0
 11 14  2  0  0  0  0
 12 17  2  0  0  0  0
 12 18  1  0  0  0  0
 13 15  1  0  0  0  0
 14 16  1  0  0  0  0
 14 29  1  0  0  0  0
 15 16  2  0  0  0  0
 17 19  1  0  0  0  0
 17 30  1  0  0  0  0
 18 20  2  0  0  0  0
 18 31  1  0  0  0  0
 19 21  2  0  0  0  0
 19 32  1  0  0  0  0
 20 21  1  0  0  0  0
 20 33  1  0  0  0  0
 22 34  1  0  0  0  0
 22 35  1  0  0  0  0
 22 36  1  0  0  0  0
 23 37  1  0  0  0  0
 23 38  1  0  0  0  0
 23 39  1  0  0  0  0
 24 40  1  0  0  0  0
 24 41  1  0  0  0  0
 24 42  1  0  0  0  0
 25 43  1  0  0  0  0
 25 44  1  0  0  0  0
 25 45  1  0  0  0  0
M  END
> <PUBCHEM_COMPOUND_CID>
242486

> <PUBCHEM_CONFORMER_RMSD>
0.8

> <PUBCHEM_CONFORMER_DIVERSEORDER>
1
3
7
2
5
13
9
4
10
6
12
11
8

> <PUBCHEM_MMFF94_PARTIAL_CHARGES>
30
1 -0.36
10 0.42
11 0.08
12 -0.14
13 0.08
14 -0.15
15 0.08
16 0.08
17 -0.15
18 -0.15
19 -0.15
2 -0.36
20 -0.15
21 0.08
22 0.28
23 0.28
24 0.28
25 0.28
29 0.15
3 -0.57
30 0.15
31 0.15
32 0.15
33 0.15
4 -0.36
5 -0.36
6 -0.36
7 0.42
8 0.06
9 0.09

> <PUBCHEM_EFFECTIVE_ROTOR_COUNT>
5.6

> <PUBCHEM_PHARMACOPHORE_FEATURES>
9
1 1 acceptor
1 2 acceptor
1 3 acceptor
1 4 acceptor
1 5 acceptor
1 6 acceptor
6 1 7 8 9 10 11 rings
6 12 17 18 19 20 21 rings
6 9 11 13 14 15 16 rings

> <PUBCHEM_HEAVY_ATOM_COUNT>
25

> <PUBCHEM_ATOM_DEF_STEREO_COUNT>
0

> <PUBCHEM_ATOM_UDEF_STEREO_COUNT>
1

> <PUBCHEM_BOND_DEF_STEREO_COUNT>
0

> <PUBCHEM_BOND_UDEF_STEREO_COUNT>
0

> <PUBCHEM_ISOTOPIC_ATOM_COUNT>
0

> <PUBCHEM_COMPONENT_COUNT>
1

> <PUBCHEM_CACTVS_TAUTO_COUNT>
2

> <PUBCHEM_CONFORMER_ID>
0003B33600000001

> <PUBCHEM_MMFF94_ENERGY>
114.3411

> <PUBCHEM_FEATURE_SELFOVERLAP>
45.722

> <PUBCHEM_SHAPE_FINGERPRINT>
10411042 1 18195245753319066046
10622 236 17968963915244651735
10673678 19 17344610566564400516
11059845 2 16158473115845036506
11796584 16 16200432472372390386
12107183 9 17756130542942820041
12236239 1 17894909612463795657
12516196 113 18334861627769814465
12596602 18 17095241432020750843
12623949 98 17604703521017477302
12838862 33 18268719316618014204
13009979 54 17751068318166994922
13140716 1 18192994803592076328
13533116 47 18260829293710710219
13540713 4 18048047552018592924
13544653 18 18342171215156733381
13782708 43 17632857529985336475
13862211 1 18412547625982863722
14386348 63 17632294558567160017
14790565 3 17693643832547875380
14863182 85 18335978736364158974
15183329 4 18342463668935165389
15483637 11 18124032321912875123
15961568 22 16343415099348269476
17492 89 18192714677198432918
17844677 252 18340763849168991997
1813 80 18261943154497233293
18222031 100 18336828688189252259
200 152 18334016107950056585
20028762 73 18114465664265127175
20511986 3 17968108512182021977
20645477 70 18342740727677725710
21033648 29 17845950537074810653
21065198 48 18113891685261950553
21267235 1 18410569613265211950
21279426 13 18200317757413131813
21285901 2 17917998282103759381
21623969 137 18272082777846144571
21641784 216 17988062491973902260
221357 26 18272376386596096325
22182313 1 18268441307404864356
22224240 67 18260839168310002994
23557571 272 17060625516165211029
23559900 14 17275378802802383995
239999 70 17989487403324215272
255183 451 18117831321413938678
2748010 2 17978800331212961846
3004659 81 18060420218320536160
312423 11 18263630922067955664
314194 84 18334574633813031795
335352 9 18412259520341591222
34797466 226 16630232633217536991
3633792 109 18409455808745728797
4015057 19 18341048520044593385
4073 2 17988358162307570851
42630746 31 18409166606479501638
4340502 62 14779266415062908604
46194498 28 17775286032537144901
465052 167 17989209252979174626
5104073 3 18191310592338372322
5283173 99 17703519895201846077
6025842 7 18412542081496569860

> <PUBCHEM_SHAPE_MULTIPOLES>
479.27
15.03
2.58
1.13
18.94
0.34
0.15
4.99
-0.92
-4.95
-0.86
0.65
0.09
-0.37

> <PUBCHEM_SHAPE_SELFOVERLAP>
1038.465

> <PUBCHEM_SHAPE_VOLUME>
263.5

> <PUBCHEM_COORDINATE_TYPE>
2
5
10

$$$$

