53297436
  -OEChem-07051213142D

 58 61  0     1  0  0  0  0  0999 V2000
    2.7155   -2.4720    0.0000 O   0  0  0  0  0  0  0  0  0  0  0  0
    5.4476   -0.4720    0.0000 O   0  0  0  0  0  0  0  0  0  0  0  0
    2.0000   -1.0111    0.0000 O   0  0  0  0  0  0  0  0  0  0  0  0
    4.5816    1.0280    0.0000 O   0  0  0  0  0  0  0  0  0  0  0  0
    7.1796    0.5280    0.0000 O   0  0  0  0  0  0  0  0  0  0  0  0
    7.1796    2.5280    0.0000 O   0  0  0  0  0  0  0  0  0  0  0  0
    5.4476    3.5280    0.0000 O   0  0  0  0  0  0  0  0  0  0  0  0
    2.8495    2.0280    0.0000 O   0  0  0  0  0  0  0  0  0  0  0  0
    4.5816   -2.9720    0.0000 C   0  0  0  0  0  0  0  0  0  0  0  0
    3.7155   -2.4720    0.0000 C   0  0  2  0  0  0  0  0  0  0  0  0
    5.0816   -3.8380    0.0000 C   0  0  0  0  0  0  0  0  0  0  0  0
    4.0816   -3.8380    0.0000 C   0  0  0  0  0  0  0  0  0  0  0  0
    3.7155   -1.4720    0.0000 C   0  0  3  0  0  0  0  0  0  0  0  0
    4.5816   -0.9720    0.0000 C   0  0  2  0  0  0  0  0  0  0  0  0
    5.4476   -2.4720    0.0000 C   0  0  0  0  0  0  0  0  0  0  0  0
    4.3723   -0.0002    0.0000 C   0  0  0  0  0  0  0  0  0  0  0  0
    5.4476   -1.4720    0.0000 C   0  0  0  0  0  0  0  0  0  0  0  0
    2.9785   -0.8049    0.0000 C   0  0  0  0  0  0  0  0  0  0  0  0
    3.3836    0.1029    0.0000 C   0  0  2  0  0  0  0  0  0  0  0  0
    3.2155   -3.3380    0.0000 C   0  0  0  0  0  0  0  0  0  0  0  0
    6.3136   -2.9720    0.0000 C   0  0  0  0  0  0  0  0  0  0  0  0
    2.8836    0.9689    0.0000 C   0  0  0  0  0  0  0  0  0  0  0  0
    5.4476    0.5280    0.0000 C   0  0  2  0  0  0  0  0  0  0  0  0
    6.3136    1.0280    0.0000 C   0  0  1  0  0  0  0  0  0  0  0  0
    6.3136    2.0280    0.0000 C   0  0  2  0  0  0  0  0  0  0  0  0
    4.5816    2.0280    0.0000 C   0  0  1  0  0  0  0  0  0  0  0  0
    5.4476    2.5280    0.0000 C   0  0  1  0  0  0  0  0  0  0  0  0
    3.7155    2.5280    0.0000 C   0  0  0  0  0  0  0  0  0  0  0  0
    3.4989   -3.6260    0.0000 H   0  0  0  0  0  0  0  0  0  0  0  0
    3.9739   -4.4486    0.0000 H   0  0  0  0  0  0  0  0  0  0  0  0
    5.1892   -4.4486    0.0000 H   0  0  0  0  0  0  0  0  0  0  0  0
    5.6642   -3.6260    0.0000 H   0  0  0  0  0  0  0  0  0  0  0  0
    2.9386   -1.8167    0.0000 H   0  0  0  0  0  0  0  0  0  0  0  0
    4.9888    0.0659    0.0000 H   0  0  0  0  0  0  0  0  0  0  0  0
    4.3714    0.6198    0.0000 H   0  0  0  0  0  0  0  0  0  0  0  0
    5.9845   -1.1620    0.0000 H   0  0  0  0  0  0  0  0  0  0  0  0
    3.7211    0.6230    0.0000 H   0  0  0  0  0  0  0  0  0  0  0  0
    2.6786   -3.0280    0.0000 H   0  0  0  0  0  0  0  0  0  0  0  0
    2.9055   -3.8750    0.0000 H   0  0  0  0  0  0  0  0  0  0  0  0
    3.7525   -3.6480    0.0000 H   0  0  0  0  0  0  0  0  0  0  0  0
    2.4055   -3.0089    0.0000 H   0  0  0  0  0  0  0  0  0  0  0  0
    6.0036   -3.5089    0.0000 H   0  0  0  0  0  0  0  0  0  0  0  0
    6.8505   -3.2820    0.0000 H   0  0  0  0  0  0  0  0  0  0  0  0
    6.6236   -2.4350    0.0000 H   0  0  0  0  0  0  0  0  0  0  0  0
    3.4206    1.2789    0.0000 H   0  0  0  0  0  0  0  0  0  0  0  0
    2.5736    1.5058    0.0000 H   0  0  0  0  0  0  0  0  0  0  0  0
    2.3467    0.6589    0.0000 H   0  0  0  0  0  0  0  0  0  0  0  0
    5.9845    0.2180    0.0000 H   0  0  0  0  0  0  0  0  0  0  0  0
    6.8505    1.3380    0.0000 H   0  0  0  0  0  0  0  0  0  0  0  0
    6.8505    1.7180    0.0000 H   0  0  0  0  0  0  0  0  0  0  0  0
    4.0446    1.7180    0.0000 H   0  0  0  0  0  0  0  0  0  0  0  0
    5.9845    2.8380    0.0000 H   0  0  0  0  0  0  0  0  0  0  0  0
    7.1796   -0.0920    0.0000 H   0  0  0  0  0  0  0  0  0  0  0  0
    4.1140    3.0030    0.0000 H   0  0  0  0  0  0  0  0  0  0  0  0
    3.3170    3.0030    0.0000 H   0  0  0  0  0  0  0  0  0  0  0  0
    7.1796    3.1480    0.0000 H   0  0  0  0  0  0  0  0  0  0  0  0
    4.9106    3.8380    0.0000 H   0  0  0  0  0  0  0  0  0  0  0  0
    2.3126    2.3380    0.0000 H   0  0  0  0  0  0  0  0  0  0  0  0
 10  1  1  1  0  0  0
  1 41  1  0  0  0  0
 14  2  1  6  0  0  0
 23  2  1  6  0  0  0
  3 18  2  0  0  0  0
  4 23  1  0  0  0  0
  4 26  1  0  0  0  0
 24  5  1  1  0  0  0
  5 53  1  0  0  0  0
 25  6  1  6  0  0  0
  6 56  1  0  0  0  0
 27  7  1  1  0  0  0
  7 57  1  0  0  0  0
  8 28  1  0  0  0  0
  8 58  1  0  0  0  0
  9 10  1  0  0  0  0
  9 11  1  0  0  0  0
  9 12  1  0  0  0  0
  9 15  1  0  0  0  0
 10 13  1  0  0  0  0
 10 20  1  0  0  0  0
 11 12  1  0  0  0  0
 11 31  1  0  0  0  0
 11 32  1  0  0  0  0
 12 29  1  0  0  0  0
 12 30  1  0  0  0  0
 13 14  1  0  0  0  0
 13 18  1  0  0  0  0
 13 33  1  0  0  0  0
 14 16  1  0  0  0  0
 14 17  1  0  0  0  0
 15 17  2  0  0  0  0
 15 21  1  0  0  0  0
 16 19  1  0  0  0  0
 16 34  1  0  0  0  0
 16 35  1  0  0  0  0
 17 36  1  0  0  0  0
 18 19  1  0  0  0  0
 19 22  1  6  0  0  0
 19 37  1  0  0  0  0
 20 38  1  0  0  0  0
 20 39  1  0  0  0  0
 20 40  1  0  0  0  0
 21 42  1  0  0  0  0
 21 43  1  0  0  0  0
 21 44  1  0  0  0  0
 22 45  1  0  0  0  0
 22 46  1  0  0  0  0
 22 47  1  0  0  0  0
 23 24  1  0  0  0  0
 23 48  1  0  0  0  0
 24 25  1  0  0  0  0
 24 49  1  0  0  0  0
 25 27  1  0  0  0  0
 25 50  1  0  0  0  0
 26 27  1  0  0  0  0
 26 28  1  6  0  0  0
 26 51  1  0  0  0  0
 27 52  1  0  0  0  0
 28 54  1  0  0  0  0
 28 55  1  0  0  0  0
M  END
> <PUBCHEM_COMPOUND_CID>
53297436

> <PUBCHEM_COMPOUND_CANONICALIZED>
1

> <PUBCHEM_CACTVS_COMPLEXITY>
702

> <PUBCHEM_CACTVS_HBOND_ACCEPTOR>
8

> <PUBCHEM_CACTVS_HBOND_DONOR>
5

> <PUBCHEM_CACTVS_ROTATABLE_BOND>
3

> <PUBCHEM_CACTVS_SUBSKEYS>
AAADceB4PAAAAAAAAAAAAAAAGAAAAYAAAAAkQAAAAAAAAEAAAAAAGgAACAAAD1SwgAMCCAAABgCIAqBSAAAAAAAgAAAACAEAAAgRFBYAIQAiUAAF4AAPIAPK6PyPgAAAAAAAAAAAAAAAAAAAAYAADAAAAA==

> <PUBCHEM_IUPAC_OPENEYE_NAME>
(2R,3aR,7S)-7-hydroxy-2,5,7-trimethyl-3a-[(2S,3R,4S,5S,6R)-3,4,5-trihydroxy-6-(hydroxymethyl)tetrahydropyran-2-yl]oxy-spiro[3,7a-dihydro-2H-indene-6,1'-cyclopropane]-1-one

> <PUBCHEM_IUPAC_CAS_NAME>
(2R,3aR,7S)-7-hydroxy-2,5,7-trimethyl-3a-[[(2S,3R,4S,5S,6R)-3,4,5-trihydroxy-6-(hydroxymethyl)-2-oxanyl]oxy]-1-spiro[3,7a-dihydro-2H-indene-6,1'-cyclopropane]one

> <PUBCHEM_IUPAC_NAME>
(2R,3aR,7S)-7-hydroxy-2,5,7-trimethyl-3a-[(2S,3R,4S,5S,6R)-3,4,5-trihydroxy-6-(hydroxymethyl)oxan-2-yl]oxyspiro[3,7a-dihydro-2H-indene-6,1'-cyclopropane]-1-one

> <PUBCHEM_IUPAC_SYSTEMATIC_NAME>
(2R,3aR,7S)-3a-[(2S,3R,4S,5S,6R)-6-(hydroxymethyl)-3,4,5-tris(oxidanyl)oxan-2-yl]oxy-2,5,7-trimethyl-7-oxidanyl-spiro[3,7a-dihydro-2H-indene-6,1'-cyclopropane]-1-one

> <PUBCHEM_IUPAC_TRADITIONAL_NAME>
(2R,3aR,7S)-7-hydroxy-2,5,7-trimethyl-3a-[(2S,3R,4S,5S,6R)-3,4,5-trihydroxy-6-methylol-tetrahydropyran-2-yl]oxy-spiro[3,7a-dihydro-2H-indene-6,1'-cyclopropane]-1-one

> <PUBCHEM_IUPAC_INCHI>
InChI=1S/C20H30O8/c1-9-6-20(28-17-15(25)14(24)13(23)11(8-21)27-17)7-10(2)19(4-5-19)18(3,26)16(20)12(9)22/h7,9,11,13-17,21,23-26H,4-6,8H2,1-3H3/t9-,11-,13-,14+,15-,16?,17+,18+,20-/m1/s1

> <PUBCHEM_IUPAC_INCHIKEY>
GPHSJPVUEZFIDE-VGFVQWJBSA-N

> <PUBCHEM_XLOGP3_AA>
-1.3

> <PUBCHEM_EXACT_MASS>
398.194068

> <PUBCHEM_MOLECULAR_FORMULA>
C20H30O8

> <PUBCHEM_MOLECULAR_WEIGHT>
398.4474

> <PUBCHEM_OPENEYE_CAN_SMILES>
CC1CC2(C=C(C3(CC3)C(C2C1=O)(C)O)C)OC4C(C(C(C(O4)CO)O)O)O

> <PUBCHEM_OPENEYE_ISO_SMILES>
C[C@@H]1C[C@]2(C=C(C3(CC3)[C@@](C2C1=O)(C)O)C)O[C@H]4[C@@H]([C@H]([C@@H]([C@H](O4)CO)O)O)O

> <PUBCHEM_CACTVS_TPSA>
137

> <PUBCHEM_MONOISOTOPIC_WEIGHT>
398.194068

> <PUBCHEM_TOTAL_CHARGE>
0

> <PUBCHEM_HEAVY_ATOM_COUNT>
28

> <PUBCHEM_ATOM_DEF_STEREO_COUNT>
8

> <PUBCHEM_ATOM_UDEF_STEREO_COUNT>
1

> <PUBCHEM_BOND_DEF_STEREO_COUNT>
0

> <PUBCHEM_BOND_UDEF_STEREO_COUNT>
0

> <PUBCHEM_ISOTOPIC_ATOM_COUNT>
0

> <PUBCHEM_COMPONENT_COUNT>
1

> <PUBCHEM_CACTVS_TAUTO_COUNT>
3

> <PUBCHEM_COORDINATE_TYPE>
1
5
255

> <PUBCHEM_BONDANNOTATIONS>
10  1  5
13  33  3
19  22  6
14  2  6
23  2  6
26  28  6
24  5  5
25  6  6
27  7  5

$$$$

