255720
  -OEChem-07051212503D

 21 21  0     0  0  0  0  0  0999 V2000
    2.6257   -0.6302   -0.3289 O   0  0  0  0  0  0  0  0  0  0  0  0
   -3.1267    0.3445    0.7609 O   0  0  0  0  0  0  0  0  0  0  0  0
   -2.5500   -1.4901   -0.4507 O   0  0  0  0  0  0  0  0  0  0  0  0
    0.1640   -1.9508   -0.1618 N   0  0  0  0  0  0  0  0  0  0  0  0
    0.2340   -0.5384   -0.1436 C   0  0  0  0  0  0  0  0  0  0  0  0
   -0.9306    0.2227   -0.0416 C   0  0  0  0  0  0  0  0  0  0  0  0
    1.4748    0.0935   -0.2284 C   0  0  0  0  0  0  0  0  0  0  0  0
   -0.8544    1.6154   -0.0243 C   0  0  0  0  0  0  0  0  0  0  0  0
    1.5507    1.4863   -0.2111 C   0  0  0  0  0  0  0  0  0  0  0  0
    0.3862    2.2472   -0.1090 C   0  0  0  0  0  0  0  0  0  0  0  0
   -2.2431   -0.4048    0.0486 C   0  0  0  0  0  0  0  0  0  0  0  0
    3.2693   -0.9952    0.8899 C   0  0  0  0  0  0  0  0  0  0  0  0
   -1.7432    2.2376    0.0402 H   0  0  0  0  0  0  0  0  0  0  0  0
    2.5135    1.9857   -0.2783 H   0  0  0  0  0  0  0  0  0  0  0  0
    0.4456    3.3316   -0.0990 H   0  0  0  0  0  0  0  0  0  0  0  0
   -0.7236   -2.4285   -0.0913 H   0  0  0  0  0  0  0  0  0  0  0  0
    1.0144   -2.4910   -0.2522 H   0  0  0  0  0  0  0  0  0  0  0  0
    2.6000   -1.5849    1.5241 H   0  0  0  0  0  0  0  0  0  0  0  0
    3.6031   -0.1018    1.4270 H   0  0  0  0  0  0  0  0  0  0  0  0
    4.1446   -1.6033    0.6460 H   0  0  0  0  0  0  0  0  0  0  0  0
   -4.0072   -0.0845    0.8174 H   0  0  0  0  0  0  0  0  0  0  0  0
  1  7  1  0  0  0  0
  1 12  1  0  0  0  0
  2 11  1  0  0  0  0
  2 21  1  0  0  0  0
  3 11  2  0  0  0  0
  4  5  1  0  0  0  0
  4 16  1  0  0  0  0
  4 17  1  0  0  0  0
  5  6  2  0  0  0  0
  5  7  1  0  0  0  0
  6  8  1  0  0  0  0
  6 11  1  0  0  0  0
  7  9  2  0  0  0  0
  8 10  2  0  0  0  0
  8 13  1  0  0  0  0
  9 10  1  0  0  0  0
  9 14  1  0  0  0  0
 10 15  1  0  0  0  0
 12 18  1  0  0  0  0
 12 19  1  0  0  0  0
 12 20  1  0  0  0  0
M  END
> <PUBCHEM_COMPOUND_CID>
255720

> <PUBCHEM_CONFORMER_RMSD>
0.6

> <PUBCHEM_CONFORMER_DIVERSEORDER>
1
2

> <PUBCHEM_MMFF94_PARTIAL_CHARGES>
18
1 -0.36
10 -0.15
11 0.63
12 0.28
13 0.15
14 0.15
15 0.15
16 0.4
17 0.4
2 -0.65
21 0.5
3 -0.57
4 -0.9
5 0.1
6 0.09
7 0.08
8 -0.15
9 -0.15

> <PUBCHEM_EFFECTIVE_ROTOR_COUNT>
2

> <PUBCHEM_PHARMACOPHORE_FEATURES>
7
1 1 acceptor
1 2 acceptor
1 3 acceptor
1 4 cation
1 4 donor
3 2 3 11 anion
6 5 6 7 8 9 10 rings

> <PUBCHEM_HEAVY_ATOM_COUNT>
12

> <PUBCHEM_ATOM_DEF_STEREO_COUNT>
0

> <PUBCHEM_ATOM_UDEF_STEREO_COUNT>
0

> <PUBCHEM_BOND_DEF_STEREO_COUNT>
0

> <PUBCHEM_BOND_UDEF_STEREO_COUNT>
0

> <PUBCHEM_ISOTOPIC_ATOM_COUNT>
0

> <PUBCHEM_COMPONENT_COUNT>
1

> <PUBCHEM_CACTVS_TAUTO_COUNT>
2

> <PUBCHEM_CONFORMER_ID>
0003E6E800000001

> <PUBCHEM_MMFF94_ENERGY>
56.7086

> <PUBCHEM_FEATURE_SELFOVERLAP>
35.578

> <PUBCHEM_SHAPE_FINGERPRINT>
10130415 120 18343581854104564585
10857977 72 18336275625371547424
12423570 1 17556876727460447381
14128692 85 18409162186557240556
16945 1 18336262465343968981
193761 8 17762054333361737294
20871998 184 18191595352848999678
20871998 22 18335691806008731878
21040471 1 17977096860371847437
21501925 9 18336839575793976715
2334 1 18265613182640131861
23463225 33 18412824707097143654
23552423 10 18125717894321701805
241688 4 18411138056170828536
2748010 2 18411426119722453204
5084963 1 18187364315745548643
528862 383 18198065781067787660
53812654 25 18115880606885284502

> <PUBCHEM_SHAPE_MULTIPOLES>
224.37
4.13
2.06
0.73
0.16
0.58
0.08
-1.69
0.89
0.16
-0.13
0.08
-0.05
-0.4

> <PUBCHEM_SHAPE_SELFOVERLAP>
471.179

> <PUBCHEM_SHAPE_VOLUME>
126.9

> <PUBCHEM_COORDINATE_TYPE>
2
5
10

$$$$

