165381
  -OEChem-07051212512D

 76 81  0     1  0  0  0  0  0999 V2000
    5.0474   -2.0867    0.0000 P   0  0  3  0  0  0  0  0  0  0  0  0
    5.7735    1.3005    0.0000 P   0  0  3  0  0  0  0  0  0  0  0  0
    5.4104   -0.3931    0.0000 P   0  0  0  0  0  0  0  0  0  0  0  0
    4.4026   -5.5398    0.0000 O   0  0  0  0  0  0  0  0  0  0  0  0
    6.4184    4.7537    0.0000 O   0  0  0  0  0  0  0  0  0  0  0  0
    6.7485   -6.6317    0.0000 O   0  0  0  0  0  0  0  0  0  0  0  0
    4.0724    5.8455    0.0000 O   0  0  0  0  0  0  0  0  0  0  0  0
    6.7523   -4.4561    0.0000 O   0  0  0  0  0  0  0  0  0  0  0  0
    4.0686    3.6699    0.0000 O   0  0  0  0  0  0  0  0  0  0  0  0
    5.3548   -3.0382    0.0000 O   0  0  0  0  0  0  0  0  0  0  0  0
    5.4661    2.2521    0.0000 O   0  0  0  0  0  0  0  0  0  0  0  0
    4.7400   -1.1351    0.0000 O   0  0  0  0  0  0  0  0  0  0  0  0
    6.0809    0.3489    0.0000 O   0  0  0  0  0  0  0  0  0  0  0  0
    5.9990   -1.7793    0.0000 O   0  0  0  0  0  0  0  0  0  0  0  0
    6.7251    1.6079    0.0000 O   0  0  0  0  0  0  0  0  0  0  0  0
    4.0958   -2.3940    0.0000 O   0  0  0  0  0  0  0  0  0  0  0  0
    4.8219    0.9931    0.0000 O   0  0  0  0  0  0  0  0  0  0  0  0
    4.6685    0.2773    0.0000 O   0  0  0  0  0  0  0  0  0  0  0  0
    6.1524   -1.0635    0.0000 O   0  0  0  0  0  0  0  0  0  0  0  0
    4.6783   -7.3004    0.0000 N   0  0  0  0  0  0  0  0  0  0  0  0
    6.1426    6.5142    0.0000 N   0  0  0  0  0  0  0  0  0  0  0  0
    4.6783   -8.9098    0.0000 N   0  0  0  0  0  0  0  0  0  0  0  0
    7.0932    7.8130    0.0000 N   0  0  0  0  0  0  0  0  0  0  0  0
    2.8660   -7.1051    0.0000 N   0  0  0  0  0  0  0  0  0  0  0  0
    4.5649    7.4269    0.0000 N   0  0  0  0  0  0  0  0  0  0  0  0
    2.0000   -8.6051    0.0000 N   0  0  0  0  0  0  0  0  0  0  0  0
    4.7519    9.1488    0.0000 N   0  0  0  0  0  0  0  0  0  0  0  0
    2.8660  -10.1051    0.0000 N   0  0  0  0  0  0  0  0  0  0  0  0
    6.3366    9.8478    0.0000 N   0  0  0  0  0  0  0  0  0  0  0  0
    5.9405   -6.0425    0.0000 C   0  0  2  0  0  0  0  0  0  0  0  0
    4.8804    5.2563    0.0000 C   0  0  2  0  0  0  0  0  0  0  0  0
    5.9422   -5.0425    0.0000 C   0  0  1  0  0  0  0  0  0  0  0  0
    4.8787    4.2563    0.0000 C   0  0  1  0  0  0  0  0  0  0  0  0
    4.9889   -6.3499    0.0000 C   0  0  1  0  0  0  0  0  0  0  0  0
    5.8320    5.5637    0.0000 C   0  0  1  0  0  0  0  0  0  0  0  0
    4.9917   -4.7318    0.0000 C   0  0  1  0  0  0  0  0  0  0  0  0
    5.8292    3.9457    0.0000 C   0  0  1  0  0  0  0  0  0  0  0  0
    4.6844   -3.7802    0.0000 C   0  0  0  0  0  0  0  0  0  0  0  0
    6.1365    2.9941    0.0000 C   0  0  0  0  0  0  0  0  0  0  0  0
    3.7320   -7.6051    0.0000 C   0  0  0  0  0  0  0  0  0  0  0  0
    5.5590    7.3189    0.0000 C   0  0  0  0  0  0  0  0  0  0  0  0
    5.2619   -8.1051    0.0000 C   0  0  0  0  0  0  0  0  0  0  0  0
    7.0888    6.8189    0.0000 C   0  0  0  0  0  0  0  0  0  0  0  0
    3.7320   -8.6051    0.0000 C   0  0  0  0  0  0  0  0  0  0  0  0
    6.1496    8.1259    0.0000 C   0  0  0  0  0  0  0  0  0  0  0  0
    2.8660   -9.1051    0.0000 C   0  0  0  0  0  0  0  0  0  0  0  0
    5.7460    9.0409    0.0000 C   0  0  0  0  0  0  0  0  0  0  0  0
    2.0000   -7.6051    0.0000 C   0  0  0  0  0  0  0  0  0  0  0  0
    4.1613    8.3419    0.0000 C   0  0  0  0  0  0  0  0  0  0  0  0
    5.8425   -6.6547    0.0000 H   0  0  0  0  0  0  0  0  0  0  0  0
    4.9784    5.8685    0.0000 H   0  0  0  0  0  0  0  0  0  0  0  0
    6.4942   -5.3249    0.0000 H   0  0  0  0  0  0  0  0  0  0  0  0
    4.3267    4.5388    0.0000 H   0  0  0  0  0  0  0  0  0  0  0  0
    5.4266   -6.7890    0.0000 H   0  0  0  0  0  0  0  0  0  0  0  0
    5.3943    6.0028    0.0000 H   0  0  0  0  0  0  0  0  0  0  0  0
    4.3795   -4.6338    0.0000 H   0  0  0  0  0  0  0  0  0  0  0  0
    6.4414    3.8476    0.0000 H   0  0  0  0  0  0  0  0  0  0  0  0
    4.3035   -3.2910    0.0000 H   0  0  0  0  0  0  0  0  0  0  0  0
    4.1364   -4.0704    0.0000 H   0  0  0  0  0  0  0  0  0  0  0  0
    6.5174    2.5048    0.0000 H   0  0  0  0  0  0  0  0  0  0  0  0
    6.6845    3.2842    0.0000 H   0  0  0  0  0  0  0  0  0  0  0  0
    7.3154   -6.3805    0.0000 H   0  0  0  0  0  0  0  0  0  0  0  0
    3.5056    5.5943    0.0000 H   0  0  0  0  0  0  0  0  0  0  0  0
    7.3182   -4.7093    0.0000 H   0  0  0  0  0  0  0  0  0  0  0  0
    3.5027    3.9231    0.0000 H   0  0  0  0  0  0  0  0  0  0  0  0
    5.8819   -8.1051    0.0000 H   0  0  0  0  0  0  0  0  0  0  0  0
    7.5892    6.4528    0.0000 H   0  0  0  0  0  0  0  0  0  0  0  0
    1.4631   -7.2951    0.0000 H   0  0  0  0  0  0  0  0  0  0  0  0
    3.5449    8.4088    0.0000 H   0  0  0  0  0  0  0  0  0  0  0  0
    6.4590   -2.1950    0.0000 H   0  0  0  0  0  0  0  0  0  0  0  0
    7.1851    1.1922    0.0000 H   0  0  0  0  0  0  0  0  0  0  0  0
    2.3291  -10.4151    0.0000 H   0  0  0  0  0  0  0  0  0  0  0  0
    3.4030  -10.4151    0.0000 H   0  0  0  0  0  0  0  0  0  0  0  0
    6.0864   10.4151    0.0000 H   0  0  0  0  0  0  0  0  0  0  0  0
    6.9530    9.7809    0.0000 H   0  0  0  0  0  0  0  0  0  0  0  0
    4.0785    0.0868    0.0000 H   0  0  0  0  0  0  0  0  0  0  0  0
  1 10  1  0  0  0  0
  1 12  1  0  0  0  0
  1 14  1  0  0  0  0
  1 16  2  0  0  0  0
  2 11  1  0  0  0  0
  2 13  1  0  0  0  0
  2 15  1  0  0  0  0
  2 17  2  0  0  0  0
  3 12  1  0  0  0  0
  3 13  1  0  0  0  0
  3 18  1  0  0  0  0
  3 19  2  0  0  0  0
  4 34  1  0  0  0  0
  4 36  1  0  0  0  0
  5 35  1  0  0  0  0
  5 37  1  0  0  0  0
 30  6  1  1  0  0  0
  6 62  1  0  0  0  0
 31  7  1  1  0  0  0
  7 63  1  0  0  0  0
 32  8  1  1  0  0  0
  8 64  1  0  0  0  0
 33  9  1  1  0  0  0
  9 65  1  0  0  0  0
 10 38  1  0  0  0  0
 11 39  1  0  0  0  0
 14 70  1  0  0  0  0
 15 71  1  0  0  0  0
 18 76  1  0  0  0  0
 34 20  1  6  0  0  0
 20 40  1  0  0  0  0
 20 42  1  0  0  0  0
 35 21  1  6  0  0  0
 21 41  1  0  0  0  0
 21 43  1  0  0  0  0
 22 42  2  0  0  0  0
 22 44  1  0  0  0  0
 23 43  2  0  0  0  0
 23 45  1  0  0  0  0
 24 40  1  0  0  0  0
 24 48  2  0  0  0  0
 25 41  1  0  0  0  0
 25 49  2  0  0  0  0
 26 46  2  0  0  0  0
 26 48  1  0  0  0  0
 27 47  2  0  0  0  0
 27 49  1  0  0  0  0
 28 46  1  0  0  0  0
 28 72  1  0  0  0  0
 28 73  1  0  0  0  0
 29 47  1  0  0  0  0
 29 74  1  0  0  0  0
 29 75  1  0  0  0  0
 30 32  1  0  0  0  0
 30 34  1  0  0  0  0
 30 50  1  0  0  0  0
 31 33  1  0  0  0  0
 31 35  1  0  0  0  0
 31 51  1  0  0  0  0
 32 36  1  0  0  0  0
 32 52  1  0  0  0  0
 33 37  1  0  0  0  0
 33 53  1  0  0  0  0
 34 54  1  0  0  0  0
 35 55  1  0  0  0  0
 36 38  1  6  0  0  0
 36 56  1  0  0  0  0
 37 39  1  6  0  0  0
 37 57  1  0  0  0  0
 38 58  1  0  0  0  0
 38 59  1  0  0  0  0
 39 60  1  0  0  0  0
 39 61  1  0  0  0  0
 40 44  2  0  0  0  0
 41 45  2  0  0  0  0
 42 66  1  0  0  0  0
 43 67  1  0  0  0  0
 44 46  1  0  0  0  0
 45 47  1  0  0  0  0
 48 68  1  0  0  0  0
 49 69  1  0  0  0  0
M  END
> <PUBCHEM_COMPOUND_CID>
165381

> <PUBCHEM_COMPOUND_CANONICALIZED>
1

> <PUBCHEM_CACTVS_COMPLEXITY>
1240

> <PUBCHEM_CACTVS_HBOND_ACCEPTOR>
24

> <PUBCHEM_CACTVS_HBOND_DONOR>
9

> <PUBCHEM_CACTVS_ROTATABLE_BOND>
12

> <PUBCHEM_CACTVS_SUBSKEYS>
AAADceB7/gMAAAAAAAAAAAAAAAAAAWLEiQAsWAAAAAAAAFgB/gAAHgAQCCAACBzhlwYF8L9MFxCgQQZhZICAgC0REKABUCAoVBCDWAJAyEAeRAgPAALTACDwMAIAAAAAAAAAAAAAAAAAAAAAAAAAAAAAAA==

> <PUBCHEM_IUPAC_OPENEYE_NAME>
bis[[(2R,3S,4R,5R)-5-(6-aminopurin-9-yl)-3,4-dihydroxy-tetrahydrofuran-2-yl]methoxy-hydroxy-phosphoryl] hydrogen phosphate

> <PUBCHEM_IUPAC_CAS_NAME>
bis[[(2R,3S,4R,5R)-5-(6-aminopurin-9-yl)-3,4-dihydroxy-2-oxolanyl]methoxy-hydroxyphosphoryl] hydrogen phosphate

> <PUBCHEM_IUPAC_NAME>
bis[[(2R,3S,4R,5R)-5-(6-aminopurin-9-yl)-3,4-dihydroxyoxolan-2-yl]methoxy-hydroxyphosphoryl] hydrogen phosphate

> <PUBCHEM_IUPAC_SYSTEMATIC_NAME>
bis[[(2R,3S,4R,5R)-5-(6-aminopurin-9-yl)-3,4-bis(oxidanyl)oxolan-2-yl]methoxy-oxidanyl-phosphoryl] hydrogen phosphate

> <PUBCHEM_IUPAC_TRADITIONAL_NAME>
bis[[(2R,3S,4R,5R)-5-adenin-9-yl-3,4-dihydroxy-tetrahydrofuran-2-yl]methoxy-hydroxy-phosphoryl] hydrogen phosphate

> <PUBCHEM_IUPAC_INCHI>
InChI=1S/C20H27N10O16P3/c21-15-9-17(25-3-23-15)29(5-27-9)19-13(33)11(31)7(43-19)1-41-47(35,36)45-49(39,40)46-48(37,38)42-2-8-12(32)14(34)20(44-8)30-6-28-10-16(22)24-4-26-18(10)30/h3-8,11-14,19-20,31-34H,1-2H2,(H,35,36)(H,37,38)(H,39,40)(H2,21,23,25)(H2,22,24,26)/t7-,8-,11-,12-,13-,14-,19-,20-/m1/s1

> <PUBCHEM_IUPAC_INCHIKEY>
QCICUPZZLIQAPA-XPWFQUROSA-N

> <PUBCHEM_XLOGP3>
-7.2

> <PUBCHEM_EXACT_MASS>
756.081935

> <PUBCHEM_MOLECULAR_FORMULA>
C20H27N10O16P3

> <PUBCHEM_MOLECULAR_WEIGHT>
756.407066

> <PUBCHEM_OPENEYE_CAN_SMILES>
C1=NC2=C(C(=N1)N)N=CN2C3C(C(C(O3)COP(=O)(O)OP(=O)(O)OP(=O)(O)OCC4C(C(C(O4)N5C=NC6=C5N=CN=C6N)O)O)O)O

> <PUBCHEM_OPENEYE_ISO_SMILES>
C1=NC2=C(C(=N1)N)N=CN2[C@H]3[C@@H]([C@@H]([C@H](O3)COP(=O)(O)OP(=O)(O)OP(=O)(O)OC[C@@H]4[C@H]([C@H]([C@@H](O4)N5C=NC6=C5N=CN=C6N)O)O)O)O

> <PUBCHEM_CACTVS_TPSA>
387

> <PUBCHEM_MONOISOTOPIC_WEIGHT>
756.081935

> <PUBCHEM_TOTAL_CHARGE>
0

> <PUBCHEM_HEAVY_ATOM_COUNT>
49

> <PUBCHEM_ATOM_DEF_STEREO_COUNT>
8

> <PUBCHEM_ATOM_UDEF_STEREO_COUNT>
0

> <PUBCHEM_BOND_DEF_STEREO_COUNT>
0

> <PUBCHEM_BOND_UDEF_STEREO_COUNT>
0

> <PUBCHEM_ISOTOPIC_ATOM_COUNT>
0

> <PUBCHEM_COMPONENT_COUNT>
1

> <PUBCHEM_CACTVS_TAUTO_COUNT>
6

> <PUBCHEM_COORDINATE_TYPE>
1
5
255

> <PUBCHEM_BONDANNOTATIONS>
34  20  6
20  40  8
20  42  8
35  21  6
21  41  8
21  43  8
22  42  8
22  44  8
23  43  8
23  45  8
24  40  8
24  48  8
25  41  8
25  49  8
26  46  8
26  48  8
27  47  8
27  49  8
36  38  6
37  39  6
40  44  8
41  45  8
44  46  8
45  47  8
30  6  5
31  7  5
32  8  5
33  9  5

$$$$

