230047
  -OEChem-07051212483D

 18 19  0     0  0  0  0  0  0999 V2000
   -1.3635   -2.6199   -0.0016 O   0  0  0  0  0  0  0  0  0  0  0  0
   -3.6835    1.3745    0.0009 O   0  0  0  0  0  0  0  0  0  0  0  0
    3.3941   -1.1331    0.0017 O   0  0  0  0  0  0  0  0  0  0  0  0
    3.2911    1.5362   -0.0015 O   0  0  0  0  0  0  0  0  0  0  0  0
   -1.3824    1.4060    0.0000 N   0  0  0  0  0  0  0  0  0  0  0  0
    1.0786   -1.2499    0.0004 N   0  0  0  0  0  0  0  0  0  0  0  0
    0.9734    1.4762   -0.0003 N   0  0  0  0  0  0  0  0  0  0  0  0
   -2.5397   -0.6302    0.0003 N   0  0  0  0  0  0  0  0  0  0  0  0
   -0.1240   -0.5951    0.0000 C   0  0  0  0  0  0  0  0  0  0  0  0
   -0.1841    0.7418    0.0000 C   0  0  0  0  0  0  0  0  0  0  0  0
   -1.3773   -1.3922   -0.0004 C   0  0  0  0  0  0  0  0  0  0  0  0
   -2.6130    0.7656    0.0003 C   0  0  0  0  0  0  0  0  0  0  0  0
    2.2946   -0.5964    0.0008 C   0  0  0  0  0  0  0  0  0  0  0  0
    2.2360    0.9166   -0.0003 C   0  0  0  0  0  0  0  0  0  0  0  0
   -1.3573    2.4212   -0.0001 H   0  0  0  0  0  0  0  0  0  0  0  0
    1.0695   -2.2658    0.0006 H   0  0  0  0  0  0  0  0  0  0  0  0
    0.8857    2.4880   -0.0009 H   0  0  0  0  0  0  0  0  0  0  0  0
   -3.4212   -1.1356    0.0003 H   0  0  0  0  0  0  0  0  0  0  0  0
  1 11  2  0  0  0  0
  2 12  2  0  0  0  0
  3 13  2  0  0  0  0
  4 14  2  0  0  0  0
  5 10  1  0  0  0  0
  5 12  1  0  0  0  0
  5 15  1  0  0  0  0
  6  9  1  0  0  0  0
  6 13  1  0  0  0  0
  6 16  1  0  0  0  0
  7 10  1  0  0  0  0
  7 14  1  0  0  0  0
  7 17  1  0  0  0  0
  8 11  1  0  0  0  0
  8 12  1  0  0  0  0
  8 18  1  0  0  0  0
  9 10  2  0  0  0  0
  9 11  1  0  0  0  0
 13 14  1  0  0  0  0
M  END
> <PUBCHEM_COMPOUND_CID>
230047

> <PUBCHEM_CONFORMER_RMSD>
0.4

> <PUBCHEM_CONFORMER_DIVERSEORDER>
1

> <PUBCHEM_MMFF94_PARTIAL_CHARGES>
18
1 -0.57
10 0.22
11 0.62
12 0.69
13 0.63
14 0.63
15 0.37
16 0.37
17 0.37
18 0.37
2 -0.57
3 -0.57
4 -0.57
5 -0.54
6 -0.54
7 -0.54
8 -0.49
9 0.12

> <PUBCHEM_EFFECTIVE_ROTOR_COUNT>
0

> <PUBCHEM_PHARMACOPHORE_FEATURES>
10
1 1 acceptor
1 2 acceptor
1 3 acceptor
1 4 acceptor
1 5 donor
1 6 donor
1 7 donor
1 8 donor
6 5 8 9 10 11 12 rings
6 6 7 9 10 13 14 rings

> <PUBCHEM_HEAVY_ATOM_COUNT>
14

> <PUBCHEM_ATOM_DEF_STEREO_COUNT>
0

> <PUBCHEM_ATOM_UDEF_STEREO_COUNT>
0

> <PUBCHEM_BOND_DEF_STEREO_COUNT>
0

> <PUBCHEM_BOND_UDEF_STEREO_COUNT>
0

> <PUBCHEM_ISOTOPIC_ATOM_COUNT>
0

> <PUBCHEM_COMPONENT_COUNT>
1

> <PUBCHEM_CACTVS_TAUTO_COUNT>
33

> <PUBCHEM_CONFORMER_ID>
0003829F00000001

> <PUBCHEM_MMFF94_ENERGY>
27.9069

> <PUBCHEM_FEATURE_SELFOVERLAP>
50.868

> <PUBCHEM_SHAPE_FINGERPRINT>
10608611 8 18409451349578418328
10967382 1 18338797930525312292
12932764 1 17459471048363958122
13380535 21 18338506457107446628
13380535 76 18408044030450156311
14325111 11 18410575084726681249
14897335 6 18410017615167262980
14911166 2 18337385071348395478
15775835 57 18413383241703125284
16945 1 18338517559397388230
18186145 218 18336264660262310757
193761 8 18194683670162385861
19973954 147 18339359643644242398
20201158 50 18261955262010144270
20645476 183 17916000448006476438
20871998 184 18116427047111371463
21501502 16 18410578340459415838
2334 1 18338516318278596138
23402655 69 18334869346185040629
23463225 33 18341051903935340706
23552423 10 18200312104771601926
23559900 14 18334010597897444924
2748010 2 18337950099865612222
3312278 4 18336260124824208480
528886 8 18338241573510207827
6333449 129 18410014290994301757
69090 78 18409736170561090159
7364860 26 18334295409615377502

> <PUBCHEM_SHAPE_MULTIPOLES>
244.71
5.1
2.08
0.56
0.53
0.67
0
-1.29
0
-0.4
0
0
0
0

> <PUBCHEM_SHAPE_SELFOVERLAP>
536.399

> <PUBCHEM_SHAPE_VOLUME>
129.1

> <PUBCHEM_COORDINATE_TYPE>
2
5
10

$$$$

