559
  -OEChem-07051212472D

 20 19  0     0  0  0  0  0  0999 V2000
    2.0000   -2.8100    0.0000 O   0  0  0  0  0  0  0  0  0  0  0  0
    4.5981    0.6900    0.0000 N   0  0  0  0  0  0  0  0  0  0  0  0
    5.4641    2.1900    0.0000 N   0  0  0  0  0  0  0  0  0  0  0  0
    3.7320    2.1900    0.0000 N   0  0  0  0  0  0  0  0  0  0  0  0
    3.7320   -0.8100    0.0000 C   0  0  0  0  0  0  0  0  0  0  0  0
    3.7320    0.1900    0.0000 C   0  0  0  0  0  0  0  0  0  0  0  0
    2.8660   -1.3100    0.0000 C   0  0  0  0  0  0  0  0  0  0  0  0
    2.8660   -2.3100    0.0000 C   0  0  0  0  0  0  0  0  0  0  0  0
    4.5981    1.6900    0.0000 C   0  0  0  0  0  0  0  0  0  0  0  0
    3.9441   -1.3926    0.0000 H   0  0  0  0  0  0  0  0  0  0  0  0
    4.3426   -0.7023    0.0000 H   0  0  0  0  0  0  0  0  0  0  0  0
    3.5200    0.7726    0.0000 H   0  0  0  0  0  0  0  0  0  0  0  0
    3.1215    0.0823    0.0000 H   0  0  0  0  0  0  0  0  0  0  0  0
    2.6540   -0.7274    0.0000 H   0  0  0  0  0  0  0  0  0  0  0  0
    2.2554   -1.4177    0.0000 H   0  0  0  0  0  0  0  0  0  0  0  0
    3.4030   -2.6200    0.0000 H   0  0  0  0  0  0  0  0  0  0  0  0
    3.1951    1.8800    0.0000 H   0  0  0  0  0  0  0  0  0  0  0  0
    3.7320    2.8100    0.0000 H   0  0  0  0  0  0  0  0  0  0  0  0
    6.0010    1.8800    0.0000 H   0  0  0  0  0  0  0  0  0  0  0  0
    5.4641    2.8100    0.0000 H   0  0  0  0  0  0  0  0  0  0  0  0
  1  8  2  0  0  0  0
  2  6  1  0  0  0  0
  2  9  2  0  0  0  0
  3  9  1  0  0  0  0
  3 19  1  0  0  0  0
  3 20  1  0  0  0  0
  4  9  1  0  0  0  0
  4 17  1  0  0  0  0
  4 18  1  0  0  0  0
  5  6  1  0  0  0  0
  5  7  1  0  0  0  0
  5 10  1  0  0  0  0
  5 11  1  0  0  0  0
  6 12  1  0  0  0  0
  6 13  1  0  0  0  0
  7  8  1  0  0  0  0
  7 14  1  0  0  0  0
  7 15  1  0  0  0  0
  8 16  1  0  0  0  0
M  END
> <PUBCHEM_COMPOUND_CID>
559

> <PUBCHEM_COMPOUND_CANONICALIZED>
1

> <PUBCHEM_CACTVS_COMPLEXITY>
107

> <PUBCHEM_CACTVS_HBOND_ACCEPTOR>
2

> <PUBCHEM_CACTVS_HBOND_DONOR>
2

> <PUBCHEM_CACTVS_ROTATABLE_BOND>
4

> <PUBCHEM_CACTVS_SUBSKEYS>
AAADccBjIAAAAAAAAAAAAAAAAAAAAAAAAAAAAAAAAAAAAAAAAAAAHgAQAAAACADhgAYBAAJAAAAoAAgQpAAAAAEAAAAAAAEAAAAAABAAgAAAAAAAAAAAAAAEAAAAAAAAAAAAAAAAAAAAAAAAAAAAAAAAAA==

> <PUBCHEM_IUPAC_OPENEYE_NAME>
2-(4-oxobutyl)guanidine

> <PUBCHEM_IUPAC_CAS_NAME>
2-(4-oxobutyl)guanidine

> <PUBCHEM_IUPAC_NAME>
2-(4-oxobutyl)guanidine

> <PUBCHEM_IUPAC_SYSTEMATIC_NAME>
2-(4-oxidanylidenebutyl)guanidine

> <PUBCHEM_IUPAC_TRADITIONAL_NAME>
2-(4-ketobutyl)guanidine

> <PUBCHEM_IUPAC_INCHI>
InChI=1S/C5H11N3O/c6-5(7)8-3-1-2-4-9/h4H,1-3H2,(H4,6,7,8)

> <PUBCHEM_IUPAC_INCHIKEY>
VCOFTLCIPLEZKE-UHFFFAOYSA-N

> <PUBCHEM_XLOGP3_AA>
-1.5

> <PUBCHEM_EXACT_MASS>
129.090212

> <PUBCHEM_MOLECULAR_FORMULA>
C5H11N3O

> <PUBCHEM_MOLECULAR_WEIGHT>
129.16034

> <PUBCHEM_OPENEYE_CAN_SMILES>
C(CC=O)CN=C(N)N

> <PUBCHEM_OPENEYE_ISO_SMILES>
C(CC=O)CN=C(N)N

> <PUBCHEM_CACTVS_TPSA>
81.5

> <PUBCHEM_MONOISOTOPIC_WEIGHT>
129.090212

> <PUBCHEM_TOTAL_CHARGE>
0

> <PUBCHEM_HEAVY_ATOM_COUNT>
9

> <PUBCHEM_ATOM_DEF_STEREO_COUNT>
0

> <PUBCHEM_ATOM_UDEF_STEREO_COUNT>
0

> <PUBCHEM_BOND_DEF_STEREO_COUNT>
0

> <PUBCHEM_BOND_UDEF_STEREO_COUNT>
0

> <PUBCHEM_ISOTOPIC_ATOM_COUNT>
0

> <PUBCHEM_COMPONENT_COUNT>
1

> <PUBCHEM_CACTVS_TAUTO_COUNT>
4

> <PUBCHEM_COORDINATE_TYPE>
1
5
255

$$$$

