442371
  -OEChem-07051212583D

 36 37  0     1  0  0  0  0  0999 V2000
   -3.7719    1.3723   -0.3296 O   0  0  0  0  0  0  0  0  0  0  0  0
   -3.7941   -1.2643   -0.7808 O   0  0  0  0  0  0  0  0  0  0  0  0
   -0.2189    0.3821    0.5515 C   0  0  1  0  0  0  0  0  0  0  0  0
    1.1275    0.7854   -0.0967 C   0  0  0  0  0  0  0  0  0  0  0  0
   -1.3728    1.2433   -0.0367 C   0  0  1  0  0  0  0  0  0  0  0  0
    2.2991   -0.0989    0.3537 C   0  0  1  0  0  0  0  0  0  0  0  0
   -0.4544   -1.1134    0.3979 C   0  0  0  0  0  0  0  0  0  0  0  0
    1.9953   -1.5746    0.0760 C   0  0  0  0  0  0  0  0  0  0  0  0
    0.7063   -2.0044    0.7686 C   0  0  0  0  0  0  0  0  0  0  0  0
   -2.7367    0.6256    0.2890 C   0  0  2  0  0  0  0  0  0  0  0  0
   -1.6143   -1.6528   -0.0063 C   0  0  0  0  0  0  0  0  0  0  0  0
   -1.3094    2.6947    0.4603 C   0  0  0  0  0  0  0  0  0  0  0  0
   -2.7977   -0.7944   -0.2362 C   0  0  0  0  0  0  0  0  0  0  0  0
    3.5662    0.3230   -0.3248 C   0  0  0  0  0  0  0  0  0  0  0  0
    4.6696    0.8003    0.5722 C   0  0  0  0  0  0  0  0  0  0  0  0
    3.7062    0.2763   -1.6579 C   0  0  0  0  0  0  0  0  0  0  0  0
   -0.1504    0.5804    1.6308 H   0  0  0  0  0  0  0  0  0  0  0  0
   -1.2682    1.2781   -1.1312 H   0  0  0  0  0  0  0  0  0  0  0  0
    1.0143    0.7454   -1.1885 H   0  0  0  0  0  0  0  0  0  0  0  0
    1.3602    1.8274    0.1537 H   0  0  0  0  0  0  0  0  0  0  0  0
    2.4142    0.0247    1.4396 H   0  0  0  0  0  0  0  0  0  0  0  0
    2.8207   -2.2034    0.4330 H   0  0  0  0  0  0  0  0  0  0  0  0
    1.8957   -1.7656   -1.0004 H   0  0  0  0  0  0  0  0  0  0  0  0
    0.8447   -1.9611    1.8565 H   0  0  0  0  0  0  0  0  0  0  0  0
    0.5017   -3.0532    0.5211 H   0  0  0  0  0  0  0  0  0  0  0  0
   -2.9283    0.6068    1.3675 H   0  0  0  0  0  0  0  0  0  0  0  0
   -1.7453   -2.7222   -0.1283 H   0  0  0  0  0  0  0  0  0  0  0  0
   -1.3875    2.7404    1.5517 H   0  0  0  0  0  0  0  0  0  0  0  0
   -0.3749    3.1805    0.1660 H   0  0  0  0  0  0  0  0  0  0  0  0
   -2.1234    3.2940    0.0393 H   0  0  0  0  0  0  0  0  0  0  0  0
    4.3413    1.6718    1.1480 H   0  0  0  0  0  0  0  0  0  0  0  0
    4.9605    0.0092    1.2711 H   0  0  0  0  0  0  0  0  0  0  0  0
    5.5625    1.0911    0.0086 H   0  0  0  0  0  0  0  0  0  0  0  0
   -3.5709    1.4405   -1.2787 H   0  0  0  0  0  0  0  0  0  0  0  0
    4.6314    0.5857   -2.1337 H   0  0  0  0  0  0  0  0  0  0  0  0
    2.9140   -0.0688   -2.3129 H   0  0  0  0  0  0  0  0  0  0  0  0
  1 10  1  0  0  0  0
  1 34  1  0  0  0  0
  2 13  2  0  0  0  0
  3  4  1  0  0  0  0
  3  5  1  0  0  0  0
  3  7  1  0  0  0  0
  3 17  1  0  0  0  0
  4  6  1  0  0  0  0
  4 19  1  0  0  0  0
  4 20  1  0  0  0  0
  5 10  1  0  0  0  0
  5 12  1  0  0  0  0
  5 18  1  0  0  0  0
  6  8  1  0  0  0  0
  6 14  1  0  0  0  0
  6 21  1  0  0  0  0
  7  9  1  0  0  0  0
  7 11  2  0  0  0  0
  8  9  1  0  0  0  0
  8 22  1  0  0  0  0
  8 23  1  0  0  0  0
  9 24  1  0  0  0  0
  9 25  1  0  0  0  0
 10 13  1  0  0  0  0
 10 26  1  0  0  0  0
 11 13  1  0  0  0  0
 11 27  1  0  0  0  0
 12 28  1  0  0  0  0
 12 29  1  0  0  0  0
 12 30  1  0  0  0  0
 14 15  1  0  0  0  0
 14 16  2  0  0  0  0
 15 31  1  0  0  0  0
 15 32  1  0  0  0  0
 15 33  1  0  0  0  0
 16 35  1  0  0  0  0
 16 36  1  0  0  0  0
M  END
> <PUBCHEM_COMPOUND_CID>
442371

> <PUBCHEM_CONFORMER_RMSD>
0.6

> <PUBCHEM_CONFORMER_DIVERSEORDER>
1
4
5
3
2

> <PUBCHEM_MMFF94_PARTIAL_CHARGES>
16
1 -0.68
10 0.34
11 -0.14
13 0.49
14 -0.28
15 0.14
16 -0.3
2 -0.57
27 0.15
3 0.14
34 0.4
35 0.15
36 0.15
6 0.14
7 -0.28
9 0.14

> <PUBCHEM_EFFECTIVE_ROTOR_COUNT>
2.2

> <PUBCHEM_PHARMACOPHORE_FEATURES>
5
1 1 acceptor
1 1 donor
1 2 acceptor
6 3 4 6 7 8 9 rings
6 3 5 7 10 11 13 rings

> <PUBCHEM_HEAVY_ATOM_COUNT>
16

> <PUBCHEM_ATOM_DEF_STEREO_COUNT>
4

> <PUBCHEM_ATOM_UDEF_STEREO_COUNT>
0

> <PUBCHEM_BOND_DEF_STEREO_COUNT>
0

> <PUBCHEM_BOND_UDEF_STEREO_COUNT>
0

> <PUBCHEM_ISOTOPIC_ATOM_COUNT>
0

> <PUBCHEM_COMPONENT_COUNT>
1

> <PUBCHEM_CACTVS_TAUTO_COUNT>
31

> <PUBCHEM_CONFORMER_ID>
0006C00300000001

> <PUBCHEM_MMFF94_ENERGY>
25.7083

> <PUBCHEM_FEATURE_SELFOVERLAP>
25.401

> <PUBCHEM_SHAPE_FINGERPRINT>
10498660 4 18410294730704812453
10967382 1 18339081613252506217
11132069 177 18411418414703825384
11206711 2 18410853248235861260
11543360 7 16298395634287348512
12119455 92 14476973263147334442
12173636 292 18337111292779213837
12403814 3 17561368391774252181
12491281 212 18339913930532570480
13140716 1 18124588687226595184
13221675 6 18410290328363080675
13380535 76 18343019986878930546
14614273 12 18131077077109228893
14790565 3 18046340010171455289
14897335 6 18341333374601370354
15196674 1 18411140259415061754
15442244 35 18051978309813530706
15536298 74 18336828701438150938
15775835 57 18340201985430826793
16945 1 18411416189615289250
18186145 218 18114453535471622328
20300324 65 18261393321284158710
20510252 161 18333730229882950512
20645476 183 17559945533702680862
20671657 1 18050845821342381946
20871999 31 18410302402201880797
21501502 16 18338800146813112578
21524375 3 18272367607477104410
2334 1 17835234545877575832
23402539 116 18410019823228774740
23402655 69 18337955687565368789
23557571 272 18041277681888510326
23559900 14 18333731326038464400
2748010 2 17834957468826180515
3312278 4 18411699885395930051
34934 24 18337116751840863281
353137 74 18342742939728288579
4028521 119 18410294722098865292
4340502 62 16773506785456714417
474 4 17703500077984760772
4990 188 18040148535376736846
5104073 3 18411982493985661778
7364860 26 18192996139448484298
9709674 26 18335976519754968974

> <PUBCHEM_SHAPE_MULTIPOLES>
317.53
7.17
2.19
0.94
3.34
0.32
-0.23
1.35
-1.51
-1.26
0.34
0.61
-0.01
-0.34

> <PUBCHEM_SHAPE_SELFOVERLAP>
656.484

> <PUBCHEM_SHAPE_VOLUME>
180.4

> <PUBCHEM_COORDINATE_TYPE>
2
5
10

$$$$

