5664
  -OEChem-06261200482D

 84 85  0     1  0  0  0  0  0999 V2000
    5.4641    1.8100    0.0000 O   0  0  0  0  0  0  0  0  0  0  0  0
    6.3301    0.3100    0.0000 O   0  0  0  0  0  0  0  0  0  0  0  0
    2.8660    0.3100    0.0000 O   0  0  0  0  0  0  0  0  0  0  0  0
   10.6603   -1.1900    0.0000 O   0  0  0  0  0  0  0  0  0  0  0  0
    2.8660    2.3100    0.0000 N   0  0  0  0  0  0  0  0  0  0  0  0
   11.5263   -2.6900    0.0000 N   0  0  0  0  0  0  0  0  0  0  0  0
    3.7320    1.8100    0.0000 C   0  0  3  0  0  0  0  0  0  0  0  0
    3.7320    0.8100    0.0000 C   0  0  3  0  0  0  0  0  0  0  0  0
    4.5981    2.3100    0.0000 C   0  0  3  0  0  0  0  0  0  0  0  0
    4.5981    0.3100    0.0000 C   0  0  0  0  0  0  0  0  0  0  0  0
    5.4641    0.8100    0.0000 C   0  0  3  0  0  0  0  0  0  0  0  0
    7.1962    0.8100    0.0000 C   0  0  3  0  0  0  0  0  0  0  0  0
    4.5981    3.3100    0.0000 C   0  0  0  0  0  0  0  0  0  0  0  0
    8.0622    0.3100    0.0000 C   0  0  3  0  0  0  0  0  0  0  0  0
    7.1962    1.8100    0.0000 C   0  0  0  0  0  0  0  0  0  0  0  0
    2.0000    1.8100    0.0000 C   0  0  0  0  0  0  0  0  0  0  0  0
    9.0470    0.1364    0.0000 C   0  0  0  0  0  0  0  0  0  0  0  0
    8.0622   -0.6900    0.0000 C   0  0  0  0  0  0  0  0  0  0  0  0
    8.0622    2.3100    0.0000 C   0  0  0  0  0  0  0  0  0  0  0  0
    8.9282    1.8100    0.0000 C   0  0  0  0  0  0  0  0  0  0  0  0
    8.9282   -1.1900    0.0000 C   0  0  0  0  0  0  0  0  0  0  0  0
    9.7942    2.3100    0.0000 C   0  0  0  0  0  0  0  0  0  0  0  0
   12.3923   -1.1900    0.0000 C   0  0  3  0  0  0  0  0  0  0  0  0
    9.5711    1.0440    0.0000 C   0  0  0  0  0  0  0  0  0  0  0  0
   13.2583   -0.6900    0.0000 C   0  0  0  0  0  0  0  0  0  0  0  0
   12.3923   -2.1900    0.0000 C   0  0  0  0  0  0  0  0  0  0  0  0
   10.6603    1.8100    0.0000 C   0  0  0  0  0  0  0  0  0  0  0  0
   13.2583    0.3100    0.0000 C   0  0  0  0  0  0  0  0  0  0  0  0
    8.9282   -2.1900    0.0000 C   0  0  0  0  0  0  0  0  0  0  0  0
   11.5263   -0.6900    0.0000 C   0  0  0  0  0  0  0  0  0  0  0  0
   11.5263    2.3100    0.0000 C   0  0  0  0  0  0  0  0  0  0  0  0
   12.3923    0.8100    0.0000 C   0  0  0  0  0  0  0  0  0  0  0  0
    9.7942   -2.6900    0.0000 C   0  0  0  0  0  0  0  0  0  0  0  0
   10.6603    0.8100    0.0000 C   0  0  0  0  0  0  0  0  0  0  0  0
   10.6603   -2.1900    0.0000 C   0  0  0  0  0  0  0  0  0  0  0  0
   12.3923    1.8100    0.0000 C   0  0  0  0  0  0  0  0  0  0  0  0
    3.7320    2.6600    0.0000 H   0  0  0  0  0  0  0  0  0  0  0  0
    3.7320   -0.0400    0.0000 H   0  0  0  0  0  0  0  0  0  0  0  0
    5.3342    2.7350    0.0000 H   0  0  0  0  0  0  0  0  0  0  0  0
    4.1996   -0.1649    0.0000 H   0  0  0  0  0  0  0  0  0  0  0  0
    4.9966   -0.1649    0.0000 H   0  0  0  0  0  0  0  0  0  0  0  0
    5.4641   -0.0400    0.0000 H   0  0  0  0  0  0  0  0  0  0  0  0
    6.4600    1.2350    0.0000 H   0  0  0  0  0  0  0  0  0  0  0  0
    2.8660    2.9300    0.0000 H   0  0  0  0  0  0  0  0  0  0  0  0
    5.2181    3.3100    0.0000 H   0  0  0  0  0  0  0  0  0  0  0  0
    4.5981    3.9300    0.0000 H   0  0  0  0  0  0  0  0  0  0  0  0
    3.9781    3.3100    0.0000 H   0  0  0  0  0  0  0  0  0  0  0  0
    8.3529    1.1087    0.0000 H   0  0  0  0  0  0  0  0  0  0  0  0
    6.9841    2.3926    0.0000 H   0  0  0  0  0  0  0  0  0  0  0  0
    6.5856    1.7023    0.0000 H   0  0  0  0  0  0  0  0  0  0  0  0
    2.8660   -0.3100    0.0000 H   0  0  0  0  0  0  0  0  0  0  0  0
    1.6900    2.3469    0.0000 H   0  0  0  0  0  0  0  0  0  0  0  0
    1.4631    1.5000    0.0000 H   0  0  0  0  0  0  0  0  0  0  0  0
    2.3100    1.2731    0.0000 H   0  0  0  0  0  0  0  0  0  0  0  0
    8.9393   -0.4742    0.0000 H   0  0  0  0  0  0  0  0  0  0  0  0
    9.6576    0.0287    0.0000 H   0  0  0  0  0  0  0  0  0  0  0  0
    9.1546    0.7469    0.0000 H   0  0  0  0  0  0  0  0  0  0  0  0
    7.5252   -1.0000    0.0000 H   0  0  0  0  0  0  0  0  0  0  0  0
    8.0622    2.9300    0.0000 H   0  0  0  0  0  0  0  0  0  0  0  0
    9.4651   -0.8800    0.0000 H   0  0  0  0  0  0  0  0  0  0  0  0
   10.1928    2.7849    0.0000 H   0  0  0  0  0  0  0  0  0  0  0  0
    9.3957    2.7849    0.0000 H   0  0  0  0  0  0  0  0  0  0  0  0
   11.6562   -1.6150    0.0000 H   0  0  0  0  0  0  0  0  0  0  0  0
   13.4704   -1.2726    0.0000 H   0  0  0  0  0  0  0  0  0  0  0  0
   13.8689   -0.5823    0.0000 H   0  0  0  0  0  0  0  0  0  0  0  0
    9.0962    0.6454    0.0000 H   0  0  0  0  0  0  0  0  0  0  0  0
    9.9696    0.5691    0.0000 H   0  0  0  0  0  0  0  0  0  0  0  0
   10.0460    1.4426    0.0000 H   0  0  0  0  0  0  0  0  0  0  0  0
   12.6044   -2.7726    0.0000 H   0  0  0  0  0  0  0  0  0  0  0  0
   13.0029   -2.0823    0.0000 H   0  0  0  0  0  0  0  0  0  0  0  0
   13.8689    0.2023    0.0000 H   0  0  0  0  0  0  0  0  0  0  0  0
   13.4704    0.8926    0.0000 H   0  0  0  0  0  0  0  0  0  0  0  0
    8.3913   -2.5000    0.0000 H   0  0  0  0  0  0  0  0  0  0  0  0
   11.8363   -0.1531    0.0000 H   0  0  0  0  0  0  0  0  0  0  0  0
   10.9893   -0.3800    0.0000 H   0  0  0  0  0  0  0  0  0  0  0  0
   11.2163   -1.2269    0.0000 H   0  0  0  0  0  0  0  0  0  0  0  0
   11.5263   -3.3100    0.0000 H   0  0  0  0  0  0  0  0  0  0  0  0
   11.5263    2.9300    0.0000 H   0  0  0  0  0  0  0  0  0  0  0  0
   11.8554    0.5000    0.0000 H   0  0  0  0  0  0  0  0  0  0  0  0
    9.7942   -3.3100    0.0000 H   0  0  0  0  0  0  0  0  0  0  0  0
   10.0403    0.8100    0.0000 H   0  0  0  0  0  0  0  0  0  0  0  0
   10.6603    0.1900    0.0000 H   0  0  0  0  0  0  0  0  0  0  0  0
   11.2803    0.8100    0.0000 H   0  0  0  0  0  0  0  0  0  0  0  0
   12.9292    2.1200    0.0000 H   0  0  0  0  0  0  0  0  0  0  0  0
  1  9  1  0  0  0  0
  1 11  1  0  0  0  0
  2 11  1  0  0  0  0
  2 12  1  0  0  0  0
  3  8  1  0  0  0  0
  3 51  1  0  0  0  0
  4 35  2  0  0  0  0
  5  7  1  0  0  0  0
  5 16  1  0  0  0  0
  5 44  1  0  0  0  0
  6 26  1  0  0  0  0
  6 35  1  0  0  0  0
  6 77  1  0  0  0  0
  7  8  1  0  0  0  0
  7  9  1  0  0  0  0
  7 37  1  0  0  0  0
  8 10  1  0  0  0  0
  8 38  1  0  0  0  0
  9 13  1  0  0  0  0
  9 39  1  0  0  0  0
 10 11  1  0  0  0  0
 10 40  1  0  0  0  0
 10 41  1  0  0  0  0
 11 42  1  0  0  0  0
 12 14  1  0  0  0  0
 12 15  1  0  0  0  0
 12 43  1  0  0  0  0
 13 45  1  0  0  0  0
 13 46  1  0  0  0  0
 13 47  1  0  0  0  0
 14 17  1  0  0  0  0
 14 18  1  0  0  0  0
 14 48  1  0  0  0  0
 15 19  1  0  0  0  0
 15 49  1  0  0  0  0
 15 50  1  0  0  0  0
 16 52  1  0  0  0  0
 16 53  1  0  0  0  0
 16 54  1  0  0  0  0
 17 55  1  0  0  0  0
 17 56  1  0  0  0  0
 17 57  1  0  0  0  0
 18 21  2  3  0  0  0
 18 58  1  0  0  0  0
 19 20  2  3  0  0  0
 19 59  1  0  0  0  0
 20 22  1  0  0  0  0
 20 24  1  0  0  0  0
 21 29  1  0  0  0  0
 21 60  1  0  0  0  0
 22 27  1  0  0  0  0
 22 61  1  0  0  0  0
 22 62  1  0  0  0  0
 23 25  1  0  0  0  0
 23 26  1  0  0  0  0
 23 30  1  0  0  0  0
 23 63  1  0  0  0  0
 24 66  1  0  0  0  0
 24 67  1  0  0  0  0
 24 68  1  0  0  0  0
 25 28  1  0  0  0  0
 25 64  1  0  0  0  0
 25 65  1  0  0  0  0
 26 69  1  0  0  0  0
 26 70  1  0  0  0  0
 27 31  2  3  0  0  0
 27 34  1  0  0  0  0
 28 32  1  0  0  0  0
 28 71  1  0  0  0  0
 28 72  1  0  0  0  0
 29 33  2  3  0  0  0
 29 73  1  0  0  0  0
 30 74  1  0  0  0  0
 30 75  1  0  0  0  0
 30 76  1  0  0  0  0
 31 36  1  0  0  0  0
 31 78  1  0  0  0  0
 32 36  2  3  0  0  0
 32 79  1  0  0  0  0
 33 35  1  0  0  0  0
 33 80  1  0  0  0  0
 34 81  1  0  0  0  0
 34 82  1  0  0  0  0
 34 83  1  0  0  0  0
 36 84  1  0  0  0  0
M  END
> <PUBCHEM_COMPOUND_CID>
5664

> <PUBCHEM_COMPOUND_CANONICALIZED>
1

> <PUBCHEM_CACTVS_COMPLEXITY>
829

> <PUBCHEM_CACTVS_HBOND_ACCEPTOR>
5

> <PUBCHEM_CACTVS_HBOND_DONOR>
3

> <PUBCHEM_CACTVS_ROTATABLE_BOND>
3

> <PUBCHEM_CACTVS_SUBSKEYS>
AAADcfB7OAAAAAAAAAAAAAAAAAAAAAAAAAAkAAAAAAAAAAAAAAAAHgAQCAAADTzxgAcCCALABgCIAiFSEACAAAAgAAAICIAIAEgaEAIAgQAnQAAF1gCcgYOwYAwMAAAAAAAAAAAAAAAAAAAAAAAAAAAAAA==

> <PUBCHEM_IUPAC_OPENEYE_NAME>
8-[4-hydroxy-6-methyl-5-(methylamino)tetrahydropyran-2-yl]oxy-7,11,13,19-tetramethyl-1-azacycloicosa-3,5,10,13,15-pentaen-2-one

> <PUBCHEM_IUPAC_CAS_NAME>
8-[[4-hydroxy-6-methyl-5-(methylamino)-2-oxanyl]oxy]-7,11,13,19-tetramethyl-1-azacycloeicosa-3,5,10,13,15-pentaen-2-one

> <PUBCHEM_IUPAC_NAME>
8-[4-hydroxy-6-methyl-5-(methylamino)oxan-2-yl]oxy-7,11,13,19-tetramethyl-1-azacycloicosa-3,5,10,13,15-pentaen-2-one

> <PUBCHEM_IUPAC_SYSTEMATIC_NAME>
7,11,13,19-tetramethyl-8-[6-methyl-5-(methylamino)-4-oxidanyl-oxan-2-yl]oxy-1-azacycloicosa-3,5,10,13,15-pentaen-2-one

> <PUBCHEM_IUPAC_TRADITIONAL_NAME>
8-[4-hydroxy-6-methyl-5-(methylamino)tetrahydropyran-2-yl]oxy-7,11,13,19-tetramethyl-1-azacycloeicosa-3,5,10,13,15-pentaen-2-one

> <PUBCHEM_IUPAC_INCHI>
InChI=1S/C30H48N2O4/c1-21-12-8-7-9-13-23(3)20-32-28(34)15-11-10-14-24(4)27(17-16-22(2)18-21)36-29-19-26(33)30(31-6)25(5)35-29/h7-8,10-12,14-16,23-27,29-31,33H,9,13,17-20H2,1-6H3,(H,32,34)

> <PUBCHEM_IUPAC_INCHIKEY>
FINGADBUNZWVLV-UHFFFAOYSA-N

> <PUBCHEM_XLOGP3_AA>
5

> <PUBCHEM_EXACT_MASS>
500.361408

> <PUBCHEM_MOLECULAR_FORMULA>
C30H48N2O4

> <PUBCHEM_MOLECULAR_WEIGHT>
500.71312

> <PUBCHEM_OPENEYE_CAN_SMILES>
CC1CCC=CC=C(CC(=CCC(C(C=CC=CC(=O)NC1)C)OC2CC(C(C(O2)C)NC)O)C)C

> <PUBCHEM_OPENEYE_ISO_SMILES>
CC1CCC=CC=C(CC(=CCC(C(C=CC=CC(=O)NC1)C)OC2CC(C(C(O2)C)NC)O)C)C

> <PUBCHEM_CACTVS_TPSA>
79.8

> <PUBCHEM_MONOISOTOPIC_WEIGHT>
500.361408

> <PUBCHEM_TOTAL_CHARGE>
0

> <PUBCHEM_HEAVY_ATOM_COUNT>
36

> <PUBCHEM_ATOM_DEF_STEREO_COUNT>
0

> <PUBCHEM_ATOM_UDEF_STEREO_COUNT>
7

> <PUBCHEM_BOND_DEF_STEREO_COUNT>
0

> <PUBCHEM_BOND_UDEF_STEREO_COUNT>
5

> <PUBCHEM_ISOTOPIC_ATOM_COUNT>
0

> <PUBCHEM_COMPONENT_COUNT>
1

> <PUBCHEM_CACTVS_TAUTO_COUNT>
5

> <PUBCHEM_COORDINATE_TYPE>
1
5
255

> <PUBCHEM_BONDANNOTATIONS>
11  42  3
12  43  3
14  48  3
18  21  1
19  20  1
23  63  3
27  31  1
29  33  1
32  36  1
7  37  3
8  38  3
9  39  3

$$$$

