448209
  -OEChem-07051212442D

 72 74  0     1  0  0  0  0  0999 V2000
    8.3671    1.1396    0.0000 P   0  0  3  0  0  0  0  0  0  0  0  0
    6.0010   -0.2264    0.0000 O   0  0  0  0  0  0  0  0  0  0  0  0
    7.3671    1.1396    0.0000 O   0  0  0  0  0  0  0  0  0  0  0  0
   11.4548    1.1966    0.0000 O   0  0  0  0  0  0  0  0  0  0  0  0
    8.5991   -1.7264    0.0000 O   0  0  0  0  0  0  0  0  0  0  0  0
    5.1350   -2.7264    0.0000 O   0  0  0  0  0  0  0  0  0  0  0  0
    9.3671    1.1396    0.0000 O   0  0  0  0  0  0  0  0  0  0  0  0
   11.1458    3.7657    0.0000 O   0  0  0  0  0  0  0  0  0  0  0  0
   13.2149    3.0934    0.0000 O   0  0  0  0  0  0  0  0  0  0  0  0
    4.2690   -0.2264    0.0000 O   0  0  0  0  0  0  0  0  0  0  0  0
    5.3671    1.1396    0.0000 O   0  0  0  0  0  0  0  0  0  0  0  0
    6.8671    2.0056    0.0000 O   0  0  0  0  0  0  0  0  0  0  0  0
    8.3671    2.1396    0.0000 O   0  0  0  0  0  0  0  0  0  0  0  0
    2.5369   -1.2264    0.0000 O   0  0  0  0  0  0  0  0  0  0  0  0
    8.3671    0.1396    0.0000 O   0  0  0  0  0  0  0  0  0  0  0  0
    8.5991   -2.7264    0.0000 O   0  0  0  0  0  0  0  0  0  0  0  0
   12.1968   -0.4834    0.0000 O   0  0  0  0  0  0  0  0  0  0  0  0
    6.8671   -2.7264    0.0000 N   0  0  0  0  0  0  0  0  0  0  0  0
   13.2149    0.9178    0.0000 N   0  0  0  0  0  0  0  0  0  0  0  0
   13.9194   -0.6645    0.0000 N   0  0  0  0  0  0  0  0  0  0  0  0
   15.6420   -0.8455    0.0000 N   0  0  0  0  0  0  0  0  0  0  0  0
    6.8671   -1.7264    0.0000 C   0  0  1  0  0  0  0  0  0  0  0  0
    6.0010   -1.2264    0.0000 C   0  0  2  0  0  0  0  0  0  0  0  0
    7.7331   -1.2264    0.0000 C   0  0  2  0  0  0  0  0  0  0  0  0
    7.7331   -0.2264    0.0000 C   0  0  0  0  0  0  0  0  0  0  0  0
    6.8671    0.2736    0.0000 C   0  0  1  0  0  0  0  0  0  0  0  0
    5.1350   -1.7264    0.0000 C   0  0  1  0  0  0  0  0  0  0  0  0
   10.8671    2.0056    0.0000 C   0  0  1  0  0  0  0  0  0  0  0  0
   11.4548    2.8146    0.0000 C   0  0  2  0  0  0  0  0  0  0  0  0
    4.2690   -1.2264    0.0000 C   0  0  1  0  0  0  0  0  0  0  0  0
   12.4059    2.5056    0.0000 C   0  0  2  0  0  0  0  0  0  0  0  0
   12.4059    1.5056    0.0000 C   0  0  1  0  0  0  0  0  0  0  0  0
    6.3671    1.1396    0.0000 C   0  0  0  0  0  0  0  0  0  0  0  0
    9.8671    2.0056    0.0000 C   0  0  0  0  0  0  0  0  0  0  0  0
    3.4030   -1.7264    0.0000 C   0  0  0  0  0  0  0  0  0  0  0  0
    7.7331   -3.2264    0.0000 C   0  0  0  0  0  0  0  0  0  0  0  0
   14.1285    1.3246    0.0000 C   0  0  0  0  0  0  0  0  0  0  0  0
    7.7331   -4.2264    0.0000 C   0  0  0  0  0  0  0  0  0  0  0  0
   13.1104   -0.0767    0.0000 C   0  0  0  0  0  0  0  0  0  0  0  0
   14.9375    0.7368    0.0000 C   0  0  0  0  0  0  0  0  0  0  0  0
   14.8330   -0.2577    0.0000 C   0  0  0  0  0  0  0  0  0  0  0  0
    6.3301   -2.0364    0.0000 H   0  0  0  0  0  0  0  0  0  0  0  0
    5.2649   -0.8014    0.0000 H   0  0  0  0  0  0  0  0  0  0  0  0
    7.7331   -1.8464    0.0000 H   0  0  0  0  0  0  0  0  0  0  0  0
    8.3437   -0.3341    0.0000 H   0  0  0  0  0  0  0  0  0  0  0  0
    7.9451    0.3562    0.0000 H   0  0  0  0  0  0  0  0  0  0  0  0
    5.6720   -2.0364    0.0000 H   0  0  0  0  0  0  0  0  0  0  0  0
   10.5856    1.4532    0.0000 H   0  0  0  0  0  0  0  0  0  0  0  0
   11.8933    3.2530    0.0000 H   0  0  0  0  0  0  0  0  0  0  0  0
   12.3089    3.1180    0.0000 H   0  0  0  0  0  0  0  0  0  0  0  0
    4.8059   -0.9164    0.0000 H   0  0  0  0  0  0  0  0  0  0  0  0
    6.3301   -3.0364    0.0000 H   0  0  0  0  0  0  0  0  0  0  0  0
   12.3089    0.8932    0.0000 H   0  0  0  0  0  0  0  0  0  0  0  0
    9.9747    2.6162    0.0000 H   0  0  0  0  0  0  0  0  0  0  0  0
    9.2844    2.2177    0.0000 H   0  0  0  0  0  0  0  0  0  0  0  0
    9.1360   -1.4164    0.0000 H   0  0  0  0  0  0  0  0  0  0  0  0
    3.0044   -2.2014    0.0000 H   0  0  0  0  0  0  0  0  0  0  0  0
    3.8015   -2.2014    0.0000 H   0  0  0  0  0  0  0  0  0  0  0  0
    4.5981   -3.0364    0.0000 H   0  0  0  0  0  0  0  0  0  0  0  0
   11.5607    4.2264    0.0000 H   0  0  0  0  0  0  0  0  0  0  0  0
   13.1501    3.7100    0.0000 H   0  0  0  0  0  0  0  0  0  0  0  0
    3.7320    0.0836    0.0000 H   0  0  0  0  0  0  0  0  0  0  0  0
   14.1933    1.9412    0.0000 H   0  0  0  0  0  0  0  0  0  0  0  0
    5.0571    1.6765    0.0000 H   0  0  0  0  0  0  0  0  0  0  0  0
    7.1131   -4.2264    0.0000 H   0  0  0  0  0  0  0  0  0  0  0  0
    7.7331   -4.8464    0.0000 H   0  0  0  0  0  0  0  0  0  0  0  0
    8.3531   -4.2264    0.0000 H   0  0  0  0  0  0  0  0  0  0  0  0
    8.9040    2.4496    0.0000 H   0  0  0  0  0  0  0  0  0  0  0  0
    2.0000   -1.5364    0.0000 H   0  0  0  0  0  0  0  0  0  0  0  0
   15.5039    0.9890    0.0000 H   0  0  0  0  0  0  0  0  0  0  0  0
   16.2084   -0.5934    0.0000 H   0  0  0  0  0  0  0  0  0  0  0  0
   15.5772   -1.4621    0.0000 H   0  0  0  0  0  0  0  0  0  0  0  0
  1  3  1  0  0  0  0
  1  7  1  0  0  0  0
  1 13  1  0  0  0  0
  1 15  2  0  0  0  0
  2 23  1  0  0  0  0
  2 26  1  0  0  0  0
 26  3  1  1  0  0  0
  4 28  1  0  0  0  0
  4 32  1  0  0  0  0
 24  5  1  6  0  0  0
  5 56  1  0  0  0  0
 27  6  1  6  0  0  0
  6 59  1  0  0  0  0
  7 34  1  0  0  0  0
 29  8  1  1  0  0  0
  8 60  1  0  0  0  0
 31  9  1  1  0  0  0
  9 61  1  0  0  0  0
 30 10  1  1  0  0  0
 10 62  1  0  0  0  0
 11 33  1  0  0  0  0
 11 64  1  0  0  0  0
 12 33  2  0  0  0  0
 13 68  1  0  0  0  0
 14 35  1  0  0  0  0
 14 69  1  0  0  0  0
 16 36  2  0  0  0  0
 17 39  2  0  0  0  0
 22 18  1  1  0  0  0
 18 36  1  0  0  0  0
 18 52  1  0  0  0  0
 32 19  1  6  0  0  0
 19 37  1  0  0  0  0
 19 39  1  0  0  0  0
 20 39  1  0  0  0  0
 20 41  2  0  0  0  0
 21 41  1  0  0  0  0
 21 71  1  0  0  0  0
 21 72  1  0  0  0  0
 22 23  1  0  0  0  0
 22 24  1  0  0  0  0
 22 42  1  0  0  0  0
 23 27  1  0  0  0  0
 23 43  1  1  0  0  0
 24 25  1  0  0  0  0
 24 44  1  0  0  0  0
 25 26  1  0  0  0  0
 25 45  1  0  0  0  0
 25 46  1  0  0  0  0
 26 33  1  0  0  0  0
 27 30  1  0  0  0  0
 27 47  1  0  0  0  0
 28 29  1  0  0  0  0
 28 34  1  6  0  0  0
 28 48  1  0  0  0  0
 29 31  1  0  0  0  0
 29 49  1  0  0  0  0
 30 35  1  0  0  0  0
 30 51  1  0  0  0  0
 31 32  1  0  0  0  0
 31 50  1  0  0  0  0
 32 53  1  0  0  0  0
 34 54  1  0  0  0  0
 34 55  1  0  0  0  0
 35 57  1  0  0  0  0
 35 58  1  0  0  0  0
 36 38  1  0  0  0  0
 37 40  2  0  0  0  0
 37 63  1  0  0  0  0
 38 65  1  0  0  0  0
 38 66  1  0  0  0  0
 38 67  1  0  0  0  0
 40 41  1  0  0  0  0
 40 70  1  0  0  0  0
M  END
> <PUBCHEM_COMPOUND_CID>
448209

> <PUBCHEM_COMPOUND_CANONICALIZED>
1

> <PUBCHEM_CACTVS_COMPLEXITY>
1120

> <PUBCHEM_CACTVS_HBOND_ACCEPTOR>
16

> <PUBCHEM_CACTVS_HBOND_DONOR>
10

> <PUBCHEM_CACTVS_ROTATABLE_BOND>
11

> <PUBCHEM_CACTVS_SUBSKEYS>
AAADceB7vgIAAAAAAAAAAAAAAAAAASAAAAAkQAAAAAAAAAAAAAAAHgAQCCAACDzhgAYDCAPABxCoQCP2fIKAAAEAAgAIAIFYABCTEBIAgAQPQAAHFgKXAAH6+aeQAAAAAAAAAAAAAAAAAAAAAAAAAAAAAA==

> <PUBCHEM_IUPAC_OPENEYE_NAME>
(2R,4S,5R,6R)-5-acetamido-2-[[(2R,3S,4R,5R)-5-(4-amino-2-oxo-pyrimidin-1-yl)-3,4-dihydroxy-tetrahydrofuran-2-yl]methoxy-hydroxy-phosphoryl]oxy-4-hydroxy-6-[(1R,2R)-1,2,3-trihydroxypropyl]tetrahydropyran-2-carboxylic acid

> <PUBCHEM_IUPAC_CAS_NAME>
(2R,4S,5R,6R)-5-acetamido-2-[[(2R,3S,4R,5R)-5-(4-amino-2-oxo-1-pyrimidinyl)-3,4-dihydroxy-2-oxolanyl]methoxy-hydroxyphosphoryl]oxy-4-hydroxy-6-[(1R,2R)-1,2,3-trihydroxypropyl]-2-oxanecarboxylic acid

> <PUBCHEM_IUPAC_NAME>
(2R,4S,5R,6R)-5-acetamido-2-[[(2R,3S,4R,5R)-5-(4-amino-2-oxopyrimidin-1-yl)-3,4-dihydroxyoxolan-2-yl]methoxy-hydroxyphosphoryl]oxy-4-hydroxy-6-[(1R,2R)-1,2,3-trihydroxypropyl]oxane-2-carboxylic acid

> <PUBCHEM_IUPAC_SYSTEMATIC_NAME>
(2R,4S,5R,6R)-5-acetamido-2-[[(2R,3S,4R,5R)-5-(4-azanyl-2-oxidanylidene-pyrimidin-1-yl)-3,4-bis(oxidanyl)oxolan-2-yl]methoxy-oxidanyl-phosphoryl]oxy-4-oxidanyl-6-[(1R,2R)-1,2,3-tris(oxidanyl)propyl]oxane-2-carboxylic acid

> <PUBCHEM_IUPAC_TRADITIONAL_NAME>
(2R,4S,5R,6R)-5-acetamido-2-[[(2R,3S,4R,5R)-5-(4-amino-2-keto-pyrimidin-1-yl)-3,4-dihydroxy-tetrahydrofuran-2-yl]methoxy-hydroxy-phosphoryl]oxy-4-hydroxy-6-[(1R,2R)-1,2,3-trihydroxypropyl]tetrahydropyran-2-carboxylic acid

> <PUBCHEM_IUPAC_INCHI>
InChI=1S/C20H31N4O16P/c1-7(26)22-12-8(27)4-20(18(32)33,39-16(12)13(29)9(28)5-25)40-41(35,36)37-6-10-14(30)15(31)17(38-10)24-3-2-11(21)23-19(24)34/h2-3,8-10,12-17,25,27-31H,4-6H2,1H3,(H,22,26)(H,32,33)(H,35,36)(H2,21,23,34)/t8-,9+,10+,12+,13+,14+,15+,16+,17+,20+/m0/s1

> <PUBCHEM_IUPAC_INCHIKEY>
TXCIAUNLDRJGJZ-BILDWYJOSA-N

> <PUBCHEM_XLOGP3_AA>
-6.7

> <PUBCHEM_EXACT_MASS>
614.147268

> <PUBCHEM_MOLECULAR_FORMULA>
C20H31N4O16P

> <PUBCHEM_MOLECULAR_WEIGHT>
614.451102

> <PUBCHEM_OPENEYE_CAN_SMILES>
CC(=O)NC1C(CC(OC1C(C(CO)O)O)(C(=O)O)OP(=O)(O)OCC2C(C(C(O2)N3C=CC(=NC3=O)N)O)O)O

> <PUBCHEM_OPENEYE_ISO_SMILES>
CC(=O)N[C@@H]1[C@H](C[C@](O[C@H]1[C@@H]([C@@H](CO)O)O)(C(=O)O)OP(=O)(O)OC[C@@H]2[C@H]([C@H]([C@@H](O2)N3C=CC(=NC3=O)N)O)O)O

> <PUBCHEM_CACTVS_TPSA>
321

> <PUBCHEM_MONOISOTOPIC_WEIGHT>
614.147268

> <PUBCHEM_TOTAL_CHARGE>
0

> <PUBCHEM_HEAVY_ATOM_COUNT>
41

> <PUBCHEM_ATOM_DEF_STEREO_COUNT>
10

> <PUBCHEM_ATOM_UDEF_STEREO_COUNT>
0

> <PUBCHEM_BOND_DEF_STEREO_COUNT>
0

> <PUBCHEM_BOND_UDEF_STEREO_COUNT>
0

> <PUBCHEM_ISOTOPIC_ATOM_COUNT>
0

> <PUBCHEM_COMPONENT_COUNT>
1

> <PUBCHEM_CACTVS_TAUTO_COUNT>
6

> <PUBCHEM_COORDINATE_TYPE>
1
5
255

> <PUBCHEM_BONDANNOTATIONS>
30  10  5
22  18  5
32  19  6
19  37  8
19  39  8
20  39  8
20  41  8
23  43  5
28  34  6
26  3  5
37  40  8
40  41  8
24  5  6
27  6  6
29  8  5
31  9  5

$$$$

