53297338
  -OEChem-07051212502D

 81 84  0     1  0  0  0  0  0999 V2000
   14.3424    4.2276    0.0000 S   0  0  0  0  0  0  0  0  0  0  0  0
    7.0628   -0.1546    0.0000 O   0  0  0  0  0  0  0  0  0  0  0  0
    7.9506   -4.6860    0.0000 O   0  0  0  0  0  0  0  0  0  0  0  0
    2.5357   -4.7069    0.0000 O   0  0  0  0  0  0  0  0  0  0  0  0
   12.1212    0.2193    0.0000 O   0  0  0  0  0  0  0  0  0  0  0  0
   14.0317    3.2771    0.0000 O   0  0  0  0  0  0  0  0  0  0  0  0
   14.6530    5.1781    0.0000 O   0  0  0  0  0  0  0  0  0  0  0  0
   15.2929    3.9170    0.0000 O   0  0  0  0  0  0  0  0  0  0  0  0
   13.3919    4.5383    0.0000 O   0  0  0  0  0  0  0  0  0  0  0  0
   11.7640    1.9142    0.0000 N   0  0  0  0  0  0  0  0  0  0  0  0
    7.9288   -1.6546    0.0000 C   0  0  1  0  0  0  0  0  0  0  0  0
    7.9288   -2.6546    0.0000 C   0  0  2  0  0  0  0  0  0  0  0  0
    7.0628   -3.1546    0.0000 C   0  0  3  0  0  0  0  0  0  0  0  0
    6.1968   -2.6546    0.0000 C   0  0  1  0  0  0  0  0  0  0  0  0
    5.2868   -3.1614    0.0000 C   0  0  2  0  0  0  0  0  0  0  0  0
    8.8750   -1.3498    0.0000 C   0  0  2  0  0  0  0  0  0  0  0  0
    7.0628   -1.1546    0.0000 C   0  0  2  0  0  0  0  0  0  0  0  0
    6.1968   -1.6546    0.0000 C   0  0  0  0  0  0  0  0  0  0  0  0
    5.2787   -4.2030    0.0000 C   0  0  2  0  0  0  0  0  0  0  0  0
    8.8750   -2.9593    0.0000 C   0  0  0  0  0  0  0  0  0  0  0  0
    7.0789   -4.1961    0.0000 C   0  0  1  0  0  0  0  0  0  0  0  0
    9.4586   -2.1546    0.0000 C   0  0  0  0  0  0  0  0  0  0  0  0
    6.1808   -4.7238    0.0000 C   0  0  0  0  0  0  0  0  0  0  0  0
    4.3599   -2.5974    0.0000 C   0  0  0  0  0  0  0  0  0  0  0  0
    7.9288   -0.6546    0.0000 C   0  0  0  0  0  0  0  0  0  0  0  0
    9.1857   -0.3993    0.0000 C   0  0  1  0  0  0  0  0  0  0  0  0
    4.3433   -4.7528    0.0000 C   0  0  0  0  0  0  0  0  0  0  0  0
    5.2945   -2.1615    0.0000 C   0  0  0  0  0  0  0  0  0  0  0  0
    3.4120   -3.1253    0.0000 C   0  0  0  0  0  0  0  0  0  0  0  0
    3.4037   -4.2103    0.0000 C   0  0  1  0  0  0  0  0  0  0  0  0
   10.1642   -0.1931    0.0000 C   0  0  0  0  0  0  0  0  0  0  0  0
    8.5179    0.3450    0.0000 C   0  0  0  0  0  0  0  0  0  0  0  0
   10.4749    0.7574    0.0000 C   0  0  0  0  0  0  0  0  0  0  0  0
   11.4534    0.9636    0.0000 C   0  0  0  0  0  0  0  0  0  0  0  0
   12.7425    2.1204    0.0000 C   0  0  0  0  0  0  0  0  0  0  0  0
   13.0532    3.0709    0.0000 C   0  0  0  0  0  0  0  0  0  0  0  0
    8.0188   -3.4998    0.0000 H   0  0  0  0  0  0  0  0  0  0  0  0
    7.6021   -3.4604    0.0000 H   0  0  0  0  0  0  0  0  0  0  0  0
    6.9329   -2.2296    0.0000 H   0  0  0  0  0  0  0  0  0  0  0  0
    9.7148   -1.2180    0.0000 H   0  0  0  0  0  0  0  0  0  0  0  0
    7.5997   -0.8446    0.0000 H   0  0  0  0  0  0  0  0  0  0  0  0
    5.9847   -1.0720    0.0000 H   0  0  0  0  0  0  0  0  0  0  0  0
    5.5862   -1.7622    0.0000 H   0  0  0  0  0  0  0  0  0  0  0  0
    5.2820   -5.0530    0.0000 H   0  0  0  0  0  0  0  0  0  0  0  0
    8.6240   -3.5262    0.0000 H   0  0  0  0  0  0  0  0  0  0  0  0
    9.4124   -3.2685    0.0000 H   0  0  0  0  0  0  0  0  0  0  0  0
    7.6116   -3.8789    0.0000 H   0  0  0  0  0  0  0  0  0  0  0  0
    9.9195   -2.5693    0.0000 H   0  0  0  0  0  0  0  0  0  0  0  0
    9.9195   -1.7399    0.0000 H   0  0  0  0  0  0  0  0  0  0  0  0
    5.7835   -5.1998    0.0000 H   0  0  0  0  0  0  0  0  0  0  0  0
    6.5818   -5.1967    0.0000 H   0  0  0  0  0  0  0  0  0  0  0  0
    4.7681   -2.1307    0.0000 H   0  0  0  0  0  0  0  0  0  0  0  0
    3.9700   -2.1153    0.0000 H   0  0  0  0  0  0  0  0  0  0  0  0
    8.5488   -0.6546    0.0000 H   0  0  0  0  0  0  0  0  0  0  0  0
    7.9288   -0.0346    0.0000 H   0  0  0  0  0  0  0  0  0  0  0  0
    7.3088   -0.6546    0.0000 H   0  0  0  0  0  0  0  0  0  0  0  0
    9.3783    0.1900    0.0000 H   0  0  0  0  0  0  0  0  0  0  0  0
    3.9460   -5.2287    0.0000 H   0  0  0  0  0  0  0  0  0  0  0  0
    4.7443   -5.2256    0.0000 H   0  0  0  0  0  0  0  0  0  0  0  0
    5.9145   -2.1662    0.0000 H   0  0  0  0  0  0  0  0  0  0  0  0
    5.2993   -1.5415    0.0000 H   0  0  0  0  0  0  0  0  0  0  0  0
    4.6745   -2.1567    0.0000 H   0  0  0  0  0  0  0  0  0  0  0  0
    3.2075   -2.5400    0.0000 H   0  0  0  0  0  0  0  0  0  0  0  0
    2.8004   -3.2267    0.0000 H   0  0  0  0  0  0  0  0  0  0  0  0
    3.4025   -4.8303    0.0000 H   0  0  0  0  0  0  0  0  0  0  0  0
    6.5259    0.1554    0.0000 H   0  0  0  0  0  0  0  0  0  0  0  0
   10.1848   -0.8128    0.0000 H   0  0  0  0  0  0  0  0  0  0  0  0
   10.7780   -0.2805    0.0000 H   0  0  0  0  0  0  0  0  0  0  0  0
    7.9578   -5.3060    0.0000 H   0  0  0  0  0  0  0  0  0  0  0  0
    8.9793    0.7590    0.0000 H   0  0  0  0  0  0  0  0  0  0  0  0
    8.1038    0.8064    0.0000 H   0  0  0  0  0  0  0  0  0  0  0  0
    8.0564   -0.0691    0.0000 H   0  0  0  0  0  0  0  0  0  0  0  0
    2.0000   -4.3948    0.0000 H   0  0  0  0  0  0  0  0  0  0  0  0
   10.4543    1.3771    0.0000 H   0  0  0  0  0  0  0  0  0  0  0  0
    9.8611    0.8448    0.0000 H   0  0  0  0  0  0  0  0  0  0  0  0
   11.3500    2.3756    0.0000 H   0  0  0  0  0  0  0  0  0  0  0  0
   12.7631    1.5007    0.0000 H   0  0  0  0  0  0  0  0  0  0  0  0
   13.3564    2.0330    0.0000 H   0  0  0  0  0  0  0  0  0  0  0  0
   13.0326    3.6906    0.0000 H   0  0  0  0  0  0  0  0  0  0  0  0
   12.4394    3.1582    0.0000 H   0  0  0  0  0  0  0  0  0  0  0  0
   15.2597    5.3060    0.0000 H   0  0  0  0  0  0  0  0  0  0  0  0
  1  6  1  0  0  0  0
  1  7  1  0  0  0  0
  1  8  2  0  0  0  0
  1  9  2  0  0  0  0
 17  2  1  6  0  0  0
  2 66  1  0  0  0  0
  3 21  1  0  0  0  0
  3 69  1  0  0  0  0
 30  4  1  6  0  0  0
  4 73  1  0  0  0  0
  5 34  2  0  0  0  0
  6 36  1  0  0  0  0
  7 81  1  0  0  0  0
 10 34  1  0  0  0  0
 10 35  1  0  0  0  0
 10 76  1  0  0  0  0
 11 12  1  0  0  0  0
 11 16  1  0  0  0  0
 11 17  1  0  0  0  0
 11 25  1  1  0  0  0
 12 13  1  0  0  0  0
 12 20  1  0  0  0  0
 12 37  1  6  0  0  0
 13 14  1  0  0  0  0
 13 21  1  0  0  0  0
 13 38  1  0  0  0  0
 14 15  1  0  0  0  0
 14 18  1  0  0  0  0
 14 39  1  6  0  0  0
 15 19  1  0  0  0  0
 15 24  1  0  0  0  0
 15 28  1  1  0  0  0
 16 22  1  0  0  0  0
 16 26  1  0  0  0  0
 16 40  1  6  0  0  0
 17 18  1  0  0  0  0
 17 41  1  0  0  0  0
 18 42  1  0  0  0  0
 18 43  1  0  0  0  0
 19 23  1  0  0  0  0
 19 27  1  0  0  0  0
 19 44  1  1  0  0  0
 20 22  1  0  0  0  0
 20 45  1  0  0  0  0
 20 46  1  0  0  0  0
 21 23  1  0  0  0  0
 21 47  1  0  0  0  0
 22 48  1  0  0  0  0
 22 49  1  0  0  0  0
 23 50  1  0  0  0  0
 23 51  1  0  0  0  0
 24 29  1  0  0  0  0
 24 52  1  0  0  0  0
 24 53  1  0  0  0  0
 25 54  1  0  0  0  0
 25 55  1  0  0  0  0
 25 56  1  0  0  0  0
 26 31  1  0  0  0  0
 26 32  1  6  0  0  0
 26 57  1  0  0  0  0
 27 30  1  0  0  0  0
 27 58  1  0  0  0  0
 27 59  1  0  0  0  0
 28 60  1  0  0  0  0
 28 61  1  0  0  0  0
 28 62  1  0  0  0  0
 29 30  1  0  0  0  0
 29 63  1  0  0  0  0
 29 64  1  0  0  0  0
 30 65  1  0  0  0  0
 31 33  1  0  0  0  0
 31 67  1  0  0  0  0
 31 68  1  0  0  0  0
 32 70  1  0  0  0  0
 32 71  1  0  0  0  0
 32 72  1  0  0  0  0
 33 34  1  0  0  0  0
 33 74  1  0  0  0  0
 33 75  1  0  0  0  0
 35 36  1  0  0  0  0
 35 77  1  0  0  0  0
 35 78  1  0  0  0  0
 36 79  1  0  0  0  0
 36 80  1  0  0  0  0
M  END
> <PUBCHEM_COMPOUND_CID>
53297338

> <PUBCHEM_COMPOUND_CANONICALIZED>
1

> <PUBCHEM_CACTVS_COMPLEXITY>
908

> <PUBCHEM_CACTVS_HBOND_ACCEPTOR>
8

> <PUBCHEM_CACTVS_HBOND_DONOR>
5

> <PUBCHEM_CACTVS_ROTATABLE_BOND>
8

> <PUBCHEM_CACTVS_SUBSKEYS>
AAADcfB6PABAAAAAAAAAAAAAAAAAAYAAAAAwYMAAAAAAAGDAAAAAHgAQCAAADxThgAYCAALAAoAIAAEQEDAAAAAAAAAAAIEIAAACEBIAgAAEQAAEFgCQAAGY6PSPgAAAAAAAAADAAAYAADAAAQAACAAAAA==

> <PUBCHEM_IUPAC_OPENEYE_NAME>
2-[[(4R)-4-[(3R,5S,7R,9S,10S,12S,13R,14S,17R)-3,7,12-trihydroxy-10,13-dimethyl-2,3,4,5,6,7,8,9,11,12,14,15,16,17-tetradecahydro-1H-cyclopenta[a]phenanthren-17-yl]pentanoyl]amino]ethyl hydrogen sulfate

> <PUBCHEM_IUPAC_CAS_NAME>
sulfuric acid 2-[[(4R)-1-oxo-4-[(3R,5S,7R,9S,10S,12S,13R,14S,17R)-3,7,12-trihydroxy-10,13-dimethyl-2,3,4,5,6,7,8,9,11,12,14,15,16,17-tetradecahydro-1H-cyclopenta[a]phenanthren-17-yl]pentyl]amino]ethyl ester

> <PUBCHEM_IUPAC_NAME>
2-[[(4R)-4-[(3R,5S,7R,9S,10S,12S,13R,14S,17R)-3,7,12-trihydroxy-10,13-dimethyl-2,3,4,5,6,7,8,9,11,12,14,15,16,17-tetradecahydro-1H-cyclopenta[a]phenanthren-17-yl]pentanoyl]amino]ethyl hydrogen sulfate

> <PUBCHEM_IUPAC_SYSTEMATIC_NAME>
2-[[(4R)-4-[(3R,5S,7R,9S,10S,12S,13R,14S,17R)-10,13-dimethyl-3,7,12-tris(oxidanyl)-2,3,4,5,6,7,8,9,11,12,14,15,16,17-tetradecahydro-1H-cyclopenta[a]phenanthren-17-yl]pentanoyl]amino]ethyl hydrogen sulfate

> <PUBCHEM_IUPAC_TRADITIONAL_NAME>
sulfuric acid 2-[[(4R)-4-[(3R,5S,7R,9S,10S,12S,13R,14S,17R)-3,7,12-trihydroxy-10,13-dimethyl-2,3,4,5,6,7,8,9,11,12,14,15,16,17-tetradecahydro-1H-cyclopenta[a]phenanthren-17-yl]pentanoyl]amino]ethyl ester

> <PUBCHEM_IUPAC_INCHI>
InChI=1S/C26H45NO8S/c1-15(4-7-23(31)27-10-11-35-36(32,33)34)18-5-6-19-24-20(14-22(30)26(18,19)3)25(2)9-8-17(28)12-16(25)13-21(24)29/h15-22,24,28-30H,4-14H2,1-3H3,(H,27,31)(H,32,33,34)/t15-,16+,17-,18-,19+,20+,21-,22+,24?,25+,26-/m1/s1

> <PUBCHEM_IUPAC_INCHIKEY>
FZLMIZAHBFKTSH-IECFWMJSSA-N

> <PUBCHEM_XLOGP3_AA>
2.3

> <PUBCHEM_EXACT_MASS>
531.286588

> <PUBCHEM_MOLECULAR_FORMULA>
C26H45NO8S

> <PUBCHEM_MOLECULAR_WEIGHT>
531.7024

> <PUBCHEM_OPENEYE_CAN_SMILES>
CC(CCC(=O)NCCOS(=O)(=O)O)C1CCC2C1(C(CC3C2C(CC4C3(CCC(C4)O)C)O)O)C

> <PUBCHEM_OPENEYE_ISO_SMILES>
C[C@H](CCC(=O)NCCOS(=O)(=O)O)[C@H]1CC[C@@H]2[C@@]1([C@H](C[C@H]3C2[C@@H](C[C@H]4[C@@]3(CC[C@H](C4)O)C)O)O)C

> <PUBCHEM_CACTVS_TPSA>
162

> <PUBCHEM_MONOISOTOPIC_WEIGHT>
531.286588

> <PUBCHEM_TOTAL_CHARGE>
0

> <PUBCHEM_HEAVY_ATOM_COUNT>
36

> <PUBCHEM_ATOM_DEF_STEREO_COUNT>
10

> <PUBCHEM_ATOM_UDEF_STEREO_COUNT>
1

> <PUBCHEM_BOND_DEF_STEREO_COUNT>
0

> <PUBCHEM_BOND_UDEF_STEREO_COUNT>
0

> <PUBCHEM_ISOTOPIC_ATOM_COUNT>
0

> <PUBCHEM_COMPONENT_COUNT>
1

> <PUBCHEM_CACTVS_TAUTO_COUNT>
2

> <PUBCHEM_COORDINATE_TYPE>
1
5
255

> <PUBCHEM_BONDANNOTATIONS>
11  25  5
12  37  6
13  21  3
14  39  6
15  28  5
16  40  6
19  44  5
17  2  6
26  32  6
30  4  6

$$$$

