17396148
  -OEChem-06241222542D

 43 45  0     0  0  0  0  0  0999 V2000
    4.6261    0.4806    0.0000 O   0  0  0  0  0  0  0  0  0  0  0  0
    3.7601   -2.0194    0.0000 O   0  0  0  0  0  0  0  0  0  0  0  0
    4.2601    3.5194    0.0000 O   0  0  0  0  0  0  0  0  0  0  0  0
    4.6261   -3.5194    0.0000 O   0  0  0  0  0  0  0  0  0  0  0  0
    2.8940    0.4806    0.0000 O   0  0  0  0  0  0  0  0  0  0  0  0
    6.3582   -0.5194    0.0000 N   0  0  0  0  0  0  0  0  0  0  0  0
    3.2601    3.5194    0.0000 N   0  0  0  0  0  0  0  0  0  0  0  0
    5.5202    2.2594    0.0000 N   0  0  0  0  0  0  0  0  0  0  0  0
    6.3582   -2.5194    0.0000 C   0  0  0  0  0  0  0  0  0  0  0  0
    7.2242   -2.0194    0.0000 C   0  0  0  0  0  0  0  0  0  0  0  0
    5.4921   -2.0194    0.0000 C   0  0  0  0  0  0  0  0  0  0  0  0
    5.4921   -1.0194    0.0000 C   0  0  0  0  0  0  0  0  0  0  0  0
    7.2242   -1.0194    0.0000 C   0  0  0  0  0  0  0  0  0  0  0  0
    4.6261   -0.5194    0.0000 C   0  0  0  0  0  0  0  0  0  0  0  0
    6.3582   -3.5194    0.0000 C   0  0  0  0  0  0  0  0  0  0  0  0
    8.1181   -2.5541    0.0000 C   0  0  0  0  0  0  0  0  0  0  0  0
    8.1181   -0.4848    0.0000 C   0  0  0  0  0  0  0  0  0  0  0  0
    4.6261   -2.5194    0.0000 C   0  0  0  0  0  0  0  0  0  0  0  0
    9.0242   -2.0402    0.0000 C   0  0  0  0  0  0  0  0  0  0  0  0
    9.0242   -0.9986    0.0000 C   0  0  0  0  0  0  0  0  0  0  0  0
    3.7601    1.9806    0.0000 C   0  0  0  0  0  0  0  0  0  0  0  0
    3.7601    0.9806    0.0000 C   0  0  0  0  0  0  0  0  0  0  0  0
    2.9511    2.5684    0.0000 C   0  0  0  0  0  0  0  0  0  0  0  0
    4.5691    2.5684    0.0000 C   0  0  0  0  0  0  0  0  0  0  0  0
    2.0000    2.2594    0.0000 C   0  0  0  0  0  0  0  0  0  0  0  0
    2.8940   -2.5194    0.0000 C   0  0  0  0  0  0  0  0  0  0  0  0
    4.0155   -0.4118    0.0000 H   0  0  0  0  0  0  0  0  0  0  0  0
    4.4140   -1.1020    0.0000 H   0  0  0  0  0  0  0  0  0  0  0  0
    5.7382   -3.5194    0.0000 H   0  0  0  0  0  0  0  0  0  0  0  0
    6.3582   -4.1394    0.0000 H   0  0  0  0  0  0  0  0  0  0  0  0
    6.9782   -3.5194    0.0000 H   0  0  0  0  0  0  0  0  0  0  0  0
    8.1110   -3.1740    0.0000 H   0  0  0  0  0  0  0  0  0  0  0  0
    8.1110    0.1352    0.0000 H   0  0  0  0  0  0  0  0  0  0  0  0
    9.5599   -2.3523    0.0000 H   0  0  0  0  0  0  0  0  0  0  0  0
    9.5599   -0.6865    0.0000 H   0  0  0  0  0  0  0  0  0  0  0  0
    1.8084    2.8490    0.0000 H   0  0  0  0  0  0  0  0  0  0  0  0
    1.4103    2.0678    0.0000 H   0  0  0  0  0  0  0  0  0  0  0  0
    2.1916    1.6697    0.0000 H   0  0  0  0  0  0  0  0  0  0  0  0
    2.5840   -1.9825    0.0000 H   0  0  0  0  0  0  0  0  0  0  0  0
    2.3571   -2.8294    0.0000 H   0  0  0  0  0  0  0  0  0  0  0  0
    3.2040   -3.0564    0.0000 H   0  0  0  0  0  0  0  0  0  0  0  0
    5.9809    2.6742    0.0000 H   0  0  0  0  0  0  0  0  0  0  0  0
    5.6490    1.6529    0.0000 H   0  0  0  0  0  0  0  0  0  0  0  0
  1 14  1  0  0  0  0
  1 22  1  0  0  0  0
  2 18  1  0  0  0  0
  2 26  1  0  0  0  0
  3  7  1  0  0  0  0
  3 24  1  0  0  0  0
  4 18  2  0  0  0  0
  5 22  2  0  0  0  0
  6 12  2  0  0  0  0
  6 13  1  0  0  0  0
  7 23  2  0  0  0  0
  8 24  1  0  0  0  0
  8 42  1  0  0  0  0
  8 43  1  0  0  0  0
  9 10  1  0  0  0  0
  9 11  2  0  0  0  0
  9 15  1  0  0  0  0
 10 13  1  0  0  0  0
 10 16  2  0  0  0  0
 11 12  1  0  0  0  0
 11 18  1  0  0  0  0
 12 14  1  0  0  0  0
 13 17  2  0  0  0  0
 14 27  1  0  0  0  0
 14 28  1  0  0  0  0
 15 29  1  0  0  0  0
 15 30  1  0  0  0  0
 15 31  1  0  0  0  0
 16 19  1  0  0  0  0
 16 32  1  0  0  0  0
 17 20  1  0  0  0  0
 17 33  1  0  0  0  0
 19 20  2  0  0  0  0
 19 34  1  0  0  0  0
 20 35  1  0  0  0  0
 21 22  1  0  0  0  0
 21 23  1  0  0  0  0
 21 24  2  0  0  0  0
 23 25  1  0  0  0  0
 25 36  1  0  0  0  0
 25 37  1  0  0  0  0
 25 38  1  0  0  0  0
 26 39  1  0  0  0  0
 26 40  1  0  0  0  0
 26 41  1  0  0  0  0
M  END
> <PUBCHEM_COMPOUND_CID>
17396148

> <PUBCHEM_COMPOUND_CANONICALIZED>
1

> <PUBCHEM_CACTVS_COMPLEXITY>
531

> <PUBCHEM_CACTVS_HBOND_ACCEPTOR>
8

> <PUBCHEM_CACTVS_HBOND_DONOR>
1

> <PUBCHEM_CACTVS_ROTATABLE_BOND>
6

> <PUBCHEM_CACTVS_SUBSKEYS>
AAADceB7OAAAAAAAAAAAAAAAAAAAAWAAAAA8QAAAAAAAAACx/AAAHgAUAAAADAihngIyzPJYFACpAyXyXgSCgCAlIiAomCE0bNsKJ/7I9duHNchn4BnY6Ufa2fOegAAAAAACAAAAAAAAAAQAAAAAAAAAAA==

> <PUBCHEM_IUPAC_OPENEYE_NAME>
(3-methoxycarbonyl-4-methyl-2-quinolyl)methyl 5-amino-3-methyl-isoxazole-4-carboxylate

> <PUBCHEM_IUPAC_CAS_NAME>
5-amino-3-methyl-4-isoxazolecarboxylic acid (3-methoxycarbonyl-4-methyl-2-quinolinyl)methyl ester

> <PUBCHEM_IUPAC_NAME>
(3-methoxycarbonyl-4-methylquinolin-2-yl)methyl 5-amino-3-methyl-1,2-oxazole-4-carboxylate

> <PUBCHEM_IUPAC_SYSTEMATIC_NAME>
(3-methoxycarbonyl-4-methyl-quinolin-2-yl)methyl 5-azanyl-3-methyl-1,2-oxazole-4-carboxylate

> <PUBCHEM_IUPAC_TRADITIONAL_NAME>
5-amino-3-methyl-isoxazole-4-carboxylic acid (3-carbomethoxy-4-methyl-2-quinolyl)methyl ester

> <PUBCHEM_IUPAC_INCHI>
InChI=1S/C18H17N3O5/c1-9-11-6-4-5-7-12(11)20-13(14(9)17(22)24-3)8-25-18(23)15-10(2)21-26-16(15)19/h4-7H,8,19H2,1-3H3

> <PUBCHEM_IUPAC_INCHIKEY>
PPEKNNMIZKXXEY-UHFFFAOYSA-N

> <PUBCHEM_XLOGP3_AA>
2.8

> <PUBCHEM_EXACT_MASS>
355.116821

> <PUBCHEM_MOLECULAR_FORMULA>
C18H17N3O5

> <PUBCHEM_MOLECULAR_WEIGHT>
355.34468

> <PUBCHEM_OPENEYE_CAN_SMILES>
CC1=C(C(=NC2=CC=CC=C12)COC(=O)C3=C(ON=C3C)N)C(=O)OC

> <PUBCHEM_OPENEYE_ISO_SMILES>
CC1=C(C(=NC2=CC=CC=C12)COC(=O)C3=C(ON=C3C)N)C(=O)OC

> <PUBCHEM_CACTVS_TPSA>
118

> <PUBCHEM_MONOISOTOPIC_WEIGHT>
355.116821

> <PUBCHEM_TOTAL_CHARGE>
0

> <PUBCHEM_HEAVY_ATOM_COUNT>
26

> <PUBCHEM_ATOM_DEF_STEREO_COUNT>
0

> <PUBCHEM_ATOM_UDEF_STEREO_COUNT>
0

> <PUBCHEM_BOND_DEF_STEREO_COUNT>
0

> <PUBCHEM_BOND_UDEF_STEREO_COUNT>
0

> <PUBCHEM_ISOTOPIC_ATOM_COUNT>
0

> <PUBCHEM_COMPONENT_COUNT>
1

> <PUBCHEM_CACTVS_TAUTO_COUNT>
7

> <PUBCHEM_COORDINATE_TYPE>
1
5
255

> <PUBCHEM_BONDANNOTATIONS>
10  13  8
10  16  8
11  12  8
13  17  8
16  19  8
17  20  8
19  20  8
21  23  8
21  24  8
3  24  8
3  7  8
6  12  8
6  13  8
7  23  8
9  10  8
9  11  8

$$$$

