9127
  -OEChem-06261203262D

 44 50  0     0  0  0  0  0  0999 V2000
    4.6136    0.6686    0.0000 C   0  0  0  0  0  0  0  0  0  0  0  0
    3.7476    1.1686    0.0000 C   0  0  0  0  0  0  0  0  0  0  0  0
    5.4796    1.1686    0.0000 C   0  0  0  0  0  0  0  0  0  0  0  0
    4.5976   -0.3729    0.0000 C   0  0  0  0  0  0  0  0  0  0  0  0
    3.7476    2.1686    0.0000 C   0  0  0  0  0  0  0  0  0  0  0  0
    5.4956   -0.9006    0.0000 C   0  0  0  0  0  0  0  0  0  0  0  0
    5.4796    2.1686    0.0000 C   0  0  0  0  0  0  0  0  0  0  0  0
    4.6136    2.6686    0.0000 C   0  0  0  0  0  0  0  0  0  0  0  0
    6.3977   -0.3798    0.0000 C   0  0  0  0  0  0  0  0  0  0  0  0
    2.8881    0.6738    0.0000 C   0  0  0  0  0  0  0  0  0  0  0  0
    6.3896    0.6618    0.0000 C   0  0  0  0  0  0  0  0  0  0  0  0
    3.7204   -0.8356    0.0000 C   0  0  0  0  0  0  0  0  0  0  0  0
    2.8747   -0.3178    0.0000 C   0  0  0  0  0  0  0  0  0  0  0  0
    5.4789   -1.9855    0.0000 C   0  0  0  0  0  0  0  0  0  0  0  0
    2.8768    2.6828    0.0000 C   0  0  0  0  0  0  0  0  0  0  0  0
    7.3456   -0.9078    0.0000 C   0  0  0  0  0  0  0  0  0  0  0  0
    2.0057    1.1677    0.0000 C   0  0  0  0  0  0  0  0  0  0  0  0
    6.4143   -2.5352    0.0000 C   0  0  0  0  0  0  0  0  0  0  0  0
    6.3896    2.6755    0.0000 C   0  0  0  0  0  0  0  0  0  0  0  0
    7.3539   -1.9927    0.0000 C   0  0  0  0  0  0  0  0  0  0  0  0
    4.5976    3.7101    0.0000 C   0  0  0  0  0  0  0  0  0  0  0  0
    2.0000    2.1790    0.0000 C   0  0  0  0  0  0  0  0  0  0  0  0
    6.3977    3.7171    0.0000 C   0  0  0  0  0  0  0  0  0  0  0  0
    5.4956    4.2379    0.0000 C   0  0  0  0  0  0  0  0  0  0  0  0
    6.3969   -3.6653    0.0000 C   0  0  0  0  0  0  0  0  0  0  0  0
    8.3413   -2.5427    0.0000 C   0  0  0  0  0  0  0  0  0  0  0  0
    7.3712   -4.2379    0.0000 C   0  0  0  0  0  0  0  0  0  0  0  0
    8.3500   -3.6728    0.0000 C   0  0  0  0  0  0  0  0  0  0  0  0
    6.9230    0.9780    0.0000 H   0  0  0  0  0  0  0  0  0  0  0  0
    3.7006   -1.4553    0.0000 H   0  0  0  0  0  0  0  0  0  0  0  0
    2.3318   -0.6171    0.0000 H   0  0  0  0  0  0  0  0  0  0  0  0
    4.9384   -2.2893    0.0000 H   0  0  0  0  0  0  0  0  0  0  0  0
    2.8805    3.3028    0.0000 H   0  0  0  0  0  0  0  0  0  0  0  0
    7.8789   -0.5916    0.0000 H   0  0  0  0  0  0  0  0  0  0  0  0
    1.4717    0.8527    0.0000 H   0  0  0  0  0  0  0  0  0  0  0  0
    6.9230    2.3593    0.0000 H   0  0  0  0  0  0  0  0  0  0  0  0
    4.0571    4.0139    0.0000 H   0  0  0  0  0  0  0  0  0  0  0  0
    1.4625    2.4880    0.0000 H   0  0  0  0  0  0  0  0  0  0  0  0
    6.9358    4.0250    0.0000 H   0  0  0  0  0  0  0  0  0  0  0  0
    5.4932    4.8579    0.0000 H   0  0  0  0  0  0  0  0  0  0  0  0
    5.8564   -3.9690    0.0000 H   0  0  0  0  0  0  0  0  0  0  0  0
    8.8746   -2.2265    0.0000 H   0  0  0  0  0  0  0  0  0  0  0  0
    7.3688   -4.8579    0.0000 H   0  0  0  0  0  0  0  0  0  0  0  0
    8.8881   -3.9807    0.0000 H   0  0  0  0  0  0  0  0  0  0  0  0
  1  2  1  0  0  0  0
  1  3  1  0  0  0  0
  1  4  2  0  0  0  0
  2  5  1  0  0  0  0
  2 10  2  0  0  0  0
  3  7  1  0  0  0  0
  3 11  2  0  0  0  0
  4  6  1  0  0  0  0
  4 12  1  0  0  0  0
  5  8  1  0  0  0  0
  5 15  2  0  0  0  0
  6  9  1  0  0  0  0
  6 14  2  0  0  0  0
  7  8  1  0  0  0  0
  7 19  2  0  0  0  0
  8 21  2  0  0  0  0
  9 11  1  0  0  0  0
  9 16  2  0  0  0  0
 10 13  1  0  0  0  0
 10 17  1  0  0  0  0
 11 29  1  0  0  0  0
 12 13  2  0  0  0  0
 12 30  1  0  0  0  0
 13 31  1  0  0  0  0
 14 18  1  0  0  0  0
 14 32  1  0  0  0  0
 15 22  1  0  0  0  0
 15 33  1  0  0  0  0
 16 20  1  0  0  0  0
 16 34  1  0  0  0  0
 17 22  2  0  0  0  0
 17 35  1  0  0  0  0
 18 20  1  0  0  0  0
 18 25  2  0  0  0  0
 19 23  1  0  0  0  0
 19 36  1  0  0  0  0
 20 26  2  0  0  0  0
 21 24  1  0  0  0  0
 21 37  1  0  0  0  0
 22 38  1  0  0  0  0
 23 24  2  0  0  0  0
 23 39  1  0  0  0  0
 24 40  1  0  0  0  0
 25 27  1  0  0  0  0
 25 41  1  0  0  0  0
 26 28  1  0  0  0  0
 26 42  1  0  0  0  0
 27 28  2  0  0  0  0
 27 43  1  0  0  0  0
 28 44  1  0  0  0  0
M  END
> <PUBCHEM_COMPOUND_CID>
9127

> <PUBCHEM_COMPOUND_CANONICALIZED>
1

> <PUBCHEM_CACTVS_COMPLEXITY>
593

> <PUBCHEM_CACTVS_HBOND_ACCEPTOR>
0

> <PUBCHEM_CACTVS_HBOND_DONOR>
0

> <PUBCHEM_CACTVS_ROTATABLE_BOND>
0

> <PUBCHEM_CACTVS_SUBSKEYS>
AAADceB4AAAAAAAAAAAAAAAAAAAAAAAAAAAwYMGDAAAAAADBVAAAGAAAAAAADACAGAAwAMAAAACAAiBCAAACAAAgAAAIiAAAAIgIICKAERCAIAAggAAIiAcAgMAOwAACAAAQAACAAAQAACAAAAAAAAAAAA==

> <PUBCHEM_IUPAC_INCHI>
InChI=1S/C28H16/c1-2-7-19-15-25-20(14-18(19)6-1)16-26-22-10-4-3-9-21(22)23-11-5-8-17-12-13-24(25)28(26)27(17)23/h1-16H

> <PUBCHEM_IUPAC_INCHIKEY>
YEVOPXRNZORJGM-UHFFFAOYSA-N

> <PUBCHEM_XLOGP3_AA>
8

> <PUBCHEM_EXACT_MASS>
352.125201

> <PUBCHEM_MOLECULAR_FORMULA>
C28H16

> <PUBCHEM_MOLECULAR_WEIGHT>
352.42664

> <PUBCHEM_OPENEYE_CAN_SMILES>
C1=CC=C2C=C3C4=C5C(=CC3=CC2=C1)C6=CC=CC=C6C7=CC=CC(=C75)C=C4

> <PUBCHEM_OPENEYE_ISO_SMILES>
C1=CC=C2C=C3C4=C5C(=CC3=CC2=C1)C6=CC=CC=C6C7=CC=CC(=C75)C=C4

> <PUBCHEM_CACTVS_TPSA>
0

> <PUBCHEM_MONOISOTOPIC_WEIGHT>
352.125201

> <PUBCHEM_TOTAL_CHARGE>
0

> <PUBCHEM_HEAVY_ATOM_COUNT>
28

> <PUBCHEM_ATOM_DEF_STEREO_COUNT>
0

> <PUBCHEM_ATOM_UDEF_STEREO_COUNT>
0

> <PUBCHEM_BOND_DEF_STEREO_COUNT>
0

> <PUBCHEM_BOND_UDEF_STEREO_COUNT>
0

> <PUBCHEM_ISOTOPIC_ATOM_COUNT>
0

> <PUBCHEM_COMPONENT_COUNT>
1

> <PUBCHEM_CACTVS_TAUTO_COUNT>
1

> <PUBCHEM_COORDINATE_TYPE>
1
5
255

> <PUBCHEM_BONDANNOTATIONS>
1  2  8
1  3  8
1  4  8
10  13  8
10  17  8
12  13  8
14  18  8
15  22  8
16  20  8
17  22  8
18  20  8
18  25  8
19  23  8
2  10  8
2  5  8
20  26  8
21  24  8
23  24  8
25  27  8
26  28  8
27  28  8
3  11  8
3  7  8
4  12  8
4  6  8
5  15  8
5  8  8
6  14  8
6  9  8
7  19  8
7  8  8
8  21  8
9  11  8
9  16  8

$$$$

