622906
  -OEChem-07051212503D

 26 27  0     0  0  0  0  0  0999 V2000
    2.5101   -2.9544    0.5478 Cl  0  0  0  0  0  0  0  0  0  0  0  0
    4.4918    1.9633   -0.6612 Cl  0  0  0  0  0  0  0  0  0  0  0  0
    4.6243   -0.9787   -0.1805 O   0  0  0  0  0  0  0  0  0  0  0  0
   -5.5605   -0.8612   -0.4400 O   0  0  0  0  0  0  0  0  0  0  0  0
   -0.4634    1.2080    0.3753 N   0  0  0  0  0  0  0  0  0  0  0  0
    0.8243    0.6547    0.2350 C   0  0  0  0  0  0  0  0  0  0  0  0
   -1.7561    0.6838    0.1678 C   0  0  0  0  0  0  0  0  0  0  0  0
    1.9037    1.4725   -0.1031 C   0  0  0  0  0  0  0  0  0  0  0  0
    1.0233   -0.7125    0.4340 C   0  0  0  0  0  0  0  0  0  0  0  0
   -2.8293    1.1551    0.9239 C   0  0  0  0  0  0  0  0  0  0  0  0
   -1.9613   -0.3069   -0.7925 C   0  0  0  0  0  0  0  0  0  0  0  0
    2.2985   -1.2604    0.2952 C   0  0  0  0  0  0  0  0  0  0  0  0
    3.1789    0.9245   -0.2421 C   0  0  0  0  0  0  0  0  0  0  0  0
    3.3762   -0.4419   -0.0431 C   0  0  0  0  0  0  0  0  0  0  0  0
   -4.1078    0.6356    0.7201 C   0  0  0  0  0  0  0  0  0  0  0  0
   -3.2398   -0.8262   -0.9965 C   0  0  0  0  0  0  0  0  0  0  0  0
   -4.3129   -0.3552   -0.2402 C   0  0  0  0  0  0  0  0  0  0  0  0
   -0.4611    2.1748    0.6883 H   0  0  0  0  0  0  0  0  0  0  0  0
    1.7461    2.5378   -0.2587 H   0  0  0  0  0  0  0  0  0  0  0  0
    0.1958   -1.3574    0.7200 H   0  0  0  0  0  0  0  0  0  0  0  0
   -2.6817    1.9260    1.6759 H   0  0  0  0  0  0  0  0  0  0  0  0
   -1.1486   -0.6772   -1.4112 H   0  0  0  0  0  0  0  0  0  0  0  0
   -4.9354    1.0111    1.3158 H   0  0  0  0  0  0  0  0  0  0  0  0
   -3.3946   -1.5943   -1.7494 H   0  0  0  0  0  0  0  0  0  0  0  0
    4.5693   -1.9342   -0.0062 H   0  0  0  0  0  0  0  0  0  0  0  0
   -6.1798   -0.4217    0.1678 H   0  0  0  0  0  0  0  0  0  0  0  0
  1 12  1  0  0  0  0
  2 13  1  0  0  0  0
  3 14  1  0  0  0  0
  3 25  1  0  0  0  0
  4 17  1  0  0  0  0
  4 26  1  0  0  0  0
  5  6  1  0  0  0  0
  5  7  1  0  0  0  0
  5 18  1  0  0  0  0
  6  8  2  0  0  0  0
  6  9  1  0  0  0  0
  7 10  2  0  0  0  0
  7 11  1  0  0  0  0
  8 13  1  0  0  0  0
  8 19  1  0  0  0  0
  9 12  2  0  0  0  0
  9 20  1  0  0  0  0
 10 15  1  0  0  0  0
 10 21  1  0  0  0  0
 11 16  2  0  0  0  0
 11 22  1  0  0  0  0
 12 14  1  0  0  0  0
 13 14  2  0  0  0  0
 15 17  2  0  0  0  0
 15 23  1  0  0  0  0
 16 17  1  0  0  0  0
 16 24  1  0  0  0  0
M  END
> <PUBCHEM_COMPOUND_CID>
622906

> <PUBCHEM_CONFORMER_RMSD>
0.6

> <PUBCHEM_CONFORMER_DIVERSEORDER>
1
4
2
3

> <PUBCHEM_MMFF94_PARTIAL_CHARGES>
26
1 -0.18
10 -0.15
11 -0.15
12 0.18
13 0.18
14 0.08
15 -0.15
16 -0.15
17 0.08
18 0.4
19 0.15
2 -0.18
20 0.15
21 0.15
22 0.15
23 0.15
24 0.15
25 0.45
26 0.45
3 -0.53
4 -0.53
5 -0.6
6 0.1
7 0.1
8 -0.15
9 -0.15

> <PUBCHEM_EFFECTIVE_ROTOR_COUNT>
2

> <PUBCHEM_PHARMACOPHORE_FEATURES>
6
1 3 donor
1 4 donor
1 5 cation
1 5 donor
6 6 8 9 12 13 14 rings
6 7 10 11 15 16 17 rings

> <PUBCHEM_HEAVY_ATOM_COUNT>
17

> <PUBCHEM_ATOM_DEF_STEREO_COUNT>
0

> <PUBCHEM_ATOM_UDEF_STEREO_COUNT>
0

> <PUBCHEM_BOND_DEF_STEREO_COUNT>
0

> <PUBCHEM_BOND_UDEF_STEREO_COUNT>
0

> <PUBCHEM_ISOTOPIC_ATOM_COUNT>
0

> <PUBCHEM_COMPONENT_COUNT>
1

> <PUBCHEM_CACTVS_TAUTO_COUNT>
12

> <PUBCHEM_CONFORMER_ID>
0009813A00000001

> <PUBCHEM_MMFF94_ENERGY>
57.2583

> <PUBCHEM_FEATURE_SELFOVERLAP>
30.446

> <PUBCHEM_SHAPE_FINGERPRINT>
10616163 171 18260830375937636479
11471102 20 18342738503248721672
12107183 9 17687740958297052441
12236239 1 18260264157228700817
13167823 11 18334011709365390717
13533116 47 18408326588412824739
13760787 19 18260544515735454165
13760787 5 18410853265732429821
13836976 161 18272930497385262870
13862211 1 18270683199088168010
14251717 144 18413390938664093946
14251764 18 18113894945738019201
14576447 43 18410294730984393682
15196674 1 18408040723451802373
15242433 33 18335421236196377567
15375358 24 16988844960386932601
15375462 189 18261111893583730689
15477762 27 18341050813193151522
17834072 33 18334576815445311157
18186145 218 17561080323711466704
19050596 39 18334857237938737096
19422 9 18334293210185751825
200 152 18408044005023100937
20279233 1 16487256564815611193
20281475 54 18336269045391914193
20612939 158 18343016684196552164
20645477 70 18273218616259772122
20715895 44 10302724673846978391
21054139 6 18265620887906562598
21065198 48 18333728044203461017
21267235 1 18334850632258112079
2255824 54 18412261705926147532
22646028 1 18333450945624383993
22646028 28 18333735736342181919
23402655 69 18410292531766056837
23463225 33 18261957452591008783
23559900 14 18341335500288558568
23598291 2 18261946452979517984
2871803 45 18342742926716727614
29717793 49 18113619018814855645
3060560 45 18272646814921988652
33824 294 18343585135813214490
42630746 31 18411703162909722304
465052 167 17968657100086793023
474 4 18200028430930339612
5104073 3 18334574655050349377
5281201 14 17704074035617628444
573450 72 17822292422535910721
602551 16 15864644872513449509
603831 33 18260836972774683773
77779 3 18409728482506489137
9709674 26 18341604970889900571

> <PUBCHEM_SHAPE_MULTIPOLES>
336.87
10.34
2.13
0.88
5.63
1.06
-0.03
0.18
-1.43
-2.77
0.2
0.46
-0.01
-1.29

> <PUBCHEM_SHAPE_SELFOVERLAP>
708.447

> <PUBCHEM_SHAPE_VOLUME>
191.4

> <PUBCHEM_COORDINATE_TYPE>
2
5
10

$$$$

