47205714
  -OEChem-06241223003D

 34 34  0     0  0  0  0  0  0999 V2000
    2.0702   -0.3612   -0.5549 O   0  0  0  0  0  0  0  0  0  0  0  0
   -0.3444    1.6972   -1.5291 O   0  0  0  0  0  0  0  0  0  0  0  0
   -0.0762   -2.5216   -1.1536 O   0  0  0  0  0  0  0  0  0  0  0  0
   -0.9229   -0.1376   -0.1641 N   0  0  0  0  0  0  0  0  0  0  0  0
    0.4607   -3.3573    0.9198 N   0  0  0  0  0  0  0  0  0  0  0  0
    3.3703   -0.2055   -0.0899 N   0  0  0  0  0  0  0  0  0  0  0  0
   -2.3155   -0.1797   -0.5150 C   0  0  0  0  0  0  0  0  0  0  0  0
   -3.1734    0.6847    0.4031 C   0  0  0  0  0  0  0  0  0  0  0  0
   -4.6610    0.6211    0.0497 C   0  0  0  0  0  0  0  0  0  0  0  0
   -0.4595   -1.1421    0.7994 C   0  0  0  0  0  0  0  0  0  0  0  0
   -0.0454    0.8213   -0.7182 C   0  0  0  0  0  0  0  0  0  0  0  0
   -5.4971    1.4437    1.0176 C   0  0  0  0  0  0  0  0  0  0  0  0
    1.3657    0.7719   -0.3038 C   0  0  0  0  0  0  0  0  0  0  0  0
   -0.0020   -2.3808    0.0639 C   0  0  0  0  0  0  0  0  0  0  0  0
    2.1710    1.6862    0.3222 C   0  0  0  0  0  0  0  0  0  0  0  0
    3.4066    1.0248    0.4298 C   0  0  0  0  0  0  0  0  0  0  0  0
    4.6531    1.5349    1.0230 C   0  0  0  0  0  0  0  0  0  0  0  0
   -2.6610   -1.2201   -0.5082 H   0  0  0  0  0  0  0  0  0  0  0  0
   -2.4243    0.1849   -1.5436 H   0  0  0  0  0  0  0  0  0  0  0  0
   -2.8297    1.7258    0.3548 H   0  0  0  0  0  0  0  0  0  0  0  0
   -3.0343    0.3627    1.4428 H   0  0  0  0  0  0  0  0  0  0  0  0
   -5.0043   -0.4197    0.0741 H   0  0  0  0  0  0  0  0  0  0  0  0
   -4.8161    0.9912   -0.9702 H   0  0  0  0  0  0  0  0  0  0  0  0
    0.3579   -0.7540    1.4135 H   0  0  0  0  0  0  0  0  0  0  0  0
   -1.2831   -1.4033    1.4734 H   0  0  0  0  0  0  0  0  0  0  0  0
   -5.1972    2.4963    0.9980 H   0  0  0  0  0  0  0  0  0  0  0  0
   -6.5559    1.3870    0.7464 H   0  0  0  0  0  0  0  0  0  0  0  0
   -5.3887    1.0741    2.0423 H   0  0  0  0  0  0  0  0  0  0  0  0
    1.9033    2.6798    0.6504 H   0  0  0  0  0  0  0  0  0  0  0  0
    0.7874   -4.2500    0.5651 H   0  0  0  0  0  0  0  0  0  0  0  0
    0.4992   -3.2238    1.9253 H   0  0  0  0  0  0  0  0  0  0  0  0
    4.9730    0.9010    1.8565 H   0  0  0  0  0  0  0  0  0  0  0  0
    5.4559    1.5559    0.2788 H   0  0  0  0  0  0  0  0  0  0  0  0
    4.5250    2.5525    1.4063 H   0  0  0  0  0  0  0  0  0  0  0  0
  1  6  1  0  0  0  0
  1 13  1  0  0  0  0
  2 11  2  0  0  0  0
  3 14  2  0  0  0  0
  4  7  1  0  0  0  0
  4 10  1  0  0  0  0
  4 11  1  0  0  0  0
  5 14  1  0  0  0  0
  5 30  1  0  0  0  0
  5 31  1  0  0  0  0
  6 16  2  0  0  0  0
  7  8  1  0  0  0  0
  7 18  1  0  0  0  0
  7 19  1  0  0  0  0
  8  9  1  0  0  0  0
  8 20  1  0  0  0  0
  8 21  1  0  0  0  0
  9 12  1  0  0  0  0
  9 22  1  0  0  0  0
  9 23  1  0  0  0  0
 10 14  1  0  0  0  0
 10 24  1  0  0  0  0
 10 25  1  0  0  0  0
 11 13  1  0  0  0  0
 12 26  1  0  0  0  0
 12 27  1  0  0  0  0
 12 28  1  0  0  0  0
 13 15  2  0  0  0  0
 15 16  1  0  0  0  0
 15 29  1  0  0  0  0
 16 17  1  0  0  0  0
 17 32  1  0  0  0  0
 17 33  1  0  0  0  0
 17 34  1  0  0  0  0
M  END
> <PUBCHEM_COMPOUND_CID>
47205714

> <PUBCHEM_CONFORMER_RMSD>
1

> <PUBCHEM_CONFORMER_DIVERSEORDER>
2
12
50
49
75
72
23
71
64
42
30
99
88
81
74
91
36
59
28
53
90
34
100
29
82
63
62
56
73
17
87
25
39
13
22
43
66
33
48
98
70
10
37
96
31
46
18
76
60
51
97
89
26
65
54
8
57
32
35
4
95
52
40
84
58
61
16
11
15
14
41
7
44
79
55
77
38
1
93
94
45
19
20
80
68
83
3
85
24
6
67
21
86
9
47
69
92
78
27
5

> <PUBCHEM_MMFF94_PARTIAL_CHARGES>
17
1 -0.02
10 0.36
11 0.71
13 0.05
14 0.57
15 -0.15
16 0.11
17 0.18
2 -0.57
29 0.15
3 -0.57
30 0.37
31 0.37
4 -0.66
5 -0.8
6 -0.41
7 0.3

> <PUBCHEM_EFFECTIVE_ROTOR_COUNT>
7

> <PUBCHEM_PHARMACOPHORE_FEATURES>
6
1 12 hydrophobe
1 2 acceptor
1 3 acceptor
1 5 donor
1 6 acceptor
5 1 6 13 15 16 rings

> <PUBCHEM_HEAVY_ATOM_COUNT>
17

> <PUBCHEM_ATOM_DEF_STEREO_COUNT>
0

> <PUBCHEM_ATOM_UDEF_STEREO_COUNT>
0

> <PUBCHEM_BOND_DEF_STEREO_COUNT>
0

> <PUBCHEM_BOND_UDEF_STEREO_COUNT>
0

> <PUBCHEM_ISOTOPIC_ATOM_COUNT>
0

> <PUBCHEM_COMPONENT_COUNT>
1

> <PUBCHEM_CACTVS_TAUTO_COUNT>
2

> <PUBCHEM_CONFORMER_ID>
02D04D5200000002

> <PUBCHEM_MMFF94_ENERGY>
27.5612

> <PUBCHEM_FEATURE_SELFOVERLAP>
30.446

> <PUBCHEM_SHAPE_MULTIPOLES>
317.3
8.36
2.7
1.07
6.11
2.86
-0.09
-6.96
3.31
-0.55
0.37
0.08
-0.07
-0.02

> <PUBCHEM_SHAPE_SELFOVERLAP>
636.393

> <PUBCHEM_SHAPE_VOLUME>
187.8

> <PUBCHEM_COORDINATE_TYPE>
2
5
10

$$$$

