5363397
  -OEChem-07051213102D

 30 29  0     0  0  0  0  0  0999 V2000
    2.5369   -0.0600    0.0000 O   0  0  0  0  0  0  0  0  0  0  0  0
   10.3312    0.4400    0.0000 O   0  0  0  0  0  0  0  0  0  0  0  0
    6.8671    0.4400    0.0000 C   0  0  0  0  0  0  0  0  0  0  0  0
    6.0010   -0.0600    0.0000 C   0  0  0  0  0  0  0  0  0  0  0  0
    7.7331   -0.0600    0.0000 C   0  0  0  0  0  0  0  0  0  0  0  0
    5.1350    0.4400    0.0000 C   0  0  0  0  0  0  0  0  0  0  0  0
    4.2690   -0.0600    0.0000 C   0  0  0  0  0  0  0  0  0  0  0  0
    7.7331   -1.0600    0.0000 C   0  0  0  0  0  0  0  0  0  0  0  0
    8.5991    0.4400    0.0000 C   0  0  0  0  0  0  0  0  0  0  0  0
    3.4030    0.4400    0.0000 C   0  0  0  0  0  0  0  0  0  0  0  0
    4.2690   -1.0600    0.0000 C   0  0  0  0  0  0  0  0  0  0  0  0
    9.4651   -0.0600    0.0000 C   0  0  0  0  0  0  0  0  0  0  0  0
    7.2656    0.9149    0.0000 H   0  0  0  0  0  0  0  0  0  0  0  0
    6.4685    0.9149    0.0000 H   0  0  0  0  0  0  0  0  0  0  0  0
    5.6025   -0.5349    0.0000 H   0  0  0  0  0  0  0  0  0  0  0  0
    6.3996   -0.5349    0.0000 H   0  0  0  0  0  0  0  0  0  0  0  0
    5.1350    1.0600    0.0000 H   0  0  0  0  0  0  0  0  0  0  0  0
    7.1131   -1.0600    0.0000 H   0  0  0  0  0  0  0  0  0  0  0  0
    7.7331   -1.6800    0.0000 H   0  0  0  0  0  0  0  0  0  0  0  0
    8.3531   -1.0600    0.0000 H   0  0  0  0  0  0  0  0  0  0  0  0
    8.5991    1.0600    0.0000 H   0  0  0  0  0  0  0  0  0  0  0  0
    3.8015    0.9149    0.0000 H   0  0  0  0  0  0  0  0  0  0  0  0
    3.0044    0.9149    0.0000 H   0  0  0  0  0  0  0  0  0  0  0  0
    3.6490   -1.0600    0.0000 H   0  0  0  0  0  0  0  0  0  0  0  0
    4.2690   -1.6800    0.0000 H   0  0  0  0  0  0  0  0  0  0  0  0
    4.8890   -1.0600    0.0000 H   0  0  0  0  0  0  0  0  0  0  0  0
    9.0666   -0.5349    0.0000 H   0  0  0  0  0  0  0  0  0  0  0  0
    9.8637   -0.5349    0.0000 H   0  0  0  0  0  0  0  0  0  0  0  0
    2.0000    0.2500    0.0000 H   0  0  0  0  0  0  0  0  0  0  0  0
   10.8681    0.1300    0.0000 H   0  0  0  0  0  0  0  0  0  0  0  0
  1 10  1  0  0  0  0
  1 29  1  0  0  0  0
  2 12  1  0  0  0  0
  2 30  1  0  0  0  0
  3  4  1  0  0  0  0
  3  5  1  0  0  0  0
  3 13  1  0  0  0  0
  3 14  1  0  0  0  0
  4  6  1  0  0  0  0
  4 15  1  0  0  0  0
  4 16  1  0  0  0  0
  5  8  1  0  0  0  0
  5  9  2  0  0  0  0
  6  7  2  0  0  0  0
  6 17  1  0  0  0  0
  7 10  1  0  0  0  0
  7 11  1  0  0  0  0
  8 18  1  0  0  0  0
  8 19  1  0  0  0  0
  8 20  1  0  0  0  0
  9 12  1  0  0  0  0
  9 21  1  0  0  0  0
 10 22  1  0  0  0  0
 10 23  1  0  0  0  0
 11 24  1  0  0  0  0
 11 25  1  0  0  0  0
 11 26  1  0  0  0  0
 12 27  1  0  0  0  0
 12 28  1  0  0  0  0
M  END
> <PUBCHEM_COMPOUND_CID>
5363397

> <PUBCHEM_COMPOUND_CANONICALIZED>
1

> <PUBCHEM_CACTVS_COMPLEXITY>
169

> <PUBCHEM_CACTVS_HBOND_ACCEPTOR>
2

> <PUBCHEM_CACTVS_HBOND_DONOR>
2

> <PUBCHEM_CACTVS_ROTATABLE_BOND>
5

> <PUBCHEM_CACTVS_SUBSKEYS>
AAADceBwMAAAAAAAAAAAAAAAAAAAAAAAAAAAAAAAAAAAAAAAAAAAGgAACAAADACggAICAAAAAgCAAiBCAAAAAAAgAAAACAAAAAgAFAIAAQAAUAAAgAAIEAIAAAAAAAAAAAAAAAAAAAAAAAAAAAAAAAAAAA==

> <PUBCHEM_IUPAC_OPENEYE_NAME>
(2E,6E)-2,6-dimethylocta-2,6-diene-1,8-diol

> <PUBCHEM_IUPAC_CAS_NAME>
(2E,6E)-2,6-dimethylocta-2,6-diene-1,8-diol

> <PUBCHEM_IUPAC_NAME>
(2E,6E)-2,6-dimethylocta-2,6-diene-1,8-diol

> <PUBCHEM_IUPAC_SYSTEMATIC_NAME>
(2E,6E)-2,6-dimethylocta-2,6-diene-1,8-diol

> <PUBCHEM_IUPAC_TRADITIONAL_NAME>
(2E,6E)-2,6-dimethylocta-2,6-diene-1,8-diol

> <PUBCHEM_IUPAC_INCHI>
InChI=1S/C10H18O2/c1-9(6-7-11)4-3-5-10(2)8-12/h5-6,11-12H,3-4,7-8H2,1-2H3/b9-6+,10-5+

> <PUBCHEM_IUPAC_INCHIKEY>
PREUOUJFXMCMSJ-TXFIJWAUSA-N

> <PUBCHEM_XLOGP3_AA>
1.6

> <PUBCHEM_EXACT_MASS>
170.13068

> <PUBCHEM_MOLECULAR_FORMULA>
C10H18O2

> <PUBCHEM_MOLECULAR_WEIGHT>
170.24872

> <PUBCHEM_OPENEYE_CAN_SMILES>
CC(=CCO)CCC=C(C)CO

> <PUBCHEM_OPENEYE_ISO_SMILES>
C/C(=C\CO)/CC/C=C(\C)/CO

> <PUBCHEM_CACTVS_TPSA>
40.5

> <PUBCHEM_MONOISOTOPIC_WEIGHT>
170.13068

> <PUBCHEM_TOTAL_CHARGE>
0

> <PUBCHEM_HEAVY_ATOM_COUNT>
12

> <PUBCHEM_ATOM_DEF_STEREO_COUNT>
0

> <PUBCHEM_ATOM_UDEF_STEREO_COUNT>
0

> <PUBCHEM_BOND_DEF_STEREO_COUNT>
2

> <PUBCHEM_BOND_UDEF_STEREO_COUNT>
0

> <PUBCHEM_ISOTOPIC_ATOM_COUNT>
0

> <PUBCHEM_COMPONENT_COUNT>
1

> <PUBCHEM_CACTVS_TAUTO_COUNT>
1

> <PUBCHEM_COORDINATE_TYPE>
1
5
255

$$$$

