17395776
  -OEChem-06241222523D

 54 57  0     1  0  0  0  0  0999 V2000
   -4.0447    1.3295    2.1083 O   0  0  0  0  0  0  0  0  0  0  0  0
    0.7121   -2.5999   -0.4638 O   0  0  0  0  0  0  0  0  0  0  0  0
    2.1518   -0.5193   -1.4948 N   0  0  1  0  0  0  0  0  0  0  0  0
   -5.3185    0.5235    0.3725 N   0  0  0  0  0  0  0  0  0  0  0  0
   -3.2198   -1.7191    0.7492 N   0  0  0  0  0  0  0  0  0  0  0  0
    3.2790    0.4118   -1.3765 C   0  0  1  0  0  0  0  0  0  0  0  0
    2.6811    1.8224   -1.2479 C   0  0  0  0  0  0  0  0  0  0  0  0
    3.7654    2.8390   -0.9206 C   0  0  0  0  0  0  0  0  0  0  0  0
    4.2465    0.0704   -0.2525 C   0  0  0  0  0  0  0  0  0  0  0  0
    4.3756    2.5229    0.4403 C   0  0  0  0  0  0  0  0  0  0  0  0
    4.7793    1.0763    0.5807 C   0  0  0  0  0  0  0  0  0  0  0  0
   -6.7524    0.3359   -1.4894 C   0  0  0  0  0  0  0  0  0  0  0  0
   -7.5153    0.9899   -0.3448 C   0  0  0  0  0  0  0  0  0  0  0  0
   -5.5893   -0.3399   -0.7764 C   0  0  0  0  0  0  0  0  0  0  0  0
   -6.4006    1.4795    0.5665 C   0  0  0  0  0  0  0  0  0  0  0  0
    1.1555   -0.2412   -0.4635 C   0  0  0  0  0  0  0  0  0  0  0  0
    4.6952   -1.2517   -0.0788 C   0  0  0  0  0  0  0  0  0  0  0  0
    5.6830    0.7320    1.5998 C   0  0  0  0  0  0  0  0  0  0  0  0
    1.5563   -0.4264   -2.8252 C   0  0  0  0  0  0  0  0  0  0  0  0
   -4.1655    0.5551    1.1572 C   0  0  0  0  0  0  0  0  0  0  0  0
    0.2711   -1.4658   -0.2705 C   0  0  0  0  0  0  0  0  0  0  0  0
    5.6036   -1.5785    0.9291 C   0  0  0  0  0  0  0  0  0  0  0  0
    6.0918   -0.5881    1.7731 C   0  0  0  0  0  0  0  0  0  0  0  0
   -3.0866   -0.3556    0.7864 C   0  0  0  0  0  0  0  0  0  0  0  0
   -1.1278   -1.2689    0.1549 C   0  0  0  0  0  0  0  0  0  0  0  0
   -1.7946   -0.0478    0.4211 C   0  0  0  0  0  0  0  0  0  0  0  0
   -2.0325   -2.2860    0.3656 C   0  0  0  0  0  0  0  0  0  0  0  0
    3.8932    0.3748   -2.2881 H   0  0  0  0  0  0  0  0  0  0  0  0
    1.9512    1.9504   -0.4429 H   0  0  0  0  0  0  0  0  0  0  0  0
    2.1969    2.1357   -2.1795 H   0  0  0  0  0  0  0  0  0  0  0  0
    4.5402    2.8189   -1.6975 H   0  0  0  0  0  0  0  0  0  0  0  0
    3.3472    3.8521   -0.9105 H   0  0  0  0  0  0  0  0  0  0  0  0
    3.6514    2.7545    1.2314 H   0  0  0  0  0  0  0  0  0  0  0  0
    5.2479    3.1703    0.5906 H   0  0  0  0  0  0  0  0  0  0  0  0
   -6.3779    1.1067   -2.1738 H   0  0  0  0  0  0  0  0  0  0  0  0
   -7.3611   -0.3680   -2.0632 H   0  0  0  0  0  0  0  0  0  0  0  0
   -8.1226    0.2381    0.1735 H   0  0  0  0  0  0  0  0  0  0  0  0
   -8.1751    1.7967   -0.6749 H   0  0  0  0  0  0  0  0  0  0  0  0
   -5.8791   -1.3245   -0.3943 H   0  0  0  0  0  0  0  0  0  0  0  0
   -4.7098   -0.4417   -1.4180 H   0  0  0  0  0  0  0  0  0  0  0  0
   -6.0343    2.4660    0.2613 H   0  0  0  0  0  0  0  0  0  0  0  0
   -6.6947    1.5227    1.6193 H   0  0  0  0  0  0  0  0  0  0  0  0
    0.5098    0.5974   -0.7421 H   0  0  0  0  0  0  0  0  0  0  0  0
    1.5992   -0.0565    0.5229 H   0  0  0  0  0  0  0  0  0  0  0  0
    4.3356   -2.0440   -0.7314 H   0  0  0  0  0  0  0  0  0  0  0  0
    6.0791    1.4988    2.2614 H   0  0  0  0  0  0  0  0  0  0  0  0
    1.0601    0.5277   -3.0300 H   0  0  0  0  0  0  0  0  0  0  0  0
    2.3102   -0.5955   -3.6028 H   0  0  0  0  0  0  0  0  0  0  0  0
    0.8080   -1.2154   -2.9635 H   0  0  0  0  0  0  0  0  0  0  0  0
    5.9294   -2.6073    1.0523 H   0  0  0  0  0  0  0  0  0  0  0  0
    6.7958   -0.8409    2.5603 H   0  0  0  0  0  0  0  0  0  0  0  0
   -1.3931    0.9547    0.3639 H   0  0  0  0  0  0  0  0  0  0  0  0
   -4.0609   -2.2317    0.9760 H   0  0  0  0  0  0  0  0  0  0  0  0
   -1.9433   -3.3602    0.2796 H   0  0  0  0  0  0  0  0  0  0  0  0
  1 20  2  0  0  0  0
  2 21  2  0  0  0  0
  3  6  1  0  0  0  0
  3 16  1  0  0  0  0
  3 19  1  0  0  0  0
  4 14  1  0  0  0  0
  4 15  1  0  0  0  0
  4 20  1  0  0  0  0
  5 24  1  0  0  0  0
  5 27  1  0  0  0  0
  5 53  1  0  0  0  0
  6  7  1  0  0  0  0
  6  9  1  0  0  0  0
  6 28  1  0  0  0  0
  7  8  1  0  0  0  0
  7 29  1  0  0  0  0
  7 30  1  0  0  0  0
  8 10  1  0  0  0  0
  8 31  1  0  0  0  0
  8 32  1  0  0  0  0
  9 11  1  0  0  0  0
  9 17  2  0  0  0  0
 10 11  1  0  0  0  0
 10 33  1  0  0  0  0
 10 34  1  0  0  0  0
 11 18  2  0  0  0  0
 12 13  1  0  0  0  0
 12 14  1  0  0  0  0
 12 35  1  0  0  0  0
 12 36  1  0  0  0  0
 13 15  1  0  0  0  0
 13 37  1  0  0  0  0
 13 38  1  0  0  0  0
 14 39  1  0  0  0  0
 14 40  1  0  0  0  0
 15 41  1  0  0  0  0
 15 42  1  0  0  0  0
 16 21  1  0  0  0  0
 16 43  1  0  0  0  0
 16 44  1  0  0  0  0
 17 22  1  0  0  0  0
 17 45  1  0  0  0  0
 18 23  1  0  0  0  0
 18 46  1  0  0  0  0
 19 47  1  0  0  0  0
 19 48  1  0  0  0  0
 19 49  1  0  0  0  0
 20 24  1  0  0  0  0
 21 25  1  0  0  0  0
 22 23  2  0  0  0  0
 22 50  1  0  0  0  0
 23 51  1  0  0  0  0
 24 26  2  0  0  0  0
 25 26  1  0  0  0  0
 25 27  2  0  0  0  0
 26 52  1  0  0  0  0
 27 54  1  0  0  0  0
M  END
> <PUBCHEM_COMPOUND_CID>
17395776

> <PUBCHEM_CONFORMER_RMSD>
1.2

> <PUBCHEM_CONFORMER_DIVERSEORDER>
1
127
119
46
8
109
87
93
37
65
72
122
26
15
7
55
94
12
112
85
133
121
111
68
75
101
83
45
125
16
50
62
123
136
20
32
89
22
4
124
79
63
90
5
77
36
126
82
6
43
103
44
48
2
52
3
132
134
35
56
108
116
31
117
73
38
118
110
76
67
91
49
41
105
74
102
24
107
18
88
27
104
34
39
42
60
137
11
131
96
84
54
86
58
30
128
66
98
99
70
29
129
14
100
10
113
53
120
28
33
95
80
61
97
51
25
106
64
21
81
92
78
23
59
47
13
71
57
17
40
69
19
9
114
115
135
130

> <PUBCHEM_MMFF94_PARTIAL_CHARGES>
30
1 -0.57
10 0.14
11 -0.14
14 0.3
15 0.3
16 0.33
17 -0.15
18 -0.15
19 0.27
2 -0.57
20 0.71
21 0.6
22 -0.15
23 -0.15
24 -0.24
25 -0.09
26 -0.15
27 -0.3
3 -0.81
4 -0.66
45 0.15
46 0.15
5 0.03
50 0.15
51 0.15
52 0.15
53 0.27
54 0.15
6 0.41
9 -0.14

> <PUBCHEM_EFFECTIVE_ROTOR_COUNT>
7.8

> <PUBCHEM_PHARMACOPHORE_FEATURES>
9
1 1 acceptor
1 2 acceptor
1 3 cation
1 5 cation
1 5 donor
5 4 12 13 14 15 rings
5 5 24 25 26 27 rings
6 6 7 8 9 10 11 rings
6 9 11 17 18 22 23 rings

> <PUBCHEM_HEAVY_ATOM_COUNT>
27

> <PUBCHEM_ATOM_DEF_STEREO_COUNT>
0

> <PUBCHEM_ATOM_UDEF_STEREO_COUNT>
1

> <PUBCHEM_BOND_DEF_STEREO_COUNT>
0

> <PUBCHEM_BOND_UDEF_STEREO_COUNT>
0

> <PUBCHEM_ISOTOPIC_ATOM_COUNT>
0

> <PUBCHEM_COMPONENT_COUNT>
1

> <PUBCHEM_CACTVS_TAUTO_COUNT>
7

> <PUBCHEM_CONFORMER_ID>
0109704000000001

> <PUBCHEM_MMFF94_ENERGY>
66.9452

> <PUBCHEM_FEATURE_SELFOVERLAP>
45.689

> <PUBCHEM_SHAPE_FINGERPRINT>
10299344 5 11239997880032817281
10319926 262 15985098605426302441
10674148 151 13830131724321766688
10692045 39 17632860849657199099
10928967 22 11671506616816722312
11089746 13 18343584049228556575
11135609 149 17828486104215547095
11186622 174 18342462581448700426
12107183 9 18343306985373351810
12128747 34 16199041680700678235
12422481 6 17418375783653502871
12633257 1 18341613690253272852
12778500 126 17775571965637316760
13673619 4 12103848955660831350
13782708 43 14189283821611323281
13878862 14 18270695185624479916
13914758 101 17775011206533590063
14223995 32 17841724198555331901
14251758 9 17275106132598378815
14251764 30 12895079530605098602
14341114 176 14333121966663121679
14347424 109 17346884442567872260
14617045 38 9943803395797943080
14767858 380 6627745608869831730
15142383 8 17418098724103696836
15183329 4 18410289216304472905
15348495 7 17274814710572479969
15352257 5 11455890282402745777
15461852 350 17530967943180178822
15537594 2 10015580580264173001
15799311 1 10735878421432025433
19319366 153 6843923832702639140
20157964 124 18187081767196176454
20511986 3 18335714840171755735
20715895 44 18408881849741647129
21196832 93 14418715597338715045
21315763 76 18408602569804565081
21344244 246 8718287758241241664
21403212 168 18202012056916961842
21774942 28 18116716403606576397
21859007 373 17559969864523277181
22149856 69 16878764051586359771
22950370 63 9943532903242252479
23016692 55 12103845670100144018
23516275 137 12390670973445491168
23522609 53 10519423116443727783
23559900 14 18042660919652388518
2748736 6 18409165507063215801
2838139 119 18272373096772414845
34797466 226 14345793829367111937
3680242 22 18341039783237367208
437795 51 7060081285787245799
44317340 157 16009569387495255555
4435113 14 10879706641326658489
445580 126 18340768234826707377
44880168 125 14261362339996623338
5104073 3 17988073387925460987
54039377 194 10519445017041178232
6004065 56 17168154390587148121
6371009 1 18335702762671153977
6394761 36 15123515839271541647
8509985 295 18413386523538154804

> <PUBCHEM_SHAPE_MULTIPOLES>
528.97
19.01
2.38
1.8
20.38
0.36
0.5
6.29
-4.53
-2.03
0.02
-0.78
0.24
-0.77

> <PUBCHEM_SHAPE_SELFOVERLAP>
1137.927

> <PUBCHEM_SHAPE_VOLUME>
292.1

> <PUBCHEM_COORDINATE_TYPE>
2
5
10

$$$$

