26975
  -OEChem-07051213053D

 28 28  0     0  0  0  0  0  0999 V2000
    4.5317   -0.0805    0.7326 O   0  0  0  0  0  0  0  0  0  0  0  0
   -1.8557    0.0590    0.1418 C   0  0  0  0  0  0  0  0  0  0  0  0
   -3.3059    0.0307   -0.3509 C   0  0  0  0  0  0  0  0  0  0  0  0
   -0.8346    0.0932   -1.0010 C   0  0  0  0  0  0  0  0  0  0  0  0
   -4.2872   -0.0291    0.8203 C   0  0  0  0  0  0  0  0  0  0  0  0
    0.5999    0.0464   -0.5380 C   0  0  0  0  0  0  0  0  0  0  0  0
   -5.7272   -0.0965    0.3373 C   0  0  0  0  0  0  0  0  0  0  0  0
    1.2683    1.2319   -0.2731 C   0  0  0  0  0  0  0  0  0  0  0  0
    1.2262   -1.1810   -0.3843 C   0  0  0  0  0  0  0  0  0  0  0  0
    2.5947    1.1889    0.1559 C   0  0  0  0  0  0  0  0  0  0  0  0
    2.5527   -1.2240    0.0446 C   0  0  0  0  0  0  0  0  0  0  0  0
    3.2371   -0.0390    0.3147 C   0  0  0  0  0  0  0  0  0  0  0  0
   -1.7073    0.9326    0.7893 H   0  0  0  0  0  0  0  0  0  0  0  0
   -1.6712   -0.8248    0.7662 H   0  0  0  0  0  0  0  0  0  0  0  0
   -3.5052    0.9230   -0.9563 H   0  0  0  0  0  0  0  0  0  0  0  0
   -3.4534   -0.8411   -0.9998 H   0  0  0  0  0  0  0  0  0  0  0  0
   -0.9916    0.9956   -1.6066 H   0  0  0  0  0  0  0  0  0  0  0  0
   -1.0180   -0.7479   -1.6828 H   0  0  0  0  0  0  0  0  0  0  0  0
   -4.1607    0.8541    1.4572 H   0  0  0  0  0  0  0  0  0  0  0  0
   -4.0760   -0.9087    1.4394 H   0  0  0  0  0  0  0  0  0  0  0  0
   -5.8945   -0.9884   -0.2750 H   0  0  0  0  0  0  0  0  0  0  0  0
   -6.4116   -0.1369    1.1905 H   0  0  0  0  0  0  0  0  0  0  0  0
   -5.9816    0.7842   -0.2611 H   0  0  0  0  0  0  0  0  0  0  0  0
    0.7759    2.1929   -0.3918 H   0  0  0  0  0  0  0  0  0  0  0  0
    0.7010   -2.1093   -0.5900 H   0  0  0  0  0  0  0  0  0  0  0  0
    3.1166    2.1192    0.3635 H   0  0  0  0  0  0  0  0  0  0  0  0
    3.0476   -2.1836    0.1669 H   0  0  0  0  0  0  0  0  0  0  0  0
    4.8472    0.8289    0.8718 H   0  0  0  0  0  0  0  0  0  0  0  0
  1 12  1  0  0  0  0
  1 28  1  0  0  0  0
  2  3  1  0  0  0  0
  2  4  1  0  0  0  0
  2 13  1  0  0  0  0
  2 14  1  0  0  0  0
  3  5  1  0  0  0  0
  3 15  1  0  0  0  0
  3 16  1  0  0  0  0
  4  6  1  0  0  0  0
  4 17  1  0  0  0  0
  4 18  1  0  0  0  0
  5  7  1  0  0  0  0
  5 19  1  0  0  0  0
  5 20  1  0  0  0  0
  6  8  2  0  0  0  0
  6  9  1  0  0  0  0
  7 21  1  0  0  0  0
  7 22  1  0  0  0  0
  7 23  1  0  0  0  0
  8 10  1  0  0  0  0
  8 24  1  0  0  0  0
  9 11  2  0  0  0  0
  9 25  1  0  0  0  0
 10 12  2  0  0  0  0
 10 26  1  0  0  0  0
 11 12  1  0  0  0  0
 11 27  1  0  0  0  0
M  END
> <PUBCHEM_COMPOUND_CID>
26975

> <PUBCHEM_CONFORMER_RMSD>
0.6

> <PUBCHEM_CONFORMER_DIVERSEORDER>
1
13
9
11
3
6
12
4
2
8
5
10
7

> <PUBCHEM_MMFF94_PARTIAL_CHARGES>
13
1 -0.53
10 -0.15
11 -0.15
12 0.08
24 0.15
25 0.15
26 0.15
27 0.15
28 0.45
4 0.14
6 -0.14
8 -0.15
9 -0.15

> <PUBCHEM_EFFECTIVE_ROTOR_COUNT>
4

> <PUBCHEM_PHARMACOPHORE_FEATURES>
4
1 1 donor
1 7 hydrophobe
4 2 3 4 5 hydrophobe
6 6 8 9 10 11 12 rings

> <PUBCHEM_HEAVY_ATOM_COUNT>
12

> <PUBCHEM_ATOM_DEF_STEREO_COUNT>
0

> <PUBCHEM_ATOM_UDEF_STEREO_COUNT>
0

> <PUBCHEM_BOND_DEF_STEREO_COUNT>
0

> <PUBCHEM_BOND_UDEF_STEREO_COUNT>
0

> <PUBCHEM_ISOTOPIC_ATOM_COUNT>
0

> <PUBCHEM_COMPONENT_COUNT>
1

> <PUBCHEM_CACTVS_TAUTO_COUNT>
2

> <PUBCHEM_CONFORMER_ID>
0000695F00000001

> <PUBCHEM_MMFF94_ENERGY>
17.214

> <PUBCHEM_FEATURE_SELFOVERLAP>
20.297

> <PUBCHEM_SHAPE_FINGERPRINT>
10354089 29 18113334206500635249
10498660 4 14057544839360058763
114248 4 7997969072741727657
12251169 10 18409167701437582519
14123238 8 18410572881951491555
14252887 29 18411697729254028890
19050596 39 18261674788129877247
20279233 1 17917705808269457179
20645477 70 18339366369959121903
20871998 22 18265330793099235454
21119208 17 11095881566643770859
21256008 61 12175621780608401830
212847 35 14201393915008458199
22485316 2 16343984693652577915
23402539 116 18411426107565064405
26918003 58 18343581837525984745
4047638 21 14634868639239064084
42 15 18202561783208981553
4990 188 7925914781370282437
69090 78 18342176644533771147

> <PUBCHEM_SHAPE_MULTIPOLES>
241.09
9.83
1.11
0.86
11.75
0
0.04
-0.36
-3.14
-0.97
0.04
0.14
0
0.04

> <PUBCHEM_SHAPE_SELFOVERLAP>
480.004

> <PUBCHEM_SHAPE_VOLUME>
143.9

> <PUBCHEM_COORDINATE_TYPE>
2
5
10

$$$$

