12783
  -OEChem-06261207223D

 25 26  0     0  0  0  0  0  0999 V2000
   -0.6723    0.5629   -0.5644 O   0  0  0  0  0  0  0  0  0  0  0  0
   -2.8304    1.3375   -0.5215 O   0  0  0  0  0  0  0  0  0  0  0  0
    0.0551   -0.5211    0.0476 C   0  0  0  0  0  0  0  0  0  0  0  0
    0.7200   -0.0120    1.3401 C   0  0  0  0  0  0  0  0  0  0  0  0
    1.1062   -1.0430   -0.9408 C   0  0  0  0  0  0  0  0  0  0  0  0
   -1.0228   -1.5606    0.3223 C   0  0  0  0  0  0  0  0  0  0  0  0
    1.8215    1.0106    1.0576 C   0  0  0  0  0  0  0  0  0  0  0  0
    2.2078   -0.0176   -1.2116 C   0  0  0  0  0  0  0  0  0  0  0  0
    2.8572    0.4656    0.0803 C   0  0  0  0  0  0  0  0  0  0  0  0
   -2.2480   -0.7228    0.6092 C   0  0  0  0  0  0  0  0  0  0  0  0
   -1.9943    0.5005   -0.2187 C   0  0  0  0  0  0  0  0  0  0  0  0
    1.1505   -0.8574    1.8916 H   0  0  0  0  0  0  0  0  0  0  0  0
   -0.0189    0.4618    1.9972 H   0  0  0  0  0  0  0  0  0  0  0  0
    0.6331   -1.2925   -1.8986 H   0  0  0  0  0  0  0  0  0  0  0  0
    1.5587   -1.9628   -0.5495 H   0  0  0  0  0  0  0  0  0  0  0  0
   -0.7757   -2.2490    1.1361 H   0  0  0  0  0  0  0  0  0  0  0  0
   -1.2138   -2.1649   -0.5741 H   0  0  0  0  0  0  0  0  0  0  0  0
    2.3134    1.2876    1.9971 H   0  0  0  0  0  0  0  0  0  0  0  0
    1.3787    1.9273    0.6493 H   0  0  0  0  0  0  0  0  0  0  0  0
    1.7893    0.8392   -1.7537 H   0  0  0  0  0  0  0  0  0  0  0  0
    2.9697   -0.4621   -1.8621 H   0  0  0  0  0  0  0  0  0  0  0  0
    3.5956    1.2430   -0.1463 H   0  0  0  0  0  0  0  0  0  0  0  0
    3.4003   -0.3643    0.5487 H   0  0  0  0  0  0  0  0  0  0  0  0
   -2.3127   -0.4384    1.6630 H   0  0  0  0  0  0  0  0  0  0  0  0
   -3.1619   -1.2296    0.2910 H   0  0  0  0  0  0  0  0  0  0  0  0
  1  3  1  0  0  0  0
  1 11  1  0  0  0  0
  2 11  2  0  0  0  0
  3  4  1  0  0  0  0
  3  5  1  0  0  0  0
  3  6  1  0  0  0  0
  4  7  1  0  0  0  0
  4 12  1  0  0  0  0
  4 13  1  0  0  0  0
  5  8  1  0  0  0  0
  5 14  1  0  0  0  0
  5 15  1  0  0  0  0
  6 10  1  0  0  0  0
  6 16  1  0  0  0  0
  6 17  1  0  0  0  0
  7  9  1  0  0  0  0
  7 18  1  0  0  0  0
  7 19  1  0  0  0  0
  8  9  1  0  0  0  0
  8 20  1  0  0  0  0
  8 21  1  0  0  0  0
  9 22  1  0  0  0  0
  9 23  1  0  0  0  0
 10 11  1  0  0  0  0
 10 24  1  0  0  0  0
 10 25  1  0  0  0  0
M  END
> <PUBCHEM_COMPOUND_CID>
12783

> <PUBCHEM_CONFORMER_RMSD>
0.4

> <PUBCHEM_CONFORMER_DIVERSEORDER>
1
4
2
3
7
8
5
6

> <PUBCHEM_MMFF94_PARTIAL_CHARGES>
5
1 -0.43
10 0.06
11 0.66
2 -0.57
3 0.28

> <PUBCHEM_EFFECTIVE_ROTOR_COUNT>
1.6

> <PUBCHEM_PHARMACOPHORE_FEATURES>
3
1 2 acceptor
5 1 3 6 10 11 rings
6 3 4 5 7 8 9 rings

> <PUBCHEM_HEAVY_ATOM_COUNT>
11

> <PUBCHEM_ATOM_DEF_STEREO_COUNT>
0

> <PUBCHEM_ATOM_UDEF_STEREO_COUNT>
0

> <PUBCHEM_BOND_DEF_STEREO_COUNT>
0

> <PUBCHEM_BOND_UDEF_STEREO_COUNT>
0

> <PUBCHEM_ISOTOPIC_ATOM_COUNT>
0

> <PUBCHEM_COMPONENT_COUNT>
1

> <PUBCHEM_CACTVS_TAUTO_COUNT>
2

> <PUBCHEM_CONFORMER_ID>
000031EF00000001

> <PUBCHEM_MMFF94_ENERGY>
12.2715

> <PUBCHEM_FEATURE_SELFOVERLAP>
15.231

> <PUBCHEM_SHAPE_FINGERPRINT>
10857977 72 18200025136600343515
12138202 97 18335990791503785471
12716758 59 18342733031133436482
12897270 3 17168153329392342525
12932764 1 18334569118684756958
13839132 238 18412546543471789493
15775835 57 17275382114254084204
16945 1 18199744743691718706
17844478 74 18262221223723133579
20201158 50 17894907455873268006
20645464 45 18334581213254315626
20653085 51 17773287163305082180
21040471 1 18272936063283089411
21922407 69 16559038159675125249
21930827 45 18412261727110749355
22802520 49 18116420617196896676
2748010 2 16808144489533302480
29004967 10 17385710388250779506
369184 2 18202005378342705234
5084963 1 18262230002435813314

> <PUBCHEM_SHAPE_MULTIPOLES>
214.64
3.88
1.3
1.18
0.19
0.11
0.06
-0.93
-0.6
0.1
0.02
-0.09
-0.06
0.83

> <PUBCHEM_SHAPE_SELFOVERLAP>
444.1

> <PUBCHEM_SHAPE_VOLUME>
123.2

> <PUBCHEM_COORDINATE_TYPE>
2
5
10

$$$$

