9543415
  -OEChem-07051213082D

 19 19  0     1  0  0  0  0  0999 V2000
    5.4641    0.8450    0.0000 Cl  0  0  0  0  0  0  0  0  0  0  0  0
    2.0000    0.8450    0.0000 Cl  0  0  0  0  0  0  0  0  0  0  0  0
    5.4641   -1.1550    0.0000 Cl  0  0  0  0  0  0  0  0  0  0  0  0
    2.0000   -1.1550    0.0000 Cl  0  0  0  0  0  0  0  0  0  0  0  0
    3.7320   -2.1550    0.0000 Cl  0  0  0  0  0  0  0  0  0  0  0  0
    3.7320    1.8450    0.0000 O   0  0  0  0  0  0  0  0  0  0  0  0
    3.7320    0.8450    0.0000 C   0  0  0  0  0  0  0  0  0  0  0  0
    2.8660    0.3450    0.0000 C   0  0  1  0  0  0  0  0  0  0  0  0
    4.5981    0.3450    0.0000 C   0  0  2  0  0  0  0  0  0  0  0  0
    4.5981   -0.6550    0.0000 C   0  0  1  0  0  0  0  0  0  0  0  0
    2.8660   -0.6550    0.0000 C   0  0  2  0  0  0  0  0  0  0  0  0
    3.7320   -1.1550    0.0000 C   0  0  0  0  0  0  0  0  0  0  0  0
    4.2690    1.1550    0.0000 H   0  0  0  0  0  0  0  0  0  0  0  0
    4.5981    0.9650    0.0000 H   0  0  0  0  0  0  0  0  0  0  0  0
    2.8660    0.9650    0.0000 H   0  0  0  0  0  0  0  0  0  0  0  0
    4.5981   -1.2750    0.0000 H   0  0  0  0  0  0  0  0  0  0  0  0
    2.8660   -1.2750    0.0000 H   0  0  0  0  0  0  0  0  0  0  0  0
    4.2690   -1.4650    0.0000 H   0  0  0  0  0  0  0  0  0  0  0  0
    4.2690    2.1550    0.0000 H   0  0  0  0  0  0  0  0  0  0  0  0
  9  1  1  1  0  0  0
  8  2  1  1  0  0  0
 10  3  1  6  0  0  0
 11  4  1  6  0  0  0
  5 12  1  0  0  0  0
  6  7  1  0  0  0  0
  6 19  1  0  0  0  0
  7  8  1  0  0  0  0
  7  9  1  0  0  0  0
  7 13  1  0  0  0  0
  8 11  1  0  0  0  0
  8 15  1  0  0  0  0
  9 10  1  0  0  0  0
  9 14  1  0  0  0  0
 10 12  1  0  0  0  0
 10 16  1  0  0  0  0
 11 12  1  0  0  0  0
 11 17  1  0  0  0  0
 12 18  1  0  0  0  0
M  END
> <PUBCHEM_COMPOUND_CID>
9543415

> <PUBCHEM_COMPOUND_CANONICALIZED>
1

> <PUBCHEM_CACTVS_COMPLEXITY>
150

> <PUBCHEM_CACTVS_HBOND_ACCEPTOR>
1

> <PUBCHEM_CACTVS_HBOND_DONOR>
1

> <PUBCHEM_CACTVS_ROTATABLE_BOND>
0

> <PUBCHEM_CACTVS_SUBSKEYS>
AAADcYBgIAAHAAAAAAAAAAAAAAAAAAAAAAAwAAAAAAAAAAAAAAAAGgIACAAACBeggEIAAAAAAgAAAAAAAAAAAAAAAAAAAEAAAwAAEAIBAAAAQAAEAAAAAAGAQAAAAAAAAAAAAAAAQCACAQAQCAAAAAAAAA==

> <PUBCHEM_IUPAC_OPENEYE_NAME>
(2S,3R,5S,6R)-2,3,4,5,6-pentachlorocyclohexanol

> <PUBCHEM_IUPAC_CAS_NAME>
(2S,3R,5S,6R)-2,3,4,5,6-pentachloro-1-cyclohexanol

> <PUBCHEM_IUPAC_NAME>
(2S,3R,5S,6R)-2,3,4,5,6-pentachlorocyclohexan-1-ol

> <PUBCHEM_IUPAC_SYSTEMATIC_NAME>
(2S,3R,5S,6R)-2,3,4,5,6-pentakis(chloranyl)cyclohexan-1-ol

> <PUBCHEM_IUPAC_TRADITIONAL_NAME>
(2S,3R,5S,6R)-2,3,4,5,6-pentachlorocyclohexanol

> <PUBCHEM_IUPAC_INCHI>
InChI=1S/C6H7Cl5O/c7-1-2(8)4(10)6(12)5(11)3(1)9/h1-6,12H/t1?,2-,3+,4+,5-,6?

> <PUBCHEM_IUPAC_INCHIKEY>
DOMHZVJNLCAZSA-UYSNGIAKSA-N

> <PUBCHEM_XLOGP3>
2.5

> <PUBCHEM_EXACT_MASS>
271.891003

> <PUBCHEM_MOLECULAR_FORMULA>
C6H7Cl5O

> <PUBCHEM_MOLECULAR_WEIGHT>
272.38418

> <PUBCHEM_OPENEYE_CAN_SMILES>
C1(C(C(C(C(C1Cl)Cl)Cl)Cl)Cl)O

> <PUBCHEM_OPENEYE_ISO_SMILES>
[C@H]1([C@H](C([C@H]([C@@H](C1O)Cl)Cl)Cl)Cl)Cl

> <PUBCHEM_CACTVS_TPSA>
20.2

> <PUBCHEM_MONOISOTOPIC_WEIGHT>
269.893953

> <PUBCHEM_TOTAL_CHARGE>
0

> <PUBCHEM_HEAVY_ATOM_COUNT>
12

> <PUBCHEM_ATOM_DEF_STEREO_COUNT>
4

> <PUBCHEM_ATOM_UDEF_STEREO_COUNT>
0

> <PUBCHEM_BOND_DEF_STEREO_COUNT>
0

> <PUBCHEM_BOND_UDEF_STEREO_COUNT>
0

> <PUBCHEM_ISOTOPIC_ATOM_COUNT>
0

> <PUBCHEM_COMPONENT_COUNT>
1

> <PUBCHEM_CACTVS_TAUTO_COUNT>
1

> <PUBCHEM_COORDINATE_TYPE>
1
5
255

> <PUBCHEM_BONDANNOTATIONS>
9  1  5
8  2  5
10  3  6
11  4  6

$$$$

