14707485
  -OEChem-07051212593D

 38 39  0     0  0  0  0  0  0999 V2000
   -2.2358   -0.8762   -1.6568 O   0  0  0  0  0  0  0  0  0  0  0  0
   -2.4195    2.3325    0.8600 O   0  0  0  0  0  0  0  0  0  0  0  0
    3.6102   -1.7777    1.0267 O   0  0  0  0  0  0  0  0  0  0  0  0
    5.4554   -0.1294   -0.2382 O   0  0  0  0  0  0  0  0  0  0  0  0
   -3.3351    0.3395    0.0339 N   0  0  0  0  0  0  0  0  0  0  0  0
   -4.6829    0.7208    0.4668 C   0  0  0  0  0  0  0  0  0  0  0  0
   -5.5449   -0.4867    0.7988 C   0  0  0  0  0  0  0  0  0  0  0  0
   -5.4489   -1.5001   -0.2896 C   0  0  0  0  0  0  0  0  0  0  0  0
   -3.2162   -0.6757   -0.9406 C   0  0  0  0  0  0  0  0  0  0  0  0
   -2.2848    1.1777    0.4564 C   0  0  0  0  0  0  0  0  0  0  0  0
   -4.4009   -1.5630   -1.1162 C   0  0  0  0  0  0  0  0  0  0  0  0
    1.4992    1.0273    0.0611 C   0  0  0  0  0  0  0  0  0  0  0  0
   -0.9232    0.6077    0.3898 C   0  0  0  0  0  0  0  0  0  0  0  0
    0.0892    1.4433    0.1648 C   0  0  0  0  0  0  0  0  0  0  0  0
    1.8886   -0.1891    0.5977 C   0  0  0  0  0  0  0  0  0  0  0  0
    3.2230   -0.5832    0.4991 C   0  0  0  0  0  0  0  0  0  0  0  0
    2.4073    1.8606   -0.5712 C   0  0  0  0  0  0  0  0  0  0  0  0
    4.1497    0.2449   -0.1345 C   0  0  0  0  0  0  0  0  0  0  0  0
    3.7418    1.4668   -0.6695 C   0  0  0  0  0  0  0  0  0  0  0  0
    2.6021   -2.5651    1.6576 C   0  0  0  0  0  0  0  0  0  0  0  0
    5.8259   -0.8751   -1.3962 C   0  0  0  0  0  0  0  0  0  0  0  0
   -5.1315    1.2901   -0.3580 H   0  0  0  0  0  0  0  0  0  0  0  0
   -4.6344    1.3879    1.3349 H   0  0  0  0  0  0  0  0  0  0  0  0
   -6.5853   -0.1661    0.9205 H   0  0  0  0  0  0  0  0  0  0  0  0
   -5.2268   -0.9447    1.7423 H   0  0  0  0  0  0  0  0  0  0  0  0
   -6.2672   -2.2035   -0.4088 H   0  0  0  0  0  0  0  0  0  0  0  0
   -4.3549   -2.3100   -1.9011 H   0  0  0  0  0  0  0  0  0  0  0  0
   -0.8244   -0.4640    0.5041 H   0  0  0  0  0  0  0  0  0  0  0  0
   -0.0880    2.5073    0.0235 H   0  0  0  0  0  0  0  0  0  0  0  0
    1.1569   -0.7980    1.1113 H   0  0  0  0  0  0  0  0  0  0  0  0
    2.1049    2.8147   -0.9945 H   0  0  0  0  0  0  0  0  0  0  0  0
    4.4584    2.1168   -1.1643 H   0  0  0  0  0  0  0  0  0  0  0  0
    3.0855   -3.4823    2.0102 H   0  0  0  0  0  0  0  0  0  0  0  0
    1.8242   -2.8709    0.9496 H   0  0  0  0  0  0  0  0  0  0  0  0
    2.1926   -2.0646    2.5418 H   0  0  0  0  0  0  0  0  0  0  0  0
    5.2675   -1.8153   -1.4444 H   0  0  0  0  0  0  0  0  0  0  0  0
    6.8927   -1.1052   -1.3287 H   0  0  0  0  0  0  0  0  0  0  0  0
    5.6512   -0.2870   -2.3027 H   0  0  0  0  0  0  0  0  0  0  0  0
  1  9  2  0  0  0  0
  2 10  2  0  0  0  0
  3 16  1  0  0  0  0
  3 20  1  0  0  0  0
  4 18  1  0  0  0  0
  4 21  1  0  0  0  0
  5  6  1  0  0  0  0
  5  9  1  0  0  0  0
  5 10  1  0  0  0  0
  6  7  1  0  0  0  0
  6 22  1  0  0  0  0
  6 23  1  0  0  0  0
  7  8  1  0  0  0  0
  7 24  1  0  0  0  0
  7 25  1  0  0  0  0
  8 11  2  0  0  0  0
  8 26  1  0  0  0  0
  9 11  1  0  0  0  0
 10 13  1  0  0  0  0
 11 27  1  0  0  0  0
 12 14  1  0  0  0  0
 12 15  2  0  0  0  0
 12 17  1  0  0  0  0
 13 14  2  0  0  0  0
 13 28  1  0  0  0  0
 14 29  1  0  0  0  0
 15 16  1  0  0  0  0
 15 30  1  0  0  0  0
 16 18  2  0  0  0  0
 17 19  2  0  0  0  0
 17 31  1  0  0  0  0
 18 19  1  0  0  0  0
 19 32  1  0  0  0  0
 20 33  1  0  0  0  0
 20 34  1  0  0  0  0
 20 35  1  0  0  0  0
 21 36  1  0  0  0  0
 21 37  1  0  0  0  0
 21 38  1  0  0  0  0
M  END
> <PUBCHEM_COMPOUND_CID>
14707485

> <PUBCHEM_CONFORMER_RMSD>
0.8

> <PUBCHEM_CONFORMER_DIVERSEORDER>
3
36
14
34
6
5
26
22
15
29
27
13
33
7
32
31
4
24
17
11
8
23
9
20
25
19
2
30
18
10
12
21
1
35
16
28

> <PUBCHEM_MMFF94_PARTIAL_CHARGES>
28
1 -0.57
10 0.62
11 -0.14
12 0.03
13 -0.14
14 -0.18
15 -0.15
16 0.08
17 -0.15
18 0.08
19 -0.15
2 -0.57
20 0.28
21 0.28
26 0.15
27 0.15
28 0.15
29 0.15
3 -0.36
30 0.15
31 0.15
32 0.15
4 -0.36
5 -0.42
6 0.3
7 0.14
8 -0.29
9 0.62

> <PUBCHEM_EFFECTIVE_ROTOR_COUNT>
5.6

> <PUBCHEM_PHARMACOPHORE_FEATURES>
6
1 1 acceptor
1 2 acceptor
1 3 acceptor
1 4 acceptor
6 12 15 16 17 18 19 rings
6 5 6 7 8 9 11 rings

> <PUBCHEM_HEAVY_ATOM_COUNT>
21

> <PUBCHEM_ATOM_DEF_STEREO_COUNT>
0

> <PUBCHEM_ATOM_UDEF_STEREO_COUNT>
0

> <PUBCHEM_BOND_DEF_STEREO_COUNT>
1

> <PUBCHEM_BOND_UDEF_STEREO_COUNT>
0

> <PUBCHEM_ISOTOPIC_ATOM_COUNT>
0

> <PUBCHEM_COMPONENT_COUNT>
1

> <PUBCHEM_CACTVS_TAUTO_COUNT>
1

> <PUBCHEM_CONFORMER_ID>
00E06B1D00000003

> <PUBCHEM_MMFF94_ENERGY>
78.2736

> <PUBCHEM_FEATURE_SELFOVERLAP>
30.45

> <PUBCHEM_SHAPE_FINGERPRINT>
10366900 7 17703782631130508512
10693767 8 18268987752200673110
11089746 13 11095881540853023882
11545043 162 16732983171538282992
11796584 16 18259983803491597157
12107183 9 17763746885563185657
12236239 1 18335697234773670748
12553582 1 18188221943610883303
12596602 18 17822008670836124017
12633257 1 5545188407618362564
12788726 201 18260263092514649049
13167823 11 18408603656199130145
13551218 46 17894905248307778471
14576447 43 18342177773962048160
14767858 380 18130493190144892084
15188451 53 15430330079493859861
15375462 189 18335706022566701057
15537594 2 18411135857242498931
17492 89 18338237192633691971
17834072 33 18413105056782204560
17857418 61 18410580582606274913
18681886 176 18186522086266540832
200 152 18342175553174163153
20645477 70 17632579370448603920
21054139 6 18342459227617162970
21267235 1 18335691741473264148
22950370 63 18261952951718548585
23402539 116 18408323281034870669
235170 7 16630536154103589775
23559900 14 17676213450415608857
23596394 208 16917358064265055802
239999 70 18333447621783823196
3004659 81 18410857650672395581
351380 3 18334576828266948503
46194498 28 16773794758112107174
465052 167 18042399141332036207
5104073 3 17531524257651669259
5281201 14 16988567921863402356
559249 180 18260265265989490429
5924683 9 14418428629098748149
602551 16 16805893891878047710
7495541 125 16732986401644015424
7970288 3 18042128669824798079

> <PUBCHEM_SHAPE_MULTIPOLES>
403.71
13.79
2.17
1.25
2.67
0.32
-0.14
5
-2.42
-0.6
0.55
-0.19
0.6
-1.74

> <PUBCHEM_SHAPE_SELFOVERLAP>
851.306

> <PUBCHEM_SHAPE_VOLUME>
226.8

> <PUBCHEM_COORDINATE_TYPE>
2
5
10

$$$$

