65086
  -OEChem-07051212503D

 36 38  0     1  0  0  0  0  0999 V2000
    2.0715    0.6591    0.7330 O   0  0  0  0  0  0  0  0  0  0  0  0
    1.2170   -2.3856   -0.9686 O   0  0  0  0  0  0  0  0  0  0  0  0
    3.6991   -1.6979   -0.1347 O   0  0  0  0  0  0  0  0  0  0  0  0
    0.6561   -0.5575    2.8181 O   0  0  0  0  0  0  0  0  0  0  0  0
    3.0497    2.9888   -0.5050 O   0  0  0  0  0  0  0  0  0  0  0  0
   -0.2612    0.3185    0.3367 N   0  0  0  0  0  0  0  0  0  0  0  0
   -1.7770    1.9429    0.3578 N   0  0  0  0  0  0  0  0  0  0  0  0
   -1.6610   -1.5642   -0.2873 N   0  0  0  0  0  0  0  0  0  0  0  0
   -3.9803   -0.8705   -0.5967 N   0  0  0  0  0  0  0  0  0  0  0  0
   -4.6937    1.3949   -0.3039 N   0  0  0  0  0  0  0  0  0  0  0  0
    1.0595   -0.3482    0.4606 C   0  0  1  0  0  0  0  0  0  0  0  0
    1.4955   -1.0025   -0.8674 C   0  0  1  0  0  0  0  0  0  0  0  0
    2.9895   -0.7468   -0.9248 C   0  0  1  0  0  0  0  0  0  0  0  0
    3.1149    0.6098   -0.2593 C   0  0  1  0  0  0  0  0  0  0  0  0
    1.0640   -1.2890    1.6749 C   0  0  0  0  0  0  0  0  0  0  0  0
    2.9248    1.7730   -1.2241 C   0  0  0  0  0  0  0  0  0  0  0  0
   -1.4401   -0.2726    0.0001 C   0  0  0  0  0  0  0  0  0  0  0  0
   -0.5078    1.6452    0.5430 C   0  0  0  0  0  0  0  0  0  0  0  0
   -2.3712    0.7535    0.0179 C   0  0  0  0  0  0  0  0  0  0  0  0
   -3.6842    0.4169   -0.2961 C   0  0  0  0  0  0  0  0  0  0  0  0
   -2.9652   -1.7678   -0.5740 C   0  0  0  0  0  0  0  0  0  0  0  0
    1.0130   -0.4971   -1.7138 H   0  0  0  0  0  0  0  0  0  0  0  0
    3.4016   -0.7848   -1.9375 H   0  0  0  0  0  0  0  0  0  0  0  0
    4.0637    0.7242    0.2769 H   0  0  0  0  0  0  0  0  0  0  0  0
    2.0607   -1.6899    1.8808 H   0  0  0  0  0  0  0  0  0  0  0  0
    0.3735   -2.1284    1.5510 H   0  0  0  0  0  0  0  0  0  0  0  0
    1.9307    1.7618   -1.6815 H   0  0  0  0  0  0  0  0  0  0  0  0
    3.6838    1.7531   -2.0122 H   0  0  0  0  0  0  0  0  0  0  0  0
    1.5783   -2.6961   -1.8163 H   0  0  0  0  0  0  0  0  0  0  0  0
    0.2551    2.3568    0.8273 H   0  0  0  0  0  0  0  0  0  0  0  0
    3.5141   -2.5775   -0.5057 H   0  0  0  0  0  0  0  0  0  0  0  0
    1.2812    0.1785    2.9338 H   0  0  0  0  0  0  0  0  0  0  0  0
    2.9270    3.7126   -1.1426 H   0  0  0  0  0  0  0  0  0  0  0  0
   -3.2381   -2.7884   -0.8198 H   0  0  0  0  0  0  0  0  0  0  0  0
   -4.4751    2.3565   -0.0807 H   0  0  0  0  0  0  0  0  0  0  0  0
   -5.6401    1.1257   -0.5361 H   0  0  0  0  0  0  0  0  0  0  0  0
  1 11  1  0  0  0  0
  1 14  1  0  0  0  0
  2 12  1  0  0  0  0
  2 29  1  0  0  0  0
  3 13  1  0  0  0  0
  3 31  1  0  0  0  0
  4 15  1  0  0  0  0
  4 32  1  0  0  0  0
  5 16  1  0  0  0  0
  5 33  1  0  0  0  0
  6 11  1  0  0  0  0
  6 17  1  0  0  0  0
  6 18  1  0  0  0  0
  7 18  2  0  0  0  0
  7 19  1  0  0  0  0
  8 17  2  0  0  0  0
  8 21  1  0  0  0  0
  9 20  1  0  0  0  0
  9 21  2  0  0  0  0
 10 20  1  0  0  0  0
 10 35  1  0  0  0  0
 10 36  1  0  0  0  0
 11 12  1  0  0  0  0
 11 15  1  0  0  0  0
 12 13  1  0  0  0  0
 12 22  1  0  0  0  0
 13 14  1  0  0  0  0
 13 23  1  0  0  0  0
 14 16  1  0  0  0  0
 14 24  1  0  0  0  0
 15 25  1  0  0  0  0
 15 26  1  0  0  0  0
 16 27  1  0  0  0  0
 16 28  1  0  0  0  0
 17 19  1  0  0  0  0
 18 30  1  0  0  0  0
 19 20  2  0  0  0  0
 21 34  1  0  0  0  0
M  END
> <PUBCHEM_COMPOUND_CID>
65086

> <PUBCHEM_CONFORMER_RMSD>
0.6

> <PUBCHEM_CONFORMER_DIVERSEORDER>
1
10
20
25
12
16
23
7
24
15
21
19
5
17
22
13
18
2
6
4
11
14
8
3
9

> <PUBCHEM_MMFF94_PARTIAL_CHARGES>
29
1 -0.56
10 -0.9
11 0.54
12 0.28
13 0.28
14 0.28
15 0.28
16 0.28
17 0.11
18 0.04
19 0.23
2 -0.68
20 0.41
21 0.47
29 0.4
3 -0.68
30 0.15
31 0.4
32 0.4
33 0.4
34 0.15
35 0.4
36 0.4
4 -0.68
5 -0.68
6 0.05
7 -0.57
8 -0.57
9 -0.62

> <PUBCHEM_EFFECTIVE_ROTOR_COUNT>
4

> <PUBCHEM_PHARMACOPHORE_FEATURES>
17
1 1 acceptor
1 10 cation
1 10 donor
1 2 acceptor
1 2 donor
1 3 acceptor
1 3 donor
1 4 acceptor
1 4 donor
1 5 acceptor
1 5 donor
3 6 7 18 cation
3 6 8 17 cation
3 8 9 21 cation
5 1 11 12 13 14 rings
5 6 7 17 18 19 rings
6 8 9 17 19 20 21 rings

> <PUBCHEM_HEAVY_ATOM_COUNT>
21

> <PUBCHEM_ATOM_DEF_STEREO_COUNT>
4

> <PUBCHEM_ATOM_UDEF_STEREO_COUNT>
0

> <PUBCHEM_BOND_DEF_STEREO_COUNT>
0

> <PUBCHEM_BOND_UDEF_STEREO_COUNT>
0

> <PUBCHEM_ISOTOPIC_ATOM_COUNT>
0

> <PUBCHEM_COMPONENT_COUNT>
1

> <PUBCHEM_CACTVS_TAUTO_COUNT>
3

> <PUBCHEM_CONFORMER_ID>
0000FE3E00000001

> <PUBCHEM_MMFF94_ENERGY>
56.0078

> <PUBCHEM_FEATURE_SELFOVERLAP>
86.893

> <PUBCHEM_SHAPE_FINGERPRINT>
10498660 4 18408321060367908869
10616163 171 18261107452783069847
10863032 1 18336824191257974430
12400797 292 18410005550820308900
12707595 3 16008747991710149307
13583140 156 17272842358996770809
14115302 16 17895194445340157718
14250199 8 18341602733311990636
14787075 74 17268062446394447915
14790565 3 18190731115779005217
15196674 1 18335139787021216663
15852999 172 15626224610772858825
16752209 62 18119262885515943849
16945 1 18190445233489783918
17492 54 17907863898720268589
1813 80 17055008283084612434
18186145 218 17489870418704878103
19765921 60 17988364762965396841
19862831 5 18202002170017991823
20361792 2 14345792772820721368
20645476 183 18131071580237054319
21501502 16 18261103097432646892
21524375 3 18200031716801828100
21634736 98 18410569591779800150
22112679 90 17769386250716100050
23402539 116 18410300232821584894
23419403 2 15471133771285179722
23493267 7 18343301483435920819
23559900 14 18261677060046355102
2748010 2 16822220290978282139
3082319 5 18334569135917055556
3286 77 16443642275805153043
4280585 95 17393861274602384342
4340502 62 16988558014228392921
474 4 17703221806858877340
495365 180 16516836777930393107
5104073 3 18407759231416627115
633830 44 17846495924336772109
7364860 26 18408323298230401628
7832392 63 18121209055029701212
9709674 26 18334568075124067359
9981440 41 17910390585790961704

> <PUBCHEM_SHAPE_MULTIPOLES>
377.92
6.89
2.39
1.35
3.9
0.64
-0.95
1.27
2.3
-1
0.45
-0.71
-0.4
-0.58

> <PUBCHEM_SHAPE_SELFOVERLAP>
822.307

> <PUBCHEM_SHAPE_VOLUME>
202.2

> <PUBCHEM_COORDINATE_TYPE>
2
5
10

$$$$

