442846
  -OEChem-07051212592D

 66 67  0     1  0  0  0  0  0999 V2000
    7.9298   -0.5718    0.0000 O   0  0  0  0  0  0  0  0  0  0  0  0
    8.8247    1.9180    0.0000 O   0  0  0  0  0  0  0  0  0  0  0  0
    3.5731    1.9313    0.0000 O   0  0  0  0  0  0  0  0  0  0  0  0
    6.1712    0.4313    0.0000 N   0  0  3  0  0  0  0  0  0  0  0  0
    3.9318   -1.7934    0.0000 N   0  0  0  0  0  0  0  0  0  0  0  0
    2.7071    0.4313    0.0000 N   0  0  0  0  0  0  0  0  0  0  0  0
    7.0812    0.9381    0.0000 C   0  0  2  0  0  0  0  0  0  0  0  0
    5.3052    0.9313    0.0000 C   0  0  1  0  0  0  0  0  0  0  0  0
    7.9414    0.4282    0.0000 C   0  0  1  0  0  0  0  0  0  0  0  0
    5.2891    1.9728    0.0000 C   0  0  0  0  0  0  0  0  0  0  0  0
    6.1712   -0.5687    0.0000 C   0  0  0  0  0  0  0  0  0  0  0  0
    8.8131    0.9181    0.0000 C   0  0  1  0  0  0  0  0  0  0  0  0
    7.0892    1.9797    0.0000 C   0  0  0  0  0  0  0  0  0  0  0  0
    4.4392    0.4313    0.0000 C   0  0  0  0  0  0  0  0  0  0  0  0
    6.1872    2.5006    0.0000 C   0  0  0  0  0  0  0  0  0  0  0  0
    5.7638   -1.5523    0.0000 C   0  0  0  0  0  0  0  0  0  0  0  0
    9.6733    0.4081    0.0000 C   0  0  0  0  0  0  0  0  0  0  0  0
    4.8978   -2.0523    0.0000 C   0  0  0  0  0  0  0  0  0  0  0  0
   10.5451    0.8981    0.0000 C   0  0  0  0  0  0  0  0  0  0  0  0
    3.5731    0.9313    0.0000 C   0  0  0  0  0  0  0  0  0  0  0  0
   11.4053    0.3881    0.0000 C   0  0  0  0  0  0  0  0  0  0  0  0
    3.2247   -2.5006    0.0000 C   0  0  0  0  0  0  0  0  0  0  0  0
    2.7071   -0.5687    0.0000 C   0  0  0  0  0  0  0  0  0  0  0  0
    2.2588   -2.2417    0.0000 C   0  0  0  0  0  0  0  0  0  0  0  0
    2.0000   -1.2758    0.0000 C   0  0  0  0  0  0  0  0  0  0  0  0
   12.2770    0.8781    0.0000 C   0  0  0  0  0  0  0  0  0  0  0  0
   13.1372    0.3681    0.0000 C   0  0  0  0  0  0  0  0  0  0  0  0
    7.8214    1.3560    0.0000 H   0  0  0  0  0  0  0  0  0  0  0  0
    4.5658    1.3506    0.0000 H   0  0  0  0  0  0  0  0  0  0  0  0
    7.4009    0.1244    0.0000 H   0  0  0  0  0  0  0  0  0  0  0  0
    5.0711    2.5532    0.0000 H   0  0  0  0  0  0  0  0  0  0  0  0
    4.6800    1.8573    0.0000 H   0  0  0  0  0  0  0  0  0  0  0  0
    6.6096   -1.0071    0.0000 H   0  0  0  0  0  0  0  0  0  0  0  0
    5.5631   -0.4477    0.0000 H   0  0  0  0  0  0  0  0  0  0  0  0
    9.3536    1.2219    0.0000 H   0  0  0  0  0  0  0  0  0  0  0  0
    7.6274    2.2877    0.0000 H   0  0  0  0  0  0  0  0  0  0  0  0
    4.0406   -0.0437    0.0000 H   0  0  0  0  0  0  0  0  0  0  0  0
    4.8377   -0.0437    0.0000 H   0  0  0  0  0  0  0  0  0  0  0  0
    6.1848    3.1206    0.0000 H   0  0  0  0  0  0  0  0  0  0  0  0
    5.8980   -2.1576    0.0000 H   0  0  0  0  0  0  0  0  0  0  0  0
    6.3814   -1.6063    0.0000 H   0  0  0  0  0  0  0  0  0  0  0  0
    9.2693   -0.0622    0.0000 H   0  0  0  0  0  0  0  0  0  0  0  0
   10.0663   -0.0714    0.0000 H   0  0  0  0  0  0  0  0  0  0  0  0
    4.5878   -2.5892    0.0000 H   0  0  0  0  0  0  0  0  0  0  0  0
    5.3362   -2.4907    0.0000 H   0  0  0  0  0  0  0  0  0  0  0  0
   10.9491    1.3684    0.0000 H   0  0  0  0  0  0  0  0  0  0  0  0
   10.1521    1.3776    0.0000 H   0  0  0  0  0  0  0  0  0  0  0  0
    8.4632   -0.8880    0.0000 H   0  0  0  0  0  0  0  0  0  0  0  0
   11.0013   -0.0822    0.0000 H   0  0  0  0  0  0  0  0  0  0  0  0
   11.7983   -0.0914    0.0000 H   0  0  0  0  0  0  0  0  0  0  0  0
    9.3652    2.2218    0.0000 H   0  0  0  0  0  0  0  0  0  0  0  0
    3.7714   -1.1946    0.0000 H   0  0  0  0  0  0  0  0  0  0  0  0
    2.1702    0.7413    0.0000 H   0  0  0  0  0  0  0  0  0  0  0  0
    2.9627   -3.0625    0.0000 H   0  0  0  0  0  0  0  0  0  0  0  0
    3.7326   -2.8562    0.0000 H   0  0  0  0  0  0  0  0  0  0  0  0
    3.0171   -1.1056    0.0000 H   0  0  0  0  0  0  0  0  0  0  0  0
    3.3060   -0.4082    0.0000 H   0  0  0  0  0  0  0  0  0  0  0  0
    1.6412   -2.2958    0.0000 H   0  0  0  0  0  0  0  0  0  0  0  0
    2.2048   -2.8594    0.0000 H   0  0  0  0  0  0  0  0  0  0  0  0
    1.6444   -0.7679    0.0000 H   0  0  0  0  0  0  0  0  0  0  0  0
    1.4381   -1.5378    0.0000 H   0  0  0  0  0  0  0  0  0  0  0  0
   12.6810    1.3484    0.0000 H   0  0  0  0  0  0  0  0  0  0  0  0
   11.8840    1.3576    0.0000 H   0  0  0  0  0  0  0  0  0  0  0  0
   12.8210   -0.1652    0.0000 H   0  0  0  0  0  0  0  0  0  0  0  0
   13.6705    0.0519    0.0000 H   0  0  0  0  0  0  0  0  0  0  0  0
   13.4534    0.9014    0.0000 H   0  0  0  0  0  0  0  0  0  0  0  0
  9  1  1  1  0  0  0
  1 48  1  0  0  0  0
 12  2  1  6  0  0  0
  2 51  1  0  0  0  0
  3 20  2  0  0  0  0
  4  7  1  0  0  0  0
  4  8  1  0  0  0  0
  4 11  1  0  0  0  0
  5 18  1  0  0  0  0
  5 22  1  0  0  0  0
  5 52  1  0  0  0  0
  6 20  1  0  0  0  0
  6 23  1  0  0  0  0
  6 53  1  0  0  0  0
  7  9  1  0  0  0  0
  7 13  1  0  0  0  0
  7 28  1  6  0  0  0
  8 10  1  0  0  0  0
  8 14  1  0  0  0  0
  8 29  1  1  0  0  0
  9 12  1  0  0  0  0
  9 30  1  0  0  0  0
 10 15  1  0  0  0  0
 10 31  1  0  0  0  0
 10 32  1  0  0  0  0
 11 16  1  0  0  0  0
 11 33  1  0  0  0  0
 11 34  1  0  0  0  0
 12 17  1  0  0  0  0
 12 35  1  0  0  0  0
 13 15  2  0  0  0  0
 13 36  1  0  0  0  0
 14 20  1  0  0  0  0
 14 37  1  0  0  0  0
 14 38  1  0  0  0  0
 15 39  1  0  0  0  0
 16 18  1  0  0  0  0
 16 40  1  0  0  0  0
 16 41  1  0  0  0  0
 17 19  1  0  0  0  0
 17 42  1  0  0  0  0
 17 43  1  0  0  0  0
 18 44  1  0  0  0  0
 18 45  1  0  0  0  0
 19 21  1  0  0  0  0
 19 46  1  0  0  0  0
 19 47  1  0  0  0  0
 21 26  1  0  0  0  0
 21 49  1  0  0  0  0
 21 50  1  0  0  0  0
 22 24  1  0  0  0  0
 22 54  1  0  0  0  0
 22 55  1  0  0  0  0
 23 25  1  0  0  0  0
 23 56  1  0  0  0  0
 23 57  1  0  0  0  0
 24 25  1  0  0  0  0
 24 58  1  0  0  0  0
 24 59  1  0  0  0  0
 25 60  1  0  0  0  0
 25 61  1  0  0  0  0
 26 27  1  0  0  0  0
 26 62  1  0  0  0  0
 26 63  1  0  0  0  0
 27 64  1  0  0  0  0
 27 65  1  0  0  0  0
 27 66  1  0  0  0  0
M  END
> <PUBCHEM_COMPOUND_CID>
442846

> <PUBCHEM_COMPOUND_CANONICALIZED>
1

> <PUBCHEM_CACTVS_COMPLEXITY>
458

> <PUBCHEM_CACTVS_HBOND_ACCEPTOR>
5

> <PUBCHEM_CACTVS_HBOND_DONOR>
4

> <PUBCHEM_CACTVS_ROTATABLE_BOND>
6

> <PUBCHEM_CACTVS_SUBSKEYS>
AAADcfB7MAAAAAAAAAAAAAAAAAAAAAAAAAAgAAAAAAAAAAAAAAAAHgAQCAAACDzhgAYCAAPAAgCIACFSEACAAAAgAAAICIEIAAgDEBoAwQAEQAAG1gCZAAOYwKAAAAAAAAAAAAAAAAAAAAAAAAAAAAAAAA==

> <PUBCHEM_IUPAC_OPENEYE_NAME>
(13S,17S)-17-[(1S,2R)-1,2-dihydroxyheptyl]-1,5,10-triazabicyclo[11.4.0]heptadec-15-en-11-one

> <PUBCHEM_IUPAC_CAS_NAME>
(13S,17S)-17-[(1S,2R)-1,2-dihydroxyheptyl]-1,5,10-triazabicyclo[11.4.0]heptadec-15-en-11-one

> <PUBCHEM_IUPAC_NAME>
(13S,17S)-17-[(1S,2R)-1,2-dihydroxyheptyl]-1,5,10-triazabicyclo[11.4.0]heptadec-15-en-11-one

> <PUBCHEM_IUPAC_SYSTEMATIC_NAME>
(13S,17S)-17-[(1S,2R)-1,2-bis(oxidanyl)heptyl]-1,5,10-triazabicyclo[11.4.0]heptadec-15-en-11-one

> <PUBCHEM_IUPAC_TRADITIONAL_NAME>
(13S,17S)-17-[(1S,2R)-1,2-dihydroxyheptyl]-1,5,10-triazabicyclo[11.4.0]heptadec-15-en-11-one

> <PUBCHEM_IUPAC_INCHI>
InChI=1S/C21H39N3O3/c1-2-3-4-11-19(25)21(27)18-10-7-9-17-16-20(26)23-14-6-5-12-22-13-8-15-24(17)18/h7,10,17-19,21-22,25,27H,2-6,8-9,11-16H2,1H3,(H,23,26)/t17-,18-,19+,21-/m0/s1

> <PUBCHEM_IUPAC_INCHIKEY>
KZZKPJBKEJKNAK-HUUJSLGLSA-N

> <PUBCHEM_XLOGP3_AA>
1.8

> <PUBCHEM_EXACT_MASS>
381.299142

> <PUBCHEM_MOLECULAR_FORMULA>
C21H39N3O3

> <PUBCHEM_MOLECULAR_WEIGHT>
381.55266

> <PUBCHEM_OPENEYE_CAN_SMILES>
CCCCCC(C(C1C=CCC2N1CCCNCCCCNC(=O)C2)O)O

> <PUBCHEM_OPENEYE_ISO_SMILES>
CCCCC[C@H]([C@H]([C@@H]1C=CC[C@@H]2N1CCCNCCCCNC(=O)C2)O)O

> <PUBCHEM_CACTVS_TPSA>
84.8

> <PUBCHEM_MONOISOTOPIC_WEIGHT>
381.299142

> <PUBCHEM_TOTAL_CHARGE>
0

> <PUBCHEM_HEAVY_ATOM_COUNT>
27

> <PUBCHEM_ATOM_DEF_STEREO_COUNT>
4

> <PUBCHEM_ATOM_UDEF_STEREO_COUNT>
0

> <PUBCHEM_BOND_DEF_STEREO_COUNT>
0

> <PUBCHEM_BOND_UDEF_STEREO_COUNT>
0

> <PUBCHEM_ISOTOPIC_ATOM_COUNT>
0

> <PUBCHEM_COMPONENT_COUNT>
1

> <PUBCHEM_CACTVS_TAUTO_COUNT>
3

> <PUBCHEM_COORDINATE_TYPE>
1
5
255

> <PUBCHEM_BONDANNOTATIONS>
9  1  5
12  2  6
7  28  6
8  29  5

$$$$

