47205257
  -OEChem-06241222583D

 40 41  0     1  0  0  0  0  0999 V2000
   -2.8665   -2.0586   -0.1836 O   0  0  0  0  0  0  0  0  0  0  0  0
    3.0749    0.2564   -0.1770 N   0  0  0  0  0  0  0  0  0  0  0  0
    3.9356   -0.5796    0.4155 N   0  0  0  0  0  0  0  0  0  0  0  0
   -3.3376    0.2112   -0.1292 N   0  0  0  0  0  0  0  0  0  0  0  0
    3.6217    1.4762   -0.6870 C   0  0  0  0  0  0  0  0  0  0  0  0
    5.0981    1.3286   -0.3639 C   0  0  0  0  0  0  0  0  0  0  0  0
   -4.7760    0.0839   -0.0982 C   0  0  1  0  0  0  0  0  0  0  0  0
    5.0885    0.0025    0.3254 C   0  0  0  0  0  0  0  0  0  0  0  0
    1.6934   -0.0277   -0.1750 C   0  0  0  0  0  0  0  0  0  0  0  0
   -5.4236    1.2451    0.6673 C   0  0  0  0  0  0  0  0  0  0  0  0
   -1.0390   -0.5895   -0.1710 C   0  0  0  0  0  0  0  0  0  0  0  0
   -5.3160    0.0055   -1.5223 C   0  0  0  0  0  0  0  0  0  0  0  0
    1.2314   -1.2393    0.3391 C   0  0  0  0  0  0  0  0  0  0  0  0
    0.7894    0.9028   -0.6872 C   0  0  0  0  0  0  0  0  0  0  0  0
   -2.4943   -0.8884   -0.1698 C   0  0  0  0  0  0  0  0  0  0  0  0
    6.3454   -0.5941    0.8629 C   0  0  0  0  0  0  0  0  0  0  0  0
   -0.1350   -1.5201    0.3411 C   0  0  0  0  0  0  0  0  0  0  0  0
   -0.5769    0.6220   -0.6851 C   0  0  0  0  0  0  0  0  0  0  0  0
   -4.9135    1.3631    2.0979 C   0  0  0  0  0  0  0  0  0  0  0  0
    3.4708    1.5815   -1.7671 H   0  0  0  0  0  0  0  0  0  0  0  0
    3.2170    2.3606   -0.1816 H   0  0  0  0  0  0  0  0  0  0  0  0
    5.7204    1.2877   -1.2617 H   0  0  0  0  0  0  0  0  0  0  0  0
    5.4613    2.1104    0.3080 H   0  0  0  0  0  0  0  0  0  0  0  0
   -5.0252   -0.8543    0.4132 H   0  0  0  0  0  0  0  0  0  0  0  0
   -5.2308    2.1927    0.1490 H   0  0  0  0  0  0  0  0  0  0  0  0
   -6.5114    1.1072    0.6888 H   0  0  0  0  0  0  0  0  0  0  0  0
   -2.9610    1.1525   -0.1070 H   0  0  0  0  0  0  0  0  0  0  0  0
   -4.8850   -0.8461   -2.0600 H   0  0  0  0  0  0  0  0  0  0  0  0
   -5.0714    0.9103   -2.0900 H   0  0  0  0  0  0  0  0  0  0  0  0
   -6.4045   -0.1136   -1.5219 H   0  0  0  0  0  0  0  0  0  0  0  0
    1.9069   -1.9878    0.7441 H   0  0  0  0  0  0  0  0  0  0  0  0
    1.1097    1.8524   -1.1055 H   0  0  0  0  0  0  0  0  0  0  0  0
    6.7804    0.0833    1.6023 H   0  0  0  0  0  0  0  0  0  0  0  0
    7.0565   -0.7373    0.0452 H   0  0  0  0  0  0  0  0  0  0  0  0
    6.1402   -1.5584    1.3348 H   0  0  0  0  0  0  0  0  0  0  0  0
   -0.4761   -2.4679    0.7493 H   0  0  0  0  0  0  0  0  0  0  0  0
   -1.2408    1.3598   -1.1254 H   0  0  0  0  0  0  0  0  0  0  0  0
   -3.8473    1.6073    2.1285 H   0  0  0  0  0  0  0  0  0  0  0  0
   -5.4513    2.1593    2.6227 H   0  0  0  0  0  0  0  0  0  0  0  0
   -5.0707    0.4297    2.6477 H   0  0  0  0  0  0  0  0  0  0  0  0
  1 15  2  0  0  0  0
  2  3  1  0  0  0  0
  2  5  1  0  0  0  0
  2  9  1  0  0  0  0
  3  8  2  0  0  0  0
  4  7  1  0  0  0  0
  4 15  1  0  0  0  0
  4 27  1  0  0  0  0
  5  6  1  0  0  0  0
  5 20  1  0  0  0  0
  5 21  1  0  0  0  0
  6  8  1  0  0  0  0
  6 22  1  0  0  0  0
  6 23  1  0  0  0  0
  7 10  1  0  0  0  0
  7 12  1  0  0  0  0
  7 24  1  0  0  0  0
  8 16  1  0  0  0  0
  9 13  2  0  0  0  0
  9 14  1  0  0  0  0
 10 19  1  0  0  0  0
 10 25  1  0  0  0  0
 10 26  1  0  0  0  0
 11 15  1  0  0  0  0
 11 17  2  0  0  0  0
 11 18  1  0  0  0  0
 12 28  1  0  0  0  0
 12 29  1  0  0  0  0
 12 30  1  0  0  0  0
 13 17  1  0  0  0  0
 13 31  1  0  0  0  0
 14 18  2  0  0  0  0
 14 32  1  0  0  0  0
 16 33  1  0  0  0  0
 16 34  1  0  0  0  0
 16 35  1  0  0  0  0
 17 36  1  0  0  0  0
 18 37  1  0  0  0  0
 19 38  1  0  0  0  0
 19 39  1  0  0  0  0
 19 40  1  0  0  0  0
M  END
> <PUBCHEM_COMPOUND_CID>
47205257

> <PUBCHEM_CONFORMER_RMSD>
0.8

> <PUBCHEM_CONFORMER_DIVERSEORDER>
1
15
16
4
11
10
7
6
14
13
5
8
17
9
3
12
2

> <PUBCHEM_MMFF94_PARTIAL_CHARGES>
21
1 -0.57
11 0.09
13 -0.15
14 -0.15
15 0.54
16 0.06
17 -0.15
18 -0.15
2 -0.43
27 0.37
3 -0.49
31 0.15
32 0.15
36 0.15
37 0.15
4 -0.73
5 0.37
6 0.06
7 0.3
8 0.33
9 0.1

> <PUBCHEM_EFFECTIVE_ROTOR_COUNT>
5.6

> <PUBCHEM_PHARMACOPHORE_FEATURES>
6
1 1 acceptor
1 19 hydrophobe
1 3 acceptor
1 4 donor
5 2 3 5 6 8 rings
6 9 11 13 14 17 18 rings

> <PUBCHEM_HEAVY_ATOM_COUNT>
19

> <PUBCHEM_ATOM_DEF_STEREO_COUNT>
0

> <PUBCHEM_ATOM_UDEF_STEREO_COUNT>
1

> <PUBCHEM_BOND_DEF_STEREO_COUNT>
0

> <PUBCHEM_BOND_UDEF_STEREO_COUNT>
0

> <PUBCHEM_ISOTOPIC_ATOM_COUNT>
0

> <PUBCHEM_COMPONENT_COUNT>
1

> <PUBCHEM_CACTVS_TAUTO_COUNT>
2

> <PUBCHEM_CONFORMER_ID>
02D04B8900000001

> <PUBCHEM_MMFF94_ENERGY>
50.204

> <PUBCHEM_FEATURE_SELFOVERLAP>
30.446

> <PUBCHEM_SHAPE_FINGERPRINT>
10087517 78 17749107824626946177
10906281 52 18341597197599929310
11045977 3 15841546349707494333
11089746 13 17968103014096394880
11315181 36 18334298630413386721
11401426 45 18341336617037980278
117890 112 17894629266430552744
12091667 2 16917353636380646127
12236239 1 18410013225631363790
12596602 18 17989197132207432409
12616971 3 17918275325032545998
13167372 99 18409728499676166272
13533116 47 17822293539623566022
13675066 3 17060337422706998863
13760787 5 17704075053899508222
14251718 22 14418138395934361197
14251764 18 18342455906947761278
14573314 32 16443337702304550517
15048467 5 18260267455742433368
15183329 4 18410573994115958366
15196674 1 18201159841358999950
15348495 7 16558741278835846833
15788980 27 16917069949284671095
15880784 105 13182724936669716493
18222031 100 8718543870148243798
18769570 83 17603581962879127849
18785283 64 15265915664152784948
19141452 34 18341897364016316990
19489759 90 17312823775430422779
20281389 69 18343867705727238021
20645477 70 7348623902521036852
21267235 1 17988926717419990986
212847 35 18410293588855408896
22182313 1 17702674408844878622
23402539 116 18113344093467871566
23402655 69 18334857186678697918
23536379 177 17095524019420143574
23559900 14 18338801109666398036
26918003 58 15913329100261266861
335352 9 18273219690365664846
34797466 226 16516242925249738852
441001 317 17530682126223659993
465052 167 16056879152619771082
5104073 3 18200596882910499304
542803 24 18113616781057681845

> <PUBCHEM_SHAPE_MULTIPOLES>
370.2
14.82
1.56
1.16
2.51
0.18
-0.32
-3.93
-2.77
-0.3
-0.14
-1.57
-0.38
-1.67

> <PUBCHEM_SHAPE_SELFOVERLAP>
767.773

> <PUBCHEM_SHAPE_VOLUME>
213.2

> <PUBCHEM_COORDINATE_TYPE>
2
5
10

$$$$

