442352
  -OEChem-07051212572D

 61 64  0     1  0  0  0  0  0999 V2000
    5.1350   -2.2071    0.0000 O   0  0  0  0  0  0  0  0  0  0  0  0
    6.0010   -0.7071    0.0000 O   0  0  0  0  0  0  0  0  0  0  0  0
    2.5369   -0.7071    0.0000 O   0  0  0  0  0  0  0  0  0  0  0  0
    2.5369   -2.7071    0.0000 O   0  0  0  0  0  0  0  0  0  0  0  0
    4.2690    0.2929    0.0000 O   0  0  0  0  0  0  0  0  0  0  0  0
    7.7610    2.3276    0.0000 O   0  0  0  0  0  0  0  0  0  0  0  0
    5.1350   -4.2071    0.0000 O   0  0  0  0  0  0  0  0  0  0  0  0
    4.2690    2.2929    0.0000 O   0  0  0  0  0  0  0  0  0  0  0  0
   12.1311    1.8271    0.0000 O   0  0  0  0  0  0  0  0  0  0  0  0
   12.1234    3.8271    0.0000 O   0  0  0  0  0  0  0  0  0  0  0  0
    3.4030   -1.2071    0.0000 C   0  0  1  0  0  0  0  0  0  0  0  0
    3.4030   -2.2071    0.0000 C   0  0  1  0  0  0  0  0  0  0  0  0
    4.2690   -0.7071    0.0000 C   0  0  2  0  0  0  0  0  0  0  0  0
    4.2690   -2.7071    0.0000 C   0  0  1  0  0  0  0  0  0  0  0  0
    5.1350   -1.2071    0.0000 C   0  0  1  0  0  0  0  0  0  0  0  0
    4.2690   -3.7071    0.0000 C   0  0  0  0  0  0  0  0  0  0  0  0
    6.8671    0.7929    0.0000 C   0  0  0  0  0  0  0  0  0  0  0  0
    7.7610    0.2583    0.0000 C   0  0  0  0  0  0  0  0  0  0  0  0
    8.6671    0.7721    0.0000 C   0  0  0  0  0  0  0  0  0  0  0  0
    8.6671    1.8137    0.0000 C   0  0  1  0  0  0  0  0  0  0  0  0
    6.0010    0.2929    0.0000 C   0  0  0  0  0  0  0  0  0  0  0  0
    6.8671    1.7929    0.0000 C   0  0  0  0  0  0  0  0  0  0  0  0
    9.5312    2.3171    0.0000 C   0  0  0  0  0  0  0  0  0  0  0  0
    5.1350    0.7929    0.0000 C   0  0  0  0  0  0  0  0  0  0  0  0
    6.0010    2.2929    0.0000 C   0  0  0  0  0  0  0  0  0  0  0  0
    5.1350    1.7929    0.0000 C   0  0  0  0  0  0  0  0  0  0  0  0
   10.3991    1.8204    0.0000 C   0  0  0  0  0  0  0  0  0  0  0  0
    9.5273    3.3171    0.0000 C   0  0  0  0  0  0  0  0  0  0  0  0
   11.2632    2.3238    0.0000 C   0  0  0  0  0  0  0  0  0  0  0  0
   10.3914    3.8204    0.0000 C   0  0  0  0  0  0  0  0  0  0  0  0
   11.2593    3.3238    0.0000 C   0  0  0  0  0  0  0  0  0  0  0  0
   12.1350    0.8271    0.0000 C   0  0  0  0  0  0  0  0  0  0  0  0
   12.1196    4.8271    0.0000 C   0  0  0  0  0  0  0  0  0  0  0  0
    3.4030   -0.5871    0.0000 H   0  0  0  0  0  0  0  0  0  0  0  0
    3.4030   -2.8271    0.0000 H   0  0  0  0  0  0  0  0  0  0  0  0
    4.8059   -0.3971    0.0000 H   0  0  0  0  0  0  0  0  0  0  0  0
    4.8059   -3.0171    0.0000 H   0  0  0  0  0  0  0  0  0  0  0  0
    5.1350   -0.5871    0.0000 H   0  0  0  0  0  0  0  0  0  0  0  0
    3.6584   -3.5994    0.0000 H   0  0  0  0  0  0  0  0  0  0  0  0
    4.0569   -4.2897    0.0000 H   0  0  0  0  0  0  0  0  0  0  0  0
    7.3564   -0.2115    0.0000 H   0  0  0  0  0  0  0  0  0  0  0  0
    8.1546   -0.2208    0.0000 H   0  0  0  0  0  0  0  0  0  0  0  0
    8.8761    0.1884    0.0000 H   0  0  0  0  0  0  0  0  0  0  0  0
    9.2779    0.8782    0.0000 H   0  0  0  0  0  0  0  0  0  0  0  0
    8.6635    2.4337    0.0000 H   0  0  0  0  0  0  0  0  0  0  0  0
    2.0000   -1.0171    0.0000 H   0  0  0  0  0  0  0  0  0  0  0  0
    2.5369   -3.3271    0.0000 H   0  0  0  0  0  0  0  0  0  0  0  0
    3.7320    0.6029    0.0000 H   0  0  0  0  0  0  0  0  0  0  0  0
    4.5981    0.4829    0.0000 H   0  0  0  0  0  0  0  0  0  0  0  0
    6.0010    2.9129    0.0000 H   0  0  0  0  0  0  0  0  0  0  0  0
    5.1350   -4.8271    0.0000 H   0  0  0  0  0  0  0  0  0  0  0  0
   10.4015    1.2004    0.0000 H   0  0  0  0  0  0  0  0  0  0  0  0
    8.9892    3.6250    0.0000 H   0  0  0  0  0  0  0  0  0  0  0  0
   10.3890    4.4404    0.0000 H   0  0  0  0  0  0  0  0  0  0  0  0
    4.2690    2.9129    0.0000 H   0  0  0  0  0  0  0  0  0  0  0  0
   11.5150    0.8247    0.0000 H   0  0  0  0  0  0  0  0  0  0  0  0
   12.1374    0.2071    0.0000 H   0  0  0  0  0  0  0  0  0  0  0  0
   12.7550    0.8295    0.0000 H   0  0  0  0  0  0  0  0  0  0  0  0
   12.7396    4.8295    0.0000 H   0  0  0  0  0  0  0  0  0  0  0  0
   12.1172    5.4471    0.0000 H   0  0  0  0  0  0  0  0  0  0  0  0
   11.4996    4.8247    0.0000 H   0  0  0  0  0  0  0  0  0  0  0  0
  1 14  1  0  0  0  0
  1 15  1  0  0  0  0
 15  2  1  6  0  0  0
  2 21  1  0  0  0  0
 11  3  1  6  0  0  0
  3 46  1  0  0  0  0
 12  4  1  1  0  0  0
  4 47  1  0  0  0  0
 13  5  1  1  0  0  0
  5 48  1  0  0  0  0
  6 20  1  0  0  0  0
  6 22  1  0  0  0  0
  7 16  1  0  0  0  0
  7 51  1  0  0  0  0
  8 26  1  0  0  0  0
  8 55  1  0  0  0  0
  9 29  1  0  0  0  0
  9 32  1  0  0  0  0
 10 31  1  0  0  0  0
 10 33  1  0  0  0  0
 11 12  1  0  0  0  0
 11 13  1  0  0  0  0
 11 34  1  0  0  0  0
 12 14  1  0  0  0  0
 12 35  1  0  0  0  0
 13 15  1  0  0  0  0
 13 36  1  0  0  0  0
 14 16  1  6  0  0  0
 14 37  1  0  0  0  0
 15 38  1  0  0  0  0
 16 39  1  0  0  0  0
 16 40  1  0  0  0  0
 17 18  1  0  0  0  0
 17 21  1  0  0  0  0
 17 22  2  0  0  0  0
 18 19  1  0  0  0  0
 18 41  1  0  0  0  0
 18 42  1  0  0  0  0
 19 20  1  0  0  0  0
 19 43  1  0  0  0  0
 19 44  1  0  0  0  0
 20 23  1  6  0  0  0
 20 45  1  0  0  0  0
 21 24  2  0  0  0  0
 22 25  1  0  0  0  0
 23 27  2  0  0  0  0
 23 28  1  0  0  0  0
 24 26  1  0  0  0  0
 24 49  1  0  0  0  0
 25 26  2  0  0  0  0
 25 50  1  0  0  0  0
 27 29  1  0  0  0  0
 27 52  1  0  0  0  0
 28 30  2  0  0  0  0
 28 53  1  0  0  0  0
 29 31  2  0  0  0  0
 30 31  1  0  0  0  0
 30 54  1  0  0  0  0
 32 56  1  0  0  0  0
 32 57  1  0  0  0  0
 32 58  1  0  0  0  0
 33 59  1  0  0  0  0
 33 60  1  0  0  0  0
 33 61  1  0  0  0  0
M  END
> <PUBCHEM_COMPOUND_CID>
442352

> <PUBCHEM_COMPOUND_CANONICALIZED>
1

> <PUBCHEM_CACTVS_COMPLEXITY>
622

> <PUBCHEM_CACTVS_HBOND_ACCEPTOR>
10

> <PUBCHEM_CACTVS_HBOND_DONOR>
5

> <PUBCHEM_CACTVS_ROTATABLE_BOND>
6

> <PUBCHEM_CACTVS_SUBSKEYS>
AAADceB4PAAAAAAAAAAAAAAAAAAAAAAAAAA0aIEAAAAAAACRQAAAGgAACAAADBSwmAMyDoAABgCAAiBCAAACCAAgIAAIiAAGiIgdNyKGMRqieCKlwBUPuAfA4PwOIAABCAAIQABAAAIQABCAAAAAAAAAAA==

> <PUBCHEM_IUPAC_OPENEYE_NAME>
(2S,3R,4S,5S,6R)-2-[(2S)-2-(3,4-dimethoxyphenyl)-7-hydroxy-chroman-5-yl]oxy-6-(hydroxymethyl)tetrahydropyran-3,4,5-triol

> <PUBCHEM_IUPAC_CAS_NAME>
(2S,3R,4S,5S,6R)-2-[[(2S)-2-(3,4-dimethoxyphenyl)-7-hydroxy-3,4-dihydro-2H-1-benzopyran-5-yl]oxy]-6-(hydroxymethyl)oxane-3,4,5-triol

> <PUBCHEM_IUPAC_NAME>
(2S,3R,4S,5S,6R)-2-[[(2S)-2-(3,4-dimethoxyphenyl)-7-hydroxy-3,4-dihydro-2H-chromen-5-yl]oxy]-6-(hydroxymethyl)oxane-3,4,5-triol

> <PUBCHEM_IUPAC_SYSTEMATIC_NAME>
(2S,3R,4S,5S,6R)-2-[[(2S)-2-(3,4-dimethoxyphenyl)-7-oxidanyl-3,4-dihydro-2H-chromen-5-yl]oxy]-6-(hydroxymethyl)oxane-3,4,5-triol

> <PUBCHEM_IUPAC_TRADITIONAL_NAME>
(2S,3R,4S,5S,6R)-2-[(2S)-2-(3,4-dimethoxyphenyl)-7-hydroxy-chroman-5-yl]oxy-6-methylol-tetrahydropyran-3,4,5-triol

> <PUBCHEM_IUPAC_INCHI>
InChI=1S/C23H28O10/c1-29-15-5-3-11(7-18(15)30-2)14-6-4-13-16(31-14)8-12(25)9-17(13)32-23-22(28)21(27)20(26)19(10-24)33-23/h3,5,7-9,14,19-28H,4,6,10H2,1-2H3/t14-,19+,20+,21-,22+,23+/m0/s1

> <PUBCHEM_IUPAC_INCHIKEY>
ZNWIOJJMPZWSQO-YRDUZITASA-N

> <PUBCHEM_XLOGP3_AA>
1.2

> <PUBCHEM_EXACT_MASS>
464.168247

> <PUBCHEM_MOLECULAR_FORMULA>
C23H28O10

> <PUBCHEM_MOLECULAR_WEIGHT>
464.46242

> <PUBCHEM_OPENEYE_CAN_SMILES>
COC1=C(C=C(C=C1)C2CCC3=C(C=C(C=C3O2)O)OC4C(C(C(C(O4)CO)O)O)O)OC

> <PUBCHEM_OPENEYE_ISO_SMILES>
COC1=C(C=C(C=C1)[C@@H]2CCC3=C(C=C(C=C3O2)O)O[C@H]4[C@@H]([C@H]([C@@H]([C@H](O4)CO)O)O)O)OC

> <PUBCHEM_CACTVS_TPSA>
147

> <PUBCHEM_MONOISOTOPIC_WEIGHT>
464.168247

> <PUBCHEM_TOTAL_CHARGE>
0

> <PUBCHEM_HEAVY_ATOM_COUNT>
33

> <PUBCHEM_ATOM_DEF_STEREO_COUNT>
6

> <PUBCHEM_ATOM_UDEF_STEREO_COUNT>
0

> <PUBCHEM_BOND_DEF_STEREO_COUNT>
0

> <PUBCHEM_BOND_UDEF_STEREO_COUNT>
0

> <PUBCHEM_ISOTOPIC_ATOM_COUNT>
0

> <PUBCHEM_COMPONENT_COUNT>
1

> <PUBCHEM_CACTVS_TAUTO_COUNT>
3

> <PUBCHEM_COORDINATE_TYPE>
1
5
255

> <PUBCHEM_BONDANNOTATIONS>
14  16  6
17  21  8
17  22  8
15  2  6
20  23  6
21  24  8
22  25  8
23  27  8
23  28  8
24  26  8
25  26  8
27  29  8
28  30  8
29  31  8
11  3  6
30  31  8
12  4  5
13  5  5

$$$$

