9543378
  -OEChem-07051213083D

 23 25  0     0  0  0  0  0  0999 V2000
   -2.1811   -1.1577   -0.0005 O   0  0  0  0  0  0  0  0  0  0  0  0
   -4.4653   -0.9912    0.0003 O   0  0  0  0  0  0  0  0  0  0  0  0
    1.5855    0.6947    0.0000 C   0  0  0  0  0  0  0  0  0  0  0  0
    1.4812   -0.7187    0.0002 C   0  0  0  0  0  0  0  0  0  0  0  0
   -0.8453    0.8746    0.0003 C   0  0  0  0  0  0  0  0  0  0  0  0
   -0.9272   -0.5123    0.0001 C   0  0  0  0  0  0  0  0  0  0  0  0
    0.4153    1.4769    0.0002 C   0  0  0  0  0  0  0  0  0  0  0  0
    0.2120   -1.3151    0.0001 C   0  0  0  0  0  0  0  0  0  0  0  0
    2.8588    1.2867   -0.0004 C   0  0  0  0  0  0  0  0  0  0  0  0
    2.6516   -1.4945    0.0003 C   0  0  0  0  0  0  0  0  0  0  0  0
   -2.0746    1.6497    0.0002 C   0  0  0  0  0  0  0  0  0  0  0  0
    4.0111    0.5000   -0.0002 C   0  0  0  0  0  0  0  0  0  0  0  0
    3.9077   -0.8877    0.0000 C   0  0  0  0  0  0  0  0  0  0  0  0
   -3.2586    1.0323    0.0000 C   0  0  0  0  0  0  0  0  0  0  0  0
   -3.3712   -0.4378   -0.0005 C   0  0  0  0  0  0  0  0  0  0  0  0
    0.4929    2.5634    0.0001 H   0  0  0  0  0  0  0  0  0  0  0  0
    0.1078   -2.3977    0.0000 H   0  0  0  0  0  0  0  0  0  0  0  0
    2.9648    2.3696   -0.0007 H   0  0  0  0  0  0  0  0  0  0  0  0
    2.5950   -2.5811    0.0005 H   0  0  0  0  0  0  0  0  0  0  0  0
   -2.0146    2.7323    0.0005 H   0  0  0  0  0  0  0  0  0  0  0  0
    4.9895    0.9718   -0.0004 H   0  0  0  0  0  0  0  0  0  0  0  0
    4.8053   -1.4992    0.0000 H   0  0  0  0  0  0  0  0  0  0  0  0
   -4.1802    1.6040    0.0001 H   0  0  0  0  0  0  0  0  0  0  0  0
  1  6  1  0  0  0  0
  1 15  1  0  0  0  0
  2 15  2  0  0  0  0
  3  4  1  0  0  0  0
  3  7  1  0  0  0  0
  3  9  2  0  0  0  0
  4  8  1  0  0  0  0
  4 10  2  0  0  0  0
  5  6  1  0  0  0  0
  5  7  2  0  0  0  0
  5 11  1  0  0  0  0
  6  8  2  0  0  0  0
  7 16  1  0  0  0  0
  8 17  1  0  0  0  0
  9 12  1  0  0  0  0
  9 18  1  0  0  0  0
 10 13  1  0  0  0  0
 10 19  1  0  0  0  0
 11 14  2  0  0  0  0
 11 20  1  0  0  0  0
 12 13  2  0  0  0  0
 12 21  1  0  0  0  0
 13 22  1  0  0  0  0
 14 15  1  0  0  0  0
 14 23  1  0  0  0  0
M  END
> <PUBCHEM_COMPOUND_CID>
9543378

> <PUBCHEM_CONFORMER_RMSD>
0.4

> <PUBCHEM_CONFORMER_DIVERSEORDER>
1

> <PUBCHEM_MMFF94_PARTIAL_CHARGES>
21
1 -0.23
10 -0.15
11 -0.18
12 -0.15
13 -0.15
14 -0.14
15 0.71
16 0.15
17 0.15
18 0.15
19 0.15
2 -0.57
20 0.15
21 0.15
22 0.15
23 0.15
5 0.03
6 0.08
7 -0.15
8 -0.15
9 -0.15

> <PUBCHEM_EFFECTIVE_ROTOR_COUNT>
0

> <PUBCHEM_PHARMACOPHORE_FEATURES>
4
1 2 acceptor
6 1 5 6 11 14 15 rings
6 3 4 5 6 7 8 rings
6 3 4 9 10 12 13 rings

> <PUBCHEM_HEAVY_ATOM_COUNT>
15

> <PUBCHEM_ATOM_DEF_STEREO_COUNT>
0

> <PUBCHEM_ATOM_UDEF_STEREO_COUNT>
0

> <PUBCHEM_BOND_DEF_STEREO_COUNT>
0

> <PUBCHEM_BOND_UDEF_STEREO_COUNT>
0

> <PUBCHEM_ISOTOPIC_ATOM_COUNT>
0

> <PUBCHEM_COMPONENT_COUNT>
1

> <PUBCHEM_CACTVS_TAUTO_COUNT>
1

> <PUBCHEM_CONFORMER_ID>
00919ED200000001

> <PUBCHEM_MMFF94_ENERGY>
49.8417

> <PUBCHEM_FEATURE_SELFOVERLAP>
20.351

> <PUBCHEM_SHAPE_FINGERPRINT>
10608611 8 18410859879813494412
10967382 1 18338798909830596806
11132069 177 18410299133172729000
11471102 20 18411141320588274166
11769659 78 18411704313180170955
11806522 49 18411983520699089927
12032990 46 18409726287609265942
12932764 1 17313116236532686316
13221675 6 18410013234263619854
13296908 3 18410855494498456190
13380535 76 18411981351709190778
13581323 91 18408605859443324692
14144814 61 18410575110512036600
14325111 11 18410574006747873252
14576447 43 18044107748000092647
15196674 1 18410855481618893988
15219456 202 18409450310101042908
15442244 35 18194401332256074930
15536298 74 18334576854337237604
16945 1 18266458711229068324
17802600 8 18410579482746695208
18186145 218 18130227159089933558
18522853 276 18408324384403369017
19422 9 18409726291809365640
200 152 18113909256015271949
20510252 161 18260546753218373345
20645477 70 18337113457347960831
21267235 1 18410565193432907286
21501502 16 18410853308391894008
21501925 9 18411708690078880346
221490 88 18341041935305892202
2334 1 18410575089079488940
23402539 116 18335430066279912087
23402655 69 18336550498772767989
23463225 33 18412544340375054180
23559900 14 18264212598553684050
2748010 2 18410857693590361652
2871803 45 18343308067462347887
335352 9 17978792633692720300
474 4 17130698376215376188
4990 188 18113888395337951556
5104073 3 18410293639756473528
537710 114 18410569557230371948
53812653 166 18261398819259269656
69090 78 18261115153479985751
7364860 26 18264489490552681888
77779 3 18410009957166571744
8809292 202 18201152157478164171
9709674 26 18410568500615948894

> <PUBCHEM_SHAPE_MULTIPOLES>
296.95
7.31
1.74
0.6
1.11
0.13
0
-0.95
0
0.03
0
-0.04
0.01
0

> <PUBCHEM_SHAPE_SELFOVERLAP>
669.357

> <PUBCHEM_SHAPE_VOLUME>
156.3

> <PUBCHEM_COORDINATE_TYPE>
2
5
10

$$$$

