157394
  -OEChem-07051213103D

 60 64  0     1  0  0  0  0  0999 V2000
    8.0067    0.1650   -2.4105 Br  0  0  0  0  0  0  0  0  0  0  0  0
   -8.5184    0.5419    0.9429 Br  0  0  0  0  0  0  0  0  0  0  0  0
    3.4367   -2.7554    1.0443 O   0  0  0  0  0  0  0  0  0  0  0  0
   -3.2878   -2.9678   -0.3506 O   0  0  0  0  0  0  0  0  0  0  0  0
    2.6910   -1.5594   -0.7707 N   0  0  0  0  0  0  0  0  0  0  0  0
   -2.9584   -1.1880    1.0654 N   0  0  0  0  0  0  0  0  0  0  0  0
    2.1090    1.6721    1.8515 N   0  0  0  0  0  0  0  0  0  0  0  0
   -2.8541    1.5565   -0.7345 N   0  0  0  0  0  0  0  0  0  0  0  0
    3.6231    2.9438    0.8406 N   0  0  0  0  0  0  0  0  0  0  0  0
   -2.2881    3.4550   -1.7382 N   0  0  0  0  0  0  0  0  0  0  0  0
    3.5716    2.8329    3.2523 N   0  0  0  0  0  0  0  0  0  0  0  0
   -4.5502    2.6309   -1.9252 N   0  0  0  0  0  0  0  0  0  0  0  0
    6.1713   -2.0170    0.4641 N   0  0  0  0  0  0  0  0  0  0  0  0
   -6.0904   -2.3040   -0.6059 N   0  0  0  0  0  0  0  0  0  0  0  0
    0.7221   -0.8050    0.3138 C   0  0  2  0  0  0  0  0  0  0  0  0
   -0.8110   -0.6729    0.2023 C   0  0  2  0  0  0  0  0  0  0  0  0
    0.8064    0.6591   -0.1655 C   0  0  1  0  0  0  0  0  0  0  0  0
   -0.6177    0.8452    0.3988 C   0  0  1  0  0  0  0  0  0  0  0  0
    1.3065   -1.8809   -0.5833 C   0  0  0  0  0  0  0  0  0  0  0  0
   -1.5629   -1.4402    1.2749 C   0  0  0  0  0  0  0  0  0  0  0  0
    1.8853    1.5266    0.5114 C   0  0  0  0  0  0  0  0  0  0  0  0
   -1.5325    1.7518   -0.4475 C   0  0  0  0  0  0  0  0  0  0  0  0
    2.8317    2.3212   -0.0918 C   0  0  0  0  0  0  0  0  0  0  0  0
   -1.2057    2.9293   -1.0781 C   0  0  0  0  0  0  0  0  0  0  0  0
    3.1613    2.5320    2.0004 C   0  0  0  0  0  0  0  0  0  0  0  0
   -3.2640    2.6040   -1.5115 C   0  0  0  0  0  0  0  0  0  0  0  0
    3.6954   -2.0318    0.0809 C   0  0  0  0  0  0  0  0  0  0  0  0
   -3.7533   -1.9926    0.2416 C   0  0  0  0  0  0  0  0  0  0  0  0
    5.0706   -1.6422   -0.2612 C   0  0  0  0  0  0  0  0  0  0  0  0
   -5.1737   -1.6249    0.1534 C   0  0  0  0  0  0  0  0  0  0  0  0
    5.5035   -0.8688   -1.3157 C   0  0  0  0  0  0  0  0  0  0  0  0
   -5.8293   -0.5870    0.7783 C   0  0  0  0  0  0  0  0  0  0  0  0
    6.9140   -0.7754   -1.2208 C   0  0  0  0  0  0  0  0  0  0  0  0
   -7.1877   -0.6441    0.3805 C   0  0  0  0  0  0  0  0  0  0  0  0
    7.3001   -1.4946   -0.1114 C   0  0  0  0  0  0  0  0  0  0  0  0
   -7.3211   -1.7152   -0.4752 C   0  0  0  0  0  0  0  0  0  0  0  0
    1.0602   -0.9389    1.3532 H   0  0  0  0  0  0  0  0  0  0  0  0
   -1.1699   -0.9333   -0.8063 H   0  0  0  0  0  0  0  0  0  0  0  0
    0.8552    0.7384   -1.2617 H   0  0  0  0  0  0  0  0  0  0  0  0
   -0.6487    1.1433    1.4560 H   0  0  0  0  0  0  0  0  0  0  0  0
    1.1959   -2.8738   -0.1362 H   0  0  0  0  0  0  0  0  0  0  0  0
    0.8410   -1.8880   -1.5740 H   0  0  0  0  0  0  0  0  0  0  0  0
   -1.3640   -2.5142    1.2007 H   0  0  0  0  0  0  0  0  0  0  0  0
   -1.3018   -1.1049    2.2836 H   0  0  0  0  0  0  0  0  0  0  0  0
    2.9249   -0.9581   -1.5535 H   0  0  0  0  0  0  0  0  0  0  0  0
   -3.3607   -0.3902    1.5454 H   0  0  0  0  0  0  0  0  0  0  0  0
    1.5931    1.2262    2.5984 H   0  0  0  0  0  0  0  0  0  0  0  0
   -3.4262    0.7810   -0.4309 H   0  0  0  0  0  0  0  0  0  0  0  0
    2.9862    2.4770   -1.1497 H   0  0  0  0  0  0  0  0  0  0  0  0
   -0.2492    3.4315   -1.0922 H   0  0  0  0  0  0  0  0  0  0  0  0
    3.1299    2.4476    4.0815 H   0  0  0  0  0  0  0  0  0  0  0  0
    4.3475    3.4656    3.4187 H   0  0  0  0  0  0  0  0  0  0  0  0
   -5.2195    1.9072   -1.6814 H   0  0  0  0  0  0  0  0  0  0  0  0
   -4.9063    3.3856   -2.5030 H   0  0  0  0  0  0  0  0  0  0  0  0
    6.1553   -2.5906    1.2963 H   0  0  0  0  0  0  0  0  0  0  0  0
   -5.8915   -3.1148   -1.1758 H   0  0  0  0  0  0  0  0  0  0  0  0
    4.8870   -0.4130   -2.0785 H   0  0  0  0  0  0  0  0  0  0  0  0
   -5.3943    0.1414    1.4489 H   0  0  0  0  0  0  0  0  0  0  0  0
    8.2727   -1.6829    0.3217 H   0  0  0  0  0  0  0  0  0  0  0  0
   -8.1770   -2.1127   -1.0030 H   0  0  0  0  0  0  0  0  0  0  0  0
  1 33  1  0  0  0  0
  2 34  1  0  0  0  0
  3 27  2  0  0  0  0
  4 28  2  0  0  0  0
  5 19  1  0  0  0  0
  5 27  1  0  0  0  0
  5 45  1  0  0  0  0
  6 20  1  0  0  0  0
  6 28  1  0  0  0  0
  6 46  1  0  0  0  0
  7 21  1  0  0  0  0
  7 25  1  0  0  0  0
  7 47  1  0  0  0  0
  8 22  1  0  0  0  0
  8 26  1  0  0  0  0
  8 48  1  0  0  0  0
  9 23  1  0  0  0  0
  9 25  2  0  0  0  0
 10 24  1  0  0  0  0
 10 26  2  0  0  0  0
 11 25  1  0  0  0  0
 11 51  1  0  0  0  0
 11 52  1  0  0  0  0
 12 26  1  0  0  0  0
 12 53  1  0  0  0  0
 12 54  1  0  0  0  0
 13 29  1  0  0  0  0
 13 35  1  0  0  0  0
 13 55  1  0  0  0  0
 14 30  1  0  0  0  0
 14 36  1  0  0  0  0
 14 56  1  0  0  0  0
 15 16  1  0  0  0  0
 15 17  1  0  0  0  0
 15 19  1  0  0  0  0
 15 37  1  0  0  0  0
 16 18  1  0  0  0  0
 16 20  1  0  0  0  0
 16 38  1  0  0  0  0
 17 18  1  0  0  0  0
 17 21  1  0  0  0  0
 17 39  1  0  0  0  0
 18 22  1  0  0  0  0
 18 40  1  0  0  0  0
 19 41  1  0  0  0  0
 19 42  1  0  0  0  0
 20 43  1  0  0  0  0
 20 44  1  0  0  0  0
 21 23  2  0  0  0  0
 22 24  2  0  0  0  0
 23 49  1  0  0  0  0
 24 50  1  0  0  0  0
 27 29  1  0  0  0  0
 28 30  1  0  0  0  0
 29 31  2  0  0  0  0
 30 32  2  0  0  0  0
 31 33  1  0  0  0  0
 31 57  1  0  0  0  0
 32 34  1  0  0  0  0
 32 58  1  0  0  0  0
 33 35  2  0  0  0  0
 34 36  2  0  0  0  0
 35 59  1  0  0  0  0
 36 60  1  0  0  0  0
M  END
> <PUBCHEM_COMPOUND_CID>
157394

> <PUBCHEM_CONFORMER_RMSD>
1.2

> <PUBCHEM_CONFORMER_DIVERSEORDER>
1
13
7
15
3
16
21
11
8
6
25
17
23
12
4
14
9
22
20
2
5
10
18
19
24

> <PUBCHEM_MMFF94_PARTIAL_CHARGES>
50
1 -0.06
10 -0.57
11 -0.88
12 -0.88
13 0.03
14 0.03
17 0.16
18 0.16
19 0.3
2 -0.06
20 0.3
21 -0.31
22 -0.31
23 0.08
24 0.08
25 0.27
26 0.27
27 0.71
28 0.71
29 -0.24
3 -0.57
30 -0.24
31 -0.15
32 -0.15
33 0.06
34 0.06
35 -0.3
36 -0.3
4 -0.57
45 0.37
46 0.37
47 0.27
48 0.27
49 0.15
5 -0.73
50 0.15
51 0.4
52 0.4
53 0.4
54 0.4
55 0.27
56 0.27
57 0.15
58 0.15
59 0.15
6 -0.73
60 0.15
7 0.03
8 0.03
9 -0.57

> <PUBCHEM_EFFECTIVE_ROTOR_COUNT>
10.8

> <PUBCHEM_PHARMACOPHORE_FEATURES>
21
1 1 hydrophobe
1 11 donor
1 12 donor
1 13 cation
1 13 donor
1 14 cation
1 14 donor
1 2 hydrophobe
1 3 acceptor
1 4 acceptor
1 5 donor
1 6 donor
1 7 donor
1 8 donor
4 15 16 17 18 rings
4 7 9 11 25 cation
4 8 10 12 26 cation
5 13 29 31 33 35 rings
5 14 30 32 34 36 rings
5 7 9 21 23 25 rings
5 8 10 22 24 26 rings

> <PUBCHEM_HEAVY_ATOM_COUNT>
36

> <PUBCHEM_ATOM_DEF_STEREO_COUNT>
4

> <PUBCHEM_ATOM_UDEF_STEREO_COUNT>
0

> <PUBCHEM_BOND_DEF_STEREO_COUNT>
0

> <PUBCHEM_BOND_UDEF_STEREO_COUNT>
0

> <PUBCHEM_ISOTOPIC_ATOM_COUNT>
0

> <PUBCHEM_COMPONENT_COUNT>
1

> <PUBCHEM_CACTVS_TAUTO_COUNT>
45

> <PUBCHEM_CONFORMER_ID>
000266D200000001

> <PUBCHEM_MMFF94_ENERGY>
32.4467

> <PUBCHEM_FEATURE_SELFOVERLAP>
106.649

> <PUBCHEM_SHAPE_FINGERPRINT>
12107698 1 18342176674012901919
12857493 111 18410575093327815037
13383668 251 17895771595162095128
13690498 29 18413108385524167246
13782708 43 18335423452024968684
14040222 383 18198346354824669821
14955137 171 17676196980022896382
15131766 46 16736098994123667761
15276724 80 18343300392419275767
15361156 5 18129936780720436299
15849732 13 15791728628661528014
16087824 20 18200028586509342781
18608769 82 18341614849398927893
21583282 1 18195237824497526852
22311459 1 18411418418936327194
23559900 14 18058444318368202106
24771750 20 18263639568697589612
25223398 141 18272934955334417725
350125 39 18410570699501495691
439807 62 18272365391226545734
552612 73 18409732858783258513
563151 248 4823216091424033750

> <PUBCHEM_SHAPE_MULTIPOLES>
691.2
21.56
4
1.85
5.9
2.14
-0.5
-10.37
5
0.23
0.02
-2.18
1.79
2.58

> <PUBCHEM_SHAPE_SELFOVERLAP>
1477.809

> <PUBCHEM_SHAPE_VOLUME>
390.2

> <PUBCHEM_COORDINATE_TYPE>
2
5
10

$$$$

