442513
  -OEChem-07051212583D

 29 31  0     1  0  0  0  0  0999 V2000
    0.0581    0.2701   -1.7156 O   0  0  0  0  0  0  0  0  0  0  0  0
    2.8813   -0.8457    0.2634 O   0  0  0  0  0  0  0  0  0  0  0  0
    0.2733   -2.4821    0.5756 O   0  0  0  0  0  0  0  0  0  0  0  0
    4.0830    0.3935    1.7243 O   0  0  0  0  0  0  0  0  0  0  0  0
    1.7492   -0.9609   -0.6117 C   0  0  1  0  0  0  0  0  0  0  0  0
    0.4526   -1.1407    0.1543 C   0  0  1  0  0  0  0  0  0  0  0  0
   -0.5782   -0.7273   -0.8900 C   0  0  1  0  0  0  0  0  0  0  0  0
    1.4780    0.2569   -1.4728 C   0  0  2  0  0  0  0  0  0  0  0  0
   -1.8519   -0.1919   -0.2820 C   0  0  0  0  0  0  0  0  0  0  0  0
    1.8641    1.5276   -0.7988 C   0  0  0  0  0  0  0  0  0  0  0  0
    2.6596    1.5592    0.2719 C   0  0  0  0  0  0  0  0  0  0  0  0
    3.2564    0.3327    0.8199 C   0  0  0  0  0  0  0  0  0  0  0  0
   -2.9032   -1.0604    0.0132 C   0  0  0  0  0  0  0  0  0  0  0  0
   -1.9790    1.1716   -0.0151 C   0  0  0  0  0  0  0  0  0  0  0  0
   -4.0803   -0.5659    0.5750 C   0  0  0  0  0  0  0  0  0  0  0  0
   -3.1561    1.6660    0.5467 C   0  0  0  0  0  0  0  0  0  0  0  0
   -4.2068    0.7973    0.8417 C   0  0  0  0  0  0  0  0  0  0  0  0
    1.9296   -1.8374   -1.2466 H   0  0  0  0  0  0  0  0  0  0  0  0
    0.4231   -0.5027    1.0459 H   0  0  0  0  0  0  0  0  0  0  0  0
   -0.8252   -1.5677   -1.5518 H   0  0  0  0  0  0  0  0  0  0  0  0
    1.9930    0.1928   -2.4371 H   0  0  0  0  0  0  0  0  0  0  0  0
    1.4824    2.4609   -1.2026 H   0  0  0  0  0  0  0  0  0  0  0  0
    1.0277   -2.7107    1.1449 H   0  0  0  0  0  0  0  0  0  0  0  0
    2.9259    2.5015    0.7376 H   0  0  0  0  0  0  0  0  0  0  0  0
   -2.8160   -2.1247   -0.1886 H   0  0  0  0  0  0  0  0  0  0  0  0
   -1.1740    1.8693   -0.2258 H   0  0  0  0  0  0  0  0  0  0  0  0
   -4.8982   -1.2424    0.8052 H   0  0  0  0  0  0  0  0  0  0  0  0
   -3.2541    2.7271    0.7565 H   0  0  0  0  0  0  0  0  0  0  0  0
   -5.1230    1.1823    1.2798 H   0  0  0  0  0  0  0  0  0  0  0  0
  1  7  1  0  0  0  0
  1  8  1  0  0  0  0
  2  5  1  0  0  0  0
  2 12  1  0  0  0  0
  3  6  1  0  0  0  0
  3 23  1  0  0  0  0
  4 12  2  0  0  0  0
  5  6  1  0  0  0  0
  5  8  1  0  0  0  0
  5 18  1  0  0  0  0
  6  7  1  0  0  0  0
  6 19  1  0  0  0  0
  7  9  1  0  0  0  0
  7 20  1  0  0  0  0
  8 10  1  0  0  0  0
  8 21  1  0  0  0  0
  9 13  2  0  0  0  0
  9 14  1  0  0  0  0
 10 11  2  0  0  0  0
 10 22  1  0  0  0  0
 11 12  1  0  0  0  0
 11 24  1  0  0  0  0
 13 15  1  0  0  0  0
 13 25  1  0  0  0  0
 14 16  2  0  0  0  0
 14 26  1  0  0  0  0
 15 17  2  0  0  0  0
 15 27  1  0  0  0  0
 16 17  1  0  0  0  0
 16 28  1  0  0  0  0
 17 29  1  0  0  0  0
M  END
> <PUBCHEM_COMPOUND_CID>
442513

> <PUBCHEM_CONFORMER_RMSD>
0.6

> <PUBCHEM_CONFORMER_DIVERSEORDER>
2
1

> <PUBCHEM_MMFF94_PARTIAL_CHARGES>
25
1 -0.56
10 -0.29
11 -0.14
12 0.71
13 -0.15
14 -0.15
15 -0.15
16 -0.15
17 -0.15
2 -0.43
22 0.15
23 0.4
24 0.15
25 0.15
26 0.15
27 0.15
28 0.15
29 0.15
3 -0.68
4 -0.57
5 0.28
6 0.28
7 0.42
8 0.42
9 -0.14

> <PUBCHEM_EFFECTIVE_ROTOR_COUNT>
1.8

> <PUBCHEM_PHARMACOPHORE_FEATURES>
7
1 1 acceptor
1 3 acceptor
1 3 donor
1 4 acceptor
5 1 5 6 7 8 rings
6 2 5 8 10 11 12 rings
6 9 13 14 15 16 17 rings

> <PUBCHEM_HEAVY_ATOM_COUNT>
17

> <PUBCHEM_ATOM_DEF_STEREO_COUNT>
4

> <PUBCHEM_ATOM_UDEF_STEREO_COUNT>
0

> <PUBCHEM_BOND_DEF_STEREO_COUNT>
0

> <PUBCHEM_BOND_UDEF_STEREO_COUNT>
0

> <PUBCHEM_ISOTOPIC_ATOM_COUNT>
0

> <PUBCHEM_COMPONENT_COUNT>
1

> <PUBCHEM_CACTVS_TAUTO_COUNT>
1

> <PUBCHEM_CONFORMER_ID>
0006C09100000002

> <PUBCHEM_MMFF94_ENERGY>
47.3764

> <PUBCHEM_FEATURE_SELFOVERLAP>
35.735

> <PUBCHEM_SHAPE_FINGERPRINT>
10646746 165 18187920716027032185
11031198 65 14634865375111431191
11086676 242 17632302293608224108
11132069 177 18407755937392851653
11715629 250 17822006519258085189
11769659 78 12175625078921647964
12251169 10 18272936007300782546
12644460 14 16917058915941202764
12892183 10 18339093626618794976
13571099 52 17530685372970931206
13693222 15 17561080289589105077
13705890 14 11671776079101662686
14178342 30 18202277044052020275
14289901 80 18334572417446415771
14350558 41 12175614088242716841
15209294 21 18334586728335169592
15775835 57 18113898243070434297
16945 1 18202002178523530727
17862501 102 18272377429772002195
1813 80 16988280997354161382
18186145 218 17168687709302321831
19050596 39 18413100659189010531
19786989 88 16081083801023997629
20361792 2 15554446288593748599
20523700 14 7493285542847472945
20559304 39 18342444971961116917
20645477 70 12751229281823776793
21069387 34 15123223270362507819
21756936 100 17899983729740715308
22854114 111 18411410739602405765
231179 274 16588025706031676400
23382010 3 4823204035292402188
23402655 69 7420959659487895811
23419403 2 14496389827156814846
23557571 272 17240761727326942127
23559900 14 18262224638048210127
25 1 4823217225136968206
2748010 2 17556028218095486471
2838139 119 15792313505077085352
3060560 45 8358248212077972576
3082319 5 8142088658500195185
5374978 207 18340477903374016793
6333272 397 18340198592607064643
7097593 13 18340775926285069770
7364860 26 18117832420424178663
74978 22 9223223032103027935
76465 3 15554446254545272667

> <PUBCHEM_SHAPE_MULTIPOLES>
326.37
7.2
1.79
1.26
2.68
0.17
-0.13
-1.97
3.24
0.09
0.22
-0.89
-0.1
-0.13

> <PUBCHEM_SHAPE_SELFOVERLAP>
712.52

> <PUBCHEM_SHAPE_VOLUME>
177

> <PUBCHEM_COORDINATE_TYPE>
2
5
10

$$$$

