252374
  -OEChem-07051213062D

 57 60  0     1  0  0  0  0  0999 V2000
    6.5271    2.6651    0.0000 Cl  0  0  0  0  0  0  0  0  0  0  0  0
    6.0271    1.7991    0.0000 O   0  0  0  0  0  0  0  0  0  0  0  0
    7.9821    2.4326    0.0000 O   0  0  0  0  0  0  0  0  0  0  0  0
    2.0000   -2.6193    0.0000 O   0  0  0  0  0  0  0  0  0  0  0  0
    7.3931    0.4331    0.0000 C   0  0  2  0  0  0  0  0  0  0  0  0
    7.3931   -0.5669    0.0000 C   0  0  2  0  0  0  0  0  0  0  0  0
    6.5271   -1.0669    0.0000 C   0  0  1  0  0  0  0  0  0  0  0  0
    5.6610   -0.5669    0.0000 C   0  0  2  0  0  0  0  0  0  0  0  0
    6.5271    0.9331    0.0000 C   0  0  1  0  0  0  0  0  0  0  0  0
    8.3393    0.7378    0.0000 C   0  0  2  0  0  0  0  0  0  0  0  0
    5.6610    0.4331    0.0000 C   0  0  0  0  0  0  0  0  0  0  0  0
    4.7510   -1.0738    0.0000 C   0  0  2  0  0  0  0  0  0  0  0  0
    8.3393   -0.8717    0.0000 C   0  0  0  0  0  0  0  0  0  0  0  0
    8.9229   -0.0669    0.0000 C   0  0  0  0  0  0  0  0  0  0  0  0
    6.5431   -2.1084    0.0000 C   0  0  0  0  0  0  0  0  0  0  0  0
    7.7351    1.3728    0.0000 C   0  0  0  0  0  0  0  0  0  0  0  0
    4.7430   -2.1154    0.0000 C   0  0  0  0  0  0  0  0  0  0  0  0
    5.6451   -2.6362    0.0000 C   0  0  0  0  0  0  0  0  0  0  0  0
    3.8242   -0.5097    0.0000 C   0  0  0  0  0  0  0  0  0  0  0  0
    7.0271    1.7991    0.0000 C   0  0  0  0  0  0  0  0  0  0  0  0
    4.7587   -0.0738    0.0000 C   0  0  0  0  0  0  0  0  0  0  0  0
    8.6500    1.6883    0.0000 C   0  0  0  0  0  0  0  0  0  0  0  0
    2.8763   -1.0376    0.0000 C   0  0  0  0  0  0  0  0  0  0  0  0
    3.8076   -2.6651    0.0000 C   0  0  0  0  0  0  0  0  0  0  0  0
    2.8680   -2.1226    0.0000 C   0  0  0  0  0  0  0  0  0  0  0  0
    9.6285    1.8945    0.0000 C   0  0  0  0  0  0  0  0  0  0  0  0
    7.4830   -1.4122    0.0000 H   0  0  0  0  0  0  0  0  0  0  0  0
    7.2664   -1.4862    0.0000 H   0  0  0  0  0  0  0  0  0  0  0  0
    6.3972   -0.1419    0.0000 H   0  0  0  0  0  0  0  0  0  0  0  0
    7.9018    1.1772    0.0000 H   0  0  0  0  0  0  0  0  0  0  0  0
    5.4490    1.0157    0.0000 H   0  0  0  0  0  0  0  0  0  0  0  0
    5.0504    0.3254    0.0000 H   0  0  0  0  0  0  0  0  0  0  0  0
    8.0883   -1.4386    0.0000 H   0  0  0  0  0  0  0  0  0  0  0  0
    8.8767   -1.1809    0.0000 H   0  0  0  0  0  0  0  0  0  0  0  0
    9.3838   -0.4817    0.0000 H   0  0  0  0  0  0  0  0  0  0  0  0
    9.3838    0.3478    0.0000 H   0  0  0  0  0  0  0  0  0  0  0  0
    6.7612   -2.6888    0.0000 H   0  0  0  0  0  0  0  0  0  0  0  0
    7.1523   -1.9930    0.0000 H   0  0  0  0  0  0  0  0  0  0  0  0
    8.3177    1.1607    0.0000 H   0  0  0  0  0  0  0  0  0  0  0  0
    7.9472    1.9554    0.0000 H   0  0  0  0  0  0  0  0  0  0  0  0
    7.1525    1.5848    0.0000 H   0  0  0  0  0  0  0  0  0  0  0  0
    5.2478   -3.1122    0.0000 H   0  0  0  0  0  0  0  0  0  0  0  0
    6.0460   -3.1091    0.0000 H   0  0  0  0  0  0  0  0  0  0  0  0
    4.2324   -0.0430    0.0000 H   0  0  0  0  0  0  0  0  0  0  0  0
    3.4343   -0.0277    0.0000 H   0  0  0  0  0  0  0  0  0  0  0  0
    7.5020    1.4006    0.0000 H   0  0  0  0  0  0  0  0  0  0  0  0
    7.5020    2.1976    0.0000 H   0  0  0  0  0  0  0  0  0  0  0  0
    5.3787   -0.0786    0.0000 H   0  0  0  0  0  0  0  0  0  0  0  0
    4.7635    0.5462    0.0000 H   0  0  0  0  0  0  0  0  0  0  0  0
    4.1388   -0.0690    0.0000 H   0  0  0  0  0  0  0  0  0  0  0  0
    5.4071    1.7991    0.0000 H   0  0  0  0  0  0  0  0  0  0  0  0
    2.6718   -0.4524    0.0000 H   0  0  0  0  0  0  0  0  0  0  0  0
    2.2647   -1.1390    0.0000 H   0  0  0  0  0  0  0  0  0  0  0  0
    3.8100   -3.2851    0.0000 H   0  0  0  0  0  0  0  0  0  0  0  0
    9.7563    1.2879    0.0000 H   0  0  0  0  0  0  0  0  0  0  0  0
   10.2351    2.0224    0.0000 H   0  0  0  0  0  0  0  0  0  0  0  0
    9.5006    2.5012    0.0000 H   0  0  0  0  0  0  0  0  0  0  0  0
  1 20  1  0  0  0  0
  9  2  1  1  0  0  0
  2 51  1  0  0  0  0
  3 22  2  0  0  0  0
  4 25  2  0  0  0  0
  5  6  1  0  0  0  0
  5  9  1  0  0  0  0
  5 10  1  0  0  0  0
  5 16  1  1  0  0  0
  6  7  1  0  0  0  0
  6 13  1  0  0  0  0
  6 27  1  6  0  0  0
  7  8  1  0  0  0  0
  7 15  1  0  0  0  0
  7 28  1  1  0  0  0
  8 11  1  0  0  0  0
  8 12  1  0  0  0  0
  8 29  1  6  0  0  0
  9 11  1  0  0  0  0
  9 20  1  0  0  0  0
 10 14  1  0  0  0  0
 10 22  1  1  0  0  0
 10 30  1  0  0  0  0
 11 31  1  0  0  0  0
 11 32  1  0  0  0  0
 12 17  1  0  0  0  0
 12 19  1  0  0  0  0
 12 21  1  1  0  0  0
 13 14  1  0  0  0  0
 13 33  1  0  0  0  0
 13 34  1  0  0  0  0
 14 35  1  0  0  0  0
 14 36  1  0  0  0  0
 15 18  1  0  0  0  0
 15 37  1  0  0  0  0
 15 38  1  0  0  0  0
 16 39  1  0  0  0  0
 16 40  1  0  0  0  0
 16 41  1  0  0  0  0
 17 18  1  0  0  0  0
 17 24  2  0  0  0  0
 18 42  1  0  0  0  0
 18 43  1  0  0  0  0
 19 23  1  0  0  0  0
 19 44  1  0  0  0  0
 19 45  1  0  0  0  0
 20 46  1  0  0  0  0
 20 47  1  0  0  0  0
 21 48  1  0  0  0  0
 21 49  1  0  0  0  0
 21 50  1  0  0  0  0
 22 26  1  0  0  0  0
 23 25  1  0  0  0  0
 23 52  1  0  0  0  0
 23 53  1  0  0  0  0
 24 25  1  0  0  0  0
 24 54  1  0  0  0  0
 26 55  1  0  0  0  0
 26 56  1  0  0  0  0
 26 57  1  0  0  0  0
M  END
> <PUBCHEM_COMPOUND_CID>
252374

> <PUBCHEM_COMPOUND_CANONICALIZED>
1

> <PUBCHEM_CACTVS_COMPLEXITY>
685

> <PUBCHEM_CACTVS_HBOND_ACCEPTOR>
3

> <PUBCHEM_CACTVS_HBOND_DONOR>
1

> <PUBCHEM_CACTVS_ROTATABLE_BOND>
2

> <PUBCHEM_CACTVS_SUBSKEYS>
AAADceB4MAAEAAAAAAAAAAAAAAAAAYAAAAAwYIAAAAAAAGDAAAAAGgIACAAAD0eAgEACAAAAAgCIAqBSAAAAAAAgAAAACAEAA0gAABIBAQAAQAAEgAAIAQOKyPCPgAAAAAAAAADAAAYAADAAAQAACAAAAA==

> <PUBCHEM_IUPAC_OPENEYE_NAME>
(8R,9S,10R,12R,13S,14S,17S)-17-acetyl-12-(chloromethyl)-12-hydroxy-10,13-dimethyl-2,6,7,8,9,11,14,15,16,17-decahydro-1H-cyclopenta[a]phenanthren-3-one

> <PUBCHEM_IUPAC_CAS_NAME>
(8R,9S,10R,12R,13S,14S,17S)-17-acetyl-12-(chloromethyl)-12-hydroxy-10,13-dimethyl-2,6,7,8,9,11,14,15,16,17-decahydro-1H-cyclopenta[a]phenanthren-3-one

> <PUBCHEM_IUPAC_NAME>
(8R,9S,10R,12R,13S,14S,17S)-17-acetyl-12-(chloromethyl)-12-hydroxy-10,13-dimethyl-2,6,7,8,9,11,14,15,16,17-decahydro-1H-cyclopenta[a]phenanthren-3-one

> <PUBCHEM_IUPAC_SYSTEMATIC_NAME>
(8R,9S,10R,12R,13S,14S,17S)-12-(chloromethyl)-17-ethanoyl-10,13-dimethyl-12-oxidanyl-2,6,7,8,9,11,14,15,16,17-decahydro-1H-cyclopenta[a]phenanthren-3-one

> <PUBCHEM_IUPAC_TRADITIONAL_NAME>
(8R,9S,10R,12R,13S,14S,17S)-17-acetyl-12-(chloromethyl)-12-hydroxy-10,13-dimethyl-2,6,7,8,9,11,14,15,16,17-decahydro-1H-cyclopenta[a]phenanthren-3-one

> <PUBCHEM_IUPAC_INCHI>
InChI=1S/C22H31ClO3/c1-13(24)17-6-7-18-16-5-4-14-10-15(25)8-9-20(14,2)19(16)11-22(26,12-23)21(17,18)3/h10,16-19,26H,4-9,11-12H2,1-3H3/t16-,17+,18-,19-,20-,21+,22-/m0/s1

> <PUBCHEM_IUPAC_INCHIKEY>
LSUMZADQUYYJTQ-VUIPWDCGSA-N

> <PUBCHEM_XLOGP3>
2.9

> <PUBCHEM_EXACT_MASS>
378.196173

> <PUBCHEM_MOLECULAR_FORMULA>
C22H31ClO3

> <PUBCHEM_MOLECULAR_WEIGHT>
378.93274

> <PUBCHEM_OPENEYE_CAN_SMILES>
CC(=O)C1CCC2C1(C(CC3C2CCC4=CC(=O)CCC34C)(CCl)O)C

> <PUBCHEM_OPENEYE_ISO_SMILES>
CC(=O)[C@H]1CC[C@@H]2[C@@]1([C@](C[C@H]3[C@H]2CCC4=CC(=O)CC[C@]34C)(CCl)O)C

> <PUBCHEM_CACTVS_TPSA>
54.4

> <PUBCHEM_MONOISOTOPIC_WEIGHT>
378.196173

> <PUBCHEM_TOTAL_CHARGE>
0

> <PUBCHEM_HEAVY_ATOM_COUNT>
26

> <PUBCHEM_ATOM_DEF_STEREO_COUNT>
7

> <PUBCHEM_ATOM_UDEF_STEREO_COUNT>
0

> <PUBCHEM_BOND_DEF_STEREO_COUNT>
0

> <PUBCHEM_BOND_UDEF_STEREO_COUNT>
0

> <PUBCHEM_ISOTOPIC_ATOM_COUNT>
0

> <PUBCHEM_COMPONENT_COUNT>
1

> <PUBCHEM_CACTVS_TAUTO_COUNT>
15

> <PUBCHEM_COORDINATE_TYPE>
1
5
255

> <PUBCHEM_BONDANNOTATIONS>
10  22  5
12  21  5
9  2  5
5  16  5
6  27  6
7  28  5
8  29  6

$$$$

