37792
  -OEChem-07051212463D

 48 50  0     1  0  0  0  0  0999 V2000
    4.3809    4.4142   -1.9447 S   0  0  0  0  0  0  0  0  0  0  0  0
    4.0197   -1.5851    1.2015 P   0  0  2  0  0  0  0  0  0  0  0  0
    3.2231    1.2449    1.1931 P   0  0  2  0  0  0  0  0  0  0  0  0
    3.6667    2.7185   -1.3294 P   0  0  0  0  0  0  0  0  0  0  0  0
   -0.2788   -1.7189    0.5792 O   0  0  0  0  0  0  0  0  0  0  0  0
   -2.1104   -3.7634   -1.0818 O   0  0  0  0  0  0  0  0  0  0  0  0
    0.1869   -3.4745   -2.5209 O   0  0  0  0  0  0  0  0  0  0  0  0
    2.5007   -2.0907    0.9628 O   0  0  0  0  0  0  0  0  0  0  0  0
    3.9936   -0.0671    0.6493 O   0  0  0  0  0  0  0  0  0  0  0  0
    4.8642   -2.3725    0.0687 O   0  0  0  0  0  0  0  0  0  0  0  0
    4.5360   -1.7448    2.6015 O   0  0  0  0  0  0  0  0  0  0  0  0
   -4.5331    3.4943    0.0327 O   0  0  0  0  0  0  0  0  0  0  0  0
    3.8025    2.4241    0.2549 O   0  0  0  0  0  0  0  0  0  0  0  0
    3.9251    1.5171    2.6240 O   0  0  0  0  0  0  0  0  0  0  0  0
    1.7284    1.1233    1.2320 O   0  0  0  0  0  0  0  0  0  0  0  0
    2.0852    2.5019   -1.6101 O   0  0  0  0  0  0  0  0  0  0  0  0
    4.3158    1.4040   -2.0198 O   0  0  0  0  0  0  0  0  0  0  0  0
   -2.1133   -0.3249    0.0081 N   0  0  0  0  0  0  0  0  0  0  0  0
   -4.4793   -0.5344    0.5322 N   0  0  0  0  0  0  0  0  0  0  0  0
   -2.0723    1.9009   -0.2831 N   0  0  0  0  0  0  0  0  0  0  0  0
   -5.6841    1.5430    0.5218 N   0  0  0  0  0  0  0  0  0  0  0  0
   -6.7420   -0.5075    1.0037 N   0  0  0  0  0  0  0  0  0  0  0  0
   -1.6390   -2.4296   -1.2660 C   0  0  2  0  0  0  0  0  0  0  0  0
   -0.1744   -2.4145   -1.6618 C   0  0  1  0  0  0  0  0  0  0  0  0
   -1.6341   -1.7062    0.0818 C   0  0  1  0  0  0  0  0  0  0  0  0
    0.5244   -2.5050   -0.3163 C   0  0  1  0  0  0  0  0  0  0  0  0
    1.9454   -1.9712   -0.3353 C   0  0  0  0  0  0  0  0  0  0  0  0
   -3.3694    0.1363    0.2133 C   0  0  0  0  0  0  0  0  0  0  0  0
   -1.3585    0.7879   -0.2913 C   0  0  0  0  0  0  0  0  0  0  0  0
   -3.3358    1.4883    0.0346 C   0  0  0  0  0  0  0  0  0  0  0  0
   -4.5406    2.2792    0.1876 C   0  0  0  0  0  0  0  0  0  0  0  0
   -5.6336    0.2326    0.6777 C   0  0  0  0  0  0  0  0  0  0  0  0
   -2.2825   -1.9669   -2.0202 H   0  0  0  0  0  0  0  0  0  0  0  0
    0.0648   -1.4615   -2.1496 H   0  0  0  0  0  0  0  0  0  0  0  0
   -2.2543   -2.2159    0.8278 H   0  0  0  0  0  0  0  0  0  0  0  0
    0.5345   -3.5335    0.0664 H   0  0  0  0  0  0  0  0  0  0  0  0
    1.9496   -0.9172   -0.6285 H   0  0  0  0  0  0  0  0  0  0  0  0
    2.5527   -2.5391   -1.0469 H   0  0  0  0  0  0  0  0  0  0  0  0
   -1.5686   -4.1916   -0.3982 H   0  0  0  0  0  0  0  0  0  0  0  0
   -0.3780   -3.4152   -3.3101 H   0  0  0  0  0  0  0  0  0  0  0  0
   -0.3052    0.7253   -0.5220 H   0  0  0  0  0  0  0  0  0  0  0  0
   -4.5095   -1.5403    0.6623 H   0  0  0  0  0  0  0  0  0  0  0  0
    5.8409   -2.2833    0.0575 H   0  0  0  0  0  0  0  0  0  0  0  0
   -7.6458   -0.0675    1.1378 H   0  0  0  0  0  0  0  0  0  0  0  0
   -6.6908   -1.5135    1.1211 H   0  0  0  0  0  0  0  0  0  0  0  0
    3.5713    2.2292    3.1984 H   0  0  0  0  0  0  0  0  0  0  0  0
    1.6705    1.6554   -1.3400 H   0  0  0  0  0  0  0  0  0  0  0  0
    3.9817    0.5192   -1.7590 H   0  0  0  0  0  0  0  0  0  0  0  0
  1  4  2  0  0  0  0
  2  8  1  0  0  0  0
  2  9  1  0  0  0  0
  2 10  1  0  0  0  0
  2 11  2  0  0  0  0
  3  9  1  0  0  0  0
  3 13  1  0  0  0  0
  3 14  1  0  0  0  0
  3 15  2  0  0  0  0
  4 13  1  0  0  0  0
  4 16  1  0  0  0  0
  4 17  1  0  0  0  0
  5 25  1  0  0  0  0
  5 26  1  0  0  0  0
  6 23  1  0  0  0  0
  6 39  1  0  0  0  0
  7 24  1  0  0  0  0
  7 40  1  0  0  0  0
  8 27  1  0  0  0  0
 10 43  1  0  0  0  0
 12 31  2  0  0  0  0
 14 46  1  0  0  0  0
 16 47  1  0  0  0  0
 17 48  1  0  0  0  0
 18 25  1  0  0  0  0
 18 28  1  0  0  0  0
 18 29  1  0  0  0  0
 19 28  1  0  0  0  0
 19 32  1  0  0  0  0
 19 42  1  0  0  0  0
 20 29  2  0  0  0  0
 20 30  1  0  0  0  0
 21 31  1  0  0  0  0
 21 32  2  0  0  0  0
 22 32  1  0  0  0  0
 22 44  1  0  0  0  0
 22 45  1  0  0  0  0
 23 24  1  0  0  0  0
 23 25  1  0  0  0  0
 23 33  1  0  0  0  0
 24 26  1  0  0  0  0
 24 34  1  0  0  0  0
 25 35  1  0  0  0  0
 26 27  1  0  0  0  0
 26 36  1  0  0  0  0
 27 37  1  0  0  0  0
 27 38  1  0  0  0  0
 28 30  2  0  0  0  0
 29 41  1  0  0  0  0
 30 31  1  0  0  0  0
M  END
> <PUBCHEM_COMPOUND_CID>
37792

> <PUBCHEM_CONFORMER_RMSD>
1.4

> <PUBCHEM_CONFORMER_DIVERSEORDER>
1
233
172
228
168
175
40
85
186
128
126
159
23
240
71
178
140
4
162
229
106
26
164
213
220
59
134
261
32
81
37
46
139
79
95
88
238
49
3
31
171
101
41
210
124
141
103
169
43
153
142
230
200
102
147
275
119
127
189
17
160
91
203
226
52
30
112
251
57
227
29
208
132
77
62
224
100
83
93
90
217
78
272
243
39
219
254
54
113
70
151
198
67
8
7
196
218
197
53
137
176
187
156
99
161
148
122
13
177
20
255
248
214
130
244
259
80
129
204
76
72
270
84
247
87
260
144
182
222
12
14
202
249
234
97
179
237
109
19
258
166
118
56
246
63
252
262
263
89
221
133
256
65
50
267
152
271
74
75
16
191
24
155
277
242
194
123
265
6
115
205
35
136
11
114
86
170
27
190
212
44
181
5
223
64
199
15
163
110
38
206
276
167
211
47
188
42
245
116
121
18
209
235
55
94
9
154
257
108
21
180
185
33
98
150
68
22
231
120
82
236
69
193
207
125
143
61
215
165
250
135
239
25
145
253
269
149
73
66
2
51
232
173
184
146
131
264
117
105
201
158
266
92
241
195
192
107
60
104
183
45
48
34
273
268
174
36
138
10
157
274
58
216
111
225
28
96

> <PUBCHEM_MMFF94_PARTIAL_CHARGES>
42
1 -0.68
10 -0.77
11 -0.7
12 -0.57
13 -0.54
14 -0.77
15 -0.7
16 -0.77
17 -0.77
18 0.05
19 -0.53
2 1.51
20 -0.57
21 -0.66
22 -0.85
23 0.28
24 0.28
25 0.54
26 0.28
27 0.28
28 -0.07
29 0.04
3 1.51
30 0.14
31 0.87
32 0.55
39 0.4
4 1.49
40 0.4
41 0.15
42 0.4
43 0.5
44 0.4
45 0.4
46 0.5
47 0.5
48 0.5
5 -0.56
6 -0.68
7 -0.68
8 -0.55
9 -0.54

> <PUBCHEM_EFFECTIVE_ROTOR_COUNT>
9

> <PUBCHEM_PHARMACOPHORE_FEATURES>
19
1 10 acceptor
1 11 acceptor
1 12 acceptor
1 14 acceptor
1 15 acceptor
1 16 acceptor
1 17 acceptor
1 19 donor
1 21 donor
1 22 donor
1 5 acceptor
1 6 acceptor
1 6 donor
1 7 acceptor
1 7 donor
3 18 20 29 cation
5 18 20 28 29 30 rings
5 5 23 24 25 26 rings
6 19 21 28 30 31 32 rings

> <PUBCHEM_HEAVY_ATOM_COUNT>
32

> <PUBCHEM_ATOM_DEF_STEREO_COUNT>
4

> <PUBCHEM_ATOM_UDEF_STEREO_COUNT>
0

> <PUBCHEM_BOND_DEF_STEREO_COUNT>
0

> <PUBCHEM_BOND_UDEF_STEREO_COUNT>
0

> <PUBCHEM_ISOTOPIC_ATOM_COUNT>
0

> <PUBCHEM_COMPONENT_COUNT>
1

> <PUBCHEM_CACTVS_TAUTO_COUNT>
12

> <PUBCHEM_CONFORMER_ID>
000093A000000001

> <PUBCHEM_MMFF94_ENERGY>
2.4198

> <PUBCHEM_FEATURE_SELFOVERLAP>
96.707

> <PUBCHEM_SHAPE_FINGERPRINT>
10763959 59 18263921218902477330
10871710 139 17978223855384327743
12107698 1 18202005477042564065
12403259 118 18340493382214618507
12422481 6 18342741857818640029
12788726 201 17762336916466501332
12925494 130 18045789150672395857
13583140 156 17559414636900383003
13773456 73 18408879642381534767
21033648 29 17970932152051598338
22149856 69 17894897569782082995
23227448 37 18187938278328043487
23558518 356 18268724835039014410
23559900 14 17833817654022234991
3298306 158 18114179769850431821
338550 245 18411985758424666864
340366 18 18335987549336428038
345986 75 11383834887387729343
38570 142 17987501629848839748
5252454 2 18336550395873173552
7808743 9 18193268607467240780

> <PUBCHEM_SHAPE_MULTIPOLES>
572.74
12.89
5.1
1.96
9.16
1.26
0.02
8.31
-3.95
-3.68
2.9
-2.98
-0.4
-3.48

> <PUBCHEM_SHAPE_SELFOVERLAP>
1157.858

> <PUBCHEM_SHAPE_VOLUME>
338.7

> <PUBCHEM_COORDINATE_TYPE>
2
5
10

$$$$

