13394
  -OEChem-06261209383D

 14 14  0     0  0  0  0  0  0999 V2000
   -2.4432    1.5681   -0.0005 O   0  0  0  0  0  0  0  0  0  0  0  0
    3.3435    0.5756   -0.0005 N   0  0  0  0  0  0  0  0  0  0  0  0
   -1.4931    0.5936    0.0002 C   0  0  0  0  0  0  0  0  0  0  0  0
    0.8323   -0.0621    0.0005 C   0  0  0  0  0  0  0  0  0  0  0  0
   -0.1410    0.9371    0.0006 C   0  0  0  0  0  0  0  0  0  0  0  0
   -1.8715   -0.7491   -0.0002 C   0  0  0  0  0  0  0  0  0  0  0  0
    0.4537   -1.4047    0.0001 C   0  0  0  0  0  0  0  0  0  0  0  0
   -0.8981   -1.7482   -0.0002 C   0  0  0  0  0  0  0  0  0  0  0  0
    2.2173    0.2896   -0.0001 C   0  0  0  0  0  0  0  0  0  0  0  0
    0.1447    1.9869    0.0006 H   0  0  0  0  0  0  0  0  0  0  0  0
   -2.9212   -1.0300   -0.0007 H   0  0  0  0  0  0  0  0  0  0  0  0
    1.2008   -2.1948   -0.0001 H   0  0  0  0  0  0  0  0  0  0  0  0
   -1.1929   -2.7935   -0.0006 H   0  0  0  0  0  0  0  0  0  0  0  0
   -3.3221    1.1514   -0.0007 H   0  0  0  0  0  0  0  0  0  0  0  0
  1  3  1  0  0  0  0
  1 14  1  0  0  0  0
  2  9  3  0  0  0  0
  3  5  1  0  0  0  0
  3  6  2  0  0  0  0
  4  5  2  0  0  0  0
  4  7  1  0  0  0  0
  4  9  1  0  0  0  0
  5 10  1  0  0  0  0
  6  8  1  0  0  0  0
  6 11  1  0  0  0  0
  7  8  2  0  0  0  0
  7 12  1  0  0  0  0
  8 13  1  0  0  0  0
M  END
> <PUBCHEM_COMPOUND_CID>
13394

> <PUBCHEM_CONFORMER_RMSD>
0.4

> <PUBCHEM_CONFORMER_DIVERSEORDER>
1

> <PUBCHEM_MMFF94_PARTIAL_CHARGES>
14
1 -0.53
10 0.15
11 0.15
12 0.15
13 0.15
14 0.45
2 -0.56
3 0.08
4 0.07
5 -0.15
6 -0.15
7 -0.15
8 -0.15
9 0.48

> <PUBCHEM_EFFECTIVE_ROTOR_COUNT>
0

> <PUBCHEM_PHARMACOPHORE_FEATURES>
3
1 1 donor
1 2 acceptor
6 3 4 5 6 7 8 rings

> <PUBCHEM_HEAVY_ATOM_COUNT>
9

> <PUBCHEM_ATOM_DEF_STEREO_COUNT>
0

> <PUBCHEM_ATOM_UDEF_STEREO_COUNT>
0

> <PUBCHEM_BOND_DEF_STEREO_COUNT>
0

> <PUBCHEM_BOND_UDEF_STEREO_COUNT>
0

> <PUBCHEM_ISOTOPIC_ATOM_COUNT>
0

> <PUBCHEM_COMPONENT_COUNT>
1

> <PUBCHEM_CACTVS_TAUTO_COUNT>
3

> <PUBCHEM_CONFORMER_ID>
0000345200000001

> <PUBCHEM_MMFF94_ENERGY>
16.5474

> <PUBCHEM_FEATURE_SELFOVERLAP>
15.223

> <PUBCHEM_SHAPE_FINGERPRINT>
12716758 59 18335417967710564290
13024252 1 13038920909904414510
14325111 11 18410856572930964288
16714656 1 18338515231556911726
16945 1 18338797797376259239
20871998 184 18116707413643647838
21040471 1 18410856602631719011
23235685 24 18410016567242728481
23402655 69 18264788713051457669
23552423 10 18272368672560623206
2748010 2 18338790238413225007
369184 2 18261956254321467978
5084963 1 18042122068190297570

> <PUBCHEM_SHAPE_MULTIPOLES>
174.37
3.56
1.64
0.6
2.47
0.3
0
-1.2
0
-0.9
0
-0.01
0.02
0

> <PUBCHEM_SHAPE_SELFOVERLAP>
365.233

> <PUBCHEM_SHAPE_VOLUME>
97.1

> <PUBCHEM_COORDINATE_TYPE>
2
5
10

$$$$

