10725
  -OEChem-06261204533D

 38 40  0     0  0  0  0  0  0999 V2000
    0.3982    0.7463   -0.1113 O   0  0  0  0  0  0  0  0  0  0  0  0
    1.8020   -3.1794    0.0950 O   0  0  0  0  0  0  0  0  0  0  0  0
   -0.7754   -2.7482    0.0342 O   0  0  0  0  0  0  0  0  0  0  0  0
    4.7484    2.6199   -0.0441 O   0  0  0  0  0  0  0  0  0  0  0  0
   -5.8931    1.0575   -0.3662 O   0  0  0  0  0  0  0  0  0  0  0  0
    4.3253   -2.0967    0.1256 O   0  0  0  0  0  0  0  0  0  0  0  0
   -4.6316    0.8262    2.0997 O   0  0  0  0  0  0  0  0  0  0  0  0
    2.2926   -0.8071    0.0121 C   0  0  0  0  0  0  0  0  0  0  0  0
   -0.4540   -0.3531   -0.0985 C   0  0  0  0  0  0  0  0  0  0  0  0
    1.7756    0.5572   -0.0585 C   0  0  0  0  0  0  0  0  0  0  0  0
   -1.8751    0.0155   -0.1649 C   0  0  0  0  0  0  0  0  0  0  0  0
    1.4401   -1.8524    0.0299 C   0  0  0  0  0  0  0  0  0  0  0  0
    0.0089   -1.6171   -0.0207 C   0  0  0  0  0  0  0  0  0  0  0  0
    3.7832   -0.9990    0.0654 C   0  0  0  0  0  0  0  0  0  0  0  0
    2.6010    1.6132   -0.0737 C   0  0  0  0  0  0  0  0  0  0  0  0
    4.0321    1.4442   -0.0214 C   0  0  0  0  0  0  0  0  0  0  0  0
   -2.5946    0.2505    1.0092 C   0  0  0  0  0  0  0  0  0  0  0  0
   -2.5123    0.1324   -1.4025 C   0  0  0  0  0  0  0  0  0  0  0  0
    4.6124    0.2376    0.0436 C   0  0  0  0  0  0  0  0  0  0  0  0
   -3.9432    0.6003    0.9461 C   0  0  0  0  0  0  0  0  0  0  0  0
   -4.5765    0.7162   -0.2913 C   0  0  0  0  0  0  0  0  0  0  0  0
   -3.8610    0.4822   -1.4657 C   0  0  0  0  0  0  0  0  0  0  0  0
    6.1377    2.3619    0.0104 C   0  0  0  0  0  0  0  0  0  0  0  0
   -6.8408   -0.0083   -0.3524 C   0  0  0  0  0  0  0  0  0  0  0  0
    2.2045    2.6225   -0.1267 H   0  0  0  0  0  0  0  0  0  0  0  0
   -2.1019    0.1608    1.9753 H   0  0  0  0  0  0  0  0  0  0  0  0
   -1.9680   -0.0464   -2.3268 H   0  0  0  0  0  0  0  0  0  0  0  0
    5.6762    0.0398    0.0849 H   0  0  0  0  0  0  0  0  0  0  0  0
   -4.3478    0.5714   -2.4331 H   0  0  0  0  0  0  0  0  0  0  0  0
    0.9977   -3.7259    0.0929 H   0  0  0  0  0  0  0  0  0  0  0  0
   -1.7097   -2.4835    0.0001 H   0  0  0  0  0  0  0  0  0  0  0  0
   -4.0336    0.6992    2.8562 H   0  0  0  0  0  0  0  0  0  0  0  0
    6.6405    3.3358   -0.0111 H   0  0  0  0  0  0  0  0  0  0  0  0
    6.5005    1.8215   -0.8723 H   0  0  0  0  0  0  0  0  0  0  0  0
    6.4419    1.8921    0.9536 H   0  0  0  0  0  0  0  0  0  0  0  0
   -6.6926   -0.6641   -1.2163 H   0  0  0  0  0  0  0  0  0  0  0  0
   -7.8434    0.4240   -0.4096 H   0  0  0  0  0  0  0  0  0  0  0  0
   -6.7603   -0.5842    0.5749 H   0  0  0  0  0  0  0  0  0  0  0  0
  1  9  1  0  0  0  0
  1 10  1  0  0  0  0
  2 12  1  0  0  0  0
  2 30  1  0  0  0  0
  3 13  1  0  0  0  0
  3 31  1  0  0  0  0
  4 16  1  0  0  0  0
  4 23  1  0  0  0  0
  5 21  1  0  0  0  0
  5 24  1  0  0  0  0
  6 14  2  0  0  0  0
  7 20  1  0  0  0  0
  7 32  1  0  0  0  0
  8 10  1  0  0  0  0
  8 12  2  0  0  0  0
  8 14  1  0  0  0  0
  9 11  1  0  0  0  0
  9 13  2  0  0  0  0
 10 15  2  0  0  0  0
 11 17  2  0  0  0  0
 11 18  1  0  0  0  0
 12 13  1  0  0  0  0
 14 19  1  0  0  0  0
 15 16  1  0  0  0  0
 15 25  1  0  0  0  0
 16 19  2  0  0  0  0
 17 20  1  0  0  0  0
 17 26  1  0  0  0  0
 18 22  2  0  0  0  0
 18 27  1  0  0  0  0
 19 28  1  0  0  0  0
 20 21  2  0  0  0  0
 21 22  1  0  0  0  0
 22 29  1  0  0  0  0
 23 33  1  0  0  0  0
 23 34  1  0  0  0  0
 23 35  1  0  0  0  0
 24 36  1  0  0  0  0
 24 37  1  0  0  0  0
 24 38  1  0  0  0  0
M  END
> <PUBCHEM_COMPOUND_CID>
10725

> <PUBCHEM_CONFORMER_RMSD>
0.6

> <PUBCHEM_CONFORMER_DIVERSEORDER>
1
6
3
2
5
4

> <PUBCHEM_MMFF94_PARTIAL_CHARGES>
32
1 -0.15
10 0.08
11 0.03
12 0.08
13 0.08
14 0.54
15 -0.15
16 0.08
17 -0.15
18 -0.15
19 -0.14
2 -0.53
20 0.08
21 0.08
22 -0.15
23 0.28
24 0.28
25 0.15
26 0.15
27 0.15
28 0.15
29 0.15
3 -0.53
30 0.45
31 0.45
32 0.45
4 -0.36
5 -0.36
6 -0.57
7 -0.53
8 0.01
9 0.05

> <PUBCHEM_EFFECTIVE_ROTOR_COUNT>
3

> <PUBCHEM_PHARMACOPHORE_FEATURES>
10
1 1 acceptor
1 2 donor
1 3 donor
1 4 acceptor
1 5 acceptor
1 6 acceptor
1 7 donor
6 1 8 9 10 12 13 rings
6 11 17 18 20 21 22 rings
6 8 10 14 15 16 19 rings

> <PUBCHEM_HEAVY_ATOM_COUNT>
24

> <PUBCHEM_ATOM_DEF_STEREO_COUNT>
0

> <PUBCHEM_ATOM_UDEF_STEREO_COUNT>
0

> <PUBCHEM_BOND_DEF_STEREO_COUNT>
0

> <PUBCHEM_BOND_UDEF_STEREO_COUNT>
0

> <PUBCHEM_ISOTOPIC_ATOM_COUNT>
0

> <PUBCHEM_COMPONENT_COUNT>
1

> <PUBCHEM_CACTVS_TAUTO_COUNT>
65

> <PUBCHEM_CONFORMER_ID>
000029E500000001

> <PUBCHEM_MMFF94_ENERGY>
87.94

> <PUBCHEM_FEATURE_SELFOVERLAP>
50.78

> <PUBCHEM_SHAPE_FINGERPRINT>
10 15 17703510995908230472
10411042 1 17762622085585435554
10595046 47 18334861632486774821
11796584 16 13840274675468369724
12107183 9 17469033823598518569
12236239 1 17894915165692888157
12390115 104 18194106435775602532
12403259 415 17988369259690524613
12730499 353 18341891900474914467
12788726 201 17313095384693643161
13140716 1 18413107243458869090
13533116 47 18259989296496188930
13540713 4 18267287761036766778
13540713 5 18267604416085337190
13631057 29 18117566120189501639
14386348 63 17560795585092347783
14790565 3 18408879646671935184
14848178 96 18190185594443967160
15081414 286 18412821383304874444
15196674 1 18411420583509504494
15475509 35 16199604605332410440
17844677 252 18339640165291519181
1813 80 17608925731282750062
200 152 18334582382292456965
20157964 124 18411138047511958113
204376 136 18411981338655288886
20554085 129 17823152155151596328
20612939 158 18335702771181343420
20645477 70 18341336694352789702
21033648 144 18341339924104698399
21033648 29 17417819477924804453
21033650 10 15357961382956387363
21236236 1 18266460910585140055
22122407 14 18190731115573089041
22182313 1 17917443067966570020
23557571 272 16773234131999789015
23559900 14 16557903588351170627
23569943 247 17465087633075340782
23845131 108 18272933778313775842
25147074 1 18264507125793874910
283562 15 17907305351404581722
335352 9 18410290312322623230
34934 24 18339648841599892228
4073 2 18201716254931437691
42630746 31 18408887364537742422
474 4 18407760334906521882
5104073 3 18342459210221088178
602551 16 16056584444215825515
6034566 193 17912351044829575124
633830 44 18187074087752251982
8272917 22 18336548316960984742
9999458 23 18272370906096708590

> <PUBCHEM_SHAPE_MULTIPOLES>
452.82
13.96
2.49
1.02
7.31
1.26
0.16
-8.16
0.06
-4.09
0.08
1.62
-0.24
-0.26

> <PUBCHEM_SHAPE_SELFOVERLAP>
997.263

> <PUBCHEM_SHAPE_VOLUME>
242.5

> <PUBCHEM_COORDINATE_TYPE>
2
5
10

$$$$

