39978
  -OEChem-07051213133D

 53 54  0     0  0  0  0  0  0999 V2000
   -0.0422    0.3280   -1.0399 S   0  0  0  0  0  0  0  0  0  0  0  0
    2.7907    1.1171   -1.2229 S   0  0  0  0  0  0  0  0  0  0  0  0
    1.9170   -1.2530   -0.1739 N   0  0  0  0  0  0  0  0  0  0  0  0
    5.2560   -2.7068   -0.7219 N   0  0  0  0  0  0  0  0  0  0  0  0
   -6.6213    0.2266    0.0345 C   0  0  0  0  0  0  0  0  0  0  0  0
   -5.1457    0.0206    0.0940 C   0  0  0  0  0  0  0  0  0  0  0  0
   -7.0998    0.4746   -1.4298 C   0  0  0  0  0  0  0  0  0  0  0  0
   -7.1639    1.4401    0.8605 C   0  0  0  0  0  0  0  0  0  0  0  0
   -7.3889   -1.0196    0.5752 C   0  0  0  0  0  0  0  0  0  0  0  0
   -4.3512    0.8814    0.8512 C   0  0  0  0  0  0  0  0  0  0  0  0
   -4.5597   -1.0329   -0.6078 C   0  0  0  0  0  0  0  0  0  0  0  0
   -2.3974   -0.3630    0.2041 C   0  0  0  0  0  0  0  0  0  0  0  0
   -2.9707    0.6889    0.9064 C   0  0  0  0  0  0  0  0  0  0  0  0
   -3.1793   -1.2256   -0.5525 C   0  0  0  0  0  0  0  0  0  0  0  0
   -0.9093   -0.5710    0.2645 C   0  0  0  0  0  0  0  0  0  0  0  0
    3.8156    3.2868    0.2089 C   0  0  0  0  0  0  0  0  0  0  0  0
    5.2701    2.9488   -0.1291 C   0  0  0  0  0  0  0  0  0  0  0  0
    2.9110    2.0602    0.3255 C   0  0  0  0  0  0  0  0  0  0  0  0
    1.6353   -0.1060   -0.7101 C   0  0  0  0  0  0  0  0  0  0  0  0
    6.1412    4.1959   -0.1321 C   0  0  0  0  0  0  0  0  0  0  0  0
    3.2474   -1.6317    0.0669 C   0  0  0  0  0  0  0  0  0  0  0  0
    3.8626   -1.3299    1.2722 C   0  0  0  0  0  0  0  0  0  0  0  0
    3.9735   -2.3135   -0.8904 C   0  0  0  0  0  0  0  0  0  0  0  0
    5.1812   -1.7179    1.4829 C   0  0  0  0  0  0  0  0  0  0  0  0
    5.8279   -2.3979    0.4636 C   0  0  0  0  0  0  0  0  0  0  0  0
   -6.5962    1.3477   -1.8612 H   0  0  0  0  0  0  0  0  0  0  0  0
   -8.1803    0.6547   -1.4712 H   0  0  0  0  0  0  0  0  0  0  0  0
   -6.8901   -0.3823   -2.0795 H   0  0  0  0  0  0  0  0  0  0  0  0
   -6.7370    2.3872    0.5105 H   0  0  0  0  0  0  0  0  0  0  0  0
   -6.9421    1.3303    1.9285 H   0  0  0  0  0  0  0  0  0  0  0  0
   -8.2534    1.5259    0.7669 H   0  0  0  0  0  0  0  0  0  0  0  0
   -7.0968   -1.2382    1.6091 H   0  0  0  0  0  0  0  0  0  0  0  0
   -7.1865   -1.9157   -0.0217 H   0  0  0  0  0  0  0  0  0  0  0  0
   -8.4730   -0.8583    0.5586 H   0  0  0  0  0  0  0  0  0  0  0  0
   -4.7538    1.7154    1.4153 H   0  0  0  0  0  0  0  0  0  0  0  0
   -5.1544   -1.7180   -1.2053 H   0  0  0  0  0  0  0  0  0  0  0  0
   -2.3606    1.3656    1.4984 H   0  0  0  0  0  0  0  0  0  0  0  0
   -2.7335   -2.0489   -1.1037 H   0  0  0  0  0  0  0  0  0  0  0  0
   -0.6917   -1.6425    0.1831 H   0  0  0  0  0  0  0  0  0  0  0  0
   -0.5269   -0.2502    1.2409 H   0  0  0  0  0  0  0  0  0  0  0  0
    3.7865    3.8230    1.1659 H   0  0  0  0  0  0  0  0  0  0  0  0
    3.4116    3.9759   -0.5438 H   0  0  0  0  0  0  0  0  0  0  0  0
    5.3430    2.4763   -1.1142 H   0  0  0  0  0  0  0  0  0  0  0  0
    5.6656    2.2366    0.6045 H   0  0  0  0  0  0  0  0  0  0  0  0
    3.2812    1.4128    1.1239 H   0  0  0  0  0  0  0  0  0  0  0  0
    1.9067    2.3903    0.6119 H   0  0  0  0  0  0  0  0  0  0  0  0
    7.1761    3.9346   -0.3746 H   0  0  0  0  0  0  0  0  0  0  0  0
    6.1351    4.6815    0.8489 H   0  0  0  0  0  0  0  0  0  0  0  0
    5.7897    4.9179   -0.8759 H   0  0  0  0  0  0  0  0  0  0  0  0
    3.3252   -0.8060    2.0574 H   0  0  0  0  0  0  0  0  0  0  0  0
    3.5395   -2.5754   -1.8504 H   0  0  0  0  0  0  0  0  0  0  0  0
    5.6857   -1.4971    2.4164 H   0  0  0  0  0  0  0  0  0  0  0  0
    6.8567   -2.7229    0.5784 H   0  0  0  0  0  0  0  0  0  0  0  0
  1 15  1  0  0  0  0
  1 19  1  0  0  0  0
  2 18  1  0  0  0  0
  2 19  1  0  0  0  0
  3 19  2  0  0  0  0
  3 21  1  0  0  0  0
  4 23  1  0  0  0  0
  4 25  2  0  0  0  0
  5  6  1  0  0  0  0
  5  7  1  0  0  0  0
  5  8  1  0  0  0  0
  5  9  1  0  0  0  0
  6 10  2  0  0  0  0
  6 11  1  0  0  0  0
  7 26  1  0  0  0  0
  7 27  1  0  0  0  0
  7 28  1  0  0  0  0
  8 29  1  0  0  0  0
  8 30  1  0  0  0  0
  8 31  1  0  0  0  0
  9 32  1  0  0  0  0
  9 33  1  0  0  0  0
  9 34  1  0  0  0  0
 10 13  1  0  0  0  0
 10 35  1  0  0  0  0
 11 14  2  0  0  0  0
 11 36  1  0  0  0  0
 12 13  2  0  0  0  0
 12 14  1  0  0  0  0
 12 15  1  0  0  0  0
 13 37  1  0  0  0  0
 14 38  1  0  0  0  0
 15 39  1  0  0  0  0
 15 40  1  0  0  0  0
 16 17  1  0  0  0  0
 16 18  1  0  0  0  0
 16 41  1  0  0  0  0
 16 42  1  0  0  0  0
 17 20  1  0  0  0  0
 17 43  1  0  0  0  0
 17 44  1  0  0  0  0
 18 45  1  0  0  0  0
 18 46  1  0  0  0  0
 20 47  1  0  0  0  0
 20 48  1  0  0  0  0
 20 49  1  0  0  0  0
 21 22  1  0  0  0  0
 21 23  2  0  0  0  0
 22 24  2  0  0  0  0
 22 50  1  0  0  0  0
 23 51  1  0  0  0  0
 24 25  1  0  0  0  0
 24 52  1  0  0  0  0
 25 53  1  0  0  0  0
M  END
> <PUBCHEM_COMPOUND_CID>
39978

> <PUBCHEM_CONFORMER_RMSD>
1

> <PUBCHEM_CONFORMER_DIVERSEORDER>
1
101
65
78
67
27
89
52
29
68
61
56
73
96
2
5
49
100
40
75
76
92
36
33
38
45
72
102
6
41
12
53
79
50
48
88
20
82
69
58
74
54
16
62
97
35
4
95
57
24
7
93
66
64
90
18
17
37
15
31
85
3
23
55
51
99
86
70
11
60
42
91
10
44
14
83
25
8
43
59
30
81
46
19
21
26
80
34
63
94
71
77
32
84
22
87
9
98
47
39
13
28

> <PUBCHEM_MMFF94_PARTIAL_CHARGES>
27
1 -0.37
10 -0.15
11 -0.15
12 -0.14
13 -0.15
14 -0.15
15 0.37
18 0.23
19 0.73
2 -0.37
21 0.18
22 -0.15
23 0.16
24 -0.15
25 0.16
3 -0.63
35 0.15
36 0.15
37 0.15
38 0.15
4 -0.62
5 0.14
50 0.15
51 0.15
52 0.15
53 0.15
6 -0.14

> <PUBCHEM_EFFECTIVE_ROTOR_COUNT>
9

> <PUBCHEM_PHARMACOPHORE_FEATURES>
7
1 20 hydrophobe
1 3 acceptor
1 4 acceptor
4 2 16 17 18 hydrophobe
4 5 7 8 9 hydrophobe
6 4 21 22 23 24 25 rings
6 6 10 11 12 13 14 rings

> <PUBCHEM_HEAVY_ATOM_COUNT>
25

> <PUBCHEM_ATOM_DEF_STEREO_COUNT>
0

> <PUBCHEM_ATOM_UDEF_STEREO_COUNT>
0

> <PUBCHEM_BOND_DEF_STEREO_COUNT>
0

> <PUBCHEM_BOND_UDEF_STEREO_COUNT>
0

> <PUBCHEM_ISOTOPIC_ATOM_COUNT>
0

> <PUBCHEM_COMPONENT_COUNT>
1

> <PUBCHEM_CACTVS_TAUTO_COUNT>
1

> <PUBCHEM_CONFORMER_ID>
00009C2A00000001

> <PUBCHEM_MMFF94_ENERGY>
66.4498

> <PUBCHEM_FEATURE_SELFOVERLAP>
35.521

> <PUBCHEM_SHAPE_FINGERPRINT>
10050765 1 18338515214472670182
10411042 1 18194400229346687830
10554248 39 18261683635767983965
10595046 47 18261392196577694765
11297750 10 17845385504368030932
12166972 35 18114180890731368850
12236239 1 18410571808394563191
12616971 3 18333456443467437943
13073987 5 18340482271508737483
13533116 47 18413669114710295392
13878862 14 18268731483368554389
14347424 109 18412267254586050556
14565420 104 18266181622190206616
14739800 52 17968099660239088280
15183329 4 18334292089737468277
15475509 35 16844744126635041370
1577012 14 18259698991921636713
18335252 98 18267860585219916931
20554085 129 17896889755833997216
21033648 29 17203619181253837535
21344244 78 18115036298420618488
21403212 168 18336831880363036816
21781055 127 16299207125503466827
21792934 111 18114184177278324569
21859007 373 17631751476948087757
23081809 10 17894911824451106797
23559900 14 17775556529361012375
23569943 247 17762049239357854747
249057 25 17822285829713788409
3004659 81 18411978087423139591
3411729 13 18341333285056026960
397830 11 18129655301928469139
4073 2 18128814144787902226
5104073 3 18342449314837867123
5385378 56 18340208484539817620

> <PUBCHEM_SHAPE_MULTIPOLES>
512.23
21.43
3.66
1.2
25.4
2.88
0.03
3.24
-1.99
-11.73
-0.1
0.02
-0.19
-0.87

> <PUBCHEM_SHAPE_SELFOVERLAP>
1023.976

> <PUBCHEM_SHAPE_VOLUME>
306

> <PUBCHEM_COORDINATE_TYPE>
2
5
10

$$$$

