5283211
  -OEChem-07051213063D

 56 56  0     1  0  0  0  0  0999 V2000
    4.6326   -1.5389    0.4243 O   0  0  0  0  0  0  0  0  0  0  0  0
    0.0969   -4.5333   -0.3735 O   0  0  0  0  0  0  0  0  0  0  0  0
   -3.7458    3.3683    1.5513 O   0  0  0  0  0  0  0  0  0  0  0  0
   -4.6485    2.1928   -0.1718 O   0  0  0  0  0  0  0  0  0  0  0  0
    4.0803   -0.3290    0.9586 C   0  0  2  0  0  0  0  0  0  0  0  0
    3.3574   -1.1286   -0.0860 C   0  0  2  0  0  0  0  0  0  0  0  0
    4.8292    0.8982    0.6005 C   0  0  0  0  0  0  0  0  0  0  0  0
    2.1018   -1.8037    0.2853 C   0  0  0  0  0  0  0  0  0  0  0  0
    4.2748    2.1741    1.1856 C   0  0  0  0  0  0  0  0  0  0  0  0
    1.2545   -2.4622   -0.5212 C   0  0  0  0  0  0  0  0  0  0  0  0
   -0.0196   -3.1374   -0.0937 C   0  0  1  0  0  0  0  0  0  0  0  0
    3.3062    2.9044    0.6139 C   0  0  0  0  0  0  0  0  0  0  0  0
    2.6468    2.5451   -0.6861 C   0  0  0  0  0  0  0  0  0  0  0  0
    1.1248    2.4173   -0.5677 C   0  0  0  0  0  0  0  0  0  0  0  0
   -1.2157   -2.5795   -0.8753 C   0  0  0  0  0  0  0  0  0  0  0  0
    0.4513    2.0278   -1.8873 C   0  0  0  0  0  0  0  0  0  0  0  0
   -1.0669    1.9399   -1.7290 C   0  0  0  0  0  0  0  0  0  0  0  0
   -2.5014   -3.2361   -0.4539 C   0  0  0  0  0  0  0  0  0  0  0  0
   -3.2945   -2.7687    0.5213 C   0  0  0  0  0  0  0  0  0  0  0  0
   -2.9961   -1.5297    1.3141 C   0  0  0  0  0  0  0  0  0  0  0  0
   -1.7447    1.5946   -3.0455 C   0  0  0  0  0  0  0  0  0  0  0  0
   -3.5833   -0.2600    0.6852 C   0  0  0  0  0  0  0  0  0  0  0  0
   -3.3539    1.0162    1.4936 C   0  0  0  0  0  0  0  0  0  0  0  0
   -3.9864    2.2283    0.8573 C   0  0  0  0  0  0  0  0  0  0  0  0
    3.7713   -0.3627    1.9954 H   0  0  0  0  0  0  0  0  0  0  0  0
    3.3568   -0.7455   -1.1014 H   0  0  0  0  0  0  0  0  0  0  0  0
    4.9685    0.9914   -0.4831 H   0  0  0  0  0  0  0  0  0  0  0  0
    5.8499    0.7950    0.9933 H   0  0  0  0  0  0  0  0  0  0  0  0
    1.8351   -1.7537    1.3398 H   0  0  0  0  0  0  0  0  0  0  0  0
    4.6943    2.5104    2.1303 H   0  0  0  0  0  0  0  0  0  0  0  0
    1.5042   -2.5290   -1.5788 H   0  0  0  0  0  0  0  0  0  0  0  0
   -0.1792   -3.0276    0.9852 H   0  0  0  0  0  0  0  0  0  0  0  0
    2.9781    3.8152    1.1078 H   0  0  0  0  0  0  0  0  0  0  0  0
    3.0385    1.6263   -1.1266 H   0  0  0  0  0  0  0  0  0  0  0  0
    2.8765    3.3426   -1.4044 H   0  0  0  0  0  0  0  0  0  0  0  0
    0.8828    1.6638    0.1931 H   0  0  0  0  0  0  0  0  0  0  0  0
    0.7067    3.3684   -0.2137 H   0  0  0  0  0  0  0  0  0  0  0  0
   -1.2672   -1.4899   -0.7741 H   0  0  0  0  0  0  0  0  0  0  0  0
   -1.0911   -2.7771   -1.9487 H   0  0  0  0  0  0  0  0  0  0  0  0
    0.8437    1.0623   -2.2290 H   0  0  0  0  0  0  0  0  0  0  0  0
    0.6999    2.7696   -2.6558 H   0  0  0  0  0  0  0  0  0  0  0  0
   -1.4616    2.8941   -1.3612 H   0  0  0  0  0  0  0  0  0  0  0  0
   -1.3117    1.1769   -0.9834 H   0  0  0  0  0  0  0  0  0  0  0  0
   -2.7917   -4.1458   -0.9729 H   0  0  0  0  0  0  0  0  0  0  0  0
    0.8399   -4.8779    0.1513 H   0  0  0  0  0  0  0  0  0  0  0  0
   -4.2128   -3.3017    0.7521 H   0  0  0  0  0  0  0  0  0  0  0  0
   -1.9191   -1.4002    1.4677 H   0  0  0  0  0  0  0  0  0  0  0  0
   -3.4175   -1.6637    2.3185 H   0  0  0  0  0  0  0  0  0  0  0  0
   -1.5411    2.3569   -3.8041 H   0  0  0  0  0  0  0  0  0  0  0  0
   -1.3950    0.6289   -3.4243 H   0  0  0  0  0  0  0  0  0  0  0  0
   -2.8288    1.5326   -2.9074 H   0  0  0  0  0  0  0  0  0  0  0  0
   -4.6647   -0.4025    0.5528 H   0  0  0  0  0  0  0  0  0  0  0  0
   -3.1791   -0.1261   -0.3254 H   0  0  0  0  0  0  0  0  0  0  0  0
   -3.7805    0.8989    2.4957 H   0  0  0  0  0  0  0  0  0  0  0  0
   -2.2779    1.2010    1.5856 H   0  0  0  0  0  0  0  0  0  0  0  0
   -4.1624    4.1492    1.1284 H   0  0  0  0  0  0  0  0  0  0  0  0
  1  5  1  0  0  0  0
  1  6  1  0  0  0  0
  2 11  1  0  0  0  0
  2 45  1  0  0  0  0
  3 24  1  0  0  0  0
  3 56  1  0  0  0  0
  4 24  2  0  0  0  0
  5  6  1  0  0  0  0
  5  7  1  0  0  0  0
  5 25  1  0  0  0  0
  6  8  1  0  0  0  0
  6 26  1  0  0  0  0
  7  9  1  0  0  0  0
  7 27  1  0  0  0  0
  7 28  1  0  0  0  0
  8 10  2  0  0  0  0
  8 29  1  0  0  0  0
  9 12  2  0  0  0  0
  9 30  1  0  0  0  0
 10 11  1  0  0  0  0
 10 31  1  0  0  0  0
 11 15  1  0  0  0  0
 11 32  1  0  0  0  0
 12 13  1  0  0  0  0
 12 33  1  0  0  0  0
 13 14  1  0  0  0  0
 13 34  1  0  0  0  0
 13 35  1  0  0  0  0
 14 16  1  0  0  0  0
 14 36  1  0  0  0  0
 14 37  1  0  0  0  0
 15 18  1  0  0  0  0
 15 38  1  0  0  0  0
 15 39  1  0  0  0  0
 16 17  1  0  0  0  0
 16 40  1  0  0  0  0
 16 41  1  0  0  0  0
 17 21  1  0  0  0  0
 17 42  1  0  0  0  0
 17 43  1  0  0  0  0
 18 19  2  0  0  0  0
 18 44  1  0  0  0  0
 19 20  1  0  0  0  0
 19 46  1  0  0  0  0
 20 22  1  0  0  0  0
 20 47  1  0  0  0  0
 20 48  1  0  0  0  0
 21 49  1  0  0  0  0
 21 50  1  0  0  0  0
 21 51  1  0  0  0  0
 22 23  1  0  0  0  0
 22 52  1  0  0  0  0
 22 53  1  0  0  0  0
 23 24  1  0  0  0  0
 23 54  1  0  0  0  0
 23 55  1  0  0  0  0
M  END
> <PUBCHEM_COMPOUND_CID>
5283211

> <PUBCHEM_CONFORMER_RMSD>
1.4

> <PUBCHEM_CONFORMER_DIVERSEORDER>
5
73
62
135
51
133
6
120
153
113
87
125
35
53
18
81
36
146
95
4
78
48
49
19
104
11
85
27
91
141
128
122
26
10
57
59
129
28
99
61
137
106
127
21
64
40
44
121
70
45
148
32
115
132
29
140
24
75
42
52
101
109
131
60
77
41
82
68
9
63
100
142
66
98
93
55
20
30
65
31
14
147
112
74
39
130
136
2
117
123
119
76
144
43
88
71
105
126
15
25
83
139
134
50
47
138
69
149
67
33
37
79
56
97
108
16
22
89
110
13
86
150
145
90
124
103
118
102
143
46
114
116
92
38
58
8
111
80
151
94
72
152
107
96
54
7
17
12
23
34
1
84
3

> <PUBCHEM_MMFF94_PARTIAL_CHARGES>
29
1 -0.3
10 -0.29
11 0.42
12 -0.29
13 0.14
15 0.14
18 -0.29
19 -0.29
2 -0.68
20 0.14
23 0.06
24 0.66
25 0.1
26 0.1
29 0.15
3 -0.65
30 0.15
31 0.15
33 0.15
4 -0.57
44 0.15
45 0.4
46 0.15
5 -0.05
56 0.5
6 0.09
7 0.23
8 -0.19
9 -0.29

> <PUBCHEM_EFFECTIVE_ROTOR_COUNT>
14.6

> <PUBCHEM_PHARMACOPHORE_FEATURES>
9
1 1 acceptor
1 2 acceptor
1 2 donor
1 21 hydrophobe
1 3 acceptor
1 4 acceptor
3 3 4 24 anion
4 19 20 22 23 hydrophobe
5 12 13 14 16 17 hydrophobe

> <PUBCHEM_HEAVY_ATOM_COUNT>
24

> <PUBCHEM_ATOM_DEF_STEREO_COUNT>
2

> <PUBCHEM_ATOM_UDEF_STEREO_COUNT>
1

> <PUBCHEM_BOND_DEF_STEREO_COUNT>
3

> <PUBCHEM_BOND_UDEF_STEREO_COUNT>
0

> <PUBCHEM_ISOTOPIC_ATOM_COUNT>
0

> <PUBCHEM_COMPONENT_COUNT>
1

> <PUBCHEM_CACTVS_TAUTO_COUNT>
1

> <PUBCHEM_CONFORMER_ID>
00509D8B00000005

> <PUBCHEM_MMFF94_ENERGY>
14.6459

> <PUBCHEM_FEATURE_SELFOVERLAP>
45.727

> <PUBCHEM_SHAPE_FINGERPRINT>
10708813 3 18267296547853422120
11370993 70 18335419088528366801
11513181 2 18041551447816319606
11552529 35 18264491676416774429
12100795 323 18412548738252870641
12788726 201 17690544300277956325
12978246 48 18266171742989134641
13583140 156 17822859666966895016
14100547 121 18338797801971861501
14251764 38 18339075991119106680
14394314 77 17831010231473960523
20765182 5 17906736895402677104
25265897 201 17824793819942366783
5282274 181 18412260666280272580
7064713 232 18335985272739770520
9543594 6 18339354180741429420

> <PUBCHEM_SHAPE_MULTIPOLES>
470.43
9.71
5.74
1.84
4.14
2.21
1.11
-3.82
-5.09
-3.01
0.5
-1.19
-1.69
-0.53

> <PUBCHEM_SHAPE_SELFOVERLAP>
901.132

> <PUBCHEM_SHAPE_VOLUME>
286.6

> <PUBCHEM_COORDINATE_TYPE>
2
5
10

$$$$

