11966267
  -OEChem-07051212493D

 16 16  0     1  0  0  0  0  0999 V2000
    2.8584   -0.6174    0.3360 O   0  0  0  0  0  0  0  0  0  0  0  0
   -2.2803   -1.2504    0.0177 O   0  0  0  0  0  0  0  0  0  0  0  0
   -1.9999    0.8653    0.8184 O   0  0  0  0  0  0  0  0  0  0  0  0
    0.1697    1.2992   -0.6564 N   0  0  0  0  0  0  0  0  0  0  0  0
    0.6081   -1.0483   -0.4094 C   0  0  0  0  0  0  0  0  0  0  0  0
   -0.4511   -0.0310   -0.8018 C   0  0  1  0  0  0  0  0  0  0  0  0
    1.5097   -0.2763    0.5303 C   0  0  2  0  0  0  0  0  0  0  0  0
    1.2286    1.1157    0.0648 C   0  0  0  0  0  0  0  0  0  0  0  0
   -1.6432   -0.0569    0.1003 C   0  0  0  0  0  0  0  0  0  0  0  0
    1.1661   -1.3709   -1.2979 H   0  0  0  0  0  0  0  0  0  0  0  0
    0.2118   -1.9523    0.0640 H   0  0  0  0  0  0  0  0  0  0  0  0
   -0.7858   -0.1716   -1.8350 H   0  0  0  0  0  0  0  0  0  0  0  0
    1.2317   -0.3838    1.5827 H   0  0  0  0  0  0  0  0  0  0  0  0
    1.8832    1.9446    0.3709 H   0  0  0  0  0  0  0  0  0  0  0  0
    3.3894   -0.0779    0.9464 H   0  0  0  0  0  0  0  0  0  0  0  0
   -3.0652   -1.2881    0.6047 H   0  0  0  0  0  0  0  0  0  0  0  0
  1  7  1  0  0  0  0
  1 15  1  0  0  0  0
  2  9  1  0  0  0  0
  2 16  1  0  0  0  0
  3  9  2  0  0  0  0
  4  6  1  0  0  0  0
  4  8  2  0  0  0  0
  5  6  1  0  0  0  0
  5  7  1  0  0  0  0
  5 10  1  0  0  0  0
  5 11  1  0  0  0  0
  6  9  1  0  0  0  0
  6 12  1  0  0  0  0
  7  8  1  0  0  0  0
  7 13  1  0  0  0  0
  8 14  1  0  0  0  0
M  END
> <PUBCHEM_COMPOUND_CID>
11966267

> <PUBCHEM_CONFORMER_RMSD>
0.4

> <PUBCHEM_CONFORMER_DIVERSEORDER>
2
6
3
5
4
1

> <PUBCHEM_MMFF94_PARTIAL_CHARGES>
11
1 -0.68
14 0.06
15 0.4
16 0.5
2 -0.65
3 -0.57
4 -0.7
6 0.31
7 0.34
8 0.33
9 0.66

> <PUBCHEM_EFFECTIVE_ROTOR_COUNT>
1.6

> <PUBCHEM_PHARMACOPHORE_FEATURES>
7
1 1 acceptor
1 1 donor
1 2 acceptor
1 3 acceptor
1 4 acceptor
3 2 3 9 anion
5 4 5 6 7 8 rings

> <PUBCHEM_HEAVY_ATOM_COUNT>
9

> <PUBCHEM_ATOM_DEF_STEREO_COUNT>
2

> <PUBCHEM_ATOM_UDEF_STEREO_COUNT>
0

> <PUBCHEM_BOND_DEF_STEREO_COUNT>
0

> <PUBCHEM_BOND_UDEF_STEREO_COUNT>
0

> <PUBCHEM_ISOTOPIC_ATOM_COUNT>
0

> <PUBCHEM_COMPONENT_COUNT>
1

> <PUBCHEM_CACTVS_TAUTO_COUNT>
1

> <PUBCHEM_CONFORMER_ID>
00B6973B00000002

> <PUBCHEM_MMFF94_ENERGY>
11.9408

> <PUBCHEM_FEATURE_SELFOVERLAP>
35.585

> <PUBCHEM_SHAPE_FINGERPRINT>
10857977 72 18341065055098840538
12423570 1 14720136513097098556
12897270 3 9943509787733345409
18185500 45 18048882892285856895
20653091 64 18200867366517259696
21040471 1 18043232729780157029
23552423 10 17915739980157986662
24536 1 18187641410151036021
29004967 10 17275101738862678672
5084963 1 18340494373893030355

> <PUBCHEM_SHAPE_MULTIPOLES>
162.63
3.04
1.29
0.82
0.16
0.1
-0.04
-0.65
0.76
-0.05
-0.07
-0.06
0.07
-0.17

> <PUBCHEM_SHAPE_SELFOVERLAP>
332.499

> <PUBCHEM_SHAPE_VOLUME>
95.4

> <PUBCHEM_COORDINATE_TYPE>
2
5
10

$$$$

