5306
  -OEChem-06261200382D

 44 47  0     0  0  0  0  0  0999 V2000
   12.1491    2.7717    0.0000 O   0  0  0  0  0  0  0  0  0  0  0  0
    6.2619   -1.3776    0.0000 O   0  0  0  0  0  0  0  0  0  0  0  0
    8.9030    1.2025    0.0000 N   0  0  0  0  0  0  0  0  0  0  0  0
   10.8600    1.6149    0.0000 N   0  0  0  0  0  0  0  0  0  0  0  0
    4.6783   -2.1824    0.0000 N   0  0  0  0  0  0  0  0  0  0  0  0
    9.5708    0.4582    0.0000 C   0  0  0  0  0  0  0  0  0  0  0  0
    9.2136    2.1530    0.0000 C   0  0  0  0  0  0  0  0  0  0  0  0
   10.1921    2.3592    0.0000 C   0  0  0  0  0  0  0  0  0  0  0  0
   10.5493    0.6644    0.0000 C   0  0  0  0  0  0  0  0  0  0  0  0
    7.9244    0.9963    0.0000 C   0  0  0  0  0  0  0  0  0  0  0  0
    7.2566    1.7406    0.0000 C   0  0  0  0  0  0  0  0  0  0  0  0
    7.6138    0.0458    0.0000 C   0  0  0  0  0  0  0  0  0  0  0  0
   11.8385    1.8212    0.0000 C   0  0  0  0  0  0  0  0  0  0  0  0
    5.9674    0.5838    0.0000 C   0  0  0  0  0  0  0  0  0  0  0  0
    6.2781    1.5344    0.0000 C   0  0  0  0  0  0  0  0  0  0  0  0
    6.6353   -0.1605    0.0000 C   0  0  0  0  0  0  0  0  0  0  0  0
    4.6783   -0.5729    0.0000 C   0  0  0  0  0  0  0  0  0  0  0  0
    3.7320   -0.8776    0.0000 C   0  0  0  0  0  0  0  0  0  0  0  0
    4.9889    0.3776    0.0000 C   0  0  0  0  0  0  0  0  0  0  0  0
    3.7320   -1.8776    0.0000 C   0  0  0  0  0  0  0  0  0  0  0  0
    5.2619   -1.3776    0.0000 C   0  0  0  0  0  0  0  0  0  0  0  0
    2.8660   -0.3776    0.0000 C   0  0  0  0  0  0  0  0  0  0  0  0
    2.8660   -2.3776    0.0000 C   0  0  0  0  0  0  0  0  0  0  0  0
    2.0000   -0.8776    0.0000 C   0  0  0  0  0  0  0  0  0  0  0  0
    2.0000   -1.8776    0.0000 C   0  0  0  0  0  0  0  0  0  0  0  0
    9.1930    2.7727    0.0000 H   0  0  0  0  0  0  0  0  0  0  0  0
    8.5998    2.2404    0.0000 H   0  0  0  0  0  0  0  0  0  0  0  0
    9.0444    0.1306    0.0000 H   0  0  0  0  0  0  0  0  0  0  0  0
    9.8021   -0.1171    0.0000 H   0  0  0  0  0  0  0  0  0  0  0  0
   10.7185    2.6869    0.0000 H   0  0  0  0  0  0  0  0  0  0  0  0
    9.9609    2.9345    0.0000 H   0  0  0  0  0  0  0  0  0  0  0  0
   10.5699    0.0448    0.0000 H   0  0  0  0  0  0  0  0  0  0  0  0
   11.1631    0.5771    0.0000 H   0  0  0  0  0  0  0  0  0  0  0  0
    7.4492    2.3299    0.0000 H   0  0  0  0  0  0  0  0  0  0  0  0
    8.0279   -0.4157    0.0000 H   0  0  0  0  0  0  0  0  0  0  0  0
   12.2525    1.3597    0.0000 H   0  0  0  0  0  0  0  0  0  0  0  0
    5.8640    1.9958    0.0000 H   0  0  0  0  0  0  0  0  0  0  0  0
    6.4427   -0.7498    0.0000 H   0  0  0  0  0  0  0  0  0  0  0  0
    4.5749    0.8391    0.0000 H   0  0  0  0  0  0  0  0  0  0  0  0
    4.8709   -2.7717    0.0000 H   0  0  0  0  0  0  0  0  0  0  0  0
    2.8660    0.2424    0.0000 H   0  0  0  0  0  0  0  0  0  0  0  0
    2.8660   -2.9976    0.0000 H   0  0  0  0  0  0  0  0  0  0  0  0
    1.4631   -0.5676    0.0000 H   0  0  0  0  0  0  0  0  0  0  0  0
    1.4631   -2.1876    0.0000 H   0  0  0  0  0  0  0  0  0  0  0  0
  1 13  2  0  0  0  0
  2 21  2  0  0  0  0
  3  6  1  0  0  0  0
  3  7  1  0  0  0  0
  3 10  1  0  0  0  0
  4  8  1  0  0  0  0
  4  9  1  0  0  0  0
  4 13  1  0  0  0  0
  5 20  1  0  0  0  0
  5 21  1  0  0  0  0
  5 40  1  0  0  0  0
  6  9  1  0  0  0  0
  6 28  1  0  0  0  0
  6 29  1  0  0  0  0
  7  8  1  0  0  0  0
  7 26  1  0  0  0  0
  7 27  1  0  0  0  0
  8 30  1  0  0  0  0
  8 31  1  0  0  0  0
  9 32  1  0  0  0  0
  9 33  1  0  0  0  0
 10 11  2  0  0  0  0
 10 12  1  0  0  0  0
 11 15  1  0  0  0  0
 11 34  1  0  0  0  0
 12 16  2  0  0  0  0
 12 35  1  0  0  0  0
 13 36  1  0  0  0  0
 14 15  2  0  0  0  0
 14 16  1  0  0  0  0
 14 19  1  0  0  0  0
 15 37  1  0  0  0  0
 16 38  1  0  0  0  0
 17 18  1  0  0  0  0
 17 19  2  3  0  0  0
 17 21  1  0  0  0  0
 18 20  1  0  0  0  0
 18 22  2  0  0  0  0
 19 39  1  0  0  0  0
 20 23  2  0  0  0  0
 22 24  1  0  0  0  0
 22 41  1  0  0  0  0
 23 25  1  0  0  0  0
 23 42  1  0  0  0  0
 24 25  2  0  0  0  0
 24 43  1  0  0  0  0
 25 44  1  0  0  0  0
M  END
> <PUBCHEM_COMPOUND_CID>
5306

> <PUBCHEM_COMPOUND_CANONICALIZED>
1

> <PUBCHEM_CACTVS_COMPLEXITY>
531

> <PUBCHEM_CACTVS_HBOND_ACCEPTOR>
3

> <PUBCHEM_CACTVS_HBOND_DONOR>
1

> <PUBCHEM_CACTVS_ROTATABLE_BOND>
2

> <PUBCHEM_CACTVS_SUBSKEYS>
AAADceB7MAAAAAAAAAAAAAAAAAAAAWAAAAA8YIAAAAAAAFgBQAAAHgAQAAAADAjBmAYwwIPAAACIAiVS0ACCAAAhAgAIiAEIZMgIYDLAlZGUIAhglgDIyYcciICOCAAAAAACAAAQAAAAAAQAAAAAAAAAAA==

> <PUBCHEM_IUPAC_OPENEYE_NAME>
4-[4-[(2-oxoindolin-3-ylidene)methyl]phenyl]piperazine-1-carbaldehyde

> <PUBCHEM_IUPAC_CAS_NAME>
4-[4-[(2-oxo-1H-indol-3-ylidene)methyl]phenyl]-1-piperazinecarboxaldehyde

> <PUBCHEM_IUPAC_NAME>
4-[4-[(2-oxo-1H-indol-3-ylidene)methyl]phenyl]piperazine-1-carbaldehyde

> <PUBCHEM_IUPAC_SYSTEMATIC_NAME>
4-[4-[(2-oxidanylidene-1H-indol-3-ylidene)methyl]phenyl]piperazine-1-carbaldehyde

> <PUBCHEM_IUPAC_TRADITIONAL_NAME>
4-[4-[(2-ketoindolin-3-ylidene)methyl]phenyl]piperazine-1-carbaldehyde

> <PUBCHEM_IUPAC_INCHI>
InChI=1S/C20H19N3O2/c24-14-22-9-11-23(12-10-22)16-7-5-15(6-8-16)13-18-17-3-1-2-4-19(17)21-20(18)25/h1-8,13-14H,9-12H2,(H,21,25)

> <PUBCHEM_IUPAC_INCHIKEY>
ZNFJBJDODKHWED-UHFFFAOYSA-N

> <PUBCHEM_XLOGP3_AA>
2.3

> <PUBCHEM_EXACT_MASS>
333.147727

> <PUBCHEM_MOLECULAR_FORMULA>
C20H19N3O2

> <PUBCHEM_MOLECULAR_WEIGHT>
333.38376

> <PUBCHEM_OPENEYE_CAN_SMILES>
C1CN(CCN1C=O)C2=CC=C(C=C2)C=C3C4=CC=CC=C4NC3=O

> <PUBCHEM_OPENEYE_ISO_SMILES>
C1CN(CCN1C=O)C2=CC=C(C=C2)C=C3C4=CC=CC=C4NC3=O

> <PUBCHEM_CACTVS_TPSA>
52.6

> <PUBCHEM_MONOISOTOPIC_WEIGHT>
333.147727

> <PUBCHEM_TOTAL_CHARGE>
0

> <PUBCHEM_HEAVY_ATOM_COUNT>
25

> <PUBCHEM_ATOM_DEF_STEREO_COUNT>
0

> <PUBCHEM_ATOM_UDEF_STEREO_COUNT>
0

> <PUBCHEM_BOND_DEF_STEREO_COUNT>
0

> <PUBCHEM_BOND_UDEF_STEREO_COUNT>
1

> <PUBCHEM_ISOTOPIC_ATOM_COUNT>
0

> <PUBCHEM_COMPONENT_COUNT>
1

> <PUBCHEM_CACTVS_TAUTO_COUNT>
2

> <PUBCHEM_COORDINATE_TYPE>
1
5
255

> <PUBCHEM_BONDANNOTATIONS>
10  11  8
10  12  8
11  15  8
12  16  8
14  15  8
14  16  8
17  19  1
18  20  8
18  22  8
20  23  8
22  24  8
23  25  8
24  25  8

$$$$

