242332
  -OEChem-07051213033D

 53 56  0     1  0  0  0  0  0999 V2000
   -5.2242   -1.1151   -0.1771 O   0  0  0  0  0  0  0  0  0  0  0  0
    5.9118   -0.0335   -0.1464 O   0  0  0  0  0  0  0  0  0  0  0  0
    0.1625   -0.4347   -0.3048 C   0  0  1  0  0  0  0  0  0  0  0  0
   -0.6504    0.7922    0.2247 C   0  0  2  0  0  0  0  0  0  0  0  0
   -2.0675    0.7233   -0.3544 C   0  0  1  0  0  0  0  0  0  0  0  0
    1.6533   -0.4130    0.2000 C   0  0  2  0  0  0  0  0  0  0  0  0
   -2.8130   -0.5653    0.0477 C   0  0  2  0  0  0  0  0  0  0  0  0
    2.2746    0.9528   -0.2381 C   0  0  1  0  0  0  0  0  0  0  0  0
   -0.5795   -1.7757   -0.0586 C   0  0  0  0  0  0  0  0  0  0  0  0
   -2.0450   -1.7606   -0.5316 C   0  0  0  0  0  0  0  0  0  0  0  0
    0.0393    2.1158   -0.1343 C   0  0  0  0  0  0  0  0  0  0  0  0
   -3.0641    1.8309   -0.0209 C   0  0  0  0  0  0  0  0  0  0  0  0
   -4.1713   -0.2845   -0.6268 C   0  0  2  0  0  0  0  0  0  0  0  0
    1.4985    2.1533    0.3142 C   0  0  0  0  0  0  0  0  0  0  0  0
    2.4779   -1.5452   -0.4767 C   0  0  0  0  0  0  0  0  0  0  0  0
   -4.4360    1.2065   -0.3358 C   0  0  0  0  0  0  0  0  0  0  0  0
    3.7709    1.0581    0.0821 C   0  0  0  0  0  0  0  0  0  0  0  0
    1.7172   -0.6139    1.7360 C   0  0  0  0  0  0  0  0  0  0  0  0
   -2.9888   -0.7574    1.5753 C   0  0  0  0  0  0  0  0  0  0  0  0
    3.9813   -1.4508   -0.2074 C   0  0  0  0  0  0  0  0  0  0  0  0
    4.5525   -0.0833   -0.5671 C   0  0  2  0  0  0  0  0  0  0  0  0
    0.2062   -0.3263   -1.4005 H   0  0  0  0  0  0  0  0  0  0  0  0
   -0.7144    0.7485    1.3167 H   0  0  0  0  0  0  0  0  0  0  0  0
   -1.9600    0.7344   -1.4523 H   0  0  0  0  0  0  0  0  0  0  0  0
    2.1948    1.0111   -1.3352 H   0  0  0  0  0  0  0  0  0  0  0  0
   -0.5504   -2.0395    1.0028 H   0  0  0  0  0  0  0  0  0  0  0  0
   -0.0693   -2.5861   -0.5909 H   0  0  0  0  0  0  0  0  0  0  0  0
   -2.0553   -1.7182   -1.6286 H   0  0  0  0  0  0  0  0  0  0  0  0
   -2.5315   -2.7038   -0.2555 H   0  0  0  0  0  0  0  0  0  0  0  0
   -0.4934    2.9555    0.3271 H   0  0  0  0  0  0  0  0  0  0  0  0
   -0.0049    2.2741   -1.2196 H   0  0  0  0  0  0  0  0  0  0  0  0
   -2.8911    2.7321   -0.6180 H   0  0  0  0  0  0  0  0  0  0  0  0
   -3.0080    2.1167    1.0353 H   0  0  0  0  0  0  0  0  0  0  0  0
   -4.0914   -0.4252   -1.7121 H   0  0  0  0  0  0  0  0  0  0  0  0
    1.9514    3.0858   -0.0445 H   0  0  0  0  0  0  0  0  0  0  0  0
    1.5539    2.1840    1.4083 H   0  0  0  0  0  0  0  0  0  0  0  0
    2.3173   -1.5142   -1.5625 H   0  0  0  0  0  0  0  0  0  0  0  0
    2.1329   -2.5293   -0.1390 H   0  0  0  0  0  0  0  0  0  0  0  0
   -5.1297    1.3523    0.4996 H   0  0  0  0  0  0  0  0  0  0  0  0
   -4.8899    1.6840   -1.2115 H   0  0  0  0  0  0  0  0  0  0  0  0
    4.1701    2.0116   -0.2877 H   0  0  0  0  0  0  0  0  0  0  0  0
    3.9464    1.0788    1.1643 H   0  0  0  0  0  0  0  0  0  0  0  0
    1.3743   -1.6145    2.0196 H   0  0  0  0  0  0  0  0  0  0  0  0
    2.7336   -0.5151    2.1272 H   0  0  0  0  0  0  0  0  0  0  0  0
    1.1039    0.1066    2.2824 H   0  0  0  0  0  0  0  0  0  0  0  0
   -3.5113   -1.6976    1.7874 H   0  0  0  0  0  0  0  0  0  0  0  0
   -2.0365   -0.7987    2.1102 H   0  0  0  0  0  0  0  0  0  0  0  0
   -3.5740    0.0465    2.0328 H   0  0  0  0  0  0  0  0  0  0  0  0
    4.1954   -1.6861    0.8424 H   0  0  0  0  0  0  0  0  0  0  0  0
    4.5058   -2.2246   -0.7821 H   0  0  0  0  0  0  0  0  0  0  0  0
    4.5427    0.0407   -1.6562 H   0  0  0  0  0  0  0  0  0  0  0  0
   -5.4465   -0.8671    0.7358 H   0  0  0  0  0  0  0  0  0  0  0  0
    5.9308   -0.1257    0.8214 H   0  0  0  0  0  0  0  0  0  0  0  0
  1 13  1  0  0  0  0
  1 52  1  0  0  0  0
  2 21  1  0  0  0  0
  2 53  1  0  0  0  0
  3  4  1  0  0  0  0
  3  6  1  0  0  0  0
  3  9  1  0  0  0  0
  3 22  1  0  0  0  0
  4  5  1  0  0  0  0
  4 11  1  0  0  0  0
  4 23  1  0  0  0  0
  5  7  1  0  0  0  0
  5 12  1  0  0  0  0
  5 24  1  0  0  0  0
  6  8  1  0  0  0  0
  6 15  1  0  0  0  0
  6 18  1  0  0  0  0
  7 10  1  0  0  0  0
  7 13  1  0  0  0  0
  7 19  1  0  0  0  0
  8 14  1  0  0  0  0
  8 17  1  0  0  0  0
  8 25  1  0  0  0  0
  9 10  1  0  0  0  0
  9 26  1  0  0  0  0
  9 27  1  0  0  0  0
 10 28  1  0  0  0  0
 10 29  1  0  0  0  0
 11 14  1  0  0  0  0
 11 30  1  0  0  0  0
 11 31  1  0  0  0  0
 12 16  1  0  0  0  0
 12 32  1  0  0  0  0
 12 33  1  0  0  0  0
 13 16  1  0  0  0  0
 13 34  1  0  0  0  0
 14 35  1  0  0  0  0
 14 36  1  0  0  0  0
 15 20  1  0  0  0  0
 15 37  1  0  0  0  0
 15 38  1  0  0  0  0
 16 39  1  0  0  0  0
 16 40  1  0  0  0  0
 17 21  1  0  0  0  0
 17 41  1  0  0  0  0
 17 42  1  0  0  0  0
 18 43  1  0  0  0  0
 18 44  1  0  0  0  0
 18 45  1  0  0  0  0
 19 46  1  0  0  0  0
 19 47  1  0  0  0  0
 19 48  1  0  0  0  0
 20 21  1  0  0  0  0
 20 49  1  0  0  0  0
 20 50  1  0  0  0  0
 21 51  1  0  0  0  0
M  END
> <PUBCHEM_COMPOUND_CID>
242332

> <PUBCHEM_CONFORMER_RMSD>
0.6

> <PUBCHEM_CONFORMER_DIVERSEORDER>
1

> <PUBCHEM_MMFF94_PARTIAL_CHARGES>
6
1 -0.68
13 0.28
2 -0.68
21 0.28
52 0.4
53 0.4

> <PUBCHEM_EFFECTIVE_ROTOR_COUNT>
2.2

> <PUBCHEM_PHARMACOPHORE_FEATURES>
8
1 1 acceptor
1 1 donor
1 2 acceptor
1 2 donor
5 5 7 12 13 16 rings
6 3 4 5 7 9 10 rings
6 3 4 6 8 11 14 rings
6 6 8 15 17 20 21 rings

> <PUBCHEM_HEAVY_ATOM_COUNT>
21

> <PUBCHEM_ATOM_DEF_STEREO_COUNT>
8

> <PUBCHEM_ATOM_UDEF_STEREO_COUNT>
0

> <PUBCHEM_BOND_DEF_STEREO_COUNT>
0

> <PUBCHEM_BOND_UDEF_STEREO_COUNT>
0

> <PUBCHEM_ISOTOPIC_ATOM_COUNT>
0

> <PUBCHEM_COMPONENT_COUNT>
1

> <PUBCHEM_CACTVS_TAUTO_COUNT>
1

> <PUBCHEM_CONFORMER_ID>
0003B29C00000001

> <PUBCHEM_MMFF94_ENERGY>
74.8787

> <PUBCHEM_FEATURE_SELFOVERLAP>
40.685

> <PUBCHEM_SHAPE_FINGERPRINT>
10366900 7 17703794699851109513
10967382 1 18409731754975981300
11132069 177 18336271167279948584
11471102 20 18409450267462554388
12011746 2 18412831291530026093
12236239 1 17989489641033831206
12403259 226 18335990766309195657
12403259 415 18113627785117419777
12788726 201 18193842758690387993
13140716 1 18120368757272522883
13221675 6 18413108342315810218
13224815 77 18202285805278720001
13288520 33 18334011700601435004
13862211 1 18410014342850595870
14790565 3 17471567102205028609
15099037 51 18410013251691298661
15196674 1 18410012164774480805
15309172 13 18261385646510150515
15375358 24 18408886247962192478
15536298 74 18334298638977213896
15788980 27 18411980269514250910
15848702 151 17749661982502152734
1601671 61 18410293648573494380
16752209 62 18338244854965682529
16945 1 18266736870475312661
17349148 13 17676207961684345967
17804303 29 18408040701993017605
18186145 218 17846503651135859821
19591789 44 18338518646013870054
19862831 5 18343301482987241844
200 152 18040718073493491837
20645477 70 18411141298807606100
21029758 11 18333733532749892913
21033648 29 17531262672257088769
21267235 1 18409722950330188158
21279426 13 18266458904470883734
21452121 103 18188503371928984368
221357 26 18409172112638189821
221490 88 18268424637982543714
23402539 116 18335144210874344428
23493267 7 18131349721743851539
23557571 272 18259978297596562500
23559900 14 18260839171740274376
2748010 2 18411425024516147237
3004659 81 18271523213023472982
335352 9 18409730694151006924
34934 24 18411142441754112382
350125 39 18409445904182431105
3545911 37 18409729551636756895
4214541 1 18409730677150426981
4340502 62 16486683766259470489
474 4 17489018250508140868
4921388 177 16343690007308966561
5104073 3 18410293639772252232
542803 24 14261352470251440550
633830 44 17775005640055488516
69090 78 18334297552171166119
7364860 26 18189620449450728680
9709674 26 18340769222178392899

> <PUBCHEM_SHAPE_MULTIPOLES>
420.43
9.77
2.1
0.97
2.3
0.45
0.41
-0.83
-1.3
-0.27
-0.09
-0.13
-0.21
0.21

> <PUBCHEM_SHAPE_SELFOVERLAP>
890.168

> <PUBCHEM_SHAPE_VOLUME>
233.3

> <PUBCHEM_COORDINATE_TYPE>
2
5
10

$$$$

