442241
  -OEChem-07051212572D

 52 54  0     1  0  0  0  0  0999 V2000
    5.1482    2.7238    0.0000 O   0  0  0  0  0  0  0  0  0  0  0  0
    5.7812   -0.4847    0.0000 O   0  0  0  0  0  0  0  0  0  0  0  0
    3.1645    2.7966    0.0000 O   0  0  0  0  0  0  0  0  0  0  0  0
    4.6840   -1.9721    0.0000 O   0  0  0  0  0  0  0  0  0  0  0  0
    6.8881    3.0820    0.0000 O   0  0  0  0  0  0  0  0  0  0  0  0
    7.4789   -0.1415    0.0000 O   0  0  0  0  0  0  0  0  0  0  0  0
    4.0984   -0.2951    0.0000 C   0  0  2  0  0  0  0  0  0  0  0  0
    5.2219    1.1138    0.0000 C   0  0  1  0  0  0  0  0  0  0  0  0
    3.1974    0.1388    0.0000 C   0  0  2  0  0  0  0  0  0  0  0  0
    4.9994    0.1388    0.0000 C   0  0  2  0  0  0  0  0  0  0  0  0
    4.5984    1.8956    0.0000 C   0  0  1  0  0  0  0  0  0  0  0  0
    2.9749    1.1138    0.0000 C   0  0  1  0  0  0  0  0  0  0  0  0
    3.5984    1.8956    0.0000 C   0  0  1  0  0  0  0  0  0  0  0  0
    6.1517    1.4655    0.0000 C   0  0  1  0  0  0  0  0  0  0  0  0
    3.9624   -1.2798    0.0000 C   0  0  0  0  0  0  0  0  0  0  0  0
    4.9994   -0.7289    0.0000 C   0  0  0  0  0  0  0  0  0  0  0  0
    2.5124   -0.5815    0.0000 C   0  0  0  0  0  0  0  0  0  0  0  0
    2.0000    1.3363    0.0000 C   0  0  0  0  0  0  0  0  0  0  0  0
    6.1062    2.4585    0.0000 C   0  0  0  0  0  0  0  0  0  0  0  0
    2.9842   -1.4564    0.0000 C   0  0  0  0  0  0  0  0  0  0  0  0
    7.1449    1.5816    0.0000 C   0  0  0  0  0  0  0  0  0  0  0  0
    6.7292   -0.8032    0.0000 C   0  0  0  0  0  0  0  0  0  0  0  0
    6.9273   -1.7833    0.0000 C   0  0  0  0  0  0  0  0  0  0  0  0
    7.8752   -2.1018    0.0000 C   0  0  0  0  0  0  0  0  0  0  0  0
    8.0734   -3.0820    0.0000 C   0  0  0  0  0  0  0  0  0  0  0  0
    8.6250   -1.4401    0.0000 C   0  0  0  0  0  0  0  0  0  0  0  0
    5.8627    0.5553    0.0000 H   0  0  0  0  0  0  0  0  0  0  0  0
    2.3778    0.3639    0.0000 H   0  0  0  0  0  0  0  0  0  0  0  0
    5.5846    0.3436    0.0000 H   0  0  0  0  0  0  0  0  0  0  0  0
    4.1966    2.6446    0.0000 H   0  0  0  0  0  0  0  0  0  0  0  0
    2.7702    1.6990    0.0000 H   0  0  0  0  0  0  0  0  0  0  0  0
    2.9823    1.9650    0.0000 H   0  0  0  0  0  0  0  0  0  0  0  0
    6.2985    0.8631    0.0000 H   0  0  0  0  0  0  0  0  0  0  0  0
    4.7304   -1.2876    0.0000 H   0  0  0  0  0  0  0  0  0  0  0  0
    5.5580   -0.9980    0.0000 H   0  0  0  0  0  0  0  0  0  0  0  0
    5.2684   -0.1703    0.0000 H   0  0  0  0  0  0  0  0  0  0  0  0
    1.8978   -0.4993    0.0000 H   0  0  0  0  0  0  0  0  0  0  0  0
    2.1380    1.9407    0.0000 H   0  0  0  0  0  0  0  0  0  0  0  0
    1.3955    1.4742    0.0000 H   0  0  0  0  0  0  0  0  0  0  0  0
    1.8620    0.7318    0.0000 H   0  0  0  0  0  0  0  0  0  0  0  0
    2.7152   -2.0150    0.0000 H   0  0  0  0  0  0  0  0  0  0  0  0
    7.2169    0.9658    0.0000 H   0  0  0  0  0  0  0  0  0  0  0  0
    7.7607    1.6536    0.0000 H   0  0  0  0  0  0  0  0  0  0  0  0
    7.0729    2.1974    0.0000 H   0  0  0  0  0  0  0  0  0  0  0  0
    2.5463    2.8429    0.0000 H   0  0  0  0  0  0  0  0  0  0  0  0
    6.4624   -2.1936    0.0000 H   0  0  0  0  0  0  0  0  0  0  0  0
    7.4657   -3.2048    0.0000 H   0  0  0  0  0  0  0  0  0  0  0  0
    8.1962   -3.6897    0.0000 H   0  0  0  0  0  0  0  0  0  0  0  0
    8.6811   -2.9591    0.0000 H   0  0  0  0  0  0  0  0  0  0  0  0
    9.0352   -1.9050    0.0000 H   0  0  0  0  0  0  0  0  0  0  0  0
    9.0899   -1.0299    0.0000 H   0  0  0  0  0  0  0  0  0  0  0  0
    8.2148   -0.9753    0.0000 H   0  0  0  0  0  0  0  0  0  0  0  0
  1 11  1  0  0  0  0
  1 19  1  0  0  0  0
 10  2  1  6  0  0  0
  2 22  1  0  0  0  0
 13  3  1  1  0  0  0
  3 45  1  0  0  0  0
  4 15  2  0  0  0  0
  5 19  2  0  0  0  0
  6 22  2  0  0  0  0
  7  9  1  0  0  0  0
  7 10  1  0  0  0  0
  7 15  1  0  0  0  0
  7 16  1  1  0  0  0
  8 10  1  0  0  0  0
  8 11  1  0  0  0  0
  8 14  1  0  0  0  0
  8 27  1  6  0  0  0
  9 12  1  0  0  0  0
  9 17  1  0  0  0  0
  9 28  1  6  0  0  0
 10 29  1  0  0  0  0
 11 13  1  0  0  0  0
 11 30  1  6  0  0  0
 12 13  1  0  0  0  0
 12 18  1  6  0  0  0
 12 31  1  0  0  0  0
 13 32  1  0  0  0  0
 14 19  1  0  0  0  0
 14 21  1  1  0  0  0
 14 33  1  0  0  0  0
 15 20  1  0  0  0  0
 16 34  1  0  0  0  0
 16 35  1  0  0  0  0
 16 36  1  0  0  0  0
 17 20  2  0  0  0  0
 17 37  1  0  0  0  0
 18 38  1  0  0  0  0
 18 39  1  0  0  0  0
 18 40  1  0  0  0  0
 20 41  1  0  0  0  0
 21 42  1  0  0  0  0
 21 43  1  0  0  0  0
 21 44  1  0  0  0  0
 22 23  1  0  0  0  0
 23 24  2  0  0  0  0
 23 46  1  0  0  0  0
 24 25  1  0  0  0  0
 24 26  1  0  0  0  0
 25 47  1  0  0  0  0
 25 48  1  0  0  0  0
 25 49  1  0  0  0  0
 26 50  1  0  0  0  0
 26 51  1  0  0  0  0
 26 52  1  0  0  0  0
M  END
> <PUBCHEM_COMPOUND_CID>
442241

> <PUBCHEM_COMPOUND_CANONICALIZED>
1

> <PUBCHEM_CACTVS_COMPLEXITY>
703

> <PUBCHEM_CACTVS_HBOND_ACCEPTOR>
6

> <PUBCHEM_CACTVS_HBOND_DONOR>
1

> <PUBCHEM_CACTVS_ROTATABLE_BOND>
3

> <PUBCHEM_CACTVS_SUBSKEYS>
AAADceB4OAAAAAAAAAAAAAAAAAAAASIAAAAAAAAABgAAAACQAAAAGgAACAAADxSggAICCAAABgCIAqDSCAAAAAAgAAAICAEAAEgBFBYAIQACUAAFoAALIYPK7PzPgAAAAAAAAAAAAAAAAAAAAAAAAAAAAA==

> <PUBCHEM_IUPAC_OPENEYE_NAME>
[(1S,3aS,4R,5S,5aS,8aR,9S,9aS)-4-hydroxy-1,5,8a-trimethyl-2,8-dioxo-3a,4,5,5a,9,9a-hexahydro-1H-azuleno[6,5-b]furan-9-yl] 3-methylbut-2-enoate

> <PUBCHEM_IUPAC_CAS_NAME>
3-methyl-2-butenoic acid [(1S,3aS,4R,5S,5aS,8aR,9S,9aS)-4-hydroxy-1,5,8a-trimethyl-2,8-dioxo-3a,4,5,5a,9,9a-hexahydro-1H-azuleno[6,5-b]furan-9-yl] ester

> <PUBCHEM_IUPAC_NAME>
[(1S,3aS,4R,5S,5aS,8aR,9S,9aS)-4-hydroxy-1,5,8a-trimethyl-2,8-dioxo-3a,4,5,5a,9,9a-hexahydro-1H-azuleno[6,5-b]furan-9-yl] 3-methylbut-2-enoate

> <PUBCHEM_IUPAC_SYSTEMATIC_NAME>
[(1S,3aS,4R,5S,5aS,8aR,9S,9aS)-1,5,8a-trimethyl-4-oxidanyl-2,8-bis(oxidanylidene)-3a,4,5,5a,9,9a-hexahydro-1H-azuleno[6,5-b]furan-9-yl] 3-methylbut-2-enoate

> <PUBCHEM_IUPAC_TRADITIONAL_NAME>
3-methylbut-2-enoic acid [(1S,3aS,4R,5S,5aS,8aR,9S,9aS)-4-hydroxy-2,8-diketo-1,5,8a-trimethyl-3a,4,5,5a,9,9a-hexahydro-1H-azuleno[6,5-b]furan-9-yl] ester

> <PUBCHEM_IUPAC_INCHI>
InChI=1S/C20H26O6/c1-9(2)8-14(22)25-18-15-11(4)19(24)26-17(15)16(23)10(3)12-6-7-13(21)20(12,18)5/h6-8,10-12,15-18,23H,1-5H3/t10-,11-,12-,15+,16+,17-,18-,20-/m0/s1

> <PUBCHEM_IUPAC_INCHIKEY>
DLISCHVYLYGCNV-HJDABSCOSA-N

> <PUBCHEM_XLOGP3_AA>
2.6

> <PUBCHEM_EXACT_MASS>
362.172939

> <PUBCHEM_MOLECULAR_FORMULA>
C20H26O6

> <PUBCHEM_MOLECULAR_WEIGHT>
362.41684

> <PUBCHEM_OPENEYE_CAN_SMILES>
CC1C2C=CC(=O)C2(C(C3C(C(=O)OC3C1O)C)OC(=O)C=C(C)C)C

> <PUBCHEM_OPENEYE_ISO_SMILES>
C[C@H]1[C@@H]2C=CC(=O)[C@]2([C@H]([C@@H]3[C@@H](C(=O)O[C@@H]3[C@@H]1O)C)OC(=O)C=C(C)C)C

> <PUBCHEM_CACTVS_TPSA>
89.9

> <PUBCHEM_MONOISOTOPIC_WEIGHT>
362.172939

> <PUBCHEM_TOTAL_CHARGE>
0

> <PUBCHEM_HEAVY_ATOM_COUNT>
26

> <PUBCHEM_ATOM_DEF_STEREO_COUNT>
8

> <PUBCHEM_ATOM_UDEF_STEREO_COUNT>
0

> <PUBCHEM_BOND_DEF_STEREO_COUNT>
0

> <PUBCHEM_BOND_UDEF_STEREO_COUNT>
0

> <PUBCHEM_ISOTOPIC_ATOM_COUNT>
0

> <PUBCHEM_COMPONENT_COUNT>
1

> <PUBCHEM_CACTVS_TAUTO_COUNT>
6

> <PUBCHEM_COORDINATE_TYPE>
1
5
255

> <PUBCHEM_BONDANNOTATIONS>
11  30  6
12  18  6
14  21  5
10  2  6
13  3  5
7  16  5
8  27  6
9  28  6

$$$$

