442200
  -OEChem-07051212573D

 37 41  0     1  0  0  0  0  0999 V2000
   -1.8968    2.5699   -0.8178 O   0  0  0  0  0  0  0  0  0  0  0  0
   -2.9753    0.4506    2.1283 O   0  0  0  0  0  0  0  0  0  0  0  0
    2.6075    1.5676    0.0691 O   0  0  0  0  0  0  0  0  0  0  0  0
   -0.2046   -2.0402   -0.9013 O   0  0  0  0  0  0  0  0  0  0  0  0
    4.7538    0.8911    0.4744 O   0  0  0  0  0  0  0  0  0  0  0  0
   -2.4379   -2.1600   -1.4224 O   0  0  0  0  0  0  0  0  0  0  0  0
   -1.0081    1.4485   -0.8669 C   0  0  2  0  0  0  0  0  0  0  0  0
   -1.8092    1.7849    0.3813 C   0  0  2  0  0  0  0  0  0  0  0  0
   -3.0244    0.9499    0.7814 C   0  0  1  0  0  0  0  0  0  0  0  0
   -2.9298   -0.5474    1.1039 C   0  0  1  0  0  0  0  0  0  0  0  0
    0.4505    1.7420   -0.9352 C   0  0  0  0  0  0  0  0  0  0  0  0
    1.2966    0.9564    0.0782 C   0  0  1  0  0  0  0  0  0  0  0  0
    1.5807   -0.5288   -0.2210 C   0  0  2  0  0  0  0  0  0  0  0  0
   -1.5082    0.6018   -1.9913 C   0  0  0  0  0  0  0  0  0  0  0  0
    0.5557   -1.6000    0.2346 C   0  0  1  0  0  0  0  0  0  0  0  0
   -1.7060   -1.2001    0.6473 C   0  0  0  0  0  0  0  0  0  0  0  0
    2.9237   -0.7133    0.5010 C   0  0  2  0  0  0  0  0  0  0  0  0
   -0.4851   -1.1544    1.1843 C   0  0  0  0  0  0  0  0  0  0  0  0
    3.5658    0.6387    0.3477 C   0  0  0  0  0  0  0  0  0  0  0  0
   -1.5321   -1.8460   -0.6681 C   0  0  0  0  0  0  0  0  0  0  0  0
    3.7833   -1.8113   -0.1074 C   0  0  0  0  0  0  0  0  0  0  0  0
   -1.2765    2.2515    1.2050 H   0  0  0  0  0  0  0  0  0  0  0  0
   -3.9878    1.3106    0.4351 H   0  0  0  0  0  0  0  0  0  0  0  0
   -3.8285   -1.1399    0.9729 H   0  0  0  0  0  0  0  0  0  0  0  0
    0.6087    2.8142   -0.7520 H   0  0  0  0  0  0  0  0  0  0  0  0
    0.8455    1.5819   -1.9470 H   0  0  0  0  0  0  0  0  0  0  0  0
    0.9066    1.1055    1.0910 H   0  0  0  0  0  0  0  0  0  0  0  0
    1.7527   -0.6329   -1.3024 H   0  0  0  0  0  0  0  0  0  0  0  0
   -2.5177    0.2196   -1.8290 H   0  0  0  0  0  0  0  0  0  0  0  0
   -1.5928    1.2333   -2.8879 H   0  0  0  0  0  0  0  0  0  0  0  0
   -0.8072   -0.1768   -2.2907 H   0  0  0  0  0  0  0  0  0  0  0  0
    1.0626   -2.4869    0.6296 H   0  0  0  0  0  0  0  0  0  0  0  0
    2.7747   -0.8898    1.5732 H   0  0  0  0  0  0  0  0  0  0  0  0
   -0.2610   -0.6979    2.1389 H   0  0  0  0  0  0  0  0  0  0  0  0
    3.2892   -2.7855   -0.0479 H   0  0  0  0  0  0  0  0  0  0  0  0
    4.0089   -1.6058   -1.1598 H   0  0  0  0  0  0  0  0  0  0  0  0
    4.7404   -1.8880    0.4199 H   0  0  0  0  0  0  0  0  0  0  0  0
  1  7  1  0  0  0  0
  1  8  1  0  0  0  0
  2  9  1  0  0  0  0
  2 10  1  0  0  0  0
  3 12  1  0  0  0  0
  3 19  1  0  0  0  0
  4 15  1  0  0  0  0
  4 20  1  0  0  0  0
  5 19  2  0  0  0  0
  6 20  2  0  0  0  0
  7  8  1  0  0  0  0
  7 11  1  0  0  0  0
  7 14  1  0  0  0  0
  8  9  1  0  0  0  0
  8 22  1  0  0  0  0
  9 10  1  0  0  0  0
  9 23  1  0  0  0  0
 10 16  1  0  0  0  0
 10 24  1  0  0  0  0
 11 12  1  0  0  0  0
 11 25  1  0  0  0  0
 11 26  1  0  0  0  0
 12 13  1  0  0  0  0
 12 27  1  0  0  0  0
 13 15  1  0  0  0  0
 13 17  1  0  0  0  0
 13 28  1  0  0  0  0
 14 29  1  0  0  0  0
 14 30  1  0  0  0  0
 14 31  1  0  0  0  0
 15 18  1  0  0  0  0
 15 32  1  0  0  0  0
 16 18  2  0  0  0  0
 16 20  1  0  0  0  0
 17 19  1  0  0  0  0
 17 21  1  0  0  0  0
 17 33  1  0  0  0  0
 18 34  1  0  0  0  0
 21 35  1  0  0  0  0
 21 36  1  0  0  0  0
 21 37  1  0  0  0  0
M  END
> <PUBCHEM_COMPOUND_CID>
442200

> <PUBCHEM_CONFORMER_RMSD>
0.6

> <PUBCHEM_CONFORMER_DIVERSEORDER>
1

> <PUBCHEM_MMFF94_PARTIAL_CHARGES>
23
1 -0.3
10 0.09
11 0.09
12 0.28
14 0.09
15 0.42
16 -0.03
17 0.06
18 -0.29
19 0.66
2 -0.3
20 0.71
22 0.1
23 0.1
24 0.1
3 -0.43
34 0.15
4 -0.43
5 -0.57
6 -0.57
7 -0.04
8 0.05
9 0.05

> <PUBCHEM_EFFECTIVE_ROTOR_COUNT>
1.2

> <PUBCHEM_PHARMACOPHORE_FEATURES>
6
1 1 acceptor
1 2 acceptor
1 5 acceptor
1 6 acceptor
5 3 12 13 17 19 rings
5 4 15 16 18 20 rings

> <PUBCHEM_HEAVY_ATOM_COUNT>
21

> <PUBCHEM_ATOM_DEF_STEREO_COUNT>
8

> <PUBCHEM_ATOM_UDEF_STEREO_COUNT>
0

> <PUBCHEM_BOND_DEF_STEREO_COUNT>
0

> <PUBCHEM_BOND_UDEF_STEREO_COUNT>
0

> <PUBCHEM_ISOTOPIC_ATOM_COUNT>
0

> <PUBCHEM_COMPONENT_COUNT>
1

> <PUBCHEM_CACTVS_TAUTO_COUNT>
2

> <PUBCHEM_CONFORMER_ID>
0006BF5800000001

> <PUBCHEM_MMFF94_ENERGY>
55.8593

> <PUBCHEM_FEATURE_SELFOVERLAP>
30.446

> <PUBCHEM_SHAPE_FINGERPRINT>
10863032 1 15213572459872322109
10948715 1 18122067760852595453
1100329 8 15674357231544046872
11086676 242 18058713745956301328
11132069 177 18341889697145953896
11578080 2 17315662628353626041
12011746 2 18128813234634474541
12173636 292 17603305955274296218
12403814 3 18411980256539737115
12553582 1 18128530475447010404
13140716 1 18198913689553747354
13583140 156 17131285661353068040
14142880 1 18335143055459673929
144361 1 18198648603992857397
14617773 55 18045781187253479861
14817 1 9652759571775954583
15309172 13 18408880771620303874
15375462 478 18268979913309779995
15881359 60 18059303067325366069
16945 1 18199728371666594707
17357779 13 18129959866111208311
18981168 100 17824005409885473344
19868273 293 14201399416919385432
20261772 1 18410565189121752250
21501502 16 18409173195017304062
21623110 236 17980204084817514704
23184049 59 18338221743556596571
2334 1 18342463634089805470
23402539 116 18189906305299531511
23419403 2 17100624482458473213
23559900 14 18193565691420806210
238 59 17049400799262322437
2748010 2 18053937639286015373
69090 78 18335422399937322881
6992083 37 18266170630666801771
81228 2 18271536286201886072
84936 31 16808123890596266983

> <PUBCHEM_SHAPE_MULTIPOLES>
396.95
6
2.53
1.43
5.84
0.05
-0.12
0.39
1.74
-0.57
-0.68
-1.35
-0.08
0.03

> <PUBCHEM_SHAPE_SELFOVERLAP>
875.079

> <PUBCHEM_SHAPE_VOLUME>
214.5

> <PUBCHEM_COORDINATE_TYPE>
2
5
10

$$$$

