11919
  -OEChem-06261206173D

 18 18  0     0  0  0  0  0  0999 V2000
    1.9232    2.3047   -0.8071 Cl  0  0  0  0  0  0  0  0  0  0  0  0
    1.9226   -2.3049    0.8073 Cl  0  0  0  0  0  0  0  0  0  0  0  0
    0.1052    0.6389    0.2794 C   0  0  0  0  0  0  0  0  0  0  0  0
    0.1050   -0.6390   -0.2796 C   0  0  0  0  0  0  0  0  0  0  0  0
   -1.1027    1.2781    0.5590 C   0  0  0  0  0  0  0  0  0  0  0  0
   -1.1030   -1.2778   -0.5589 C   0  0  0  0  0  0  0  0  0  0  0  0
    1.3859    1.3427    0.5875 C   0  0  0  0  0  0  0  0  0  0  0  0
    1.3856   -1.3432   -0.5875 C   0  0  0  0  0  0  0  0  0  0  0  0
   -2.3108    0.6392    0.2796 C   0  0  0  0  0  0  0  0  0  0  0  0
   -2.3110   -0.6387   -0.2795 C   0  0  0  0  0  0  0  0  0  0  0  0
   -1.1185    2.2744    0.9931 H   0  0  0  0  0  0  0  0  0  0  0  0
   -1.1191   -2.2742   -0.9929 H   0  0  0  0  0  0  0  0  0  0  0  0
    2.1947    0.6729    0.8905 H   0  0  0  0  0  0  0  0  0  0  0  0
    1.2478    2.0372    1.4240 H   0  0  0  0  0  0  0  0  0  0  0  0
    2.1944   -0.6737   -0.8908 H   0  0  0  0  0  0  0  0  0  0  0  0
    1.2473   -2.0379   -1.4238 H   0  0  0  0  0  0  0  0  0  0  0  0
   -3.2514    1.1368    0.4969 H   0  0  0  0  0  0  0  0  0  0  0  0
   -3.2517   -1.1362   -0.4967 H   0  0  0  0  0  0  0  0  0  0  0  0
  1  7  1  0  0  0  0
  2  8  1  0  0  0  0
  3  4  1  0  0  0  0
  3  5  2  0  0  0  0
  3  7  1  0  0  0  0
  4  6  2  0  0  0  0
  4  8  1  0  0  0  0
  5  9  1  0  0  0  0
  5 11  1  0  0  0  0
  6 10  1  0  0  0  0
  6 12  1  0  0  0  0
  7 13  1  0  0  0  0
  7 14  1  0  0  0  0
  8 15  1  0  0  0  0
  8 16  1  0  0  0  0
  9 10  2  0  0  0  0
  9 17  1  0  0  0  0
 10 18  1  0  0  0  0
M  END
> <PUBCHEM_COMPOUND_CID>
11919

> <PUBCHEM_CONFORMER_RMSD>
0.4

> <PUBCHEM_CONFORMER_DIVERSEORDER>
2
5
9
4
3
1
8
6
7

> <PUBCHEM_MMFF94_PARTIAL_CHARGES>
14
1 -0.29
10 -0.15
11 0.15
12 0.15
17 0.15
18 0.15
2 -0.29
3 -0.14
4 -0.14
5 -0.15
6 -0.15
7 0.43
8 0.43
9 -0.15

> <PUBCHEM_EFFECTIVE_ROTOR_COUNT>
2

> <PUBCHEM_PHARMACOPHORE_FEATURES>
1
6 3 4 5 6 9 10 rings

> <PUBCHEM_HEAVY_ATOM_COUNT>
10

> <PUBCHEM_ATOM_DEF_STEREO_COUNT>
0

> <PUBCHEM_ATOM_UDEF_STEREO_COUNT>
0

> <PUBCHEM_BOND_DEF_STEREO_COUNT>
0

> <PUBCHEM_BOND_UDEF_STEREO_COUNT>
0

> <PUBCHEM_ISOTOPIC_ATOM_COUNT>
0

> <PUBCHEM_COMPONENT_COUNT>
1

> <PUBCHEM_CACTVS_TAUTO_COUNT>
1

> <PUBCHEM_CONFORMER_ID>
00002E8F00000002

> <PUBCHEM_MMFF94_ENERGY>
22.4343

> <PUBCHEM_FEATURE_SELFOVERLAP>
5.074

> <PUBCHEM_SHAPE_FINGERPRINT>
12423570 1 8213577706231967119
12524768 44 17899699243300496014
12716758 59 17615965509219415388
16945 1 18412826888840303237
18185500 45 18121493819724331839
20511035 2 18260556661886993485
20645476 183 17553487981442541916
20653091 64 18410854382139109875
21040471 1 18045504118702335017
23419403 2 15590005645634583255
23552423 10 18411138008941726527
241688 4 18050290563358552042
2748010 2 16964060065842523325
5084963 1 17535737495503595433
528862 383 18411702079834113370
54338 74 17979079606138002682

> <PUBCHEM_SHAPE_MULTIPOLES>
209.53
3.08
2.6
0.92
0.85
0
0
0
0
-2.13
0
-0.24
0
-0.75

> <PUBCHEM_SHAPE_SELFOVERLAP>
410.186

> <PUBCHEM_SHAPE_VOLUME>
123.7

> <PUBCHEM_COORDINATE_TYPE>
2
5
10

$$$$

