56928136
  -OEChem-07051213153D

 40 42  0     1  0  0  0  0  0999 V2000
   -3.3214    1.7592   -1.2375 O   0  0  0  0  0  0  0  0  0  0  0  0
    0.2378   -0.4503   -0.0559 C   0  0  1  0  0  0  0  0  0  0  0  0
    0.3344    0.4660    1.2048 C   0  0  1  0  0  0  0  0  0  0  0  0
   -1.2474   -0.3574   -0.5311 C   0  0  1  0  0  0  0  0  0  0  0  0
    1.2315    0.1872   -1.0473 C   0  0  0  0  0  0  0  0  0  0  0  0
    0.4490   -1.9501    0.2974 C   0  0  1  0  0  0  0  0  0  0  0  0
    2.3138    0.8650   -0.1919 C   0  0  0  0  0  0  0  0  0  0  0  0
    1.4954    1.4456    0.9693 C   0  0  0  0  0  0  0  0  0  0  0  0
   -1.8782   -1.7298   -0.2696 C   0  0  0  0  0  0  0  0  0  0  0  0
   -0.9500   -2.4114    0.7232 C   0  0  0  0  0  0  0  0  0  0  0  0
   -1.8346    0.7340    0.3196 C   0  0  0  0  0  0  0  0  0  0  0  0
   -0.9854    1.1651    1.2572 C   0  0  0  0  0  0  0  0  0  0  0  0
    0.9718   -2.8186   -0.8498 C   0  0  0  0  0  0  0  0  0  0  0  0
    3.0211    1.9719   -0.9832 C   0  0  0  0  0  0  0  0  0  0  0  0
    3.3729   -0.1254    0.3125 C   0  0  0  0  0  0  0  0  0  0  0  0
   -3.2106    1.2490    0.0822 C   0  0  0  0  0  0  0  0  0  0  0  0
    0.4941   -0.1019    2.1279 H   0  0  0  0  0  0  0  0  0  0  0  0
   -1.3261   -0.1015   -1.5937 H   0  0  0  0  0  0  0  0  0  0  0  0
    0.7123    0.9532   -1.6400 H   0  0  0  0  0  0  0  0  0  0  0  0
    1.6550   -0.5129   -1.7715 H   0  0  0  0  0  0  0  0  0  0  0  0
    1.1318   -2.0767    1.1442 H   0  0  0  0  0  0  0  0  0  0  0  0
    1.1186    2.4452    0.7149 H   0  0  0  0  0  0  0  0  0  0  0  0
    2.0989    1.5627    1.8771 H   0  0  0  0  0  0  0  0  0  0  0  0
   -1.9028   -2.3030   -1.2043 H   0  0  0  0  0  0  0  0  0  0  0  0
   -2.9052   -1.6847    0.1056 H   0  0  0  0  0  0  0  0  0  0  0  0
   -1.1696   -2.0650    1.7404 H   0  0  0  0  0  0  0  0  0  0  0  0
   -1.0671   -3.4995    0.7128 H   0  0  0  0  0  0  0  0  0  0  0  0
   -1.2142    1.9404    1.9757 H   0  0  0  0  0  0  0  0  0  0  0  0
    0.4011   -2.6735   -1.7723 H   0  0  0  0  0  0  0  0  0  0  0  0
    0.9194   -3.8804   -0.5852 H   0  0  0  0  0  0  0  0  0  0  0  0
    2.0224   -2.5953   -1.0599 H   0  0  0  0  0  0  0  0  0  0  0  0
    4.1595    0.3970    0.8694 H   0  0  0  0  0  0  0  0  0  0  0  0
    2.9586   -0.8775    0.9870 H   0  0  0  0  0  0  0  0  0  0  0  0
    3.8501   -0.6487   -0.5233 H   0  0  0  0  0  0  0  0  0  0  0  0
    2.3079    2.7095   -1.3680 H   0  0  0  0  0  0  0  0  0  0  0  0
    3.7413    2.5073   -0.3544 H   0  0  0  0  0  0  0  0  0  0  0  0
    3.5625    1.5567   -1.8405 H   0  0  0  0  0  0  0  0  0  0  0  0
   -3.4579    2.0554    0.7808 H   0  0  0  0  0  0  0  0  0  0  0  0
   -3.9480    0.4511    0.2121 H   0  0  0  0  0  0  0  0  0  0  0  0
   -4.2348    2.0741   -1.3469 H   0  0  0  0  0  0  0  0  0  0  0  0
  1 16  1  0  0  0  0
  1 40  1  0  0  0  0
  2  3  1  0  0  0  0
  2  4  1  0  0  0  0
  2  5  1  0  0  0  0
  2  6  1  0  0  0  0
  3  8  1  0  0  0  0
  3 12  1  0  0  0  0
  3 17  1  0  0  0  0
  4  9  1  0  0  0  0
  4 11  1  0  0  0  0
  4 18  1  0  0  0  0
  5  7  1  0  0  0  0
  5 19  1  0  0  0  0
  5 20  1  0  0  0  0
  6 10  1  0  0  0  0
  6 13  1  0  0  0  0
  6 21  1  0  0  0  0
  7  8  1  0  0  0  0
  7 14  1  0  0  0  0
  7 15  1  0  0  0  0
  8 22  1  0  0  0  0
  8 23  1  0  0  0  0
  9 10  1  0  0  0  0
  9 24  1  0  0  0  0
  9 25  1  0  0  0  0
 10 26  1  0  0  0  0
 10 27  1  0  0  0  0
 11 12  2  0  0  0  0
 11 16  1  0  0  0  0
 12 28  1  0  0  0  0
 13 29  1  0  0  0  0
 13 30  1  0  0  0  0
 13 31  1  0  0  0  0
 14 35  1  0  0  0  0
 14 36  1  0  0  0  0
 14 37  1  0  0  0  0
 15 32  1  0  0  0  0
 15 33  1  0  0  0  0
 15 34  1  0  0  0  0
 16 38  1  0  0  0  0
 16 39  1  0  0  0  0
M  END
> <PUBCHEM_COMPOUND_CID>
56928136

> <PUBCHEM_CONFORMER_RMSD>
0.6

> <PUBCHEM_CONFORMER_DIVERSEORDER>
1
4
3
2

> <PUBCHEM_MMFF94_PARTIAL_CHARGES>
8
1 -0.68
11 -0.28
12 -0.29
16 0.42
28 0.15
3 0.14
4 0.14
40 0.4

> <PUBCHEM_EFFECTIVE_ROTOR_COUNT>
2.2

> <PUBCHEM_PHARMACOPHORE_FEATURES>
6
1 1 acceptor
1 1 donor
3 7 14 15 hydrophobe
5 2 3 4 11 12 rings
5 2 3 5 7 8 rings
5 2 4 6 9 10 rings

> <PUBCHEM_HEAVY_ATOM_COUNT>
16

> <PUBCHEM_ATOM_DEF_STEREO_COUNT>
3

> <PUBCHEM_ATOM_UDEF_STEREO_COUNT>
1

> <PUBCHEM_BOND_DEF_STEREO_COUNT>
0

> <PUBCHEM_BOND_UDEF_STEREO_COUNT>
0

> <PUBCHEM_ISOTOPIC_ATOM_COUNT>
0

> <PUBCHEM_COMPONENT_COUNT>
1

> <PUBCHEM_CACTVS_TAUTO_COUNT>
1

> <PUBCHEM_CONFORMER_ID>
0364A78800000001

> <PUBCHEM_MMFF94_ENERGY>
55.9841

> <PUBCHEM_FEATURE_SELFOVERLAP>
31.28

> <PUBCHEM_SHAPE_FINGERPRINT>
10948715 1 18202001044715513209
11206711 2 18118119173735854285
11680986 33 18264198291464142474
12138202 97 18334851675987652852
12173636 292 18267866081818012068
12423570 1 9261645641559950977
12491281 212 17845368852125650596
12592029 89 18201155563123193667
12716301 132 18192446185643549491
13024252 1 13685195071488204710
13132413 78 17254831395732689833
13140716 1 18335137570601775464
13380535 76 18409452513461730043
14181834 199 18124320668345765703
14614273 12 18338787914978232055
14761567 1 18114176466878045777
14817 1 9582149857935974554
15219459 52 18046066231327096111
15490181 8 18264189456858144474
15775835 57 18272646818694975972
15852999 172 18335425689903474434
16752209 62 18263930938645511790
16945 1 17967808374997462248
17134986 127 18343307002099696085
18186145 218 18335129908385686012
19868273 293 18341889645812321428
19868273 325 17326609202942804006
20473742 2 17985552396767930959
20510252 161 18119518847748301130
20645476 183 18342172211847498588
21501502 16 18339078190205860138
21524375 3 18411706490992340663
22344851 341 18341328997972167403
2334 1 18263641762618073920
23388829 49 17396978432240626563
23419403 2 16744171776214345823
23559900 14 18114178628222710648
23598291 2 17917439662131148648
25 1 18335700593569848097
2748010 2 18043253431258870944
3071541 158 17907580585645176367
353137 74 18042120006759372745
559249 180 18341049636952270212
7364860 26 18044658834821013383
81228 2 17834405522916458411

> <PUBCHEM_SHAPE_MULTIPOLES>
323.4
4.4
2.74
1.18
0.54
1.69
-0.02
-2.76
1.03
-0.54
0.3
0.01
-0.3
0.19

> <PUBCHEM_SHAPE_SELFOVERLAP>
689.787

> <PUBCHEM_SHAPE_VOLUME>
185.8

> <PUBCHEM_COORDINATE_TYPE>
2
5
10

$$$$

