443813
  -OEChem-07051213032D

 75 80  0     1  0  0  0  0  0999 V2000
    6.3474    1.6676    0.0000 O   0  0  0  0  0  0  0  0  0  0  0  0
    3.7436    3.1576    0.0000 O   0  0  0  0  0  0  0  0  0  0  0  0
    2.8718    4.6542    0.0000 O   0  0  0  0  0  0  0  0  0  0  0  0
    5.4718    4.1643    0.0000 O   0  0  0  0  0  0  0  0  0  0  0  0
    3.7282    7.1576    0.0000 O   0  0  0  0  0  0  0  0  0  0  0  0
    5.1578   -7.4658    0.0000 O   0  0  0  0  0  0  0  0  0  0  0  0
    3.7174    0.1265    0.0000 O   0  0  0  0  0  0  0  0  0  0  0  0
    6.4294   -4.4505    0.0000 O   0  0  0  0  0  0  0  0  0  0  0  0
    6.3373   -3.4050    0.0000 O   0  0  0  0  0  0  0  0  0  0  0  0
    2.8732   -1.4050    0.0000 O   0  0  0  0  0  0  0  0  0  0  0  0
    4.6116    2.6609    0.0000 C   0  0  1  0  0  0  0  0  0  0  0  0
    5.4756    3.1643    0.0000 C   0  0  1  0  0  0  0  0  0  0  0  0
    4.6154    1.6610    0.0000 C   0  0  0  0  0  0  0  0  0  0  0  0
    5.4834    1.1643    0.0000 C   0  0  2  0  0  0  0  0  0  0  0  0
    6.3436    2.6676    0.0000 C   0  0  1  0  0  0  0  0  0  0  0  0
    3.7398    4.1576    0.0000 C   0  0  2  0  0  0  0  0  0  0  0  0
    4.6038    4.6609    0.0000 C   0  0  0  0  0  0  0  0  0  0  0  0
    5.4872    0.1643    0.0000 C   0  0  0  0  0  0  0  0  0  0  0  0
    4.6000    5.6609    0.0000 C   0  0  0  0  0  0  0  0  0  0  0  0
    3.7320    6.1576    0.0000 C   0  0  1  0  0  0  0  0  0  0  0  0
    2.8680    5.6542    0.0000 C   0  0  2  0  0  0  0  0  0  0  0  0
    7.2077    3.1710    0.0000 C   0  0  0  0  0  0  0  0  0  0  0  0
    4.6545   -6.6017    0.0000 C   0  0  2  0  0  0  0  0  0  0  0  0
    4.5892   -0.3635    0.0000 C   0  0  0  0  0  0  0  0  0  0  0  0
    3.7149   -6.0592    0.0000 C   0  0  0  0  0  0  0  0  0  0  0  0
    4.6213   -4.4465    0.0000 C   0  0  0  0  0  0  0  0  0  0  0  0
    3.7232   -4.9742    0.0000 C   0  0  0  0  0  0  0  0  0  0  0  0
    4.6052   -1.4050    0.0000 C   0  0  0  0  0  0  0  0  0  0  0  0
    5.5899   -6.0520    0.0000 C   0  0  0  0  0  0  0  0  0  0  0  0
    6.3893   -0.3565    0.0000 C   0  0  0  0  0  0  0  0  0  0  0  0
    4.6052   -3.4050    0.0000 C   0  0  0  0  0  0  0  0  0  0  0  0
    5.4713   -1.9050    0.0000 C   0  0  0  0  0  0  0  0  0  0  0  0
    3.7392   -2.9050    0.0000 C   0  0  0  0  0  0  0  0  0  0  0  0
    2.0000    6.1509    0.0000 C   0  0  0  0  0  0  0  0  0  0  0  0
    5.5732   -4.9671    0.0000 C   0  0  0  0  0  0  0  0  0  0  0  0
    6.3812   -1.3981    0.0000 C   0  0  0  0  0  0  0  0  0  0  0  0
    5.4713   -2.9050    0.0000 C   0  0  0  0  0  0  0  0  0  0  0  0
    3.7392   -1.9050    0.0000 C   0  0  0  0  0  0  0  0  0  0  0  0
    4.1579   -7.4696    0.0000 C   0  0  0  0  0  0  0  0  0  0  0  0
    2.8212   -4.4534    0.0000 C   0  0  0  0  0  0  0  0  0  0  0  0
    2.8292   -3.4118    0.0000 C   0  0  0  0  0  0  0  0  0  0  0  0
    4.0758    2.3489    0.0000 H   0  0  0  0  0  0  0  0  0  0  0  0
    4.9375    3.4722    0.0000 H   0  0  0  0  0  0  0  0  0  0  0  0
    4.0044    1.7662    0.0000 H   0  0  0  0  0  0  0  0  0  0  0  0
    4.4056    1.0775    0.0000 H   0  0  0  0  0  0  0  0  0  0  0  0
    4.7489    0.7365    0.0000 H   0  0  0  0  0  0  0  0  0  0  0  0
    6.8817    2.3597    0.0000 H   0  0  0  0  0  0  0  0  0  0  0  0
    4.2779    3.8497    0.0000 H   0  0  0  0  0  0  0  0  0  0  0  0
    4.8181    4.0791    0.0000 H   0  0  0  0  0  0  0  0  0  0  0  0
    5.2140    4.7709    0.0000 H   0  0  0  0  0  0  0  0  0  0  0  0
    5.2110    5.5556    0.0000 H   0  0  0  0  0  0  0  0  0  0  0  0
    4.8098    6.2443    0.0000 H   0  0  0  0  0  0  0  0  0  0  0  0
    4.2678    6.4696    0.0000 H   0  0  0  0  0  0  0  0  0  0  0  0
    2.3322    5.3422    0.0000 H   0  0  0  0  0  0  0  0  0  0  0  0
    7.5197    2.6352    0.0000 H   0  0  0  0  0  0  0  0  0  0  0  0
    7.7434    3.4830    0.0000 H   0  0  0  0  0  0  0  0  0  0  0  0
    6.8956    3.7067    0.0000 H   0  0  0  0  0  0  0  0  0  0  0  0
    3.1049   -5.9484    0.0000 H   0  0  0  0  0  0  0  0  0  0  0  0
    3.5013   -6.6412    0.0000 H   0  0  0  0  0  0  0  0  0  0  0  0
    5.8080   -6.6324    0.0000 H   0  0  0  0  0  0  0  0  0  0  0  0
    6.1991   -5.9365    0.0000 H   0  0  0  0  0  0  0  0  0  0  0  0
    6.0075    4.4763    0.0000 H   0  0  0  0  0  0  0  0  0  0  0  0
    6.9274   -0.0486    0.0000 H   0  0  0  0  0  0  0  0  0  0  0  0
    2.3079    6.6890    0.0000 H   0  0  0  0  0  0  0  0  0  0  0  0
    1.4619    6.4588    0.0000 H   0  0  0  0  0  0  0  0  0  0  0  0
    1.6921    5.6128    0.0000 H   0  0  0  0  0  0  0  0  0  0  0  0
    6.9146   -1.7143    0.0000 H   0  0  0  0  0  0  0  0  0  0  0  0
    3.6197   -7.1617    0.0000 H   0  0  0  0  0  0  0  0  0  0  0  0
    3.8499   -8.0078    0.0000 H   0  0  0  0  0  0  0  0  0  0  0  0
    4.6960   -7.7776    0.0000 H   0  0  0  0  0  0  0  0  0  0  0  0
    2.2830   -4.7613    0.0000 H   0  0  0  0  0  0  0  0  0  0  0  0
    2.2959   -3.0956    0.0000 H   0  0  0  0  0  0  0  0  0  0  0  0
    4.2639    7.4696    0.0000 H   0  0  0  0  0  0  0  0  0  0  0  0
    5.7778   -7.4634    0.0000 H   0  0  0  0  0  0  0  0  0  0  0  0
    3.1841   -0.1897    0.0000 H   0  0  0  0  0  0  0  0  0  0  0  0
  1 14  1  0  0  0  0
  1 15  1  0  0  0  0
 11  2  1  1  0  0  0
 16  2  1  6  0  0  0
  3 16  1  0  0  0  0
  3 21  1  0  0  0  0
 12  4  1  6  0  0  0
  4 62  1  0  0  0  0
 20  5  1  1  0  0  0
  5 73  1  0  0  0  0
 23  6  1  6  0  0  0
  6 74  1  0  0  0  0
  7 24  1  0  0  0  0
  7 75  1  0  0  0  0
  8 35  2  0  0  0  0
  9 37  2  0  0  0  0
 10 38  2  0  0  0  0
 11 12  1  0  0  0  0
 11 13  1  0  0  0  0
 11 42  1  0  0  0  0
 12 15  1  0  0  0  0
 12 43  1  0  0  0  0
 13 14  1  0  0  0  0
 13 44  1  0  0  0  0
 13 45  1  0  0  0  0
 14 18  1  0  0  0  0
 14 46  1  6  0  0  0
 15 22  1  1  0  0  0
 15 47  1  0  0  0  0
 16 17  1  0  0  0  0
 16 48  1  0  0  0  0
 17 19  1  0  0  0  0
 17 49  1  0  0  0  0
 17 50  1  0  0  0  0
 18 24  2  0  0  0  0
 18 30  1  0  0  0  0
 19 20  1  0  0  0  0
 19 51  1  0  0  0  0
 19 52  1  0  0  0  0
 20 21  1  0  0  0  0
 20 53  1  0  0  0  0
 21 34  1  1  0  0  0
 21 54  1  0  0  0  0
 22 55  1  0  0  0  0
 22 56  1  0  0  0  0
 22 57  1  0  0  0  0
 23 25  1  0  0  0  0
 23 29  1  0  0  0  0
 23 39  1  0  0  0  0
 24 28  1  0  0  0  0
 25 27  1  0  0  0  0
 25 58  1  0  0  0  0
 25 59  1  0  0  0  0
 26 27  2  0  0  0  0
 26 31  1  0  0  0  0
 26 35  1  0  0  0  0
 27 40  1  0  0  0  0
 28 32  2  0  0  0  0
 28 38  1  0  0  0  0
 29 35  1  0  0  0  0
 29 60  1  0  0  0  0
 29 61  1  0  0  0  0
 30 36  2  0  0  0  0
 30 63  1  0  0  0  0
 31 33  2  0  0  0  0
 31 37  1  0  0  0  0
 32 36  1  0  0  0  0
 32 37  1  0  0  0  0
 33 38  1  0  0  0  0
 33 41  1  0  0  0  0
 34 64  1  0  0  0  0
 34 65  1  0  0  0  0
 34 66  1  0  0  0  0
 36 67  1  0  0  0  0
 39 68  1  0  0  0  0
 39 69  1  0  0  0  0
 39 70  1  0  0  0  0
 40 41  2  0  0  0  0
 40 71  1  0  0  0  0
 41 72  1  0  0  0  0
M  END
> <PUBCHEM_COMPOUND_CID>
443813

> <PUBCHEM_COMPOUND_CANONICALIZED>
1

> <PUBCHEM_CACTVS_COMPLEXITY>
1050

> <PUBCHEM_CACTVS_HBOND_ACCEPTOR>
10

> <PUBCHEM_CACTVS_HBOND_DONOR>
4

> <PUBCHEM_CACTVS_ROTATABLE_BOND>
3

> <PUBCHEM_CACTVS_SUBSKEYS>
AAADcfB4PAAAAAAAAAAAAAAAAAAAAAAAAAA0aMGCAAAAAADBQAAAGgAACAAADFSwmAMyDoAABgCIAqBSAAACAAAkIAAIiAEECMgZNzaCNRqicUAl4BEPuYfL7vzuwAADAAAYAADAAAYAADAAAAAAAAAAAA==

> <PUBCHEM_IUPAC_OPENEYE_NAME>
(3R)-3,8-dihydroxy-9-[(2R,4R,5R,6R)-5-hydroxy-4-[(2S,5S,6S)-5-hydroxy-6-methyl-tetrahydropyran-2-yl]oxy-6-methyl-tetrahydropyran-2-yl]-3-methyl-2,4-dihydrobenzo[a]anthracene-1,7,12-trione

> <PUBCHEM_IUPAC_CAS_NAME>
(3R)-3,8-dihydroxy-9-[(2R,4R,5R,6R)-5-hydroxy-4-[[(2S,5S,6S)-5-hydroxy-6-methyl-2-oxanyl]oxy]-6-methyl-2-oxanyl]-3-methyl-2,4-dihydrobenzo[a]anthracene-1,7,12-trione

> <PUBCHEM_IUPAC_NAME>
(3R)-3,8-dihydroxy-9-[(2R,4R,5R,6R)-5-hydroxy-4-[(2S,5S,6S)-5-hydroxy-6-methyloxan-2-yl]oxy-6-methyloxan-2-yl]-3-methyl-2,4-dihydrobenzo[a]anthracene-1,7,12-trione

> <PUBCHEM_IUPAC_SYSTEMATIC_NAME>
(3R)-3-methyl-9-[(2R,4R,5R,6R)-6-methyl-4-[(2S,5S,6S)-6-methyl-5-oxidanyl-oxan-2-yl]oxy-5-oxidanyl-oxan-2-yl]-3,8-bis(oxidanyl)-2,4-dihydrobenzo[a]anthracene-1,7,12-trione

> <PUBCHEM_IUPAC_TRADITIONAL_NAME>
(3R)-3,8-dihydroxy-9-[(2R,4R,5R,6R)-5-hydroxy-4-[(2S,5S,6S)-5-hydroxy-6-methyl-tetrahydropyran-2-yl]oxy-6-methyl-tetrahydropyran-2-yl]-3-methyl-2,4-dihydrobenz[a]anthracene-1,7,12-trione

> <PUBCHEM_IUPAC_INCHI>
InChI=1S/C31H34O10/c1-13-19(32)8-9-23(40-13)41-22-10-21(39-14(2)27(22)34)16-6-7-18-26(28(16)35)30(37)17-5-4-15-11-31(3,38)12-20(33)24(15)25(17)29(18)36/h4-7,13-14,19,21-23,27,32,34-35,38H,8-12H2,1-3H3/t13-,14+,19-,21+,22+,23-,27+,31+/m0/s1

> <PUBCHEM_IUPAC_INCHIKEY>
UHODELBZXFLXFX-UXUTXJLASA-N

> <PUBCHEM_XLOGP3_AA>
2.2

> <PUBCHEM_EXACT_MASS>
566.215197

> <PUBCHEM_MOLECULAR_FORMULA>
C31H34O10

> <PUBCHEM_MOLECULAR_WEIGHT>
566.59566

> <PUBCHEM_OPENEYE_CAN_SMILES>
CC1C(CCC(O1)OC2CC(OC(C2O)C)C3=C(C4=C(C=C3)C(=O)C5=C(C4=O)C=CC6=C5C(=O)CC(C6)(C)O)O)O

> <PUBCHEM_OPENEYE_ISO_SMILES>
C[C@H]1[C@H](CC[C@@H](O1)O[C@@H]2C[C@@H](O[C@@H]([C@H]2O)C)C3=C(C4=C(C=C3)C(=O)C5=C(C4=O)C=CC6=C5C(=O)C[C@](C6)(C)O)O)O

> <PUBCHEM_CACTVS_TPSA>
160

> <PUBCHEM_MONOISOTOPIC_WEIGHT>
566.215197

> <PUBCHEM_TOTAL_CHARGE>
0

> <PUBCHEM_HEAVY_ATOM_COUNT>
41

> <PUBCHEM_ATOM_DEF_STEREO_COUNT>
8

> <PUBCHEM_ATOM_UDEF_STEREO_COUNT>
0

> <PUBCHEM_BOND_DEF_STEREO_COUNT>
0

> <PUBCHEM_BOND_UDEF_STEREO_COUNT>
0

> <PUBCHEM_ISOTOPIC_ATOM_COUNT>
0

> <PUBCHEM_COMPONENT_COUNT>
1

> <PUBCHEM_CACTVS_TAUTO_COUNT>
53

> <PUBCHEM_COORDINATE_TYPE>
1
5
255

> <PUBCHEM_BONDANNOTATIONS>
14  46  6
15  22  5
18  24  8
18  30  8
11  2  5
16  2  6
21  34  5
24  28  8
26  27  8
26  31  8
27  40  8
28  32  8
30  36  8
31  33  8
32  36  8
33  41  8
12  4  6
40  41  8
20  5  5
23  6  6

$$$$

