4683
  -OEChem-06261200172D

 38 39  0     1  0  0  0  0  0999 V2000
    6.0010   -0.9050    0.0000 S   0  0  0  0  0  0  0  0  0  0  0  0
    4.2690   -0.9050    0.0000 O   0  0  0  0  0  0  0  0  0  0  0  0
    4.2690   -3.9050    0.0000 O   0  0  0  0  0  0  0  0  0  0  0  0
    2.5369   -2.9050    0.0000 O   0  0  0  0  0  0  0  0  0  0  0  0
    6.0010   -2.9050    0.0000 O   0  0  0  0  0  0  0  0  0  0  0  0
    2.5369    0.0950    0.0000 O   0  0  0  0  0  0  0  0  0  0  0  0
    6.8671    3.5950    0.0000 O   0  0  0  0  0  0  0  0  0  0  0  0
    5.1350    3.5950    0.0000 O   0  0  0  0  0  0  0  0  0  0  0  0
    6.0010    3.0950    0.0000 N   0  0  0  0  0  0  0  0  0  0  0  0
    4.2690   -2.9050    0.0000 C   0  0  3  0  0  0  0  0  0  0  0  0
    3.4030   -2.4050    0.0000 C   0  0  3  0  0  0  0  0  0  0  0  0
    5.1350   -2.4050    0.0000 C   0  0  3  0  0  0  0  0  0  0  0  0
    3.4030   -1.4050    0.0000 C   0  0  3  0  0  0  0  0  0  0  0  0
    5.1350   -1.4050    0.0000 C   0  0  3  0  0  0  0  0  0  0  0  0
    2.5369   -0.9050    0.0000 C   0  0  0  0  0  0  0  0  0  0  0  0
    6.0010    0.0950    0.0000 C   0  0  0  0  0  0  0  0  0  0  0  0
    6.8671    0.5950    0.0000 C   0  0  0  0  0  0  0  0  0  0  0  0
    5.1350    0.5950    0.0000 C   0  0  0  0  0  0  0  0  0  0  0  0
    6.8671    1.5950    0.0000 C   0  0  0  0  0  0  0  0  0  0  0  0
    5.1350    1.5950    0.0000 C   0  0  0  0  0  0  0  0  0  0  0  0
    6.0010    2.0950    0.0000 C   0  0  0  0  0  0  0  0  0  0  0  0
    4.8059   -3.2150    0.0000 H   0  0  0  0  0  0  0  0  0  0  0  0
    3.4030   -3.0250    0.0000 H   0  0  0  0  0  0  0  0  0  0  0  0
    5.1350   -3.0250    0.0000 H   0  0  0  0  0  0  0  0  0  0  0  0
    3.4030   -0.7850    0.0000 H   0  0  0  0  0  0  0  0  0  0  0  0
    5.1350   -0.7850    0.0000 H   0  0  0  0  0  0  0  0  0  0  0  0
    1.9264   -0.7973    0.0000 H   0  0  0  0  0  0  0  0  0  0  0  0
    2.3249   -1.4876    0.0000 H   0  0  0  0  0  0  0  0  0  0  0  0
    3.7320   -4.2150    0.0000 H   0  0  0  0  0  0  0  0  0  0  0  0
    2.0000   -2.5950    0.0000 H   0  0  0  0  0  0  0  0  0  0  0  0
    6.5380   -2.5950    0.0000 H   0  0  0  0  0  0  0  0  0  0  0  0
    2.0000    0.4050    0.0000 H   0  0  0  0  0  0  0  0  0  0  0  0
    7.4040    0.2850    0.0000 H   0  0  0  0  0  0  0  0  0  0  0  0
    4.5981    0.2850    0.0000 H   0  0  0  0  0  0  0  0  0  0  0  0
    7.4040    1.9050    0.0000 H   0  0  0  0  0  0  0  0  0  0  0  0
    4.5981    1.9050    0.0000 H   0  0  0  0  0  0  0  0  0  0  0  0
    6.8671    4.2150    0.0000 H   0  0  0  0  0  0  0  0  0  0  0  0
    5.1350    4.2150    0.0000 H   0  0  0  0  0  0  0  0  0  0  0  0
  1 14  1  0  0  0  0
  1 16  1  0  0  0  0
  2 13  1  0  0  0  0
  2 14  1  0  0  0  0
  3 10  1  0  0  0  0
  3 29  1  0  0  0  0
  4 11  1  0  0  0  0
  4 30  1  0  0  0  0
  5 12  1  0  0  0  0
  5 31  1  0  0  0  0
  6 15  1  0  0  0  0
  6 32  1  0  0  0  0
  7  9  1  0  0  0  0
  7 37  1  0  0  0  0
  8  9  1  0  0  0  0
  8 38  1  0  0  0  0
  9 21  1  0  0  0  0
 10 11  1  0  0  0  0
 10 12  1  0  0  0  0
 10 22  1  0  0  0  0
 11 13  1  0  0  0  0
 11 23  1  0  0  0  0
 12 14  1  0  0  0  0
 12 24  1  0  0  0  0
 13 15  1  0  0  0  0
 13 25  1  0  0  0  0
 14 26  1  0  0  0  0
 15 27  1  0  0  0  0
 15 28  1  0  0  0  0
 16 17  2  0  0  0  0
 16 18  1  0  0  0  0
 17 19  1  0  0  0  0
 17 33  1  0  0  0  0
 18 20  2  0  0  0  0
 18 34  1  0  0  0  0
 19 21  2  0  0  0  0
 19 35  1  0  0  0  0
 20 21  1  0  0  0  0
 20 36  1  0  0  0  0
M  END
> <PUBCHEM_COMPOUND_CID>
4683

> <PUBCHEM_COMPOUND_CANONICALIZED>
1

> <PUBCHEM_CACTVS_COMPLEXITY>
327

> <PUBCHEM_CACTVS_HBOND_ACCEPTOR>
9

> <PUBCHEM_CACTVS_HBOND_DONOR>
6

> <PUBCHEM_CACTVS_ROTATABLE_BOND>
4

> <PUBCHEM_CACTVS_SUBSKEYS>
AAADceByOABAAAAAAAAAAAAAAAAAAAAAAAA0QAAAAAAAAAABAAAAHgQECAAACByl0AKwwYAQRgiAACRCQACCAAAgChAoiBgAZIgJMCKgkZGCYABlgAAryAfQYAQAAAQAAAAAAAAACAAAAAAAAAAAAAAAAA==

> <PUBCHEM_IUPAC_OPENEYE_NAME>
2-[4-(dihydroxyamino)phenyl]sulfanyl-6-(hydroxymethyl)tetrahydropyran-3,4,5-triol

> <PUBCHEM_IUPAC_CAS_NAME>
2-[[4-(dihydroxyamino)phenyl]thio]-6-(hydroxymethyl)oxane-3,4,5-triol

> <PUBCHEM_IUPAC_NAME>
2-[4-(dihydroxyamino)phenyl]sulfanyl-6-(hydroxymethyl)oxane-3,4,5-triol

> <PUBCHEM_IUPAC_SYSTEMATIC_NAME>
2-[4-[bis(oxidanyl)amino]phenyl]sulfanyl-6-(hydroxymethyl)oxane-3,4,5-triol

> <PUBCHEM_IUPAC_TRADITIONAL_NAME>
2-[[4-(dihydroxyamino)phenyl]thio]-6-methylol-tetrahydropyran-3,4,5-triol

> <PUBCHEM_IUPAC_INCHI>
InChI=1S/C12H17NO7S/c14-5-8-9(15)10(16)11(17)12(20-8)21-7-3-1-6(2-4-7)13(18)19/h1-4,8-12,14-19H,5H2

> <PUBCHEM_IUPAC_INCHIKEY>
HQCPELKWFSRTDI-UHFFFAOYSA-N

> <PUBCHEM_XLOGP3_AA>
-0.6

> <PUBCHEM_EXACT_MASS>
319.072573

> <PUBCHEM_MOLECULAR_FORMULA>
C12H17NO7S

> <PUBCHEM_MOLECULAR_WEIGHT>
319.33088

> <PUBCHEM_OPENEYE_CAN_SMILES>
C1=CC(=CC=C1N(O)O)SC2C(C(C(C(O2)CO)O)O)O

> <PUBCHEM_OPENEYE_ISO_SMILES>
C1=CC(=CC=C1N(O)O)SC2C(C(C(C(O2)CO)O)O)O

> <PUBCHEM_CACTVS_TPSA>
159

> <PUBCHEM_MONOISOTOPIC_WEIGHT>
319.072573

> <PUBCHEM_TOTAL_CHARGE>
0

> <PUBCHEM_HEAVY_ATOM_COUNT>
21

> <PUBCHEM_ATOM_DEF_STEREO_COUNT>
0

> <PUBCHEM_ATOM_UDEF_STEREO_COUNT>
5

> <PUBCHEM_BOND_DEF_STEREO_COUNT>
0

> <PUBCHEM_BOND_UDEF_STEREO_COUNT>
0

> <PUBCHEM_ISOTOPIC_ATOM_COUNT>
0

> <PUBCHEM_COMPONENT_COUNT>
1

> <PUBCHEM_CACTVS_TAUTO_COUNT>
1

> <PUBCHEM_COORDINATE_TYPE>
1
5
255

> <PUBCHEM_BONDANNOTATIONS>
14  1  3
13  15  3
16  17  8
16  18  8
17  19  8
18  20  8
19  21  8
20  21  8
10  3  3
11  4  3
12  5  3

$$$$

