5939
  -OEChem-07051212542D

 14 13  0     0  0  0  0  0  0999 V2000
    4.2690    0.5950    0.0000 N   0  0  0  0  0  0  0  0  0  0  0  0
    2.5369    0.5950    0.0000 N   0  0  0  0  0  0  0  0  0  0  0  0
    3.4030   -0.9050    0.0000 N   0  0  0  0  0  0  0  0  0  0  0  0
    6.0010    0.5950    0.0000 N   0  0  0  0  0  0  0  0  0  0  0  0
    5.1350   -0.9050    0.0000 N   0  0  0  0  0  0  0  0  0  0  0  0
    3.4030    0.0950    0.0000 C   0  0  0  0  0  0  0  0  0  0  0  0
    5.1350    0.0950    0.0000 C   0  0  0  0  0  0  0  0  0  0  0  0
    2.0000    0.2850    0.0000 H   0  0  0  0  0  0  0  0  0  0  0  0
    2.5369    1.2150    0.0000 H   0  0  0  0  0  0  0  0  0  0  0  0
    2.8660   -1.2150    0.0000 H   0  0  0  0  0  0  0  0  0  0  0  0
    3.9399   -1.2150    0.0000 H   0  0  0  0  0  0  0  0  0  0  0  0
    6.5380    0.2850    0.0000 H   0  0  0  0  0  0  0  0  0  0  0  0
    6.0010    1.2150    0.0000 H   0  0  0  0  0  0  0  0  0  0  0  0
    5.6720   -1.2150    0.0000 H   0  0  0  0  0  0  0  0  0  0  0  0
  1  6  2  0  0  0  0
  1  7  1  0  0  0  0
  2  6  1  0  0  0  0
  2  8  1  0  0  0  0
  2  9  1  0  0  0  0
  3  6  1  0  0  0  0
  3 10  1  0  0  0  0
  3 11  1  0  0  0  0
  4  7  1  0  0  0  0
  4 12  1  0  0  0  0
  4 13  1  0  0  0  0
  5  7  2  0  0  0  0
  5 14  1  0  0  0  0
M  END
> <PUBCHEM_COMPOUND_CID>
5939

> <PUBCHEM_COMPOUND_CANONICALIZED>
1

> <PUBCHEM_CACTVS_COMPLEXITY>
98.6

> <PUBCHEM_CACTVS_HBOND_ACCEPTOR>
1

> <PUBCHEM_CACTVS_HBOND_DONOR>
4

> <PUBCHEM_CACTVS_ROTATABLE_BOND>
1

> <PUBCHEM_CACTVS_SUBSKEYS>
AAADcYBDgAAAAAAAAAAAAAAAAAAAAAAAAAAAAAAAAAAAAAAAAAAABAAQAAAAAAAAAAABAAJAAAAgAAAAJAAAAAGAAAAAAAAAAAAAAAAAAAAAAAAAAAAAAAAAAAAAAAAAAAAAAAAAAAAAAAAAAAAAAAAAAA==

> <PUBCHEM_IUPAC_OPENEYE_NAME>
1-(diaminomethylene)guanidine

> <PUBCHEM_IUPAC_CAS_NAME>
1-(diaminomethylidene)guanidine

> <PUBCHEM_IUPAC_NAME>
1-(diaminomethylidene)guanidine

> <PUBCHEM_IUPAC_SYSTEMATIC_NAME>
1-[bis(azanyl)methylidene]guanidine

> <PUBCHEM_IUPAC_TRADITIONAL_NAME>
1-(diaminomethylene)guanidine

> <PUBCHEM_IUPAC_INCHI>
InChI=1S/C2H7N5/c3-1(4)7-2(5)6/h(H7,3,4,5,6,7)

> <PUBCHEM_IUPAC_INCHIKEY>
XNCOSPRUTUOJCJ-UHFFFAOYSA-N

> <PUBCHEM_XLOGP3_AA>
-1.9

> <PUBCHEM_EXACT_MASS>
101.070145

> <PUBCHEM_MOLECULAR_FORMULA>
C2H7N5

> <PUBCHEM_MOLECULAR_WEIGHT>
101.11048

> <PUBCHEM_OPENEYE_CAN_SMILES>
C(=NC(=N)N)(N)N

> <PUBCHEM_OPENEYE_ISO_SMILES>
C(=NC(=N)N)(N)N

> <PUBCHEM_CACTVS_TPSA>
114

> <PUBCHEM_MONOISOTOPIC_WEIGHT>
101.070145

> <PUBCHEM_TOTAL_CHARGE>
0

> <PUBCHEM_HEAVY_ATOM_COUNT>
7

> <PUBCHEM_ATOM_DEF_STEREO_COUNT>
0

> <PUBCHEM_ATOM_UDEF_STEREO_COUNT>
0

> <PUBCHEM_BOND_DEF_STEREO_COUNT>
0

> <PUBCHEM_BOND_UDEF_STEREO_COUNT>
0

> <PUBCHEM_ISOTOPIC_ATOM_COUNT>
0

> <PUBCHEM_COMPONENT_COUNT>
1

> <PUBCHEM_CACTVS_TAUTO_COUNT>
2

> <PUBCHEM_COORDINATE_TYPE>
1
5
255

$$$$

