6635
  -OEChem-07051213132D

 26 27  0     0  0  0  0  0  0999 V2000
    3.0000   -3.5000    0.0000 Cl  0  0  0  0  0  0  0  0  0  0  0  0
    6.4641    3.5000    0.0000 Cl  0  0  0  0  0  0  0  0  0  0  0  0
    3.0000    0.5000    0.0000 S   0  0  0  0  0  0  0  0  0  0  0  0
    3.0000    1.5000    0.0000 O   0  0  0  0  0  0  0  0  0  0  0  0
    4.0000    0.5000    0.0000 O   0  0  0  0  0  0  0  0  0  0  0  0
    2.0000    0.5000    0.0000 O   0  0  0  0  0  0  0  0  0  0  0  0
    3.0000   -0.5000    0.0000 C   0  0  0  0  0  0  0  0  0  0  0  0
    2.1340   -1.0000    0.0000 C   0  0  0  0  0  0  0  0  0  0  0  0
    3.8660   -1.0000    0.0000 C   0  0  0  0  0  0  0  0  0  0  0  0
    3.8660    2.0000    0.0000 C   0  0  0  0  0  0  0  0  0  0  0  0
    2.1340   -2.0000    0.0000 C   0  0  0  0  0  0  0  0  0  0  0  0
    3.8660   -2.0000    0.0000 C   0  0  0  0  0  0  0  0  0  0  0  0
    4.7320    1.5000    0.0000 C   0  0  0  0  0  0  0  0  0  0  0  0
    3.8660    3.0000    0.0000 C   0  0  0  0  0  0  0  0  0  0  0  0
    3.0000   -2.5000    0.0000 C   0  0  0  0  0  0  0  0  0  0  0  0
    5.5981    2.0000    0.0000 C   0  0  0  0  0  0  0  0  0  0  0  0
    4.7320    3.5000    0.0000 C   0  0  0  0  0  0  0  0  0  0  0  0
    5.5981    3.0000    0.0000 C   0  0  0  0  0  0  0  0  0  0  0  0
    1.5970   -0.6900    0.0000 H   0  0  0  0  0  0  0  0  0  0  0  0
    4.4030   -0.6900    0.0000 H   0  0  0  0  0  0  0  0  0  0  0  0
    1.5970   -2.3100    0.0000 H   0  0  0  0  0  0  0  0  0  0  0  0
    4.4030   -2.3100    0.0000 H   0  0  0  0  0  0  0  0  0  0  0  0
    4.7320    0.8800    0.0000 H   0  0  0  0  0  0  0  0  0  0  0  0
    3.3291    3.3100    0.0000 H   0  0  0  0  0  0  0  0  0  0  0  0
    6.1350    1.6900    0.0000 H   0  0  0  0  0  0  0  0  0  0  0  0
    4.7320    4.1200    0.0000 H   0  0  0  0  0  0  0  0  0  0  0  0
  1 15  1  0  0  0  0
  2 18  1  0  0  0  0
  3  4  1  0  0  0  0
  3  5  2  0  0  0  0
  3  6  2  0  0  0  0
  3  7  1  0  0  0  0
  4 10  1  0  0  0  0
  7  8  2  0  0  0  0
  7  9  1  0  0  0  0
  8 11  1  0  0  0  0
  8 19  1  0  0  0  0
  9 12  2  0  0  0  0
  9 20  1  0  0  0  0
 10 13  2  0  0  0  0
 10 14  1  0  0  0  0
 11 15  2  0  0  0  0
 11 21  1  0  0  0  0
 12 15  1  0  0  0  0
 12 22  1  0  0  0  0
 13 16  1  0  0  0  0
 13 23  1  0  0  0  0
 14 17  2  0  0  0  0
 14 24  1  0  0  0  0
 16 18  2  0  0  0  0
 16 25  1  0  0  0  0
 17 18  1  0  0  0  0
 17 26  1  0  0  0  0
M  END
> <PUBCHEM_COMPOUND_CID>
6635

> <PUBCHEM_COMPOUND_CANONICALIZED>
1

> <PUBCHEM_CACTVS_COMPLEXITY>
350

> <PUBCHEM_CACTVS_HBOND_ACCEPTOR>
3

> <PUBCHEM_CACTVS_HBOND_DONOR>
0

> <PUBCHEM_CACTVS_ROTATABLE_BOND>
3

> <PUBCHEM_CACTVS_SUBSKEYS>
AAADccBwMABGAAAAAAAAAAAAAAAAAAAAAAAwYAAAAAAAAAABQAAAGgYAAAAACAaA0CAwB4AAAAKAACBCAHBCAEAgJQAIiBgGCogIJiKBExKAMAAkwBEIiAeAQAAAACIAAAAAAAAARAAAAAAAAAAAAAAAAA==

> <PUBCHEM_IUPAC_OPENEYE_NAME>
(4-chlorophenyl) 4-chlorobenzenesulfonate

> <PUBCHEM_IUPAC_CAS_NAME>
4-chlorobenzenesulfonic acid (4-chlorophenyl) ester

> <PUBCHEM_IUPAC_NAME>
(4-chlorophenyl) 4-chlorobenzenesulfonate

> <PUBCHEM_IUPAC_SYSTEMATIC_NAME>
(4-chlorophenyl) 4-chloranylbenzenesulfonate

> <PUBCHEM_IUPAC_TRADITIONAL_NAME>
4-chlorobenzenesulfonic acid (4-chlorophenyl) ester

> <PUBCHEM_IUPAC_INCHI>
InChI=1S/C12H8Cl2O3S/c13-9-1-5-11(6-2-9)17-18(15,16)12-7-3-10(14)4-8-12/h1-8H

> <PUBCHEM_IUPAC_INCHIKEY>
RZXLPPRPEOUENN-UHFFFAOYSA-N

> <PUBCHEM_XLOGP3>
4.3

> <PUBCHEM_EXACT_MASS>
301.95712

> <PUBCHEM_MOLECULAR_FORMULA>
C12H8Cl2O3S

> <PUBCHEM_MOLECULAR_WEIGHT>
303.16112

> <PUBCHEM_OPENEYE_CAN_SMILES>
C1=CC(=CC=C1OS(=O)(=O)C2=CC=C(C=C2)Cl)Cl

> <PUBCHEM_OPENEYE_ISO_SMILES>
C1=CC(=CC=C1OS(=O)(=O)C2=CC=C(C=C2)Cl)Cl

> <PUBCHEM_CACTVS_TPSA>
51.8

> <PUBCHEM_MONOISOTOPIC_WEIGHT>
301.95712

> <PUBCHEM_TOTAL_CHARGE>
0

> <PUBCHEM_HEAVY_ATOM_COUNT>
18

> <PUBCHEM_ATOM_DEF_STEREO_COUNT>
0

> <PUBCHEM_ATOM_UDEF_STEREO_COUNT>
0

> <PUBCHEM_BOND_DEF_STEREO_COUNT>
0

> <PUBCHEM_BOND_UDEF_STEREO_COUNT>
0

> <PUBCHEM_ISOTOPIC_ATOM_COUNT>
0

> <PUBCHEM_COMPONENT_COUNT>
1

> <PUBCHEM_CACTVS_TAUTO_COUNT>
1

> <PUBCHEM_COORDINATE_TYPE>
1
5
255

> <PUBCHEM_BONDANNOTATIONS>
10  13  8
10  14  8
11  15  8
12  15  8
13  16  8
14  17  8
16  18  8
17  18  8
7  8  8
7  9  8
8  11  8
9  12  8

$$$$

