160243
  -OEChem-07051213032D

 44 45  0     1  0  0  0  0  0999 V2000
    3.7162    0.0000    0.0000 Br  0  5  0  0  0  0  0  0  0  0  0  0
    2.2563    7.4908    0.0000 S   0  0  0  0  0  0  0  0  0  0  0  0
    2.0948    4.4084    0.0000 S   0  0  0  0  0  0  0  0  0  0  0  0
    6.5294    5.9030    0.0000 O   0  0  0  0  0  0  0  0  0  0  0  0
    4.7974    3.9030    0.0000 N   0  3  0  0  0  0  0  0  0  0  0  0
    5.6634    4.4030    0.0000 C   0  0  0  0  0  0  0  0  0  0  0  0
    3.9313    4.4030    0.0000 C   0  0  0  0  0  0  0  0  0  0  0  0
    5.6634    5.4030    0.0000 C   0  0  3  0  0  0  0  0  0  0  0  0
    4.7974    5.9030    0.0000 C   0  0  0  0  0  0  0  0  0  0  0  0
    3.9313    5.4030    0.0000 C   0  0  0  0  0  0  0  0  0  0  0  0
    5.2974    3.0369    0.0000 C   0  0  0  0  0  0  0  0  0  0  0  0
    4.2974    3.0369    0.0000 C   0  0  0  0  0  0  0  0  0  0  0  0
    3.0653    5.9030    0.0000 C   0  0  0  0  0  0  0  0  0  0  0  0
    3.0653    6.9030    0.0000 C   0  0  0  0  0  0  0  0  0  0  0  0
    2.1993    5.4030    0.0000 C   0  0  0  0  0  0  0  0  0  0  0  0
    7.3954    5.4030    0.0000 C   0  0  0  0  0  0  0  0  0  0  0  0
    3.8743    7.4908    0.0000 C   0  0  0  0  0  0  0  0  0  0  0  0
    1.2857    5.8097    0.0000 C   0  0  0  0  0  0  0  0  0  0  0  0
    3.5653    8.4418    0.0000 C   0  0  0  0  0  0  0  0  0  0  0  0
    0.6166    5.0666    0.0000 C   0  0  0  0  0  0  0  0  0  0  0  0
    2.5653    8.4418    0.0000 C   0  0  0  0  0  0  0  0  0  0  0  0
    1.1166    4.2005    0.0000 C   0  0  0  0  0  0  0  0  0  0  0  0
    5.8754    3.8204    0.0000 H   0  0  0  0  0  0  0  0  0  0  0  0
    6.2740    4.5106    0.0000 H   0  0  0  0  0  0  0  0  0  0  0  0
    3.3208    4.5106    0.0000 H   0  0  0  0  0  0  0  0  0  0  0  0
    3.7193    3.8204    0.0000 H   0  0  0  0  0  0  0  0  0  0  0  0
    6.3995    4.9780    0.0000 H   0  0  0  0  0  0  0  0  0  0  0  0
    5.1959    6.3779    0.0000 H   0  0  0  0  0  0  0  0  0  0  0  0
    4.3988    6.3779    0.0000 H   0  0  0  0  0  0  0  0  0  0  0  0
    4.7604    2.7269    0.0000 H   0  0  0  0  0  0  0  0  0  0  0  0
    5.6074    2.5000    0.0000 H   0  0  0  0  0  0  0  0  0  0  0  0
    5.8343    3.3469    0.0000 H   0  0  0  0  0  0  0  0  0  0  0  0
    3.7604    3.3469    0.0000 H   0  0  0  0  0  0  0  0  0  0  0  0
    3.9874    2.5000    0.0000 H   0  0  0  0  0  0  0  0  0  0  0  0
    4.8343    2.7269    0.0000 H   0  0  0  0  0  0  0  0  0  0  0  0
    7.0854    4.8660    0.0000 H   0  0  0  0  0  0  0  0  0  0  0  0
    7.9324    5.0930    0.0000 H   0  0  0  0  0  0  0  0  0  0  0  0
    7.7054    5.9399    0.0000 H   0  0  0  0  0  0  0  0  0  0  0  0
    4.4640    7.2992    0.0000 H   0  0  0  0  0  0  0  0  0  0  0  0
    1.1568    6.4162    0.0000 H   0  0  0  0  0  0  0  0  0  0  0  0
    3.9297    8.9434    0.0000 H   0  0  0  0  0  0  0  0  0  0  0  0
    0.0000    5.1314    0.0000 H   0  0  0  0  0  0  0  0  0  0  0  0
    2.2009    8.9434    0.0000 H   0  0  0  0  0  0  0  0  0  0  0  0
    0.8644    3.6341    0.0000 H   0  0  0  0  0  0  0  0  0  0  0  0
  2 14  1  0  0  0  0
  2 21  1  0  0  0  0
  3 15  1  0  0  0  0
  3 22  1  0  0  0  0
  4  8  1  0  0  0  0
  4 16  1  0  0  0  0
  5  6  1  0  0  0  0
  5  7  1  0  0  0  0
  5 11  1  0  0  0  0
  5 12  1  0  0  0  0
  6  8  1  0  0  0  0
  6 23  1  0  0  0  0
  6 24  1  0  0  0  0
  7 10  1  0  0  0  0
  7 25  1  0  0  0  0
  7 26  1  0  0  0  0
  8  9  1  0  0  0  0
  8 27  1  0  0  0  0
  9 10  1  0  0  0  0
  9 28  1  0  0  0  0
  9 29  1  0  0  0  0
 10 13  2  0  0  0  0
 11 30  1  0  0  0  0
 11 31  1  0  0  0  0
 11 32  1  0  0  0  0
 12 33  1  0  0  0  0
 12 34  1  0  0  0  0
 12 35  1  0  0  0  0
 13 14  1  0  0  0  0
 13 15  1  0  0  0  0
 14 17  2  0  0  0  0
 15 18  2  0  0  0  0
 16 36  1  0  0  0  0
 16 37  1  0  0  0  0
 16 38  1  0  0  0  0
 17 19  1  0  0  0  0
 17 39  1  0  0  0  0
 18 20  1  0  0  0  0
 18 40  1  0  0  0  0
 19 21  2  0  0  0  0
 19 41  1  0  0  0  0
 20 22  2  0  0  0  0
 20 42  1  0  0  0  0
 21 43  1  0  0  0  0
 22 44  1  0  0  0  0
M  CHG  2   1  -1   5   1
M  END
> <PUBCHEM_COMPOUND_CID>
160243

> <PUBCHEM_COMPOUND_CANONICALIZED>
1

> <PUBCHEM_CACTVS_COMPLEXITY>
390

> <PUBCHEM_CACTVS_HBOND_ACCEPTOR>
4

> <PUBCHEM_CACTVS_HBOND_DONOR>
0

> <PUBCHEM_CACTVS_ROTATABLE_BOND>
3

> <PUBCHEM_CACTVS_SUBSKEYS>
AAADceB6IABgEAAAAAAAAAAAAAAAASJAAAAsAAAAAAAAAAAB4AAAHgQAAAAADBTl0AayAYMABAiEAiBCAACDAIAgCBBIiBgIAIgKICKgkRCFIAAkwAC4iAcwgIAAAAAAAAAAAAAAAAAAAAAAAAAAAAAAAA==

> <PUBCHEM_IUPAC_OPENEYE_NAME>
3-[bis(2-thienyl)methylene]-5-methoxy-1,1-dimethyl-piperidin-1-ium bromide

> <PUBCHEM_IUPAC_CAS_NAME>
3-(dithiophen-2-ylmethylidene)-5-methoxy-1,1-dimethylpiperidin-1-ium bromide

> <PUBCHEM_IUPAC_NAME>
3-(dithiophen-2-ylmethylidene)-5-methoxy-1,1-dimethylpiperidin-1-ium bromide

> <PUBCHEM_IUPAC_SYSTEMATIC_NAME>
3-(dithiophen-2-ylmethylidene)-5-methoxy-1,1-dimethyl-piperidin-1-ium bromide

> <PUBCHEM_IUPAC_TRADITIONAL_NAME>
3-[bis(2-thienyl)methylene]-5-methoxy-1,1-dimethyl-piperidin-1-ium bromide

> <PUBCHEM_IUPAC_INCHI>
InChI=1S/C17H22NOS2.BrH/c1-18(2)11-13(10-14(12-18)19-3)17(15-6-4-8-20-15)16-7-5-9-21-16;/h4-9,14H,10-12H2,1-3H3;1H/q+1;/p-1

> <PUBCHEM_IUPAC_INCHIKEY>
QTSXMEPZSHLZFF-UHFFFAOYSA-M

> <PUBCHEM_EXACT_MASS>
399.032618

> <PUBCHEM_MOLECULAR_FORMULA>
C17H22BrNOS2

> <PUBCHEM_MOLECULAR_WEIGHT>
400.39668

> <PUBCHEM_OPENEYE_CAN_SMILES>
C[N+]1(CC(CC(=C(C2=CC=CS2)C3=CC=CS3)C1)OC)C.[Br-]

> <PUBCHEM_OPENEYE_ISO_SMILES>
C[N+]1(CC(CC(=C(C2=CC=CS2)C3=CC=CS3)C1)OC)C.[Br-]

> <PUBCHEM_CACTVS_TPSA>
65.7

> <PUBCHEM_MONOISOTOPIC_WEIGHT>
399.032618

> <PUBCHEM_TOTAL_CHARGE>
0

> <PUBCHEM_HEAVY_ATOM_COUNT>
22

> <PUBCHEM_ATOM_DEF_STEREO_COUNT>
0

> <PUBCHEM_ATOM_UDEF_STEREO_COUNT>
1

> <PUBCHEM_BOND_DEF_STEREO_COUNT>
0

> <PUBCHEM_BOND_UDEF_STEREO_COUNT>
0

> <PUBCHEM_ISOTOPIC_ATOM_COUNT>
0

> <PUBCHEM_COMPONENT_COUNT>
2

> <PUBCHEM_CACTVS_TAUTO_COUNT>
1

> <PUBCHEM_COORDINATE_TYPE>
1
5
255

> <PUBCHEM_BONDANNOTATIONS>
14  17  8
15  18  8
17  19  8
18  20  8
19  21  8
2  14  8
2  21  8
20  22  8
3  15  8
3  22  8
8  27  3

$$$$

