12529
  -OEChem-06261207033D

 20 19  0     0  0  0  0  0  0999 V2000
    1.9058   -0.7653    0.0111 O   0  0  0  0  0  0  0  0  0  0  0  0
    3.4554    0.9550    0.0032 O   0  0  0  0  0  0  0  0  0  0  0  0
   -1.6802    0.3549   -0.0322 C   0  0  0  0  0  0  0  0  0  0  0  0
   -0.4822   -0.5919   -0.0195 C   0  0  0  0  0  0  0  0  0  0  0  0
   -2.9992   -0.4164    0.0067 C   0  0  0  0  0  0  0  0  0  0  0  0
    0.8359    0.1693   -0.0155 C   0  0  0  0  0  0  0  0  0  0  0  0
   -4.1939    0.5237    0.0283 C   0  0  0  0  0  0  0  0  0  0  0  0
    3.1583   -0.2293    0.0178 C   0  0  0  0  0  0  0  0  0  0  0  0
   -1.6456    0.9815   -0.9318 H   0  0  0  0  0  0  0  0  0  0  0  0
   -1.6246    1.0278    0.8323 H   0  0  0  0  0  0  0  0  0  0  0  0
   -0.5158   -1.2590   -0.8900 H   0  0  0  0  0  0  0  0  0  0  0  0
   -0.5243   -1.2457    0.8609 H   0  0  0  0  0  0  0  0  0  0  0  0
   -3.0722   -1.0730   -0.8680 H   0  0  0  0  0  0  0  0  0  0  0  0
   -3.0309   -1.0562    0.8963 H   0  0  0  0  0  0  0  0  0  0  0  0
    0.8939    0.8147    0.8689 H   0  0  0  0  0  0  0  0  0  0  0  0
    0.9138    0.7887   -0.9168 H   0  0  0  0  0  0  0  0  0  0  0  0
   -4.1679    1.1712    0.9106 H   0  0  0  0  0  0  0  0  0  0  0  0
   -4.2098    1.1582   -0.8636 H   0  0  0  0  0  0  0  0  0  0  0  0
   -5.1263   -0.0489    0.0546 H   0  0  0  0  0  0  0  0  0  0  0  0
    3.8900   -1.0515    0.0387 H   0  0  0  0  0  0  0  0  0  0  0  0
  1  6  1  0  0  0  0
  1  8  1  0  0  0  0
  2  8  2  0  0  0  0
  3  4  1  0  0  0  0
  3  5  1  0  0  0  0
  3  9  1  0  0  0  0
  3 10  1  0  0  0  0
  4  6  1  0  0  0  0
  4 11  1  0  0  0  0
  4 12  1  0  0  0  0
  5  7  1  0  0  0  0
  5 13  1  0  0  0  0
  5 14  1  0  0  0  0
  6 15  1  0  0  0  0
  6 16  1  0  0  0  0
  7 17  1  0  0  0  0
  7 18  1  0  0  0  0
  7 19  1  0  0  0  0
  8 20  1  0  0  0  0
M  END
> <PUBCHEM_COMPOUND_CID>
12529

> <PUBCHEM_CONFORMER_RMSD>
0.6

> <PUBCHEM_CONFORMER_DIVERSEORDER>
1
45
55
11
43
22
49
6
53
19
42
54
47
32
20
40
50
27
56
13
26
44
2
28
5
37
36
51
23
41
34
29
4
7
38
35
33
52
3
48
30
21
10
31
16
25
46
14
15
17
12
8
39
24
9
18

> <PUBCHEM_MMFF94_PARTIAL_CHARGES>
5
1 -0.43
2 -0.57
20 0.06
6 0.28
8 0.66

> <PUBCHEM_EFFECTIVE_ROTOR_COUNT>
5

> <PUBCHEM_PHARMACOPHORE_FEATURES>
2
1 2 acceptor
1 7 hydrophobe

> <PUBCHEM_HEAVY_ATOM_COUNT>
8

> <PUBCHEM_ATOM_DEF_STEREO_COUNT>
0

> <PUBCHEM_ATOM_UDEF_STEREO_COUNT>
0

> <PUBCHEM_BOND_DEF_STEREO_COUNT>
0

> <PUBCHEM_BOND_UDEF_STEREO_COUNT>
0

> <PUBCHEM_ISOTOPIC_ATOM_COUNT>
0

> <PUBCHEM_COMPONENT_COUNT>
1

> <PUBCHEM_CACTVS_TAUTO_COUNT>
1

> <PUBCHEM_CONFORMER_ID>
000030F100000001

> <PUBCHEM_MMFF94_ENERGY>
1.9856

> <PUBCHEM_FEATURE_SELFOVERLAP>
10.148

> <PUBCHEM_SHAPE_FINGERPRINT>
11062470 55 18411136943990212641
12932764 1 15719685345544028311
14325111 11 18410575093448380719
14390081 3 18411420613595082240
177051 138 10879997964572694064
190213 19 17022902350020703579
20645477 70 18188771776719001943
20719005 15 18410855460529153387
21293036 1 16081089264153767608
5460574 1 9151173155593907598

> <PUBCHEM_SHAPE_MULTIPOLES>
152.9
7.48
0.87
0.59
1.25
0.03
0
1.39
-0.09
-0.18
0
0.07
0
-0.01

> <PUBCHEM_SHAPE_SELFOVERLAP>
270.422

> <PUBCHEM_SHAPE_VOLUME>
99.7

> <PUBCHEM_COORDINATE_TYPE>
2
5
10

$$$$

