178007
  -OEChem-07051213053D

 23 24  0     0  0  0  0  0  0999 V2000
   -0.3554    2.7161   -0.0032 Cl  0  0  0  0  0  0  0  0  0  0  0  0
   -0.3554   -2.7155   -0.0016 Cl  0  0  0  0  0  0  0  0  0  0  0  0
    0.7101    0.0001    2.8116 Cl  0  0  0  0  0  0  0  0  0  0  0  0
   -3.5224   -2.6902   -0.2125 Cl  0  0  0  0  0  0  0  0  0  0  0  0
   -3.5241    2.6891   -0.2140 Cl  0  0  0  0  0  0  0  0  0  0  0  0
    3.9173   -0.0026   -2.5498 Cl  0  0  0  0  0  0  0  0  0  0  0  0
    5.4353    0.0011    0.3072 Cl  0  0  0  0  0  0  0  0  0  0  0  0
   -4.6780   -0.0005   -0.2909 O   0  0  0  0  0  0  0  0  0  0  0  0
   -0.5244    0.0004   -0.0135 C   0  0  0  0  0  0  0  0  0  0  0  0
    0.9232    0.0002    0.0829 C   0  0  0  0  0  0  0  0  0  0  0  0
   -1.2271    1.2082   -0.0606 C   0  0  0  0  0  0  0  0  0  0  0  0
   -1.2267   -1.2076   -0.0602 C   0  0  0  0  0  0  0  0  0  0  0  0
    1.5776    0.0005    1.3148 C   0  0  0  0  0  0  0  0  0  0  0  0
    1.6626    0.0000   -1.0996 C   0  0  0  0  0  0  0  0  0  0  0  0
   -2.6185   -1.2081   -0.1528 C   0  0  0  0  0  0  0  0  0  0  0  0
   -2.6189    1.2080   -0.1533 C   0  0  0  0  0  0  0  0  0  0  0  0
   -3.3147   -0.0001   -0.1994 C   0  0  0  0  0  0  0  0  0  0  0  0
    3.0566   -0.0001   -1.0505 C   0  0  0  0  0  0  0  0  0  0  0  0
    2.9716    0.0006    1.3641 C   0  0  0  0  0  0  0  0  0  0  0  0
    3.7113    0.0003    0.1813 C   0  0  0  0  0  0  0  0  0  0  0  0
    1.1536   -0.0006   -2.0621 H   0  0  0  0  0  0  0  0  0  0  0  0
    3.4816    0.0008    2.3253 H   0  0  0  0  0  0  0  0  0  0  0  0
   -4.9859   -0.9230   -0.3113 H   0  0  0  0  0  0  0  0  0  0  0  0
  1 11  1  0  0  0  0
  2 12  1  0  0  0  0
  3 13  1  0  0  0  0
  4 15  1  0  0  0  0
  5 16  1  0  0  0  0
  6 18  1  0  0  0  0
  7 20  1  0  0  0  0
  8 17  1  0  0  0  0
  8 23  1  0  0  0  0
  9 10  1  0  0  0  0
  9 11  2  0  0  0  0
  9 12  1  0  0  0  0
 10 13  1  0  0  0  0
 10 14  2  0  0  0  0
 11 16  1  0  0  0  0
 12 15  2  0  0  0  0
 13 19  2  0  0  0  0
 14 18  1  0  0  0  0
 14 21  1  0  0  0  0
 15 17  1  0  0  0  0
 16 17  2  0  0  0  0
 18 20  2  0  0  0  0
 19 20  1  0  0  0  0
 19 22  1  0  0  0  0
M  END
> <PUBCHEM_COMPOUND_CID>
178007

> <PUBCHEM_CONFORMER_RMSD>
0.6

> <PUBCHEM_CONFORMER_DIVERSEORDER>
1

> <PUBCHEM_MMFF94_PARTIAL_CHARGES>
21
1 -0.18
11 0.18
12 0.18
13 0.18
14 -0.15
15 0.18
16 0.18
17 0.08
18 0.18
19 -0.15
2 -0.18
20 0.18
21 0.15
22 0.15
23 0.45
3 -0.18
4 -0.18
5 -0.18
6 -0.18
7 -0.18
8 -0.53

> <PUBCHEM_EFFECTIVE_ROTOR_COUNT>
1

> <PUBCHEM_PHARMACOPHORE_FEATURES>
3
1 8 donor
6 10 13 14 18 19 20 rings
6 9 11 12 15 16 17 rings

> <PUBCHEM_HEAVY_ATOM_COUNT>
20

> <PUBCHEM_ATOM_DEF_STEREO_COUNT>
0

> <PUBCHEM_ATOM_UDEF_STEREO_COUNT>
0

> <PUBCHEM_BOND_DEF_STEREO_COUNT>
0

> <PUBCHEM_BOND_UDEF_STEREO_COUNT>
0

> <PUBCHEM_ISOTOPIC_ATOM_COUNT>
0

> <PUBCHEM_COMPONENT_COUNT>
1

> <PUBCHEM_CACTVS_TAUTO_COUNT>
2

> <PUBCHEM_CONFORMER_ID>
0002B75700000001

> <PUBCHEM_MMFF94_ENERGY>
57.3703

> <PUBCHEM_FEATURE_SELFOVERLAP>
15.223

> <PUBCHEM_SHAPE_FINGERPRINT>
10498660 4 18338237192681132293
11582403 64 16091011351572424281
11640471 11 17631446933195796269
11796584 16 18261955266991336102
12236239 1 17703794725478436200
12553582 1 18268989783282068299
12788726 201 17629180633731133010
13140716 1 18266458703493598409
13538477 17 18059584559234013179
13965767 371 17555455389817894212
14386348 63 17675923188088414334
15342168 16 15050868812205994774
16752209 62 18341624689453871959
16945 1 18410581682487135143
18186145 218 17894905278087420000
19422 9 17775288261382551730
19862831 5 17703792496364211398
200 152 16702310052434184140
20510252 161 18261675964803580849
20600515 1 18334862722660128800
20871999 31 18337377279961242060
22112679 90 18060144253423018964
23175994 123 16950279594395620928
2334 1 17906740207281027933
23366157 5 17770780427160527163
23402539 116 18408893914462939838
23419403 2 17313958402394391345
23493267 7 18131063883386284147
23526113 38 17458346372633785682
23557571 272 18259704510416587392
23559900 14 18188205524578762502
23598291 2 17632296765689895918
2748010 2 18050579447971441125
474 4 16845567609067260292
77492 1 17704076200397118106
8272917 22 16343150250136810163

> <PUBCHEM_SHAPE_MULTIPOLES>
418.81
8.41
2.48
1.71
3.82
0
-0.45
0
2.05
-3.68
0.23
2.24
0
0

> <PUBCHEM_SHAPE_SELFOVERLAP>
849.017

> <PUBCHEM_SHAPE_VOLUME>
251

> <PUBCHEM_COORDINATE_TYPE>
2
5
10

$$$$

