35702
  -OEChem-07051213143D

 29 32  0     0  0  0  0  0  0999 V2000
    0.6495   -0.4047    0.0004 C   0  0  0  0  0  0  0  0  0  0  0  0
    0.1805    0.9015    0.0007 C   0  0  0  0  0  0  0  0  0  0  0  0
   -0.4125   -1.2985    0.0004 C   0  0  0  0  0  0  0  0  0  0  0  0
   -1.2751    0.8517    0.0006 C   0  0  0  0  0  0  0  0  0  0  0  0
   -1.6458   -0.5241    0.0002 C   0  0  0  0  0  0  0  0  0  0  0  0
    1.9946   -0.7673   -0.0001 C   0  0  0  0  0  0  0  0  0  0  0  0
    1.0894    1.9430    0.0002 C   0  0  0  0  0  0  0  0  0  0  0  0
    2.4612    1.6334   -0.0002 C   0  0  0  0  0  0  0  0  0  0  0  0
    2.9172    0.2972   -0.0003 C   0  0  0  0  0  0  0  0  0  0  0  0
   -0.1501   -2.6556    0.0003 C   0  0  0  0  0  0  0  0  0  0  0  0
    2.2572   -2.1511   -0.0004 C   0  0  0  0  0  0  0  0  0  0  0  0
   -2.2308    1.8496    0.0004 C   0  0  0  0  0  0  0  0  0  0  0  0
   -2.9734   -0.9070   -0.0003 C   0  0  0  0  0  0  0  0  0  0  0  0
    1.1915   -3.0770   -0.0001 C   0  0  0  0  0  0  0  0  0  0  0  0
   -3.5740    1.4624   -0.0005 C   0  0  0  0  0  0  0  0  0  0  0  0
   -3.9403    0.1023   -0.0008 C   0  0  0  0  0  0  0  0  0  0  0  0
    3.4607    2.7442   -0.0005 C   0  0  0  0  0  0  0  0  0  0  0  0
    0.7522    2.9749    0.0020 H   0  0  0  0  0  0  0  0  0  0  0  0
    3.9841    0.0855    0.0013 H   0  0  0  0  0  0  0  0  0  0  0  0
   -0.9504   -3.3881    0.0002 H   0  0  0  0  0  0  0  0  0  0  0  0
    3.2809   -2.5167   -0.0008 H   0  0  0  0  0  0  0  0  0  0  0  0
   -1.9606    2.8997    0.0005 H   0  0  0  0  0  0  0  0  0  0  0  0
   -3.2671   -1.9508   -0.0006 H   0  0  0  0  0  0  0  0  0  0  0  0
    1.4146   -4.1415   -0.0004 H   0  0  0  0  0  0  0  0  0  0  0  0
   -4.3510    2.2227   -0.0009 H   0  0  0  0  0  0  0  0  0  0  0  0
   -4.9942   -0.1649   -0.0013 H   0  0  0  0  0  0  0  0  0  0  0  0
    4.3622    2.4621   -0.5547 H   0  0  0  0  0  0  0  0  0  0  0  0
    3.0566    3.6412   -0.4820 H   0  0  0  0  0  0  0  0  0  0  0  0
    3.7425    2.9948    1.0270 H   0  0  0  0  0  0  0  0  0  0  0  0
  1  2  1  0  0  0  0
  1  3  1  0  0  0  0
  1  6  2  0  0  0  0
  2  4  1  0  0  0  0
  2  7  2  0  0  0  0
  3  5  1  0  0  0  0
  3 10  2  0  0  0  0
  4  5  1  0  0  0  0
  4 12  2  0  0  0  0
  5 13  2  0  0  0  0
  6  9  1  0  0  0  0
  6 11  1  0  0  0  0
  7  8  1  0  0  0  0
  7 18  1  0  0  0  0
  8  9  2  0  0  0  0
  8 17  1  0  0  0  0
  9 19  1  0  0  0  0
 10 14  1  0  0  0  0
 10 20  1  0  0  0  0
 11 14  2  0  0  0  0
 11 21  1  0  0  0  0
 12 15  1  0  0  0  0
 12 22  1  0  0  0  0
 13 16  1  0  0  0  0
 13 23  1  0  0  0  0
 14 24  1  0  0  0  0
 15 16  2  0  0  0  0
 15 25  1  0  0  0  0
 16 26  1  0  0  0  0
 17 27  1  0  0  0  0
 17 28  1  0  0  0  0
 17 29  1  0  0  0  0
M  END
> <PUBCHEM_COMPOUND_CID>
35702

> <PUBCHEM_CONFORMER_RMSD>
0.4

> <PUBCHEM_CONFORMER_DIVERSEORDER>
1

> <PUBCHEM_MMFF94_PARTIAL_CHARGES>
20
10 -0.15
11 -0.15
12 -0.15
13 -0.15
14 -0.15
15 -0.15
16 -0.15
17 0.14
18 0.15
19 0.15
20 0.15
21 0.15
22 0.15
23 0.15
24 0.15
25 0.15
26 0.15
7 -0.15
8 -0.14
9 -0.15

> <PUBCHEM_EFFECTIVE_ROTOR_COUNT>
0

> <PUBCHEM_PHARMACOPHORE_FEATURES>
4
5 1 2 3 4 5 rings
6 1 2 6 7 8 9 rings
6 1 3 6 10 11 14 rings
6 4 5 12 13 15 16 rings

> <PUBCHEM_HEAVY_ATOM_COUNT>
17

> <PUBCHEM_ATOM_DEF_STEREO_COUNT>
0

> <PUBCHEM_ATOM_UDEF_STEREO_COUNT>
0

> <PUBCHEM_BOND_DEF_STEREO_COUNT>
0

> <PUBCHEM_BOND_UDEF_STEREO_COUNT>
0

> <PUBCHEM_ISOTOPIC_ATOM_COUNT>
0

> <PUBCHEM_COMPONENT_COUNT>
1

> <PUBCHEM_CACTVS_TAUTO_COUNT>
1

> <PUBCHEM_CONFORMER_ID>
00008B7600000001

> <PUBCHEM_MMFF94_ENERGY>
72.7351

> <PUBCHEM_FEATURE_SELFOVERLAP>
20.603

> <PUBCHEM_SHAPE_FINGERPRINT>
10319926 262 17612612020989815088
10411042 1 17617940678758712647
10608611 8 18341615983539338781
10967382 1 18410855468860553669
10980938 120 18410855485903246857
11471102 20 18339084920625114085
11578080 2 16843617216830693766
11680986 33 18341041952269613522
12173636 292 18122627141493177788
12553582 1 17689996064903492347
13140716 1 18411698824322853761
13380535 76 18339645525315440562
13583140 156 16772133340097517097
138480 1 18122626321312387010
13897977 150 18411983593724011989
14178342 30 18192444179793601785
14223421 5 18413384350205432451
14648413 74 18268428104189982729
14790565 3 18339629049943199884
15042514 8 17764307237219615514
15196674 1 18410855425884675845
15309172 13 18338507535096927809
15442244 35 18048596220477962793
15475509 35 16843585305708968681
15475509 8 16741402325361763357
15536298 74 18261111910747742806
16945 1 18410575084742427555
18186145 218 18333723641513946261
193761 8 18410573955192636323
19591789 44 18338511946107494334
20510252 161 17974281028193711897
20645477 70 18341057414721221039
21267235 1 18193267718683290839
21501502 16 18409450327692310185
21524375 3 18261675861607879180
221490 88 18340196488136945299
2255824 54 18337951302451199766
2334 1 18410575080378706593
23366157 5 18131348648313373826
23419403 2 17414464936768319206
23463225 33 18267586999153714211
23559900 14 18265341774871447867
238 59 17766882589677874189
25 1 18412262847923029836
2748010 2 18412539911941914749
3071541 12 18337950202781140972
3091708 16 9188468573034078274
335352 9 17978511167575008541
33824 294 18412265017266707603
34934 24 17835529597161824803
350125 39 18411696603793307684
352729 6 17979351962935878732
43471831 8 18340772537513460811
458136 41 18338778062022607321
5104073 3 18340764931780469145
5939293 188 18122067764883532794
6138700 20 18338509859576354030
633830 44 18259978271468601973
7364860 26 18337110175892258350
7832392 63 17904200674143292905
81228 2 17183073444361977483
8272917 22 18336260245336318445
84936 182 18187086156563348960
9709674 26 18339358669130271539

> <PUBCHEM_SHAPE_MULTIPOLES>
349.85
5.64
3.31
0.62
2.76
1.07
0
-2.95
0
-2.31
0
0
0
0

> <PUBCHEM_SHAPE_SELFOVERLAP>
812.226

> <PUBCHEM_SHAPE_VOLUME>
169.1

> <PUBCHEM_COORDINATE_TYPE>
2
5
10

$$$$

