5282161
  -OEChem-07051213032D

 91 96  0     1  0  0  0  0  0999 V2000
    4.5981    1.5950    0.0000 O   0  0  0  0  0  0  0  0  0  0  0  0
   10.6765    2.0404    0.0000 O   0  0  0  0  0  0  0  0  0  0  0  0
    5.4641    3.0950    0.0000 O   0  0  0  0  0  0  0  0  0  0  0  0
    8.9446    2.0604    0.0000 O   0  0  0  0  0  0  0  0  0  0  0  0
    5.4641   -0.9050    0.0000 O   0  0  0  0  0  0  0  0  0  0  0  0
    7.1962    0.0950    0.0000 O   0  0  0  0  0  0  0  0  0  0  0  0
    7.1962    2.0950    0.0000 O   0  0  0  0  0  0  0  0  0  0  0  0
   10.6418   -0.9594    0.0000 O   0  0  0  0  0  0  0  0  0  0  0  0
   12.3853    0.0205    0.0000 O   0  0  0  0  0  0  0  0  0  0  0  0
    8.9214    0.0605    0.0000 O   0  0  0  0  0  0  0  0  0  0  0  0
    3.7320   -0.9050    0.0000 O   0  0  0  0  0  0  0  0  0  0  0  0
   13.2686    1.5104    0.0000 O   0  0  0  0  0  0  0  0  0  0  0  0
    7.1962    5.0950    0.0000 O   0  3  0  0  0  0  0  0  0  0  0  0
   10.7263    5.1192    0.0000 O   0  0  0  0  0  0  0  0  0  0  0  0
    2.0000   -0.9050    0.0000 O   0  0  0  0  0  0  0  0  0  0  0  0
    2.8660    6.5950    0.0000 O   0  0  0  0  0  0  0  0  0  0  0  0
    5.4641   -5.9050    0.0000 O   0  0  0  0  0  0  0  0  0  0  0  0
    3.7320   -6.9050    0.0000 O   0  0  0  0  0  0  0  0  0  0  0  0
    5.4641    0.0950    0.0000 C   0  0  1  0  0  0  0  0  0  0  0  0
    6.3301    0.5950    0.0000 C   0  0  1  0  0  0  0  0  0  0  0  0
    4.5981    0.5950    0.0000 C   0  0  1  0  0  0  0  0  0  0  0  0
    6.3301    1.5950    0.0000 C   0  0  2  0  0  0  0  0  0  0  0  0
   10.6534    0.0405    0.0000 C   0  0  1  0  0  0  0  0  0  0  0  0
   11.5251    0.5305    0.0000 C   0  0  1  0  0  0  0  0  0  0  0  0
    9.7932    0.5505    0.0000 C   0  0  2  0  0  0  0  0  0  0  0  0
   11.5367    1.5304    0.0000 C   0  0  1  0  0  0  0  0  0  0  0  0
    5.4641    2.0950    0.0000 C   0  0  1  0  0  0  0  0  0  0  0  0
    9.8047    1.5504    0.0000 C   0  0  1  0  0  0  0  0  0  0  0  0
    3.7320    0.0950    0.0000 C   0  0  0  0  0  0  0  0  0  0  0  0
   12.4084    2.0204    0.0000 C   0  0  0  0  0  0  0  0  0  0  0  0
    6.3301    3.5950    0.0000 C   0  0  0  0  0  0  0  0  0  0  0  0
    8.9561    3.0603    0.0000 C   0  0  0  0  0  0  0  0  0  0  0  0
    8.0622    3.5950    0.0000 C   0  0  0  0  0  0  0  0  0  0  0  0
    7.1962    3.0950    0.0000 C   0  0  0  0  0  0  0  0  0  0  0  0
    6.3301    4.5950    0.0000 C   0  0  0  0  0  0  0  0  0  0  0  0
    8.0622    4.5950    0.0000 C   0  0  0  0  0  0  0  0  0  0  0  0
    9.8622    3.5742    0.0000 C   0  0  0  0  0  0  0  0  0  0  0  0
    8.9561    5.1297    0.0000 C   0  0  0  0  0  0  0  0  0  0  0  0
    9.8622    4.6158    0.0000 C   0  0  0  0  0  0  0  0  0  0  0  0
    5.4641    5.0950    0.0000 C   0  0  0  0  0  0  0  0  0  0  0  0
    2.8660   -1.4050    0.0000 C   0  0  0  0  0  0  0  0  0  0  0  0
    5.4641    6.0950    0.0000 C   0  0  0  0  0  0  0  0  0  0  0  0
    4.5981    4.5950    0.0000 C   0  0  0  0  0  0  0  0  0  0  0  0
    2.8660   -2.4050    0.0000 C   0  0  0  0  0  0  0  0  0  0  0  0
    4.5981    6.5950    0.0000 C   0  0  0  0  0  0  0  0  0  0  0  0
    3.7320    5.0950    0.0000 C   0  0  0  0  0  0  0  0  0  0  0  0
    3.7320    6.0950    0.0000 C   0  0  0  0  0  0  0  0  0  0  0  0
    3.7320   -2.9050    0.0000 C   0  0  0  0  0  0  0  0  0  0  0  0
    3.7320   -3.9050    0.0000 C   0  0  0  0  0  0  0  0  0  0  0  0
    4.5981   -4.4050    0.0000 C   0  0  0  0  0  0  0  0  0  0  0  0
    2.8660   -4.4050    0.0000 C   0  0  0  0  0  0  0  0  0  0  0  0
    4.5981   -5.4050    0.0000 C   0  0  0  0  0  0  0  0  0  0  0  0
    2.8660   -5.4050    0.0000 C   0  0  0  0  0  0  0  0  0  0  0  0
    3.7320   -5.9050    0.0000 C   0  0  0  0  0  0  0  0  0  0  0  0
    6.0010   -0.2150    0.0000 H   0  0  0  0  0  0  0  0  0  0  0  0
    6.8671    0.9050    0.0000 H   0  0  0  0  0  0  0  0  0  0  0  0
    4.0611    0.9050    0.0000 H   0  0  0  0  0  0  0  0  0  0  0  0
    6.8671    1.2850    0.0000 H   0  0  0  0  0  0  0  0  0  0  0  0
   11.1867   -0.2757    0.0000 H   0  0  0  0  0  0  0  0  0  0  0  0
   12.0656    0.8342    0.0000 H   0  0  0  0  0  0  0  0  0  0  0  0
    9.7860   -0.0695    0.0000 H   0  0  0  0  0  0  0  0  0  0  0  0
   11.5438    2.1504    0.0000 H   0  0  0  0  0  0  0  0  0  0  0  0
    6.0010    2.4050    0.0000 H   0  0  0  0  0  0  0  0  0  0  0  0
    9.8119    2.1704    0.0000 H   0  0  0  0  0  0  0  0  0  0  0  0
    3.5200    0.6776    0.0000 H   0  0  0  0  0  0  0  0  0  0  0  0
    3.1215   -0.0127    0.0000 H   0  0  0  0  0  0  0  0  0  0  0  0
   12.8124    2.4907    0.0000 H   0  0  0  0  0  0  0  0  0  0  0  0
   12.0154    2.4999    0.0000 H   0  0  0  0  0  0  0  0  0  0  0  0
    6.0010   -1.2150    0.0000 H   0  0  0  0  0  0  0  0  0  0  0  0
    7.1962   -0.5250    0.0000 H   0  0  0  0  0  0  0  0  0  0  0  0
    7.7331    1.7850    0.0000 H   0  0  0  0  0  0  0  0  0  0  0  0
   11.1751   -1.2756    0.0000 H   0  0  0  0  0  0  0  0  0  0  0  0
   12.3781   -0.5995    0.0000 H   0  0  0  0  0  0  0  0  0  0  0  0
    8.9143   -0.5594    0.0000 H   0  0  0  0  0  0  0  0  0  0  0  0
    7.1962    2.4750    0.0000 H   0  0  0  0  0  0  0  0  0  0  0  0
   13.8091    1.8141    0.0000 H   0  0  0  0  0  0  0  0  0  0  0  0
   10.3979    3.2621    0.0000 H   0  0  0  0  0  0  0  0  0  0  0  0
    8.9490    5.7496    0.0000 H   0  0  0  0  0  0  0  0  0  0  0  0
    6.0010    6.4050    0.0000 H   0  0  0  0  0  0  0  0  0  0  0  0
    4.5981    3.9750    0.0000 H   0  0  0  0  0  0  0  0  0  0  0  0
    2.3291   -2.7150    0.0000 H   0  0  0  0  0  0  0  0  0  0  0  0
   10.7239    5.7392    0.0000 H   0  0  0  0  0  0  0  0  0  0  0  0
    4.5981    7.2150    0.0000 H   0  0  0  0  0  0  0  0  0  0  0  0
    3.1951    4.7850    0.0000 H   0  0  0  0  0  0  0  0  0  0  0  0
    4.2690   -2.5950    0.0000 H   0  0  0  0  0  0  0  0  0  0  0  0
    2.8660    7.2150    0.0000 H   0  0  0  0  0  0  0  0  0  0  0  0
    5.1350   -4.0950    0.0000 H   0  0  0  0  0  0  0  0  0  0  0  0
    2.3291   -4.0950    0.0000 H   0  0  0  0  0  0  0  0  0  0  0  0
    2.3291   -5.7150    0.0000 H   0  0  0  0  0  0  0  0  0  0  0  0
    5.4641   -6.5250    0.0000 H   0  0  0  0  0  0  0  0  0  0  0  0
    3.1951   -7.2150    0.0000 H   0  0  0  0  0  0  0  0  0  0  0  0
  1 21  1  0  0  0  0
  1 27  1  0  0  0  0
  2 26  1  0  0  0  0
  2 28  1  0  0  0  0
 27  3  1  1  0  0  0
  3 31  1  0  0  0  0
 28  4  1  6  0  0  0
  4 32  1  0  0  0  0
 19  5  1  6  0  0  0
  5 69  1  0  0  0  0
 20  6  1  1  0  0  0
  6 70  1  0  0  0  0
 22  7  1  6  0  0  0
  7 71  1  0  0  0  0
 23  8  1  6  0  0  0
  8 72  1  0  0  0  0
 24  9  1  1  0  0  0
  9 73  1  0  0  0  0
 25 10  1  1  0  0  0
 10 74  1  0  0  0  0
 11 29  1  0  0  0  0
 11 41  1  0  0  0  0
 12 30  1  0  0  0  0
 12 76  1  0  0  0  0
 13 35  1  0  0  0  0
 13 36  2  0  0  0  0
 14 39  1  0  0  0  0
 14 82  1  0  0  0  0
 15 41  2  0  0  0  0
 16 47  1  0  0  0  0
 16 86  1  0  0  0  0
 17 52  1  0  0  0  0
 17 90  1  0  0  0  0
 18 54  1  0  0  0  0
 18 91  1  0  0  0  0
 19 20  1  0  0  0  0
 19 21  1  0  0  0  0
 19 55  1  0  0  0  0
 20 22  1  0  0  0  0
 20 56  1  0  0  0  0
 21 29  1  1  0  0  0
 21 57  1  0  0  0  0
 22 27  1  0  0  0  0
 22 58  1  0  0  0  0
 23 24  1  0  0  0  0
 23 25  1  0  0  0  0
 23 59  1  0  0  0  0
 24 26  1  0  0  0  0
 24 60  1  0  0  0  0
 25 28  1  0  0  0  0
 25 61  1  0  0  0  0
 26 30  1  6  0  0  0
 26 62  1  0  0  0  0
 27 63  1  0  0  0  0
 28 64  1  0  0  0  0
 29 65  1  0  0  0  0
 29 66  1  0  0  0  0
 30 67  1  0  0  0  0
 30 68  1  0  0  0  0
 31 34  1  0  0  0  0
 31 35  2  0  0  0  0
 32 33  1  0  0  0  0
 32 37  2  0  0  0  0
 33 34  2  0  0  0  0
 33 36  1  0  0  0  0
 34 75  1  0  0  0  0
 35 40  1  0  0  0  0
 36 38  1  0  0  0  0
 37 39  1  0  0  0  0
 37 77  1  0  0  0  0
 38 39  2  0  0  0  0
 38 78  1  0  0  0  0
 40 42  2  0  0  0  0
 40 43  1  0  0  0  0
 41 44  1  0  0  0  0
 42 45  1  0  0  0  0
 42 79  1  0  0  0  0
 43 46  2  0  0  0  0
 43 80  1  0  0  0  0
 44 48  2  0  0  0  0
 44 81  1  0  0  0  0
 45 47  2  0  0  0  0
 45 83  1  0  0  0  0
 46 47  1  0  0  0  0
 46 84  1  0  0  0  0
 48 49  1  0  0  0  0
 48 85  1  0  0  0  0
 49 50  2  0  0  0  0
 49 51  1  0  0  0  0
 50 52  1  0  0  0  0
 50 87  1  0  0  0  0
 51 53  2  0  0  0  0
 51 88  1  0  0  0  0
 52 54  2  0  0  0  0
 53 54  1  0  0  0  0
 53 89  1  0  0  0  0
M  CHG  1  13   1
M  END
> <PUBCHEM_COMPOUND_CID>
5282161

> <PUBCHEM_COMPOUND_CANONICALIZED>
1

> <PUBCHEM_CACTVS_COMPLEXITY>
1230

> <PUBCHEM_CACTVS_HBOND_ACCEPTOR>
17

> <PUBCHEM_CACTVS_HBOND_DONOR>
11

> <PUBCHEM_CACTVS_ROTATABLE_BOND>
11

> <PUBCHEM_CACTVS_SUBSKEYS>
AAADcfB8PgAAAAAAAAAAAAAAAAAAAAAAAAA0aNECAAAAAACR9AAAGgAACAAADBSwmAMwDsAABkCIAqDSCAICCAAkIAAIiAFGiMgdNzaGNR6ieWOl4BUPuYfK7PzOIAABCAAIQABAAAIQABCAAAAAAAAAAA==

> <PUBCHEM_IUPAC_OPENEYE_NAME>
[(2R,3S,4S,5R,6S)-3,4,5-trihydroxy-6-[7-hydroxy-2-(4-hydroxyphenyl)-5-[(2S,3R,4S,5S,6R)-3,4,5-trihydroxy-6-(hydroxymethyl)tetrahydropyran-2-yl]oxy-chromenylium-3-yl]oxy-tetrahydropyran-2-yl]methyl (E)-3-(3,4-dihydroxyphenyl)prop-2-enoate

> <PUBCHEM_IUPAC_CAS_NAME>
(E)-3-(3,4-dihydroxyphenyl)-2-propenoic acid [(2R,3S,4S,5R,6S)-3,4,5-trihydroxy-6-[[7-hydroxy-2-(4-hydroxyphenyl)-5-[[(2S,3R,4S,5S,6R)-3,4,5-trihydroxy-6-(hydroxymethyl)-2-oxanyl]oxy]-1-benzopyrylium-3-yl]oxy]-2-oxanyl]methyl ester

> <PUBCHEM_IUPAC_NAME>
[(2R,3S,4S,5R,6S)-3,4,5-trihydroxy-6-[7-hydroxy-2-(4-hydroxyphenyl)-5-[(2S,3R,4S,5S,6R)-3,4,5-trihydroxy-6-(hydroxymethyl)oxan-2-yl]oxychromenylium-3-yl]oxyoxan-2-yl]methyl (E)-3-(3,4-dihydroxyphenyl)prop-2-enoate

> <PUBCHEM_IUPAC_SYSTEMATIC_NAME>
[(2R,3S,4S,5R,6S)-6-[5-[(2S,3R,4S,5S,6R)-6-(hydroxymethyl)-3,4,5-tris(oxidanyl)oxan-2-yl]oxy-2-(4-hydroxyphenyl)-7-oxidanyl-chromenylium-3-yl]oxy-3,4,5-tris(oxidanyl)oxan-2-yl]methyl (E)-3-[3,4-bis(oxidanyl)phenyl]prop-2-enoate

> <PUBCHEM_IUPAC_TRADITIONAL_NAME>
(E)-3-(3,4-dihydroxyphenyl)acrylic acid [(2R,3S,4S,5R,6S)-3,4,5-trihydroxy-6-[[7-hydroxy-2-(4-hydroxyphenyl)-5-[(2S,3R,4S,5S,6R)-3,4,5-trihydroxy-6-methylol-tetrahydropyran-2-yl]oxy-1-benzopyrylium-3-yl]oxy]tetrahydropyran-2-yl]methyl ester

> <PUBCHEM_IUPAC_INCHI>
InChI=1S/C36H36O18/c37-13-25-28(43)30(45)32(47)35(53-25)51-23-11-18(39)10-22-19(23)12-24(34(50-22)16-3-5-17(38)6-4-16)52-36-33(48)31(46)29(44)26(54-36)14-49-27(42)8-2-15-1-7-20(40)21(41)9-15/h1-12,25-26,28-33,35-37,43-48H,13-14H2,(H3-,38,39,40,41,42)/p+1/t25-,26-,28-,29-,30+,31+,32-,33-,35-,36-/m1/s1

> <PUBCHEM_IUPAC_INCHIKEY>
MLLMLJXCGLXOIJ-AQAMAIGXSA-O

> <PUBCHEM_EXACT_MASS>
757.197989

> <PUBCHEM_MOLECULAR_FORMULA>
C36H37O18+

> <PUBCHEM_MOLECULAR_WEIGHT>
757.66818

> <PUBCHEM_OPENEYE_CAN_SMILES>
C1=CC(=CC=C1C2=C(C=C3C(=CC(=CC3=[O+]2)O)OC4C(C(C(C(O4)CO)O)O)O)OC5C(C(C(C(O5)COC(=O)C=CC6=CC(=C(C=C6)O)O)O)O)O)O

> <PUBCHEM_OPENEYE_ISO_SMILES>
C1=CC(=CC=C1C2=C(C=C3C(=CC(=CC3=[O+]2)O)O[C@H]4[C@@H]([C@H]([C@@H]([C@H](O4)CO)O)O)O)O[C@H]5[C@@H]([C@H]([C@@H]([C@H](O5)COC(=O)/C=C/C6=CC(=C(C=C6)O)O)O)O)O)O

> <PUBCHEM_CACTVS_TPSA>
287

> <PUBCHEM_MONOISOTOPIC_WEIGHT>
757.197989

> <PUBCHEM_TOTAL_CHARGE>
1

> <PUBCHEM_HEAVY_ATOM_COUNT>
54

> <PUBCHEM_ATOM_DEF_STEREO_COUNT>
10

> <PUBCHEM_ATOM_UDEF_STEREO_COUNT>
0

> <PUBCHEM_BOND_DEF_STEREO_COUNT>
1

> <PUBCHEM_BOND_UDEF_STEREO_COUNT>
0

> <PUBCHEM_ISOTOPIC_ATOM_COUNT>
0

> <PUBCHEM_COMPONENT_COUNT>
1

> <PUBCHEM_CACTVS_TAUTO_COUNT>
336

> <PUBCHEM_COORDINATE_TYPE>
1
5
255

> <PUBCHEM_BONDANNOTATIONS>
25  10  5
13  35  8
13  36  8
21  29  5
26  30  6
27  3  5
31  34  8
31  35  8
32  33  8
32  37  8
33  34  8
33  36  8
36  38  8
37  39  8
38  39  8
28  4  6
40  42  8
40  43  8
42  45  8
43  46  8
45  47  8
46  47  8
49  50  8
49  51  8
19  5  6
50  52  8
51  53  8
52  54  8
53  54  8
20  6  5
22  7  6
23  8  6
24  9  5

$$$$

