5281349
  -OEChem-07051212562D

 40 43  0     1  0  0  0  0  0999 V2000
    6.7884    0.0133    0.0000 N   0  0  3  0  0  0  0  0  0  0  0  0
    2.9506   -0.6959    0.0000 N   0  0  0  0  0  0  0  0  0  0  0  0
    7.0472    0.9792    0.0000 C   0  0  1  0  0  0  0  0  0  0  0  0
    8.8792    0.2204    0.0000 C   0  0  0  0  0  0  0  0  0  0  0  0
    8.6204   -0.7455    0.0000 C   0  0  0  0  0  0  0  0  0  0  0  0
    5.8106    1.8279    0.0000 C   0  0  0  0  0  0  0  0  0  0  0  0
    6.6766    2.3279    0.0000 C   0  0  0  0  0  0  0  0  0  0  0  0
    5.4224   -1.3527    0.0000 C   0  0  0  0  0  0  0  0  0  0  0  0
    4.4224    0.3793    0.0000 C   0  0  0  0  0  0  0  0  0  0  0  0
    4.4224   -1.3527    0.0000 C   0  0  0  0  0  0  0  0  0  0  0  0
    3.9224   -0.4867    0.0000 C   0  0  0  0  0  0  0  0  0  0  0  0
    3.7553   -2.0897    0.0000 C   0  0  0  0  0  0  0  0  0  0  0  0
    2.8475   -1.6846    0.0000 C   0  0  0  0  0  0  0  0  0  0  0  0
    6.9354    3.2938    0.0000 C   0  0  0  0  0  0  0  0  0  0  0  0
    3.9224    1.2454    0.0000 C   0  0  0  0  0  0  0  0  0  0  0  0
    3.8785   -3.1178    0.0000 C   0  0  0  0  0  0  0  0  0  0  0  0
    2.0000   -2.2795    0.0000 C   0  0  0  0  0  0  0  0  0  0  0  0
    7.9014    3.5526    0.0000 C   0  0  0  0  0  0  0  0  0  0  0  0
    3.0450   -3.7322    0.0000 C   0  0  0  0  0  0  0  0  0  0  0  0
    2.0994   -3.3102    0.0000 C   0  0  0  0  0  0  0  0  0  0  0  0
    7.2672    1.8003    0.0000 H   0  0  0  0  0  0  0  0  0  0  0  0
    9.4705    0.0340    0.0000 H   0  0  0  0  0  0  0  0  0  0  0  0
    9.0912    0.8030    0.0000 H   0  0  0  0  0  0  0  0  0  0  0  0
    8.4083   -1.3281    0.0000 H   0  0  0  0  0  0  0  0  0  0  0  0
    9.2117   -0.9320    0.0000 H   0  0  0  0  0  0  0  0  0  0  0  0
    5.5059    2.3678    0.0000 H   0  0  0  0  0  0  0  0  0  0  0  0
    5.2677    1.5284    0.0000 H   0  0  0  0  0  0  0  0  0  0  0  0
    5.2619   -1.9516    0.0000 H   0  0  0  0  0  0  0  0  0  0  0  0
    5.9593   -1.6627    0.0000 H   0  0  0  0  0  0  0  0  0  0  0  0
    2.4891   -0.2818    0.0000 H   0  0  0  0  0  0  0  0  0  0  0  0
    6.4970    3.7322    0.0000 H   0  0  0  0  0  0  0  0  0  0  0  0
    4.2324    1.7823    0.0000 H   0  0  0  0  0  0  0  0  0  0  0  0
    3.3024    1.2454    0.0000 H   0  0  0  0  0  0  0  0  0  0  0  0
    4.4476   -3.3640    0.0000 H   0  0  0  0  0  0  0  0  0  0  0  0
    1.4368   -2.0203    0.0000 H   0  0  0  0  0  0  0  0  0  0  0  0
    8.0618    2.9537    0.0000 H   0  0  0  0  0  0  0  0  0  0  0  0
    8.5002    3.7131    0.0000 H   0  0  0  0  0  0  0  0  0  0  0  0
    7.7409    4.1515    0.0000 H   0  0  0  0  0  0  0  0  0  0  0  0
    3.1116   -4.3486    0.0000 H   0  0  0  0  0  0  0  0  0  0  0  0
    1.5961   -3.6723    0.0000 H   0  0  0  0  0  0  0  0  0  0  0  0
  1  5  1  0  0  0  0
  1  6  1  0  0  0  0
  1  8  1  0  0  0  0
  2 11  1  0  0  0  0
  2 13  1  0  0  0  0
  2 30  1  0  0  0  0
  3  4  1  0  0  0  0
  3  7  1  0  0  0  0
  3  9  1  0  0  0  0
  3 21  1  1  0  0  0
  4  5  1  0  0  0  0
  4 22  1  0  0  0  0
  4 23  1  0  0  0  0
  5 24  1  0  0  0  0
  5 25  1  0  0  0  0
  6  7  1  0  0  0  0
  6 26  1  0  0  0  0
  6 27  1  0  0  0  0
  7 14  2  0  0  0  0
  8 10  1  0  0  0  0
  8 28  1  0  0  0  0
  8 29  1  0  0  0  0
  9 11  1  0  0  0  0
  9 15  2  0  0  0  0
 10 11  2  0  0  0  0
 10 12  1  0  0  0  0
 12 13  1  0  0  0  0
 12 16  2  0  0  0  0
 13 17  2  0  0  0  0
 14 18  1  0  0  0  0
 14 31  1  0  0  0  0
 15 32  1  0  0  0  0
 15 33  1  0  0  0  0
 16 19  1  0  0  0  0
 16 34  1  0  0  0  0
 17 20  1  0  0  0  0
 17 35  1  0  0  0  0
 18 36  1  0  0  0  0
 18 37  1  0  0  0  0
 18 38  1  0  0  0  0
 19 20  2  0  0  0  0
 19 39  1  0  0  0  0
 20 40  1  0  0  0  0
M  END
> <PUBCHEM_COMPOUND_CID>
5281349

> <PUBCHEM_COMPOUND_CANONICALIZED>
1

> <PUBCHEM_CACTVS_COMPLEXITY>
439

> <PUBCHEM_CACTVS_HBOND_ACCEPTOR>
1

> <PUBCHEM_CACTVS_HBOND_DONOR>
1

> <PUBCHEM_CACTVS_ROTATABLE_BOND>
0

> <PUBCHEM_CACTVS_SUBSKEYS>
AAADceB7AAAAAAAAAAAAAAAAAAAAAWAAAAA8QAAAAAAWLFgB8AAAHAAQAAAADQjBHgQywPPJkACgAyRiRACCgCAhAiAImSA4ZJgIIOLA0ZGEIAhgkADIyAcQgMAOgAAAAAACAAAAAAAAAAQAAAAAAAAAAA==

> <PUBCHEM_IUPAC_INCHI>
InChI=1S/C18H20N2/c1-3-13-10-20-9-8-14(13)12(2)18-16(11-20)15-6-4-5-7-17(15)19-18/h3-7,14,19H,2,8-11H2,1H3/b13-3-/t14-/m1/s1

> <PUBCHEM_IUPAC_INCHIKEY>
LCVACABZTLIWCE-CRAFIKPXSA-N

> <PUBCHEM_XLOGP3_AA>
2.7

> <PUBCHEM_EXACT_MASS>
264.162649

> <PUBCHEM_MOLECULAR_FORMULA>
C18H20N2

> <PUBCHEM_MOLECULAR_WEIGHT>
264.3648

> <PUBCHEM_OPENEYE_CAN_SMILES>
CC=C1CN2CCC1C(=C)C3=C(C2)C4=CC=CC=C4N3

> <PUBCHEM_OPENEYE_ISO_SMILES>
C/C=C\1/CN2CC[C@@H]1C(=C)C3=C(C2)C4=CC=CC=C4N3

> <PUBCHEM_CACTVS_TPSA>
19

> <PUBCHEM_MONOISOTOPIC_WEIGHT>
264.162649

> <PUBCHEM_TOTAL_CHARGE>
0

> <PUBCHEM_HEAVY_ATOM_COUNT>
20

> <PUBCHEM_ATOM_DEF_STEREO_COUNT>
1

> <PUBCHEM_ATOM_UDEF_STEREO_COUNT>
0

> <PUBCHEM_BOND_DEF_STEREO_COUNT>
1

> <PUBCHEM_BOND_UDEF_STEREO_COUNT>
0

> <PUBCHEM_ISOTOPIC_ATOM_COUNT>
0

> <PUBCHEM_COMPONENT_COUNT>
1

> <PUBCHEM_CACTVS_TAUTO_COUNT>
3

> <PUBCHEM_COORDINATE_TYPE>
1
5
255

> <PUBCHEM_BONDANNOTATIONS>
10  11  8
10  12  8
12  13  8
12  16  8
13  17  8
16  19  8
17  20  8
19  20  8
2  11  8
2  13  8
3  21  5

$$$$

