5366506
  -OEChem-07051213082D

104103  0     0  0  0  0  0  0999 V2000
    2.8660   -0.7500    0.0000 O   0  0  0  0  0  0  0  0  0  0  0  0
   29.7128    0.7500    0.0000 O   0  0  0  0  0  0  0  0  0  0  0  0
   28.8468    0.2500    0.0000 C   0  0  0  0  0  0  0  0  0  0  0  0
    3.7320   -0.2500    0.0000 C   0  0  0  0  0  0  0  0  0  0  0  0
   27.9808   -0.2500    0.0000 C   0  0  0  0  0  0  0  0  0  0  0  0
    4.5981    0.2500    0.0000 C   0  0  0  0  0  0  0  0  0  0  0  0
   29.3468   -0.6160    0.0000 C   0  0  0  0  0  0  0  0  0  0  0  0
   28.3468    1.1160    0.0000 C   0  0  0  0  0  0  0  0  0  0  0  0
    3.2320    0.6160    0.0000 C   0  0  0  0  0  0  0  0  0  0  0  0
    4.2320   -1.1160    0.0000 C   0  0  0  0  0  0  0  0  0  0  0  0
    5.4641   -0.2500    0.0000 C   0  0  0  0  0  0  0  0  0  0  0  0
   27.1147    0.2500    0.0000 C   0  0  0  0  0  0  0  0  0  0  0  0
   30.5788    0.2500    0.0000 C   0  0  0  0  0  0  0  0  0  0  0  0
    2.0000   -0.2500    0.0000 C   0  0  0  0  0  0  0  0  0  0  0  0
   26.2487   -0.2500    0.0000 C   0  0  0  0  0  0  0  0  0  0  0  0
    6.3301    0.2500    0.0000 C   0  0  0  0  0  0  0  0  0  0  0  0
   25.3827    0.2500    0.0000 C   0  0  0  0  0  0  0  0  0  0  0  0
    7.1962   -0.2500    0.0000 C   0  0  0  0  0  0  0  0  0  0  0  0
    7.1962   -1.2500    0.0000 C   0  0  0  0  0  0  0  0  0  0  0  0
   25.3827    1.2500    0.0000 C   0  0  0  0  0  0  0  0  0  0  0  0
    8.0622    0.2500    0.0000 C   0  0  0  0  0  0  0  0  0  0  0  0
   24.5167   -0.2500    0.0000 C   0  0  0  0  0  0  0  0  0  0  0  0
    8.9282   -0.2500    0.0000 C   0  0  0  0  0  0  0  0  0  0  0  0
   23.6506    0.2500    0.0000 C   0  0  0  0  0  0  0  0  0  0  0  0
   22.7846   -0.2500    0.0000 C   0  0  0  0  0  0  0  0  0  0  0  0
    9.7942    0.2500    0.0000 C   0  0  0  0  0  0  0  0  0  0  0  0
   21.9186    0.2500    0.0000 C   0  0  0  0  0  0  0  0  0  0  0  0
   10.6603   -0.2500    0.0000 C   0  0  0  0  0  0  0  0  0  0  0  0
   21.9186    1.2500    0.0000 C   0  0  0  0  0  0  0  0  0  0  0  0
   10.6603   -1.2500    0.0000 C   0  0  0  0  0  0  0  0  0  0  0  0
   21.0526   -0.2500    0.0000 C   0  0  0  0  0  0  0  0  0  0  0  0
   11.5263    0.2500    0.0000 C   0  0  0  0  0  0  0  0  0  0  0  0
   12.3923   -0.2500    0.0000 C   0  0  0  0  0  0  0  0  0  0  0  0
   20.1865    0.2500    0.0000 C   0  0  0  0  0  0  0  0  0  0  0  0
   13.2583    0.2500    0.0000 C   0  0  0  0  0  0  0  0  0  0  0  0
   19.3205   -0.2500    0.0000 C   0  0  0  0  0  0  0  0  0  0  0  0
   18.4545    0.2500    0.0000 C   0  0  0  0  0  0  0  0  0  0  0  0
   14.1244   -0.2500    0.0000 C   0  0  0  0  0  0  0  0  0  0  0  0
   17.5885   -0.2500    0.0000 C   0  0  0  0  0  0  0  0  0  0  0  0
   14.9904    0.2500    0.0000 C   0  0  0  0  0  0  0  0  0  0  0  0
   18.4545    1.2500    0.0000 C   0  0  0  0  0  0  0  0  0  0  0  0
   14.1244   -1.2500    0.0000 C   0  0  0  0  0  0  0  0  0  0  0  0
   15.8564   -0.2500    0.0000 C   0  0  0  0  0  0  0  0  0  0  0  0
   16.7224    0.2500    0.0000 C   0  0  0  0  0  0  0  0  0  0  0  0
   27.5822   -0.7249    0.0000 H   0  0  0  0  0  0  0  0  0  0  0  0
   28.3793   -0.7249    0.0000 H   0  0  0  0  0  0  0  0  0  0  0  0
    4.9966    0.7249    0.0000 H   0  0  0  0  0  0  0  0  0  0  0  0
    4.1996    0.7249    0.0000 H   0  0  0  0  0  0  0  0  0  0  0  0
    3.6951   -1.4260    0.0000 H   0  0  0  0  0  0  0  0  0  0  0  0
    4.5420   -1.6530    0.0000 H   0  0  0  0  0  0  0  0  0  0  0  0
    4.7690   -0.8060    0.0000 H   0  0  0  0  0  0  0  0  0  0  0  0
    3.7690    0.9260    0.0000 H   0  0  0  0  0  0  0  0  0  0  0  0
    2.9220    1.1530    0.0000 H   0  0  0  0  0  0  0  0  0  0  0  0
    2.6951    0.3060    0.0000 H   0  0  0  0  0  0  0  0  0  0  0  0
   28.8837    1.4260    0.0000 H   0  0  0  0  0  0  0  0  0  0  0  0
   28.0368    1.6530    0.0000 H   0  0  0  0  0  0  0  0  0  0  0  0
   27.8099    0.8060    0.0000 H   0  0  0  0  0  0  0  0  0  0  0  0
   28.8099   -0.9260    0.0000 H   0  0  0  0  0  0  0  0  0  0  0  0
   29.6568   -1.1530    0.0000 H   0  0  0  0  0  0  0  0  0  0  0  0
   29.8837   -0.3060    0.0000 H   0  0  0  0  0  0  0  0  0  0  0  0
    5.4641   -0.8700    0.0000 H   0  0  0  0  0  0  0  0  0  0  0  0
   27.1147    0.8700    0.0000 H   0  0  0  0  0  0  0  0  0  0  0  0
    2.3100    0.2869    0.0000 H   0  0  0  0  0  0  0  0  0  0  0  0
    1.4631    0.0600    0.0000 H   0  0  0  0  0  0  0  0  0  0  0  0
    1.6900   -0.7869    0.0000 H   0  0  0  0  0  0  0  0  0  0  0  0
   30.2688   -0.2869    0.0000 H   0  0  0  0  0  0  0  0  0  0  0  0
   31.1158   -0.0600    0.0000 H   0  0  0  0  0  0  0  0  0  0  0  0
   30.8888    0.7869    0.0000 H   0  0  0  0  0  0  0  0  0  0  0  0
    6.3301    0.8700    0.0000 H   0  0  0  0  0  0  0  0  0  0  0  0
   26.2487   -0.8700    0.0000 H   0  0  0  0  0  0  0  0  0  0  0  0
   26.0027    1.2500    0.0000 H   0  0  0  0  0  0  0  0  0  0  0  0
   25.3827    1.8700    0.0000 H   0  0  0  0  0  0  0  0  0  0  0  0
   24.7627    1.2500    0.0000 H   0  0  0  0  0  0  0  0  0  0  0  0
    6.5762   -1.2500    0.0000 H   0  0  0  0  0  0  0  0  0  0  0  0
    7.1962   -1.8700    0.0000 H   0  0  0  0  0  0  0  0  0  0  0  0
    7.8162   -1.2500    0.0000 H   0  0  0  0  0  0  0  0  0  0  0  0
   24.5167   -0.8700    0.0000 H   0  0  0  0  0  0  0  0  0  0  0  0
    8.0622    0.8700    0.0000 H   0  0  0  0  0  0  0  0  0  0  0  0
    8.9282   -0.8700    0.0000 H   0  0  0  0  0  0  0  0  0  0  0  0
   23.6506    0.8700    0.0000 H   0  0  0  0  0  0  0  0  0  0  0  0
    9.7942    0.8700    0.0000 H   0  0  0  0  0  0  0  0  0  0  0  0
   22.7846   -0.8700    0.0000 H   0  0  0  0  0  0  0  0  0  0  0  0
   10.0403   -1.2500    0.0000 H   0  0  0  0  0  0  0  0  0  0  0  0
   10.6603   -1.8700    0.0000 H   0  0  0  0  0  0  0  0  0  0  0  0
   11.2803   -1.2500    0.0000 H   0  0  0  0  0  0  0  0  0  0  0  0
   22.5386    1.2500    0.0000 H   0  0  0  0  0  0  0  0  0  0  0  0
   21.9186    1.8700    0.0000 H   0  0  0  0  0  0  0  0  0  0  0  0
   21.2986    1.2500    0.0000 H   0  0  0  0  0  0  0  0  0  0  0  0
   11.5263    0.8700    0.0000 H   0  0  0  0  0  0  0  0  0  0  0  0
   21.0526   -0.8700    0.0000 H   0  0  0  0  0  0  0  0  0  0  0  0
   20.1865    0.8700    0.0000 H   0  0  0  0  0  0  0  0  0  0  0  0
   12.3923   -0.8700    0.0000 H   0  0  0  0  0  0  0  0  0  0  0  0
   19.3205   -0.8700    0.0000 H   0  0  0  0  0  0  0  0  0  0  0  0
   13.2583    0.8700    0.0000 H   0  0  0  0  0  0  0  0  0  0  0  0
   17.5885   -0.8700    0.0000 H   0  0  0  0  0  0  0  0  0  0  0  0
   14.9904    0.8700    0.0000 H   0  0  0  0  0  0  0  0  0  0  0  0
   19.0745    1.2500    0.0000 H   0  0  0  0  0  0  0  0  0  0  0  0
   18.4545    1.8700    0.0000 H   0  0  0  0  0  0  0  0  0  0  0  0
   17.8345    1.2500    0.0000 H   0  0  0  0  0  0  0  0  0  0  0  0
   13.5044   -1.2500    0.0000 H   0  0  0  0  0  0  0  0  0  0  0  0
   14.1244   -1.8700    0.0000 H   0  0  0  0  0  0  0  0  0  0  0  0
   14.7444   -1.2500    0.0000 H   0  0  0  0  0  0  0  0  0  0  0  0
   16.7224    0.8700    0.0000 H   0  0  0  0  0  0  0  0  0  0  0  0
   15.8564   -0.8700    0.0000 H   0  0  0  0  0  0  0  0  0  0  0  0
  1  4  1  0  0  0  0
  1 14  1  0  0  0  0
  2  3  1  0  0  0  0
  2 13  1  0  0  0  0
  3  5  1  0  0  0  0
  3  7  1  0  0  0  0
  3  8  1  0  0  0  0
  4  6  1  0  0  0  0
  4  9  1  0  0  0  0
  4 10  1  0  0  0  0
  5 12  1  0  0  0  0
  5 45  1  0  0  0  0
  5 46  1  0  0  0  0
  6 11  1  0  0  0  0
  6 47  1  0  0  0  0
  6 48  1  0  0  0  0
  7 58  1  0  0  0  0
  7 59  1  0  0  0  0
  7 60  1  0  0  0  0
  8 55  1  0  0  0  0
  8 56  1  0  0  0  0
  8 57  1  0  0  0  0
  9 52  1  0  0  0  0
  9 53  1  0  0  0  0
  9 54  1  0  0  0  0
 10 49  1  0  0  0  0
 10 50  1  0  0  0  0
 10 51  1  0  0  0  0
 11 16  2  0  0  0  0
 11 61  1  0  0  0  0
 12 15  2  0  0  0  0
 12 62  1  0  0  0  0
 13 66  1  0  0  0  0
 13 67  1  0  0  0  0
 13 68  1  0  0  0  0
 14 63  1  0  0  0  0
 14 64  1  0  0  0  0
 14 65  1  0  0  0  0
 15 17  1  0  0  0  0
 15 70  1  0  0  0  0
 16 18  1  0  0  0  0
 16 69  1  0  0  0  0
 17 20  1  0  0  0  0
 17 22  2  0  0  0  0
 18 19  1  0  0  0  0
 18 21  2  0  0  0  0
 19 74  1  0  0  0  0
 19 75  1  0  0  0  0
 19 76  1  0  0  0  0
 20 71  1  0  0  0  0
 20 72  1  0  0  0  0
 20 73  1  0  0  0  0
 21 23  1  0  0  0  0
 21 78  1  0  0  0  0
 22 24  1  0  0  0  0
 22 77  1  0  0  0  0
 23 26  2  0  0  0  0
 23 79  1  0  0  0  0
 24 25  2  0  0  0  0
 24 80  1  0  0  0  0
 25 27  1  0  0  0  0
 25 82  1  0  0  0  0
 26 28  1  0  0  0  0
 26 81  1  0  0  0  0
 27 29  1  0  0  0  0
 27 31  2  0  0  0  0
 28 30  1  0  0  0  0
 28 32  2  0  0  0  0
 29 86  1  0  0  0  0
 29 87  1  0  0  0  0
 29 88  1  0  0  0  0
 30 83  1  0  0  0  0
 30 84  1  0  0  0  0
 30 85  1  0  0  0  0
 31 34  1  0  0  0  0
 31 90  1  0  0  0  0
 32 33  1  0  0  0  0
 32 89  1  0  0  0  0
 33 35  2  0  0  0  0
 33 92  1  0  0  0  0
 34 36  2  0  0  0  0
 34 91  1  0  0  0  0
 35 38  1  0  0  0  0
 35 94  1  0  0  0  0
 36 37  1  0  0  0  0
 36 93  1  0  0  0  0
 37 39  2  0  0  0  0
 37 41  1  0  0  0  0
 38 40  2  0  0  0  0
 38 42  1  0  0  0  0
 39 44  1  0  0  0  0
 39 95  1  0  0  0  0
 40 43  1  0  0  0  0
 40 96  1  0  0  0  0
 41 97  1  0  0  0  0
 41 98  1  0  0  0  0
 41 99  1  0  0  0  0
 42100  1  0  0  0  0
 42101  1  0  0  0  0
 42102  1  0  0  0  0
 43 44  2  0  0  0  0
 43104  1  0  0  0  0
 44103  1  0  0  0  0
M  END
> <PUBCHEM_COMPOUND_CID>
5366506

> <PUBCHEM_COMPOUND_CANONICALIZED>
1

> <PUBCHEM_CACTVS_COMPLEXITY>
1150

> <PUBCHEM_CACTVS_HBOND_ACCEPTOR>
2

> <PUBCHEM_CACTVS_HBOND_DONOR>
0

> <PUBCHEM_CACTVS_ROTATABLE_BOND>
18

> <PUBCHEM_CACTVS_SUBSKEYS>
AAADcfB8MAAAAAAAAAAAAAAAAAAAAAAAAAAAAAAAAAAAAAAAAAAAGgAAAAAADESAgAICAAAABACAAiBCAAAAAAAgAAAICAAAAAgIAAAAAQAAAAAAwAAIgAIAAAAIAAAAAAAAAAAAAAAAAAAAAAAAAAAAAA==

> <PUBCHEM_IUPAC_OPENEYE_NAME>
(4E,6E,8E,10E,12E,14E,16E,18E,20E,22E,24E,26E,28E)-2,31-dimethoxy-2,6,10,14,19,23,27,31-octamethyl-dotriaconta-4,6,8,10,12,14,16,18,20,22,24,26,28-tridecaene

> <PUBCHEM_IUPAC_CAS_NAME>
(4E,6E,8E,10E,12E,14E,16E,18E,20E,22E,24E,26E,28E)-2,31-dimethoxy-2,6,10,14,19,23,27,31-octamethyldotriaconta-4,6,8,10,12,14,16,18,20,22,24,26,28-tridecaene

> <PUBCHEM_IUPAC_NAME>
(4E,6E,8E,10E,12E,14E,16E,18E,20E,22E,24E,26E,28E)-2,31-dimethoxy-2,6,10,14,19,23,27,31-octamethyldotriaconta-4,6,8,10,12,14,16,18,20,22,24,26,28-tridecaene

> <PUBCHEM_IUPAC_SYSTEMATIC_NAME>
(4E,6E,8E,10E,12E,14E,16E,18E,20E,22E,24E,26E,28E)-2,31-dimethoxy-2,6,10,14,19,23,27,31-octamethyl-dotriaconta-4,6,8,10,12,14,16,18,20,22,24,26,28-tridecaene

> <PUBCHEM_IUPAC_TRADITIONAL_NAME>
(4E,6E,8E,10E,12E,14E,16E,18E,20E,22E,24E,26E,28E)-2,31-dimethoxy-2,6,10,14,19,23,27,31-octamethyl-dotriaconta-4,6,8,10,12,14,16,18,20,22,24,26,28-tridecaene

> <PUBCHEM_IUPAC_INCHI>
InChI=1S/C42H60O2/c1-35(23-15-25-37(3)27-17-29-39(5)31-19-33-41(7,8)43-11)21-13-14-22-36(2)24-16-26-38(4)28-18-30-40(6)32-20-34-42(9,10)44-12/h13-32H,33-34H2,1-12H3/b14-13+,23-15+,24-16+,27-17+,28-18+,31-19+,32-20+,35-21+,36-22+,37-25+,38-26+,39-29+,40-30+

> <PUBCHEM_IUPAC_INCHIKEY>
VAZQBTJCYODOSV-HZUCFJANSA-N

> <PUBCHEM_XLOGP3_AA>
13.9

> <PUBCHEM_EXACT_MASS>
596.459331

> <PUBCHEM_MOLECULAR_FORMULA>
C42H60O2

> <PUBCHEM_MOLECULAR_WEIGHT>
596.9246

> <PUBCHEM_OPENEYE_CAN_SMILES>
CC(=CC=CC(=CC=CC(=CC=CC=C(C)C=CC=C(C)C=CC=C(C)C=CCC(C)(C)OC)C)C)C=CCC(C)(C)OC

> <PUBCHEM_OPENEYE_ISO_SMILES>
C/C(=C\C=C\C(=C\C=C\C(=C\C=C\C=C(\C=C\C=C(\C=C\C=C(\C=C\CC(OC)(C)C)/C)/C)/C)\C)\C)/C=C/CC(OC)(C)C

> <PUBCHEM_CACTVS_TPSA>
18.5

> <PUBCHEM_MONOISOTOPIC_WEIGHT>
596.459331

> <PUBCHEM_TOTAL_CHARGE>
0

> <PUBCHEM_HEAVY_ATOM_COUNT>
44

> <PUBCHEM_ATOM_DEF_STEREO_COUNT>
0

> <PUBCHEM_ATOM_UDEF_STEREO_COUNT>
0

> <PUBCHEM_BOND_DEF_STEREO_COUNT>
13

> <PUBCHEM_BOND_UDEF_STEREO_COUNT>
0

> <PUBCHEM_ISOTOPIC_ATOM_COUNT>
0

> <PUBCHEM_COMPONENT_COUNT>
1

> <PUBCHEM_CACTVS_TAUTO_COUNT>
1

> <PUBCHEM_COORDINATE_TYPE>
1
5
255

$$$$

