17396312
  -OEChem-06241222552D

 39 40  0     0  0  0  0  0  0999 V2000
    7.0014   -0.6113    0.0000 O   0  0  0  0  0  0  0  0  0  0  0  0
    6.5855    1.3450    0.0000 O   0  0  0  0  0  0  0  0  0  0  0  0
    3.4013    3.6585    0.0000 O   0  0  0  0  0  0  0  0  0  0  0  0
    8.9693   -1.3107    0.0000 O   0  0  0  0  0  0  0  0  0  0  0  0
    6.4661   -2.2586    0.0000 O   0  0  0  0  0  0  0  0  0  0  0  0
    4.0823    0.3971    0.0000 N   0  0  0  0  0  0  0  0  0  0  0  0
    4.5823    1.9360    0.0000 C   0  0  0  0  0  0  0  0  0  0  0  0
    3.5823    1.9360    0.0000 C   0  0  0  0  0  0  0  0  0  0  0  0
    4.8913    0.9849    0.0000 C   0  0  0  0  0  0  0  0  0  0  0  0
    3.2733    0.9849    0.0000 C   0  0  0  0  0  0  0  0  0  0  0  0
    5.8424    0.6759    0.0000 C   0  0  0  0  0  0  0  0  0  0  0  0
    5.1701    2.7450    0.0000 C   0  0  0  0  0  0  0  0  0  0  0  0
    2.3222    0.6759    0.0000 C   0  0  0  0  0  0  0  0  0  0  0  0
    2.9945    2.7450    0.0000 C   0  0  0  0  0  0  0  0  0  0  0  0
    6.0503   -0.3023    0.0000 C   0  0  0  0  0  0  0  0  0  0  0  0
    2.0000    2.6404    0.0000 C   0  0  0  0  0  0  0  0  0  0  0  0
    8.1603   -1.8984    0.0000 C   0  0  0  0  0  0  0  0  0  0  0  0
    8.4693   -2.8495    0.0000 C   0  0  0  0  0  0  0  0  0  0  0  0
    7.2093   -1.5894    0.0000 C   0  0  0  0  0  0  0  0  0  0  0  0
    9.4693   -2.8495    0.0000 C   0  0  0  0  0  0  0  0  0  0  0  0
    7.8816   -3.6585    0.0000 C   0  0  0  0  0  0  0  0  0  0  0  0
    9.7784   -1.8984    0.0000 C   0  0  0  0  0  0  0  0  0  0  0  0
    4.0823   -0.2229    0.0000 H   0  0  0  0  0  0  0  0  0  0  0  0
    5.6717    2.3806    0.0000 H   0  0  0  0  0  0  0  0  0  0  0  0
    5.5345    3.2466    0.0000 H   0  0  0  0  0  0  0  0  0  0  0  0
    4.6685    3.1094    0.0000 H   0  0  0  0  0  0  0  0  0  0  0  0
    2.1306    1.2655    0.0000 H   0  0  0  0  0  0  0  0  0  0  0  0
    1.7326    0.4843    0.0000 H   0  0  0  0  0  0  0  0  0  0  0  0
    2.5138    0.0862    0.0000 H   0  0  0  0  0  0  0  0  0  0  0  0
    5.4307   -0.3239    0.0000 H   0  0  0  0  0  0  0  0  0  0  0  0
    5.9640   -0.9162    0.0000 H   0  0  0  0  0  0  0  0  0  0  0  0
    1.9352    3.2570    0.0000 H   0  0  0  0  0  0  0  0  0  0  0  0
    1.3834    2.5756    0.0000 H   0  0  0  0  0  0  0  0  0  0  0  0
    2.0648    2.0238    0.0000 H   0  0  0  0  0  0  0  0  0  0  0  0
    9.8338   -3.3511    0.0000 H   0  0  0  0  0  0  0  0  0  0  0  0
    7.3800   -3.2941    0.0000 H   0  0  0  0  0  0  0  0  0  0  0  0
    7.5171   -4.1601    0.0000 H   0  0  0  0  0  0  0  0  0  0  0  0
    8.3831   -4.0230    0.0000 H   0  0  0  0  0  0  0  0  0  0  0  0
   10.3680   -1.7069    0.0000 H   0  0  0  0  0  0  0  0  0  0  0  0
  1 15  1  0  0  0  0
  1 19  1  0  0  0  0
  2 11  2  0  0  0  0
  3 14  2  0  0  0  0
  4 17  1  0  0  0  0
  4 22  1  0  0  0  0
  5 19  2  0  0  0  0
  6  9  1  0  0  0  0
  6 10  1  0  0  0  0
  6 23  1  0  0  0  0
  7  8  1  0  0  0  0
  7  9  2  0  0  0  0
  7 12  1  0  0  0  0
  8 10  2  0  0  0  0
  8 14  1  0  0  0  0
  9 11  1  0  0  0  0
 10 13  1  0  0  0  0
 11 15  1  0  0  0  0
 12 24  1  0  0  0  0
 12 25  1  0  0  0  0
 12 26  1  0  0  0  0
 13 27  1  0  0  0  0
 13 28  1  0  0  0  0
 13 29  1  0  0  0  0
 14 16  1  0  0  0  0
 15 30  1  0  0  0  0
 15 31  1  0  0  0  0
 16 32  1  0  0  0  0
 16 33  1  0  0  0  0
 16 34  1  0  0  0  0
 17 18  2  0  0  0  0
 17 19  1  0  0  0  0
 18 20  1  0  0  0  0
 18 21  1  0  0  0  0
 20 22  2  0  0  0  0
 20 35  1  0  0  0  0
 21 36  1  0  0  0  0
 21 37  1  0  0  0  0
 21 38  1  0  0  0  0
 22 39  1  0  0  0  0
M  END
> <PUBCHEM_COMPOUND_CID>
17396312

> <PUBCHEM_COMPOUND_CANONICALIZED>
1

> <PUBCHEM_CACTVS_COMPLEXITY>
464

> <PUBCHEM_CACTVS_HBOND_ACCEPTOR>
5

> <PUBCHEM_CACTVS_HBOND_DONOR>
1

> <PUBCHEM_CACTVS_ROTATABLE_BOND>
6

> <PUBCHEM_CACTVS_SUBSKEYS>
AAADceB6OAAAAAAAAAAAAAAAAAAAAWJAAAAAAAAAAAAAAAAB4AAAHgAQAAAADAyhngIyjJLJlECoA6zyzAKCiCAnICAImSH2TNgNJnrEtb+GGajm0BHK6cec7zg+gAAAAAAAAAAAAAAAAAAAAAAAAAAAAA==

> <PUBCHEM_IUPAC_OPENEYE_NAME>
[2-(4-acetyl-3,5-dimethyl-1H-pyrrol-2-yl)-2-oxo-ethyl] 3-methylfuran-2-carboxylate

> <PUBCHEM_IUPAC_CAS_NAME>
3-methyl-2-furancarboxylic acid [2-(4-acetyl-3,5-dimethyl-1H-pyrrol-2-yl)-2-oxoethyl] ester

> <PUBCHEM_IUPAC_NAME>
[2-(4-acetyl-3,5-dimethyl-1H-pyrrol-2-yl)-2-oxoethyl] 3-methylfuran-2-carboxylate

> <PUBCHEM_IUPAC_SYSTEMATIC_NAME>
[2-(4-ethanoyl-3,5-dimethyl-1H-pyrrol-2-yl)-2-oxidanylidene-ethyl] 3-methylfuran-2-carboxylate

> <PUBCHEM_IUPAC_TRADITIONAL_NAME>
3-methylfuran-2-carboxylic acid [2-(4-acetyl-3,5-dimethyl-1H-pyrrol-2-yl)-2-keto-ethyl] ester

> <PUBCHEM_IUPAC_INCHI>
InChI=1S/C16H17NO5/c1-8-5-6-21-15(8)16(20)22-7-12(19)14-9(2)13(11(4)18)10(3)17-14/h5-6,17H,7H2,1-4H3

> <PUBCHEM_IUPAC_INCHIKEY>
CCTLDTHAJXAYCF-UHFFFAOYSA-N

> <PUBCHEM_XLOGP3_AA>
2.5

> <PUBCHEM_EXACT_MASS>
303.110673

> <PUBCHEM_MOLECULAR_FORMULA>
C16H17NO5

> <PUBCHEM_MOLECULAR_WEIGHT>
303.30988

> <PUBCHEM_OPENEYE_CAN_SMILES>
CC1=C(OC=C1)C(=O)OCC(=O)C2=C(C(=C(N2)C)C(=O)C)C

> <PUBCHEM_OPENEYE_ISO_SMILES>
CC1=C(OC=C1)C(=O)OCC(=O)C2=C(C(=C(N2)C)C(=O)C)C

> <PUBCHEM_CACTVS_TPSA>
89.4

> <PUBCHEM_MONOISOTOPIC_WEIGHT>
303.110673

> <PUBCHEM_TOTAL_CHARGE>
0

> <PUBCHEM_HEAVY_ATOM_COUNT>
22

> <PUBCHEM_ATOM_DEF_STEREO_COUNT>
0

> <PUBCHEM_ATOM_UDEF_STEREO_COUNT>
0

> <PUBCHEM_BOND_DEF_STEREO_COUNT>
0

> <PUBCHEM_BOND_UDEF_STEREO_COUNT>
0

> <PUBCHEM_ISOTOPIC_ATOM_COUNT>
0

> <PUBCHEM_COMPONENT_COUNT>
1

> <PUBCHEM_CACTVS_TAUTO_COUNT>
62

> <PUBCHEM_COORDINATE_TYPE>
1
5
255

> <PUBCHEM_BONDANNOTATIONS>
17  18  8
18  20  8
20  22  8
4  17  8
4  22  8
6  10  8
6  9  8
7  8  8
7  9  8
8  10  8

$$$$

