17395611
  -OEChem-06241222513D

 53 56  0     0  0  0  0  0  0999 V2000
   -4.9050   -0.4141   -1.8207 O   0  0  0  0  0  0  0  0  0  0  0  0
    0.9467   -2.8452    1.3263 O   0  0  0  0  0  0  0  0  0  0  0  0
   -2.5910    0.0826   -0.6121 N   0  0  0  0  0  0  0  0  0  0  0  0
   -6.1179    0.6479   -0.1659 N   0  0  0  0  0  0  0  0  0  0  0  0
   -0.1532   -1.3150   -0.0570 N   0  0  0  0  0  0  0  0  0  0  0  0
    5.9376    0.7170   -0.0398 N   0  0  0  0  0  0  0  0  0  0  0  0
   -1.3114    0.8054   -0.5804 C   0  0  0  0  0  0  0  0  0  0  0  0
   -2.5729   -1.0355    0.3425 C   0  0  0  0  0  0  0  0  0  0  0  0
   -7.4119    0.1050   -0.5522 C   0  0  0  0  0  0  0  0  0  0  0  0
   -6.2430    1.5243    0.9947 C   0  0  0  0  0  0  0  0  0  0  0  0
   -8.3256    0.4284    0.6198 C   0  0  0  0  0  0  0  0  0  0  0  0
   -7.7427    1.7308    1.1540 C   0  0  0  0  0  0  0  0  0  0  0  0
   -3.7004    0.9893   -0.3200 C   0  0  0  0  0  0  0  0  0  0  0  0
   -0.1440   -0.1255   -0.9157 C   0  0  0  0  0  0  0  0  0  0  0  0
   -1.4390   -2.0055    0.0144 C   0  0  0  0  0  0  0  0  0  0  0  0
   -4.9541    0.3366   -0.8450 C   0  0  0  0  0  0  0  0  0  0  0  0
    0.9547   -1.8477    0.6063 C   0  0  0  0  0  0  0  0  0  0  0  0
    2.2519   -1.1796    0.4371 C   0  0  0  0  0  0  0  0  0  0  0  0
    2.6315   -0.1625    1.3130 C   0  0  0  0  0  0  0  0  0  0  0  0
    3.1045   -1.5624   -0.5984 C   0  0  0  0  0  0  0  0  0  0  0  0
    4.7160    0.0888    0.1178 C   0  0  0  0  0  0  0  0  0  0  0  0
    3.8635    0.4717    1.1534 C   0  0  0  0  0  0  0  0  0  0  0  0
    4.3365   -0.9283   -0.7581 C   0  0  0  0  0  0  0  0  0  0  0  0
    6.4165    1.7246    0.7563 C   0  0  0  0  0  0  0  0  0  0  0  0
    6.8561    0.4259   -1.0144 C   0  0  0  0  0  0  0  0  0  0  0  0
    7.6592    2.0825    0.2821 C   0  0  0  0  0  0  0  0  0  0  0  0
    7.9374    1.2608   -0.8380 C   0  0  0  0  0  0  0  0  0  0  0  0
   -1.1486    1.2542    0.4086 H   0  0  0  0  0  0  0  0  0  0  0  0
   -1.3207    1.6198   -1.3147 H   0  0  0  0  0  0  0  0  0  0  0  0
   -3.5149   -1.5950    0.3108 H   0  0  0  0  0  0  0  0  0  0  0  0
   -2.4472   -0.6650    1.3688 H   0  0  0  0  0  0  0  0  0  0  0  0
   -7.3397   -0.9668   -0.7589 H   0  0  0  0  0  0  0  0  0  0  0  0
   -7.7300    0.6208   -1.4650 H   0  0  0  0  0  0  0  0  0  0  0  0
   -5.7062    2.4643    0.8387 H   0  0  0  0  0  0  0  0  0  0  0  0
   -5.8192    1.0013    1.8588 H   0  0  0  0  0  0  0  0  0  0  0  0
   -9.3746    0.5173    0.3250 H   0  0  0  0  0  0  0  0  0  0  0  0
   -8.2471   -0.3534    1.3848 H   0  0  0  0  0  0  0  0  0  0  0  0
   -8.0750    2.5684    0.5288 H   0  0  0  0  0  0  0  0  0  0  0  0
   -8.0323    1.9380    2.1878 H   0  0  0  0  0  0  0  0  0  0  0  0
   -3.5982    1.9321   -0.8718 H   0  0  0  0  0  0  0  0  0  0  0  0
   -3.7445    1.2234    0.7472 H   0  0  0  0  0  0  0  0  0  0  0  0
    0.7947    0.4264   -0.8329 H   0  0  0  0  0  0  0  0  0  0  0  0
   -0.2234   -0.4795   -1.9510 H   0  0  0  0  0  0  0  0  0  0  0  0
   -1.6072   -2.4772   -0.9616 H   0  0  0  0  0  0  0  0  0  0  0  0
   -1.4071   -2.8052    0.7614 H   0  0  0  0  0  0  0  0  0  0  0  0
    1.9734    0.1430    2.1225 H   0  0  0  0  0  0  0  0  0  0  0  0
    2.8171   -2.3537   -1.2861 H   0  0  0  0  0  0  0  0  0  0  0  0
    4.0950    1.2531    1.8683 H   0  0  0  0  0  0  0  0  0  0  0  0
    4.9491   -1.2746   -1.5827 H   0  0  0  0  0  0  0  0  0  0  0  0
    5.8831    2.1393    1.5990 H   0  0  0  0  0  0  0  0  0  0  0  0
    6.7198   -0.3328   -1.7711 H   0  0  0  0  0  0  0  0  0  0  0  0
    8.2949    2.8512    0.6984 H   0  0  0  0  0  0  0  0  0  0  0  0
    8.8283    1.2753   -1.4498 H   0  0  0  0  0  0  0  0  0  0  0  0
  1 16  2  0  0  0  0
  2 17  2  0  0  0  0
  3  7  1  0  0  0  0
  3  8  1  0  0  0  0
  3 13  1  0  0  0  0
  4  9  1  0  0  0  0
  4 10  1  0  0  0  0
  4 16  1  0  0  0  0
  5 14  1  0  0  0  0
  5 15  1  0  0  0  0
  5 17  1  0  0  0  0
  6 21  1  0  0  0  0
  6 24  1  0  0  0  0
  6 25  1  0  0  0  0
  7 14  1  0  0  0  0
  7 28  1  0  0  0  0
  7 29  1  0  0  0  0
  8 15  1  0  0  0  0
  8 30  1  0  0  0  0
  8 31  1  0  0  0  0
  9 11  1  0  0  0  0
  9 32  1  0  0  0  0
  9 33  1  0  0  0  0
 10 12  1  0  0  0  0
 10 34  1  0  0  0  0
 10 35  1  0  0  0  0
 11 12  1  0  0  0  0
 11 36  1  0  0  0  0
 11 37  1  0  0  0  0
 12 38  1  0  0  0  0
 12 39  1  0  0  0  0
 13 16  1  0  0  0  0
 13 40  1  0  0  0  0
 13 41  1  0  0  0  0
 14 42  1  0  0  0  0
 14 43  1  0  0  0  0
 15 44  1  0  0  0  0
 15 45  1  0  0  0  0
 17 18  1  0  0  0  0
 18 19  2  0  0  0  0
 18 20  1  0  0  0  0
 19 22  1  0  0  0  0
 19 46  1  0  0  0  0
 20 23  2  0  0  0  0
 20 47  1  0  0  0  0
 21 22  2  0  0  0  0
 21 23  1  0  0  0  0
 22 48  1  0  0  0  0
 23 49  1  0  0  0  0
 24 26  2  0  0  0  0
 24 50  1  0  0  0  0
 25 27  2  0  0  0  0
 25 51  1  0  0  0  0
 26 27  1  0  0  0  0
 26 52  1  0  0  0  0
 27 53  1  0  0  0  0
M  END
> <PUBCHEM_COMPOUND_CID>
17395611

> <PUBCHEM_CONFORMER_RMSD>
1

> <PUBCHEM_CONFORMER_DIVERSEORDER>
1
14
10
31
22
27
12
13
5
21
28
7
11
17
15
32
9
26
19
20
16
18
8
24
30
6
2
29
23
4
3
25

> <PUBCHEM_MMFF94_PARTIAL_CHARGES>
33
1 -0.57
10 0.3
13 0.33
14 0.3
15 0.3
16 0.57
17 0.54
18 0.09
19 -0.15
2 -0.57
20 -0.15
21 -0.02
22 -0.15
23 -0.15
24 -0.3
25 -0.3
26 -0.15
27 -0.15
3 -0.81
4 -0.66
46 0.15
47 0.15
48 0.15
49 0.15
5 -0.66
50 0.15
51 0.15
52 0.15
53 0.15
6 0.33
7 0.27
8 0.27
9 0.3

> <PUBCHEM_EFFECTIVE_ROTOR_COUNT>
8.2

> <PUBCHEM_PHARMACOPHORE_FEATURES>
8
1 1 acceptor
1 2 acceptor
1 3 cation
1 6 cation
5 4 9 10 11 12 rings
5 6 24 25 26 27 rings
6 18 19 20 21 22 23 rings
6 3 5 7 8 14 15 rings

> <PUBCHEM_HEAVY_ATOM_COUNT>
27

> <PUBCHEM_ATOM_DEF_STEREO_COUNT>
0

> <PUBCHEM_ATOM_UDEF_STEREO_COUNT>
0

> <PUBCHEM_BOND_DEF_STEREO_COUNT>
0

> <PUBCHEM_BOND_UDEF_STEREO_COUNT>
0

> <PUBCHEM_ISOTOPIC_ATOM_COUNT>
0

> <PUBCHEM_COMPONENT_COUNT>
1

> <PUBCHEM_CACTVS_TAUTO_COUNT>
1

> <PUBCHEM_CONFORMER_ID>
01096F9B00000001

> <PUBCHEM_MMFF94_ENERGY>
70.4539

> <PUBCHEM_FEATURE_SELFOVERLAP>
40.594

> <PUBCHEM_SHAPE_FINGERPRINT>
10 15 17418375791794991865
10162869 55 16773516573624072823
10165383 225 18342176666023964034
10369192 42 18187083971136645293
106641 1 17561079194752233281
10670039 82 15068615029068424011
10753850 27 7493288841841032390
10981352 41 11311788280383274224
11315181 36 18334858330226629837
11408170 108 11239730707245267025
11638347 137 15482676801415976904
11724838 91 17704352152241331415
12592606 108 8142078763323216013
12838862 33 18201454552960959884
13073987 5 16773524390263799133
13177829 20 14979955861153848436
13685833 64 8790888488998866854
13885169 127 9943536206494349599
14216079 64 8718833080740921188
14251764 18 18343866602294773549
14394314 77 18335695100887887169
14428016 86 18413670219329182766
14849402 71 18335419050422819977
14856354 85 16588312666494176549
14933364 13 17749110006744034193
15064981 194 18192418680926290332
15183329 4 15936405654283459923
15188451 53 10879994661700710438
15461852 350 16515696555152196133
15510800 12 9367064518671778304
15690457 1 11455888044677272513
15706992 2 18339067233691664049
15728490 51 18411419476289014215
1577012 14 18334583446774660927
16126227 98 18412544279997520753
16992610 120 18341319029985511374
1768 124 11959738174685905136
1768 4 18343579620948865537
18603816 31 12679170567501602961
18608769 82 18341049632024423763
190975 80 11312056543986996334
2026 5 8862676685013294060
20505436 4 18334862727298117647
21033648 29 18264219011435599680
21304304 249 9583519824250933208
21307412 95 6411292463986249037
21344244 78 14476962298760849966
21521721 280 18411416228286014115
21585482 111 18338797952602685353
221357 26 17385724699482847320
22224240 67 17918274251090456835
24771293 8 18343018900436769309
25269216 80 17386017122610679959
2747138 104 17774427378617802217
28498 318 7781519209233991441
3004659 81 4967608378152883522
3014063 24 10159700196477561288
3383291 50 8214144057873814740
3633792 109 14706928424121938986
3711267 37 18114450228563998777
4073 2 18408038507581779775
4093350 32 17894624889953752726
4098825 35 17531522195629607844
4107672 100 16877950399879860013
4112364 45 16988553555867658892
4340502 62 16128655275290439427
4403749 210 18131353025723922523
445580 37 16588301718253286953
5265222 85 16660937556048210191
54076057 127 18339073890870387323
5470011 282 14923942311383273608
5718773 13 9655577409350630224
5758199 1 18413107264563933539
6126387 218 10663826265344660903
6438161 24 9295285036856357369
9689198 14 18186516609687463701
9980921 177 18269014063475680600

> <PUBCHEM_SHAPE_MULTIPOLES>
523.98
25.66
2.08
1.22
11.55
0.55
0
-18.78
-0.5
-1.3
0.63
0.23
0.04
-0.76

> <PUBCHEM_SHAPE_SELFOVERLAP>
1123.811

> <PUBCHEM_SHAPE_VOLUME>
291.1

> <PUBCHEM_COORDINATE_TYPE>
2
5
10

$$$$

