5281202
  -OEChem-07051212553D

 42 43  0     1  0  0  0  0  0999 V2000
    5.4692    3.0971   -0.6754 O   0  0  0  0  0  0  0  0  0  0  0  0
    6.8255    1.2966   -0.3368 O   0  0  0  0  0  0  0  0  0  0  0  0
    4.7924   -2.9972    1.0292 O   0  0  0  0  0  0  0  0  0  0  0  0
   -8.6336   -0.8431   -1.2177 O   0  0  0  0  0  0  0  0  0  0  0  0
    4.1208   -3.3964   -1.1334 O   0  0  0  0  0  0  0  0  0  0  0  0
    4.8582   -0.4239   -0.5641 N   0  0  0  0  0  0  0  0  0  0  0  0
   -1.3278    0.8109    0.9629 N   0  0  0  0  0  0  0  0  0  0  0  0
    3.4674    1.3882    0.4467 C   0  0  0  0  0  0  0  0  0  0  0  0
    4.4529    0.9831   -0.6501 C   0  0  1  0  0  0  0  0  0  0  0  0
    2.3564    0.3809    0.5710 C   0  0  0  0  0  0  0  0  0  0  0  0
    2.5623   -0.9013    0.2406 C   0  0  0  0  0  0  0  0  0  0  0  0
   -3.7714    0.9639    1.0016 C   0  0  0  0  0  0  0  0  0  0  0  0
   -2.5453    0.2835    0.3945 C   0  0  0  0  0  0  0  0  0  0  0  0
    1.0836    0.8446    1.0585 C   0  0  0  0  0  0  0  0  0  0  0  0
    3.9371   -1.2371   -0.1832 C   0  0  0  0  0  0  0  0  0  0  0  0
   -5.0719    0.4803    0.4077 C   0  0  0  0  0  0  0  0  0  0  0  0
    5.7171    1.7720   -0.5341 C   0  0  0  0  0  0  0  0  0  0  0  0
   -0.0864    0.4292    0.5662 C   0  0  0  0  0  0  0  0  0  0  0  0
   -5.5949    1.1273   -0.7007 C   0  0  0  0  0  0  0  0  0  0  0  0
   -5.7199   -0.6017    0.9821 C   0  0  0  0  0  0  0  0  0  0  0  0
    4.2887   -2.6817   -0.1691 C   0  0  0  0  0  0  0  0  0  0  0  0
   -6.7973    0.6806   -1.2489 C   0  0  0  0  0  0  0  0  0  0  0  0
   -6.9222   -1.0484    0.4340 C   0  0  0  0  0  0  0  0  0  0  0  0
   -7.4610   -0.4073   -0.6816 C   0  0  0  0  0  0  0  0  0  0  0  0
    3.9732    1.4820    1.4172 H   0  0  0  0  0  0  0  0  0  0  0  0
    3.0590    2.3789    0.2080 H   0  0  0  0  0  0  0  0  0  0  0  0
    4.0339    1.1615   -1.6489 H   0  0  0  0  0  0  0  0  0  0  0  0
   -3.7851    0.8073    2.0887 H   0  0  0  0  0  0  0  0  0  0  0  0
   -3.6965    2.0523    0.8727 H   0  0  0  0  0  0  0  0  0  0  0  0
    1.8254   -1.6895    0.3290 H   0  0  0  0  0  0  0  0  0  0  0  0
   -2.5956   -0.7984    0.5697 H   0  0  0  0  0  0  0  0  0  0  0  0
   -2.5395    0.4355   -0.6923 H   0  0  0  0  0  0  0  0  0  0  0  0
    1.1050    1.5854    1.8536 H   0  0  0  0  0  0  0  0  0  0  0  0
   -1.3869    1.4822    1.7220 H   0  0  0  0  0  0  0  0  0  0  0  0
   -0.1255   -0.2928   -0.2443 H   0  0  0  0  0  0  0  0  0  0  0  0
   -5.0842    1.9739   -1.1505 H   0  0  0  0  0  0  0  0  0  0  0  0
   -5.3070   -1.1083    1.8497 H   0  0  0  0  0  0  0  0  0  0  0  0
   -7.2116    1.1837   -2.1183 H   0  0  0  0  0  0  0  0  0  0  0  0
   -7.4291   -1.8974    0.8848 H   0  0  0  0  0  0  0  0  0  0  0  0
    6.2874    3.6331   -0.6004 H   0  0  0  0  0  0  0  0  0  0  0  0
    5.0435   -3.9435    1.0903 H   0  0  0  0  0  0  0  0  0  0  0  0
   -8.9531   -1.6026   -0.7008 H   0  0  0  0  0  0  0  0  0  0  0  0
  1 17  1  0  0  0  0
  1 40  1  0  0  0  0
  2 17  2  0  0  0  0
  3 21  1  0  0  0  0
  3 41  1  0  0  0  0
  4 24  1  0  0  0  0
  4 42  1  0  0  0  0
  5 21  2  0  0  0  0
  6  9  1  0  0  0  0
  6 15  2  0  0  0  0
  7 13  1  0  0  0  0
  7 18  1  0  0  0  0
  7 34  1  0  0  0  0
  8  9  1  0  0  0  0
  8 10  1  0  0  0  0
  8 25  1  0  0  0  0
  8 26  1  0  0  0  0
  9 17  1  0  0  0  0
  9 27  1  0  0  0  0
 10 11  2  0  0  0  0
 10 14  1  0  0  0  0
 11 15  1  0  0  0  0
 11 30  1  0  0  0  0
 12 13  1  0  0  0  0
 12 16  1  0  0  0  0
 12 28  1  0  0  0  0
 12 29  1  0  0  0  0
 13 31  1  0  0  0  0
 13 32  1  0  0  0  0
 14 18  2  0  0  0  0
 14 33  1  0  0  0  0
 15 21  1  0  0  0  0
 16 19  2  0  0  0  0
 16 20  1  0  0  0  0
 18 35  1  0  0  0  0
 19 22  1  0  0  0  0
 19 36  1  0  0  0  0
 20 23  2  0  0  0  0
 20 37  1  0  0  0  0
 22 24  2  0  0  0  0
 22 38  1  0  0  0  0
 23 24  1  0  0  0  0
 23 39  1  0  0  0  0
M  END
> <PUBCHEM_COMPOUND_CID>
5281202

> <PUBCHEM_CONFORMER_RMSD>
0.8

> <PUBCHEM_CONFORMER_DIVERSEORDER>
1
82
31
24
74
26
14
102
147
28
60
46
132
159
30
10
35
133
152
136
134
12
16
72
125
154
95
112
122
17
103
77
81
140
6
98
39
115
41
54
143
80
93
109
161
101
67
149
157
111
42
2
22
27
62
167
78
88
164
64
43
92
36
55
158
69
40
155
37
25
94
53
121
131
120
99
68
107
91
141
15
146
51
57
32
61
163
71
129
100
73
137
44
8
13
123
114
70
126
108
59
116
75
118
110
9
19
97
5
20
4
34
84
105
153
128
3
21
150
45
47
142
156
29
11
145
7
52
83
165
23
65
49
135
151
79
117
113
160
86
96
76
18
104
85
162
106
138
56
144
63
58
166
38
87
148
139
89
90
33
66
130
127
50
119
48
124

> <PUBCHEM_MMFF94_PARTIAL_CHARGES>
35
1 -0.65
10 -0.14
11 -0.14
12 0.14
13 0.37
14 -0.15
15 0.44
16 -0.14
17 0.66
18 -0.05
19 -0.15
2 -0.57
20 -0.15
21 0.72
22 -0.15
23 -0.15
24 0.08
3 -0.65
30 0.15
33 0.15
34 0.4
35 0.15
36 0.15
37 0.15
38 0.15
39 0.15
4 -0.53
40 0.5
41 0.5
42 0.45
5 -0.57
6 -0.7
7 -0.87
8 0.14
9 0.31

> <PUBCHEM_EFFECTIVE_ROTOR_COUNT>
7.4

> <PUBCHEM_PHARMACOPHORE_FEATURES>
12
1 1 acceptor
1 2 acceptor
1 3 acceptor
1 4 donor
1 5 acceptor
1 6 acceptor
1 7 cation
1 7 donor
3 1 2 17 anion
3 3 5 21 anion
6 16 19 20 22 23 24 rings
6 6 8 9 10 11 15 rings

> <PUBCHEM_HEAVY_ATOM_COUNT>
24

> <PUBCHEM_ATOM_DEF_STEREO_COUNT>
0

> <PUBCHEM_ATOM_UDEF_STEREO_COUNT>
1

> <PUBCHEM_BOND_DEF_STEREO_COUNT>
1

> <PUBCHEM_BOND_UDEF_STEREO_COUNT>
0

> <PUBCHEM_ISOTOPIC_ATOM_COUNT>
0

> <PUBCHEM_COMPONENT_COUNT>
1

> <PUBCHEM_CACTVS_TAUTO_COUNT>
6

> <PUBCHEM_CONFORMER_ID>
005095B200000001

> <PUBCHEM_MMFF94_ENERGY>
53.2612

> <PUBCHEM_FEATURE_SELFOVERLAP>
61.011

> <PUBCHEM_SHAPE_FINGERPRINT>
10299344 5 17822005402993836609
10595046 47 18334570269709891721
10835480 77 18272650138799680313
11475781 23 16773795896310056243
11719270 70 18409731760157523018
12730499 353 18411131408183764688
13533116 47 18260266369089294891
1361 4 18334575729209592599
13627175 4 16660651756545652943
13668630 136 16660639640253408669
14118638 360 18333728039465810960
14347332 77 18114183094482504513
14461889 52 18200309914485948914
15183329 4 17748826302705846207
15510794 2 17989485209107805683
1577012 14 18113893897154472305
16993427 108 17271462506601475978
17134984 74 18260830380105626094
17492 89 18045493377664412898
18335252 98 18341607076083024851
20157964 124 18341609313618430984
20645477 70 18339073895671126562
21150785 3 18409450254873389357
21344244 78 18262249936365504512
220451 1 17894346666573148689
22061861 79 18341896324818542159
22956985 138 16373798114648807654
23081809 10 17967810583206764665
23522609 53 17678709363665669433
23559900 14 18341616963393301905
24771750 20 17626650610431732709
255183 451 18117830222139310814
2767999 5 14333130767467861561
3004659 81 18337388344277310490
3178227 256 8430322320961823708
335352 9 18410846665406608028
34797466 226 17988921159231318789
4073 2 18130219355161101267
44880568 143 17918276485127975349
5470011 282 18412548691883690269
6025842 7 18410289221079195750

> <PUBCHEM_SHAPE_MULTIPOLES>
454.6
24.44
2.63
1.13
32.79
1.74
-0.04
1.15
-7.8
-7.09
-0.47
0.93
0.04
-0.37

> <PUBCHEM_SHAPE_SELFOVERLAP>
958.641

> <PUBCHEM_SHAPE_VOLUME>
253

> <PUBCHEM_COORDINATE_TYPE>
2
5
10

$$$$

