91692
  -OEChem-07051213002D

 44 46  0     0  0  0  0  0  0999 V2000
    2.8660   -3.5194    0.0000 Cl  0  0  0  0  0  0  0  0  0  0  0  0
    4.5981   -0.5194    0.0000 O   0  0  0  0  0  0  0  0  0  0  0  0
    3.7320    0.9806    0.0000 N   0  0  0  0  0  0  0  0  0  0  0  0
    5.4641    0.9806    0.0000 N   0  0  0  0  0  0  0  0  0  0  0  0
    3.7320    1.9806    0.0000 C   0  0  0  0  0  0  0  0  0  0  0  0
    4.5411    2.5684    0.0000 C   0  0  0  0  0  0  0  0  0  0  0  0
    2.9230    2.5684    0.0000 C   0  0  0  0  0  0  0  0  0  0  0  0
    4.2320    3.5194    0.0000 C   0  0  0  0  0  0  0  0  0  0  0  0
    3.2320    3.5194    0.0000 C   0  0  0  0  0  0  0  0  0  0  0  0
    2.8660    0.4806    0.0000 C   0  0  0  0  0  0  0  0  0  0  0  0
    4.5981    0.4806    0.0000 C   0  0  0  0  0  0  0  0  0  0  0  0
    2.8660   -0.5194    0.0000 C   0  0  0  0  0  0  0  0  0  0  0  0
    2.0000   -1.0194    0.0000 C   0  0  0  0  0  0  0  0  0  0  0  0
    3.7320   -1.0194    0.0000 C   0  0  0  0  0  0  0  0  0  0  0  0
    6.3301    0.4806    0.0000 C   0  0  0  0  0  0  0  0  0  0  0  0
    2.0000   -2.0194    0.0000 C   0  0  0  0  0  0  0  0  0  0  0  0
    3.7320   -2.0194    0.0000 C   0  0  0  0  0  0  0  0  0  0  0  0
    2.8660   -2.5194    0.0000 C   0  0  0  0  0  0  0  0  0  0  0  0
    6.3301   -0.5194    0.0000 C   0  0  0  0  0  0  0  0  0  0  0  0
    7.1962    0.9806    0.0000 C   0  0  0  0  0  0  0  0  0  0  0  0
    7.1962   -1.0194    0.0000 C   0  0  0  0  0  0  0  0  0  0  0  0
    8.0622    0.4806    0.0000 C   0  0  0  0  0  0  0  0  0  0  0  0
    8.0622   -0.5194    0.0000 C   0  0  0  0  0  0  0  0  0  0  0  0
    4.2845    1.6991    0.0000 H   0  0  0  0  0  0  0  0  0  0  0  0
    4.8511    2.0314    0.0000 H   0  0  0  0  0  0  0  0  0  0  0  0
    5.1075    2.8205    0.0000 H   0  0  0  0  0  0  0  0  0  0  0  0
    2.3566    2.8205    0.0000 H   0  0  0  0  0  0  0  0  0  0  0  0
    2.6130    2.0314    0.0000 H   0  0  0  0  0  0  0  0  0  0  0  0
    3.2969    4.1360    0.0000 H   0  0  0  0  0  0  0  0  0  0  0  0
    2.6256    3.6483    0.0000 H   0  0  0  0  0  0  0  0  0  0  0  0
    4.8385    3.6483    0.0000 H   0  0  0  0  0  0  0  0  0  0  0  0
    4.1672    4.1360    0.0000 H   0  0  0  0  0  0  0  0  0  0  0  0
    2.6540    1.0632    0.0000 H   0  0  0  0  0  0  0  0  0  0  0  0
    2.2554    0.3729    0.0000 H   0  0  0  0  0  0  0  0  0  0  0  0
    5.4641    1.6006    0.0000 H   0  0  0  0  0  0  0  0  0  0  0  0
    1.4631   -0.7094    0.0000 H   0  0  0  0  0  0  0  0  0  0  0  0
    4.2690   -0.7094    0.0000 H   0  0  0  0  0  0  0  0  0  0  0  0
    1.4631   -2.3294    0.0000 H   0  0  0  0  0  0  0  0  0  0  0  0
    4.2690   -2.3294    0.0000 H   0  0  0  0  0  0  0  0  0  0  0  0
    5.7932   -0.8294    0.0000 H   0  0  0  0  0  0  0  0  0  0  0  0
    7.1962    1.6006    0.0000 H   0  0  0  0  0  0  0  0  0  0  0  0
    7.1962   -1.6394    0.0000 H   0  0  0  0  0  0  0  0  0  0  0  0
    8.5991    0.7906    0.0000 H   0  0  0  0  0  0  0  0  0  0  0  0
    8.5991   -0.8294    0.0000 H   0  0  0  0  0  0  0  0  0  0  0  0
  1 18  1  0  0  0  0
  2 11  2  0  0  0  0
  3  5  1  0  0  0  0
  3 10  1  0  0  0  0
  3 11  1  0  0  0  0
  4 11  1  0  0  0  0
  4 15  1  0  0  0  0
  4 35  1  0  0  0  0
  5  6  1  0  0  0  0
  5  7  1  0  0  0  0
  5 24  1  0  0  0  0
  6  8  1  0  0  0  0
  6 25  1  0  0  0  0
  6 26  1  0  0  0  0
  7  9  1  0  0  0  0
  7 27  1  0  0  0  0
  7 28  1  0  0  0  0
  8  9  1  0  0  0  0
  8 31  1  0  0  0  0
  8 32  1  0  0  0  0
  9 29  1  0  0  0  0
  9 30  1  0  0  0  0
 10 12  1  0  0  0  0
 10 33  1  0  0  0  0
 10 34  1  0  0  0  0
 12 13  2  0  0  0  0
 12 14  1  0  0  0  0
 13 16  1  0  0  0  0
 13 36  1  0  0  0  0
 14 17  2  0  0  0  0
 14 37  1  0  0  0  0
 15 19  2  0  0  0  0
 15 20  1  0  0  0  0
 16 18  2  0  0  0  0
 16 38  1  0  0  0  0
 17 18  1  0  0  0  0
 17 39  1  0  0  0  0
 19 21  1  0  0  0  0
 19 40  1  0  0  0  0
 20 22  2  0  0  0  0
 20 41  1  0  0  0  0
 21 23  2  0  0  0  0
 21 42  1  0  0  0  0
 22 23  1  0  0  0  0
 22 43  1  0  0  0  0
 23 44  1  0  0  0  0
M  END
> <PUBCHEM_COMPOUND_CID>
91692

> <PUBCHEM_COMPOUND_CANONICALIZED>
1

> <PUBCHEM_CACTVS_COMPLEXITY>
370

> <PUBCHEM_CACTVS_HBOND_ACCEPTOR>
1

> <PUBCHEM_CACTVS_HBOND_DONOR>
1

> <PUBCHEM_CACTVS_ROTATABLE_BOND>
4

> <PUBCHEM_CACTVS_SUBSKEYS>
AAADceB7IAAEAAAAAAAAAAAAAAAAAYAAAAAwYAAAAAAAAAABQAAAHgIQAAAADCrBGCQxwIPAAACIAiRCUACCAAAhBwAIiAAIZoiIICLBk5GEIAholgLIyCcQgAAOBAAAAAAAAAAIAAAAAAAAAAAAAAAAAA==

> <PUBCHEM_IUPAC_OPENEYE_NAME>
1-[(4-chlorophenyl)methyl]-1-cyclopentyl-3-phenyl-urea

> <PUBCHEM_IUPAC_CAS_NAME>
1-[(4-chlorophenyl)methyl]-1-cyclopentyl-3-phenylurea

> <PUBCHEM_IUPAC_NAME>
1-[(4-chlorophenyl)methyl]-1-cyclopentyl-3-phenylurea

> <PUBCHEM_IUPAC_SYSTEMATIC_NAME>
1-[(4-chlorophenyl)methyl]-1-cyclopentyl-3-phenyl-urea

> <PUBCHEM_IUPAC_TRADITIONAL_NAME>
1-(4-chlorobenzyl)-1-cyclopentyl-3-phenyl-urea

> <PUBCHEM_IUPAC_INCHI>
InChI=1S/C19H21ClN2O/c20-16-12-10-15(11-13-16)14-22(18-8-4-5-9-18)19(23)21-17-6-2-1-3-7-17/h1-3,6-7,10-13,18H,4-5,8-9,14H2,(H,21,23)

> <PUBCHEM_IUPAC_INCHIKEY>
OGYFATSSENRIKG-UHFFFAOYSA-N

> <PUBCHEM_XLOGP3>
4.8

> <PUBCHEM_EXACT_MASS>
328.134241

> <PUBCHEM_MOLECULAR_FORMULA>
C19H21ClN2O

> <PUBCHEM_MOLECULAR_WEIGHT>
328.83584

> <PUBCHEM_OPENEYE_CAN_SMILES>
C1CCC(C1)N(CC2=CC=C(C=C2)Cl)C(=O)NC3=CC=CC=C3

> <PUBCHEM_OPENEYE_ISO_SMILES>
C1CCC(C1)N(CC2=CC=C(C=C2)Cl)C(=O)NC3=CC=CC=C3

> <PUBCHEM_CACTVS_TPSA>
32.3

> <PUBCHEM_MONOISOTOPIC_WEIGHT>
328.134241

> <PUBCHEM_TOTAL_CHARGE>
0

> <PUBCHEM_HEAVY_ATOM_COUNT>
23

> <PUBCHEM_ATOM_DEF_STEREO_COUNT>
0

> <PUBCHEM_ATOM_UDEF_STEREO_COUNT>
0

> <PUBCHEM_BOND_DEF_STEREO_COUNT>
0

> <PUBCHEM_BOND_UDEF_STEREO_COUNT>
0

> <PUBCHEM_ISOTOPIC_ATOM_COUNT>
0

> <PUBCHEM_COMPONENT_COUNT>
1

> <PUBCHEM_CACTVS_TAUTO_COUNT>
2

> <PUBCHEM_COORDINATE_TYPE>
1
5
255

> <PUBCHEM_BONDANNOTATIONS>
12  13  8
12  14  8
13  16  8
14  17  8
15  19  8
15  20  8
16  18  8
17  18  8
19  21  8
20  22  8
21  23  8
22  23  8

$$$$

