14025
  -OEChem-06241222413D

 42 41  0     0  0  0  0  0  0999 V2000
    0.3088    0.0136   -0.7236 Si  0  0  0  0  0  0  0  0  0  0  0  0
   -0.6213   -1.3490   -0.4176 O   0  0  0  0  0  0  0  0  0  0  0  0
   -0.5426    1.3804   -0.2508 O   0  0  0  0  0  0  0  0  0  0  0  0
    1.7146   -0.0613    0.1901 O   0  0  0  0  0  0  0  0  0  0  0  0
   -3.0078   -2.7219    0.0806 O   0  0  0  0  0  0  0  0  0  0  0  0
   -2.5425    2.7608    1.1361 O   0  0  0  0  0  0  0  0  0  0  0  0
    4.4568    0.2601    0.6438 O   0  0  0  0  0  0  0  0  0  0  0  0
   -1.0514   -1.6187    0.9094 C   0  0  0  0  0  0  0  0  0  0  0  0
   -1.7893    1.6804   -0.8630 C   0  0  0  0  0  0  0  0  0  0  0  0
    2.6230   -1.1368   -0.0020 C   0  0  0  0  0  0  0  0  0  0  0  0
    0.7153    0.1057   -2.5122 C   0  0  0  0  0  0  0  0  0  0  0  0
   -1.8687   -2.8962    0.9146 C   0  0  0  0  0  0  0  0  0  0  0  0
   -2.3431    2.9563   -0.2587 C   0  0  0  0  0  0  0  0  0  0  0  0
    3.7990   -0.9657    0.9404 C   0  0  0  0  0  0  0  0  0  0  0  0
    1.4345    1.0723   -3.0916 C   0  0  0  0  0  0  0  0  0  0  0  0
   -3.8013   -3.8993    0.0303 C   0  0  0  0  0  0  0  0  0  0  0  0
   -3.0415    3.9355    1.7603 C   0  0  0  0  0  0  0  0  0  0  0  0
    5.5576    0.4838    1.5137 C   0  0  0  0  0  0  0  0  0  0  0  0
   -0.1890   -1.7375    1.5764 H   0  0  0  0  0  0  0  0  0  0  0  0
   -1.6750   -0.7904    1.2691 H   0  0  0  0  0  0  0  0  0  0  0  0
   -1.6659    1.8185   -1.9437 H   0  0  0  0  0  0  0  0  0  0  0  0
   -2.4943    0.8592   -0.6815 H   0  0  0  0  0  0  0  0  0  0  0  0
    2.1312   -2.0958    0.2012 H   0  0  0  0  0  0  0  0  0  0  0  0
    2.9898   -1.1304   -1.0360 H   0  0  0  0  0  0  0  0  0  0  0  0
    0.3267   -0.7031   -3.1224 H   0  0  0  0  0  0  0  0  0  0  0  0
   -2.1885   -3.1319    1.9356 H   0  0  0  0  0  0  0  0  0  0  0  0
   -1.2651   -3.7233    0.5231 H   0  0  0  0  0  0  0  0  0  0  0  0
   -3.2940    3.2151   -0.7371 H   0  0  0  0  0  0  0  0  0  0  0  0
   -1.6287    3.7752   -0.4039 H   0  0  0  0  0  0  0  0  0  0  0  0
    4.4982   -1.8007    0.8219 H   0  0  0  0  0  0  0  0  0  0  0  0
    3.4415   -0.9355    1.9764 H   0  0  0  0  0  0  0  0  0  0  0  0
    1.8474    1.9044   -2.5308 H   0  0  0  0  0  0  0  0  0  0  0  0
    1.6249    1.0438   -4.1595 H   0  0  0  0  0  0  0  0  0  0  0  0
   -4.6606   -3.7078   -0.6178 H   0  0  0  0  0  0  0  0  0  0  0  0
   -4.1677   -4.1582    1.0284 H   0  0  0  0  0  0  0  0  0  0  0  0
   -3.2272   -4.7315   -0.3885 H   0  0  0  0  0  0  0  0  0  0  0  0
   -3.1794    3.7276    2.8248 H   0  0  0  0  0  0  0  0  0  0  0  0
   -4.0082    4.2170    1.3316 H   0  0  0  0  0  0  0  0  0  0  0  0
   -2.3281    4.7587    1.6554 H   0  0  0  0  0  0  0  0  0  0  0  0
    6.0261    1.4327    1.2390 H   0  0  0  0  0  0  0  0  0  0  0  0
    6.2985   -0.3146    1.4085 H   0  0  0  0  0  0  0  0  0  0  0  0
    5.2190    0.5499    2.5522 H   0  0  0  0  0  0  0  0  0  0  0  0
  1  2  1  0  0  0  0
  1  3  1  0  0  0  0
  1  4  1  0  0  0  0
  1 11  1  0  0  0  0
  2  8  1  0  0  0  0
  3  9  1  0  0  0  0
  4 10  1  0  0  0  0
  5 12  1  0  0  0  0
  5 16  1  0  0  0  0
  6 13  1  0  0  0  0
  6 17  1  0  0  0  0
  7 14  1  0  0  0  0
  7 18  1  0  0  0  0
  8 12  1  0  0  0  0
  8 19  1  0  0  0  0
  8 20  1  0  0  0  0
  9 13  1  0  0  0  0
  9 21  1  0  0  0  0
  9 22  1  0  0  0  0
 10 14  1  0  0  0  0
 10 23  1  0  0  0  0
 10 24  1  0  0  0  0
 11 15  2  0  0  0  0
 11 25  1  0  0  0  0
 12 26  1  0  0  0  0
 12 27  1  0  0  0  0
 13 28  1  0  0  0  0
 13 29  1  0  0  0  0
 14 30  1  0  0  0  0
 14 31  1  0  0  0  0
 15 32  1  0  0  0  0
 15 33  1  0  0  0  0
 16 34  1  0  0  0  0
 16 35  1  0  0  0  0
 16 36  1  0  0  0  0
 17 37  1  0  0  0  0
 17 38  1  0  0  0  0
 17 39  1  0  0  0  0
 18 40  1  0  0  0  0
 18 41  1  0  0  0  0
 18 42  1  0  0  0  0
M  END
> <PUBCHEM_COMPOUND_CID>
14025

> <PUBCHEM_CONFORMER_RMSD>
1

> <PUBCHEM_CONFORMER_DIVERSEORDER>
1
30
6
52
23
35
49
40
38
24
36
13
41
19
47
9
51
46
7
42
27
15
50
14
31
28
25
29
10
45
53
2
17
11
8
33
39
32
20
4
22
44
5
34
26
48
16
21
12
18
37
3
43

> <PUBCHEM_MMFF94_PARTIAL_CHARGES>
21
1 1.12
10 0.28
11 -0.38
12 0.28
13 0.28
14 0.28
15 -0.3
16 0.28
17 0.28
18 0.28
2 -0.58
25 0.15
3 -0.58
32 0.15
33 0.15
4 -0.58
5 -0.56
6 -0.56
7 -0.56
8 0.28
9 0.28

> <PUBCHEM_EFFECTIVE_ROTOR_COUNT>
13

> <PUBCHEM_PHARMACOPHORE_FEATURES>
3
1 5 acceptor
1 6 acceptor
1 7 acceptor

> <PUBCHEM_HEAVY_ATOM_COUNT>
18

> <PUBCHEM_ATOM_DEF_STEREO_COUNT>
0

> <PUBCHEM_ATOM_UDEF_STEREO_COUNT>
0

> <PUBCHEM_BOND_DEF_STEREO_COUNT>
0

> <PUBCHEM_BOND_UDEF_STEREO_COUNT>
0

> <PUBCHEM_ISOTOPIC_ATOM_COUNT>
0

> <PUBCHEM_COMPONENT_COUNT>
1

> <PUBCHEM_CACTVS_TAUTO_COUNT>
1

> <PUBCHEM_CONFORMER_ID>
000036C900000001

> <PUBCHEM_MMFF94_ENERGY>
31.5887

> <PUBCHEM_FEATURE_SELFOVERLAP>
15.223

> <PUBCHEM_SHAPE_FINGERPRINT>
10756046 70 17416944279279631774
11578080 2 17315880439077586796
12293681 160 16975576938663022596
12788726 201 18269541754713297735
12930653 34 18335707152422966890
13134695 92 17909275680562605335
14943834 7 17773571880850297740
15142526 21 17971756833101934465
20600515 1 17825936032040229155
20671657 53 16844741798288571382
20711985 344 17978751745867981839
22182937 141 18335710463673895592
22620623 9 17252521051762950461
23419403 2 17697630726007171446
23557571 272 18263910094768382567
298252 57 16517968222386937260
394222 165 16982034654184939180
633830 44 17682127908287401764
6992083 37 17775003535226108196
81228 2 17989771107146794570
9925002 15 18131340899823354189

> <PUBCHEM_SHAPE_MULTIPOLES>
353.43
7.6
4.72
2.19
9.63
0.3
1.71
0.63
-5.34
-9.97
-2.21
1.12
-1.52
-1.31

> <PUBCHEM_SHAPE_SELFOVERLAP>
644.119

> <PUBCHEM_SHAPE_VOLUME>
225.4

> <PUBCHEM_COORDINATE_TYPE>
2
5
10

$$$$

