10527
  -OEChem-06261204392D

 50 50  0     1  0  0  0  0  0999 V2000
    9.1817    4.1200    0.0000 Cl  0  0  0  0  0  0  0  0  0  0  0  0
    3.1350    5.1200    0.0000 O   0  0  0  0  0  0  0  0  0  0  0  0
    4.8671    5.1200    0.0000 O   0  0  0  0  0  0  0  0  0  0  0  0
    5.9407    3.9620    0.0000 N   0  0  0  0  0  0  0  0  0  0  0  0
    4.0010    3.6200    0.0000 C   0  0  3  0  0  0  0  0  0  0  0  0
    5.0010    3.6200    0.0000 C   0  0  0  0  0  0  0  0  0  0  0  0
    3.0010    3.6200    0.0000 C   0  0  0  0  0  0  0  0  0  0  0  0
    4.0010    2.6200    0.0000 C   0  0  0  0  0  0  0  0  0  0  0  0
    4.0010    4.6200    0.0000 C   0  0  0  0  0  0  0  0  0  0  0  0
    2.5010    4.4860    0.0000 C   0  0  0  0  0  0  0  0  0  0  0  0
    3.1350    2.1200    0.0000 C   0  0  0  0  0  0  0  0  0  0  0  0
    4.8671    2.1200    0.0000 C   0  0  0  0  0  0  0  0  0  0  0  0
    6.7068    3.3192    0.0000 C   0  0  0  0  0  0  0  0  0  0  0  0
    6.1144    4.9468    0.0000 C   0  0  0  0  0  0  0  0  0  0  0  0
    3.1350    1.1200    0.0000 C   0  0  0  0  0  0  0  0  0  0  0  0
    4.8671    1.1200    0.0000 C   0  0  0  0  0  0  0  0  0  0  0  0
    3.1350    6.1200    0.0000 C   0  0  0  0  0  0  0  0  0  0  0  0
    4.0010    0.6200    0.0000 C   0  0  0  0  0  0  0  0  0  0  0  0
    2.2690    6.6200    0.0000 C   0  0  0  0  0  0  0  0  0  0  0  0
    1.4030    6.1200    0.0000 C   0  0  0  0  0  0  0  0  0  0  0  0
    2.2690    7.6200    0.0000 C   0  0  0  0  0  0  0  0  0  0  0  0
    0.5369    6.6200    0.0000 C   0  0  0  0  0  0  0  0  0  0  0  0
    1.4030    8.1200    0.0000 C   0  0  0  0  0  0  0  0  0  0  0  0
    0.5369    7.6200    0.0000 C   0  0  0  0  0  0  0  0  0  0  0  0
    4.7555    3.0507    0.0000 H   0  0  0  0  0  0  0  0  0  0  0  0
    4.8934    4.2306    0.0000 H   0  0  0  0  0  0  0  0  0  0  0  0
    2.4184    3.4080    0.0000 H   0  0  0  0  0  0  0  0  0  0  0  0
    3.1087    3.0094    0.0000 H   0  0  0  0  0  0  0  0  0  0  0  0
    3.0380    4.7960    0.0000 H   0  0  0  0  0  0  0  0  0  0  0  0
    2.1910    5.0230    0.0000 H   0  0  0  0  0  0  0  0  0  0  0  0
    1.9641    4.1760    0.0000 H   0  0  0  0  0  0  0  0  0  0  0  0
    2.5981    2.4300    0.0000 H   0  0  0  0  0  0  0  0  0  0  0  0
    5.4040    2.4300    0.0000 H   0  0  0  0  0  0  0  0  0  0  0  0
    6.3082    2.8443    0.0000 H   0  0  0  0  0  0  0  0  0  0  0  0
    7.1817    2.9207    0.0000 H   0  0  0  0  0  0  0  0  0  0  0  0
    7.1053    3.7942    0.0000 H   0  0  0  0  0  0  0  0  0  0  0  0
    6.7250    4.8392    0.0000 H   0  0  0  0  0  0  0  0  0  0  0  0
    6.2220    5.5574    0.0000 H   0  0  0  0  0  0  0  0  0  0  0  0
    5.5038    5.0545    0.0000 H   0  0  0  0  0  0  0  0  0  0  0  0
    2.5981    0.8100    0.0000 H   0  0  0  0  0  0  0  0  0  0  0  0
    5.4040    0.8100    0.0000 H   0  0  0  0  0  0  0  0  0  0  0  0
    3.7456    6.0123    0.0000 H   0  0  0  0  0  0  0  0  0  0  0  0
    3.3471    6.7026    0.0000 H   0  0  0  0  0  0  0  0  0  0  0  0
    4.0010    0.0000    0.0000 H   0  0  0  0  0  0  0  0  0  0  0  0
    1.4030    5.5000    0.0000 H   0  0  0  0  0  0  0  0  0  0  0  0
    2.8059    7.9300    0.0000 H   0  0  0  0  0  0  0  0  0  0  0  0
    0.0000    6.3100    0.0000 H   0  0  0  0  0  0  0  0  0  0  0  0
    1.4030    8.7400    0.0000 H   0  0  0  0  0  0  0  0  0  0  0  0
    0.0000    7.9300    0.0000 H   0  0  0  0  0  0  0  0  0  0  0  0
   10.1817    4.1200    0.0000 H   0  0  0  0  0  0  0  0  0  0  0  0
  1 50  1  0  0  0  0
  2  9  1  0  0  0  0
  2 17  1  0  0  0  0
  3  9  2  0  0  0  0
  4  6  1  0  0  0  0
  4 13  1  0  0  0  0
  4 14  1  0  0  0  0
  5  6  1  0  0  0  0
  5  7  1  0  0  0  0
  5  8  1  0  0  0  0
  5  9  1  0  0  0  0
  6 25  1  0  0  0  0
  6 26  1  0  0  0  0
  7 10  1  0  0  0  0
  7 27  1  0  0  0  0
  7 28  1  0  0  0  0
  8 11  2  0  0  0  0
  8 12  1  0  0  0  0
 10 29  1  0  0  0  0
 10 30  1  0  0  0  0
 10 31  1  0  0  0  0
 11 15  1  0  0  0  0
 11 32  1  0  0  0  0
 12 16  2  0  0  0  0
 12 33  1  0  0  0  0
 13 34  1  0  0  0  0
 13 35  1  0  0  0  0
 13 36  1  0  0  0  0
 14 37  1  0  0  0  0
 14 38  1  0  0  0  0
 14 39  1  0  0  0  0
 15 18  2  0  0  0  0
 15 40  1  0  0  0  0
 16 18  1  0  0  0  0
 16 41  1  0  0  0  0
 17 19  1  0  0  0  0
 17 42  1  0  0  0  0
 17 43  1  0  0  0  0
 18 44  1  0  0  0  0
 19 20  2  0  0  0  0
 19 21  1  0  0  0  0
 20 22  1  0  0  0  0
 20 45  1  0  0  0  0
 21 23  2  0  0  0  0
 21 46  1  0  0  0  0
 22 24  2  0  0  0  0
 22 47  1  0  0  0  0
 23 24  1  0  0  0  0
 23 48  1  0  0  0  0
 24 49  1  0  0  0  0
M  END
> <PUBCHEM_COMPOUND_CID>
10527

> <PUBCHEM_COMPOUND_CANONICALIZED>
1

> <PUBCHEM_CACTVS_COMPLEXITY>
357

> <PUBCHEM_CACTVS_HBOND_ACCEPTOR>
3

> <PUBCHEM_CACTVS_HBOND_DONOR>
1

> <PUBCHEM_CACTVS_ROTATABLE_BOND>
8

> <PUBCHEM_CACTVS_SUBSKEYS>
AAADceB6MAAEAAAAAAAAAAAAAAAAAAAAAAAwYAAAAAAAAAABQAAAHgAAAAAADgDhmAYyCIMABACIAiDSCAACAAAgAAAIiAEICIgIJjqAtRmGMAAmwAEIqAeYyOCPgAAAAAAAAAAAAAAAAAAAAAAAAAAAAA==

> <PUBCHEM_IUPAC_OPENEYE_NAME>
benzyl 2-[(dimethylamino)methyl]-2-phenyl-butanoate hydrochloride

> <PUBCHEM_IUPAC_CAS_NAME>
2-[(dimethylamino)methyl]-2-phenylbutanoic acid (phenylmethyl) ester hydrochloride

> <PUBCHEM_IUPAC_NAME>
benzyl 2-[(dimethylamino)methyl]-2-phenylbutanoate hydrochloride

> <PUBCHEM_IUPAC_SYSTEMATIC_NAME>
(phenylmethyl) 2-[(dimethylamino)methyl]-2-phenyl-butanoate hydrochloride

> <PUBCHEM_IUPAC_TRADITIONAL_NAME>
2-[(dimethylamino)methyl]-2-phenyl-butyric acid benzyl ester hydrochloride

> <PUBCHEM_IUPAC_INCHI>
InChI=1S/C20H25NO2.ClH/c1-4-20(16-21(2)3,18-13-9-6-10-14-18)19(22)23-15-17-11-7-5-8-12-17;/h5-14H,4,15-16H2,1-3H3;1H

> <PUBCHEM_IUPAC_INCHIKEY>
BVMNPUCCRIKXTQ-UHFFFAOYSA-N

> <PUBCHEM_EXACT_MASS>
347.165207

> <PUBCHEM_MOLECULAR_FORMULA>
C20H26ClNO2

> <PUBCHEM_MOLECULAR_WEIGHT>
347.87894

> <PUBCHEM_OPENEYE_CAN_SMILES>
CCC(CN(C)C)(C1=CC=CC=C1)C(=O)OCC2=CC=CC=C2.Cl

> <PUBCHEM_OPENEYE_ISO_SMILES>
CCC(CN(C)C)(C1=CC=CC=C1)C(=O)OCC2=CC=CC=C2.Cl

> <PUBCHEM_CACTVS_TPSA>
29.5

> <PUBCHEM_MONOISOTOPIC_WEIGHT>
347.165207

> <PUBCHEM_TOTAL_CHARGE>
0

> <PUBCHEM_HEAVY_ATOM_COUNT>
24

> <PUBCHEM_ATOM_DEF_STEREO_COUNT>
0

> <PUBCHEM_ATOM_UDEF_STEREO_COUNT>
1

> <PUBCHEM_BOND_DEF_STEREO_COUNT>
0

> <PUBCHEM_BOND_UDEF_STEREO_COUNT>
0

> <PUBCHEM_ISOTOPIC_ATOM_COUNT>
0

> <PUBCHEM_COMPONENT_COUNT>
2

> <PUBCHEM_CACTVS_TAUTO_COUNT>
1

> <PUBCHEM_COORDINATE_TYPE>
1
5
255

> <PUBCHEM_BONDANNOTATIONS>
11  15  8
12  16  8
15  18  8
16  18  8
19  20  8
19  21  8
20  22  8
21  23  8
22  24  8
23  24  8
5  8  3
8  11  8
8  12  8

$$$$

