14193
  -OEChem-06241222422D

 53 55  0     1  0  0  0  0  0999 V2000
    1.7320    1.1403    0.0000 S   0  0  0  0  0  0  0  0  0  0  0  0
    0.0000    1.1469    0.0000 Na  0  3  0  0  0  0  0  0  0  0  0  0
    9.2461    4.9445    0.0000 O   0  0  0  0  0  0  0  0  0  0  0  0
    2.5961    0.6369    0.0000 O   0  0  0  0  0  0  0  0  0  0  0  0
    0.8679    1.6436    0.0000 O   0  5  0  0  0  0  0  0  0  0  0  0
    1.2287    0.2762    0.0000 O   0  0  0  0  0  0  0  0  0  0  0  0
    2.2354    2.0044    0.0000 O   0  0  0  0  0  0  0  0  0  0  0  0
    6.2572    2.6893    0.0000 C   0  0  1  0  0  0  0  0  0  0  0  0
    7.1232    2.1893    0.0000 C   0  0  2  0  0  0  0  0  0  0  0  0
    7.9892    2.6893    0.0000 C   0  0  1  0  0  0  0  0  0  0  0  0
    7.9892    3.6893    0.0000 C   0  0  2  0  0  0  0  0  0  0  0  0
    5.3472    2.1824    0.0000 C   0  0  2  0  0  0  0  0  0  0  0  0
    6.2572    3.6893    0.0000 C   0  0  0  0  0  0  0  0  0  0  0  0
    7.1232    4.1893    0.0000 C   0  0  0  0  0  0  0  0  0  0  0  0
    8.9354    2.3845    0.0000 C   0  0  0  0  0  0  0  0  0  0  0  0
    7.1392    1.1477    0.0000 C   0  0  0  0  0  0  0  0  0  0  0  0
    5.3391    1.1408    0.0000 C   0  0  0  0  0  0  0  0  0  0  0  0
    4.4203    2.7465    0.0000 C   0  0  0  0  0  0  0  0  0  0  0  0
    8.9354    3.9940    0.0000 C   0  0  0  0  0  0  0  0  0  0  0  0
    9.5190    3.1893    0.0000 C   0  0  0  0  0  0  0  0  0  0  0  0
    6.2412    0.6200    0.0000 C   0  0  0  0  0  0  0  0  0  0  0  0
    7.9892    4.6893    0.0000 C   0  0  0  0  0  0  0  0  0  0  0  0
    5.3549    3.1824    0.0000 C   0  0  0  0  0  0  0  0  0  0  0  0
    4.4037    0.5911    0.0000 C   0  0  0  0  0  0  0  0  0  0  0  0
    3.4724    2.2185    0.0000 C   0  0  0  0  0  0  0  0  0  0  0  0
    3.4641    1.1336    0.0000 C   0  0  2  0  0  0  0  0  0  0  0  0
    6.9500    3.0893    0.0000 H   0  0  0  0  0  0  0  0  0  0  0  0
    7.8191    1.7946    0.0000 H   0  0  0  0  0  0  0  0  0  0  0  0
    8.0739    1.8937    0.0000 H   0  0  0  0  0  0  0  0  0  0  0  0
    6.0451    4.2719    0.0000 H   0  0  0  0  0  0  0  0  0  0  0  0
    5.6466    3.5816    0.0000 H   0  0  0  0  0  0  0  0  0  0  0  0
    6.7247    4.6642    0.0000 H   0  0  0  0  0  0  0  0  0  0  0  0
    7.5217    4.6642    0.0000 H   0  0  0  0  0  0  0  0  0  0  0  0
    9.4728    2.0753    0.0000 H   0  0  0  0  0  0  0  0  0  0  0  0
    8.6844    1.8176    0.0000 H   0  0  0  0  0  0  0  0  0  0  0  0
    7.7484    1.2632    0.0000 H   0  0  0  0  0  0  0  0  0  0  0  0
    7.3573    0.5674    0.0000 H   0  0  0  0  0  0  0  0  0  0  0  0
    4.8285    3.2131    0.0000 H   0  0  0  0  0  0  0  0  0  0  0  0
    4.0304    3.2285    0.0000 H   0  0  0  0  0  0  0  0  0  0  0  0
    9.9799    3.6040    0.0000 H   0  0  0  0  0  0  0  0  0  0  0  0
    9.9799    2.7745    0.0000 H   0  0  0  0  0  0  0  0  0  0  0  0
    6.2436    0.0000    0.0000 H   0  0  0  0  0  0  0  0  0  0  0  0
    7.3692    4.6893    0.0000 H   0  0  0  0  0  0  0  0  0  0  0  0
    7.9892    5.3093    0.0000 H   0  0  0  0  0  0  0  0  0  0  0  0
    8.6092    4.6893    0.0000 H   0  0  0  0  0  0  0  0  0  0  0  0
    4.7349    3.1872    0.0000 H   0  0  0  0  0  0  0  0  0  0  0  0
    5.3597    3.8024    0.0000 H   0  0  0  0  0  0  0  0  0  0  0  0
    5.9749    3.1776    0.0000 H   0  0  0  0  0  0  0  0  0  0  0  0
    4.0064    0.1151    0.0000 H   0  0  0  0  0  0  0  0  0  0  0  0
    4.8047    0.1182    0.0000 H   0  0  0  0  0  0  0  0  0  0  0  0
    2.8608    2.1172    0.0000 H   0  0  0  0  0  0  0  0  0  0  0  0
    3.2679    2.8038    0.0000 H   0  0  0  0  0  0  0  0  0  0  0  0
    2.9289    1.4467    0.0000 H   0  0  0  0  0  0  0  0  0  0  0  0
  1  4  1  0  0  0  0
  1  5  1  0  0  0  0
  1  6  2  0  0  0  0
  1  7  2  0  0  0  0
  3 19  2  0  0  0  0
 26  4  1  1  0  0  0
  8  9  1  0  0  0  0
  8 12  1  0  0  0  0
  8 13  1  0  0  0  0
  8 27  1  6  0  0  0
  9 10  1  0  0  0  0
  9 16  1  0  0  0  0
  9 28  1  1  0  0  0
 10 11  1  0  0  0  0
 10 15  1  0  0  0  0
 10 29  1  6  0  0  0
 11 14  1  0  0  0  0
 11 19  1  0  0  0  0
 11 22  1  1  0  0  0
 12 17  1  0  0  0  0
 12 18  1  0  0  0  0
 12 23  1  1  0  0  0
 13 14  1  0  0  0  0
 13 30  1  0  0  0  0
 13 31  1  0  0  0  0
 14 32  1  0  0  0  0
 14 33  1  0  0  0  0
 15 20  1  0  0  0  0
 15 34  1  0  0  0  0
 15 35  1  0  0  0  0
 16 21  1  0  0  0  0
 16 36  1  0  0  0  0
 16 37  1  0  0  0  0
 17 21  2  0  0  0  0
 17 24  1  0  0  0  0
 18 25  1  0  0  0  0
 18 38  1  0  0  0  0
 18 39  1  0  0  0  0
 19 20  1  0  0  0  0
 20 40  1  0  0  0  0
 20 41  1  0  0  0  0
 21 42  1  0  0  0  0
 22 43  1  0  0  0  0
 22 44  1  0  0  0  0
 22 45  1  0  0  0  0
 23 46  1  0  0  0  0
 23 47  1  0  0  0  0
 23 48  1  0  0  0  0
 24 26  1  0  0  0  0
 24 49  1  0  0  0  0
 24 50  1  0  0  0  0
 25 26  1  0  0  0  0
 25 51  1  0  0  0  0
 25 52  1  0  0  0  0
 26 53  1  0  0  0  0
M  CHG  2   2   1   5  -1
M  END
> <PUBCHEM_COMPOUND_CID>
14193

> <PUBCHEM_COMPOUND_CANONICALIZED>
1

> <PUBCHEM_CACTVS_COMPLEXITY>
707

> <PUBCHEM_CACTVS_HBOND_ACCEPTOR>
5

> <PUBCHEM_CACTVS_HBOND_DONOR>
0

> <PUBCHEM_CACTVS_ROTATABLE_BOND>
1

> <PUBCHEM_CACTVS_SUBSKEYS>
AAADceB4OCBAAAAAAAAAAAAAAAAAAYAAAAAwYIAAAAAAAGCAAAAAGgAAAAAADxSggAICAAAAAACIAqBSADAAAAAgAAAACAEAAAgAABIAAQAAAAAEwAAIAAOIyPCPgAAAAAAAAADAAAQAACAAAAAACAAAAA==

> <PUBCHEM_IUPAC_OPENEYE_NAME>
sodium [(3S,8R,9S,10R,13S,14S)-10,13-dimethyl-17-oxo-1,2,3,4,7,8,9,11,12,14,15,16-dodecahydrocyclopenta[a]phenanthren-3-yl] sulfate

> <PUBCHEM_IUPAC_CAS_NAME>
sodium [(3S,8R,9S,10R,13S,14S)-10,13-dimethyl-17-oxo-1,2,3,4,7,8,9,11,12,14,15,16-dodecahydrocyclopenta[a]phenanthren-3-yl] sulfate

> <PUBCHEM_IUPAC_NAME>
sodium [(3S,8R,9S,10R,13S,14S)-10,13-dimethyl-17-oxo-1,2,3,4,7,8,9,11,12,14,15,16-dodecahydrocyclopenta[a]phenanthren-3-yl] sulfate

> <PUBCHEM_IUPAC_SYSTEMATIC_NAME>
sodium [(3S,8R,9S,10R,13S,14S)-10,13-dimethyl-17-oxidanylidene-1,2,3,4,7,8,9,11,12,14,15,16-dodecahydrocyclopenta[a]phenanthren-3-yl] sulfate

> <PUBCHEM_IUPAC_TRADITIONAL_NAME>
sodium [(3S,8R,9S,10R,13S,14S)-17-keto-10,13-dimethyl-1,2,3,4,7,8,9,11,12,14,15,16-dodecahydrocyclopenta[a]phenanthren-3-yl] sulfate

> <PUBCHEM_IUPAC_INCHI>
InChI=1S/C19H28O5S.Na/c1-18-9-7-13(24-25(21,22)23)11-12(18)3-4-14-15-5-6-17(20)19(15,2)10-8-16(14)18;/h3,13-16H,4-11H2,1-2H3,(H,21,22,23);/q;+1/p-1/t13-,14-,15-,16-,18-,19-;/m0./s1

> <PUBCHEM_IUPAC_INCHIKEY>
GFJWACFSUSFUOG-ZJTJBYBXSA-M

> <PUBCHEM_EXACT_MASS>
390.147689

> <PUBCHEM_MOLECULAR_FORMULA>
C19H27NaO5S

> <PUBCHEM_MOLECULAR_WEIGHT>
390.469449

> <PUBCHEM_OPENEYE_CAN_SMILES>
CC12CCC3C(C1CCC2=O)CC=C4C3(CCC(C4)OS(=O)(=O)[O-])C.[Na+]

> <PUBCHEM_OPENEYE_ISO_SMILES>
C[C@]12CC[C@H]3[C@H]([C@@H]1CCC2=O)CC=C4[C@@]3(CC[C@@H](C4)OS(=O)(=O)[O-])C.[Na+]

> <PUBCHEM_CACTVS_TPSA>
91.9

> <PUBCHEM_MONOISOTOPIC_WEIGHT>
390.147689

> <PUBCHEM_TOTAL_CHARGE>
0

> <PUBCHEM_HEAVY_ATOM_COUNT>
26

> <PUBCHEM_ATOM_DEF_STEREO_COUNT>
6

> <PUBCHEM_ATOM_UDEF_STEREO_COUNT>
0

> <PUBCHEM_BOND_DEF_STEREO_COUNT>
0

> <PUBCHEM_BOND_UDEF_STEREO_COUNT>
0

> <PUBCHEM_ISOTOPIC_ATOM_COUNT>
0

> <PUBCHEM_COMPONENT_COUNT>
2

> <PUBCHEM_CACTVS_TAUTO_COUNT>
2

> <PUBCHEM_COORDINATE_TYPE>
1
5
255

> <PUBCHEM_BONDANNOTATIONS>
10  29  6
11  22  5
12  23  5
26  4  5
8  27  6
9  28  5

$$$$

