5624
  -OEChem-06261200472D

 82 87  0     1  0  0  0  0  0999 V2000
    6.0290   -3.5925    0.0000 O   0  0  0  0  0  0  0  0  0  0  0  0
    2.5369   -1.5578    0.0000 O   0  0  0  0  0  0  0  0  0  0  0  0
    8.4384   -2.2184    0.0000 N   0  0  0  0  0  0  0  0  0  0  0  0
    9.4450   -0.4902    0.0000 N   0  0  0  0  0  0  0  0  0  0  0  0
   12.4517    1.2303    0.0000 N   0  0  0  0  0  0  0  0  0  0  0  0
    9.4584    2.9739    0.0000 N   0  0  0  0  0  0  0  0  0  0  0  0
    9.4517    1.2418    0.0000 N   0  0  0  0  0  0  0  0  0  0  0  0
   10.9550    2.1021    0.0000 N   0  0  0  0  0  0  0  0  0  0  0  0
    6.9350   -3.0786    0.0000 C   0  0  3  0  0  0  0  0  0  0  0  0
    7.9350   -3.0825    0.0000 C   0  0  0  0  0  0  0  0  0  0  0  0
    6.9350   -2.0370    0.0000 C   0  0  0  0  0  0  0  0  0  0  0  0
    9.4383   -2.2222    0.0000 C   0  0  0  0  0  0  0  0  0  0  0  0
    7.9417   -1.3504    0.0000 C   0  0  0  0  0  0  0  0  0  0  0  0
    6.0290   -1.5232    0.0000 C   0  0  0  0  0  0  0  0  0  0  0  0
    9.9417   -1.3582    0.0000 C   0  0  0  0  0  0  0  0  0  0  0  0
    8.4450   -0.4864    0.0000 C   0  0  0  0  0  0  0  0  0  0  0  0
    7.4317   -3.9466    0.0000 C   0  0  0  0  0  0  0  0  0  0  0  0
    5.1350   -2.0578    0.0000 C   0  0  0  0  0  0  0  0  0  0  0  0
    5.1350   -3.0578    0.0000 C   0  0  0  0  0  0  0  0  0  0  0  0
    9.9484    0.3739    0.0000 C   0  0  0  0  0  0  0  0  0  0  0  0
    4.2690   -1.5578    0.0000 C   0  0  0  0  0  0  0  0  0  0  0  0
    4.2690   -3.5578    0.0000 C   0  0  0  0  0  0  0  0  0  0  0  0
    3.4030   -3.0578    0.0000 C   0  0  0  0  0  0  0  0  0  0  0  0
   13.0363    0.4190    0.0000 C   0  0  0  0  0  0  0  0  0  0  0  0
   13.0426    2.0370    0.0000 C   0  0  0  0  0  0  0  0  0  0  0  0
    3.4030   -2.0578    0.0000 C   0  0  0  0  0  0  0  0  0  0  0  0
   11.4517    1.2341    0.0000 C   0  0  0  0  0  0  0  0  0  0  0  0
   13.9924    1.7243    0.0000 C   0  0  0  0  0  0  0  0  0  0  0  0
   13.9886    0.7243    0.0000 C   0  0  0  0  0  0  0  0  0  0  0  0
   10.9483    0.3700    0.0000 C   0  0  0  0  0  0  0  0  0  0  0  0
    9.8686    3.8858    0.0000 C   0  0  0  0  0  0  0  0  0  0  0  0
    8.4643    3.0822    0.0000 C   0  0  0  0  0  0  0  0  0  0  0  0
    8.2601    4.0612    0.0000 C   0  0  0  0  0  0  0  0  0  0  0  0
    9.1281    4.5578    0.0000 C   0  0  0  0  0  0  0  0  0  0  0  0
    9.9550    2.1059    0.0000 C   0  0  0  0  0  0  0  0  0  0  0  0
    4.2690   -0.5578    0.0000 C   0  0  0  0  0  0  0  0  0  0  0  0
    4.2690   -4.5578    0.0000 C   0  0  0  0  0  0  0  0  0  0  0  0
    2.5369   -3.5578    0.0000 C   0  0  0  0  0  0  0  0  0  0  0  0
    7.8250   -3.6926    0.0000 H   0  0  0  0  0  0  0  0  0  0  0  0
    8.5168   -3.2968    0.0000 H   0  0  0  0  0  0  0  0  0  0  0  0
    7.5459   -2.1431    0.0000 H   0  0  0  0  0  0  0  0  0  0  0  0
    7.1441   -1.4533    0.0000 H   0  0  0  0  0  0  0  0  0  0  0  0
    7.4683   -0.9501    0.0000 H   0  0  0  0  0  0  0  0  0  0  0  0
    7.4652   -1.7472    0.0000 H   0  0  0  0  0  0  0  0  0  0  0  0
    9.3283   -2.8324    0.0000 H   0  0  0  0  0  0  0  0  0  0  0  0
   10.0201   -2.4366    0.0000 H   0  0  0  0  0  0  0  0  0  0  0  0
    6.4226   -1.0441    0.0000 H   0  0  0  0  0  0  0  0  0  0  0  0
    5.6244   -1.0534    0.0000 H   0  0  0  0  0  0  0  0  0  0  0  0
    8.5550    0.1238    0.0000 H   0  0  0  0  0  0  0  0  0  0  0  0
    7.8632   -0.2721    0.0000 H   0  0  0  0  0  0  0  0  0  0  0  0
   10.4151   -1.7585    0.0000 H   0  0  0  0  0  0  0  0  0  0  0  0
   10.4182   -0.9615    0.0000 H   0  0  0  0  0  0  0  0  0  0  0  0
    6.8936   -4.2545    0.0000 H   0  0  0  0  0  0  0  0  0  0  0  0
    7.7396   -4.4847    0.0000 H   0  0  0  0  0  0  0  0  0  0  0  0
    7.9698   -3.6386    0.0000 H   0  0  0  0  0  0  0  0  0  0  0  0
   13.2969    2.6024    0.0000 H   0  0  0  0  0  0  0  0  0  0  0  0
   12.5068    2.3491    0.0000 H   0  0  0  0  0  0  0  0  0  0  0  0
   12.4982    0.1111    0.0000 H   0  0  0  0  0  0  0  0  0  0  0  0
   13.2863   -0.1484    0.0000 H   0  0  0  0  0  0  0  0  0  0  0  0
   14.6088    1.6571    0.0000 H   0  0  0  0  0  0  0  0  0  0  0  0
   14.1237    2.3303    0.0000 H   0  0  0  0  0  0  0  0  0  0  0  0
   14.1151    0.1174    0.0000 H   0  0  0  0  0  0  0  0  0  0  0  0
   14.6054    0.7868    0.0000 H   0  0  0  0  0  0  0  0  0  0  0  0
   11.2563   -0.1681    0.0000 H   0  0  0  0  0  0  0  0  0  0  0  0
    7.8474    3.0198    0.0000 H   0  0  0  0  0  0  0  0  0  0  0  0
    8.4619    2.4622    0.0000 H   0  0  0  0  0  0  0  0  0  0  0  0
   10.4044    3.5738    0.0000 H   0  0  0  0  0  0  0  0  0  0  0  0
   10.2350    4.3860    0.0000 H   0  0  0  0  0  0  0  0  0  0  0  0
    8.0101    4.6285    0.0000 H   0  0  0  0  0  0  0  0  0  0  0  0
    7.6697    3.8718    0.0000 H   0  0  0  0  0  0  0  0  0  0  0  0
    9.5904    4.9709    0.0000 H   0  0  0  0  0  0  0  0  0  0  0  0
    8.7656    5.0608    0.0000 H   0  0  0  0  0  0  0  0  0  0  0  0
    4.8890   -0.5578    0.0000 H   0  0  0  0  0  0  0  0  0  0  0  0
    4.2690    0.0622    0.0000 H   0  0  0  0  0  0  0  0  0  0  0  0
    3.6490   -0.5578    0.0000 H   0  0  0  0  0  0  0  0  0  0  0  0
    3.6490   -4.5578    0.0000 H   0  0  0  0  0  0  0  0  0  0  0  0
    4.2690   -5.1778    0.0000 H   0  0  0  0  0  0  0  0  0  0  0  0
    4.8890   -4.5578    0.0000 H   0  0  0  0  0  0  0  0  0  0  0  0
    2.2269   -3.0209    0.0000 H   0  0  0  0  0  0  0  0  0  0  0  0
    2.0000   -3.8678    0.0000 H   0  0  0  0  0  0  0  0  0  0  0  0
    2.8469   -4.0948    0.0000 H   0  0  0  0  0  0  0  0  0  0  0  0
    2.0000   -1.8678    0.0000 H   0  0  0  0  0  0  0  0  0  0  0  0
  1  9  1  0  0  0  0
  1 19  1  0  0  0  0
  2 26  1  0  0  0  0
  2 82  1  0  0  0  0
  3 10  1  0  0  0  0
  3 12  1  0  0  0  0
  3 13  1  0  0  0  0
  4 15  1  0  0  0  0
  4 16  1  0  0  0  0
  4 20  1  0  0  0  0
  5 24  1  0  0  0  0
  5 25  1  0  0  0  0
  5 27  1  0  0  0  0
  6 31  1  0  0  0  0
  6 32  1  0  0  0  0
  6 35  1  0  0  0  0
  7 20  2  0  0  0  0
  7 35  1  0  0  0  0
  8 27  1  0  0  0  0
  8 35  2  0  0  0  0
  9 10  1  0  0  0  0
  9 11  1  0  0  0  0
  9 17  1  0  0  0  0
 10 39  1  0  0  0  0
 10 40  1  0  0  0  0
 11 14  1  0  0  0  0
 11 41  1  0  0  0  0
 11 42  1  0  0  0  0
 12 15  1  0  0  0  0
 12 45  1  0  0  0  0
 12 46  1  0  0  0  0
 13 16  1  0  0  0  0
 13 43  1  0  0  0  0
 13 44  1  0  0  0  0
 14 18  1  0  0  0  0
 14 47  1  0  0  0  0
 14 48  1  0  0  0  0
 15 51  1  0  0  0  0
 15 52  1  0  0  0  0
 16 49  1  0  0  0  0
 16 50  1  0  0  0  0
 17 53  1  0  0  0  0
 17 54  1  0  0  0  0
 17 55  1  0  0  0  0
 18 19  2  0  0  0  0
 18 21  1  0  0  0  0
 19 22  1  0  0  0  0
 20 30  1  0  0  0  0
 21 26  2  0  0  0  0
 21 36  1  0  0  0  0
 22 23  2  0  0  0  0
 22 37  1  0  0  0  0
 23 26  1  0  0  0  0
 23 38  1  0  0  0  0
 24 29  1  0  0  0  0
 24 58  1  0  0  0  0
 24 59  1  0  0  0  0
 25 28  1  0  0  0  0
 25 56  1  0  0  0  0
 25 57  1  0  0  0  0
 27 30  2  0  0  0  0
 28 29  1  0  0  0  0
 28 60  1  0  0  0  0
 28 61  1  0  0  0  0
 29 62  1  0  0  0  0
 29 63  1  0  0  0  0
 30 64  1  0  0  0  0
 31 34  1  0  0  0  0
 31 67  1  0  0  0  0
 31 68  1  0  0  0  0
 32 33  1  0  0  0  0
 32 65  1  0  0  0  0
 32 66  1  0  0  0  0
 33 34  1  0  0  0  0
 33 69  1  0  0  0  0
 33 70  1  0  0  0  0
 34 71  1  0  0  0  0
 34 72  1  0  0  0  0
 36 73  1  0  0  0  0
 36 74  1  0  0  0  0
 36 75  1  0  0  0  0
 37 76  1  0  0  0  0
 37 77  1  0  0  0  0
 37 78  1  0  0  0  0
 38 79  1  0  0  0  0
 38 80  1  0  0  0  0
 38 81  1  0  0  0  0
M  END
> <PUBCHEM_COMPOUND_CID>
5624

> <PUBCHEM_COMPOUND_CANONICALIZED>
1

> <PUBCHEM_CACTVS_COMPLEXITY>
783

> <PUBCHEM_CACTVS_HBOND_ACCEPTOR>
8

> <PUBCHEM_CACTVS_HBOND_DONOR>
1

> <PUBCHEM_CACTVS_ROTATABLE_BOND>
5

> <PUBCHEM_CACTVS_SUBSKEYS>
AAADcfB7sAAAAAAAAAAAAAAAAAAAAWLAAAA8WJEAAAAAAACRwAAAHgAACAAADETBmgQztpcIFgCgAiJiZACCiCkhIqABmCA8bJiObiLG+FqXfCiswBPYuCfQwPAOwQADAAAYAACCAAYAADAAAAAAAAAAAA==

> <PUBCHEM_IUPAC_OPENEYE_NAME>
2-[[4-(2,6-dipyrrolidin-1-ylpyrimidin-4-yl)piperazin-1-yl]methyl]-2,5,7,8-tetramethyl-chroman-6-ol

> <PUBCHEM_IUPAC_CAS_NAME>
2-[[4-[2,6-bis(1-pyrrolidinyl)-4-pyrimidinyl]-1-piperazinyl]methyl]-2,5,7,8-tetramethyl-3,4-dihydro-2H-1-benzopyran-6-ol

> <PUBCHEM_IUPAC_NAME>
2-[[4-(2,6-dipyrrolidin-1-ylpyrimidin-4-yl)piperazin-1-yl]methyl]-2,5,7,8-tetramethyl-3,4-dihydrochromen-6-ol

> <PUBCHEM_IUPAC_SYSTEMATIC_NAME>
2-[[4-(2,6-dipyrrolidin-1-ylpyrimidin-4-yl)piperazin-1-yl]methyl]-2,5,7,8-tetramethyl-3,4-dihydrochromen-6-ol

> <PUBCHEM_IUPAC_TRADITIONAL_NAME>
2-[[4-(2,6-dipyrrolidinopyrimidin-4-yl)piperazino]methyl]-2,5,7,8-tetramethyl-chroman-6-ol

> <PUBCHEM_IUPAC_INCHI>
InChI=1S/C30H44N6O2/c1-21-22(2)28-24(23(3)27(21)37)9-10-30(4,38-28)20-33-15-17-35(18-16-33)26-19-25(34-11-5-6-12-34)31-29(32-26)36-13-7-8-14-36/h19,37H,5-18,20H2,1-4H3

> <PUBCHEM_IUPAC_INCHIKEY>
KPZQRBACZSLMPH-UHFFFAOYSA-N

> <PUBCHEM_XLOGP3_AA>
5.4

> <PUBCHEM_EXACT_MASS>
520.352575

> <PUBCHEM_MOLECULAR_FORMULA>
C30H44N6O2

> <PUBCHEM_MOLECULAR_WEIGHT>
520.70936

> <PUBCHEM_OPENEYE_CAN_SMILES>
CC1=C(C(=C2CCC(OC2=C1C)(C)CN3CCN(CC3)C4=NC(=NC(=C4)N5CCCC5)N6CCCC6)C)O

> <PUBCHEM_OPENEYE_ISO_SMILES>
CC1=C(C(=C2CCC(OC2=C1C)(C)CN3CCN(CC3)C4=NC(=NC(=C4)N5CCCC5)N6CCCC6)C)O

> <PUBCHEM_CACTVS_TPSA>
68.2

> <PUBCHEM_MONOISOTOPIC_WEIGHT>
520.352575

> <PUBCHEM_TOTAL_CHARGE>
0

> <PUBCHEM_HEAVY_ATOM_COUNT>
38

> <PUBCHEM_ATOM_DEF_STEREO_COUNT>
0

> <PUBCHEM_ATOM_UDEF_STEREO_COUNT>
1

> <PUBCHEM_BOND_DEF_STEREO_COUNT>
0

> <PUBCHEM_BOND_UDEF_STEREO_COUNT>
0

> <PUBCHEM_ISOTOPIC_ATOM_COUNT>
0

> <PUBCHEM_COMPONENT_COUNT>
1

> <PUBCHEM_CACTVS_TAUTO_COUNT>
9

> <PUBCHEM_COORDINATE_TYPE>
1
5
255

> <PUBCHEM_BONDANNOTATIONS>
18  19  8
18  21  8
19  22  8
20  30  8
21  26  8
22  23  8
23  26  8
27  30  8
7  20  8
7  35  8
8  27  8
8  35  8
9  17  3

$$$$

