4868
  -OEChem-06261200232D

183184  0     1  0  0  0  0  0999 V2000
   24.0661    1.5120    0.0000 O   0  0  0  0  0  0  0  0  0  0  0  0
   21.5252    4.2327    0.0000 O   0  0  0  0  0  0  0  0  0  0  0  0
   15.2616    1.5120    0.0000 O   0  0  0  0  0  0  0  0  0  0  0  0
   17.8025    4.2327    0.0000 O   0  0  0  0  0  0  0  0  0  0  0  0
   23.8120   -2.2019    0.0000 O   0  0  0  0  0  0  0  0  0  0  0  0
   19.1024   -5.2663    0.0000 O   0  0  0  0  0  0  0  0  0  0  0  0
   14.8846   -1.4617    0.0000 O   0  0  0  0  0  0  0  0  0  0  0  0
   11.2154   -3.8148    0.0000 O   0  0  0  0  0  0  0  0  0  0  0  0
   20.9243   -4.5512    0.0000 O   0  0  0  0  0  0  0  0  0  0  0  0
   17.2364   -4.0443    0.0000 O   0  0  0  0  0  0  0  0  0  0  0  0
   11.4518   -0.3588    0.0000 O   0  0  0  0  0  0  0  0  0  0  0  0
    6.7850   -2.6438    0.0000 O   0  0  0  0  0  0  0  0  0  0  0  0
   10.2177   -3.7466    0.0000 O   0  0  0  0  0  0  0  0  0  0  0  0
   21.9812    2.7959    0.0000 N   0  0  0  0  0  0  0  0  0  0  0  0
   23.3272    0.1981    0.0000 N   0  0  0  0  0  0  0  0  0  0  0  0
   19.1638    3.5853    0.0000 N   0  0  0  0  0  0  0  0  0  0  0  0
   16.6639    2.0651    0.0000 N   0  0  0  0  0  0  0  0  0  0  0  0
   15.0028    0.2663    0.0000 N   0  0  0  0  0  0  0  0  0  0  0  0
   22.3474   -2.5588    0.0000 N   0  0  0  0  0  0  0  0  0  0  0  0
   12.8892   -1.3252    0.0000 N   0  0  0  0  0  0  0  0  0  0  0  0
   19.6638   -3.7245    0.0000 N   0  0  0  0  0  0  0  0  0  0  0  0
   16.9802   -2.5588    0.0000 N   0  0  0  0  0  0  0  0  0  0  0  0
   10.3359   -2.0186    0.0000 N   0  0  0  0  0  0  0  0  0  0  0  0
    8.2224   -3.6101    0.0000 N   0  0  0  0  0  0  0  0  0  0  0  0
   25.8829   -0.4603    0.0000 N   0  0  0  0  0  0  0  0  0  0  0  0
   15.0970    4.1886    0.0000 N   0  0  0  0  0  0  0  0  0  0  0  0
   11.5700    1.3692    0.0000 N   0  0  0  0  0  0  0  0  0  0  0  0
   23.6106   -4.8760    0.0000 N   0  0  0  0  0  0  0  0  0  0  0  0
    6.9032   -0.9157    0.0000 N   0  0  0  0  0  0  0  0  0  0  0  0
   22.6637    2.0651    0.0000 C   0  0  3  0  0  0  0  0  0  0  0  0
   23.4807    2.6417    0.0000 C   0  0  0  0  0  0  0  0  0  0  0  0
   23.3898    3.6376    0.0000 C   0  0  0  0  0  0  0  0  0  0  0  0
    3.5556   -5.8950    0.0000 C   0  0  3  0  0  0  0  0  0  0  0  0
   20.1638    3.5853    0.0000 C   0  0  3  0  0  0  0  0  0  0  0  0
    4.1135   -5.0652    0.0000 C   0  0  0  0  0  0  0  0  0  0  0  0
   23.2590   -0.7996    0.0000 C   0  0  3  0  0  0  0  0  0  0  0  0
   16.0004    0.1981    0.0000 C   0  0  3  0  0  0  0  0  0  0  0  0
   23.1238    1.1772    0.0000 C   0  0  0  0  0  0  0  0  0  0  0  0
    5.1112   -5.1334    0.0000 C   0  0  0  0  0  0  0  0  0  0  0  0
   17.3465    2.7959    0.0000 C   0  0  3  0  0  0  0  0  0  0  0  0
   16.0687   -0.7996    0.0000 C   0  0  0  0  0  0  0  0  0  0  0  0
   21.1268    3.3155    0.0000 C   0  0  0  0  0  0  0  0  0  0  0  0
    5.6691   -4.3035    0.0000 C   0  0  0  0  0  0  0  0  0  0  0  0
    2.5579   -5.8268    0.0000 C   0  0  0  0  0  0  0  0  0  0  0  0
   20.3000    4.5760    0.0000 C   0  0  0  0  0  0  0  0  0  0  0  0
   24.2067    4.2143    0.0000 C   0  0  0  0  0  0  0  0  0  0  0  0
   22.4819    4.0568    0.0000 C   0  0  0  0  0  0  0  0  0  0  0  0
   24.2381   -1.0030    0.0000 C   0  0  0  0  0  0  0  0  0  0  0  0
   21.5717   -3.1899    0.0000 C   0  0  3  0  0  0  0  0  0  0  0  0
   13.4472   -0.4953    0.0000 C   0  0  3  0  0  0  0  0  0  0  0  0
   16.7154    3.5716    0.0000 C   0  0  0  0  0  0  0  0  0  0  0  0
   16.2039    1.1772    0.0000 C   0  0  0  0  0  0  0  0  0  0  0  0
   18.2009    3.3155    0.0000 C   0  0  0  0  0  0  0  0  0  0  0  0
   16.4035   -1.7418    0.0000 C   0  0  0  0  0  0  0  0  0  0  0  0
   22.9241   -1.7418    0.0000 C   0  0  0  0  0  0  0  0  0  0  0  0
   18.6732   -3.5883    0.0000 C   0  0  3  0  0  0  0  0  0  0  0  0
    3.9953   -6.7932    0.0000 C   0  0  0  0  0  0  0  0  0  0  0  0
    6.6668   -4.3718    0.0000 C   0  0  0  0  0  0  0  0  0  0  0  0
   11.3336   -2.0868    0.0000 C   0  0  3  0  0  0  0  0  0  0  0  0
   14.4448   -0.5636    0.0000 C   0  0  0  0  0  0  0  0  0  0  0  0
    8.7803   -2.7802    0.0000 C   0  0  3  0  0  0  0  0  0  0  0  0
   13.0074    0.4028    0.0000 C   0  0  0  0  0  0  0  0  0  0  0  0
   22.0913   -4.0443    0.0000 C   0  0  0  0  0  0  0  0  0  0  0  0
   20.6545   -3.5883    0.0000 C   0  0  0  0  0  0  0  0  0  0  0  0
   18.4034   -4.5512    0.0000 C   0  0  3  0  0  0  0  0  0  0  0  0
   24.9038   -0.2569    0.0000 C   0  0  0  0  0  0  0  0  0  0  0  0
   19.5101    5.1892    0.0000 C   0  0  0  0  0  0  0  0  0  0  0  0
   17.7559   -3.1899    0.0000 C   0  0  0  0  0  0  0  0  0  0  0  0
   11.8916   -1.2570    0.0000 C   0  0  0  0  0  0  0  0  0  0  0  0
   11.7734   -2.9850    0.0000 C   0  0  3  0  0  0  0  0  0  0  0  0
    2.0000   -6.6567    0.0000 C   0  0  0  0  0  0  0  0  0  0  0  0
   15.7281    3.4129    0.0000 C   0  0  0  0  0  0  0  0  0  0  0  0
    7.2247   -3.5419    0.0000 C   0  0  0  0  0  0  0  0  0  0  0  0
    8.3406   -1.8821    0.0000 C   0  0  0  0  0  0  0  0  0  0  0  0
    9.7780   -2.8485    0.0000 C   0  0  0  0  0  0  0  0  0  0  0  0
   12.0098    0.4711    0.0000 C   0  0  0  0  0  0  0  0  0  0  0  0
   23.0911   -4.0216    0.0000 C   0  0  0  0  0  0  0  0  0  0  0  0
   17.4345   -4.7990    0.0000 C   0  0  0  0  0  0  0  0  0  0  0  0
    7.3429   -1.8139    0.0000 C   0  0  0  0  0  0  0  0  0  0  0  0
   12.7710   -3.0532    0.0000 C   0  0  0  0  0  0  0  0  0  0  0  0
   19.6463    6.1799    0.0000 C   0  0  0  0  0  0  0  0  0  0  0  0
   18.5841    4.8118    0.0000 C   0  0  0  0  0  0  0  0  0  0  0  0
   18.8564    6.7932    0.0000 C   0  0  0  0  0  0  0  0  0  0  0  0
   17.7942    5.4251    0.0000 C   0  0  0  0  0  0  0  0  0  0  0  0
   17.9304    6.4158    0.0000 C   0  0  0  0  0  0  0  0  0  0  0  0
   22.7271    2.6818    0.0000 H   0  0  0  0  0  0  0  0  0  0  0  0
   23.7449    2.0808    0.0000 H   0  0  0  0  0  0  0  0  0  0  0  0
   24.0790    2.8045    0.0000 H   0  0  0  0  0  0  0  0  0  0  0  0
   22.8832    3.2800    0.0000 H   0  0  0  0  0  0  0  0  0  0  0  0
    3.2097   -6.4096    0.0000 H   0  0  0  0  0  0  0  0  0  0  0  0
   19.7564    4.0526    0.0000 H   0  0  0  0  0  0  0  0  0  0  0  0
    4.2626   -4.4634    0.0000 H   0  0  0  0  0  0  0  0  0  0  0  0
    3.5468   -4.8139    0.0000 H   0  0  0  0  0  0  0  0  0  0  0  0
   23.7530   -0.4250    0.0000 H   0  0  0  0  0  0  0  0  0  0  0  0
   15.6258    0.6921    0.0000 H   0  0  0  0  0  0  0  0  0  0  0  0
   22.3724    3.2768    0.0000 H   0  0  0  0  0  0  0  0  0  0  0  0
    4.9621   -5.7352    0.0000 H   0  0  0  0  0  0  0  0  0  0  0  0
    5.6780   -5.3847    0.0000 H   0  0  0  0  0  0  0  0  0  0  0  0
   16.7269    2.8171    0.0000 H   0  0  0  0  0  0  0  0  0  0  0  0
   15.4893   -0.5787    0.0000 H   0  0  0  0  0  0  0  0  0  0  0  0
   16.6757   -0.6734    0.0000 H   0  0  0  0  0  0  0  0  0  0  0  0
   23.9458    0.2404    0.0000 H   0  0  0  0  0  0  0  0  0  0  0  0
    5.8182   -3.7017    0.0000 H   0  0  0  0  0  0  0  0  0  0  0  0
    5.1024   -4.0522    0.0000 H   0  0  0  0  0  0  0  0  0  0  0  0
    2.7070   -5.2250    0.0000 H   0  0  0  0  0  0  0  0  0  0  0  0
    1.9912   -5.5755    0.0000 H   0  0  0  0  0  0  0  0  0  0  0  0
   20.8902    4.3862    0.0000 H   0  0  0  0  0  0  0  0  0  0  0  0
   20.5894    5.1243    0.0000 H   0  0  0  0  0  0  0  0  0  0  0  0
   24.5643    3.7078    0.0000 H   0  0  0  0  0  0  0  0  0  0  0  0
   24.7133    4.5718    0.0000 H   0  0  0  0  0  0  0  0  0  0  0  0
   23.8492    4.7208    0.0000 H   0  0  0  0  0  0  0  0  0  0  0  0
   22.7417    4.6197    0.0000 H   0  0  0  0  0  0  0  0  0  0  0  0
   21.9190    4.3167    0.0000 H   0  0  0  0  0  0  0  0  0  0  0  0
   22.2220    3.4939    0.0000 H   0  0  0  0  0  0  0  0  0  0  0  0
   24.0085   -1.5789    0.0000 H   0  0  0  0  0  0  0  0  0  0  0  0
   24.7654   -1.3292    0.0000 H   0  0  0  0  0  0  0  0  0  0  0  0
   22.1827   -3.2952    0.0000 H   0  0  0  0  0  0  0  0  0  0  0  0
   13.7198   -1.0522    0.0000 H   0  0  0  0  0  0  0  0  0  0  0  0
   19.0794    4.1995    0.0000 H   0  0  0  0  0  0  0  0  0  0  0  0
   17.2570    3.8734    0.0000 H   0  0  0  0  0  0  0  0  0  0  0  0
   16.5122    4.1574    0.0000 H   0  0  0  0  0  0  0  0  0  0  0  0
   15.7861   -1.6855    0.0000 H   0  0  0  0  0  0  0  0  0  0  0  0
   16.9540   -1.4566    0.0000 H   0  0  0  0  0  0  0  0  0  0  0  0
   16.1574    2.4226    0.0000 H   0  0  0  0  0  0  0  0  0  0  0  0
   19.0132   -4.1067    0.0000 H   0  0  0  0  0  0  0  0  0  0  0  0
   14.7301    0.8232    0.0000 H   0  0  0  0  0  0  0  0  0  0  0  0
    3.4385   -7.0658    0.0000 H   0  0  0  0  0  0  0  0  0  0  0  0
    4.2680   -7.3500    0.0000 H   0  0  0  0  0  0  0  0  0  0  0  0
    4.5522   -6.5206    0.0000 H   0  0  0  0  0  0  0  0  0  0  0  0
    6.5177   -4.9736    0.0000 H   0  0  0  0  0  0  0  0  0  0  0  0
    7.2336   -4.6231    0.0000 H   0  0  0  0  0  0  0  0  0  0  0  0
   11.0610   -1.5300    0.0000 H   0  0  0  0  0  0  0  0  0  0  0  0
   22.8006   -2.9820    0.0000 H   0  0  0  0  0  0  0  0  0  0  0  0
    8.1618   -2.7379    0.0000 H   0  0  0  0  0  0  0  0  0  0  0  0
   13.6031    0.5746    0.0000 H   0  0  0  0  0  0  0  0  0  0  0  0
   12.9417    1.0193    0.0000 H   0  0  0  0  0  0  0  0  0  0  0  0
   21.5137   -4.2696    0.0000 H   0  0  0  0  0  0  0  0  0  0  0  0
   22.2129   -4.6523    0.0000 H   0  0  0  0  0  0  0  0  0  0  0  0
   13.1619   -1.8820    0.0000 H   0  0  0  0  0  0  0  0  0  0  0  0
   18.2361   -5.1482    0.0000 H   0  0  0  0  0  0  0  0  0  0  0  0
   19.6638   -4.3445    0.0000 H   0  0  0  0  0  0  0  0  0  0  0  0
   25.1335    0.3191    0.0000 H   0  0  0  0  0  0  0  0  0  0  0  0
   24.3765    0.0693    0.0000 H   0  0  0  0  0  0  0  0  0  0  0  0
   16.5271   -2.9820    0.0000 H   0  0  0  0  0  0  0  0  0  0  0  0
   11.1548   -2.9427    0.0000 H   0  0  0  0  0  0  0  0  0  0  0  0
    1.4855   -6.3108    0.0000 H   0  0  0  0  0  0  0  0  0  0  0  0
    1.6541   -7.1712    0.0000 H   0  0  0  0  0  0  0  0  0  0  0  0
    2.5145   -7.0026    0.0000 H   0  0  0  0  0  0  0  0  0  0  0  0
   15.1865    3.1111    0.0000 H   0  0  0  0  0  0  0  0  0  0  0  0
   15.9313    2.8272    0.0000 H   0  0  0  0  0  0  0  0  0  0  0  0
    8.9363   -1.7103    0.0000 H   0  0  0  0  0  0  0  0  0  0  0  0
    8.2749   -1.2656    0.0000 H   0  0  0  0  0  0  0  0  0  0  0  0
   10.0633   -1.4618    0.0000 H   0  0  0  0  0  0  0  0  0  0  0  0
    8.4951   -4.1670    0.0000 H   0  0  0  0  0  0  0  0  0  0  0  0
   11.4140    0.2993    0.0000 H   0  0  0  0  0  0  0  0  0  0  0  0
   12.0755   -0.1454    0.0000 H   0  0  0  0  0  0  0  0  0  0  0  0
   23.6687   -3.7963    0.0000 H   0  0  0  0  0  0  0  0  0  0  0  0
   22.9695   -3.4136    0.0000 H   0  0  0  0  0  0  0  0  0  0  0  0
   17.2809   -4.1984    0.0000 H   0  0  0  0  0  0  0  0  0  0  0  0
   16.8339   -4.9527    0.0000 H   0  0  0  0  0  0  0  0  0  0  0  0
   17.5882   -5.3997    0.0000 H   0  0  0  0  0  0  0  0  0  0  0  0
    6.7472   -1.9857    0.0000 H   0  0  0  0  0  0  0  0  0  0  0  0
    7.4087   -2.4304    0.0000 H   0  0  0  0  0  0  0  0  0  0  0  0
   12.7287   -3.6718    0.0000 H   0  0  0  0  0  0  0  0  0  0  0  0
   13.3896   -3.0955    0.0000 H   0  0  0  0  0  0  0  0  0  0  0  0
   12.8133   -2.4346    0.0000 H   0  0  0  0  0  0  0  0  0  0  0  0
   20.2204    6.4139    0.0000 H   0  0  0  0  0  0  0  0  0  0  0  0
   18.4997    4.1976    0.0000 H   0  0  0  0  0  0  0  0  0  0  0  0
   26.2957    0.0023    0.0000 H   0  0  0  0  0  0  0  0  0  0  0  0
   26.0772   -1.0491    0.0000 H   0  0  0  0  0  0  0  0  0  0  0  0
   14.4848    4.0902    0.0000 H   0  0  0  0  0  0  0  0  0  0  0  0
   15.3179    4.7680    0.0000 H   0  0  0  0  0  0  0  0  0  0  0  0
   18.9351   -5.8633    0.0000 H   0  0  0  0  0  0  0  0  0  0  0  0
   11.4881   -4.3717    0.0000 H   0  0  0  0  0  0  0  0  0  0  0  0
   18.9408    7.4074    0.0000 H   0  0  0  0  0  0  0  0  0  0  0  0
   17.2201    5.1911    0.0000 H   0  0  0  0  0  0  0  0  0  0  0  0
   10.9515    1.4115    0.0000 H   0  0  0  0  0  0  0  0  0  0  0  0
   11.9159    1.8837    0.0000 H   0  0  0  0  0  0  0  0  0  0  0  0
   24.2305   -4.8619    0.0000 H   0  0  0  0  0  0  0  0  0  0  0  0
   23.3129   -5.4198    0.0000 H   0  0  0  0  0  0  0  0  0  0  0  0
   17.4407    6.7960    0.0000 H   0  0  0  0  0  0  0  0  0  0  0  0
    6.2846   -0.8734    0.0000 H   0  0  0  0  0  0  0  0  0  0  0  0
    7.2491   -0.4012    0.0000 H   0  0  0  0  0  0  0  0  0  0  0  0
  1 38  2  0  0  0  0
  2 42  2  0  0  0  0
  3 52  2  0  0  0  0
  4 53  2  0  0  0  0
  5 55  2  0  0  0  0
  6 65  1  0  0  0  0
  6173  1  0  0  0  0
  7 60  2  0  0  0  0
  8 70  1  0  0  0  0
  8174  1  0  0  0  0
  9 64  2  0  0  0  0
 10 68  2  0  0  0  0
 11 69  2  0  0  0  0
 12 73  2  0  0  0  0
 13 75  2  0  0  0  0
 14 30  1  0  0  0  0
 14 42  1  0  0  0  0
 14 96  1  0  0  0  0
 15 36  1  0  0  0  0
 15 38  1  0  0  0  0
 15102  1  0  0  0  0
 16 34  1  0  0  0  0
 16 53  1  0  0  0  0
 16119  1  0  0  0  0
 17 40  1  0  0  0  0
 17 52  1  0  0  0  0
 17124  1  0  0  0  0
 18 37  1  0  0  0  0
 18 60  1  0  0  0  0
 18126  1  0  0  0  0
 19 49  1  0  0  0  0
 19 55  1  0  0  0  0
 19133  1  0  0  0  0
 20 50  1  0  0  0  0
 20 69  1  0  0  0  0
 20139  1  0  0  0  0
 21 56  1  0  0  0  0
 21 64  1  0  0  0  0
 21141  1  0  0  0  0
 22 54  1  0  0  0  0
 22 68  1  0  0  0  0
 22144  1  0  0  0  0
 23 59  1  0  0  0  0
 23 75  1  0  0  0  0
 23153  1  0  0  0  0
 24 61  1  0  0  0  0
 24 73  1  0  0  0  0
 24154  1  0  0  0  0
 25 66  1  0  0  0  0
 25169  1  0  0  0  0
 25170  1  0  0  0  0
 26 72  1  0  0  0  0
 26171  1  0  0  0  0
 26172  1  0  0  0  0
 27 76  1  0  0  0  0
 27177  1  0  0  0  0
 27178  1  0  0  0  0
 28 77  1  0  0  0  0
 28179  1  0  0  0  0
 28180  1  0  0  0  0
 29 79  1  0  0  0  0
 29182  1  0  0  0  0
 29183  1  0  0  0  0
 30 31  1  0  0  0  0
 30 38  1  0  0  0  0
 30 86  1  0  0  0  0
 31 32  1  0  0  0  0
 31 87  1  0  0  0  0
 31 88  1  0  0  0  0
 32 46  1  0  0  0  0
 32 47  1  0  0  0  0
 32 89  1  0  0  0  0
 33 35  1  0  0  0  0
 33 44  1  0  0  0  0
 33 57  1  0  0  0  0
 33 90  1  0  0  0  0
 34 42  1  0  0  0  0
 34 45  1  0  0  0  0
 34 91  1  0  0  0  0
 35 39  1  0  0  0  0
 35 92  1  0  0  0  0
 35 93  1  0  0  0  0
 36 48  1  0  0  0  0
 36 55  1  0  0  0  0
 36 94  1  0  0  0  0
 37 41  1  0  0  0  0
 37 52  1  0  0  0  0
 37 95  1  0  0  0  0
 39 43  1  0  0  0  0
 39 97  1  0  0  0  0
 39 98  1  0  0  0  0
 40 51  1  0  0  0  0
 40 53  1  0  0  0  0
 40 99  1  0  0  0  0
 41 54  1  0  0  0  0
 41100  1  0  0  0  0
 41101  1  0  0  0  0
 43 58  1  0  0  0  0
 43103  1  0  0  0  0
 43104  1  0  0  0  0
 44 71  1  0  0  0  0
 44105  1  0  0  0  0
 44106  1  0  0  0  0
 45 67  1  0  0  0  0
 45107  1  0  0  0  0
 45108  1  0  0  0  0
 46109  1  0  0  0  0
 46110  1  0  0  0  0
 46111  1  0  0  0  0
 47112  1  0  0  0  0
 47113  1  0  0  0  0
 47114  1  0  0  0  0
 48 66  1  0  0  0  0
 48115  1  0  0  0  0
 48116  1  0  0  0  0
 49 63  1  0  0  0  0
 49 64  1  0  0  0  0
 49117  1  0  0  0  0
 50 60  1  0  0  0  0
 50 62  1  0  0  0  0
 50118  1  0  0  0  0
 51 72  1  0  0  0  0
 51120  1  0  0  0  0
 51121  1  0  0  0  0
 54122  1  0  0  0  0
 54123  1  0  0  0  0
 56 65  1  0  0  0  0
 56 68  1  0  0  0  0
 56125  1  0  0  0  0
 57127  1  0  0  0  0
 57128  1  0  0  0  0
 57129  1  0  0  0  0
 58 73  1  0  0  0  0
 58130  1  0  0  0  0
 58131  1  0  0  0  0
 59 69  1  0  0  0  0
 59 70  1  0  0  0  0
 59132  1  0  0  0  0
 61 74  1  0  0  0  0
 61 75  1  0  0  0  0
 61134  1  0  0  0  0
 62 76  1  0  0  0  0
 62135  1  0  0  0  0
 62136  1  0  0  0  0
 63 77  1  0  0  0  0
 63137  1  0  0  0  0
 63138  1  0  0  0  0
 65 78  1  0  0  0  0
 65140  1  0  0  0  0
 66142  1  0  0  0  0
 66143  1  0  0  0  0
 67 81  2  0  0  0  0
 67 82  1  0  0  0  0
 70 80  1  0  0  0  0
 70145  1  0  0  0  0
 71146  1  0  0  0  0
 71147  1  0  0  0  0
 71148  1  0  0  0  0
 72149  1  0  0  0  0
 72150  1  0  0  0  0
 74 79  1  0  0  0  0
 74151  1  0  0  0  0
 74152  1  0  0  0  0
 76155  1  0  0  0  0
 76156  1  0  0  0  0
 77157  1  0  0  0  0
 77158  1  0  0  0  0
 78159  1  0  0  0  0
 78160  1  0  0  0  0
 78161  1  0  0  0  0
 79162  1  0  0  0  0
 79163  1  0  0  0  0
 80164  1  0  0  0  0
 80165  1  0  0  0  0
 80166  1  0  0  0  0
 81 83  1  0  0  0  0
 81167  1  0  0  0  0
 82 84  2  0  0  0  0
 82168  1  0  0  0  0
 83 85  2  0  0  0  0
 83175  1  0  0  0  0
 84 85  1  0  0  0  0
 84176  1  0  0  0  0
 85181  1  0  0  0  0
M  END
> <PUBCHEM_COMPOUND_CID>
4868

> <PUBCHEM_COMPOUND_CANONICALIZED>
1

> <PUBCHEM_CACTVS_COMPLEXITY>
2150

> <PUBCHEM_CACTVS_HBOND_ACCEPTOR>
18

> <PUBCHEM_CACTVS_HBOND_DONOR>
18

> <PUBCHEM_CACTVS_ROTATABLE_BOND>
29

> <PUBCHEM_CACTVS_SUBSKEYS>
AAADcfB//AAAAAAAAAAAAAAAAAAAAAAAAAAwAAAAAAAAAAABAAAAHgAQCAAADTzhmAYyAILAAgCIAiFSEAACAAAgAAAIiIGIAIgKcDaA0TGUYAAitgCYiAcciMCOAAAAAAAAAAAAAAAAAAAAAAAAAAAAAA==

> <PUBCHEM_IUPAC_OPENEYE_NAME>
N-[3-amino-1-[[1-[[3-amino-1-[[6,9,18-tris(2-aminoethyl)-15-benzyl-3-(1-hydroxyethyl)-12-isobutyl-2,5,8,11,14,17,20-heptaoxo-1,4,7,10,13,16,19-heptazacyclotricos-21-yl]carbamoyl]propyl]carbamoyl]-2-hydroxy-propyl]carbamoyl]propyl]-6-methyl-octanamide

> <PUBCHEM_IUPAC_CAS_NAME>
N-[4-amino-1-[[1-[[4-amino-1-oxo-1-[[6,9,18-tris(2-aminoethyl)-3-(1-hydroxyethyl)-12-(2-methylpropyl)-2,5,8,11,14,17,20-heptaoxo-15-(phenylmethyl)-1,4,7,10,13,16,19-heptazacyclotricos-21-yl]amino]butan-2-yl]amino]-3-hydroxy-1-oxobutan-2-yl]amino]-1-oxobutan-2-yl]-6-methyloctanamide

> <PUBCHEM_IUPAC_NAME>
N-[4-amino-1-[[1-[[4-amino-1-oxo-1-[[6,9,18-tris(2-aminoethyl)-15-benzyl-3-(1-hydroxyethyl)-12-(2-methylpropyl)-2,5,8,11,14,17,20-heptaoxo-1,4,7,10,13,16,19-heptazacyclotricos-21-yl]amino]butan-2-yl]amino]-3-hydroxy-1-oxobutan-2-yl]amino]-1-oxobutan-2-yl]-6-methyloctanamide

> <PUBCHEM_IUPAC_SYSTEMATIC_NAME>
N-[4-azanyl-1-[[1-[[4-azanyl-1-oxidanylidene-1-[[6,9,18-tris(2-azanylethyl)-3-(1-hydroxyethyl)-12-(2-methylpropyl)-2,5,8,11,14,17,20-heptakis(oxidanylidene)-15-(phenylmethyl)-1,4,7,10,13,16,19-heptazacyclotricos-21-yl]amino]butan-2-yl]amino]-3-oxidanyl-1-oxidanylidene-butan-2-yl]amino]-1-oxidanylidene-butan-2-yl]-6-methyl-octanamide

> <PUBCHEM_IUPAC_TRADITIONAL_NAME>
N-[3-amino-1-[[1-[[3-amino-1-[[6,9,18-tris(2-aminoethyl)-15-benzyl-3-(1-hydroxyethyl)-12-isobutyl-2,5,8,11,14,17,20-heptaketo-1,4,7,10,13,16,19-heptazacyclotricos-21-yl]carbamoyl]propyl]carbamoyl]-2-hydroxy-propyl]carbamoyl]propyl]-6-methyl-caprylamide

> <PUBCHEM_IUPAC_INCHI>
InChI=1S/C56H98N16O13/c1-7-32(4)13-11-12-16-44(75)63-36(17-23-57)51(80)72-46(34(6)74)56(85)68-39(20-26-60)48(77)67-41-22-28-62-55(84)45(33(5)73)71-52(81)40(21-27-61)65-47(76)37(18-24-58)66-53(82)42(29-31(2)3)69-54(83)43(30-35-14-9-8-10-15-35)70-49(78)38(19-25-59)64-50(41)79/h8-10,14-15,31-34,36-43,45-46,73-74H,7,11-13,16-30,57-61H2,1-6H3,(H,62,84)(H,63,75)(H,64,79)(H,65,76)(H,66,82)(H,67,77)(H,68,85)(H,69,83)(H,70,78)(H,71,81)(H,72,80)

> <PUBCHEM_IUPAC_INCHIKEY>
WQVJHHACXVLGBL-UHFFFAOYSA-N

> <PUBCHEM_XLOGP3_AA>
-2.5

> <PUBCHEM_EXACT_MASS>
1202.749927

> <PUBCHEM_MOLECULAR_FORMULA>
C56H98N16O13

> <PUBCHEM_MOLECULAR_WEIGHT>
1203.47672

> <PUBCHEM_OPENEYE_CAN_SMILES>
CCC(C)CCCCC(=O)NC(CCN)C(=O)NC(C(C)O)C(=O)NC(CCN)C(=O)NC1CCNC(=O)C(NC(=O)C(NC(=O)C(NC(=O)C(NC(=O)C(NC(=O)C(NC1=O)CCN)CC2=CC=CC=C2)CC(C)C)CCN)CCN)C(C)O

> <PUBCHEM_OPENEYE_ISO_SMILES>
CCC(C)CCCCC(=O)NC(CCN)C(=O)NC(C(C)O)C(=O)NC(CCN)C(=O)NC1CCNC(=O)C(NC(=O)C(NC(=O)C(NC(=O)C(NC(=O)C(NC(=O)C(NC1=O)CCN)CC2=CC=CC=C2)CC(C)C)CCN)CCN)C(C)O

> <PUBCHEM_CACTVS_TPSA>
491

> <PUBCHEM_MONOISOTOPIC_WEIGHT>
1202.749927

> <PUBCHEM_TOTAL_CHARGE>
0

> <PUBCHEM_HEAVY_ATOM_COUNT>
85

> <PUBCHEM_ATOM_DEF_STEREO_COUNT>
0

> <PUBCHEM_ATOM_UDEF_STEREO_COUNT>
13

> <PUBCHEM_BOND_DEF_STEREO_COUNT>
0

> <PUBCHEM_BOND_UDEF_STEREO_COUNT>
0

> <PUBCHEM_ISOTOPIC_ATOM_COUNT>
0

> <PUBCHEM_COMPONENT_COUNT>
1

> <PUBCHEM_CACTVS_TAUTO_COUNT>
1001

> <PUBCHEM_COORDINATE_TYPE>
1
5
255

> <PUBCHEM_BONDANNOTATIONS>
37  18  3
30  31  3
33  57  3
34  45  3
36  48  3
40  51  3
49  63  3
50  62  3
56  68  3
59  69  3
65  6  3
61  74  3
67  81  8
67  82  8
70  8  3
81  83  8
82  84  8
83  85  8
84  85  8

$$$$

