155957
  -OEChem-07051213063D

 19 21  0     1  0  0  0  0  0999 V2000
    2.1125    1.1786    0.7793 O   0  0  0  0  0  0  0  0  0  0  0  0
    1.2414    1.1697   -0.3621 C   0  0  1  0  0  0  0  0  0  0  0  0
    2.4152    0.2119   -0.2377 C   0  0  2  0  0  0  0  0  0  0  0  0
   -0.1460    0.6012   -0.1764 C   0  0  0  0  0  0  0  0  0  0  0  0
    2.0781   -1.2133   -0.1056 C   0  0  0  0  0  0  0  0  0  0  0  0
   -0.3362   -0.7939   -0.0164 C   0  0  0  0  0  0  0  0  0  0  0  0
    0.8288   -1.6971   -0.0085 C   0  0  0  0  0  0  0  0  0  0  0  0
   -1.2777    1.4316   -0.1632 C   0  0  0  0  0  0  0  0  0  0  0  0
   -1.6254   -1.3190    0.1428 C   0  0  0  0  0  0  0  0  0  0  0  0
   -2.5587    0.9016   -0.0018 C   0  0  0  0  0  0  0  0  0  0  0  0
   -2.7319   -0.4713    0.1495 C   0  0  0  0  0  0  0  0  0  0  0  0
    1.3558    1.9853   -1.0695 H   0  0  0  0  0  0  0  0  0  0  0  0
    3.2852    0.4094   -0.8538 H   0  0  0  0  0  0  0  0  0  0  0  0
    2.9080   -1.9142   -0.0883 H   0  0  0  0  0  0  0  0  0  0  0  0
    0.6576   -2.7642    0.0869 H   0  0  0  0  0  0  0  0  0  0  0  0
   -1.1616    2.5065   -0.2823 H   0  0  0  0  0  0  0  0  0  0  0  0
   -1.7800   -2.3883    0.2659 H   0  0  0  0  0  0  0  0  0  0  0  0
   -3.4213    1.5617    0.0044 H   0  0  0  0  0  0  0  0  0  0  0  0
   -3.7295   -0.8822    0.2744 H   0  0  0  0  0  0  0  0  0  0  0  0
  1  2  1  0  0  0  0
  1  3  1  0  0  0  0
  2  3  1  0  0  0  0
  2  4  1  0  0  0  0
  2 12  1  0  0  0  0
  3  5  1  0  0  0  0
  3 13  1  0  0  0  0
  4  6  1  0  0  0  0
  4  8  2  0  0  0  0
  5  7  2  0  0  0  0
  5 14  1  0  0  0  0
  6  7  1  0  0  0  0
  6  9  2  0  0  0  0
  7 15  1  0  0  0  0
  8 10  1  0  0  0  0
  8 16  1  0  0  0  0
  9 11  1  0  0  0  0
  9 17  1  0  0  0  0
 10 11  2  0  0  0  0
 10 18  1  0  0  0  0
 11 19  1  0  0  0  0
M  END
> <PUBCHEM_COMPOUND_CID>
155957

> <PUBCHEM_CONFORMER_RMSD>
0.4

> <PUBCHEM_CONFORMER_DIVERSEORDER>
1

> <PUBCHEM_MMFF94_PARTIAL_CHARGES>
19
1 -0.3
10 -0.15
11 -0.15
12 0.1
13 0.1
14 0.15
15 0.15
16 0.15
17 0.15
18 0.15
19 0.15
2 0.08
3 0.09
4 -0.03
5 -0.19
6 0.03
7 -0.18
8 -0.15
9 -0.15

> <PUBCHEM_EFFECTIVE_ROTOR_COUNT>
0.2

> <PUBCHEM_PHARMACOPHORE_FEATURES>
3
1 1 acceptor
6 4 6 8 9 10 11 rings
7 1 2 3 4 5 6 7 rings

> <PUBCHEM_HEAVY_ATOM_COUNT>
11

> <PUBCHEM_ATOM_DEF_STEREO_COUNT>
2

> <PUBCHEM_ATOM_UDEF_STEREO_COUNT>
0

> <PUBCHEM_BOND_DEF_STEREO_COUNT>
0

> <PUBCHEM_BOND_UDEF_STEREO_COUNT>
0

> <PUBCHEM_ISOTOPIC_ATOM_COUNT>
0

> <PUBCHEM_COMPONENT_COUNT>
1

> <PUBCHEM_CACTVS_TAUTO_COUNT>
1

> <PUBCHEM_CONFORMER_ID>
0002613500000001

> <PUBCHEM_MMFF94_ENERGY>
26.3737

> <PUBCHEM_FEATURE_SELFOVERLAP>
15.233

> <PUBCHEM_SHAPE_FINGERPRINT>
10857977 72 18271526386344454035
12524768 44 18338794623643373479
12897270 3 18410855451670135111
14325111 11 18410855464507765525
15775835 57 18334849506987028609
16945 1 18411981330065204935
17844478 74 18130771379033842433
17990270 104 18337952401894346726
193761 8 15168547823454837935
19973954 147 18411133662471720173
20201158 50 18338518641755741503
21040471 1 18339358548538338774
21501502 16 18411417349314461743
23402655 69 18264783206618502029
23463225 33 18272092729538362306
23552423 10 18272928319256620767
23559900 14 18119240904316759838
241688 4 18199183073680736744
2748010 2 18411698794279149023
369184 2 18113338591857494593
5084963 1 18409442587691822400
528886 8 18411421700063546155
53812653 166 18335703862234957448
66348 1 18267303320853298103

> <PUBCHEM_SHAPE_MULTIPOLES>
220.51
3.78
1.78
0.67
0.6
0.18
0.02
-0.19
0.16
-0.14
0.02
-0.1
-0.06
0.17

> <PUBCHEM_SHAPE_SELFOVERLAP>
484.88

> <PUBCHEM_SHAPE_VOLUME>
118.4

> <PUBCHEM_COORDINATE_TYPE>
2
5
10

$$$$

