91480
  -OEChem-07051213062D

 27 28  0     1  0  0  0  0  0999 V2000
    5.2820   -0.5784    0.0000 O   0  0  0  0  0  0  0  0  0  0  0  0
    4.1942    2.7694    0.0000 O   0  0  0  0  0  0  0  0  0  0  0  0
    3.3852    1.1816    0.0000 N   0  0  0  0  0  0  0  0  0  0  0  0
    5.0032    1.1816    0.0000 N   0  0  0  0  0  0  0  0  0  0  0  0
    3.6942    0.2306    0.0000 C   0  0  3  0  0  0  0  0  0  0  0  0
    2.7431   -0.0784    0.0000 C   0  0  0  0  0  0  0  0  0  0  0  0
    3.6942   -0.7694    0.0000 C   0  0  0  0  0  0  0  0  0  0  0  0
    4.6942    0.2306    0.0000 C   0  0  0  0  0  0  0  0  0  0  0  0
    4.1942    1.7694    0.0000 C   0  0  0  0  0  0  0  0  0  0  0  0
    2.0000    0.5907    0.0000 C   0  0  0  0  0  0  0  0  0  0  0  0
    2.8282   -1.2694    0.0000 C   0  0  0  0  0  0  0  0  0  0  0  0
    4.5602   -1.2694    0.0000 C   0  0  0  0  0  0  0  0  0  0  0  0
    2.8282   -2.2694    0.0000 C   0  0  0  0  0  0  0  0  0  0  0  0
    4.5602   -2.2694    0.0000 C   0  0  0  0  0  0  0  0  0  0  0  0
    3.6942   -2.7694    0.0000 C   0  0  0  0  0  0  0  0  0  0  0  0
    2.2546   -0.4601    0.0000 H   0  0  0  0  0  0  0  0  0  0  0  0
    3.0342   -0.6259    0.0000 H   0  0  0  0  0  0  0  0  0  0  0  0
    2.7955    1.3732    0.0000 H   0  0  0  0  0  0  0  0  0  0  0  0
    5.5929    1.3732    0.0000 H   0  0  0  0  0  0  0  0  0  0  0  0
    2.4149    1.0514    0.0000 H   0  0  0  0  0  0  0  0  0  0  0  0
    1.5392    1.0056    0.0000 H   0  0  0  0  0  0  0  0  0  0  0  0
    1.5851    0.1299    0.0000 H   0  0  0  0  0  0  0  0  0  0  0  0
    2.2912   -0.9594    0.0000 H   0  0  0  0  0  0  0  0  0  0  0  0
    5.0972   -0.9594    0.0000 H   0  0  0  0  0  0  0  0  0  0  0  0
    2.2912   -2.5794    0.0000 H   0  0  0  0  0  0  0  0  0  0  0  0
    5.0972   -2.5794    0.0000 H   0  0  0  0  0  0  0  0  0  0  0  0
    3.6942   -3.3894    0.0000 H   0  0  0  0  0  0  0  0  0  0  0  0
  1  8  2  0  0  0  0
  2  9  2  0  0  0  0
  3  5  1  0  0  0  0
  3  9  1  0  0  0  0
  3 18  1  0  0  0  0
  4  8  1  0  0  0  0
  4  9  1  0  0  0  0
  4 19  1  0  0  0  0
  5  6  1  0  0  0  0
  5  7  1  0  0  0  0
  5  8  1  0  0  0  0
  6 10  1  0  0  0  0
  6 16  1  0  0  0  0
  6 17  1  0  0  0  0
  7 11  2  0  0  0  0
  7 12  1  0  0  0  0
 10 20  1  0  0  0  0
 10 21  1  0  0  0  0
 10 22  1  0  0  0  0
 11 13  1  0  0  0  0
 11 23  1  0  0  0  0
 12 14  2  0  0  0  0
 12 24  1  0  0  0  0
 13 15  2  0  0  0  0
 13 25  1  0  0  0  0
 14 15  1  0  0  0  0
 14 26  1  0  0  0  0
 15 27  1  0  0  0  0
M  END
> <PUBCHEM_COMPOUND_CID>
91480

> <PUBCHEM_COMPOUND_CANONICALIZED>
1

> <PUBCHEM_CACTVS_COMPLEXITY>
284

> <PUBCHEM_CACTVS_HBOND_ACCEPTOR>
2

> <PUBCHEM_CACTVS_HBOND_DONOR>
2

> <PUBCHEM_CACTVS_ROTATABLE_BOND>
2

> <PUBCHEM_CACTVS_SUBSKEYS>
AAADccBzMAAAAAAAAAAAAAAAAAAAAWAAAAAwAAAAAAAAAAABAAAAHgAQAAAADIiBmAAzAILAAACIAiFSEACCAAAgAAAIiAGABIiIYDKAlTGUIAholSIIiAcYiMCOgAAAAAAAAAAAAAAAAAAAAAAAAAAAAA==

> <PUBCHEM_IUPAC_OPENEYE_NAME>
5-ethyl-5-phenyl-imidazolidine-2,4-dione

> <PUBCHEM_IUPAC_CAS_NAME>
5-ethyl-5-phenylimidazolidine-2,4-dione

> <PUBCHEM_IUPAC_NAME>
5-ethyl-5-phenylimidazolidine-2,4-dione

> <PUBCHEM_IUPAC_SYSTEMATIC_NAME>
5-ethyl-5-phenyl-imidazolidine-2,4-dione

> <PUBCHEM_IUPAC_TRADITIONAL_NAME>
5-ethyl-5-phenyl-hydantoin

> <PUBCHEM_IUPAC_INCHI>
InChI=1S/C11H12N2O2/c1-2-11(8-6-4-3-5-7-8)9(14)12-10(15)13-11/h3-7H,2H2,1H3,(H2,12,13,14,15)

> <PUBCHEM_IUPAC_INCHIKEY>
UDTWZFJEMMUFLC-UHFFFAOYSA-N

> <PUBCHEM_XLOGP3>
1.5

> <PUBCHEM_EXACT_MASS>
204.089878

> <PUBCHEM_MOLECULAR_FORMULA>
C11H12N2O2

> <PUBCHEM_MOLECULAR_WEIGHT>
204.22518

> <PUBCHEM_OPENEYE_CAN_SMILES>
CCC1(C(=O)NC(=O)N1)C2=CC=CC=C2

> <PUBCHEM_OPENEYE_ISO_SMILES>
CCC1(C(=O)NC(=O)N1)C2=CC=CC=C2

> <PUBCHEM_CACTVS_TPSA>
58.2

> <PUBCHEM_MONOISOTOPIC_WEIGHT>
204.089878

> <PUBCHEM_TOTAL_CHARGE>
0

> <PUBCHEM_HEAVY_ATOM_COUNT>
15

> <PUBCHEM_ATOM_DEF_STEREO_COUNT>
0

> <PUBCHEM_ATOM_UDEF_STEREO_COUNT>
1

> <PUBCHEM_BOND_DEF_STEREO_COUNT>
0

> <PUBCHEM_BOND_UDEF_STEREO_COUNT>
0

> <PUBCHEM_ISOTOPIC_ATOM_COUNT>
0

> <PUBCHEM_COMPONENT_COUNT>
1

> <PUBCHEM_CACTVS_TAUTO_COUNT>
5

> <PUBCHEM_COORDINATE_TYPE>
1
5
255

> <PUBCHEM_BONDANNOTATIONS>
11  13  8
12  14  8
13  15  8
14  15  8
5  6  3
7  11  8
7  12  8

$$$$

