10345799
  -OEChem-07051213092D

 66 71  0     1  0  0  0  0  0999 V2000
    9.7248    0.3166    0.0000 O   0  0  0  0  0  0  0  0  0  0  0  0
    9.3042   -1.4419    0.0000 O   0  0  0  0  0  0  0  0  0  0  0  0
   10.9535   -0.9131    0.0000 O   0  0  0  0  0  0  0  0  0  0  0  0
    8.6480    3.2941    0.0000 O   0  0  0  0  0  0  0  0  0  0  0  0
    9.9149   -3.3464    0.0000 O   0  0  0  0  0  0  0  0  0  0  0  0
   11.8695   -3.7698    0.0000 O   0  0  0  0  0  0  0  0  0  0  0  0
   13.2135   -2.2886    0.0000 O   0  0  0  0  0  0  0  0  0  0  0  0
   13.5802   -0.5959    0.0000 O   0  0  0  0  0  0  0  0  0  0  0  0
    6.9654    2.7441    0.0000 N   0  0  0  0  0  0  0  0  0  0  0  0
    4.5124    1.6266    0.0000 N   0  0  0  0  0  0  0  0  0  0  0  0
    7.6200    0.7810    0.0000 C   0  0  1  0  0  0  0  0  0  0  0  0
    6.2962    2.0009    0.0000 C   0  0  1  0  0  0  0  0  0  0  0  0
    6.6028    1.0054    0.0000 C   0  0  0  0  0  0  0  0  0  0  0  0
    7.9393   -0.2559    0.0000 C   0  0  2  0  0  0  0  0  0  0  0  0
    8.3170    1.5551    0.0000 C   0  0  0  0  0  0  0  0  0  0  0  0
    5.3181    2.2088    0.0000 C   0  0  0  0  0  0  0  0  0  0  0  0
    6.6564    3.6951    0.0000 C   0  0  0  0  0  0  0  0  0  0  0  0
    8.9988   -0.4897    0.0000 C   0  0  1  0  0  0  0  0  0  0  0  0
    5.0091    3.1599    0.0000 C   0  0  0  0  0  0  0  0  0  0  0  0
    7.9875    2.5432    0.0000 C   0  0  0  0  0  0  0  0  0  0  0  0
    5.6782    3.9030    0.0000 C   0  0  0  0  0  0  0  0  0  0  0  0
    9.3816    1.3459    0.0000 C   0  0  0  0  0  0  0  0  0  0  0  0
    4.0150    3.1573    0.0000 C   0  0  0  0  0  0  0  0  0  0  0  0
    7.2616   -0.9913    0.0000 C   0  0  0  0  0  0  0  0  0  0  0  0
   10.2815   -1.6536    0.0000 C   0  0  2  0  0  0  0  0  0  0  0  0
    3.7086    2.2116    0.0000 C   0  0  0  0  0  0  0  0  0  0  0  0
   10.5869   -2.6059    0.0000 C   0  0  1  0  0  0  0  0  0  0  0  0
   11.5642   -2.8175    0.0000 C   0  0  2  0  0  0  0  0  0  0  0  0
   12.2362   -2.0770    0.0000 C   0  0  1  0  0  0  0  0  0  0  0  0
   11.9308   -1.1247    0.0000 C   0  0  1  0  0  0  0  0  0  0  0  0
    3.3334    3.9368    0.0000 C   0  0  0  0  0  0  0  0  0  0  0  0
    2.6994    1.9799    0.0000 C   0  0  0  0  0  0  0  0  0  0  0  0
    7.5596   -1.9459    0.0000 C   0  0  0  0  0  0  0  0  0  0  0  0
   12.6028   -0.3842    0.0000 C   0  0  0  0  0  0  0  0  0  0  0  0
    2.3191    3.7284    0.0000 C   0  0  0  0  0  0  0  0  0  0  0  0
    2.0000    2.7434    0.0000 C   0  0  0  0  0  0  0  0  0  0  0  0
    7.0440    0.1560    0.0000 H   0  0  0  0  0  0  0  0  0  0  0  0
    5.7226    1.3736    0.0000 H   0  0  0  0  0  0  0  0  0  0  0  0
    5.9878    0.9270    0.0000 H   0  0  0  0  0  0  0  0  0  0  0  0
    6.5748    0.3861    0.0000 H   0  0  0  0  0  0  0  0  0  0  0  0
    7.3346   -0.1189    0.0000 H   0  0  0  0  0  0  0  0  0  0  0  0
    7.2703    3.7814    0.0000 H   0  0  0  0  0  0  0  0  0  0  0  0
    6.6780    4.3147    0.0000 H   0  0  0  0  0  0  0  0  0  0  0  0
    8.5813   -0.9480    0.0000 H   0  0  0  0  0  0  0  0  0  0  0  0
    5.9105    4.4779    0.0000 H   0  0  0  0  0  0  0  0  0  0  0  0
    5.1524    4.2316    0.0000 H   0  0  0  0  0  0  0  0  0  0  0  0
    9.7911    1.8114    0.0000 H   0  0  0  0  0  0  0  0  0  0  0  0
    4.5113    1.0066    0.0000 H   0  0  0  0  0  0  0  0  0  0  0  0
    6.6567   -0.8554    0.0000 H   0  0  0  0  0  0  0  0  0  0  0  0
    9.8649   -2.1128    0.0000 H   0  0  0  0  0  0  0  0  0  0  0  0
   10.7762   -3.1962    0.0000 H   0  0  0  0  0  0  0  0  0  0  0  0
   12.1702   -2.9488    0.0000 H   0  0  0  0  0  0  0  0  0  0  0  0
   12.4255   -2.6674    0.0000 H   0  0  0  0  0  0  0  0  0  0  0  0
   11.7415   -0.5343    0.0000 H   0  0  0  0  0  0  0  0  0  0  0  0
    3.5313    4.5244    0.0000 H   0  0  0  0  0  0  0  0  0  0  0  0
    2.5152    1.3879    0.0000 H   0  0  0  0  0  0  0  0  0  0  0  0
    7.1395   -2.4018    0.0000 H   0  0  0  0  0  0  0  0  0  0  0  0
    8.1646   -2.0818    0.0000 H   0  0  0  0  0  0  0  0  0  0  0  0
   12.8373    0.1898    0.0000 H   0  0  0  0  0  0  0  0  0  0  0  0
   12.0783   -0.0536    0.0000 H   0  0  0  0  0  0  0  0  0  0  0  0
    1.9056    4.1904    0.0000 H   0  0  0  0  0  0  0  0  0  0  0  0
   10.1042   -3.9368    0.0000 H   0  0  0  0  0  0  0  0  0  0  0  0
    1.3942    2.6116    0.0000 H   0  0  0  0  0  0  0  0  0  0  0  0
   12.4755   -3.9010    0.0000 H   0  0  0  0  0  0  0  0  0  0  0  0
   13.4028   -2.8790    0.0000 H   0  0  0  0  0  0  0  0  0  0  0  0
   13.9968   -0.1367    0.0000 H   0  0  0  0  0  0  0  0  0  0  0  0
  1 18  1  0  0  0  0
  1 22  1  0  0  0  0
 18  2  1  1  0  0  0
 25  2  1  6  0  0  0
  3 25  1  0  0  0  0
  3 30  1  0  0  0  0
  4 20  2  0  0  0  0
 27  5  1  1  0  0  0
  5 62  1  0  0  0  0
 28  6  1  6  0  0  0
  6 64  1  0  0  0  0
 29  7  1  1  0  0  0
  7 65  1  0  0  0  0
  8 34  1  0  0  0  0
  8 66  1  0  0  0  0
  9 12  1  0  0  0  0
  9 17  1  0  0  0  0
  9 20  1  0  0  0  0
 10 16  1  0  0  0  0
 10 26  1  0  0  0  0
 10 48  1  0  0  0  0
 11 13  1  0  0  0  0
 11 14  1  0  0  0  0
 11 15  1  0  0  0  0
 11 37  1  1  0  0  0
 12 13  1  0  0  0  0
 12 16  1  0  0  0  0
 12 38  1  6  0  0  0
 13 39  1  0  0  0  0
 13 40  1  0  0  0  0
 14 18  1  0  0  0  0
 14 24  1  6  0  0  0
 14 41  1  0  0  0  0
 15 20  1  0  0  0  0
 15 22  2  0  0  0  0
 16 19  2  0  0  0  0
 17 21  1  0  0  0  0
 17 42  1  0  0  0  0
 17 43  1  0  0  0  0
 18 44  1  0  0  0  0
 19 21  1  0  0  0  0
 19 23  1  0  0  0  0
 21 45  1  0  0  0  0
 21 46  1  0  0  0  0
 22 47  1  0  0  0  0
 23 26  1  0  0  0  0
 23 31  2  0  0  0  0
 24 33  2  0  0  0  0
 24 49  1  0  0  0  0
 25 27  1  0  0  0  0
 25 50  1  0  0  0  0
 26 32  2  0  0  0  0
 27 28  1  0  0  0  0
 27 51  1  0  0  0  0
 28 29  1  0  0  0  0
 28 52  1  0  0  0  0
 29 30  1  0  0  0  0
 29 53  1  0  0  0  0
 30 34  1  6  0  0  0
 30 54  1  0  0  0  0
 31 35  1  0  0  0  0
 31 55  1  0  0  0  0
 32 36  1  0  0  0  0
 32 56  1  0  0  0  0
 33 57  1  0  0  0  0
 33 58  1  0  0  0  0
 34 59  1  0  0  0  0
 34 60  1  0  0  0  0
 35 36  2  0  0  0  0
 35 61  1  0  0  0  0
 36 63  1  0  0  0  0
M  END
> <PUBCHEM_COMPOUND_CID>
10345799

> <PUBCHEM_COMPOUND_CANONICALIZED>
1

> <PUBCHEM_CACTVS_COMPLEXITY>
899

> <PUBCHEM_CACTVS_HBOND_ACCEPTOR>
8

> <PUBCHEM_CACTVS_HBOND_DONOR>
5

> <PUBCHEM_CACTVS_ROTATABLE_BOND>
4

> <PUBCHEM_CACTVS_SUBSKEYS>
AAADceB7PAAAAAAAAAAAAAAAAAAAAWAAAAA8WJECAAAAAFix8AAAHgAQCAAADTzxngcwyPPJlgCoAyVyVACCiCAhIiAImSE4ZNgZcPLAkZG2YAhl1gDPyIfY/e+egAAAAAACAAAAAAAAAAQAAAAAAAAAAA==

> <PUBCHEM_IUPAC_INCHI>
InChI=1S/C26H30N2O8/c1-2-12-15-9-18-20-14(13-5-3-4-6-17(13)27-20)7-8-28(18)24(33)16(15)11-34-25(12)36-26-23(32)22(31)21(30)19(10-29)35-26/h2-6,11-12,15,18-19,21-23,25-27,29-32H,1,7-10H2/t12-,15+,18+,19-,21-,22+,23-,25+,26+/m1/s1

> <PUBCHEM_IUPAC_INCHIKEY>
LBRPLJCNRZUXLS-IUNANRIWSA-N

> <PUBCHEM_XLOGP3_AA>
0.4

> <PUBCHEM_EXACT_MASS>
498.200216

> <PUBCHEM_MOLECULAR_FORMULA>
C26H30N2O8

> <PUBCHEM_MOLECULAR_WEIGHT>
498.525

> <PUBCHEM_OPENEYE_CAN_SMILES>
C=CC1C2CC3C4=C(CCN3C(=O)C2=COC1OC5C(C(C(C(O5)CO)O)O)O)C6=CC=CC=C6N4

> <PUBCHEM_OPENEYE_ISO_SMILES>
C=C[C@@H]1[C@@H]2C[C@H]3C4=C(CCN3C(=O)C2=CO[C@H]1O[C@H]5[C@@H]([C@H]([C@@H]([C@H](O5)CO)O)O)O)C6=CC=CC=C6N4

> <PUBCHEM_CACTVS_TPSA>
145

> <PUBCHEM_MONOISOTOPIC_WEIGHT>
498.200216

> <PUBCHEM_TOTAL_CHARGE>
0

> <PUBCHEM_HEAVY_ATOM_COUNT>
36

> <PUBCHEM_ATOM_DEF_STEREO_COUNT>
9

> <PUBCHEM_ATOM_UDEF_STEREO_COUNT>
0

> <PUBCHEM_BOND_DEF_STEREO_COUNT>
0

> <PUBCHEM_BOND_UDEF_STEREO_COUNT>
0

> <PUBCHEM_ISOTOPIC_ATOM_COUNT>
0

> <PUBCHEM_COMPONENT_COUNT>
1

> <PUBCHEM_CACTVS_TAUTO_COUNT>
1

> <PUBCHEM_COORDINATE_TYPE>
1
5
255

> <PUBCHEM_BONDANNOTATIONS>
10  16  8
10  26  8
11  37  5
12  38  6
14  24  6
16  19  8
19  23  8
18  2  5
25  2  6
23  26  8
23  31  8
26  32  8
30  34  6
31  35  8
32  36  8
35  36  8
27  5  5
28  6  6
29  7  5

$$$$

