11954139
  -OEChem-07051213072D

 49 52  0     1  0  0  0  0  0999 V2000
    2.8641   -2.0032    0.0000 O   0  0  0  0  0  0  0  0  0  0  0  0
    8.2572    1.0491    0.0000 C   0  0  1  0  0  0  0  0  0  0  0  0
    8.2572    0.0491    0.0000 C   0  0  2  0  0  0  0  0  0  0  0  0
    7.3912   -0.4509    0.0000 C   0  0  1  0  0  0  0  0  0  0  0  0
    9.2034    1.3538    0.0000 C   0  0  0  0  0  0  0  0  0  0  0  0
    9.2034   -0.2556    0.0000 C   0  0  0  0  0  0  0  0  0  0  0  0
    6.5251    0.0491    0.0000 C   0  0  2  0  0  0  0  0  0  0  0  0
    7.3912    1.5491    0.0000 C   0  0  0  0  0  0  0  0  0  0  0  0
    9.7870    0.5491    0.0000 C   0  0  2  0  0  0  0  0  0  0  0  0
    6.5251    1.0491    0.0000 C   0  0  0  0  0  0  0  0  0  0  0  0
    7.4072   -1.4924    0.0000 C   0  0  0  0  0  0  0  0  0  0  0  0
    8.2572    2.0491    0.0000 C   0  0  0  0  0  0  0  0  0  0  0  0
    5.6151   -0.4578    0.0000 C   0  0  0  0  0  0  0  0  0  0  0  0
    6.5092   -2.0202    0.0000 C   0  0  0  0  0  0  0  0  0  0  0  0
   10.7870    0.5491    0.0000 C   0  0  0  0  0  0  0  0  0  0  0  0
    5.6071   -1.4994    0.0000 C   0  0  0  0  0  0  0  0  0  0  0  0
    4.6883    0.1063    0.0000 C   0  0  0  0  0  0  0  0  0  0  0  0
    4.6717   -2.0491    0.0000 C   0  0  0  0  0  0  0  0  0  0  0  0
    3.7404   -0.4216    0.0000 C   0  0  0  0  0  0  0  0  0  0  0  0
    3.7320   -1.5066    0.0000 C   0  0  0  0  0  0  0  0  0  0  0  0
    2.0000   -1.4999    0.0000 C   0  0  0  0  0  0  0  0  0  0  0  0
    8.3471   -0.7961    0.0000 H   0  0  0  0  0  0  0  0  0  0  0  0
    8.1305   -0.8702    0.0000 H   0  0  0  0  0  0  0  0  0  0  0  0
    9.7408    1.6630    0.0000 H   0  0  0  0  0  0  0  0  0  0  0  0
    8.9524    1.9207    0.0000 H   0  0  0  0  0  0  0  0  0  0  0  0
    8.9524   -0.8226    0.0000 H   0  0  0  0  0  0  0  0  0  0  0  0
    9.7408   -0.5649    0.0000 H   0  0  0  0  0  0  0  0  0  0  0  0
    7.2612    0.4741    0.0000 H   0  0  0  0  0  0  0  0  0  0  0  0
    7.7897    2.0240    0.0000 H   0  0  0  0  0  0  0  0  0  0  0  0
    6.9926    2.0240    0.0000 H   0  0  0  0  0  0  0  0  0  0  0  0
   10.0687   -0.0032    0.0000 H   0  0  0  0  0  0  0  0  0  0  0  0
    6.3131    1.6317    0.0000 H   0  0  0  0  0  0  0  0  0  0  0  0
    5.9145    0.9414    0.0000 H   0  0  0  0  0  0  0  0  0  0  0  0
    7.6252   -2.0728    0.0000 H   0  0  0  0  0  0  0  0  0  0  0  0
    8.0164   -1.3769    0.0000 H   0  0  0  0  0  0  0  0  0  0  0  0
    8.8772    2.0491    0.0000 H   0  0  0  0  0  0  0  0  0  0  0  0
    8.2572    2.6691    0.0000 H   0  0  0  0  0  0  0  0  0  0  0  0
    7.6372    2.0491    0.0000 H   0  0  0  0  0  0  0  0  0  0  0  0
    6.1119   -2.4962    0.0000 H   0  0  0  0  0  0  0  0  0  0  0  0
    6.9101   -2.4931    0.0000 H   0  0  0  0  0  0  0  0  0  0  0  0
   10.7870   -0.0709    0.0000 H   0  0  0  0  0  0  0  0  0  0  0  0
   11.4070    0.5491    0.0000 H   0  0  0  0  0  0  0  0  0  0  0  0
   10.7870    1.1691    0.0000 H   0  0  0  0  0  0  0  0  0  0  0  0
    4.7002    0.7262    0.0000 H   0  0  0  0  0  0  0  0  0  0  0  0
    4.6741   -2.6691    0.0000 H   0  0  0  0  0  0  0  0  0  0  0  0
    3.2071   -0.1054    0.0000 H   0  0  0  0  0  0  0  0  0  0  0  0
    2.3121   -0.9642    0.0000 H   0  0  0  0  0  0  0  0  0  0  0  0
    1.4643   -1.1878    0.0000 H   0  0  0  0  0  0  0  0  0  0  0  0
    1.6879   -2.0356    0.0000 H   0  0  0  0  0  0  0  0  0  0  0  0
  1 20  1  0  0  0  0
  1 21  1  0  0  0  0
  2  3  1  0  0  0  0
  2  5  1  0  0  0  0
  2  8  1  0  0  0  0
  2 12  1  1  0  0  0
  3  4  1  0  0  0  0
  3  6  1  0  0  0  0
  3 22  1  6  0  0  0
  4  7  1  0  0  0  0
  4 11  1  0  0  0  0
  4 23  1  1  0  0  0
  5  9  1  0  0  0  0
  5 24  1  0  0  0  0
  5 25  1  0  0  0  0
  6  9  1  0  0  0  0
  6 26  1  0  0  0  0
  6 27  1  0  0  0  0
  7 10  1  0  0  0  0
  7 13  1  0  0  0  0
  7 28  1  6  0  0  0
  8 10  1  0  0  0  0
  8 29  1  0  0  0  0
  8 30  1  0  0  0  0
  9 15  1  1  0  0  0
  9 31  1  0  0  0  0
 10 32  1  0  0  0  0
 10 33  1  0  0  0  0
 11 14  1  0  0  0  0
 11 34  1  0  0  0  0
 11 35  1  0  0  0  0
 12 36  1  0  0  0  0
 12 37  1  0  0  0  0
 12 38  1  0  0  0  0
 13 16  2  0  0  0  0
 13 17  1  0  0  0  0
 14 16  1  0  0  0  0
 14 39  1  0  0  0  0
 14 40  1  0  0  0  0
 15 41  1  0  0  0  0
 15 42  1  0  0  0  0
 15 43  1  0  0  0  0
 16 18  1  0  0  0  0
 17 19  2  0  0  0  0
 17 44  1  0  0  0  0
 18 20  2  0  0  0  0
 18 45  1  0  0  0  0
 19 20  1  0  0  0  0
 19 46  1  0  0  0  0
 21 47  1  0  0  0  0
 21 48  1  0  0  0  0
 21 49  1  0  0  0  0
M  END
> <PUBCHEM_COMPOUND_CID>
11954139

> <PUBCHEM_COMPOUND_CANONICALIZED>
1

> <PUBCHEM_CACTVS_COMPLEXITY>
391

> <PUBCHEM_CACTVS_HBOND_ACCEPTOR>
1

> <PUBCHEM_CACTVS_HBOND_DONOR>
0

> <PUBCHEM_CACTVS_ROTATABLE_BOND>
1

> <PUBCHEM_CACTVS_SUBSKEYS>
AAADceB4IAAAAAAAAAAAAAAAAAAAAYAAAAAwYMAAAAAAAGDBAAAAGgAAAAAADwSAmAIyBoAABACAAiBCAAACCAAgIAAIiAAGCIgMJiKEMRqAMCAkwBEIqAeAwPAPoAABAAAQAADAAAYAACAAAQAACAAAAA==

> <PUBCHEM_IUPAC_OPENEYE_NAME>
(8S,9S,13R,14S,16S)-3-methoxy-13,16-dimethyl-6,7,8,9,11,12,14,15,16,17-decahydrocyclopenta[a]phenanthrene

> <PUBCHEM_IUPAC_CAS_NAME>
(8S,9S,13R,14S,16S)-3-methoxy-13,16-dimethyl-6,7,8,9,11,12,14,15,16,17-decahydrocyclopenta[a]phenanthrene

> <PUBCHEM_IUPAC_NAME>
(8S,9S,13R,14S,16S)-3-methoxy-13,16-dimethyl-6,7,8,9,11,12,14,15,16,17-decahydrocyclopenta[a]phenanthrene

> <PUBCHEM_IUPAC_SYSTEMATIC_NAME>
(8S,9S,13R,14S,16S)-3-methoxy-13,16-dimethyl-6,7,8,9,11,12,14,15,16,17-decahydrocyclopenta[a]phenanthrene

> <PUBCHEM_IUPAC_TRADITIONAL_NAME>
(8S,9S,13R,14S,16S)-3-methoxy-13,16-dimethyl-6,7,8,9,11,12,14,15,16,17-decahydrocyclopenta[a]phenanthrene

> <PUBCHEM_IUPAC_INCHI>
InChI=1S/C20H28O/c1-13-10-19-18-6-4-14-11-15(21-3)5-7-16(14)17(18)8-9-20(19,2)12-13/h5,7,11,13,17-19H,4,6,8-10,12H2,1-3H3/t13-,17+,18+,19-,20+/m0/s1

> <PUBCHEM_IUPAC_INCHIKEY>
SJXGJPUURFDYMO-WWYBLAPGSA-N

> <PUBCHEM_XLOGP3_AA>
6.2

> <PUBCHEM_EXACT_MASS>
284.214016

> <PUBCHEM_MOLECULAR_FORMULA>
C20H28O

> <PUBCHEM_MOLECULAR_WEIGHT>
284.43572

> <PUBCHEM_OPENEYE_CAN_SMILES>
CC1CC2C3CCC4=C(C3CCC2(C1)C)C=CC(=C4)OC

> <PUBCHEM_OPENEYE_ISO_SMILES>
C[C@H]1C[C@H]2[C@@H]3CCC4=C([C@H]3CC[C@@]2(C1)C)C=CC(=C4)OC

> <PUBCHEM_CACTVS_TPSA>
9.2

> <PUBCHEM_MONOISOTOPIC_WEIGHT>
284.214016

> <PUBCHEM_TOTAL_CHARGE>
0

> <PUBCHEM_HEAVY_ATOM_COUNT>
21

> <PUBCHEM_ATOM_DEF_STEREO_COUNT>
5

> <PUBCHEM_ATOM_UDEF_STEREO_COUNT>
0

> <PUBCHEM_BOND_DEF_STEREO_COUNT>
0

> <PUBCHEM_BOND_UDEF_STEREO_COUNT>
0

> <PUBCHEM_ISOTOPIC_ATOM_COUNT>
0

> <PUBCHEM_COMPONENT_COUNT>
1

> <PUBCHEM_CACTVS_TAUTO_COUNT>
1

> <PUBCHEM_COORDINATE_TYPE>
1
5
255

> <PUBCHEM_BONDANNOTATIONS>
13  16  8
13  17  8
16  18  8
17  19  8
18  20  8
19  20  8
2  12  5
3  22  6
4  23  5
7  28  6
9  15  5

$$$$

