5281504
  -OEChem-07051212573D

 43 44  0     1  0  0  0  0  0999 V2000
   -0.5749    2.8125    0.1085 O   0  0  0  0  0  0  0  0  0  0  0  0
    2.5191   -0.7791    0.3111 O   0  0  0  0  0  0  0  0  0  0  0  0
    1.0922    4.3935    0.0858 O   0  0  0  0  0  0  0  0  0  0  0  0
    2.8052   -2.5696   -1.1203 O   0  0  0  0  0  0  0  0  0  0  0  0
    0.7046    0.8350    0.3988 C   0  0  2  0  0  0  0  0  0  0  0  0
    1.1582   -0.5660   -0.1076 C   0  0  2  0  0  0  0  0  0  0  0  0
   -0.6316    1.3953   -0.1337 C   0  0  1  0  0  0  0  0  0  0  0  0
    0.4133   -1.8159    0.4354 C   0  0  0  0  0  0  0  0  0  0  0  0
    1.5603    2.0176    0.0151 C   0  0  0  0  0  0  0  0  0  0  0  0
   -1.8513    0.8700    0.5585 C   0  0  0  0  0  0  0  0  0  0  0  0
   -0.9900   -2.0681   -0.0630 C   0  0  0  0  0  0  0  0  0  0  0  0
    0.7186    3.2350    0.0659 C   0  0  0  0  0  0  0  0  0  0  0  0
   -2.9968    0.4650   -0.0305 C   0  0  0  0  0  0  0  0  0  0  0  0
   -3.9107   -0.4834    0.7301 C   0  0  0  0  0  0  0  0  0  0  0  0
   -3.4776   -1.9558    0.5130 C   0  0  0  0  0  0  0  0  0  0  0  0
   -2.0081   -2.1108    0.8233 C   0  0  0  0  0  0  0  0  0  0  0  0
    2.8288    2.1286   -0.3904 C   0  0  0  0  0  0  0  0  0  0  0  0
   -1.1380   -2.1876   -1.5540 C   0  0  0  0  0  0  0  0  0  0  0  0
   -3.3814    0.7322   -1.4572 C   0  0  0  0  0  0  0  0  0  0  0  0
    3.0721   -1.9520   -0.0984 C   0  0  0  0  0  0  0  0  0  0  0  0
    4.0880   -2.3965    0.9098 C   0  0  0  0  0  0  0  0  0  0  0  0
    0.6993    0.8144    1.4986 H   0  0  0  0  0  0  0  0  0  0  0  0
    1.1466   -0.5570   -1.2052 H   0  0  0  0  0  0  0  0  0  0  0  0
   -0.6931    1.2448   -1.2187 H   0  0  0  0  0  0  0  0  0  0  0  0
    0.4188   -1.7358    1.5327 H   0  0  0  0  0  0  0  0  0  0  0  0
    0.9349   -2.7600    0.2532 H   0  0  0  0  0  0  0  0  0  0  0  0
   -1.7122    0.6474    1.6162 H   0  0  0  0  0  0  0  0  0  0  0  0
   -3.8883   -0.2512    1.8031 H   0  0  0  0  0  0  0  0  0  0  0  0
   -4.9515   -0.3490    0.4133 H   0  0  0  0  0  0  0  0  0  0  0  0
   -3.7188   -2.2655   -0.5079 H   0  0  0  0  0  0  0  0  0  0  0  0
   -4.0550   -2.6092    1.1770 H   0  0  0  0  0  0  0  0  0  0  0  0
   -1.7738   -2.0441    1.8854 H   0  0  0  0  0  0  0  0  0  0  0  0
    3.4870    1.2748   -0.4830 H   0  0  0  0  0  0  0  0  0  0  0  0
    3.2587    3.0903   -0.6530 H   0  0  0  0  0  0  0  0  0  0  0  0
   -2.1181   -2.5611   -1.8588 H   0  0  0  0  0  0  0  0  0  0  0  0
   -0.4001   -2.8968   -1.9452 H   0  0  0  0  0  0  0  0  0  0  0  0
   -0.9760   -1.2226   -2.0424 H   0  0  0  0  0  0  0  0  0  0  0  0
   -3.3708   -0.1911   -2.0433 H   0  0  0  0  0  0  0  0  0  0  0  0
   -2.7252    1.4561   -1.9472 H   0  0  0  0  0  0  0  0  0  0  0  0
   -4.3935    1.1495   -1.4957 H   0  0  0  0  0  0  0  0  0  0  0  0
    3.6047   -2.5578    1.8768 H   0  0  0  0  0  0  0  0  0  0  0  0
    4.8794   -1.6476    0.9942 H   0  0  0  0  0  0  0  0  0  0  0  0
    4.5345   -3.3398    0.5824 H   0  0  0  0  0  0  0  0  0  0  0  0
  1  7  1  0  0  0  0
  1 12  1  0  0  0  0
  2  6  1  0  0  0  0
  2 20  1  0  0  0  0
  3 12  2  0  0  0  0
  4 20  2  0  0  0  0
  5  6  1  0  0  0  0
  5  7  1  0  0  0  0
  5  9  1  0  0  0  0
  5 22  1  0  0  0  0
  6  8  1  0  0  0  0
  6 23  1  0  0  0  0
  7 10  1  0  0  0  0
  7 24  1  0  0  0  0
  8 11  1  0  0  0  0
  8 25  1  0  0  0  0
  8 26  1  0  0  0  0
  9 12  1  0  0  0  0
  9 17  2  0  0  0  0
 10 13  2  0  0  0  0
 10 27  1  0  0  0  0
 11 16  2  0  0  0  0
 11 18  1  0  0  0  0
 13 14  1  0  0  0  0
 13 19  1  0  0  0  0
 14 15  1  0  0  0  0
 14 28  1  0  0  0  0
 14 29  1  0  0  0  0
 15 16  1  0  0  0  0
 15 30  1  0  0  0  0
 15 31  1  0  0  0  0
 16 32  1  0  0  0  0
 17 33  1  0  0  0  0
 17 34  1  0  0  0  0
 18 35  1  0  0  0  0
 18 36  1  0  0  0  0
 18 37  1  0  0  0  0
 19 38  1  0  0  0  0
 19 39  1  0  0  0  0
 19 40  1  0  0  0  0
 20 21  1  0  0  0  0
 21 41  1  0  0  0  0
 21 42  1  0  0  0  0
 21 43  1  0  0  0  0
M  END
> <PUBCHEM_COMPOUND_CID>
5281504

> <PUBCHEM_CONFORMER_RMSD>
0.6

> <PUBCHEM_CONFORMER_DIVERSEORDER>
1
9
11
6
10
13
8
12
3
2
7
4
5

> <PUBCHEM_MMFF94_PARTIAL_CHARGES>
25
1 -0.43
10 -0.29
11 -0.28
12 0.71
13 -0.28
14 0.14
15 0.14
16 -0.29
17 -0.3
18 0.14
19 0.14
2 -0.43
20 0.66
21 0.06
27 0.15
3 -0.57
32 0.15
33 0.15
34 0.15
4 -0.57
5 0.14
6 0.28
7 0.42
8 0.14
9 -0.12

> <PUBCHEM_EFFECTIVE_ROTOR_COUNT>
3

> <PUBCHEM_PHARMACOPHORE_FEATURES>
3
1 3 acceptor
1 4 acceptor
5 1 5 7 9 12 rings

> <PUBCHEM_HEAVY_ATOM_COUNT>
21

> <PUBCHEM_ATOM_DEF_STEREO_COUNT>
3

> <PUBCHEM_ATOM_UDEF_STEREO_COUNT>
0

> <PUBCHEM_BOND_DEF_STEREO_COUNT>
2

> <PUBCHEM_BOND_UDEF_STEREO_COUNT>
0

> <PUBCHEM_ISOTOPIC_ATOM_COUNT>
0

> <PUBCHEM_COMPONENT_COUNT>
1

> <PUBCHEM_CACTVS_TAUTO_COUNT>
1

> <PUBCHEM_CONFORMER_ID>
005096E000000001

> <PUBCHEM_MMFF94_ENERGY>
60.5715

> <PUBCHEM_FEATURE_SELFOVERLAP>
15.223

> <PUBCHEM_SHAPE_FINGERPRINT>
10319926 262 17762082204376076938
10411042 1 18411415137385855107
104564 63 17904766935326510847
10906281 52 18048305945118933621
10967382 1 18338794516094942328
1100329 8 18340766065240306553
11578080 2 17274562969643751894
11680986 33 18410299081479991363
12553582 1 18194107732338761186
12633257 1 18339625829118050843
12788726 201 17907590476865188400
13140716 1 18411415154522798931
138480 1 18411133623806432698
14142880 1 17826796137979686057
14223421 5 18054508002548376171
14790565 3 17689419912358396416
15042514 8 17908425006760960794
16945 1 18197211670833455075
20510252 161 17902517317741275826
20905425 154 18338222778580391852
21041028 32 18410851092310004171
2334 1 18339360755945982507
23402539 116 18119544377081803478
23557571 272 17972880547592686894
23558518 356 17406823459409253514
23559900 14 18410016494164955216
23566358 2 18339353089724615718
238 59 17979112368733963381
2748010 2 18411140216686843915
3091708 16 9283851206775074042
43471831 8 17691123738636888787
458136 41 17909527490200052921
7364860 26 18265608793151789930
81228 2 18120651602755517466
9709674 26 18270118994561015731

> <PUBCHEM_SHAPE_MULTIPOLES>
408.69
6.05
4.55
1.03
0.79
2.93
0.3
-3.23
-0.43
-3.49
0.03
0.43
-0.46
0.15

> <PUBCHEM_SHAPE_SELFOVERLAP>
843.932

> <PUBCHEM_SHAPE_VOLUME>
233.5

> <PUBCHEM_COORDINATE_TYPE>
2
5
10

$$$$

