443671
  -OEChem-07051213023D

 43 47  0     1  0  0  0  0  0999 V2000
   -1.2899   -0.6610    2.7365 O   0  0  0  0  0  0  0  0  0  0  0  0
   -4.1577    1.2343   -0.0787 O   0  0  0  0  0  0  0  0  0  0  0  0
    4.5079    1.8817    0.2644 O   0  0  0  0  0  0  0  0  0  0  0  0
    5.2869   -0.0645   -0.9225 O   0  0  0  0  0  0  0  0  0  0  0  0
   -4.9521    0.2530   -2.0134 O   0  0  0  0  0  0  0  0  0  0  0  0
   -0.5508   -2.0729   -0.3148 N   0  0  2  0  0  0  0  0  0  0  0  0
   -0.1644    0.0474    0.6384 C   0  0  1  0  0  0  0  0  0  0  0  0
   -0.9541   -0.6609   -0.4946 C   0  0  2  0  0  0  0  0  0  0  0  0
   -0.2474   -0.9653    1.8152 C   0  0  2  0  0  0  0  0  0  0  0  0
   -0.5831   -2.3041    1.1466 C   0  0  0  0  0  0  0  0  0  0  0  0
   -2.4690   -0.4465   -0.4184 C   0  0  0  0  0  0  0  0  0  0  0  0
    1.3123    0.0576    0.1859 C   0  0  0  0  0  0  0  0  0  0  0  0
    0.8271   -2.2286   -0.8455 C   0  0  0  0  0  0  0  0  0  0  0  0
   -0.7489    1.4029    0.9636 C   0  0  0  0  0  0  0  0  0  0  0  0
    1.7871   -1.1003   -0.5059 C   0  0  0  0  0  0  0  0  0  0  0  0
   -2.7932    1.0504   -0.4472 C   0  0  2  0  0  0  0  0  0  0  0  0
   -1.9107    1.8534    0.4650 C   0  0  0  0  0  0  0  0  0  0  0  0
    2.2069    1.0983    0.4798 C   0  0  0  0  0  0  0  0  0  0  0  0
    3.1260   -1.1944   -0.9123 C   0  0  0  0  0  0  0  0  0  0  0  0
    3.5183    0.9675    0.0645 C   0  0  0  0  0  0  0  0  0  0  0  0
    3.9644   -0.1435   -0.6109 C   0  0  0  0  0  0  0  0  0  0  0  0
    5.6251    1.2210   -0.3640 C   0  0  0  0  0  0  0  0  0  0  0  0
   -5.0711    0.5548   -0.8335 C   0  0  0  0  0  0  0  0  0  0  0  0
   -6.2696    0.2199    0.0016 C   0  0  0  0  0  0  0  0  0  0  0  0
   -0.6503   -0.2990   -1.4897 H   0  0  0  0  0  0  0  0  0  0  0  0
    0.6854   -1.0276    2.3875 H   0  0  0  0  0  0  0  0  0  0  0  0
    0.1166   -3.0906    1.4534 H   0  0  0  0  0  0  0  0  0  0  0  0
   -1.5807   -2.6603    1.4306 H   0  0  0  0  0  0  0  0  0  0  0  0
   -2.9198   -0.9175    0.4615 H   0  0  0  0  0  0  0  0  0  0  0  0
   -2.9281   -0.9597   -1.2723 H   0  0  0  0  0  0  0  0  0  0  0  0
    0.7528   -2.2817   -1.9397 H   0  0  0  0  0  0  0  0  0  0  0  0
    1.2473   -3.1874   -0.5170 H   0  0  0  0  0  0  0  0  0  0  0  0
   -0.2186    2.0438    1.6627 H   0  0  0  0  0  0  0  0  0  0  0  0
   -2.6547    1.4484   -1.4612 H   0  0  0  0  0  0  0  0  0  0  0  0
   -2.2454    2.8502    0.7402 H   0  0  0  0  0  0  0  0  0  0  0  0
    1.9065    1.9859    1.0233 H   0  0  0  0  0  0  0  0  0  0  0  0
   -2.1361   -0.6167    2.2661 H   0  0  0  0  0  0  0  0  0  0  0  0
    3.4907   -2.0645   -1.4478 H   0  0  0  0  0  0  0  0  0  0  0  0
    6.4160    1.0827    0.3822 H   0  0  0  0  0  0  0  0  0  0  0  0
    6.0065    1.8630   -1.1662 H   0  0  0  0  0  0  0  0  0  0  0  0
   -6.7372    1.1387    0.3643 H   0  0  0  0  0  0  0  0  0  0  0  0
   -5.9712   -0.4171    0.8380 H   0  0  0  0  0  0  0  0  0  0  0  0
   -6.9963   -0.3239   -0.6085 H   0  0  0  0  0  0  0  0  0  0  0  0
  1  9  1  0  0  0  0
  1 37  1  0  0  0  0
  2 16  1  0  0  0  0
  2 23  1  0  0  0  0
  3 20  1  0  0  0  0
  3 22  1  0  0  0  0
  4 21  1  0  0  0  0
  4 22  1  0  0  0  0
  5 23  2  0  0  0  0
  6  8  1  0  0  0  0
  6 10  1  0  0  0  0
  6 13  1  0  0  0  0
  7  8  1  0  0  0  0
  7  9  1  0  0  0  0
  7 12  1  0  0  0  0
  7 14  1  0  0  0  0
  8 11  1  0  0  0  0
  8 25  1  0  0  0  0
  9 10  1  0  0  0  0
  9 26  1  0  0  0  0
 10 27  1  0  0  0  0
 10 28  1  0  0  0  0
 11 16  1  0  0  0  0
 11 29  1  0  0  0  0
 11 30  1  0  0  0  0
 12 15  1  0  0  0  0
 12 18  2  0  0  0  0
 13 15  1  0  0  0  0
 13 31  1  0  0  0  0
 13 32  1  0  0  0  0
 14 17  2  0  0  0  0
 14 33  1  0  0  0  0
 15 19  2  0  0  0  0
 16 17  1  0  0  0  0
 16 34  1  0  0  0  0
 17 35  1  0  0  0  0
 18 20  1  0  0  0  0
 18 36  1  0  0  0  0
 19 21  1  0  0  0  0
 19 38  1  0  0  0  0
 20 21  2  0  0  0  0
 22 39  1  0  0  0  0
 22 40  1  0  0  0  0
 23 24  1  0  0  0  0
 24 41  1  0  0  0  0
 24 42  1  0  0  0  0
 24 43  1  0  0  0  0
M  END
> <PUBCHEM_COMPOUND_CID>
443671

> <PUBCHEM_CONFORMER_RMSD>
0.6

> <PUBCHEM_CONFORMER_DIVERSEORDER>
1
2
3

> <PUBCHEM_MMFF94_PARTIAL_CHARGES>
28
1 -0.68
10 0.27
12 -0.14
13 0.41
14 -0.29
15 -0.14
16 0.42
17 -0.29
18 -0.15
19 -0.15
2 -0.43
20 0.08
21 0.08
22 0.56
23 0.66
24 0.06
3 -0.36
33 0.15
35 0.15
36 0.15
37 0.4
38 0.15
4 -0.36
5 -0.57
6 -0.81
7 0.28
8 0.27
9 0.28

> <PUBCHEM_EFFECTIVE_ROTOR_COUNT>
3.6

> <PUBCHEM_PHARMACOPHORE_FEATURES>
10
1 1 acceptor
1 1 donor
1 3 acceptor
1 4 acceptor
1 5 acceptor
1 6 cation
5 3 4 20 21 22 rings
6 12 15 18 19 20 21 rings
6 7 8 11 14 16 17 rings
8 6 7 8 9 10 12 13 15 rings

> <PUBCHEM_HEAVY_ATOM_COUNT>
24

> <PUBCHEM_ATOM_DEF_STEREO_COUNT>
4

> <PUBCHEM_ATOM_UDEF_STEREO_COUNT>
0

> <PUBCHEM_BOND_DEF_STEREO_COUNT>
0

> <PUBCHEM_BOND_UDEF_STEREO_COUNT>
0

> <PUBCHEM_ISOTOPIC_ATOM_COUNT>
0

> <PUBCHEM_COMPONENT_COUNT>
1

> <PUBCHEM_CACTVS_TAUTO_COUNT>
1

> <PUBCHEM_CONFORMER_ID>
0006C51700000001

> <PUBCHEM_MMFF94_ENERGY>
75.6426

> <PUBCHEM_FEATURE_SELFOVERLAP>
50.936

> <PUBCHEM_SHAPE_FINGERPRINT>
10692045 39 16988017114315270592
10764073 3 11526297552431656483
10863032 1 18411419526794601338
10948715 1 18342176708324933458
11315181 36 17168135712465109984
11578080 2 16445334260659305859
11796584 16 4967607287167991533
11961588 58 18341902844367978952
12011746 2 18410851067004664740
12236239 1 14405180647090372217
12251169 10 11599999955518663812
12403260 363 18191869131428899658
12553582 1 11167944611549111232
12592029 89 18335984267596396130
12670546 177 17821450166052606125
12730499 353 18409724075675111535
12760667 363 8646502790434051676
12788726 201 15719663364133802163
12969540 114 18342746204146072159
13009979 54 16664300115803888070
13533116 47 17917436483787025298
13544653 18 8502370053020967381
13583140 156 17203320092057486000
14251764 30 13984670230699214949
14787075 74 18407763633953296533
14790565 3 18114455773366322761
15475509 84 12895081738287342446
15527383 91 10159691395941651374
15848702 105 18334582364458700403
15885798 251 8718825392337770838
16945 1 18114743862006892187
173720 79 18059308612022527120
17492 54 18408895031286364077
1813 80 6050440418566608738
19784866 140 16008748030707733367
200 152 16370722638817876476
20197701 30 17346601897885887835
20602899 9 17603580820417891382
21521239 73 18040721384971501454
21521721 280 18261106345039807305
21637258 2 14056727858864694413
21774942 28 13613701665446797079
221357 26 17968096451444759084
22182313 1 18266716070096741986
23175994 123 5761644898118114067
23227448 37 17702939210858733644
23352939 185 17458061564762635745
23402539 116 18342181029014560702
23559900 14 18114186272874347944
23622692 88 12247676080179475938
25147074 1 17096634590578599026
2838139 119 18340778091054114780
3323516 105 17967542280620437321
335352 9 18335698352540899446
347723 3 16950281814877797219
3759504 43 17846499201518352747
4258327 124 17345172421116447380
4340502 62 17275103950907960651
474 4 18202278108734521868
5207 217 18412826863439758325

> <PUBCHEM_SHAPE_MULTIPOLES>
459.58
10.9
2.04
1.45
2.99
0.56
0.67
-5.15
-4.74
-0.63
0.2
0.93
0.41
0.53

> <PUBCHEM_SHAPE_SELFOVERLAP>
1029.825

> <PUBCHEM_SHAPE_VOLUME>
242.4

> <PUBCHEM_COORDINATE_TYPE>
2
5
10

$$$$

