11954097
  -OEChem-07051213063D

 65 68  0     1  0  0  0  0  0999 V2000
   -6.2159   -1.0877    0.4412 O   0  0  0  0  0  0  0  0  0  0  0  0
    5.3471    0.1583   -1.2864 O   0  0  0  0  0  0  0  0  0  0  0  0
    6.5871   -1.9848   -0.2429 O   0  0  0  0  0  0  0  0  0  0  0  0
    1.4672    1.1096    0.5462 C   0  0  2  0  0  0  0  0  0  0  0  0
    2.3815   -0.0713    0.0703 C   0  0  1  0  0  0  0  0  0  0  0  0
   -1.9444   -0.6968   -0.2720 C   0  0  1  0  0  0  0  0  0  0  0  0
   -2.8133    0.5843    0.0235 C   0  0  2  0  0  0  0  0  0  0  0  0
    0.0280    0.8593    0.1154 C   0  0  0  0  0  0  0  0  0  0  0  0
   -0.4709   -0.4051    0.1250 C   0  0  0  0  0  0  0  0  0  0  0  0
    3.7802    0.4344    0.4866 C   0  0  2  0  0  0  0  0  0  0  0  0
    1.9063   -1.3520    0.7569 C   0  0  0  0  0  0  0  0  0  0  0  0
    2.2455    2.3076   -0.0346 C   0  0  0  0  0  0  0  0  0  0  0  0
   -4.3745    0.4348   -0.1150 C   0  0  0  0  0  0  0  0  0  0  0  0
    0.4110   -1.6134    0.4738 C   0  0  0  0  0  0  0  0  0  0  0  0
   -2.2199    1.7978   -0.7083 C   0  0  0  0  0  0  0  0  0  0  0  0
    3.7314    1.9481    0.1845 C   0  0  0  0  0  0  0  0  0  0  0  0
   -0.7922    2.0763   -0.2381 C   0  0  0  0  0  0  0  0  0  0  0  0
   -2.5367   -1.8711    0.5494 C   0  0  0  0  0  0  0  0  0  0  0  0
   -4.8317   -0.8275    0.6710 C   0  0  2  0  0  0  0  0  0  0  0  0
    1.4002    1.3104    2.0926 C   0  0  0  0  0  0  0  0  0  0  0  0
    2.3494   -0.3016   -1.4775 C   0  0  0  0  0  0  0  0  0  0  0  0
   -4.0311   -2.0794    0.3292 C   0  0  0  0  0  0  0  0  0  0  0  0
   -1.8910   -1.1020   -1.7648 C   0  0  0  0  0  0  0  0  0  0  0  0
    4.9231   -0.2456   -0.2046 C   0  0  0  0  0  0  0  0  0  0  0  0
   -5.0679    1.6596    0.5481 C   0  0  0  0  0  0  0  0  0  0  0  0
   -4.8840    0.4041   -1.5715 C   0  0  0  0  0  0  0  0  0  0  0  0
    5.5156   -1.4462    0.5022 C   0  0  0  0  0  0  0  0  0  0  0  0
   -2.6628    0.7892    1.0982 H   0  0  0  0  0  0  0  0  0  0  0  0
    3.9389    0.3058    1.5645 H   0  0  0  0  0  0  0  0  0  0  0  0
    2.0664   -1.2960    1.8402 H   0  0  0  0  0  0  0  0  0  0  0  0
    2.4857   -2.2207    0.4237 H   0  0  0  0  0  0  0  0  0  0  0  0
    1.9947    3.2580    0.4496 H   0  0  0  0  0  0  0  0  0  0  0  0
    2.0497    2.4373   -1.1051 H   0  0  0  0  0  0  0  0  0  0  0  0
   -0.0005   -2.1269    1.3502 H   0  0  0  0  0  0  0  0  0  0  0  0
    0.3585   -2.3250   -0.3591 H   0  0  0  0  0  0  0  0  0  0  0  0
   -2.8091    2.7034   -0.5350 H   0  0  0  0  0  0  0  0  0  0  0  0
   -2.2239    1.6425   -1.7922 H   0  0  0  0  0  0  0  0  0  0  0  0
    4.3209    2.2568   -0.6846 H   0  0  0  0  0  0  0  0  0  0  0  0
    4.1279    2.5038    1.0430 H   0  0  0  0  0  0  0  0  0  0  0  0
   -0.8445    2.7208    0.6485 H   0  0  0  0  0  0  0  0  0  0  0  0
   -0.2899    2.6563   -1.0202 H   0  0  0  0  0  0  0  0  0  0  0  0
   -2.3661   -1.6946    1.6203 H   0  0  0  0  0  0  0  0  0  0  0  0
   -2.0270   -2.8116    0.3049 H   0  0  0  0  0  0  0  0  0  0  0  0
   -4.7218   -0.6347    1.7466 H   0  0  0  0  0  0  0  0  0  0  0  0
    0.9031    0.4779    2.6026 H   0  0  0  0  0  0  0  0  0  0  0  0
    2.3832    1.4330    2.5557 H   0  0  0  0  0  0  0  0  0  0  0  0
    0.8293    2.2146    2.3389 H   0  0  0  0  0  0  0  0  0  0  0  0
    2.7721    0.5373   -2.0391 H   0  0  0  0  0  0  0  0  0  0  0  0
    2.9260   -1.1945   -1.7471 H   0  0  0  0  0  0  0  0  0  0  0  0
    1.3404   -0.4589   -1.8680 H   0  0  0  0  0  0  0  0  0  0  0  0
   -4.2391   -2.4040   -0.6963 H   0  0  0  0  0  0  0  0  0  0  0  0
   -4.3741   -2.9094    0.9606 H   0  0  0  0  0  0  0  0  0  0  0  0
   -1.4697   -0.3138   -2.3972 H   0  0  0  0  0  0  0  0  0  0  0  0
   -1.2604   -1.9872   -1.9123 H   0  0  0  0  0  0  0  0  0  0  0  0
   -2.8638   -1.3678   -2.1731 H   0  0  0  0  0  0  0  0  0  0  0  0
   -4.7072    1.8150    1.5711 H   0  0  0  0  0  0  0  0  0  0  0  0
   -4.8950    2.5826   -0.0140 H   0  0  0  0  0  0  0  0  0  0  0  0
   -6.1543    1.5235    0.6026 H   0  0  0  0  0  0  0  0  0  0  0  0
   -4.4488    1.2073   -2.1734 H   0  0  0  0  0  0  0  0  0  0  0  0
   -4.6872   -0.5435   -2.0719 H   0  0  0  0  0  0  0  0  0  0  0  0
   -5.9719    0.5410   -1.6099 H   0  0  0  0  0  0  0  0  0  0  0  0
   -6.4654   -1.8553    0.9834 H   0  0  0  0  0  0  0  0  0  0  0  0
    4.7556   -2.2214    0.6110 H   0  0  0  0  0  0  0  0  0  0  0  0
    5.8837   -1.1509    1.4887 H   0  0  0  0  0  0  0  0  0  0  0  0
    7.2952   -1.3184   -0.2610 H   0  0  0  0  0  0  0  0  0  0  0  0
  1 19  1  0  0  0  0
  1 62  1  0  0  0  0
  2 24  2  0  0  0  0
  3 27  1  0  0  0  0
  3 65  1  0  0  0  0
  4  5  1  0  0  0  0
  4  8  1  0  0  0  0
  4 12  1  0  0  0  0
  4 20  1  0  0  0  0
  5 10  1  0  0  0  0
  5 11  1  0  0  0  0
  5 21  1  0  0  0  0
  6  7  1  0  0  0  0
  6  9  1  0  0  0  0
  6 18  1  0  0  0  0
  6 23  1  0  0  0  0
  7 13  1  0  0  0  0
  7 15  1  0  0  0  0
  7 28  1  0  0  0  0
  8  9  2  0  0  0  0
  8 17  1  0  0  0  0
  9 14  1  0  0  0  0
 10 16  1  0  0  0  0
 10 24  1  0  0  0  0
 10 29  1  0  0  0  0
 11 14  1  0  0  0  0
 11 30  1  0  0  0  0
 11 31  1  0  0  0  0
 12 16  1  0  0  0  0
 12 32  1  0  0  0  0
 12 33  1  0  0  0  0
 13 19  1  0  0  0  0
 13 25  1  0  0  0  0
 13 26  1  0  0  0  0
 14 34  1  0  0  0  0
 14 35  1  0  0  0  0
 15 17  1  0  0  0  0
 15 36  1  0  0  0  0
 15 37  1  0  0  0  0
 16 38  1  0  0  0  0
 16 39  1  0  0  0  0
 17 40  1  0  0  0  0
 17 41  1  0  0  0  0
 18 22  1  0  0  0  0
 18 42  1  0  0  0  0
 18 43  1  0  0  0  0
 19 22  1  0  0  0  0
 19 44  1  0  0  0  0
 20 45  1  0  0  0  0
 20 46  1  0  0  0  0
 20 47  1  0  0  0  0
 21 48  1  0  0  0  0
 21 49  1  0  0  0  0
 21 50  1  0  0  0  0
 22 51  1  0  0  0  0
 22 52  1  0  0  0  0
 23 53  1  0  0  0  0
 23 54  1  0  0  0  0
 23 55  1  0  0  0  0
 24 27  1  0  0  0  0
 25 56  1  0  0  0  0
 25 57  1  0  0  0  0
 25 58  1  0  0  0  0
 26 59  1  0  0  0  0
 26 60  1  0  0  0  0
 26 61  1  0  0  0  0
 27 63  1  0  0  0  0
 27 64  1  0  0  0  0
M  END
> <PUBCHEM_COMPOUND_CID>
11954097

> <PUBCHEM_CONFORMER_RMSD>
0.8

> <PUBCHEM_CONFORMER_DIVERSEORDER>
1
2

> <PUBCHEM_MMFF94_PARTIAL_CHARGES>
15
1 -0.68
10 0.06
14 0.14
17 0.14
19 0.28
2 -0.57
24 0.45
27 0.34
3 -0.68
4 0.14
6 0.14
62 0.4
65 0.4
8 -0.28
9 -0.28

> <PUBCHEM_EFFECTIVE_ROTOR_COUNT>
4.2

> <PUBCHEM_PHARMACOPHORE_FEATURES>
10
1 1 acceptor
1 1 donor
1 2 acceptor
1 3 acceptor
1 3 donor
3 13 25 26 hydrophobe
5 4 5 10 12 16 rings
6 4 5 8 9 11 14 rings
6 6 7 13 18 19 22 rings
6 6 7 8 9 15 17 rings

> <PUBCHEM_HEAVY_ATOM_COUNT>
27

> <PUBCHEM_ATOM_DEF_STEREO_COUNT>
6

> <PUBCHEM_ATOM_UDEF_STEREO_COUNT>
0

> <PUBCHEM_BOND_DEF_STEREO_COUNT>
0

> <PUBCHEM_BOND_UDEF_STEREO_COUNT>
0

> <PUBCHEM_ISOTOPIC_ATOM_COUNT>
0

> <PUBCHEM_COMPONENT_COUNT>
1

> <PUBCHEM_CACTVS_TAUTO_COUNT>
4

> <PUBCHEM_CONFORMER_ID>
00B667B100000001

> <PUBCHEM_MMFF94_ENERGY>
100.8117

> <PUBCHEM_FEATURE_SELFOVERLAP>
50.845

> <PUBCHEM_SHAPE_FINGERPRINT>
11405975 8 18335422331138718488
11524674 6 17240483619652539255
11796584 16 18413388757048132674
12011746 2 18341901779706407733
12166972 35 17561077003896991156
12236239 1 17346880056994539932
12403259 415 18201445744014612637
12788726 201 17605271985624335281
13140716 1 18410014308126990777
13224815 77 18342465803011503121
13402501 40 18410291402295029539
13782708 43 18114181883064551239
14341114 176 18413106134745013016
14790565 3 18341325591852104773
14955137 171 18058999602237860933
15183329 4 18343020025575574154
15196674 1 18411982420897415761
15209289 33 18343022181179736507
15510800 12 17533769667124750558
15788980 27 17748828505338143372
1601671 61 18408884061602117328
17349148 13 16950278494699252984
17844677 252 18410849941311964601
17980427 23 7420939881079024459
1813 80 17060062506045395613
18393751 57 16237622074682515185
19141452 34 17822010861338347839
19591789 44 18339644438525431307
200 152 17749108885166810825
20832881 197 18334857229870990208
21033648 29 17822301162973849593
21267235 1 18342170051716565971
21279426 13 18412266172401803268
21421861 104 17844536701895540202
21682296 61 18114738356180832166
221357 26 18411420600689100808
22393880 68 18131080354195545300
23402539 116 18411704291747552222
23522609 53 18124563540436702708
23559900 14 18412550881505049856
3004659 81 18201717384550060102
335352 9 18411419539668609757
350125 39 18412824715539645152
4073 2 18058444305899791714
4214541 1 18411699885564903961
465052 167 18334009506653985518
5104073 3 18408605833657898840
633830 44 18339933606099506644
7495541 125 18409729547843111832

> <PUBCHEM_SHAPE_MULTIPOLES>
538.04
12.91
2.32
1.26
2.64
0.23
-0.15
-3.9
-0.66
0.17
0.27
-0.08
0.05
0.47

> <PUBCHEM_SHAPE_SELFOVERLAP>
1144.783

> <PUBCHEM_SHAPE_VOLUME>
299.7

> <PUBCHEM_COORDINATE_TYPE>
2
5
10

$$$$

