442864
  -OEChem-07051213002D

 72 76  0     1  0  0  0  0  0999 V2000
    4.6501    2.2851    0.0000 O   0  0  0  0  0  0  0  0  0  0  0  0
    6.1334   -2.2987    0.0000 O   0  0  0  0  0  0  0  0  0  0  0  0
    4.6888   -3.2542    0.0000 O   0  0  0  0  0  0  0  0  0  0  0  0
    8.1128    1.1689    0.0000 O   0  0  0  0  0  0  0  0  0  0  0  0
   10.5671    2.1582    0.0000 O   0  0  0  0  0  0  0  0  0  0  0  0
    3.7841    0.7851    0.0000 N   0  0  3  0  0  0  0  0  0  0  0  0
    2.9180    1.2851    0.0000 C   0  0  2  0  0  0  0  0  0  0  0  0
    3.8001   -0.2564    0.0000 C   0  0  2  0  0  0  0  0  0  0  0  0
    2.0080    0.7782    0.0000 C   0  0  0  0  0  0  0  0  0  0  0  0
    2.9021   -0.7842    0.0000 C   0  0  0  0  0  0  0  0  0  0  0  0
    2.9180    2.2851    0.0000 C   0  0  0  0  0  0  0  0  0  0  0  0
    2.0000   -0.2634    0.0000 C   0  0  0  0  0  0  0  0  0  0  0  0
    3.7841    2.7851    0.0000 C   0  0  2  0  0  0  0  0  0  0  0  0
    4.5701   -1.0388    0.0000 C   0  0  0  0  0  0  0  0  0  0  0  0
    4.6501    1.2851    0.0000 C   0  0  0  0  0  0  0  0  0  0  0  0
    5.5817   -1.4646    0.0000 C   0  0  2  0  0  0  0  0  0  0  0  0
    4.5457    3.5755    0.0000 C   0  0  0  0  0  0  0  0  0  0  0  0
    6.6794   -1.4685    0.0000 C   0  0  0  0  0  0  0  0  0  0  0  0
    5.5528    4.0120    0.0000 C   0  0  0  0  0  0  0  0  0  0  0  0
    7.6941   -1.0498    0.0000 C   0  0  0  0  0  0  0  0  0  0  0  0
    6.6504    4.0275    0.0000 C   0  0  0  0  0  0  0  0  0  0  0  0
    8.4696   -0.2730    0.0000 C   0  0  0  0  0  0  0  0  0  0  0  0
    5.6870   -3.1935    0.0000 C   0  0  0  0  0  0  0  0  0  0  0  0
    7.6694    3.6196    0.0000 C   0  0  0  0  0  0  0  0  0  0  0  0
    6.2459    3.0965    0.0000 C   0  0  0  0  0  0  0  0  0  0  0  0
    8.4531    2.8510    0.0000 C   0  0  0  0  0  0  0  0  0  0  0  0
    8.8865    0.7424    0.0000 C   0  0  0  0  0  0  0  0  0  0  0  0
    8.8807    1.8400    0.0000 C   0  0  0  0  0  0  0  0  0  0  0  0
    9.4843   -0.2971    0.0000 C   0  0  0  0  0  0  0  0  0  0  0  0
    6.7548    2.2182    0.0000 C   0  0  0  0  0  0  0  0  0  0  0  0
    7.7636    2.1060    0.0000 C   0  0  0  0  0  0  0  0  0  0  0  0
    6.2387   -4.0275    0.0000 C   0  0  0  0  0  0  0  0  0  0  0  0
    9.8305    1.4819    0.0000 C   0  0  0  0  0  0  0  0  0  0  0  0
   10.1064    0.5050    0.0000 C   0  0  0  0  0  0  0  0  0  0  0  0
   11.5211    1.8584    0.0000 C   0  0  0  0  0  0  0  0  0  0  0  0
    2.1819    1.7101    0.0000 H   0  0  0  0  0  0  0  0  0  0  0  0
    3.8132   -1.1063    0.0000 H   0  0  0  0  0  0  0  0  0  0  0  0
    1.8035    1.3635    0.0000 H   0  0  0  0  0  0  0  0  0  0  0  0
    1.3964    0.6768    0.0000 H   0  0  0  0  0  0  0  0  0  0  0  0
    2.5048   -1.2602    0.0000 H   0  0  0  0  0  0  0  0  0  0  0  0
    3.3030   -1.2571    0.0000 H   0  0  0  0  0  0  0  0  0  0  0  0
    2.7060    2.8677    0.0000 H   0  0  0  0  0  0  0  0  0  0  0  0
    2.3074    2.1774    0.0000 H   0  0  0  0  0  0  0  0  0  0  0  0
    1.3900   -0.1526    0.0000 H   0  0  0  0  0  0  0  0  0  0  0  0
    1.7864   -0.8454    0.0000 H   0  0  0  0  0  0  0  0  0  0  0  0
    3.2604    3.4546    0.0000 H   0  0  0  0  0  0  0  0  0  0  0  0
    3.9956   -1.2719    0.0000 H   0  0  0  0  0  0  0  0  0  0  0  0
    4.9180   -0.5256    0.0000 H   0  0  0  0  0  0  0  0  0  0  0  0
    4.8621    0.7025    0.0000 H   0  0  0  0  0  0  0  0  0  0  0  0
    5.2607    1.3927    0.0000 H   0  0  0  0  0  0  0  0  0  0  0  0
    5.3049   -2.0194    0.0000 H   0  0  0  0  0  0  0  0  0  0  0  0
    4.5351    4.1954    0.0000 H   0  0  0  0  0  0  0  0  0  0  0  0
    4.8991    3.0660    0.0000 H   0  0  0  0  0  0  0  0  0  0  0  0
    6.4405   -2.0407    0.0000 H   0  0  0  0  0  0  0  0  0  0  0  0
    6.5599   -0.8602    0.0000 H   0  0  0  0  0  0  0  0  0  0  0  0
    5.7816    4.5883    0.0000 H   0  0  0  0  0  0  0  0  0  0  0  0
    5.6830    3.4058    0.0000 H   0  0  0  0  0  0  0  0  0  0  0  0
    7.6937   -1.6698    0.0000 H   0  0  0  0  0  0  0  0  0  0  0  0
    7.3497   -0.5342    0.0000 H   0  0  0  0  0  0  0  0  0  0  0  0
    8.0083    4.1388    0.0000 H   0  0  0  0  0  0  0  0  0  0  0  0
    5.6270    3.0608    0.0000 H   0  0  0  0  0  0  0  0  0  0  0  0
    9.4951    0.6240    0.0000 H   0  0  0  0  0  0  0  0  0  0  0  0
    9.7505   -0.8571    0.0000 H   0  0  0  0  0  0  0  0  0  0  0  0
    6.4159    1.6990    0.0000 H   0  0  0  0  0  0  0  0  0  0  0  0
    5.7216   -4.3696    0.0000 H   0  0  0  0  0  0  0  0  0  0  0  0
    6.5808   -4.5446    0.0000 H   0  0  0  0  0  0  0  0  0  0  0  0
    6.7558   -3.6854    0.0000 H   0  0  0  0  0  0  0  0  0  0  0  0
   10.7150    0.3866    0.0000 H   0  0  0  0  0  0  0  0  0  0  0  0
    7.7178    0.6909    0.0000 H   0  0  0  0  0  0  0  0  0  0  0  0
   11.3352    1.2669    0.0000 H   0  0  0  0  0  0  0  0  0  0  0  0
   12.1126    1.6725    0.0000 H   0  0  0  0  0  0  0  0  0  0  0  0
   11.7070    2.4499    0.0000 H   0  0  0  0  0  0  0  0  0  0  0  0
  1 13  1  0  0  0  0
  1 15  1  0  0  0  0
 16  2  1  6  0  0  0
  2 23  1  0  0  0  0
  3 23  2  0  0  0  0
  4 31  1  0  0  0  0
  4 69  1  0  0  0  0
  5 33  1  0  0  0  0
  5 35  1  0  0  0  0
  6  7  1  0  0  0  0
  6  8  1  0  0  0  0
  6 15  1  0  0  0  0
  7  9  1  0  0  0  0
  7 11  1  0  0  0  0
  7 36  1  1  0  0  0
  8 10  1  0  0  0  0
  8 14  1  0  0  0  0
  8 37  1  6  0  0  0
  9 12  1  0  0  0  0
  9 38  1  0  0  0  0
  9 39  1  0  0  0  0
 10 12  1  0  0  0  0
 10 40  1  0  0  0  0
 10 41  1  0  0  0  0
 11 13  1  0  0  0  0
 11 42  1  0  0  0  0
 11 43  1  0  0  0  0
 12 44  1  0  0  0  0
 12 45  1  0  0  0  0
 13 17  1  0  0  0  0
 13 46  1  1  0  0  0
 14 16  1  0  0  0  0
 14 47  1  0  0  0  0
 14 48  1  0  0  0  0
 15 49  1  0  0  0  0
 15 50  1  0  0  0  0
 16 18  1  0  0  0  0
 16 51  1  0  0  0  0
 17 19  1  0  0  0  0
 17 52  1  0  0  0  0
 17 53  1  0  0  0  0
 18 20  1  0  0  0  0
 18 54  1  0  0  0  0
 18 55  1  0  0  0  0
 19 21  1  0  0  0  0
 19 56  1  0  0  0  0
 19 57  1  0  0  0  0
 20 22  1  0  0  0  0
 20 58  1  0  0  0  0
 20 59  1  0  0  0  0
 21 24  2  0  0  0  0
 21 25  1  0  0  0  0
 22 27  2  0  0  0  0
 22 29  1  0  0  0  0
 23 32  1  0  0  0  0
 24 26  1  0  0  0  0
 24 60  1  0  0  0  0
 25 30  2  0  0  0  0
 25 61  1  0  0  0  0
 26 28  1  0  0  0  0
 26 31  2  0  0  0  0
 27 28  1  0  0  0  0
 27 62  1  0  0  0  0
 28 33  2  0  0  0  0
 29 34  2  0  0  0  0
 29 63  1  0  0  0  0
 30 31  1  0  0  0  0
 30 64  1  0  0  0  0
 32 65  1  0  0  0  0
 32 66  1  0  0  0  0
 32 67  1  0  0  0  0
 33 34  1  0  0  0  0
 34 68  1  0  0  0  0
 35 70  1  0  0  0  0
 35 71  1  0  0  0  0
 35 72  1  0  0  0  0
M  END
> <PUBCHEM_COMPOUND_CID>
442864

> <PUBCHEM_COMPOUND_CANONICALIZED>
1

> <PUBCHEM_CACTVS_COMPLEXITY>
703

> <PUBCHEM_CACTVS_HBOND_ACCEPTOR>
6

> <PUBCHEM_CACTVS_HBOND_DONOR>
1

> <PUBCHEM_CACTVS_ROTATABLE_BOND>
3

> <PUBCHEM_CACTVS_SUBSKEYS>
AAADcfB6OAAAAAAAAAAAAAAAAAAAAAAAAAA8eIEAAAAAAAABQAAAHgAACAAADDzhmAYyDoMABgCIAiDSCAACCAAgIAAIiAAOCIgMJiKGsRqOcCAmwBGIuAfQwPAOoAACAAAIAABAAAQAABAAAAAAAAAAAA==

> <PUBCHEM_IUPAC_INCHI>
InChI=1S/C29H37NO5/c1-19(31)35-25-11-7-21-9-13-29(33-2)27(15-21)26-14-20(8-12-28(26)32)6-10-24-16-22-4-3-5-23(17-25)30(22)18-34-24/h8-9,12-15,22-25,32H,3-7,10-11,16-18H2,1-2H3/t22-,23-,24+,25+/m1/s1

> <PUBCHEM_IUPAC_INCHIKEY>
YODZWLPSGSZPHZ-NGSHPTGOSA-N

> <PUBCHEM_XLOGP3_AA>
5.6

> <PUBCHEM_EXACT_MASS>
479.267173

> <PUBCHEM_MOLECULAR_FORMULA>
C29H37NO5

> <PUBCHEM_MOLECULAR_WEIGHT>
479.60778

> <PUBCHEM_OPENEYE_CAN_SMILES>
CC(=O)OC1CCC2=CC(=C(C=C2)OC)C3=C(C=CC(=C3)CCC4CC5CCCC(C1)N5CO4)O

> <PUBCHEM_OPENEYE_ISO_SMILES>
CC(=O)O[C@H]1CCC2=CC(=C(C=C2)OC)C3=C(C=CC(=C3)CC[C@H]4C[C@H]5CCC[C@H](C1)N5CO4)O

> <PUBCHEM_CACTVS_TPSA>
68.2

> <PUBCHEM_MONOISOTOPIC_WEIGHT>
479.267173

> <PUBCHEM_TOTAL_CHARGE>
0

> <PUBCHEM_HEAVY_ATOM_COUNT>
35

> <PUBCHEM_ATOM_DEF_STEREO_COUNT>
4

> <PUBCHEM_ATOM_UDEF_STEREO_COUNT>
0

> <PUBCHEM_BOND_DEF_STEREO_COUNT>
0

> <PUBCHEM_BOND_UDEF_STEREO_COUNT>
0

> <PUBCHEM_ISOTOPIC_ATOM_COUNT>
0

> <PUBCHEM_COMPONENT_COUNT>
1

> <PUBCHEM_CACTVS_TAUTO_COUNT>
1

> <PUBCHEM_COORDINATE_TYPE>
1
5
255

> <PUBCHEM_BONDANNOTATIONS>
13  46  5
16  2  6
21  24  8
21  25  8
22  27  8
22  29  8
24  26  8
25  30  8
26  31  8
27  28  8
28  33  8
29  34  8
30  31  8
33  34  8
7  36  5
8  37  6

$$$$

