443054
  -OEChem-07051213002D

 22 23  0     0  0  0  0  0  0999 V2000
    6.2619   -0.4113    0.0000 S   0  0  0  0  0  0  0  0  0  0  0  0
    5.9674    1.5501    0.0000 O   0  0  0  0  0  0  0  0  0  0  0  0
    4.6783   -1.2161    0.0000 N   0  0  0  0  0  0  0  0  0  0  0  0
    3.7320    0.0887    0.0000 C   0  0  0  0  0  0  0  0  0  0  0  0
    3.7320   -0.9113    0.0000 C   0  0  0  0  0  0  0  0  0  0  0  0
    4.6783    0.3934    0.0000 C   0  0  0  0  0  0  0  0  0  0  0  0
    5.2619   -0.4113    0.0000 C   0  0  0  0  0  0  0  0  0  0  0  0
    2.8660    0.5887    0.0000 C   0  0  0  0  0  0  0  0  0  0  0  0
    2.8660   -1.4113    0.0000 C   0  0  0  0  0  0  0  0  0  0  0  0
    2.0000    0.0887    0.0000 C   0  0  0  0  0  0  0  0  0  0  0  0
    2.0000   -0.9113    0.0000 C   0  0  0  0  0  0  0  0  0  0  0  0
    4.9889    1.3439    0.0000 C   0  0  0  0  0  0  0  0  0  0  0  0
    6.7619   -1.2774    0.0000 C   0  0  0  0  0  0  0  0  0  0  0  0
    4.8709   -1.8054    0.0000 H   0  0  0  0  0  0  0  0  0  0  0  0
    2.8660    1.2087    0.0000 H   0  0  0  0  0  0  0  0  0  0  0  0
    2.8660   -2.0313    0.0000 H   0  0  0  0  0  0  0  0  0  0  0  0
    1.4631    0.3987    0.0000 H   0  0  0  0  0  0  0  0  0  0  0  0
    1.4631   -1.2213    0.0000 H   0  0  0  0  0  0  0  0  0  0  0  0
    4.5749    1.8054    0.0000 H   0  0  0  0  0  0  0  0  0  0  0  0
    6.2249   -1.5874    0.0000 H   0  0  0  0  0  0  0  0  0  0  0  0
    7.0719   -1.8143    0.0000 H   0  0  0  0  0  0  0  0  0  0  0  0
    7.2988   -0.9674    0.0000 H   0  0  0  0  0  0  0  0  0  0  0  0
  1  7  1  0  0  0  0
  1 13  1  0  0  0  0
  2 12  2  0  0  0  0
  3  5  1  0  0  0  0
  3  7  1  0  0  0  0
  3 14  1  0  0  0  0
  4  5  1  0  0  0  0
  4  6  1  0  0  0  0
  4  8  2  0  0  0  0
  5  9  2  0  0  0  0
  6  7  2  0  0  0  0
  6 12  1  0  0  0  0
  8 10  1  0  0  0  0
  8 15  1  0  0  0  0
  9 11  1  0  0  0  0
  9 16  1  0  0  0  0
 10 11  2  0  0  0  0
 10 17  1  0  0  0  0
 11 18  1  0  0  0  0
 12 19  1  0  0  0  0
 13 20  1  0  0  0  0
 13 21  1  0  0  0  0
 13 22  1  0  0  0  0
M  END
> <PUBCHEM_COMPOUND_CID>
443054

> <PUBCHEM_COMPOUND_CANONICALIZED>
1

> <PUBCHEM_CACTVS_COMPLEXITY>
197

> <PUBCHEM_CACTVS_HBOND_ACCEPTOR>
2

> <PUBCHEM_CACTVS_HBOND_DONOR>
1

> <PUBCHEM_CACTVS_ROTATABLE_BOND>
2

> <PUBCHEM_CACTVS_SUBSKEYS>
AAADccByIABAAAAAAAAAAAAAAAAAAWAAAAAwAAAAAAAAAFgB8AAAHgQQAAAADAih3gKywfLJkAioAyxyxACC0iBlCjAImTEwZNgIIPrglZGEIYhgkADIyUcciMCOgAAAAAACAAAAAAAAAAQAAAAAAAAAAA==

> <PUBCHEM_IUPAC_OPENEYE_NAME>
2-methylsulfanyl-1H-indole-3-carbaldehyde

> <PUBCHEM_IUPAC_CAS_NAME>
2-(methylthio)-1H-indole-3-carboxaldehyde

> <PUBCHEM_IUPAC_NAME>
2-methylsulfanyl-1H-indole-3-carbaldehyde

> <PUBCHEM_IUPAC_SYSTEMATIC_NAME>
2-methylsulfanyl-1H-indole-3-carbaldehyde

> <PUBCHEM_IUPAC_TRADITIONAL_NAME>
2-(methylthio)-1H-indole-3-carbaldehyde

> <PUBCHEM_IUPAC_INCHI>
InChI=1S/C10H9NOS/c1-13-10-8(6-12)7-4-2-3-5-9(7)11-10/h2-6,11H,1H3

> <PUBCHEM_IUPAC_INCHIKEY>
QSSMEVWVRIEBSR-UHFFFAOYSA-N

> <PUBCHEM_XLOGP3_AA>
2.4

> <PUBCHEM_EXACT_MASS>
191.040485

> <PUBCHEM_MOLECULAR_FORMULA>
C10H9NOS

> <PUBCHEM_MOLECULAR_WEIGHT>
191.24956

> <PUBCHEM_OPENEYE_CAN_SMILES>
CSC1=C(C2=CC=CC=C2N1)C=O

> <PUBCHEM_OPENEYE_ISO_SMILES>
CSC1=C(C2=CC=CC=C2N1)C=O

> <PUBCHEM_CACTVS_TPSA>
58.2

> <PUBCHEM_MONOISOTOPIC_WEIGHT>
191.040485

> <PUBCHEM_TOTAL_CHARGE>
0

> <PUBCHEM_HEAVY_ATOM_COUNT>
13

> <PUBCHEM_ATOM_DEF_STEREO_COUNT>
0

> <PUBCHEM_ATOM_UDEF_STEREO_COUNT>
0

> <PUBCHEM_BOND_DEF_STEREO_COUNT>
0

> <PUBCHEM_BOND_UDEF_STEREO_COUNT>
0

> <PUBCHEM_ISOTOPIC_ATOM_COUNT>
0

> <PUBCHEM_COMPONENT_COUNT>
1

> <PUBCHEM_CACTVS_TAUTO_COUNT>
3

> <PUBCHEM_COORDINATE_TYPE>
1
5
255

> <PUBCHEM_BONDANNOTATIONS>
10  11  8
3  5  8
3  7  8
4  5  8
4  6  8
4  8  8
5  9  8
6  7  8
8  10  8
9  11  8

$$$$

