237656
  -OEChem-07051213063D

 36 38  0     1  0  0  0  0  0999 V2000
    5.4334    0.1444    0.3044 O   0  0  0  0  0  0  0  0  0  0  0  0
   -4.6056   -1.5206    1.7157 O   0  0  0  0  0  0  0  0  0  0  0  0
   -2.8859   -0.4282    0.6260 N   0  0  0  0  0  0  0  0  0  0  0  0
   -0.9749    0.6846   -0.4330 C   0  0  1  0  0  0  0  0  0  0  0  0
   -0.5713    1.4728    0.8176 C   0  0  0  0  0  0  0  0  0  0  0  0
   -0.1300   -0.5954   -0.5313 C   0  0  0  0  0  0  0  0  0  0  0  0
    0.8895    1.9134    0.7255 C   0  0  0  0  0  0  0  0  0  0  0  0
    1.3457   -0.3599   -0.3177 C   0  0  0  0  0  0  0  0  0  0  0  0
    1.8222    0.8047    0.3101 C   0  0  0  0  0  0  0  0  0  0  0  0
   -2.4374    0.3562   -0.4175 C   0  0  0  0  0  0  0  0  0  0  0  0
    2.2563   -1.3548   -0.7055 C   0  0  0  0  0  0  0  0  0  0  0  0
    3.2025    0.9672    0.5043 C   0  0  0  0  0  0  0  0  0  0  0  0
   -3.3046    0.7810   -1.3502 C   0  0  0  0  0  0  0  0  0  0  0  0
    4.0979   -0.0243    0.1050 C   0  0  0  0  0  0  0  0  0  0  0  0
    3.6249   -1.1861   -0.4975 C   0  0  0  0  0  0  0  0  0  0  0  0
   -4.2047   -0.8224    0.7879 C   0  0  0  0  0  0  0  0  0  0  0  0
   -4.6971    0.4183   -1.2595 C   0  0  0  0  0  0  0  0  0  0  0  0
   -5.1540   -0.3416   -0.2563 C   0  0  0  0  0  0  0  0  0  0  0  0
    6.2930   -0.9092   -0.1281 C   0  0  0  0  0  0  0  0  0  0  0  0
   -0.7520    1.3096   -1.3102 H   0  0  0  0  0  0  0  0  0  0  0  0
   -0.6993    0.8616    1.7208 H   0  0  0  0  0  0  0  0  0  0  0  0
   -1.2061    2.3588    0.9426 H   0  0  0  0  0  0  0  0  0  0  0  0
   -0.2838   -1.0434   -1.5221 H   0  0  0  0  0  0  0  0  0  0  0  0
   -0.4410   -1.3413    0.2108 H   0  0  0  0  0  0  0  0  0  0  0  0
    1.1970    2.3144    1.6988 H   0  0  0  0  0  0  0  0  0  0  0  0
    0.9770    2.7243   -0.0086 H   0  0  0  0  0  0  0  0  0  0  0  0
    1.8997   -2.2693   -1.1737 H   0  0  0  0  0  0  0  0  0  0  0  0
    3.5810    1.8740    0.9710 H   0  0  0  0  0  0  0  0  0  0  0  0
   -2.2139   -0.7346    1.3228 H   0  0  0  0  0  0  0  0  0  0  0  0
   -2.9935    1.3983   -2.1854 H   0  0  0  0  0  0  0  0  0  0  0  0
    4.2624   -1.9987   -0.8285 H   0  0  0  0  0  0  0  0  0  0  0  0
   -5.3681    0.7800   -2.0308 H   0  0  0  0  0  0  0  0  0  0  0  0
   -6.1972   -0.6217   -0.1759 H   0  0  0  0  0  0  0  0  0  0  0  0
    7.3186   -0.6068    0.1074 H   0  0  0  0  0  0  0  0  0  0  0  0
    6.2424   -1.0502   -1.2131 H   0  0  0  0  0  0  0  0  0  0  0  0
    6.0994   -1.8372    0.4206 H   0  0  0  0  0  0  0  0  0  0  0  0
  1 14  1  0  0  0  0
  1 19  1  0  0  0  0
  2 16  2  0  0  0  0
  3 10  1  0  0  0  0
  3 16  1  0  0  0  0
  3 29  1  0  0  0  0
  4  5  1  0  0  0  0
  4  6  1  0  0  0  0
  4 10  1  0  0  0  0
  4 20  1  0  0  0  0
  5  7  1  0  0  0  0
  5 21  1  0  0  0  0
  5 22  1  0  0  0  0
  6  8  1  0  0  0  0
  6 23  1  0  0  0  0
  6 24  1  0  0  0  0
  7  9  1  0  0  0  0
  7 25  1  0  0  0  0
  7 26  1  0  0  0  0
  8  9  2  0  0  0  0
  8 11  1  0  0  0  0
  9 12  1  0  0  0  0
 10 13  2  0  0  0  0
 11 15  2  0  0  0  0
 11 27  1  0  0  0  0
 12 14  2  0  0  0  0
 12 28  1  0  0  0  0
 13 17  1  0  0  0  0
 13 30  1  0  0  0  0
 14 15  1  0  0  0  0
 15 31  1  0  0  0  0
 16 18  1  0  0  0  0
 17 18  2  0  0  0  0
 17 32  1  0  0  0  0
 18 33  1  0  0  0  0
 19 34  1  0  0  0  0
 19 35  1  0  0  0  0
 19 36  1  0  0  0  0
M  END
> <PUBCHEM_COMPOUND_CID>
237656

> <PUBCHEM_CONFORMER_RMSD>
0.6

> <PUBCHEM_CONFORMER_DIVERSEORDER>
4
18
2
3
20
9
15
13
10
19
8
14
12
17
5
1
11
6
7
16

> <PUBCHEM_MMFF94_PARTIAL_CHARGES>
25
1 -0.36
10 -0.03
11 -0.15
12 -0.15
13 -0.15
14 0.08
15 -0.15
16 0.62
17 -0.15
18 -0.14
19 0.28
2 -0.57
27 0.15
28 0.15
29 0.37
3 -0.54
30 0.15
31 0.15
32 0.15
33 0.15
4 0.14
6 0.14
7 0.14
8 -0.14
9 -0.14

> <PUBCHEM_EFFECTIVE_ROTOR_COUNT>
2.8

> <PUBCHEM_PHARMACOPHORE_FEATURES>
6
1 1 acceptor
1 2 acceptor
1 3 donor
6 3 10 13 16 17 18 rings
6 4 5 6 7 8 9 rings
6 8 9 11 12 14 15 rings

> <PUBCHEM_HEAVY_ATOM_COUNT>
19

> <PUBCHEM_ATOM_DEF_STEREO_COUNT>
0

> <PUBCHEM_ATOM_UDEF_STEREO_COUNT>
1

> <PUBCHEM_BOND_DEF_STEREO_COUNT>
0

> <PUBCHEM_BOND_UDEF_STEREO_COUNT>
0

> <PUBCHEM_ISOTOPIC_ATOM_COUNT>
0

> <PUBCHEM_COMPONENT_COUNT>
1

> <PUBCHEM_CACTVS_TAUTO_COUNT>
2

> <PUBCHEM_CONFORMER_ID>
0003A05800000004

> <PUBCHEM_MMFF94_ENERGY>
54.2377

> <PUBCHEM_FEATURE_SELFOVERLAP>
30.467

> <PUBCHEM_SHAPE_FINGERPRINT>
10 15 18341061718611099176
11287383 113 17918273126030590716
11471102 20 18187370913147878028
11543360 7 17060330816725557293
11796584 16 17703515483885194322
12107183 9 14565587449384777535
12236239 1 16515688827381864861
12596602 18 16081378410121702867
13140716 1 17896326800962524474
13288520 33 17632294575340853687
13544653 18 18333729147646091685
13760787 19 16988572324410576409
13760787 5 18040436559899369084
13862211 1 18113905978881514982
1420 363 18409164428899479694
14251751 18 18060132103023952611
14251757 5 13972533748543231809
14252887 29 17676763253811331334
14386348 63 18413108359801725395
14849402 71 15936989418534609130
15196674 1 18042124418001722980
15788980 27 18411986849108742983
17844677 252 18335137583487261461
1813 80 17604134987173917436
18785283 64 18195246603253222288
19489759 90 17346882268760194589
200 152 17895201025198387181
20645477 70 18187936122127542503
21033648 29 18263945322211612729
21033650 10 16198455684042158126
21054139 6 15554164779141346378
21065201 7 17560810935004880937
21150785 3 17560788945563772486
21267235 1 18113896083318881110
21623969 137 18333726905689305702
21641784 216 18337655499976183068
21682296 61 17969214724054277886
220451 1 16845574253054483320
2297311 6 17703789224052806109
23175994 123 18408885127234535261
23402539 116 17530689826609566916
23536379 177 16845577543242050924
23557571 272 18060145383115677309
23559900 14 17988929976239852493
26918003 58 18410856564156303065
2871803 45 18336549412615228486
2916195 48 6699799878545108486
314173 85 17531240677661337720
314194 84 18113340829641230422
465052 167 18411418423847758394
474 4 16662921031874818904
5104073 3 17970067949493225146
542803 24 14979958090078143588
602551 16 17489307434481610507
7495541 125 18130784521486224500

> <PUBCHEM_SHAPE_MULTIPOLES>
374.29
12.58
1.48
1.12
3.62
0.31
0.11
-4.12
0.41
0.56
0.26
-1.65
-0.14
1.21

> <PUBCHEM_SHAPE_SELFOVERLAP>
809.463

> <PUBCHEM_SHAPE_VOLUME>
203.5

> <PUBCHEM_COORDINATE_TYPE>
2
5
10

$$$$

