440742
  -OEChem-07051212503D

 25 26  0     0  0  0  0  0  0999 V2000
    3.0499    2.8283    0.1505 O   0  0  0  0  0  0  0  0  0  0  0  0
   -2.0778   -0.0076   -1.4400 O   0  0  0  0  0  0  0  0  0  0  0  0
   -4.4095    0.8712   -1.0567 O   0  0  0  0  0  0  0  0  0  0  0  0
   -4.1723    0.6060    1.2101 O   0  0  0  0  0  0  0  0  0  0  0  0
    1.3753   -2.3848   -0.1294 N   0  0  0  0  0  0  0  0  0  0  0  0
    1.0132   -0.2190    0.2646 C   0  0  0  0  0  0  0  0  0  0  0  0
   -0.1946   -0.9395    0.4817 C   0  0  0  0  0  0  0  0  0  0  0  0
    1.9822   -1.1491   -0.1179 C   0  0  0  0  0  0  0  0  0  0  0  0
   -1.4927   -0.3741    0.9006 C   0  0  0  0  0  0  0  0  0  0  0  0
    0.0599   -2.2683    0.2314 C   0  0  0  0  0  0  0  0  0  0  0  0
    1.3762    1.1393    0.3572 C   0  0  0  0  0  0  0  0  0  0  0  0
    3.3014   -0.7873   -0.4135 C   0  0  0  0  0  0  0  0  0  0  0  0
    2.6920    1.5159    0.0642 C   0  0  0  0  0  0  0  0  0  0  0  0
    3.6381    0.5657   -0.3149 C   0  0  0  0  0  0  0  0  0  0  0  0
   -2.3840    0.0458   -0.2581 C   0  0  0  0  0  0  0  0  0  0  0  0
   -3.7574    0.5578    0.0700 C   0  0  0  0  0  0  0  0  0  0  0  0
   -1.3372    0.5028    1.5394 H   0  0  0  0  0  0  0  0  0  0  0  0
   -2.0421   -1.1181    1.4903 H   0  0  0  0  0  0  0  0  0  0  0  0
   -0.5754   -3.1419    0.2768 H   0  0  0  0  0  0  0  0  0  0  0  0
    1.8352   -3.2520   -0.3697 H   0  0  0  0  0  0  0  0  0  0  0  0
    0.6409    1.8833    0.6511 H   0  0  0  0  0  0  0  0  0  0  0  0
    4.0386   -1.5263   -0.7088 H   0  0  0  0  0  0  0  0  0  0  0  0
    4.6567    0.8740   -0.5394 H   0  0  0  0  0  0  0  0  0  0  0  0
    2.2758    3.3491    0.4253 H   0  0  0  0  0  0  0  0  0  0  0  0
   -5.3215    1.1876   -0.8829 H   0  0  0  0  0  0  0  0  0  0  0  0
  1 13  1  0  0  0  0
  1 24  1  0  0  0  0
  2 15  2  0  0  0  0
  3 16  1  0  0  0  0
  3 25  1  0  0  0  0
  4 16  2  0  0  0  0
  5  8  1  0  0  0  0
  5 10  1  0  0  0  0
  5 20  1  0  0  0  0
  6  7  1  0  0  0  0
  6  8  2  0  0  0  0
  6 11  1  0  0  0  0
  7  9  1  0  0  0  0
  7 10  2  0  0  0  0
  8 12  1  0  0  0  0
  9 15  1  0  0  0  0
  9 17  1  0  0  0  0
  9 18  1  0  0  0  0
 10 19  1  0  0  0  0
 11 13  2  0  0  0  0
 11 21  1  0  0  0  0
 12 14  2  0  0  0  0
 12 22  1  0  0  0  0
 13 14  1  0  0  0  0
 14 23  1  0  0  0  0
 15 16  1  0  0  0  0
M  END
> <PUBCHEM_COMPOUND_CID>
440742

> <PUBCHEM_CONFORMER_RMSD>
0.6

> <PUBCHEM_CONFORMER_DIVERSEORDER>
1
21
17
18
15
23
12
10
14
22
9
7
13
16
2
8
11
19
5
3
6
20
4

> <PUBCHEM_MMFF94_PARTIAL_CHARGES>
22
1 -0.53
10 -0.3
11 -0.15
12 -0.15
13 0.08
14 -0.15
15 0.51
16 0.72
19 0.15
2 -0.57
20 0.27
21 0.15
22 0.15
23 0.15
24 0.45
25 0.5
3 -0.65
4 -0.57
5 0.03
7 -0.18
8 -0.15
9 0.24

> <PUBCHEM_EFFECTIVE_ROTOR_COUNT>
3

> <PUBCHEM_PHARMACOPHORE_FEATURES>
9
1 1 donor
1 2 acceptor
1 3 acceptor
1 4 acceptor
1 5 cation
1 5 donor
3 3 4 16 anion
5 5 6 7 8 10 rings
6 6 8 11 12 13 14 rings

> <PUBCHEM_HEAVY_ATOM_COUNT>
16

> <PUBCHEM_ATOM_DEF_STEREO_COUNT>
0

> <PUBCHEM_ATOM_UDEF_STEREO_COUNT>
0

> <PUBCHEM_BOND_DEF_STEREO_COUNT>
0

> <PUBCHEM_BOND_UDEF_STEREO_COUNT>
0

> <PUBCHEM_ISOTOPIC_ATOM_COUNT>
0

> <PUBCHEM_COMPONENT_COUNT>
1

> <PUBCHEM_CACTVS_TAUTO_COUNT>
25

> <PUBCHEM_CONFORMER_ID>
0006B9A600000001

> <PUBCHEM_MMFF94_ENERGY>
25.8894

> <PUBCHEM_FEATURE_SELFOVERLAP>
45.83

> <PUBCHEM_SHAPE_FINGERPRINT>
10608611 8 18341892948404431473
11031198 65 18411975892631567367
11471102 20 18410575123502478910
11796584 16 14346065490464890444
12251169 10 11023820678170826009
12654215 9 18341611546927467894
12730499 353 18343579672936573843
13583140 156 16700918010547194896
14250199 8 18336548312913943517
14911166 2 18336816564060844390
15219456 202 18272927224240524435
15279308 100 18340198571501486820
15342168 16 18198898128602942981
15775835 57 18334575728623250703
16945 1 18336818758662609890
17134986 127 18411139091568851798
18186145 218 18335417971646698996
18219364 16 18341035337951107442
19422 9 17894633669114883511
20606313 2 18410855503415548822
20645476 183 17676212381332580383
20645477 70 18266185109455302551
20820808 20 18408042905247690354
21486144 27 18343023263527111453
21499 59 18409451345288342487
21524375 3 18341619152940321194
21639500 275 18410018744664339150
22854114 111 18411138064818447411
22892500 29 18341335569250407638
231179 274 18131637806585591920
23402655 69 18333450966919885501
23557571 272 17275095159573953517
23559900 14 18188201002374072124
25 1 18410853269879639090
2748010 2 18120640354468232074
3060560 45 18334859458721990814
474 4 18408887308560768744
633830 44 18187634808654615221
77492 1 17531526589623900635
81228 2 17554329116048176930
8272917 22 18116707620477038215
84936 182 18040720229651958424

> <PUBCHEM_SHAPE_MULTIPOLES>
300.81
7.26
2.17
0.93
5.91
0.04
-0.08
-3.7
-0.8
-2.04
0.12
0.77
-0.06
0.32

> <PUBCHEM_SHAPE_SELFOVERLAP>
656.819

> <PUBCHEM_SHAPE_VOLUME>
163.4

> <PUBCHEM_COORDINATE_TYPE>
2
5
10

$$$$

