89640
  -OEChem-07051212452D

 50 52  0     1  0  0  0  0  0999 V2000
    6.0010    0.5000    0.0000 O   0  0  0  0  0  0  0  0  0  0  0  0
    5.1350   -1.0000    0.0000 O   0  0  0  0  0  0  0  0  0  0  0  0
    9.3969   -1.5000    0.0000 O   0  0  0  0  0  0  0  0  0  0  0  0
    5.1350    2.0000    0.0000 O   0  0  0  0  0  0  0  0  0  0  0  0
    4.2690   -0.5000    0.0000 O   0  0  0  0  0  0  0  0  0  0  0  0
    2.5369    0.5000    0.0000 O   0  0  0  0  0  0  0  0  0  0  0  0
    2.5369    2.5000    0.0000 O   0  0  0  0  0  0  0  0  0  0  0  0
    5.1350   -4.0000    0.0000 O   0  0  0  0  0  0  0  0  0  0  0  0
    6.8671   -4.0000    0.0000 O   0  0  0  0  0  0  0  0  0  0  0  0
    5.1350    4.0000    0.0000 O   0  0  0  0  0  0  0  0  0  0  0  0
    6.8671   -1.0000    0.0000 C   0  0  1  0  0  0  0  0  0  0  0  0
    6.8671   -2.0000    0.0000 C   0  0  2  0  0  0  0  0  0  0  0  0
    7.8133   -0.6953    0.0000 C   0  0  2  0  0  0  0  0  0  0  0  0
    8.3969   -1.5000    0.0000 C   0  0  2  0  0  0  0  0  0  0  0  0
    7.8133   -2.3047    0.0000 C   0  0  0  0  0  0  0  0  0  0  0  0
    6.0010   -0.5000    0.0000 C   0  0  2  0  0  0  0  0  0  0  0  0
    6.0010   -2.5000    0.0000 C   0  0  0  0  0  0  0  0  0  0  0  0
    8.1240    0.2553    0.0000 C   0  0  0  0  0  0  0  0  0  0  0  0
    5.1350    1.0000    0.0000 C   0  0  2  0  0  0  0  0  0  0  0  0
    5.1350   -2.0000    0.0000 C   0  0  0  0  0  0  0  0  0  0  0  0
    4.2690    0.5000    0.0000 C   0  0  1  0  0  0  0  0  0  0  0  0
    3.4030    1.0000    0.0000 C   0  0  2  0  0  0  0  0  0  0  0  0
    3.4030    2.0000    0.0000 C   0  0  1  0  0  0  0  0  0  0  0  0
    4.2690    2.5000    0.0000 C   0  0  1  0  0  0  0  0  0  0  0  0
    6.0010   -3.5000    0.0000 C   0  0  0  0  0  0  0  0  0  0  0  0
    4.2690    3.5000    0.0000 C   0  0  0  0  0  0  0  0  0  0  0  0
    6.9570   -0.1548    0.0000 H   0  0  0  0  0  0  0  0  0  0  0  0
    6.9570   -2.8452    0.0000 H   0  0  0  0  0  0  0  0  0  0  0  0
    7.3758   -0.2559    0.0000 H   0  0  0  0  0  0  0  0  0  0  0  0
    8.6786   -2.0523    0.0000 H   0  0  0  0  0  0  0  0  0  0  0  0
    7.5622   -2.8716    0.0000 H   0  0  0  0  0  0  0  0  0  0  0  0
    8.3507   -2.6140    0.0000 H   0  0  0  0  0  0  0  0  0  0  0  0
    6.5380   -0.1900    0.0000 H   0  0  0  0  0  0  0  0  0  0  0  0
    8.7133    0.0626    0.0000 H   0  0  0  0  0  0  0  0  0  0  0  0
    8.3166    0.8446    0.0000 H   0  0  0  0  0  0  0  0  0  0  0  0
    7.5346    0.4479    0.0000 H   0  0  0  0  0  0  0  0  0  0  0  0
    5.1350    0.3800    0.0000 H   0  0  0  0  0  0  0  0  0  0  0  0
    4.5981   -2.3100    0.0000 H   0  0  0  0  0  0  0  0  0  0  0  0
    4.8059    0.1900    0.0000 H   0  0  0  0  0  0  0  0  0  0  0  0
    9.7069   -2.0369    0.0000 H   0  0  0  0  0  0  0  0  0  0  0  0
    3.4030    0.3800    0.0000 H   0  0  0  0  0  0  0  0  0  0  0  0
    3.4030    2.6200    0.0000 H   0  0  0  0  0  0  0  0  0  0  0  0
    4.8059    2.8100    0.0000 H   0  0  0  0  0  0  0  0  0  0  0  0
    4.0569    4.0826    0.0000 H   0  0  0  0  0  0  0  0  0  0  0  0
    3.6584    3.3923    0.0000 H   0  0  0  0  0  0  0  0  0  0  0  0
    3.7320   -0.8100    0.0000 H   0  0  0  0  0  0  0  0  0  0  0  0
    2.0000    0.8100    0.0000 H   0  0  0  0  0  0  0  0  0  0  0  0
    2.5369    3.1200    0.0000 H   0  0  0  0  0  0  0  0  0  0  0  0
    5.1350   -4.6200    0.0000 H   0  0  0  0  0  0  0  0  0  0  0  0
    5.1350    4.6200    0.0000 H   0  0  0  0  0  0  0  0  0  0  0  0
 16  1  1  1  0  0  0
 19  1  1  1  0  0  0
  2 16  1  0  0  0  0
  2 20  1  0  0  0  0
 14  3  1  1  0  0  0
  3 40  1  0  0  0  0
  4 19  1  0  0  0  0
  4 24  1  0  0  0  0
 21  5  1  6  0  0  0
  5 46  1  0  0  0  0
 22  6  1  1  0  0  0
  6 47  1  0  0  0  0
 23  7  1  6  0  0  0
  7 48  1  0  0  0  0
  8 25  1  0  0  0  0
  8 49  1  0  0  0  0
  9 25  2  0  0  0  0
 10 26  1  0  0  0  0
 10 50  1  0  0  0  0
 11 12  1  0  0  0  0
 11 13  1  0  0  0  0
 11 16  1  0  0  0  0
 11 27  1  1  0  0  0
 12 15  1  0  0  0  0
 12 17  1  0  0  0  0
 12 28  1  1  0  0  0
 13 14  1  0  0  0  0
 13 18  1  1  0  0  0
 13 29  1  0  0  0  0
 14 15  1  0  0  0  0
 14 30  1  0  0  0  0
 15 31  1  0  0  0  0
 15 32  1  0  0  0  0
 16 33  1  0  0  0  0
 17 20  2  0  0  0  0
 17 25  1  0  0  0  0
 18 34  1  0  0  0  0
 18 35  1  0  0  0  0
 18 36  1  0  0  0  0
 19 21  1  0  0  0  0
 19 37  1  0  0  0  0
 20 38  1  0  0  0  0
 21 22  1  0  0  0  0
 21 39  1  0  0  0  0
 22 23  1  0  0  0  0
 22 41  1  0  0  0  0
 23 24  1  0  0  0  0
 23 42  1  0  0  0  0
 24 26  1  1  0  0  0
 24 43  1  0  0  0  0
 26 44  1  0  0  0  0
 26 45  1  0  0  0  0
M  END
> <PUBCHEM_COMPOUND_CID>
89640

> <PUBCHEM_COMPOUND_CANONICALIZED>
1

> <PUBCHEM_CACTVS_COMPLEXITY>
565

> <PUBCHEM_CACTVS_HBOND_ACCEPTOR>
10

> <PUBCHEM_CACTVS_HBOND_DONOR>
6

> <PUBCHEM_CACTVS_ROTATABLE_BOND>
4

> <PUBCHEM_CACTVS_SUBSKEYS>
AAADceB4PAAAAAAAAAAAAAAAAAAAAYAAAAAkQAAAAAAAAEAAAAAAGgAACAAADRSwgAMCCAAABgCIAgDSCAAACAAgIAAAAAEAAEgRFBIAAQAiQAAFgAAHEIHI7PzOgAAAAAAAAAAAAAAAAAAAAYAADAAAAA==

> <PUBCHEM_IUPAC_OPENEYE_NAME>
(1S,4aS,6S,7R,7aS)-6-hydroxy-7-methyl-1-[(2S,3R,4S,5S,6R)-3,4,5-trihydroxy-6-(hydroxymethyl)tetrahydropyran-2-yl]oxy-1,4a,5,6,7,7a-hexahydrocyclopenta[c]pyran-4-carboxylic acid

> <PUBCHEM_IUPAC_CAS_NAME>
(1S,4aS,6S,7R,7aS)-6-hydroxy-7-methyl-1-[[(2S,3R,4S,5S,6R)-3,4,5-trihydroxy-6-(hydroxymethyl)-2-oxanyl]oxy]-1,4a,5,6,7,7a-hexahydrocyclopenta[c]pyran-4-carboxylic acid

> <PUBCHEM_IUPAC_NAME>
(1S,4aS,6S,7R,7aS)-6-hydroxy-7-methyl-1-[(2S,3R,4S,5S,6R)-3,4,5-trihydroxy-6-(hydroxymethyl)oxan-2-yl]oxy-1,4a,5,6,7,7a-hexahydrocyclopenta[c]pyran-4-carboxylic acid

> <PUBCHEM_IUPAC_SYSTEMATIC_NAME>
(1S,4aS,6S,7R,7aS)-1-[(2S,3R,4S,5S,6R)-6-(hydroxymethyl)-3,4,5-tris(oxidanyl)oxan-2-yl]oxy-7-methyl-6-oxidanyl-1,4a,5,6,7,7a-hexahydrocyclopenta[c]pyran-4-carboxylic acid

> <PUBCHEM_IUPAC_TRADITIONAL_NAME>
(1S,4aS,6S,7R,7aS)-6-hydroxy-7-methyl-1-[(2S,3R,4S,5S,6R)-3,4,5-trihydroxy-6-methylol-tetrahydropyran-2-yl]oxy-1,4a,5,6,7,7a-hexahydrocyclopenta[c]pyran-4-carboxylic acid

> <PUBCHEM_IUPAC_INCHI>
InChI=1S/C16H24O10/c1-5-8(18)2-6-7(14(22)23)4-24-15(10(5)6)26-16-13(21)12(20)11(19)9(3-17)25-16/h4-6,8-13,15-21H,2-3H2,1H3,(H,22,23)/t5-,6+,8-,9+,10+,11+,12-,13+,15-,16-/m0/s1

> <PUBCHEM_IUPAC_INCHIKEY>
JNNGEAWILNVFFD-CDJYTOATSA-N

> <PUBCHEM_XLOGP3_AA>
-1.7

> <PUBCHEM_EXACT_MASS>
376.136947

> <PUBCHEM_MOLECULAR_FORMULA>
C16H24O10

> <PUBCHEM_MOLECULAR_WEIGHT>
376.35576

> <PUBCHEM_OPENEYE_CAN_SMILES>
CC1C(CC2C1C(OC=C2C(=O)O)OC3C(C(C(C(O3)CO)O)O)O)O

> <PUBCHEM_OPENEYE_ISO_SMILES>
C[C@H]1[C@H](C[C@H]2[C@@H]1[C@@H](OC=C2C(=O)O)O[C@H]3[C@@H]([C@H]([C@@H]([C@H](O3)CO)O)O)O)O

> <PUBCHEM_CACTVS_TPSA>
166

> <PUBCHEM_MONOISOTOPIC_WEIGHT>
376.136947

> <PUBCHEM_TOTAL_CHARGE>
0

> <PUBCHEM_HEAVY_ATOM_COUNT>
26

> <PUBCHEM_ATOM_DEF_STEREO_COUNT>
10

> <PUBCHEM_ATOM_UDEF_STEREO_COUNT>
0

> <PUBCHEM_BOND_DEF_STEREO_COUNT>
0

> <PUBCHEM_BOND_UDEF_STEREO_COUNT>
0

> <PUBCHEM_ISOTOPIC_ATOM_COUNT>
0

> <PUBCHEM_COMPONENT_COUNT>
1

> <PUBCHEM_CACTVS_TAUTO_COUNT>
1

> <PUBCHEM_COORDINATE_TYPE>
1
5
255

> <PUBCHEM_BONDANNOTATIONS>
16  1  5
19  1  5
11  27  5
12  28  5
13  18  5
24  26  5
14  3  5
21  5  6
22  6  5
23  7  6

$$$$

