10167
  -OEChem-06261204213D

 28 30  0     0  0  0  0  0  0999 V2000
    1.6913    1.3835    0.1303 O   0  0  0  0  0  0  0  0  0  0  0  0
   -3.0765    0.8142    0.1734 O   0  0  0  0  0  0  0  0  0  0  0  0
   -0.7613    2.5691    0.2583 O   0  0  0  0  0  0  0  0  0  0  0  0
   -0.4124   -2.9869   -0.1445 O   0  0  0  0  0  0  0  0  0  0  0  0
    2.1871   -2.6484   -0.1647 O   0  0  0  0  0  0  0  0  0  0  0  0
    0.6725   -0.8207   -0.0088 C   0  0  0  0  0  0  0  0  0  0  0  0
    0.5832    0.5699    0.0920 C   0  0  0  0  0  0  0  0  0  0  0  0
   -1.7343   -0.9965    0.0210 C   0  0  0  0  0  0  0  0  0  0  0  0
   -1.7824    0.3900    0.1207 C   0  0  0  0  0  0  0  0  0  0  0  0
   -0.6576    1.2127    0.1598 C   0  0  0  0  0  0  0  0  0  0  0  0
   -0.4778   -1.6258   -0.0459 C   0  0  0  0  0  0  0  0  0  0  0  0
    2.0062   -1.4416   -0.0773 C   0  0  0  0  0  0  0  0  0  0  0  0
   -3.0867   -1.4297    0.0136 C   0  0  0  0  0  0  0  0  0  0  0  0
    2.9447    0.7985    0.0656 C   0  0  0  0  0  0  0  0  0  0  0  0
    3.1578   -0.5212   -0.0327 C   0  0  0  0  0  0  0  0  0  0  0  0
   -3.8583   -0.2949    0.1078 C   0  0  0  0  0  0  0  0  0  0  0  0
    4.0673    1.7864    0.1161 C   0  0  0  0  0  0  0  0  0  0  0  0
   -1.4628    3.2413   -0.7849 C   0  0  0  0  0  0  0  0  0  0  0  0
   -3.4539   -2.4441   -0.0524 H   0  0  0  0  0  0  0  0  0  0  0  0
    4.1531   -0.9474   -0.0811 H   0  0  0  0  0  0  0  0  0  0  0  0
   -4.9232   -0.1170    0.1389 H   0  0  0  0  0  0  0  0  0  0  0  0
    3.9925    2.4860   -0.7226 H   0  0  0  0  0  0  0  0  0  0  0  0
    5.0479    1.3021    0.0636 H   0  0  0  0  0  0  0  0  0  0  0  0
    4.0246    2.3590    1.0483 H   0  0  0  0  0  0  0  0  0  0  0  0
    0.5098   -3.2826   -0.1819 H   0  0  0  0  0  0  0  0  0  0  0  0
   -1.2610    2.7888   -1.7617 H   0  0  0  0  0  0  0  0  0  0  0  0
   -2.5371    3.2410   -0.5804 H   0  0  0  0  0  0  0  0  0  0  0  0
   -1.1200    4.2796   -0.8093 H   0  0  0  0  0  0  0  0  0  0  0  0
  1  7  1  0  0  0  0
  1 14  1  0  0  0  0
  2  9  1  0  0  0  0
  2 16  1  0  0  0  0
  3 10  1  0  0  0  0
  3 18  1  0  0  0  0
  4 11  1  0  0  0  0
  4 25  1  0  0  0  0
  5 12  2  0  0  0  0
  6  7  2  0  0  0  0
  6 11  1  0  0  0  0
  6 12  1  0  0  0  0
  7 10  1  0  0  0  0
  8  9  1  0  0  0  0
  8 11  2  0  0  0  0
  8 13  1  0  0  0  0
  9 10  2  0  0  0  0
 12 15  1  0  0  0  0
 13 16  2  0  0  0  0
 13 19  1  0  0  0  0
 14 15  2  0  0  0  0
 14 17  1  0  0  0  0
 15 20  1  0  0  0  0
 16 21  1  0  0  0  0
 17 22  1  0  0  0  0
 17 23  1  0  0  0  0
 17 24  1  0  0  0  0
 18 26  1  0  0  0  0
 18 27  1  0  0  0  0
 18 28  1  0  0  0  0
M  END
> <PUBCHEM_COMPOUND_CID>
10167

> <PUBCHEM_CONFORMER_RMSD>
0.6

> <PUBCHEM_CONFORMER_DIVERSEORDER>
1

> <PUBCHEM_MMFF94_PARTIAL_CHARGES>
21
1 -0.16
10 0.08
11 0.08
12 0.47
13 -0.15
14 -0.06
15 -0.14
16 -0.01
17 0.14
18 0.28
19 0.15
2 -0.28
20 0.15
21 0.15
25 0.45
3 -0.36
4 -0.53
5 -0.57
6 0.09
7 0.08
9 0.14

> <PUBCHEM_EFFECTIVE_ROTOR_COUNT>
1

> <PUBCHEM_PHARMACOPHORE_FEATURES>
8
1 1 acceptor
1 2 acceptor
1 3 acceptor
1 4 donor
1 5 acceptor
5 2 8 9 13 16 rings
6 1 6 7 12 14 15 rings
6 6 7 8 9 10 11 rings

> <PUBCHEM_HEAVY_ATOM_COUNT>
18

> <PUBCHEM_ATOM_DEF_STEREO_COUNT>
0

> <PUBCHEM_ATOM_UDEF_STEREO_COUNT>
0

> <PUBCHEM_BOND_DEF_STEREO_COUNT>
0

> <PUBCHEM_BOND_UDEF_STEREO_COUNT>
0

> <PUBCHEM_ISOTOPIC_ATOM_COUNT>
0

> <PUBCHEM_COMPONENT_COUNT>
1

> <PUBCHEM_CACTVS_TAUTO_COUNT>
11

> <PUBCHEM_CONFORMER_ID>
000027B700000001

> <PUBCHEM_MMFF94_ENERGY>
49.5177

> <PUBCHEM_FEATURE_SELFOVERLAP>
40.734

> <PUBCHEM_SHAPE_FINGERPRINT>
10411042 1 17040914838051233607
10608611 8 18339082704158459468
10693767 8 15303918892462026526
10967382 1 18338234868934493762
11132069 177 18334581196285488480
11471102 20 18409452466127178751
12382932 28 18338233760912156858
13132413 78 18192991513272542141
13140716 1 17545031607469651251
13380535 76 18338237059626654386
14223421 5 18338797930646625148
14614273 12 18270403931054546093
14790565 3 18266725892808760953
15042514 8 18195530294749257058
15196674 1 18409729538751939386
15375462 6 18411136952400825294
15442244 35 18194401332187724002
15536298 74 18261108578169827078
16945 1 18410577283929076998
193761 8 18050287265013559459
19591789 44 18194117413253114086
20510252 161 18334294279416831144
20588541 1 18337107856620461634
20739085 24 18124000603678646921
21029758 27 18127966400159292877
21267235 1 18409719651806127034
21501502 16 18265049309126343160
2334 1 18410009897395888171
23366157 5 18059006311198089490
23402539 116 18262245399803846911
23419403 2 15893995403461779899
23463225 33 18412262813547441139
23558518 356 18128530655424134705
23559900 14 18263649631409902546
238 59 16475468975427124709
2748010 2 18410574032491056551
335352 9 17977664534947251375
34934 24 18338524040661546787
350125 39 18338793545764883056
5104073 3 18410572881350235770
528886 8 18264775367749077618
589210 1 18123472949223034277
7364860 26 18334292111033274830
81228 2 18201148957722435601
9709674 26 18337668715067728246

> <PUBCHEM_SHAPE_MULTIPOLES>
341.08
5.79
3.18
0.64
1.29
0.67
-0.03
0.63
0.26
-0.06
-0.5
-0.04
0.12
0.28

> <PUBCHEM_SHAPE_SELFOVERLAP>
765.659

> <PUBCHEM_SHAPE_VOLUME>
182.3

> <PUBCHEM_COORDINATE_TYPE>
2
5
10

$$$$

