23717
  -OEChem-07051213133D

 40 40  0     0  0  0  0  0  0999 V2000
   -5.6226   -0.0440   -0.2661 S   0  0  0  0  0  0  0  0  0  0  0  0
    1.2357   -0.1857    1.0544 P   0  0  0  0  0  0  0  0  0  0  0  0
    2.6502   -0.9511    0.8459 O   0  0  0  0  0  0  0  0  0  0  0  0
    1.3149    1.0713    0.0342 O   0  0  0  0  0  0  0  0  0  0  0  0
    0.1650   -1.1829    0.3692 O   0  0  0  0  0  0  0  0  0  0  0  0
    0.9491    0.1673    2.4866 O   0  0  0  0  0  0  0  0  0  0  0  0
    3.0579   -1.3480   -0.4523 C   0  0  0  0  0  0  0  0  0  0  0  0
    2.2896    2.0721    0.2714 C   0  0  0  0  0  0  0  0  0  0  0  0
    4.4101   -2.0373   -0.3539 C   0  0  0  0  0  0  0  0  0  0  0  0
    2.1720    3.1384   -0.8067 C   0  0  0  0  0  0  0  0  0  0  0  0
   -1.1701   -0.9201    0.2220 C   0  0  0  0  0  0  0  0  0  0  0  0
    4.9194   -2.4787   -1.7142 C   0  0  0  0  0  0  0  0  0  0  0  0
    3.1997    4.2410   -0.6250 C   0  0  0  0  0  0  0  0  0  0  0  0
   -1.6904    0.2849    0.6822 C   0  0  0  0  0  0  0  0  0  0  0  0
   -1.9953   -1.8604   -0.3861 C   0  0  0  0  0  0  0  0  0  0  0  0
   -3.8840   -0.3861   -0.0761 C   0  0  0  0  0  0  0  0  0  0  0  0
   -3.0512    0.5526    0.5328 C   0  0  0  0  0  0  0  0  0  0  0  0
   -3.3560   -1.5926   -0.5356 C   0  0  0  0  0  0  0  0  0  0  0  0
   -5.5941    1.4595   -1.2827 C   0  0  0  0  0  0  0  0  0  0  0  0
    3.1252   -0.4694   -1.1012 H   0  0  0  0  0  0  0  0  0  0  0  0
    2.3133   -2.0332   -0.8702 H   0  0  0  0  0  0  0  0  0  0  0  0
    3.2872    1.6217    0.2585 H   0  0  0  0  0  0  0  0  0  0  0  0
    2.1174    2.5074    1.2614 H   0  0  0  0  0  0  0  0  0  0  0  0
    5.1351   -1.3591    0.1122 H   0  0  0  0  0  0  0  0  0  0  0  0
    4.3341   -2.9030    0.3148 H   0  0  0  0  0  0  0  0  0  0  0  0
    2.2923    2.6771   -1.7942 H   0  0  0  0  0  0  0  0  0  0  0  0
    1.1615    3.5643   -0.7942 H   0  0  0  0  0  0  0  0  0  0  0  0
    5.0400   -1.6220   -2.3849 H   0  0  0  0  0  0  0  0  0  0  0  0
    5.8919   -2.9709   -1.6139 H   0  0  0  0  0  0  0  0  0  0  0  0
    4.2271   -3.1864   -2.1814 H   0  0  0  0  0  0  0  0  0  0  0  0
    3.0729    4.7399    0.3410 H   0  0  0  0  0  0  0  0  0  0  0  0
    3.0922    4.9933   -1.4126 H   0  0  0  0  0  0  0  0  0  0  0  0
    4.2174    3.8407   -0.6744 H   0  0  0  0  0  0  0  0  0  0  0  0
   -1.0829    1.0453    1.1590 H   0  0  0  0  0  0  0  0  0  0  0  0
   -1.5880   -2.8012   -0.7453 H   0  0  0  0  0  0  0  0  0  0  0  0
   -3.4420    1.4967    0.9041 H   0  0  0  0  0  0  0  0  0  0  0  0
   -3.9894   -2.3364   -1.0129 H   0  0  0  0  0  0  0  0  0  0  0  0
   -6.6187    1.7275   -1.5536 H   0  0  0  0  0  0  0  0  0  0  0  0
   -5.1528    2.2928   -0.7300 H   0  0  0  0  0  0  0  0  0  0  0  0
   -5.0236    1.2879   -2.1996 H   0  0  0  0  0  0  0  0  0  0  0  0
  1 16  1  0  0  0  0
  1 19  1  0  0  0  0
  2  3  1  0  0  0  0
  2  4  1  0  0  0  0
  2  5  1  0  0  0  0
  2  6  2  0  0  0  0
  3  7  1  0  0  0  0
  4  8  1  0  0  0  0
  5 11  1  0  0  0  0
  7  9  1  0  0  0  0
  7 20  1  0  0  0  0
  7 21  1  0  0  0  0
  8 10  1  0  0  0  0
  8 22  1  0  0  0  0
  8 23  1  0  0  0  0
  9 12  1  0  0  0  0
  9 24  1  0  0  0  0
  9 25  1  0  0  0  0
 10 13  1  0  0  0  0
 10 26  1  0  0  0  0
 10 27  1  0  0  0  0
 11 14  2  0  0  0  0
 11 15  1  0  0  0  0
 12 28  1  0  0  0  0
 12 29  1  0  0  0  0
 12 30  1  0  0  0  0
 13 31  1  0  0  0  0
 13 32  1  0  0  0  0
 13 33  1  0  0  0  0
 14 17  1  0  0  0  0
 14 34  1  0  0  0  0
 15 18  2  0  0  0  0
 15 35  1  0  0  0  0
 16 17  2  0  0  0  0
 16 18  1  0  0  0  0
 17 36  1  0  0  0  0
 18 37  1  0  0  0  0
 19 38  1  0  0  0  0
 19 39  1  0  0  0  0
 19 40  1  0  0  0  0
M  END
> <PUBCHEM_COMPOUND_CID>
23717

> <PUBCHEM_CONFORMER_RMSD>
0.8

> <PUBCHEM_CONFORMER_DIVERSEORDER>
1
229
101
158
111
168
230
238
141
142
47
282
188
131
50
210
183
277
196
67
148
285
187
99
245
231
233
250
198
61
44
25
103
107
286
95
279
52
254
241
3
150
281
134
159
119
200
239
199
182
98
264
153
191
260
113
23
269
164
83
81
273
127
226
205
185
117
74
216
212
130
204
90
102
172
125
283
105
28
88
211
178
203
232
72
179
174
259
138
237
5
262
68
166
278
115
122
55
253
181
272
146
14
202
137
224
42
268
45
223
192
274
263
217
139
34
84
51
244
58
267
234
176
160
82
41
201
243
228
78
6
255
162
173
46
144
140
26
207
116
108
248
120
215
21
170
100
66
38
156
180
145
13
258
184
114
265
128
247
57
154
287
169
104
171
49
43
194
59
17
109
252
177
124
7
11
256
219
266
227
284
220
29
152
53
155
240
92
106
190
249
27
214
39
246
35
54
261
19
76
77
56
189
85
167
16
276
86
235
93
271
251
91
151
64
275
165
94
221
24
80
10
33
121
218
213
225
37
147
118
112
132
197
175
209
97
123
36
280
73
22
79
2
89
206
110
135
236
126
87
62
30
9
20
129
70
208
270
133
15
63
257
161
60
96
4
143
71
75
40
195
149
163
18
32
157
12
222
65
31
136
242
8
193
186
48
69

> <PUBCHEM_MMFF94_PARTIAL_CHARGES>
19
1 -0.33
11 0.08
14 -0.15
15 -0.15
16 0.1
17 -0.15
18 -0.15
19 0.23
2 1.51
3 -0.55
34 0.15
35 0.15
36 0.15
37 0.15
4 -0.55
5 -0.35
6 -0.7
7 0.28
8 0.28

> <PUBCHEM_EFFECTIVE_ROTOR_COUNT>
9

> <PUBCHEM_PHARMACOPHORE_FEATURES>
5
1 12 hydrophobe
1 13 hydrophobe
1 19 hydrophobe
1 6 acceptor
6 11 14 15 16 17 18 rings

> <PUBCHEM_HEAVY_ATOM_COUNT>
19

> <PUBCHEM_ATOM_DEF_STEREO_COUNT>
0

> <PUBCHEM_ATOM_UDEF_STEREO_COUNT>
0

> <PUBCHEM_BOND_DEF_STEREO_COUNT>
0

> <PUBCHEM_BOND_UDEF_STEREO_COUNT>
0

> <PUBCHEM_ISOTOPIC_ATOM_COUNT>
0

> <PUBCHEM_COMPONENT_COUNT>
1

> <PUBCHEM_CACTVS_TAUTO_COUNT>
1

> <PUBCHEM_CONFORMER_ID>
00005CA500000001

> <PUBCHEM_MMFF94_ENERGY>
27.8265

> <PUBCHEM_FEATURE_SELFOVERLAP>
25.371

> <PUBCHEM_SHAPE_FINGERPRINT>
12596602 18 12607113084921587437
12617007 42 18409165541375000606
12788726 201 17912636110725836714
13590594 115 18269543013350147536
14115302 16 17967817141326504243
14178000 29 18261667173248080014
14508225 48 18264478671977819902
15163728 17 17626649515351663588
15238133 3 17416981701440717497
15475509 8 18046333395345929319
15502722 9 18194674874633885546
167882 2 18196644100434363084
1813 80 18336826506820580666
18186145 218 17988656168302192971
20238998 120 18335988670665991688
20286276 3 18267296543601412903
20388580 30 18260823821985632982
20671657 53 18336256942564691462
21503847 285 18202289104167200065
2255824 54 18341337712502879130
23402539 116 16226337027127710483
23559900 14 18259711090142928691
340366 18 18333454239706330887
46194498 28 18412263921691215045
474 4 17701265711090434905
633830 44 18272382944963697211
7364860 26 18336264535971834360
90127 26 18131633370733656009
9971528 1 18187652426800296058
9981440 41 17835240039489251888
9999458 23 18272090504613797975

> <PUBCHEM_SHAPE_MULTIPOLES>
375.23
11.27
3.69
1.36
8.1
4.27
-0.36
-1.7
5.3
-6.73
1.76
-0.69
-0.1
0.89

> <PUBCHEM_SHAPE_SELFOVERLAP>
712.054

> <PUBCHEM_SHAPE_VOLUME>
233.1

> <PUBCHEM_COORDINATE_TYPE>
2
5
10

$$$$

