443191
  -OEChem-07051213013D

 31 30  0     1  0  0  0  0  0999 V2000
    3.7050    1.6837   -0.2973 O   0  0  0  0  0  0  0  0  0  0  0  0
   -3.8315    0.8534    0.9921 O   0  0  0  0  0  0  0  0  0  0  0  0
   -2.7841    1.3329   -0.9623 O   0  0  0  0  0  0  0  0  0  0  0  0
    0.1645    0.4294    0.2584 C   0  0  0  0  0  0  0  0  0  0  0  0
    1.6165    0.4568   -0.2669 C   0  0  1  0  0  0  0  0  0  0  0  0
   -0.7606   -0.6340   -0.3581 C   0  0  0  0  0  0  0  0  0  0  0  0
   -2.1779   -0.6992    0.2349 C   0  0  2  0  0  0  0  0  0  0  0  0
    2.4047    1.6565    0.2813 C   0  0  0  0  0  0  0  0  0  0  0  0
    2.3157   -0.8717    0.0254 C   0  0  0  0  0  0  0  0  0  0  0  0
   -2.9657   -1.8515   -0.3849 C   0  0  0  0  0  0  0  0  0  0  0  0
   -2.9472    0.5889   -0.0039 C   0  0  0  0  0  0  0  0  0  0  0  0
    2.5061   -1.2922    1.4573 C   0  0  0  0  0  0  0  0  0  0  0  0
    2.7546   -1.6531   -0.9760 C   0  0  0  0  0  0  0  0  0  0  0  0
    0.1635    0.3149    1.3498 H   0  0  0  0  0  0  0  0  0  0  0  0
   -0.2755    1.4169    0.0691 H   0  0  0  0  0  0  0  0  0  0  0  0
    1.5673    0.5855   -1.3579 H   0  0  0  0  0  0  0  0  0  0  0  0
   -0.8179   -0.4572   -1.4403 H   0  0  0  0  0  0  0  0  0  0  0  0
   -0.3001   -1.6212   -0.2313 H   0  0  0  0  0  0  0  0  0  0  0  0
   -2.0918   -0.8539    1.3176 H   0  0  0  0  0  0  0  0  0  0  0  0
    1.9046    2.5921    0.0100 H   0  0  0  0  0  0  0  0  0  0  0  0
    2.4998    1.6364    1.3719 H   0  0  0  0  0  0  0  0  0  0  0  0
   -2.4674   -2.8091   -0.2019 H   0  0  0  0  0  0  0  0  0  0  0  0
   -3.0739   -1.7230   -1.4677 H   0  0  0  0  0  0  0  0  0  0  0  0
   -3.9733   -1.9089    0.0411 H   0  0  0  0  0  0  0  0  0  0  0  0
    1.5424   -1.4304    1.9559 H   0  0  0  0  0  0  0  0  0  0  0  0
    3.0487   -2.2409    1.5356 H   0  0  0  0  0  0  0  0  0  0  0  0
    3.0833   -0.5451    2.0096 H   0  0  0  0  0  0  0  0  0  0  0  0
    2.6266   -1.3673   -2.0148 H   0  0  0  0  0  0  0  0  0  0  0  0
    3.2516   -2.5976   -0.7813 H   0  0  0  0  0  0  0  0  0  0  0  0
    4.2157    0.9502    0.0845 H   0  0  0  0  0  0  0  0  0  0  0  0
   -4.3144    1.6934    0.8386 H   0  0  0  0  0  0  0  0  0  0  0  0
  1  8  1  0  0  0  0
  1 30  1  0  0  0  0
  2 11  1  0  0  0  0
  2 31  1  0  0  0  0
  3 11  2  0  0  0  0
  4  5  1  0  0  0  0
  4  6  1  0  0  0  0
  4 14  1  0  0  0  0
  4 15  1  0  0  0  0
  5  8  1  0  0  0  0
  5  9  1  0  0  0  0
  5 16  1  0  0  0  0
  6  7  1  0  0  0  0
  6 17  1  0  0  0  0
  6 18  1  0  0  0  0
  7 10  1  0  0  0  0
  7 11  1  0  0  0  0
  7 19  1  0  0  0  0
  8 20  1  0  0  0  0
  8 21  1  0  0  0  0
  9 12  1  0  0  0  0
  9 13  2  0  0  0  0
 10 22  1  0  0  0  0
 10 23  1  0  0  0  0
 10 24  1  0  0  0  0
 12 25  1  0  0  0  0
 12 26  1  0  0  0  0
 12 27  1  0  0  0  0
 13 28  1  0  0  0  0
 13 29  1  0  0  0  0
M  END
> <PUBCHEM_COMPOUND_CID>
443191

> <PUBCHEM_CONFORMER_RMSD>
0.6

> <PUBCHEM_CONFORMER_DIVERSEORDER>
12
134
28
99
90
71
132
74
39
42
95
98
146
83
78
88
105
64
53
31
21
145
114
113
72
119
120
40
8
69
3
112
82
10
73
133
109
147
62
14
103
124
1
121
85
27
55
17
70
84
111
59
144
139
41
30
25
68
79
108
45
56
32
135
130
38
50
107
89
100
20
125
15
47
97
4
91
29
96
7
18
129
142
140
66
44
33
117
54
77
67
22
122
123
61
58
104
2
23
13
63
93
143
24
6
86
127
36
51
115
57
52
60
106
65
11
94
34
131
126
102
116
49
92
16
87
37
101
80
35
9
110
138
136
48
75
5
43
141
128
81
76
46
19
26
118
137

> <PUBCHEM_MMFF94_PARTIAL_CHARGES>
14
1 -0.68
11 0.66
12 0.14
13 -0.3
2 -0.65
28 0.15
29 0.15
3 -0.57
30 0.4
31 0.5
5 0.14
7 0.06
8 0.28
9 -0.28

> <PUBCHEM_EFFECTIVE_ROTOR_COUNT>
6

> <PUBCHEM_PHARMACOPHORE_FEATURES>
7
1 1 acceptor
1 1 donor
1 10 hydrophobe
1 2 acceptor
1 3 acceptor
3 2 3 11 anion
5 4 5 6 7 9 hydrophobe

> <PUBCHEM_HEAVY_ATOM_COUNT>
13

> <PUBCHEM_ATOM_DEF_STEREO_COUNT>
1

> <PUBCHEM_ATOM_UDEF_STEREO_COUNT>
1

> <PUBCHEM_BOND_DEF_STEREO_COUNT>
0

> <PUBCHEM_BOND_UDEF_STEREO_COUNT>
0

> <PUBCHEM_ISOTOPIC_ATOM_COUNT>
0

> <PUBCHEM_COMPONENT_COUNT>
1

> <PUBCHEM_CACTVS_TAUTO_COUNT>
1

> <PUBCHEM_CONFORMER_ID>
0006C3370000000C

> <PUBCHEM_MMFF94_ENERGY>
17.6563

> <PUBCHEM_FEATURE_SELFOVERLAP>
35.579

> <PUBCHEM_SHAPE_FINGERPRINT>
10130415 120 18261958556123271537
10608611 8 18411703183714834349
10922523 26 18343017830583392645
10980938 120 18410576158769055716
11715629 250 18131072636144725741
12346645 44 18266743472262156684
12932764 1 18131632317765158695
13296908 3 18333447642530899719
13380535 21 18337383859824706884
14144814 61 18409731746581296899
14325111 11 18408603643372029719
15775835 57 18410286987073781153
16945 1 18266464397860811263
17041 49 18269566090277273258
17041 50 18337105795358036598
170605 34 18340486647758580728
17990270 104 18408040706398845686
18186145 218 18341331170982421547
20279233 1 16845301501156552091
20645477 70 18410016541594510703
21501502 16 18410016502860391111
21524375 3 17979921510545083784
3248919 1 18113909272678241175
7364860 26 18333447651690241212
74978 22 18408886277905644151
8030462 33 17632861931804412403
93112 12 18408602590994376543

> <PUBCHEM_SHAPE_MULTIPOLES>
249.93
6.87
1.97
1.01
2.4
0.05
0.18
-0.84
0.16
-0.72
-0.19
-0.27
0.22
-0.22

> <PUBCHEM_SHAPE_SELFOVERLAP>
470.767

> <PUBCHEM_SHAPE_VOLUME>
155.3

> <PUBCHEM_COORDINATE_TYPE>
2
5
10

$$$$

