11954038
  -OEChem-07051213052D

 89 92  0     1  0  0  0  0  0999 V2000
    3.8082   -2.6414    0.0000 O   0  0  0  0  0  0  0  0  0  0  0  0
    6.3698   -3.1575    0.0000 O   0  0  0  0  0  0  0  0  0  0  0  0
    4.5297    0.5974    0.0000 O   0  0  0  0  0  0  0  0  0  0  0  0
    7.9682   -3.2918    0.0000 O   0  0  0  0  0  0  0  0  0  0  0  0
   10.4338   -1.8435    0.0000 O   0  0  0  0  0  0  0  0  0  0  0  0
   10.9068    0.0620    0.0000 O   0  0  0  0  0  0  0  0  0  0  0  0
    9.8236   -1.6933    0.0000 O   0  0  0  0  0  0  0  0  0  0  0  0
    9.3037    3.2290    0.0000 O   0  0  0  0  0  0  0  0  0  0  0  0
    8.1954   -0.5642    0.0000 O   0  0  0  0  0  0  0  0  0  0  0  0
    7.5553    3.2636    0.0000 O   0  0  0  0  0  0  0  0  0  0  0  0
    4.1017    1.2781    0.0000 O   0  0  0  0  0  0  0  0  0  0  0  0
    5.7397    1.3098    0.0000 N   0  0  0  0  0  0  0  0  0  0  0  0
    5.3471   -1.6186    0.0000 C   0  0  2  0  0  0  0  0  0  0  0  0
    4.3658   -1.8113    0.0000 C   0  0  1  0  0  0  0  0  0  0  0  0
    3.7083   -1.0578    0.0000 C   0  0  1  0  0  0  0  0  0  0  0  0
    6.1772   -2.1762    0.0000 C   0  0  1  0  0  0  0  0  0  0  0  0
    7.0751   -1.7362    0.0000 C   0  0  1  0  0  0  0  0  0  0  0  0
    3.7762   -0.0601    0.0000 C   0  0  2  0  0  0  0  0  0  0  0  0
    5.7916   -0.7228    0.0000 C   0  0  0  0  0  0  0  0  0  0  0  0
    2.9461    0.4975    0.0000 C   0  0  1  0  0  0  0  0  0  0  0  0
    2.7103   -1.1207    0.0000 C   0  0  0  0  0  0  0  0  0  0  0  0
    7.9052   -2.2938    0.0000 C   0  0  2  0  0  0  0  0  0  0  0  0
    7.9313   -1.2195    0.0000 C   0  0  0  0  0  0  0  0  0  0  0  0
    2.0000    0.8214    0.0000 C   0  0  0  0  0  0  0  0  0  0  0  0
    3.0140    1.4952    0.0000 C   0  0  0  0  0  0  0  0  0  0  0  0
    8.8865   -2.1011    0.0000 C   0  0  0  0  0  0  0  0  0  0  0  0
   10.5017   -0.8458    0.0000 C   0  0  3  0  0  0  0  0  0  0  0  0
    9.7166   -2.6588    0.0000 C   0  0  0  0  0  0  0  0  0  0  0  0
    3.9120    1.9353    0.0000 C   0  0  0  0  0  0  0  0  0  0  0  0
    9.3037    0.2290    0.0000 C   0  0  0  0  0  0  0  0  0  0  0  0
    9.5129   -0.7428    0.0000 C   0  0  0  0  0  0  0  0  0  0  0  0
   10.1698    0.7290    0.0000 C   0  0  0  0  0  0  0  0  0  0  0  0
    8.4377    0.7290    0.0000 C   0  0  0  0  0  0  0  0  0  0  0  0
   10.1698    1.7290    0.0000 C   0  0  0  0  0  0  0  0  0  0  0  0
    8.4377    1.7290    0.0000 C   0  0  0  0  0  0  0  0  0  0  0  0
   11.4721   -1.0873    0.0000 C   0  0  0  0  0  0  0  0  0  0  0  0
    3.9798    2.9330    0.0000 C   0  0  0  0  0  0  0  0  0  0  0  0
    9.3037    2.2290    0.0000 C   0  0  0  0  0  0  0  0  0  0  0  0
    7.5438    0.1944    0.0000 C   0  0  0  0  0  0  0  0  0  0  0  0
    7.5438    2.2637    0.0000 C   0  0  0  0  0  0  0  0  0  0  0  0
    6.6377    1.7499    0.0000 C   0  0  0  0  0  0  0  0  0  0  0  0
    4.9775    2.8651    0.0000 C   0  0  0  0  0  0  0  0  0  0  0  0
   11.0358    2.2290    0.0000 C   0  0  0  0  0  0  0  0  0  0  0  0
    6.6377    0.7082    0.0000 C   0  0  0  0  0  0  0  0  0  0  0  0
    4.9096    1.8674    0.0000 C   0  0  0  0  0  0  0  0  0  0  0  0
    5.7310    3.5226    0.0000 C   0  0  0  0  0  0  0  0  0  0  0  0
    5.0039   -1.1022    0.0000 H   0  0  0  0  0  0  0  0  0  0  0  0
    4.5379   -2.4069    0.0000 H   0  0  0  0  0  0  0  0  0  0  0  0
    3.3404   -1.5569    0.0000 H   0  0  0  0  0  0  0  0  0  0  0  0
    5.7100   -2.5839    0.0000 H   0  0  0  0  0  0  0  0  0  0  0  0
    6.9557   -1.1278    0.0000 H   0  0  0  0  0  0  0  0  0  0  0  0
    4.3628   -0.2608    0.0000 H   0  0  0  0  0  0  0  0  0  0  0  0
    6.3470   -0.9984    0.0000 H   0  0  0  0  0  0  0  0  0  0  0  0
    6.0672   -0.1674    0.0000 H   0  0  0  0  0  0  0  0  0  0  0  0
    5.2362   -0.4472    0.0000 H   0  0  0  0  0  0  0  0  0  0  0  0
    2.4790    0.0899    0.0000 H   0  0  0  0  0  0  0  0  0  0  0  0
    2.6713   -0.5019    0.0000 H   0  0  0  0  0  0  0  0  0  0  0  0
    2.0915   -1.1597    0.0000 H   0  0  0  0  0  0  0  0  0  0  0  0
    2.7493   -1.7395    0.0000 H   0  0  0  0  0  0  0  0  0  0  0  0
    7.4563   -2.7214    0.0000 H   0  0  0  0  0  0  0  0  0  0  0  0
    8.2516   -1.7504    0.0000 H   0  0  0  0  0  0  0  0  0  0  0  0
    8.4622   -0.8992    0.0000 H   0  0  0  0  0  0  0  0  0  0  0  0
    7.6110   -0.6887    0.0000 H   0  0  0  0  0  0  0  0  0  0  0  0
    3.1896   -2.5993    0.0000 H   0  0  0  0  0  0  0  0  0  0  0  0
    5.9027   -3.5651    0.0000 H   0  0  0  0  0  0  0  0  0  0  0  0
    2.2008    1.4080    0.0000 H   0  0  0  0  0  0  0  0  0  0  0  0
    1.4134    1.0222    0.0000 H   0  0  0  0  0  0  0  0  0  0  0  0
    1.7992    0.2348    0.0000 H   0  0  0  0  0  0  0  0  0  0  0  0
    5.1163    0.3966    0.0000 H   0  0  0  0  0  0  0  0  0  0  0  0
    2.4993    1.8410    0.0000 H   0  0  0  0  0  0  0  0  0  0  0  0
    9.0089   -1.4934    0.0000 H   0  0  0  0  0  0  0  0  0  0  0  0
    8.5235   -3.5674    0.0000 H   0  0  0  0  0  0  0  0  0  0  0  0
    9.7674   -3.2767    0.0000 H   0  0  0  0  0  0  0  0  0  0  0  0
    4.4788    1.6842    0.0000 H   0  0  0  0  0  0  0  0  0  0  0  0
   11.3224   -1.6889    0.0000 H   0  0  0  0  0  0  0  0  0  0  0  0
   12.0737   -1.2369    0.0000 H   0  0  0  0  0  0  0  0  0  0  0  0
   11.6218   -0.4856    0.0000 H   0  0  0  0  0  0  0  0  0  0  0  0
    3.5722    3.4001    0.0000 H   0  0  0  0  0  0  0  0  0  0  0  0
   11.3458    1.6921    0.0000 H   0  0  0  0  0  0  0  0  0  0  0  0
   11.5727    2.5390    0.0000 H   0  0  0  0  0  0  0  0  0  0  0  0
   10.7258    2.7660    0.0000 H   0  0  0  0  0  0  0  0  0  0  0  0
    6.1020    0.3962    0.0000 H   0  0  0  0  0  0  0  0  0  0  0  0
    5.6976    0.6912    0.0000 H   0  0  0  0  0  0  0  0  0  0  0  0
    9.8407    3.5390    0.0000 H   0  0  0  0  0  0  0  0  0  0  0  0
    6.1386    3.0554    0.0000 H   0  0  0  0  0  0  0  0  0  0  0  0
    6.1981    3.9302    0.0000 H   0  0  0  0  0  0  0  0  0  0  0  0
    5.3233    3.9898    0.0000 H   0  0  0  0  0  0  0  0  0  0  0  0
    8.8047   -0.4495    0.0000 H   0  0  0  0  0  0  0  0  0  0  0  0
    8.0958    3.5674    0.0000 H   0  0  0  0  0  0  0  0  0  0  0  0
 14  1  1  6  0  0  0
  1 64  1  0  0  0  0
 16  2  1  1  0  0  0
  2 65  1  0  0  0  0
 18  3  1  6  0  0  0
  3 69  1  0  0  0  0
 22  4  1  6  0  0  0
  4 72  1  0  0  0  0
  5 27  1  0  0  0  0
  5 28  1  0  0  0  0
  6 27  1  0  0  0  0
  6 32  1  0  0  0  0
  7 31  2  0  0  0  0
  8 38  1  0  0  0  0
  8 84  1  0  0  0  0
  9 39  1  0  0  0  0
  9 88  1  0  0  0  0
 10 40  1  0  0  0  0
 10 89  1  0  0  0  0
 11 45  2  0  0  0  0
 12 41  1  0  0  0  0
 12 45  1  0  0  0  0
 12 83  1  0  0  0  0
 13 14  1  0  0  0  0
 13 16  1  0  0  0  0
 13 19  1  1  0  0  0
 13 47  1  0  0  0  0
 14 15  1  0  0  0  0
 14 48  1  0  0  0  0
 15 18  1  0  0  0  0
 15 21  1  6  0  0  0
 15 49  1  0  0  0  0
 16 17  1  0  0  0  0
 16 50  1  0  0  0  0
 17 22  1  0  0  0  0
 17 23  1  6  0  0  0
 17 51  1  0  0  0  0
 18 20  1  0  0  0  0
 18 52  1  0  0  0  0
 19 53  1  0  0  0  0
 19 54  1  0  0  0  0
 19 55  1  0  0  0  0
 20 24  1  1  0  0  0
 20 25  1  0  0  0  0
 20 56  1  0  0  0  0
 21 57  1  0  0  0  0
 21 58  1  0  0  0  0
 21 59  1  0  0  0  0
 22 26  1  0  0  0  0
 22 60  1  0  0  0  0
 23 61  1  0  0  0  0
 23 62  1  0  0  0  0
 23 63  1  0  0  0  0
 24 66  1  0  0  0  0
 24 67  1  0  0  0  0
 24 68  1  0  0  0  0
 25 29  2  0  0  0  0
 25 70  1  0  0  0  0
 26 28  2  0  0  0  0
 26 71  1  0  0  0  0
 27 31  1  0  0  0  0
 27 36  1  0  0  0  0
 28 73  1  0  0  0  0
 29 37  1  0  0  0  0
 29 74  1  0  0  0  0
 30 31  1  0  0  0  0
 30 32  2  0  0  0  0
 30 33  1  0  0  0  0
 32 34  1  0  0  0  0
 33 35  1  0  0  0  0
 33 39  2  0  0  0  0
 34 38  2  0  0  0  0
 34 43  1  0  0  0  0
 35 38  1  0  0  0  0
 35 40  2  0  0  0  0
 36 75  1  0  0  0  0
 36 76  1  0  0  0  0
 36 77  1  0  0  0  0
 37 42  2  0  0  0  0
 37 78  1  0  0  0  0
 39 44  1  0  0  0  0
 40 41  1  0  0  0  0
 41 44  2  0  0  0  0
 42 45  1  0  0  0  0
 42 46  1  0  0  0  0
 43 79  1  0  0  0  0
 43 80  1  0  0  0  0
 43 81  1  0  0  0  0
 44 82  1  0  0  0  0
 46 85  1  0  0  0  0
 46 86  1  0  0  0  0
 46 87  1  0  0  0  0
M  END
> <PUBCHEM_COMPOUND_CID>
11954038

> <PUBCHEM_COMPOUND_CANONICALIZED>
1

> <PUBCHEM_CACTVS_COMPLEXITY>
1210

> <PUBCHEM_CACTVS_HBOND_ACCEPTOR>
11

> <PUBCHEM_CACTVS_HBOND_DONOR>
8

> <PUBCHEM_CACTVS_ROTATABLE_BOND>
0

> <PUBCHEM_CACTVS_SUBSKEYS>
AAADcfB+PAAAAAAAAAAAAAAAAAAAASAAAAAwYAAAAAAAAEjBUAAAHgAQCAAADRyhmAIyzsLABgCIAqVSUAKCCAAlIgAIiAFHbMgeNzbWtZ+meWjn9B3c+Yf6/P/O6QADSgAYEADSAAaUADAgAAAAAAAAAA==

> <PUBCHEM_IUPAC_INCHI>
InChI=1S/C34H43NO11/c1-14-9-8-10-15(2)33(44)35-20-13-22(37)23-24(30(20)42)29(41)19(6)31-25(23)32(43)34(7,46-31)45-12-11-21(36)16(3)27(39)18(5)28(40)17(4)26(14)38/h8-14,16-18,21,26-28,36-42H,1-7H3,(H,35,44)/b9-8+,12-11+,15-10-/t14-,16+,17+,18-,21-,26-,27+,28+,34?/m0/s1

> <PUBCHEM_IUPAC_INCHIKEY>
SZBBSPYCRZEOIN-JBVOWMGNSA-N

> <PUBCHEM_XLOGP3_AA>
3.8

> <PUBCHEM_EXACT_MASS>
641.283611

> <PUBCHEM_MOLECULAR_FORMULA>
C34H43NO11

> <PUBCHEM_MOLECULAR_WEIGHT>
641.70532

> <PUBCHEM_OPENEYE_CAN_SMILES>
CC1C=CC=C(C(=O)NC2=CC(=C3C(=C2O)C(=C(C4=C3C(=O)C(O4)(OC=CC(C(C(C(C(C(C1O)C)O)C)O)C)O)C)C)O)O)C

> <PUBCHEM_OPENEYE_ISO_SMILES>
C[C@H]1/C=C/C=C(\C(=O)NC2=CC(=C3C(=C2O)C(=C(C4=C3C(=O)C(O4)(O/C=C/[C@@H]([C@H]([C@H]([C@@H]([C@@H]([C@@H]([C@H]1O)C)O)C)O)C)O)C)C)O)O)/C

> <PUBCHEM_CACTVS_TPSA>
206

> <PUBCHEM_MONOISOTOPIC_WEIGHT>
641.283611

> <PUBCHEM_TOTAL_CHARGE>
0

> <PUBCHEM_HEAVY_ATOM_COUNT>
46

> <PUBCHEM_ATOM_DEF_STEREO_COUNT>
8

> <PUBCHEM_ATOM_UDEF_STEREO_COUNT>
1

> <PUBCHEM_BOND_DEF_STEREO_COUNT>
3

> <PUBCHEM_BOND_UDEF_STEREO_COUNT>
0

> <PUBCHEM_ISOTOPIC_ATOM_COUNT>
0

> <PUBCHEM_COMPONENT_COUNT>
1

> <PUBCHEM_CACTVS_TAUTO_COUNT>
712

> <PUBCHEM_COORDINATE_TYPE>
1
5
255

> <PUBCHEM_BONDANNOTATIONS>
14  1  6
13  19  5
15  21  6
17  23  6
16  2  5
20  24  5
27  36  3
18  3  6
30  32  8
30  33  8
32  34  8
33  35  8
33  39  8
34  38  8
35  38  8
35  40  8
39  44  8
22  4  6
40  41  8
41  44  8

$$$$

