11620
  -OEChem-06261205543D

 19 18  0     1  0  0  0  0  0999 V2000
    3.0154   -0.2129   -0.2600 S   0  0  1  0  0  0  0  0  0  0  0  0
   -4.1391   -1.5780   -0.1330 S   0  0  0  0  0  0  0  0  0  0  0  0
    2.4207   -1.0401   -1.3610 O   0  0  0  0  0  0  0  0  0  0  0  0
   -1.8482   -0.1132    0.3788 N   0  0  0  0  0  0  0  0  0  0  0  0
   -0.5013    1.9164    0.1537 C   0  0  0  0  0  0  0  0  0  0  0  0
   -1.8137    1.2288   -0.2077 C   0  0  0  0  0  0  0  0  0  0  0  0
    0.6958    1.1521   -0.3396 C   0  0  0  0  0  0  0  0  0  0  0  0
    1.6513    0.6742    0.4696 C   0  0  0  0  0  0  0  0  0  0  0  0
    3.3442   -1.3022    1.1444 C   0  0  0  0  0  0  0  0  0  0  0  0
   -2.8251   -0.7250    0.1548 C   0  0  0  0  0  0  0  0  0  0  0  0
   -0.4500    2.0509    1.2414 H   0  0  0  0  0  0  0  0  0  0  0  0
   -0.4839    2.9181   -0.2912 H   0  0  0  0  0  0  0  0  0  0  0  0
   -1.9110    1.1754   -1.3011 H   0  0  0  0  0  0  0  0  0  0  0  0
   -2.6456    1.8374    0.1716 H   0  0  0  0  0  0  0  0  0  0  0  0
    0.7579    1.0131   -1.4165 H   0  0  0  0  0  0  0  0  0  0  0  0
    1.5839    0.8359    1.5408 H   0  0  0  0  0  0  0  0  0  0  0  0
    3.6731   -0.7084    2.0007 H   0  0  0  0  0  0  0  0  0  0  0  0
    4.1380   -1.9993    0.8648 H   0  0  0  0  0  0  0  0  0  0  0  0
    2.4437   -1.8658    1.4015 H   0  0  0  0  0  0  0  0  0  0  0  0
  1  3  2  0  0  0  0
  1  8  1  0  0  0  0
  1  9  1  0  0  0  0
  2 10  2  0  0  0  0
  4  6  1  0  0  0  0
  4 10  2  0  0  0  0
  5  6  1  0  0  0  0
  5  7  1  0  0  0  0
  5 11  1  0  0  0  0
  5 12  1  0  0  0  0
  6 13  1  0  0  0  0
  6 14  1  0  0  0  0
  7  8  2  0  0  0  0
  7 15  1  0  0  0  0
  8 16  1  0  0  0  0
  9 17  1  0  0  0  0
  9 18  1  0  0  0  0
  9 19  1  0  0  0  0
M  END
> <PUBCHEM_COMPOUND_CID>
11620

> <PUBCHEM_CONFORMER_RMSD>
0.6

> <PUBCHEM_CONFORMER_DIVERSEORDER>
3
47
44
31
49
6
43
75
33
48
65
68
21
70
53
41
61
28
60
25
56
54
4
73
55
29
36
64
12
58
74
17
26
16
59
77
51
71
18
72
9
27
7
11
38
37
23
2
52
69
45
10
14
20
66
35
76
39
42
32
5
63
40
1
57
67
22
46
13
24
50
34
19
30
62
8
15

> <PUBCHEM_MMFF94_PARTIAL_CHARGES>
12
1 0.25
10 0.57
15 0.15
16 0.15
2 -0.27
3 -0.5
4 -0.55
5 0.14
6 0.25
7 -0.29
8 -0.09
9 0.19

> <PUBCHEM_EFFECTIVE_ROTOR_COUNT>
4

> <PUBCHEM_PHARMACOPHORE_FEATURES>
3
1 2 acceptor
1 3 acceptor
1 4 acceptor

> <PUBCHEM_HEAVY_ATOM_COUNT>
10

> <PUBCHEM_ATOM_DEF_STEREO_COUNT>
0

> <PUBCHEM_ATOM_UDEF_STEREO_COUNT>
0

> <PUBCHEM_BOND_DEF_STEREO_COUNT>
0

> <PUBCHEM_BOND_UDEF_STEREO_COUNT>
1

> <PUBCHEM_ISOTOPIC_ATOM_COUNT>
0

> <PUBCHEM_COMPONENT_COUNT>
1

> <PUBCHEM_CACTVS_TAUTO_COUNT>
1

> <PUBCHEM_CONFORMER_ID>
00002D6400000003

> <PUBCHEM_MMFF94_ENERGY>
7.7111

> <PUBCHEM_FEATURE_SELFOVERLAP>
15.228

> <PUBCHEM_SHAPE_FINGERPRINT>
10149128 111 8718830902838976739
12932764 1 17916573397087004060
14252887 29 18187919539163782202
14390081 3 10231754466031362973
177051 138 18260264105984420959
18186145 218 13398627277124079261
18342897 69 18411138082014309913
19107657 9 8862944987150507107
20645477 70 18194122911359957327
20653085 51 8502371178402943940
20671657 53 18131072606343802765
20711978 1 18412543180481020981
20711985 344 17988934413374040621
20871998 22 18333724719445054221
22485316 2 18413111649583202329
3248919 1 18042410308131311604
449060 23 18410566305765756657
8199 26 8141789625797834418
94968 8 18340764832284135387

> <PUBCHEM_SHAPE_MULTIPOLES>
202.64
7.11
1.93
0.95
3.01
0.32
0.1
-5.28
-0.16
0.47
-0.1
-0.75
-0.3
-0.22

> <PUBCHEM_SHAPE_SELFOVERLAP>
355.045

> <PUBCHEM_SHAPE_VOLUME>
134

> <PUBCHEM_COORDINATE_TYPE>
2
5
10

$$$$

