73571
  -OEChem-07051212582D

 35 37  0     1  0  0  0  0  0999 V2000
    6.8671    0.9254    0.0000 O   0  0  0  0  0  0  0  0  0  0  0  0
    6.8671   -2.0746    0.0000 O   0  0  0  0  0  0  0  0  0  0  0  0
    8.6155   -2.1092    0.0000 O   0  0  0  0  0  0  0  0  0  0  0  0
   10.3972    0.9495    0.0000 O   0  0  0  0  0  0  0  0  0  0  0  0
    2.5369    2.4254    0.0000 O   0  0  0  0  0  0  0  0  0  0  0  0
    6.0010    0.4254    0.0000 C   0  0  1  0  0  0  0  0  0  0  0  0
    6.0010   -0.5746    0.0000 C   0  0  0  0  0  0  0  0  0  0  0  0
    7.7331   -0.5746    0.0000 C   0  0  0  0  0  0  0  0  0  0  0  0
    5.1350    0.9254    0.0000 C   0  0  0  0  0  0  0  0  0  0  0  0
    6.8671   -1.0746    0.0000 C   0  0  0  0  0  0  0  0  0  0  0  0
    7.7331    0.4254    0.0000 C   0  0  0  0  0  0  0  0  0  0  0  0
    8.6270   -1.1093    0.0000 C   0  0  0  0  0  0  0  0  0  0  0  0
    8.6270    0.9601    0.0000 C   0  0  0  0  0  0  0  0  0  0  0  0
    5.1350    1.9254    0.0000 C   0  0  0  0  0  0  0  0  0  0  0  0
    4.2690    0.4254    0.0000 C   0  0  0  0  0  0  0  0  0  0  0  0
    9.5331    0.4462    0.0000 C   0  0  0  0  0  0  0  0  0  0  0  0
    9.5331   -0.5954    0.0000 C   0  0  0  0  0  0  0  0  0  0  0  0
    4.2690    2.4254    0.0000 C   0  0  0  0  0  0  0  0  0  0  0  0
    3.4030    0.9254    0.0000 C   0  0  0  0  0  0  0  0  0  0  0  0
    3.4030    1.9254    0.0000 C   0  0  0  0  0  0  0  0  0  0  0  0
   11.2651    0.4529    0.0000 C   0  0  0  0  0  0  0  0  0  0  0  0
    5.4641    0.1154    0.0000 H   0  0  0  0  0  0  0  0  0  0  0  0
    5.3905   -0.4669    0.0000 H   0  0  0  0  0  0  0  0  0  0  0  0
    5.7890   -1.1572    0.0000 H   0  0  0  0  0  0  0  0  0  0  0  0
    8.6199    1.5800    0.0000 H   0  0  0  0  0  0  0  0  0  0  0  0
    5.6720    2.2354    0.0000 H   0  0  0  0  0  0  0  0  0  0  0  0
    4.2690   -0.1946    0.0000 H   0  0  0  0  0  0  0  0  0  0  0  0
   10.0688   -0.9075    0.0000 H   0  0  0  0  0  0  0  0  0  0  0  0
    4.2690    3.0454    0.0000 H   0  0  0  0  0  0  0  0  0  0  0  0
    2.8660    0.6154    0.0000 H   0  0  0  0  0  0  0  0  0  0  0  0
    9.1488   -2.4254    0.0000 H   0  0  0  0  0  0  0  0  0  0  0  0
   10.9572   -0.0852    0.0000 H   0  0  0  0  0  0  0  0  0  0  0  0
   11.8033    0.1450    0.0000 H   0  0  0  0  0  0  0  0  0  0  0  0
   11.5731    0.9910    0.0000 H   0  0  0  0  0  0  0  0  0  0  0  0
    2.0000    2.1154    0.0000 H   0  0  0  0  0  0  0  0  0  0  0  0
  1  6  1  0  0  0  0
  1 11  1  0  0  0  0
  2 10  2  0  0  0  0
  3 12  1  0  0  0  0
  3 31  1  0  0  0  0
  4 16  1  0  0  0  0
  4 21  1  0  0  0  0
  5 20  1  0  0  0  0
  5 35  1  0  0  0  0
  6  7  1  0  0  0  0
  6  9  1  1  0  0  0
  6 22  1  0  0  0  0
  7 10  1  0  0  0  0
  7 23  1  0  0  0  0
  7 24  1  0  0  0  0
  8 10  1  0  0  0  0
  8 11  1  0  0  0  0
  8 12  2  0  0  0  0
  9 14  2  0  0  0  0
  9 15  1  0  0  0  0
 11 13  2  0  0  0  0
 12 17  1  0  0  0  0
 13 16  1  0  0  0  0
 13 25  1  0  0  0  0
 14 18  1  0  0  0  0
 14 26  1  0  0  0  0
 15 19  2  0  0  0  0
 15 27  1  0  0  0  0
 16 17  2  0  0  0  0
 17 28  1  0  0  0  0
 18 20  2  0  0  0  0
 18 29  1  0  0  0  0
 19 20  1  0  0  0  0
 19 30  1  0  0  0  0
 21 32  1  0  0  0  0
 21 33  1  0  0  0  0
 21 34  1  0  0  0  0
M  END
> <PUBCHEM_COMPOUND_CID>
73571

> <PUBCHEM_COMPOUND_CANONICALIZED>
1

> <PUBCHEM_CACTVS_COMPLEXITY>
377

> <PUBCHEM_CACTVS_HBOND_ACCEPTOR>
5

> <PUBCHEM_CACTVS_HBOND_DONOR>
2

> <PUBCHEM_CACTVS_ROTATABLE_BOND>
2

> <PUBCHEM_CACTVS_SUBSKEYS>
AAADccB4OAAAAAAAAAAAAAAAAAAAAAAAAAA0YIAAAAAAAACRQAAAGgAACAAADBSgmAIyBoAABgCIAqBSAAACCAAkIAAIiAEGCMgMJzaGNRqCeWCl4BUIuQeI7OzOIAAACAAIAABAAAAQABAAAAAAAAAAAA==

> <PUBCHEM_IUPAC_OPENEYE_NAME>
(2S)-5-hydroxy-2-(4-hydroxyphenyl)-7-methoxy-chroman-4-one

> <PUBCHEM_IUPAC_CAS_NAME>
(2S)-5-hydroxy-2-(4-hydroxyphenyl)-7-methoxy-3,4-dihydro-2H-1-benzopyran-4-one

> <PUBCHEM_IUPAC_NAME>
(2S)-5-hydroxy-2-(4-hydroxyphenyl)-7-methoxy-2,3-dihydrochromen-4-one

> <PUBCHEM_IUPAC_SYSTEMATIC_NAME>
(2S)-2-(4-hydroxyphenyl)-7-methoxy-5-oxidanyl-2,3-dihydrochromen-4-one

> <PUBCHEM_IUPAC_TRADITIONAL_NAME>
(2S)-5-hydroxy-2-(4-hydroxyphenyl)-7-methoxy-chroman-4-one

> <PUBCHEM_IUPAC_INCHI>
InChI=1S/C16H14O5/c1-20-11-6-12(18)16-13(19)8-14(21-15(16)7-11)9-2-4-10(17)5-3-9/h2-7,14,17-18H,8H2,1H3/t14-/m0/s1

> <PUBCHEM_IUPAC_INCHIKEY>
DJOJDHGQRNZXQQ-AWEZNQCLSA-N

> <PUBCHEM_XLOGP3_AA>
2.7

> <PUBCHEM_EXACT_MASS>
286.084124

> <PUBCHEM_MOLECULAR_FORMULA>
C16H14O5

> <PUBCHEM_MOLECULAR_WEIGHT>
286.27936

> <PUBCHEM_OPENEYE_CAN_SMILES>
COC1=CC(=C2C(=O)CC(OC2=C1)C3=CC=C(C=C3)O)O

> <PUBCHEM_OPENEYE_ISO_SMILES>
COC1=CC(=C2C(=O)C[C@H](OC2=C1)C3=CC=C(C=C3)O)O

> <PUBCHEM_CACTVS_TPSA>
76

> <PUBCHEM_MONOISOTOPIC_WEIGHT>
286.084124

> <PUBCHEM_TOTAL_CHARGE>
0

> <PUBCHEM_HEAVY_ATOM_COUNT>
21

> <PUBCHEM_ATOM_DEF_STEREO_COUNT>
1

> <PUBCHEM_ATOM_UDEF_STEREO_COUNT>
0

> <PUBCHEM_BOND_DEF_STEREO_COUNT>
0

> <PUBCHEM_BOND_UDEF_STEREO_COUNT>
0

> <PUBCHEM_ISOTOPIC_ATOM_COUNT>
0

> <PUBCHEM_COMPONENT_COUNT>
1

> <PUBCHEM_CACTVS_TAUTO_COUNT>
18

> <PUBCHEM_COORDINATE_TYPE>
1
5
255

> <PUBCHEM_BONDANNOTATIONS>
11  13  8
12  17  8
13  16  8
14  18  8
15  19  8
16  17  8
18  20  8
19  20  8
6  9  5
8  11  8
8  12  8
9  14  8
9  15  8

$$$$

