5318865
  -OEChem-07051213102D

 80 81  0     0  0  0  0  0  0999 V2000
   12.0632   -6.2500    0.0000 O   0  0  0  0  0  0  0  0  0  0  0  0
    7.7331    6.2500    0.0000 O   0  0  0  0  0  0  0  0  0  0  0  0
   15.5273  -10.2500    0.0000 O   0  0  0  0  0  0  0  0  0  0  0  0
    4.2690   10.2500    0.0000 O   0  0  0  0  0  0  0  0  0  0  0  0
   17.2594   -9.2500    0.0000 O   0  0  0  0  0  0  0  0  0  0  0  0
    2.5369    9.2500    0.0000 O   0  0  0  0  0  0  0  0  0  0  0  0
   11.1972   -1.7500    0.0000 N   0  0  0  0  0  0  0  0  0  0  0  0
    8.5991    1.7500    0.0000 N   0  0  0  0  0  0  0  0  0  0  0  0
   12.9292   -4.7500    0.0000 N   0  0  0  0  0  0  0  0  0  0  0  0
    6.8671    4.7500    0.0000 N   0  0  0  0  0  0  0  0  0  0  0  0
   10.3312   -0.2500    0.0000 C   0  0  0  0  0  0  0  0  0  0  0  0
    9.4651    0.2500    0.0000 C   0  0  0  0  0  0  0  0  0  0  0  0
   10.3312   -1.2500    0.0000 C   0  0  0  0  0  0  0  0  0  0  0  0
    9.4651    1.2500    0.0000 C   0  0  0  0  0  0  0  0  0  0  0  0
    8.5991    2.7500    0.0000 C   0  0  0  0  0  0  0  0  0  0  0  0
   11.1972   -2.7500    0.0000 C   0  0  0  0  0  0  0  0  0  0  0  0
   12.0632   -3.2500    0.0000 C   0  0  0  0  0  0  0  0  0  0  0  0
    7.7331    3.2500    0.0000 C   0  0  0  0  0  0  0  0  0  0  0  0
   12.0632   -4.2500    0.0000 C   0  0  0  0  0  0  0  0  0  0  0  0
    7.7331    4.2500    0.0000 C   0  0  0  0  0  0  0  0  0  0  0  0
    6.0010    6.2500    0.0000 C   0  0  0  0  0  0  0  0  0  0  0  0
   13.7953   -6.2500    0.0000 C   0  0  0  0  0  0  0  0  0  0  0  0
   12.9292   -5.7500    0.0000 C   0  0  0  0  0  0  0  0  0  0  0  0
    6.8671    5.7500    0.0000 C   0  0  0  0  0  0  0  0  0  0  0  0
   13.7953   -7.2500    0.0000 C   0  0  0  0  0  0  0  0  0  0  0  0
    6.0010    7.2500    0.0000 C   0  0  0  0  0  0  0  0  0  0  0  0
    5.1350    7.7500    0.0000 C   0  0  0  0  0  0  0  0  0  0  0  0
   14.6613   -7.7500    0.0000 C   0  0  0  0  0  0  0  0  0  0  0  0
   14.6613   -8.7500    0.0000 C   0  0  0  0  0  0  0  0  0  0  0  0
    5.1350    8.7500    0.0000 C   0  0  0  0  0  0  0  0  0  0  0  0
   15.5273   -7.2500    0.0000 C   0  0  0  0  0  0  0  0  0  0  0  0
    4.2690    7.2500    0.0000 C   0  0  0  0  0  0  0  0  0  0  0  0
   15.5273   -9.2500    0.0000 C   0  0  0  0  0  0  0  0  0  0  0  0
    4.2690    9.2500    0.0000 C   0  0  0  0  0  0  0  0  0  0  0  0
   16.3933   -7.7500    0.0000 C   0  0  0  0  0  0  0  0  0  0  0  0
    3.4030    7.7500    0.0000 C   0  0  0  0  0  0  0  0  0  0  0  0
   16.3933   -8.7500    0.0000 C   0  0  0  0  0  0  0  0  0  0  0  0
    3.4030    8.7500    0.0000 C   0  0  0  0  0  0  0  0  0  0  0  0
   10.9417   -0.3577    0.0000 H   0  0  0  0  0  0  0  0  0  0  0  0
   10.5432    0.3326    0.0000 H   0  0  0  0  0  0  0  0  0  0  0  0
    8.8546    0.3577    0.0000 H   0  0  0  0  0  0  0  0  0  0  0  0
    9.2531   -0.3326    0.0000 H   0  0  0  0  0  0  0  0  0  0  0  0
    9.7206   -1.1423    0.0000 H   0  0  0  0  0  0  0  0  0  0  0  0
   10.1191   -1.8326    0.0000 H   0  0  0  0  0  0  0  0  0  0  0  0
   10.0757    1.1423    0.0000 H   0  0  0  0  0  0  0  0  0  0  0  0
    9.6772    1.8326    0.0000 H   0  0  0  0  0  0  0  0  0  0  0  0
   10.5866   -2.6423    0.0000 H   0  0  0  0  0  0  0  0  0  0  0  0
   10.9851   -3.3326    0.0000 H   0  0  0  0  0  0  0  0  0  0  0  0
    9.2097    2.6423    0.0000 H   0  0  0  0  0  0  0  0  0  0  0  0
    8.8112    3.3326    0.0000 H   0  0  0  0  0  0  0  0  0  0  0  0
   11.7341   -1.4400    0.0000 H   0  0  0  0  0  0  0  0  0  0  0  0
    8.0622    1.4400    0.0000 H   0  0  0  0  0  0  0  0  0  0  0  0
    7.1225    3.3577    0.0000 H   0  0  0  0  0  0  0  0  0  0  0  0
    7.5210    2.6674    0.0000 H   0  0  0  0  0  0  0  0  0  0  0  0
   12.6738   -3.3577    0.0000 H   0  0  0  0  0  0  0  0  0  0  0  0
   12.2753   -2.6674    0.0000 H   0  0  0  0  0  0  0  0  0  0  0  0
    8.3437    4.1423    0.0000 H   0  0  0  0  0  0  0  0  0  0  0  0
    7.9451    4.8326    0.0000 H   0  0  0  0  0  0  0  0  0  0  0  0
   11.4526   -4.1423    0.0000 H   0  0  0  0  0  0  0  0  0  0  0  0
   11.8512   -4.8326    0.0000 H   0  0  0  0  0  0  0  0  0  0  0  0
   13.4662   -4.4400    0.0000 H   0  0  0  0  0  0  0  0  0  0  0  0
    6.3301    4.4400    0.0000 H   0  0  0  0  0  0  0  0  0  0  0  0
   14.4058   -6.3577    0.0000 H   0  0  0  0  0  0  0  0  0  0  0  0
   14.0073   -5.6674    0.0000 H   0  0  0  0  0  0  0  0  0  0  0  0
    5.3905    6.3577    0.0000 H   0  0  0  0  0  0  0  0  0  0  0  0
    5.7890    5.6674    0.0000 H   0  0  0  0  0  0  0  0  0  0  0  0
    6.6116    7.1423    0.0000 H   0  0  0  0  0  0  0  0  0  0  0  0
    6.2131    7.8326    0.0000 H   0  0  0  0  0  0  0  0  0  0  0  0
   13.1847   -7.1423    0.0000 H   0  0  0  0  0  0  0  0  0  0  0  0
   13.5832   -7.8326    0.0000 H   0  0  0  0  0  0  0  0  0  0  0  0
   14.1244   -9.0600    0.0000 H   0  0  0  0  0  0  0  0  0  0  0  0
    5.6720    9.0600    0.0000 H   0  0  0  0  0  0  0  0  0  0  0  0
   15.5273   -6.6300    0.0000 H   0  0  0  0  0  0  0  0  0  0  0  0
    4.2690    6.6300    0.0000 H   0  0  0  0  0  0  0  0  0  0  0  0
   16.9303   -7.4400    0.0000 H   0  0  0  0  0  0  0  0  0  0  0  0
    2.8660    7.4400    0.0000 H   0  0  0  0  0  0  0  0  0  0  0  0
   14.9904  -10.5600    0.0000 H   0  0  0  0  0  0  0  0  0  0  0  0
    4.8059   10.5600    0.0000 H   0  0  0  0  0  0  0  0  0  0  0  0
   17.7963   -8.9400    0.0000 H   0  0  0  0  0  0  0  0  0  0  0  0
    2.0000    8.9400    0.0000 H   0  0  0  0  0  0  0  0  0  0  0  0
  1 23  2  0  0  0  0
  2 24  2  0  0  0  0
  3 33  1  0  0  0  0
  3 77  1  0  0  0  0
  4 34  1  0  0  0  0
  4 78  1  0  0  0  0
  5 37  1  0  0  0  0
  5 79  1  0  0  0  0
  6 38  1  0  0  0  0
  6 80  1  0  0  0  0
  7 13  1  0  0  0  0
  7 16  1  0  0  0  0
  7 51  1  0  0  0  0
  8 14  1  0  0  0  0
  8 15  1  0  0  0  0
  8 52  1  0  0  0  0
  9 19  1  0  0  0  0
  9 23  1  0  0  0  0
  9 61  1  0  0  0  0
 10 20  1  0  0  0  0
 10 24  1  0  0  0  0
 10 62  1  0  0  0  0
 11 12  1  0  0  0  0
 11 13  1  0  0  0  0
 11 39  1  0  0  0  0
 11 40  1  0  0  0  0
 12 14  1  0  0  0  0
 12 41  1  0  0  0  0
 12 42  1  0  0  0  0
 13 43  1  0  0  0  0
 13 44  1  0  0  0  0
 14 45  1  0  0  0  0
 14 46  1  0  0  0  0
 15 18  1  0  0  0  0
 15 49  1  0  0  0  0
 15 50  1  0  0  0  0
 16 17  1  0  0  0  0
 16 47  1  0  0  0  0
 16 48  1  0  0  0  0
 17 19  1  0  0  0  0
 17 55  1  0  0  0  0
 17 56  1  0  0  0  0
 18 20  1  0  0  0  0
 18 53  1  0  0  0  0
 18 54  1  0  0  0  0
 19 59  1  0  0  0  0
 19 60  1  0  0  0  0
 20 57  1  0  0  0  0
 20 58  1  0  0  0  0
 21 24  1  0  0  0  0
 21 26  1  0  0  0  0
 21 65  1  0  0  0  0
 21 66  1  0  0  0  0
 22 23  1  0  0  0  0
 22 25  1  0  0  0  0
 22 63  1  0  0  0  0
 22 64  1  0  0  0  0
 25 28  1  0  0  0  0
 25 69  1  0  0  0  0
 25 70  1  0  0  0  0
 26 27  1  0  0  0  0
 26 67  1  0  0  0  0
 26 68  1  0  0  0  0
 27 30  2  0  0  0  0
 27 32  1  0  0  0  0
 28 29  2  0  0  0  0
 28 31  1  0  0  0  0
 29 33  1  0  0  0  0
 29 71  1  0  0  0  0
 30 34  1  0  0  0  0
 30 72  1  0  0  0  0
 31 35  2  0  0  0  0
 31 73  1  0  0  0  0
 32 36  2  0  0  0  0
 32 74  1  0  0  0  0
 33 37  2  0  0  0  0
 34 38  2  0  0  0  0
 35 37  1  0  0  0  0
 35 75  1  0  0  0  0
 36 38  1  0  0  0  0
 36 76  1  0  0  0  0
M  END
> <PUBCHEM_COMPOUND_CID>
5318865

> <PUBCHEM_COMPOUND_CANONICALIZED>
1

> <PUBCHEM_CACTVS_COMPLEXITY>
601

> <PUBCHEM_CACTVS_HBOND_ACCEPTOR>
8

> <PUBCHEM_CACTVS_HBOND_DONOR>
8

> <PUBCHEM_CACTVS_ROTATABLE_BOND>
19

> <PUBCHEM_CACTVS_SUBSKEYS>
AAADcfB7uAAAAAAAAAAAAAAAAAAAAAAAAAAwYAAAAAAAAAABQAAAHgAQCAAADATBmAQwBoLAAgCIAiFSEAACAAAgIAAIiIEOiIgJJjKC0RKEcAEk1hGJmAeYyLCOIAABAAAAQABAAAIAAACAAAAAAAAAAA==

> <PUBCHEM_IUPAC_OPENEYE_NAME>
3-(3,4-dihydroxyphenyl)-N-[3-[4-[3-[3-(3,4-dihydroxyphenyl)propanoylamino]propylamino]butylamino]propyl]propanamide

> <PUBCHEM_IUPAC_CAS_NAME>
3-(3,4-dihydroxyphenyl)-N-[3-[4-[3-[[3-(3,4-dihydroxyphenyl)-1-oxopropyl]amino]propylamino]butylamino]propyl]propanamide

> <PUBCHEM_IUPAC_NAME>
3-(3,4-dihydroxyphenyl)-N-[3-[4-[3-[3-(3,4-dihydroxyphenyl)propanoylamino]propylamino]butylamino]propyl]propanamide

> <PUBCHEM_IUPAC_SYSTEMATIC_NAME>
3-[3,4-bis(oxidanyl)phenyl]-N-[3-[4-[3-[3-[3,4-bis(oxidanyl)phenyl]propanoylamino]propylamino]butylamino]propyl]propanamide

> <PUBCHEM_IUPAC_TRADITIONAL_NAME>
3-(3,4-dihydroxyphenyl)-N-[3-[4-[3-[3-(3,4-dihydroxyphenyl)propanoylamino]propylamino]butylamino]propyl]propionamide

> <PUBCHEM_IUPAC_INCHI>
InChI=1S/C28H42N4O6/c33-23-9-5-21(19-25(23)35)7-11-27(37)31-17-3-15-29-13-1-2-14-30-16-4-18-32-28(38)12-8-22-6-10-24(34)26(36)20-22/h5-6,9-10,19-20,29-30,33-36H,1-4,7-8,11-18H2,(H,31,37)(H,32,38)

> <PUBCHEM_IUPAC_INCHIKEY>
IOLDDENZPBFBHV-UHFFFAOYSA-N

> <PUBCHEM_XLOGP3_AA>
1.8

> <PUBCHEM_EXACT_MASS>
530.310435

> <PUBCHEM_MOLECULAR_FORMULA>
C28H42N4O6

> <PUBCHEM_MOLECULAR_WEIGHT>
530.65628

> <PUBCHEM_OPENEYE_CAN_SMILES>
C1=CC(=C(C=C1CCC(=O)NCCCNCCCCNCCCNC(=O)CCC2=CC(=C(C=C2)O)O)O)O

> <PUBCHEM_OPENEYE_ISO_SMILES>
C1=CC(=C(C=C1CCC(=O)NCCCNCCCCNCCCNC(=O)CCC2=CC(=C(C=C2)O)O)O)O

> <PUBCHEM_CACTVS_TPSA>
163

> <PUBCHEM_MONOISOTOPIC_WEIGHT>
530.310435

> <PUBCHEM_TOTAL_CHARGE>
0

> <PUBCHEM_HEAVY_ATOM_COUNT>
38

> <PUBCHEM_ATOM_DEF_STEREO_COUNT>
0

> <PUBCHEM_ATOM_UDEF_STEREO_COUNT>
0

> <PUBCHEM_BOND_DEF_STEREO_COUNT>
0

> <PUBCHEM_BOND_UDEF_STEREO_COUNT>
0

> <PUBCHEM_ISOTOPIC_ATOM_COUNT>
0

> <PUBCHEM_COMPONENT_COUNT>
1

> <PUBCHEM_CACTVS_TAUTO_COUNT>
999

> <PUBCHEM_COORDINATE_TYPE>
1
5
255

> <PUBCHEM_BONDANNOTATIONS>
27  30  8
27  32  8
28  29  8
28  31  8
29  33  8
30  34  8
31  35  8
32  36  8
33  37  8
34  38  8
35  37  8
36  38  8

$$$$

