44176375
  -OEChem-07051212502D

137136  0     1  0  0  0  0  0999 V2000
   18.4545    4.5485    0.0000 S   0  0  0  0  0  0  0  0  0  0  0  0
   15.8564    6.0485    0.0000 P   0  0  3  0  0  0  0  0  0  0  0  0
   20.1865    6.5485    0.0000 P   0  0  3  0  0  0  0  0  0  0  0  0
   16.7224    6.5485    0.0000 O   0  0  0  0  0  0  0  0  0  0  0  0
   21.0526    7.0485    0.0000 O   0  0  0  0  0  0  0  0  0  0  0  0
   15.3564    6.9146    0.0000 O   0  0  0  0  0  0  0  0  0  0  0  0
   19.3205    6.0485    0.0000 O   0  0  0  0  0  0  0  0  0  0  0  0
   16.3564    5.1825    0.0000 O   0  0  0  0  0  0  0  0  0  0  0  0
   20.6865    5.6825    0.0000 O   0  0  0  0  0  0  0  0  0  0  0  0
   19.6865    7.4146    0.0000 O   0  0  0  0  0  0  0  0  0  0  0  0
   23.6506    6.5485    0.0000 N   0  3  0  0  0  0  0  0  0  0  0  0
    9.7942    5.5485    0.0000 C   0  0  0  0  0  0  0  0  0  0  0  0
   10.6603    6.0485    0.0000 C   0  0  0  0  0  0  0  0  0  0  0  0
    8.9282    6.0485    0.0000 C   0  0  0  0  0  0  0  0  0  0  0  0
   11.5263    5.5485    0.0000 C   0  0  0  0  0  0  0  0  0  0  0  0
    8.0622    5.5485    0.0000 C   0  0  0  0  0  0  0  0  0  0  0  0
   12.3923    6.0485    0.0000 C   0  0  0  0  0  0  0  0  0  0  0  0
    7.1962    6.0485    0.0000 C   0  0  0  0  0  0  0  0  0  0  0  0
   21.9186   -1.4515    0.0000 C   0  0  0  0  0  0  0  0  0  0  0  0
   21.0526   -0.9515    0.0000 C   0  0  0  0  0  0  0  0  0  0  0  0
   21.9186   -2.4515    0.0000 C   0  0  0  0  0  0  0  0  0  0  0  0
   13.2583    5.5485    0.0000 C   0  0  0  0  0  0  0  0  0  0  0  0
   21.0526    0.0485    0.0000 C   0  0  0  0  0  0  0  0  0  0  0  0
   22.7846   -2.9515    0.0000 C   0  0  0  0  0  0  0  0  0  0  0  0
    6.3301    5.5485    0.0000 C   0  0  0  0  0  0  0  0  0  0  0  0
   20.1865    0.5485    0.0000 C   0  0  0  0  0  0  0  0  0  0  0  0
   14.1244    6.0485    0.0000 C   0  0  0  0  0  0  0  0  0  0  0  0
   22.7846   -3.9515    0.0000 C   0  0  0  0  0  0  0  0  0  0  0  0
   20.1865    1.5485    0.0000 C   0  0  0  0  0  0  0  0  0  0  0  0
    5.4641    6.0485    0.0000 C   0  0  0  0  0  0  0  0  0  0  0  0
   23.6506   -4.4515    0.0000 C   0  0  0  0  0  0  0  0  0  0  0  0
   14.9904    5.5485    0.0000 C   0  0  0  0  0  0  0  0  0  0  0  0
   19.3205    2.0485    0.0000 C   0  0  0  0  0  0  0  0  0  0  0  0
    4.5981    5.5485    0.0000 C   0  0  0  0  0  0  0  0  0  0  0  0
   23.6506   -5.4515    0.0000 C   0  0  0  0  0  0  0  0  0  0  0  0
   19.3205    3.0485    0.0000 C   0  0  0  0  0  0  0  0  0  0  0  0
   22.7846    7.0485    0.0000 C   0  0  0  0  0  0  0  0  0  0  0  0
   17.5885    6.0485    0.0000 C   0  0  2  0  0  0  0  0  0  0  0  0
    3.7320    6.0485    0.0000 C   0  0  0  0  0  0  0  0  0  0  0  0
   24.5167   -5.9515    0.0000 C   0  0  0  0  0  0  0  0  0  0  0  0
   18.4545    3.5485    0.0000 C   0  0  0  0  0  0  0  0  0  0  0  0
   24.5167    6.0485    0.0000 C   0  0  0  0  0  0  0  0  0  0  0  0
   24.1506    7.4146    0.0000 C   0  0  0  0  0  0  0  0  0  0  0  0
   23.1506    5.6825    0.0000 C   0  0  0  0  0  0  0  0  0  0  0  0
   17.5885    5.0485    0.0000 C   0  0  0  0  0  0  0  0  0  0  0  0
   21.9186    6.5485    0.0000 C   0  0  0  0  0  0  0  0  0  0  0  0
   18.4545    6.5485    0.0000 C   0  0  0  0  0  0  0  0  0  0  0  0
    2.8660    5.5485    0.0000 C   0  0  0  0  0  0  0  0  0  0  0  0
   24.5167   -6.9515    0.0000 C   0  0  0  0  0  0  0  0  0  0  0  0
    2.0000    6.0485    0.0000 C   0  0  0  0  0  0  0  0  0  0  0  0
   25.3827   -7.4515    0.0000 C   0  0  0  0  0  0  0  0  0  0  0  0
    9.3957    5.0736    0.0000 H   0  0  0  0  0  0  0  0  0  0  0  0
   10.1928    5.0736    0.0000 H   0  0  0  0  0  0  0  0  0  0  0  0
   11.0588    6.5235    0.0000 H   0  0  0  0  0  0  0  0  0  0  0  0
   10.2617    6.5235    0.0000 H   0  0  0  0  0  0  0  0  0  0  0  0
    9.3267    6.5235    0.0000 H   0  0  0  0  0  0  0  0  0  0  0  0
    8.5297    6.5235    0.0000 H   0  0  0  0  0  0  0  0  0  0  0  0
   11.1278    5.0736    0.0000 H   0  0  0  0  0  0  0  0  0  0  0  0
   11.9248    5.0736    0.0000 H   0  0  0  0  0  0  0  0  0  0  0  0
    7.6636    5.0736    0.0000 H   0  0  0  0  0  0  0  0  0  0  0  0
    8.4607    5.0736    0.0000 H   0  0  0  0  0  0  0  0  0  0  0  0
   12.7908    6.5235    0.0000 H   0  0  0  0  0  0  0  0  0  0  0  0
   11.9938    6.5235    0.0000 H   0  0  0  0  0  0  0  0  0  0  0  0
    7.5947    6.5235    0.0000 H   0  0  0  0  0  0  0  0  0  0  0  0
    6.7976    6.5235    0.0000 H   0  0  0  0  0  0  0  0  0  0  0  0
   22.5292   -1.5591    0.0000 H   0  0  0  0  0  0  0  0  0  0  0  0
   22.1306   -0.8689    0.0000 H   0  0  0  0  0  0  0  0  0  0  0  0
   20.4420   -0.8438    0.0000 H   0  0  0  0  0  0  0  0  0  0  0  0
   20.8405   -1.5341    0.0000 H   0  0  0  0  0  0  0  0  0  0  0  0
   21.3080   -2.3438    0.0000 H   0  0  0  0  0  0  0  0  0  0  0  0
   21.7065   -3.0341    0.0000 H   0  0  0  0  0  0  0  0  0  0  0  0
   12.8598    5.0736    0.0000 H   0  0  0  0  0  0  0  0  0  0  0  0
   13.6569    5.0736    0.0000 H   0  0  0  0  0  0  0  0  0  0  0  0
   21.6631   -0.0591    0.0000 H   0  0  0  0  0  0  0  0  0  0  0  0
   21.2646    0.6311    0.0000 H   0  0  0  0  0  0  0  0  0  0  0  0
   23.3952   -3.0591    0.0000 H   0  0  0  0  0  0  0  0  0  0  0  0
   22.9967   -2.3689    0.0000 H   0  0  0  0  0  0  0  0  0  0  0  0
    5.9316    5.0736    0.0000 H   0  0  0  0  0  0  0  0  0  0  0  0
    6.7287    5.0736    0.0000 H   0  0  0  0  0  0  0  0  0  0  0  0
   19.5760    0.6562    0.0000 H   0  0  0  0  0  0  0  0  0  0  0  0
   19.9745   -0.0341    0.0000 H   0  0  0  0  0  0  0  0  0  0  0  0
   14.5229    6.5235    0.0000 H   0  0  0  0  0  0  0  0  0  0  0  0
   13.7258    6.5235    0.0000 H   0  0  0  0  0  0  0  0  0  0  0  0
   22.1740   -3.8438    0.0000 H   0  0  0  0  0  0  0  0  0  0  0  0
   22.5726   -4.5341    0.0000 H   0  0  0  0  0  0  0  0  0  0  0  0
   20.7971    1.4409    0.0000 H   0  0  0  0  0  0  0  0  0  0  0  0
   20.3986    2.1311    0.0000 H   0  0  0  0  0  0  0  0  0  0  0  0
    5.8626    6.5235    0.0000 H   0  0  0  0  0  0  0  0  0  0  0  0
    5.0656    6.5235    0.0000 H   0  0  0  0  0  0  0  0  0  0  0  0
   24.2612   -4.5591    0.0000 H   0  0  0  0  0  0  0  0  0  0  0  0
   23.8627   -3.8689    0.0000 H   0  0  0  0  0  0  0  0  0  0  0  0
   14.5919    5.0736    0.0000 H   0  0  0  0  0  0  0  0  0  0  0  0
   15.3889    5.0736    0.0000 H   0  0  0  0  0  0  0  0  0  0  0  0
   18.7099    2.1562    0.0000 H   0  0  0  0  0  0  0  0  0  0  0  0
   19.1085    1.4659    0.0000 H   0  0  0  0  0  0  0  0  0  0  0  0
    4.1996    5.0736    0.0000 H   0  0  0  0  0  0  0  0  0  0  0  0
    4.9966    5.0736    0.0000 H   0  0  0  0  0  0  0  0  0  0  0  0
   23.0401   -5.3438    0.0000 H   0  0  0  0  0  0  0  0  0  0  0  0
   23.4386   -6.0341    0.0000 H   0  0  0  0  0  0  0  0  0  0  0  0
   23.1831    7.5235    0.0000 H   0  0  0  0  0  0  0  0  0  0  0  0
   22.3861    7.5235    0.0000 H   0  0  0  0  0  0  0  0  0  0  0  0
   19.9311    2.9409    0.0000 H   0  0  0  0  0  0  0  0  0  0  0  0
   19.5326    3.6311    0.0000 H   0  0  0  0  0  0  0  0  0  0  0  0
   17.5885    6.6685    0.0000 H   0  0  0  0  0  0  0  0  0  0  0  0
    4.1306    6.5235    0.0000 H   0  0  0  0  0  0  0  0  0  0  0  0
    3.3335    6.5235    0.0000 H   0  0  0  0  0  0  0  0  0  0  0  0
   25.1272   -6.0591    0.0000 H   0  0  0  0  0  0  0  0  0  0  0  0
   24.7287   -5.3689    0.0000 H   0  0  0  0  0  0  0  0  0  0  0  0
   17.8439    3.6562    0.0000 H   0  0  0  0  0  0  0  0  0  0  0  0
   18.2424    2.9659    0.0000 H   0  0  0  0  0  0  0  0  0  0  0  0
   24.2067    5.5116    0.0000 H   0  0  0  0  0  0  0  0  0  0  0  0
   25.0536    5.7385    0.0000 H   0  0  0  0  0  0  0  0  0  0  0  0
   24.8267    6.5855    0.0000 H   0  0  0  0  0  0  0  0  0  0  0  0
   24.6876    7.1046    0.0000 H   0  0  0  0  0  0  0  0  0  0  0  0
   24.4606    7.9515    0.0000 H   0  0  0  0  0  0  0  0  0  0  0  0
   23.6137    7.7246    0.0000 H   0  0  0  0  0  0  0  0  0  0  0  0
   22.6137    5.9925    0.0000 H   0  0  0  0  0  0  0  0  0  0  0  0
   22.8406    5.1456    0.0000 H   0  0  0  0  0  0  0  0  0  0  0  0
   23.6876    5.3725    0.0000 H   0  0  0  0  0  0  0  0  0  0  0  0
   16.9779    5.1562    0.0000 H   0  0  0  0  0  0  0  0  0  0  0  0
   17.3764    4.4659    0.0000 H   0  0  0  0  0  0  0  0  0  0  0  0
   21.5201    6.0736    0.0000 H   0  0  0  0  0  0  0  0  0  0  0  0
   22.3171    6.0736    0.0000 H   0  0  0  0  0  0  0  0  0  0  0  0
   18.8530    7.0235    0.0000 H   0  0  0  0  0  0  0  0  0  0  0  0
   18.0560    7.0235    0.0000 H   0  0  0  0  0  0  0  0  0  0  0  0
    2.4675    5.0736    0.0000 H   0  0  0  0  0  0  0  0  0  0  0  0
    3.2646    5.0736    0.0000 H   0  0  0  0  0  0  0  0  0  0  0  0
   23.9061   -6.8438    0.0000 H   0  0  0  0  0  0  0  0  0  0  0  0
   24.3046   -7.5341    0.0000 H   0  0  0  0  0  0  0  0  0  0  0  0
   15.6664    7.4515    0.0000 H   0  0  0  0  0  0  0  0  0  0  0  0
    2.3100    6.5855    0.0000 H   0  0  0  0  0  0  0  0  0  0  0  0
    1.4631    6.3585    0.0000 H   0  0  0  0  0  0  0  0  0  0  0  0
    1.6900    5.5116    0.0000 H   0  0  0  0  0  0  0  0  0  0  0  0
   25.0727   -7.9884    0.0000 H   0  0  0  0  0  0  0  0  0  0  0  0
   25.9196   -7.7615    0.0000 H   0  0  0  0  0  0  0  0  0  0  0  0
   25.6927   -6.9145    0.0000 H   0  0  0  0  0  0  0  0  0  0  0  0
   20.3765    5.1456    0.0000 H   0  0  0  0  0  0  0  0  0  0  0  0
  1 41  1  0  0  0  0
  1 45  1  0  0  0  0
  2  4  1  0  0  0  0
  2  6  1  0  0  0  0
  2  8  2  0  0  0  0
  2 32  1  0  0  0  0
  3  5  1  0  0  0  0
  3  7  1  0  0  0  0
  3  9  1  0  0  0  0
  3 10  2  0  0  0  0
 38  4  1  1  0  0  0
  5 46  1  0  0  0  0
  6130  1  0  0  0  0
  7 47  1  0  0  0  0
  9137  1  0  0  0  0
 11 37  1  0  0  0  0
 11 42  1  0  0  0  0
 11 43  1  0  0  0  0
 11 44  1  0  0  0  0
 12 13  1  0  0  0  0
 12 14  1  0  0  0  0
 12 52  1  0  0  0  0
 12 53  1  0  0  0  0
 13 15  1  0  0  0  0
 13 54  1  0  0  0  0
 13 55  1  0  0  0  0
 14 16  1  0  0  0  0
 14 56  1  0  0  0  0
 14 57  1  0  0  0  0
 15 17  1  0  0  0  0
 15 58  1  0  0  0  0
 15 59  1  0  0  0  0
 16 18  1  0  0  0  0
 16 60  1  0  0  0  0
 16 61  1  0  0  0  0
 17 22  1  0  0  0  0
 17 62  1  0  0  0  0
 17 63  1  0  0  0  0
 18 25  1  0  0  0  0
 18 64  1  0  0  0  0
 18 65  1  0  0  0  0
 19 20  1  0  0  0  0
 19 21  1  0  0  0  0
 19 66  1  0  0  0  0
 19 67  1  0  0  0  0
 20 23  1  0  0  0  0
 20 68  1  0  0  0  0
 20 69  1  0  0  0  0
 21 24  1  0  0  0  0
 21 70  1  0  0  0  0
 21 71  1  0  0  0  0
 22 27  1  0  0  0  0
 22 72  1  0  0  0  0
 22 73  1  0  0  0  0
 23 26  1  0  0  0  0
 23 74  1  0  0  0  0
 23 75  1  0  0  0  0
 24 28  1  0  0  0  0
 24 76  1  0  0  0  0
 24 77  1  0  0  0  0
 25 30  1  0  0  0  0
 25 78  1  0  0  0  0
 25 79  1  0  0  0  0
 26 29  1  0  0  0  0
 26 80  1  0  0  0  0
 26 81  1  0  0  0  0
 27 32  1  0  0  0  0
 27 82  1  0  0  0  0
 27 83  1  0  0  0  0
 28 31  1  0  0  0  0
 28 84  1  0  0  0  0
 28 85  1  0  0  0  0
 29 33  1  0  0  0  0
 29 86  1  0  0  0  0
 29 87  1  0  0  0  0
 30 34  1  0  0  0  0
 30 88  1  0  0  0  0
 30 89  1  0  0  0  0
 31 35  1  0  0  0  0
 31 90  1  0  0  0  0
 31 91  1  0  0  0  0
 32 92  1  0  0  0  0
 32 93  1  0  0  0  0
 33 36  1  0  0  0  0
 33 94  1  0  0  0  0
 33 95  1  0  0  0  0
 34 39  1  0  0  0  0
 34 96  1  0  0  0  0
 34 97  1  0  0  0  0
 35 40  1  0  0  0  0
 35 98  1  0  0  0  0
 35 99  1  0  0  0  0
 36 41  1  0  0  0  0
 36102  1  0  0  0  0
 36103  1  0  0  0  0
 37 46  1  0  0  0  0
 37100  1  0  0  0  0
 37101  1  0  0  0  0
 38 45  1  0  0  0  0
 38 47  1  0  0  0  0
 38104  1  0  0  0  0
 39 48  1  0  0  0  0
 39105  1  0  0  0  0
 39106  1  0  0  0  0
 40 49  1  0  0  0  0
 40107  1  0  0  0  0
 40108  1  0  0  0  0
 41109  1  0  0  0  0
 41110  1  0  0  0  0
 42111  1  0  0  0  0
 42112  1  0  0  0  0
 42113  1  0  0  0  0
 43114  1  0  0  0  0
 43115  1  0  0  0  0
 43116  1  0  0  0  0
 44117  1  0  0  0  0
 44118  1  0  0  0  0
 44119  1  0  0  0  0
 45120  1  0  0  0  0
 45121  1  0  0  0  0
 46122  1  0  0  0  0
 46123  1  0  0  0  0
 47124  1  0  0  0  0
 47125  1  0  0  0  0
 48 50  1  0  0  0  0
 48126  1  0  0  0  0
 48127  1  0  0  0  0
 49 51  1  0  0  0  0
 49128  1  0  0  0  0
 49129  1  0  0  0  0
 50131  1  0  0  0  0
 50132  1  0  0  0  0
 50133  1  0  0  0  0
 51134  1  0  0  0  0
 51135  1  0  0  0  0
 51136  1  0  0  0  0
M  CHG  1  11   1
M  END
> <PUBCHEM_COMPOUND_CID>
44176375

> <PUBCHEM_COMPOUND_CANONICALIZED>
1

> <PUBCHEM_CACTVS_COMPLEXITY>
846

> <PUBCHEM_CACTVS_HBOND_ACCEPTOR>
8

> <PUBCHEM_CACTVS_HBOND_DONOR>
2

> <PUBCHEM_CACTVS_ROTATABLE_BOND>
41

> <PUBCHEM_CACTVS_SUBSKEYS>
AAADcfB+OANAAAAAAAAAAAAAAAAAAAAAAAAAAAAAAAAAAAAAAAAAHgwACCAACBTtwAaCAAMAARgAQAAAAIAAAAAAABAAAAAIAAADAAIgAAAAAAAAAAAwAAEAgIAAAAAAAAAAAAAAAAAAAAAAAAAAAAAAAA==

> <PUBCHEM_IUPAC_OPENEYE_NAME>
2-[[(2S)-2-[hexadecyl(hydroxy)phosphoryl]oxy-3-hexadecylsulfanyl-propoxy]-hydroxy-phosphoryl]oxyethyl-trimethyl-ammonium

> <PUBCHEM_IUPAC_CAS_NAME>
2-[[(2S)-2-[hexadecyl(hydroxy)phosphoryl]oxy-3-(hexadecylthio)propoxy]-hydroxyphosphoryl]oxyethyl-trimethylammonium

> <PUBCHEM_IUPAC_NAME>
2-[[(2S)-2-[hexadecyl(hydroxy)phosphoryl]oxy-3-hexadecylsulfanylpropoxy]-hydroxyphosphoryl]oxyethyl-trimethylazanium

> <PUBCHEM_IUPAC_SYSTEMATIC_NAME>
2-[[(2S)-2-[hexadecyl(oxidanyl)phosphoryl]oxy-3-hexadecylsulfanyl-propoxy]-oxidanyl-phosphoryl]oxyethyl-trimethyl-azanium

> <PUBCHEM_IUPAC_TRADITIONAL_NAME>
2-[[(2S)-2-[cetyl(hydroxy)phosphoryl]oxy-3-(cetylthio)propoxy]-hydroxy-phosphoryl]oxyethyl-trimethyl-ammonium

> <PUBCHEM_IUPAC_INCHI>
InChI=1S/C40H85NO7P2S/c1-6-8-10-12-14-16-18-20-22-24-26-28-30-32-36-49(42,43)48-40(38-47-50(44,45)46-35-34-41(3,4)5)39-51-37-33-31-29-27-25-23-21-19-17-15-13-11-9-7-2/h40H,6-39H2,1-5H3,(H-,42,43,44,45)/p+1/t40-/m0/s1

> <PUBCHEM_IUPAC_INCHIKEY>
QPCQVOLQSLKQHW-FAIXQHPJSA-O

> <PUBCHEM_XLOGP3_AA>
14

> <PUBCHEM_EXACT_MASS>
786.560023

> <PUBCHEM_MOLECULAR_FORMULA>
C40H86NO7P2S+

> <PUBCHEM_MOLECULAR_WEIGHT>
787.125864

> <PUBCHEM_OPENEYE_CAN_SMILES>
CCCCCCCCCCCCCCCCP(=O)(O)OC(COP(=O)(O)OCC[N+](C)(C)C)CSCCCCCCCCCCCCCCCC

> <PUBCHEM_OPENEYE_ISO_SMILES>
CCCCCCCCCCCCCCCCP(=O)(O)O[C@@H](COP(=O)(O)OCC[N+](C)(C)C)CSCCCCCCCCCCCCCCCC

> <PUBCHEM_CACTVS_TPSA>
128

> <PUBCHEM_MONOISOTOPIC_WEIGHT>
786.560023

> <PUBCHEM_TOTAL_CHARGE>
1

> <PUBCHEM_HEAVY_ATOM_COUNT>
51

> <PUBCHEM_ATOM_DEF_STEREO_COUNT>
1

> <PUBCHEM_ATOM_UDEF_STEREO_COUNT>
0

> <PUBCHEM_BOND_DEF_STEREO_COUNT>
0

> <PUBCHEM_BOND_UDEF_STEREO_COUNT>
0

> <PUBCHEM_ISOTOPIC_ATOM_COUNT>
0

> <PUBCHEM_COMPONENT_COUNT>
1

> <PUBCHEM_CACTVS_TAUTO_COUNT>
1

> <PUBCHEM_COORDINATE_TYPE>
1
5
255

> <PUBCHEM_BONDANNOTATIONS>
38  4  5

$$$$

