134799
  -OEChem-07051213053D

 50 53  0     1  0  0  0  0  0999 V2000
    4.6357    0.7242    1.1510 O   0  0  0  0  0  0  0  0  0  0  0  0
   -6.3378    0.2600    0.1632 O   0  0  0  0  0  0  0  0  0  0  0  0
    2.2587    0.3375    0.6227 C   0  0  1  0  0  0  0  0  0  0  0  0
    1.5906   -0.7836   -0.2086 C   0  0  2  0  0  0  0  0  0  0  0  0
    0.0926   -0.9048    0.0759 C   0  0  1  0  0  0  0  0  0  0  0  0
   -0.5955    0.4352   -0.3214 C   0  0  2  0  0  0  0  0  0  0  0  0
    3.7476    0.1464    0.2035 C   0  0  2  0  0  0  0  0  0  0  0  0
    1.5870    1.6765    0.2595 C   0  0  0  0  0  0  0  0  0  0  0  0
    2.4901   -1.9916    0.0338 C   0  0  0  0  0  0  0  0  0  0  0  0
    0.0547    1.6234    0.4331 C   0  0  0  0  0  0  0  0  0  0  0  0
    3.9068   -1.3978    0.1829 C   0  0  0  0  0  0  0  0  0  0  0  0
   -0.5743   -2.0571   -0.6736 C   0  0  0  0  0  0  0  0  0  0  0  0
   -2.1144    0.3502   -0.1908 C   0  0  0  0  0  0  0  0  0  0  0  0
    2.1297    0.1371    2.1629 C   0  0  0  0  0  0  0  0  0  0  0  0
   -2.0420   -2.1655   -0.2587 C   0  0  0  0  0  0  0  0  0  0  0  0
   -2.7564   -0.8389   -0.1383 C   0  0  0  0  0  0  0  0  0  0  0  0
   -2.8766    1.6583   -0.1868 C   0  0  0  0  0  0  0  0  0  0  0  0
   -4.2537   -0.9512    0.0277 C   0  0  0  0  0  0  0  0  0  0  0  0
    4.0607    0.7071   -1.1258 C   0  0  0  0  0  0  0  0  0  0  0  0
   -4.3791    1.5103   -0.4143 C   0  0  0  0  0  0  0  0  0  0  0  0
   -4.9397    0.3608    0.4086 C   0  0  1  0  0  0  0  0  0  0  0  0
    4.3153    1.1635   -2.2065 C   0  0  0  0  0  0  0  0  0  0  0  0
    1.6842   -0.5411   -1.2792 H   0  0  0  0  0  0  0  0  0  0  0  0
   -0.0601   -1.0891    1.1469 H   0  0  0  0  0  0  0  0  0  0  0  0
   -0.4050    0.6104   -1.3917 H   0  0  0  0  0  0  0  0  0  0  0  0
    1.7847    1.9412   -0.7856 H   0  0  0  0  0  0  0  0  0  0  0  0
    1.9979    2.4915    0.8673 H   0  0  0  0  0  0  0  0  0  0  0  0
    2.4454   -2.7040   -0.7965 H   0  0  0  0  0  0  0  0  0  0  0  0
    2.2054   -2.5290    0.9452 H   0  0  0  0  0  0  0  0  0  0  0  0
   -0.2054    1.5788    1.4970 H   0  0  0  0  0  0  0  0  0  0  0  0
   -0.3493    2.5727    0.0614 H   0  0  0  0  0  0  0  0  0  0  0  0
    4.3656   -1.7648    1.1091 H   0  0  0  0  0  0  0  0  0  0  0  0
    4.5504   -1.7369   -0.6378 H   0  0  0  0  0  0  0  0  0  0  0  0
   -0.0737   -3.0087   -0.4623 H   0  0  0  0  0  0  0  0  0  0  0  0
   -0.5048   -1.8939   -1.7568 H   0  0  0  0  0  0  0  0  0  0  0  0
    2.6041    0.9662    2.7010 H   0  0  0  0  0  0  0  0  0  0  0  0
    1.0924    0.0998    2.5040 H   0  0  0  0  0  0  0  0  0  0  0  0
    2.6072   -0.7851    2.5082 H   0  0  0  0  0  0  0  0  0  0  0  0
   -2.1022   -2.6756    0.7112 H   0  0  0  0  0  0  0  0  0  0  0  0
   -2.5605   -2.8011   -0.9866 H   0  0  0  0  0  0  0  0  0  0  0  0
   -2.7125    2.1549    0.7774 H   0  0  0  0  0  0  0  0  0  0  0  0
   -2.4815    2.3191   -0.9676 H   0  0  0  0  0  0  0  0  0  0  0  0
   -4.6848   -1.3385   -0.9051 H   0  0  0  0  0  0  0  0  0  0  0  0
   -4.4881   -1.6973    0.7977 H   0  0  0  0  0  0  0  0  0  0  0  0
    4.4333    1.6737    1.2118 H   0  0  0  0  0  0  0  0  0  0  0  0
   -4.8935    2.4461   -0.1639 H   0  0  0  0  0  0  0  0  0  0  0  0
   -4.5837    1.3376   -1.4796 H   0  0  0  0  0  0  0  0  0  0  0  0
   -4.7993    0.5678    1.4766 H   0  0  0  0  0  0  0  0  0  0  0  0
    4.5401    1.5686   -3.1652 H   0  0  0  0  0  0  0  0  0  0  0  0
   -6.6728   -0.4881    0.6866 H   0  0  0  0  0  0  0  0  0  0  0  0
  1  7  1  0  0  0  0
  1 45  1  0  0  0  0
  2 21  1  0  0  0  0
  2 50  1  0  0  0  0
  3  4  1  0  0  0  0
  3  7  1  0  0  0  0
  3  8  1  0  0  0  0
  3 14  1  0  0  0  0
  4  5  1  0  0  0  0
  4  9  1  0  0  0  0
  4 23  1  0  0  0  0
  5  6  1  0  0  0  0
  5 12  1  0  0  0  0
  5 24  1  0  0  0  0
  6 10  1  0  0  0  0
  6 13  1  0  0  0  0
  6 25  1  0  0  0  0
  7 11  1  0  0  0  0
  7 19  1  0  0  0  0
  8 10  1  0  0  0  0
  8 26  1  0  0  0  0
  8 27  1  0  0  0  0
  9 11  1  0  0  0  0
  9 28  1  0  0  0  0
  9 29  1  0  0  0  0
 10 30  1  0  0  0  0
 10 31  1  0  0  0  0
 11 32  1  0  0  0  0
 11 33  1  0  0  0  0
 12 15  1  0  0  0  0
 12 34  1  0  0  0  0
 12 35  1  0  0  0  0
 13 16  2  0  0  0  0
 13 17  1  0  0  0  0
 14 36  1  0  0  0  0
 14 37  1  0  0  0  0
 14 38  1  0  0  0  0
 15 16  1  0  0  0  0
 15 39  1  0  0  0  0
 15 40  1  0  0  0  0
 16 18  1  0  0  0  0
 17 20  1  0  0  0  0
 17 41  1  0  0  0  0
 17 42  1  0  0  0  0
 18 21  1  0  0  0  0
 18 43  1  0  0  0  0
 18 44  1  0  0  0  0
 19 22  3  0  0  0  0
 20 21  1  0  0  0  0
 20 46  1  0  0  0  0
 20 47  1  0  0  0  0
 21 48  1  0  0  0  0
 22 49  1  0  0  0  0
M  END
> <PUBCHEM_COMPOUND_CID>
134799

> <PUBCHEM_CONFORMER_RMSD>
0.6

> <PUBCHEM_CONFORMER_DIVERSEORDER>
1

> <PUBCHEM_MMFF94_PARTIAL_CHARGES>
15
1 -0.68
13 -0.28
15 0.14
16 -0.28
17 0.14
18 0.14
19 -0.2
2 -0.68
21 0.28
22 -0.18
45 0.4
49 0.18
50 0.4
6 0.14
7 0.48

> <PUBCHEM_EFFECTIVE_ROTOR_COUNT>
2.2

> <PUBCHEM_PHARMACOPHORE_FEATURES>
9
1 1 acceptor
1 1 donor
1 2 acceptor
1 2 donor
1 22 hydrophobe
5 3 4 7 9 11 rings
6 13 16 17 18 20 21 rings
6 3 4 5 6 8 10 rings
6 5 6 12 13 15 16 rings

> <PUBCHEM_HEAVY_ATOM_COUNT>
22

> <PUBCHEM_ATOM_DEF_STEREO_COUNT>
6

> <PUBCHEM_ATOM_UDEF_STEREO_COUNT>
0

> <PUBCHEM_BOND_DEF_STEREO_COUNT>
0

> <PUBCHEM_BOND_UDEF_STEREO_COUNT>
0

> <PUBCHEM_ISOTOPIC_ATOM_COUNT>
0

> <PUBCHEM_COMPONENT_COUNT>
1

> <PUBCHEM_CACTVS_TAUTO_COUNT>
1

> <PUBCHEM_CONFORMER_ID>
00020E8F00000001

> <PUBCHEM_MMFF94_ENERGY>
57.6497

> <PUBCHEM_FEATURE_SELFOVERLAP>
45.76

> <PUBCHEM_SHAPE_FINGERPRINT>
10498660 4 18408885143971156476
10670039 82 18339347678145528932
10759866 29 18272364291530217198
10906281 52 18268410469835110329
10967382 1 18335987570220264879
11578080 2 16807591464996550075
11796584 16 6266899069319483101
12011746 2 18259980487565711767
12236239 1 17988925552998472540
12390115 104 18042109020855599721
12403259 415 18260556640792394169
12403814 3 17775853414859781605
12596602 18 16988556884430441233
12616971 3 17560809801086067918
12616999 72 18342171181102846252
12670546 56 16415201212914090165
12788726 201 17895183467404068033
128620 24 13686301279143945179
13134695 92 15285355094530855192
13140716 1 18192441770306587416
13544592 145 17821721733040950534
13583140 156 5256395149700164318
14178342 30 18046653130092416050
14341114 176 18410288138483563363
14341114 328 17489586740394159297
14790565 3 18337945792309255017
15196674 1 18408889559313451283
15238133 3 18342741810373546264
15342168 16 16127794255107530606
15664445 248 18262221249962962164
1601671 61 18410854360690679492
16752209 62 18337121076820163431
16945 1 18264502701576256542
17349148 13 17749108902831892169
17804303 29 18334857169651841753
17980427 23 18057620767886594028
1813 80 17274822484273193309
18186145 218 17530969076951304923
192875 21 5256405028320085067
19591789 44 18192714659849511775
21033648 29 18115605836737989561
21267235 1 18337386149338083922
21279426 13 18117276084609168757
21421861 104 17987248900576785378
21503847 285 17561078138042455612
23175994 123 17022616460260952185
23402539 116 18187093845171350309
23559900 14 18193561287945100206
3004659 81 18342174518477356814
3060560 45 17167860872595765206
335352 9 18335423491138870486
34934 24 18334021557936630898
350125 39 18338799047818384422
3545911 37 18407760343496514986
474 4 16844999101421000708
495365 180 16950578657247792162
4990 188 17385721391798548172
5104073 3 18409732889053394907
537710 114 18409444804132447428
542803 24 17775283867968436029
633830 44 16877663469962522617

> <PUBCHEM_SHAPE_MULTIPOLES>
441.01
10.7
2.07
1.24
7.72
0.54
0.02
-2.22
-0.82
0.18
-0.3
-1.81
-0.35
-0.47

> <PUBCHEM_SHAPE_SELFOVERLAP>
944.274

> <PUBCHEM_SHAPE_VOLUME>
243

> <PUBCHEM_COORDINATE_TYPE>
2
5
10

$$$$

