122837
  -OEChem-07051213092D

 53 54  0     1  0  0  0  0  0999 V2000
    8.0378    1.2196    0.0000 O   0  0  0  0  0  0  0  0  0  0  0  0
    8.6051   -0.3760    0.0000 C   0  0  2  0  0  0  0  0  0  0  0  0
    6.8464    0.0162    0.0000 C   0  0  1  0  0  0  0  0  0  0  0  0
    8.6101   -1.3759    0.0000 C   0  0  1  0  0  0  0  0  0  0  0  0
    7.8202    0.2436    0.0000 C   0  0  1  0  0  0  0  0  0  0  0  0
    6.4170   -0.8869    0.0000 C   0  0  0  0  0  0  0  0  0  0  0  0
    6.2190    0.7950    0.0000 C   0  0  1  0  0  0  0  0  0  0  0  0
    9.5578   -1.6760    0.0000 C   0  0  0  0  0  0  0  0  0  0  0  0
    9.5498   -0.0665    0.0000 C   0  0  0  0  0  0  0  0  0  0  0  0
    7.8314   -2.0033    0.0000 C   0  0  0  0  0  0  0  0  0  0  0  0
    6.8554   -1.7857    0.0000 C   0  0  0  0  0  0  0  0  0  0  0  0
   10.1374   -0.8683    0.0000 C   0  0  0  0  0  0  0  0  0  0  0  0
    5.2309    0.6410    0.0000 C   0  0  0  0  0  0  0  0  0  0  0  0
    6.5797    1.7276    0.0000 C   0  0  0  0  0  0  0  0  0  0  0  0
    9.8557    0.8856    0.0000 C   0  0  0  0  0  0  0  0  0  0  0  0
    8.0588   -2.9771    0.0000 C   0  0  0  0  0  0  0  0  0  0  0  0
    4.6035    1.4197    0.0000 C   0  0  0  0  0  0  0  0  0  0  0  0
    3.6155    1.2657    0.0000 C   0  0  0  0  0  0  0  0  0  0  0  0
    2.9881    2.0444    0.0000 C   0  0  0  0  0  0  0  0  0  0  0  0
    2.0000    1.8905    0.0000 C   0  0  0  0  0  0  0  0  0  0  0  0
    3.3488    2.9771    0.0000 C   0  0  0  0  0  0  0  0  0  0  0  0
    8.7538    0.4609    0.0000 H   0  0  0  0  0  0  0  0  0  0  0  0
    6.0022   -0.0831    0.0000 H   0  0  0  0  0  0  0  0  0  0  0  0
    8.7671   -2.2113    0.0000 H   0  0  0  0  0  0  0  0  0  0  0  0
    7.3796    0.6798    0.0000 H   0  0  0  0  0  0  0  0  0  0  0  0
    5.9303   -0.5027    0.0000 H   0  0  0  0  0  0  0  0  0  0  0  0
    5.9342   -1.2758    0.0000 H   0  0  0  0  0  0  0  0  0  0  0  0
    6.8316    0.8904    0.0000 H   0  0  0  0  0  0  0  0  0  0  0  0
    9.3096   -2.2441    0.0000 H   0  0  0  0  0  0  0  0  0  0  0  0
   10.0967   -1.9825    0.0000 H   0  0  0  0  0  0  0  0  0  0  0  0
    6.2516   -1.9266    0.0000 H   0  0  0  0  0  0  0  0  0  0  0  0
    6.8584   -2.4057    0.0000 H   0  0  0  0  0  0  0  0  0  0  0  0
   10.7574   -0.8652    0.0000 H   0  0  0  0  0  0  0  0  0  0  0  0
    4.6879    0.3418    0.0000 H   0  0  0  0  0  0  0  0  0  0  0  0
    5.4313    0.0543    0.0000 H   0  0  0  0  0  0  0  0  0  0  0  0
    7.1580    1.5040    0.0000 H   0  0  0  0  0  0  0  0  0  0  0  0
    6.8033    2.3059    0.0000 H   0  0  0  0  0  0  0  0  0  0  0  0
    6.0014    1.9513    0.0000 H   0  0  0  0  0  0  0  0  0  0  0  0
    8.6294    1.4054    0.0000 H   0  0  0  0  0  0  0  0  0  0  0  0
   10.4460    0.6959    0.0000 H   0  0  0  0  0  0  0  0  0  0  0  0
   10.0454    1.4758    0.0000 H   0  0  0  0  0  0  0  0  0  0  0  0
    9.2654    1.0752    0.0000 H   0  0  0  0  0  0  0  0  0  0  0  0
    7.6064   -3.4011    0.0000 H   0  0  0  0  0  0  0  0  0  0  0  0
    8.6521   -3.1569    0.0000 H   0  0  0  0  0  0  0  0  0  0  0  0
    5.1465    1.7189    0.0000 H   0  0  0  0  0  0  0  0  0  0  0  0
    4.4031    2.0064    0.0000 H   0  0  0  0  0  0  0  0  0  0  0  0
    3.3918    0.6875    0.0000 H   0  0  0  0  0  0  0  0  0  0  0  0
    1.9045    2.5031    0.0000 H   0  0  0  0  0  0  0  0  0  0  0  0
    1.3874    1.7950    0.0000 H   0  0  0  0  0  0  0  0  0  0  0  0
    2.0955    1.2779    0.0000 H   0  0  0  0  0  0  0  0  0  0  0  0
    3.9270    2.7535    0.0000 H   0  0  0  0  0  0  0  0  0  0  0  0
    3.5724    3.5554    0.0000 H   0  0  0  0  0  0  0  0  0  0  0  0
    2.7705    3.2008    0.0000 H   0  0  0  0  0  0  0  0  0  0  0  0
  5  1  1  1  0  0  0
  1 39  1  0  0  0  0
  2  4  1  0  0  0  0
  2  5  1  0  0  0  0
  2  9  1  0  0  0  0
  2 22  1  1  0  0  0
  3  5  1  0  0  0  0
  3  6  1  0  0  0  0
  3  7  1  0  0  0  0
  3 23  1  6  0  0  0
  4  8  1  0  0  0  0
  4 10  1  0  0  0  0
  4 24  1  6  0  0  0
  5 25  1  0  0  0  0
  6 11  1  0  0  0  0
  6 26  1  0  0  0  0
  6 27  1  0  0  0  0
  7 13  1  0  0  0  0
  7 14  1  1  0  0  0
  7 28  1  0  0  0  0
  8 12  1  0  0  0  0
  8 29  1  0  0  0  0
  8 30  1  0  0  0  0
  9 12  2  0  0  0  0
  9 15  1  0  0  0  0
 10 11  1  0  0  0  0
 10 16  2  0  0  0  0
 11 31  1  0  0  0  0
 11 32  1  0  0  0  0
 12 33  1  0  0  0  0
 13 17  1  0  0  0  0
 13 34  1  0  0  0  0
 13 35  1  0  0  0  0
 14 36  1  0  0  0  0
 14 37  1  0  0  0  0
 14 38  1  0  0  0  0
 15 40  1  0  0  0  0
 15 41  1  0  0  0  0
 15 42  1  0  0  0  0
 16 43  1  0  0  0  0
 16 44  1  0  0  0  0
 17 18  1  0  0  0  0
 17 45  1  0  0  0  0
 17 46  1  0  0  0  0
 18 19  2  0  0  0  0
 18 47  1  0  0  0  0
 19 20  1  0  0  0  0
 19 21  1  0  0  0  0
 20 48  1  0  0  0  0
 20 49  1  0  0  0  0
 20 50  1  0  0  0  0
 21 51  1  0  0  0  0
 21 52  1  0  0  0  0
 21 53  1  0  0  0  0
M  END
> <PUBCHEM_COMPOUND_CID>
122837

> <PUBCHEM_COMPOUND_CANONICALIZED>
1

> <PUBCHEM_CACTVS_COMPLEXITY>
439

> <PUBCHEM_CACTVS_HBOND_ACCEPTOR>
1

> <PUBCHEM_CACTVS_HBOND_DONOR>
1

> <PUBCHEM_CACTVS_ROTATABLE_BOND>
4

> <PUBCHEM_CACTVS_SUBSKEYS>
AAADcfB4IAAAAAAAAAAAAAAAAAAAAQAAAAAAAAAABgAAAACAAAAAGgAACAAADRSggAICAAAAAgCAAiBCAAAAAAAgAAAACAAAAAgAEAIAAQAAQAAEwAAIAAOAwOAOgAAAAAAAAAAAAAAAAAAAAAAAAAAAAA==

> <PUBCHEM_IUPAC_OPENEYE_NAME>
(3aS,4R,5S,8aR)-5-[(1R)-1,5-dimethylhex-4-enyl]-3-methyl-8-methylene-3a,4,5,6,7,8a-hexahydro-1H-azulen-4-ol

> <PUBCHEM_IUPAC_CAS_NAME>
(3aS,4R,5S,8aR)-3-methyl-8-methylene-5-[(2R)-6-methylhept-5-en-2-yl]-3a,4,5,6,7,8a-hexahydro-1H-azulen-4-ol

> <PUBCHEM_IUPAC_NAME>
(3aS,4R,5S,8aR)-3-methyl-5-[(2R)-6-methylhept-5-en-2-yl]-8-methylidene-3a,4,5,6,7,8a-hexahydro-1H-azulen-4-ol

> <PUBCHEM_IUPAC_SYSTEMATIC_NAME>
(3aS,4R,5S,8aR)-3-methyl-5-[(2R)-6-methylhept-5-en-2-yl]-8-methylidene-3a,4,5,6,7,8a-hexahydro-1H-azulen-4-ol

> <PUBCHEM_IUPAC_TRADITIONAL_NAME>
(3aS,4R,5S,8aR)-5-[(1R)-1,5-dimethylhex-4-enyl]-3-methyl-8-methylene-3a,4,5,6,7,8a-hexahydro-1H-azulen-4-ol

> <PUBCHEM_IUPAC_INCHI>
InChI=1S/C20H32O/c1-13(2)7-6-8-14(3)18-12-9-15(4)17-11-10-16(5)19(17)20(18)21/h7,10,14,17-21H,4,6,8-9,11-12H2,1-3,5H3/t14-,17+,18+,19-,20-/m1/s1

> <PUBCHEM_IUPAC_INCHIKEY>
KFIZBQZEEKZCAT-RBUQIHAASA-N

> <PUBCHEM_XLOGP3_AA>
4.9

> <PUBCHEM_EXACT_MASS>
288.245316

> <PUBCHEM_MOLECULAR_FORMULA>
C20H32O

> <PUBCHEM_MOLECULAR_WEIGHT>
288.46748

> <PUBCHEM_OPENEYE_CAN_SMILES>
CC1=CCC2C1C(C(CCC2=C)C(C)CCC=C(C)C)O

> <PUBCHEM_OPENEYE_ISO_SMILES>
CC1=CC[C@@H]2[C@@H]1[C@@H]([C@@H](CCC2=C)[C@H](C)CCC=C(C)C)O

> <PUBCHEM_CACTVS_TPSA>
20.2

> <PUBCHEM_MONOISOTOPIC_WEIGHT>
288.245316

> <PUBCHEM_TOTAL_CHARGE>
0

> <PUBCHEM_HEAVY_ATOM_COUNT>
21

> <PUBCHEM_ATOM_DEF_STEREO_COUNT>
5

> <PUBCHEM_ATOM_UDEF_STEREO_COUNT>
0

> <PUBCHEM_BOND_DEF_STEREO_COUNT>
0

> <PUBCHEM_BOND_UDEF_STEREO_COUNT>
0

> <PUBCHEM_ISOTOPIC_ATOM_COUNT>
0

> <PUBCHEM_COMPONENT_COUNT>
1

> <PUBCHEM_CACTVS_TAUTO_COUNT>
1

> <PUBCHEM_COORDINATE_TYPE>
1
5
255

> <PUBCHEM_BONDANNOTATIONS>
5  1  5
2  22  5
3  23  6
4  24  6
7  14  5

$$$$

