253634
  -OEChem-07051213063D

 53 56  0     1  0  0  0  0  0999 V2000
   -5.9833    0.5581    0.8364 O   0  0  0  0  0  0  0  0  0  0  0  0
    4.9898    0.5694    0.3274 O   0  0  0  0  0  0  0  0  0  0  0  0
    0.1388    0.7697   -2.4024 O   0  0  0  0  0  0  0  0  0  0  0  0
    5.5210   -1.5933    0.9418 O   0  0  0  0  0  0  0  0  0  0  0  0
   -1.4328   -0.7174   -0.2458 C   0  0  1  0  0  0  0  0  0  0  0  0
   -2.8651   -0.8634    0.2692 C   0  0  1  0  0  0  0  0  0  0  0  0
   -0.7627    0.4955    0.4656 C   0  0  1  0  0  0  0  0  0  0  0  0
   -3.7060    0.3988   -0.0049 C   0  0  2  0  0  0  0  0  0  0  0  0
    0.6999    0.7240   -0.0523 C   0  0  2  0  0  0  0  0  0  0  0  0
   -1.6404    1.7790    0.4470 C   0  0  0  0  0  0  0  0  0  0  0  0
   -3.1141    1.5370    0.8200 C   0  0  0  0  0  0  0  0  0  0  0  0
   -3.7338   -2.0109   -0.2334 C   0  0  0  0  0  0  0  0  0  0  0  0
   -0.6117   -1.9913    0.0014 C   0  0  0  0  0  0  0  0  0  0  0  0
    1.4643   -0.5858   -0.2145 C   0  0  0  0  0  0  0  0  0  0  0  0
   -5.0543   -0.1354    0.4441 C   0  0  0  0  0  0  0  0  0  0  0  0
    1.4478    1.6848    0.9081 C   0  0  0  0  0  0  0  0  0  0  0  0
   -5.1220   -1.6481    0.3141 C   0  0  0  0  0  0  0  0  0  0  0  0
   -3.8592    0.7966   -1.4841 C   0  0  0  0  0  0  0  0  0  0  0  0
    0.8618   -1.7877   -0.1686 C   0  0  0  0  0  0  0  0  0  0  0  0
    2.9566   -0.4882   -0.4197 C   0  0  0  0  0  0  0  0  0  0  0  0
    2.9533    1.7816    0.6551 C   0  0  0  0  0  0  0  0  0  0  0  0
    3.6083    0.4055    0.6312 C   0  0  2  0  0  0  0  0  0  0  0  0
    0.6575    1.3258   -1.4399 C   0  0  0  0  0  0  0  0  0  0  0  0
    5.7290   -0.5793    0.2893 C   0  0  0  0  0  0  0  0  0  0  0  0
    6.8572   -0.4250   -0.6851 C   0  0  0  0  0  0  0  0  0  0  0  0
   -1.4727   -0.5564   -1.3268 H   0  0  0  0  0  0  0  0  0  0  0  0
   -2.7940   -1.0043    1.3620 H   0  0  0  0  0  0  0  0  0  0  0  0
   -0.6838    0.2143    1.5287 H   0  0  0  0  0  0  0  0  0  0  0  0
   -1.6037    2.2497   -0.5413 H   0  0  0  0  0  0  0  0  0  0  0  0
   -1.2318    2.5150    1.1489 H   0  0  0  0  0  0  0  0  0  0  0  0
   -3.1833    1.3059    1.8911 H   0  0  0  0  0  0  0  0  0  0  0  0
   -3.6876    2.4607    0.6750 H   0  0  0  0  0  0  0  0  0  0  0  0
   -3.4042   -2.9845    0.1425 H   0  0  0  0  0  0  0  0  0  0  0  0
   -3.7432   -2.0620   -1.3275 H   0  0  0  0  0  0  0  0  0  0  0  0
   -0.9411   -2.7702   -0.6969 H   0  0  0  0  0  0  0  0  0  0  0  0
   -0.7880   -2.3762    1.0134 H   0  0  0  0  0  0  0  0  0  0  0  0
    1.3013    1.3510    1.9442 H   0  0  0  0  0  0  0  0  0  0  0  0
    1.0307    2.6974    0.8443 H   0  0  0  0  0  0  0  0  0  0  0  0
   -5.2792   -2.0809    1.3062 H   0  0  0  0  0  0  0  0  0  0  0  0
   -5.9165   -1.9480   -0.3725 H   0  0  0  0  0  0  0  0  0  0  0  0
   -2.9044    1.0284   -1.9629 H   0  0  0  0  0  0  0  0  0  0  0  0
   -4.3430    0.0144   -2.0790 H   0  0  0  0  0  0  0  0  0  0  0  0
   -4.4931    1.6872   -1.5725 H   0  0  0  0  0  0  0  0  0  0  0  0
    1.4575   -2.6922   -0.2637 H   0  0  0  0  0  0  0  0  0  0  0  0
    3.4063   -1.4875   -0.4183 H   0  0  0  0  0  0  0  0  0  0  0  0
    3.1582   -0.0876   -1.4224 H   0  0  0  0  0  0  0  0  0  0  0  0
    3.1511    2.3058   -0.2885 H   0  0  0  0  0  0  0  0  0  0  0  0
    3.4206    2.3988    1.4325 H   0  0  0  0  0  0  0  0  0  0  0  0
    3.5160   -0.0447    1.6290 H   0  0  0  0  0  0  0  0  0  0  0  0
    1.1070    2.3259   -1.5621 H   0  0  0  0  0  0  0  0  0  0  0  0
    7.5085    0.3946   -0.3713 H   0  0  0  0  0  0  0  0  0  0  0  0
    6.4589   -0.2394   -1.6858 H   0  0  0  0  0  0  0  0  0  0  0  0
    7.4444   -1.3474   -0.7092 H   0  0  0  0  0  0  0  0  0  0  0  0
  1 15  2  0  0  0  0
  2 22  1  0  0  0  0
  2 24  1  0  0  0  0
  3 23  2  0  0  0  0
  4 24  2  0  0  0  0
  5  6  1  0  0  0  0
  5  7  1  0  0  0  0
  5 13  1  0  0  0  0
  5 26  1  0  0  0  0
  6  8  1  0  0  0  0
  6 12  1  0  0  0  0
  6 27  1  0  0  0  0
  7  9  1  0  0  0  0
  7 10  1  0  0  0  0
  7 28  1  0  0  0  0
  8 11  1  0  0  0  0
  8 15  1  0  0  0  0
  8 18  1  0  0  0  0
  9 14  1  0  0  0  0
  9 16  1  0  0  0  0
  9 23  1  0  0  0  0
 10 11  1  0  0  0  0
 10 29  1  0  0  0  0
 10 30  1  0  0  0  0
 11 31  1  0  0  0  0
 11 32  1  0  0  0  0
 12 17  1  0  0  0  0
 12 33  1  0  0  0  0
 12 34  1  0  0  0  0
 13 19  1  0  0  0  0
 13 35  1  0  0  0  0
 13 36  1  0  0  0  0
 14 19  2  0  0  0  0
 14 20  1  0  0  0  0
 15 17  1  0  0  0  0
 16 21  1  0  0  0  0
 16 37  1  0  0  0  0
 16 38  1  0  0  0  0
 17 39  1  0  0  0  0
 17 40  1  0  0  0  0
 18 41  1  0  0  0  0
 18 42  1  0  0  0  0
 18 43  1  0  0  0  0
 19 44  1  0  0  0  0
 20 22  1  0  0  0  0
 20 45  1  0  0  0  0
 20 46  1  0  0  0  0
 21 22  1  0  0  0  0
 21 47  1  0  0  0  0
 21 48  1  0  0  0  0
 22 49  1  0  0  0  0
 23 50  1  0  0  0  0
 24 25  1  0  0  0  0
 25 51  1  0  0  0  0
 25 52  1  0  0  0  0
 25 53  1  0  0  0  0
M  END
> <PUBCHEM_COMPOUND_CID>
253634

> <PUBCHEM_CONFORMER_RMSD>
0.8

> <PUBCHEM_CONFORMER_DIVERSEORDER>
1
2
5
3
4

> <PUBCHEM_MMFF94_PARTIAL_CHARGES>
18
1 -0.57
13 0.14
14 -0.28
15 0.45
17 0.06
19 -0.29
2 -0.43
20 0.14
22 0.28
23 0.45
24 0.66
25 0.06
3 -0.57
4 -0.57
44 0.15
50 0.06
8 0.06
9 0.2

> <PUBCHEM_EFFECTIVE_ROTOR_COUNT>
4.8

> <PUBCHEM_PHARMACOPHORE_FEATURES>
7
1 1 acceptor
1 3 acceptor
1 4 acceptor
5 6 8 12 15 17 rings
6 5 6 7 8 10 11 rings
6 5 7 9 13 14 19 rings
6 9 14 16 20 21 22 rings

> <PUBCHEM_HEAVY_ATOM_COUNT>
25

> <PUBCHEM_ATOM_DEF_STEREO_COUNT>
6

> <PUBCHEM_ATOM_UDEF_STEREO_COUNT>
0

> <PUBCHEM_BOND_DEF_STEREO_COUNT>
0

> <PUBCHEM_BOND_UDEF_STEREO_COUNT>
0

> <PUBCHEM_ISOTOPIC_ATOM_COUNT>
0

> <PUBCHEM_COMPONENT_COUNT>
1

> <PUBCHEM_CACTVS_TAUTO_COUNT>
2

> <PUBCHEM_CONFORMER_ID>
0003DEC200000001

> <PUBCHEM_MMFF94_ENERGY>
65.4111

> <PUBCHEM_FEATURE_SELFOVERLAP>
35.618

> <PUBCHEM_SHAPE_FINGERPRINT>
11045977 3 18259989240677451600
11578080 2 17272303602129469407
12011746 2 18409451401360326748
12107183 9 17762339523580183298
12166972 35 18202280264824175533
12236239 1 18202843240436188872
12403259 226 18263934254260252177
12403259 415 18341059557245821988
12403260 363 18261956254311165441
12633257 1 18186798067347096976
13009979 54 18129931283246258453
13140716 1 18264206915905704859
13288520 33 18409728461052654281
13862211 1 18335144176156286394
14251764 18 18410295783783891042
14341114 176 18335137562096477000
15196674 1 18335140834666163281
15209289 33 18410014334007453738
15788980 27 17489588973850954214
16945 1 18265338481153764675
17349148 13 18271805700699400503
1813 80 17489875916780248308
18222031 100 17775573013725270644
18927931 339 18187080650725959367
200 152 17530967977260329129
20028762 73 17968663717856560038
21033648 29 18341067254117464417
21150785 3 16128650826068180778
21267235 1 18408597041849215755
21279426 13 18191302887161904430
21682296 61 17677604423420445510
21709351 56 18341338816367152245
23402539 116 17821732715172060405
23522609 53 18195214828979898760
23559900 14 18261961747753737312
26918003 58 18187364324810360521
3004659 81 18413105061989411688
335352 9 18335420162544302261
350125 39 18409445886332499696
3545911 37 18409729569344107755
392239 28 18187638081804563777
4340502 62 13984651521599763437
465052 167 18408321082280393522
5104073 3 18261110716847153187

> <PUBCHEM_SHAPE_MULTIPOLES>
491.01
13.15
2.03
1.17
9.77
0.24
0.61
3.24
-1.82
-0.61
-0.24
-0.06
-0.38
0.03

> <PUBCHEM_SHAPE_SELFOVERLAP>
1055.636

> <PUBCHEM_SHAPE_VOLUME>
266.9

> <PUBCHEM_COORDINATE_TYPE>
2
5
10

$$$$

