13485
  -OEChem-06261214423D

 38 39  0     0  0  0  0  0  0999 V2000
    0.0031    0.3043   -0.3213 P   0  0  0  0  0  0  0  0  0  0  0  0
   -1.2635    1.0940    0.3125 O   0  0  0  0  0  0  0  0  0  0  0  0
    1.2621    1.0943    0.3150 O   0  0  0  0  0  0  0  0  0  0  0  0
    0.0018   -1.1350    0.4259 O   0  0  0  0  0  0  0  0  0  0  0  0
    0.0037    0.2434   -1.8234 O   0  0  0  0  0  0  0  0  0  0  0  0
   -6.8858   -1.3170   -1.0869 O   0  5  0  0  0  0  0  0  0  0  0  0
    6.8832   -1.3192   -1.0848 O   0  5  0  0  0  0  0  0  0  0  0  0
   -7.4968    0.3819    0.1619 O   0  0  0  0  0  0  0  0  0  0  0  0
    7.4952    0.3822    0.1602 O   0  0  0  0  0  0  0  0  0  0  0  0
   -6.6080   -0.3141   -0.3860 N   0  3  0  0  0  0  0  0  0  0  0  0
    6.6060   -0.3144   -0.3862 N   0  3  0  0  0  0  0  0  0  0  0  0
   -2.5694    0.7502    0.1416 C   0  0  0  0  0  0  0  0  0  0  0  0
    2.5756    0.7479    0.1430 C   0  0  0  0  0  0  0  0  0  0  0  0
    0.0011   -1.2070    1.8415 C   0  0  0  0  0  0  0  0  0  0  0  0
   -2.9023   -0.3620   -0.6315 C   0  0  0  0  0  0  0  0  0  0  0  0
    2.9002   -0.3615   -0.6303 C   0  0  0  0  0  0  0  0  0  0  0  0
   -3.5745    1.5095    0.7405 C   0  0  0  0  0  0  0  0  0  0  0  0
    3.5733    1.5092    0.7422 C   0  0  0  0  0  0  0  0  0  0  0  0
   -5.2457    0.0441   -0.2066 C   0  0  0  0  0  0  0  0  0  0  0  0
    5.2440    0.0456   -0.2085 C   0  0  0  0  0  0  0  0  0  0  0  0
   -4.2405   -0.7151   -0.8056 C   0  0  0  0  0  0  0  0  0  0  0  0
    4.2384   -0.7138   -0.8066 C   0  0  0  0  0  0  0  0  0  0  0  0
   -4.9127    1.1564    0.5665 C   0  0  0  0  0  0  0  0  0  0  0  0
    4.9115    1.1571    0.5659 C   0  0  0  0  0  0  0  0  0  0  0  0
    0.0000   -2.6614    2.2612 C   0  0  0  0  0  0  0  0  0  0  0  0
    0.8901   -0.7068    2.2362 H   0  0  0  0  0  0  0  0  0  0  0  0
   -0.8875   -0.7055    2.2354 H   0  0  0  0  0  0  0  0  0  0  0  0
   -2.1561   -0.9844   -1.1122 H   0  0  0  0  0  0  0  0  0  0  0  0
    2.1540   -0.9838   -1.1101 H   0  0  0  0  0  0  0  0  0  0  0  0
   -3.3205    2.3767    1.3439 H   0  0  0  0  0  0  0  0  0  0  0  0
    3.3182    2.3754    1.3461 H   0  0  0  0  0  0  0  0  0  0  0  0
   -4.4631   -1.5882   -1.4136 H   0  0  0  0  0  0  0  0  0  0  0  0
    4.4606   -1.5869   -1.4151 H   0  0  0  0  0  0  0  0  0  0  0  0
   -5.6689    1.7713    1.0478 H   0  0  0  0  0  0  0  0  0  0  0  0
    5.6681    1.7716    1.0472 H   0  0  0  0  0  0  0  0  0  0  0  0
   -0.0006   -2.7540    3.3507 H   0  0  0  0  0  0  0  0  0  0  0  0
   -0.8799   -3.1767    1.8620 H   0  0  0  0  0  0  0  0  0  0  0  0
    0.8795   -3.1779    1.8628 H   0  0  0  0  0  0  0  0  0  0  0  0
  1  2  1  0  0  0  0
  1  3  1  0  0  0  0
  1  4  1  0  0  0  0
  1  5  2  0  0  0  0
  2 12  1  0  0  0  0
  3 13  1  0  0  0  0
  4 14  1  0  0  0  0
  6 10  1  0  0  0  0
  7 11  1  0  0  0  0
  8 10  2  0  0  0  0
  9 11  2  0  0  0  0
 10 19  1  0  0  0  0
 11 20  1  0  0  0  0
 12 15  2  0  0  0  0
 12 17  1  0  0  0  0
 13 16  2  0  0  0  0
 13 18  1  0  0  0  0
 14 25  1  0  0  0  0
 14 26  1  0  0  0  0
 14 27  1  0  0  0  0
 15 21  1  0  0  0  0
 15 28  1  0  0  0  0
 16 22  1  0  0  0  0
 16 29  1  0  0  0  0
 17 23  2  0  0  0  0
 17 30  1  0  0  0  0
 18 24  2  0  0  0  0
 18 31  1  0  0  0  0
 19 21  2  0  0  0  0
 19 23  1  0  0  0  0
 20 22  2  0  0  0  0
 20 24  1  0  0  0  0
 21 32  1  0  0  0  0
 22 33  1  0  0  0  0
 23 34  1  0  0  0  0
 24 35  1  0  0  0  0
 25 36  1  0  0  0  0
 25 37  1  0  0  0  0
 25 38  1  0  0  0  0
M  CHG  4   6  -1   7  -1  10   1  11   1
M  END
> <PUBCHEM_COMPOUND_CID>
13485

> <PUBCHEM_CONFORMER_RMSD>
0.8

> <PUBCHEM_CONFORMER_DIVERSEORDER>
1
34
24
9
18
31
19
22
32
17
39
25
7
10
33
11
3
35
13
28
23
21
38
16
12
2
27
37
26
14
15
4
20
29
5
6
30
8
36

> <PUBCHEM_MMFF94_PARTIAL_CHARGES>
32
1 1.51
10 0.91
11 0.91
12 0.08
13 0.08
14 0.28
15 -0.15
16 -0.15
17 -0.15
18 -0.15
19 0.13
2 -0.35
20 0.13
21 -0.15
22 -0.15
23 -0.15
24 -0.15
28 0.15
29 0.15
3 -0.35
30 0.15
31 0.15
32 0.15
33 0.15
34 0.15
35 0.15
4 -0.55
5 -0.7
6 -0.52
7 -0.52
8 -0.52
9 -0.52

> <PUBCHEM_EFFECTIVE_ROTOR_COUNT>
8

> <PUBCHEM_PHARMACOPHORE_FEATURES>
9
1 5 acceptor
1 6 acceptor
1 6 anion
1 7 acceptor
1 7 anion
1 8 acceptor
1 9 acceptor
6 12 15 17 19 21 23 rings
6 13 16 18 20 22 24 rings

> <PUBCHEM_HEAVY_ATOM_COUNT>
25

> <PUBCHEM_ATOM_DEF_STEREO_COUNT>
0

> <PUBCHEM_ATOM_UDEF_STEREO_COUNT>
0

> <PUBCHEM_BOND_DEF_STEREO_COUNT>
0

> <PUBCHEM_BOND_UDEF_STEREO_COUNT>
0

> <PUBCHEM_ISOTOPIC_ATOM_COUNT>
0

> <PUBCHEM_COMPONENT_COUNT>
1

> <PUBCHEM_CACTVS_TAUTO_COUNT>
1

> <PUBCHEM_CONFORMER_ID>
000034AD00000001

> <PUBCHEM_MMFF94_ENERGY>
66.0939

> <PUBCHEM_FEATURE_SELFOVERLAP>
45.833

> <PUBCHEM_SHAPE_FINGERPRINT>
10299344 5 18040151816315097492
11315181 36 17821444656395762969
11719270 70 17095241449728082486
11991303 11 16702012041834151459
12011746 2 17489587861401826440
12107183 9 17320406217673377170
12166972 35 18186800262160476480
12236239 1 18407761426477308477
12788726 201 4750885788601454918
13533116 47 18201164351238464402
13968360 50 17346605200552487699
14251764 18 17967531263955522084
14251764 46 18202001028100010052
15131766 46 12821572699392576542
15183329 4 18335137609388635386
15849732 13 16271923801190796414
17844677 252 17895187800984046833
18681886 176 18113627759500473233
200 152 17095521807997256760
20771845 171 15697716003910481402
21150785 3 16988560191085728132
21267235 1 18040994042237927997
22224240 67 17775004574724218691
22956985 138 16555962989083112074
23035841 295 18259985968329018717
23402539 116 18187366540618183956
23536379 177 17749106707671132784
23559900 14 18337957766403659528
23569943 247 18123466348402535890
23622692 88 16773791485790190606
3004659 81 18333733520276350336
3545911 37 18040154019617651845
4073 2 18337673001772026890
4325135 7 18040154015697107661
7495541 125 16153996746673727545

> <PUBCHEM_SHAPE_MULTIPOLES>
461.42
18.93
1.65
1.34
0.05
0.98
0.18
-0.21
-4.65
0
0.98
0
0.61
0

> <PUBCHEM_SHAPE_SELFOVERLAP>
962.37

> <PUBCHEM_SHAPE_VOLUME>
262.8

> <PUBCHEM_COORDINATE_TYPE>
2
5
10

$$$$

