12821
  -OEChem-06261207242D

 20 20  0     0  0  0  0  0  0999 V2000
    4.5981    1.5000    0.0000 S   0  0  0  0  0  0  0  0  0  0  0  0
    4.5981    2.5000    0.0000 F   0  0  0  0  0  0  0  0  0  0  0  0
    5.5981    1.5000    0.0000 O   0  0  0  0  0  0  0  0  0  0  0  0
    3.5981    1.5000    0.0000 O   0  0  0  0  0  0  0  0  0  0  0  0
    2.0000   -1.0000    0.0000 O   0  0  0  0  0  0  0  0  0  0  0  0
    4.5981    0.5000    0.0000 C   0  0  0  0  0  0  0  0  0  0  0  0
    3.7320   -1.0000    0.0000 C   0  0  0  0  0  0  0  0  0  0  0  0
    3.7320    0.0000    0.0000 C   0  0  0  0  0  0  0  0  0  0  0  0
    5.4641    0.0000    0.0000 C   0  0  0  0  0  0  0  0  0  0  0  0
    4.5981   -1.5000    0.0000 C   0  0  0  0  0  0  0  0  0  0  0  0
    5.4641   -1.0000    0.0000 C   0  0  0  0  0  0  0  0  0  0  0  0
    2.8660   -1.5000    0.0000 C   0  0  0  0  0  0  0  0  0  0  0  0
    2.8660   -2.5000    0.0000 C   0  0  0  0  0  0  0  0  0  0  0  0
    3.1951    0.3100    0.0000 H   0  0  0  0  0  0  0  0  0  0  0  0
    6.0010    0.3100    0.0000 H   0  0  0  0  0  0  0  0  0  0  0  0
    4.5981   -2.1200    0.0000 H   0  0  0  0  0  0  0  0  0  0  0  0
    6.0010   -1.3100    0.0000 H   0  0  0  0  0  0  0  0  0  0  0  0
    2.2460   -2.5000    0.0000 H   0  0  0  0  0  0  0  0  0  0  0  0
    2.8660   -3.1200    0.0000 H   0  0  0  0  0  0  0  0  0  0  0  0
    3.4860   -2.5000    0.0000 H   0  0  0  0  0  0  0  0  0  0  0  0
  1  2  1  0  0  0  0
  1  3  2  0  0  0  0
  1  4  2  0  0  0  0
  1  6  1  0  0  0  0
  5 12  2  0  0  0  0
  6  8  1  0  0  0  0
  6  9  2  0  0  0  0
  7  8  2  0  0  0  0
  7 10  1  0  0  0  0
  7 12  1  0  0  0  0
  8 14  1  0  0  0  0
  9 11  1  0  0  0  0
  9 15  1  0  0  0  0
 10 11  2  0  0  0  0
 10 16  1  0  0  0  0
 11 17  1  0  0  0  0
 12 13  1  0  0  0  0
 13 18  1  0  0  0  0
 13 19  1  0  0  0  0
 13 20  1  0  0  0  0
M  END
> <PUBCHEM_COMPOUND_CID>
12821

> <PUBCHEM_COMPOUND_CANONICALIZED>
1

> <PUBCHEM_CACTVS_COMPLEXITY>
291

> <PUBCHEM_CACTVS_HBOND_ACCEPTOR>
4

> <PUBCHEM_CACTVS_HBOND_DONOR>
0

> <PUBCHEM_CACTVS_ROTATABLE_BOND>
2

> <PUBCHEM_CACTVS_SUBSKEYS>
AAADcYBwMQBAAAAAAAAAAAAAAAAAAAAAAAAwAAAAAAAAAAABAAAAGgQAAAQADASA2AAyAYAAAAKIAqBSAHBCAAAkAAAIiBkAAMgIIDKAFRCAIQAggAAIiYcIiICOAAAAgAAAAAAAAAEAAAAAAAAAAAAAAA==

> <PUBCHEM_IUPAC_OPENEYE_NAME>
3-acetylbenzenesulfonyl fluoride

> <PUBCHEM_IUPAC_CAS_NAME>
3-acetylbenzenesulfonyl fluoride

> <PUBCHEM_IUPAC_NAME>
3-acetylbenzenesulfonyl fluoride

> <PUBCHEM_IUPAC_SYSTEMATIC_NAME>
3-ethanoylbenzenesulfonyl fluoride

> <PUBCHEM_IUPAC_TRADITIONAL_NAME>
3-acetylbenzenesulfonyl fluoride

> <PUBCHEM_IUPAC_INCHI>
InChI=1S/C8H7FO3S/c1-6(10)7-3-2-4-8(5-7)13(9,11)12/h2-5H,1H3

> <PUBCHEM_IUPAC_INCHIKEY>
NEVFJPDNDDMQGD-UHFFFAOYSA-N

> <PUBCHEM_XLOGP3>
1.5

> <PUBCHEM_EXACT_MASS>
202.009993

> <PUBCHEM_MOLECULAR_FORMULA>
C8H7FO3S

> <PUBCHEM_MOLECULAR_WEIGHT>
202.202783

> <PUBCHEM_OPENEYE_CAN_SMILES>
CC(=O)C1=CC(=CC=C1)S(=O)(=O)F

> <PUBCHEM_OPENEYE_ISO_SMILES>
CC(=O)C1=CC(=CC=C1)S(=O)(=O)F

> <PUBCHEM_CACTVS_TPSA>
59.6

> <PUBCHEM_MONOISOTOPIC_WEIGHT>
202.009993

> <PUBCHEM_TOTAL_CHARGE>
0

> <PUBCHEM_HEAVY_ATOM_COUNT>
13

> <PUBCHEM_ATOM_DEF_STEREO_COUNT>
0

> <PUBCHEM_ATOM_UDEF_STEREO_COUNT>
0

> <PUBCHEM_BOND_DEF_STEREO_COUNT>
0

> <PUBCHEM_BOND_UDEF_STEREO_COUNT>
0

> <PUBCHEM_ISOTOPIC_ATOM_COUNT>
0

> <PUBCHEM_COMPONENT_COUNT>
1

> <PUBCHEM_CACTVS_TAUTO_COUNT>
2

> <PUBCHEM_COORDINATE_TYPE>
1
5
255

> <PUBCHEM_BONDANNOTATIONS>
10  11  8
6  8  8
6  9  8
7  10  8
7  8  8
9  11  8

$$$$

