236665
  -OEChem-07051213063D

 55 58  0     1  0  0  0  0  0999 V2000
   -5.7886    1.1288    0.0289 O   0  0  0  0  0  0  0  0  0  0  0  0
    6.0851    0.8910    0.8265 O   0  0  0  0  0  0  0  0  0  0  0  0
   -1.2337   -0.8113   -0.1462 C   0  0  2  0  0  0  0  0  0  0  0  0
   -0.4215    0.4497    0.2887 C   0  0  1  0  0  0  0  0  0  0  0  0
   -2.6546   -0.6933    0.4155 C   0  0  1  0  0  0  0  0  0  0  0  0
   -3.3916    0.5637   -0.0868 C   0  0  2  0  0  0  0  0  0  0  0  0
    1.0693    0.3902   -0.2068 C   0  0  2  0  0  0  0  0  0  0  0  0
   -1.1568    1.7717   -0.0590 C   0  0  0  0  0  0  0  0  0  0  0  0
    1.7001   -0.9444    0.3072 C   0  0  1  0  0  0  0  0  0  0  0  0
   -2.6236    1.7964    0.4080 C   0  0  0  0  0  0  0  0  0  0  0  0
   -0.5487   -2.0989    0.3329 C   0  0  0  0  0  0  0  0  0  0  0  0
   -3.6528   -1.8189    0.1568 C   0  0  0  0  0  0  0  0  0  0  0  0
   -4.7571    0.3408    0.5911 C   0  0  2  0  0  0  0  0  0  0  0  0
    0.9054   -2.1836   -0.1216 C   0  0  0  0  0  0  0  0  0  0  0  0
   -5.0242   -1.1660    0.4075 C   0  0  0  0  0  0  0  0  0  0  0  0
    1.8897    1.5660    0.4089 C   0  0  0  0  0  0  0  0  0  0  0  0
   -3.5605    0.6421   -1.6256 C   0  0  0  0  0  0  0  0  0  0  0  0
    1.1482    0.4964   -1.7531 C   0  0  0  0  0  0  0  0  0  0  0  0
    3.1858   -1.0849   -0.0792 C   0  0  0  0  0  0  0  0  0  0  0  0
    3.3819    1.3718    0.3775 C   0  0  0  0  0  0  0  0  0  0  0  0
    3.9541    0.1821    0.1456 C   0  0  0  0  0  0  0  0  0  0  0  0
    5.4177    0.1215    0.1313 C   0  0  0  0  0  0  0  0  0  0  0  0
    6.0764   -0.9112   -0.7480 C   0  0  0  0  0  0  0  0  0  0  0  0
   -1.2860   -0.8575   -1.2390 H   0  0  0  0  0  0  0  0  0  0  0  0
   -0.3812    0.4227    1.3896 H   0  0  0  0  0  0  0  0  0  0  0  0
   -2.5562   -0.6226    1.5120 H   0  0  0  0  0  0  0  0  0  0  0  0
   -1.1269    1.9551   -1.1370 H   0  0  0  0  0  0  0  0  0  0  0  0
   -0.6416    2.6177    0.4100 H   0  0  0  0  0  0  0  0  0  0  0  0
    1.6654   -0.9157    1.4083 H   0  0  0  0  0  0  0  0  0  0  0  0
   -2.6390    1.8343    1.5050 H   0  0  0  0  0  0  0  0  0  0  0  0
   -3.1058    2.7182    0.0611 H   0  0  0  0  0  0  0  0  0  0  0  0
   -1.0876   -2.9756   -0.0448 H   0  0  0  0  0  0  0  0  0  0  0  0
   -0.5856   -2.1544    1.4285 H   0  0  0  0  0  0  0  0  0  0  0  0
   -3.4908   -2.6726    0.8226 H   0  0  0  0  0  0  0  0  0  0  0  0
   -3.5868   -2.1844   -0.8741 H   0  0  0  0  0  0  0  0  0  0  0  0
   -4.7036    0.5750    1.6613 H   0  0  0  0  0  0  0  0  0  0  0  0
    1.3595   -3.0827    0.3128 H   0  0  0  0  0  0  0  0  0  0  0  0
    0.9454   -2.3122   -1.2095 H   0  0  0  0  0  0  0  0  0  0  0  0
   -5.7103   -1.3752   -0.4206 H   0  0  0  0  0  0  0  0  0  0  0  0
   -5.4881   -1.5749    1.3124 H   0  0  0  0  0  0  0  0  0  0  0  0
    1.6034    1.7183    1.4575 H   0  0  0  0  0  0  0  0  0  0  0  0
    1.6557    2.4988   -0.1188 H   0  0  0  0  0  0  0  0  0  0  0  0
   -2.6046    0.6319   -2.1560 H   0  0  0  0  0  0  0  0  0  0  0  0
   -4.1509   -0.1882   -2.0257 H   0  0  0  0  0  0  0  0  0  0  0  0
   -4.0693    1.5698   -1.9125 H   0  0  0  0  0  0  0  0  0  0  0  0
    0.7584    1.4555   -2.1086 H   0  0  0  0  0  0  0  0  0  0  0  0
    2.1770    0.4337   -2.1210 H   0  0  0  0  0  0  0  0  0  0  0  0
    0.5828   -0.2923   -2.2559 H   0  0  0  0  0  0  0  0  0  0  0  0
    3.2736   -1.3851   -1.1303 H   0  0  0  0  0  0  0  0  0  0  0  0
    3.6228   -1.8934    0.5206 H   0  0  0  0  0  0  0  0  0  0  0  0
    3.9809    2.2613    0.5540 H   0  0  0  0  0  0  0  0  0  0  0  0
   -6.0095    0.7775   -0.8496 H   0  0  0  0  0  0  0  0  0  0  0  0
    5.5811   -0.9611   -1.7214 H   0  0  0  0  0  0  0  0  0  0  0  0
    6.0552   -1.8871   -0.2570 H   0  0  0  0  0  0  0  0  0  0  0  0
    7.1174   -0.6221   -0.9220 H   0  0  0  0  0  0  0  0  0  0  0  0
  1 13  1  0  0  0  0
  1 52  1  0  0  0  0
  2 22  2  0  0  0  0
  3  4  1  0  0  0  0
  3  5  1  0  0  0  0
  3 11  1  0  0  0  0
  3 24  1  0  0  0  0
  4  7  1  0  0  0  0
  4  8  1  0  0  0  0
  4 25  1  0  0  0  0
  5  6  1  0  0  0  0
  5 12  1  0  0  0  0
  5 26  1  0  0  0  0
  6 10  1  0  0  0  0
  6 13  1  0  0  0  0
  6 17  1  0  0  0  0
  7  9  1  0  0  0  0
  7 16  1  0  0  0  0
  7 18  1  0  0  0  0
  8 10  1  0  0  0  0
  8 27  1  0  0  0  0
  8 28  1  0  0  0  0
  9 14  1  0  0  0  0
  9 19  1  0  0  0  0
  9 29  1  0  0  0  0
 10 30  1  0  0  0  0
 10 31  1  0  0  0  0
 11 14  1  0  0  0  0
 11 32  1  0  0  0  0
 11 33  1  0  0  0  0
 12 15  1  0  0  0  0
 12 34  1  0  0  0  0
 12 35  1  0  0  0  0
 13 15  1  0  0  0  0
 13 36  1  0  0  0  0
 14 37  1  0  0  0  0
 14 38  1  0  0  0  0
 15 39  1  0  0  0  0
 15 40  1  0  0  0  0
 16 20  1  0  0  0  0
 16 41  1  0  0  0  0
 16 42  1  0  0  0  0
 17 43  1  0  0  0  0
 17 44  1  0  0  0  0
 17 45  1  0  0  0  0
 18 46  1  0  0  0  0
 18 47  1  0  0  0  0
 18 48  1  0  0  0  0
 19 21  1  0  0  0  0
 19 49  1  0  0  0  0
 19 50  1  0  0  0  0
 20 21  2  0  0  0  0
 20 51  1  0  0  0  0
 21 22  1  0  0  0  0
 22 23  1  0  0  0  0
 23 53  1  0  0  0  0
 23 54  1  0  0  0  0
 23 55  1  0  0  0  0
M  END
> <PUBCHEM_COMPOUND_CID>
236665

> <PUBCHEM_CONFORMER_RMSD>
0.6

> <PUBCHEM_CONFORMER_DIVERSEORDER>
1
2
3

> <PUBCHEM_MMFF94_PARTIAL_CHARGES>
11
1 -0.68
13 0.28
16 0.14
19 0.14
2 -0.57
20 -0.29
21 -0.12
22 0.49
23 0.06
51 0.15
52 0.4

> <PUBCHEM_EFFECTIVE_ROTOR_COUNT>
2.8

> <PUBCHEM_PHARMACOPHORE_FEATURES>
7
1 1 acceptor
1 1 donor
1 2 acceptor
5 5 6 12 13 15 rings
6 3 4 5 6 8 10 rings
6 3 4 7 9 11 14 rings
6 7 9 16 19 20 21 rings

> <PUBCHEM_HEAVY_ATOM_COUNT>
23

> <PUBCHEM_ATOM_DEF_STEREO_COUNT>
7

> <PUBCHEM_ATOM_UDEF_STEREO_COUNT>
0

> <PUBCHEM_BOND_DEF_STEREO_COUNT>
0

> <PUBCHEM_BOND_UDEF_STEREO_COUNT>
0

> <PUBCHEM_ISOTOPIC_ATOM_COUNT>
0

> <PUBCHEM_COMPONENT_COUNT>
1

> <PUBCHEM_CACTVS_TAUTO_COUNT>
5

> <PUBCHEM_CONFORMER_ID>
00039C7900000001

> <PUBCHEM_MMFF94_ENERGY>
76.8255

> <PUBCHEM_FEATURE_SELFOVERLAP>
35.612

> <PUBCHEM_SHAPE_FINGERPRINT>
11045977 3 18334296439811475400
11578080 2 16986886880454506655
12011746 2 18410854382597772838
12107183 9 17691971878877015888
12166972 35 17917425389295844317
12236239 1 17775283854967457016
12403259 226 18336268925048869113
12403259 415 18342184357662122996
12403814 3 17704071794573055997
12507557 5 18413670197258565729
12788726 201 17096364115482327353
12838862 33 18339659901077648785
13140716 1 18195243317280721058
13224815 77 18411700993581946795
13288520 33 18410571794865946693
13402501 40 18409729556005505840
13533116 47 17203336649894656914
13862211 1 18411704270584244266
14251764 18 18343587322605481530
14341114 176 18335697247927338296
14573314 32 18335978740437378702
14790565 3 18410848841810938240
15042514 8 18267581295770032811
15099037 51 18410292493496109158
15196674 1 18410292467230361904
15788980 27 18411416198173445174
1601671 61 18272654558552759710
16945 1 18267592497091602787
17349148 13 17917991663590407772
1813 80 17203890773600412414
18681886 176 18411983520915465360
19489759 90 16917072161308937881
200 152 17676489444971416233
20028762 73 18115028489453286055
21033648 29 18338813255027231736
21267235 1 18411128121948350531
21279426 13 18264768938536444022
21682296 61 17896589764883904118
21709351 56 18271812298027721501
23402539 116 18260553298848505645
23536379 177 16153425069293889540
23557571 272 18261949665984352983
23559900 14 18336270059062679680
26918003 58 18408885131349894825
3004659 81 18343015619667167734
335352 9 18410291410673701532
34934 24 18410859901863071051
350125 39 18411979148443884256
351380 180 18333450924123076368
3545911 37 18413107277570070177
4214541 1 18411136935273833529
474229 33 18410293601186370834
5104073 3 18339641264523286970
542803 24 16845572015423994620
6138700 20 18338230574732562974
9709674 26 18410004429549469231

> <PUBCHEM_SHAPE_MULTIPOLES>
461.59
12.48
2.01
0.98
6.63
0.41
0.4
-0.58
-0.79
-0.65
-0.17
-0.06
-0.17
0.65

> <PUBCHEM_SHAPE_SELFOVERLAP>
982.992

> <PUBCHEM_SHAPE_VOLUME>
254

> <PUBCHEM_COORDINATE_TYPE>
2
5
10

$$$$

