439701
  -OEChem-07051212473D

 22 23  0     0  0  0  0  0  0999 V2000
   -0.8351   -3.0697    0.1023 O   0  0  0  0  0  0  0  0  0  0  0  0
    2.4085    1.6991    0.5361 O   0  0  0  0  0  0  0  0  0  0  0  0
    1.1225   -0.1204    0.0414 N   0  0  0  0  0  0  0  0  0  0  0  0
   -0.1598    0.4419   -0.0092 C   0  0  0  0  0  0  0  0  0  0  0  0
   -1.0883   -0.6082    0.0078 C   0  0  0  0  0  0  0  0  0  0  0  0
   -0.3576   -1.8168    0.0686 C   0  0  0  0  0  0  0  0  0  0  0  0
    0.9764   -1.4953    0.0875 C   0  0  0  0  0  0  0  0  0  0  0  0
   -0.5937    1.7807   -0.0683 C   0  0  0  0  0  0  0  0  0  0  0  0
   -2.4683   -0.3183   -0.0343 C   0  0  0  0  0  0  0  0  0  0  0  0
    2.3446    0.5810    0.0455 C   0  0  0  0  0  0  0  0  0  0  0  0
   -1.9669    2.0440   -0.1094 C   0  0  0  0  0  0  0  0  0  0  0  0
   -2.8938    1.0100   -0.0925 C   0  0  0  0  0  0  0  0  0  0  0  0
    3.5116   -0.1279   -0.5755 C   0  0  0  0  0  0  0  0  0  0  0  0
    1.8436   -2.1400    0.1396 H   0  0  0  0  0  0  0  0  0  0  0  0
    0.1123    2.6045   -0.0893 H   0  0  0  0  0  0  0  0  0  0  0  0
   -3.2019   -1.1198   -0.0219 H   0  0  0  0  0  0  0  0  0  0  0  0
   -2.3112    3.0740   -0.1568 H   0  0  0  0  0  0  0  0  0  0  0  0
   -3.9563    1.2342   -0.1254 H   0  0  0  0  0  0  0  0  0  0  0  0
    3.8940   -0.8926    0.1053 H   0  0  0  0  0  0  0  0  0  0  0  0
    4.3083    0.5975   -0.7665 H   0  0  0  0  0  0  0  0  0  0  0  0
    3.2289   -0.5746   -1.5328 H   0  0  0  0  0  0  0  0  0  0  0  0
   -0.1050   -3.7122    0.1421 H   0  0  0  0  0  0  0  0  0  0  0  0
  1  6  1  0  0  0  0
  1 22  1  0  0  0  0
  2 10  2  0  0  0  0
  3  4  1  0  0  0  0
  3  7  1  0  0  0  0
  3 10  1  0  0  0  0
  4  5  1  0  0  0  0
  4  8  2  0  0  0  0
  5  6  1  0  0  0  0
  5  9  2  0  0  0  0
  6  7  2  0  0  0  0
  7 14  1  0  0  0  0
  8 11  1  0  0  0  0
  8 15  1  0  0  0  0
  9 12  1  0  0  0  0
  9 16  1  0  0  0  0
 10 13  1  0  0  0  0
 11 12  2  0  0  0  0
 11 17  1  0  0  0  0
 12 18  1  0  0  0  0
 13 19  1  0  0  0  0
 13 20  1  0  0  0  0
 13 21  1  0  0  0  0
M  END
> <PUBCHEM_COMPOUND_CID>
439701

> <PUBCHEM_CONFORMER_RMSD>
0.4

> <PUBCHEM_CONFORMER_DIVERSEORDER>
1
4
5
3
2
6

> <PUBCHEM_MMFF94_PARTIAL_CHARGES>
18
1 -0.51
10 0.52
11 -0.15
12 -0.15
13 0.06
14 0.15
15 0.15
16 0.15
17 0.15
18 0.15
2 -0.57
22 0.45
3 0.29
4 -0.15
6 0.06
7 -0.3
8 -0.15
9 -0.15

> <PUBCHEM_EFFECTIVE_ROTOR_COUNT>
1

> <PUBCHEM_PHARMACOPHORE_FEATURES>
4
1 1 donor
1 2 acceptor
5 3 4 5 6 7 rings
6 4 5 8 9 11 12 rings

> <PUBCHEM_HEAVY_ATOM_COUNT>
13

> <PUBCHEM_ATOM_DEF_STEREO_COUNT>
0

> <PUBCHEM_ATOM_UDEF_STEREO_COUNT>
0

> <PUBCHEM_BOND_DEF_STEREO_COUNT>
0

> <PUBCHEM_BOND_UDEF_STEREO_COUNT>
0

> <PUBCHEM_ISOTOPIC_ATOM_COUNT>
0

> <PUBCHEM_COMPONENT_COUNT>
1

> <PUBCHEM_CACTVS_TAUTO_COUNT>
2

> <PUBCHEM_CONFORMER_ID>
0006B59500000001

> <PUBCHEM_MMFF94_ENERGY>
31.4805

> <PUBCHEM_FEATURE_SELFOVERLAP>
20.385

> <PUBCHEM_SHAPE_FINGERPRINT>
1 1 18194686092545176447
10967382 1 18266741479033126595
12423570 1 15394887025250161287
12716758 59 18409166576166674386
13380535 21 18122331639258435209
13380535 76 18339364179003333775
14325111 11 18411136969681168020
14614273 12 18128824225366458701
14648413 74 17692530435158234849
15775835 57 18339918341553920252
16945 1 18411704244465936490
193761 8 17546728149632036205
20510252 161 18334011661999860345
20645476 183 17917131850135605790
20871998 184 18045494227350584511
21040471 1 18411702088460984114
21501502 16 18051416459308186561
21524375 3 18342177829269277659
22802520 49 18189042127919813006
2334 1 18339644545946813473
23402539 116 18263094248735079103
23463225 33 18055357087602290418
23552423 10 17978794841654024215
23559900 14 18334005113371810324
241688 4 16248569439487113955
2748010 2 18340484564446176229
5084963 1 18113620109615118776
528886 8 18411142471539412633
53812653 166 18336547226097372056
54173680 148 18268427928080947434
6333449 129 18410575058909170909
7364860 26 17904765827267295983
81228 2 18123756348403200531

> <PUBCHEM_SHAPE_MULTIPOLES>
250.81
4.25
2.53
0.64
1.75
1.29
0.02
-1.79
0.44
-0.53
-0.16
0.11
-0.05
0.18

> <PUBCHEM_SHAPE_SELFOVERLAP>
547.438

> <PUBCHEM_SHAPE_VOLUME>
137.5

> <PUBCHEM_COORDINATE_TYPE>
2
5
10

$$$$

