11367
  -OEChem-06261205352D

 23 23  0     0  0  0  0  0  0999 V2000
    4.5981    3.1550    0.0000 Cl  0  0  0  0  0  0  0  0  0  0  0  0
    2.8660    3.1550    0.0000 Cl  0  0  0  0  0  0  0  0  0  0  0  0
    2.8660   -2.8450    0.0000 O   0  0  0  0  0  0  0  0  0  0  0  0
    4.5981    1.1550    0.0000 O   0  0  0  0  0  0  0  0  0  0  0  0
    2.8660    1.1550    0.0000 N   0  0  0  0  0  0  0  0  0  0  0  0
    2.8660    0.1550    0.0000 C   0  0  0  0  0  0  0  0  0  0  0  0
    2.0000   -0.3450    0.0000 C   0  0  0  0  0  0  0  0  0  0  0  0
    3.7320   -0.3450    0.0000 C   0  0  0  0  0  0  0  0  0  0  0  0
    2.0000    1.6550    0.0000 C   0  0  0  0  0  0  0  0  0  0  0  0
    3.7320    1.6550    0.0000 C   0  0  0  0  0  0  0  0  0  0  0  0
    2.0000   -1.3450    0.0000 C   0  0  0  0  0  0  0  0  0  0  0  0
    3.7320   -1.3450    0.0000 C   0  0  0  0  0  0  0  0  0  0  0  0
    2.8660   -1.8450    0.0000 C   0  0  0  0  0  0  0  0  0  0  0  0
    3.7320    2.6550    0.0000 C   0  0  0  0  0  0  0  0  0  0  0  0
    1.4631   -0.0350    0.0000 H   0  0  0  0  0  0  0  0  0  0  0  0
    4.2690   -0.0350    0.0000 H   0  0  0  0  0  0  0  0  0  0  0  0
    2.3100    2.1919    0.0000 H   0  0  0  0  0  0  0  0  0  0  0  0
    1.4631    1.9650    0.0000 H   0  0  0  0  0  0  0  0  0  0  0  0
    1.6900    1.1181    0.0000 H   0  0  0  0  0  0  0  0  0  0  0  0
    1.4631   -1.6550    0.0000 H   0  0  0  0  0  0  0  0  0  0  0  0
    4.2690   -1.6550    0.0000 H   0  0  0  0  0  0  0  0  0  0  0  0
    3.7320    3.2750    0.0000 H   0  0  0  0  0  0  0  0  0  0  0  0
    2.3291   -3.1550    0.0000 H   0  0  0  0  0  0  0  0  0  0  0  0
  1 14  1  0  0  0  0
  2 14  1  0  0  0  0
  3 13  1  0  0  0  0
  3 23  1  0  0  0  0
  4 10  2  0  0  0  0
  5  6  1  0  0  0  0
  5  9  1  0  0  0  0
  5 10  1  0  0  0  0
  6  7  2  0  0  0  0
  6  8  1  0  0  0  0
  7 11  1  0  0  0  0
  7 15  1  0  0  0  0
  8 12  2  0  0  0  0
  8 16  1  0  0  0  0
  9 17  1  0  0  0  0
  9 18  1  0  0  0  0
  9 19  1  0  0  0  0
 10 14  1  0  0  0  0
 11 13  2  0  0  0  0
 11 20  1  0  0  0  0
 12 13  1  0  0  0  0
 12 21  1  0  0  0  0
 14 22  1  0  0  0  0
M  END
> <PUBCHEM_COMPOUND_CID>
11367

> <PUBCHEM_COMPOUND_CANONICALIZED>
1

> <PUBCHEM_CACTVS_COMPLEXITY>
203

> <PUBCHEM_CACTVS_HBOND_ACCEPTOR>
2

> <PUBCHEM_CACTVS_HBOND_DONOR>
1

> <PUBCHEM_CACTVS_ROTATABLE_BOND>
2

> <PUBCHEM_CACTVS_SUBSKEYS>
AAADccByMAAGAAAAAAAAAAAAAAAAAAAAAAAwAAAAAAAAAAABAAAAHgIACAAACA+BkMQyxoMAAgCIACVSUACCAAAhIgAIiAAObIhIJiLCkZPEcAhkxhHI2AewQAAAAEAAAAAAAAAAgAAAAAAAAAAAAAAAAA==

> <PUBCHEM_IUPAC_OPENEYE_NAME>
2,2-dichloro-N-(4-hydroxyphenyl)-N-methyl-acetamide

> <PUBCHEM_IUPAC_CAS_NAME>
2,2-dichloro-N-(4-hydroxyphenyl)-N-methylacetamide

> <PUBCHEM_IUPAC_NAME>
2,2-dichloro-N-(4-hydroxyphenyl)-N-methylacetamide

> <PUBCHEM_IUPAC_SYSTEMATIC_NAME>
2,2-bis(chloranyl)-N-(4-hydroxyphenyl)-N-methyl-ethanamide

> <PUBCHEM_IUPAC_TRADITIONAL_NAME>
2,2-dichloro-N-(4-hydroxyphenyl)-N-methyl-acetamide

> <PUBCHEM_IUPAC_INCHI>
InChI=1S/C9H9Cl2NO2/c1-12(9(14)8(10)11)6-2-4-7(13)5-3-6/h2-5,8,13H,1H3

> <PUBCHEM_IUPAC_INCHIKEY>
GZZZSOOGQLOEOB-UHFFFAOYSA-N

> <PUBCHEM_XLOGP3>
2

> <PUBCHEM_EXACT_MASS>
233.001034

> <PUBCHEM_MOLECULAR_FORMULA>
C9H9Cl2NO2

> <PUBCHEM_MOLECULAR_WEIGHT>
234.07926

> <PUBCHEM_OPENEYE_CAN_SMILES>
CN(C1=CC=C(C=C1)O)C(=O)C(Cl)Cl

> <PUBCHEM_OPENEYE_ISO_SMILES>
CN(C1=CC=C(C=C1)O)C(=O)C(Cl)Cl

> <PUBCHEM_CACTVS_TPSA>
40.5

> <PUBCHEM_MONOISOTOPIC_WEIGHT>
233.001034

> <PUBCHEM_TOTAL_CHARGE>
0

> <PUBCHEM_HEAVY_ATOM_COUNT>
14

> <PUBCHEM_ATOM_DEF_STEREO_COUNT>
0

> <PUBCHEM_ATOM_UDEF_STEREO_COUNT>
0

> <PUBCHEM_BOND_DEF_STEREO_COUNT>
0

> <PUBCHEM_BOND_UDEF_STEREO_COUNT>
0

> <PUBCHEM_ISOTOPIC_ATOM_COUNT>
0

> <PUBCHEM_COMPONENT_COUNT>
1

> <PUBCHEM_CACTVS_TAUTO_COUNT>
2

> <PUBCHEM_COORDINATE_TYPE>
1
5
255

> <PUBCHEM_BONDANNOTATIONS>
11  13  8
12  13  8
6  7  8
6  8  8
7  11  8
8  12  8

$$$$

