24755530
  -OEChem-07051213112D

 73 78  0     1  0  0  0  0  0999 V2000
    6.7577   -0.2132    0.0000 P   0  0  3  0  0  0  0  0  0  0  0  0
    9.8781   -1.4530    0.0000 P   0  0  0  0  0  0  0  0  0  0  0  0
    7.3435   -3.2175    0.0000 O   0  0  0  0  0  0  0  0  0  0  0  0
    8.7855    2.1161    0.0000 O   0  0  0  0  0  0  0  0  0  0  0  0
    6.0873   -0.9552    0.0000 O   0  0  0  0  0  0  0  0  0  0  0  0
    4.8055   -2.7131    0.0000 O   0  0  0  0  0  0  0  0  0  0  0  0
    7.4282    0.5287    0.0000 O   0  0  0  0  0  0  0  0  0  0  0  0
    6.6721    3.6091    0.0000 O   0  0  0  0  0  0  0  0  0  0  0  0
    8.5581    4.6937    0.0000 O   0  0  0  0  0  0  0  0  0  0  0  0
    9.0681   -2.0394    0.0000 O   0  0  0  0  0  0  0  0  0  0  0  0
    6.0158    0.4572    0.0000 O   0  0  0  0  0  0  0  0  0  0  0  0
    7.4997   -0.8837    0.0000 O   0  0  0  0  0  0  0  0  0  0  0  0
   10.6882   -0.8666    0.0000 O   0  0  0  0  0  0  0  0  0  0  0  0
   10.4645   -2.2631    0.0000 O   0  0  0  0  0  0  0  0  0  0  0  0
    9.2917   -0.6430    0.0000 O   0  0  0  0  0  0  0  0  0  0  0  0
    4.2690   -7.2801    0.0000 O   0  0  0  0  0  0  0  0  0  0  0  0
   13.1564    4.7340    0.0000 O   0  0  0  0  0  0  0  0  0  0  0  0
    6.0812   -4.4754    0.0000 N   0  0  0  0  0  0  0  0  0  0  0  0
   10.1724    3.2351    0.0000 N   0  0  0  0  0  0  0  0  0  0  0  0
    4.2690   -4.2801    0.0000 N   0  0  0  0  0  0  0  0  0  0  0  0
    6.0812   -6.0848    0.0000 N   0  0  0  0  0  0  0  0  0  0  0  0
   10.1739    5.0579    0.0000 N   0  0  0  0  0  0  0  0  0  0  0  0
   11.7724    3.0614    0.0000 N   0  0  0  0  0  0  0  0  0  0  0  0
    3.4030   -5.7801    0.0000 N   0  0  0  0  0  0  0  0  0  0  0  0
   11.7586    5.7569    0.0000 N   0  0  0  0  0  0  0  0  0  0  0  0
    2.5369   -4.2801    0.0000 N   0  0  0  0  0  0  0  0  0  0  0  0
   10.3609    6.7798    0.0000 N   0  0  0  0  0  0  0  0  0  0  0  0
    6.3947   -1.9068    0.0000 C   0  0  1  0  0  0  0  0  0  0  0  0
    5.8055   -2.7148    0.0000 C   0  0  2  0  0  0  0  0  0  0  0  0
    7.3452   -2.2175    0.0000 C   0  0  1  0  0  0  0  0  0  0  0  0
    6.3919   -3.5249    0.0000 C   0  0  1  0  0  0  0  0  0  0  0  0
    7.7912    2.2223    0.0000 C   0  0  1  0  0  0  0  0  0  0  0  0
    7.5850    3.2008    0.0000 C   0  0  2  0  0  0  0  0  0  0  0  0
    8.4519    3.6993    0.0000 C   0  0  2  0  0  0  0  0  0  0  0  0
    9.1939    3.0289    0.0000 C   0  0  1  0  0  0  0  0  0  0  0  0
    8.1552   -1.6311    0.0000 C   0  0  0  0  0  0  0  0  0  0  0  0
    7.1208    1.4803    0.0000 C   0  0  0  0  0  0  0  0  0  0  0  0
    5.1350   -4.7801    0.0000 C   0  0  0  0  0  0  0  0  0  0  0  0
    6.6648   -5.2801    0.0000 C   0  0  0  0  0  0  0  0  0  0  0  0
   10.5775    4.1429    0.0000 C   0  0  0  0  0  0  0  0  0  0  0  0
   10.9094    2.5680    0.0000 C   0  0  0  0  0  0  0  0  0  0  0  0
    5.1350   -5.7801    0.0000 C   0  0  0  0  0  0  0  0  0  0  0  0
   11.5716    4.0349    0.0000 C   0  0  0  0  0  0  0  0  0  0  0  0
    4.2690   -6.2801    0.0000 C   0  0  0  0  0  0  0  0  0  0  0  0
    3.4030   -4.7801    0.0000 C   0  0  0  0  0  0  0  0  0  0  0  0
   12.1622    4.8419    0.0000 C   0  0  0  0  0  0  0  0  0  0  0  0
   10.7645    5.8648    0.0000 C   0  0  0  0  0  0  0  0  0  0  0  0
    5.7825   -1.8088    0.0000 H   0  0  0  0  0  0  0  0  0  0  0  0
    5.5250   -2.1619    0.0000 H   0  0  0  0  0  0  0  0  0  0  0  0
    7.8972   -2.4999    0.0000 H   0  0  0  0  0  0  0  0  0  0  0  0
    5.7794   -3.6208    0.0000 H   0  0  0  0  0  0  0  0  0  0  0  0
    8.0124    1.6431    0.0000 H   0  0  0  0  0  0  0  0  0  0  0  0
    7.5536    3.8200    0.0000 H   0  0  0  0  0  0  0  0  0  0  0  0
    9.0311    3.9205    0.0000 H   0  0  0  0  0  0  0  0  0  0  0  0
    9.5832    2.5464    0.0000 H   0  0  0  0  0  0  0  0  0  0  0  0
    8.5028   -1.1177    0.0000 H   0  0  0  0  0  0  0  0  0  0  0  0
    7.7100   -1.1996    0.0000 H   0  0  0  0  0  0  0  0  0  0  0  0
    6.7399    1.9696    0.0000 H   0  0  0  0  0  0  0  0  0  0  0  0
    6.5728    1.1902    0.0000 H   0  0  0  0  0  0  0  0  0  0  0  0
    4.4964   -2.1756    0.0000 H   0  0  0  0  0  0  0  0  0  0  0  0
    7.2848   -5.2801    0.0000 H   0  0  0  0  0  0  0  0  0  0  0  0
    6.6084    4.2258    0.0000 H   0  0  0  0  0  0  0  0  0  0  0  0
    8.0572    5.0590    0.0000 H   0  0  0  0  0  0  0  0  0  0  0  0
   10.8424    1.9517    0.0000 H   0  0  0  0  0  0  0  0  0  0  0  0
    4.2690   -3.6601    0.0000 H   0  0  0  0  0  0  0  0  0  0  0  0
    9.5575    5.1248    0.0000 H   0  0  0  0  0  0  0  0  0  0  0  0
    5.4258    0.2666    0.0000 H   0  0  0  0  0  0  0  0  0  0  0  0
    2.0000   -4.5901    0.0000 H   0  0  0  0  0  0  0  0  0  0  0  0
    2.5369   -3.6601    0.0000 H   0  0  0  0  0  0  0  0  0  0  0  0
   11.2541   -1.1198    0.0000 H   0  0  0  0  0  0  0  0  0  0  0  0
   10.2113   -2.8290    0.0000 H   0  0  0  0  0  0  0  0  0  0  0  0
   10.7271    7.2801    0.0000 H   0  0  0  0  0  0  0  0  0  0  0  0
    9.7445    6.8467    0.0000 H   0  0  0  0  0  0  0  0  0  0  0  0
  1  5  1  0  0  0  0
  1  7  1  0  0  0  0
  1 11  1  0  0  0  0
  1 12  2  0  0  0  0
  2 10  1  0  0  0  0
  2 13  1  0  0  0  0
  2 14  1  0  0  0  0
  2 15  2  0  0  0  0
  3 30  1  0  0  0  0
  3 31  1  0  0  0  0
  4 32  1  0  0  0  0
  4 35  1  0  0  0  0
 28  5  1  6  0  0  0
 29  6  1  6  0  0  0
  6 60  1  0  0  0  0
  7 37  1  0  0  0  0
 33  8  1  1  0  0  0
  8 62  1  0  0  0  0
 34  9  1  1  0  0  0
  9 63  1  0  0  0  0
 10 36  1  0  0  0  0
 11 67  1  0  0  0  0
 13 70  1  0  0  0  0
 14 71  1  0  0  0  0
 16 44  2  0  0  0  0
 17 46  2  0  0  0  0
 31 18  1  1  0  0  0
 18 38  1  0  0  0  0
 18 39  1  0  0  0  0
 35 19  1  6  0  0  0
 19 40  1  0  0  0  0
 19 41  1  0  0  0  0
 20 38  1  0  0  0  0
 20 45  1  0  0  0  0
 20 65  1  0  0  0  0
 21 39  2  0  0  0  0
 21 42  1  0  0  0  0
 22 40  1  0  0  0  0
 22 47  1  0  0  0  0
 22 66  1  0  0  0  0
 23 41  2  0  0  0  0
 23 43  1  0  0  0  0
 24 44  1  0  0  0  0
 24 45  2  0  0  0  0
 25 46  1  0  0  0  0
 25 47  2  0  0  0  0
 26 45  1  0  0  0  0
 26 68  1  0  0  0  0
 26 69  1  0  0  0  0
 27 47  1  0  0  0  0
 27 72  1  0  0  0  0
 27 73  1  0  0  0  0
 28 29  1  0  0  0  0
 28 30  1  0  0  0  0
 28 48  1  0  0  0  0
 29 31  1  0  0  0  0
 29 49  1  0  0  0  0
 30 36  1  1  0  0  0
 30 50  1  0  0  0  0
 31 51  1  0  0  0  0
 32 33  1  0  0  0  0
 32 37  1  6  0  0  0
 32 52  1  0  0  0  0
 33 34  1  0  0  0  0
 33 53  1  0  0  0  0
 34 35  1  0  0  0  0
 34 54  1  0  0  0  0
 35 55  1  0  0  0  0
 36 56  1  0  0  0  0
 36 57  1  0  0  0  0
 37 58  1  0  0  0  0
 37 59  1  0  0  0  0
 38 42  2  0  0  0  0
 39 61  1  0  0  0  0
 40 43  2  0  0  0  0
 41 64  1  0  0  0  0
 42 44  1  0  0  0  0
 43 46  1  0  0  0  0
M  END
> <PUBCHEM_COMPOUND_CID>
24755530

> <PUBCHEM_COMPOUND_CANONICALIZED>
1

> <PUBCHEM_CACTVS_COMPLEXITY>
1420

> <PUBCHEM_CACTVS_HBOND_ACCEPTOR>
17

> <PUBCHEM_CACTVS_HBOND_DONOR>
10

> <PUBCHEM_CACTVS_ROTATABLE_BOND>
10

> <PUBCHEM_CACTVS_SUBSKEYS>
AAADceB7/AMAAAAAAAAAAAAAAAAAAWLEiQAgQAAAAAAAAEAB4AAAHgAQCCAACBzhlgYFsBfMFxCoQQdxdICAgC0XEKABUAGoVECDWApAyCAeQIAPAALTAGDwMAIAAAAAAAAAAAAAAAAAAAAAAAAAAAAAAA==

> <PUBCHEM_IUPAC_OPENEYE_NAME>
[(2R,3S,4R,5R)-5-(2-amino-6-oxo-3H-purin-9-yl)-3,4-dihydroxy-tetrahydrofuran-2-yl]methyl [(2R,3S,4R,5R)-5-(2-amino-6-oxo-3H-purin-9-yl)-4-hydroxy-2-(phosphonooxymethyl)tetrahydrofuran-3-yl] hydrogen phosphate

> <PUBCHEM_IUPAC_CAS_NAME>
[(2R,3S,4R,5R)-5-(2-amino-6-oxo-3H-purin-9-yl)-3,4-dihydroxy-2-oxolanyl]methyl [(2R,3S,4R,5R)-5-(2-amino-6-oxo-3H-purin-9-yl)-4-hydroxy-2-(phosphonooxymethyl)-3-oxolanyl] hydrogen phosphate

> <PUBCHEM_IUPAC_NAME>
[(2R,3S,4R,5R)-5-(2-amino-6-oxo-3H-purin-9-yl)-3,4-dihydroxyoxolan-2-yl]methyl [(2R,3S,4R,5R)-5-(2-amino-6-oxo-3H-purin-9-yl)-4-hydroxy-2-(phosphonooxymethyl)oxolan-3-yl] hydrogen phosphate

> <PUBCHEM_IUPAC_SYSTEMATIC_NAME>
[(2R,3S,4R,5R)-5-(2-azanyl-6-oxidanylidene-3H-purin-9-yl)-3,4-bis(oxidanyl)oxolan-2-yl]methyl [(2R,3S,4R,5R)-5-(2-azanyl-6-oxidanylidene-3H-purin-9-yl)-4-oxidanyl-2-(phosphonooxymethyl)oxolan-3-yl] hydrogen phosphate

> <PUBCHEM_IUPAC_TRADITIONAL_NAME>
[(2R,3S,4R,5R)-5-(2-amino-6-keto-3H-purin-9-yl)-3,4-dihydroxy-tetrahydrofuran-2-yl]methyl [(2R,3S,4R,5R)-5-(2-amino-6-keto-3H-purin-9-yl)-4-hydroxy-2-(phosphonooxymethyl)tetrahydrofuran-3-yl] hydrogen phosphate

> <PUBCHEM_IUPAC_INCHI>
InChI=1S/C20H26N10O15P2/c21-19-25-13-7(15(34)27-19)23-3-29(13)17-10(32)9(31)5(43-17)1-42-47(39,40)45-12-6(2-41-46(36,37)38)44-18(11(12)33)30-4-24-8-14(30)26-20(22)28-16(8)35/h3-6,9-12,17-18,31-33H,1-2H2,(H,39,40)(H2,36,37,38)(H3,21,25,27,34)(H3,22,26,28,35)/t5-,6-,9-,10-,11-,12-,17-,18-/m1/s1

> <PUBCHEM_IUPAC_INCHIKEY>
ZEHOHLFQOXAZHX-MHARETSRSA-N

> <PUBCHEM_XLOGP3_AA>
-7.8

> <PUBCHEM_EXACT_MASS>
708.105433

> <PUBCHEM_MOLECULAR_FORMULA>
C20H26N10O15P2

> <PUBCHEM_MOLECULAR_WEIGHT>
708.425964

> <PUBCHEM_OPENEYE_CAN_SMILES>
C1=NC2=C(N1C3C(C(C(O3)COP(=O)(O)OC4C(OC(C4O)N5C=NC6=C5NC(=NC6=O)N)COP(=O)(O)O)O)O)NC(=NC2=O)N

> <PUBCHEM_OPENEYE_ISO_SMILES>
C1=NC2=C(N1[C@H]3[C@@H]([C@@H]([C@H](O3)COP(=O)(O)O[C@@H]4[C@H](O[C@H]([C@@H]4O)N5C=NC6=C5NC(=NC6=O)N)COP(=O)(O)O)O)O)NC(=NC2=O)N

> <PUBCHEM_CACTVS_TPSA>
372

> <PUBCHEM_MONOISOTOPIC_WEIGHT>
708.105433

> <PUBCHEM_TOTAL_CHARGE>
0

> <PUBCHEM_HEAVY_ATOM_COUNT>
47

> <PUBCHEM_ATOM_DEF_STEREO_COUNT>
8

> <PUBCHEM_ATOM_UDEF_STEREO_COUNT>
0

> <PUBCHEM_BOND_DEF_STEREO_COUNT>
0

> <PUBCHEM_BOND_UDEF_STEREO_COUNT>
0

> <PUBCHEM_ISOTOPIC_ATOM_COUNT>
0

> <PUBCHEM_COMPONENT_COUNT>
1

> <PUBCHEM_CACTVS_TAUTO_COUNT>
81

> <PUBCHEM_COORDINATE_TYPE>
1
5
255

> <PUBCHEM_BONDANNOTATIONS>
31  18  5
18  38  8
18  39  8
35  19  6
19  40  8
19  41  8
20  38  8
20  45  8
21  39  8
21  42  8
22  40  8
22  47  8
23  41  8
23  43  8
24  44  8
24  45  8
25  46  8
25  47  8
30  36  5
32  37  6
38  42  8
40  43  8
42  44  8
43  46  8
28  5  6
29  6  6
33  8  5
34  9  5

$$$$

