164611
  -OEChem-07051213153D

 43 47  0     1  0  0  0  0  0999 V2000
   -0.1222   -2.8961    0.4367 O   0  0  0  0  0  0  0  0  0  0  0  0
    4.9906    0.7447    0.0579 O   0  0  0  0  0  0  0  0  0  0  0  0
    4.3549   -1.5204   -0.4581 O   0  0  0  0  0  0  0  0  0  0  0  0
   -2.7571   -3.4048    0.4174 O   0  0  0  0  0  0  0  0  0  0  0  0
   -2.0389    2.9687    0.0963 N   0  0  2  0  0  0  0  0  0  0  0  0
   -0.9854    1.9693   -0.2212 C   0  0  2  0  0  0  0  0  0  0  0  0
   -1.4531    0.5233   -0.0234 C   0  0  0  0  0  0  0  0  0  0  0  0
    0.2855    2.1993    0.6272 C   0  0  0  0  0  0  0  0  0  0  0  0
   -2.8295    0.2235    0.0000 C   0  0  0  0  0  0  0  0  0  0  0  0
   -0.4906   -0.5137    0.0722 C   0  0  0  0  0  0  0  0  0  0  0  0
   -3.2836    2.6256   -0.6097 C   0  0  0  0  0  0  0  0  0  0  0  0
   -3.8546    1.3212   -0.0618 C   0  0  0  0  0  0  0  0  0  0  0  0
    1.3467    1.1638    0.3239 C   0  0  0  0  0  0  0  0  0  0  0  0
    0.9522   -0.1765    0.0494 C   0  0  0  0  0  0  0  0  0  0  0  0
   -0.9545   -1.8336    0.2197 C   0  0  0  0  0  0  0  0  0  0  0  0
   -3.2523   -1.1007    0.1495 C   0  0  0  0  0  0  0  0  0  0  0  0
   -1.6409    4.3314   -0.2727 C   0  0  0  0  0  0  0  0  0  0  0  0
    2.7023    1.5335    0.3563 C   0  0  0  0  0  0  0  0  0  0  0  0
   -2.3187   -2.1239    0.2559 C   0  0  0  0  0  0  0  0  0  0  0  0
    1.9560   -1.1231   -0.2349 C   0  0  0  0  0  0  0  0  0  0  0  0
    3.6423    0.5665    0.0816 C   0  0  0  0  0  0  0  0  0  0  0  0
    3.2790   -0.7238   -0.2100 C   0  0  0  0  0  0  0  0  0  0  0  0
    5.4368   -0.5827   -0.2860 C   0  0  0  0  0  0  0  0  0  0  0  0
   -2.9647   -4.1716   -0.7664 C   0  0  0  0  0  0  0  0  0  0  0  0
   -0.7218    2.0575   -1.2867 H   0  0  0  0  0  0  0  0  0  0  0  0
    0.0549    2.1525    1.6998 H   0  0  0  0  0  0  0  0  0  0  0  0
    0.7045    3.1900    0.4206 H   0  0  0  0  0  0  0  0  0  0  0  0
   -3.1092    2.5436   -1.6913 H   0  0  0  0  0  0  0  0  0  0  0  0
   -4.0397    3.4071   -0.4635 H   0  0  0  0  0  0  0  0  0  0  0  0
   -4.6952    1.0118   -0.6945 H   0  0  0  0  0  0  0  0  0  0  0  0
   -4.2427    1.4855    0.9516 H   0  0  0  0  0  0  0  0  0  0  0  0
   -4.3143   -1.3312    0.1911 H   0  0  0  0  0  0  0  0  0  0  0  0
   -2.4617    5.0353   -0.0906 H   0  0  0  0  0  0  0  0  0  0  0  0
   -1.3550    4.4074   -1.3278 H   0  0  0  0  0  0  0  0  0  0  0  0
   -0.8111    4.6877    0.3443 H   0  0  0  0  0  0  0  0  0  0  0  0
    3.0029    2.5507    0.5846 H   0  0  0  0  0  0  0  0  0  0  0  0
    1.7502   -2.1453   -0.5246 H   0  0  0  0  0  0  0  0  0  0  0  0
   -0.6498   -3.6976    0.5928 H   0  0  0  0  0  0  0  0  0  0  0  0
    6.0957   -0.9489    0.5097 H   0  0  0  0  0  0  0  0  0  0  0  0
    6.0080   -0.5302   -1.2200 H   0  0  0  0  0  0  0  0  0  0  0  0
   -3.2685   -5.1800   -0.4727 H   0  0  0  0  0  0  0  0  0  0  0  0
   -2.0430   -4.2407   -1.3528 H   0  0  0  0  0  0  0  0  0  0  0  0
   -3.7616   -3.7287   -1.3723 H   0  0  0  0  0  0  0  0  0  0  0  0
  1 15  1  0  0  0  0
  1 38  1  0  0  0  0
  2 21  1  0  0  0  0
  2 23  1  0  0  0  0
  3 22  1  0  0  0  0
  3 23  1  0  0  0  0
  4 19  1  0  0  0  0
  4 24  1  0  0  0  0
  5  6  1  0  0  0  0
  5 11  1  0  0  0  0
  5 17  1  0  0  0  0
  6  7  1  0  0  0  0
  6  8  1  0  0  0  0
  6 25  1  0  0  0  0
  7  9  1  0  0  0  0
  7 10  2  0  0  0  0
  8 13  1  0  0  0  0
  8 26  1  0  0  0  0
  8 27  1  0  0  0  0
  9 12  1  0  0  0  0
  9 16  2  0  0  0  0
 10 14  1  0  0  0  0
 10 15  1  0  0  0  0
 11 12  1  0  0  0  0
 11 28  1  0  0  0  0
 11 29  1  0  0  0  0
 12 30  1  0  0  0  0
 12 31  1  0  0  0  0
 13 14  1  0  0  0  0
 13 18  2  0  0  0  0
 14 20  2  0  0  0  0
 15 19  2  0  0  0  0
 16 19  1  0  0  0  0
 16 32  1  0  0  0  0
 17 33  1  0  0  0  0
 17 34  1  0  0  0  0
 17 35  1  0  0  0  0
 18 21  1  0  0  0  0
 18 36  1  0  0  0  0
 20 22  1  0  0  0  0
 20 37  1  0  0  0  0
 21 22  2  0  0  0  0
 23 39  1  0  0  0  0
 23 40  1  0  0  0  0
 24 41  1  0  0  0  0
 24 42  1  0  0  0  0
 24 43  1  0  0  0  0
M  END
> <PUBCHEM_COMPOUND_CID>
164611

> <PUBCHEM_CONFORMER_RMSD>
0.6

> <PUBCHEM_CONFORMER_DIVERSEORDER>
1
2

> <PUBCHEM_MMFF94_PARTIAL_CHARGES>
26
1 -0.53
11 0.27
12 0.14
13 -0.14
15 0.08
16 -0.15
17 0.27
18 -0.15
19 0.08
2 -0.36
20 -0.15
21 0.08
22 0.08
23 0.56
24 0.28
3 -0.36
32 0.15
36 0.15
37 0.15
38 0.45
4 -0.36
5 -0.81
6 0.41
7 -0.14
8 0.14
9 -0.14

> <PUBCHEM_EFFECTIVE_ROTOR_COUNT>
2.4

> <PUBCHEM_PHARMACOPHORE_FEATURES>
10
1 1 donor
1 2 acceptor
1 3 acceptor
1 4 acceptor
1 5 cation
5 2 3 21 22 23 rings
6 13 14 18 20 21 22 rings
6 5 6 7 9 11 12 rings
6 6 7 8 10 13 14 rings
6 7 9 10 15 16 19 rings

> <PUBCHEM_HEAVY_ATOM_COUNT>
24

> <PUBCHEM_ATOM_DEF_STEREO_COUNT>
1

> <PUBCHEM_ATOM_UDEF_STEREO_COUNT>
0

> <PUBCHEM_BOND_DEF_STEREO_COUNT>
0

> <PUBCHEM_BOND_UDEF_STEREO_COUNT>
0

> <PUBCHEM_ISOTOPIC_ATOM_COUNT>
0

> <PUBCHEM_COMPONENT_COUNT>
1

> <PUBCHEM_CACTVS_TAUTO_COUNT>
3

> <PUBCHEM_CONFORMER_ID>
0002830300000001

> <PUBCHEM_MMFF94_ENERGY>
84.6087

> <PUBCHEM_FEATURE_SELFOVERLAP>
50.985

> <PUBCHEM_SHAPE_FINGERPRINT>
10319926 262 18264512671276480906
10411042 1 18122906425984079379
10616163 171 18410290302978619646
10693767 8 17970657193373816759
10967382 1 18194966463884168417
1100329 8 18339640036896161305
11370993 70 18124599931472477572
11578080 2 16879653491266231875
12107183 9 17839471330027239866
12173636 292 18268432523632728981
12403259 226 18190183377770687826
12553582 1 17836075680894576371
12788726 201 18343589533590609755
13140716 1 18338228259306892673
13690498 29 18264750118021882678
138480 1 16537359449982911177
14363568 33 17261006850076899888
14508225 48 18193005811793742207
14790565 3 18121209037760694089
15042514 8 18412257312206226411
15196674 1 18410011027161996192
16087824 20 18411138044583177815
16752209 62 18339933713320773296
16945 1 18339651151912619393
17357779 13 18122643660079602223
19141452 34 18261665970630993219
19591789 44 18123187076310452465
20510252 161 18335700597759548057
20775438 99 17251790830282290071
21065198 57 18410574015933744446
21267235 1 18339351977022487842
21279426 13 17904197375945942174
21478907 32 18266179431397845035
221490 88 18336825278433410768
2334 1 18195247720023041473
23402539 116 18408892853437219188
23419403 2 17386862611822100673
23557571 272 18334006190448486188
23559900 14 18334858377017771310
238 59 16547247285169485285
23845131 108 17908127030831233121
2748010 2 18265342702969661521
283562 15 18191871334937864649
3091708 16 9274024879952933577
335352 9 18338233868302150612
3380486 145 18267008467486334977
350125 39 18411693292558255849
394222 165 17626948925647065680
4214541 1 18411417341194051532
46194498 28 16897408246735928663
484989 97 18271251500702377815
5104073 3 18335703819596508618
54173680 148 18410855430253431273
7164475 11 18340763729047135860
8809292 202 18410291419432499424
9709674 26 18334291007084060366
9981440 41 18053104213999419369

> <PUBCHEM_SHAPE_MULTIPOLES>
465.45
8.23
4.68
0.71
10.32
0.5
0.02
1.29
0.96
-6.2
0.46
-0.09
0.04
0.48

> <PUBCHEM_SHAPE_SELFOVERLAP>
1049.941

> <PUBCHEM_SHAPE_VOLUME>
244.7

> <PUBCHEM_COORDINATE_TYPE>
2
5
10

$$$$

