441794
  -OEChem-07051212563D

 71 75  0     1  0  0  0  0  0999 V2000
   -0.9581   -2.3923   -1.8167 O   0  0  0  0  0  0  0  0  0  0  0  0
    0.1503    2.0945   -0.3017 O   0  0  0  0  0  0  0  0  0  0  0  0
   -2.1382   -3.1484    0.0770 O   0  0  0  0  0  0  0  0  0  0  0  0
    0.1575   -2.6570    1.6660 O   0  0  0  0  0  0  0  0  0  0  0  0
   -3.7269   -1.7350    1.5410 O   0  0  0  0  0  0  0  0  0  0  0  0
    2.8853    0.3251    1.0424 O   0  0  0  0  0  0  0  0  0  0  0  0
   -5.3871    0.5261    2.4587 O   0  0  0  0  0  0  0  0  0  0  0  0
    1.7403    2.6766    1.1623 O   0  0  0  0  0  0  0  0  0  0  0  0
    3.3767    1.3335   -0.9692 O   0  0  0  0  0  0  0  0  0  0  0  0
    5.2449   -0.3014    1.4996 O   0  0  0  0  0  0  0  0  0  0  0  0
   -0.2416   -0.2533   -1.0464 C   0  0  2  0  0  0  0  0  0  0  0  0
   -1.3131   -0.8156   -0.0733 C   0  0  1  0  0  0  0  0  0  0  0  0
   -2.7857   -0.2105   -0.2096 C   0  0  2  0  0  0  0  0  0  0  0  0
    1.2093   -0.5358   -0.5138 C   0  0  2  0  0  0  0  0  0  0  0  0
   -1.0858   -2.3182   -0.3801 C   0  0  2  0  0  0  0  0  0  0  0  0
   -0.3493    1.2343   -1.3595 C   0  0  1  0  0  0  0  0  0  0  0  0
   -2.6776    1.3522   -0.4032 C   0  0  1  0  0  0  0  0  0  0  0  0
   -0.4742   -1.1245   -2.2925 C   0  0  0  0  0  0  0  0  0  0  0  0
    1.4680   -2.0693   -0.3241 C   0  0  2  0  0  0  0  0  0  0  0  0
    0.2415   -2.8084    0.2501 C   0  0  1  0  0  0  0  0  0  0  0  0
   -1.7872    1.6992   -1.6107 C   0  0  0  0  0  0  0  0  0  0  0  0
   -3.5729   -0.3767    1.1450 C   0  0  1  0  0  0  0  0  0  0  0  0
    1.4995    0.3341    0.7109 C   0  0  2  0  0  0  0  0  0  0  0  0
   -3.6032   -0.8546   -1.3649 C   0  0  0  0  0  0  0  0  0  0  0  0
   -4.0271    2.0642   -0.3629 C   0  0  0  0  0  0  0  0  0  0  0  0
   -4.9719    0.2673    1.1163 C   0  0  2  0  0  0  0  0  0  0  0  0
    2.7605   -2.4359    0.4075 C   0  0  0  0  0  0  0  0  0  0  0  0
    1.1684    1.7933    0.5261 C   0  0  0  0  0  0  0  0  0  0  0  0
   -5.0465    1.5541    0.3515 C   0  0  0  0  0  0  0  0  0  0  0  0
   -4.1847    3.3859   -1.0597 C   0  0  0  0  0  0  0  0  0  0  0  0
    3.7269    0.8606    0.1052 C   0  0  0  0  0  0  0  0  0  0  0  0
    5.1758    0.7874    0.5807 C   0  0  2  0  0  0  0  0  0  0  0  0
    6.1149    0.5155   -0.6078 C   0  0  0  0  0  0  0  0  0  0  0  0
    5.5324    2.0545    1.3553 C   0  0  0  0  0  0  0  0  0  0  0  0
    5.8786   -0.8217   -1.2996 C   0  0  0  0  0  0  0  0  0  0  0  0
   -1.0285   -0.6017    0.9623 H   0  0  0  0  0  0  0  0  0  0  0  0
    1.8824   -0.2591   -1.3322 H   0  0  0  0  0  0  0  0  0  0  0  0
    0.2498    1.4768   -2.2464 H   0  0  0  0  0  0  0  0  0  0  0  0
   -2.1567    1.7500    0.4822 H   0  0  0  0  0  0  0  0  0  0  0  0
   -1.2071   -0.7158   -2.9896 H   0  0  0  0  0  0  0  0  0  0  0  0
    0.4350   -1.2883   -2.8811 H   0  0  0  0  0  0  0  0  0  0  0  0
    1.6087   -2.4743   -1.3371 H   0  0  0  0  0  0  0  0  0  0  0  0
    0.3611   -3.8821    0.0560 H   0  0  0  0  0  0  0  0  0  0  0  0
   -2.1889    1.2787   -2.5372 H   0  0  0  0  0  0  0  0  0  0  0  0
   -1.7564    2.7863   -1.7520 H   0  0  0  0  0  0  0  0  0  0  0  0
   -2.9862    0.0934    1.9468 H   0  0  0  0  0  0  0  0  0  0  0  0
    0.9553   -0.0161    1.5924 H   0  0  0  0  0  0  0  0  0  0  0  0
   -4.5937   -0.4021   -1.4735 H   0  0  0  0  0  0  0  0  0  0  0  0
   -3.1322   -0.7304   -2.3382 H   0  0  0  0  0  0  0  0  0  0  0  0
   -3.7888   -1.9209   -1.2284 H   0  0  0  0  0  0  0  0  0  0  0  0
   -5.6975   -0.4407    0.6979 H   0  0  0  0  0  0  0  0  0  0  0  0
    3.6258   -1.9928   -0.0846 H   0  0  0  0  0  0  0  0  0  0  0  0
    2.7462   -2.1320    1.4579 H   0  0  0  0  0  0  0  0  0  0  0  0
    2.9056   -3.5222    0.3911 H   0  0  0  0  0  0  0  0  0  0  0  0
   -2.8848   -2.6214    0.3799 H   0  0  0  0  0  0  0  0  0  0  0  0
   -5.9975    2.0812    0.3816 H   0  0  0  0  0  0  0  0  0  0  0  0
   -0.6361   -3.1337    1.9638 H   0  0  0  0  0  0  0  0  0  0  0  0
   -4.1979   -1.7424    2.3918 H   0  0  0  0  0  0  0  0  0  0  0  0
   -3.4324    4.0971   -0.7037 H   0  0  0  0  0  0  0  0  0  0  0  0
   -5.1671    3.8354   -0.8776 H   0  0  0  0  0  0  0  0  0  0  0  0
   -4.0795    3.2654   -2.1425 H   0  0  0  0  0  0  0  0  0  0  0  0
   -6.3035    0.8510    2.4302 H   0  0  0  0  0  0  0  0  0  0  0  0
    6.0367    1.3218   -1.3472 H   0  0  0  0  0  0  0  0  0  0  0  0
    7.1508    0.5149   -0.2449 H   0  0  0  0  0  0  0  0  0  0  0  0
    4.8373    2.2217    2.1864 H   0  0  0  0  0  0  0  0  0  0  0  0
    5.4986    2.9376    0.7086 H   0  0  0  0  0  0  0  0  0  0  0  0
    6.5346    1.9766    1.7910 H   0  0  0  0  0  0  0  0  0  0  0  0
    4.6939   -0.0868    2.2718 H   0  0  0  0  0  0  0  0  0  0  0  0
    6.6100   -0.9566   -2.1034 H   0  0  0  0  0  0  0  0  0  0  0  0
    4.8838   -0.8720   -1.7512 H   0  0  0  0  0  0  0  0  0  0  0  0
    5.9945   -1.6592   -0.6053 H   0  0  0  0  0  0  0  0  0  0  0  0
  1 15  1  0  0  0  0
  1 18  1  0  0  0  0
  2 16  1  0  0  0  0
  2 28  1  0  0  0  0
  3 15  1  0  0  0  0
  3 55  1  0  0  0  0
  4 20  1  0  0  0  0
  4 57  1  0  0  0  0
  5 22  1  0  0  0  0
  5 58  1  0  0  0  0
  6 23  1  0  0  0  0
  6 31  1  0  0  0  0
  7 26  1  0  0  0  0
  7 62  1  0  0  0  0
  8 28  2  0  0  0  0
  9 31  2  0  0  0  0
 10 32  1  0  0  0  0
 10 68  1  0  0  0  0
 11 12  1  0  0  0  0
 11 14  1  0  0  0  0
 11 16  1  0  0  0  0
 11 18  1  0  0  0  0
 12 13  1  0  0  0  0
 12 15  1  0  0  0  0
 12 36  1  0  0  0  0
 13 17  1  0  0  0  0
 13 22  1  0  0  0  0
 13 24  1  0  0  0  0
 14 19  1  0  0  0  0
 14 23  1  0  0  0  0
 14 37  1  0  0  0  0
 15 20  1  0  0  0  0
 16 21  1  0  0  0  0
 16 38  1  0  0  0  0
 17 21  1  0  0  0  0
 17 25  1  0  0  0  0
 17 39  1  0  0  0  0
 18 40  1  0  0  0  0
 18 41  1  0  0  0  0
 19 20  1  0  0  0  0
 19 27  1  0  0  0  0
 19 42  1  0  0  0  0
 20 43  1  0  0  0  0
 21 44  1  0  0  0  0
 21 45  1  0  0  0  0
 22 26  1  0  0  0  0
 22 46  1  0  0  0  0
 23 28  1  0  0  0  0
 23 47  1  0  0  0  0
 24 48  1  0  0  0  0
 24 49  1  0  0  0  0
 24 50  1  0  0  0  0
 25 29  2  0  0  0  0
 25 30  1  0  0  0  0
 26 29  1  0  0  0  0
 26 51  1  0  0  0  0
 27 52  1  0  0  0  0
 27 53  1  0  0  0  0
 27 54  1  0  0  0  0
 29 56  1  0  0  0  0
 30 59  1  0  0  0  0
 30 60  1  0  0  0  0
 30 61  1  0  0  0  0
 31 32  1  0  0  0  0
 32 33  1  0  0  0  0
 32 34  1  0  0  0  0
 33 35  1  0  0  0  0
 33 63  1  0  0  0  0
 33 64  1  0  0  0  0
 34 65  1  0  0  0  0
 34 66  1  0  0  0  0
 34 67  1  0  0  0  0
 35 69  1  0  0  0  0
 35 70  1  0  0  0  0
 35 71  1  0  0  0  0
M  END
> <PUBCHEM_COMPOUND_CID>
441794

> <PUBCHEM_CONFORMER_RMSD>
0.8

> <PUBCHEM_CONFORMER_DIVERSEORDER>
2
5
7
1
3
6
4

> <PUBCHEM_MMFF94_PARTIAL_CHARGES>
30
1 -0.56
10 -0.68
15 0.56
16 0.28
17 0.14
18 0.28
2 -0.43
20 0.28
22 0.28
23 0.34
25 -0.28
26 0.42
28 0.66
29 -0.29
3 -0.68
30 0.14
31 0.66
32 0.34
4 -0.68
5 -0.68
55 0.4
56 0.15
57 0.4
58 0.4
6 -0.43
62 0.4
68 0.4
7 -0.68
8 -0.57
9 -0.57

> <PUBCHEM_EFFECTIVE_ROTOR_COUNT>
5.8

> <PUBCHEM_PHARMACOPHORE_FEATURES>
18
1 1 acceptor
1 10 acceptor
1 10 donor
1 3 acceptor
1 3 donor
1 35 hydrophobe
1 4 acceptor
1 4 donor
1 5 acceptor
1 5 donor
1 7 acceptor
1 7 donor
1 8 acceptor
1 9 acceptor
6 11 12 13 16 17 21 rings
6 13 17 22 25 26 29 rings
6 2 11 14 16 23 28 rings
8 1 11 12 14 15 18 19 20 rings

> <PUBCHEM_HEAVY_ATOM_COUNT>
35

> <PUBCHEM_ATOM_DEF_STEREO_COUNT>
13

> <PUBCHEM_ATOM_UDEF_STEREO_COUNT>
0

> <PUBCHEM_BOND_DEF_STEREO_COUNT>
0

> <PUBCHEM_BOND_UDEF_STEREO_COUNT>
0

> <PUBCHEM_ISOTOPIC_ATOM_COUNT>
0

> <PUBCHEM_COMPONENT_COUNT>
1

> <PUBCHEM_CACTVS_TAUTO_COUNT>
1

> <PUBCHEM_CONFORMER_ID>
0006BDC200000002

> <PUBCHEM_MMFF94_ENERGY>
143.1297

> <PUBCHEM_FEATURE_SELFOVERLAP>
91.569

> <PUBCHEM_SHAPE_FINGERPRINT>
10165383 225 18408599266948425065
10675989 125 17189270816294525453
11007060 377 18336275526540378912
11112241 14 16952275135386601712
11115154 58 17102591474733962039
11488393 25 17900810858336406302
11578080 2 17200525297119672877
12011746 2 18340215119746715103
12166972 35 5761354643658869929
12422481 6 18269571562419133706
12633257 1 18336828593631237793
13140716 1 18052256198296967397
13544653 18 12247681582159228110
14068700 675 17903930959177961943
14341114 328 17131830980112350200
14790565 3 18337957908264057148
14856354 85 17560790013971450698
14955137 171 18271515438542005572
15183329 4 17022899073540970644
15209289 33 18339649923499140618
15420108 30 18259983816803968335
1601671 61 18408324401915807400
16945 1 18337674105494076727
17349148 13 8069757338002152128
1813 80 15769485516979376063
19784866 170 18271525385327112060
21033648 29 18334588948528092809
21279426 13 18334573598941905758
21403212 168 18260830423287193521
21756936 100 18409738330950855966
22182313 1 18270115854470073517
23402539 116 8790895093925442356
23559900 14 17700403969063077911
23569943 247 16879622911553226694
2838139 119 16009027315013961313
3298306 158 18337960085738538948
3411729 13 18266741483755693117
350125 39 18262806164141179703
392239 28 18201712930094000707
404807 14 14929805121729625166
4058900 60 18124873722816167865
4093350 32 17168699881197518855
46194498 28 6626305227478808163
508706 21 18410857641992907399
5104073 3 18129101306311849561
5265222 85 18268699534135071716
56638632 10 18113903749730828441
56638632 33 16195096766055899675
6086070 43 17677071108124038313
7226269 152 18040999536023644688
77296 10 6483086106820008324

> <PUBCHEM_SHAPE_MULTIPOLES>
661.59
11.79
3.36
1.74
8.94
0.68
-0.02
-5.97
-3.22
-1.18
0.02
-0.75
0.14
1.17

> <PUBCHEM_SHAPE_SELFOVERLAP>
1436.621

> <PUBCHEM_SHAPE_VOLUME>
353

> <PUBCHEM_COORDINATE_TYPE>
2
5
10

$$$$

