188287
  -OEChem-07051213003D

 18 18  0     0  0  0  0  0  0999 V2000
   -1.7596    1.7948    0.0928 O   0  0  0  0  0  0  0  0  0  0  0  0
   -2.5236   -1.4266   -0.7320 O   0  0  0  0  0  0  0  0  0  0  0  0
    2.8865   -1.1701   -0.0399 O   0  0  0  0  0  0  0  0  0  0  0  0
   -0.6615   -0.3294    0.2604 C   0  0  0  0  0  0  0  0  0  0  0  0
   -0.6185    1.0509    0.0630 C   0  0  0  0  0  0  0  0  0  0  0  0
    0.5164   -1.0758    0.2257 C   0  0  0  0  0  0  0  0  0  0  0  0
   -1.9593   -1.0241    0.5094 C   0  0  0  0  0  0  0  0  0  0  0  0
    1.7371   -0.4421   -0.0065 C   0  0  0  0  0  0  0  0  0  0  0  0
    0.6024    1.6844   -0.1691 C   0  0  0  0  0  0  0  0  0  0  0  0
    1.7802    0.9380   -0.2039 C   0  0  0  0  0  0  0  0  0  0  0  0
    0.4835   -2.1522    0.3775 H   0  0  0  0  0  0  0  0  0  0  0  0
   -1.8123   -1.9140    1.1320 H   0  0  0  0  0  0  0  0  0  0  0  0
   -2.6719   -0.3787    1.0340 H   0  0  0  0  0  0  0  0  0  0  0  0
    0.6506    2.7589   -0.3247 H   0  0  0  0  0  0  0  0  0  0  0  0
    2.7281    1.4371   -0.3851 H   0  0  0  0  0  0  0  0  0  0  0  0
   -1.5343    2.7279   -0.0637 H   0  0  0  0  0  0  0  0  0  0  0  0
   -3.3599   -1.8805   -0.5312 H   0  0  0  0  0  0  0  0  0  0  0  0
    2.6720   -2.1059    0.1161 H   0  0  0  0  0  0  0  0  0  0  0  0
  1  5  1  0  0  0  0
  1 16  1  0  0  0  0
  2  7  1  0  0  0  0
  2 17  1  0  0  0  0
  3  8  1  0  0  0  0
  3 18  1  0  0  0  0
  4  5  2  0  0  0  0
  4  6  1  0  0  0  0
  4  7  1  0  0  0  0
  5  9  1  0  0  0  0
  6  8  2  0  0  0  0
  6 11  1  0  0  0  0
  7 12  1  0  0  0  0
  7 13  1  0  0  0  0
  8 10  1  0  0  0  0
  9 10  2  0  0  0  0
  9 14  1  0  0  0  0
 10 15  1  0  0  0  0
M  END
> <PUBCHEM_COMPOUND_CID>
188287

> <PUBCHEM_CONFORMER_RMSD>
0.4

> <PUBCHEM_CONFORMER_DIVERSEORDER>
2
1
4
3

> <PUBCHEM_MMFF94_PARTIAL_CHARGES>
16
1 -0.53
10 -0.15
11 0.15
14 0.15
15 0.15
16 0.45
17 0.4
18 0.45
2 -0.68
3 -0.53
4 -0.14
5 0.08
6 -0.15
7 0.42
8 0.08
9 -0.15

> <PUBCHEM_EFFECTIVE_ROTOR_COUNT>
1

> <PUBCHEM_PHARMACOPHORE_FEATURES>
5
1 1 donor
1 2 acceptor
1 2 donor
1 3 donor
6 4 5 6 8 9 10 rings

> <PUBCHEM_HEAVY_ATOM_COUNT>
10

> <PUBCHEM_ATOM_DEF_STEREO_COUNT>
0

> <PUBCHEM_ATOM_UDEF_STEREO_COUNT>
0

> <PUBCHEM_BOND_DEF_STEREO_COUNT>
0

> <PUBCHEM_BOND_UDEF_STEREO_COUNT>
0

> <PUBCHEM_ISOTOPIC_ATOM_COUNT>
0

> <PUBCHEM_COMPONENT_COUNT>
1

> <PUBCHEM_CACTVS_TAUTO_COUNT>
7

> <PUBCHEM_CONFORMER_ID>
0002DF7F00000002

> <PUBCHEM_MMFF94_ENERGY>
22.0852

> <PUBCHEM_FEATURE_SELFOVERLAP>
25.371

> <PUBCHEM_SHAPE_FINGERPRINT>
11206711 2 18342451539066293956
14128692 85 18335697222041437894
16945 1 18124307216687380064
18185500 45 18270678804455116842
20871998 184 18261671600778989974
21040471 1 17979916334645073640
23552423 10 18273208694927301934
241688 4 18342175596034100488
2748010 2 18411699893880570916
29004967 10 18125998265496916819
5084963 1 18259981561392126650

> <PUBCHEM_SHAPE_MULTIPOLES>
188.19
3.24
1.9
0.68
0.01
0.57
0.01
-1.33
0.31
0.2
0.05
0.17
-0.08
-0.19

> <PUBCHEM_SHAPE_SELFOVERLAP>
392.432

> <PUBCHEM_SHAPE_VOLUME>
107.5

> <PUBCHEM_COORDINATE_TYPE>
2
5
10

$$$$

