443051
  -OEChem-07051213003D

 43 44  0     1  0  0  0  0  0999 V2000
   -3.0390    1.0114    0.9017 P   0  0  2  0  0  0  0  0  0  0  0  0
   -3.7329   -1.2994   -0.7815 P   0  0  0  0  0  0  0  0  0  0  0  0
    1.1791    1.9097    0.9882 O   0  0  0  0  0  0  0  0  0  0  0  0
    2.0162    4.4722   -0.4627 O   0  0  0  0  0  0  0  0  0  0  0  0
   -1.6195    1.7734    1.0454 O   0  0  0  0  0  0  0  0  0  0  0  0
    4.7049    0.1550   -0.0797 O   0  0  0  0  0  0  0  0  0  0  0  0
   -2.7405   -0.2188   -0.1041 O   0  0  0  0  0  0  0  0  0  0  0  0
   -3.9449    2.0098    0.0073 O   0  0  0  0  0  0  0  0  0  0  0  0
   -3.6674    0.6036    2.2027 O   0  0  0  0  0  0  0  0  0  0  0  0
    0.2015   -3.8643    1.0575 O   0  0  0  0  0  0  0  0  0  0  0  0
   -4.6388   -0.4026   -1.7754 O   0  0  0  0  0  0  0  0  0  0  0  0
   -2.7607   -2.1113   -1.7853 O   0  0  0  0  0  0  0  0  0  0  0  0
   -4.4965   -2.1458    0.1937 O   0  0  0  0  0  0  0  0  0  0  0  0
    2.4073    0.1305    0.0933 N   0  0  0  0  0  0  0  0  0  0  0  0
    3.6924   -1.8741   -0.0763 N   0  0  0  0  0  0  0  0  0  0  0  0
    2.6984   -3.9601   -0.0769 N   0  0  0  0  0  0  0  0  0  0  0  0
    1.1913    3.3825   -0.8696 C   0  0  2  0  0  0  0  0  0  0  0  0
    0.3669    2.8879    0.3107 C   0  0  1  0  0  0  0  0  0  0  0  0
    2.0545    2.1892   -1.2082 C   0  0  0  0  0  0  0  0  0  0  0  0
    2.2922    1.5583    0.1541 C   0  0  1  0  0  0  0  0  0  0  0  0
   -0.9281    2.2079   -0.1143 C   0  0  0  0  0  0  0  0  0  0  0  0
    1.2501   -0.6104    0.1528 C   0  0  0  0  0  0  0  0  0  0  0  0
    3.6586   -0.4935   -0.0239 C   0  0  0  0  0  0  0  0  0  0  0  0
    1.2481   -1.9455    0.1042 C   0  0  0  0  0  0  0  0  0  0  0  0
    2.5960   -2.5873   -0.0200 C   0  0  0  0  0  0  0  0  0  0  0  0
    0.0108   -2.7784    0.1661 C   0  0  0  0  0  0  0  0  0  0  0  0
    0.5796    3.7276   -1.7085 H   0  0  0  0  0  0  0  0  0  0  0  0
    0.1556    3.6837    1.0337 H   0  0  0  0  0  0  0  0  0  0  0  0
    2.9972    2.4440   -1.7024 H   0  0  0  0  0  0  0  0  0  0  0  0
    1.5016    1.5093   -1.8677 H   0  0  0  0  0  0  0  0  0  0  0  0
    3.1894    1.9869    0.6163 H   0  0  0  0  0  0  0  0  0  0  0  0
   -0.7597    1.3614   -0.7836 H   0  0  0  0  0  0  0  0  0  0  0  0
   -1.5593    2.9294   -0.6442 H   0  0  0  0  0  0  0  0  0  0  0  0
    2.5673    4.7199   -1.2247 H   0  0  0  0  0  0  0  0  0  0  0  0
    0.3071   -0.0993    0.2502 H   0  0  0  0  0  0  0  0  0  0  0  0
   -0.2151   -3.1882   -0.8232 H   0  0  0  0  0  0  0  0  0  0  0  0
   -0.8583   -2.2074    0.5058 H   0  0  0  0  0  0  0  0  0  0  0  0
    3.6049   -4.4076   -0.1602 H   0  0  0  0  0  0  0  0  0  0  0  0
    1.8883   -4.5693   -0.0443 H   0  0  0  0  0  0  0  0  0  0  0  0
   -4.3740    2.7777    0.4414 H   0  0  0  0  0  0  0  0  0  0  0  0
    0.3649   -3.4957    1.9427 H   0  0  0  0  0  0  0  0  0  0  0  0
   -5.3836   -0.8271   -2.2520 H   0  0  0  0  0  0  0  0  0  0  0  0
   -3.1137   -2.8941   -2.2592 H   0  0  0  0  0  0  0  0  0  0  0  0
  1  5  1  0  0  0  0
  1  7  1  0  0  0  0
  1  8  1  0  0  0  0
  1  9  2  0  0  0  0
  2  7  1  0  0  0  0
  2 11  1  0  0  0  0
  2 12  1  0  0  0  0
  2 13  2  0  0  0  0
  3 18  1  0  0  0  0
  3 20  1  0  0  0  0
  4 17  1  0  0  0  0
  4 34  1  0  0  0  0
  5 21  1  0  0  0  0
  6 23  2  0  0  0  0
  8 40  1  0  0  0  0
 10 26  1  0  0  0  0
 10 41  1  0  0  0  0
 11 42  1  0  0  0  0
 12 43  1  0  0  0  0
 14 20  1  0  0  0  0
 14 22  1  0  0  0  0
 14 23  1  0  0  0  0
 15 23  1  0  0  0  0
 15 25  2  0  0  0  0
 16 25  1  0  0  0  0
 16 38  1  0  0  0  0
 16 39  1  0  0  0  0
 17 18  1  0  0  0  0
 17 19  1  0  0  0  0
 17 27  1  0  0  0  0
 18 21  1  0  0  0  0
 18 28  1  0  0  0  0
 19 20  1  0  0  0  0
 19 29  1  0  0  0  0
 19 30  1  0  0  0  0
 20 31  1  0  0  0  0
 21 32  1  0  0  0  0
 21 33  1  0  0  0  0
 22 24  2  0  0  0  0
 22 35  1  0  0  0  0
 24 25  1  0  0  0  0
 24 26  1  0  0  0  0
 26 36  1  0  0  0  0
 26 37  1  0  0  0  0
M  END
> <PUBCHEM_COMPOUND_CID>
443051

> <PUBCHEM_CONFORMER_RMSD>
0.8

> <PUBCHEM_CONFORMER_DIVERSEORDER>
1
200
214
166
261
368
74
255
204
150
168
265
216
287
294
181
151
292
156
170
222
269
330
55
332
59
60
159
322
283
202
9
158
348
127
277
66
366
99
363
306
293
344
308
192
97
239
70
207
101
187
281
249
180
34
297
146
226
373
188
302
162
183
379
189
185
248
247
133
362
49
178
62
243
309
354
358
56
4
258
237
240
35
246
143
296
376
340
198
250
153
116
241
271
184
290
163
286
43
223
341
186
351
295
369
109
251
353
357
169
381
268
193
84
273
121
155
339
209
140
94
218
54
267
90
276
157
149
58
126
89
205
117
280
230
325
147
323
18
321
196
221
30
142
337
275
2
154
334
113
82
44
338
317
88
122
364
377
279
177
298
64
349
313
91
312
83
174
108
282
27
307
208
86
20
197
211
378
119
350
231
10
81
134
173
128
253
371
160
238
229
175
305
52
24
212
120
327
67
111
106
291
278
254
139
71
33
114
191
112
13
355
26
61
39
360
284
176
144
131
138
260
19
152
11
374
104
217
333
69
311
228
136
141
42
102
210
6
161
130
135
303
225
331
382
124
190
72
375
315
182
137
115
57
262
318
380
252
73
195
300
22
272
367
129
96
359
14
328
320
23
87
289
232
145
79
219
245
227
77
105
356
12
92
274
194
343
172
28
304
132
352
201
103
365
51
179
78
40
75
299
244
125
270
164
263
95
31
326
234
8
329
37
107
224
336
288
65
342
319
45
32
242
361
347
310
370
76
110
118
38
335
16
85
264
203
259
165
233
47
256
301
206
80
220
285
48
63
199
346
213
345
316
29
17
7
15
235
314
123
25
215
36
171
53
257
46
98
324
100
167
3
372
68
5
236
21
41
148
93
50
266

> <PUBCHEM_MMFF94_PARTIAL_CHARGES>
33
1 1.51
10 -0.68
11 -0.77
12 -0.77
13 -0.7
14 -0.47
15 -0.66
16 -0.85
17 0.28
18 0.28
2 1.51
20 0.58
21 0.28
22 -0.04
23 0.84
24 -0.12
25 0.49
26 0.42
3 -0.56
34 0.4
35 0.15
38 0.4
39 0.4
4 -0.68
40 0.5
41 0.4
42 0.5
43 0.5
5 -0.55
6 -0.57
7 -0.54
8 -0.77
9 -0.7

> <PUBCHEM_EFFECTIVE_ROTOR_COUNT>
8

> <PUBCHEM_PHARMACOPHORE_FEATURES>
16
1 10 acceptor
1 10 donor
1 11 acceptor
1 12 acceptor
1 13 acceptor
1 15 donor
1 16 donor
1 3 acceptor
1 4 acceptor
1 4 donor
1 6 acceptor
1 8 acceptor
1 9 acceptor
4 2 11 12 13 anion
5 3 17 18 19 20 rings
6 14 15 22 23 24 25 rings

> <PUBCHEM_HEAVY_ATOM_COUNT>
26

> <PUBCHEM_ATOM_DEF_STEREO_COUNT>
3

> <PUBCHEM_ATOM_UDEF_STEREO_COUNT>
0

> <PUBCHEM_BOND_DEF_STEREO_COUNT>
0

> <PUBCHEM_BOND_UDEF_STEREO_COUNT>
0

> <PUBCHEM_ISOTOPIC_ATOM_COUNT>
0

> <PUBCHEM_COMPONENT_COUNT>
1

> <PUBCHEM_CACTVS_TAUTO_COUNT>
3

> <PUBCHEM_CONFORMER_ID>
0006C2AB00000001

> <PUBCHEM_MMFF94_ENERGY>
10.032

> <PUBCHEM_FEATURE_SELFOVERLAP>
81.292

> <PUBCHEM_SHAPE_FINGERPRINT>
1100329 8 18195247719991763162
12539773 59 17821725061740948579
12553582 1 18339918350053911346
12596599 1 17823123691559338687
13004483 165 17837212936526391616
13140716 1 18194973061223188002
138480 1 18411419526847147540
14117953 113 17614285893665120685
14787075 74 18041282084921598792
14790565 3 18267857303654263388
15537594 2 18264749108044567144
17492 54 18201714012520659244
20645477 70 18200597982333014345
21634736 98 18335139748028894422
238 59 18199466571676636873
338550 245 18410852123513845629
392239 28 18040443213368051624
46194498 28 17846785092085687989
463206 1 18339640160980532577

> <PUBCHEM_SHAPE_MULTIPOLES>
463.26
7.94
5.37
1.22
5.75
0.13
0.01
-2.7
0.93
-3.15
0.3
1.43
0.09
-1.36

> <PUBCHEM_SHAPE_SELFOVERLAP>
932.95

> <PUBCHEM_SHAPE_VOLUME>
273.3

> <PUBCHEM_COORDINATE_TYPE>
2
5
10

$$$$

