213013
  -OEChem-07051213123D

 35 37  0     0  0  0  0  0  0999 V2000
    2.5803    4.8660   -0.2263 Cl  0  0  0  0  0  0  0  0  0  0  0  0
   -1.8453    0.6928    2.2262 Cl  0  0  0  0  0  0  0  0  0  0  0  0
   -2.0536   -2.5836   -0.0137 O   0  0  0  0  0  0  0  0  0  0  0  0
   -0.3745   -0.9395   -0.0560 N   0  0  0  0  0  0  0  0  0  0  0  0
   -3.8151    1.5606    0.8060 N   0  0  0  0  0  0  0  0  0  0  0  0
    2.0581   -1.0656   -0.0337 C   0  0  0  0  0  0  0  0  0  0  0  0
    0.8072   -1.6870   -0.0225 C   0  0  0  0  0  0  0  0  0  0  0  0
    2.1845    0.3751   -0.0807 C   0  0  0  0  0  0  0  0  0  0  0  0
    3.2181   -1.8424    0.0009 C   0  0  0  0  0  0  0  0  0  0  0  0
    0.7172   -3.0783    0.0231 C   0  0  0  0  0  0  0  0  0  0  0  0
    2.2546    1.0292   -1.3106 C   0  0  0  0  0  0  0  0  0  0  0  0
    2.2369    1.1097    1.1039 C   0  0  0  0  0  0  0  0  0  0  0  0
    3.1280   -3.2337    0.0467 C   0  0  0  0  0  0  0  0  0  0  0  0
    1.8777   -3.8515    0.0578 C   0  0  0  0  0  0  0  0  0  0  0  0
   -1.6911   -1.4127   -0.0500 C   0  0  0  0  0  0  0  0  0  0  0  0
   -2.7425   -0.3644   -0.1217 C   0  0  0  0  0  0  0  0  0  0  0  0
    2.3773    2.4179   -1.3559 C   0  0  0  0  0  0  0  0  0  0  0  0
    2.3595    2.4984    1.0588 C   0  0  0  0  0  0  0  0  0  0  0  0
    2.4297    3.1526   -0.1713 C   0  0  0  0  0  0  0  0  0  0  0  0
   -3.5998   -0.3768   -1.1975 C   0  0  0  0  0  0  0  0  0  0  0  0
   -2.8691    0.5956    0.8464 C   0  0  0  0  0  0  0  0  0  0  0  0
   -4.5865    0.6000   -1.2740 C   0  0  0  0  0  0  0  0  0  0  0  0
   -4.6514    1.5374   -0.2559 C   0  0  0  0  0  0  0  0  0  0  0  0
    4.2023   -1.3792   -0.0070 H   0  0  0  0  0  0  0  0  0  0  0  0
   -0.2043   -3.6408    0.0348 H   0  0  0  0  0  0  0  0  0  0  0  0
   -0.2640    0.0704   -0.0968 H   0  0  0  0  0  0  0  0  0  0  0  0
    2.2144    0.4717   -2.2434 H   0  0  0  0  0  0  0  0  0  0  0  0
    2.1820    0.6154    2.0710 H   0  0  0  0  0  0  0  0  0  0  0  0
    4.0314   -3.8359    0.0736 H   0  0  0  0  0  0  0  0  0  0  0  0
    1.8093   -4.9350    0.0935 H   0  0  0  0  0  0  0  0  0  0  0  0
    2.4305    2.9144   -2.3214 H   0  0  0  0  0  0  0  0  0  0  0  0
    2.3983    3.0578    1.9899 H   0  0  0  0  0  0  0  0  0  0  0  0
   -3.5215   -1.1241   -1.9813 H   0  0  0  0  0  0  0  0  0  0  0  0
   -5.2823    0.6271   -2.1048 H   0  0  0  0  0  0  0  0  0  0  0  0
   -5.4026    2.3203   -0.2689 H   0  0  0  0  0  0  0  0  0  0  0  0
  1 19  1  0  0  0  0
  2 21  1  0  0  0  0
  3 15  2  0  0  0  0
  4  7  1  0  0  0  0
  4 15  1  0  0  0  0
  4 26  1  0  0  0  0
  5 21  1  0  0  0  0
  5 23  2  0  0  0  0
  6  7  1  0  0  0  0
  6  8  1  0  0  0  0
  6  9  2  0  0  0  0
  7 10  2  0  0  0  0
  8 11  2  0  0  0  0
  8 12  1  0  0  0  0
  9 13  1  0  0  0  0
  9 24  1  0  0  0  0
 10 14  1  0  0  0  0
 10 25  1  0  0  0  0
 11 17  1  0  0  0  0
 11 27  1  0  0  0  0
 12 18  2  0  0  0  0
 12 28  1  0  0  0  0
 13 14  2  0  0  0  0
 13 29  1  0  0  0  0
 14 30  1  0  0  0  0
 15 16  1  0  0  0  0
 16 20  1  0  0  0  0
 16 21  2  0  0  0  0
 17 19  2  0  0  0  0
 17 31  1  0  0  0  0
 18 19  1  0  0  0  0
 18 32  1  0  0  0  0
 20 22  2  0  0  0  0
 20 33  1  0  0  0  0
 22 23  1  0  0  0  0
 22 34  1  0  0  0  0
 23 35  1  0  0  0  0
M  END
> <PUBCHEM_COMPOUND_CID>
213013

> <PUBCHEM_CONFORMER_RMSD>
0.6

> <PUBCHEM_CONFORMER_DIVERSEORDER>
1
9
15
16
12
18
11
8
17
6
14
5
13
7
10
2
3
4

> <PUBCHEM_MMFF94_PARTIAL_CHARGES>
33
1 -0.18
10 -0.15
11 -0.15
12 -0.15
13 -0.15
14 -0.15
15 0.54
16 0.09
17 -0.15
18 -0.15
19 0.18
2 -0.18
20 -0.15
21 0.49
22 -0.15
23 0.16
24 0.15
25 0.15
26 0.37
27 0.15
28 0.15
29 0.15
3 -0.57
30 0.15
31 0.15
32 0.15
33 0.15
34 0.15
35 0.15
4 -0.55
5 -0.62
7 0.12
9 -0.15

> <PUBCHEM_EFFECTIVE_ROTOR_COUNT>
4

> <PUBCHEM_PHARMACOPHORE_FEATURES>
6
1 3 acceptor
1 4 donor
1 5 acceptor
6 5 16 20 21 22 23 rings
6 6 7 9 10 13 14 rings
6 8 11 12 17 18 19 rings

> <PUBCHEM_HEAVY_ATOM_COUNT>
23

> <PUBCHEM_ATOM_DEF_STEREO_COUNT>
0

> <PUBCHEM_ATOM_UDEF_STEREO_COUNT>
0

> <PUBCHEM_BOND_DEF_STEREO_COUNT>
0

> <PUBCHEM_BOND_UDEF_STEREO_COUNT>
0

> <PUBCHEM_ISOTOPIC_ATOM_COUNT>
0

> <PUBCHEM_COMPONENT_COUNT>
1

> <PUBCHEM_CACTVS_TAUTO_COUNT>
2

> <PUBCHEM_CONFORMER_ID>
0003401500000001

> <PUBCHEM_MMFF94_ENERGY>
78.437

> <PUBCHEM_FEATURE_SELFOVERLAP>
30.446

> <PUBCHEM_SHAPE_FINGERPRINT>
10165383 225 17622397776579295516
10498660 4 18122059806415174157
10937287 8 18124033425312684412
11370993 70 18194412099523126365
11578080 2 13464706840055029614
12156800 1 14238362502479733574
12166972 35 18189623902794065883
12173636 292 17763183540498880350
12553582 1 18122047956695213522
12788726 201 17695064801124220514
13004483 165 17691693698140701514
13009979 54 17678451085442989155
13134695 92 18268711795428126262
13140716 1 18341614776336985130
13583140 156 18129934698151902115
13590594 115 18050846916347896496
138480 1 18338800142618436940
13965767 371 17987534623123268012
14468879 13 18059013857286843337
14790565 3 18340484462011156572
151778 21 18341313531778843537
15420108 30 18117306725539465178
1601671 61 18412266160123790038
17980427 23 17677905701836944042
18335252 114 17907310102360968269
192875 21 18115875276957392851
19930381 70 18340493275067692205
20510252 161 17615961119493566778
20567600 299 18337399364783733397
20671657 1 18410291423680091567
21133410 127 17988649558195649349
21133410 90 16955374911879462905
21315764 21 18338519750374886217
21641784 216 17623827417248961270
21860390 5 18261674899335148422
2255824 54 18409447003171611734
22749437 52 18338524027861125445
23557571 272 16606018909231467692
23559900 14 18410302427650320627
238 59 18410282597400810177
345986 75 17053885698823892178
350125 39 18268136561889642522
4409770 3 16969990848484244334
474 4 18411707573313601671
550186 7 17111828381508095812
6443956 14 18267307723442670444
6523845 18 17907825480465054876
7808743 9 17475513872338931484
84936 182 18334577889081633624
9971528 1 18190469452916367738
9981440 41 18122918520479285352

> <PUBCHEM_SHAPE_MULTIPOLES>
461.24
7.76
5.32
1.31
9.21
1.21
-0.33
3.29
1.34
-7.27
0.26
0.59
0.71
-0.5

> <PUBCHEM_SHAPE_SELFOVERLAP>
996.3

> <PUBCHEM_SHAPE_VOLUME>
254

> <PUBCHEM_COORDINATE_TYPE>
2
5
10

$$$$

