582929
  -OEChem-06241222443D

 35 36  0     0  0  0  0  0  0999 V2000
   -1.3718   -1.6677   -0.8106 C   0  0  0  0  0  0  0  0  0  0  0  0
   -1.6747   -0.6506    0.3007 C   0  0  0  0  0  0  0  0  0  0  0  0
    0.0034   -2.3422   -0.7091 C   0  0  0  0  0  0  0  0  0  0  0  0
   -3.0316    0.0037    0.2319 C   0  0  0  0  0  0  0  0  0  0  0  0
    1.1518   -1.3775   -0.7916 C   0  0  0  0  0  0  0  0  0  0  0  0
   -3.1836    1.1830   -0.4818 C   0  0  0  0  0  0  0  0  0  0  0  0
   -4.1050   -0.5842    0.8839 C   0  0  0  0  0  0  0  0  0  0  0  0
    2.0632   -1.2284    0.1823 C   0  0  0  0  0  0  0  0  0  0  0  0
    3.1899   -0.2808    0.1579 C   0  0  0  0  0  0  0  0  0  0  0  0
   -4.4387    1.7885   -0.5450 C   0  0  0  0  0  0  0  0  0  0  0  0
   -5.3601    0.0212    0.8205 C   0  0  0  0  0  0  0  0  0  0  0  0
   -5.5269    1.2076    0.1061 C   0  0  0  0  0  0  0  0  0  0  0  0
    3.1439    0.8079   -0.6987 C   0  0  0  0  0  0  0  0  0  0  0  0
    4.2758   -0.4943    0.9924 C   0  0  0  0  0  0  0  0  0  0  0  0
    4.2111    1.7060   -0.7214 C   0  0  0  0  0  0  0  0  0  0  0  0
    5.3429    0.4037    0.9698 C   0  0  0  0  0  0  0  0  0  0  0  0
    5.3104    1.5039    0.1128 C   0  0  0  0  0  0  0  0  0  0  0  0
   -2.1415   -2.4502   -0.7995 H   0  0  0  0  0  0  0  0  0  0  0  0
   -1.4588   -1.1709   -1.7859 H   0  0  0  0  0  0  0  0  0  0  0  0
   -0.9121    0.1391    0.2986 H   0  0  0  0  0  0  0  0  0  0  0  0
   -1.5679   -1.1443    1.2762 H   0  0  0  0  0  0  0  0  0  0  0  0
    0.1027   -3.0631   -1.5296 H   0  0  0  0  0  0  0  0  0  0  0  0
    0.0478   -2.9217    0.2213 H   0  0  0  0  0  0  0  0  0  0  0  0
    1.2089   -0.8095   -1.7153 H   0  0  0  0  0  0  0  0  0  0  0  0
   -2.3427    1.6417   -0.9941 H   0  0  0  0  0  0  0  0  0  0  0  0
   -3.9856   -1.5090    1.4410 H   0  0  0  0  0  0  0  0  0  0  0  0
    1.9823   -1.8397    1.0784 H   0  0  0  0  0  0  0  0  0  0  0  0
   -4.5687    2.7120   -1.1018 H   0  0  0  0  0  0  0  0  0  0  0  0
   -6.2076   -0.4313    1.3270 H   0  0  0  0  0  0  0  0  0  0  0  0
   -6.5042    1.6789    0.0566 H   0  0  0  0  0  0  0  0  0  0  0  0
    2.2997    1.0160   -1.3484 H   0  0  0  0  0  0  0  0  0  0  0  0
    4.3164   -1.3473    1.6646 H   0  0  0  0  0  0  0  0  0  0  0  0
    4.1842    2.5657   -1.3848 H   0  0  0  0  0  0  0  0  0  0  0  0
    6.1991    0.2465    1.6193 H   0  0  0  0  0  0  0  0  0  0  0  0
    6.1407    2.2037    0.0961 H   0  0  0  0  0  0  0  0  0  0  0  0
  1  2  1  0  0  0  0
  1  3  1  0  0  0  0
  1 18  1  0  0  0  0
  1 19  1  0  0  0  0
  2  4  1  0  0  0  0
  2 20  1  0  0  0  0
  2 21  1  0  0  0  0
  3  5  1  0  0  0  0
  3 22  1  0  0  0  0
  3 23  1  0  0  0  0
  4  6  2  0  0  0  0
  4  7  1  0  0  0  0
  5  8  2  0  0  0  0
  5 24  1  0  0  0  0
  6 10  1  0  0  0  0
  6 25  1  0  0  0  0
  7 11  2  0  0  0  0
  7 26  1  0  0  0  0
  8  9  1  0  0  0  0
  8 27  1  0  0  0  0
  9 13  2  0  0  0  0
  9 14  1  0  0  0  0
 10 12  2  0  0  0  0
 10 28  1  0  0  0  0
 11 12  1  0  0  0  0
 11 29  1  0  0  0  0
 12 30  1  0  0  0  0
 13 15  1  0  0  0  0
 13 31  1  0  0  0  0
 14 16  2  0  0  0  0
 14 32  1  0  0  0  0
 15 17  2  0  0  0  0
 15 33  1  0  0  0  0
 16 17  1  0  0  0  0
 16 34  1  0  0  0  0
 17 35  1  0  0  0  0
M  END
> <PUBCHEM_COMPOUND_CID>
582929

> <PUBCHEM_CONFORMER_RMSD>
0.6

> <PUBCHEM_CONFORMER_DIVERSEORDER>
1
42
32
17
8
43
12
44
23
11
21
41
18
45
2
35
16
4
24
20
37
38
22
6
26
25
19
34
29
15
39
36
27
13
14
33
31
3
40
9
7
30
10
28
5

> <PUBCHEM_MMFF94_PARTIAL_CHARGES>
28
10 -0.15
11 -0.15
12 -0.15
13 -0.15
14 -0.15
15 -0.15
16 -0.15
17 -0.15
2 0.14
24 0.15
25 0.15
26 0.15
27 0.15
28 0.15
29 0.15
3 0.14
30 0.15
31 0.15
32 0.15
33 0.15
34 0.15
35 0.15
4 -0.14
5 -0.29
6 -0.15
7 -0.15
8 -0.18
9 0.03

> <PUBCHEM_EFFECTIVE_ROTOR_COUNT>
5

> <PUBCHEM_PHARMACOPHORE_FEATURES>
3
4 1 2 3 5 hydrophobe
6 4 6 7 10 11 12 rings
6 9 13 14 15 16 17 rings

> <PUBCHEM_HEAVY_ATOM_COUNT>
17

> <PUBCHEM_ATOM_DEF_STEREO_COUNT>
0

> <PUBCHEM_ATOM_UDEF_STEREO_COUNT>
0

> <PUBCHEM_BOND_DEF_STEREO_COUNT>
0

> <PUBCHEM_BOND_UDEF_STEREO_COUNT>
1

> <PUBCHEM_ISOTOPIC_ATOM_COUNT>
0

> <PUBCHEM_COMPONENT_COUNT>
1

> <PUBCHEM_CACTVS_TAUTO_COUNT>
1

> <PUBCHEM_CONFORMER_ID>
0008E51100000001

> <PUBCHEM_MMFF94_ENERGY>
40.2153

> <PUBCHEM_FEATURE_SELFOVERLAP>
15.223

> <PUBCHEM_SHAPE_FINGERPRINT>
10354089 29 18060137626989704888
10498660 4 17822008683874110178
10670039 82 18042669745810336944
11128504 68 15574715806868599995
11796584 16 8574718996144541385
12363563 72 11095882695946181382
12403259 118 18343305833746830201
12523318 42 17203034206913987347
12555020 224 9727345793798220417
12596602 18 17131833144564916697
12633257 1 16056593227455567772
12760667 363 10807940362192640871
12892183 10 17632295704838410699
13583140 156 17274557489302515367
13785724 45 17907302409826971898
13914758 101 14979966870020100719
14123255 352 18409168813607232781
14123256 34 10952048991473965712
1420 369 11167944666771801836
14251764 30 6915680251249263277
14251764 38 18194400219691142849
14341114 176 17917708019845097368
14341114 328 17346310479785274524
14576447 43 8286207162960573654
15183329 4 7204504290349011867
15188451 53 15769484328069721675
17834072 32 18334858277552976588
17870717 6 7276829083103166625
1798214 20 8935001460286165318
18222031 100 12823293489948134866
193927 3 11455893593785321506
19784866 240 9871750212944434183
204376 136 18260547840182897503
20621476 66 18338795616482568732
21315764 119 5906061326515407193
2215653 11 9079112220836165345
22950370 63 9439402449630255687
23016692 55 10663820810108415034
23227448 37 18335420119531403959
23272321 79 18409449163793245711
235170 7 14345793889444146872
23559900 14 18052254291706800843
2767999 5 18113904861583311049
2838139 119 18260840297148078900
2871803 45 8286203846802813582
312425 54 16487257685654467377
314173 85 13110965335625581487
3472631 163 18041279855548423580
351380 180 18202845465340011601
351380 3 11024106546841175312
38570 142 17201332111548818612
4325135 7 18186804656628866847
4921388 177 15068631444132742245
5104073 3 18128808828425173915
7062679 13 9150878482546966157
7808743 9 18336828568151330726
7970288 3 10735881668453974016
960060 61 6194840384612452066

> <PUBCHEM_SHAPE_MULTIPOLES>
349.85
14.63
2.08
1.02
1.05
0.26
0.05
-8.42
3.42
-0.07
-0.65
-0.22
0.1
0.03

> <PUBCHEM_SHAPE_SELFOVERLAP>
731.242

> <PUBCHEM_SHAPE_VOLUME>
189

> <PUBCHEM_COORDINATE_TYPE>
2
5
10

$$$$

