440011
  -OEChem-07051212482D

 45 47  0     1  0  0  0  0  0999 V2000
    5.3548    1.1340    0.0000 S   0  0  0  0  0  0  0  0  0  0  0  0
    4.4026   -1.3675    0.0000 O   0  0  0  0  0  0  0  0  0  0  0  0
    6.7485   -2.4594    0.0000 O   0  0  0  0  0  0  0  0  0  0  0  0
    6.7523   -0.2838    0.0000 O   0  0  0  0  0  0  0  0  0  0  0  0
    2.8660   -5.9328    0.0000 O   0  0  0  0  0  0  0  0  0  0  0  0
    5.7735    5.4728    0.0000 O   0  0  0  0  0  0  0  0  0  0  0  0
    7.0586    4.3116    0.0000 O   0  0  0  0  0  0  0  0  0  0  0  0
    4.6783   -3.1281    0.0000 N   0  0  0  0  0  0  0  0  0  0  0  0
    4.6783   -4.7376    0.0000 N   0  0  0  0  0  0  0  0  0  0  0  0
    2.8660   -2.9328    0.0000 N   0  0  0  0  0  0  0  0  0  0  0  0
    2.0000   -4.4328    0.0000 N   0  0  0  0  0  0  0  0  0  0  0  0
    4.4327    3.9888    0.0000 N   0  0  0  0  0  0  0  0  0  0  0  0
    5.9405   -1.8702    0.0000 C   0  0  2  0  0  0  0  0  0  0  0  0
    5.9422   -0.8702    0.0000 C   0  0  1  0  0  0  0  0  0  0  0  0
    4.9889   -2.1776    0.0000 C   0  0  1  0  0  0  0  0  0  0  0  0
    4.9917   -0.5595    0.0000 C   0  0  1  0  0  0  0  0  0  0  0  0
    4.6844    0.3921    0.0000 C   0  0  0  0  0  0  0  0  0  0  0  0
    3.7320   -3.4328    0.0000 C   0  0  0  0  0  0  0  0  0  0  0  0
    5.2619   -3.9328    0.0000 C   0  0  0  0  0  0  0  0  0  0  0  0
    3.7320   -4.4328    0.0000 C   0  0  0  0  0  0  0  0  0  0  0  0
    5.0474    2.0856    0.0000 C   0  0  0  0  0  0  0  0  0  0  0  0
    5.7178    2.8276    0.0000 C   0  0  0  0  0  0  0  0  0  0  0  0
    2.8660   -4.9328    0.0000 C   0  0  0  0  0  0  0  0  0  0  0  0
    5.4104    3.7792    0.0000 C   0  0  1  0  0  0  0  0  0  0  0  0
    2.0000   -3.4328    0.0000 C   0  0  0  0  0  0  0  0  0  0  0  0
    6.0809    4.5212    0.0000 C   0  0  0  0  0  0  0  0  0  0  0  0
    6.4934   -1.5897    0.0000 H   0  0  0  0  0  0  0  0  0  0  0  0
    6.4942   -1.1526    0.0000 H   0  0  0  0  0  0  0  0  0  0  0  0
    5.4266   -2.6167    0.0000 H   0  0  0  0  0  0  0  0  0  0  0  0
    4.3795   -0.4615    0.0000 H   0  0  0  0  0  0  0  0  0  0  0  0
    4.3035    0.8813    0.0000 H   0  0  0  0  0  0  0  0  0  0  0  0
    4.1364    0.1019    0.0000 H   0  0  0  0  0  0  0  0  0  0  0  0
    7.3154   -2.2082    0.0000 H   0  0  0  0  0  0  0  0  0  0  0  0
    7.3182   -0.5370    0.0000 H   0  0  0  0  0  0  0  0  0  0  0  0
    5.8819   -3.9328    0.0000 H   0  0  0  0  0  0  0  0  0  0  0  0
    4.6665    2.5749    0.0000 H   0  0  0  0  0  0  0  0  0  0  0  0
    4.4995    1.7955    0.0000 H   0  0  0  0  0  0  0  0  0  0  0  0
    2.8660   -2.3128    0.0000 H   0  0  0  0  0  0  0  0  0  0  0  0
    6.0987    2.3384    0.0000 H   0  0  0  0  0  0  0  0  0  0  0  0
    6.2658    3.1177    0.0000 H   0  0  0  0  0  0  0  0  0  0  0  0
    4.9948    3.3192    0.0000 H   0  0  0  0  0  0  0  0  0  0  0  0
    1.4631   -3.1228    0.0000 H   0  0  0  0  0  0  0  0  0  0  0  0
    4.2421    4.5788    0.0000 H   0  0  0  0  0  0  0  0  0  0  0  0
    4.0170    3.5288    0.0000 H   0  0  0  0  0  0  0  0  0  0  0  0
    6.1892    5.9328    0.0000 H   0  0  0  0  0  0  0  0  0  0  0  0
  1 17  1  0  0  0  0
  1 21  1  0  0  0  0
  2 15  1  0  0  0  0
  2 16  1  0  0  0  0
 13  3  1  1  0  0  0
  3 33  1  0  0  0  0
 14  4  1  1  0  0  0
  4 34  1  0  0  0  0
  5 23  2  0  0  0  0
  6 26  1  0  0  0  0
  6 45  1  0  0  0  0
  7 26  2  0  0  0  0
 15  8  1  6  0  0  0
  8 18  1  0  0  0  0
  8 19  1  0  0  0  0
  9 19  2  0  0  0  0
  9 20  1  0  0  0  0
 10 18  1  0  0  0  0
 10 25  1  0  0  0  0
 10 38  1  0  0  0  0
 11 23  1  0  0  0  0
 11 25  2  0  0  0  0
 24 12  1  6  0  0  0
 12 43  1  0  0  0  0
 12 44  1  0  0  0  0
 13 14  1  0  0  0  0
 13 15  1  0  0  0  0
 13 27  1  0  0  0  0
 14 16  1  0  0  0  0
 14 28  1  0  0  0  0
 15 29  1  0  0  0  0
 16 17  1  6  0  0  0
 16 30  1  0  0  0  0
 17 31  1  0  0  0  0
 17 32  1  0  0  0  0
 18 20  2  0  0  0  0
 19 35  1  0  0  0  0
 20 23  1  0  0  0  0
 21 22  1  0  0  0  0
 21 36  1  0  0  0  0
 21 37  1  0  0  0  0
 22 24  1  0  0  0  0
 22 39  1  0  0  0  0
 22 40  1  0  0  0  0
 24 26  1  0  0  0  0
 24 41  1  0  0  0  0
 25 42  1  0  0  0  0
M  END
> <PUBCHEM_COMPOUND_CID>
440011

> <PUBCHEM_COMPOUND_CANONICALIZED>
1

> <PUBCHEM_CACTVS_COMPLEXITY>
580

> <PUBCHEM_CACTVS_HBOND_ACCEPTOR>
9

> <PUBCHEM_CACTVS_HBOND_DONOR>
5

> <PUBCHEM_CACTVS_ROTATABLE_BOND>
7

> <PUBCHEM_CACTVS_SUBSKEYS>
AAADceBzuABAAAAAAAAAAAAAAAAAAWJAAAAgAAAAAAAAAEABgAAAHgQQCAAACDzl1gaFuBfMFgioAQfxfACAgC0XELABUIGoVECDWBpgyCAeQIAPEALzAGCwAAAAAAAAAAAAAAAAAAAAAAAAAAAAAAAAAA==

> <PUBCHEM_IUPAC_OPENEYE_NAME>
(2S)-2-amino-4-[[(2S,3S,4R,5R)-3,4-dihydroxy-5-(6-oxo-3H-purin-9-yl)tetrahydrofuran-2-yl]methylsulfanyl]butanoic acid

> <PUBCHEM_IUPAC_CAS_NAME>
(2S)-2-amino-4-[[(2S,3S,4R,5R)-3,4-dihydroxy-5-(6-oxo-3H-purin-9-yl)-2-oxolanyl]methylthio]butanoic acid

> <PUBCHEM_IUPAC_NAME>
(2S)-2-amino-4-[[(2S,3S,4R,5R)-3,4-dihydroxy-5-(6-oxo-3H-purin-9-yl)oxolan-2-yl]methylsulfanyl]butanoic acid

> <PUBCHEM_IUPAC_SYSTEMATIC_NAME>
(2S)-2-azanyl-4-[[(2S,3S,4R,5R)-3,4-bis(oxidanyl)-5-(6-oxidanylidene-3H-purin-9-yl)oxolan-2-yl]methylsulfanyl]butanoic acid

> <PUBCHEM_IUPAC_TRADITIONAL_NAME>
(2S)-2-amino-4-[[(2S,3S,4R,5R)-3,4-dihydroxy-5-(6-keto-3H-purin-9-yl)tetrahydrofuran-2-yl]methylthio]butyric acid

> <PUBCHEM_IUPAC_INCHI>
InChI=1S/C14H19N5O6S/c15-6(14(23)24)1-2-26-3-7-9(20)10(21)13(25-7)19-5-18-8-11(19)16-4-17-12(8)22/h4-7,9-10,13,20-21H,1-3,15H2,(H,23,24)(H,16,17,22)/t6-,7+,9+,10+,13+/m0/s1

> <PUBCHEM_IUPAC_INCHIKEY>
VNPWVMVYUSNFAW-WFMPWKQPSA-N

> <PUBCHEM_XLOGP3>
-4.6

> <PUBCHEM_EXACT_MASS>
385.105604

> <PUBCHEM_MOLECULAR_FORMULA>
C14H19N5O6S

> <PUBCHEM_MOLECULAR_WEIGHT>
385.39556

> <PUBCHEM_OPENEYE_CAN_SMILES>
C1=NC(=O)C2=C(N1)N(C=N2)C3C(C(C(O3)CSCCC(C(=O)O)N)O)O

> <PUBCHEM_OPENEYE_ISO_SMILES>
C1=NC(=O)C2=C(N1)N(C=N2)[C@H]3[C@@H]([C@@H]([C@H](O3)CSCC[C@@H](C(=O)O)N)O)O

> <PUBCHEM_CACTVS_TPSA>
198

> <PUBCHEM_MONOISOTOPIC_WEIGHT>
385.105604

> <PUBCHEM_TOTAL_CHARGE>
0

> <PUBCHEM_HEAVY_ATOM_COUNT>
26

> <PUBCHEM_ATOM_DEF_STEREO_COUNT>
5

> <PUBCHEM_ATOM_UDEF_STEREO_COUNT>
0

> <PUBCHEM_BOND_DEF_STEREO_COUNT>
0

> <PUBCHEM_BOND_UDEF_STEREO_COUNT>
0

> <PUBCHEM_ISOTOPIC_ATOM_COUNT>
0

> <PUBCHEM_COMPONENT_COUNT>
1

> <PUBCHEM_CACTVS_TAUTO_COUNT>
3

> <PUBCHEM_COORDINATE_TYPE>
1
5
255

> <PUBCHEM_BONDANNOTATIONS>
10  18  8
10  25  8
11  23  8
11  25  8
24  12  6
16  17  6
18  20  8
20  23  8
13  3  5
14  4  5
15  8  6
8  18  8
8  19  8
9  19  8
9  20  8

$$$$

