324281
  -OEChem-07051212563D

 27 28  0     0  0  0  0  0  0999 V2000
    1.6921   -1.1102   -0.0010 O   0  0  0  0  0  0  0  0  0  0  0  0
   -4.5912   -0.4582    0.0030 O   0  0  0  0  0  0  0  0  0  0  0  0
    0.0876    0.4802   -0.0026 C   0  0  0  0  0  0  0  0  0  0  0  0
    0.3478   -0.8865   -0.0004 C   0  0  0  0  0  0  0  0  0  0  0  0
    2.2946    0.1075   -0.0036 C   0  0  0  0  0  0  0  0  0  0  0  0
    1.3577    1.1148   -0.0047 C   0  0  0  0  0  0  0  0  0  0  0  0
   -1.2513    0.9088   -0.0022 C   0  0  0  0  0  0  0  0  0  0  0  0
   -2.2668   -0.0573    0.0002 C   0  0  0  0  0  0  0  0  0  0  0  0
   -0.6396   -1.8701    0.0019 C   0  0  0  0  0  0  0  0  0  0  0  0
   -1.9637   -1.4213    0.0021 C   0  0  0  0  0  0  0  0  0  0  0  0
    3.7013    0.2492   -0.0020 C   0  0  0  0  0  0  0  0  0  0  0  0
   -3.6581    0.3687    0.0011 C   0  0  0  0  0  0  0  0  0  0  0  0
    4.4245    1.5930    0.0103 C   0  0  0  0  0  0  0  0  0  0  0  0
   -4.0067    1.8528   -0.0010 C   0  0  0  0  0  0  0  0  0  0  0  0
    4.4716   -0.8714   -0.0011 C   0  0  0  0  0  0  0  0  0  0  0  0
    1.5486    2.1795   -0.0063 H   0  0  0  0  0  0  0  0  0  0  0  0
   -1.4542    1.9739   -0.0037 H   0  0  0  0  0  0  0  0  0  0  0  0
   -0.3964   -2.9259    0.0036 H   0  0  0  0  0  0  0  0  0  0  0  0
   -2.7540   -2.1691    0.0041 H   0  0  0  0  0  0  0  0  0  0  0  0
    4.1529    2.1732   -0.8779 H   0  0  0  0  0  0  0  0  0  0  0  0
    4.1419    2.1633    0.9016 H   0  0  0  0  0  0  0  0  0  0  0  0
    5.5142    1.4833    0.0165 H   0  0  0  0  0  0  0  0  0  0  0  0
   -3.6205    2.3314   -0.9047 H   0  0  0  0  0  0  0  0  0  0  0  0
   -3.6185    2.3344    0.9001 H   0  0  0  0  0  0  0  0  0  0  0  0
   -5.0958    1.9639    0.0001 H   0  0  0  0  0  0  0  0  0  0  0  0
    5.5555   -0.8069    0.0039 H   0  0  0  0  0  0  0  0  0  0  0  0
    4.0534   -1.8731   -0.0059 H   0  0  0  0  0  0  0  0  0  0  0  0
  1  4  1  0  0  0  0
  1  5  1  0  0  0  0
  2 12  2  0  0  0  0
  3  4  2  0  0  0  0
  3  6  1  0  0  0  0
  3  7  1  0  0  0  0
  4  9  1  0  0  0  0
  5  6  2  0  0  0  0
  5 11  1  0  0  0  0
  6 16  1  0  0  0  0
  7  8  2  0  0  0  0
  7 17  1  0  0  0  0
  8 10  1  0  0  0  0
  8 12  1  0  0  0  0
  9 10  2  0  0  0  0
  9 18  1  0  0  0  0
 10 19  1  0  0  0  0
 11 13  1  0  0  0  0
 11 15  2  0  0  0  0
 12 14  1  0  0  0  0
 13 20  1  0  0  0  0
 13 21  1  0  0  0  0
 13 22  1  0  0  0  0
 14 23  1  0  0  0  0
 14 24  1  0  0  0  0
 14 25  1  0  0  0  0
 15 26  1  0  0  0  0
 15 27  1  0  0  0  0
M  END
> <PUBCHEM_COMPOUND_CID>
324281

> <PUBCHEM_CONFORMER_RMSD>
0.6

> <PUBCHEM_CONFORMER_DIVERSEORDER>
1
4
2
3

> <PUBCHEM_MMFF94_PARTIAL_CHARGES>
20
1 -0.28
10 -0.15
11 -0.09
12 0.42
13 0.14
14 0.06
15 -0.3
16 0.15
17 0.15
18 0.15
19 0.15
2 -0.57
26 0.15
27 0.15
4 0.14
5 0.09
6 -0.15
7 -0.15
8 0.09
9 -0.15

> <PUBCHEM_EFFECTIVE_ROTOR_COUNT>
2

> <PUBCHEM_PHARMACOPHORE_FEATURES>
4
1 1 acceptor
1 2 acceptor
5 1 3 4 5 6 rings
6 3 4 7 8 9 10 rings

> <PUBCHEM_HEAVY_ATOM_COUNT>
15

> <PUBCHEM_ATOM_DEF_STEREO_COUNT>
0

> <PUBCHEM_ATOM_UDEF_STEREO_COUNT>
0

> <PUBCHEM_BOND_DEF_STEREO_COUNT>
0

> <PUBCHEM_BOND_UDEF_STEREO_COUNT>
0

> <PUBCHEM_ISOTOPIC_ATOM_COUNT>
0

> <PUBCHEM_COMPONENT_COUNT>
1

> <PUBCHEM_CACTVS_TAUTO_COUNT>
2

> <PUBCHEM_CONFORMER_ID>
0004F2B900000001

> <PUBCHEM_MMFF94_ENERGY>
32.1643

> <PUBCHEM_FEATURE_SELFOVERLAP>
20.399

> <PUBCHEM_SHAPE_FINGERPRINT>
10608611 8 18336549322168058488
11132069 177 18410579461630483464
11401426 45 18333456447276848168
11471102 20 18409169909177353636
11543360 7 15719686371920120109
12119455 92 17385728018901424462
12346645 44 18411138077982976153
13380535 76 18409446994381457367
13675066 3 18201715141701204602
13690532 89 18411419526915621818
14325111 11 18410856563945377828
14897335 6 18409731763613615950
14943859 89 18412545396636413171
15196674 1 18410855468718135364
15375358 24 18260828194046108070
15536298 74 18262236732786976014
16945 1 18410854352032030095
18186145 218 18337389447545666469
200 152 17530969093867416886
20510252 161 18261391182549104025
20645477 56 18340207393053381604
20645477 70 17821720668026412902
21267235 1 18411129242855771354
23402539 116 18187936100494372173
23402655 69 18261401087270949349
23463225 33 18341614836957001030
23559900 14 18261111872984496224
2748010 2 18121219775030227407
335352 9 18338799026264258118
3545911 37 18409728427120372156
366044 4 18410856559750929715
4214541 1 18410855473018578785
474 4 17202196318750421956
4990 188 18040710398529372070
5104073 3 18412544305893984424
53812653 166 18408045095717856512
6430166 295 18411703209505522600
69090 78 18334580126612038222
7364860 26 18264771146013055422
77779 3 18411417302222672324
9709674 26 18335414668991513110

> <PUBCHEM_SHAPE_MULTIPOLES>
296.95
8.78
1.75
0.6
1.48
0.02
0
-2.54
-0.01
-0.31
0
0.02
-0.01
0.01

> <PUBCHEM_SHAPE_SELFOVERLAP>
643.971

> <PUBCHEM_SHAPE_VOLUME>
165.3

> <PUBCHEM_COORDINATE_TYPE>
2
5
10

$$$$

