443072
  -OEChem-07051213013D

 32 33  0     1  0  0  0  0  0999 V2000
   -0.3806   -0.4228   -1.0089 O   0  0  0  0  0  0  0  0  0  0  0  0
   -3.7190    1.6711    0.2322 O   0  0  0  0  0  0  0  0  0  0  0  0
    0.5933    1.3578    0.2114 O   0  0  0  0  0  0  0  0  0  0  0  0
   -2.9901   -0.8212    1.5395 O   0  0  0  0  0  0  0  0  0  0  0  0
   -1.3602    3.0900   -0.7466 O   0  0  0  0  0  0  0  0  0  0  0  0
   -1.7527   -3.1162    0.7747 O   0  0  0  0  0  0  0  0  0  0  0  0
   -0.7964   -2.9207   -1.2852 O   0  0  0  0  0  0  0  0  0  0  0  0
    3.7894    0.4516    1.0927 O   0  0  0  0  0  0  0  0  0  0  0  0
    2.6050    1.1440    1.3140 N   0  0  0  0  0  0  0  0  0  0  0  0
   -2.3846    1.1707    0.3260 C   0  0  1  0  0  0  0  0  0  0  0  0
   -2.4512   -0.3580    0.3020 C   0  0  1  0  0  0  0  0  0  0  0  0
   -1.5610    1.6848   -0.8542 C   0  0  2  0  0  0  0  0  0  0  0  0
   -1.0674   -0.9726    0.1134 C   0  0  1  0  0  0  0  0  0  0  0  0
   -0.2001    0.9910   -0.9161 C   0  0  2  0  0  0  0  0  0  0  0  0
   -1.1740   -2.4219   -0.2355 C   0  0  0  0  0  0  0  0  0  0  0  0
    1.8496    0.8199    0.2782 C   0  0  0  0  0  0  0  0  0  0  0  0
    2.4541   -0.0458   -0.6222 C   0  0  0  0  0  0  0  0  0  0  0  0
    3.6873   -0.2531   -0.0632 C   0  0  0  0  0  0  0  0  0  0  0  0
    4.8584   -1.0485   -0.4522 C   0  0  0  0  0  0  0  0  0  0  0  0
   -1.9789    1.5431    1.2744 H   0  0  0  0  0  0  0  0  0  0  0  0
   -3.1369   -0.6857   -0.4893 H   0  0  0  0  0  0  0  0  0  0  0  0
   -2.1108    1.5003   -1.7857 H   0  0  0  0  0  0  0  0  0  0  0  0
   -0.4424   -0.8934    1.0109 H   0  0  0  0  0  0  0  0  0  0  0  0
    0.3143    1.3338   -1.8233 H   0  0  0  0  0  0  0  0  0  0  0  0
   -4.2186    1.3098    0.9843 H   0  0  0  0  0  0  0  0  0  0  0  0
   -2.3982   -0.5293    2.2537 H   0  0  0  0  0  0  0  0  0  0  0  0
   -2.2372    3.5045   -0.6776 H   0  0  0  0  0  0  0  0  0  0  0  0
   -1.8335   -4.0709    0.5640 H   0  0  0  0  0  0  0  0  0  0  0  0
    2.0977   -0.4696   -1.5488 H   0  0  0  0  0  0  0  0  0  0  0  0
    4.6803   -1.5803   -1.3921 H   0  0  0  0  0  0  0  0  0  0  0  0
    5.7331   -0.4049   -0.5875 H   0  0  0  0  0  0  0  0  0  0  0  0
    5.0927   -1.7903    0.3175 H   0  0  0  0  0  0  0  0  0  0  0  0
  1 13  1  0  0  0  0
  1 14  1  0  0  0  0
  2 10  1  0  0  0  0
  2 25  1  0  0  0  0
  3 14  1  0  0  0  0
  3 16  1  0  0  0  0
  4 11  1  0  0  0  0
  4 26  1  0  0  0  0
  5 12  1  0  0  0  0
  5 27  1  0  0  0  0
  6 15  1  0  0  0  0
  6 28  1  0  0  0  0
  7 15  2  0  0  0  0
  8  9  1  0  0  0  0
  8 18  1  0  0  0  0
  9 16  2  0  0  0  0
 10 11  1  0  0  0  0
 10 12  1  0  0  0  0
 10 20  1  0  0  0  0
 11 13  1  0  0  0  0
 11 21  1  0  0  0  0
 12 14  1  0  0  0  0
 12 22  1  0  0  0  0
 13 15  1  0  0  0  0
 13 23  1  0  0  0  0
 14 24  1  0  0  0  0
 16 17  1  0  0  0  0
 17 18  2  0  0  0  0
 17 29  1  0  0  0  0
 18 19  1  0  0  0  0
 19 30  1  0  0  0  0
 19 31  1  0  0  0  0
 19 32  1  0  0  0  0
M  END
> <PUBCHEM_COMPOUND_CID>
443072

> <PUBCHEM_CONFORMER_RMSD>
0.6

> <PUBCHEM_CONFORMER_DIVERSEORDER>
1
56
50
54
58
32
16
57
18
60
48
53
36
10
23
33
29
38
30
52
43
51
4
14
34
8
49
12
6
45
41
9
19
28
21
15
47
17
25
3
39
46
31
59
44
27
5
22
20
37
7
26
24
42
2
55
40
11
13
35

> <PUBCHEM_MMFF94_PARTIAL_CHARGES>
24
1 -0.56
10 0.28
11 0.28
12 0.28
13 0.34
14 0.56
15 0.66
16 0.35
17 -0.15
18 -0.04
19 0.18
2 -0.68
25 0.4
26 0.4
27 0.4
28 0.5
29 0.15
3 -0.34
4 -0.68
5 -0.68
6 -0.65
7 -0.57
8 -0.02
9 -0.41

> <PUBCHEM_EFFECTIVE_ROTOR_COUNT>
4.2

> <PUBCHEM_PHARMACOPHORE_FEATURES>
12
1 1 acceptor
1 2 acceptor
1 2 donor
1 4 acceptor
1 4 donor
1 5 acceptor
1 5 donor
1 6 acceptor
1 7 acceptor
3 6 7 15 anion
5 8 9 16 17 18 rings
6 1 10 11 12 13 14 rings

> <PUBCHEM_HEAVY_ATOM_COUNT>
19

> <PUBCHEM_ATOM_DEF_STEREO_COUNT>
5

> <PUBCHEM_ATOM_UDEF_STEREO_COUNT>
0

> <PUBCHEM_BOND_DEF_STEREO_COUNT>
0

> <PUBCHEM_BOND_UDEF_STEREO_COUNT>
0

> <PUBCHEM_ISOTOPIC_ATOM_COUNT>
0

> <PUBCHEM_COMPONENT_COUNT>
1

> <PUBCHEM_CACTVS_TAUTO_COUNT>
1

> <PUBCHEM_CONFORMER_ID>
0006C2C000000001

> <PUBCHEM_MMFF94_ENERGY>
38.8706

> <PUBCHEM_FEATURE_SELFOVERLAP>
60.978

> <PUBCHEM_SHAPE_FINGERPRINT>
11322862 65 18410295834553560342
12011746 2 18341050808692287253
12500047 106 18408046229847717764
12507560 18 17895193371693221312
12553582 1 17762335808423246926
12633257 1 17895740838305423194
13004483 165 17463434727595358502
14115302 16 18338789109348438324
15042514 8 18342168956273175475
15295992 7 17822013120433051912
15309172 13 18338797926452222417
16752209 62 18200891641788500261
16945 1 18342740706276787829
17804303 29 18410004447066487428
19049666 15 18117273877264997324
20361792 2 17059787606716089516
20871998 184 18413103957338953845
21524375 3 18264209278201001583
21731516 1 17844820187169840370
23388829 49 17181377993305570205
23402539 116 18334865991809995807
23419403 2 16612462613604045288
23559900 14 18261958548788902986
23566358 27 17984969419962523684
23598291 2 17560786737217268580
257057 1 17614011685593862839
2748010 2 18195520617654702183
465052 167 17771879694475808179
598444 67 18336825415392160542
6338986 31 17614010590224364663
69090 78 18334584554770500813
7364860 26 17614846640205204405
81228 2 18195544609400013589
8809292 202 18334577966828680374

> <PUBCHEM_SHAPE_MULTIPOLES>
339.08
6.59
2.93
1.12
7.26
1.42
-0.1
-0.1
-1.26
-2.59
0.48
-0.04
0.08
0.82

> <PUBCHEM_SHAPE_SELFOVERLAP>
716.436

> <PUBCHEM_SHAPE_VOLUME>
188.5

> <PUBCHEM_COORDINATE_TYPE>
2
5
10

$$$$

