21627927
  -OEChem-07051212552D

 91 97  0     1  0  0  0  0  0999 V2000
    7.5556    1.4710    0.0000 O   0  0  0  0  0  0  0  0  0  0  0  0
    4.9154   -0.9129    0.0000 O   0  0  0  0  0  0  0  0  0  0  0  0
    6.4330   -2.0818    0.0000 O   0  0  0  0  0  0  0  0  0  0  0  0
    8.5977    1.6197    0.0000 O   0  0  0  0  0  0  0  0  0  0  0  0
    4.5392    1.4285    0.0000 O   0  0  0  0  0  0  0  0  0  0  0  0
    6.1304    2.9919    0.0000 O   0  0  0  0  0  0  0  0  0  0  0  0
    4.1264   -0.4717    0.0000 O   0  0  0  0  0  0  0  0  0  0  0  0
    4.1380    2.1380    0.0000 O   0  0  0  0  0  0  0  0  0  0  0  0
   10.0065   -0.5901    0.0000 O   0  0  0  0  0  0  0  0  0  0  0  0
    9.1217   -2.5551    0.0000 O   0  0  0  0  0  0  0  0  0  0  0  0
    5.1115   -2.6339    0.0000 O   0  0  0  0  0  0  0  0  0  0  0  0
    3.3114    0.2068    0.0000 O   0  0  0  0  0  0  0  0  0  0  0  0
    9.4510   -0.1490    0.0000 N   0  0  3  0  0  0  0  0  0  0  0  0
    7.5043    0.2462    0.0000 C   0  0  2  0  0  0  0  0  0  0  0  0
    6.8260    0.7872    0.0000 C   0  0  2  0  0  0  0  0  0  0  0  0
    7.5043   -0.6213    0.0000 C   0  0  2  0  0  0  0  0  0  0  0  0
    8.5063    0.1402    0.0000 C   0  0  3  0  0  0  0  0  0  0  0  0
    5.9802   -0.9692    0.0000 C   0  0  1  0  0  0  0  0  0  0  0  0
    5.9802    0.5941    0.0000 C   0  0  1  0  0  0  0  0  0  0  0  0
    5.6038   -0.1876    0.0000 C   0  0  1  0  0  0  0  0  0  0  0  0
    6.8260   -1.1623    0.0000 C   0  0  2  0  0  0  0  0  0  0  0  0
    8.2556   -1.0551    0.0000 C   0  0  2  0  0  0  0  0  0  0  0  0
    8.2556    0.6800    0.0000 C   0  0  2  0  0  0  0  0  0  0  0  0
    6.9038    1.6512    0.0000 C   0  0  0  0  0  0  0  0  0  0  0  0
    6.1060    1.9922    0.0000 C   0  0  2  0  0  0  0  0  0  0  0  0
    5.5352    1.3389    0.0000 C   0  0  2  0  0  0  0  0  0  0  0  0
    4.9588    0.0824    0.0000 C   0  0  2  0  0  0  0  0  0  0  0  0
    9.4510   -0.9009    0.0000 C   0  0  0  0  0  0  0  0  0  0  0  0
    9.0070   -0.6213    0.0000 C   0  0  1  0  0  0  0  0  0  0  0  0
    4.9588    1.5669    0.0000 C   0  0  2  0  0  0  0  0  0  0  0  0
    9.0070    0.2462    0.0000 C   0  0  0  0  0  0  0  0  0  0  0  0
    8.2556   -2.0551    0.0000 C   0  0  0  0  0  0  0  0  0  0  0  0
   10.2549    0.4457    0.0000 C   0  0  0  0  0  0  0  0  0  0  0  0
    4.5166   -1.8300    0.0000 C   0  0  0  0  0  0  0  0  0  0  0  0
    7.0328   -2.8819    0.0000 C   0  0  0  0  0  0  0  0  0  0  0  0
    9.5825    1.7934    0.0000 C   0  0  0  0  0  0  0  0  0  0  0  0
    3.5726    1.1721    0.0000 C   0  0  0  0  0  0  0  0  0  0  0  0
    4.2221    3.1344    0.0000 C   0  0  0  0  0  0  0  0  0  0  0  0
    3.5231   -1.9432    0.0000 C   0  0  0  0  0  0  0  0  0  0  0  0
    9.1217   -3.5551    0.0000 C   0  0  0  0  0  0  0  0  0  0  0  0
    2.8673    1.8810    0.0000 C   0  0  0  0  0  0  0  0  0  0  0  0
    1.9007    1.6246    0.0000 C   0  0  0  0  0  0  0  0  0  0  0  0
    3.1285    2.8462    0.0000 C   0  0  0  0  0  0  0  0  0  0  0  0
    1.1954    2.3334    0.0000 C   0  0  0  0  0  0  0  0  0  0  0  0
    2.4232    3.5551    0.0000 C   0  0  0  0  0  0  0  0  0  0  0  0
    1.4566    3.2987    0.0000 C   0  0  0  0  0  0  0  0  0  0  0  0
    7.5678   -1.4690    0.0000 H   0  0  0  0  0  0  0  0  0  0  0  0
    8.6302    0.7477    0.0000 H   0  0  0  0  0  0  0  0  0  0  0  0
    5.4502   -1.6338    0.0000 H   0  0  0  0  0  0  0  0  0  0  0  0
    5.1310    0.5560    0.0000 H   0  0  0  0  0  0  0  0  0  0  0  0
    7.0264   -1.7490    0.0000 H   0  0  0  0  0  0  0  0  0  0  0  0
    7.7807    1.0786    0.0000 H   0  0  0  0  0  0  0  0  0  0  0  0
    7.0865    2.2437    0.0000 H   0  0  0  0  0  0  0  0  0  0  0  0
    7.5121    1.5314    0.0000 H   0  0  0  0  0  0  0  0  0  0  0  0
    5.3044    1.9143    0.0000 H   0  0  0  0  0  0  0  0  0  0  0  0
    4.4123    0.3751    0.0000 H   0  0  0  0  0  0  0  0  0  0  0  0
   10.0704   -0.8744    0.0000 H   0  0  0  0  0  0  0  0  0  0  0  0
    9.5039   -1.5186    0.0000 H   0  0  0  0  0  0  0  0  0  0  0  0
    9.1768   -1.2176    0.0000 H   0  0  0  0  0  0  0  0  0  0  0  0
    5.0370    2.1819    0.0000 H   0  0  0  0  0  0  0  0  0  0  0  0
    9.2190    0.8288    0.0000 H   0  0  0  0  0  0  0  0  0  0  0  0
    9.6176    0.1386    0.0000 H   0  0  0  0  0  0  0  0  0  0  0  0
    8.0436   -2.6377    0.0000 H   0  0  0  0  0  0  0  0  0  0  0  0
    7.6451   -1.9475    0.0000 H   0  0  0  0  0  0  0  0  0  0  0  0
    7.4147    2.0748    0.0000 H   0  0  0  0  0  0  0  0  0  0  0  0
    9.8862    0.9441    0.0000 H   0  0  0  0  0  0  0  0  0  0  0  0
   10.7534    0.8144    0.0000 H   0  0  0  0  0  0  0  0  0  0  0  0
   10.6236   -0.0528    0.0000 H   0  0  0  0  0  0  0  0  0  0  0  0
    5.6012    3.3150    0.0000 H   0  0  0  0  0  0  0  0  0  0  0  0
    4.1658   -1.0904    0.0000 H   0  0  0  0  0  0  0  0  0  0  0  0
   10.3331   -1.1171    0.0000 H   0  0  0  0  0  0  0  0  0  0  0  0
    7.5289   -2.5100    0.0000 H   0  0  0  0  0  0  0  0  0  0  0  0
    7.4047   -3.3780    0.0000 H   0  0  0  0  0  0  0  0  0  0  0  0
    6.5367   -3.2538    0.0000 H   0  0  0  0  0  0  0  0  0  0  0  0
    9.4748    2.4040    0.0000 H   0  0  0  0  0  0  0  0  0  0  0  0
   10.1931    1.9010    0.0000 H   0  0  0  0  0  0  0  0  0  0  0  0
    9.6901    1.1828    0.0000 H   0  0  0  0  0  0  0  0  0  0  0  0
    3.6043    3.1866    0.0000 H   0  0  0  0  0  0  0  0  0  0  0  0
    4.2743    3.7522    0.0000 H   0  0  0  0  0  0  0  0  0  0  0  0
    4.8399    3.0823    0.0000 H   0  0  0  0  0  0  0  0  0  0  0  0
    3.5933   -2.5593    0.0000 H   0  0  0  0  0  0  0  0  0  0  0  0
    2.9071   -2.0135    0.0000 H   0  0  0  0  0  0  0  0  0  0  0  0
    3.4529   -1.3272    0.0000 H   0  0  0  0  0  0  0  0  0  0  0  0
    9.7417   -3.5551    0.0000 H   0  0  0  0  0  0  0  0  0  0  0  0
    9.1217   -4.1751    0.0000 H   0  0  0  0  0  0  0  0  0  0  0  0
    8.5017   -3.5551    0.0000 H   0  0  0  0  0  0  0  0  0  0  0  0
    1.7388    1.0261    0.0000 H   0  0  0  0  0  0  0  0  0  0  0  0
    3.7278    3.0052    0.0000 H   0  0  0  0  0  0  0  0  0  0  0  0
    0.5961    2.1745    0.0000 H   0  0  0  0  0  0  0  0  0  0  0  0
    2.5852    4.1536    0.0000 H   0  0  0  0  0  0  0  0  0  0  0  0
    1.0193    3.7382    0.0000 H   0  0  0  0  0  0  0  0  0  0  0  0
 15  1  1  6  0  0  0
  1 65  1  0  0  0  0
 20  2  1  6  0  0  0
  2 34  1  0  0  0  0
 21  3  1  1  0  0  0
  3 35  1  0  0  0  0
 23  4  1  1  0  0  0
  4 36  1  0  0  0  0
 26  5  1  1  0  0  0
  5 37  1  0  0  0  0
 25  6  1  6  0  0  0
  6 69  1  0  0  0  0
 27  7  1  1  0  0  0
  7 70  1  0  0  0  0
 30  8  1  6  0  0  0
  8 38  1  0  0  0  0
 29  9  1  1  0  0  0
  9 71  1  0  0  0  0
 10 32  1  0  0  0  0
 10 40  1  0  0  0  0
 11 34  2  0  0  0  0
 12 37  2  0  0  0  0
 13 17  1  0  0  0  0
 13 28  1  0  0  0  0
 13 33  1  0  0  0  0
 14 15  1  0  0  0  0
 14 16  1  0  0  0  0
 14 17  1  0  0  0  0
 14 23  1  6  0  0  0
 15 19  1  0  0  0  0
 15 24  1  0  0  0  0
 16 21  1  0  0  0  0
 16 22  1  0  0  0  0
 16 47  1  6  0  0  0
 17 18  1  0  0  0  0
 17 48  1  0  0  0  0
 18 20  1  0  0  0  0
 18 21  1  0  0  0  0
 18 49  1  1  0  0  0
 19 20  1  0  0  0  0
 19 26  1  0  0  0  0
 19 50  1  6  0  0  0
 20 27  1  0  0  0  0
 21 51  1  0  0  0  0
 22 28  1  0  0  0  0
 22 29  1  0  0  0  0
 22 32  1  6  0  0  0
 23 31  1  0  0  0  0
 23 52  1  0  0  0  0
 24 25  1  0  0  0  0
 24 53  1  0  0  0  0
 24 54  1  0  0  0  0
 25 26  1  0  0  0  0
 25 30  1  0  0  0  0
 26 55  1  0  0  0  0
 27 30  1  0  0  0  0
 27 56  1  0  0  0  0
 28 57  1  0  0  0  0
 28 58  1  0  0  0  0
 29 31  1  0  0  0  0
 29 59  1  0  0  0  0
 30 60  1  0  0  0  0
 31 61  1  0  0  0  0
 31 62  1  0  0  0  0
 32 63  1  0  0  0  0
 32 64  1  0  0  0  0
 33 66  1  0  0  0  0
 33 67  1  0  0  0  0
 33 68  1  0  0  0  0
 34 39  1  0  0  0  0
 35 72  1  0  0  0  0
 35 73  1  0  0  0  0
 35 74  1  0  0  0  0
 36 75  1  0  0  0  0
 36 76  1  0  0  0  0
 36 77  1  0  0  0  0
 37 41  1  0  0  0  0
 38 78  1  0  0  0  0
 38 79  1  0  0  0  0
 38 80  1  0  0  0  0
 39 81  1  0  0  0  0
 39 82  1  0  0  0  0
 39 83  1  0  0  0  0
 40 84  1  0  0  0  0
 40 85  1  0  0  0  0
 40 86  1  0  0  0  0
 41 42  2  0  0  0  0
 41 43  1  0  0  0  0
 42 44  1  0  0  0  0
 42 87  1  0  0  0  0
 43 45  2  0  0  0  0
 43 88  1  0  0  0  0
 44 46  2  0  0  0  0
 44 89  1  0  0  0  0
 45 46  1  0  0  0  0
 45 90  1  0  0  0  0
 46 91  1  0  0  0  0
M  END
> <PUBCHEM_COMPOUND_CID>
21627927

> <PUBCHEM_COMPOUND_CANONICALIZED>
1

> <PUBCHEM_CACTVS_COMPLEXITY>
1250

> <PUBCHEM_CACTVS_HBOND_ACCEPTOR>
13

> <PUBCHEM_CACTVS_HBOND_DONOR>
4

> <PUBCHEM_CACTVS_ROTATABLE_BOND>
10

> <PUBCHEM_CACTVS_SUBSKEYS>
AAADcfB+PAAAAAAAAAAAAAAAAAAAAYMAAAA8YMGCB4gWAGABAAAAHgAACAAAD3zhmAYyCIMABgCIAiDSCAACAAAkAAAIiAEICMgJNjKAtRiGcQAnwAGLqYf4+P+PgAAAAAAAAADSAAaUADSAAaUADSAAAA==

> <PUBCHEM_IUPAC_INCHI>
InChI=1S/C33H45NO12/c1-16(35)46-33-20-21(43-5)22-29(15-41-3)14-34(2)24(20)32(22,19(42-4)12-18(29)36)31(40)13-30(39,27(44-6)25(33)37)26(23(31)33)45-28(38)17-10-8-7-9-11-17/h7-11,18-27,36-37,39-40H,12-15H2,1-6H3/t18-,19+,20+,21+,22-,23+,24?,25+,26-,27+,29+,30-,31+,32-,33+/m1/s1

> <PUBCHEM_IUPAC_INCHIKEY>
GPTAWZLFSGYZGC-JDMPSTDXSA-N

> <PUBCHEM_XLOGP3_AA>
-1.1

> <PUBCHEM_EXACT_MASS>
647.294176

> <PUBCHEM_MOLECULAR_FORMULA>
C33H45NO12

> <PUBCHEM_MOLECULAR_WEIGHT>
647.7099

> <PUBCHEM_OPENEYE_CAN_SMILES>
CC(=O)OC12C3C(C4C5(CN(C3C4(C(CC5O)OC)C6(C1C(C(C6)(C(C2O)OC)O)OC(=O)C7=CC=CC=C7)O)C)COC)OC

> <PUBCHEM_OPENEYE_ISO_SMILES>
CC(=O)O[C@@]12[C@H]3[C@@H]([C@@H]4[C@@]5(CN(C3[C@]4([C@H](C[C@H]5O)OC)[C@]6([C@@H]1[C@H]([C@](C6)([C@H]([C@@H]2O)OC)O)OC(=O)C7=CC=CC=C7)O)C)COC)OC

> <PUBCHEM_CACTVS_TPSA>
174

> <PUBCHEM_MONOISOTOPIC_WEIGHT>
647.294176

> <PUBCHEM_TOTAL_CHARGE>
0

> <PUBCHEM_HEAVY_ATOM_COUNT>
46

> <PUBCHEM_ATOM_DEF_STEREO_COUNT>
14

> <PUBCHEM_ATOM_UDEF_STEREO_COUNT>
1

> <PUBCHEM_BOND_DEF_STEREO_COUNT>
0

> <PUBCHEM_BOND_UDEF_STEREO_COUNT>
0

> <PUBCHEM_ISOTOPIC_ATOM_COUNT>
0

> <PUBCHEM_COMPONENT_COUNT>
1

> <PUBCHEM_CACTVS_TAUTO_COUNT>
1

> <PUBCHEM_COORDINATE_TYPE>
1
5
255

> <PUBCHEM_BONDANNOTATIONS>
15  1  6
17  13  3
14  23  6
16  47  6
18  49  5
19  50  6
20  2  6
22  32  6
21  3  5
23  4  5
41  42  8
41  43  8
42  44  8
43  45  8
44  46  8
45  46  8
26  5  5
25  6  6
27  7  5
30  8  6
29  9  5

$$$$

