448839
  -OEChem-07051212513D

 29 30  0     1  0  0  0  0  0999 V2000
    2.6993    0.5675   -2.1677 O   0  0  0  0  0  0  0  0  0  0  0  0
    2.9119   -1.5331   -0.3244 O   0  0  0  0  0  0  0  0  0  0  0  0
    4.0679   -1.0598    2.1500 O   0  0  0  0  0  0  0  0  0  0  0  0
   -1.2161   -2.3883   -0.7906 O   0  0  0  0  0  0  0  0  0  0  0  0
    0.3623   -0.2455   -0.5676 N   0  0  0  0  0  0  0  0  0  0  0  0
   -0.7966    2.1468    0.3362 N   0  0  0  0  0  0  0  0  0  0  0  0
   -2.9013    1.0007    0.4970 N   0  0  0  0  0  0  0  0  0  0  0  0
   -3.1118   -1.3019   -0.0761 N   0  0  0  0  0  0  0  0  0  0  0  0
   -4.9402   -0.0382    0.6720 N   0  0  0  0  0  0  0  0  0  0  0  0
    2.5298    0.8258   -0.7633 C   0  0  2  0  0  0  0  0  0  0  0  0
    3.3686   -0.2217    0.0137 C   0  0  1  0  0  0  0  0  0  0  0  0
    1.0811    0.8830   -0.4243 C   0  0  0  0  0  0  0  0  0  0  0  0
    3.2933   -0.0395    1.5273 C   0  0  0  0  0  0  0  0  0  0  0  0
   -0.9439   -0.1446   -0.2483 C   0  0  0  0  0  0  0  0  0  0  0  0
    0.5125    2.0569    0.0192 C   0  0  0  0  0  0  0  0  0  0  0  0
   -1.5357    1.0254    0.1991 C   0  0  0  0  0  0  0  0  0  0  0  0
   -1.7667   -1.3658   -0.3937 C   0  0  0  0  0  0  0  0  0  0  0  0
   -3.6144   -0.1677    0.3413 C   0  0  0  0  0  0  0  0  0  0  0  0
    2.9810    1.8096   -0.5812 H   0  0  0  0  0  0  0  0  0  0  0  0
    4.4158   -0.1792   -0.3094 H   0  0  0  0  0  0  0  0  0  0  0  0
    2.2708   -0.1408    1.9037 H   0  0  0  0  0  0  0  0  0  0  0  0
    3.6895    0.9336    1.8314 H   0  0  0  0  0  0  0  0  0  0  0  0
    1.0801    2.9723    0.1397 H   0  0  0  0  0  0  0  0  0  0  0  0
    3.6515    0.6131   -2.3605 H   0  0  0  0  0  0  0  0  0  0  0  0
   -3.3325    1.8562    0.8237 H   0  0  0  0  0  0  0  0  0  0  0  0
    2.9586   -1.6169   -1.2921 H   0  0  0  0  0  0  0  0  0  0  0  0
    3.7063   -1.9159    1.8634 H   0  0  0  0  0  0  0  0  0  0  0  0
   -5.5774   -0.8240    0.6024 H   0  0  0  0  0  0  0  0  0  0  0  0
   -5.3213    0.8446    0.9943 H   0  0  0  0  0  0  0  0  0  0  0  0
  1 10  1  0  0  0  0
  1 24  1  0  0  0  0
  2 11  1  0  0  0  0
  2 26  1  0  0  0  0
  3 13  1  0  0  0  0
  3 27  1  0  0  0  0
  4 17  2  0  0  0  0
  5 12  1  0  0  0  0
  5 14  2  0  0  0  0
  6 15  1  0  0  0  0
  6 16  2  0  0  0  0
  7 16  1  0  0  0  0
  7 18  1  0  0  0  0
  7 25  1  0  0  0  0
  8 17  1  0  0  0  0
  8 18  2  0  0  0  0
  9 18  1  0  0  0  0
  9 28  1  0  0  0  0
  9 29  1  0  0  0  0
 10 11  1  0  0  0  0
 10 12  1  0  0  0  0
 10 19  1  0  0  0  0
 11 13  1  0  0  0  0
 11 20  1  0  0  0  0
 12 15  2  0  0  0  0
 13 21  1  0  0  0  0
 13 22  1  0  0  0  0
 14 16  1  0  0  0  0
 14 17  1  0  0  0  0
 15 23  1  0  0  0  0
M  END
> <PUBCHEM_COMPOUND_CID>
448839

> <PUBCHEM_CONFORMER_RMSD>
0.6

> <PUBCHEM_CONFORMER_DIVERSEORDER>
1
5
23
9
16
7
18
2
19
17
20
6
8
21
10
13
3
4
22
15
12
14
11

> <PUBCHEM_MMFF94_PARTIAL_CHARGES>
25
1 -0.68
10 0.42
11 0.28
12 0.17
13 0.28
14 0.4
15 0.16
16 0.41
17 0.69
18 0.55
2 -0.68
23 0.15
24 0.4
25 0.4
26 0.4
27 0.4
28 0.4
29 0.4
3 -0.68
4 -0.57
5 -0.62
6 -0.62
7 -0.55
8 -0.66
9 -0.85

> <PUBCHEM_EFFECTIVE_ROTOR_COUNT>
3

> <PUBCHEM_PHARMACOPHORE_FEATURES>
14
1 1 acceptor
1 1 donor
1 2 acceptor
1 2 donor
1 3 acceptor
1 3 donor
1 4 acceptor
1 5 acceptor
1 7 donor
1 8 donor
1 9 donor
3 6 7 16 cation
6 5 6 12 14 15 16 rings
6 7 8 14 16 17 18 rings

> <PUBCHEM_HEAVY_ATOM_COUNT>
18

> <PUBCHEM_ATOM_DEF_STEREO_COUNT>
2

> <PUBCHEM_ATOM_UDEF_STEREO_COUNT>
0

> <PUBCHEM_BOND_DEF_STEREO_COUNT>
0

> <PUBCHEM_BOND_UDEF_STEREO_COUNT>
0

> <PUBCHEM_ISOTOPIC_ATOM_COUNT>
0

> <PUBCHEM_COMPONENT_COUNT>
1

> <PUBCHEM_CACTVS_TAUTO_COUNT>
9

> <PUBCHEM_CONFORMER_ID>
0006D94700000001

> <PUBCHEM_MMFF94_ENERGY>
49.9919

> <PUBCHEM_FEATURE_SELFOVERLAP>
71.235

> <PUBCHEM_SHAPE_FINGERPRINT>
10062212 137 18272375291078430587
10130415 120 18412543176259588333
11132069 177 18113899368731440053
11578080 2 17844274902597237132
12236239 1 18131344211522473436
12251169 10 18187650184700838392
12382932 28 18333736805762645434
12553582 1 18409164381201022508
12633257 1 17749974192618365818
13083527 12 16739210573279998295
13140716 1 18190178984245925825
14022347 108 18265873852642267052
14144814 61 18337102389243164341
14178342 30 18042134175777607726
14289901 80 14779265315160721453
15342168 16 14779846901198955616
15375462 189 18201157663562544192
16752209 62 18337665425148906549
16945 1 18334288760526104997
1813 80 17559956692233418254
19049666 15 17024860692205072296
19784866 240 16916511475030167914
19786989 88 15768921339081805652
20361792 2 17059783337935263460
20510252 161 17968087681084624249
20559304 39 18411694396512258204
20645476 183 17843382025934589359
20645477 70 16272208583096892992
21197605 99 5654701393971214850
21501502 16 18045500803335742309
21501925 9 18334017159621133401
2255824 54 18056470652210435660
22892500 29 15430026665338923260
22959321 94 18411423916387964328
232386 152 18410578349223293934
23366157 5 17982454789414448517
23402539 116 18041002851817148069
23419403 2 16595964085500564205
23463225 33 18410848871769655775
23557571 272 17096366133542183095
23559900 14 17968084322868312340
23598291 2 17702646899985587828
2748010 2 18046895263210406237
3286 77 15913331312011097298
3323516 105 14764636325648283345
34934 24 18264482884687096644
4072396 5 18410013282188586313
465052 167 18201423745946327867
474 4 17414422901929213988
495365 180 16371003044036494398
4990 188 13758359964035124553
5104073 3 18190734246735376219
53812654 25 18408605842216021701
5902787 121 18264489490167118297
77492 1 18131344206995417044
81228 2 17968920011418538009
90316 7 18340491161305667433

> <PUBCHEM_SHAPE_MULTIPOLES>
322.05
7.37
1.91
1.3
1.77
0.02
0.14
1.93
2.58
0.3
-0.13
-1.78
0.18
-0.97

> <PUBCHEM_SHAPE_SELFOVERLAP>
688.031

> <PUBCHEM_SHAPE_VOLUME>
175.8

> <PUBCHEM_COORDINATE_TYPE>
2
5
10

$$$$

