5315669
  -OEChem-07051213113D

 27 27  0     1  0  0  0  0  0999 V2000
    2.9076    1.2984    1.2201 O   0  0  0  0  0  0  0  0  0  0  0  0
    3.4292    0.8930   -0.0447 C   0  0  1  0  0  0  0  0  0  0  0  0
    3.3620   -0.6329   -0.1392 C   0  0  0  0  0  0  0  0  0  0  0  0
   -1.5304   -0.8094    0.0499 C   0  0  0  0  0  0  0  0  0  0  0  0
   -0.5546   -1.9565    0.0951 C   0  0  0  0  0  0  0  0  0  0  0  0
    2.6012    1.5488   -1.1422 C   0  0  0  0  0  0  0  0  0  0  0  0
   -1.9300   -0.2065    1.2338 C   0  0  0  0  0  0  0  0  0  0  0  0
   -2.0149   -0.3736   -1.1749 C   0  0  0  0  0  0  0  0  0  0  0  0
    1.9731   -1.1118   -0.0540 C   0  0  0  0  0  0  0  0  0  0  0  0
   -2.8337    0.8554    1.1921 C   0  0  0  0  0  0  0  0  0  0  0  0
   -2.9185    0.6882   -1.2166 C   0  0  0  0  0  0  0  0  0  0  0  0
    0.8370   -1.4956    0.0138 C   0  0  0  0  0  0  0  0  0  0  0  0
   -3.3279    1.3026   -0.0331 C   0  0  0  0  0  0  0  0  0  0  0  0
    4.4695    1.2294   -0.1112 H   0  0  0  0  0  0  0  0  0  0  0  0
    3.9375   -1.0770    0.6816 H   0  0  0  0  0  0  0  0  0  0  0  0
    3.8151   -0.9704   -1.0782 H   0  0  0  0  0  0  0  0  0  0  0  0
   -0.7047   -2.5330    1.0164 H   0  0  0  0  0  0  0  0  0  0  0  0
   -0.7664   -2.6541   -0.7249 H   0  0  0  0  0  0  0  0  0  0  0  0
    2.7360    2.6359   -1.1043 H   0  0  0  0  0  0  0  0  0  0  0  0
    1.5272    1.3781   -1.0136 H   0  0  0  0  0  0  0  0  0  0  0  0
    2.9046    1.2032   -2.1352 H   0  0  0  0  0  0  0  0  0  0  0  0
   -1.5500   -0.5461    2.1932 H   0  0  0  0  0  0  0  0  0  0  0  0
   -1.7015   -0.8441   -2.1025 H   0  0  0  0  0  0  0  0  0  0  0  0
   -3.1521    1.3342    2.1135 H   0  0  0  0  0  0  0  0  0  0  0  0
   -3.3030    1.0370   -2.1706 H   0  0  0  0  0  0  0  0  0  0  0  0
   -4.0312    2.1295   -0.0657 H   0  0  0  0  0  0  0  0  0  0  0  0
    3.4594    0.8899    1.9087 H   0  0  0  0  0  0  0  0  0  0  0  0
  1  2  1  0  0  0  0
  1 27  1  0  0  0  0
  2  3  1  0  0  0  0
  2  6  1  0  0  0  0
  2 14  1  0  0  0  0
  3  9  1  0  0  0  0
  3 15  1  0  0  0  0
  3 16  1  0  0  0  0
  4  5  1  0  0  0  0
  4  7  2  0  0  0  0
  4  8  1  0  0  0  0
  5 12  1  0  0  0  0
  5 17  1  0  0  0  0
  5 18  1  0  0  0  0
  6 19  1  0  0  0  0
  6 20  1  0  0  0  0
  6 21  1  0  0  0  0
  7 10  1  0  0  0  0
  7 22  1  0  0  0  0
  8 11  2  0  0  0  0
  8 23  1  0  0  0  0
  9 12  3  0  0  0  0
 10 13  2  0  0  0  0
 10 24  1  0  0  0  0
 11 13  1  0  0  0  0
 11 25  1  0  0  0  0
 13 26  1  0  0  0  0
M  END
> <PUBCHEM_COMPOUND_CID>
5315669

> <PUBCHEM_CONFORMER_RMSD>
0.6

> <PUBCHEM_CONFORMER_DIVERSEORDER>
1
8
7
9
2
6
4
5
3

> <PUBCHEM_MMFF94_PARTIAL_CHARGES>
18
1 -0.68
10 -0.15
11 -0.15
12 -0.2
13 -0.15
2 0.28
22 0.15
23 0.15
24 0.15
25 0.15
26 0.15
27 0.4
3 0.2
4 -0.14
5 0.34
7 -0.15
8 -0.15
9 -0.2

> <PUBCHEM_EFFECTIVE_ROTOR_COUNT>
2

> <PUBCHEM_PHARMACOPHORE_FEATURES>
3
1 1 acceptor
1 1 donor
6 4 7 8 10 11 13 rings

> <PUBCHEM_HEAVY_ATOM_COUNT>
13

> <PUBCHEM_ATOM_DEF_STEREO_COUNT>
0

> <PUBCHEM_ATOM_UDEF_STEREO_COUNT>
1

> <PUBCHEM_BOND_DEF_STEREO_COUNT>
0

> <PUBCHEM_BOND_UDEF_STEREO_COUNT>
0

> <PUBCHEM_ISOTOPIC_ATOM_COUNT>
0

> <PUBCHEM_COMPONENT_COUNT>
1

> <PUBCHEM_CACTVS_TAUTO_COUNT>
1

> <PUBCHEM_CONFORMER_ID>
00511C5500000001

> <PUBCHEM_MMFF94_ENERGY>
20.7118

> <PUBCHEM_FEATURE_SELFOVERLAP>
15.223

> <PUBCHEM_SHAPE_FINGERPRINT>
10149128 111 18335134314858295962
11127187 94 5039944131452496813
11615756 256 18271231764357163044
11615756 56 18131077081425405724
12824470 246 11958570424627941977
13618510 140 18342171150843201844
13693222 7 18338793416825914102
15342168 16 18341036480787201061
15775835 57 18259984889844068316
18186145 218 18409162251092675702
18219364 16 18201436999555864077
19107657 9 18410281502379484164
20361792 2 9367341526834528251
20442098 301 11743844663871191384
20449540 30 18335421240686666399
20645476 183 17313674853228311471
20653085 51 18261108629619965319
21475661 188 17557425689275468421
21524375 3 18409730672618465990
27216 239 18059850610893512585
4921388 177 15574710266455721127
5262128 65 15936684870297517712
8050 44 18117005377316052632
81228 2 17841979014522271483
90316 7 14476957934841715151

> <PUBCHEM_SHAPE_MULTIPOLES>
261.66
6.78
1.86
1.25
2.41
0.18
-0.07
-3.23
-0.11
0.61
0.1
-0.59
-0.36
-0.02

> <PUBCHEM_SHAPE_SELFOVERLAP>
527.524

> <PUBCHEM_SHAPE_VOLUME>
150.8

> <PUBCHEM_COORDINATE_TYPE>
2
5
10

$$$$

