12464
  -OEChem-06261206582D

 14 14  0     0  0  0  0  0  0999 V2000
    2.0000    0.8450    0.0000 Cl  0  0  0  0  0  0  0  0  0  0  0  0
    2.0000   -1.1550    0.0000 Cl  0  0  0  0  0  0  0  0  0  0  0  0
    3.7320   -2.1550    0.0000 Cl  0  0  0  0  0  0  0  0  0  0  0  0
    3.7320    1.8450    0.0000 N   0  0  0  0  0  0  0  0  0  0  0  0
    3.7320    0.8450    0.0000 C   0  0  0  0  0  0  0  0  0  0  0  0
    2.8660    0.3450    0.0000 C   0  0  0  0  0  0  0  0  0  0  0  0
    4.5981    0.3450    0.0000 C   0  0  0  0  0  0  0  0  0  0  0  0
    2.8660   -0.6550    0.0000 C   0  0  0  0  0  0  0  0  0  0  0  0
    4.5981   -0.6550    0.0000 C   0  0  0  0  0  0  0  0  0  0  0  0
    3.7320   -1.1550    0.0000 C   0  0  0  0  0  0  0  0  0  0  0  0
    5.1350    0.6550    0.0000 H   0  0  0  0  0  0  0  0  0  0  0  0
    5.1350   -0.9650    0.0000 H   0  0  0  0  0  0  0  0  0  0  0  0
    4.2690    2.1550    0.0000 H   0  0  0  0  0  0  0  0  0  0  0  0
    3.1951    2.1550    0.0000 H   0  0  0  0  0  0  0  0  0  0  0  0
  1  6  1  0  0  0  0
  2  8  1  0  0  0  0
  3 10  1  0  0  0  0
  4  5  1  0  0  0  0
  4 13  1  0  0  0  0
  4 14  1  0  0  0  0
  5  6  2  0  0  0  0
  5  7  1  0  0  0  0
  6  8  1  0  0  0  0
  7  9  2  0  0  0  0
  7 11  1  0  0  0  0
  8 10  2  0  0  0  0
  9 10  1  0  0  0  0
  9 12  1  0  0  0  0
M  END
> <PUBCHEM_COMPOUND_CID>
12464

> <PUBCHEM_COMPOUND_CANONICALIZED>
1

> <PUBCHEM_CACTVS_COMPLEXITY>
120

> <PUBCHEM_CACTVS_HBOND_ACCEPTOR>
1

> <PUBCHEM_CACTVS_HBOND_DONOR>
1

> <PUBCHEM_CACTVS_ROTATABLE_BOND>
0

> <PUBCHEM_CACTVS_SUBSKEYS>
AAADcYBiAAAGAAAAAAAAAAAAAAAAAAAAAAAwAAAAAAAAAAABAAAAHAIQAAAACAqBECAwwIBAAACAACRCQACCAAAgBwAIikAAZogIICKBkpGAIABgkAAIyAcQAAAAAABAAAKAABQAAIAABQAAKAAAAAAAAA==

> <PUBCHEM_IUPAC_OPENEYE_NAME>
2,3,4-trichloroaniline

> <PUBCHEM_IUPAC_CAS_NAME>
2,3,4-trichloroaniline

> <PUBCHEM_IUPAC_NAME>
2,3,4-trichloroaniline

> <PUBCHEM_IUPAC_SYSTEMATIC_NAME>
2,3,4-tris(chloranyl)aniline

> <PUBCHEM_IUPAC_TRADITIONAL_NAME>
(2,3,4-trichlorophenyl)amine

> <PUBCHEM_IUPAC_INCHI>
InChI=1S/C6H4Cl3N/c7-3-1-2-4(10)6(9)5(3)8/h1-2H,10H2

> <PUBCHEM_IUPAC_INCHIKEY>
RRJUYQOFOMFVQS-UHFFFAOYSA-N

> <PUBCHEM_XLOGP3>
3.7

> <PUBCHEM_EXACT_MASS>
194.940932

> <PUBCHEM_MOLECULAR_FORMULA>
C6H4Cl3N

> <PUBCHEM_MOLECULAR_WEIGHT>
196.46166

> <PUBCHEM_OPENEYE_CAN_SMILES>
C1=CC(=C(C(=C1N)Cl)Cl)Cl

> <PUBCHEM_OPENEYE_ISO_SMILES>
C1=CC(=C(C(=C1N)Cl)Cl)Cl

> <PUBCHEM_CACTVS_TPSA>
26

> <PUBCHEM_MONOISOTOPIC_WEIGHT>
194.940932

> <PUBCHEM_TOTAL_CHARGE>
0

> <PUBCHEM_HEAVY_ATOM_COUNT>
10

> <PUBCHEM_ATOM_DEF_STEREO_COUNT>
0

> <PUBCHEM_ATOM_UDEF_STEREO_COUNT>
0

> <PUBCHEM_BOND_DEF_STEREO_COUNT>
0

> <PUBCHEM_BOND_UDEF_STEREO_COUNT>
0

> <PUBCHEM_ISOTOPIC_ATOM_COUNT>
0

> <PUBCHEM_COMPONENT_COUNT>
1

> <PUBCHEM_CACTVS_TAUTO_COUNT>
1

> <PUBCHEM_COORDINATE_TYPE>
1
5
255

> <PUBCHEM_BONDANNOTATIONS>
5  6  8
5  7  8
6  8  8
7  9  8
8  10  8
9  10  8

$$$$

