441401
  -OEChem-07051212543D

 44 46  0     1  0  0  0  0  0999 V2000
   -2.9801   -2.1926   -0.1496 F   0  0  0  0  0  0  0  0  0  0  0  0
    3.4284   -1.1106    0.7095 O   0  0  0  0  0  0  0  0  0  0  0  0
   -6.9538    0.7586   -0.5818 O   0  0  0  0  0  0  0  0  0  0  0  0
    1.7217   -2.5697    0.3904 O   0  0  0  0  0  0  0  0  0  0  0  0
    6.7270    1.8462   -0.0687 O   0  0  0  0  0  0  0  0  0  0  0  0
    1.3544   -0.2369    0.5377 N   0  0  0  0  0  0  0  0  0  0  0  0
   -4.2275    0.3045   -0.0721 N   0  0  0  0  0  0  0  0  0  0  0  0
    5.4810    0.0688   -0.9089 N   0  0  0  0  0  0  0  0  0  0  0  0
    3.6012    0.3109    0.6236 C   0  0  2  0  0  0  0  0  0  0  0  0
    2.2144    0.8719    0.8538 C   0  0  0  0  0  0  0  0  0  0  0  0
   -4.8387   -0.1700   -1.3213 C   0  0  0  0  0  0  0  0  0  0  0  0
   -4.9297    1.4120    0.5854 C   0  0  0  0  0  0  0  0  0  0  0  0
   -0.0548   -0.1010    0.3834 C   0  0  0  0  0  0  0  0  0  0  0  0
    4.1678    0.6554   -0.7469 C   0  0  0  0  0  0  0  0  0  0  0  0
   -2.8437    0.1682    0.0792 C   0  0  0  0  0  0  0  0  0  0  0  0
   -6.3282   -0.4125   -1.1060 C   0  0  0  0  0  0  0  0  0  0  0  0
   -6.4147    1.0855    0.6985 C   0  0  0  0  0  0  0  0  0  0  0  0
    2.0989   -1.4136    0.5191 C   0  0  0  0  0  0  0  0  0  0  0  0
   -0.8474   -1.2319    0.1876 C   0  0  0  0  0  0  0  0  0  0  0  0
   -0.6424    1.1632    0.4285 C   0  0  0  0  0  0  0  0  0  0  0  0
   -2.2277   -1.0988    0.0372 C   0  0  0  0  0  0  0  0  0  0  0  0
   -2.0228    1.2964    0.2778 C   0  0  0  0  0  0  0  0  0  0  0  0
    6.6481    0.7203   -0.5533 C   0  0  0  0  0  0  0  0  0  0  0  0
    7.8687   -0.1241   -0.8032 C   0  0  0  0  0  0  0  0  0  0  0  0
    4.2868    0.6325    1.4157 H   0  0  0  0  0  0  0  0  0  0  0  0
    2.0662    1.1249    1.9099 H   0  0  0  0  0  0  0  0  0  0  0  0
    2.0254    1.7509    0.2311 H   0  0  0  0  0  0  0  0  0  0  0  0
   -4.3800   -1.0934   -1.6891 H   0  0  0  0  0  0  0  0  0  0  0  0
   -4.6972    0.6002   -2.0897 H   0  0  0  0  0  0  0  0  0  0  0  0
   -4.8033    2.3235   -0.0118 H   0  0  0  0  0  0  0  0  0  0  0  0
   -4.5322    1.5935    1.5909 H   0  0  0  0  0  0  0  0  0  0  0  0
    4.2417    1.7405   -0.8749 H   0  0  0  0  0  0  0  0  0  0  0  0
    3.5456    0.2466   -1.5504 H   0  0  0  0  0  0  0  0  0  0  0  0
   -6.8091   -0.6519   -2.0597 H   0  0  0  0  0  0  0  0  0  0  0  0
   -6.5017   -1.2548   -0.4254 H   0  0  0  0  0  0  0  0  0  0  0  0
   -6.5889    0.2525    1.3905 H   0  0  0  0  0  0  0  0  0  0  0  0
   -6.9599    1.9539    1.0819 H   0  0  0  0  0  0  0  0  0  0  0  0
   -0.4581   -2.2397    0.1410 H   0  0  0  0  0  0  0  0  0  0  0  0
   -0.0677    2.0703    0.5844 H   0  0  0  0  0  0  0  0  0  0  0  0
   -2.4441    2.2982    0.3076 H   0  0  0  0  0  0  0  0  0  0  0  0
    5.5336   -0.8728   -1.2870 H   0  0  0  0  0  0  0  0  0  0  0  0
    8.7683    0.4891   -0.7002 H   0  0  0  0  0  0  0  0  0  0  0  0
    7.9036   -0.9392   -0.0751 H   0  0  0  0  0  0  0  0  0  0  0  0
    7.8426   -0.5393   -1.8149 H   0  0  0  0  0  0  0  0  0  0  0  0
  1 21  1  0  0  0  0
  2  9  1  0  0  0  0
  2 18  1  0  0  0  0
  3 16  1  0  0  0  0
  3 17  1  0  0  0  0
  4 18  2  0  0  0  0
  5 23  2  0  0  0  0
  6 10  1  0  0  0  0
  6 13  1  0  0  0  0
  6 18  1  0  0  0  0
  7 11  1  0  0  0  0
  7 12  1  0  0  0  0
  7 15  1  0  0  0  0
  8 14  1  0  0  0  0
  8 23  1  0  0  0  0
  8 41  1  0  0  0  0
  9 10  1  0  0  0  0
  9 14  1  0  0  0  0
  9 25  1  0  0  0  0
 10 26  1  0  0  0  0
 10 27  1  0  0  0  0
 11 16  1  0  0  0  0
 11 28  1  0  0  0  0
 11 29  1  0  0  0  0
 12 17  1  0  0  0  0
 12 30  1  0  0  0  0
 12 31  1  0  0  0  0
 13 19  2  0  0  0  0
 13 20  1  0  0  0  0
 14 32  1  0  0  0  0
 14 33  1  0  0  0  0
 15 21  2  0  0  0  0
 15 22  1  0  0  0  0
 16 34  1  0  0  0  0
 16 35  1  0  0  0  0
 17 36  1  0  0  0  0
 17 37  1  0  0  0  0
 19 21  1  0  0  0  0
 19 38  1  0  0  0  0
 20 22  2  0  0  0  0
 20 39  1  0  0  0  0
 22 40  1  0  0  0  0
 23 24  1  0  0  0  0
 24 42  1  0  0  0  0
 24 43  1  0  0  0  0
 24 44  1  0  0  0  0
M  END
> <PUBCHEM_COMPOUND_CID>
441401

> <PUBCHEM_CONFORMER_RMSD>
0.8

> <PUBCHEM_CONFORMER_DIVERSEORDER>
1
82
48
39
71
47
60
80
81
14
52
35
5
41
115
83
53
22
106
12
95
17
110
23
16
43
86
50
111
99
27
42
74
4
24
30
20
84
107
91
61
57
6
69
76
32
78
73
46
28
103
112
89
109
45
8
85
66
21
56
2
94
104
105
59
9
31
38
100
63
7
116
96
58
90
64
67
75
3
114
54
15
19
97
36
101
70
79
87
10
108
44
98
25
93
68
77
11
37
26
88
72
51
113
62
102
29
18
55
92
40
13
65
49
34
33

> <PUBCHEM_MMFF94_PARTIAL_CHARGES>
28
1 -0.19
10 0.3
11 0.37
12 0.37
13 0.12
14 0.3
15 0.1
16 0.28
17 0.28
18 0.78
19 -0.15
2 -0.43
20 -0.15
21 0.19
22 -0.15
23 0.57
24 0.06
3 -0.56
38 0.15
39 0.15
4 -0.57
40 0.15
41 0.37
5 -0.57
6 -0.48
7 -0.84
8 -0.73
9 0.28

> <PUBCHEM_EFFECTIVE_ROTOR_COUNT>
7

> <PUBCHEM_PHARMACOPHORE_FEATURES>
8
1 3 acceptor
1 4 acceptor
1 5 acceptor
1 7 cation
1 8 donor
5 2 6 9 10 18 rings
6 13 15 19 20 21 22 rings
6 3 7 11 12 16 17 rings

> <PUBCHEM_HEAVY_ATOM_COUNT>
24

> <PUBCHEM_ATOM_DEF_STEREO_COUNT>
1

> <PUBCHEM_ATOM_UDEF_STEREO_COUNT>
0

> <PUBCHEM_BOND_DEF_STEREO_COUNT>
0

> <PUBCHEM_BOND_UDEF_STEREO_COUNT>
0

> <PUBCHEM_ISOTOPIC_ATOM_COUNT>
0

> <PUBCHEM_COMPONENT_COUNT>
1

> <PUBCHEM_CACTVS_TAUTO_COUNT>
2

> <PUBCHEM_CONFORMER_ID>
0006BC3900000001

> <PUBCHEM_MMFF94_ENERGY>
71.6336

> <PUBCHEM_FEATURE_SELFOVERLAP>
40.594

> <PUBCHEM_SHAPE_FINGERPRINT>
10 15 14979953662209616860
106641 1 10087634885037244502
10670039 82 18335138734406686641
10835480 77 18189053110731905368
10906281 52 18409720785782839115
10968037 39 18411982460126971917
11315181 36 16732979808362657993
11524674 6 13839988802793820965
12236239 1 18410856581167373634
12788726 201 17677045875549799777
12838862 33 18341909471671646500
13533116 47 18336551628354681962
13668630 136 14996277016357556244
13685833 64 6699809774502913588
14123256 10 18411699889606696141
14251764 18 18413675707685691435
14341114 176 11167947948949710062
14528608 73 18334299755752950993
15048467 5 18131070432836941900
15183329 4 18040151837847839178
15301273 46 13326858859740901810
15716309 27 9943809980256841468
18335252 114 18202848743049178260
18335252 98 18060131029999586243
18681886 176 17385733469141154401
20281389 69 17846503638425388604
21150785 3 17967251983601383845
21267235 1 18041000597444432191
220451 1 18187087282598582291
221357 26 17894911832809375008
22224240 67 11743835842525732776
2297311 6 16588024619774482161
23198884 109 18186799188491842465
23402539 116 18409728427251935940
23522609 53 18042947917319004745
23559900 14 18188497860736896264
25147074 1 18189895503403508778
300161 21 17989491805517994010
3004659 81 18187087247706367048
335352 9 18408886226308060004
3545911 37 18342175565863606768
4325135 7 18341613732928918773
4340502 62 15913328013439239496

> <PUBCHEM_SHAPE_MULTIPOLES>
448.21
19.58
1.72
0.98
11.15
0.64
0.16
-6.28
6.66
0.02
-0.28
-0.19
0
-0.91

> <PUBCHEM_SHAPE_SELFOVERLAP>
947.112

> <PUBCHEM_SHAPE_VOLUME>
252.6

> <PUBCHEM_COORDINATE_TYPE>
2
5
10

$$$$

