174868
  -OEChem-07051212573D

 45 47  0     1  0  0  0  0  0999 V2000
   -0.1760    1.5840   -2.0570 O   0  0  0  0  0  0  0  0  0  0  0  0
   -3.1424   -0.2160    0.3249 O   0  0  0  0  0  0  0  0  0  0  0  0
   -2.6650    2.5757    0.8826 O   0  0  0  0  0  0  0  0  0  0  0  0
    3.5407   -0.5435   -0.1892 O   0  0  0  0  0  0  0  0  0  0  0  0
   -3.7837   -2.0398    1.5711 O   0  0  0  0  0  0  0  0  0  0  0  0
    4.7220   -0.0519    1.7343 O   0  0  0  0  0  0  0  0  0  0  0  0
   -0.9763    0.9399    0.1784 C   0  0  2  0  0  0  0  0  0  0  0  0
    0.2586    1.3184   -0.7025 C   0  0  1  0  0  0  0  0  0  0  0  0
   -2.0525    0.1129   -0.5789 C   0  0  1  0  0  0  0  0  0  0  0  0
    1.3885    0.2633   -0.8499 C   0  0  2  0  0  0  0  0  0  0  0  0
    0.7292    2.6725   -0.1363 C   0  0  0  0  0  0  0  0  0  0  0  0
   -1.6864   -1.2312   -1.2127 C   0  0  1  0  0  0  0  0  0  0  0  0
   -1.5384    2.3487    0.4544 C   0  0  0  0  0  0  0  0  0  0  0  0
    0.9047   -1.1935   -1.0110 C   0  0  0  0  0  0  0  0  0  0  0  0
   -0.5504    3.4475    0.1551 C   0  0  0  0  0  0  0  0  0  0  0  0
   -0.3240   -1.3987   -1.8908 C   0  0  0  0  0  0  0  0  0  0  0  0
   -0.6288    0.3949    1.5761 C   0  0  0  0  0  0  0  0  0  0  0  0
    2.4825    0.2967    0.2268 C   0  0  0  0  0  0  0  0  0  0  0  0
   -2.0601   -2.1746   -0.1172 C   0  0  0  0  0  0  0  0  0  0  0  0
   -3.0914   -1.5226    0.7136 C   0  0  0  0  0  0  0  0  0  0  0  0
   -1.6113   -3.3989    0.1705 C   0  0  0  0  0  0  0  0  0  0  0  0
    4.6113   -0.6317    0.6625 C   0  0  0  0  0  0  0  0  0  0  0  0
    5.6491   -1.5520    0.0951 C   0  0  0  0  0  0  0  0  0  0  0  0
   -2.5024    0.7432   -1.3572 H   0  0  0  0  0  0  0  0  0  0  0  0
    1.9013    0.4924   -1.7981 H   0  0  0  0  0  0  0  0  0  0  0  0
    1.3611    3.2259   -0.8390 H   0  0  0  0  0  0  0  0  0  0  0  0
    1.2743    2.5639    0.8064 H   0  0  0  0  0  0  0  0  0  0  0  0
   -2.4321   -1.4138   -2.0031 H   0  0  0  0  0  0  0  0  0  0  0  0
    0.7579   -1.6685   -0.0366 H   0  0  0  0  0  0  0  0  0  0  0  0
    1.7229   -1.7612   -1.4767 H   0  0  0  0  0  0  0  0  0  0  0  0
   -0.8910    4.0116   -0.7175 H   0  0  0  0  0  0  0  0  0  0  0  0
   -0.4319    4.1113    1.0147 H   0  0  0  0  0  0  0  0  0  0  0  0
   -0.2658   -0.7587   -2.7783 H   0  0  0  0  0  0  0  0  0  0  0  0
   -0.2759   -2.4226   -2.2869 H   0  0  0  0  0  0  0  0  0  0  0  0
   -1.5053    0.3926    2.2350 H   0  0  0  0  0  0  0  0  0  0  0  0
   -0.2444   -0.6253    1.5461 H   0  0  0  0  0  0  0  0  0  0  0  0
    0.1188    1.0154    2.0819 H   0  0  0  0  0  0  0  0  0  0  0  0
    2.1018   -0.0391    1.1963 H   0  0  0  0  0  0  0  0  0  0  0  0
    2.8933    1.3052    0.3300 H   0  0  0  0  0  0  0  0  0  0  0  0
   -0.9029    2.2274   -2.0441 H   0  0  0  0  0  0  0  0  0  0  0  0
   -0.8533   -3.8774   -0.4395 H   0  0  0  0  0  0  0  0  0  0  0  0
   -1.9869   -3.9595    1.0200 H   0  0  0  0  0  0  0  0  0  0  0  0
    6.0067   -1.1617   -0.8610 H   0  0  0  0  0  0  0  0  0  0  0  0
    5.2272   -2.5522   -0.0308 H   0  0  0  0  0  0  0  0  0  0  0  0
    6.4954   -1.6145    0.7851 H   0  0  0  0  0  0  0  0  0  0  0  0
  1  8  1  0  0  0  0
  1 40  1  0  0  0  0
  2  9  1  0  0  0  0
  2 20  1  0  0  0  0
  3 13  2  0  0  0  0
  4 18  1  0  0  0  0
  4 22  1  0  0  0  0
  5 20  2  0  0  0  0
  6 22  2  0  0  0  0
  7  8  1  0  0  0  0
  7  9  1  0  0  0  0
  7 13  1  0  0  0  0
  7 17  1  0  0  0  0
  8 10  1  0  0  0  0
  8 11  1  0  0  0  0
  9 12  1  0  0  0  0
  9 24  1  0  0  0  0
 10 14  1  0  0  0  0
 10 18  1  0  0  0  0
 10 25  1  0  0  0  0
 11 15  1  0  0  0  0
 11 26  1  0  0  0  0
 11 27  1  0  0  0  0
 12 16  1  0  0  0  0
 12 19  1  0  0  0  0
 12 28  1  0  0  0  0
 13 15  1  0  0  0  0
 14 16  1  0  0  0  0
 14 29  1  0  0  0  0
 14 30  1  0  0  0  0
 15 31  1  0  0  0  0
 15 32  1  0  0  0  0
 16 33  1  0  0  0  0
 16 34  1  0  0  0  0
 17 35  1  0  0  0  0
 17 36  1  0  0  0  0
 17 37  1  0  0  0  0
 18 38  1  0  0  0  0
 18 39  1  0  0  0  0
 19 20  1  0  0  0  0
 19 21  2  0  0  0  0
 21 41  1  0  0  0  0
 21 42  1  0  0  0  0
 22 23  1  0  0  0  0
 23 43  1  0  0  0  0
 23 44  1  0  0  0  0
 23 45  1  0  0  0  0
M  END
> <PUBCHEM_COMPOUND_CID>
174868

> <PUBCHEM_CONFORMER_RMSD>
0.8

> <PUBCHEM_CONFORMER_DIVERSEORDER>
1
4
7
5
9
2
6
10
8
3

> <PUBCHEM_MMFF94_PARTIAL_CHARGES>
21
1 -0.68
12 0.14
13 0.45
15 0.06
18 0.28
19 -0.12
2 -0.43
20 0.71
21 -0.3
22 0.66
23 0.06
3 -0.57
4 -0.43
40 0.4
41 0.15
42 0.15
5 -0.57
6 -0.57
7 0.06
8 0.28
9 0.28

> <PUBCHEM_EFFECTIVE_ROTOR_COUNT>
4.2

> <PUBCHEM_PHARMACOPHORE_FEATURES>
8
1 1 acceptor
1 1 donor
1 3 acceptor
1 5 acceptor
1 6 acceptor
5 2 9 12 19 20 rings
5 7 8 11 13 15 rings
7 7 8 9 10 12 14 16 rings

> <PUBCHEM_HEAVY_ATOM_COUNT>
23

> <PUBCHEM_ATOM_DEF_STEREO_COUNT>
5

> <PUBCHEM_ATOM_UDEF_STEREO_COUNT>
0

> <PUBCHEM_BOND_DEF_STEREO_COUNT>
0

> <PUBCHEM_BOND_UDEF_STEREO_COUNT>
0

> <PUBCHEM_ISOTOPIC_ATOM_COUNT>
0

> <PUBCHEM_COMPONENT_COUNT>
1

> <PUBCHEM_CACTVS_TAUTO_COUNT>
2

> <PUBCHEM_CONFORMER_ID>
0002AB1400000001

> <PUBCHEM_MMFF94_ENERGY>
73.6019

> <PUBCHEM_FEATURE_SELFOVERLAP>
40.664

> <PUBCHEM_SHAPE_FINGERPRINT>
10863032 1 17834950872220572399
10906281 52 18261943137660735941
10948715 1 17682120215874276445
11357001 24 18410014363977064824
11370993 144 17386000711203141426
12035758 1 18336816572787981377
12422481 6 18116687760310762051
12553582 1 18264197028780291270
12633257 1 16950279564410055498
12788726 201 18268971155660187240
13004483 165 18411704248850613704
13140716 1 18190175677052685315
13994607 96 6049877545970246738
14420673 8 17760366987526952430
14787075 74 17841997689719815624
15042514 8 18339635749885660808
15099037 37 18335701671806813660
15230672 131 17762611090980984710
15295992 7 17314248811546675240
15375462 189 18051964831783909301
15475509 35 17269734846925971771
16945 1 18262784186724850719
17780758 139 18198923538183243866
20600515 1 18260817173191642441
21041028 32 18338511928858767519
21650355 55 18410013229936887076
22182313 1 17897145021985921783
2334 1 17539679210740676573
23402539 116 18261684743832343239
23419403 2 5542048292572092997
23559900 14 18410582769124839416
23728640 28 18339359785283218018
2748010 2 17899108767228358933
312423 11 18272925030197882564
394222 165 17323211746293632537
4340502 62 17898846022689104025
484985 159 18058741332705856138
7097593 13 17905325130672332622
81228 2 18189038932205785877
90316 7 18408881836825038200

> <PUBCHEM_SHAPE_MULTIPOLES>
438.11
7.05
3.58
1.48
12.25
1.21
-0.18
-4.71
3.43
-2.62
0.25
-0.15
-0.2
0.1

> <PUBCHEM_SHAPE_SELFOVERLAP>
935.045

> <PUBCHEM_SHAPE_VOLUME>
241.9

> <PUBCHEM_COORDINATE_TYPE>
2
5
10

$$$$

