10890
  -OEChem-06261205053D

 29 28  0     0  0  0  0  0  0999 V2000
    0.4646    0.3285    0.0129 O   0  0  0  0  0  0  0  0  0  0  0  0
    1.7320   -1.5992   -0.0105 O   0  0  0  0  0  0  0  0  0  0  0  0
   -3.2440   -0.2737    0.0231 C   0  0  0  0  0  0  0  0  0  0  0  0
   -1.9240    0.4942    0.0334 C   0  0  0  0  0  0  0  0  0  0  0  0
   -4.4403    0.6772   -0.0034 C   0  0  0  0  0  0  0  0  0  0  0  0
   -0.7268   -0.4455    0.0173 C   0  0  0  0  0  0  0  0  0  0  0  0
   -5.7559   -0.0838   -0.0479 C   0  0  0  0  0  0  0  0  0  0  0  0
    2.8025    0.5848   -0.0031 C   0  0  0  0  0  0  0  0  0  0  0  0
    4.1456   -0.1408    0.0072 C   0  0  0  0  0  0  0  0  0  0  0  0
    1.6382   -0.3795   -0.0014 C   0  0  0  0  0  0  0  0  0  0  0  0
    5.3081    0.8379   -0.0275 C   0  0  0  0  0  0  0  0  0  0  0  0
   -3.3033   -0.9168    0.9095 H   0  0  0  0  0  0  0  0  0  0  0  0
   -3.2792   -0.9300   -0.8550 H   0  0  0  0  0  0  0  0  0  0  0  0
   -1.8678    1.1416    0.9174 H   0  0  0  0  0  0  0  0  0  0  0  0
   -1.8682    1.1650   -0.8333 H   0  0  0  0  0  0  0  0  0  0  0  0
   -4.4248    1.3196    0.8846 H   0  0  0  0  0  0  0  0  0  0  0  0
   -4.3763    1.3328   -0.8796 H   0  0  0  0  0  0  0  0  0  0  0  0
   -0.7556   -1.0745   -0.8803 H   0  0  0  0  0  0  0  0  0  0  0  0
   -0.7423   -1.0875    0.9059 H   0  0  0  0  0  0  0  0  0  0  0  0
    2.7250    1.2090   -0.9003 H   0  0  0  0  0  0  0  0  0  0  0  0
    2.7205    1.2226    0.8842 H   0  0  0  0  0  0  0  0  0  0  0  0
   -5.8167   -0.7105   -0.9434 H   0  0  0  0  0  0  0  0  0  0  0  0
   -5.8664   -0.7276    0.8306 H   0  0  0  0  0  0  0  0  0  0  0  0
   -6.5977    0.6153   -0.0648 H   0  0  0  0  0  0  0  0  0  0  0  0
    4.2248   -0.7677    0.9034 H   0  0  0  0  0  0  0  0  0  0  0  0
    4.2148   -0.8133   -0.8563 H   0  0  0  0  0  0  0  0  0  0  0  0
    6.2595    0.2968   -0.0183 H   0  0  0  0  0  0  0  0  0  0  0  0
    5.2761    1.4533   -0.9322 H   0  0  0  0  0  0  0  0  0  0  0  0
    5.2870    1.5028    0.8418 H   0  0  0  0  0  0  0  0  0  0  0  0
  1  6  1  0  0  0  0
  1 10  1  0  0  0  0
  2 10  2  0  0  0  0
  3  4  1  0  0  0  0
  3  5  1  0  0  0  0
  3 12  1  0  0  0  0
  3 13  1  0  0  0  0
  4  6  1  0  0  0  0
  4 14  1  0  0  0  0
  4 15  1  0  0  0  0
  5  7  1  0  0  0  0
  5 16  1  0  0  0  0
  5 17  1  0  0  0  0
  6 18  1  0  0  0  0
  6 19  1  0  0  0  0
  7 22  1  0  0  0  0
  7 23  1  0  0  0  0
  7 24  1  0  0  0  0
  8  9  1  0  0  0  0
  8 10  1  0  0  0  0
  8 20  1  0  0  0  0
  8 21  1  0  0  0  0
  9 11  1  0  0  0  0
  9 25  1  0  0  0  0
  9 26  1  0  0  0  0
 11 27  1  0  0  0  0
 11 28  1  0  0  0  0
 11 29  1  0  0  0  0
M  END
> <PUBCHEM_COMPOUND_CID>
10890

> <PUBCHEM_CONFORMER_RMSD>
0.8

> <PUBCHEM_CONFORMER_DIVERSEORDER>
1
118
122
76
22
109
74
60
36
34
153
157
31
70
40
17
137
81
82
61
148
131
39
127
63
38
155
32
64
14
35
57
136
143
8
105
7
30
102
134
79
128
151
156
13
95
94
108
67
10
97
120
93
78
12
149
104
9
158
21
152
92
73
145
69
52
19
42
98
62
53
75
77
88
110
58
107
96
68
45
18
132
115
50
56
129
84
24
85
15
47
121
41
135
43
4
54
90
3
101
87
116
72
113
119
117
49
130
29
80
125
138
126
20
55
66
25
83
89
111
86
146
6
16
91
159
5
103
124
65
114
28
150
27
141
33
142
140
2
46
106
99
112
123
51
44
100
154
11
37
147
71
23
144
139
48
59
133
26

> <PUBCHEM_MMFF94_PARTIAL_CHARGES>
5
1 -0.43
10 0.66
2 -0.57
6 0.28
8 0.06

> <PUBCHEM_EFFECTIVE_ROTOR_COUNT>
7

> <PUBCHEM_PHARMACOPHORE_FEATURES>
3
1 11 hydrophobe
1 2 acceptor
1 7 hydrophobe

> <PUBCHEM_HEAVY_ATOM_COUNT>
11

> <PUBCHEM_ATOM_DEF_STEREO_COUNT>
0

> <PUBCHEM_ATOM_UDEF_STEREO_COUNT>
0

> <PUBCHEM_BOND_DEF_STEREO_COUNT>
0

> <PUBCHEM_BOND_UDEF_STEREO_COUNT>
0

> <PUBCHEM_ISOTOPIC_ATOM_COUNT>
0

> <PUBCHEM_COMPONENT_COUNT>
1

> <PUBCHEM_CACTVS_TAUTO_COUNT>
1

> <PUBCHEM_CONFORMER_ID>
00002A8A00000001

> <PUBCHEM_MMFF94_ENERGY>
0.0262

> <PUBCHEM_FEATURE_SELFOVERLAP>
15.223

> <PUBCHEM_SHAPE_FINGERPRINT>
11062470 55 18202563986084092777
114248 4 18334575741851037193
12714333 28 17458346321342020040
12815109 37 15554449591392002349
14123238 8 18202565081612002581
14251718 22 17967816029161790719
15242439 84 6483351119302519957
15501527 24 18040436568541830293
17834072 33 17894634729681551325
17834076 25 18411138034627082217
187816 3 15646770085286902759
20279233 1 17703781540140022819
20605781 2 18411138017726904864
20645477 70 18262235650255043462
20719005 15 18410575089174356521
20767249 13 10592046855779201996
20767249 213 18130787832594786276
22485316 2 18059858380890303715
23402539 116 12751240281625509307
23402655 69 18260833734638393861
366044 4 18342739606870921547
42 15 10663819680579280825
42788 4 18410855464449652260
449060 50 18413670214253552407

> <PUBCHEM_SHAPE_MULTIPOLES>
214.64
12.66
0.99
0.6
4.44
0.19
0
-2.58
-0.19
-0.47
0
0.02
-0.01
-0.01

> <PUBCHEM_SHAPE_SELFOVERLAP>
387.638

> <PUBCHEM_SHAPE_VOLUME>
138.3

> <PUBCHEM_COORDINATE_TYPE>
2
5
10

$$$$

