164722
  -OEChem-07051213103D

 36 38  0     1  0  0  0  0  0999 V2000
    2.1967   -1.3880   -0.0486 O   0  0  0  0  0  0  0  0  0  0  0  0
    3.3966    0.7198   -1.7340 O   0  0  0  0  0  0  0  0  0  0  0  0
   -2.4978   -1.6646   -0.1244 O   0  0  0  0  0  0  0  0  0  0  0  0
   -0.3943    2.6736    0.2158 O   0  0  0  0  0  0  0  0  0  0  0  0
   -2.9686    2.3712    0.1694 O   0  0  0  0  0  0  0  0  0  0  0  0
    3.3992   -0.6674    0.2852 C   0  0  0  0  0  0  0  0  0  0  0  0
    3.4010    0.7590   -0.3041 C   0  0  2  0  0  0  0  0  0  0  0  0
    2.1732    1.5511    0.1344 C   0  0  0  0  0  0  0  0  0  0  0  0
    0.9351    0.7019    0.0665 C   0  0  0  0  0  0  0  0  0  0  0  0
    1.0175   -0.6931   -0.0134 C   0  0  0  0  0  0  0  0  0  0  0  0
    4.5506   -1.5014   -0.3010 C   0  0  0  0  0  0  0  0  0  0  0  0
    3.5534   -0.6544    1.8167 C   0  0  0  0  0  0  0  0  0  0  0  0
   -0.3263    1.3141    0.1090 C   0  0  0  0  0  0  0  0  0  0  0  0
   -0.1454   -1.4662   -0.0865 C   0  0  0  0  0  0  0  0  0  0  0  0
   -1.4844    0.5354    0.0458 C   0  0  0  0  0  0  0  0  0  0  0  0
   -1.3958   -0.8502   -0.0551 C   0  0  0  0  0  0  0  0  0  0  0  0
   -2.8154    1.1610    0.0813 C   0  0  0  0  0  0  0  0  0  0  0  0
   -3.7530   -1.0785   -0.0908 C   0  0  0  0  0  0  0  0  0  0  0  0
   -3.9674    0.2419    0.0050 C   0  0  0  0  0  0  0  0  0  0  0  0
   -4.8748   -2.0652   -0.1712 C   0  0  0  0  0  0  0  0  0  0  0  0
    4.3039    1.3051   -0.0052 H   0  0  0  0  0  0  0  0  0  0  0  0
    2.0602    2.4281   -0.5147 H   0  0  0  0  0  0  0  0  0  0  0  0
    2.2984    1.9004    1.1660 H   0  0  0  0  0  0  0  0  0  0  0  0
    4.5819   -2.4978    0.1561 H   0  0  0  0  0  0  0  0  0  0  0  0
    4.4149   -1.6722   -1.3747 H   0  0  0  0  0  0  0  0  0  0  0  0
    5.5201   -1.0187   -0.1401 H   0  0  0  0  0  0  0  0  0  0  0  0
    2.7146   -0.1545    2.3115 H   0  0  0  0  0  0  0  0  0  0  0  0
    3.5672   -1.6765    2.2131 H   0  0  0  0  0  0  0  0  0  0  0  0
    4.4789   -0.1538    2.1198 H   0  0  0  0  0  0  0  0  0  0  0  0
   -0.0750   -2.5488   -0.1611 H   0  0  0  0  0  0  0  0  0  0  0  0
    4.2862    0.4577   -2.0250 H   0  0  0  0  0  0  0  0  0  0  0  0
   -1.3138    2.9745    0.2621 H   0  0  0  0  0  0  0  0  0  0  0  0
   -4.9627    0.6702    0.0292 H   0  0  0  0  0  0  0  0  0  0  0  0
   -5.8559   -1.5799   -0.1424 H   0  0  0  0  0  0  0  0  0  0  0  0
   -4.8218   -2.7664    0.6679 H   0  0  0  0  0  0  0  0  0  0  0  0
   -4.8093   -2.6361   -1.1031 H   0  0  0  0  0  0  0  0  0  0  0  0
  1  6  1  0  0  0  0
  1 10  1  0  0  0  0
  2  7  1  0  0  0  0
  2 31  1  0  0  0  0
  3 16  1  0  0  0  0
  3 18  1  0  0  0  0
  4 13  1  0  0  0  0
  4 32  1  0  0  0  0
  5 17  2  0  0  0  0
  6  7  1  0  0  0  0
  6 11  1  0  0  0  0
  6 12  1  0  0  0  0
  7  8  1  0  0  0  0
  7 21  1  0  0  0  0
  8  9  1  0  0  0  0
  8 22  1  0  0  0  0
  8 23  1  0  0  0  0
  9 10  2  0  0  0  0
  9 13  1  0  0  0  0
 10 14  1  0  0  0  0
 11 24  1  0  0  0  0
 11 25  1  0  0  0  0
 11 26  1  0  0  0  0
 12 27  1  0  0  0  0
 12 28  1  0  0  0  0
 12 29  1  0  0  0  0
 13 15  2  0  0  0  0
 14 16  2  0  0  0  0
 14 30  1  0  0  0  0
 15 16  1  0  0  0  0
 15 17  1  0  0  0  0
 17 19  1  0  0  0  0
 18 19  2  0  0  0  0
 18 20  1  0  0  0  0
 19 33  1  0  0  0  0
 20 34  1  0  0  0  0
 20 35  1  0  0  0  0
 20 36  1  0  0  0  0
M  END
> <PUBCHEM_COMPOUND_CID>
164722

> <PUBCHEM_CONFORMER_RMSD>
0.6

> <PUBCHEM_CONFORMER_DIVERSEORDER>
2
1

> <PUBCHEM_MMFF94_PARTIAL_CHARGES>
22
1 -0.36
10 0.08
13 0.08
14 -0.15
15 0.09
16 0.08
17 0.47
18 -0.06
19 -0.14
2 -0.68
20 0.14
3 -0.16
30 0.15
31 0.4
32 0.45
33 0.15
4 -0.53
5 -0.57
6 0.28
7 0.28
8 0.14
9 -0.14

> <PUBCHEM_EFFECTIVE_ROTOR_COUNT>
0.8

> <PUBCHEM_PHARMACOPHORE_FEATURES>
10
1 1 acceptor
1 2 acceptor
1 2 donor
1 3 acceptor
1 4 donor
1 5 acceptor
3 6 11 12 hydrophobe
6 1 6 7 8 9 10 rings
6 3 15 16 17 18 19 rings
6 9 10 13 14 15 16 rings

> <PUBCHEM_HEAVY_ATOM_COUNT>
20

> <PUBCHEM_ATOM_DEF_STEREO_COUNT>
1

> <PUBCHEM_ATOM_UDEF_STEREO_COUNT>
0

> <PUBCHEM_BOND_DEF_STEREO_COUNT>
0

> <PUBCHEM_BOND_UDEF_STEREO_COUNT>
0

> <PUBCHEM_ISOTOPIC_ATOM_COUNT>
0

> <PUBCHEM_COMPONENT_COUNT>
1

> <PUBCHEM_CACTVS_TAUTO_COUNT>
14

> <PUBCHEM_CONFORMER_ID>
0002837200000002

> <PUBCHEM_MMFF94_ENERGY>
63.2948

> <PUBCHEM_FEATURE_SELFOVERLAP>
50.801

> <PUBCHEM_SHAPE_FINGERPRINT>
10062212 137 18341056297597330771
10616163 171 18336826493461061431
10967382 1 18121501250270831593
11132069 177 18335989764958933945
11543360 7 16271927056549127223
11578080 2 17701288921363072772
11806522 49 18340208484096244743
12032990 46 18408603651904006963
12236239 1 18131915966412006978
12403259 226 18408610261706110585
12403814 3 17775001345072745245
12553582 1 18262803943500968455
13140716 1 18408609188038016481
13224815 77 18410573980877582944
13288520 33 18335699485689799462
13675066 3 17968105243395405034
13760787 5 18201995513013764423
13862211 1 18335988563107140943
14178342 30 18195261124626782066
15196674 1 18409730659732959941
15442244 35 18411419548427349128
15536298 74 18334859394344596432
16752209 62 18410294722130669562
16945 1 18265614458129419664
17349148 13 18343025496947372723
17492 89 18411982498239209714
17804303 29 18334011679448423225
1813 80 17201360913610372466
18186145 218 17632580456864540566
19422 9 18344144804110687736
19591789 44 18409448085403403303
200 152 18113627759642878559
20028762 73 17969787380644844495
20281475 54 18411418435856694170
20510252 161 18259985972196926369
20559304 39 18411704283743173402
21033648 29 17169009887573587410
21267235 1 18410566288596898179
21501502 16 18341610429719168661
21501925 9 18410584963204053890
221490 88 18340481158294634362
2255824 54 17704069591043985770
2334 1 18410576149941711809
23402539 116 18335428979843337055
23463225 33 18412546509090919492
23557571 272 18114457954565688982
23559900 14 18118404179645583430
2748010 2 18336273357449713725
2871803 45 18342464707805515551
3004659 81 18202005429829740646
312423 11 18272922817355931287
3286 77 18412270514587443732
335352 9 18193838369122430829
34934 24 18120094983631109660
4214541 1 18410574028106405357
465052 167 18190735341773376559
474 4 17130978751595887660
5104073 3 18409168813586199633
537710 114 18341046328756619261
633830 44 16773507862728737389
7097593 13 17841446030665989626
7364860 26 18118686508788107432
9709674 26 18410568487646702918
9981440 41 17551788124014173632

> <PUBCHEM_SHAPE_MULTIPOLES>
382.24
8.75
2.29
0.91
1.51
0.68
-0.08
-3.67
0.23
1.24
-0.02
-1.07
-0.03
-0.49

> <PUBCHEM_SHAPE_SELFOVERLAP>
840.837

> <PUBCHEM_SHAPE_VOLUME>
206.1

> <PUBCHEM_COORDINATE_TYPE>
2
5
10

$$$$

