445629
  -OEChem-07051213013D

 28 28  0     1  0  0  0  0  0999 V2000
   -0.6253   -1.5328   -0.4127 S   0  0  0  0  0  0  0  0  0  0  0  0
   -1.2379    2.2501   -0.0871 O   0  0  0  0  0  0  0  0  0  0  0  0
   -3.0671   -2.0521    0.5914 O   0  0  0  0  0  0  0  0  0  0  0  0
   -0.0817    0.1915   -0.6465 C   0  0  2  0  0  0  0  0  0  0  0  0
   -1.2422    1.0236   -0.1229 C   0  0  0  0  0  0  0  0  0  0  0  0
    0.1504    0.4783   -2.1267 C   0  0  0  0  0  0  0  0  0  0  0  0
   -2.4121    0.2325    0.3507 C   0  0  0  0  0  0  0  0  0  0  0  0
    1.1279    0.4530    0.1884 C   0  0  0  0  0  0  0  0  0  0  0  0
   -2.1696   -1.0811    0.2313 C   0  0  0  0  0  0  0  0  0  0  0  0
    2.3644   -0.0739    0.0705 C   0  0  0  0  0  0  0  0  0  0  0  0
   -3.6315    0.9048    0.8694 C   0  0  0  0  0  0  0  0  0  0  0  0
    2.7575   -1.0791   -0.9802 C   0  0  0  0  0  0  0  0  0  0  0  0
    3.3966    0.3481    1.0180 C   0  0  0  0  0  0  0  0  0  0  0  0
    4.6707   -0.0629    1.0564 C   0  0  0  0  0  0  0  0  0  0  0  0
    0.7943   -0.2373   -2.6418 H   0  0  0  0  0  0  0  0  0  0  0  0
   -0.8009    0.4953   -2.6748 H   0  0  0  0  0  0  0  0  0  0  0  0
    0.5945    1.4726   -2.2642 H   0  0  0  0  0  0  0  0  0  0  0  0
    0.9762    1.1676    1.0001 H   0  0  0  0  0  0  0  0  0  0  0  0
   -4.4164    0.2153    1.1874 H   0  0  0  0  0  0  0  0  0  0  0  0
   -4.0600    1.5523    0.0971 H   0  0  0  0  0  0  0  0  0  0  0  0
   -3.3774    1.5291    1.7326 H   0  0  0  0  0  0  0  0  0  0  0  0
    1.9324   -1.5206   -1.5340 H   0  0  0  0  0  0  0  0  0  0  0  0
    3.2697   -1.9326   -0.5203 H   0  0  0  0  0  0  0  0  0  0  0  0
    3.4369   -0.6207   -1.7072 H   0  0  0  0  0  0  0  0  0  0  0  0
    3.0959    1.0712    1.7748 H   0  0  0  0  0  0  0  0  0  0  0  0
   -3.8781   -1.6434    0.9305 H   0  0  0  0  0  0  0  0  0  0  0  0
    5.3409    0.3270    1.8160 H   0  0  0  0  0  0  0  0  0  0  0  0
    5.0858   -0.7756    0.3537 H   0  0  0  0  0  0  0  0  0  0  0  0
  1  4  1  0  0  0  0
  1  9  1  0  0  0  0
  2  5  2  0  0  0  0
  3  9  1  0  0  0  0
  3 26  1  0  0  0  0
  4  5  1  0  0  0  0
  4  6  1  0  0  0  0
  4  8  1  0  0  0  0
  5  7  1  0  0  0  0
  6 15  1  0  0  0  0
  6 16  1  0  0  0  0
  6 17  1  0  0  0  0
  7  9  2  0  0  0  0
  7 11  1  0  0  0  0
  8 10  2  0  0  0  0
  8 18  1  0  0  0  0
 10 12  1  0  0  0  0
 10 13  1  0  0  0  0
 11 19  1  0  0  0  0
 11 20  1  0  0  0  0
 11 21  1  0  0  0  0
 12 22  1  0  0  0  0
 12 23  1  0  0  0  0
 12 24  1  0  0  0  0
 13 14  2  0  0  0  0
 13 25  1  0  0  0  0
 14 27  1  0  0  0  0
 14 28  1  0  0  0  0
M  END
> <PUBCHEM_COMPOUND_CID>
445629

> <PUBCHEM_CONFORMER_RMSD>
0.6

> <PUBCHEM_CONFORMER_DIVERSEORDER>
1
2
3

> <PUBCHEM_MMFF94_PARTIAL_CHARGES>
18
1 -0.33
10 -0.14
11 0.14
12 0.14
13 -0.15
14 -0.3
18 0.15
2 -0.57
25 0.15
26 0.45
27 0.15
28 0.15
3 -0.53
4 0.43
5 0.49
7 -0.12
8 -0.29
9 0.18

> <PUBCHEM_EFFECTIVE_ROTOR_COUNT>
2.4

> <PUBCHEM_PHARMACOPHORE_FEATURES>
5
1 12 hydrophobe
1 14 hydrophobe
1 2 acceptor
1 3 donor
5 1 4 5 7 9 rings

> <PUBCHEM_HEAVY_ATOM_COUNT>
14

> <PUBCHEM_ATOM_DEF_STEREO_COUNT>
1

> <PUBCHEM_ATOM_UDEF_STEREO_COUNT>
0

> <PUBCHEM_BOND_DEF_STEREO_COUNT>
1

> <PUBCHEM_BOND_UDEF_STEREO_COUNT>
0

> <PUBCHEM_ISOTOPIC_ATOM_COUNT>
0

> <PUBCHEM_COMPONENT_COUNT>
1

> <PUBCHEM_CACTVS_TAUTO_COUNT>
3

> <PUBCHEM_CONFORMER_ID>
0006CCBD00000001

> <PUBCHEM_MMFF94_ENERGY>
26.1764

> <PUBCHEM_FEATURE_SELFOVERLAP>
25.373

> <PUBCHEM_SHAPE_FINGERPRINT>
11127187 94 12751242514459773299
11132069 177 18409444808406133857
11769659 78 17846218791498241939
12119455 92 16950569912404090501
12251169 10 18341894108088013800
12382932 28 18408321081584003034
12507560 40 17821440266316687454
13024252 1 12966853502029739253
13214271 11 18187093827648771400
13296909 8 18410017615283106213
15219456 202 17821722858100900774
15309172 13 16226045574456512014
16945 1 18271803570548622125
17804303 29 18192416687898214158
17844478 74 18187083944918415440
18175812 5 17895185627719376325
19049666 15 17898565634206626598
200 152 15123516917139307058
20279233 1 18260830418707311430
20361792 2 16630527319239440790
20645464 45 18113341920483522774
20645477 70 13758075225484552112
20653085 51 7853574646955860662
20671657 53 16916506935023083895
20711985 327 17703792479321375500
20715346 28 18040150747242631276
20871998 184 18261391118140249799
21650355 55 18340772554846200465
23402539 116 18114474383627901703
23419403 2 17765468381543518029
23559900 14 18263348330874515302
27216 239 17458921356948368768
2748010 2 18189329233414006694
3086196 2 18337112255015411787
77492 1 17631999884449073621
90316 7 18272651276786866965

> <PUBCHEM_SHAPE_MULTIPOLES>
280.22
6.58
1.66
1.3
4.61
0.2
0.59
-0.05
-3.44
-1.34
-0.05
0.41
-0.04
0.52

> <PUBCHEM_SHAPE_SELFOVERLAP>
559.449

> <PUBCHEM_SHAPE_VOLUME>
168.9

> <PUBCHEM_COORDINATE_TYPE>
2
5
10

$$$$

