46174016
  -OEChem-07051213113D

 52 53  0     1  0  0  0  0  0999 V2000
   -0.4655    0.2688    0.4115 O   0  0  0  0  0  0  0  0  0  0  0  0
   -2.0139   -0.2977   -1.2858 O   0  0  0  0  0  0  0  0  0  0  0  0
    1.3137    2.0179   -1.0176 O   0  0  0  0  0  0  0  0  0  0  0  0
    3.2166   -2.6055    1.4721 O   0  0  0  0  0  0  0  0  0  0  0  0
    4.9927   -0.8563    0.0453 O   0  0  0  0  0  0  0  0  0  0  0  0
   -4.2914    2.1894    1.1046 O   0  0  0  0  0  0  0  0  0  0  0  0
   -4.7667   -0.6458    1.1384 O   0  0  0  0  0  0  0  0  0  0  0  0
    4.0819    1.8540   -0.2234 N   0  0  0  0  0  0  0  0  0  0  0  0
    0.4576   -2.4590    0.6654 N   0  0  0  0  0  0  0  0  0  0  0  0
   -1.5357    2.9137    0.5187 N   0  0  0  0  0  0  0  0  0  0  0  0
   -2.5646   -3.0183   -1.7212 N   0  0  0  0  0  0  0  0  0  0  0  0
    0.8182   -0.1378   -0.0714 C   0  0  2  0  0  0  0  0  0  0  0  0
    1.3220   -1.2804    0.8216 C   0  0  2  0  0  0  0  0  0  0  0  0
    1.7574    1.0727   -0.0397 C   0  0  1  0  0  0  0  0  0  0  0  0
    3.2024    0.6856   -0.3736 C   0  0  2  0  0  0  0  0  0  0  0  0
    2.7715   -1.6632    0.4917 C   0  0  1  0  0  0  0  0  0  0  0  0
    3.7070   -0.4495    0.5235 C   0  0  1  0  0  0  0  0  0  0  0  0
   -1.2847    0.7560   -0.6493 C   0  0  1  0  0  0  0  0  0  0  0  0
   -2.2588    1.8252   -0.1397 C   0  0  1  0  0  0  0  0  0  0  0  0
   -3.2912    1.2118    0.8124 C   0  0  2  0  0  0  0  0  0  0  0  0
   -3.9645    0.0023    0.1542 C   0  0  1  0  0  0  0  0  0  0  0  0
   -2.9240   -0.9725   -0.4104 C   0  0  1  0  0  0  0  0  0  0  0  0
   -3.5702   -2.0952   -1.2175 C   0  0  0  0  0  0  0  0  0  0  0  0
    5.2903    1.6837   -1.0098 C   0  0  0  0  0  0  0  0  0  0  0  0
    0.7268   -0.5125   -1.1021 H   0  0  0  0  0  0  0  0  0  0  0  0
    1.2500   -0.9791    1.8753 H   0  0  0  0  0  0  0  0  0  0  0  0
    1.6935    1.5689    0.9367 H   0  0  0  0  0  0  0  0  0  0  0  0
    3.2209    0.3617   -1.4244 H   0  0  0  0  0  0  0  0  0  0  0  0
    2.8342   -2.1636   -0.4827 H   0  0  0  0  0  0  0  0  0  0  0  0
    3.8446   -0.1056    1.5562 H   0  0  0  0  0  0  0  0  0  0  0  0
   -0.7011    1.2082   -1.4524 H   0  0  0  0  0  0  0  0  0  0  0  0
   -2.7948    2.2495   -0.9995 H   0  0  0  0  0  0  0  0  0  0  0  0
   -2.8350    0.9244    1.7677 H   0  0  0  0  0  0  0  0  0  0  0  0
   -4.6375    0.3451   -0.6411 H   0  0  0  0  0  0  0  0  0  0  0  0
   -2.3673   -1.4283    0.4169 H   0  0  0  0  0  0  0  0  0  0  0  0
    3.5881    2.6758   -0.5738 H   0  0  0  0  0  0  0  0  0  0  0  0
   -0.4765   -2.2392    1.0056 H   0  0  0  0  0  0  0  0  0  0  0  0
    0.8047   -3.2142    1.2557 H   0  0  0  0  0  0  0  0  0  0  0  0
    1.4515    1.6293   -1.8984 H   0  0  0  0  0  0  0  0  0  0  0  0
    3.1729   -2.1766    2.3437 H   0  0  0  0  0  0  0  0  0  0  0  0
    4.8829   -1.2021   -0.8571 H   0  0  0  0  0  0  0  0  0  0  0  0
   -4.1132   -1.6783   -2.0738 H   0  0  0  0  0  0  0  0  0  0  0  0
   -4.2863   -2.6493   -0.6021 H   0  0  0  0  0  0  0  0  0  0  0  0
   -0.8920    3.3467   -0.1422 H   0  0  0  0  0  0  0  0  0  0  0  0
   -2.1934    3.6391    0.8011 H   0  0  0  0  0  0  0  0  0  0  0  0
    5.1119    1.2675   -2.0068 H   0  0  0  0  0  0  0  0  0  0  0  0
    5.7412    2.6713   -1.1636 H   0  0  0  0  0  0  0  0  0  0  0  0
    6.0545    1.1029   -0.4884 H   0  0  0  0  0  0  0  0  0  0  0  0
   -4.7047    2.4591    0.2668 H   0  0  0  0  0  0  0  0  0  0  0  0
   -4.1764   -0.9800    1.8352 H   0  0  0  0  0  0  0  0  0  0  0  0
   -3.0099   -3.7139   -2.3181 H   0  0  0  0  0  0  0  0  0  0  0  0
   -1.9015   -2.5164   -2.3104 H   0  0  0  0  0  0  0  0  0  0  0  0
  1 12  1  0  0  0  0
  1 18  1  0  0  0  0
  2 18  1  0  0  0  0
  2 22  1  0  0  0  0
  3 14  1  0  0  0  0
  3 39  1  0  0  0  0
  4 16  1  0  0  0  0
  4 40  1  0  0  0  0
  5 17  1  0  0  0  0
  5 41  1  0  0  0  0
  6 20  1  0  0  0  0
  6 49  1  0  0  0  0
  7 21  1  0  0  0  0
  7 50  1  0  0  0  0
  8 15  1  0  0  0  0
  8 24  1  0  0  0  0
  8 36  1  0  0  0  0
  9 13  1  0  0  0  0
  9 37  1  0  0  0  0
  9 38  1  0  0  0  0
 10 19  1  0  0  0  0
 10 44  1  0  0  0  0
 10 45  1  0  0  0  0
 11 23  1  0  0  0  0
 11 51  1  0  0  0  0
 11 52  1  0  0  0  0
 12 13  1  0  0  0  0
 12 14  1  0  0  0  0
 12 25  1  0  0  0  0
 13 16  1  0  0  0  0
 13 26  1  0  0  0  0
 14 15  1  0  0  0  0
 14 27  1  0  0  0  0
 15 17  1  0  0  0  0
 15 28  1  0  0  0  0
 16 17  1  0  0  0  0
 16 29  1  0  0  0  0
 17 30  1  0  0  0  0
 18 19  1  0  0  0  0
 18 31  1  0  0  0  0
 19 20  1  0  0  0  0
 19 32  1  0  0  0  0
 20 21  1  0  0  0  0
 20 33  1  0  0  0  0
 21 22  1  0  0  0  0
 21 34  1  0  0  0  0
 22 23  1  0  0  0  0
 22 35  1  0  0  0  0
 23 42  1  0  0  0  0
 23 43  1  0  0  0  0
 24 46  1  0  0  0  0
 24 47  1  0  0  0  0
 24 48  1  0  0  0  0
M  END
> <PUBCHEM_COMPOUND_CID>
46174016

> <PUBCHEM_CONFORMER_RMSD>
0.8

> <PUBCHEM_CONFORMER_DIVERSEORDER>
1
9
5
8
7
3
2
10
6
4

> <PUBCHEM_MMFF94_PARTIAL_CHARGES>
36
1 -0.56
10 -0.99
11 -0.99
12 0.28
13 0.27
14 0.28
15 0.27
16 0.28
17 0.28
18 0.56
19 0.27
2 -0.56
20 0.28
21 0.28
22 0.28
23 0.27
24 0.27
3 -0.68
36 0.36
37 0.36
38 0.36
39 0.4
4 -0.68
40 0.4
41 0.4
44 0.36
45 0.36
49 0.4
5 -0.68
50 0.4
51 0.36
52 0.36
6 -0.68
7 -0.68
8 -0.9
9 -0.99

> <PUBCHEM_EFFECTIVE_ROTOR_COUNT>
6.4

> <PUBCHEM_PHARMACOPHORE_FEATURES>
22
1 1 acceptor
1 10 cation
1 10 donor
1 11 cation
1 11 donor
1 2 acceptor
1 3 acceptor
1 3 donor
1 4 acceptor
1 4 donor
1 5 acceptor
1 5 donor
1 6 acceptor
1 6 donor
1 7 acceptor
1 7 donor
1 8 cation
1 8 donor
1 9 cation
1 9 donor
6 12 13 14 15 16 17 rings
6 2 18 19 20 21 22 rings

> <PUBCHEM_HEAVY_ATOM_COUNT>
24

> <PUBCHEM_ATOM_DEF_STEREO_COUNT>
11

> <PUBCHEM_ATOM_UDEF_STEREO_COUNT>
0

> <PUBCHEM_BOND_DEF_STEREO_COUNT>
0

> <PUBCHEM_BOND_UDEF_STEREO_COUNT>
0

> <PUBCHEM_ISOTOPIC_ATOM_COUNT>
0

> <PUBCHEM_COMPONENT_COUNT>
1

> <PUBCHEM_CACTVS_TAUTO_COUNT>
1

> <PUBCHEM_CONFORMER_ID>
02C08F4000000001

> <PUBCHEM_MMFF94_ENERGY>
56.5472

> <PUBCHEM_FEATURE_SELFOVERLAP>
111.697

> <PUBCHEM_SHAPE_FINGERPRINT>
10062212 137 18411426136733095011
10369192 42 16013282219435390568
10616163 171 18334580139592262583
11135609 187 17914056395569302468
11578080 2 18121535446927855101
12107183 9 17691968580094634897
12236239 1 18410290307262862037
12553582 1 18262810545066012903
12788726 201 18041285383588019487
13140716 1 18126852822471463704
13167823 11 18410854378039041850
13224815 77 18131071540980728232
13760787 19 18408038511469928412
14289901 80 18411706508077264624
14341114 328 18409164398634300412
14787075 74 18192713345700535836
14790565 3 18200298932392515108
15196674 1 18342735234493896352
15209289 33 18413388730781891576
15238133 3 17459470137736291033
15375462 189 18410294696550477689
15537594 2 18338227172585201423
17349148 13 17988936548030276584
17492 89 18340768259800419931
19050596 39 18341612658875799800
19377110 9 18340779160748443234
200 152 18343025458682777989
20261772 1 18335417972005759115
21065198 48 18411133667030652665
21267235 1 18340760524547982122
21634736 98 18120664530211387686
23402539 116 18337955576070435580
23557571 272 17531516612072331469
23559900 14 17750228287273509694
23566358 27 18339639065917197310
23598288 3 18187653500610672813
23598291 2 18410020948014639590
25147074 1 18412835689650584882
34934 24 18341048601343393113
474 4 18131345268200784644
5104073 3 18341893025708971625
633830 44 18341608226880993998
7097593 13 18194409011336002666
90525 40 18261682574784532223

> <PUBCHEM_SHAPE_MULTIPOLES>
432.9
10
3.06
1.21
3.72
0.53
0.14
-0.96
-0.06
-0.63
0.05
-0.53
0.46
-2.71

> <PUBCHEM_SHAPE_SELFOVERLAP>
880.885

> <PUBCHEM_SHAPE_VOLUME>
247.9

> <PUBCHEM_COORDINATE_TYPE>
2
5
10

$$$$

