439518
  -OEChem-07051212462D

 71 70  0     1  0  0  0  0  0999 V2000
    4.5981    1.9050    0.0000 O   0  0  0  0  0  0  0  0  0  0  0  0
    8.0622    1.9050    0.0000 O   0  0  0  0  0  0  0  0  0  0  0  0
    5.4641   -0.5950    0.0000 O   0  0  0  0  0  0  0  0  0  0  0  0
   10.6603   -0.5950    0.0000 O   0  0  0  0  0  0  0  0  0  0  0  0
   14.1244    0.4050    0.0000 O   0  0  0  0  0  0  0  0  0  0  0  0
   13.2583    1.9050    0.0000 O   0  0  0  0  0  0  0  0  0  0  0  0
   13.2583   -2.0950    0.0000 O   0  0  0  0  0  0  0  0  0  0  0  0
   14.1244   -0.5950    0.0000 O   0  0  0  0  0  0  0  0  0  0  0  0
    6.3301    0.9050    0.0000 N   0  0  0  0  0  0  0  0  0  0  0  0
    8.9282    0.4050    0.0000 N   0  0  0  0  0  0  0  0  0  0  0  0
    2.8660    0.9050    0.0000 N   0  0  0  0  0  0  0  0  0  0  0  0
   11.5263    0.9050    0.0000 N   0  0  0  0  0  0  0  0  0  0  0  0
    7.1962    0.4050    0.0000 C   0  0  1  0  0  0  0  0  0  0  0  0
    3.7320    0.4050    0.0000 C   0  0  2  0  0  0  0  0  0  0  0  0
    7.1962   -0.5950    0.0000 C   0  0  0  0  0  0  0  0  0  0  0  0
    3.7320   -0.5950    0.0000 C   0  0  0  0  0  0  0  0  0  0  0  0
    9.7942    0.9050    0.0000 C   0  0  1  0  0  0  0  0  0  0  0  0
    4.5981    0.9050    0.0000 C   0  0  1  0  0  0  0  0  0  0  0  0
    2.8660   -1.0950    0.0000 C   0  0  0  0  0  0  0  0  0  0  0  0
    9.7942    1.9050    0.0000 C   0  0  0  0  0  0  0  0  0  0  0  0
    8.0622    0.9050    0.0000 C   0  0  0  0  0  0  0  0  0  0  0  0
    5.4641    0.4050    0.0000 C   0  0  0  0  0  0  0  0  0  0  0  0
    6.3301   -1.0950    0.0000 C   0  0  0  0  0  0  0  0  0  0  0  0
    8.0622   -1.0950    0.0000 C   0  0  0  0  0  0  0  0  0  0  0  0
   10.6603    0.4050    0.0000 C   0  0  0  0  0  0  0  0  0  0  0  0
    2.8660   -2.0950    0.0000 C   0  0  0  0  0  0  0  0  0  0  0  0
    2.0000   -0.5950    0.0000 C   0  0  0  0  0  0  0  0  0  0  0  0
   10.6603    2.4050    0.0000 C   0  0  0  0  0  0  0  0  0  0  0  0
    8.9282    2.4050    0.0000 C   0  0  0  0  0  0  0  0  0  0  0  0
   12.3923    0.4050    0.0000 C   0  0  1  0  0  0  0  0  0  0  0  0
   12.3923   -0.5950    0.0000 C   0  0  0  0  0  0  0  0  0  0  0  0
   13.2583    0.9050    0.0000 C   0  0  0  0  0  0  0  0  0  0  0  0
   13.2583   -1.0950    0.0000 C   0  0  0  0  0  0  0  0  0  0  0  0
    6.6592    0.0950    0.0000 H   0  0  0  0  0  0  0  0  0  0  0  0
    3.7320    1.0250    0.0000 H   0  0  0  0  0  0  0  0  0  0  0  0
    6.6592   -0.2850    0.0000 H   0  0  0  0  0  0  0  0  0  0  0  0
    3.9441   -1.1776    0.0000 H   0  0  0  0  0  0  0  0  0  0  0  0
    4.3426   -0.4873    0.0000 H   0  0  0  0  0  0  0  0  0  0  0  0
    9.2573    1.2150    0.0000 H   0  0  0  0  0  0  0  0  0  0  0  0
    5.1350    1.2150    0.0000 H   0  0  0  0  0  0  0  0  0  0  0  0
    2.8660   -0.4750    0.0000 H   0  0  0  0  0  0  0  0  0  0  0  0
    9.2573    1.5950    0.0000 H   0  0  0  0  0  0  0  0  0  0  0  0
    6.3301    1.5250    0.0000 H   0  0  0  0  0  0  0  0  0  0  0  0
    8.9282   -0.2150    0.0000 H   0  0  0  0  0  0  0  0  0  0  0  0
    7.7522   -1.6319    0.0000 H   0  0  0  0  0  0  0  0  0  0  0  0
    8.5991   -1.4050    0.0000 H   0  0  0  0  0  0  0  0  0  0  0  0
    8.3722   -0.5581    0.0000 H   0  0  0  0  0  0  0  0  0  0  0  0
    6.0201   -0.5581    0.0000 H   0  0  0  0  0  0  0  0  0  0  0  0
    5.7932   -1.4050    0.0000 H   0  0  0  0  0  0  0  0  0  0  0  0
    6.6401   -1.6319    0.0000 H   0  0  0  0  0  0  0  0  0  0  0  0
    2.2460   -2.0950    0.0000 H   0  0  0  0  0  0  0  0  0  0  0  0
    2.8660   -2.7150    0.0000 H   0  0  0  0  0  0  0  0  0  0  0  0
    3.4860   -2.0950    0.0000 H   0  0  0  0  0  0  0  0  0  0  0  0
    2.3100   -0.0581    0.0000 H   0  0  0  0  0  0  0  0  0  0  0  0
    1.4631   -0.2850    0.0000 H   0  0  0  0  0  0  0  0  0  0  0  0
    1.6900   -1.1319    0.0000 H   0  0  0  0  0  0  0  0  0  0  0  0
    9.2382    2.9419    0.0000 H   0  0  0  0  0  0  0  0  0  0  0  0
    8.3913    2.7150    0.0000 H   0  0  0  0  0  0  0  0  0  0  0  0
    8.6182    1.8681    0.0000 H   0  0  0  0  0  0  0  0  0  0  0  0
   10.9703    1.8681    0.0000 H   0  0  0  0  0  0  0  0  0  0  0  0
   11.1972    2.7150    0.0000 H   0  0  0  0  0  0  0  0  0  0  0  0
   10.3503    2.9419    0.0000 H   0  0  0  0  0  0  0  0  0  0  0  0
    2.3291    0.5950    0.0000 H   0  0  0  0  0  0  0  0  0  0  0  0
    2.8660    1.5250    0.0000 H   0  0  0  0  0  0  0  0  0  0  0  0
   11.5263    1.5250    0.0000 H   0  0  0  0  0  0  0  0  0  0  0  0
    4.0611    2.2150    0.0000 H   0  0  0  0  0  0  0  0  0  0  0  0
   11.8554    0.0950    0.0000 H   0  0  0  0  0  0  0  0  0  0  0  0
   11.7817   -0.4873    0.0000 H   0  0  0  0  0  0  0  0  0  0  0  0
   12.1803   -1.1776    0.0000 H   0  0  0  0  0  0  0  0  0  0  0  0
   14.6613    0.7150    0.0000 H   0  0  0  0  0  0  0  0  0  0  0  0
   13.7953   -2.4050    0.0000 H   0  0  0  0  0  0  0  0  0  0  0  0
 18  1  1  6  0  0  0
  1 66  1  0  0  0  0
  2 21  2  0  0  0  0
  3 22  2  0  0  0  0
  4 25  2  0  0  0  0
  5 32  1  0  0  0  0
  5 70  1  0  0  0  0
  6 32  2  0  0  0  0
  7 33  1  0  0  0  0
  7 71  1  0  0  0  0
  8 33  2  0  0  0  0
 13  9  1  6  0  0  0
  9 22  1  0  0  0  0
  9 43  1  0  0  0  0
 17 10  1  1  0  0  0
 10 21  1  0  0  0  0
 10 44  1  0  0  0  0
 14 11  1  1  0  0  0
 11 63  1  0  0  0  0
 11 64  1  0  0  0  0
 12 25  1  0  0  0  0
 30 12  1  6  0  0  0
 12 65  1  0  0  0  0
 13 15  1  0  0  0  0
 13 21  1  0  0  0  0
 13 34  1  0  0  0  0
 14 16  1  0  0  0  0
 14 18  1  0  0  0  0
 14 35  1  0  0  0  0
 15 23  1  0  0  0  0
 15 24  1  0  0  0  0
 15 36  1  0  0  0  0
 16 19  1  0  0  0  0
 16 37  1  0  0  0  0
 16 38  1  0  0  0  0
 17 20  1  0  0  0  0
 17 25  1  0  0  0  0
 17 39  1  0  0  0  0
 18 22  1  0  0  0  0
 18 40  1  0  0  0  0
 19 26  1  0  0  0  0
 19 27  1  0  0  0  0
 19 41  1  0  0  0  0
 20 28  1  0  0  0  0
 20 29  1  0  0  0  0
 20 42  1  0  0  0  0
 23 48  1  0  0  0  0
 23 49  1  0  0  0  0
 23 50  1  0  0  0  0
 24 45  1  0  0  0  0
 24 46  1  0  0  0  0
 24 47  1  0  0  0  0
 26 51  1  0  0  0  0
 26 52  1  0  0  0  0
 26 53  1  0  0  0  0
 27 54  1  0  0  0  0
 27 55  1  0  0  0  0
 27 56  1  0  0  0  0
 28 60  1  0  0  0  0
 28 61  1  0  0  0  0
 28 62  1  0  0  0  0
 29 57  1  0  0  0  0
 29 58  1  0  0  0  0
 29 59  1  0  0  0  0
 30 31  1  0  0  0  0
 30 32  1  0  0  0  0
 30 67  1  0  0  0  0
 31 33  1  0  0  0  0
 31 68  1  0  0  0  0
 31 69  1  0  0  0  0
M  END
> <PUBCHEM_COMPOUND_CID>
439518

> <PUBCHEM_COMPOUND_CANONICALIZED>
1

> <PUBCHEM_CACTVS_COMPLEXITY>
710

> <PUBCHEM_CACTVS_HBOND_ACCEPTOR>
9

> <PUBCHEM_CACTVS_HBOND_DONOR>
7

> <PUBCHEM_CACTVS_ROTATABLE_BOND>
14

> <PUBCHEM_CACTVS_SUBSKEYS>
AAADcfB7vAAAAAAAAAAAAAAAAAAAAAAAAAAAAAAAAAAAAAAAAAAAHgAQCAAADTzhgAYCCALAAgAIAAGQGAIAAAAAAAAAAIHIAAACUBoAwCAUQAAGFgCQAAHbCAAMAAAAAAAAAAAAAAAAAAAAAAAAAAAAAA==

> <PUBCHEM_IUPAC_OPENEYE_NAME>
(2S)-2-[[(2S)-2-[[(2S)-2-[[(2S,3R)-3-amino-2-hydroxy-5-methyl-hexanoyl]amino]-3-methyl-butanoyl]amino]-3-methyl-butanoyl]amino]butanedioic acid

> <PUBCHEM_IUPAC_CAS_NAME>
(2S)-2-[[(2S)-2-[[(2S)-2-[[(2S,3R)-3-amino-2-hydroxy-5-methyl-1-oxohexyl]amino]-3-methyl-1-oxobutyl]amino]-3-methyl-1-oxobutyl]amino]butanedioic acid

> <PUBCHEM_IUPAC_NAME>
(2S)-2-[[(2S)-2-[[(2S)-2-[[(2S,3R)-3-amino-2-hydroxy-5-methylhexanoyl]amino]-3-methylbutanoyl]amino]-3-methylbutanoyl]amino]butanedioic acid

> <PUBCHEM_IUPAC_SYSTEMATIC_NAME>
(2S)-2-[[(2S)-2-[[(2S)-2-[[(2S,3R)-3-azanyl-5-methyl-2-oxidanyl-hexanoyl]amino]-3-methyl-butanoyl]amino]-3-methyl-butanoyl]amino]butanedioic acid

> <PUBCHEM_IUPAC_TRADITIONAL_NAME>
(2S)-2-[[(2S)-2-[[(2S)-2-[[(2S,3R)-3-amino-2-hydroxy-5-methyl-hexanoyl]amino]-3-methyl-butanoyl]amino]-3-methyl-butanoyl]amino]succinic acid

> <PUBCHEM_IUPAC_INCHI>
InChI=1S/C21H38N4O8/c1-9(2)7-12(22)17(28)20(31)25-16(11(5)6)19(30)24-15(10(3)4)18(29)23-13(21(32)33)8-14(26)27/h9-13,15-17,28H,7-8,22H2,1-6H3,(H,23,29)(H,24,30)(H,25,31)(H,26,27)(H,32,33)/t12-,13+,15+,16+,17+/m1/s1

> <PUBCHEM_IUPAC_INCHIKEY>
QFAADIRHLBXJJS-ZAZJUGBXSA-N

> <PUBCHEM_XLOGP3_AA>
-2

> <PUBCHEM_EXACT_MASS>
474.268964

> <PUBCHEM_MOLECULAR_FORMULA>
C21H38N4O8

> <PUBCHEM_MOLECULAR_WEIGHT>
474.54842

> <PUBCHEM_OPENEYE_CAN_SMILES>
CC(C)CC(C(C(=O)NC(C(C)C)C(=O)NC(C(C)C)C(=O)NC(CC(=O)O)C(=O)O)O)N

> <PUBCHEM_OPENEYE_ISO_SMILES>
CC(C)C[C@H]([C@@H](C(=O)N[C@@H](C(C)C)C(=O)N[C@@H](C(C)C)C(=O)N[C@@H](CC(=O)O)C(=O)O)O)N

> <PUBCHEM_CACTVS_TPSA>
208

> <PUBCHEM_MONOISOTOPIC_WEIGHT>
474.268964

> <PUBCHEM_TOTAL_CHARGE>
0

> <PUBCHEM_HEAVY_ATOM_COUNT>
33

> <PUBCHEM_ATOM_DEF_STEREO_COUNT>
5

> <PUBCHEM_ATOM_UDEF_STEREO_COUNT>
0

> <PUBCHEM_BOND_DEF_STEREO_COUNT>
0

> <PUBCHEM_BOND_UDEF_STEREO_COUNT>
0

> <PUBCHEM_ISOTOPIC_ATOM_COUNT>
0

> <PUBCHEM_COMPONENT_COUNT>
1

> <PUBCHEM_CACTVS_TAUTO_COUNT>
8

> <PUBCHEM_COORDINATE_TYPE>
1
5
255

> <PUBCHEM_BONDANNOTATIONS>
18  1  6
17  10  5
14  11  5
30  12  6
13  9  6

$$$$

