7181
  -OEChem-06261201522D

 30 31  0     0  0  0  0  0  0999 V2000
    3.0000    0.2947    0.0000 S   0  0  0  0  0  0  0  0  0  0  0  0
    3.9706    2.7893    0.0000 S   0  0  0  0  0  0  0  0  0  0  0  0
    4.0000    0.2947    0.0000 O   0  0  0  0  0  0  0  0  0  0  0  0
    2.0000    0.2947    0.0000 O   0  0  0  0  0  0  0  0  0  0  0  0
    3.0000    1.2948    0.0000 N   0  0  0  0  0  0  0  0  0  0  0  0
    4.7796    1.3880    0.0000 N   0  0  0  0  0  0  0  0  0  0  0  0
    5.4487    2.1312    0.0000 N   0  0  0  0  0  0  0  0  0  0  0  0
    3.0000   -3.7052    0.0000 N   0  0  0  0  0  0  0  0  0  0  0  0
    3.0000   -0.7053    0.0000 C   0  0  0  0  0  0  0  0  0  0  0  0
    2.1340   -1.2052    0.0000 C   0  0  0  0  0  0  0  0  0  0  0  0
    3.8660   -1.2052    0.0000 C   0  0  0  0  0  0  0  0  0  0  0  0
    3.8660    1.7948    0.0000 C   0  0  0  0  0  0  0  0  0  0  0  0
    3.0000   -2.7052    0.0000 C   0  0  0  0  0  0  0  0  0  0  0  0
    2.1340   -2.2052    0.0000 C   0  0  0  0  0  0  0  0  0  0  0  0
    3.8660   -2.2052    0.0000 C   0  0  0  0  0  0  0  0  0  0  0  0
    5.3554    3.9107    0.0000 C   0  0  0  0  0  0  0  0  0  0  0  0
    4.9487    2.9972    0.0000 C   0  0  0  0  0  0  0  0  0  0  0  0
    6.3500    4.0152    0.0000 C   0  0  0  0  0  0  0  0  0  0  0  0
    2.4631    1.6047    0.0000 H   0  0  0  0  0  0  0  0  0  0  0  0
    1.5970   -0.8953    0.0000 H   0  0  0  0  0  0  0  0  0  0  0  0
    4.4030   -0.8953    0.0000 H   0  0  0  0  0  0  0  0  0  0  0  0
    5.3987    4.5292    0.0000 H   0  0  0  0  0  0  0  0  0  0  0  0
    4.7538    4.0607    0.0000 H   0  0  0  0  0  0  0  0  0  0  0  0
    1.5970   -2.5152    0.0000 H   0  0  0  0  0  0  0  0  0  0  0  0
    4.4030   -2.5152    0.0000 H   0  0  0  0  0  0  0  0  0  0  0  0
    6.4148    3.3986    0.0000 H   0  0  0  0  0  0  0  0  0  0  0  0
    6.9666    4.0801    0.0000 H   0  0  0  0  0  0  0  0  0  0  0  0
    6.2852    4.6319    0.0000 H   0  0  0  0  0  0  0  0  0  0  0  0
    2.4631   -4.0152    0.0000 H   0  0  0  0  0  0  0  0  0  0  0  0
    3.5369   -4.0152    0.0000 H   0  0  0  0  0  0  0  0  0  0  0  0
  1  3  2  0  0  0  0
  1  4  2  0  0  0  0
  1  5  1  0  0  0  0
  1  9  1  0  0  0  0
  2 12  1  0  0  0  0
  2 17  1  0  0  0  0
  5 12  1  0  0  0  0
  5 19  1  0  0  0  0
  6  7  1  0  0  0  0
  6 12  2  0  0  0  0
  7 17  2  0  0  0  0
  8 13  1  0  0  0  0
  8 29  1  0  0  0  0
  8 30  1  0  0  0  0
  9 10  2  0  0  0  0
  9 11  1  0  0  0  0
 10 14  1  0  0  0  0
 10 20  1  0  0  0  0
 11 15  2  0  0  0  0
 11 21  1  0  0  0  0
 13 14  2  0  0  0  0
 13 15  1  0  0  0  0
 14 24  1  0  0  0  0
 15 25  1  0  0  0  0
 16 17  1  0  0  0  0
 16 18  1  0  0  0  0
 16 22  1  0  0  0  0
 16 23  1  0  0  0  0
 18 26  1  0  0  0  0
 18 27  1  0  0  0  0
 18 28  1  0  0  0  0
M  END
> <PUBCHEM_COMPOUND_CID>
7181

> <PUBCHEM_COMPOUND_CANONICALIZED>
1

> <PUBCHEM_CACTVS_COMPLEXITY>
363

> <PUBCHEM_CACTVS_HBOND_ACCEPTOR>
7

> <PUBCHEM_CACTVS_HBOND_DONOR>
2

> <PUBCHEM_CACTVS_ROTATABLE_BOND>
4

> <PUBCHEM_CACTVS_SUBSKEYS>
AAADccBzsABgAAAAAAAAAAAAAAAAAWAAAAAwAAAAAAAAAAABwAAAHAQYQAAACAiBUgAz0YBAAAqmACRiYHDSAJJgAhEciBgwZIgIICKgkZGAIABwmAAIyAcQAAAAAAQAAAAAAAAACAAAAAAAAAAAAAAAAA==

> <PUBCHEM_IUPAC_OPENEYE_NAME>
4-amino-N-(5-ethyl-1,3,4-thiadiazol-2-yl)benzenesulfonamide

> <PUBCHEM_IUPAC_CAS_NAME>
4-amino-N-(5-ethyl-1,3,4-thiadiazol-2-yl)benzenesulfonamide

> <PUBCHEM_IUPAC_NAME>
4-amino-N-(5-ethyl-1,3,4-thiadiazol-2-yl)benzenesulfonamide

> <PUBCHEM_IUPAC_SYSTEMATIC_NAME>
4-azanyl-N-(5-ethyl-1,3,4-thiadiazol-2-yl)benzenesulfonamide

> <PUBCHEM_IUPAC_TRADITIONAL_NAME>
4-amino-N-(5-ethyl-1,3,4-thiadiazol-2-yl)benzenesulfonamide

> <PUBCHEM_IUPAC_INCHI>
InChI=1S/C10H12N4O2S2/c1-2-9-12-13-10(17-9)14-18(15,16)8-5-3-7(11)4-6-8/h3-6H,2,11H2,1H3,(H,13,14)

> <PUBCHEM_IUPAC_INCHIKEY>
SVYBEBLNQGDRHF-UHFFFAOYSA-N

> <PUBCHEM_XLOGP3>
1

> <PUBCHEM_EXACT_MASS>
284.040168

> <PUBCHEM_MOLECULAR_FORMULA>
C10H12N4O2S2

> <PUBCHEM_MOLECULAR_WEIGHT>
284.35788

> <PUBCHEM_OPENEYE_CAN_SMILES>
CCC1=NN=C(S1)NS(=O)(=O)C2=CC=C(C=C2)N

> <PUBCHEM_OPENEYE_ISO_SMILES>
CCC1=NN=C(S1)NS(=O)(=O)C2=CC=C(C=C2)N

> <PUBCHEM_CACTVS_TPSA>
135

> <PUBCHEM_MONOISOTOPIC_WEIGHT>
284.040168

> <PUBCHEM_TOTAL_CHARGE>
0

> <PUBCHEM_HEAVY_ATOM_COUNT>
18

> <PUBCHEM_ATOM_DEF_STEREO_COUNT>
0

> <PUBCHEM_ATOM_UDEF_STEREO_COUNT>
0

> <PUBCHEM_BOND_DEF_STEREO_COUNT>
0

> <PUBCHEM_BOND_UDEF_STEREO_COUNT>
0

> <PUBCHEM_ISOTOPIC_ATOM_COUNT>
0

> <PUBCHEM_COMPONENT_COUNT>
1

> <PUBCHEM_CACTVS_TAUTO_COUNT>
2

> <PUBCHEM_COORDINATE_TYPE>
1
5
255

> <PUBCHEM_BONDANNOTATIONS>
10  14  8
11  15  8
13  14  8
13  15  8
2  12  8
2  17  8
6  12  8
6  7  8
7  17  8
9  10  8
9  11  8

$$$$

