4764
  -OEChem-07051213043D

 38 41  0     0  0  0  0  0  0999 V2000
    0.0681   -0.6796    1.6817 O   0  0  0  0  0  0  0  0  0  0  0  0
    0.1311   -2.6912    2.8191 O   0  0  0  0  0  0  0  0  0  0  0  0
    4.9074    2.6214   -0.3663 O   0  0  0  0  0  0  0  0  0  0  0  0
   -4.5714    3.1224   -0.3774 O   0  0  0  0  0  0  0  0  0  0  0  0
    0.0061   -0.1860    0.2942 C   0  0  0  0  0  0  0  0  0  0  0  0
   -0.1448   -1.4870   -0.4384 C   0  0  0  0  0  0  0  0  0  0  0  0
    1.3275    0.5706    0.1165 C   0  0  0  0  0  0  0  0  0  0  0  0
   -1.2286    0.7058    0.1129 C   0  0  0  0  0  0  0  0  0  0  0  0
   -0.1020   -2.5480    0.4475 C   0  0  0  0  0  0  0  0  0  0  0  0
    0.0514   -2.0407    1.7969 C   0  0  0  0  0  0  0  0  0  0  0  0
   -0.3364   -1.7366   -1.7913 C   0  0  0  0  0  0  0  0  0  0  0  0
    1.6359    1.6478    0.9497 C   0  0  0  0  0  0  0  0  0  0  0  0
   -1.4446    1.3655   -1.0987 C   0  0  0  0  0  0  0  0  0  0  0  0
    2.2267    0.1850   -0.8801 C   0  0  0  0  0  0  0  0  0  0  0  0
   -2.1399    0.8614    1.1596 C   0  0  0  0  0  0  0  0  0  0  0  0
   -0.2222   -3.8691    0.0526 C   0  0  0  0  0  0  0  0  0  0  0  0
   -0.4597   -3.0612   -2.2235 C   0  0  0  0  0  0  0  0  0  0  0  0
   -0.4004   -4.1214   -1.3066 C   0  0  0  0  0  0  0  0  0  0  0  0
    2.8379    2.3365    0.7870 C   0  0  0  0  0  0  0  0  0  0  0  0
   -2.5671    2.1772   -1.2629 C   0  0  0  0  0  0  0  0  0  0  0  0
    3.4287    0.8736   -1.0426 C   0  0  0  0  0  0  0  0  0  0  0  0
   -3.2623    1.6731    0.9953 C   0  0  0  0  0  0  0  0  0  0  0  0
    3.7343    1.9494   -0.2090 C   0  0  0  0  0  0  0  0  0  0  0  0
   -3.4759    2.3310   -0.2160 C   0  0  0  0  0  0  0  0  0  0  0  0
   -0.3778   -0.9351   -2.5200 H   0  0  0  0  0  0  0  0  0  0  0  0
    0.9510    1.9627    1.7325 H   0  0  0  0  0  0  0  0  0  0  0  0
   -0.7422    1.2764   -1.9222 H   0  0  0  0  0  0  0  0  0  0  0  0
    2.0446   -0.6456   -1.5510 H   0  0  0  0  0  0  0  0  0  0  0  0
   -2.0108    0.3652    2.1165 H   0  0  0  0  0  0  0  0  0  0  0  0
   -0.1874   -4.6838    0.7671 H   0  0  0  0  0  0  0  0  0  0  0  0
   -0.6020   -3.2721   -3.2800 H   0  0  0  0  0  0  0  0  0  0  0  0
   -0.4996   -5.1442   -1.6594 H   0  0  0  0  0  0  0  0  0  0  0  0
    3.0708    3.1733    1.4398 H   0  0  0  0  0  0  0  0  0  0  0  0
   -2.7200    2.6874   -2.2102 H   0  0  0  0  0  0  0  0  0  0  0  0
    4.1198    0.5617   -1.8212 H   0  0  0  0  0  0  0  0  0  0  0  0
   -3.9673    1.7887    1.8140 H   0  0  0  0  0  0  0  0  0  0  0  0
    5.4043    2.2202   -1.0998 H   0  0  0  0  0  0  0  0  0  0  0  0
   -4.5598    3.4974   -1.2749 H   0  0  0  0  0  0  0  0  0  0  0  0
  1  5  1  0  0  0  0
  1 10  1  0  0  0  0
  2 10  2  0  0  0  0
  3 23  1  0  0  0  0
  3 37  1  0  0  0  0
  4 24  1  0  0  0  0
  4 38  1  0  0  0  0
  5  6  1  0  0  0  0
  5  7  1  0  0  0  0
  5  8  1  0  0  0  0
  6  9  1  0  0  0  0
  6 11  2  0  0  0  0
  7 12  2  0  0  0  0
  7 14  1  0  0  0  0
  8 13  2  0  0  0  0
  8 15  1  0  0  0  0
  9 10  1  0  0  0  0
  9 16  2  0  0  0  0
 11 17  1  0  0  0  0
 11 25  1  0  0  0  0
 12 19  1  0  0  0  0
 12 26  1  0  0  0  0
 13 20  1  0  0  0  0
 13 27  1  0  0  0  0
 14 21  2  0  0  0  0
 14 28  1  0  0  0  0
 15 22  2  0  0  0  0
 15 29  1  0  0  0  0
 16 18  1  0  0  0  0
 16 30  1  0  0  0  0
 17 18  2  0  0  0  0
 17 31  1  0  0  0  0
 18 32  1  0  0  0  0
 19 23  2  0  0  0  0
 19 33  1  0  0  0  0
 20 24  2  0  0  0  0
 20 34  1  0  0  0  0
 21 23  1  0  0  0  0
 21 35  1  0  0  0  0
 22 24  1  0  0  0  0
 22 36  1  0  0  0  0
M  END
> <PUBCHEM_COMPOUND_CID>
4764

> <PUBCHEM_CONFORMER_RMSD>
0.6

> <PUBCHEM_CONFORMER_DIVERSEORDER>
1
2

> <PUBCHEM_MMFF94_PARTIAL_CHARGES>
38
1 -0.43
10 0.63
11 -0.15
12 -0.15
13 -0.15
14 -0.15
15 -0.15
16 -0.15
17 -0.15
18 -0.15
19 -0.15
2 -0.57
20 -0.15
21 -0.15
22 -0.15
23 0.08
24 0.08
25 0.15
26 0.15
27 0.15
28 0.15
29 0.15
3 -0.53
30 0.15
31 0.15
32 0.15
33 0.15
34 0.15
35 0.15
36 0.15
37 0.45
38 0.45
4 -0.53
5 0.71
6 -0.14
7 -0.14
8 -0.14
9 0.09

> <PUBCHEM_EFFECTIVE_ROTOR_COUNT>
2.4

> <PUBCHEM_PHARMACOPHORE_FEATURES>
7
1 2 acceptor
1 3 donor
1 4 donor
5 1 5 6 9 10 rings
6 6 9 11 16 17 18 rings
6 7 12 14 19 21 23 rings
6 8 13 15 20 22 24 rings

> <PUBCHEM_HEAVY_ATOM_COUNT>
24

> <PUBCHEM_ATOM_DEF_STEREO_COUNT>
0

> <PUBCHEM_ATOM_UDEF_STEREO_COUNT>
0

> <PUBCHEM_BOND_DEF_STEREO_COUNT>
0

> <PUBCHEM_BOND_UDEF_STEREO_COUNT>
0

> <PUBCHEM_ISOTOPIC_ATOM_COUNT>
0

> <PUBCHEM_COMPONENT_COUNT>
1

> <PUBCHEM_CACTVS_TAUTO_COUNT>
3

> <PUBCHEM_CONFORMER_ID>
0000129C00000001

> <PUBCHEM_MMFF94_ENERGY>
73.5859

> <PUBCHEM_FEATURE_SELFOVERLAP>
35.609

> <PUBCHEM_SHAPE_FINGERPRINT>
107951 10 17915999370565835670
11045515 52 17327749392121321214
11488393 25 18116696595106637559
11578080 2 17338112689009792777
12160290 23 18126301743517608617
12707595 3 17477193303730787699
12730499 353 18266447884371460953
12788726 201 18051989021166210442
13004483 165 17613161771790556598
13134695 92 17192946440330443573
133893 2 17836352014684943633
13681431 1 17617099552025119881
13911987 19 17617622863963588814
14817 1 5900417266572756611
14955137 171 18048890881036187266
15906896 17 18199463264504378490
16945 1 18118974593740182795
17980427 23 17834716985449957115
1813 80 16891712750411711502
20101258 96 17690550889106038640
20600515 1 16890317465987794462
21285901 2 17533214150888754335
21304303 282 17831624977989491028
21524375 3 18413111670915750464
22713019 5 17903659396394562951
23419403 2 17330495224832984291
23559900 14 17757279550158862293
238 59 18190732218761946317
298252 57 18333733541481914552
35225 105 18338240336412031513
3729539 64 17976794778790832990
394222 165 18269282428930444929
404807 78 17841462266776837071
484985 159 15070002496356963668
5845 1 8394042276090864385
6442390 28 18409720747407623537
6786 2 18263624264799932183
7364860 26 18051414273011616305
81228 2 17980770332893771649
9841814 1 17550668159519512513

> <PUBCHEM_SHAPE_MULTIPOLES>
470.43
5.56
5.15
1.91
3.41
4.38
-0.55
-9.41
1.07
-2.59
0.96
-0.36
1.55
0.05

> <PUBCHEM_SHAPE_SELFOVERLAP>
1062.733

> <PUBCHEM_SHAPE_VOLUME>
247.8

> <PUBCHEM_COORDINATE_TYPE>
2
5
10

$$$$

