12772
  -OEChem-06261207213D

 20 20  0     0  0  0  0  0  0999 V2000
    0.5041   -2.4281   -0.2946 Cl  0  0  0  0  0  0  0  0  0  0  0  0
    1.6504    0.3725    0.0367 N   0  0  0  0  0  0  0  0  0  0  0  0
    0.2411    0.2691    0.0300 C   0  0  0  0  0  0  0  0  0  0  0  0
   -0.3949   -0.9640   -0.1149 C   0  0  0  0  0  0  0  0  0  0  0  0
   -0.5162    1.4317    0.1731 C   0  0  0  0  0  0  0  0  0  0  0  0
    2.3294    1.1741   -0.9598 C   0  0  0  0  0  0  0  0  0  0  0  0
    2.4289   -0.3109    1.0484 C   0  0  0  0  0  0  0  0  0  0  0  0
   -1.7881   -1.0342   -0.1166 C   0  0  0  0  0  0  0  0  0  0  0  0
   -1.9094    1.3614    0.1713 C   0  0  0  0  0  0  0  0  0  0  0  0
   -2.5453    0.1284    0.0264 C   0  0  0  0  0  0  0  0  0  0  0  0
   -0.0385    2.4006    0.2942 H   0  0  0  0  0  0  0  0  0  0  0  0
    3.3963    0.9292   -1.0029 H   0  0  0  0  0  0  0  0  0  0  0  0
    2.2407    2.2401   -0.7268 H   0  0  0  0  0  0  0  0  0  0  0  0
    1.9124    0.9965   -1.9573 H   0  0  0  0  0  0  0  0  0  0  0  0
    1.8113   -0.6800    1.8751 H   0  0  0  0  0  0  0  0  0  0  0  0
    3.1629    0.3772    1.4828 H   0  0  0  0  0  0  0  0  0  0  0  0
    2.9801   -1.1509    0.6139 H   0  0  0  0  0  0  0  0  0  0  0  0
   -2.2993   -1.9871   -0.2283 H   0  0  0  0  0  0  0  0  0  0  0  0
   -2.4991    2.2664    0.2844 H   0  0  0  0  0  0  0  0  0  0  0  0
   -3.6300    0.0738    0.0255 H   0  0  0  0  0  0  0  0  0  0  0  0
  1  4  1  0  0  0  0
  2  3  1  0  0  0  0
  2  6  1  0  0  0  0
  2  7  1  0  0  0  0
  3  4  1  0  0  0  0
  3  5  2  0  0  0  0
  4  8  2  0  0  0  0
  5  9  1  0  0  0  0
  5 11  1  0  0  0  0
  6 12  1  0  0  0  0
  6 13  1  0  0  0  0
  6 14  1  0  0  0  0
  7 15  1  0  0  0  0
  7 16  1  0  0  0  0
  7 17  1  0  0  0  0
  8 10  1  0  0  0  0
  8 18  1  0  0  0  0
  9 10  2  0  0  0  0
  9 19  1  0  0  0  0
 10 20  1  0  0  0  0
M  END
> <PUBCHEM_COMPOUND_CID>
12772

> <PUBCHEM_CONFORMER_RMSD>
0.4

> <PUBCHEM_CONFORMER_DIVERSEORDER>
2
1

> <PUBCHEM_MMFF94_PARTIAL_CHARGES>
14
1 -0.18
10 -0.15
11 0.15
18 0.15
19 0.15
2 -0.84
20 0.15
3 0.1
4 0.18
5 -0.15
6 0.37
7 0.37
8 -0.15
9 -0.15

> <PUBCHEM_EFFECTIVE_ROTOR_COUNT>
1

> <PUBCHEM_PHARMACOPHORE_FEATURES>
2
1 2 cation
6 3 4 5 8 9 10 rings

> <PUBCHEM_HEAVY_ATOM_COUNT>
10

> <PUBCHEM_ATOM_DEF_STEREO_COUNT>
0

> <PUBCHEM_ATOM_UDEF_STEREO_COUNT>
0

> <PUBCHEM_BOND_DEF_STEREO_COUNT>
0

> <PUBCHEM_BOND_UDEF_STEREO_COUNT>
0

> <PUBCHEM_ISOTOPIC_ATOM_COUNT>
0

> <PUBCHEM_COMPONENT_COUNT>
1

> <PUBCHEM_CACTVS_TAUTO_COUNT>
1

> <PUBCHEM_CONFORMER_ID>
000031E400000002

> <PUBCHEM_MMFF94_ENERGY>
44.9531

> <PUBCHEM_FEATURE_SELFOVERLAP>
10.148

> <PUBCHEM_SHAPE_FINGERPRINT>
12423570 1 16590574249198752909
12716758 59 18191291698740410692
15310529 11 17346323643860134173
16945 1 18334858324866104097
18185500 45 17981612567580291734
20511035 2 17829049054384582461
20645464 45 17604158025610049616
20645476 183 17987790792083676598
20871998 184 17971754376374962950
21040471 1 18335701658526285832
23552423 10 18268142231130077935
241688 4 17331394788415748482
2748010 2 18337952294446045015
369184 2 17676501539541280073
5084963 1 18114173164000689774

> <PUBCHEM_SHAPE_MULTIPOLES>
202.68
3.4
2.03
0.84
0.33
0.97
-0.02
-0.83
-0.16
0.08
0.28
0.48
-0.06
-0.38

> <PUBCHEM_SHAPE_SELFOVERLAP>
404.187

> <PUBCHEM_SHAPE_VOLUME>
120.9

> <PUBCHEM_COORDINATE_TYPE>
2
5
10

$$$$

