440399
  -OEChem-07051212493D

 19 19  0     1  0  0  0  0  0999 V2000
   -0.1017   -1.6283    0.9738 O   0  0  0  0  0  0  0  0  0  0  0  0
   -2.3867   -0.8600   -0.1555 O   0  0  0  0  0  0  0  0  0  0  0  0
    0.0376   -0.9309   -0.2663 C   0  0  1  0  0  0  0  0  0  0  0  0
   -1.2442   -0.1245   -0.5828 C   0  0  2  0  0  0  0  0  0  0  0  0
    1.2764   -0.0695   -0.1508 C   0  0  0  0  0  0  0  0  0  0  0  0
   -1.2495    1.2511    0.0282 C   0  0  0  0  0  0  0  0  0  0  0  0
    1.1745    1.2417    0.1320 C   0  0  0  0  0  0  0  0  0  0  0  0
   -0.1065    1.8685    0.3584 C   0  0  0  0  0  0  0  0  0  0  0  0
    2.6001   -0.7482   -0.3371 C   0  0  0  0  0  0  0  0  0  0  0  0
    0.1616   -1.6881   -1.0501 H   0  0  0  0  0  0  0  0  0  0  0  0
   -1.3310    0.0097   -1.6686 H   0  0  0  0  0  0  0  0  0  0  0  0
   -2.1979    1.7609    0.1673 H   0  0  0  0  0  0  0  0  0  0  0  0
    2.0548    1.8680    0.2326 H   0  0  0  0  0  0  0  0  0  0  0  0
   -0.1163    2.8690    0.7761 H   0  0  0  0  0  0  0  0  0  0  0  0
    3.4362   -0.0464   -0.2486 H   0  0  0  0  0  0  0  0  0  0  0  0
    2.6549   -1.2057   -1.3301 H   0  0  0  0  0  0  0  0  0  0  0  0
    2.7423   -1.5303    0.4150 H   0  0  0  0  0  0  0  0  0  0  0  0
    0.6347   -2.2592    1.0461 H   0  0  0  0  0  0  0  0  0  0  0  0
   -2.3487   -1.7326   -0.5829 H   0  0  0  0  0  0  0  0  0  0  0  0
  1  3  1  0  0  0  0
  1 18  1  0  0  0  0
  2  4  1  0  0  0  0
  2 19  1  0  0  0  0
  3  4  1  0  0  0  0
  3  5  1  0  0  0  0
  3 10  1  0  0  0  0
  4  6  1  0  0  0  0
  4 11  1  0  0  0  0
  5  7  2  0  0  0  0
  5  9  1  0  0  0  0
  6  8  2  0  0  0  0
  6 12  1  0  0  0  0
  7  8  1  0  0  0  0
  7 13  1  0  0  0  0
  8 14  1  0  0  0  0
  9 15  1  0  0  0  0
  9 16  1  0  0  0  0
  9 17  1  0  0  0  0
M  END
> <PUBCHEM_COMPOUND_CID>
440399

> <PUBCHEM_CONFORMER_RMSD>
0.4

> <PUBCHEM_CONFORMER_DIVERSEORDER>
1
2

> <PUBCHEM_MMFF94_PARTIAL_CHARGES>
14
1 -0.68
12 0.15
13 0.15
14 0.15
18 0.4
19 0.4
2 -0.68
3 0.42
4 0.42
5 -0.28
6 -0.29
7 -0.15
8 -0.15
9 0.14

> <PUBCHEM_EFFECTIVE_ROTOR_COUNT>
0.4

> <PUBCHEM_PHARMACOPHORE_FEATURES>
5
1 1 acceptor
1 1 donor
1 2 acceptor
1 2 donor
6 3 4 5 6 7 8 rings

> <PUBCHEM_HEAVY_ATOM_COUNT>
9

> <PUBCHEM_ATOM_DEF_STEREO_COUNT>
2

> <PUBCHEM_ATOM_UDEF_STEREO_COUNT>
0

> <PUBCHEM_BOND_DEF_STEREO_COUNT>
0

> <PUBCHEM_BOND_UDEF_STEREO_COUNT>
0

> <PUBCHEM_ISOTOPIC_ATOM_COUNT>
0

> <PUBCHEM_COMPONENT_COUNT>
1

> <PUBCHEM_CACTVS_TAUTO_COUNT>
1

> <PUBCHEM_CONFORMER_ID>
0006B84F00000001

> <PUBCHEM_MMFF94_ENERGY>
14.0187

> <PUBCHEM_FEATURE_SELFOVERLAP>
25.388

> <PUBCHEM_SHAPE_FINGERPRINT>
12423570 1 17271438320722012180
13024252 1 17987781038407885542
137420 1 7976672296662561348
16945 1 18118119410022521348
18185500 45 18052264191025422408
21040471 1 16679227686999817669
23552423 10 18198052780386431710
241688 4 18408605889423933776
2748010 2 18408892819003880949
29004967 10 18261956228266749610
5084963 1 18060138751638237894

> <PUBCHEM_SHAPE_MULTIPOLES>
173.48
2.61
1.82
0.76
0.71
0.42
0.06
-0.65
-0.37
-0.32
0.32
0
-0.14
-0.01

> <PUBCHEM_SHAPE_SELFOVERLAP>
349.552

> <PUBCHEM_SHAPE_VOLUME>
101.2

> <PUBCHEM_COORDINATE_TYPE>
2
5
10

$$$$

