4344
  -OEChem-06261200033D

 20 19  0     0  0  0  0  0  0999 V2000
   -2.8513   -0.0437    0.1899 O   0  0  0  0  0  0  0  0  0  0  0  0
    0.8659   -0.0063    0.0291 N   0  3  0  0  0  0  0  0  0  0  0  0
    1.8300   -0.1600    1.0635 N   0  0  0  0  0  0  0  0  0  0  0  0
   -0.4995   -0.1807    0.6501 C   0  0  0  0  0  0  0  0  0  0  0  0
    1.0572    1.3800   -0.5372 C   0  0  0  0  0  0  0  0  0  0  0  0
    1.1608   -1.0727   -0.9980 C   0  0  0  0  0  0  0  0  0  0  0  0
   -1.5631    0.0835   -0.3974 C   0  0  0  0  0  0  0  0  0  0  0  0
   -0.5835   -1.1984    1.0527 H   0  0  0  0  0  0  0  0  0  0  0  0
   -0.6026    0.5227    1.4869 H   0  0  0  0  0  0  0  0  0  0  0  0
    2.1196    1.5239   -0.7668 H   0  0  0  0  0  0  0  0  0  0  0  0
    0.4881    1.4748   -1.4662 H   0  0  0  0  0  0  0  0  0  0  0  0
    0.7272    2.1203    0.1992 H   0  0  0  0  0  0  0  0  0  0  0  0
    0.9546   -2.0574   -0.5655 H   0  0  0  0  0  0  0  0  0  0  0  0
    0.5380   -0.9055   -1.8809 H   0  0  0  0  0  0  0  0  0  0  0  0
    2.2147   -0.9999   -1.2903 H   0  0  0  0  0  0  0  0  0  0  0  0
   -1.5104    1.0971   -0.8018 H   0  0  0  0  0  0  0  0  0  0  0  0
   -1.5155   -0.6314   -1.2229 H   0  0  0  0  0  0  0  0  0  0  0  0
    1.6710    0.5320    1.7957 H   0  0  0  0  0  0  0  0  0  0  0  0
    1.7235   -1.0724    1.5070 H   0  0  0  0  0  0  0  0  0  0  0  0
   -3.5041    0.1280   -0.5102 H   0  0  0  0  0  0  0  0  0  0  0  0
  1  7  1  0  0  0  0
  1 20  1  0  0  0  0
  2  3  1  0  0  0  0
  2  4  1  0  0  0  0
  2  5  1  0  0  0  0
  2  6  1  0  0  0  0
  3 18  1  0  0  0  0
  3 19  1  0  0  0  0
  4  7  1  0  0  0  0
  4  8  1  0  0  0  0
  4  9  1  0  0  0  0
  5 10  1  0  0  0  0
  5 11  1  0  0  0  0
  5 12  1  0  0  0  0
  6 13  1  0  0  0  0
  6 14  1  0  0  0  0
  6 15  1  0  0  0  0
  7 16  1  0  0  0  0
  7 17  1  0  0  0  0
M  CHG  1   2   1
M  END
> <PUBCHEM_COMPOUND_CID>
4344

> <PUBCHEM_CONFORMER_RMSD>
0.4

> <PUBCHEM_CONFORMER_DIVERSEORDER>
1
7
2
4
5
6
3

> <PUBCHEM_MMFF94_PARTIAL_CHARGES>
10
1 -0.68
18 0.36
19 0.36
2 -0.75
20 0.4
3 -0.48
4 0.5
5 0.5
6 0.5
7 0.28

> <PUBCHEM_EFFECTIVE_ROTOR_COUNT>
2

> <PUBCHEM_PHARMACOPHORE_FEATURES>
3
1 1 acceptor
1 1 donor
1 3 donor

> <PUBCHEM_HEAVY_ATOM_COUNT>
7

> <PUBCHEM_ATOM_DEF_STEREO_COUNT>
0

> <PUBCHEM_ATOM_UDEF_STEREO_COUNT>
0

> <PUBCHEM_BOND_DEF_STEREO_COUNT>
0

> <PUBCHEM_BOND_UDEF_STEREO_COUNT>
0

> <PUBCHEM_ISOTOPIC_ATOM_COUNT>
0

> <PUBCHEM_COMPONENT_COUNT>
1

> <PUBCHEM_CACTVS_TAUTO_COUNT>
1

> <PUBCHEM_CONFORMER_ID>
000010F800000001

> <PUBCHEM_MMFF94_ENERGY>
19.69

> <PUBCHEM_FEATURE_SELFOVERLAP>
15.223

> <PUBCHEM_SHAPE_FINGERPRINT>
20096714 4 18129658573997144413
21040471 1 17677334904951821239
23552449 11 18202287991443525281
24536 1 18335691741663064305
29004967 10 18334575771604649915
5460574 1 14923945643591683979
5943 1 4746600910235848164

> <PUBCHEM_SHAPE_MULTIPOLES>
128.23
2.84
1.08
1.01
2.2
0.09
-0.08
-0.05
-0.2
-0.55
0.36
-0.39
-0.05
0.04

> <PUBCHEM_SHAPE_SELFOVERLAP>
224.429

> <PUBCHEM_SHAPE_VOLUME>
86.8

> <PUBCHEM_COORDINATE_TYPE>
2
5
10

$$$$

