23724574
  -OEChem-07051213083D

 78 81  0     1  0  0  0  0  0999 V2000
   -6.9648    1.1747   -0.9102 O   0  0  0  0  0  0  0  0  0  0  0  0
    0.4159   -0.8976    0.3377 C   0  0  1  0  0  0  0  0  0  0  0  0
   -0.8633   -1.6765    0.7205 C   0  0  1  0  0  0  0  0  0  0  0  0
   -2.3513    0.3096   -0.0550 C   0  0  2  0  0  0  0  0  0  0  0  0
   -3.5510    1.2582    0.3530 C   0  0  2  0  0  0  0  0  0  0  0  0
    1.3119   -2.0493   -0.1896 C   0  0  1  0  0  0  0  0  0  0  0  0
   -2.0987   -0.8267    0.9301 C   0  0  0  0  0  0  0  0  0  0  0  0
    0.1085    0.1671   -0.7404 C   0  0  0  0  0  0  0  0  0  0  0  0
   -1.0472    1.0868   -0.3428 C   0  0  0  0  0  0  0  0  0  0  0  0
   -1.0342   -2.7147   -0.4034 C   0  0  0  0  0  0  0  0  0  0  0  0
   -4.7254    0.4117    0.9350 C   0  0  2  0  0  0  0  0  0  0  0  0
    0.3584   -2.9377   -0.9979 C   0  0  0  0  0  0  0  0  0  0  0  0
   -4.0796    2.0649   -0.8676 C   0  0  0  0  0  0  0  0  0  0  0  0
    2.5403   -1.6335   -0.9885 C   0  0  1  0  0  0  0  0  0  0  0  0
    1.0549   -0.2373    1.5724 C   0  0  0  0  0  0  0  0  0  0  0  0
   -4.2675   -0.4344    2.1357 C   0  0  0  0  0  0  0  0  0  0  0  0
   -2.9582   -1.1250    1.9202 C   0  0  0  0  0  0  0  0  0  0  0  0
   -5.3951   -0.4714   -0.1425 C   0  0  0  0  0  0  0  0  0  0  0  0
   -3.1117    2.2954    1.4207 C   0  0  0  0  0  0  0  0  0  0  0  0
   -4.7761    1.2106   -1.9296 C   0  0  0  0  0  0  0  0  0  0  0  0
   -5.8848    0.3457   -1.3371 C   0  0  2  0  0  0  0  0  0  0  0  0
    3.4374   -0.7089   -0.1385 C   0  0  0  0  0  0  0  0  0  0  0  0
    3.2919   -2.8757   -1.4772 C   0  0  0  0  0  0  0  0  0  0  0  0
    4.7396   -0.3020   -0.8428 C   0  0  0  0  0  0  0  0  0  0  0  0
    5.6395    0.5524    0.0304 C   0  0  0  0  0  0  0  0  0  0  0  0
    5.5418    2.0709   -0.1088 C   0  0  0  0  0  0  0  0  0  0  0  0
    6.5418    0.0257    0.8850 C   0  0  0  0  0  0  0  0  0  0  0  0
    6.5273    2.6067   -1.1518 C   0  0  0  0  0  0  0  0  0  0  0  0
    4.1210    2.5529   -0.4090 C   0  0  0  0  0  0  0  0  0  0  0  0
    7.4788    0.7576    1.7918 C   0  0  0  0  0  0  0  0  0  0  0  0
   -0.6519   -2.2376    1.6441 H   0  0  0  0  0  0  0  0  0  0  0  0
   -2.6218   -0.1884   -0.9942 H   0  0  0  0  0  0  0  0  0  0  0  0
    1.6459   -2.6506    0.6704 H   0  0  0  0  0  0  0  0  0  0  0  0
   -0.1502   -0.3090   -1.6943 H   0  0  0  0  0  0  0  0  0  0  0  0
    0.9881    0.7877   -0.9446 H   0  0  0  0  0  0  0  0  0  0  0  0
   -0.7354    1.6650    0.5339 H   0  0  0  0  0  0  0  0  0  0  0  0
   -1.2075    1.8048   -1.1543 H   0  0  0  0  0  0  0  0  0  0  0  0
   -1.7200   -2.3754   -1.1883 H   0  0  0  0  0  0  0  0  0  0  0  0
   -1.4459   -3.6495   -0.0057 H   0  0  0  0  0  0  0  0  0  0  0  0
   -5.4969    1.0929    1.3196 H   0  0  0  0  0  0  0  0  0  0  0  0
    0.6402   -3.9942   -0.9306 H   0  0  0  0  0  0  0  0  0  0  0  0
    0.3475   -2.6670   -2.0604 H   0  0  0  0  0  0  0  0  0  0  0  0
   -4.7819    2.8335   -0.5184 H   0  0  0  0  0  0  0  0  0  0  0  0
   -3.2633    2.6190   -1.3449 H   0  0  0  0  0  0  0  0  0  0  0  0
    2.2324   -1.0794   -1.8844 H   0  0  0  0  0  0  0  0  0  0  0  0
    1.5817    0.6953    1.3595 H   0  0  0  0  0  0  0  0  0  0  0  0
    1.7197   -0.9139    2.1187 H   0  0  0  0  0  0  0  0  0  0  0  0
    0.2754    0.0541    2.2884 H   0  0  0  0  0  0  0  0  0  0  0  0
   -5.0321   -1.1851    2.3696 H   0  0  0  0  0  0  0  0  0  0  0  0
   -4.1788    0.1973    3.0279 H   0  0  0  0  0  0  0  0  0  0  0  0
   -2.7340   -1.9428    2.6006 H   0  0  0  0  0  0  0  0  0  0  0  0
   -6.2515   -0.9864    0.3113 H   0  0  0  0  0  0  0  0  0  0  0  0
   -4.7061   -1.2483   -0.4929 H   0  0  0  0  0  0  0  0  0  0  0  0
   -2.4529    3.0586    0.9920 H   0  0  0  0  0  0  0  0  0  0  0  0
   -3.9781    2.8257    1.8332 H   0  0  0  0  0  0  0  0  0  0  0  0
   -2.5803    1.8304    2.2570 H   0  0  0  0  0  0  0  0  0  0  0  0
   -5.2006    1.8825   -2.6856 H   0  0  0  0  0  0  0  0  0  0  0  0
   -4.0457    0.5770   -2.4438 H   0  0  0  0  0  0  0  0  0  0  0  0
   -6.2823   -0.3249   -2.1059 H   0  0  0  0  0  0  0  0  0  0  0  0
    2.9155    0.2179    0.0532 H   0  0  0  0  0  0  0  0  0  0  0  0
    3.6751   -1.1874    0.8192 H   0  0  0  0  0  0  0  0  0  0  0  0
    2.6477   -3.5518   -2.0472 H   0  0  0  0  0  0  0  0  0  0  0  0
    3.7149   -3.4383   -0.6379 H   0  0  0  0  0  0  0  0  0  0  0  0
    4.1078   -2.6089   -2.1555 H   0  0  0  0  0  0  0  0  0  0  0  0
    4.5387    0.1848   -1.8032 H   0  0  0  0  0  0  0  0  0  0  0  0
    5.3133   -1.2018   -1.0956 H   0  0  0  0  0  0  0  0  0  0  0  0
   -6.6374    1.8379   -0.2827 H   0  0  0  0  0  0  0  0  0  0  0  0
    5.7920    2.5412    0.8499 H   0  0  0  0  0  0  0  0  0  0  0  0
    6.5942   -1.0594    0.9606 H   0  0  0  0  0  0  0  0  0  0  0  0
    6.2924    2.2244   -2.1515 H   0  0  0  0  0  0  0  0  0  0  0  0
    7.5572    2.3188   -0.9163 H   0  0  0  0  0  0  0  0  0  0  0  0
    6.4902    3.7006   -1.1939 H   0  0  0  0  0  0  0  0  0  0  0  0
    3.4306    2.2752    0.3931 H   0  0  0  0  0  0  0  0  0  0  0  0
    4.1033    3.6480   -0.4659 H   0  0  0  0  0  0  0  0  0  0  0  0
    3.7330    2.1838   -1.3628 H   0  0  0  0  0  0  0  0  0  0  0  0
    7.6271    1.8086    1.5388 H   0  0  0  0  0  0  0  0  0  0  0  0
    7.1243    0.6914    2.8248 H   0  0  0  0  0  0  0  0  0  0  0  0
    8.4650    0.2831    1.7446 H   0  0  0  0  0  0  0  0  0  0  0  0
  1 21  1  0  0  0  0
  1 67  1  0  0  0  0
  2  3  1  0  0  0  0
  2  6  1  0  0  0  0
  2  8  1  0  0  0  0
  2 15  1  0  0  0  0
  3  7  1  0  0  0  0
  3 10  1  0  0  0  0
  3 31  1  0  0  0  0
  4  5  1  0  0  0  0
  4  7  1  0  0  0  0
  4  9  1  0  0  0  0
  4 32  1  0  0  0  0
  5 11  1  0  0  0  0
  5 13  1  0  0  0  0
  5 19  1  0  0  0  0
  6 12  1  0  0  0  0
  6 14  1  0  0  0  0
  6 33  1  0  0  0  0
  7 17  2  0  0  0  0
  8  9  1  0  0  0  0
  8 34  1  0  0  0  0
  8 35  1  0  0  0  0
  9 36  1  0  0  0  0
  9 37  1  0  0  0  0
 10 12  1  0  0  0  0
 10 38  1  0  0  0  0
 10 39  1  0  0  0  0
 11 16  1  0  0  0  0
 11 18  1  0  0  0  0
 11 40  1  0  0  0  0
 12 41  1  0  0  0  0
 12 42  1  0  0  0  0
 13 20  1  0  0  0  0
 13 43  1  0  0  0  0
 13 44  1  0  0  0  0
 14 22  1  0  0  0  0
 14 23  1  0  0  0  0
 14 45  1  0  0  0  0
 15 46  1  0  0  0  0
 15 47  1  0  0  0  0
 15 48  1  0  0  0  0
 16 17  1  0  0  0  0
 16 49  1  0  0  0  0
 16 50  1  0  0  0  0
 17 51  1  0  0  0  0
 18 21  1  0  0  0  0
 18 52  1  0  0  0  0
 18 53  1  0  0  0  0
 19 54  1  0  0  0  0
 19 55  1  0  0  0  0
 19 56  1  0  0  0  0
 20 21  1  0  0  0  0
 20 57  1  0  0  0  0
 20 58  1  0  0  0  0
 21 59  1  0  0  0  0
 22 24  1  0  0  0  0
 22 60  1  0  0  0  0
 22 61  1  0  0  0  0
 23 62  1  0  0  0  0
 23 63  1  0  0  0  0
 23 64  1  0  0  0  0
 24 25  1  0  0  0  0
 24 65  1  0  0  0  0
 24 66  1  0  0  0  0
 25 26  1  0  0  0  0
 25 27  2  0  0  0  0
 26 28  1  0  0  0  0
 26 29  1  0  0  0  0
 26 68  1  0  0  0  0
 27 30  1  0  0  0  0
 27 69  1  0  0  0  0
 28 70  1  0  0  0  0
 28 71  1  0  0  0  0
 28 72  1  0  0  0  0
 29 73  1  0  0  0  0
 29 74  1  0  0  0  0
 29 75  1  0  0  0  0
 30 76  1  0  0  0  0
 30 77  1  0  0  0  0
 30 78  1  0  0  0  0
M  END
> <PUBCHEM_COMPOUND_CID>
23724574

> <PUBCHEM_CONFORMER_RMSD>
0.8

> <PUBCHEM_CONFORMER_DIVERSEORDER>
3
46
54
180
127
11
237
138
213
55
84
124
117
220
238
123
64
194
136
72
215
110
135
130
61
166
131
28
187
43
51
2
52
191
71
106
119
190
157
126
90
129
74
198
205
100
242
37
96
193
145
105
151
91
203
20
240
143
186
156
97
10
121
149
13
101
92
125
39
150
182
99
169
109
153
197
167
53
114
32
133
155
160
31
174
56
103
232
161
134
73
18
172
236
181
59
86
128
195
79
88
208
139
146
102
204
78
239
58
132
34
177
70
200
147
16
163
67
87
118
137
210
9
95
152
179
224
82
63
68
219
116
22
176
69
141
207
23
45
83
17
227
148
201
35
50
230
49
65
154
185
202
93
113
122
85
42
89
107
226
38
40
27
77
165
120
12
229
47
15
159
48
216
14
62
214
8
248
94
111
4
81
189
115
140
212
228
6
60
243
188
246
5
245
241
171
196
199
80
36
30
144
170
24
66
231
162
33
183
218
192
142
29
221
112
108
98
217
164
175
235
233
158
234
184
206
244
104
75
168
222
1
7
44
76
211
223
26
225
25
57
178
21
247
41
173
19
209

> <PUBCHEM_MMFF94_PARTIAL_CHARGES>
15
1 -0.68
16 0.14
17 -0.29
21 0.28
24 0.14
25 -0.28
26 0.14
27 -0.29
3 0.14
30 0.14
4 0.14
51 0.15
67 0.4
69 0.15
7 -0.28

> <PUBCHEM_EFFECTIVE_ROTOR_COUNT>
7

> <PUBCHEM_PHARMACOPHORE_FEATURES>
10
1 1 acceptor
1 1 donor
1 23 hydrophobe
1 30 hydrophobe
3 26 28 29 hydrophobe
5 14 22 24 25 26 hydrophobe
5 2 3 6 10 12 rings
6 2 3 4 7 8 9 rings
6 4 5 7 11 16 17 rings
6 5 11 13 18 20 21 rings

> <PUBCHEM_HEAVY_ATOM_COUNT>
30

> <PUBCHEM_ATOM_DEF_STEREO_COUNT>
4

> <PUBCHEM_ATOM_UDEF_STEREO_COUNT>
4

> <PUBCHEM_BOND_DEF_STEREO_COUNT>
1

> <PUBCHEM_BOND_UDEF_STEREO_COUNT>
0

> <PUBCHEM_ISOTOPIC_ATOM_COUNT>
0

> <PUBCHEM_COMPONENT_COUNT>
1

> <PUBCHEM_CACTVS_TAUTO_COUNT>
1

> <PUBCHEM_CONFORMER_ID>
016A021E00000003

> <PUBCHEM_MMFF94_ENERGY>
91.4364

> <PUBCHEM_FEATURE_SELFOVERLAP>
50.994

> <PUBCHEM_SHAPE_FINGERPRINT>
10 15 18060133207225868144
10319926 262 17489583468188431090
11513181 2 17678444479893921540
12107183 9 11383831606323001887
12236239 1 15123500402510285426
12422481 6 17988644069463456860
12596602 18 17131550540534040272
13402501 40 18343586243772728996
13583140 156 17846498131892174138
13631057 29 17604160212049681719
13911987 19 18187640293301289977
14117953 113 18408039620542123620
14251764 30 7781506032258574749
14739800 52 17703801352433873232
14767858 380 17967540064396077325
14856354 85 14562536154863276669
15183329 4 18260824874395597592
15799311 1 14851880374357801079
16990366 60 16195333853157757499
20511986 3 16486986102419942835
20567600 254 18412830200761456334
20715895 44 18407760331439931072
21033648 144 18343295985787766901
21033648 29 17418084469159943501
21150785 3 15357701868616524098
21859007 373 17417260955955954646
23227448 37 18263355911386401302
23522609 53 17241307184274264857
23559900 14 17558813221025102126
2748736 6 18335139791485326800
2838139 119 18272660042841082940
312425 54 16056884594364726704
34797466 226 18334292119480447263
4098825 35 5112008365636432826
4371632 12 16953114014954980456
5104073 3 18199738309820167147
563151 74 16988294160764454707
6371009 1 18335425664398032136
6608658 132 16515673485632122936
9981440 41 17346310540537394243

> <PUBCHEM_SHAPE_MULTIPOLES>
611.52
17.36
3.02
1.74
14.07
0.63
-0.42
-11.67
0.3
2.2
1.07
-0.9
-0.02
1.05

> <PUBCHEM_SHAPE_SELFOVERLAP>
1267.749

> <PUBCHEM_SHAPE_VOLUME>
347.9

> <PUBCHEM_COORDINATE_TYPE>
2
5
10

$$$$

