656498
  -OEChem-07051212463D

 45 46  0     1  0  0  0  0  0999 V2000
    0.5428   -0.5325    2.2457 S   0  0  0  0  0  0  0  0  0  0  0  0
   -2.1089    3.1698   -0.1884 S   0  0  0  0  0  0  0  0  0  0  0  0
    1.3613   -0.3464   -0.2917 O   0  0  0  0  0  0  0  0  0  0  0  0
    5.3738   -0.7419    0.5038 O   0  0  0  0  0  0  0  0  0  0  0  0
    4.4834    0.2364   -2.1098 O   0  0  0  0  0  0  0  0  0  0  0  0
    3.5818    0.1203    2.5935 O   0  0  0  0  0  0  0  0  0  0  0  0
    0.3071    0.2630   -2.7530 O   0  0  0  0  0  0  0  0  0  0  0  0
   -2.1641    1.7449    0.6056 O   0  0  0  0  0  0  0  0  0  0  0  0
   -3.6505    3.3648   -0.6817 O   0  0  0  0  0  0  0  0  0  0  0  0
   -1.2862    3.0036   -1.3721 O   0  0  0  0  0  0  0  0  0  0  0  0
   -1.8192    4.2171    0.7731 O   0  0  0  0  0  0  0  0  0  0  0  0
   -0.8900    1.3247    0.9931 N   0  0  0  0  0  0  0  0  0  0  0  0
    4.1585   -0.0284    0.2674 C   0  0  1  0  0  0  0  0  0  0  0  0
    3.6369   -0.3605   -1.1313 C   0  0  1  0  0  0  0  0  0  0  0  0
    2.2127    0.1697   -1.3154 C   0  0  1  0  0  0  0  0  0  0  0  0
    3.1542   -0.4353    1.3503 C   0  0  2  0  0  0  0  0  0  0  0  0
    1.7505    0.0781    1.0144 C   0  0  2  0  0  0  0  0  0  0  0  0
    1.6228   -0.2514   -2.6578 C   0  0  0  0  0  0  0  0  0  0  0  0
   -0.9368    0.1930    1.6234 C   0  0  0  0  0  0  0  0  0  0  0  0
   -2.1896   -0.6118    1.9142 C   0  0  0  0  0  0  0  0  0  0  0  0
   -2.5380   -1.5615    0.7935 C   0  0  0  0  0  0  0  0  0  0  0  0
   -3.3673   -1.1299   -0.2296 C   0  0  0  0  0  0  0  0  0  0  0  0
   -2.0225   -2.8477    0.8082 C   0  0  0  0  0  0  0  0  0  0  0  0
   -3.6896   -2.0075   -1.2649 C   0  0  0  0  0  0  0  0  0  0  0  0
   -2.3446   -3.7253   -0.2271 C   0  0  0  0  0  0  0  0  0  0  0  0
   -3.1782   -3.3052   -1.2635 C   0  0  0  0  0  0  0  0  0  0  0  0
    4.4053    1.0380    0.3409 H   0  0  0  0  0  0  0  0  0  0  0  0
    3.6642   -1.4467   -1.2844 H   0  0  0  0  0  0  0  0  0  0  0  0
    3.1650   -1.5289    1.4478 H   0  0  0  0  0  0  0  0  0  0  0  0
    2.1962    1.2670   -1.2638 H   0  0  0  0  0  0  0  0  0  0  0  0
    1.7370    1.1740    1.0660 H   0  0  0  0  0  0  0  0  0  0  0  0
    1.5515   -1.3413   -2.7304 H   0  0  0  0  0  0  0  0  0  0  0  0
    2.2092    0.1210   -3.5030 H   0  0  0  0  0  0  0  0  0  0  0  0
    5.6726   -0.5181    1.4018 H   0  0  0  0  0  0  0  0  0  0  0  0
    5.3851   -0.0931   -1.9538 H   0  0  0  0  0  0  0  0  0  0  0  0
    2.9270   -0.1354    3.2654 H   0  0  0  0  0  0  0  0  0  0  0  0
    0.3644    1.2329   -2.7123 H   0  0  0  0  0  0  0  0  0  0  0  0
   -2.0692   -1.1746    2.8491 H   0  0  0  0  0  0  0  0  0  0  0  0
   -3.0306    0.0655    2.1068 H   0  0  0  0  0  0  0  0  0  0  0  0
   -3.7829   -0.1273   -0.2397 H   0  0  0  0  0  0  0  0  0  0  0  0
   -1.3755   -3.1879    1.6113 H   0  0  0  0  0  0  0  0  0  0  0  0
   -4.3407   -1.6812   -2.0707 H   0  0  0  0  0  0  0  0  0  0  0  0
   -1.9471   -4.7361   -0.2258 H   0  0  0  0  0  0  0  0  0  0  0  0
   -3.4296   -3.9887   -2.0692 H   0  0  0  0  0  0  0  0  0  0  0  0
   -4.3374    3.1992    0.0059 H   0  0  0  0  0  0  0  0  0  0  0  0
  1 17  1  0  0  0  0
  1 19  1  0  0  0  0
  2  8  1  0  0  0  0
  2  9  1  0  0  0  0
  2 10  2  0  0  0  0
  2 11  2  0  0  0  0
  3 15  1  0  0  0  0
  3 17  1  0  0  0  0
  4 13  1  0  0  0  0
  4 34  1  0  0  0  0
  5 14  1  0  0  0  0
  5 35  1  0  0  0  0
  6 16  1  0  0  0  0
  6 36  1  0  0  0  0
  7 18  1  0  0  0  0
  7 37  1  0  0  0  0
  8 12  1  0  0  0  0
  9 45  1  0  0  0  0
 12 19  2  0  0  0  0
 13 14  1  0  0  0  0
 13 16  1  0  0  0  0
 13 27  1  0  0  0  0
 14 15  1  0  0  0  0
 14 28  1  0  0  0  0
 15 18  1  0  0  0  0
 15 30  1  0  0  0  0
 16 17  1  0  0  0  0
 16 29  1  0  0  0  0
 17 31  1  0  0  0  0
 18 32  1  0  0  0  0
 18 33  1  0  0  0  0
 19 20  1  0  0  0  0
 20 21  1  0  0  0  0
 20 38  1  0  0  0  0
 20 39  1  0  0  0  0
 21 22  2  0  0  0  0
 21 23  1  0  0  0  0
 22 24  1  0  0  0  0
 22 40  1  0  0  0  0
 23 25  2  0  0  0  0
 23 41  1  0  0  0  0
 24 26  2  0  0  0  0
 24 42  1  0  0  0  0
 25 26  1  0  0  0  0
 25 43  1  0  0  0  0
 26 44  1  0  0  0  0
M  END
> <PUBCHEM_COMPOUND_CID>
656498

> <PUBCHEM_CONFORMER_RMSD>
1

> <PUBCHEM_CONFORMER_DIVERSEORDER>
1
68
122
71
61
64
20
99
119
120
69
89
123
19
43
114
36
16
38
49
32
107
110
98
25
115
2
105
24
3
97
52
5
7
53
112
13
62
41
84
104
91
77
96
14
44
88
92
66
27
80
76
23
63
11
86
125
81
6
111
106
113
65
59
74
56
22
94
60
124
82
10
8
116
90
93
46
78
18
35
58
31
42
54
29
30
118
109
102
85
108
17
101
87
83
95
21
12
34
39
57
47
51
15
72
4
28
40
50
103
73
79
67
26
117
75
121
9
55
100
45
70
37
33
48

> <PUBCHEM_MMFF94_PARTIAL_CHARGES>
36
1 -0.37
10 -0.65
11 -0.65
12 -0.51
13 0.28
14 0.28
15 0.28
16 0.28
17 0.51
18 0.28
19 0.53
2 1.67
20 0.2
21 -0.14
22 -0.15
23 -0.15
24 -0.15
25 -0.15
26 -0.15
3 -0.56
34 0.4
35 0.4
36 0.4
37 0.4
4 -0.68
40 0.15
41 0.15
42 0.15
43 0.15
44 0.15
45 0.5
5 -0.68
6 -0.68
7 -0.68
8 -0.12
9 -0.68

> <PUBCHEM_EFFECTIVE_ROTOR_COUNT>
8.2

> <PUBCHEM_PHARMACOPHORE_FEATURES>
16
1 10 acceptor
1 11 acceptor
1 12 acceptor
1 3 acceptor
1 4 acceptor
1 4 donor
1 5 acceptor
1 5 donor
1 6 acceptor
1 6 donor
1 7 acceptor
1 7 donor
1 9 acceptor
4 2 9 10 11 anion
6 21 22 23 24 25 26 rings
6 3 13 14 15 16 17 rings

> <PUBCHEM_HEAVY_ATOM_COUNT>
26

> <PUBCHEM_ATOM_DEF_STEREO_COUNT>
5

> <PUBCHEM_ATOM_UDEF_STEREO_COUNT>
0

> <PUBCHEM_BOND_DEF_STEREO_COUNT>
0

> <PUBCHEM_BOND_UDEF_STEREO_COUNT>
1

> <PUBCHEM_ISOTOPIC_ATOM_COUNT>
0

> <PUBCHEM_COMPONENT_COUNT>
1

> <PUBCHEM_CACTVS_TAUTO_COUNT>
1

> <PUBCHEM_CONFORMER_ID>
000A047200000001

> <PUBCHEM_MMFF94_ENERGY>
55.966

> <PUBCHEM_FEATURE_SELFOVERLAP>
81.267

> <PUBCHEM_SHAPE_FINGERPRINT>
11244481 83 17620495514405624191
11477941 20 18049971490956369756
11582403 64 16307177562317400912
12156800 1 16015849832172975087
12160290 23 18339636841092249841
12363563 72 17971749978360457675
12539773 59 17846489327551991567
12553582 1 18268422447802930931
12633257 1 15576367251706494747
12788726 201 18342451535093196605
133893 2 17472120796840413867
13583140 156 17968393328880796010
13681431 1 17831016823937568803
14004458 79 18410864230968306201
17357779 13 17604438388206373023
1813 80 18118958092935060059
20600515 1 18117285744265229643
22620623 9 18334299772985535457
23419403 2 16258208355432990073
23557571 272 18187651296960380760
23598288 3 17988626520037168401
26353 1 18196092140700611997
35225 105 18053130529269219229
469060 322 17026879189168386020
6438718 38 18057866112553847272
7471813 234 18129662989698220148

> <PUBCHEM_SHAPE_MULTIPOLES>
484.96
8.08
4.15
2.57
7.47
3.97
-0.48
-3.85
-1.28
-7.36
-0.79
1.63
-0.24
-0.45

> <PUBCHEM_SHAPE_SELFOVERLAP>
976.069

> <PUBCHEM_SHAPE_VOLUME>
284.1

> <PUBCHEM_COORDINATE_TYPE>
2
5
10

$$$$

