20055290
  -OEChem-07051213103D

 79 81  0     1  0  0  0  0  0999 V2000
    0.3050   -0.7913   -0.2209 O   0  0  0  0  0  0  0  0  0  0  0  0
   -0.2938   -2.8889    0.6996 O   0  0  0  0  0  0  0  0  0  0  0  0
   -2.6702   -0.2141    0.5583 O   0  0  0  0  0  0  0  0  0  0  0  0
   -2.9188   -2.5526    1.9819 O   0  0  0  0  0  0  0  0  0  0  0  0
   -3.1030    0.4752   -1.6645 O   0  0  0  0  0  0  0  0  0  0  0  0
    2.0643   -2.9753   -0.9587 O   0  0  0  0  0  0  0  0  0  0  0  0
    5.8462   -0.3091    0.1805 O   0  0  0  0  0  0  0  0  0  0  0  0
    4.1263    1.8523    0.9226 O   0  0  0  0  0  0  0  0  0  0  0  0
    4.6602   -2.1024   -1.7048 O   0  0  0  0  0  0  0  0  0  0  0  0
   -3.7742   -2.7443   -1.5183 O   0  0  0  0  0  0  0  0  0  0  0  0
   -4.3090    3.9038    0.3021 O   0  0  0  0  0  0  0  0  0  0  0  0
   -1.8776    3.9156   -1.1923 O   0  0  0  0  0  0  0  0  0  0  0  0
   -1.0056    0.3867   -3.4266 O   0  0  0  0  0  0  0  0  0  0  0  0
    6.3183    1.7443   -0.7472 O   0  0  0  0  0  0  0  0  0  0  0  0
    1.4709    0.9827    1.7324 N   0  0  0  0  0  0  0  0  0  0  0  0
   -4.9472    1.2638    1.4683 N   0  0  0  0  0  0  0  0  0  0  0  0
    1.6618    3.2249    0.8919 N   0  0  0  0  0  0  0  0  0  0  0  0
    0.6308    2.8020    2.8801 N   0  0  0  0  0  0  0  0  0  0  0  0
    7.9331    0.5142    0.3329 N   0  0  0  0  0  0  0  0  0  0  0  0
   -2.0044   -1.3695    0.0872 C   0  0  2  0  0  0  0  0  0  0  0  0
   -2.6441   -2.6546    0.5842 C   0  0  1  0  0  0  0  0  0  0  0  0
   -0.5897   -1.4824    0.6384 C   0  0  2  0  0  0  0  0  0  0  0  0
    1.6565   -0.9177    0.2295 C   0  0  2  0  0  0  0  0  0  0  0  0
   -1.4868   -3.6286    0.3580 C   0  0  2  0  0  0  0  0  0  0  0  0
    2.1789    0.4862    0.5390 C   0  0  2  0  0  0  0  0  0  0  0  0
    2.4759   -1.6085   -0.8630 C   0  0  1  0  0  0  0  0  0  0  0  0
    3.6777    0.4969    0.8415 C   0  0  1  0  0  0  0  0  0  0  0  0
    3.9720   -1.5975   -0.5564 C   0  0  2  0  0  0  0  0  0  0  0  0
    4.4884   -0.1926   -0.2548 C   0  0  2  0  0  0  0  0  0  0  0  0
   -3.6563    0.2427   -0.3656 C   0  0  2  0  0  0  0  0  0  0  0  0
   -3.9277   -3.0306   -0.1385 C   0  0  0  0  0  0  0  0  0  0  0  0
   -4.4122    1.4865    0.1251 C   0  0  2  0  0  0  0  0  0  0  0  0
   -3.5172    2.7326    0.0915 C   0  0  1  0  0  0  0  0  0  0  0  0
   -1.5263   -4.9049    1.1812 C   0  0  0  0  0  0  0  0  0  0  0  0
   -2.8426    2.8692   -1.2780 C   0  0  2  0  0  0  0  0  0  0  0  0
   -2.1683    1.5579   -1.6988 C   0  0  2  0  0  0  0  0  0  0  0  0
   -1.6181    1.6260   -3.1210 C   0  0  0  0  0  0  0  0  0  0  0  0
    1.2835    2.2596    1.7982 C   0  0  0  0  0  0  0  0  0  0  0  0
   -6.1183    0.4029    1.4195 C   0  0  0  0  0  0  0  0  0  0  0  0
    6.6617    0.7390   -0.1343 C   0  0  0  0  0  0  0  0  0  0  0  0
   -1.9082   -1.3668   -1.0057 H   0  0  0  0  0  0  0  0  0  0  0  0
   -0.5270   -1.0624    1.6501 H   0  0  0  0  0  0  0  0  0  0  0  0
    1.7106   -1.5217    1.1473 H   0  0  0  0  0  0  0  0  0  0  0  0
   -1.3989   -3.8875   -0.7049 H   0  0  0  0  0  0  0  0  0  0  0  0
    1.9567    1.1044   -0.3398 H   0  0  0  0  0  0  0  0  0  0  0  0
    2.2692   -1.1600   -1.8420 H   0  0  0  0  0  0  0  0  0  0  0  0
    3.8866    0.0378    1.8154 H   0  0  0  0  0  0  0  0  0  0  0  0
    4.2113   -2.2825    0.2657 H   0  0  0  0  0  0  0  0  0  0  0  0
    4.4505    0.3914   -1.1851 H   0  0  0  0  0  0  0  0  0  0  0  0
   -4.3997   -0.5389   -0.5103 H   0  0  0  0  0  0  0  0  0  0  0  0
   -4.1478   -4.0970   -0.0205 H   0  0  0  0  0  0  0  0  0  0  0  0
   -4.7931   -2.4910    0.2556 H   0  0  0  0  0  0  0  0  0  0  0  0
   -5.2405    1.6887   -0.5702 H   0  0  0  0  0  0  0  0  0  0  0  0
   -2.7636    2.7035    0.8882 H   0  0  0  0  0  0  0  0  0  0  0  0
   -1.4503   -4.6956    2.2535 H   0  0  0  0  0  0  0  0  0  0  0  0
   -2.4369   -5.4799    0.9924 H   0  0  0  0  0  0  0  0  0  0  0  0
   -0.6639   -5.5342    0.9346 H   0  0  0  0  0  0  0  0  0  0  0  0
   -3.5856    3.1715   -2.0261 H   0  0  0  0  0  0  0  0  0  0  0  0
   -1.3311    1.3256   -1.0285 H   0  0  0  0  0  0  0  0  0  0  0  0
   -3.3986   -3.3527    2.2558 H   0  0  0  0  0  0  0  0  0  0  0  0
   -5.2220    2.1601    1.8708 H   0  0  0  0  0  0  0  0  0  0  0  0
    2.2022   -3.3935   -0.0917 H   0  0  0  0  0  0  0  0  0  0  0  0
    4.0605    2.2468    0.0365 H   0  0  0  0  0  0  0  0  0  0  0  0
    4.4734   -1.5105   -2.4535 H   0  0  0  0  0  0  0  0  0  0  0  0
   -2.4244    1.7881   -3.8439 H   0  0  0  0  0  0  0  0  0  0  0  0
   -0.8740    2.4217   -3.2234 H   0  0  0  0  0  0  0  0  0  0  0  0
   -4.6063   -2.9921   -1.9562 H   0  0  0  0  0  0  0  0  0  0  0  0
   -4.9961    3.9331   -0.3854 H   0  0  0  0  0  0  0  0  0  0  0  0
   -1.1924    3.6411   -0.5591 H   0  0  0  0  0  0  0  0  0  0  0  0
   -5.8754   -0.6164    1.1124 H   0  0  0  0  0  0  0  0  0  0  0  0
   -6.8973    0.8043    0.7627 H   0  0  0  0  0  0  0  0  0  0  0  0
   -6.5468    0.3304    2.4247 H   0  0  0  0  0  0  0  0  0  0  0  0
   -0.6637    0.4515   -4.3346 H   0  0  0  0  0  0  0  0  0  0  0  0
    1.4490    4.2019    1.0638 H   0  0  0  0  0  0  0  0  0  0  0  0
    2.1551    3.0244    0.0314 H   0  0  0  0  0  0  0  0  0  0  0  0
    0.4687    3.8001    2.9564 H   0  0  0  0  0  0  0  0  0  0  0  0
    0.2895    2.2152    3.6336 H   0  0  0  0  0  0  0  0  0  0  0  0
    8.6758    1.1901    0.1898 H   0  0  0  0  0  0  0  0  0  0  0  0
    8.1687   -0.3348    0.8356 H   0  0  0  0  0  0  0  0  0  0  0  0
  1 22  1  0  0  0  0
  1 23  1  0  0  0  0
  2 22  1  0  0  0  0
  2 24  1  0  0  0  0
  3 20  1  0  0  0  0
  3 30  1  0  0  0  0
  4 21  1  0  0  0  0
  4 60  1  0  0  0  0
  5 30  1  0  0  0  0
  5 36  1  0  0  0  0
  6 26  1  0  0  0  0
  6 62  1  0  0  0  0
  7 29  1  0  0  0  0
  7 40  1  0  0  0  0
  8 27  1  0  0  0  0
  8 63  1  0  0  0  0
  9 28  1  0  0  0  0
  9 64  1  0  0  0  0
 10 31  1  0  0  0  0
 10 67  1  0  0  0  0
 11 33  1  0  0  0  0
 11 68  1  0  0  0  0
 12 35  1  0  0  0  0
 12 69  1  0  0  0  0
 13 37  1  0  0  0  0
 13 73  1  0  0  0  0
 14 40  2  0  0  0  0
 15 25  1  0  0  0  0
 15 38  2  0  0  0  0
 16 32  1  0  0  0  0
 16 39  1  0  0  0  0
 16 61  1  0  0  0  0
 17 38  1  0  0  0  0
 17 74  1  0  0  0  0
 17 75  1  0  0  0  0
 18 38  1  0  0  0  0
 18 76  1  0  0  0  0
 18 77  1  0  0  0  0
 19 40  1  0  0  0  0
 19 78  1  0  0  0  0
 19 79  1  0  0  0  0
 20 21  1  0  0  0  0
 20 22  1  0  0  0  0
 20 41  1  0  0  0  0
 21 24  1  0  0  0  0
 21 31  1  0  0  0  0
 22 42  1  0  0  0  0
 23 25  1  0  0  0  0
 23 26  1  0  0  0  0
 23 43  1  0  0  0  0
 24 34  1  0  0  0  0
 24 44  1  0  0  0  0
 25 27  1  0  0  0  0
 25 45  1  0  0  0  0
 26 28  1  0  0  0  0
 26 46  1  0  0  0  0
 27 29  1  0  0  0  0
 27 47  1  0  0  0  0
 28 29  1  0  0  0  0
 28 48  1  0  0  0  0
 29 49  1  0  0  0  0
 30 32  1  0  0  0  0
 30 50  1  0  0  0  0
 31 51  1  0  0  0  0
 31 52  1  0  0  0  0
 32 33  1  0  0  0  0
 32 53  1  0  0  0  0
 33 35  1  0  0  0  0
 33 54  1  0  0  0  0
 34 55  1  0  0  0  0
 34 56  1  0  0  0  0
 34 57  1  0  0  0  0
 35 36  1  0  0  0  0
 35 58  1  0  0  0  0
 36 37  1  0  0  0  0
 36 59  1  0  0  0  0
 37 65  1  0  0  0  0
 37 66  1  0  0  0  0
 39 70  1  0  0  0  0
 39 71  1  0  0  0  0
 39 72  1  0  0  0  0
M  END
> <PUBCHEM_COMPOUND_CID>
20055290

> <PUBCHEM_CONFORMER_RMSD>
1.2

> <PUBCHEM_CONFORMER_DIVERSEORDER>
1
6
10
12
4
9
14
2
7
5
8
3
17
15
16
11
13

> <PUBCHEM_MMFF94_PARTIAL_CHARGES>
54
1 -0.56
10 -0.68
11 -0.68
12 -0.68
13 -0.68
14 -0.57
15 -0.7
16 -0.9
17 -0.85
18 -0.85
19 -0.8
2 -0.56
20 0.28
21 0.28
22 0.56
23 0.28
24 0.28
25 0.25
26 0.28
27 0.28
28 0.28
29 0.28
3 -0.56
30 0.56
31 0.28
32 0.27
33 0.28
35 0.28
36 0.28
37 0.28
38 0.55
39 0.27
4 -0.68
40 0.78
5 -0.56
6 -0.68
60 0.4
61 0.36
62 0.4
63 0.4
64 0.4
67 0.4
68 0.4
69 0.4
7 -0.43
73 0.4
74 0.4
75 0.4
76 0.4
77 0.4
78 0.37
79 0.37
8 -0.68
9 -0.68

> <PUBCHEM_EFFECTIVE_ROTOR_COUNT>
13.4

> <PUBCHEM_PHARMACOPHORE_FEATURES>
30
1 1 acceptor
1 10 acceptor
1 10 donor
1 11 acceptor
1 11 donor
1 12 acceptor
1 12 donor
1 13 acceptor
1 13 donor
1 14 acceptor
1 16 cation
1 16 donor
1 17 donor
1 18 donor
1 19 donor
1 2 acceptor
1 3 acceptor
1 4 acceptor
1 4 donor
1 5 acceptor
1 6 acceptor
1 6 donor
1 8 acceptor
1 8 donor
1 9 acceptor
1 9 donor
4 15 17 18 38 cation
5 2 20 21 22 24 rings
6 23 25 26 27 28 29 rings
6 5 30 32 33 35 36 rings

> <PUBCHEM_HEAVY_ATOM_COUNT>
40

> <PUBCHEM_ATOM_DEF_STEREO_COUNT>
15

> <PUBCHEM_ATOM_UDEF_STEREO_COUNT>
0

> <PUBCHEM_BOND_DEF_STEREO_COUNT>
0

> <PUBCHEM_BOND_UDEF_STEREO_COUNT>
0

> <PUBCHEM_ISOTOPIC_ATOM_COUNT>
0

> <PUBCHEM_COMPONENT_COUNT>
1

> <PUBCHEM_CACTVS_TAUTO_COUNT>
4

> <PUBCHEM_CONFORMER_ID>
013204FA00000001

> <PUBCHEM_MMFF94_ENERGY>
127.3877

> <PUBCHEM_FEATURE_SELFOVERLAP>
152.407

> <PUBCHEM_SHAPE_FINGERPRINT>
10165383 225 18412261774761792529
10290309 65 18268146637793196114
10675989 125 17833265698641180992
11115154 58 17972898969161776663
11513181 2 17542503834131220815
11578080 2 18341319090004478382
11595378 159 17275111651515322546
12156800 1 17106435590279145409
131258 43 17694206778105297446
13402501 40 18408885148345056817
140371 6 17691407413328178979
14279260 333 17896881165709110838
14415360 78 18269570466923807965
14790565 3 17977660132442489409
14856354 85 18411417289506965932
15324884 4 17544779836423670619
15351339 4 18117001198249876177
15361156 5 18337108947700391079
15975801 100 17917444162566200713
18393751 57 18201708575039548891
18608769 82 18410568462483236267
19319366 153 17976267059884648589
20764821 26 18339654372768670232
21033648 29 18198893885338362393
23559900 14 17979080379337851538
25019877 29 18334283276412583479
3493558 16 17701249219196591300
469060 322 16702009920647333437
508706 21 18338242561353049770
5252454 2 18127698338396946951
6700243 42 17615924926216140902

> <PUBCHEM_SHAPE_MULTIPOLES>
716.11
13.13
5.22
2.16
19.48
2.14
0.93
-4.22
-0.74
-5.39
-0.79
-1.15
-1.22
1.91

> <PUBCHEM_SHAPE_SELFOVERLAP>
1486.947

> <PUBCHEM_SHAPE_VOLUME>
401.5

> <PUBCHEM_COORDINATE_TYPE>
2
5
10

$$$$

