97165
  -OEChem-07051212483D

 22 22  0     1  0  0  0  0  0999 V2000
    0.1250   -1.1029   -0.3909 O   0  0  0  0  0  0  0  0  0  0  0  0
    0.7971    2.3793   -0.5356 O   0  0  0  0  0  0  0  0  0  0  0  0
    2.9963    0.5252    0.7356 O   0  0  0  0  0  0  0  0  0  0  0  0
   -1.5801    0.1103    1.4653 O   0  0  0  0  0  0  0  0  0  0  0  0
   -3.9829   -0.2625    0.0824 O   0  0  0  0  0  0  0  0  0  0  0  0
    2.1419   -2.1169    0.0223 O   0  0  0  0  0  0  0  0  0  0  0  0
   -0.3222    0.2481   -0.5722 C   0  0  2  0  0  0  0  0  0  0  0  0
    0.7555    1.0997    0.0691 C   0  0  1  0  0  0  0  0  0  0  0  0
    2.0012    0.2979   -0.2313 C   0  0  2  0  0  0  0  0  0  0  0  0
   -1.6833    0.4274    0.0773 C   0  0  1  0  0  0  0  0  0  0  0  0
    1.4777   -1.1119   -0.1771 C   0  0  0  0  0  0  0  0  0  0  0  0
   -2.7260   -0.4938   -0.5450 C   0  0  0  0  0  0  0  0  0  0  0  0
   -0.4043    0.4396   -1.6501 H   0  0  0  0  0  0  0  0  0  0  0  0
    0.6273    1.2339    1.1486 H   0  0  0  0  0  0  0  0  0  0  0  0
    2.4041    0.5070   -1.2280 H   0  0  0  0  0  0  0  0  0  0  0  0
   -2.0122    1.4702    0.0103 H   0  0  0  0  0  0  0  0  0  0  0  0
   -2.8347   -0.3158   -1.6193 H   0  0  0  0  0  0  0  0  0  0  0  0
   -2.4822   -1.5486   -0.3852 H   0  0  0  0  0  0  0  0  0  0  0  0
    0.9483    2.2649   -1.4892 H   0  0  0  0  0  0  0  0  0  0  0  0
    3.7668   -0.0178    0.4971 H   0  0  0  0  0  0  0  0  0  0  0  0
   -1.2621   -0.8059    1.5393 H   0  0  0  0  0  0  0  0  0  0  0  0
   -4.2251    0.6650   -0.0807 H   0  0  0  0  0  0  0  0  0  0  0  0
  1  7  1  0  0  0  0
  1 11  1  0  0  0  0
  2  8  1  0  0  0  0
  2 19  1  0  0  0  0
  3  9  1  0  0  0  0
  3 20  1  0  0  0  0
  4 10  1  0  0  0  0
  4 21  1  0  0  0  0
  5 12  1  0  0  0  0
  5 22  1  0  0  0  0
  6 11  2  0  0  0  0
  7  8  1  0  0  0  0
  7 10  1  0  0  0  0
  7 13  1  0  0  0  0
  8  9  1  0  0  0  0
  8 14  1  0  0  0  0
  9 11  1  0  0  0  0
  9 15  1  0  0  0  0
 10 12  1  0  0  0  0
 10 16  1  0  0  0  0
 12 17  1  0  0  0  0
 12 18  1  0  0  0  0
M  END
> <PUBCHEM_COMPOUND_CID>
97165

> <PUBCHEM_CONFORMER_RMSD>
0.6

> <PUBCHEM_CONFORMER_DIVERSEORDER>
1
4
3
5
2

> <PUBCHEM_MMFF94_PARTIAL_CHARGES>
16
1 -0.43
10 0.28
11 0.66
12 0.28
19 0.4
2 -0.68
20 0.4
21 0.4
22 0.4
3 -0.68
4 -0.68
5 -0.68
6 -0.57
7 0.28
8 0.28
9 0.34

> <PUBCHEM_EFFECTIVE_ROTOR_COUNT>
2.8

> <PUBCHEM_PHARMACOPHORE_FEATURES>
10
1 2 acceptor
1 2 donor
1 3 acceptor
1 3 donor
1 4 acceptor
1 4 donor
1 5 acceptor
1 5 donor
1 6 acceptor
5 1 7 8 9 11 rings

> <PUBCHEM_HEAVY_ATOM_COUNT>
12

> <PUBCHEM_ATOM_DEF_STEREO_COUNT>
4

> <PUBCHEM_ATOM_UDEF_STEREO_COUNT>
0

> <PUBCHEM_BOND_DEF_STEREO_COUNT>
0

> <PUBCHEM_BOND_UDEF_STEREO_COUNT>
0

> <PUBCHEM_ISOTOPIC_ATOM_COUNT>
0

> <PUBCHEM_COMPONENT_COUNT>
1

> <PUBCHEM_CACTVS_TAUTO_COUNT>
6

> <PUBCHEM_CONFORMER_ID>
00017B8D00000001

> <PUBCHEM_MMFF94_ENERGY>
20.6869

> <PUBCHEM_FEATURE_SELFOVERLAP>
50.755

> <PUBCHEM_SHAPE_FINGERPRINT>
10219947 1 18412548682544896304
14993402 34 18338511937675822036
15207287 21 17845947250780978275
161256 15 18263362650216202590
16945 1 18340478985014698260
20201158 50 18273496762657836507
20645477 70 18337679710732665063
20711985 344 17343223231628789524
20871998 22 18045497766757259206
23552423 10 18264772069298525431
241688 4 18123467438917104816
2748010 2 18266468795944200516
29004967 10 18343860035026053344
5084963 1 18186796946318460333

> <PUBCHEM_SHAPE_MULTIPOLES>
211.74
4.49
1.67
0.85
3.23
0.14
-0.19
-0.83
-0.45
-1.23
0.23
0.18
0.08
-0.07

> <PUBCHEM_SHAPE_SELFOVERLAP>
429.588

> <PUBCHEM_SHAPE_VOLUME>
124.4

> <PUBCHEM_COORDINATE_TYPE>
2
5
10

$$$$

