442647
  -OEChem-07051212593D

 50 52  0     1  0  0  0  0  0999 V2000
    3.7691   -1.7198    0.9055 O   0  0  0  0  0  0  0  0  0  0  0  0
   -3.7804   -1.7060    0.9477 O   0  0  0  0  0  0  0  0  0  0  0  0
   -0.0006    0.3505    0.8140 N   0  0  0  0  0  0  0  0  0  0  0  0
    1.2254   -0.4777    0.6567 C   0  0  1  0  0  0  0  0  0  0  0  0
   -1.2296   -0.4749    0.6646 C   0  0  2  0  0  0  0  0  0  0  0  0
    1.2345   -1.1956   -0.7058 C   0  0  0  0  0  0  0  0  0  0  0  0
   -1.2492   -1.1930   -0.6976 C   0  0  0  0  0  0  0  0  0  0  0  0
   -0.0089   -2.0450   -0.9000 C   0  0  0  0  0  0  0  0  0  0  0  0
    2.5245    0.3389    0.7566 C   0  0  0  0  0  0  0  0  0  0  0  0
   -2.5261    0.3447    0.7728 C   0  0  0  0  0  0  0  0  0  0  0  0
    0.0044    1.0698    2.0948 C   0  0  0  0  0  0  0  0  0  0  0  0
    3.7492   -0.5341    0.5833 C   0  0  0  0  0  0  0  0  0  0  0  0
   -3.7540   -0.5254    0.6075 C   0  0  0  0  0  0  0  0  0  0  0  0
    4.9753    0.0833   -0.0029 C   0  0  0  0  0  0  0  0  0  0  0  0
   -4.9742    0.0876    0.0048 C   0  0  0  0  0  0  0  0  0  0  0  0
    5.2035    1.4238    0.2082 C   0  0  0  0  0  0  0  0  0  0  0  0
   -5.1973    1.4325    0.1926 C   0  0  0  0  0  0  0  0  0  0  0  0
    5.8300   -0.7123   -0.7311 C   0  0  0  0  0  0  0  0  0  0  0  0
   -5.8283   -0.7157   -0.7154 C   0  0  0  0  0  0  0  0  0  0  0  0
    6.3494    2.0007   -0.3392 C   0  0  0  0  0  0  0  0  0  0  0  0
   -6.3373    2.0056   -0.3708 C   0  0  0  0  0  0  0  0  0  0  0  0
    6.9760   -0.1351   -1.2784 C   0  0  0  0  0  0  0  0  0  0  0  0
   -6.9683   -0.1425   -1.2789 C   0  0  0  0  0  0  0  0  0  0  0  0
    7.2355    1.2213   -1.0825 C   0  0  0  0  0  0  0  0  0  0  0  0
   -7.2228    1.2182   -1.1065 C   0  0  0  0  0  0  0  0  0  0  0  0
    1.2346   -1.2437    1.4457 H   0  0  0  0  0  0  0  0  0  0  0  0
   -1.2355   -1.2407    1.4538 H   0  0  0  0  0  0  0  0  0  0  0  0
    2.0970   -1.8568   -0.8275 H   0  0  0  0  0  0  0  0  0  0  0  0
    1.2938   -0.4555   -1.5156 H   0  0  0  0  0  0  0  0  0  0  0  0
   -1.3129   -0.4532   -1.5073 H   0  0  0  0  0  0  0  0  0  0  0  0
   -2.1143   -1.8525   -0.8118 H   0  0  0  0  0  0  0  0  0  0  0  0
   -0.0127   -2.4805   -1.9055 H   0  0  0  0  0  0  0  0  0  0  0  0
   -0.0074   -2.8780   -0.1865 H   0  0  0  0  0  0  0  0  0  0  0  0
    2.6332    0.8006    1.7430 H   0  0  0  0  0  0  0  0  0  0  0  0
    2.5110    1.1275   -0.0048 H   0  0  0  0  0  0  0  0  0  0  0  0
   -2.5139    1.1331    0.0111 H   0  0  0  0  0  0  0  0  0  0  0  0
   -2.6283    0.8079    1.7592 H   0  0  0  0  0  0  0  0  0  0  0  0
    0.8623    1.7422    2.1814 H   0  0  0  0  0  0  0  0  0  0  0  0
    0.0067    0.3850    2.9498 H   0  0  0  0  0  0  0  0  0  0  0  0
   -0.8518    1.7436    2.1873 H   0  0  0  0  0  0  0  0  0  0  0  0
    4.5411    2.0488    0.7980 H   0  0  0  0  0  0  0  0  0  0  0  0
   -4.5358    2.0639    0.7765 H   0  0  0  0  0  0  0  0  0  0  0  0
    5.6371   -1.7679   -0.8958 H   0  0  0  0  0  0  0  0  0  0  0  0
   -5.6392   -1.7747   -0.8619 H   0  0  0  0  0  0  0  0  0  0  0  0
    6.5541    3.0559   -0.1831 H   0  0  0  0  0  0  0  0  0  0  0  0
   -6.5382    3.0640   -0.2329 H   0  0  0  0  0  0  0  0  0  0  0  0
    7.6656   -0.7416   -1.8582 H   0  0  0  0  0  0  0  0  0  0  0  0
   -7.6574   -0.7552   -1.8528 H   0  0  0  0  0  0  0  0  0  0  0  0
    8.1282    1.6703   -1.5080 H   0  0  0  0  0  0  0  0  0  0  0  0
   -8.1110    1.6642   -1.5444 H   0  0  0  0  0  0  0  0  0  0  0  0
  1 12  2  0  0  0  0
  2 13  2  0  0  0  0
  3  4  1  0  0  0  0
  3  5  1  0  0  0  0
  3 11  1  0  0  0  0
  4  6  1  0  0  0  0
  4  9  1  0  0  0  0
  4 26  1  0  0  0  0
  5  7  1  0  0  0  0
  5 10  1  0  0  0  0
  5 27  1  0  0  0  0
  6  8  1  0  0  0  0
  6 28  1  0  0  0  0
  6 29  1  0  0  0  0
  7  8  1  0  0  0  0
  7 30  1  0  0  0  0
  7 31  1  0  0  0  0
  8 32  1  0  0  0  0
  8 33  1  0  0  0  0
  9 12  1  0  0  0  0
  9 34  1  0  0  0  0
  9 35  1  0  0  0  0
 10 13  1  0  0  0  0
 10 36  1  0  0  0  0
 10 37  1  0  0  0  0
 11 38  1  0  0  0  0
 11 39  1  0  0  0  0
 11 40  1  0  0  0  0
 12 14  1  0  0  0  0
 13 15  1  0  0  0  0
 14 16  2  0  0  0  0
 14 18  1  0  0  0  0
 15 17  2  0  0  0  0
 15 19  1  0  0  0  0
 16 20  1  0  0  0  0
 16 41  1  0  0  0  0
 17 21  1  0  0  0  0
 17 42  1  0  0  0  0
 18 22  2  0  0  0  0
 18 43  1  0  0  0  0
 19 23  2  0  0  0  0
 19 44  1  0  0  0  0
 20 24  2  0  0  0  0
 20 45  1  0  0  0  0
 21 25  2  0  0  0  0
 21 46  1  0  0  0  0
 22 24  1  0  0  0  0
 22 47  1  0  0  0  0
 23 25  1  0  0  0  0
 23 48  1  0  0  0  0
 24 49  1  0  0  0  0
 25 50  1  0  0  0  0
M  END
> <PUBCHEM_COMPOUND_CID>
442647

> <PUBCHEM_CONFORMER_RMSD>
0.8

> <PUBCHEM_CONFORMER_DIVERSEORDER>
1
7
43
358
279
288
266
251
276
261
112
391
76
182
206
240
197
191
282
11
387
10
407
414
295
31
373
257
108
204
94
157
409
249
30
184
385
437
268
177
19
423
333
336
259
263
228
128
56
431
140
290
404
314
35
151
337
171
172
199
200
82
60
285
294
38
426
229
395
383
405
55
397
372
371
215
219
271
196
113
420
47
326
20
69
311
9
350
366
190
118
435
202
289
368
104
123
231
78
272
393
406
332
365
320
46
342
243
343
26
168
88
161
222
315
381
110
12
170
52
325
424
238
411
132
400
121
330
155
327
122
163
322
324
277
313
130
230
255
95
24
185
245
66
380
21
306
169
135
84
62
205
234
4
269
316
44
367
106
149
379
283
145
41
195
408
207
5
211
356
92
79
175
159
422
136
335
212
144
278
410
370
81
162
67
296
193
246
117
63
77
374
87
433
16
217
412
167
357
125
369
254
221
292
98
384
382
284
287
80
97
286
329
307
389
71
344
139
96
353
14
28
73
142
298
403
42
18
244
233
13
32
323
346
392
239
91
377
339
304
33
129
347
208
232
39
180
310
305
178
8
138
413
317
351
264
148
227
399
201
225
352
70
419
210
421
390
158
256
166
281
147
223
293
111
156
416
213
328
270
37
150
160
299
214
85
216
51
164
74
226
181
93
415
188
273
53
237
349
17
275
105
75
436
274
49
27
218
331
402
236
124
401
101
65
252
348
154
248
107
235
2
34
120
3
386
126
418
174
189
334
241
22
127
394
297
15
428
425
247
179
260
319
100
321
23
114
141
417
253
427
438
308
134
429
198
89
103
59
396
173
102
309
242
143
133
146
116
109
45
58
318
119
83
224
36
187
29
360
165
40
345
131
301
48
258
72
267
68
57
137
430
354
176
220
300
25
378
90
432
54
434
359
363
192
302
398
376
291
64
61
355
153
375
362
250
280
341
303
203
209
338
86
152
388
312
186
340
194
364
115
99
6
265
361
183
262
50

> <PUBCHEM_MMFF94_PARTIAL_CHARGES>
32
1 -0.57
10 0.06
11 0.27
12 0.42
13 0.42
14 0.09
15 0.09
16 -0.15
17 -0.15
18 -0.15
19 -0.15
2 -0.57
20 -0.15
21 -0.15
22 -0.15
23 -0.15
24 -0.15
25 -0.15
3 -0.81
4 0.27
41 0.15
42 0.15
43 0.15
44 0.15
45 0.15
46 0.15
47 0.15
48 0.15
49 0.15
5 0.27
50 0.15
9 0.06

> <PUBCHEM_EFFECTIVE_ROTOR_COUNT>
7.2

> <PUBCHEM_PHARMACOPHORE_FEATURES>
6
1 1 acceptor
1 2 acceptor
1 3 cation
6 14 16 18 20 22 24 rings
6 15 17 19 21 23 25 rings
6 3 4 5 6 7 8 rings

> <PUBCHEM_HEAVY_ATOM_COUNT>
25

> <PUBCHEM_ATOM_DEF_STEREO_COUNT>
2

> <PUBCHEM_ATOM_UDEF_STEREO_COUNT>
0

> <PUBCHEM_BOND_DEF_STEREO_COUNT>
0

> <PUBCHEM_BOND_UDEF_STEREO_COUNT>
0

> <PUBCHEM_ISOTOPIC_ATOM_COUNT>
0

> <PUBCHEM_COMPONENT_COUNT>
1

> <PUBCHEM_CACTVS_TAUTO_COUNT>
3

> <PUBCHEM_CONFORMER_ID>
0006C11700000001

> <PUBCHEM_MMFF94_ENERGY>
64.34

> <PUBCHEM_FEATURE_SELFOVERLAP>
30.446

> <PUBCHEM_SHAPE_FINGERPRINT>
10 15 13039183714805885149
10066227 112 18342458140315223349
10299344 5 7997967990072437045
10454371 7 18335699498675753077
10533779 47 13901921037713214368
10554248 39 18198079138337353791
10670039 82 17531238500439901920
10763959 59 18411418380260197752
10835480 77 18131070420020618378
10906281 52 18114733949944858579
11297750 10 14905675201098176898
11386260 185 17894904106638320236
11456790 92 14620804782346945124
11607047 141 16413525647371966161
11991303 11 17313111804332400487
12011746 2 17894912927434827787
12166972 35 6338955581262996850
12236239 1 18412823573684960386
13533116 47 16701750453251515394
13668630 136 15719399417219098869
13673619 4 4895551874630435050
13685833 64 7132718292778357668
13782708 43 5833991646038594132
13862211 1 16877659076237430594
13911987 19 17967811652468887567
14251752 14 18113339716985900100
14251757 52 18343867706143865412
14251764 18 11167934758050148081
14556957 393 17676753323452331040
14767858 380 17603586339371407629
14849402 71 12966544453347723407
14931854 50 18040704871539587900
14933364 13 18343862216653194288
15048467 5 17561365084253697683
15183329 4 18409449210679378465
15276724 80 18059299867216366389
15352257 5 7060378128146769133
15461852 350 18408887305215419623
1577012 14 18201163226077909881
15849732 13 18410291384946226004
15961568 22 18342175600656563965
16994733 274 17489592255153902904
17093844 174 11240003343932928799
18222031 100 16877666764065224266
18335252 114 18411140238684199492
190975 80 11167932550437211124
2026 5 5039682430490160436
20281389 69 17489313013870941909
21130935 74 15195571216605452361
21150785 3 18260831479674899575
21267235 1 17095244688407651395
21424621 283 17132115788099746913
21623969 137 11167944671003881672
21637258 2 5689591671545020049
21792934 111 12966863354742829255
21792961 116 18260822713383320210
2215653 11 16949998123988079730
22224240 67 14548737300718801273
23035841 295 5689590602688948661
23522609 53 14058102141421066658
23559900 14 16660935361409482146
23569943 247 14925323413561462526
23576562 1 18189906305573702165
24771293 8 14836112218407125318
27425 322 18199463282655153270
300161 21 17704073988341547371
3004659 81 18113622283111293832
3383291 50 6411291334457511781
4058900 60 18337664316984476067
4073 2 17632572734297390275
4093350 32 16773804735669263050
4340502 62 9079117761001605328
445580 160 16805611313801916631
465052 167 9655573028409778106
5104073 3 13254212953129185133
563151 97 18115298020826585385
5758199 1 16128656353548718153
6328613 192 18343582936579014165
999808 66 7348885599041357437

> <PUBCHEM_SHAPE_MULTIPOLES>
497.77
22.15
1.84
1.33
0.18
0.13
0.17
9.13
-10.8
0
-0.17
-0.03
0.1
0.03

> <PUBCHEM_SHAPE_SELFOVERLAP>
1058.577

> <PUBCHEM_SHAPE_VOLUME>
276.5

> <PUBCHEM_COORDINATE_TYPE>
2
5
10

$$$$

