33572
  -OEChem-07051212532D

 42 43  0     1  0  0  0  0  0999 V2000
    2.0000   -0.1550    0.0000 O   0  0  0  0  0  0  0  0  0  0  0  0
    2.8660   -4.6550    0.0000 O   0  0  0  0  0  0  0  0  0  0  0  0
    8.0622    4.3450    0.0000 O   0  0  0  0  0  0  0  0  0  0  0  0
    3.7320    0.8450    0.0000 N   0  0  0  0  0  0  0  0  0  0  0  0
    3.7320   -0.1550    0.0000 C   0  0  2  0  0  0  0  0  0  0  0  0
    2.8660   -0.6550    0.0000 C   0  0  1  0  0  0  0  0  0  0  0  0
    4.5981    1.3450    0.0000 C   0  0  0  0  0  0  0  0  0  0  0  0
    4.5981   -0.6550    0.0000 C   0  0  0  0  0  0  0  0  0  0  0  0
    2.8660   -1.6550    0.0000 C   0  0  0  0  0  0  0  0  0  0  0  0
    4.5981    2.3450    0.0000 C   0  0  0  0  0  0  0  0  0  0  0  0
    5.4641    2.8450    0.0000 C   0  0  0  0  0  0  0  0  0  0  0  0
    2.0000   -2.1550    0.0000 C   0  0  0  0  0  0  0  0  0  0  0  0
    3.7320   -2.1550    0.0000 C   0  0  0  0  0  0  0  0  0  0  0  0
    6.3301    2.3450    0.0000 C   0  0  0  0  0  0  0  0  0  0  0  0
    5.4641    3.8450    0.0000 C   0  0  0  0  0  0  0  0  0  0  0  0
    2.0000   -3.1550    0.0000 C   0  0  0  0  0  0  0  0  0  0  0  0
    3.7320   -3.1550    0.0000 C   0  0  0  0  0  0  0  0  0  0  0  0
    2.8660   -3.6550    0.0000 C   0  0  0  0  0  0  0  0  0  0  0  0
    7.1962    2.8450    0.0000 C   0  0  0  0  0  0  0  0  0  0  0  0
    6.3301    4.3450    0.0000 C   0  0  0  0  0  0  0  0  0  0  0  0
    7.1962    3.8450    0.0000 C   0  0  0  0  0  0  0  0  0  0  0  0
    4.2690    0.1550    0.0000 H   0  0  0  0  0  0  0  0  0  0  0  0
    2.8660   -0.0350    0.0000 H   0  0  0  0  0  0  0  0  0  0  0  0
    3.1951    1.1550    0.0000 H   0  0  0  0  0  0  0  0  0  0  0  0
    4.8101    0.7624    0.0000 H   0  0  0  0  0  0  0  0  0  0  0  0
    5.2087    1.4527    0.0000 H   0  0  0  0  0  0  0  0  0  0  0  0
    4.2881   -1.1919    0.0000 H   0  0  0  0  0  0  0  0  0  0  0  0
    5.1350   -0.9650    0.0000 H   0  0  0  0  0  0  0  0  0  0  0  0
    4.9081   -0.1181    0.0000 H   0  0  0  0  0  0  0  0  0  0  0  0
    4.3860    2.9276    0.0000 H   0  0  0  0  0  0  0  0  0  0  0  0
    3.9875    2.2373    0.0000 H   0  0  0  0  0  0  0  0  0  0  0  0
    1.4631   -1.8450    0.0000 H   0  0  0  0  0  0  0  0  0  0  0  0
    4.2690   -1.8450    0.0000 H   0  0  0  0  0  0  0  0  0  0  0  0
    2.0000    0.4650    0.0000 H   0  0  0  0  0  0  0  0  0  0  0  0
    6.3301    1.7250    0.0000 H   0  0  0  0  0  0  0  0  0  0  0  0
    4.9272    4.1550    0.0000 H   0  0  0  0  0  0  0  0  0  0  0  0
    1.4631   -3.4650    0.0000 H   0  0  0  0  0  0  0  0  0  0  0  0
    4.2690   -3.4650    0.0000 H   0  0  0  0  0  0  0  0  0  0  0  0
    7.7331    2.5350    0.0000 H   0  0  0  0  0  0  0  0  0  0  0  0
    6.3301    4.9650    0.0000 H   0  0  0  0  0  0  0  0  0  0  0  0
    2.3291   -4.9650    0.0000 H   0  0  0  0  0  0  0  0  0  0  0  0
    8.0622    4.9650    0.0000 H   0  0  0  0  0  0  0  0  0  0  0  0
  6  1  1  1  0  0  0
  1 34  1  0  0  0  0
  2 18  1  0  0  0  0
  2 41  1  0  0  0  0
  3 21  1  0  0  0  0
  3 42  1  0  0  0  0
  5  4  1  1  0  0  0
  4  7  1  0  0  0  0
  4 24  1  0  0  0  0
  5  6  1  0  0  0  0
  5  8  1  0  0  0  0
  5 22  1  0  0  0  0
  6  9  1  0  0  0  0
  6 23  1  0  0  0  0
  7 10  1  0  0  0  0
  7 25  1  0  0  0  0
  7 26  1  0  0  0  0
  8 27  1  0  0  0  0
  8 28  1  0  0  0  0
  8 29  1  0  0  0  0
  9 12  2  0  0  0  0
  9 13  1  0  0  0  0
 10 11  1  0  0  0  0
 10 30  1  0  0  0  0
 10 31  1  0  0  0  0
 11 14  2  0  0  0  0
 11 15  1  0  0  0  0
 12 16  1  0  0  0  0
 12 32  1  0  0  0  0
 13 17  2  0  0  0  0
 13 33  1  0  0  0  0
 14 19  1  0  0  0  0
 14 35  1  0  0  0  0
 15 20  2  0  0  0  0
 15 36  1  0  0  0  0
 16 18  2  0  0  0  0
 16 37  1  0  0  0  0
 17 18  1  0  0  0  0
 17 38  1  0  0  0  0
 19 21  2  0  0  0  0
 19 39  1  0  0  0  0
 20 21  1  0  0  0  0
 20 40  1  0  0  0  0
M  END
> <PUBCHEM_COMPOUND_CID>
33572

> <PUBCHEM_COMPOUND_CANONICALIZED>
1

> <PUBCHEM_CACTVS_COMPLEXITY>
284

> <PUBCHEM_CACTVS_HBOND_ACCEPTOR>
4

> <PUBCHEM_CACTVS_HBOND_DONOR>
4

> <PUBCHEM_CACTVS_ROTATABLE_BOND>
6

> <PUBCHEM_CACTVS_SUBSKEYS>
AAADceB6MAAAAAAAAAAAAAAAAAAAAAAAAAAwYAAAAAAAAAABQAAAHgAQCAAADDzhmAYyBoLAAgCAAiBCAAACAAAgIAAIiIAOCIgKNiKCkROEcAAk0BGYmAeQ4KQOIAAAAAAAAABAAAAAAAAAAAAAAAAAAA==

> <PUBCHEM_IUPAC_OPENEYE_NAME>
4-[2-[[(1S,2R)-2-hydroxy-2-(4-hydroxyphenyl)-1-methyl-ethyl]amino]ethyl]phenol

> <PUBCHEM_IUPAC_CAS_NAME>
4-[2-[[(1R,2S)-1-hydroxy-1-(4-hydroxyphenyl)propan-2-yl]amino]ethyl]phenol

> <PUBCHEM_IUPAC_NAME>
4-[2-[[(1R,2S)-1-hydroxy-1-(4-hydroxyphenyl)propan-2-yl]amino]ethyl]phenol

> <PUBCHEM_IUPAC_SYSTEMATIC_NAME>
4-[2-[[(1R,2S)-1-(4-hydroxyphenyl)-1-oxidanyl-propan-2-yl]amino]ethyl]phenol

> <PUBCHEM_IUPAC_TRADITIONAL_NAME>
4-[2-[[(1S,2R)-2-hydroxy-2-(4-hydroxyphenyl)-1-methyl-ethyl]amino]ethyl]phenol

> <PUBCHEM_IUPAC_INCHI>
InChI=1S/C17H21NO3/c1-12(17(21)14-4-8-16(20)9-5-14)18-11-10-13-2-6-15(19)7-3-13/h2-9,12,17-21H,10-11H2,1H3/t12-,17-/m0/s1

> <PUBCHEM_IUPAC_INCHIKEY>
IOVGROKTTNBUGK-SJCJKPOMSA-N

> <PUBCHEM_XLOGP3_AA>
2.3

> <PUBCHEM_EXACT_MASS>
287.152144

> <PUBCHEM_MOLECULAR_FORMULA>
C17H21NO3

> <PUBCHEM_MOLECULAR_WEIGHT>
287.35354

> <PUBCHEM_OPENEYE_CAN_SMILES>
CC(C(C1=CC=C(C=C1)O)O)NCCC2=CC=C(C=C2)O

> <PUBCHEM_OPENEYE_ISO_SMILES>
C[C@@H]([C@@H](C1=CC=C(C=C1)O)O)NCCC2=CC=C(C=C2)O

> <PUBCHEM_CACTVS_TPSA>
72.7

> <PUBCHEM_MONOISOTOPIC_WEIGHT>
287.152144

> <PUBCHEM_TOTAL_CHARGE>
0

> <PUBCHEM_HEAVY_ATOM_COUNT>
21

> <PUBCHEM_ATOM_DEF_STEREO_COUNT>
2

> <PUBCHEM_ATOM_UDEF_STEREO_COUNT>
0

> <PUBCHEM_BOND_DEF_STEREO_COUNT>
0

> <PUBCHEM_BOND_UDEF_STEREO_COUNT>
0

> <PUBCHEM_ISOTOPIC_ATOM_COUNT>
0

> <PUBCHEM_COMPONENT_COUNT>
1

> <PUBCHEM_CACTVS_TAUTO_COUNT>
4

> <PUBCHEM_COORDINATE_TYPE>
1
5
255

> <PUBCHEM_BONDANNOTATIONS>
6  1  5
11  14  8
11  15  8
12  16  8
13  17  8
14  19  8
15  20  8
16  18  8
17  18  8
19  21  8
20  21  8
5  4  5
9  12  8
9  13  8

$$$$

