4343
  -OEChem-06261200032D

 41 41  0     1  0  0  0  0  0999 V2000
    3.0000    0.1900    0.0000 S   0  0  0  0  0  0  0  0  0  0  0  0
    4.0000    0.1900    0.0000 O   0  0  0  0  0  0  0  0  0  0  0  0
    2.0000    0.1900    0.0000 O   0  0  0  0  0  0  0  0  0  0  0  0
    3.0000    3.1900    0.0000 O   0  0  0  0  0  0  0  0  0  0  0  0
    3.0000    1.1900    0.0000 N   0  0  0  0  0  0  0  0  0  0  0  0
    4.7320    3.1900    0.0000 N   0  0  0  0  0  0  0  0  0  0  0  0
    8.1962    1.1900    0.0000 N   0  0  0  0  0  0  0  0  0  0  0  0
    4.7320    1.1900    0.0000 C   0  0  0  0  0  0  0  0  0  0  0  0
    3.8660    1.6900    0.0000 C   0  0  3  0  0  0  0  0  0  0  0  0
    5.5981    1.6900    0.0000 C   0  0  0  0  0  0  0  0  0  0  0  0
    6.4641    1.1900    0.0000 C   0  0  0  0  0  0  0  0  0  0  0  0
    3.8660    2.6900    0.0000 C   0  0  0  0  0  0  0  0  0  0  0  0
    7.3301    1.6900    0.0000 C   0  0  0  0  0  0  0  0  0  0  0  0
    3.0000   -0.8100    0.0000 C   0  0  0  0  0  0  0  0  0  0  0  0
    2.1340   -1.3100    0.0000 C   0  0  0  0  0  0  0  0  0  0  0  0
    3.8660   -1.3100    0.0000 C   0  0  0  0  0  0  0  0  0  0  0  0
    3.0000   -2.8100    0.0000 C   0  0  0  0  0  0  0  0  0  0  0  0
    2.1340   -2.3100    0.0000 C   0  0  0  0  0  0  0  0  0  0  0  0
    3.8660   -2.3100    0.0000 C   0  0  0  0  0  0  0  0  0  0  0  0
    3.0000   -3.8100    0.0000 C   0  0  0  0  0  0  0  0  0  0  0  0
    4.3335    0.7151    0.0000 H   0  0  0  0  0  0  0  0  0  0  0  0
    5.1306    0.7151    0.0000 H   0  0  0  0  0  0  0  0  0  0  0  0
    3.8660    1.0700    0.0000 H   0  0  0  0  0  0  0  0  0  0  0  0
    5.9966    2.1650    0.0000 H   0  0  0  0  0  0  0  0  0  0  0  0
    5.1996    2.1650    0.0000 H   0  0  0  0  0  0  0  0  0  0  0  0
    6.0656    0.7151    0.0000 H   0  0  0  0  0  0  0  0  0  0  0  0
    6.8626    0.7151    0.0000 H   0  0  0  0  0  0  0  0  0  0  0  0
    2.4631    1.5000    0.0000 H   0  0  0  0  0  0  0  0  0  0  0  0
    7.7287    2.1650    0.0000 H   0  0  0  0  0  0  0  0  0  0  0  0
    6.9316    2.1650    0.0000 H   0  0  0  0  0  0  0  0  0  0  0  0
    1.5970   -1.0000    0.0000 H   0  0  0  0  0  0  0  0  0  0  0  0
    4.4030   -1.0000    0.0000 H   0  0  0  0  0  0  0  0  0  0  0  0
    4.7320    3.8100    0.0000 H   0  0  0  0  0  0  0  0  0  0  0  0
    5.2690    2.8800    0.0000 H   0  0  0  0  0  0  0  0  0  0  0  0
    1.5970   -2.6200    0.0000 H   0  0  0  0  0  0  0  0  0  0  0  0
    4.4030   -2.6200    0.0000 H   0  0  0  0  0  0  0  0  0  0  0  0
    8.7331    1.5000    0.0000 H   0  0  0  0  0  0  0  0  0  0  0  0
    8.1962    0.5700    0.0000 H   0  0  0  0  0  0  0  0  0  0  0  0
    2.3800   -3.8100    0.0000 H   0  0  0  0  0  0  0  0  0  0  0  0
    3.0000   -4.4300    0.0000 H   0  0  0  0  0  0  0  0  0  0  0  0
    3.6200   -3.8100    0.0000 H   0  0  0  0  0  0  0  0  0  0  0  0
  1  2  2  0  0  0  0
  1  3  2  0  0  0  0
  1  5  1  0  0  0  0
  1 14  1  0  0  0  0
  4 12  2  0  0  0  0
  5  9  1  0  0  0  0
  5 28  1  0  0  0  0
  6 12  1  0  0  0  0
  6 33  1  0  0  0  0
  6 34  1  0  0  0  0
  7 13  1  0  0  0  0
  7 37  1  0  0  0  0
  7 38  1  0  0  0  0
  8  9  1  0  0  0  0
  8 10  1  0  0  0  0
  8 21  1  0  0  0  0
  8 22  1  0  0  0  0
  9 12  1  0  0  0  0
  9 23  1  0  0  0  0
 10 11  1  0  0  0  0
 10 24  1  0  0  0  0
 10 25  1  0  0  0  0
 11 13  1  0  0  0  0
 11 26  1  0  0  0  0
 11 27  1  0  0  0  0
 13 29  1  0  0  0  0
 13 30  1  0  0  0  0
 14 15  2  0  0  0  0
 14 16  1  0  0  0  0
 15 18  1  0  0  0  0
 15 31  1  0  0  0  0
 16 19  2  0  0  0  0
 16 32  1  0  0  0  0
 17 18  2  0  0  0  0
 17 19  1  0  0  0  0
 17 20  1  0  0  0  0
 18 35  1  0  0  0  0
 19 36  1  0  0  0  0
 20 39  1  0  0  0  0
 20 40  1  0  0  0  0
 20 41  1  0  0  0  0
M  END
> <PUBCHEM_COMPOUND_CID>
4343

> <PUBCHEM_COMPOUND_CANONICALIZED>
1

> <PUBCHEM_CACTVS_COMPLEXITY>
398

> <PUBCHEM_CACTVS_HBOND_ACCEPTOR>
5

> <PUBCHEM_CACTVS_HBOND_DONOR>
3

> <PUBCHEM_CACTVS_ROTATABLE_BOND>
8

> <PUBCHEM_CACTVS_SUBSKEYS>
AAADceBzMABAAAAAAAAAAAAAAAAAAAAAAAAwAAAAAAAAAAABAAAAHgQQQAAADCjB2AQyAYBAAAKIAiFSEHBCABAgAAAIiJmAAIgIYDKAkRCAIAAgkAAIiAcYiAAOEAAAAAAAAAAgAAAAAAAAAAAAAAAAAA==

> <PUBCHEM_IUPAC_OPENEYE_NAME>
6-amino-2-(p-tolylsulfonylamino)hexanamide

> <PUBCHEM_IUPAC_CAS_NAME>
6-amino-2-[(4-methylphenyl)sulfonylamino]hexanamide

> <PUBCHEM_IUPAC_NAME>
6-amino-2-[(4-methylphenyl)sulfonylamino]hexanamide

> <PUBCHEM_IUPAC_SYSTEMATIC_NAME>
6-azanyl-2-[(4-methylphenyl)sulfonylamino]hexanamide

> <PUBCHEM_IUPAC_TRADITIONAL_NAME>
6-amino-2-(tosylamino)hexanamide

> <PUBCHEM_IUPAC_INCHI>
InChI=1S/C13H21N3O3S/c1-10-5-7-11(8-6-10)20(18,19)16-12(13(15)17)4-2-3-9-14/h5-8,12,16H,2-4,9,14H2,1H3,(H2,15,17)

> <PUBCHEM_IUPAC_INCHIKEY>
VXJGTHYSPVFPJE-UHFFFAOYSA-N

> <PUBCHEM_XLOGP3_AA>
0.4

> <PUBCHEM_EXACT_MASS>
299.130363

> <PUBCHEM_MOLECULAR_FORMULA>
C13H21N3O3S

> <PUBCHEM_MOLECULAR_WEIGHT>
299.38914

> <PUBCHEM_OPENEYE_CAN_SMILES>
CC1=CC=C(C=C1)S(=O)(=O)NC(CCCCN)C(=O)N

> <PUBCHEM_OPENEYE_ISO_SMILES>
CC1=CC=C(C=C1)S(=O)(=O)NC(CCCCN)C(=O)N

> <PUBCHEM_CACTVS_TPSA>
124

> <PUBCHEM_MONOISOTOPIC_WEIGHT>
299.130363

> <PUBCHEM_TOTAL_CHARGE>
0

> <PUBCHEM_HEAVY_ATOM_COUNT>
20

> <PUBCHEM_ATOM_DEF_STEREO_COUNT>
0

> <PUBCHEM_ATOM_UDEF_STEREO_COUNT>
1

> <PUBCHEM_BOND_DEF_STEREO_COUNT>
0

> <PUBCHEM_BOND_UDEF_STEREO_COUNT>
0

> <PUBCHEM_ISOTOPIC_ATOM_COUNT>
0

> <PUBCHEM_COMPONENT_COUNT>
1

> <PUBCHEM_CACTVS_TAUTO_COUNT>
3

> <PUBCHEM_COORDINATE_TYPE>
1
5
255

> <PUBCHEM_BONDANNOTATIONS>
14  15  8
14  16  8
15  18  8
16  19  8
17  18  8
17  19  8
9  8  3

$$$$

