11474
  -OEChem-06261205432D

 15 15  0     0  0  0  0  0  0999 V2000
    2.5369   -0.5000    0.0000 O   0  0  0  0  0  0  0  0  0  0  0  0
    5.1350   -1.0000    0.0000 N   0  0  0  0  0  0  0  0  0  0  0  0
    4.2690   -0.5000    0.0000 C   0  0  0  0  0  0  0  0  0  0  0  0
    3.4030   -1.0000    0.0000 C   0  0  0  0  0  0  0  0  0  0  0  0
    4.2690    0.5000    0.0000 C   0  0  0  0  0  0  0  0  0  0  0  0
    5.1350    1.0000    0.0000 C   0  0  0  0  0  0  0  0  0  0  0  0
    6.0010    0.5000    0.0000 C   0  0  0  0  0  0  0  0  0  0  0  0
    6.0010   -0.5000    0.0000 C   0  0  0  0  0  0  0  0  0  0  0  0
    3.0044   -1.4750    0.0000 H   0  0  0  0  0  0  0  0  0  0  0  0
    3.8015   -1.4750    0.0000 H   0  0  0  0  0  0  0  0  0  0  0  0
    3.7320    0.8100    0.0000 H   0  0  0  0  0  0  0  0  0  0  0  0
    5.1350    1.6200    0.0000 H   0  0  0  0  0  0  0  0  0  0  0  0
    6.5380    0.8100    0.0000 H   0  0  0  0  0  0  0  0  0  0  0  0
    6.5380   -0.8100    0.0000 H   0  0  0  0  0  0  0  0  0  0  0  0
    2.0000   -0.8100    0.0000 H   0  0  0  0  0  0  0  0  0  0  0  0
  1  4  1  0  0  0  0
  1 15  1  0  0  0  0
  2  3  1  0  0  0  0
  2  8  2  0  0  0  0
  3  4  1  0  0  0  0
  3  5  2  0  0  0  0
  4  9  1  0  0  0  0
  4 10  1  0  0  0  0
  5  6  1  0  0  0  0
  5 11  1  0  0  0  0
  6  7  2  0  0  0  0
  6 12  1  0  0  0  0
  7  8  1  0  0  0  0
  7 13  1  0  0  0  0
  8 14  1  0  0  0  0
M  END
> <PUBCHEM_COMPOUND_CID>
11474

> <PUBCHEM_COMPOUND_CANONICALIZED>
1

> <PUBCHEM_CACTVS_COMPLEXITY>
65.5

> <PUBCHEM_CACTVS_HBOND_ACCEPTOR>
2

> <PUBCHEM_CACTVS_HBOND_DONOR>
1

> <PUBCHEM_CACTVS_ROTATABLE_BOND>
1

> <PUBCHEM_CACTVS_SUBSKEYS>
AAADcYBiIAAAAAAAAAAAAAAAAAAAAAAAAAAsAAAAAAAAAAABgAAAHgAACAAACAjhlgY8gJIIEgCgATRnRASCgCAxAiAI2CA4bJgKNuLAkZGEcAhkwAHY2AeQQAAAAAAAAAAAAAAAAAAAAAAAAAAAAAAAAA==

> <PUBCHEM_IUPAC_OPENEYE_NAME>
2-pyridylmethanol

> <PUBCHEM_IUPAC_CAS_NAME>
2-pyridinylmethanol

> <PUBCHEM_IUPAC_NAME>
pyridin-2-ylmethanol

> <PUBCHEM_IUPAC_SYSTEMATIC_NAME>
pyridin-2-ylmethanol

> <PUBCHEM_IUPAC_TRADITIONAL_NAME>
2-pyridylmethanol

> <PUBCHEM_IUPAC_INCHI>
InChI=1S/C6H7NO/c8-5-6-3-1-2-4-7-6/h1-4,8H,5H2

> <PUBCHEM_IUPAC_INCHIKEY>
SHNUBALDGXWUJI-UHFFFAOYSA-N

> <PUBCHEM_XLOGP3>
0.1

> <PUBCHEM_EXACT_MASS>
109.052764

> <PUBCHEM_MOLECULAR_FORMULA>
C6H7NO

> <PUBCHEM_MOLECULAR_WEIGHT>
109.12588

> <PUBCHEM_OPENEYE_CAN_SMILES>
C1=CC=NC(=C1)CO

> <PUBCHEM_OPENEYE_ISO_SMILES>
C1=CC=NC(=C1)CO

> <PUBCHEM_CACTVS_TPSA>
33.1

> <PUBCHEM_MONOISOTOPIC_WEIGHT>
109.052764

> <PUBCHEM_TOTAL_CHARGE>
0

> <PUBCHEM_HEAVY_ATOM_COUNT>
8

> <PUBCHEM_ATOM_DEF_STEREO_COUNT>
0

> <PUBCHEM_ATOM_UDEF_STEREO_COUNT>
0

> <PUBCHEM_BOND_DEF_STEREO_COUNT>
0

> <PUBCHEM_BOND_UDEF_STEREO_COUNT>
0

> <PUBCHEM_ISOTOPIC_ATOM_COUNT>
0

> <PUBCHEM_COMPONENT_COUNT>
1

> <PUBCHEM_CACTVS_TAUTO_COUNT>
1

> <PUBCHEM_COORDINATE_TYPE>
1
5
255

> <PUBCHEM_BONDANNOTATIONS>
2  3  8
2  8  8
3  5  8
5  6  8
6  7  8
7  8  8

$$$$

