167963
  -OEChem-07051212572D

 50 53  0     1  0  0  0  0  0999 V2000
    7.9875    1.5249    0.0000 O   0  0  0  0  0  0  0  0  0  0  0  0
    4.5124    0.6083    0.0000 N   0  0  0  0  0  0  0  0  0  0  0  0
    8.3170    0.5367    0.0000 C   0  0  3  0  0  0  0  0  0  0  0  0
    9.0627   -0.1295    0.0000 C   0  0  0  0  0  0  0  0  0  0  0  0
    6.2962    0.9826    0.0000 C   0  0  0  0  0  0  0  0  0  0  0  0
    6.9654    1.7257    0.0000 C   0  0  0  0  0  0  0  0  0  0  0  0
    5.3181    1.1905    0.0000 C   0  0  0  0  0  0  0  0  0  0  0  0
    7.6200   -0.2373    0.0000 C   0  0  0  0  0  0  0  0  0  0  0  0
    5.0091    2.1415    0.0000 C   0  0  0  0  0  0  0  0  0  0  0  0
    9.2668    0.8494    0.0000 C   0  0  0  0  0  0  0  0  0  0  0  0
    6.6028   -0.0129    0.0000 C   0  0  0  0  0  0  0  0  0  0  0  0
    6.6564    2.6768    0.0000 C   0  0  0  0  0  0  0  0  0  0  0  0
    8.8585   -1.1085    0.0000 C   0  0  0  0  0  0  0  0  0  0  0  0
    4.0150    2.1390    0.0000 C   0  0  0  0  0  0  0  0  0  0  0  0
    5.6782    2.8847    0.0000 C   0  0  0  0  0  0  0  0  0  0  0  0
    3.7086    1.1933    0.0000 C   0  0  0  0  0  0  0  0  0  0  0  0
    7.3255    3.4199    0.0000 C   0  0  0  0  0  0  0  0  0  0  0  0
    9.6043   -1.7747    0.0000 C   0  0  0  0  0  0  0  0  0  0  0  0
    3.3334    2.9185    0.0000 C   0  0  0  0  0  0  0  0  0  0  0  0
    2.6994    0.9615    0.0000 C   0  0  0  0  0  0  0  0  0  0  0  0
    2.3191    2.7101    0.0000 C   0  0  0  0  0  0  0  0  0  0  0  0
    2.0000    1.7250    0.0000 C   0  0  0  0  0  0  0  0  0  0  0  0
    9.4001   -2.7537    0.0000 C   0  0  0  0  0  0  0  0  0  0  0  0
   10.1458   -3.4199    0.0000 C   0  0  0  0  0  0  0  0  0  0  0  0
    8.4503   -3.0663    0.0000 C   0  0  0  0  0  0  0  0  0  0  0  0
    9.6384   -0.3596    0.0000 H   0  0  0  0  0  0  0  0  0  0  0  0
    9.3892    0.3975    0.0000 H   0  0  0  0  0  0  0  0  0  0  0  0
    7.8093   -0.8277    0.0000 H   0  0  0  0  0  0  0  0  0  0  0  0
    9.4607    0.2605    0.0000 H   0  0  0  0  0  0  0  0  0  0  0  0
    9.8557    1.0433    0.0000 H   0  0  0  0  0  0  0  0  0  0  0  0
    9.0730    1.4383    0.0000 H   0  0  0  0  0  0  0  0  0  0  0  0
    6.1826   -0.4688    0.0000 H   0  0  0  0  0  0  0  0  0  0  0  0
    8.2828   -0.8784    0.0000 H   0  0  0  0  0  0  0  0  0  0  0  0
    8.5320   -1.6355    0.0000 H   0  0  0  0  0  0  0  0  0  0  0  0
    5.4866    3.4743    0.0000 H   0  0  0  0  0  0  0  0  0  0  0  0
    4.5113   -0.0117    0.0000 H   0  0  0  0  0  0  0  0  0  0  0  0
    7.7862    3.0051    0.0000 H   0  0  0  0  0  0  0  0  0  0  0  0
    7.7403    3.8807    0.0000 H   0  0  0  0  0  0  0  0  0  0  0  0
    6.8647    3.8348    0.0000 H   0  0  0  0  0  0  0  0  0  0  0  0
   10.1932   -1.5809    0.0000 H   0  0  0  0  0  0  0  0  0  0  0  0
    3.5313    3.5060    0.0000 H   0  0  0  0  0  0  0  0  0  0  0  0
    2.5152    0.3695    0.0000 H   0  0  0  0  0  0  0  0  0  0  0  0
    1.9056    3.1721    0.0000 H   0  0  0  0  0  0  0  0  0  0  0  0
    1.3942    1.5933    0.0000 H   0  0  0  0  0  0  0  0  0  0  0  0
    9.7328   -3.8823    0.0000 H   0  0  0  0  0  0  0  0  0  0  0  0
   10.6082   -3.8330    0.0000 H   0  0  0  0  0  0  0  0  0  0  0  0
   10.5589   -2.9576    0.0000 H   0  0  0  0  0  0  0  0  0  0  0  0
    8.2564   -2.4774    0.0000 H   0  0  0  0  0  0  0  0  0  0  0  0
    7.8614   -3.2602    0.0000 H   0  0  0  0  0  0  0  0  0  0  0  0
    8.6441   -3.6552    0.0000 H   0  0  0  0  0  0  0  0  0  0  0  0
  1  3  1  0  0  0  0
  1  6  1  0  0  0  0
  2  7  1  0  0  0  0
  2 16  1  0  0  0  0
  2 36  1  0  0  0  0
  3  4  1  0  0  0  0
  3  8  1  0  0  0  0
  3 10  1  0  0  0  0
  4 13  1  0  0  0  0
  4 26  1  0  0  0  0
  4 27  1  0  0  0  0
  5  6  2  0  0  0  0
  5  7  1  0  0  0  0
  5 11  1  0  0  0  0
  6 12  1  0  0  0  0
  7  9  2  0  0  0  0
  8 11  2  0  0  0  0
  8 28  1  0  0  0  0
  9 14  1  0  0  0  0
  9 15  1  0  0  0  0
 10 29  1  0  0  0  0
 10 30  1  0  0  0  0
 10 31  1  0  0  0  0
 11 32  1  0  0  0  0
 12 15  2  0  0  0  0
 12 17  1  0  0  0  0
 13 18  1  0  0  0  0
 13 33  1  0  0  0  0
 13 34  1  0  0  0  0
 14 16  1  0  0  0  0
 14 19  2  0  0  0  0
 15 35  1  0  0  0  0
 16 20  2  0  0  0  0
 17 37  1  0  0  0  0
 17 38  1  0  0  0  0
 17 39  1  0  0  0  0
 18 23  2  0  0  0  0
 18 40  1  0  0  0  0
 19 21  1  0  0  0  0
 19 41  1  0  0  0  0
 20 22  1  0  0  0  0
 20 42  1  0  0  0  0
 21 22  2  0  0  0  0
 21 43  1  0  0  0  0
 22 44  1  0  0  0  0
 23 24  1  0  0  0  0
 23 25  1  0  0  0  0
 24 45  1  0  0  0  0
 24 46  1  0  0  0  0
 24 47  1  0  0  0  0
 25 48  1  0  0  0  0
 25 49  1  0  0  0  0
 25 50  1  0  0  0  0
M  END
> <PUBCHEM_COMPOUND_CID>
167963

> <PUBCHEM_COMPOUND_CANONICALIZED>
1

> <PUBCHEM_CACTVS_COMPLEXITY>
548

> <PUBCHEM_CACTVS_HBOND_ACCEPTOR>
1

> <PUBCHEM_CACTVS_HBOND_DONOR>
1

> <PUBCHEM_CACTVS_ROTATABLE_BOND>
3

> <PUBCHEM_CACTVS_SUBSKEYS>
AAADceB6IAAAAAAAAAAAAAAAAAAAAWAAAAAwYIAAAAAAAFiB/AAAHgAQAAAADEyBngAyxvLJlACgAyRiRACCiCAhIiAImSA0bJgMJuLEsZuGOCjm0BnI6AeQ0PMOqAACAgAKAABQAAQEABQAAAAAAAAAAA==

> <PUBCHEM_IUPAC_OPENEYE_NAME>
3,5-dimethyl-3-(4-methylpent-3-enyl)-11H-pyrano[3,2-a]carbazole

> <PUBCHEM_IUPAC_CAS_NAME>
3,5-dimethyl-3-(4-methylpent-3-enyl)-11H-pyrano[3,2-a]carbazole

> <PUBCHEM_IUPAC_NAME>
3,5-dimethyl-3-(4-methylpent-3-enyl)-11H-pyrano[3,2-a]carbazole

> <PUBCHEM_IUPAC_SYSTEMATIC_NAME>
3,5-dimethyl-3-(4-methylpent-3-enyl)-11H-pyrano[3,2-a]carbazole

> <PUBCHEM_IUPAC_TRADITIONAL_NAME>
3,5-dimethyl-3-(4-methylpent-3-enyl)-11H-pyrano[3,2-a]carbazole

> <PUBCHEM_IUPAC_INCHI>
InChI=1S/C23H25NO/c1-15(2)8-7-12-23(4)13-11-18-21-19(14-16(3)22(18)25-23)17-9-5-6-10-20(17)24-21/h5-6,8-11,13-14,24H,7,12H2,1-4H3

> <PUBCHEM_IUPAC_INCHIKEY>
HTNVFUBCWIYPJN-UHFFFAOYSA-N

> <PUBCHEM_XLOGP3_AA>
6.6

> <PUBCHEM_EXACT_MASS>
331.193614

> <PUBCHEM_MOLECULAR_FORMULA>
C23H25NO

> <PUBCHEM_MOLECULAR_WEIGHT>
331.4507

> <PUBCHEM_OPENEYE_CAN_SMILES>
CC1=C2C(=C3C(=C1)C4=CC=CC=C4N3)C=CC(O2)(C)CCC=C(C)C

> <PUBCHEM_OPENEYE_ISO_SMILES>
CC1=C2C(=C3C(=C1)C4=CC=CC=C4N3)C=CC(O2)(C)CCC=C(C)C

> <PUBCHEM_CACTVS_TPSA>
25

> <PUBCHEM_MONOISOTOPIC_WEIGHT>
331.193614

> <PUBCHEM_TOTAL_CHARGE>
0

> <PUBCHEM_HEAVY_ATOM_COUNT>
25

> <PUBCHEM_ATOM_DEF_STEREO_COUNT>
0

> <PUBCHEM_ATOM_UDEF_STEREO_COUNT>
1

> <PUBCHEM_BOND_DEF_STEREO_COUNT>
0

> <PUBCHEM_BOND_UDEF_STEREO_COUNT>
0

> <PUBCHEM_ISOTOPIC_ATOM_COUNT>
0

> <PUBCHEM_COMPONENT_COUNT>
1

> <PUBCHEM_CACTVS_TAUTO_COUNT>
1

> <PUBCHEM_COORDINATE_TYPE>
1
5
255

> <PUBCHEM_BONDANNOTATIONS>
12  15  8
14  16  8
14  19  8
16  20  8
19  21  8
2  16  8
2  7  8
20  22  8
21  22  8
3  10  3
5  6  8
5  7  8
6  12  8
7  9  8
9  14  8
9  15  8

$$$$

