440013
  -OEChem-07051212482D

 31 31  0     1  0  0  0  0  0999 V2000
    5.1350    1.7035    0.0000 P   0  0  0  0  0  0  0  0  0  0  0  0
    4.2690    1.2035    0.0000 O   0  0  0  0  0  0  0  0  0  0  0  0
    2.5369   -1.7965    0.0000 O   0  0  0  0  0  0  0  0  0  0  0  0
    6.0010    0.2035    0.0000 O   0  0  0  0  0  0  0  0  0  0  0  0
    6.0010   -1.7965    0.0000 O   0  0  0  0  0  0  0  0  0  0  0  0
    6.0010    2.2035    0.0000 O   0  0  0  0  0  0  0  0  0  0  0  0
    4.6350    2.5695    0.0000 O   0  0  0  0  0  0  0  0  0  0  0  0
    5.6350    0.8375    0.0000 O   0  0  0  0  0  0  0  0  0  0  0  0
    2.5369    0.2035    0.0000 N   0  0  0  0  0  0  0  0  0  0  0  0
    4.2690   -2.7965    0.0000 N   0  0  0  0  0  0  0  0  0  0  0  0
    3.4030   -0.2965    0.0000 C   0  0  2  0  0  0  0  0  0  0  0  0
    4.2690    0.2035    0.0000 C   0  0  2  0  0  0  0  0  0  0  0  0
    4.2690   -1.7965    0.0000 C   0  0  2  0  0  0  0  0  0  0  0  0
    3.4030   -1.2965    0.0000 C   0  0  1  0  0  0  0  0  0  0  0  0
    5.1350   -0.2965    0.0000 C   0  0  1  0  0  0  0  0  0  0  0  0
    5.1350   -1.2965    0.0000 C   0  0  1  0  0  0  0  0  0  0  0  0
    3.4030    0.3235    0.0000 H   0  0  0  0  0  0  0  0  0  0  0  0
    4.8059    0.5135    0.0000 H   0  0  0  0  0  0  0  0  0  0  0  0
    4.8059   -2.1065    0.0000 H   0  0  0  0  0  0  0  0  0  0  0  0
    3.4030   -1.9165    0.0000 H   0  0  0  0  0  0  0  0  0  0  0  0
    5.1350    0.3235    0.0000 H   0  0  0  0  0  0  0  0  0  0  0  0
    5.1350   -1.9165    0.0000 H   0  0  0  0  0  0  0  0  0  0  0  0
    2.0000   -0.1065    0.0000 H   0  0  0  0  0  0  0  0  0  0  0  0
    2.5369    0.8235    0.0000 H   0  0  0  0  0  0  0  0  0  0  0  0
    4.8059   -3.1065    0.0000 H   0  0  0  0  0  0  0  0  0  0  0  0
    3.7320   -3.1065    0.0000 H   0  0  0  0  0  0  0  0  0  0  0  0
    2.5369   -2.4165    0.0000 H   0  0  0  0  0  0  0  0  0  0  0  0
    6.5380   -0.1065    0.0000 H   0  0  0  0  0  0  0  0  0  0  0  0
    6.5380   -1.4865    0.0000 H   0  0  0  0  0  0  0  0  0  0  0  0
    6.0010    2.8235    0.0000 H   0  0  0  0  0  0  0  0  0  0  0  0
    4.9450    3.1065    0.0000 H   0  0  0  0  0  0  0  0  0  0  0  0
  1  2  1  0  0  0  0
  1  6  1  0  0  0  0
  1  7  1  0  0  0  0
  1  8  2  0  0  0  0
 12  2  1  1  0  0  0
 14  3  1  1  0  0  0
  3 27  1  0  0  0  0
 15  4  1  6  0  0  0
  4 28  1  0  0  0  0
 16  5  1  1  0  0  0
  5 29  1  0  0  0  0
  6 30  1  0  0  0  0
  7 31  1  0  0  0  0
 11  9  1  6  0  0  0
  9 23  1  0  0  0  0
  9 24  1  0  0  0  0
 13 10  1  6  0  0  0
 10 25  1  0  0  0  0
 10 26  1  0  0  0  0
 11 12  1  0  0  0  0
 11 14  1  0  0  0  0
 11 17  1  0  0  0  0
 12 15  1  0  0  0  0
 12 18  1  0  0  0  0
 13 14  1  0  0  0  0
 13 16  1  0  0  0  0
 13 19  1  0  0  0  0
 14 20  1  0  0  0  0
 15 16  1  0  0  0  0
 15 21  1  0  0  0  0
 16 22  1  0  0  0  0
M  END
> <PUBCHEM_COMPOUND_CID>
440013

> <PUBCHEM_COMPOUND_CANONICALIZED>
1

> <PUBCHEM_CACTVS_COMPLEXITY>
297

> <PUBCHEM_CACTVS_HBOND_ACCEPTOR>
9

> <PUBCHEM_CACTVS_HBOND_DONOR>
7

> <PUBCHEM_CACTVS_ROTATABLE_BOND>
2

> <PUBCHEM_CACTVS_SUBSKEYS>
AAADccBjOAIAAAAAAAAAAAAAAAAAAAAAAAAwAAAAAAAAAAAAAAAAHgAQCCAACDzhgAYAAABAAxAAQAAAAIAAAAAAAAAAAIAAAAADEAIAwAAAQAAHEAABAAHwcAUAAAAAAAAAAAACgAAUCACgAAAAAAAAAA==

> <PUBCHEM_IUPAC_OPENEYE_NAME>
[(1R,2S,3R,4R,5S,6R)-2,4-diamino-3,5,6-trihydroxy-cyclohexyl] dihydrogen phosphate

> <PUBCHEM_IUPAC_CAS_NAME>
[(1R,2S,3R,4R,5S,6R)-2,4-diamino-3,5,6-trihydroxycyclohexyl] dihydrogen phosphate

> <PUBCHEM_IUPAC_NAME>
[(1R,2S,3R,4R,5S,6R)-2,4-diamino-3,5,6-trihydroxycyclohexyl] dihydrogen phosphate

> <PUBCHEM_IUPAC_SYSTEMATIC_NAME>
[(1R,2S,3R,4R,5S,6R)-2,4-bis(azanyl)-3,5,6-tris(oxidanyl)cyclohexyl] dihydrogen phosphate

> <PUBCHEM_IUPAC_TRADITIONAL_NAME>
[(1R,2S,3R,4R,5S,6R)-2,4-diamino-3,5,6-trihydroxy-cyclohexyl] dihydrogen phosphate

> <PUBCHEM_IUPAC_INCHI>
InChI=1S/C6H15N2O7P/c7-1-3(9)2(8)6(5(11)4(1)10)15-16(12,13)14/h1-6,9-11H,7-8H2,(H2,12,13,14)/t1-,2+,3-,4+,5-,6-/m1/s1

> <PUBCHEM_IUPAC_INCHIKEY>
UGKIWJFUWGWWEX-XJQRDMAOSA-N

> <PUBCHEM_XLOGP3_AA>
-7.6

> <PUBCHEM_EXACT_MASS>
258.061687

> <PUBCHEM_MOLECULAR_FORMULA>
C6H15N2O7P

> <PUBCHEM_MOLECULAR_WEIGHT>
258.166262

> <PUBCHEM_OPENEYE_CAN_SMILES>
C1(C(C(C(C(C1O)O)OP(=O)(O)O)N)O)N

> <PUBCHEM_OPENEYE_ISO_SMILES>
[C@H]1([C@H]([C@@H]([C@H]([C@@H]([C@H]1O)O)OP(=O)(O)O)N)O)N

> <PUBCHEM_CACTVS_TPSA>
180

> <PUBCHEM_MONOISOTOPIC_WEIGHT>
258.061687

> <PUBCHEM_TOTAL_CHARGE>
0

> <PUBCHEM_HEAVY_ATOM_COUNT>
16

> <PUBCHEM_ATOM_DEF_STEREO_COUNT>
6

> <PUBCHEM_ATOM_UDEF_STEREO_COUNT>
0

> <PUBCHEM_BOND_DEF_STEREO_COUNT>
0

> <PUBCHEM_BOND_UDEF_STEREO_COUNT>
0

> <PUBCHEM_ISOTOPIC_ATOM_COUNT>
0

> <PUBCHEM_COMPONENT_COUNT>
1

> <PUBCHEM_CACTVS_TAUTO_COUNT>
1

> <PUBCHEM_COORDINATE_TYPE>
1
5
255

> <PUBCHEM_BONDANNOTATIONS>
13  10  6
12  2  5
14  3  5
15  4  6
16  5  5
11  9  6

$$$$

