21117850
  -OEChem-07051213083D

 36 37  0     0  0  0  0  0  0999 V2000
   -4.1379    2.2135    0.4779 O   0  0  0  0  0  0  0  0  0  0  0  0
    2.6993   -0.1261    2.4364 O   0  0  0  0  0  0  0  0  0  0  0  0
    2.6884   -0.7984   -2.3157 O   0  0  0  0  0  0  0  0  0  0  0  0
   -6.2296    0.5008   -0.1675 O   0  0  0  0  0  0  0  0  0  0  0  0
    6.0020    1.9598   -0.2893 O   0  0  0  0  0  0  0  0  0  0  0  0
    1.6184   -2.5658    0.3349 O   0  0  0  0  0  0  0  0  0  0  0  0
    2.6651   -0.4837    0.0633 C   0  0  0  0  0  0  0  0  0  0  0  0
   -2.3481   -0.9503    0.0907 C   0  0  0  0  0  0  0  0  0  0  0  0
    3.2284    0.0962    1.1999 C   0  0  0  0  0  0  0  0  0  0  0  0
    3.2231   -0.2422   -1.1922 C   0  0  0  0  0  0  0  0  0  0  0  0
    1.4735   -1.3570    0.1900 C   0  0  0  0  0  0  0  0  0  0  0  0
   -2.6007    0.4007    0.3290 C   0  0  0  0  0  0  0  0  0  0  0  0
   -0.9901   -1.4633    0.1803 C   0  0  0  0  0  0  0  0  0  0  0  0
   -3.9035    0.8922    0.2438 C   0  0  0  0  0  0  0  0  0  0  0  0
   -3.3981   -1.8097   -0.2328 C   0  0  0  0  0  0  0  0  0  0  0  0
    0.1327   -0.7141    0.1025 C   0  0  0  0  0  0  0  0  0  0  0  0
    4.3497    0.9175    1.0813 C   0  0  0  0  0  0  0  0  0  0  0  0
    4.3443    0.5793   -1.3107 C   0  0  0  0  0  0  0  0  0  0  0  0
   -4.9534    0.0325   -0.0798 C   0  0  0  0  0  0  0  0  0  0  0  0
    4.9076    1.1590   -0.1739 C   0  0  0  0  0  0  0  0  0  0  0  0
   -4.7006   -1.3184   -0.3180 C   0  0  0  0  0  0  0  0  0  0  0  0
   -4.0705    3.0776   -0.6501 C   0  0  0  0  0  0  0  0  0  0  0  0
   -1.8128    1.0969    0.6035 H   0  0  0  0  0  0  0  0  0  0  0  0
   -0.9062   -2.5406    0.3055 H   0  0  0  0  0  0  0  0  0  0  0  0
   -3.2203   -2.8654   -0.4232 H   0  0  0  0  0  0  0  0  0  0  0  0
    0.1205    0.3592   -0.0478 H   0  0  0  0  0  0  0  0  0  0  0  0
    4.7892    1.3697    1.9670 H   0  0  0  0  0  0  0  0  0  0  0  0
    4.7804    0.7686   -2.2887 H   0  0  0  0  0  0  0  0  0  0  0  0
   -5.5092   -1.9988   -0.5716 H   0  0  0  0  0  0  0  0  0  0  0  0
    1.9486   -0.7388    2.3823 H   0  0  0  0  0  0  0  0  0  0  0  0
    3.2076   -0.5174   -3.0885 H   0  0  0  0  0  0  0  0  0  0  0  0
   -6.8214   -0.2346   -0.4019 H   0  0  0  0  0  0  0  0  0  0  0  0
    6.2539    2.0169   -1.2271 H   0  0  0  0  0  0  0  0  0  0  0  0
   -4.2863    4.0961   -0.3157 H   0  0  0  0  0  0  0  0  0  0  0  0
   -4.8139    2.7937   -1.4018 H   0  0  0  0  0  0  0  0  0  0  0  0
   -3.0678    3.0610   -1.0893 H   0  0  0  0  0  0  0  0  0  0  0  0
  1 14  1  0  0  0  0
  1 22  1  0  0  0  0
  2  9  1  0  0  0  0
  2 30  1  0  0  0  0
  3 10  1  0  0  0  0
  3 31  1  0  0  0  0
  4 19  1  0  0  0  0
  4 32  1  0  0  0  0
  5 20  1  0  0  0  0
  5 33  1  0  0  0  0
  6 11  2  0  0  0  0
  7  9  2  0  0  0  0
  7 10  1  0  0  0  0
  7 11  1  0  0  0  0
  8 12  2  0  0  0  0
  8 13  1  0  0  0  0
  8 15  1  0  0  0  0
  9 17  1  0  0  0  0
 10 18  2  0  0  0  0
 11 16  1  0  0  0  0
 12 14  1  0  0  0  0
 12 23  1  0  0  0  0
 13 16  2  0  0  0  0
 13 24  1  0  0  0  0
 14 19  2  0  0  0  0
 15 21  2  0  0  0  0
 15 25  1  0  0  0  0
 16 26  1  0  0  0  0
 17 20  2  0  0  0  0
 17 27  1  0  0  0  0
 18 20  1  0  0  0  0
 18 28  1  0  0  0  0
 19 21  1  0  0  0  0
 21 29  1  0  0  0  0
 22 34  1  0  0  0  0
 22 35  1  0  0  0  0
 22 36  1  0  0  0  0
M  END
> <PUBCHEM_COMPOUND_CID>
21117850

> <PUBCHEM_CONFORMER_RMSD>
0.6

> <PUBCHEM_CONFORMER_DIVERSEORDER>
1
38
36
24
16
33
7
18
32
20
30
34
35
37
14
11
40
22
31
9
17
15
39
3
19
10
23
8
12
5
29
2
13
28
26
4
27
21
6
25

> <PUBCHEM_MMFF94_PARTIAL_CHARGES>
33
1 -0.36
10 0.08
11 0.47
12 -0.15
13 -0.18
14 0.08
15 -0.15
16 -0.14
17 -0.15
18 -0.15
19 0.08
2 -0.53
20 0.08
21 -0.15
22 0.28
23 0.15
24 0.15
25 0.15
26 0.15
27 0.15
28 0.15
29 0.15
3 -0.53
30 0.45
31 0.45
32 0.45
33 0.45
4 -0.53
5 -0.53
6 -0.57
7 0.09
8 0.03
9 0.08

> <PUBCHEM_EFFECTIVE_ROTOR_COUNT>
4

> <PUBCHEM_PHARMACOPHORE_FEATURES>
8
1 1 acceptor
1 2 donor
1 3 donor
1 4 donor
1 5 donor
1 6 acceptor
6 7 9 10 17 18 20 rings
6 8 12 14 15 19 21 rings

> <PUBCHEM_HEAVY_ATOM_COUNT>
22

> <PUBCHEM_ATOM_DEF_STEREO_COUNT>
0

> <PUBCHEM_ATOM_UDEF_STEREO_COUNT>
0

> <PUBCHEM_BOND_DEF_STEREO_COUNT>
1

> <PUBCHEM_BOND_UDEF_STEREO_COUNT>
0

> <PUBCHEM_ISOTOPIC_ATOM_COUNT>
0

> <PUBCHEM_COMPONENT_COUNT>
1

> <PUBCHEM_CACTVS_TAUTO_COUNT>
85

> <PUBCHEM_CONFORMER_ID>
01423B9A00000001

> <PUBCHEM_MMFF94_ENERGY>
78.0073

> <PUBCHEM_FEATURE_SELFOVERLAP>
40.594

> <PUBCHEM_SHAPE_FINGERPRINT>
10498660 4 18334293201316632321
10670039 82 18342729758647951836
11595378 159 17775010123769633077
11796584 16 9510920162327045848
12107183 9 17695923493454928115
12173636 292 18337679715106682095
12236239 1 17917999347234451850
12390115 104 17969492883701039513
12596602 18 17346600759830038465
12633257 1 15338833123755009354
12730499 353 17458620078020257534
12916748 109 18412538808583920475
13675066 3 12607402187295900587
14251757 17 17894631478365155777
14251764 75 17976815712583518977
14341114 328 17489873717566893656
14528608 73 18261115149322064479
14739800 52 18341063925786485112
15188451 53 12031784717761800585
15348495 7 12751232580385079549
15880784 105 14692563296020158817
15961568 22 18410855425980297380
19377110 9 17775278344835828595
20511986 3 17845670178319643701
20645477 56 18113899343088581059
20645477 70 16443337706731413094
21033648 29 17603594014604462657
21033650 10 18269251595439081332
221357 26 16660359285735375713
22289505 5 17603583037011049080
235170 7 17385719218661277581
23557571 272 18187078438717516383
23559900 14 17898296257900321779
23596394 208 17022899077429924926
2838139 119 18120373160638180020
300161 21 17988929959492675351
3060560 45 16153705389335906422
341906 21 18412552019592041201
3472631 163 18340202982174560668
34797466 226 17894906313522795677
38570 142 16485255407004550958
46194498 28 17604425172591938132
465052 167 8430313567111060033
474 4 17703503337559236691
5104073 3 18200589328105334179
5281201 14 17530675515799395158
7808743 9 18338518534618786626
7970288 3 8070038752602011556
960060 61 13912325676657625106

> <PUBCHEM_SHAPE_MULTIPOLES>
417.53
14.06
2.33
1.33
2.76
1.02
-0.01
7.21
1.17
2.06
0.21
-2.02
-0.04
0.01

> <PUBCHEM_SHAPE_SELFOVERLAP>
901.661

> <PUBCHEM_SHAPE_VOLUME>
229.6

> <PUBCHEM_COORDINATE_TYPE>
2
5
10

$$$$

