23724601
  -OEChem-07051213083D

 75 75  0     1  0  0  0  0  0999 V2000
    3.0159   -2.4189    0.0909 O   0  0  0  0  0  0  0  0  0  0  0  0
   -2.3771   -3.1333   -0.8128 O   0  0  0  0  0  0  0  0  0  0  0  0
   -2.0902    1.3314   -2.4978 C   0  0  1  0  0  0  0  0  0  0  0  0
   -0.6543    1.3388   -1.9256 C   0  0  0  0  0  0  0  0  0  0  0  0
    1.9574    2.5307   -0.8472 C   0  0  1  0  0  0  0  0  0  0  0  0
    0.4267    1.8999   -2.8587 C   0  0  0  0  0  0  0  0  0  0  0  0
    1.8115    1.8067   -2.2051 C   0  0  0  0  0  0  0  0  0  0  0  0
   -3.0536    0.5585   -1.5741 C   0  0  0  0  0  0  0  0  0  0  0  0
    3.3084    2.1986   -0.1810 C   0  0  0  0  0  0  0  0  0  0  0  0
   -3.2781    1.1634   -0.1804 C   0  0  0  0  0  0  0  0  0  0  0  0
   -4.1932    0.3217    0.7146 C   0  0  0  0  0  0  0  0  0  0  0  0
   -2.5880    2.7470   -2.7992 C   0  0  0  0  0  0  0  0  0  0  0  0
    3.4819    2.6972    1.2605 C   0  0  0  0  0  0  0  0  0  0  0  0
    1.7348    4.0388   -0.9829 C   0  0  0  0  0  0  0  0  0  0  0  0
   -4.3567    0.8950    2.1359 C   0  0  0  0  0  0  0  0  0  0  0  0
    2.4030    2.1840    2.2184 C   0  0  0  0  0  0  0  0  0  0  0  0
   -2.9833    1.0361    2.7982 C   0  0  0  0  0  0  0  0  0  0  0  0
   -5.2638    0.0337    3.0157 C   0  0  0  0  0  0  0  0  0  0  0  0
    2.3853    0.6736    2.2973 C   0  0  0  0  0  0  0  0  0  0  0  0
    1.3066   -0.0890    2.0314 C   0  0  0  0  0  0  0  0  0  0  0  0
    3.6776    0.0368    2.7364 C   0  0  0  0  0  0  0  0  0  0  0  0
    1.2038   -1.5863    2.1166 C   0  0  0  0  0  0  0  0  0  0  0  0
    0.7507   -2.2085    0.8197 C   0  0  0  0  0  0  0  0  0  0  0  0
    1.6821   -2.5958   -0.1326 C   0  0  0  0  0  0  0  0  0  0  0  0
   -0.6090   -2.3833    0.6040 C   0  0  0  0  0  0  0  0  0  0  0  0
    1.2450   -3.1701   -1.3263 C   0  0  0  0  0  0  0  0  0  0  0  0
   -1.0461   -2.9576   -0.5896 C   0  0  0  0  0  0  0  0  0  0  0  0
   -0.1191   -3.3510   -1.5548 C   0  0  0  0  0  0  0  0  0  0  0  0
    2.2218   -3.5981   -2.3714 C   0  0  0  0  0  0  0  0  0  0  0  0
   -2.0638    0.7851   -3.4503 H   0  0  0  0  0  0  0  0  0  0  0  0
   -0.3783    0.3149   -1.6433 H   0  0  0  0  0  0  0  0  0  0  0  0
   -0.6751    1.9306   -1.0063 H   0  0  0  0  0  0  0  0  0  0  0  0
    1.1819    2.1426   -0.1840 H   0  0  0  0  0  0  0  0  0  0  0  0
    0.2099    2.9374   -3.1293 H   0  0  0  0  0  0  0  0  0  0  0  0
    0.4355    1.3246   -3.7920 H   0  0  0  0  0  0  0  0  0  0  0  0
    2.0534    0.7442   -2.0689 H   0  0  0  0  0  0  0  0  0  0  0  0
    2.5562    2.2023   -2.9075 H   0  0  0  0  0  0  0  0  0  0  0  0
   -4.0261    0.4727   -2.0760 H   0  0  0  0  0  0  0  0  0  0  0  0
   -2.6813   -0.4657   -1.4606 H   0  0  0  0  0  0  0  0  0  0  0  0
    4.1165    2.6271   -0.7883 H   0  0  0  0  0  0  0  0  0  0  0  0
    3.4652    1.1132   -0.2062 H   0  0  0  0  0  0  0  0  0  0  0  0
   -3.7014    2.1697   -0.2741 H   0  0  0  0  0  0  0  0  0  0  0  0
   -2.3006    1.2656    0.2967 H   0  0  0  0  0  0  0  0  0  0  0  0
   -5.1810    0.2439    0.2437 H   0  0  0  0  0  0  0  0  0  0  0  0
   -3.7959   -0.6996    0.7772 H   0  0  0  0  0  0  0  0  0  0  0  0
   -2.4967    3.4019   -1.9267 H   0  0  0  0  0  0  0  0  0  0  0  0
   -2.0190    3.1982   -3.6181 H   0  0  0  0  0  0  0  0  0  0  0  0
   -3.6393    2.7313   -3.1057 H   0  0  0  0  0  0  0  0  0  0  0  0
    3.4757    3.7930    1.2772 H   0  0  0  0  0  0  0  0  0  0  0  0
    4.4785    2.4059    1.6142 H   0  0  0  0  0  0  0  0  0  0  0  0
    0.7459    4.2633   -1.3936 H   0  0  0  0  0  0  0  0  0  0  0  0
    1.7885    4.5408   -0.0124 H   0  0  0  0  0  0  0  0  0  0  0  0
    2.4863    4.4890   -1.6399 H   0  0  0  0  0  0  0  0  0  0  0  0
   -4.8079    1.8926    2.0630 H   0  0  0  0  0  0  0  0  0  0  0  0
    2.6061    2.5810    3.2213 H   0  0  0  0  0  0  0  0  0  0  0  0
    1.4190    2.5776    1.9411 H   0  0  0  0  0  0  0  0  0  0  0  0
   -2.4105    0.1042    2.7410 H   0  0  0  0  0  0  0  0  0  0  0  0
   -3.0913    1.2953    3.8575 H   0  0  0  0  0  0  0  0  0  0  0  0
   -2.3927    1.8380    2.3453 H   0  0  0  0  0  0  0  0  0  0  0  0
   -4.8484   -0.9710    3.1487 H   0  0  0  0  0  0  0  0  0  0  0  0
   -6.2554   -0.0675    2.5625 H   0  0  0  0  0  0  0  0  0  0  0  0
   -5.3920    0.4836    4.0058 H   0  0  0  0  0  0  0  0  0  0  0  0
    0.3898    0.4233    1.7403 H   0  0  0  0  0  0  0  0  0  0  0  0
    4.3051   -0.1981    1.8711 H   0  0  0  0  0  0  0  0  0  0  0  0
    3.5342   -0.8697    3.3296 H   0  0  0  0  0  0  0  0  0  0  0  0
    4.2382    0.7180    3.3869 H   0  0  0  0  0  0  0  0  0  0  0  0
    0.4772   -1.8286    2.9042 H   0  0  0  0  0  0  0  0  0  0  0  0
    2.1273   -2.0740    2.4397 H   0  0  0  0  0  0  0  0  0  0  0  0
   -1.3368   -2.0758    1.3504 H   0  0  0  0  0  0  0  0  0  0  0  0
   -0.4639   -3.7976   -2.4843 H   0  0  0  0  0  0  0  0  0  0  0  0
    2.8999   -4.3624   -1.9772 H   0  0  0  0  0  0  0  0  0  0  0  0
    1.7182   -4.0342   -3.2414 H   0  0  0  0  0  0  0  0  0  0  0  0
    2.8007   -2.7414   -2.7322 H   0  0  0  0  0  0  0  0  0  0  0  0
    3.5441   -2.7212   -0.6637 H   0  0  0  0  0  0  0  0  0  0  0  0
   -2.4999   -3.5361   -1.6894 H   0  0  0  0  0  0  0  0  0  0  0  0
  1 24  1  0  0  0  0
  1 74  1  0  0  0  0
  2 27  1  0  0  0  0
  2 75  1  0  0  0  0
  3  4  1  0  0  0  0
  3  8  1  0  0  0  0
  3 12  1  0  0  0  0
  3 30  1  0  0  0  0
  4  6  1  0  0  0  0
  4 31  1  0  0  0  0
  4 32  1  0  0  0  0
  5  7  1  0  0  0  0
  5  9  1  0  0  0  0
  5 14  1  0  0  0  0
  5 33  1  0  0  0  0
  6  7  1  0  0  0  0
  6 34  1  0  0  0  0
  6 35  1  0  0  0  0
  7 36  1  0  0  0  0
  7 37  1  0  0  0  0
  8 10  1  0  0  0  0
  8 38  1  0  0  0  0
  8 39  1  0  0  0  0
  9 13  1  0  0  0  0
  9 40  1  0  0  0  0
  9 41  1  0  0  0  0
 10 11  1  0  0  0  0
 10 42  1  0  0  0  0
 10 43  1  0  0  0  0
 11 15  1  0  0  0  0
 11 44  1  0  0  0  0
 11 45  1  0  0  0  0
 12 46  1  0  0  0  0
 12 47  1  0  0  0  0
 12 48  1  0  0  0  0
 13 16  1  0  0  0  0
 13 49  1  0  0  0  0
 13 50  1  0  0  0  0
 14 51  1  0  0  0  0
 14 52  1  0  0  0  0
 14 53  1  0  0  0  0
 15 17  1  0  0  0  0
 15 18  1  0  0  0  0
 15 54  1  0  0  0  0
 16 19  1  0  0  0  0
 16 55  1  0  0  0  0
 16 56  1  0  0  0  0
 17 57  1  0  0  0  0
 17 58  1  0  0  0  0
 17 59  1  0  0  0  0
 18 60  1  0  0  0  0
 18 61  1  0  0  0  0
 18 62  1  0  0  0  0
 19 20  2  0  0  0  0
 19 21  1  0  0  0  0
 20 22  1  0  0  0  0
 20 63  1  0  0  0  0
 21 64  1  0  0  0  0
 21 65  1  0  0  0  0
 21 66  1  0  0  0  0
 22 23  1  0  0  0  0
 22 67  1  0  0  0  0
 22 68  1  0  0  0  0
 23 24  2  0  0  0  0
 23 25  1  0  0  0  0
 24 26  1  0  0  0  0
 25 27  2  0  0  0  0
 25 69  1  0  0  0  0
 26 28  2  0  0  0  0
 26 29  1  0  0  0  0
 27 28  1  0  0  0  0
 28 70  1  0  0  0  0
 29 71  1  0  0  0  0
 29 72  1  0  0  0  0
 29 73  1  0  0  0  0
M  END
> <PUBCHEM_COMPOUND_CID>
23724601

> <PUBCHEM_CONFORMER_RMSD>
1.8

> <PUBCHEM_CONFORMER_DIVERSEORDER>
1
38
26
21
51
131
78
34
117
115
18
123
9
130
96
24
81
17
128
136
82
37
53
135
146
33
41
42
79
74
144
64
28
148
16
60
58
10
59
29
147
125
118
8
69
65
91
47
22
127
71
124
110
6
85
61
93
143
133
54
139
2
83
7
70
132
80
30
15
114
104
129
20
46
27
3
84
119
106
105
134
92
126
138
89
63
107
113
44
23
102
87
109
45
142
67
5
75
19
57
72
55
103
94
66
100
122
137
99
11
52
31
86
35
13
56
62
90
36
88
95
112
149
145
49
73
97
77
48
39
50
111
116
140
76
68
4
32
120
12
101
14
108
98
121
141
43
25
40

> <PUBCHEM_MMFF94_PARTIAL_CHARGES>
19
1 -0.53
16 0.14
19 -0.28
2 -0.53
20 -0.29
21 0.14
22 0.28
23 -0.14
24 0.08
25 -0.15
26 -0.14
27 0.08
28 -0.15
29 0.14
63 0.15
69 0.15
70 0.15
74 0.45
75 0.45

> <PUBCHEM_EFFECTIVE_ROTOR_COUNT>
14

> <PUBCHEM_PHARMACOPHORE_FEATURES>
7
1 1 donor
1 12 hydrophobe
1 14 hydrophobe
1 2 donor
1 21 hydrophobe
3 15 17 18 hydrophobe
6 23 24 25 26 27 28 rings

> <PUBCHEM_HEAVY_ATOM_COUNT>
29

> <PUBCHEM_ATOM_DEF_STEREO_COUNT>
0

> <PUBCHEM_ATOM_UDEF_STEREO_COUNT>
2

> <PUBCHEM_BOND_DEF_STEREO_COUNT>
1

> <PUBCHEM_BOND_UDEF_STEREO_COUNT>
0

> <PUBCHEM_ISOTOPIC_ATOM_COUNT>
0

> <PUBCHEM_COMPONENT_COUNT>
1

> <PUBCHEM_CACTVS_TAUTO_COUNT>
19

> <PUBCHEM_CONFORMER_ID>
016A023900000001

> <PUBCHEM_MMFF94_ENERGY>
46.6514

> <PUBCHEM_FEATURE_SELFOVERLAP>
35.52

> <PUBCHEM_SHAPE_FINGERPRINT>
10816530 23 17544439017562454373
11578080 2 17829021257884536780
12156800 1 17758649193438079499
12422481 6 18272369720405731411
12539773 59 17621043057899897679
12786520 15 16886680801187917031
12788726 201 17254545007482022337
13642711 20 15873283804520149795
15003188 3 17336775751426312053
15274700 242 16697790867283945548
20600515 1 16770437055844185756
35225 105 17685533898835981452
3797600 57 16843011351606846263
469060 322 17342125627019208225
6287921 2 18333731355628644199
6438718 38 17767117610404575692
6823239 73 17559372825514854905

> <PUBCHEM_SHAPE_MULTIPOLES>
585.07
7.23
5.38
4.01
7.54
2.48
0.67
-3.42
5.83
-3.77
-3.76
1.26
-1.52
1.23

> <PUBCHEM_SHAPE_SELFOVERLAP>
1147.375

> <PUBCHEM_SHAPE_VOLUME>
352.8

> <PUBCHEM_COORDINATE_TYPE>
2
5
10

$$$$

