11330
  -OEChem-06261205323D

 39 40  0     1  0  0  0  0  0999 V2000
   -1.5722   -1.8506    1.0218 S   0  0  0  0  0  0  0  0  0  0  0  0
    5.0879   -0.4981   -1.2157 S   0  0  0  0  0  0  0  0  0  0  0  0
   -0.6281    2.4281    0.5598 O   0  0  0  0  0  0  0  0  0  0  0  0
   -4.9005    1.6642    0.1615 O   0  0  0  0  0  0  0  0  0  0  0  0
   -3.8321    1.0209   -1.7465 O   0  0  0  0  0  0  0  0  0  0  0  0
    2.3743   -1.8515   -0.5143 O   0  0  0  0  0  0  0  0  0  0  0  0
   -1.6489    0.4386   -0.1955 N   0  0  0  0  0  0  0  0  0  0  0  0
    1.4775    0.2780   -0.7409 N   0  0  0  0  0  0  0  0  0  0  0  0
   -0.8189   -0.7685   -0.2473 C   0  0  1  0  0  0  0  0  0  0  0  0
   -3.2568   -1.1261    0.6949 C   0  0  0  0  0  0  0  0  0  0  0  0
   -2.9640    0.3623    0.4079 C   0  0  2  0  0  0  0  0  0  0  0  0
    0.3626    0.1029    0.2003 C   0  0  2  0  0  0  0  0  0  0  0  0
   -0.6448    1.2701    0.2089 C   0  0  0  0  0  0  0  0  0  0  0  0
   -4.1214   -1.2933    1.9458 C   0  0  0  0  0  0  0  0  0  0  0  0
   -3.8797   -1.8909   -0.4809 C   0  0  0  0  0  0  0  0  0  0  0  0
   -3.9186    1.0330   -0.5276 C   0  0  0  0  0  0  0  0  0  0  0  0
    2.3993   -0.7303   -1.0196 C   0  0  0  0  0  0  0  0  0  0  0  0
    3.4693   -0.3194   -2.0024 C   0  0  0  0  0  0  0  0  0  0  0  0
    4.8450    0.6460    0.1635 C   0  0  0  0  0  0  0  0  0  0  0  0
    6.0743    0.6981    1.0127 C   0  0  0  0  0  0  0  0  0  0  0  0
    6.0957    0.3864    2.3136 C   0  0  0  0  0  0  0  0  0  0  0  0
   -0.7633   -1.1920   -1.2548 H   0  0  0  0  0  0  0  0  0  0  0  0
   -2.9162    0.9458    1.3377 H   0  0  0  0  0  0  0  0  0  0  0  0
    0.7448   -0.1070    1.2075 H   0  0  0  0  0  0  0  0  0  0  0  0
   -5.1114   -0.8487    1.7933 H   0  0  0  0  0  0  0  0  0  0  0  0
   -4.2726   -2.3502    2.1943 H   0  0  0  0  0  0  0  0  0  0  0  0
   -3.6753   -0.8037    2.8192 H   0  0  0  0  0  0  0  0  0  0  0  0
   -4.8940   -1.5312   -0.6888 H   0  0  0  0  0  0  0  0  0  0  0  0
   -3.2983   -1.7836   -1.4034 H   0  0  0  0  0  0  0  0  0  0  0  0
   -3.9635   -2.9623   -0.2621 H   0  0  0  0  0  0  0  0  0  0  0  0
    1.5951    1.1730   -1.2099 H   0  0  0  0  0  0  0  0  0  0  0  0
   -5.5380    2.1110   -0.4353 H   0  0  0  0  0  0  0  0  0  0  0  0
    3.4105   -0.9807   -2.8721 H   0  0  0  0  0  0  0  0  0  0  0  0
    3.3399    0.7087   -2.3520 H   0  0  0  0  0  0  0  0  0  0  0  0
    4.6425    1.6472   -0.2304 H   0  0  0  0  0  0  0  0  0  0  0  0
    3.9872    0.3354    0.7673 H   0  0  0  0  0  0  0  0  0  0  0  0
    6.9980    1.0369    0.5490 H   0  0  0  0  0  0  0  0  0  0  0  0
    7.0179    0.4580    2.8800 H   0  0  0  0  0  0  0  0  0  0  0  0
    5.2034    0.0563    2.8339 H   0  0  0  0  0  0  0  0  0  0  0  0
  1  9  1  0  0  0  0
  1 10  1  0  0  0  0
  2 18  1  0  0  0  0
  2 19  1  0  0  0  0
  3 13  2  0  0  0  0
  4 16  1  0  0  0  0
  4 32  1  0  0  0  0
  5 16  2  0  0  0  0
  6 17  2  0  0  0  0
  7  9  1  0  0  0  0
  7 11  1  0  0  0  0
  7 13  1  0  0  0  0
  8 12  1  0  0  0  0
  8 17  1  0  0  0  0
  8 31  1  0  0  0  0
  9 12  1  0  0  0  0
  9 22  1  0  0  0  0
 10 11  1  0  0  0  0
 10 14  1  0  0  0  0
 10 15  1  0  0  0  0
 11 16  1  0  0  0  0
 11 23  1  0  0  0  0
 12 13  1  0  0  0  0
 12 24  1  0  0  0  0
 14 25  1  0  0  0  0
 14 26  1  0  0  0  0
 14 27  1  0  0  0  0
 15 28  1  0  0  0  0
 15 29  1  0  0  0  0
 15 30  1  0  0  0  0
 17 18  1  0  0  0  0
 18 33  1  0  0  0  0
 18 34  1  0  0  0  0
 19 20  1  0  0  0  0
 19 35  1  0  0  0  0
 19 36  1  0  0  0  0
 20 21  2  0  0  0  0
 20 37  1  0  0  0  0
 21 38  1  0  0  0  0
 21 39  1  0  0  0  0
M  END
> <PUBCHEM_COMPOUND_CID>
11330

> <PUBCHEM_CONFORMER_RMSD>
0.8

> <PUBCHEM_CONFORMER_DIVERSEORDER>
1
412
306
343
470
62
320
258
109
215
390
353
234
473
95
51
110
458
58
85
167
228
404
128
74
197
312
259
372
270
262
134
7
401
464
398
101
237
245
176
323
385
193
209
115
12
223
409
141
129
69
24
112
274
217
181
282
426
186
43
268
324
355
279
20
71
61
153
202
178
363
76
179
406
428
414
269
226
252
137
67
53
284
222
205
232
198
57
195
439
292
263
117
6
273
196
433
216
160
451
403
271
327
122
123
124
118
68
36
255
432
395
243
93
460
5
56
229
304
149
309
142
25
111
333
77
191
338
293
370
108
3
405
277
231
189
244
422
83
39
169
356
96
81
326
171
357
340
114
314
377
272
341
201
371
4
136
22
146
469
260
383
97
431
46
99
477
113
86
219
238
346
87
177
283
227
294
295
275
389
290
452
224
82
133
462
246
106
78
434
66
162
131
400
418
59
203
212
416
49
318
348
55
241
297
329
156
44
424
399
453
182
299
278
393
47
367
41
254
173
413
218
72
211
70
184
64
302
45
208
73
368
421
42
388
199
281
369
31
13
330
120
472
33
28
37
471
344
119
456
240
175
23
265
150
34
430
40
10
436
127
190
345
316
135
98
298
27
411
465
172
30
225
303
180
11
174
474
267
467
166
94
200
381
221
210
52
410
158
337
417
427
366
264
373
26
317
163
9
48
145
103
449
151
105
50
116
90
305
2
328
441
248
380
391
276
322
32
375
84
88
147
408
16
126
164
396
362
253
394
132
286
161
207
188
91
339
249
444
35
448
155
17
419
38
65
235
143
435
192
92
148
407
475
291
130
445
476
242
440
386
301
420
287
194
315
204
415
374
121
442
239
63
233
310
425
332
296
358
392
455
206
313
213
429
350
347
165
102
468
29
311
251
364
261
80
157
75
307
354
342
125
334
144
325
89
187
461
60
308
384
280
220
450
382
438
443
14
365
379
457
170
319
289
331
360
351
138
100
359
15
352
107
437
402
154
446
423
230
300
214
321
8
21
376
185
466
266
236
152
19
288
54
361
159
463
79
168
250
256
336
397
183
257
387
18
447
349
247
140
335
378
454
139
285
104
459

> <PUBCHEM_MMFF94_PARTIAL_CHARGES>
24
1 -0.45
10 0.23
11 0.36
12 0.28
13 0.58
16 0.66
17 0.57
18 0.29
19 0.37
2 -0.46
20 -0.29
21 -0.3
3 -0.57
31 0.37
32 0.5
37 0.15
38 0.15
39 0.15
4 -0.65
5 -0.57
6 -0.57
7 -0.59
8 -0.65
9 0.44

> <PUBCHEM_EFFECTIVE_ROTOR_COUNT>
7.8

> <PUBCHEM_PHARMACOPHORE_FEATURES>
11
1 21 hydrophobe
1 3 acceptor
1 4 acceptor
1 5 acceptor
1 6 acceptor
1 8 donor
3 10 14 15 hydrophobe
3 4 5 16 anion
4 2 18 19 20 hydrophobe
4 7 9 12 13 rings
7 1 7 9 10 11 12 13 rings

> <PUBCHEM_HEAVY_ATOM_COUNT>
21

> <PUBCHEM_ATOM_DEF_STEREO_COUNT>
0

> <PUBCHEM_ATOM_UDEF_STEREO_COUNT>
3

> <PUBCHEM_BOND_DEF_STEREO_COUNT>
0

> <PUBCHEM_BOND_UDEF_STEREO_COUNT>
0

> <PUBCHEM_ISOTOPIC_ATOM_COUNT>
0

> <PUBCHEM_COMPONENT_COUNT>
1

> <PUBCHEM_CACTVS_TAUTO_COUNT>
2

> <PUBCHEM_CONFORMER_ID>
00002C4200000001

> <PUBCHEM_MMFF94_ENERGY>
48.2968

> <PUBCHEM_FEATURE_SELFOVERLAP>
59.608

> <PUBCHEM_SHAPE_FINGERPRINT>
10912923 1 16845281714437281494
11128504 68 13912324560720339624
12236239 1 16630527314907452610
12616971 3 16558745728500696980
13533116 47 18266458900846465638
13914758 101 15913061919041517967
14528608 73 15357701873185914688
15183329 4 15770062726857202950
15375358 24 18335417976279413030
15880784 105 17095235926094327142
17349148 13 17775557633653001574
17834072 33 14851605479624180918
19489759 90 18202285788167546022
21728266 224 17775007843173524354
220451 1 16200142193361698302
23366157 5 17342926045788733396
23402539 116 17346597469689832782
23557571 272 18338215129539192878
23559900 14 18337942498364569726
34934 24 18408605893819023807
5104073 3 18340197604638460914
5283173 99 18337953497048002660
53917941 68 18267305524736731469
543368 44 14923950011816199474
559249 180 17346325903202842730
573450 72 17489587840248710874
7226269 152 18343586256646918816

> <PUBCHEM_SHAPE_MULTIPOLES>
406.43
13.38
1.88
1.74
15.47
0.04
0.27
0.88
3.63
-2.4
0.21
2.07
-0.2
1.38

> <PUBCHEM_SHAPE_SELFOVERLAP>
805.062

> <PUBCHEM_SHAPE_VOLUME>
244.8

> <PUBCHEM_COORDINATE_TYPE>
2
5
10

$$$$

