582788
  -OEChem-06241222443D

 56 58  0     1  0  0  0  0  0999 V2000
    1.5568    1.3021   -1.3070 O   0  0  0  0  0  0  0  0  0  0  0  0
   -2.5480    1.2019    0.5012 O   0  0  0  0  0  0  0  0  0  0  0  0
    6.6634    1.3183   -1.1240 O   0  0  0  0  0  0  0  0  0  0  0  0
   -1.3795    1.7245    2.4081 O   0  0  0  0  0  0  0  0  0  0  0  0
    5.7928    0.4200    0.8047 O   0  0  0  0  0  0  0  0  0  0  0  0
    1.8712   -3.1097   -0.8135 N   0  0  0  0  0  0  0  0  0  0  0  0
   -0.3221    0.8912    0.5183 N   0  0  0  0  0  0  0  0  0  0  0  0
    3.2724    1.3528    0.2572 N   0  0  0  0  0  0  0  0  0  0  0  0
    1.3932   -0.4660    1.6593 C   0  0  0  0  0  0  0  0  0  0  0  0
    1.0289    0.8805    1.0211 C   0  0  1  0  0  0  0  0  0  0  0  0
    1.3130   -1.6156    0.6959 C   0  0  0  0  0  0  0  0  0  0  0  0
    0.1737   -2.4066    0.4519 C   0  0  0  0  0  0  0  0  0  0  0  0
    0.5500   -3.3479   -0.5085 C   0  0  0  0  0  0  0  0  0  0  0  0
    2.3418   -2.0532   -0.0809 C   0  0  0  0  0  0  0  0  0  0  0  0
    1.9566    1.1840   -0.1507 C   0  0  0  0  0  0  0  0  0  0  0  0
   -1.1468   -2.4293    0.9430 C   0  0  0  0  0  0  0  0  0  0  0  0
    4.3449    1.6938   -0.6493 C   0  0  1  0  0  0  0  0  0  0  0  0
   -0.3318   -4.3148   -1.0045 C   0  0  0  0  0  0  0  0  0  0  0  0
   -2.0399   -3.3908    0.4561 C   0  0  0  0  0  0  0  0  0  0  0  0
   -1.6364   -4.3181   -0.5027 C   0  0  0  0  0  0  0  0  0  0  0  0
   -1.4124    1.3120    1.2534 C   0  0  0  0  0  0  0  0  0  0  0  0
    4.4799    3.2051   -0.7524 C   0  0  0  0  0  0  0  0  0  0  0  0
    5.6676    1.0717   -0.2273 C   0  0  0  0  0  0  0  0  0  0  0  0
   -3.7630    1.6064    1.1420 C   0  0  0  0  0  0  0  0  0  0  0  0
   -4.9052    1.4236    0.1861 C   0  0  0  0  0  0  0  0  0  0  0  0
   -5.2690    2.4660   -0.6592 C   0  0  0  0  0  0  0  0  0  0  0  0
   -5.5896    0.2138    0.1542 C   0  0  0  0  0  0  0  0  0  0  0  0
    7.9415    0.7581   -0.8048 C   0  0  0  0  0  0  0  0  0  0  0  0
   -6.3306    2.2963   -1.5477 C   0  0  0  0  0  0  0  0  0  0  0  0
   -6.6514    0.0442   -0.7344 C   0  0  0  0  0  0  0  0  0  0  0  0
   -7.0220    1.0854   -1.5854 C   0  0  0  0  0  0  0  0  0  0  0  0
    0.7199   -0.6595    2.5047 H   0  0  0  0  0  0  0  0  0  0  0  0
    2.4023   -0.4308    2.0887 H   0  0  0  0  0  0  0  0  0  0  0  0
    1.1335    1.6790    1.7654 H   0  0  0  0  0  0  0  0  0  0  0  0
    3.3660   -1.7242   -0.1882 H   0  0  0  0  0  0  0  0  0  0  0  0
    2.4146   -3.6390   -1.4813 H   0  0  0  0  0  0  0  0  0  0  0  0
   -0.4934    0.5590   -0.4266 H   0  0  0  0  0  0  0  0  0  0  0  0
   -1.4790   -1.7194    1.6946 H   0  0  0  0  0  0  0  0  0  0  0  0
    3.4977    1.2852    1.2453 H   0  0  0  0  0  0  0  0  0  0  0  0
    4.0946    1.2794   -1.6334 H   0  0  0  0  0  0  0  0  0  0  0  0
   -0.0187   -5.0370   -1.7509 H   0  0  0  0  0  0  0  0  0  0  0  0
   -3.0594   -3.4133    0.8318 H   0  0  0  0  0  0  0  0  0  0  0  0
   -2.3464   -5.0562   -0.8669 H   0  0  0  0  0  0  0  0  0  0  0  0
    4.7597    3.6426    0.2129 H   0  0  0  0  0  0  0  0  0  0  0  0
    5.2471    3.4911   -1.4796 H   0  0  0  0  0  0  0  0  0  0  0  0
    3.5357    3.6651   -1.0637 H   0  0  0  0  0  0  0  0  0  0  0  0
   -3.9237    1.0032    2.0443 H   0  0  0  0  0  0  0  0  0  0  0  0
   -3.6883    2.6576    1.4472 H   0  0  0  0  0  0  0  0  0  0  0  0
   -4.7361    3.4126   -0.6399 H   0  0  0  0  0  0  0  0  0  0  0  0
   -5.3076   -0.6049    0.8105 H   0  0  0  0  0  0  0  0  0  0  0  0
    8.3092    1.1685    0.1405 H   0  0  0  0  0  0  0  0  0  0  0  0
    8.6400    1.0299   -1.6006 H   0  0  0  0  0  0  0  0  0  0  0  0
    7.8746   -0.3328   -0.7535 H   0  0  0  0  0  0  0  0  0  0  0  0
   -6.6188    3.1067   -2.2108 H   0  0  0  0  0  0  0  0  0  0  0  0
   -7.1891   -0.8990   -0.7644 H   0  0  0  0  0  0  0  0  0  0  0  0
   -7.8484    0.9532   -2.2775 H   0  0  0  0  0  0  0  0  0  0  0  0
  1 15  2  0  0  0  0
  2 21  1  0  0  0  0
  2 24  1  0  0  0  0
  3 23  1  0  0  0  0
  3 28  1  0  0  0  0
  4 21  2  0  0  0  0
  5 23  2  0  0  0  0
  6 13  1  0  0  0  0
  6 14  1  0  0  0  0
  6 36  1  0  0  0  0
  7 10  1  0  0  0  0
  7 21  1  0  0  0  0
  7 37  1  0  0  0  0
  8 15  1  0  0  0  0
  8 17  1  0  0  0  0
  8 39  1  0  0  0  0
  9 10  1  0  0  0  0
  9 11  1  0  0  0  0
  9 32  1  0  0  0  0
  9 33  1  0  0  0  0
 10 15  1  0  0  0  0
 10 34  1  0  0  0  0
 11 12  1  0  0  0  0
 11 14  2  0  0  0  0
 12 13  1  0  0  0  0
 12 16  2  0  0  0  0
 13 18  2  0  0  0  0
 14 35  1  0  0  0  0
 16 19  1  0  0  0  0
 16 38  1  0  0  0  0
 17 22  1  0  0  0  0
 17 23  1  0  0  0  0
 17 40  1  0  0  0  0
 18 20  1  0  0  0  0
 18 41  1  0  0  0  0
 19 20  2  0  0  0  0
 19 42  1  0  0  0  0
 20 43  1  0  0  0  0
 22 44  1  0  0  0  0
 22 45  1  0  0  0  0
 22 46  1  0  0  0  0
 24 25  1  0  0  0  0
 24 47  1  0  0  0  0
 24 48  1  0  0  0  0
 25 26  2  0  0  0  0
 25 27  1  0  0  0  0
 26 29  1  0  0  0  0
 26 49  1  0  0  0  0
 27 30  2  0  0  0  0
 27 50  1  0  0  0  0
 28 51  1  0  0  0  0
 28 52  1  0  0  0  0
 28 53  1  0  0  0  0
 29 31  2  0  0  0  0
 29 54  1  0  0  0  0
 30 31  1  0  0  0  0
 30 55  1  0  0  0  0
 31 56  1  0  0  0  0
M  END
> <PUBCHEM_COMPOUND_CID>
582788

> <PUBCHEM_CONFORMER_RMSD>
1.4

> <PUBCHEM_CONFORMER_DIVERSEORDER>
2
126
257
122
180
9
30
102
118
14
25
204
100
133
183
107
188
198
253
170
268
10
260
225
267
132
175
197
16
166
182
203
185
106
213
98
59
211
8
28
46
67
259
15
186
105
21
127
73
159
155
235
19
157
167
60
221
173
151
129
55
123
266
231
85
4
58
12
234
195
162
124
246
110
228
11
238
210
101
104
97
178
39
76
163
93
120
263
1
83
90
174
199
130
112
172
131
44
169
18
47
22
145
29
62
176
223
75
79
3
150
252
114
227
33
143
57
184
147
42
164
5
181
116
49
87
66
206
99
247
208
230
255
72
89
34
31
261
154
196
256
200
51
78
135
94
192
205
229
136
190
239
241
138
165
148
6
193
91
50
187
52
45
54
128
113
222
13
56
20
65
125
119
134
262
88
32
137
80
158
251
26
194
23
84
24
171
41
265
146
115
216
27
214
149
226
140
7
68
38
109
95
43
264
37
108
86
212
63
96
74
168
258
92
232
217
220
141
245
156
160
69
71
153
152
161
17
243
254
121
103
36
117
81
237
219
111
240
191
248
202
249
207
70
64
144
215
77
177
40
142
236
35
61
48
82
189
242
179
233
139
53
209
224
244
250
218
201

> <PUBCHEM_MMFF94_PARTIAL_CHARGES>
42
1 -0.57
10 0.36
11 -0.18
13 -0.15
14 -0.3
15 0.57
16 -0.15
17 0.36
18 -0.15
19 -0.15
2 -0.43
20 -0.15
21 0.78
23 0.66
24 0.42
25 -0.14
26 -0.15
27 -0.15
28 0.28
29 -0.15
3 -0.43
30 -0.15
31 -0.15
35 0.15
36 0.27
37 0.37
38 0.15
39 0.37
4 -0.57
41 0.15
42 0.15
43 0.15
49 0.15
5 -0.57
50 0.15
54 0.15
55 0.15
56 0.15
6 0.03
7 -0.73
8 -0.73
9 0.18

> <PUBCHEM_EFFECTIVE_ROTOR_COUNT>
12

> <PUBCHEM_PHARMACOPHORE_FEATURES>
10
1 1 acceptor
1 4 acceptor
1 5 acceptor
1 6 cation
1 6 donor
1 7 donor
1 8 donor
5 6 11 12 13 14 rings
6 12 13 16 18 19 20 rings
6 25 26 27 29 30 31 rings

> <PUBCHEM_HEAVY_ATOM_COUNT>
31

> <PUBCHEM_ATOM_DEF_STEREO_COUNT>
0

> <PUBCHEM_ATOM_UDEF_STEREO_COUNT>
2

> <PUBCHEM_BOND_DEF_STEREO_COUNT>
0

> <PUBCHEM_BOND_UDEF_STEREO_COUNT>
0

> <PUBCHEM_ISOTOPIC_ATOM_COUNT>
0

> <PUBCHEM_COMPONENT_COUNT>
1

> <PUBCHEM_CACTVS_TAUTO_COUNT>
4

> <PUBCHEM_CONFORMER_ID>
0008E48400000002

> <PUBCHEM_MMFF94_ENERGY>
62.1198

> <PUBCHEM_FEATURE_SELFOVERLAP>
50.836

> <PUBCHEM_SHAPE_FINGERPRINT>
11135926 11 18335977645294753073
11136131 41 18270971265874755986
11719270 70 18337401533609861866
11991303 11 18270960141908789863
12788726 201 17904187136944244834
13150687 139 18411975880031261926
13692114 37 18116170920794297162
13911987 19 18409446994866910233
13968360 50 18411984697477989514
14767858 380 18186804698840100241
15131766 46 15337120016673995228
15276724 80 17833259827326168996
15961568 22 17703792556842621933
17138139 8 17824004285026190631
18681886 176 18341898450385008897
21344244 246 18261949769306349974
21521239 73 17895188956978361916
21583282 1 17846488275686307838
21860390 5 16702291361332715669
22121540 332 17273710938331865716
23559900 14 17974588076402520657
23576562 1 18057591076524833684
249057 3 18411696548687019108
3103668 31 18120377553888746079
38695281 34 18411980282067057804
4017518 198 18334848434221593206
4058900 60 18341894142980274995
4409770 3 18263071124710532091
46194498 28 18055360386622691549
563151 97 18263352767070128785
6691757 9 18187071842101353056

> <PUBCHEM_SHAPE_MULTIPOLES>
593.68
16.66
5.09
1.47
0.88
6.64
-0.3
-17.76
8.42
-0.76
1.41
-0.76
-0.5
-0.08

> <PUBCHEM_SHAPE_SELFOVERLAP>
1264.557

> <PUBCHEM_SHAPE_VOLUME>
329.8

> <PUBCHEM_COORDINATE_TYPE>
2
5
10

$$$$

