26124
  -OEChem-07051213003D

 34 35  0     0  0  0  0  0  0999 V2000
    2.0613   -0.5597   -2.4069 S   0  0  0  0  0  0  0  0  0  0  0  0
    2.1844   -0.1444   -0.5053 P   0  0  0  0  0  0  0  0  0  0  0  0
    1.2108    1.0274    0.0553 O   0  0  0  0  0  0  0  0  0  0  0  0
    1.8279   -1.3639    0.5134 O   0  0  0  0  0  0  0  0  0  0  0  0
    3.6357    0.3199    0.0649 O   0  0  0  0  0  0  0  0  0  0  0  0
   -0.7713   -0.1324   -0.2867 N   0  0  0  0  0  0  0  0  0  0  0  0
   -2.1957    2.0298    0.7208 N   0  0  0  0  0  0  0  0  0  0  0  0
   -2.1128   -0.1725   -0.2063 C   0  0  0  0  0  0  0  0  0  0  0  0
   -2.8342    0.9224    0.3040 C   0  0  0  0  0  0  0  0  0  0  0  0
   -0.1515    0.9843    0.1356 C   0  0  0  0  0  0  0  0  0  0  0  0
    2.4781   -2.6157    0.3705 C   0  0  0  0  0  0  0  0  0  0  0  0
    4.1717    1.5766   -0.3129 C   0  0  0  0  0  0  0  0  0  0  0  0
   -2.8073   -1.3035   -0.6294 C   0  0  0  0  0  0  0  0  0  0  0  0
   -4.2233    0.8457    0.3725 C   0  0  0  0  0  0  0  0  0  0  0  0
   -0.8537    2.0501    0.6323 C   0  0  0  0  0  0  0  0  0  0  0  0
   -4.1976   -1.3699   -0.5565 C   0  0  0  0  0  0  0  0  0  0  0  0
   -4.9086   -0.2907   -0.0534 C   0  0  0  0  0  0  0  0  0  0  0  0
    1.9664   -3.5616    1.4359 C   0  0  0  0  0  0  0  0  0  0  0  0
    5.5195    1.7579    0.3521 C   0  0  0  0  0  0  0  0  0  0  0  0
    2.2667   -3.0340   -0.6174 H   0  0  0  0  0  0  0  0  0  0  0  0
    3.5586   -2.4754    0.4736 H   0  0  0  0  0  0  0  0  0  0  0  0
    4.2827    1.6144   -1.4006 H   0  0  0  0  0  0  0  0  0  0  0  0
    3.4897    2.3728    0.0002 H   0  0  0  0  0  0  0  0  0  0  0  0
   -2.2616   -2.1573   -1.0261 H   0  0  0  0  0  0  0  0  0  0  0  0
   -4.7939    1.6852    0.7651 H   0  0  0  0  0  0  0  0  0  0  0  0
   -0.3695    2.9560    0.9761 H   0  0  0  0  0  0  0  0  0  0  0  0
   -4.7192   -2.2611   -0.8917 H   0  0  0  0  0  0  0  0  0  0  0  0
    2.4487   -4.5398    1.3548 H   0  0  0  0  0  0  0  0  0  0  0  0
    2.1561   -3.1556    2.4350 H   0  0  0  0  0  0  0  0  0  0  0  0
    0.8829   -3.6928    1.3465 H   0  0  0  0  0  0  0  0  0  0  0  0
    5.9625    2.7203    0.0816 H   0  0  0  0  0  0  0  0  0  0  0  0
    5.4217    1.7073    1.4416 H   0  0  0  0  0  0  0  0  0  0  0  0
    6.2058    0.9573    0.0569 H   0  0  0  0  0  0  0  0  0  0  0  0
   -5.9919   -0.3296    0.0088 H   0  0  0  0  0  0  0  0  0  0  0  0
  1  2  2  0  0  0  0
  2  3  1  0  0  0  0
  2  4  1  0  0  0  0
  2  5  1  0  0  0  0
  3 10  1  0  0  0  0
  4 11  1  0  0  0  0
  5 12  1  0  0  0  0
  6  8  1  0  0  0  0
  6 10  2  0  0  0  0
  7  9  1  0  0  0  0
  7 15  2  0  0  0  0
  8  9  1  0  0  0  0
  8 13  2  0  0  0  0
  9 14  2  0  0  0  0
 10 15  1  0  0  0  0
 11 18  1  0  0  0  0
 11 20  1  0  0  0  0
 11 21  1  0  0  0  0
 12 19  1  0  0  0  0
 12 22  1  0  0  0  0
 12 23  1  0  0  0  0
 13 16  1  0  0  0  0
 13 24  1  0  0  0  0
 14 17  1  0  0  0  0
 14 25  1  0  0  0  0
 15 26  1  0  0  0  0
 16 17  2  0  0  0  0
 16 27  1  0  0  0  0
 17 34  1  0  0  0  0
 18 28  1  0  0  0  0
 18 29  1  0  0  0  0
 18 30  1  0  0  0  0
 19 31  1  0  0  0  0
 19 32  1  0  0  0  0
 19 33  1  0  0  0  0
M  END
> <PUBCHEM_COMPOUND_CID>
26124

> <PUBCHEM_CONFORMER_RMSD>
0.8

> <PUBCHEM_CONFORMER_DIVERSEORDER>
1
32
21
27
6
4
17
10
13
15
3
2
11
8
9
35
34
19
20
30
44
36
41
29
22
33
40
12
25
28
42
39
38
14
31
7
16
23
24
18
26
43
37
5

> <PUBCHEM_MMFF94_PARTIAL_CHARGES>
22
1 -0.68
10 0.39
11 0.28
12 0.28
13 -0.15
14 -0.15
15 0.16
16 -0.15
17 -0.15
2 1.49
24 0.15
25 0.15
26 0.15
27 0.15
3 -0.35
34 0.15
4 -0.55
5 -0.55
6 -0.62
7 -0.62
8 0.31
9 0.31

> <PUBCHEM_EFFECTIVE_ROTOR_COUNT>
6

> <PUBCHEM_PHARMACOPHORE_FEATURES>
3
1 7 acceptor
6 6 7 8 9 10 15 rings
6 8 9 13 14 16 17 rings

> <PUBCHEM_HEAVY_ATOM_COUNT>
19

> <PUBCHEM_ATOM_DEF_STEREO_COUNT>
0

> <PUBCHEM_ATOM_UDEF_STEREO_COUNT>
0

> <PUBCHEM_BOND_DEF_STEREO_COUNT>
0

> <PUBCHEM_BOND_UDEF_STEREO_COUNT>
0

> <PUBCHEM_ISOTOPIC_ATOM_COUNT>
0

> <PUBCHEM_COMPONENT_COUNT>
1

> <PUBCHEM_CACTVS_TAUTO_COUNT>
1

> <PUBCHEM_CONFORMER_ID>
0000660C00000001

> <PUBCHEM_MMFF94_ENERGY>
34.9699

> <PUBCHEM_FEATURE_SELFOVERLAP>
15.26

> <PUBCHEM_SHAPE_FINGERPRINT>
10090160 65 18343024346238814516
11578080 2 17915190219843572804
12670545 47 15719687510386880663
12788726 201 17749666398156002657
14252887 29 17822279163607942527
14341114 328 18334859394360381712
14787075 74 18189336762676539320
15196674 1 18334010614185705573
15375462 189 18408603669300141243
20510252 161 17677041464687126961
20567600 347 18342173350262141690
20645477 70 18334856159886303615
21054139 6 18267310837120315622
21267235 1 18188765034057495183
21421861 104 18268992149354900546
23402539 116 18335424508866804020
23557571 272 18186791491742065412
23559900 14 17679292229080962454
2871803 45 18408885122627922540
34934 24 18333452036619832901
474 4 18272363127815918500
5104073 3 18337946904742156689
5486654 2 18339078164789328436
7097593 13 17836084854955543178
7364860 26 18338233898905049994
9709674 26 18186790375134438519

> <PUBCHEM_SHAPE_MULTIPOLES>
371.14
9.82
2.89
1.25
0.39
2.21
0.69
-2.42
-0.1
2.47
-1.47
0.91
0.61
-1.07

> <PUBCHEM_SHAPE_SELFOVERLAP>
746.258

> <PUBCHEM_SHAPE_VOLUME>
220.3

> <PUBCHEM_COORDINATE_TYPE>
2
5
10

$$$$

