13727
  -OEChem-06241222402D

 45 46  0     0  0  0  0  0  0999 V2000
    2.9538    0.0000    0.0000 Cl  0  5  0  0  0  0  0  0  0  0  0  0
    4.0650    5.8410    0.0000 N   0  3  0  0  0  0  0  0  0  0  0  0
    3.5650    4.9749    0.0000 C   0  0  0  0  0  0  0  0  0  0  0  0
    2.6990    4.4749    0.0000 C   0  0  0  0  0  0  0  0  0  0  0  0
    4.4310    4.4749    0.0000 C   0  0  0  0  0  0  0  0  0  0  0  0
    4.9310    5.3410    0.0000 C   0  0  0  0  0  0  0  0  0  0  0  0
    4.0650    6.8410    0.0000 C   0  0  0  0  0  0  0  0  0  0  0  0
    4.4310    3.4749    0.0000 C   0  0  0  0  0  0  0  0  0  0  0  0
    2.6990    3.4749    0.0000 C   0  0  0  0  0  0  0  0  0  0  0  0
    2.5802    5.1486    0.0000 C   0  0  0  0  0  0  0  0  0  0  0  0
    3.5650    2.9749    0.0000 C   0  0  0  0  0  0  0  0  0  0  0  0
    5.7970    5.8410    0.0000 C   0  0  0  0  0  0  0  0  0  0  0  0
    4.9310    7.3410    0.0000 C   0  0  0  0  0  0  0  0  0  0  0  0
    5.7970    6.8410    0.0000 C   0  0  0  0  0  0  0  0  0  0  0  0
    2.2382    6.0883    0.0000 C   0  0  0  0  0  0  0  0  0  0  0  0
    1.9374    4.3826    0.0000 C   0  0  0  0  0  0  0  0  0  0  0  0
    1.2534    6.2619    0.0000 C   0  0  0  0  0  0  0  0  0  0  0  0
    0.9526    4.5562    0.0000 C   0  0  0  0  0  0  0  0  0  0  0  0
    0.6106    5.4959    0.0000 C   0  0  0  0  0  0  0  0  0  0  0  0
    3.1254    6.1831    0.0000 H   0  0  0  0  0  0  0  0  0  0  0  0
    2.4869    5.0575    0.0000 H   0  0  0  0  0  0  0  0  0  0  0  0
    2.0884    4.3673    0.0000 H   0  0  0  0  0  0  0  0  0  0  0  0
    5.0416    4.3673    0.0000 H   0  0  0  0  0  0  0  0  0  0  0  0
    4.6431    5.0575    0.0000 H   0  0  0  0  0  0  0  0  0  0  0  0
    4.5325    4.8660    0.0000 H   0  0  0  0  0  0  0  0  0  0  0  0
    5.3296    4.8660    0.0000 H   0  0  0  0  0  0  0  0  0  0  0  0
    3.8530    7.4236    0.0000 H   0  0  0  0  0  0  0  0  0  0  0  0
    3.4544    6.7333    0.0000 H   0  0  0  0  0  0  0  0  0  0  0  0
    2.0884    3.5826    0.0000 H   0  0  0  0  0  0  0  0  0  0  0  0
    2.4869    2.8923    0.0000 H   0  0  0  0  0  0  0  0  0  0  0  0
    4.6431    2.8923    0.0000 H   0  0  0  0  0  0  0  0  0  0  0  0
    5.0416    3.5826    0.0000 H   0  0  0  0  0  0  0  0  0  0  0  0
    6.0091    5.2584    0.0000 H   0  0  0  0  0  0  0  0  0  0  0  0
    6.4076    5.9486    0.0000 H   0  0  0  0  0  0  0  0  0  0  0  0
    5.3296    7.8159    0.0000 H   0  0  0  0  0  0  0  0  0  0  0  0
    4.5325    7.8159    0.0000 H   0  0  0  0  0  0  0  0  0  0  0  0
    3.1665    2.5000    0.0000 H   0  0  0  0  0  0  0  0  0  0  0  0
    3.9635    2.5000    0.0000 H   0  0  0  0  0  0  0  0  0  0  0  0
    6.4076    6.7333    0.0000 H   0  0  0  0  0  0  0  0  0  0  0  0
    6.0091    7.4236    0.0000 H   0  0  0  0  0  0  0  0  0  0  0  0
    2.6367    6.5632    0.0000 H   0  0  0  0  0  0  0  0  0  0  0  0
    2.1494    3.8000    0.0000 H   0  0  0  0  0  0  0  0  0  0  0  0
    1.0413    6.8445    0.0000 H   0  0  0  0  0  0  0  0  0  0  0  0
    0.5541    4.0812    0.0000 H   0  0  0  0  0  0  0  0  0  0  0  0
    0.0000    5.6035    0.0000 H   0  0  0  0  0  0  0  0  0  0  0  0
  2  3  1  0  0  0  0
  2  6  1  0  0  0  0
  2  7  1  0  0  0  0
  2 20  1  0  0  0  0
  3  4  1  0  0  0  0
  3  5  1  0  0  0  0
  3 10  1  0  0  0  0
  4  9  1  0  0  0  0
  4 21  1  0  0  0  0
  4 22  1  0  0  0  0
  5  8  1  0  0  0  0
  5 23  1  0  0  0  0
  5 24  1  0  0  0  0
  6 12  1  0  0  0  0
  6 25  1  0  0  0  0
  6 26  1  0  0  0  0
  7 13  1  0  0  0  0
  7 27  1  0  0  0  0
  7 28  1  0  0  0  0
  8 11  1  0  0  0  0
  8 31  1  0  0  0  0
  8 32  1  0  0  0  0
  9 11  1  0  0  0  0
  9 29  1  0  0  0  0
  9 30  1  0  0  0  0
 10 15  2  0  0  0  0
 10 16  1  0  0  0  0
 11 37  1  0  0  0  0
 11 38  1  0  0  0  0
 12 14  1  0  0  0  0
 12 33  1  0  0  0  0
 12 34  1  0  0  0  0
 13 14  1  0  0  0  0
 13 35  1  0  0  0  0
 13 36  1  0  0  0  0
 14 39  1  0  0  0  0
 14 40  1  0  0  0  0
 15 17  1  0  0  0  0
 15 41  1  0  0  0  0
 16 18  2  0  0  0  0
 16 42  1  0  0  0  0
 17 19  2  0  0  0  0
 17 43  1  0  0  0  0
 18 19  1  0  0  0  0
 18 44  1  0  0  0  0
 19 45  1  0  0  0  0
M  CHG  2   1  -1   2   1
M  END
> <PUBCHEM_COMPOUND_CID>
13727

> <PUBCHEM_COMPOUND_CANONICALIZED>
1

> <PUBCHEM_CACTVS_COMPLEXITY>
242

> <PUBCHEM_CACTVS_HBOND_ACCEPTOR>
1

> <PUBCHEM_CACTVS_HBOND_DONOR>
1

> <PUBCHEM_CACTVS_ROTATABLE_BOND>
2

> <PUBCHEM_CACTVS_SUBSKEYS>
AAADceB6AAAEAAAAAAAAAAAAAAAAAAAAAAA8YIAAAAAAAAABAAAAHAAQAAAADIjBGAQwAIPAAACAAiBCAACCAAAgAAAIiIAIBIgIICKAkRGEIAhgkACIiAcQgMAOgAAAAAAAAAAAAAAAAAAAAAAAAAAAAA==

> <PUBCHEM_IUPAC_OPENEYE_NAME>
1-(1-phenylcyclohexyl)piperidin-1-ium chloride

> <PUBCHEM_IUPAC_CAS_NAME>
1-(1-phenylcyclohexyl)piperidin-1-ium chloride

> <PUBCHEM_IUPAC_NAME>
1-(1-phenylcyclohexyl)piperidin-1-ium chloride

> <PUBCHEM_IUPAC_SYSTEMATIC_NAME>
1-(1-phenylcyclohexyl)piperidin-1-ium chloride

> <PUBCHEM_IUPAC_TRADITIONAL_NAME>
1-(1-phenylcyclohexyl)piperidin-1-ium chloride

> <PUBCHEM_IUPAC_INCHI>
InChI=1S/C17H25N.ClH/c1-4-10-16(11-5-1)17(12-6-2-7-13-17)18-14-8-3-9-15-18;/h1,4-5,10-11H,2-3,6-9,12-15H2;1H

> <PUBCHEM_IUPAC_INCHIKEY>
BUAJNGPDPGKBGV-UHFFFAOYSA-N

> <PUBCHEM_EXACT_MASS>
279.175378

> <PUBCHEM_MOLECULAR_FORMULA>
C17H26ClN

> <PUBCHEM_MOLECULAR_WEIGHT>
279.84804

> <PUBCHEM_OPENEYE_CAN_SMILES>
C1CCC(CC1)(C2=CC=CC=C2)[NH+]3CCCCC3.[Cl-]

> <PUBCHEM_OPENEYE_ISO_SMILES>
C1CCC(CC1)(C2=CC=CC=C2)[NH+]3CCCCC3.[Cl-]

> <PUBCHEM_CACTVS_TPSA>
4.4

> <PUBCHEM_MONOISOTOPIC_WEIGHT>
279.175378

> <PUBCHEM_TOTAL_CHARGE>
0

> <PUBCHEM_HEAVY_ATOM_COUNT>
19

> <PUBCHEM_ATOM_DEF_STEREO_COUNT>
0

> <PUBCHEM_ATOM_UDEF_STEREO_COUNT>
0

> <PUBCHEM_BOND_DEF_STEREO_COUNT>
0

> <PUBCHEM_BOND_UDEF_STEREO_COUNT>
0

> <PUBCHEM_ISOTOPIC_ATOM_COUNT>
0

> <PUBCHEM_COMPONENT_COUNT>
2

> <PUBCHEM_CACTVS_TAUTO_COUNT>
1

> <PUBCHEM_COORDINATE_TYPE>
1
5
255

> <PUBCHEM_BONDANNOTATIONS>
10  15  8
10  16  8
15  17  8
16  18  8
17  19  8
18  19  8

$$$$

