5280721
  -OEChem-07051212493D

 14 14  0     0  0  0  0  0  0999 V2000
    3.6494    0.9928   -0.0005 Cl  0  0  0  0  0  0  0  0  0  0  0  0
    0.1767   -0.8556    0.0007 O   0  0  0  0  0  0  0  0  0  0  0  0
    2.2629   -1.8272    0.0004 O   0  0  0  0  0  0  0  0  0  0  0  0
   -3.8137    0.5995    0.0007 O   0  0  0  0  0  0  0  0  0  0  0  0
   -2.5025   -1.2604   -0.0011 O   0  0  0  0  0  0  0  0  0  0  0  0
   -0.1989    0.4835    0.0003 C   0  0  0  0  0  0  0  0  0  0  0  0
    0.9504    1.3201    0.0004 C   0  0  0  0  0  0  0  0  0  0  0  0
    2.0254    0.5493   -0.0005 C   0  0  0  0  0  0  0  0  0  0  0  0
    1.5511   -0.8362    0.0001 C   0  0  0  0  0  0  0  0  0  0  0  0
   -1.4746    0.8784   -0.0003 C   0  0  0  0  0  0  0  0  0  0  0  0
   -2.6261   -0.0442   -0.0003 C   0  0  0  0  0  0  0  0  0  0  0  0
    0.9359    2.3987    0.0006 H   0  0  0  0  0  0  0  0  0  0  0  0
   -1.7127    1.9392   -0.0006 H   0  0  0  0  0  0  0  0  0  0  0  0
   -4.5708   -0.0243    0.0008 H   0  0  0  0  0  0  0  0  0  0  0  0
  1  8  1  0  0  0  0
  2  6  1  0  0  0  0
  2  9  1  0  0  0  0
  3  9  2  0  0  0  0
  4 11  1  0  0  0  0
  4 14  1  0  0  0  0
  5 11  2  0  0  0  0
  6  7  1  0  0  0  0
  6 10  2  0  0  0  0
  7  8  2  0  0  0  0
  7 12  1  0  0  0  0
  8  9  1  0  0  0  0
 10 11  1  0  0  0  0
 10 13  1  0  0  0  0
M  END
> <PUBCHEM_COMPOUND_CID>
5280721

> <PUBCHEM_CONFORMER_RMSD>
0.4

> <PUBCHEM_CONFORMER_DIVERSEORDER>
1
2

> <PUBCHEM_MMFF94_PARTIAL_CHARGES>
14
1 -0.14
10 -0.14
11 0.71
12 0.15
13 0.15
14 0.5
2 -0.23
3 -0.57
4 -0.65
5 -0.57
6 0.08
7 -0.15
8 0.15
9 0.71

> <PUBCHEM_EFFECTIVE_ROTOR_COUNT>
1.2

> <PUBCHEM_PHARMACOPHORE_FEATURES>
5
1 3 acceptor
1 4 acceptor
1 5 acceptor
3 4 5 11 anion
5 2 6 7 8 9 rings

> <PUBCHEM_HEAVY_ATOM_COUNT>
11

> <PUBCHEM_ATOM_DEF_STEREO_COUNT>
0

> <PUBCHEM_ATOM_UDEF_STEREO_COUNT>
0

> <PUBCHEM_BOND_DEF_STEREO_COUNT>
1

> <PUBCHEM_BOND_UDEF_STEREO_COUNT>
0

> <PUBCHEM_ISOTOPIC_ATOM_COUNT>
0

> <PUBCHEM_COMPONENT_COUNT>
1

> <PUBCHEM_CACTVS_TAUTO_COUNT>
1

> <PUBCHEM_CONFORMER_ID>
005093D100000001

> <PUBCHEM_MMFF94_ENERGY>
18.1283

> <PUBCHEM_FEATURE_SELFOVERLAP>
25.429

> <PUBCHEM_SHAPE_FINGERPRINT>
10219947 1 18202002097256969764
11062470 55 17704075079395128421
12897270 3 18410573963777055877
13380535 76 18341332202138758002
14325111 11 18410575063257022080
15775835 57 18334855000387311293
16945 1 18410856521096068068
20201158 50 18413390921231049771
20645477 70 18337959003623188223
20871998 22 17974005347613491814
23235685 24 18340774749622104144
23402655 69 18335714870695333197
23552423 10 18271804669886280362
2748010 2 18267870664721995116
3312278 4 18335698313031715985
53812653 166 18261679181723412600
7364860 26 18261392299636031662

> <PUBCHEM_SHAPE_MULTIPOLES>
204.77
5.55
1.49
0.58
1.73
0.47
0
-0.71
0
-0.63
0
-0.05
-0.04
0

> <PUBCHEM_SHAPE_SELFOVERLAP>
423.929

> <PUBCHEM_SHAPE_VOLUME>
118.3

> <PUBCHEM_COORDINATE_TYPE>
2
5
10

$$$$

