12082
  -OEChem-06261206293D

 20 20  0     0  0  0  0  0  0999 V2000
   -2.4041   -0.8408   -0.0003 O   0  0  0  0  0  0  0  0  0  0  0  0
   -2.3260    1.4598    0.0014 O   0  0  0  0  0  0  0  0  0  0  0  0
    3.8614   -0.3130    0.0012 N   0  0  0  0  0  0  0  0  0  0  0  0
   -0.3087    0.1887   -0.0005 C   0  0  0  0  0  0  0  0  0  0  0  0
    2.4610   -0.1443   -0.0004 C   0  0  0  0  0  0  0  0  0  0  0  0
    0.5278    1.3048   -0.0009 C   0  0  0  0  0  0  0  0  0  0  0  0
    0.2395   -1.0939    0.0000 C   0  0  0  0  0  0  0  0  0  0  0  0
    1.9127    1.1383   -0.0009 C   0  0  0  0  0  0  0  0  0  0  0  0
    1.6244   -1.2603    0.0002 C   0  0  0  0  0  0  0  0  0  0  0  0
   -1.7528    0.3624    0.0007 C   0  0  0  0  0  0  0  0  0  0  0  0
   -3.8352   -0.8017   -0.0005 C   0  0  0  0  0  0  0  0  0  0  0  0
    0.1213    2.3128   -0.0010 H   0  0  0  0  0  0  0  0  0  0  0  0
   -0.3724   -1.9915    0.0007 H   0  0  0  0  0  0  0  0  0  0  0  0
    2.5543    2.0158   -0.0010 H   0  0  0  0  0  0  0  0  0  0  0  0
    2.0401   -2.2648    0.0010 H   0  0  0  0  0  0  0  0  0  0  0  0
    4.2592   -1.2428   -0.0005 H   0  0  0  0  0  0  0  0  0  0  0  0
    4.4687    0.4957   -0.0014 H   0  0  0  0  0  0  0  0  0  0  0  0
   -4.2039   -1.8308   -0.0009 H   0  0  0  0  0  0  0  0  0  0  0  0
   -4.1983   -0.2964   -0.9003 H   0  0  0  0  0  0  0  0  0  0  0  0
   -4.1986   -0.2970    0.8996 H   0  0  0  0  0  0  0  0  0  0  0  0
  1 10  1  0  0  0  0
  1 11  1  0  0  0  0
  2 10  2  0  0  0  0
  3  5  1  0  0  0  0
  3 16  1  0  0  0  0
  3 17  1  0  0  0  0
  4  6  2  0  0  0  0
  4  7  1  0  0  0  0
  4 10  1  0  0  0  0
  5  8  2  0  0  0  0
  5  9  1  0  0  0  0
  6  8  1  0  0  0  0
  6 12  1  0  0  0  0
  7  9  2  0  0  0  0
  7 13  1  0  0  0  0
  8 14  1  0  0  0  0
  9 15  1  0  0  0  0
 11 18  1  0  0  0  0
 11 19  1  0  0  0  0
 11 20  1  0  0  0  0
M  END
> <PUBCHEM_COMPOUND_CID>
12082

> <PUBCHEM_CONFORMER_RMSD>
0.4

> <PUBCHEM_CONFORMER_DIVERSEORDER>
1
2

> <PUBCHEM_MMFF94_PARTIAL_CHARGES>
17
1 -0.43
10 0.63
11 0.28
12 0.15
13 0.15
14 0.15
15 0.15
16 0.4
17 0.4
2 -0.57
3 -0.9
4 0.09
5 0.1
6 -0.15
7 -0.15
8 -0.15
9 -0.15

> <PUBCHEM_EFFECTIVE_ROTOR_COUNT>
2

> <PUBCHEM_PHARMACOPHORE_FEATURES>
4
1 2 acceptor
1 3 cation
1 3 donor
6 4 5 6 7 8 9 rings

> <PUBCHEM_HEAVY_ATOM_COUNT>
11

> <PUBCHEM_ATOM_DEF_STEREO_COUNT>
0

> <PUBCHEM_ATOM_UDEF_STEREO_COUNT>
0

> <PUBCHEM_BOND_DEF_STEREO_COUNT>
0

> <PUBCHEM_BOND_UDEF_STEREO_COUNT>
0

> <PUBCHEM_ISOTOPIC_ATOM_COUNT>
0

> <PUBCHEM_COMPONENT_COUNT>
1

> <PUBCHEM_CACTVS_TAUTO_COUNT>
2

> <PUBCHEM_CONFORMER_ID>
00002F3200000001

> <PUBCHEM_MMFF94_ENERGY>
40.6364

> <PUBCHEM_FEATURE_SELFOVERLAP>
20.297

> <PUBCHEM_SHAPE_FINGERPRINT>
10857977 72 18409460188610167952
11062470 55 12823300091281064311
12032990 46 18336259124244566998
12897270 3 18412547591649388567
12932764 1 17168155541173743471
14325111 11 18410573989657609888
16945 1 18410855425810705894
20201158 50 18413670205832773579
21040471 1 18338798910178834372
21501925 9 18340217335907719490
23402655 69 18193010420383549053
23552423 10 18271803553173541509
2748010 2 18265051525340024014
5084963 1 18334856095435231776
528886 8 18338241569152040920
8809292 202 18129938971164248739

> <PUBCHEM_SHAPE_MULTIPOLES>
209.66
5.49
1.45
0.59
1.67
0.19
0
-1.09
0
0.07
0
-0.01
0
0

> <PUBCHEM_SHAPE_SELFOVERLAP>
435.763

> <PUBCHEM_SHAPE_VOLUME>
120

> <PUBCHEM_COORDINATE_TYPE>
2
5
10

$$$$

