122294
  -OEChem-07051213042D

 97 97  0     1  0  0  0  0  0999 V2000
   16.3933   -2.7500    0.0000 O   0  0  0  0  0  0  0  0  0  0  0  0
    9.4651    9.2500    0.0000 O   0  0  0  0  0  0  0  0  0  0  0  0
   15.5273   -6.2500    0.0000 O   0  0  0  0  0  0  0  0  0  0  0  0
   17.2594   -3.2500    0.0000 O   0  0  0  0  0  0  0  0  0  0  0  0
   12.0632   -7.2500    0.0000 O   0  0  0  0  0  0  0  0  0  0  0  0
   13.7953  -10.2500    0.0000 O   0  0  0  0  0  0  0  0  0  0  0  0
   12.0632    1.7500    0.0000 N   0  0  0  0  0  0  0  0  0  0  0  0
   10.3312    4.7500    0.0000 N   0  0  0  0  0  0  0  0  0  0  0  0
   14.6613   -2.7500    0.0000 N   0  0  0  0  0  0  0  0  0  0  0  0
    8.5991    7.7500    0.0000 N   0  0  0  0  0  0  0  0  0  0  0  0
   14.6613   -4.7500    0.0000 N   0  0  0  0  0  0  0  0  0  0  0  0
    7.7331   10.2500    0.0000 N   0  0  0  0  0  0  0  0  0  0  0  0
    4.2690    9.2500    0.0000 N   0  0  0  0  0  0  0  0  0  0  0  0
   18.1254   -4.7500    0.0000 N   0  0  0  0  0  0  0  0  0  0  0  0
    2.5369    9.2500    0.0000 N   0  0  0  0  0  0  0  0  0  0  0  0
    3.4030    7.7500    0.0000 N   0  0  0  0  0  0  0  0  0  0  0  0
   13.7953   -0.2500    0.0000 C   0  0  0  0  0  0  0  0  0  0  0  0
   12.9292    0.2500    0.0000 C   0  0  0  0  0  0  0  0  0  0  0  0
   13.7953   -1.2500    0.0000 C   0  0  0  0  0  0  0  0  0  0  0  0
   12.9292    1.2500    0.0000 C   0  0  0  0  0  0  0  0  0  0  0  0
   12.0632    2.7500    0.0000 C   0  0  0  0  0  0  0  0  0  0  0  0
   11.1972    3.2500    0.0000 C   0  0  0  0  0  0  0  0  0  0  0  0
   14.6613   -1.7500    0.0000 C   0  0  0  0  0  0  0  0  0  0  0  0
   11.1972    4.2500    0.0000 C   0  0  0  0  0  0  0  0  0  0  0  0
   10.3312    5.7500    0.0000 C   0  0  0  0  0  0  0  0  0  0  0  0
    9.4651    6.2500    0.0000 C   0  0  0  0  0  0  0  0  0  0  0  0
    9.4651    7.2500    0.0000 C   0  0  0  0  0  0  0  0  0  0  0  0
    7.7331    9.2500    0.0000 C   0  0  1  0  0  0  0  0  0  0  0  0
   15.5273   -4.2500    0.0000 C   0  0  2  0  0  0  0  0  0  0  0  0
    6.8671    8.7500    0.0000 C   0  0  0  0  0  0  0  0  0  0  0  0
   15.5273   -3.2500    0.0000 C   0  0  0  0  0  0  0  0  0  0  0  0
    6.0010    9.2500    0.0000 C   0  0  0  0  0  0  0  0  0  0  0  0
    8.5991    8.7500    0.0000 C   0  0  0  0  0  0  0  0  0  0  0  0
   16.3933   -4.7500    0.0000 C   0  0  0  0  0  0  0  0  0  0  0  0
    5.1350    8.7500    0.0000 C   0  0  0  0  0  0  0  0  0  0  0  0
   14.6613   -5.7500    0.0000 C   0  0  0  0  0  0  0  0  0  0  0  0
   17.2594   -4.2500    0.0000 C   0  0  0  0  0  0  0  0  0  0  0  0
   13.7953   -6.2500    0.0000 C   0  0  0  0  0  0  0  0  0  0  0  0
   13.7953   -7.2500    0.0000 C   0  0  0  0  0  0  0  0  0  0  0  0
   12.9292   -7.7500    0.0000 C   0  0  0  0  0  0  0  0  0  0  0  0
   14.6613   -7.7500    0.0000 C   0  0  0  0  0  0  0  0  0  0  0  0
    3.4030    8.7500    0.0000 C   0  0  0  0  0  0  0  0  0  0  0  0
   12.9292   -8.7500    0.0000 C   0  0  0  0  0  0  0  0  0  0  0  0
   14.6613   -8.7500    0.0000 C   0  0  0  0  0  0  0  0  0  0  0  0
   13.7953   -9.2500    0.0000 C   0  0  0  0  0  0  0  0  0  0  0  0
   14.4058   -0.3577    0.0000 H   0  0  0  0  0  0  0  0  0  0  0  0
   14.0073    0.3326    0.0000 H   0  0  0  0  0  0  0  0  0  0  0  0
   12.3187    0.3577    0.0000 H   0  0  0  0  0  0  0  0  0  0  0  0
   12.7172   -0.3326    0.0000 H   0  0  0  0  0  0  0  0  0  0  0  0
   13.1847   -1.1423    0.0000 H   0  0  0  0  0  0  0  0  0  0  0  0
   13.5832   -1.8326    0.0000 H   0  0  0  0  0  0  0  0  0  0  0  0
   13.5398    1.1423    0.0000 H   0  0  0  0  0  0  0  0  0  0  0  0
   13.1413    1.8326    0.0000 H   0  0  0  0  0  0  0  0  0  0  0  0
   12.6738    2.6423    0.0000 H   0  0  0  0  0  0  0  0  0  0  0  0
   12.2753    3.3326    0.0000 H   0  0  0  0  0  0  0  0  0  0  0  0
   10.5866    3.3577    0.0000 H   0  0  0  0  0  0  0  0  0  0  0  0
   10.9851    2.6674    0.0000 H   0  0  0  0  0  0  0  0  0  0  0  0
   15.2719   -1.8577    0.0000 H   0  0  0  0  0  0  0  0  0  0  0  0
   14.8733   -1.1674    0.0000 H   0  0  0  0  0  0  0  0  0  0  0  0
   11.5263    1.4400    0.0000 H   0  0  0  0  0  0  0  0  0  0  0  0
   11.8078    4.1423    0.0000 H   0  0  0  0  0  0  0  0  0  0  0  0
   11.4092    4.8326    0.0000 H   0  0  0  0  0  0  0  0  0  0  0  0
   10.9417    5.6423    0.0000 H   0  0  0  0  0  0  0  0  0  0  0  0
   10.5432    6.3326    0.0000 H   0  0  0  0  0  0  0  0  0  0  0  0
    8.8546    6.3577    0.0000 H   0  0  0  0  0  0  0  0  0  0  0  0
    9.2531    5.6674    0.0000 H   0  0  0  0  0  0  0  0  0  0  0  0
    9.7942    4.4400    0.0000 H   0  0  0  0  0  0  0  0  0  0  0  0
   10.0757    7.1423    0.0000 H   0  0  0  0  0  0  0  0  0  0  0  0
    9.6772    7.8326    0.0000 H   0  0  0  0  0  0  0  0  0  0  0  0
    8.2700    9.5600    0.0000 H   0  0  0  0  0  0  0  0  0  0  0  0
   14.1244   -3.0600    0.0000 H   0  0  0  0  0  0  0  0  0  0  0  0
   15.5273   -4.8700    0.0000 H   0  0  0  0  0  0  0  0  0  0  0  0
    6.4685    8.2750    0.0000 H   0  0  0  0  0  0  0  0  0  0  0  0
    7.2656    8.2750    0.0000 H   0  0  0  0  0  0  0  0  0  0  0  0
    6.3996    9.7250    0.0000 H   0  0  0  0  0  0  0  0  0  0  0  0
    5.6025    9.7250    0.0000 H   0  0  0  0  0  0  0  0  0  0  0  0
    8.0622    7.4400    0.0000 H   0  0  0  0  0  0  0  0  0  0  0  0
   15.9948   -5.2250    0.0000 H   0  0  0  0  0  0  0  0  0  0  0  0
   16.7919   -5.2250    0.0000 H   0  0  0  0  0  0  0  0  0  0  0  0
   14.1244   -4.4400    0.0000 H   0  0  0  0  0  0  0  0  0  0  0  0
    4.7365    8.2750    0.0000 H   0  0  0  0  0  0  0  0  0  0  0  0
    5.5335    8.2750    0.0000 H   0  0  0  0  0  0  0  0  0  0  0  0
    7.1962   10.5600    0.0000 H   0  0  0  0  0  0  0  0  0  0  0  0
    8.2700   10.5600    0.0000 H   0  0  0  0  0  0  0  0  0  0  0  0
   13.5832   -5.6674    0.0000 H   0  0  0  0  0  0  0  0  0  0  0  0
   13.1847   -6.3577    0.0000 H   0  0  0  0  0  0  0  0  0  0  0  0
   18.6623   -4.4400    0.0000 H   0  0  0  0  0  0  0  0  0  0  0  0
   18.1254   -5.3700    0.0000 H   0  0  0  0  0  0  0  0  0  0  0  0
   15.1982   -7.4400    0.0000 H   0  0  0  0  0  0  0  0  0  0  0  0
   12.3923   -9.0600    0.0000 H   0  0  0  0  0  0  0  0  0  0  0  0
   15.1982   -9.0600    0.0000 H   0  0  0  0  0  0  0  0  0  0  0  0
   11.5263   -7.5600    0.0000 H   0  0  0  0  0  0  0  0  0  0  0  0
    2.8660    7.4400    0.0000 H   0  0  0  0  0  0  0  0  0  0  0  0
    3.9399    7.4400    0.0000 H   0  0  0  0  0  0  0  0  0  0  0  0
    2.0000    8.9400    0.0000 H   0  0  0  0  0  0  0  0  0  0  0  0
    2.5369    9.8700    0.0000 H   0  0  0  0  0  0  0  0  0  0  0  0
   14.3322  -10.5600    0.0000 H   0  0  0  0  0  0  0  0  0  0  0  0
  1 31  2  0  0  0  0
  2 33  2  0  0  0  0
  3 36  2  0  0  0  0
  4 37  2  0  0  0  0
  5 40  1  0  0  0  0
  5 92  1  0  0  0  0
  6 45  1  0  0  0  0
  6 97  1  0  0  0  0
  7 20  1  0  0  0  0
  7 21  1  0  0  0  0
  7 60  1  0  0  0  0
  8 24  1  0  0  0  0
  8 25  1  0  0  0  0
  8 67  1  0  0  0  0
  9 23  1  0  0  0  0
  9 31  1  0  0  0  0
  9 71  1  0  0  0  0
 10 27  1  0  0  0  0
 10 33  1  0  0  0  0
 10 77  1  0  0  0  0
 29 11  1  6  0  0  0
 11 36  1  0  0  0  0
 11 80  1  0  0  0  0
 28 12  1  6  0  0  0
 12 83  1  0  0  0  0
 12 84  1  0  0  0  0
 13 35  1  0  0  0  0
 13 42  2  0  0  0  0
 14 37  1  0  0  0  0
 14 87  1  0  0  0  0
 14 88  1  0  0  0  0
 15 42  1  0  0  0  0
 15 95  1  0  0  0  0
 15 96  1  0  0  0  0
 16 42  1  0  0  0  0
 16 93  1  0  0  0  0
 16 94  1  0  0  0  0
 17 18  1  0  0  0  0
 17 19  1  0  0  0  0
 17 46  1  0  0  0  0
 17 47  1  0  0  0  0
 18 20  1  0  0  0  0
 18 48  1  0  0  0  0
 18 49  1  0  0  0  0
 19 23  1  0  0  0  0
 19 50  1  0  0  0  0
 19 51  1  0  0  0  0
 20 52  1  0  0  0  0
 20 53  1  0  0  0  0
 21 22  1  0  0  0  0
 21 54  1  0  0  0  0
 21 55  1  0  0  0  0
 22 24  1  0  0  0  0
 22 56  1  0  0  0  0
 22 57  1  0  0  0  0
 23 58  1  0  0  0  0
 23 59  1  0  0  0  0
 24 61  1  0  0  0  0
 24 62  1  0  0  0  0
 25 26  1  0  0  0  0
 25 63  1  0  0  0  0
 25 64  1  0  0  0  0
 26 27  1  0  0  0  0
 26 65  1  0  0  0  0
 26 66  1  0  0  0  0
 27 68  1  0  0  0  0
 27 69  1  0  0  0  0
 28 30  1  0  0  0  0
 28 33  1  0  0  0  0
 28 70  1  0  0  0  0
 29 31  1  0  0  0  0
 29 34  1  0  0  0  0
 29 72  1  0  0  0  0
 30 32  1  0  0  0  0
 30 73  1  0  0  0  0
 30 74  1  0  0  0  0
 32 35  1  0  0  0  0
 32 75  1  0  0  0  0
 32 76  1  0  0  0  0
 34 37  1  0  0  0  0
 34 78  1  0  0  0  0
 34 79  1  0  0  0  0
 35 81  1  0  0  0  0
 35 82  1  0  0  0  0
 36 38  1  0  0  0  0
 38 39  1  0  0  0  0
 38 85  1  0  0  0  0
 38 86  1  0  0  0  0
 39 40  2  0  0  0  0
 39 41  1  0  0  0  0
 40 43  1  0  0  0  0
 41 44  2  0  0  0  0
 41 89  1  0  0  0  0
 43 45  2  0  0  0  0
 43 90  1  0  0  0  0
 44 45  1  0  0  0  0
 44 91  1  0  0  0  0
M  END
> <PUBCHEM_COMPOUND_CID>
122294

> <PUBCHEM_COMPOUND_CANONICALIZED>
1

> <PUBCHEM_CACTVS_COMPLEXITY>
905

> <PUBCHEM_CACTVS_HBOND_ACCEPTOR>
10

> <PUBCHEM_CACTVS_HBOND_DONOR>
11

> <PUBCHEM_CACTVS_ROTATABLE_BOND>
25

> <PUBCHEM_CACTVS_SUBSKEYS>
AAADcfB7+AAAAAAAAAAAAAAAAAAAAAAAAAAwAAAAAAAAAAABAAAAHgAQCAAADCzBmAQxBoLAAgCoAiFSNAACAAEgIAAIiIGOCIgIZzqC1TOUcAAl1hWImAe/6aSOIAAACAAIAABAAAAQABAAAAAAAAAAAA==

> <PUBCHEM_IUPAC_OPENEYE_NAME>
(2S)-N-[5-[3-[3-[[(2S)-2-amino-5-guanidino-pentanoyl]amino]propylamino]propylamino]pentyl]-2-[[2-(2,4-dihydroxyphenyl)acetyl]amino]butanediamide

> <PUBCHEM_IUPAC_CAS_NAME>
(2S)-N-[5-[3-[3-[[(2S)-2-amino-5-(diaminomethylideneamino)-1-oxopentyl]amino]propylamino]propylamino]pentyl]-2-[[2-(2,4-dihydroxyphenyl)-1-oxoethyl]amino]butanediamide

> <PUBCHEM_IUPAC_NAME>
(2S)-N-[5-[3-[3-[[(2S)-2-amino-5-(diaminomethylideneamino)pentanoyl]amino]propylamino]propylamino]pentyl]-2-[[2-(2,4-dihydroxyphenyl)acetyl]amino]butanediamide

> <PUBCHEM_IUPAC_SYSTEMATIC_NAME>
(2S)-N-[5-[3-[3-[[(2S)-2-azanyl-5-[bis(azanyl)methylideneamino]pentanoyl]amino]propylamino]propylamino]pentyl]-2-[2-[2,4-bis(oxidanyl)phenyl]ethanoylamino]butanediamide

> <PUBCHEM_IUPAC_TRADITIONAL_NAME>
(2S)-N-[5-[3-[3-[[(2S)-2-amino-5-guanidino-pentanoyl]amino]propylamino]propylamino]pentyl]-2-[[2-(2,4-dihydroxyphenyl)acetyl]amino]succinamide

> <PUBCHEM_IUPAC_INCHI>
InChI=1S/C29H52N10O6/c30-22(7-4-15-38-29(32)33)27(44)36-16-6-13-35-12-5-11-34-10-2-1-3-14-37-28(45)23(19-25(31)42)39-26(43)17-20-8-9-21(40)18-24(20)41/h8-9,18,22-23,34-35,40-41H,1-7,10-17,19,30H2,(H2,31,42)(H,36,44)(H,37,45)(H,39,43)(H4,32,33,38)/t22-,23-/m0/s1

> <PUBCHEM_IUPAC_INCHIKEY>
FTNICLJXPYLDAH-GOTSBHOMSA-N

> <PUBCHEM_XLOGP3_AA>
-2.8

> <PUBCHEM_EXACT_MASS>
636.407129

> <PUBCHEM_MOLECULAR_FORMULA>
C29H52N10O6

> <PUBCHEM_MOLECULAR_WEIGHT>
636.78658

> <PUBCHEM_OPENEYE_CAN_SMILES>
C1=CC(=C(C=C1O)O)CC(=O)NC(CC(=O)N)C(=O)NCCCCCNCCCNCCCNC(=O)C(CCCN=C(N)N)N

> <PUBCHEM_OPENEYE_ISO_SMILES>
C1=CC(=C(C=C1O)O)CC(=O)N[C@@H](CC(=O)N)C(=O)NCCCCCNCCCNCCCNC(=O)[C@H](CCCN=C(N)N)N

> <PUBCHEM_CACTVS_TPSA>
285

> <PUBCHEM_MONOISOTOPIC_WEIGHT>
636.407129

> <PUBCHEM_TOTAL_CHARGE>
0

> <PUBCHEM_HEAVY_ATOM_COUNT>
45

> <PUBCHEM_ATOM_DEF_STEREO_COUNT>
2

> <PUBCHEM_ATOM_UDEF_STEREO_COUNT>
0

> <PUBCHEM_BOND_DEF_STEREO_COUNT>
0

> <PUBCHEM_BOND_UDEF_STEREO_COUNT>
0

> <PUBCHEM_ISOTOPIC_ATOM_COUNT>
0

> <PUBCHEM_COMPONENT_COUNT>
1

> <PUBCHEM_CACTVS_TAUTO_COUNT>
432

> <PUBCHEM_COORDINATE_TYPE>
1
5
255

> <PUBCHEM_BONDANNOTATIONS>
29  11  6
28  12  6
39  40  8
39  41  8
40  43  8
41  44  8
43  45  8
44  45  8

$$$$

