5283144
  -OEChem-07051213062D

 58 57  0     1  0  0  0  0  0999 V2000
    6.8671    0.4050    0.0000 O   0  0  0  0  0  0  0  0  0  0  0  0
    6.0010   -2.0950    0.0000 O   0  0  0  0  0  0  0  0  0  0  0  0
   11.1972   -5.0950    0.0000 O   0  0  0  0  0  0  0  0  0  0  0  0
   12.0632   -3.5950    0.0000 O   0  0  0  0  0  0  0  0  0  0  0  0
    6.8671   -0.5950    0.0000 C   0  0  3  0  0  0  0  0  0  0  0  0
    6.0010   -1.0950    0.0000 C   0  0  3  0  0  0  0  0  0  0  0  0
    7.7331   -1.0950    0.0000 C   0  0  0  0  0  0  0  0  0  0  0  0
    5.1350   -0.5950    0.0000 C   0  0  0  0  0  0  0  0  0  0  0  0
    3.4030    3.4050    0.0000 C   0  0  0  0  0  0  0  0  0  0  0  0
    4.2690    3.9050    0.0000 C   0  0  0  0  0  0  0  0  0  0  0  0
    8.5991   -0.5950    0.0000 C   0  0  0  0  0  0  0  0  0  0  0  0
    4.2690   -1.0950    0.0000 C   0  0  0  0  0  0  0  0  0  0  0  0
    3.4030    2.4050    0.0000 C   0  0  0  0  0  0  0  0  0  0  0  0
    9.4651   -2.0950    0.0000 C   0  0  0  0  0  0  0  0  0  0  0  0
    4.2690    4.9050    0.0000 C   0  0  0  0  0  0  0  0  0  0  0  0
    9.4651   -1.0950    0.0000 C   0  0  0  0  0  0  0  0  0  0  0  0
   10.3312   -2.5950    0.0000 C   0  0  0  0  0  0  0  0  0  0  0  0
    3.4030   -0.5950    0.0000 C   0  0  0  0  0  0  0  0  0  0  0  0
    3.4030    0.4050    0.0000 C   0  0  0  0  0  0  0  0  0  0  0  0
    2.5369    1.9050    0.0000 C   0  0  0  0  0  0  0  0  0  0  0  0
    2.5369    0.9050    0.0000 C   0  0  0  0  0  0  0  0  0  0  0  0
   10.3312   -3.5950    0.0000 C   0  0  0  0  0  0  0  0  0  0  0  0
    5.1350    5.4050    0.0000 C   0  0  0  0  0  0  0  0  0  0  0  0
   11.1972   -4.0950    0.0000 C   0  0  0  0  0  0  0  0  0  0  0  0
    6.1309   -0.1700    0.0000 H   0  0  0  0  0  0  0  0  0  0  0  0
    6.7372   -1.5200    0.0000 H   0  0  0  0  0  0  0  0  0  0  0  0
    7.3346   -1.5700    0.0000 H   0  0  0  0  0  0  0  0  0  0  0  0
    8.1316   -1.5700    0.0000 H   0  0  0  0  0  0  0  0  0  0  0  0
    5.5335   -0.1201    0.0000 H   0  0  0  0  0  0  0  0  0  0  0  0
    4.7365   -0.1201    0.0000 H   0  0  0  0  0  0  0  0  0  0  0  0
    3.1909    3.9876    0.0000 H   0  0  0  0  0  0  0  0  0  0  0  0
    2.7924    3.2973    0.0000 H   0  0  0  0  0  0  0  0  0  0  0  0
    4.4810    3.3224    0.0000 H   0  0  0  0  0  0  0  0  0  0  0  0
    4.8796    4.0127    0.0000 H   0  0  0  0  0  0  0  0  0  0  0  0
    8.5991    0.0250    0.0000 H   0  0  0  0  0  0  0  0  0  0  0  0
    4.2690   -1.7150    0.0000 H   0  0  0  0  0  0  0  0  0  0  0  0
    3.6150    1.8224    0.0000 H   0  0  0  0  0  0  0  0  0  0  0  0
    4.0135    2.5127    0.0000 H   0  0  0  0  0  0  0  0  0  0  0  0
    8.8546   -1.9873    0.0000 H   0  0  0  0  0  0  0  0  0  0  0  0
    9.2531   -2.6776    0.0000 H   0  0  0  0  0  0  0  0  0  0  0  0
    4.0569    5.4876    0.0000 H   0  0  0  0  0  0  0  0  0  0  0  0
    3.6584    4.7973    0.0000 H   0  0  0  0  0  0  0  0  0  0  0  0
   10.0021   -0.7850    0.0000 H   0  0  0  0  0  0  0  0  0  0  0  0
   10.9417   -2.7027    0.0000 H   0  0  0  0  0  0  0  0  0  0  0  0
   10.5432   -2.0124    0.0000 H   0  0  0  0  0  0  0  0  0  0  0  0
    7.4040    0.7150    0.0000 H   0  0  0  0  0  0  0  0  0  0  0  0
    5.4641   -2.4050    0.0000 H   0  0  0  0  0  0  0  0  0  0  0  0
    2.8660   -0.9050    0.0000 H   0  0  0  0  0  0  0  0  0  0  0  0
    4.0135    0.2973    0.0000 H   0  0  0  0  0  0  0  0  0  0  0  0
    3.6150    0.9876    0.0000 H   0  0  0  0  0  0  0  0  0  0  0  0
    2.0000    2.2150    0.0000 H   0  0  0  0  0  0  0  0  0  0  0  0
    2.0000    0.5950    0.0000 H   0  0  0  0  0  0  0  0  0  0  0  0
    9.7206   -3.4873    0.0000 H   0  0  0  0  0  0  0  0  0  0  0  0
   10.1191   -4.1776    0.0000 H   0  0  0  0  0  0  0  0  0  0  0  0
    5.4450    4.8681    0.0000 H   0  0  0  0  0  0  0  0  0  0  0  0
    5.6720    5.7150    0.0000 H   0  0  0  0  0  0  0  0  0  0  0  0
    4.8250    5.9419    0.0000 H   0  0  0  0  0  0  0  0  0  0  0  0
   11.7341   -5.4050    0.0000 H   0  0  0  0  0  0  0  0  0  0  0  0
  1  5  1  0  0  0  0
  1 46  1  0  0  0  0
  2  6  1  0  0  0  0
  2 47  1  0  0  0  0
  3 24  1  0  0  0  0
  3 58  1  0  0  0  0
  4 24  2  0  0  0  0
  5  6  1  0  0  0  0
  5  7  1  0  0  0  0
  5 25  1  0  0  0  0
  6  8  1  0  0  0  0
  6 26  1  0  0  0  0
  7 11  1  0  0  0  0
  7 27  1  0  0  0  0
  7 28  1  0  0  0  0
  8 12  1  0  0  0  0
  8 29  1  0  0  0  0
  8 30  1  0  0  0  0
  9 10  1  0  0  0  0
  9 13  1  0  0  0  0
  9 31  1  0  0  0  0
  9 32  1  0  0  0  0
 10 15  1  0  0  0  0
 10 33  1  0  0  0  0
 10 34  1  0  0  0  0
 11 16  2  0  0  0  0
 11 35  1  0  0  0  0
 12 18  2  0  0  0  0
 12 36  1  0  0  0  0
 13 20  1  0  0  0  0
 13 37  1  0  0  0  0
 13 38  1  0  0  0  0
 14 16  1  0  0  0  0
 14 17  1  0  0  0  0
 14 39  1  0  0  0  0
 14 40  1  0  0  0  0
 15 23  1  0  0  0  0
 15 41  1  0  0  0  0
 15 42  1  0  0  0  0
 16 43  1  0  0  0  0
 17 22  1  0  0  0  0
 17 44  1  0  0  0  0
 17 45  1  0  0  0  0
 18 19  1  0  0  0  0
 18 48  1  0  0  0  0
 19 21  1  0  0  0  0
 19 49  1  0  0  0  0
 19 50  1  0  0  0  0
 20 21  2  0  0  0  0
 20 51  1  0  0  0  0
 21 52  1  0  0  0  0
 22 24  1  0  0  0  0
 22 53  1  0  0  0  0
 22 54  1  0  0  0  0
 23 55  1  0  0  0  0
 23 56  1  0  0  0  0
 23 57  1  0  0  0  0
M  END
> <PUBCHEM_COMPOUND_CID>
5283144

> <PUBCHEM_COMPOUND_CANONICALIZED>
1

> <PUBCHEM_CACTVS_COMPLEXITY>
385

> <PUBCHEM_CACTVS_HBOND_ACCEPTOR>
4

> <PUBCHEM_CACTVS_HBOND_DONOR>
3

> <PUBCHEM_CACTVS_ROTATABLE_BOND>
15

> <PUBCHEM_CACTVS_SUBSKEYS>
AAADcfB4OAAAAAAAAAAAAAAAAAAAAAAAAAAAAAAAAAAAAAAAAAAAGgAACAAACBSggAICCAAAAgCIACDSCAAAAAAgAAAICAEAAAgBEBIAAQAAQAAEwAAJAAOIAAAAAAAAAAAAAAAAAAAAAAAAAAAAAAAAAA==

> <PUBCHEM_IUPAC_OPENEYE_NAME>
(5Z,11Z,14Z)-8,9-dihydroxyicosa-5,11,14-trienoic acid

> <PUBCHEM_IUPAC_CAS_NAME>
(5Z,11Z,14Z)-8,9-dihydroxyeicosa-5,11,14-trienoic acid

> <PUBCHEM_IUPAC_NAME>
(5Z,11Z,14Z)-8,9-dihydroxyicosa-5,11,14-trienoic acid

> <PUBCHEM_IUPAC_SYSTEMATIC_NAME>
(5Z,11Z,14Z)-8,9-bis(oxidanyl)icosa-5,11,14-trienoic acid

> <PUBCHEM_IUPAC_TRADITIONAL_NAME>
(5Z,11Z,14Z)-8,9-dihydroxyeicosa-5,11,14-trienoic acid

> <PUBCHEM_IUPAC_INCHI>
InChI=1S/C20H34O4/c1-2-3-4-5-6-7-8-9-12-15-18(21)19(22)16-13-10-11-14-17-20(23)24/h6-7,9-10,12-13,18-19,21-22H,2-5,8,11,14-17H2,1H3,(H,23,24)/b7-6-,12-9-,13-10-

> <PUBCHEM_IUPAC_INCHIKEY>
DCJBINATHQHPKO-TYAUOURKSA-N

> <PUBCHEM_XLOGP3_AA>
4.4

> <PUBCHEM_EXACT_MASS>
338.24571

> <PUBCHEM_MOLECULAR_FORMULA>
C20H34O4

> <PUBCHEM_MOLECULAR_WEIGHT>
338.48156

> <PUBCHEM_OPENEYE_CAN_SMILES>
CCCCCC=CCC=CCC(C(CC=CCCCC(=O)O)O)O

> <PUBCHEM_OPENEYE_ISO_SMILES>
CCCCC/C=C\C/C=C\CC(C(C/C=C\CCCC(=O)O)O)O

> <PUBCHEM_CACTVS_TPSA>
77.8

> <PUBCHEM_MONOISOTOPIC_WEIGHT>
338.24571

> <PUBCHEM_TOTAL_CHARGE>
0

> <PUBCHEM_HEAVY_ATOM_COUNT>
24

> <PUBCHEM_ATOM_DEF_STEREO_COUNT>
0

> <PUBCHEM_ATOM_UDEF_STEREO_COUNT>
2

> <PUBCHEM_BOND_DEF_STEREO_COUNT>
3

> <PUBCHEM_BOND_UDEF_STEREO_COUNT>
0

> <PUBCHEM_ISOTOPIC_ATOM_COUNT>
0

> <PUBCHEM_COMPONENT_COUNT>
1

> <PUBCHEM_CACTVS_TAUTO_COUNT>
1

> <PUBCHEM_COORDINATE_TYPE>
1
5
255

> <PUBCHEM_BONDANNOTATIONS>
5  25  3
6  26  3

$$$$

