11954144
  -OEChem-07051213073D

 49 52  0     1  0  0  0  0  0999 V2000
    4.5478   -2.0625   -0.5834 F   0  0  0  0  0  0  0  0  0  0  0  0
   -5.2984   -1.2957   -0.3591 O   0  0  0  0  0  0  0  0  0  0  0  0
    5.3247    0.4873   -0.9728 O   0  0  0  0  0  0  0  0  0  0  0  0
   -2.2405    0.6885   -0.4066 C   0  0  2  0  0  0  0  0  0  0  0  0
   -2.9541   -0.6176   -0.0082 C   0  0  2  0  0  0  0  0  0  0  0  0
   -0.8854    0.8562    0.2875 C   0  0  1  0  0  0  0  0  0  0  0  0
    0.0328   -0.3440   -0.1072 C   0  0  1  0  0  0  0  0  0  0  0  0
    1.4747   -0.2430    0.5225 C   0  0  2  0  0  0  0  0  0  0  0  0
   -2.0816   -1.7937   -0.4643 C   0  0  0  0  0  0  0  0  0  0  0  0
   -0.6649   -1.7116    0.1330 C   0  0  0  0  0  0  0  0  0  0  0  0
   -4.2627   -0.4400   -0.8020 C   0  0  2  0  0  0  0  0  0  0  0  0
   -3.3142    1.7557   -0.2101 C   0  0  0  0  0  0  0  0  0  0  0  0
   -0.2180    2.1822   -0.0991 C   0  0  0  0  0  0  0  0  0  0  0  0
   -4.6227    1.0449   -0.6010 C   0  0  0  0  0  0  0  0  0  0  0  0
    2.0500    1.1554    0.2558 C   0  0  0  0  0  0  0  0  0  0  0  0
    1.1468    2.3268    0.5623 C   0  0  0  0  0  0  0  0  0  0  0  0
   -3.2563   -0.7534    1.5060 C   0  0  0  0  0  0  0  0  0  0  0  0
    2.3759   -1.3272   -0.1359 C   0  0  0  0  0  0  0  0  0  0  0  0
    1.4555   -0.4737    2.0510 C   0  0  0  0  0  0  0  0  0  0  0  0
    3.8606   -1.0900    0.0789 C   0  0  2  0  0  0  0  0  0  0  0  0
    3.2887    1.3835   -0.2126 C   0  0  0  0  0  0  0  0  0  0  0  0
    4.2413    0.2719   -0.4347 C   0  0  0  0  0  0  0  0  0  0  0  0
   -2.0395    0.6578   -1.4909 H   0  0  0  0  0  0  0  0  0  0  0  0
   -1.0360    0.8660    1.3725 H   0  0  0  0  0  0  0  0  0  0  0  0
    0.1664   -0.2719   -1.1992 H   0  0  0  0  0  0  0  0  0  0  0  0
   -1.9976   -1.7977   -1.5589 H   0  0  0  0  0  0  0  0  0  0  0  0
   -2.5438   -2.7489   -0.1875 H   0  0  0  0  0  0  0  0  0  0  0  0
   -0.7184   -1.9269    1.2047 H   0  0  0  0  0  0  0  0  0  0  0  0
   -0.0710   -2.5172   -0.3127 H   0  0  0  0  0  0  0  0  0  0  0  0
   -4.1008   -0.6361   -1.8689 H   0  0  0  0  0  0  0  0  0  0  0  0
   -3.1375    2.6362   -0.8362 H   0  0  0  0  0  0  0  0  0  0  0  0
   -3.3592    2.0925    0.8316 H   0  0  0  0  0  0  0  0  0  0  0  0
   -0.8480    3.0255    0.2068 H   0  0  0  0  0  0  0  0  0  0  0  0
   -0.1086    2.2463   -1.1896 H   0  0  0  0  0  0  0  0  0  0  0  0
   -5.3889    1.1930    0.1680 H   0  0  0  0  0  0  0  0  0  0  0  0
   -5.0258    1.4599   -1.5318 H   0  0  0  0  0  0  0  0  0  0  0  0
    1.0224    2.4068    1.6492 H   0  0  0  0  0  0  0  0  0  0  0  0
    1.5961    3.2726    0.2353 H   0  0  0  0  0  0  0  0  0  0  0  0
   -3.7419   -1.7128    1.7194 H   0  0  0  0  0  0  0  0  0  0  0  0
   -2.3535   -0.7155    2.1213 H   0  0  0  0  0  0  0  0  0  0  0  0
   -3.9208    0.0350    1.8736 H   0  0  0  0  0  0  0  0  0  0  0  0
    2.1909   -1.3633   -1.2188 H   0  0  0  0  0  0  0  0  0  0  0  0
    2.1260   -2.3278    0.2378 H   0  0  0  0  0  0  0  0  0  0  0  0
    1.2060   -1.5107    2.2993 H   0  0  0  0  0  0  0  0  0  0  0  0
    2.4329   -0.2650    2.5016 H   0  0  0  0  0  0  0  0  0  0  0  0
    0.7298    0.1684    2.5596 H   0  0  0  0  0  0  0  0  0  0  0  0
    4.1389   -1.1590    1.1349 H   0  0  0  0  0  0  0  0  0  0  0  0
    3.6538    2.3860   -0.4087 H   0  0  0  0  0  0  0  0  0  0  0  0
   -5.6153   -0.9848    0.5051 H   0  0  0  0  0  0  0  0  0  0  0  0
  1 20  1  0  0  0  0
  2 11  1  0  0  0  0
  2 49  1  0  0  0  0
  3 22  2  0  0  0  0
  4  5  1  0  0  0  0
  4  6  1  0  0  0  0
  4 12  1  0  0  0  0
  4 23  1  0  0  0  0
  5  9  1  0  0  0  0
  5 11  1  0  0  0  0
  5 17  1  0  0  0  0
  6  7  1  0  0  0  0
  6 13  1  0  0  0  0
  6 24  1  0  0  0  0
  7  8  1  0  0  0  0
  7 10  1  0  0  0  0
  7 25  1  0  0  0  0
  8 15  1  0  0  0  0
  8 18  1  0  0  0  0
  8 19  1  0  0  0  0
  9 10  1  0  0  0  0
  9 26  1  0  0  0  0
  9 27  1  0  0  0  0
 10 28  1  0  0  0  0
 10 29  1  0  0  0  0
 11 14  1  0  0  0  0
 11 30  1  0  0  0  0
 12 14  1  0  0  0  0
 12 31  1  0  0  0  0
 12 32  1  0  0  0  0
 13 16  1  0  0  0  0
 13 33  1  0  0  0  0
 13 34  1  0  0  0  0
 14 35  1  0  0  0  0
 14 36  1  0  0  0  0
 15 16  1  0  0  0  0
 15 21  2  0  0  0  0
 16 37  1  0  0  0  0
 16 38  1  0  0  0  0
 17 39  1  0  0  0  0
 17 40  1  0  0  0  0
 17 41  1  0  0  0  0
 18 20  1  0  0  0  0
 18 42  1  0  0  0  0
 18 43  1  0  0  0  0
 19 44  1  0  0  0  0
 19 45  1  0  0  0  0
 19 46  1  0  0  0  0
 20 22  1  0  0  0  0
 20 47  1  0  0  0  0
 21 22  1  0  0  0  0
 21 48  1  0  0  0  0
M  END
> <PUBCHEM_COMPOUND_CID>
11954144

> <PUBCHEM_CONFORMER_RMSD>
0.6

> <PUBCHEM_CONFORMER_DIVERSEORDER>
1
2

> <PUBCHEM_MMFF94_PARTIAL_CHARGES>
12
1 -0.34
11 0.28
15 -0.28
16 0.14
2 -0.68
20 0.4
21 -0.14
22 0.49
3 -0.57
48 0.15
49 0.4
8 0.14

> <PUBCHEM_EFFECTIVE_ROTOR_COUNT>
1.8

> <PUBCHEM_PHARMACOPHORE_FEATURES>
7
1 2 acceptor
1 2 donor
1 3 acceptor
5 4 5 11 12 14 rings
6 4 5 6 7 9 10 rings
6 6 7 8 13 15 16 rings
6 8 15 18 20 21 22 rings

> <PUBCHEM_HEAVY_ATOM_COUNT>
22

> <PUBCHEM_ATOM_DEF_STEREO_COUNT>
7

> <PUBCHEM_ATOM_UDEF_STEREO_COUNT>
0

> <PUBCHEM_BOND_DEF_STEREO_COUNT>
0

> <PUBCHEM_BOND_UDEF_STEREO_COUNT>
0

> <PUBCHEM_ISOTOPIC_ATOM_COUNT>
0

> <PUBCHEM_COMPONENT_COUNT>
1

> <PUBCHEM_CACTVS_TAUTO_COUNT>
5

> <PUBCHEM_CONFORMER_ID>
00B667E000000001

> <PUBCHEM_MMFF94_ENERGY>
69.4822

> <PUBCHEM_FEATURE_SELFOVERLAP>
35.617

> <PUBCHEM_SHAPE_FINGERPRINT>
10366900 7 17846503595575637345
10498660 4 17989218065724954525
10759866 29 17774167932000728264
10967382 1 18410015407480024920
1100329 8 16970270128674449635
11578080 2 17459210575651433561
116883 192 18189610725992443062
12011746 2 18413394224467121533
12236239 1 17917716811838389410
12403259 226 18335710395191769133
12403259 415 18411429393051996077
12553582 1 18336275564951880740
12788726 201 17895747529912384912
13221675 6 18341335513183775985
13224815 77 17917714595260737921
14790565 3 18048589619087745065
15099037 51 18409452517930517479
15196674 1 18410294730709859845
15536298 74 18334301924442650592
15788980 27 18411698807301207302
15848702 151 17822283617388866815
16752209 62 18337684112641347193
16945 1 18194686968755532017
17349148 13 17240481394837912519
17804303 29 18335703827896538829
1813 80 14345792756157810648
18186145 218 17489590073494463746
19591789 44 18410858784607227583
19862831 5 18272936045860523232
200 152 18040156214625281009
20645477 70 18409169917719971534
20871999 31 18412545413842506677
21267235 1 18409722954572414398
21279426 13 18338518671830952109
21285901 2 18188768482404694020
21637258 2 15936401295730385988
221357 26 18409735049696101269
221490 88 18267863882741579938
22393880 68 18272101512709611509
23402539 116 18335144223648528436
23402655 69 18412824698797469996
23493267 7 18060420226836416899
23559900 14 18188500081335260360
2748010 2 18340220621473629481
2838139 119 16127799753077386388
2871803 45 18201723959158429784
296302 2 14189578533107527449
3004659 81 18271525394792850382
3286 77 16877672257212474363
335352 9 18265898132071247101
34934 24 18410018702284443376
350125 39 18409727374985435321
4214541 1 18410576205960981077
4280585 95 17398383617324940398
4340502 62 16343697772536166585
474 4 17203040786519054284
4921388 177 16558739088607722049
4990 188 18410293622787548148
5104073 3 18410857676363052896
633830 44 17704072871966275342
7364860 26 18189342264376781880
9709674 26 18340210661723791595

> <PUBCHEM_SHAPE_MULTIPOLES>
433.74
9.77
2.2
1.07
0.38
0.41
0.48
-1.54
-2.86
0.17
-0.07
0.05
-0.17
0.23

> <PUBCHEM_SHAPE_SELFOVERLAP>
934.184

> <PUBCHEM_SHAPE_VOLUME>
240.9

> <PUBCHEM_COORDINATE_TYPE>
2
5
10

$$$$

