11953945
  -OEChem-07051212593D

 39 39  0     1  0  0  0  0  0999 V2000
   -3.4531   -2.2897    0.2976 P   0  0  0  0  0  0  0  0  0  0  0  0
   -3.5482    2.7000    0.6551 O   0  0  0  0  0  0  0  0  0  0  0  0
   -2.1399    2.9824   -1.7821 O   0  0  0  0  0  0  0  0  0  0  0  0
   -3.4001   -0.8054   -0.3373 O   0  0  0  0  0  0  0  0  0  0  0  0
   -0.7325    2.6167    0.7179 O   0  0  0  0  0  0  0  0  0  0  0  0
   -2.2735   -2.2451    1.4028 O   0  0  0  0  0  0  0  0  0  0  0  0
   -4.8008   -2.2792    1.1914 O   0  0  0  0  0  0  0  0  0  0  0  0
   -3.3500   -3.4110   -0.6946 O   0  0  0  0  0  0  0  0  0  0  0  0
    5.1838    1.0370    1.3928 O   0  0  0  0  0  0  0  0  0  0  0  0
    3.4936    2.2217    0.4409 O   0  0  0  0  0  0  0  0  0  0  0  0
    1.2887    0.5606    0.1155 N   0  0  0  0  0  0  0  0  0  0  0  0
   -3.4221    1.6059   -0.2561 C   0  0  1  0  0  0  0  0  0  0  0  0
   -2.1267    1.7381   -1.0787 C   0  0  2  0  0  0  0  0  0  0  0  0
   -3.4925    0.3093    0.5454 C   0  0  0  0  0  0  0  0  0  0  0  0
   -0.8526    1.6624   -0.2740 C   0  0  0  0  0  0  0  0  0  0  0  0
    0.0996    0.7465   -0.5128 C   0  0  0  0  0  0  0  0  0  0  0  0
    2.2750   -0.4045   -0.1441 C   0  0  0  0  0  0  0  0  0  0  0  0
    3.6278   -0.1427    0.1009 C   0  0  0  0  0  0  0  0  0  0  0  0
    1.8990   -1.6510   -0.6567 C   0  0  0  0  0  0  0  0  0  0  0  0
    4.5920   -1.1154   -0.1633 C   0  0  0  0  0  0  0  0  0  0  0  0
    2.8632   -2.6236   -0.9208 C   0  0  0  0  0  0  0  0  0  0  0  0
    4.2096   -2.3559   -0.6743 C   0  0  0  0  0  0  0  0  0  0  0  0
    4.0597    1.1430    0.6345 C   0  0  0  0  0  0  0  0  0  0  0  0
   -4.2768    1.6595   -0.9417 H   0  0  0  0  0  0  0  0  0  0  0  0
   -2.1323    0.9548   -1.8470 H   0  0  0  0  0  0  0  0  0  0  0  0
   -4.4445    0.2689    1.0863 H   0  0  0  0  0  0  0  0  0  0  0  0
   -2.6978    0.2658    1.2976 H   0  0  0  0  0  0  0  0  0  0  0  0
   -0.0701    0.0453   -1.3243 H   0  0  0  0  0  0  0  0  0  0  0  0
   -3.5726    3.5150    0.1247 H   0  0  0  0  0  0  0  0  0  0  0  0
   -1.3414    3.0187   -2.3363 H   0  0  0  0  0  0  0  0  0  0  0  0
    1.5325    1.2738    0.7946 H   0  0  0  0  0  0  0  0  0  0  0  0
    0.8583   -1.9046   -0.8405 H   0  0  0  0  0  0  0  0  0  0  0  0
   -1.4821    3.2302    0.6395 H   0  0  0  0  0  0  0  0  0  0  0  0
    5.6504   -0.9342    0.0050 H   0  0  0  0  0  0  0  0  0  0  0  0
    2.5656   -3.5912   -1.3143 H   0  0  0  0  0  0  0  0  0  0  0  0
    4.9603   -3.1129   -0.8819 H   0  0  0  0  0  0  0  0  0  0  0  0
   -2.0343   -3.0707    1.8753 H   0  0  0  0  0  0  0  0  0  0  0  0
   -5.0819   -3.1072    1.6359 H   0  0  0  0  0  0  0  0  0  0  0  0
    5.4678    1.9061    1.7482 H   0  0  0  0  0  0  0  0  0  0  0  0
  1  4  1  0  0  0  0
  1  6  1  0  0  0  0
  1  7  1  0  0  0  0
  1  8  2  0  0  0  0
  2 12  1  0  0  0  0
  2 29  1  0  0  0  0
  3 13  1  0  0  0  0
  3 30  1  0  0  0  0
  4 14  1  0  0  0  0
  5 15  1  0  0  0  0
  5 33  1  0  0  0  0
  6 37  1  0  0  0  0
  7 38  1  0  0  0  0
  9 23  1  0  0  0  0
  9 39  1  0  0  0  0
 10 23  2  0  0  0  0
 11 16  1  0  0  0  0
 11 17  1  0  0  0  0
 11 31  1  0  0  0  0
 12 13  1  0  0  0  0
 12 14  1  0  0  0  0
 12 24  1  0  0  0  0
 13 15  1  0  0  0  0
 13 25  1  0  0  0  0
 14 26  1  0  0  0  0
 14 27  1  0  0  0  0
 15 16  2  0  0  0  0
 16 28  1  0  0  0  0
 17 18  1  0  0  0  0
 17 19  2  0  0  0  0
 18 20  2  0  0  0  0
 18 23  1  0  0  0  0
 19 21  1  0  0  0  0
 19 32  1  0  0  0  0
 20 22  1  0  0  0  0
 20 34  1  0  0  0  0
 21 22  2  0  0  0  0
 21 35  1  0  0  0  0
 22 36  1  0  0  0  0
M  END
> <PUBCHEM_COMPOUND_CID>
11953945

> <PUBCHEM_CONFORMER_RMSD>
0.8

> <PUBCHEM_CONFORMER_DIVERSEORDER>
1
331
197
142
59
266
321
269
318
277
374
253
94
426
325
42
367
170
144
345
281
109
298
350
425
349
145
102
309
397
337
36
161
136
381
407
296
262
347
218
339
379
179
423
299
124
166
363
191
369
73
384
105
61
445
430
58
435
268
429
270
274
77
135
164
97
98
438
209
49
308
450
355
261
385
141
443
225
234
417
100
382
143
19
51
62
366
378
248
244
446
238
410
313
129
231
383
259
328
256
439
375
391
329
406
138
398
220
117
211
103
306
351
155
389
405
377
243
290
219
115
304
112
401
370
451
371
400
95
181
301
431
82
151
107
152
232
402
204
158
110
229
344
194
16
41
241
403
307
169
354
111
5
352
128
203
140
427
178
92
183
444
187
195
272
75
319
320
258
60
289
116
414
311
275
99
96
221
424
441
237
449
396
404
254
440
153
43
205
265
282
287
87
137
130
388
80
114
252
118
160
15
147
89
46
185
395
330
356
182
216
224
233
376
176
70
148
81
357
7
436
387
27
267
257
180
201
64
346
18
24
210
415
434
245
348
8
125
362
228
163
392
408
341
196
54
273
393
342
88
394
192
139
149
186
286
433
336
326
409
419
162
235
122
55
260
353
300
2
121
432
332
340
264
123
315
314
230
295
157
25
428
246
63
420
106
416
184
168
32
146
373
66
279
189
255
390
167
448
90
294
283
368
53
79
165
447
198
13
28
249
177
291
365
40
316
418
199
9
193
126
101
222
240
324
35
159
303
263
150
119
14
437
335
190
317
76
288
22
322
217
399
250
338
56
239
113
74
285
67
386
292
200
251
214
175
242
333
50
29
343
380
202
45
57
104
226
174
207
358
31
26
293
302
173
39
305
297
127
312
412
271
171
212
422
208
132
359
280
44
411
3
327
310
17
156
68
323
284
4
69
85
236
421
364
71
361
86
227
413
93
48
134
30
276
91
247
334
154
172
133
372
20
206
442
6
47
84
131
108
223
37
83
12
215
52
23
38
33
120
78
72
213
65
188
10
278
360
34
11
21

> <PUBCHEM_MMFF94_PARTIAL_CHARGES>
35
1 1.51
10 -0.57
11 -0.6
12 0.28
13 0.42
14 0.28
15 -0.06
16 -0.05
17 0.1
18 0.09
19 -0.15
2 -0.68
20 -0.15
21 -0.15
22 -0.15
23 0.63
28 0.15
29 0.4
3 -0.68
30 0.4
31 0.4
32 0.15
33 0.45
34 0.15
35 0.15
36 0.15
37 0.5
38 0.5
39 0.5
4 -0.55
5 -0.53
6 -0.77
7 -0.77
8 -0.7
9 -0.65

> <PUBCHEM_EFFECTIVE_ROTOR_COUNT>
8

> <PUBCHEM_PHARMACOPHORE_FEATURES>
15
1 10 acceptor
1 11 cation
1 11 donor
1 2 acceptor
1 2 donor
1 3 acceptor
1 3 donor
1 5 donor
1 6 acceptor
1 7 acceptor
1 8 acceptor
1 9 acceptor
3 9 10 23 anion
4 1 6 7 8 anion
6 17 18 19 20 21 22 rings

> <PUBCHEM_HEAVY_ATOM_COUNT>
23

> <PUBCHEM_ATOM_DEF_STEREO_COUNT>
2

> <PUBCHEM_ATOM_UDEF_STEREO_COUNT>
0

> <PUBCHEM_BOND_DEF_STEREO_COUNT>
1

> <PUBCHEM_BOND_UDEF_STEREO_COUNT>
0

> <PUBCHEM_ISOTOPIC_ATOM_COUNT>
0

> <PUBCHEM_COMPONENT_COUNT>
1

> <PUBCHEM_CACTVS_TAUTO_COUNT>
15

> <PUBCHEM_CONFORMER_ID>
00B6671900000001

> <PUBCHEM_MMFF94_ENERGY>
28.449

> <PUBCHEM_FEATURE_SELFOVERLAP>
76.223

> <PUBCHEM_SHAPE_FINGERPRINT>
10616163 171 18408601474213455678
11014199 57 17686622346565531046
11370993 144 18115579482427900465
11405975 8 18336828718411947768
11552529 35 17967532337787055723
12553582 1 18124297330031718327
13034934 17 18116169774391022344
13583140 156 17894639123175087096
13911882 115 18335696109908925194
14081887 123 18411984680166095618
14790565 3 17545034910284112548
17349148 13 16128373796314082408
17913733 40 17676779673962064042
1813 80 17561078064875108975
20645477 70 17677906801907735028
20693207 138 18265041612898247214
21033648 29 17983587586843876052
21065198 57 18336263556476587188
21079973 296 18413109463381519136
21673915 165 18336829706085951846
221490 88 18335699490264400126
23557571 272 18341324535469075922
23559900 14 18336269054367158952
4015057 19 18115888415368586693
469060 322 17755049434896329686
49207404 50 18334581218103216152
5104073 3 18335424607888156266
6433294 58 18050566541052339614
9709674 26 18336266842031688278

> <PUBCHEM_SHAPE_MULTIPOLES>
419.37
10.74
4.01
1.14
3.66
1.08
0.03
2.97
-2.04
-3.25
0.3
-0.3
-0.15
2.35

> <PUBCHEM_SHAPE_SELFOVERLAP>
848.715

> <PUBCHEM_SHAPE_VOLUME>
244.1

> <PUBCHEM_COORDINATE_TYPE>
2
5
10

$$$$

