17396328
  -OEChem-06241222552D

 43 46  0     1  0  0  0  0  0999 V2000
    5.1671   -0.6871    0.0000 S   0  0  0  0  0  0  0  0  0  0  0  0
    7.8069    0.7180    0.0000 O   0  0  0  0  0  0  0  0  0  0  0  0
   10.4050   -1.7820    0.0000 O   0  0  0  0  0  0  0  0  0  0  0  0
    5.9718    0.7067    0.0000 N   0  0  0  0  0  0  0  0  0  0  0  0
    6.9409   -0.7820    0.0000 N   0  0  0  0  0  0  0  0  0  0  0  0
    9.5390   -0.2820    0.0000 N   0  0  0  0  0  0  0  0  0  0  0  0
   10.4050    1.2180    0.0000 N   0  0  0  0  0  0  0  0  0  0  0  0
    3.0000    0.9160    0.0000 C   0  0  3  0  0  0  0  0  0  0  0  0
    3.5000    1.7820    0.0000 C   0  0  0  0  0  0  0  0  0  0  0  0
    3.5000    0.0499    0.0000 C   0  0  0  0  0  0  0  0  0  0  0  0
    4.5000    1.7820    0.0000 C   0  0  0  0  0  0  0  0  0  0  0  0
    4.5000    0.0499    0.0000 C   0  0  0  0  0  0  0  0  0  0  0  0
    5.0000    0.9160    0.0000 C   0  0  0  0  0  0  0  0  0  0  0  0
    2.0000    0.9160    0.0000 C   0  0  0  0  0  0  0  0  0  0  0  0
    6.0749   -0.2820    0.0000 C   0  0  0  0  0  0  0  0  0  0  0  0
    8.6730   -0.7820    0.0000 C   0  0  0  0  0  0  0  0  0  0  0  0
    7.8069   -0.2820    0.0000 C   0  0  0  0  0  0  0  0  0  0  0  0
   10.4050   -0.7820    0.0000 C   0  0  0  0  0  0  0  0  0  0  0  0
   11.2710   -0.2820    0.0000 C   0  0  0  0  0  0  0  0  0  0  0  0
   11.2710    0.7180    0.0000 C   0  0  0  0  0  0  0  0  0  0  0  0
    9.5390    0.7180    0.0000 C   0  0  0  0  0  0  0  0  0  0  0  0
   12.1650   -0.8166    0.0000 C   0  0  0  0  0  0  0  0  0  0  0  0
   12.1650    1.2527    0.0000 C   0  0  0  0  0  0  0  0  0  0  0  0
   13.0710   -0.3028    0.0000 C   0  0  0  0  0  0  0  0  0  0  0  0
   13.0710    0.7388    0.0000 C   0  0  0  0  0  0  0  0  0  0  0  0
    2.6900    1.4529    0.0000 H   0  0  0  0  0  0  0  0  0  0  0  0
    3.6077    2.3926    0.0000 H   0  0  0  0  0  0  0  0  0  0  0  0
    2.9174    1.9940    0.0000 H   0  0  0  0  0  0  0  0  0  0  0  0
    2.9174   -0.1621    0.0000 H   0  0  0  0  0  0  0  0  0  0  0  0
    3.6077   -0.5607    0.0000 H   0  0  0  0  0  0  0  0  0  0  0  0
    5.0826    1.9940    0.0000 H   0  0  0  0  0  0  0  0  0  0  0  0
    4.3923    2.3926    0.0000 H   0  0  0  0  0  0  0  0  0  0  0  0
    2.0000    1.5360    0.0000 H   0  0  0  0  0  0  0  0  0  0  0  0
    1.3800    0.9160    0.0000 H   0  0  0  0  0  0  0  0  0  0  0  0
    2.0000    0.2960    0.0000 H   0  0  0  0  0  0  0  0  0  0  0  0
    6.9409   -1.4020    0.0000 H   0  0  0  0  0  0  0  0  0  0  0  0
    8.2744   -1.2569    0.0000 H   0  0  0  0  0  0  0  0  0  0  0  0
    9.0715   -1.2569    0.0000 H   0  0  0  0  0  0  0  0  0  0  0  0
    9.0020    1.0280    0.0000 H   0  0  0  0  0  0  0  0  0  0  0  0
   12.1578   -1.4366    0.0000 H   0  0  0  0  0  0  0  0  0  0  0  0
   12.1578    1.8726    0.0000 H   0  0  0  0  0  0  0  0  0  0  0  0
   13.6068   -0.6149    0.0000 H   0  0  0  0  0  0  0  0  0  0  0  0
   13.6068    1.0509    0.0000 H   0  0  0  0  0  0  0  0  0  0  0  0
  1 12  1  0  0  0  0
  1 15  1  0  0  0  0
  2 17  2  0  0  0  0
  3 18  2  0  0  0  0
  4 13  1  0  0  0  0
  4 15  2  0  0  0  0
  5 15  1  0  0  0  0
  5 17  1  0  0  0  0
  5 36  1  0  0  0  0
  6 16  1  0  0  0  0
  6 18  1  0  0  0  0
  6 21  1  0  0  0  0
  7 20  1  0  0  0  0
  7 21  2  0  0  0  0
  8  9  1  0  0  0  0
  8 10  1  0  0  0  0
  8 14  1  0  0  0  0
  8 26  1  0  0  0  0
  9 11  1  0  0  0  0
  9 27  1  0  0  0  0
  9 28  1  0  0  0  0
 10 12  1  0  0  0  0
 10 29  1  0  0  0  0
 10 30  1  0  0  0  0
 11 13  1  0  0  0  0
 11 31  1  0  0  0  0
 11 32  1  0  0  0  0
 12 13  2  0  0  0  0
 14 33  1  0  0  0  0
 14 34  1  0  0  0  0
 14 35  1  0  0  0  0
 16 17  1  0  0  0  0
 16 37  1  0  0  0  0
 16 38  1  0  0  0  0
 18 19  1  0  0  0  0
 19 20  1  0  0  0  0
 19 22  2  0  0  0  0
 20 23  2  0  0  0  0
 21 39  1  0  0  0  0
 22 24  1  0  0  0  0
 22 40  1  0  0  0  0
 23 25  1  0  0  0  0
 23 41  1  0  0  0  0
 24 25  2  0  0  0  0
 24 42  1  0  0  0  0
 25 43  1  0  0  0  0
M  END
> <PUBCHEM_COMPOUND_CID>
17396328

> <PUBCHEM_COMPOUND_CANONICALIZED>
1

> <PUBCHEM_CACTVS_COMPLEXITY>
569

> <PUBCHEM_CACTVS_HBOND_ACCEPTOR>
5

> <PUBCHEM_CACTVS_HBOND_DONOR>
1

> <PUBCHEM_CACTVS_ROTATABLE_BOND>
3

> <PUBCHEM_CACTVS_SUBSKEYS>
AAADceB7sABAAAAAAAAAAAAAAAAAAWAAAAAwYIAAAAAAAFiBwAAAHgQQAAAADQjB3gQz0ZPIEAisAyVzdACC8KllCjkJmBW4ZMiIYDrg3bGUIYholwLIyecYiACOAAAAAAACAAAQAAEAAAQCAAAAAAAAAA==

> <PUBCHEM_IUPAC_OPENEYE_NAME>
N-(6-methyl-4,5,6,7-tetrahydro-1,3-benzothiazol-2-yl)-2-(4-oxoquinazolin-3-yl)acetamide

> <PUBCHEM_IUPAC_CAS_NAME>
N-(6-methyl-4,5,6,7-tetrahydro-1,3-benzothiazol-2-yl)-2-(4-oxo-3-quinazolinyl)acetamide

> <PUBCHEM_IUPAC_NAME>
N-(6-methyl-4,5,6,7-tetrahydro-1,3-benzothiazol-2-yl)-2-(4-oxoquinazolin-3-yl)acetamide

> <PUBCHEM_IUPAC_SYSTEMATIC_NAME>
N-(6-methyl-4,5,6,7-tetrahydro-1,3-benzothiazol-2-yl)-2-(4-oxidanylidenequinazolin-3-yl)ethanamide

> <PUBCHEM_IUPAC_TRADITIONAL_NAME>
2-(4-ketoquinazolin-3-yl)-N-(6-methyl-4,5,6,7-tetrahydro-1,3-benzothiazol-2-yl)acetamide

> <PUBCHEM_IUPAC_INCHI>
InChI=1S/C18H18N4O2S/c1-11-6-7-14-15(8-11)25-18(20-14)21-16(23)9-22-10-19-13-5-3-2-4-12(13)17(22)24/h2-5,10-11H,6-9H2,1H3,(H,20,21,23)

> <PUBCHEM_IUPAC_INCHIKEY>
HUJZILUPRBTICQ-UHFFFAOYSA-N

> <PUBCHEM_XLOGP3_AA>
2.7

> <PUBCHEM_EXACT_MASS>
354.115047

> <PUBCHEM_MOLECULAR_FORMULA>
C18H18N4O2S

> <PUBCHEM_MOLECULAR_WEIGHT>
354.42612

> <PUBCHEM_OPENEYE_CAN_SMILES>
CC1CCC2=C(C1)SC(=N2)NC(=O)CN3C=NC4=CC=CC=C4C3=O

> <PUBCHEM_OPENEYE_ISO_SMILES>
CC1CCC2=C(C1)SC(=N2)NC(=O)CN3C=NC4=CC=CC=C4C3=O

> <PUBCHEM_CACTVS_TPSA>
103

> <PUBCHEM_MONOISOTOPIC_WEIGHT>
354.115047

> <PUBCHEM_TOTAL_CHARGE>
0

> <PUBCHEM_HEAVY_ATOM_COUNT>
25

> <PUBCHEM_ATOM_DEF_STEREO_COUNT>
0

> <PUBCHEM_ATOM_UDEF_STEREO_COUNT>
1

> <PUBCHEM_BOND_DEF_STEREO_COUNT>
0

> <PUBCHEM_BOND_UDEF_STEREO_COUNT>
0

> <PUBCHEM_ISOTOPIC_ATOM_COUNT>
0

> <PUBCHEM_COMPONENT_COUNT>
1

> <PUBCHEM_CACTVS_TAUTO_COUNT>
5

> <PUBCHEM_COORDINATE_TYPE>
1
5
255

> <PUBCHEM_BONDANNOTATIONS>
1  12  8
1  15  8
12  13  8
18  19  8
19  20  8
19  22  8
20  23  8
22  24  8
23  25  8
24  25  8
4  13  8
4  15  8
6  18  8
6  21  8
7  20  8
7  21  8
8  14  3

$$$$

