17395412
  -OEChem-06241222502D

 39 40  0     0  0  0  0  0  0999 V2000
    4.5981   -4.5000    0.0000 Br  0  0  0  0  0  0  0  0  0  0  0  0
    6.3301   -3.5000    0.0000 O   0  0  0  0  0  0  0  0  0  0  0  0
    2.8660   -3.5000    0.0000 O   0  0  0  0  0  0  0  0  0  0  0  0
    3.7320    0.0000    0.0000 O   0  0  0  0  0  0  0  0  0  0  0  0
    5.4641    0.0000    0.0000 N   0  0  0  0  0  0  0  0  0  0  0  0
    5.4641    3.0000    0.0000 N   0  0  0  0  0  0  0  0  0  0  0  0
    5.4641    1.0000    0.0000 C   0  0  0  0  0  0  0  0  0  0  0  0
    6.3301    1.5000    0.0000 C   0  0  0  0  0  0  0  0  0  0  0  0
    4.5981   -1.5000    0.0000 C   0  0  0  0  0  0  0  0  0  0  0  0
    6.3301    2.5000    0.0000 C   0  0  0  0  0  0  0  0  0  0  0  0
    4.5981   -0.5000    0.0000 C   0  0  0  0  0  0  0  0  0  0  0  0
    3.7320   -2.0000    0.0000 C   0  0  0  0  0  0  0  0  0  0  0  0
    5.4641   -2.0000    0.0000 C   0  0  0  0  0  0  0  0  0  0  0  0
    5.4641   -3.0000    0.0000 C   0  0  0  0  0  0  0  0  0  0  0  0
    3.7320   -3.0000    0.0000 C   0  0  0  0  0  0  0  0  0  0  0  0
    4.5981   -3.5000    0.0000 C   0  0  0  0  0  0  0  0  0  0  0  0
    7.1962    3.0000    0.0000 C   0  0  0  0  0  0  0  0  0  0  0  0
    7.1962    4.0000    0.0000 C   0  0  0  0  0  0  0  0  0  0  0  0
    5.4641    4.0000    0.0000 C   0  0  0  0  0  0  0  0  0  0  0  0
    6.3301    4.5000    0.0000 C   0  0  0  0  0  0  0  0  0  0  0  0
    7.1962   -3.0000    0.0000 C   0  0  0  0  0  0  0  0  0  0  0  0
    2.0000   -3.0000    0.0000 C   0  0  0  0  0  0  0  0  0  0  0  0
    5.2520    1.5826    0.0000 H   0  0  0  0  0  0  0  0  0  0  0  0
    4.8535    0.8923    0.0000 H   0  0  0  0  0  0  0  0  0  0  0  0
    6.5422    0.9174    0.0000 H   0  0  0  0  0  0  0  0  0  0  0  0
    6.9407    1.6077    0.0000 H   0  0  0  0  0  0  0  0  0  0  0  0
    6.0010   -0.3100    0.0000 H   0  0  0  0  0  0  0  0  0  0  0  0
    3.1951   -1.6900    0.0000 H   0  0  0  0  0  0  0  0  0  0  0  0
    6.0010   -1.6900    0.0000 H   0  0  0  0  0  0  0  0  0  0  0  0
    7.7331    2.6900    0.0000 H   0  0  0  0  0  0  0  0  0  0  0  0
    7.7331    4.3100    0.0000 H   0  0  0  0  0  0  0  0  0  0  0  0
    4.9272    4.3100    0.0000 H   0  0  0  0  0  0  0  0  0  0  0  0
    6.3301    5.1200    0.0000 H   0  0  0  0  0  0  0  0  0  0  0  0
    7.5062   -3.5369    0.0000 H   0  0  0  0  0  0  0  0  0  0  0  0
    7.7331   -2.6900    0.0000 H   0  0  0  0  0  0  0  0  0  0  0  0
    6.8862   -2.4631    0.0000 H   0  0  0  0  0  0  0  0  0  0  0  0
    2.3100   -2.4631    0.0000 H   0  0  0  0  0  0  0  0  0  0  0  0
    1.4631   -2.6900    0.0000 H   0  0  0  0  0  0  0  0  0  0  0  0
    1.6900   -3.5369    0.0000 H   0  0  0  0  0  0  0  0  0  0  0  0
  1 16  1  0  0  0  0
  2 14  1  0  0  0  0
  2 21  1  0  0  0  0
  3 15  1  0  0  0  0
  3 22  1  0  0  0  0
  4 11  2  0  0  0  0
  5  7  1  0  0  0  0
  5 11  1  0  0  0  0
  5 27  1  0  0  0  0
  6 10  1  0  0  0  0
  6 19  2  0  0  0  0
  7  8  1  0  0  0  0
  7 23  1  0  0  0  0
  7 24  1  0  0  0  0
  8 10  1  0  0  0  0
  8 25  1  0  0  0  0
  8 26  1  0  0  0  0
  9 11  1  0  0  0  0
  9 12  2  0  0  0  0
  9 13  1  0  0  0  0
 10 17  2  0  0  0  0
 12 15  1  0  0  0  0
 12 28  1  0  0  0  0
 13 14  2  0  0  0  0
 13 29  1  0  0  0  0
 14 16  1  0  0  0  0
 15 16  2  0  0  0  0
 17 18  1  0  0  0  0
 17 30  1  0  0  0  0
 18 20  2  0  0  0  0
 18 31  1  0  0  0  0
 19 20  1  0  0  0  0
 19 32  1  0  0  0  0
 20 33  1  0  0  0  0
 21 34  1  0  0  0  0
 21 35  1  0  0  0  0
 21 36  1  0  0  0  0
 22 37  1  0  0  0  0
 22 38  1  0  0  0  0
 22 39  1  0  0  0  0
M  END
> <PUBCHEM_COMPOUND_CID>
17395412

> <PUBCHEM_COMPOUND_CANONICALIZED>
1

> <PUBCHEM_CACTVS_COMPLEXITY>
342

> <PUBCHEM_CACTVS_HBOND_ACCEPTOR>
4

> <PUBCHEM_CACTVS_HBOND_DONOR>
1

> <PUBCHEM_CACTVS_ROTATABLE_BOND>
6

> <PUBCHEM_CACTVS_SUBSKEYS>
AAADceB7MAAAEAAAAAAAAAAAAAAAAAAAAAA8QAAAAAAAAAABwAAAHgBQAAABrAzBngY+hpLIFACoAzV3VACCiCA1IiQI2KE+bPgMJ/LE9ZuEMShl1hXI65e66ByOAgABCAAABAAEAAIQAAAIAAAAAAAAAA==

> <PUBCHEM_IUPAC_OPENEYE_NAME>
4-bromo-3,5-dimethoxy-N-[2-(2-pyridyl)ethyl]benzamide

> <PUBCHEM_IUPAC_CAS_NAME>
4-bromo-3,5-dimethoxy-N-[2-(2-pyridinyl)ethyl]benzamide

> <PUBCHEM_IUPAC_NAME>
4-bromo-3,5-dimethoxy-N-(2-pyridin-2-ylethyl)benzamide

> <PUBCHEM_IUPAC_SYSTEMATIC_NAME>
4-bromanyl-3,5-dimethoxy-N-(2-pyridin-2-ylethyl)benzamide

> <PUBCHEM_IUPAC_TRADITIONAL_NAME>
4-bromo-3,5-dimethoxy-N-[2-(2-pyridyl)ethyl]benzamide

> <PUBCHEM_IUPAC_INCHI>
InChI=1S/C16H17BrN2O3/c1-21-13-9-11(10-14(22-2)15(13)17)16(20)19-8-6-12-5-3-4-7-18-12/h3-5,7,9-10H,6,8H2,1-2H3,(H,19,20)

> <PUBCHEM_IUPAC_INCHIKEY>
PXAMMVTWIZASDZ-UHFFFAOYSA-N

> <PUBCHEM_XLOGP3_AA>
2.8

> <PUBCHEM_EXACT_MASS>
364.042255

> <PUBCHEM_MOLECULAR_FORMULA>
C16H17BrN2O3

> <PUBCHEM_MOLECULAR_WEIGHT>
365.22178

> <PUBCHEM_OPENEYE_CAN_SMILES>
COC1=CC(=CC(=C1Br)OC)C(=O)NCCC2=CC=CC=N2

> <PUBCHEM_OPENEYE_ISO_SMILES>
COC1=CC(=CC(=C1Br)OC)C(=O)NCCC2=CC=CC=N2

> <PUBCHEM_CACTVS_TPSA>
60.4

> <PUBCHEM_MONOISOTOPIC_WEIGHT>
364.042255

> <PUBCHEM_TOTAL_CHARGE>
0

> <PUBCHEM_HEAVY_ATOM_COUNT>
22

> <PUBCHEM_ATOM_DEF_STEREO_COUNT>
0

> <PUBCHEM_ATOM_UDEF_STEREO_COUNT>
0

> <PUBCHEM_BOND_DEF_STEREO_COUNT>
0

> <PUBCHEM_BOND_UDEF_STEREO_COUNT>
0

> <PUBCHEM_ISOTOPIC_ATOM_COUNT>
0

> <PUBCHEM_COMPONENT_COUNT>
1

> <PUBCHEM_CACTVS_TAUTO_COUNT>
4

> <PUBCHEM_COORDINATE_TYPE>
1
5
255

> <PUBCHEM_BONDANNOTATIONS>
10  17  8
12  15  8
13  14  8
14  16  8
15  16  8
17  18  8
18  20  8
19  20  8
6  10  8
6  19  8
9  12  8
9  13  8

$$$$

