9696
  -OEChem-06261203573D

 12 12  0     0  0  0  0  0  0999 V2000
    0.0001    2.4857    0.0005 F   0  0  0  0  0  0  0  0  0  0  0  0
    2.3678    1.1184   -0.0005 F   0  0  0  0  0  0  0  0  0  0  0  0
   -2.3681    1.1185    0.0001 F   0  0  0  0  0  0  0  0  0  0  0  0
   -2.3676   -1.6159    0.0001 F   0  0  0  0  0  0  0  0  0  0  0  0
    2.3679   -1.6156    0.0010 F   0  0  0  0  0  0  0  0  0  0  0  0
    0.0000    1.1464   -0.0001 C   0  0  0  0  0  0  0  0  0  0  0  0
    1.2079    0.4490   -0.0002 C   0  0  0  0  0  0  0  0  0  0  0  0
   -1.2080    0.4490    0.0001 C   0  0  0  0  0  0  0  0  0  0  0  0
   -1.2080   -0.9459   -0.0002 C   0  0  0  0  0  0  0  0  0  0  0  0
    1.2079   -0.9459   -0.0004 C   0  0  0  0  0  0  0  0  0  0  0  0
    0.0000   -1.6434   -0.0004 C   0  0  0  0  0  0  0  0  0  0  0  0
    0.0000   -2.7294   -0.0003 H   0  0  0  0  0  0  0  0  0  0  0  0
  1  6  1  0  0  0  0
  2  7  1  0  0  0  0
  3  8  1  0  0  0  0
  4  9  1  0  0  0  0
  5 10  1  0  0  0  0
  6  7  2  0  0  0  0
  6  8  1  0  0  0  0
  7 10  1  0  0  0  0
  8  9  2  0  0  0  0
  9 11  1  0  0  0  0
 10 11  2  0  0  0  0
 11 12  1  0  0  0  0
M  END
> <PUBCHEM_COMPOUND_CID>
9696

> <PUBCHEM_CONFORMER_RMSD>
0.4

> <PUBCHEM_CONFORMER_DIVERSEORDER>
1

> <PUBCHEM_MMFF94_PARTIAL_CHARGES>
12
1 -0.19
10 0.19
11 -0.15
12 0.15
2 -0.19
3 -0.19
4 -0.19
5 -0.19
6 0.19
7 0.19
8 0.19
9 0.19

> <PUBCHEM_EFFECTIVE_ROTOR_COUNT>
0

> <PUBCHEM_PHARMACOPHORE_FEATURES>
1
6 6 7 8 9 10 11 rings

> <PUBCHEM_HEAVY_ATOM_COUNT>
11

> <PUBCHEM_ATOM_DEF_STEREO_COUNT>
0

> <PUBCHEM_ATOM_UDEF_STEREO_COUNT>
0

> <PUBCHEM_BOND_DEF_STEREO_COUNT>
0

> <PUBCHEM_BOND_UDEF_STEREO_COUNT>
0

> <PUBCHEM_ISOTOPIC_ATOM_COUNT>
0

> <PUBCHEM_COMPONENT_COUNT>
1

> <PUBCHEM_CACTVS_TAUTO_COUNT>
1

> <PUBCHEM_CONFORMER_ID>
000025E000000001

> <PUBCHEM_MMFF94_ENERGY>
13.4397

> <PUBCHEM_FEATURE_SELFOVERLAP>
5.074

> <PUBCHEM_SHAPE_FINGERPRINT>
12423570 1 6192832603112572563
16945 1 18409733984037776972
18185500 45 18410292480115367614
193761 8 18410575084663182852
21040471 1 18410573989488752864
23552423 10 18272366477594795750
241688 4 18411701018929731730
2748010 2 18410012134715107902

> <PUBCHEM_SHAPE_MULTIPOLES>
190.01
2.76
2.2
0.56
0
0.42
0
-0.44
0
0
0
0
-0.02
0

> <PUBCHEM_SHAPE_SELFOVERLAP>
408.665

> <PUBCHEM_SHAPE_VOLUME>
104.5

> <PUBCHEM_COORDINATE_TYPE>
2
5
10

$$$$

