73282
  -OEChem-07051213002D

 42 43  0     0  0  0  0  0  0999 V2000
    5.4641    2.8100    0.0000 Cl  0  0  0  0  0  0  0  0  0  0  0  0
    4.5981   -1.6900    0.0000 S   0  0  0  0  0  0  0  0  0  0  0  0
    4.5981    0.3100    0.0000 O   0  0  0  0  0  0  0  0  0  0  0  0
    4.0981   -2.5560    0.0000 O   0  0  0  0  0  0  0  0  0  0  0  0
    5.0981   -0.8240    0.0000 O   0  0  0  0  0  0  0  0  0  0  0  0
    6.3301   -0.6900    0.0000 O   0  0  0  0  0  0  0  0  0  0  0  0
   10.6603   -2.1900    0.0000 O   0  0  0  0  0  0  0  0  0  0  0  0
    5.4641   -2.1900    0.0000 N   0  0  0  0  0  0  0  0  0  0  0  0
    7.1962   -2.1900    0.0000 N   0  0  0  0  0  0  0  0  0  0  0  0
    8.0622   -0.6900    0.0000 N   0  0  0  0  0  0  0  0  0  0  0  0
    8.9282   -2.1900    0.0000 N   0  0  0  0  0  0  0  0  0  0  0  0
    9.7942   -0.6900    0.0000 N   0  0  0  0  0  0  0  0  0  0  0  0
    3.7320   -1.1900    0.0000 C   0  0  0  0  0  0  0  0  0  0  0  0
    3.7320   -0.1900    0.0000 C   0  0  0  0  0  0  0  0  0  0  0  0
    2.8660   -1.6900    0.0000 C   0  0  0  0  0  0  0  0  0  0  0  0
    2.8660    0.3100    0.0000 C   0  0  0  0  0  0  0  0  0  0  0  0
    2.0000   -1.1900    0.0000 C   0  0  0  0  0  0  0  0  0  0  0  0
    2.0000   -0.1900    0.0000 C   0  0  0  0  0  0  0  0  0  0  0  0
    4.5981    1.3100    0.0000 C   0  0  0  0  0  0  0  0  0  0  0  0
    6.3301   -1.6900    0.0000 C   0  0  0  0  0  0  0  0  0  0  0  0
    5.4641    1.8100    0.0000 C   0  0  0  0  0  0  0  0  0  0  0  0
    8.0622   -1.6900    0.0000 C   0  0  0  0  0  0  0  0  0  0  0  0
    8.9282   -0.1900    0.0000 C   0  0  0  0  0  0  0  0  0  0  0  0
    9.7942   -1.6900    0.0000 C   0  0  0  0  0  0  0  0  0  0  0  0
    8.9282    0.8100    0.0000 C   0  0  0  0  0  0  0  0  0  0  0  0
   11.5263   -1.6900    0.0000 C   0  0  0  0  0  0  0  0  0  0  0  0
    2.8660   -2.3100    0.0000 H   0  0  0  0  0  0  0  0  0  0  0  0
    2.8660    0.9300    0.0000 H   0  0  0  0  0  0  0  0  0  0  0  0
    5.4641   -2.8100    0.0000 H   0  0  0  0  0  0  0  0  0  0  0  0
    1.4631   -1.5000    0.0000 H   0  0  0  0  0  0  0  0  0  0  0  0
    1.4631    0.1200    0.0000 H   0  0  0  0  0  0  0  0  0  0  0  0
    4.3860    1.8926    0.0000 H   0  0  0  0  0  0  0  0  0  0  0  0
    3.9875    1.2023    0.0000 H   0  0  0  0  0  0  0  0  0  0  0  0
    7.1962   -2.8100    0.0000 H   0  0  0  0  0  0  0  0  0  0  0  0
    5.6762    1.2274    0.0000 H   0  0  0  0  0  0  0  0  0  0  0  0
    6.0747    1.9177    0.0000 H   0  0  0  0  0  0  0  0  0  0  0  0
    9.5482    0.8100    0.0000 H   0  0  0  0  0  0  0  0  0  0  0  0
    8.9282    1.4300    0.0000 H   0  0  0  0  0  0  0  0  0  0  0  0
    8.3082    0.8100    0.0000 H   0  0  0  0  0  0  0  0  0  0  0  0
   11.8363   -2.2269    0.0000 H   0  0  0  0  0  0  0  0  0  0  0  0
   12.0632   -1.3800    0.0000 H   0  0  0  0  0  0  0  0  0  0  0  0
   11.2163   -1.1531    0.0000 H   0  0  0  0  0  0  0  0  0  0  0  0
  1 21  1  0  0  0  0
  2  4  2  0  0  0  0
  2  5  2  0  0  0  0
  2  8  1  0  0  0  0
  2 13  1  0  0  0  0
  3 14  1  0  0  0  0
  3 19  1  0  0  0  0
  6 20  2  0  0  0  0
  7 24  1  0  0  0  0
  7 26  1  0  0  0  0
  8 20  1  0  0  0  0
  8 29  1  0  0  0  0
  9 20  1  0  0  0  0
  9 22  1  0  0  0  0
  9 34  1  0  0  0  0
 10 22  1  0  0  0  0
 10 23  2  0  0  0  0
 11 22  2  0  0  0  0
 11 24  1  0  0  0  0
 12 23  1  0  0  0  0
 12 24  2  0  0  0  0
 13 14  1  0  0  0  0
 13 15  2  0  0  0  0
 14 16  2  0  0  0  0
 15 17  1  0  0  0  0
 15 27  1  0  0  0  0
 16 18  1  0  0  0  0
 16 28  1  0  0  0  0
 17 18  2  0  0  0  0
 17 30  1  0  0  0  0
 18 31  1  0  0  0  0
 19 21  1  0  0  0  0
 19 32  1  0  0  0  0
 19 33  1  0  0  0  0
 21 35  1  0  0  0  0
 21 36  1  0  0  0  0
 23 25  1  0  0  0  0
 25 37  1  0  0  0  0
 25 38  1  0  0  0  0
 25 39  1  0  0  0  0
 26 40  1  0  0  0  0
 26 41  1  0  0  0  0
 26 42  1  0  0  0  0
M  END
> <PUBCHEM_COMPOUND_CID>
73282

> <PUBCHEM_COMPOUND_CANONICALIZED>
1

> <PUBCHEM_CACTVS_COMPLEXITY>
560

> <PUBCHEM_CACTVS_HBOND_ACCEPTOR>
8

> <PUBCHEM_CACTVS_HBOND_DONOR>
2

> <PUBCHEM_CACTVS_ROTATABLE_BOND>
7

> <PUBCHEM_CACTVS_SUBSKEYS>
AAADceBzuABEAAAAAAAAAAAAAAAAAAAAAAA8QAAAAAAAAAABwAAAHgYQQAAACAeh00IzF4bIFAKoACJiNHBCiBkgIKAJiBoWCYiMLiKEORqCOCCswRMIqAeAQAAAAAAAAAAAIAAAAAAAAABAAAAAAAAAAA==

> <PUBCHEM_IUPAC_OPENEYE_NAME>
1-[2-(2-chloroethoxy)phenyl]sulfonyl-3-(4-methoxy-6-methyl-1,3,5-triazin-2-yl)urea

> <PUBCHEM_IUPAC_CAS_NAME>
1-[2-(2-chloroethoxy)phenyl]sulfonyl-3-(4-methoxy-6-methyl-1,3,5-triazin-2-yl)urea

> <PUBCHEM_IUPAC_NAME>
1-[2-(2-chloroethoxy)phenyl]sulfonyl-3-(4-methoxy-6-methyl-1,3,5-triazin-2-yl)urea

> <PUBCHEM_IUPAC_SYSTEMATIC_NAME>
1-[2-(2-chloroethyloxy)phenyl]sulfonyl-3-(4-methoxy-6-methyl-1,3,5-triazin-2-yl)urea

> <PUBCHEM_IUPAC_TRADITIONAL_NAME>
1-[2-(2-chloroethoxy)phenyl]sulfonyl-3-(4-methoxy-6-methyl-s-triazin-2-yl)urea

> <PUBCHEM_IUPAC_INCHI>
InChI=1S/C14H16ClN5O5S/c1-9-16-12(19-14(17-9)24-2)18-13(21)20-26(22,23)11-6-4-3-5-10(11)25-8-7-15/h3-6H,7-8H2,1-2H3,(H2,16,17,18,19,20,21)

> <PUBCHEM_IUPAC_INCHIKEY>
XOPFESVZMSQIKC-UHFFFAOYSA-N

> <PUBCHEM_XLOGP3_AA>
2.3

> <PUBCHEM_EXACT_MASS>
401.056067

> <PUBCHEM_MOLECULAR_FORMULA>
C14H16ClN5O5S

> <PUBCHEM_MOLECULAR_WEIGHT>
401.82534

> <PUBCHEM_OPENEYE_CAN_SMILES>
CC1=NC(=NC(=N1)OC)NC(=O)NS(=O)(=O)C2=CC=CC=C2OCCCl

> <PUBCHEM_OPENEYE_ISO_SMILES>
CC1=NC(=NC(=N1)OC)NC(=O)NS(=O)(=O)C2=CC=CC=C2OCCCl

> <PUBCHEM_CACTVS_TPSA>
141

> <PUBCHEM_MONOISOTOPIC_WEIGHT>
401.056067

> <PUBCHEM_TOTAL_CHARGE>
0

> <PUBCHEM_HEAVY_ATOM_COUNT>
26

> <PUBCHEM_ATOM_DEF_STEREO_COUNT>
0

> <PUBCHEM_ATOM_UDEF_STEREO_COUNT>
0

> <PUBCHEM_BOND_DEF_STEREO_COUNT>
0

> <PUBCHEM_BOND_UDEF_STEREO_COUNT>
0

> <PUBCHEM_ISOTOPIC_ATOM_COUNT>
0

> <PUBCHEM_COMPONENT_COUNT>
1

> <PUBCHEM_CACTVS_TAUTO_COUNT>
9

> <PUBCHEM_COORDINATE_TYPE>
1
5
255

> <PUBCHEM_BONDANNOTATIONS>
10  22  8
10  23  8
11  22  8
11  24  8
12  23  8
12  24  8
13  14  8
13  15  8
14  16  8
15  17  8
16  18  8
17  18  8

$$$$

