440909
  -OEChem-07051212513D

 52 54  0     1  0  0  0  0  0999 V2000
    0.8570   -0.6264    0.0171 C   0  0  1  0  0  0  0  0  0  0  0  0
    1.8077    0.5861   -0.3245 C   0  0  2  0  0  0  0  0  0  0  0  0
   -0.4943   -0.4015   -0.7836 C   0  0  2  0  0  0  0  0  0  0  0  0
    3.3276    0.4343    0.0519 C   0  0  0  0  0  0  0  0  0  0  0  0
    1.5256   -1.9415   -0.4560 C   0  0  0  0  0  0  0  0  0  0  0  0
    1.1671    1.9132    0.1342 C   0  0  0  0  0  0  0  0  0  0  0  0
    3.8402   -0.9576   -0.3927 C   0  0  0  0  0  0  0  0  0  0  0  0
   -1.1104    0.9556   -0.4682 C   0  0  0  0  0  0  0  0  0  0  0  0
    2.9533   -2.1131    0.0512 C   0  0  0  0  0  0  0  0  0  0  0  0
   -0.1837    2.1427   -0.5456 C   0  0  0  0  0  0  0  0  0  0  0  0
   -1.4964   -1.5729   -0.6437 C   0  0  0  0  0  0  0  0  0  0  0  0
    0.5456   -0.7419    1.5328 C   0  0  0  0  0  0  0  0  0  0  0  0
   -2.9100   -1.1755   -1.0660 C   0  0  0  0  0  0  0  0  0  0  0  0
    3.6531    0.6610    1.5411 C   0  0  0  0  0  0  0  0  0  0  0  0
    4.1579    1.4863   -0.7334 C   0  0  0  0  0  0  0  0  0  0  0  0
   -3.4460    0.0139   -0.2381 C   0  0  1  0  0  0  0  0  0  0  0  0
   -2.4163    1.1216   -0.1889 C   0  0  0  0  0  0  0  0  0  0  0  0
   -4.7221    0.5445   -0.9169 C   0  0  0  0  0  0  0  0  0  0  0  0
   -3.7957   -0.4274    1.1613 C   0  0  0  0  0  0  0  0  0  0  0  0
   -3.2599    0.0987    2.2679 C   0  0  0  0  0  0  0  0  0  0  0  0
    1.8157    0.6307   -1.4267 H   0  0  0  0  0  0  0  0  0  0  0  0
   -0.2369   -0.3589   -1.8536 H   0  0  0  0  0  0  0  0  0  0  0  0
    1.5417   -1.9697   -1.5537 H   0  0  0  0  0  0  0  0  0  0  0  0
    0.9376   -2.8101   -0.1353 H   0  0  0  0  0  0  0  0  0  0  0  0
    1.8100    2.7632   -0.1152 H   0  0  0  0  0  0  0  0  0  0  0  0
    1.0414    1.9341    1.2221 H   0  0  0  0  0  0  0  0  0  0  0  0
    4.8590   -1.1240   -0.0200 H   0  0  0  0  0  0  0  0  0  0  0  0
    3.9104   -0.9866   -1.4889 H   0  0  0  0  0  0  0  0  0  0  0  0
    2.9684   -2.2151    1.1410 H   0  0  0  0  0  0  0  0  0  0  0  0
    3.3622   -3.0489   -0.3485 H   0  0  0  0  0  0  0  0  0  0  0  0
   -0.0089    2.3637   -1.6068 H   0  0  0  0  0  0  0  0  0  0  0  0
   -0.6463    3.0390   -0.1149 H   0  0  0  0  0  0  0  0  0  0  0  0
   -1.5387   -1.9557    0.3792 H   0  0  0  0  0  0  0  0  0  0  0  0
   -1.1648   -2.4108   -1.2690 H   0  0  0  0  0  0  0  0  0  0  0  0
   -0.0366    0.1036    1.9089 H   0  0  0  0  0  0  0  0  0  0  0  0
   -0.0228   -1.6488    1.7610 H   0  0  0  0  0  0  0  0  0  0  0  0
    1.4418   -0.8094    2.1447 H   0  0  0  0  0  0  0  0  0  0  0  0
   -2.8939   -0.9170   -2.1341 H   0  0  0  0  0  0  0  0  0  0  0  0
   -3.5744   -2.0444   -0.9714 H   0  0  0  0  0  0  0  0  0  0  0  0
    3.2295    1.5983    1.9140 H   0  0  0  0  0  0  0  0  0  0  0  0
    3.3126   -0.1496    2.1844 H   0  0  0  0  0  0  0  0  0  0  0  0
    4.7382    0.7221    1.6929 H   0  0  0  0  0  0  0  0  0  0  0  0
    3.9576    2.5059   -0.3898 H   0  0  0  0  0  0  0  0  0  0  0  0
    5.2333    1.3115   -0.6082 H   0  0  0  0  0  0  0  0  0  0  0  0
    3.9444    1.4440   -1.8073 H   0  0  0  0  0  0  0  0  0  0  0  0
   -2.7808    2.1234    0.0350 H   0  0  0  0  0  0  0  0  0  0  0  0
   -5.1676    1.3727   -0.3518 H   0  0  0  0  0  0  0  0  0  0  0  0
   -4.5128    0.9134   -1.9284 H   0  0  0  0  0  0  0  0  0  0  0  0
   -5.4832   -0.2406   -1.0032 H   0  0  0  0  0  0  0  0  0  0  0  0
   -4.5276   -1.2246    1.2713 H   0  0  0  0  0  0  0  0  0  0  0  0
   -3.5698   -0.2832    3.2364 H   0  0  0  0  0  0  0  0  0  0  0  0
   -2.5268    0.8946    2.2863 H   0  0  0  0  0  0  0  0  0  0  0  0
  1  2  1  0  0  0  0
  1  3  1  0  0  0  0
  1  5  1  0  0  0  0
  1 12  1  0  0  0  0
  2  4  1  0  0  0  0
  2  6  1  0  0  0  0
  2 21  1  0  0  0  0
  3  8  1  0  0  0  0
  3 11  1  0  0  0  0
  3 22  1  0  0  0  0
  4  7  1  0  0  0  0
  4 14  1  0  0  0  0
  4 15  1  0  0  0  0
  5  9  1  0  0  0  0
  5 23  1  0  0  0  0
  5 24  1  0  0  0  0
  6 10  1  0  0  0  0
  6 25  1  0  0  0  0
  6 26  1  0  0  0  0
  7  9  1  0  0  0  0
  7 27  1  0  0  0  0
  7 28  1  0  0  0  0
  8 10  1  0  0  0  0
  8 17  2  0  0  0  0
  9 29  1  0  0  0  0
  9 30  1  0  0  0  0
 10 31  1  0  0  0  0
 10 32  1  0  0  0  0
 11 13  1  0  0  0  0
 11 33  1  0  0  0  0
 11 34  1  0  0  0  0
 12 35  1  0  0  0  0
 12 36  1  0  0  0  0
 12 37  1  0  0  0  0
 13 16  1  0  0  0  0
 13 38  1  0  0  0  0
 13 39  1  0  0  0  0
 14 40  1  0  0  0  0
 14 41  1  0  0  0  0
 14 42  1  0  0  0  0
 15 43  1  0  0  0  0
 15 44  1  0  0  0  0
 15 45  1  0  0  0  0
 16 17  1  0  0  0  0
 16 18  1  0  0  0  0
 16 19  1  0  0  0  0
 17 46  1  0  0  0  0
 18 47  1  0  0  0  0
 18 48  1  0  0  0  0
 18 49  1  0  0  0  0
 19 20  2  0  0  0  0
 19 50  1  0  0  0  0
 20 51  1  0  0  0  0
 20 52  1  0  0  0  0
M  END
> <PUBCHEM_COMPOUND_CID>
440909

> <PUBCHEM_CONFORMER_RMSD>
0.6

> <PUBCHEM_CONFORMER_DIVERSEORDER>
1
2

> <PUBCHEM_MMFF94_PARTIAL_CHARGES>
11
10 0.14
16 0.28
17 -0.29
19 -0.29
20 -0.3
3 0.14
46 0.15
50 0.15
51 0.15
52 0.15
8 -0.28

> <PUBCHEM_EFFECTIVE_ROTOR_COUNT>
2.8

> <PUBCHEM_PHARMACOPHORE_FEATURES>
5
1 20 hydrophobe
3 4 14 15 hydrophobe
6 1 2 3 6 8 10 rings
6 1 2 4 5 7 9 rings
6 3 8 11 13 16 17 rings

> <PUBCHEM_HEAVY_ATOM_COUNT>
20

> <PUBCHEM_ATOM_DEF_STEREO_COUNT>
4

> <PUBCHEM_ATOM_UDEF_STEREO_COUNT>
0

> <PUBCHEM_BOND_DEF_STEREO_COUNT>
0

> <PUBCHEM_BOND_UDEF_STEREO_COUNT>
0

> <PUBCHEM_ISOTOPIC_ATOM_COUNT>
0

> <PUBCHEM_COMPONENT_COUNT>
1

> <PUBCHEM_CACTVS_TAUTO_COUNT>
1

> <PUBCHEM_CONFORMER_ID>
0006BA4D00000001

> <PUBCHEM_MMFF94_ENERGY>
65.373

> <PUBCHEM_FEATURE_SELFOVERLAP>
25.404

> <PUBCHEM_SHAPE_FINGERPRINT>
10366900 7 17632581539523093423
10863032 1 17749391434017266222
10967382 1 18410016533041103070
10980938 120 18408042918296187278
11132069 177 18410022013298040220
11471102 20 18410298012238882548
11552529 35 18190446170014941675
11578080 2 17606149339815725793
11615757 297 17967816067399758427
12236239 1 17748827419608047469
12403814 3 18413111675469122293
12553582 1 18410855430216755036
12596599 1 17968088737757238367
12670546 56 17167865270162156625
13140716 1 18121784932628747432
13221675 6 18410859849658597989
13224815 77 18201999932255498084
13296908 3 18273212032117014367
13533116 47 17530965821682917671
13675066 3 18201719543979515909
14223421 5 18129384967500571500
14289901 80 18411702101351115384
14787075 74 17773020973858515001
14790565 3 18122903127876561644
15196674 1 18410296904053028111
15209294 21 17604137207966973457
15239154 128 17967250892563691648
15309172 13 18260827116099208391
15375358 24 18131637802733684335
15375462 189 18335698347154012512
15536298 74 18261116287535773430
15848702 151 17677042555244673934
16945 1 18410576145567642868
18186145 218 17675923183946395248
200 152 18040444274282716005
20645477 70 18339085985476648255
20739085 24 18265310962839564632
21267235 1 18409442626478728438
23184049 59 18334005112338004007
2334 1 17762343509109392756
23402539 116 18272662229274699046
23419403 2 14826753166303231125
23463225 33 18410015454998939638
23493267 7 17489031577601749381
23559900 14 17346311665465656810
26918003 58 17632864139296017040
2748010 2 18194689395480619804
296302 2 17703792505101806573
3286 77 16805904977405097883
34934 24 18410303496769707733
350125 39 18337392768204167772
474 4 18059856121653090756
5104073 3 18408325501332386339
568465 68 17631718401267472531
633830 44 17917994983679320566
6992083 37 18259980474986842863
81228 2 17914896680272202029

> <PUBCHEM_SHAPE_MULTIPOLES>
411.59
8.14
2.03
1.41
1.37
0.04
0.84
-0.38
0.34
-1.23
-0.4
0.87
0.04
0.02

> <PUBCHEM_SHAPE_SELFOVERLAP>
856.681

> <PUBCHEM_SHAPE_VOLUME>
233.5

> <PUBCHEM_COORDINATE_TYPE>
2
5
10

$$$$

