854139
  -OEChem-06241222472D

 32 34  0     0  0  0  0  0  0999 V2000
    6.0010   -3.7215    0.0000 F   0  0  0  0  0  0  0  0  0  0  0  0
    3.4030   -0.2215    0.0000 O   0  0  0  0  0  0  0  0  0  0  0  0
    2.5369   -1.7215    0.0000 O   0  0  0  0  0  0  0  0  0  0  0  0
    6.2177    0.9809    0.0000 N   0  0  0  0  0  0  0  0  0  0  0  0
    6.7177    0.1149    0.0000 N   0  0  0  0  0  0  0  0  0  0  0  0
    5.1350   -0.2215    0.0000 C   0  0  0  0  0  0  0  0  0  0  0  0
    5.2395    0.7730    0.0000 C   0  0  0  0  0  0  0  0  0  0  0  0
    6.6244    1.8944    0.0000 C   0  0  0  0  0  0  0  0  0  0  0  0
    4.2690   -1.7215    0.0000 C   0  0  0  0  0  0  0  0  0  0  0  0
    4.2690   -0.7215    0.0000 C   0  0  0  0  0  0  0  0  0  0  0  0
    6.0486   -0.6283    0.0000 C   0  0  0  0  0  0  0  0  0  0  0  0
    3.4030   -2.2215    0.0000 C   0  0  0  0  0  0  0  0  0  0  0  0
    5.1350   -2.2215    0.0000 C   0  0  0  0  0  0  0  0  0  0  0  0
    7.6190    1.9990    0.0000 C   0  0  0  0  0  0  0  0  0  0  0  0
    6.0366    2.7035    0.0000 C   0  0  0  0  0  0  0  0  0  0  0  0
    3.4030   -3.2215    0.0000 C   0  0  0  0  0  0  0  0  0  0  0  0
    5.1350   -3.2215    0.0000 C   0  0  0  0  0  0  0  0  0  0  0  0
    8.0257    2.9125    0.0000 C   0  0  0  0  0  0  0  0  0  0  0  0
    6.4434    3.6170    0.0000 C   0  0  0  0  0  0  0  0  0  0  0  0
    4.2690   -3.7215    0.0000 C   0  0  0  0  0  0  0  0  0  0  0  0
    7.4379    3.7215    0.0000 C   0  0  0  0  0  0  0  0  0  0  0  0
    4.7788    1.1878    0.0000 H   0  0  0  0  0  0  0  0  0  0  0  0
    6.1775   -1.2347    0.0000 H   0  0  0  0  0  0  0  0  0  0  0  0
    5.6720   -1.9115    0.0000 H   0  0  0  0  0  0  0  0  0  0  0  0
    7.9834    1.4974    0.0000 H   0  0  0  0  0  0  0  0  0  0  0  0
    5.4200    2.6386    0.0000 H   0  0  0  0  0  0  0  0  0  0  0  0
    2.8660   -3.5315    0.0000 H   0  0  0  0  0  0  0  0  0  0  0  0
    8.6423    2.9773    0.0000 H   0  0  0  0  0  0  0  0  0  0  0  0
    6.0790    4.1186    0.0000 H   0  0  0  0  0  0  0  0  0  0  0  0
    4.2690   -4.3415    0.0000 H   0  0  0  0  0  0  0  0  0  0  0  0
    7.6901    4.2879    0.0000 H   0  0  0  0  0  0  0  0  0  0  0  0
    2.0000   -2.0315    0.0000 H   0  0  0  0  0  0  0  0  0  0  0  0
  1 17  1  0  0  0  0
  2 10  2  0  0  0  0
  3 12  1  0  0  0  0
  3 32  1  0  0  0  0
  4  5  1  0  0  0  0
  4  7  1  0  0  0  0
  4  8  1  0  0  0  0
  5 11  2  0  0  0  0
  6  7  2  0  0  0  0
  6 10  1  0  0  0  0
  6 11  1  0  0  0  0
  7 22  1  0  0  0  0
  8 14  2  0  0  0  0
  8 15  1  0  0  0  0
  9 10  1  0  0  0  0
  9 12  2  0  0  0  0
  9 13  1  0  0  0  0
 11 23  1  0  0  0  0
 12 16  1  0  0  0  0
 13 17  2  0  0  0  0
 13 24  1  0  0  0  0
 14 18  1  0  0  0  0
 14 25  1  0  0  0  0
 15 19  2  0  0  0  0
 15 26  1  0  0  0  0
 16 20  2  0  0  0  0
 16 27  1  0  0  0  0
 17 20  1  0  0  0  0
 18 21  2  0  0  0  0
 18 28  1  0  0  0  0
 19 21  1  0  0  0  0
 19 29  1  0  0  0  0
 20 30  1  0  0  0  0
 21 31  1  0  0  0  0
M  END
> <PUBCHEM_COMPOUND_CID>
854139

> <PUBCHEM_COMPOUND_CANONICALIZED>
1

> <PUBCHEM_CACTVS_COMPLEXITY>
373

> <PUBCHEM_CACTVS_HBOND_ACCEPTOR>
4

> <PUBCHEM_CACTVS_HBOND_DONOR>
1

> <PUBCHEM_CACTVS_ROTATABLE_BOND>
3

> <PUBCHEM_CACTVS_SUBSKEYS>
AAADccB7MQAAAAAAAAAAAAAAAAAAAWAAAAAwYAAAAAAAAAAB0AAAHwAICAAADAzBmgw8xpIIAgCqArR3RACSBCA1ogAYmCEubNgIJv7C1dOE9chk6BHI2ceY2OKOAAAAAAAIAAAAAAAAABAAAAAAAAAAAA==

> <PUBCHEM_IUPAC_OPENEYE_NAME>
(5-fluoro-2-hydroxy-phenyl)-(1-phenylpyrazol-4-yl)methanone

> <PUBCHEM_IUPAC_CAS_NAME>
(5-fluoro-2-hydroxyphenyl)-(1-phenyl-4-pyrazolyl)methanone

> <PUBCHEM_IUPAC_NAME>
(5-fluoro-2-hydroxyphenyl)-(1-phenylpyrazol-4-yl)methanone

> <PUBCHEM_IUPAC_SYSTEMATIC_NAME>
(5-fluoranyl-2-oxidanyl-phenyl)-(1-phenylpyrazol-4-yl)methanone

> <PUBCHEM_IUPAC_TRADITIONAL_NAME>
(5-fluoro-2-hydroxy-phenyl)-(1-phenylpyrazol-4-yl)methanone

> <PUBCHEM_IUPAC_INCHI>
InChI=1S/C16H11FN2O2/c17-12-6-7-15(20)14(8-12)16(21)11-9-18-19(10-11)13-4-2-1-3-5-13/h1-10,20H

> <PUBCHEM_IUPAC_INCHIKEY>
LUIKVPFJGVQNCR-UHFFFAOYSA-N

> <PUBCHEM_XLOGP3_AA>
3.5

> <PUBCHEM_EXACT_MASS>
282.080456

> <PUBCHEM_MOLECULAR_FORMULA>
C16H11FN2O2

> <PUBCHEM_MOLECULAR_WEIGHT>
282.269143

> <PUBCHEM_OPENEYE_CAN_SMILES>
C1=CC=C(C=C1)N2C=C(C=N2)C(=O)C3=C(C=CC(=C3)F)O

> <PUBCHEM_OPENEYE_ISO_SMILES>
C1=CC=C(C=C1)N2C=C(C=N2)C(=O)C3=C(C=CC(=C3)F)O

> <PUBCHEM_CACTVS_TPSA>
55.1

> <PUBCHEM_MONOISOTOPIC_WEIGHT>
282.080456

> <PUBCHEM_TOTAL_CHARGE>
0

> <PUBCHEM_HEAVY_ATOM_COUNT>
21

> <PUBCHEM_ATOM_DEF_STEREO_COUNT>
0

> <PUBCHEM_ATOM_UDEF_STEREO_COUNT>
0

> <PUBCHEM_BOND_DEF_STEREO_COUNT>
0

> <PUBCHEM_BOND_UDEF_STEREO_COUNT>
0

> <PUBCHEM_ISOTOPIC_ATOM_COUNT>
0

> <PUBCHEM_COMPONENT_COUNT>
1

> <PUBCHEM_CACTVS_TAUTO_COUNT>
4

> <PUBCHEM_COORDINATE_TYPE>
1
5
255

> <PUBCHEM_BONDANNOTATIONS>
12  16  8
13  17  8
14  18  8
15  19  8
16  20  8
17  20  8
18  21  8
19  21  8
4  5  8
4  7  8
5  11  8
6  11  8
6  7  8
8  14  8
8  15  8
9  12  8
9  13  8

$$$$

