11109238
  -OEChem-07051213153D

 46 45  0     0  0  0  0  0  0999 V2000
    9.4948    0.8516    0.0872 O   0  0  0  0  0  0  0  0  0  0  0  0
   -9.4081   -1.1098   -0.1824 O   0  0  0  0  0  0  0  0  0  0  0  0
    2.6122   -1.5867   -0.0016 C   0  0  0  0  0  0  0  0  0  0  0  0
   -2.6747    1.7135    0.0389 C   0  0  0  0  0  0  0  0  0  0  0  0
    1.7985   -0.5292    0.1737 C   0  0  0  0  0  0  0  0  0  0  0  0
   -1.8097    0.6933   -0.1156 C   0  0  0  0  0  0  0  0  0  0  0  0
    4.0407   -1.6197    0.2518 C   0  0  0  0  0  0  0  0  0  0  0  0
   -4.0991    1.6582   -0.2409 C   0  0  0  0  0  0  0  0  0  0  0  0
    0.3750   -0.3899   -0.0459 C   0  0  0  0  0  0  0  0  0  0  0  0
   -0.3828    0.6997    0.1496 C   0  0  0  0  0  0  0  0  0  0  0  0
    2.0619   -2.9042   -0.4861 C   0  0  0  0  0  0  0  0  0  0  0  0
   -2.2070    3.0573    0.5321 C   0  0  0  0  0  0  0  0  0  0  0  0
    4.8614   -0.6015   -0.0523 C   0  0  0  0  0  0  0  0  0  0  0  0
   -4.8674    0.5983    0.0581 C   0  0  0  0  0  0  0  0  0  0  0  0
    6.2868   -0.6363    0.2013 C   0  0  0  0  0  0  0  0  0  0  0  0
   -6.2865    0.5536   -0.2252 C   0  0  0  0  0  0  0  0  0  0  0  0
    7.1651    0.3431   -0.0763 C   0  0  0  0  0  0  0  0  0  0  0  0
   -7.1169   -0.4688    0.0442 C   0  0  0  0  0  0  0  0  0  0  0  0
    6.8977    1.6719   -0.7130 C   0  0  0  0  0  0  0  0  0  0  0  0
   -6.7884   -1.7840    0.6814 C   0  0  0  0  0  0  0  0  0  0  0  0
    8.5825    0.0574    0.2848 C   0  0  0  0  0  0  0  0  0  0  0  0
   -8.5361   -0.2678   -0.3638 C   0  0  0  0  0  0  0  0  0  0  0  0
    2.2541    0.3901    0.5458 H   0  0  0  0  0  0  0  0  0  0  0  0
   -2.1996   -0.2539   -0.4885 H   0  0  0  0  0  0  0  0  0  0  0  0
    4.4328   -2.5321    0.6950 H   0  0  0  0  0  0  0  0  0  0  0  0
   -4.5333    2.5419   -0.7030 H   0  0  0  0  0  0  0  0  0  0  0  0
   -0.1318   -1.2857   -0.3965 H   0  0  0  0  0  0  0  0  0  0  0  0
    0.0875    1.6125    0.4984 H   0  0  0  0  0  0  0  0  0  0  0  0
    2.7619   -3.3802   -1.1840 H   0  0  0  0  0  0  0  0  0  0  0  0
    1.1184   -2.8210   -1.0303 H   0  0  0  0  0  0  0  0  0  0  0  0
    1.9138   -3.5856    0.3588 H   0  0  0  0  0  0  0  0  0  0  0  0
   -1.3709    2.9931    1.2341 H   0  0  0  0  0  0  0  0  0  0  0  0
   -1.9132    3.6906   -0.3118 H   0  0  0  0  0  0  0  0  0  0  0  0
   -3.0053    3.5758    1.0773 H   0  0  0  0  0  0  0  0  0  0  0  0
    4.4542    0.2928   -0.5127 H   0  0  0  0  0  0  0  0  0  0  0  0
   -4.4214   -0.2668    0.5378 H   0  0  0  0  0  0  0  0  0  0  0  0
    6.6444   -1.5552    0.6647 H   0  0  0  0  0  0  0  0  0  0  0  0
   -6.6837    1.4486   -0.7030 H   0  0  0  0  0  0  0  0  0  0  0  0
    7.4798    1.7731   -1.6353 H   0  0  0  0  0  0  0  0  0  0  0  0
    7.1876    2.4807   -0.0336 H   0  0  0  0  0  0  0  0  0  0  0  0
    5.8492    1.8289   -0.9744 H   0  0  0  0  0  0  0  0  0  0  0  0
   -7.3679   -1.9119    1.6020 H   0  0  0  0  0  0  0  0  0  0  0  0
   -5.7341   -1.8911    0.9447 H   0  0  0  0  0  0  0  0  0  0  0  0
   -7.0377   -2.6059    0.0017 H   0  0  0  0  0  0  0  0  0  0  0  0
    8.7771   -0.9239    0.7499 H   0  0  0  0  0  0  0  0  0  0  0  0
   -8.7717    0.6963   -0.8456 H   0  0  0  0  0  0  0  0  0  0  0  0
  1 21  2  0  0  0  0
  2 22  2  0  0  0  0
  3  5  2  0  0  0  0
  3  7  1  0  0  0  0
  3 11  1  0  0  0  0
  4  6  2  0  0  0  0
  4  8  1  0  0  0  0
  4 12  1  0  0  0  0
  5  9  1  0  0  0  0
  5 23  1  0  0  0  0
  6 10  1  0  0  0  0
  6 24  1  0  0  0  0
  7 13  2  0  0  0  0
  7 25  1  0  0  0  0
  8 14  2  0  0  0  0
  8 26  1  0  0  0  0
  9 10  2  0  0  0  0
  9 27  1  0  0  0  0
 10 28  1  0  0  0  0
 11 29  1  0  0  0  0
 11 30  1  0  0  0  0
 11 31  1  0  0  0  0
 12 32  1  0  0  0  0
 12 33  1  0  0  0  0
 12 34  1  0  0  0  0
 13 15  1  0  0  0  0
 13 35  1  0  0  0  0
 14 16  1  0  0  0  0
 14 36  1  0  0  0  0
 15 17  2  0  0  0  0
 15 37  1  0  0  0  0
 16 18  2  0  0  0  0
 16 38  1  0  0  0  0
 17 19  1  0  0  0  0
 17 21  1  0  0  0  0
 18 20  1  0  0  0  0
 18 22  1  0  0  0  0
 19 39  1  0  0  0  0
 19 40  1  0  0  0  0
 19 41  1  0  0  0  0
 20 42  1  0  0  0  0
 20 43  1  0  0  0  0
 20 44  1  0  0  0  0
 21 45  1  0  0  0  0
 22 46  1  0  0  0  0
M  END
> <PUBCHEM_COMPOUND_CID>
11109238

> <PUBCHEM_CONFORMER_RMSD>
0.8

> <PUBCHEM_CONFORMER_DIVERSEORDER>
2
28
5
1
36
44
18
35
49
3
42
34
10
63
70
20
41
55
52
6
48
31
71
66
57
21
54
13
65
7
37
4
30
51
26
64
59
62
23
38
58
17
8
22
19
46
24
39
16
9
56
27
53
43
60
68
25
33
61
45
50
15
40
69
12
32
11
29
14
67
47

> <PUBCHEM_MMFF94_PARTIAL_CHARGES>
34
1 -0.57
10 -0.15
11 0.14
12 0.14
13 -0.15
14 -0.15
15 -0.15
16 -0.15
17 -0.12
18 -0.12
19 0.14
2 -0.57
20 0.14
21 0.5
22 0.5
23 0.15
24 0.15
25 0.15
26 0.15
27 0.15
28 0.15
3 -0.14
35 0.15
36 0.15
37 0.15
38 0.15
4 -0.14
45 0.06
46 0.06
5 -0.15
6 -0.15
7 -0.15
8 -0.15
9 -0.15

> <PUBCHEM_EFFECTIVE_ROTOR_COUNT>
8

> <PUBCHEM_PHARMACOPHORE_FEATURES>
6
1 1 acceptor
1 11 hydrophobe
1 12 hydrophobe
1 19 hydrophobe
1 2 acceptor
1 20 hydrophobe

> <PUBCHEM_HEAVY_ATOM_COUNT>
22

> <PUBCHEM_ATOM_DEF_STEREO_COUNT>
0

> <PUBCHEM_ATOM_UDEF_STEREO_COUNT>
0

> <PUBCHEM_BOND_DEF_STEREO_COUNT>
7

> <PUBCHEM_BOND_UDEF_STEREO_COUNT>
0

> <PUBCHEM_ISOTOPIC_ATOM_COUNT>
0

> <PUBCHEM_COMPONENT_COUNT>
1

> <PUBCHEM_CACTVS_TAUTO_COUNT>
1

> <PUBCHEM_CONFORMER_ID>
00A9837600000002

> <PUBCHEM_MMFF94_ENERGY>
42.9747

> <PUBCHEM_FEATURE_SELFOVERLAP>
30.446

> <PUBCHEM_SHAPE_FINGERPRINT>
10391435 84 18202565051837830603
10595046 47 18338517572361496088
10674148 151 6699804268486930302
10883706 142 18040157327945178266
11315181 36 18333731347840530673
11408170 108 14476691857618225024
11724838 91 18272931631356712662
13422730 43 18413113866308430506
14117953 113 11167942489703580832
14123256 10 18410856563940031628
14168556 18 18410293579642735371
14251732 16 18412544335832102026
14251764 46 18060421313204835371
14257110 125 18409730686468043446
14461889 52 18413389847885378362
1454969 45 18408603656225393679
14671636 106 18041286461609246591
14918687 75 17386014915155933431
15183329 4 9799690415598540822
15347591 1 18122627420443940334
15728490 51 18408605842501189895
18335252 98 18260265269799459870
18608769 82 18335422344113628786
20621476 8 8502654800694205243
21049683 271 18334577931910786680
21150785 3 18202846556251220185
21315763 28 18340487880725353146
21365058 27 16443347585151010671
21403212 168 11959731573078207688
21774942 28 13254528608152255943
22224240 67 18060700602750171674
22896161 15 18410856581336165643
34797466 226 17458060474447486748
395649 100 17988641853234607963
4325135 7 18412545409573932734
4366758 6 15410896262216039337
5381727 24 18410015460265078274
559249 180 10879696689739278993
6126387 218 10735873955161396758
6394761 36 9583517616067523986
67123 10 18412826880197627652

> <PUBCHEM_SHAPE_MULTIPOLES>
441.01
31.38
2.44
0.7
2.15
0.16
0
-1.79
-0.76
-0.59
0.05
-0.02
0.01
-0.13

> <PUBCHEM_SHAPE_SELFOVERLAP>
866.63

> <PUBCHEM_SHAPE_VOLUME>
262.4

> <PUBCHEM_COORDINATE_TYPE>
2
5
10

$$$$

