17395764
  -OEChem-06241222523D

 56 59  0     1  0  0  0  0  0999 V2000
   -3.8953    0.8778   -1.8004 O   0  0  0  0  0  0  0  0  0  0  0  0
    2.4275   -1.7975    0.2909 O   0  0  0  0  0  0  0  0  0  0  0  0
   -2.5230   -0.0307   -0.1612 N   0  0  0  0  0  0  0  0  0  0  0  0
    0.1481   -0.3409    0.8272 N   0  0  0  0  0  0  0  0  0  0  0  0
    3.7044    0.1430    0.6316 N   0  0  0  0  0  0  0  0  0  0  0  0
   -6.1610    1.1211   -0.2908 C   0  0  2  0  0  0  0  0  0  0  0  0
   -4.8632    0.5755    0.3418 C   0  0  1  0  0  0  0  0  0  0  0  0
   -6.8042   -0.8454    0.5550 C   0  0  2  0  0  0  0  0  0  0  0  0
   -7.1864    0.6276    0.7371 C   0  0  0  0  0  0  0  0  0  0  0  0
   -5.2949   -0.8117    0.8873 C   0  0  0  0  0  0  0  0  0  0  0  0
   -6.5673    0.2411   -1.4534 C   0  0  0  0  0  0  0  0  0  0  0  0
   -6.9463   -0.9403   -0.9450 C   0  0  0  0  0  0  0  0  0  0  0  0
   -3.7237    0.4899   -0.6420 C   0  0  0  0  0  0  0  0  0  0  0  0
   -1.4136   -0.2732   -1.0821 C   0  0  0  0  0  0  0  0  0  0  0  0
   -2.2899   -0.4988    1.2082 C   0  0  0  0  0  0  0  0  0  0  0  0
   -0.0924    0.2334   -0.5046 C   0  0  0  0  0  0  0  0  0  0  0  0
   -0.9487    0.0067    1.7428 C   0  0  0  0  0  0  0  0  0  0  0  0
    1.4288    0.1200    1.3617 C   0  0  0  0  0  0  0  0  0  0  0  0
    2.5590   -0.6476    0.6981 C   0  0  0  0  0  0  0  0  0  0  0  0
    4.9639   -0.2055    0.0880 C   0  0  0  0  0  0  0  0  0  0  0  0
    6.0224    0.7029    0.0950 C   0  0  0  0  0  0  0  0  0  0  0  0
    5.1392   -1.4764   -0.4599 C   0  0  0  0  0  0  0  0  0  0  0  0
    5.8636    2.0710    0.6752 C   0  0  0  0  0  0  0  0  0  0  0  0
    7.2561    0.3405   -0.4457 C   0  0  0  0  0  0  0  0  0  0  0  0
    6.3728   -1.8388   -1.0005 C   0  0  0  0  0  0  0  0  0  0  0  0
    7.4312   -0.9305   -0.9934 C   0  0  0  0  0  0  0  0  0  0  0  0
    5.3929    3.0867   -0.3609 C   0  0  0  0  0  0  0  0  0  0  0  0
   -6.1876    2.1925   -0.4943 H   0  0  0  0  0  0  0  0  0  0  0  0
   -4.5656    1.2365    1.1658 H   0  0  0  0  0  0  0  0  0  0  0  0
   -7.4046   -1.5581    1.1210 H   0  0  0  0  0  0  0  0  0  0  0  0
   -7.0020    1.0012    1.7509 H   0  0  0  0  0  0  0  0  0  0  0  0
   -8.2252    0.8475    0.4592 H   0  0  0  0  0  0  0  0  0  0  0  0
   -5.1658   -0.8524    1.9750 H   0  0  0  0  0  0  0  0  0  0  0  0
   -4.7638   -1.6571    0.4365 H   0  0  0  0  0  0  0  0  0  0  0  0
   -6.5205    0.5012   -2.4990 H   0  0  0  0  0  0  0  0  0  0  0  0
   -7.2557   -1.8094   -1.5028 H   0  0  0  0  0  0  0  0  0  0  0  0
   -1.3680   -1.3555   -1.2551 H   0  0  0  0  0  0  0  0  0  0  0  0
   -1.6021    0.2033   -2.0496 H   0  0  0  0  0  0  0  0  0  0  0  0
   -3.0605   -0.1564    1.8974 H   0  0  0  0  0  0  0  0  0  0  0  0
   -2.3103   -1.5949    1.1886 H   0  0  0  0  0  0  0  0  0  0  0  0
    0.7094   -0.0446   -1.1983 H   0  0  0  0  0  0  0  0  0  0  0  0
   -0.1163    1.3304   -0.4534 H   0  0  0  0  0  0  0  0  0  0  0  0
   -0.9971    1.0945    1.8869 H   0  0  0  0  0  0  0  0  0  0  0  0
   -0.7780   -0.4492    2.7254 H   0  0  0  0  0  0  0  0  0  0  0  0
    1.5454    1.2050    1.2533 H   0  0  0  0  0  0  0  0  0  0  0  0
    1.5096   -0.1144    2.4312 H   0  0  0  0  0  0  0  0  0  0  0  0
    3.6239    1.0828    1.0047 H   0  0  0  0  0  0  0  0  0  0  0  0
    4.3746   -2.2379   -0.5055 H   0  0  0  0  0  0  0  0  0  0  0  0
    6.8340    2.4069    1.0660 H   0  0  0  0  0  0  0  0  0  0  0  0
    5.2109    2.0793    1.5542 H   0  0  0  0  0  0  0  0  0  0  0  0
    8.0896    1.0379   -0.4499 H   0  0  0  0  0  0  0  0  0  0  0  0
    6.5108   -2.8280   -1.4275 H   0  0  0  0  0  0  0  0  0  0  0  0
    8.3916   -1.2126   -1.4151 H   0  0  0  0  0  0  0  0  0  0  0  0
    4.4087    2.8199   -0.7603 H   0  0  0  0  0  0  0  0  0  0  0  0
    5.3169    4.0802    0.0923 H   0  0  0  0  0  0  0  0  0  0  0  0
    6.0916    3.1504   -1.2021 H   0  0  0  0  0  0  0  0  0  0  0  0
  1 13  2  0  0  0  0
  2 19  2  0  0  0  0
  3 13  1  0  0  0  0
  3 14  1  0  0  0  0
  3 15  1  0  0  0  0
  4 16  1  0  0  0  0
  4 17  1  0  0  0  0
  4 18  1  0  0  0  0
  5 19  1  0  0  0  0
  5 20  1  0  0  0  0
  5 47  1  0  0  0  0
  6  7  1  0  0  0  0
  6  9  1  0  0  0  0
  6 11  1  0  0  0  0
  6 28  1  0  0  0  0
  7 10  1  0  0  0  0
  7 13  1  0  0  0  0
  7 29  1  0  0  0  0
  8  9  1  0  0  0  0
  8 10  1  0  0  0  0
  8 12  1  0  0  0  0
  8 30  1  0  0  0  0
  9 31  1  0  0  0  0
  9 32  1  0  0  0  0
 10 33  1  0  0  0  0
 10 34  1  0  0  0  0
 11 12  2  0  0  0  0
 11 35  1  0  0  0  0
 12 36  1  0  0  0  0
 14 16  1  0  0  0  0
 14 37  1  0  0  0  0
 14 38  1  0  0  0  0
 15 17  1  0  0  0  0
 15 39  1  0  0  0  0
 15 40  1  0  0  0  0
 16 41  1  0  0  0  0
 16 42  1  0  0  0  0
 17 43  1  0  0  0  0
 17 44  1  0  0  0  0
 18 19  1  0  0  0  0
 18 45  1  0  0  0  0
 18 46  1  0  0  0  0
 20 21  1  0  0  0  0
 20 22  2  0  0  0  0
 21 23  1  0  0  0  0
 21 24  2  0  0  0  0
 22 25  1  0  0  0  0
 22 48  1  0  0  0  0
 23 27  1  0  0  0  0
 23 49  1  0  0  0  0
 23 50  1  0  0  0  0
 24 26  1  0  0  0  0
 24 51  1  0  0  0  0
 25 26  2  0  0  0  0
 25 52  1  0  0  0  0
 26 53  1  0  0  0  0
 27 54  1  0  0  0  0
 27 55  1  0  0  0  0
 27 56  1  0  0  0  0
M  END
> <PUBCHEM_COMPOUND_CID>
17395764

> <PUBCHEM_CONFORMER_RMSD>
1.2

> <PUBCHEM_CONFORMER_DIVERSEORDER>
3
61
13
37
25
76
22
65
66
70
67
26
6
86
16
31
98
62
18
101
12
94
87
91
63
64
81
102
55
100
9
30
82
85
35
54
47
28
42
43
59
80
7
39
95
78
11
103
84
68
73
24
69
88
29
79
90
8
46
75
36
45
104
97
41
44
99
72
34
19
106
15
10
1
53
32
60
33
4
20
105
57
77
52
96
51
5
89
92
2
49
23
56
27
14
71
17
40
48
58
93
38
74
83
21
50

> <PUBCHEM_MMFF94_PARTIAL_CHARGES>
31
1 -0.57
11 -0.29
12 -0.29
13 0.57
14 0.3
15 0.3
16 0.27
17 0.27
18 0.33
19 0.57
2 -0.57
20 0.12
21 -0.14
22 -0.15
23 0.14
24 -0.15
25 -0.15
26 -0.15
3 -0.66
35 0.15
36 0.15
4 -0.81
47 0.37
48 0.15
5 -0.55
51 0.15
52 0.15
53 0.15
6 0.14
7 0.06
8 0.14

> <PUBCHEM_EFFECTIVE_ROTOR_COUNT>
8.8

> <PUBCHEM_PHARMACOPHORE_FEATURES>
8
1 1 acceptor
1 2 acceptor
1 27 hydrophobe
1 4 cation
1 5 donor
6 20 21 22 24 25 26 rings
6 3 4 14 15 16 17 rings
7 6 7 8 9 10 11 12 rings

> <PUBCHEM_HEAVY_ATOM_COUNT>
27

> <PUBCHEM_ATOM_DEF_STEREO_COUNT>
0

> <PUBCHEM_ATOM_UDEF_STEREO_COUNT>
3

> <PUBCHEM_BOND_DEF_STEREO_COUNT>
0

> <PUBCHEM_BOND_UDEF_STEREO_COUNT>
0

> <PUBCHEM_ISOTOPIC_ATOM_COUNT>
0

> <PUBCHEM_COMPONENT_COUNT>
1

> <PUBCHEM_CACTVS_TAUTO_COUNT>
2

> <PUBCHEM_CONFORMER_ID>
0109703400000003

> <PUBCHEM_MMFF94_ENERGY>
90.3844

> <PUBCHEM_FEATURE_SELFOVERLAP>
40.594

> <PUBCHEM_SHAPE_FINGERPRINT>
10 15 13614518562775643041
10299344 5 17385723599422437047
10638233 991 17967251970579897416
11315181 36 17489869350408073221
11719270 70 14261356859803242496
11796584 16 4678808476521171828
11991303 11 18113904810033882383
12082328 90 18187082854555741987
12166972 35 17167865253014183464
12236239 1 17675924309011458249
12516196 113 18060700597906539317
12730499 353 18273496797476829314
13533116 47 17458062707503588830
13617811 41 15791726408516870808
13685833 64 14345797154046273810
13885169 127 6988328217873677915
14068700 675 15791731905689583250
14251752 14 17022903484039893025
14251764 18 15357700786105553634
14856354 85 17385727972432244477
14933364 13 18410855468792144329
150020 25 18272650155699825311
15003188 100 18342737408533325084
15119646 104 16370719366316600086
15183329 4 15574714698640424012
15352257 5 17822011999578904703
15419008 47 18060422417260150092
15849732 13 18411980256355146871
17093844 174 8502655905592881759
19377110 9 14620804811546227368
20157964 124 18335420158829518528
20554085 129 16630812093173210384
21033648 29 17774441569664508560
21150785 3 18040998436168592568
21267235 1 15791736278699635979
21315759 40 17240199936887979566
21781051 124 16153987941621655742
221357 26 18409729586925325816
23035841 295 15574715798384218827
23081809 10 17313376842310733738
23198884 109 18408321103570471105
23424782 7 18271803484660222147
23522609 53 16878762938329689344
23559900 14 18340771438487182129
249057 3 18260546711202279414
2747138 104 17560793321560654681
3004659 81 15285642067044637976
34797466 226 18411698777394652836
397830 11 17986944159445253176
4073 2 18200028439499227554
4098825 35 18261672674647446969
4325135 7 16487253279012856694
44317340 157 18334014948293075296
504579 68 17749379344396672980
5283156 175 17095238146824189674
5758199 1 16845572045752672689
9831232 110 6050450327331025520

> <PUBCHEM_SHAPE_MULTIPOLES>
528.97
25.47
1.74
1.37
1.01
0.83
-0.01
0.44
-5.72
3.85
-0.27
-1.16
-0.01
0.83

> <PUBCHEM_SHAPE_SELFOVERLAP>
1134.423

> <PUBCHEM_SHAPE_VOLUME>
295.6

> <PUBCHEM_COORDINATE_TYPE>
2
5
10

$$$$

