12876
  -OEChem-06261207292D

 27 27  0     0  0  0  0  0  0999 V2000
    5.1350    3.6200    0.0000 I   0  3  0  0  0  0  0  0  0  0  0  0
    1.7320    3.8700    0.0000 O   0  5  0  0  0  0  0  0  0  0  0  0
    0.0000    3.8700    0.0000 O   0  5  0  0  0  0  0  0  0  0  0  0
    0.8660    2.3700    0.0000 O   0  0  0  0  0  0  0  0  0  0  0  0
    0.8660    3.3700    0.0000 N   0  3  0  0  0  0  0  0  0  0  0  0
    5.1350    2.6200    0.0000 C   0  0  0  0  0  0  0  0  0  0  0  0
    6.0010    4.1200    0.0000 C   0  0  0  0  0  0  0  0  0  0  0  0
    4.2690    2.1200    0.0000 C   0  0  0  0  0  0  0  0  0  0  0  0
    6.8671    3.6200    0.0000 C   0  0  0  0  0  0  0  0  0  0  0  0
    6.0010    2.1200    0.0000 C   0  0  0  0  0  0  0  0  0  0  0  0
    6.0010    5.1200    0.0000 C   0  0  0  0  0  0  0  0  0  0  0  0
    4.2690    1.1200    0.0000 C   0  0  0  0  0  0  0  0  0  0  0  0
    7.7331    4.1200    0.0000 C   0  0  0  0  0  0  0  0  0  0  0  0
    6.0010    1.1200    0.0000 C   0  0  0  0  0  0  0  0  0  0  0  0
    6.8671    5.6200    0.0000 C   0  0  0  0  0  0  0  0  0  0  0  0
    7.7331    5.1200    0.0000 C   0  0  0  0  0  0  0  0  0  0  0  0
    5.1350    0.6200    0.0000 C   0  0  0  0  0  0  0  0  0  0  0  0
    3.7320    2.4300    0.0000 H   0  0  0  0  0  0  0  0  0  0  0  0
    6.8671    3.0000    0.0000 H   0  0  0  0  0  0  0  0  0  0  0  0
    6.5380    2.4300    0.0000 H   0  0  0  0  0  0  0  0  0  0  0  0
    5.4641    5.4300    0.0000 H   0  0  0  0  0  0  0  0  0  0  0  0
    3.7320    0.8100    0.0000 H   0  0  0  0  0  0  0  0  0  0  0  0
    8.2700    3.8100    0.0000 H   0  0  0  0  0  0  0  0  0  0  0  0
    6.5380    0.8100    0.0000 H   0  0  0  0  0  0  0  0  0  0  0  0
    6.8671    6.2400    0.0000 H   0  0  0  0  0  0  0  0  0  0  0  0
    5.1350    0.0000    0.0000 H   0  0  0  0  0  0  0  0  0  0  0  0
    8.2700    5.4300    0.0000 H   0  0  0  0  0  0  0  0  0  0  0  0
  1  6  1  0  0  0  0
  1  7  1  0  0  0  0
  2  5  1  0  0  0  0
  3  5  1  0  0  0  0
  4  5  2  0  0  0  0
  6  8  2  0  0  0  0
  6 10  1  0  0  0  0
  7  9  2  0  0  0  0
  7 11  1  0  0  0  0
  8 12  1  0  0  0  0
  8 18  1  0  0  0  0
  9 13  1  0  0  0  0
  9 19  1  0  0  0  0
 10 14  2  0  0  0  0
 10 20  1  0  0  0  0
 11 15  2  0  0  0  0
 11 21  1  0  0  0  0
 12 17  2  0  0  0  0
 12 22  1  0  0  0  0
 13 16  2  0  0  0  0
 13 23  1  0  0  0  0
 14 17  1  0  0  0  0
 14 24  1  0  0  0  0
 15 16  1  0  0  0  0
 15 25  1  0  0  0  0
 16 27  1  0  0  0  0
 17 26  1  0  0  0  0
M  CHG  4   1   1   2  -1   3  -1   5   1
M  END
> <PUBCHEM_COMPOUND_CID>
12876

> <PUBCHEM_COMPOUND_CANONICALIZED>
1

> <PUBCHEM_CACTVS_COMPLEXITY>
135

> <PUBCHEM_CACTVS_HBOND_ACCEPTOR>
3

> <PUBCHEM_CACTVS_HBOND_DONOR>
0

> <PUBCHEM_CACTVS_ROTATABLE_BOND>
2

> <PUBCHEM_CACTVS_SUBSKEYS>
AAADccByMAAAAgAAAAAAAAAAAAAAAAAAAAAwYAAAAAAAAAABQAAAGAAkAAAACACCEAAwAIAAQACBACBCAQACAAAgAAAIiAAAAIgIICKAERCAIAAggAAIiAcAAAAAAAAAAAAAAAAAAAAAAAAAAAAAAAAAAA==

> <PUBCHEM_IUPAC_OPENEYE_NAME>
diphenyliodonium nitrate

> <PUBCHEM_IUPAC_CAS_NAME>
diphenyliodonium nitrate

> <PUBCHEM_IUPAC_NAME>
diphenyliodanium nitrate

> <PUBCHEM_IUPAC_SYSTEMATIC_NAME>
diphenyliodanium nitrate

> <PUBCHEM_IUPAC_TRADITIONAL_NAME>
diphenyliodonium nitrate

> <PUBCHEM_IUPAC_INCHI>
InChI=1S/C12H10I.NO3/c1-3-7-11(8-4-1)13-12-9-5-2-6-10-12;2-1(3)4/h1-10H;/q+1;-1

> <PUBCHEM_IUPAC_INCHIKEY>
CQZCVYWWRJDZBO-UHFFFAOYSA-N

> <PUBCHEM_EXACT_MASS>
342.970541

> <PUBCHEM_MOLECULAR_FORMULA>
C12H10INO3

> <PUBCHEM_MOLECULAR_WEIGHT>
343.11717

> <PUBCHEM_OPENEYE_CAN_SMILES>
C1=CC=C(C=C1)[I+]C2=CC=CC=C2.[N+](=O)([O-])[O-]

> <PUBCHEM_OPENEYE_ISO_SMILES>
C1=CC=C(C=C1)[I+]C2=CC=CC=C2.[N+](=O)([O-])[O-]

> <PUBCHEM_CACTVS_TPSA>
62.9

> <PUBCHEM_MONOISOTOPIC_WEIGHT>
342.970541

> <PUBCHEM_TOTAL_CHARGE>
0

> <PUBCHEM_HEAVY_ATOM_COUNT>
17

> <PUBCHEM_ATOM_DEF_STEREO_COUNT>
0

> <PUBCHEM_ATOM_UDEF_STEREO_COUNT>
0

> <PUBCHEM_BOND_DEF_STEREO_COUNT>
0

> <PUBCHEM_BOND_UDEF_STEREO_COUNT>
0

> <PUBCHEM_ISOTOPIC_ATOM_COUNT>
0

> <PUBCHEM_COMPONENT_COUNT>
2

> <PUBCHEM_CACTVS_TAUTO_COUNT>
1

> <PUBCHEM_COORDINATE_TYPE>
1
5
255

> <PUBCHEM_BONDANNOTATIONS>
10  14  8
11  15  8
12  17  8
13  16  8
14  17  8
15  16  8
6  10  8
6  8  8
7  11  8
7  9  8
8  12  8
9  13  8

$$$$

