447407
  -OEChem-07051213043D

 32 32  0     1  0  0  0  0  0999 V2000
   -2.1341   -1.1315   -0.6365 O   0  0  0  0  0  0  0  0  0  0  0  0
    0.7298   -2.8322    0.3623 O   0  0  0  0  0  0  0  0  0  0  0  0
    1.8575   -0.1723   -1.8181 O   0  0  0  0  0  0  0  0  0  0  0  0
    2.4261    1.8621   -0.9902 O   0  0  0  0  0  0  0  0  0  0  0  0
   -1.3434   -2.2968   -0.5637 N   0  0  0  0  0  0  0  0  0  0  0  0
    3.2794    0.6379    1.3152 N   0  0  0  0  0  0  0  0  0  0  0  0
   -1.9501    1.1896    0.1379 C   0  0  0  0  0  0  0  0  0  0  0  0
   -1.3643   -0.1939    0.0398 C   0  0  0  0  0  0  0  0  0  0  0  0
   -0.2008   -0.6392    0.5179 C   0  0  0  0  0  0  0  0  0  0  0  0
    0.8892    0.0108    1.2765 C   0  0  0  0  0  0  0  0  0  0  0  0
   -0.9987    2.1862   -0.5372 C   0  0  0  0  0  0  0  0  0  0  0  0
   -2.1310    1.5681    1.6148 C   0  0  0  0  0  0  0  0  0  0  0  0
   -3.3147    1.2215   -0.5651 C   0  0  0  0  0  0  0  0  0  0  0  0
    2.2390   -0.0320    0.5366 C   0  0  1  0  0  0  0  0  0  0  0  0
   -0.1758   -2.0530    0.1175 C   0  0  0  0  0  0  0  0  0  0  0  0
    2.1918    0.6747   -0.8080 C   0  0  0  0  0  0  0  0  0  0  0  0
    0.6602    1.0491    1.5196 H   0  0  0  0  0  0  0  0  0  0  0  0
    0.9916   -0.5030    2.2417 H   0  0  0  0  0  0  0  0  0  0  0  0
   -0.7230    1.8596   -1.5470 H   0  0  0  0  0  0  0  0  0  0  0  0
   -1.4806    3.1665   -0.6371 H   0  0  0  0  0  0  0  0  0  0  0  0
   -0.0804    2.3588    0.0275 H   0  0  0  0  0  0  0  0  0  0  0  0
   -1.1939    1.6741    2.1646 H   0  0  0  0  0  0  0  0  0  0  0  0
   -2.7405    0.8243    2.1424 H   0  0  0  0  0  0  0  0  0  0  0  0
   -2.6501    2.5305    1.7019 H   0  0  0  0  0  0  0  0  0  0  0  0
   -4.0292    0.5274   -0.1061 H   0  0  0  0  0  0  0  0  0  0  0  0
   -3.2321    0.9755   -1.6307 H   0  0  0  0  0  0  0  0  0  0  0  0
   -3.7594    2.2222   -0.5037 H   0  0  0  0  0  0  0  0  0  0  0  0
    2.5711   -1.0635    0.3755 H   0  0  0  0  0  0  0  0  0  0  0  0
   -1.6760   -3.1528   -0.9884 H   0  0  0  0  0  0  0  0  0  0  0  0
    4.1840    0.5098    0.8629 H   0  0  0  0  0  0  0  0  0  0  0  0
    3.3564    0.1988    2.2319 H   0  0  0  0  0  0  0  0  0  0  0  0
    1.8259    0.2873   -2.6841 H   0  0  0  0  0  0  0  0  0  0  0  0
  1  5  1  0  0  0  0
  1  8  1  0  0  0  0
  2 15  2  0  0  0  0
  3 16  1  0  0  0  0
  3 32  1  0  0  0  0
  4 16  2  0  0  0  0
  5 15  1  0  0  0  0
  5 29  1  0  0  0  0
  6 14  1  0  0  0  0
  6 30  1  0  0  0  0
  6 31  1  0  0  0  0
  7  8  1  0  0  0  0
  7 11  1  0  0  0  0
  7 12  1  0  0  0  0
  7 13  1  0  0  0  0
  8  9  2  0  0  0  0
  9 10  1  0  0  0  0
  9 15  1  0  0  0  0
 10 14  1  0  0  0  0
 10 17  1  0  0  0  0
 10 18  1  0  0  0  0
 11 19  1  0  0  0  0
 11 20  1  0  0  0  0
 11 21  1  0  0  0  0
 12 22  1  0  0  0  0
 12 23  1  0  0  0  0
 12 24  1  0  0  0  0
 13 25  1  0  0  0  0
 13 26  1  0  0  0  0
 13 27  1  0  0  0  0
 14 16  1  0  0  0  0
 14 28  1  0  0  0  0
M  END
> <PUBCHEM_COMPOUND_CID>
447407

> <PUBCHEM_CONFORMER_RMSD>
0.6

> <PUBCHEM_CONFORMER_DIVERSEORDER>
1
9
14
8
2
7
12
10
15
11
4
5
13
3
6

> <PUBCHEM_MMFF94_PARTIAL_CHARGES>
17
1 -0.11
10 0.14
14 0.33
15 0.62
16 0.66
2 -0.57
29 0.37
3 -0.65
30 0.36
31 0.36
32 0.5
4 -0.57
5 -0.39
6 -0.99
7 0.14
8 -0.06
9 -0.12

> <PUBCHEM_EFFECTIVE_ROTOR_COUNT>
4

> <PUBCHEM_PHARMACOPHORE_FEATURES>
9
1 2 acceptor
1 3 acceptor
1 4 acceptor
1 5 donor
1 6 cation
1 6 donor
3 3 4 16 anion
4 7 11 12 13 hydrophobe
5 1 5 8 9 15 rings

> <PUBCHEM_HEAVY_ATOM_COUNT>
16

> <PUBCHEM_ATOM_DEF_STEREO_COUNT>
1

> <PUBCHEM_ATOM_UDEF_STEREO_COUNT>
0

> <PUBCHEM_BOND_DEF_STEREO_COUNT>
0

> <PUBCHEM_BOND_UDEF_STEREO_COUNT>
0

> <PUBCHEM_ISOTOPIC_ATOM_COUNT>
0

> <PUBCHEM_COMPONENT_COUNT>
1

> <PUBCHEM_CACTVS_TAUTO_COUNT>
2

> <PUBCHEM_CONFORMER_ID>
0006D3AF00000001

> <PUBCHEM_MMFF94_ENERGY>
26.1358

> <PUBCHEM_FEATURE_SELFOVERLAP>
45.727

> <PUBCHEM_SHAPE_FINGERPRINT>
1 1 18120940761017244315
12423570 1 7524553974430502593
13898156 1 18129956576245185754
14181834 199 17976547435228340606
14251711 518 17987507131063797980
14614273 12 18340221759755676165
14817 1 10519171216468690898
15775835 57 18060135427397250524
15852999 172 18040444299625245078
16945 1 18128242583530397745
17134986 127 18341325703637007061
17357990 137 18201994439277442460
17834069 17 16199854086401458226
19837323 101 18268972220611714114
20511035 2 17551231096166005869
21130352 189 17263571400903294091
21524375 3 18340770433010933043
21947302 44 17604150414891142452
22802520 49 17894898646636809542
23402539 116 18117860810041655342
23419403 2 16593127285402768603
23557571 272 18042973064599766402
23559900 14 18113904871291421834
2748010 2 18337945787834699343
305870 269 18267026244065491042
353137 74 17838612262693758668
430814 3 18191846015498460657
6992083 37 18058188239917923018
7364860 26 17974297812978716795
81228 2 18120083996756912467

> <PUBCHEM_SHAPE_MULTIPOLES>
295.83
4.26
2.56
1.35
0.11
1.37
-0.09
-2.28
0.03
-0.19
0.3
0.41
-0.43
-0.47

> <PUBCHEM_SHAPE_SELFOVERLAP>
606.701

> <PUBCHEM_SHAPE_VOLUME>
172

> <PUBCHEM_COORDINATE_TYPE>
2
5
10

$$$$

