12324
  -OEChem-06261206483D

 10  9  0     0  0  0  0  0  0999 V2000
   -3.2318   -0.9552    0.0010 Cl  0  0  0  0  0  0  0  0  0  0  0  0
    3.2315    0.9554    0.0011 Cl  0  0  0  0  0  0  0  0  0  0  0  0
   -2.0665    1.4155   -0.0004 O   0  0  0  0  0  0  0  0  0  0  0  0
    2.0668   -1.4153   -0.0003 O   0  0  0  0  0  0  0  0  0  0  0  0
   -0.5396   -0.3958   -0.0004 C   0  0  0  0  0  0  0  0  0  0  0  0
    0.5396    0.3955   -0.0005 C   0  0  0  0  0  0  0  0  0  0  0  0
   -1.9116    0.1965   -0.0002 C   0  0  0  0  0  0  0  0  0  0  0  0
    1.9116   -0.1965   -0.0003 C   0  0  0  0  0  0  0  0  0  0  0  0
   -0.4656   -1.4778   -0.0003 H   0  0  0  0  0  0  0  0  0  0  0  0
    0.4655    1.4775   -0.0005 H   0  0  0  0  0  0  0  0  0  0  0  0
  1  7  1  0  0  0  0
  2  8  1  0  0  0  0
  3  7  2  0  0  0  0
  4  8  2  0  0  0  0
  5  6  2  0  0  0  0
  5  7  1  0  0  0  0
  5  9  1  0  0  0  0
  6  8  1  0  0  0  0
  6 10  1  0  0  0  0
M  END
> <PUBCHEM_COMPOUND_CID>
12324

> <PUBCHEM_CONFORMER_RMSD>
0.4

> <PUBCHEM_CONFORMER_DIVERSEORDER>
1
3
6
5
2
4

> <PUBCHEM_MMFF94_PARTIAL_CHARGES>
10
1 -0.21
10 0.15
2 -0.21
3 -0.57
4 -0.57
5 -0.14
6 -0.14
7 0.76
8 0.76
9 0.15

> <PUBCHEM_EFFECTIVE_ROTOR_COUNT>
2

> <PUBCHEM_PHARMACOPHORE_FEATURES>
0

> <PUBCHEM_HEAVY_ATOM_COUNT>
8

> <PUBCHEM_ATOM_DEF_STEREO_COUNT>
0

> <PUBCHEM_ATOM_UDEF_STEREO_COUNT>
0

> <PUBCHEM_BOND_DEF_STEREO_COUNT>
0

> <PUBCHEM_BOND_UDEF_STEREO_COUNT>
1

> <PUBCHEM_ISOTOPIC_ATOM_COUNT>
0

> <PUBCHEM_COMPONENT_COUNT>
1

> <PUBCHEM_CACTVS_TAUTO_COUNT>
1

> <PUBCHEM_CONFORMER_ID>
0000302400000001

> <PUBCHEM_MMFF94_ENERGY>
11.3397

> <PUBCHEM_FEATURE_SELFOVERLAP>
0

> <PUBCHEM_SHAPE_FINGERPRINT>
11062470 55 16988570065299937535
12932764 1 17774720999155072135
14325111 11 18410856581125182049
14390081 3 18408323280834326072
15310529 11 18333734619434290319
19973954 147 18337670922601693104
23552423 10 18270679890939671170
29004967 10 18272365382377901504
3248919 1 18188781663585380647
5460574 1 9295291642183417859

> <PUBCHEM_SHAPE_MULTIPOLES>
156.64
5.46
1.27
0.6
0
0
0
0
0
0
0
0
0
0

> <PUBCHEM_SHAPE_SELFOVERLAP>
279.776

> <PUBCHEM_SHAPE_VOLUME>
100.5

> <PUBCHEM_COORDINATE_TYPE>
2
5
10

$$$$

