439489
  -OEChem-07051212453D

 41 43  0     1  0  0  0  0  0999 V2000
   -4.1012    0.3680    0.9139 P   0  0  2  0  0  0  0  0  0  0  0  0
   -4.5913   -2.0083   -0.7495 P   0  0  0  0  0  0  0  0  0  0  0  0
   -0.0107    1.7224    0.8896 O   0  0  0  0  0  0  0  0  0  0  0  0
    0.4578    4.3817   -0.6068 O   0  0  0  0  0  0  0  0  0  0  0  0
   -2.7686    1.2811    1.0131 O   0  0  0  0  0  0  0  0  0  0  0  0
   -3.7018   -0.8245   -0.1020 O   0  0  0  0  0  0  0  0  0  0  0  0
   -5.1377    1.2599    0.0495 O   0  0  0  0  0  0  0  0  0  0  0  0
    4.2536   -3.4702    0.1737 O   0  0  0  0  0  0  0  0  0  0  0  0
   -4.6406   -0.1028    2.2334 O   0  0  0  0  0  0  0  0  0  0  0  0
    6.4214    0.6399   -0.0852 O   0  0  0  0  0  0  0  0  0  0  0  0
   -4.9935   -2.9075    0.5319 O   0  0  0  0  0  0  0  0  0  0  0  0
   -3.4993   -2.9163   -1.5211 O   0  0  0  0  0  0  0  0  0  0  0  0
   -5.7428   -1.5387   -1.5885 O   0  0  0  0  0  0  0  0  0  0  0  0
    1.7029    0.2676    0.1314 N   0  0  0  0  0  0  0  0  0  0  0  0
    4.1169    0.6484    0.0129 N   0  0  0  0  0  0  0  0  0  0  0  0
    1.7017   -1.9725    0.2221 N   0  0  0  0  0  0  0  0  0  0  0  0
    5.3316   -1.4045    0.0439 N   0  0  0  0  0  0  0  0  0  0  0  0
    1.1859    1.6308    0.0972 C   0  0  1  0  0  0  0  0  0  0  0  0
   -0.2125    3.1811   -0.9841 C   0  0  2  0  0  0  0  0  0  0  0  0
   -0.9414    2.6019    0.2237 C   0  0  1  0  0  0  0  0  0  0  0  0
    0.8286    2.1302   -1.2953 C   0  0  0  0  0  0  0  0  0  0  0  0
   -2.1658    1.7851   -0.1658 C   0  0  0  0  0  0  0  0  0  0  0  0
    3.0017   -0.1347    0.0924 C   0  0  0  0  0  0  0  0  0  0  0  0
    0.9536   -0.8847    0.2100 C   0  0  0  0  0  0  0  0  0  0  0  0
    2.9815   -1.4999    0.1486 C   0  0  0  0  0  0  0  0  0  0  0  0
    4.2077   -2.2467    0.1259 C   0  0  0  0  0  0  0  0  0  0  0  0
    5.3622    0.0130   -0.0148 C   0  0  0  0  0  0  0  0  0  0  0  0
    1.9333    2.2745    0.5750 H   0  0  0  0  0  0  0  0  0  0  0  0
   -0.8640    3.4157   -1.8300 H   0  0  0  0  0  0  0  0  0  0  0  0
   -1.2230    3.3746    0.9481 H   0  0  0  0  0  0  0  0  0  0  0  0
    0.3838    1.3278   -1.8958 H   0  0  0  0  0  0  0  0  0  0  0  0
    1.7066    2.5142   -1.8237 H   0  0  0  0  0  0  0  0  0  0  0  0
   -1.8841    0.9376   -0.7988 H   0  0  0  0  0  0  0  0  0  0  0  0
   -2.8863    2.4093   -0.7033 H   0  0  0  0  0  0  0  0  0  0  0  0
    0.9285    4.2314    0.2299 H   0  0  0  0  0  0  0  0  0  0  0  0
   -0.1272   -0.8716    0.2503 H   0  0  0  0  0  0  0  0  0  0  0  0
    4.0389    1.6588   -0.0278 H   0  0  0  0  0  0  0  0  0  0  0  0
    6.2358   -1.8685    0.0240 H   0  0  0  0  0  0  0  0  0  0  0  0
   -5.6332    1.9781    0.4974 H   0  0  0  0  0  0  0  0  0  0  0  0
   -5.6162   -3.6556    0.4105 H   0  0  0  0  0  0  0  0  0  0  0  0
   -3.8090   -3.6689   -2.0685 H   0  0  0  0  0  0  0  0  0  0  0  0
  1  5  1  0  0  0  0
  1  6  1  0  0  0  0
  1  7  1  0  0  0  0
  1  9  2  0  0  0  0
  2  6  1  0  0  0  0
  2 11  1  0  0  0  0
  2 12  1  0  0  0  0
  2 13  2  0  0  0  0
  3 18  1  0  0  0  0
  3 20  1  0  0  0  0
  4 19  1  0  0  0  0
  4 35  1  0  0  0  0
  5 22  1  0  0  0  0
  7 39  1  0  0  0  0
  8 26  2  0  0  0  0
 10 27  2  0  0  0  0
 11 40  1  0  0  0  0
 12 41  1  0  0  0  0
 14 18  1  0  0  0  0
 14 23  1  0  0  0  0
 14 24  1  0  0  0  0
 15 23  1  0  0  0  0
 15 27  1  0  0  0  0
 15 37  1  0  0  0  0
 16 24  2  0  0  0  0
 16 25  1  0  0  0  0
 17 26  1  0  0  0  0
 17 27  1  0  0  0  0
 17 38  1  0  0  0  0
 18 21  1  0  0  0  0
 18 28  1  0  0  0  0
 19 20  1  0  0  0  0
 19 21  1  0  0  0  0
 19 29  1  0  0  0  0
 20 22  1  0  0  0  0
 20 30  1  0  0  0  0
 21 31  1  0  0  0  0
 21 32  1  0  0  0  0
 22 33  1  0  0  0  0
 22 34  1  0  0  0  0
 23 25  2  0  0  0  0
 24 36  1  0  0  0  0
 25 26  1  0  0  0  0
M  END
> <PUBCHEM_COMPOUND_CID>
439489

> <PUBCHEM_CONFORMER_RMSD>
0.8

> <PUBCHEM_CONFORMER_DIVERSEORDER>
1
300
200
88
31
150
324
185
215
45
176
264
211
145
233
14
229
296
267
170
230
132
156
290
95
255
246
18
278
86
294
208
96
102
271
234
187
169
180
196
175
66
22
321
89
84
222
261
54
28
320
218
159
58
293
188
297
239
20
279
174
184
130
232
298
70
262
256
292
76
249
260
118
117
32
29
250
332
6
277
309
105
108
127
319
268
266
98
7
181
286
11
186
62
4
241
27
202
25
253
307
305
126
48
106
78
173
111
50
73
247
221
23
157
177
141
314
238
315
93
90
30
191
248
193
163
201
336
224
195
236
94
269
121
299
128
17
210
148
83
47
82
139
285
44
242
189
166
323
172
2
135
129
60
245
228
274
333
192
209
313
112
281
312
183
194
161
97
3
152
113
288
116
26
282
301
100
295
46
171
257
240
49
110
199
259
56
149
217
326
65
167
138
131
302
75
265
8
79
317
123
133
120
41
190
205
81
252
306
114
134
37
289
42
243
160
164
237
284
226
115
178
325
87
136
55
43
19
318
153
220
204
74
272
310
109
337
92
206
179
51
214
10
227
335
101
71
85
263
283
331
38
165
80
124
143
275
39
168
231
235
68
311
64
21
334
147
142
5
182
254
61
104
144
212
67
327
33
244
59
13
151
140
154
12
53
308
34
146
69
273
125
330
137
35
122
198
304
258
280
9
162
158
197
328
91
251
216
225
57
316
16
24
52
15
77
276
36
72
63
103
270
223
107
155
219
213
203
322
329
119
207
40
287
291
303
99

> <PUBCHEM_MMFF94_PARTIAL_CHARGES>
33
1 1.51
10 -0.57
11 -0.77
12 -0.77
13 -0.7
14 0.05
15 -0.49
16 -0.57
17 -0.49
18 0.54
19 0.28
2 1.51
20 0.28
22 0.28
23 -0.09
24 0.04
25 0.14
26 0.72
27 0.69
3 -0.56
35 0.4
36 0.15
37 0.37
38 0.37
39 0.5
4 -0.68
40 0.5
41 0.5
5 -0.55
6 -0.54
7 -0.77
8 -0.57
9 -0.7

> <PUBCHEM_EFFECTIVE_ROTOR_COUNT>
7

> <PUBCHEM_PHARMACOPHORE_FEATURES>
17
1 10 acceptor
1 11 acceptor
1 12 acceptor
1 13 acceptor
1 15 donor
1 17 donor
1 3 acceptor
1 4 acceptor
1 4 donor
1 7 acceptor
1 8 acceptor
1 9 acceptor
3 14 16 24 cation
4 2 11 12 13 anion
5 14 16 23 24 25 rings
5 3 18 19 20 21 rings
6 15 17 23 25 26 27 rings

> <PUBCHEM_HEAVY_ATOM_COUNT>
27

> <PUBCHEM_ATOM_DEF_STEREO_COUNT>
3

> <PUBCHEM_ATOM_UDEF_STEREO_COUNT>
0

> <PUBCHEM_BOND_DEF_STEREO_COUNT>
0

> <PUBCHEM_BOND_UDEF_STEREO_COUNT>
0

> <PUBCHEM_ISOTOPIC_ATOM_COUNT>
0

> <PUBCHEM_COMPONENT_COUNT>
1

> <PUBCHEM_CACTVS_TAUTO_COUNT>
6

> <PUBCHEM_CONFORMER_ID>
0006B4C100000001

> <PUBCHEM_MMFF94_ENERGY>
0.2543

> <PUBCHEM_FEATURE_SELFOVERLAP>
86.468

> <PUBCHEM_SHAPE_FINGERPRINT>
10622 236 18042986276436894455
11315621 136 18126566713488713059
11315621 246 18263634229693992766
11552529 35 18188773988516149152
12403259 226 18126002909206376808
13004483 165 18126572446980136945
13103583 49 17749379391203320809
13544653 18 18343012328530248496
1454969 45 18341610379097790460
14787075 74 18343298163547455216
15352361 1 18410577279813555239
15415430 10 18408042901168961549
15537594 2 18339062853056890395
16110190 28 18335412504601854259
17492 89 18195528095958129387
18336668 15 18201999889332517725
19141452 34 18265047110609899193
20775530 9 18264501602587141035
23402539 116 18343582953658448954
23559900 14 18409457977045830977
314194 84 18340477898467444632
46194498 28 16700878398638700389
463206 1 18342731910521284931
6431902 208 18413105035434150819

> <PUBCHEM_SHAPE_MULTIPOLES>
478.86
13.42
4.28
1.14
0.06
1.11
-0.06
-10.26
-0.19
0.94
1.19
1.83
-0.05
-1.47

> <PUBCHEM_SHAPE_SELFOVERLAP>
990.365

> <PUBCHEM_SHAPE_VOLUME>
274.9

> <PUBCHEM_COORDINATE_TYPE>
2
5
10

$$$$

