12126
  -OEChem-07051212472D

 22 22  0     0  0  0  0  0  0999 V2000
    2.8660   -1.3100    0.0000 O   0  0  0  0  0  0  0  0  0  0  0  0
    5.4641    2.1900    0.0000 O   0  0  0  0  0  0  0  0  0  0  0  0
    3.7320    2.1900    0.0000 O   0  0  0  0  0  0  0  0  0  0  0  0
    3.7320   -0.8100    0.0000 C   0  0  0  0  0  0  0  0  0  0  0  0
    4.5981    0.6900    0.0000 C   0  0  0  0  0  0  0  0  0  0  0  0
    3.7320    0.1900    0.0000 C   0  0  0  0  0  0  0  0  0  0  0  0
    4.5981   -1.3100    0.0000 C   0  0  0  0  0  0  0  0  0  0  0  0
    2.8660   -2.3100    0.0000 C   0  0  0  0  0  0  0  0  0  0  0  0
    5.4641    0.1900    0.0000 C   0  0  0  0  0  0  0  0  0  0  0  0
    5.4641   -0.8100    0.0000 C   0  0  0  0  0  0  0  0  0  0  0  0
    2.0000   -2.8100    0.0000 C   0  0  0  0  0  0  0  0  0  0  0  0
    4.5981    1.6900    0.0000 C   0  0  0  0  0  0  0  0  0  0  0  0
    3.1951    0.5000    0.0000 H   0  0  0  0  0  0  0  0  0  0  0  0
    3.0781   -2.8926    0.0000 H   0  0  0  0  0  0  0  0  0  0  0  0
    3.4766   -2.2023    0.0000 H   0  0  0  0  0  0  0  0  0  0  0  0
    4.5981   -1.9300    0.0000 H   0  0  0  0  0  0  0  0  0  0  0  0
    6.0010    0.5000    0.0000 H   0  0  0  0  0  0  0  0  0  0  0  0
    6.0010   -1.1200    0.0000 H   0  0  0  0  0  0  0  0  0  0  0  0
    1.6900   -2.2731    0.0000 H   0  0  0  0  0  0  0  0  0  0  0  0
    1.4631   -3.1200    0.0000 H   0  0  0  0  0  0  0  0  0  0  0  0
    2.3100   -3.3469    0.0000 H   0  0  0  0  0  0  0  0  0  0  0  0
    5.4641    2.8100    0.0000 H   0  0  0  0  0  0  0  0  0  0  0  0
  1  4  1  0  0  0  0
  1  8  1  0  0  0  0
  2 12  1  0  0  0  0
  2 22  1  0  0  0  0
  3 12  2  0  0  0  0
  4  6  1  0  0  0  0
  4  7  2  0  0  0  0
  5  6  2  0  0  0  0
  5  9  1  0  0  0  0
  5 12  1  0  0  0  0
  6 13  1  0  0  0  0
  7 10  1  0  0  0  0
  7 16  1  0  0  0  0
  8 11  1  0  0  0  0
  8 14  1  0  0  0  0
  8 15  1  0  0  0  0
  9 10  2  0  0  0  0
  9 17  1  0  0  0  0
 10 18  1  0  0  0  0
 11 19  1  0  0  0  0
 11 20  1  0  0  0  0
 11 21  1  0  0  0  0
M  END
> <PUBCHEM_COMPOUND_CID>
12126

> <PUBCHEM_COMPOUND_CANONICALIZED>
1

> <PUBCHEM_CACTVS_COMPLEXITY>
156

> <PUBCHEM_CACTVS_HBOND_ACCEPTOR>
3

> <PUBCHEM_CACTVS_HBOND_DONOR>
1

> <PUBCHEM_CACTVS_ROTATABLE_BOND>
3

> <PUBCHEM_CACTVS_SUBSKEYS>
AAADccBwMAAAAAAAAAAAAAAAAAAAAAAAAAAwAAAAAAAAAAABAAAAGgAACAAADASgmAIyDoAABgCIAiDSCAACCAAkIAAIiAEGCMgMJjKENRqCeSCkwBEIuYfKyDCOAAABAAAAAAAAAAIAAAAAAAAAAAAAAA==

> <PUBCHEM_IUPAC_OPENEYE_NAME>
3-ethoxybenzoic acid

> <PUBCHEM_IUPAC_CAS_NAME>
3-ethoxybenzoic acid

> <PUBCHEM_IUPAC_NAME>
3-ethoxybenzoic acid

> <PUBCHEM_IUPAC_SYSTEMATIC_NAME>
3-ethoxybenzoic acid

> <PUBCHEM_IUPAC_TRADITIONAL_NAME>
3-ethoxybenzoic acid

> <PUBCHEM_IUPAC_INCHI>
InChI=1S/C9H10O3/c1-2-12-8-5-3-4-7(6-8)9(10)11/h3-6H,2H2,1H3,(H,10,11)

> <PUBCHEM_IUPAC_INCHIKEY>
DTFQMPQJMDEWKJ-UHFFFAOYSA-N

> <PUBCHEM_XLOGP3>
2.4

> <PUBCHEM_EXACT_MASS>
166.062994

> <PUBCHEM_MOLECULAR_FORMULA>
C9H10O3

> <PUBCHEM_MOLECULAR_WEIGHT>
166.1739

> <PUBCHEM_OPENEYE_CAN_SMILES>
CCOC1=CC=CC(=C1)C(=O)O

> <PUBCHEM_OPENEYE_ISO_SMILES>
CCOC1=CC=CC(=C1)C(=O)O

> <PUBCHEM_CACTVS_TPSA>
46.5

> <PUBCHEM_MONOISOTOPIC_WEIGHT>
166.062994

> <PUBCHEM_TOTAL_CHARGE>
0

> <PUBCHEM_HEAVY_ATOM_COUNT>
12

> <PUBCHEM_ATOM_DEF_STEREO_COUNT>
0

> <PUBCHEM_ATOM_UDEF_STEREO_COUNT>
0

> <PUBCHEM_BOND_DEF_STEREO_COUNT>
0

> <PUBCHEM_BOND_UDEF_STEREO_COUNT>
0

> <PUBCHEM_ISOTOPIC_ATOM_COUNT>
0

> <PUBCHEM_COMPONENT_COUNT>
1

> <PUBCHEM_CACTVS_TAUTO_COUNT>
1

> <PUBCHEM_COORDINATE_TYPE>
1
5
255

> <PUBCHEM_BONDANNOTATIONS>
4  6  8
4  7  8
5  6  8
5  9  8
7  10  8
9  10  8

$$$$

