5280472
  -OEChem-07051212463D

 38 37  0     1  0  0  0  0  0999 V2000
   -0.1566    1.7640   -0.0843 P   0  0  1  0  0  0  0  0  0  0  0  0
    1.0557    0.9124   -0.7388 O   0  0  0  0  0  0  0  0  0  0  0  0
   -1.3949    0.7249    0.0044 O   0  0  0  0  0  0  0  0  0  0  0  0
    3.9938    1.5133   -0.5911 O   0  0  0  0  0  0  0  0  0  0  0  0
    0.3156    1.9509    1.4525 O   0  0  0  0  0  0  0  0  0  0  0  0
    4.1323    0.5274    1.4514 O   0  0  0  0  0  0  0  0  0  0  0  0
   -0.4676    3.0522   -0.7909 O   0  0  0  0  0  0  0  0  0  0  0  0
    3.2886   -1.8432    0.2551 N   0  0  0  0  0  0  0  0  0  0  0  0
   -4.1233    0.0070   -0.0280 N   0  0  0  0  0  0  0  0  0  0  0  0
   -6.1526   -0.0587    1.0868 N   0  0  0  0  0  0  0  0  0  0  0  0
   -5.4604   -1.9853    0.0847 N   0  0  0  0  0  0  0  0  0  0  0  0
    2.9062   -0.5727   -0.3589 C   0  0  1  0  0  0  0  0  0  0  0  0
    1.4180   -0.3183   -0.1366 C   0  0  0  0  0  0  0  0  0  0  0  0
    3.7375    0.5148    0.2942 C   0  0  0  0  0  0  0  0  0  0  0  0
    2.4818   -2.9365   -0.2862 C   0  0  0  0  0  0  0  0  0  0  0  0
    4.7119   -2.1057    0.0437 C   0  0  0  0  0  0  0  0  0  0  0  0
   -1.9954    0.2333   -1.1816 C   0  0  0  0  0  0  0  0  0  0  0  0
   -3.1228   -0.7154   -0.8185 C   0  0  0  0  0  0  0  0  0  0  0  0
   -5.1679   -0.6645    0.3424 C   0  0  0  0  0  0  0  0  0  0  0  0
    3.1297   -0.5737   -1.4351 H   0  0  0  0  0  0  0  0  0  0  0  0
    1.1823   -0.3061    0.9336 H   0  0  0  0  0  0  0  0  0  0  0  0
    0.7910   -1.0738   -0.6160 H   0  0  0  0  0  0  0  0  0  0  0  0
    2.8787   -3.9045    0.0442 H   0  0  0  0  0  0  0  0  0  0  0  0
    1.4561   -2.9167    0.0949 H   0  0  0  0  0  0  0  0  0  0  0  0
    2.4651   -2.9453   -1.3822 H   0  0  0  0  0  0  0  0  0  0  0  0
    5.3677   -1.3861    0.5419 H   0  0  0  0  0  0  0  0  0  0  0  0
    4.9714   -2.1289   -1.0216 H   0  0  0  0  0  0  0  0  0  0  0  0
    4.9829   -3.0787    0.4714 H   0  0  0  0  0  0  0  0  0  0  0  0
   -1.2433   -0.2863   -1.7828 H   0  0  0  0  0  0  0  0  0  0  0  0
   -2.3776    1.0821   -1.7586 H   0  0  0  0  0  0  0  0  0  0  0  0
   -2.7143   -1.5433   -0.2264 H   0  0  0  0  0  0  0  0  0  0  0  0
   -3.5658   -1.1115   -1.7393 H   0  0  0  0  0  0  0  0  0  0  0  0
    4.5281    2.2305   -0.1882 H   0  0  0  0  0  0  0  0  0  0  0  0
   -0.1860    2.5638    2.0312 H   0  0  0  0  0  0  0  0  0  0  0  0
   -6.9776   -0.5656    1.3877 H   0  0  0  0  0  0  0  0  0  0  0  0
   -6.0796    0.9161    1.3574 H   0  0  0  0  0  0  0  0  0  0  0  0
   -4.8401   -2.5822   -0.4506 H   0  0  0  0  0  0  0  0  0  0  0  0
   -6.3161   -2.4076    0.4286 H   0  0  0  0  0  0  0  0  0  0  0  0
  1  2  1  0  0  0  0
  1  3  1  0  0  0  0
  1  5  1  0  0  0  0
  1  7  2  0  0  0  0
  2 13  1  0  0  0  0
  3 17  1  0  0  0  0
  4 14  1  0  0  0  0
  4 33  1  0  0  0  0
  5 34  1  0  0  0  0
  6 14  2  0  0  0  0
  8 12  1  0  0  0  0
  8 15  1  0  0  0  0
  8 16  1  0  0  0  0
  9 18  1  0  0  0  0
  9 19  2  0  0  0  0
 10 19  1  0  0  0  0
 10 35  1  0  0  0  0
 10 36  1  0  0  0  0
 11 19  1  0  0  0  0
 11 37  1  0  0  0  0
 11 38  1  0  0  0  0
 12 13  1  0  0  0  0
 12 14  1  0  0  0  0
 12 20  1  0  0  0  0
 13 21  1  0  0  0  0
 13 22  1  0  0  0  0
 15 23  1  0  0  0  0
 15 24  1  0  0  0  0
 15 25  1  0  0  0  0
 16 26  1  0  0  0  0
 16 27  1  0  0  0  0
 16 28  1  0  0  0  0
 17 18  1  0  0  0  0
 17 29  1  0  0  0  0
 17 30  1  0  0  0  0
 18 31  1  0  0  0  0
 18 32  1  0  0  0  0
M  END
> <PUBCHEM_COMPOUND_CID>
5280472

> <PUBCHEM_CONFORMER_RMSD>
1

> <PUBCHEM_CONFORMER_DIVERSEORDER>
10
24
257
379
690
48
127
230
140
675
434
3
246
607
356
518
545
190
465
259
16
82
90
592
159
294
331
162
295
22
247
107
371
106
697
52
531
626
696
346
96
537
661
12
555
233
102
100
536
15
359
11
491
109
19
245
124
492
285
466
147
559
689
572
38
394
693
179
665
202
512
686
221
301
300
4
101
499
215
376
72
687
600
18
94
650
151
510
157
593
173
269
303
99
200
370
129
684
341
95
150
197
80
123
483
87
235
277
189
438
315
268
309
32
287
549
388
152
335
168
319
317
260
603
487
571
298
156
280
458
1
2
330
228
446
108
581
442
68
657
69
6
329
241
724
344
58
98
637
563
642
26
41
698
586
462
20
139
137
427
176
208
126
77
585
49
580
575
271
296
623
25
345
530
550
617
128
13
50

> <PUBCHEM_MMFF94_PARTIAL_CHARGES>
25
1 1.51
10 -0.85
11 -0.85
12 0.33
13 0.28
14 0.66
15 0.27
16 0.27
17 0.28
18 0.25
19 0.55
2 -0.55
3 -0.55
33 0.5
34 0.5
35 0.4
36 0.4
37 0.4
38 0.4
4 -0.65
5 -0.77
6 -0.57
7 -0.7
8 -0.81
9 -0.7

> <PUBCHEM_EFFECTIVE_ROTOR_COUNT>
9

> <PUBCHEM_PHARMACOPHORE_FEATURES>
9
1 10 donor
1 11 donor
1 4 acceptor
1 5 acceptor
1 6 acceptor
1 7 acceptor
1 8 cation
3 4 6 14 anion
4 9 10 11 19 cation

> <PUBCHEM_HEAVY_ATOM_COUNT>
19

> <PUBCHEM_ATOM_DEF_STEREO_COUNT>
1

> <PUBCHEM_ATOM_UDEF_STEREO_COUNT>
0

> <PUBCHEM_BOND_DEF_STEREO_COUNT>
0

> <PUBCHEM_BOND_UDEF_STEREO_COUNT>
0

> <PUBCHEM_ISOTOPIC_ATOM_COUNT>
0

> <PUBCHEM_COMPONENT_COUNT>
1

> <PUBCHEM_CACTVS_TAUTO_COUNT>
2

> <PUBCHEM_CONFORMER_ID>
005092D80000000A

> <PUBCHEM_MMFF94_ENERGY>
24.6203

> <PUBCHEM_FEATURE_SELFOVERLAP>
45.794

> <PUBCHEM_SHAPE_FINGERPRINT>
12553582 1 18335992994763771886
12596602 18 17386002832780004643
12616999 72 18202557363629599214
13103583 49 18041268929467958299
14123255 52 8502365629341796149
1420 369 18413389860253022599
14251740 57 18186793699318475647
14251764 18 18259979363365584811
14252887 29 18412265034066638747
14863182 85 18412819171227632822
15375462 189 18186809062378894061
15537594 2 18260829263181865302
15848702 68 9151168758201615146
15885798 251 18412823607823068253
17492 89 18267870677818315570
1813 80 17561077012766546061
18785283 64 17983859986549174861
192875 21 11743845771904416326
20281475 54 18335708230047937981
20645477 70 18202565059989505564
21033648 29 14490465426683306891
212847 35 6988324941113888846
221490 88 18265901448450871494
22950370 63 18411696586961247447
23559900 14 18194978545996495740
312423 11 18263635320510060316
314194 84 18336267851713175023
3421961 26 18410575050662316041
5104073 3 18191034584913090616

> <PUBCHEM_SHAPE_MULTIPOLES>
339.72
12.18
2.75
1.03
13.8
0.1
0.15
6.93
2.99
-1.85
-0.2
0.15
-0.33
0.26

> <PUBCHEM_SHAPE_SELFOVERLAP>
642.061

> <PUBCHEM_SHAPE_VOLUME>
211.4

> <PUBCHEM_COORDINATE_TYPE>
2
5
10

$$$$

