10774
  -OEChem-06261204573D

 28 29  0     0  0  0  0  0  0999 V2000
   -0.6411    1.7198    1.0314 O   0  0  0  0  0  0  0  0  0  0  0  0
    1.2806    1.1206   -0.8232 N   0  0  0  0  0  0  0  0  0  0  0  0
    0.0440    0.5399   -0.8414 N   0  0  0  0  0  0  0  0  0  0  0  0
   -2.1920    0.2540    0.0555 C   0  0  0  0  0  0  0  0  0  0  0  0
    2.3776    0.3843   -0.3598 C   0  0  0  0  0  0  0  0  0  0  0  0
   -0.8878    0.8922    0.1353 C   0  0  0  0  0  0  0  0  0  0  0  0
   -3.3166    0.8984    0.5712 C   0  0  0  0  0  0  0  0  0  0  0  0
   -2.3187   -1.0024   -0.5371 C   0  0  0  0  0  0  0  0  0  0  0  0
    3.6827    0.8271   -0.6069 C   0  0  0  0  0  0  0  0  0  0  0  0
    2.1816   -0.8033    0.3555 C   0  0  0  0  0  0  0  0  0  0  0  0
   -4.5676    0.2865    0.4945 C   0  0  0  0  0  0  0  0  0  0  0  0
   -3.5699   -1.6143   -0.6139 C   0  0  0  0  0  0  0  0  0  0  0  0
    4.7755    0.0931   -0.1458 C   0  0  0  0  0  0  0  0  0  0  0  0
    3.2745   -1.5371    0.8167 C   0  0  0  0  0  0  0  0  0  0  0  0
   -4.6943   -0.9698   -0.0980 C   0  0  0  0  0  0  0  0  0  0  0  0
    4.5715   -1.0888    0.5660 C   0  0  0  0  0  0  0  0  0  0  0  0
    1.4192    1.9432   -1.3958 H   0  0  0  0  0  0  0  0  0  0  0  0
   -0.1312   -0.0782   -1.6259 H   0  0  0  0  0  0  0  0  0  0  0  0
   -3.2400    1.8794    1.0328 H   0  0  0  0  0  0  0  0  0  0  0  0
   -1.4645   -1.5488   -0.9263 H   0  0  0  0  0  0  0  0  0  0  0  0
    3.8567    1.7467   -1.1603 H   0  0  0  0  0  0  0  0  0  0  0  0
    1.1890   -1.1858    0.5775 H   0  0  0  0  0  0  0  0  0  0  0  0
   -5.4434    0.7883    0.8954 H   0  0  0  0  0  0  0  0  0  0  0  0
   -3.6682   -2.5953   -1.0696 H   0  0  0  0  0  0  0  0  0  0  0  0
    5.7854    0.4420   -0.3408 H   0  0  0  0  0  0  0  0  0  0  0  0
    3.1163   -2.4569    1.3722 H   0  0  0  0  0  0  0  0  0  0  0  0
   -5.6682   -1.4469   -0.1565 H   0  0  0  0  0  0  0  0  0  0  0  0
    5.4224   -1.6601    0.9254 H   0  0  0  0  0  0  0  0  0  0  0  0
  1  6  2  0  0  0  0
  2  3  1  0  0  0  0
  2  5  1  0  0  0  0
  2 17  1  0  0  0  0
  3  6  1  0  0  0  0
  3 18  1  0  0  0  0
  4  6  1  0  0  0  0
  4  7  2  0  0  0  0
  4  8  1  0  0  0  0
  5  9  2  0  0  0  0
  5 10  1  0  0  0  0
  7 11  1  0  0  0  0
  7 19  1  0  0  0  0
  8 12  2  0  0  0  0
  8 20  1  0  0  0  0
  9 13  1  0  0  0  0
  9 21  1  0  0  0  0
 10 14  2  0  0  0  0
 10 22  1  0  0  0  0
 11 15  2  0  0  0  0
 11 23  1  0  0  0  0
 12 15  1  0  0  0  0
 12 24  1  0  0  0  0
 13 16  2  0  0  0  0
 13 25  1  0  0  0  0
 14 16  1  0  0  0  0
 14 26  1  0  0  0  0
 15 27  1  0  0  0  0
 16 28  1  0  0  0  0
M  END
> <PUBCHEM_COMPOUND_CID>
10774

> <PUBCHEM_CONFORMER_RMSD>
0.6

> <PUBCHEM_CONFORMER_DIVERSEORDER>
2
17
12
15
4
9
13
1
8
16
5
7
3
14
11
6
10

> <PUBCHEM_MMFF94_PARTIAL_CHARGES>
28
1 -0.57
10 -0.15
11 -0.15
12 -0.15
13 -0.15
14 -0.15
15 -0.15
16 -0.15
17 0.4
18 0.37
19 0.15
2 -0.52
20 0.15
21 0.15
22 0.15
23 0.15
24 0.15
25 0.15
26 0.15
27 0.15
28 0.15
3 -0.41
4 0.09
5 0.1
6 0.54
7 -0.15
8 -0.15
9 -0.15

> <PUBCHEM_EFFECTIVE_ROTOR_COUNT>
4

> <PUBCHEM_PHARMACOPHORE_FEATURES>
5
1 1 acceptor
1 2 donor
1 3 donor
6 4 7 8 11 12 15 rings
6 5 9 10 13 14 16 rings

> <PUBCHEM_HEAVY_ATOM_COUNT>
16

> <PUBCHEM_ATOM_DEF_STEREO_COUNT>
0

> <PUBCHEM_ATOM_UDEF_STEREO_COUNT>
0

> <PUBCHEM_BOND_DEF_STEREO_COUNT>
0

> <PUBCHEM_BOND_UDEF_STEREO_COUNT>
0

> <PUBCHEM_ISOTOPIC_ATOM_COUNT>
0

> <PUBCHEM_COMPONENT_COUNT>
1

> <PUBCHEM_CACTVS_TAUTO_COUNT>
2

> <PUBCHEM_CONFORMER_ID>
00002A1600000002

> <PUBCHEM_MMFF94_ENERGY>
53.8614

> <PUBCHEM_FEATURE_SELFOVERLAP>
26.942

> <PUBCHEM_SHAPE_FINGERPRINT>
10062212 137 18408043992328349999
10465860 250 17967533471700587593
10616163 171 18335980874451224871
11046707 91 18334859411440004543
11578080 2 18267890356958039653
12107183 9 17762054749820493896
12236239 1 18412260640288714596
13167823 11 18412544314294059478
14251717 144 18060701684791682330
14251764 18 18409442584488728913
15242433 33 18413387631149074359
15375462 189 18411138026042396584
17834072 33 18412260619220203060
1798214 20 18272655640325530911
18186145 218 14908178642544132405
19050596 39 18408605872576074962
200 152 18272370875530368160
20281475 54 18340208492596372231
20645477 70 17346878966357780978
21250096 35 18409732858851232593
21267235 1 18411691089023677102
22485316 2 18412265034087893581
2255824 54 18199179599390116500
22646028 1 18412826884492607974
22646028 28 18412827984015038534
2297311 6 17676755535776394180
23366157 5 18047477716663722209
23402539 116 18410015450466712236
23559900 14 18334019358707861672
26918003 58 18060136539650913683
2871803 45 17561368413312437410
300161 21 18411143532185364093
33824 294 17775005700412085642
351380 180 7853857182684121762
351380 3 18413670218686098314
42 15 18411417319249586781
4214541 1 18412545448371433349
4921388 177 16128367122156535411
5104073 3 17969215651850999443
5374978 207 18040999540128369912
559249 180 18341055219819086643
573450 72 18334575759030951953
602551 16 17095813113869661694
76465 3 18042414534663805495

> <PUBCHEM_SHAPE_MULTIPOLES>
313.44
10.94
1.56
0.91
0.96
0.2
-0.02
3.06
-0.67
-0.12
-0.12
0.06
-0.04
-1.26

> <PUBCHEM_SHAPE_SELFOVERLAP>
670.419

> <PUBCHEM_SHAPE_VOLUME>
172.5

> <PUBCHEM_COORDINATE_TYPE>
2
5
10

$$$$

