17396343
  -OEChem-06241222563D

 38 40  0     0  0  0  0  0  0999 V2000
    3.6799    1.3801    1.0371 S   0  0  0  0  0  0  0  0  0  0  0  0
   -4.2210    0.5843   -2.2136 S   0  0  0  0  0  0  0  0  0  0  0  0
   -0.1078    1.2327   -0.0008 O   0  0  0  0  0  0  0  0  0  0  0  0
    0.9983    2.7961    1.2609 O   0  0  0  0  0  0  0  0  0  0  0  0
   -4.6508   -1.5234    1.9272 O   0  0  0  0  0  0  0  0  0  0  0  0
   -3.2247    0.4001    0.1646 N   0  0  0  0  0  0  0  0  0  0  0  0
   -5.1409   -0.9776   -0.3197 N   0  0  0  0  0  0  0  0  0  0  0  0
    5.5732   -2.1099   -1.1378 C   0  0  0  0  0  0  0  0  0  0  0  0
    6.2647   -1.6839    0.1656 C   0  0  0  0  0  0  0  0  0  0  0  0
    4.0428   -2.0497   -1.0126 C   0  0  0  0  0  0  0  0  0  0  0  0
    5.9158   -0.2372    0.5500 C   0  0  0  0  0  0  0  0  0  0  0  0
    3.5891   -0.7851   -0.3516 C   0  0  0  0  0  0  0  0  0  0  0  0
    4.4510    0.0150    0.3743 C   0  0  0  0  0  0  0  0  0  0  0  0
    2.2633   -0.2569   -0.3486 C   0  0  0  0  0  0  0  0  0  0  0  0
    2.1730    0.9167    0.3687 C   0  0  0  0  0  0  0  0  0  0  0  0
    1.0287    1.7372    0.6010 C   0  0  0  0  0  0  0  0  0  0  0  0
   -1.3229    1.9730    0.1624 C   0  0  0  0  0  0  0  0  0  0  0  0
   -2.4690    1.3207   -0.5350 C   0  0  0  0  0  0  0  0  0  0  0  0
   -2.8563    1.5528   -1.8381 C   0  0  0  0  0  0  0  0  0  0  0  0
   -4.1761   -0.0533   -0.6211 C   0  0  0  0  0  0  0  0  0  0  0  0
   -5.3183   -1.6423    0.9052 C   0  0  0  0  0  0  0  0  0  0  0  0
   -6.4921   -2.5893    0.8618 C   0  0  0  0  0  0  0  0  0  0  0  0
    5.9019   -1.4493   -1.9503 H   0  0  0  0  0  0  0  0  0  0  0  0
    5.8779   -3.1270   -1.4087 H   0  0  0  0  0  0  0  0  0  0  0  0
    7.3513   -1.7823    0.0631 H   0  0  0  0  0  0  0  0  0  0  0  0
    5.9567   -2.3622    0.9719 H   0  0  0  0  0  0  0  0  0  0  0  0
    3.5906   -2.1433   -2.0065 H   0  0  0  0  0  0  0  0  0  0  0  0
    3.6945   -2.8999   -0.4131 H   0  0  0  0  0  0  0  0  0  0  0  0
    6.4739    0.4530   -0.0946 H   0  0  0  0  0  0  0  0  0  0  0  0
    6.2274   -0.0504    1.5839 H   0  0  0  0  0  0  0  0  0  0  0  0
    1.4259   -0.7264   -0.8501 H   0  0  0  0  0  0  0  0  0  0  0  0
   -1.5495    2.0517    1.2326 H   0  0  0  0  0  0  0  0  0  0  0  0
   -1.1796    2.9859   -0.2331 H   0  0  0  0  0  0  0  0  0  0  0  0
   -2.4194    2.2216   -2.5662 H   0  0  0  0  0  0  0  0  0  0  0  0
   -5.7857   -1.1890   -1.0769 H   0  0  0  0  0  0  0  0  0  0  0  0
   -6.5862   -3.1081    1.8198 H   0  0  0  0  0  0  0  0  0  0  0  0
   -7.4111   -2.0289    0.6686 H   0  0  0  0  0  0  0  0  0  0  0  0
   -6.3421   -3.3295    0.0708 H   0  0  0  0  0  0  0  0  0  0  0  0
  1 13  1  0  0  0  0
  1 15  1  0  0  0  0
  2 19  1  0  0  0  0
  2 20  1  0  0  0  0
  3 16  1  0  0  0  0
  3 17  1  0  0  0  0
  4 16  2  0  0  0  0
  5 21  2  0  0  0  0
  6 18  1  0  0  0  0
  6 20  2  0  0  0  0
  7 20  1  0  0  0  0
  7 21  1  0  0  0  0
  7 35  1  0  0  0  0
  8  9  1  0  0  0  0
  8 10  1  0  0  0  0
  8 23  1  0  0  0  0
  8 24  1  0  0  0  0
  9 11  1  0  0  0  0
  9 25  1  0  0  0  0
  9 26  1  0  0  0  0
 10 12  1  0  0  0  0
 10 27  1  0  0  0  0
 10 28  1  0  0  0  0
 11 13  1  0  0  0  0
 11 29  1  0  0  0  0
 11 30  1  0  0  0  0
 12 13  2  0  0  0  0
 12 14  1  0  0  0  0
 14 15  2  0  0  0  0
 14 31  1  0  0  0  0
 15 16  1  0  0  0  0
 17 18  1  0  0  0  0
 17 32  1  0  0  0  0
 17 33  1  0  0  0  0
 18 19  2  0  0  0  0
 19 34  1  0  0  0  0
 21 22  1  0  0  0  0
 22 36  1  0  0  0  0
 22 37  1  0  0  0  0
 22 38  1  0  0  0  0
M  END
> <PUBCHEM_COMPOUND_CID>
17396343

> <PUBCHEM_CONFORMER_RMSD>
0.8

> <PUBCHEM_CONFORMER_DIVERSEORDER>
1
279
103
175
229
124
249
110
252
202
190
204
280
129
147
286
308
206
339
101
256
334
343
57
114
174
146
78
325
250
287
186
84
88
49
47
75
219
152
199
23
345
290
324
284
212
120
224
232
66
298
169
332
131
108
168
338
294
187
349
104
214
301
77
40
11
30
112
352
91
313
241
177
85
355
54
216
188
35
242
233
32
102
140
139
52
74
122
160
314
95
142
254
82
99
350
127
238
205
53
68
134
226
86
240
299
76
336
327
326
316
259
243
221
62
153
106
267
27
237
89
130
351
136
185
234
48
346
270
67
125
154
273
201
309
208
302
138
59
180
92
83
322
296
96
116
71
123
50
235
179
344
196
288
15
276
3
55
22
63
218
272
117
167
271
39
161
220
348
109
269
295
258
19
333
209
73
203
26
184
307
193
97
12
261
151
222
144
278
165
137
162
213
292
93
191
164
113
157
255
13
239
21
69
329
9
274
143
163
311
265
225
56
10
340
303
16
283
317
81
170
228
155
245
183
211
195
342
275
347
210
45
31
357
156
44
172
158
266
6
197
262
24
51
335
246
297
354
72
217
285
236
305
268
132
145
194
173
34
264
306
251
223
25
36
33
150
356
111
98
80
263
14
60
5
17
159
105
148
227
282
135
207
318
320
328
310
2
189
70
38
289
18
171
61
65
28
100
79
118
300
43
58
330
119
323
331
198
353
166
46
42
141
215
315
64
20
192
260
133
200
319
128
181
87
107
321
257
231
291
182
176
8
149
293
37
41
304
253
230
115
126
277
341
178
90
337
121
94
29
281
4
312
248
7
244
247

> <PUBCHEM_MMFF94_PARTIAL_CHARGES>
23
1 -0.08
10 0.18
11 0.18
12 -0.18
13 -0.14
14 -0.15
15 -0.05
16 0.81
17 0.46
18 0.05
19 -0.11
2 -0.08
20 0.44
21 0.57
22 0.06
3 -0.43
31 0.15
34 0.15
35 0.37
4 -0.57
5 -0.57
6 -0.57
7 -0.49

> <PUBCHEM_EFFECTIVE_ROTOR_COUNT>
6.8

> <PUBCHEM_PHARMACOPHORE_FEATURES>
6
1 4 acceptor
1 5 acceptor
1 7 donor
5 1 12 13 14 15 rings
5 2 6 18 19 20 rings
6 8 9 10 11 12 13 rings

> <PUBCHEM_HEAVY_ATOM_COUNT>
22

> <PUBCHEM_ATOM_DEF_STEREO_COUNT>
0

> <PUBCHEM_ATOM_UDEF_STEREO_COUNT>
0

> <PUBCHEM_BOND_DEF_STEREO_COUNT>
0

> <PUBCHEM_BOND_UDEF_STEREO_COUNT>
0

> <PUBCHEM_ISOTOPIC_ATOM_COUNT>
0

> <PUBCHEM_COMPONENT_COUNT>
1

> <PUBCHEM_CACTVS_TAUTO_COUNT>
3

> <PUBCHEM_CONFORMER_ID>
0109727700000001

> <PUBCHEM_MMFF94_ENERGY>
26.5733

> <PUBCHEM_FEATURE_SELFOVERLAP>
30.503

> <PUBCHEM_SHAPE_FINGERPRINT>
10319926 262 5617257043563937356
10981352 41 18265897960969523763
11089746 13 14979952584668529092
11796584 16 18200322137646543208
12342043 65 18270399370252653249
12616971 3 17022906735277492228
12633257 1 14779270799897470089
13103583 49 15647061451335912925
13402501 40 18411978048985153563
13544653 18 18114468950083341628
13673619 4 18272645728232023801
13782708 43 18272655640389010034
13955234 65 17970354719896236032
14123256 34 18187640341052611982
14211702 104 18266458905278901250
14216079 64 18341329999448575003
14251751 18 18273213097021023255
14251764 30 18409726240602288451
14341114 328 14923950033032462232
14556957 393 14764351557007163791
14647877 103 6627463034634961066
14950920 106 15792309093834330919
14951699 99 6122496926231343418
15510800 12 18200592472243570723
15537594 2 17821451235868883964
17627616 140 17988087819248697835
17870717 6 17989494043507269669
18643901 69 17917711301917809119
19377110 9 16805608057968409200
193927 3 18334011730998755796
20281389 69 9079108969150315764
20621476 21 18271523113864581307
21033650 10 16988567965135530101
21054139 6 17561366201546789594
21095086 4 18342164532552423587
21267235 1 17822573923978835398
21307412 95 17774445959279938387
21585481 104 14116981105406333263
21623969 137 18260547822881553110
22393880 68 17989216974491823152
22765269 38 9727637185247424371
23402655 69 13470397912161042248
23424784 1240 18115299102953356246
23559900 14 18201449064356960245
25122255 55 18413386540264434363
2748736 6 10159697962931374910
3089732 80 18411697668977138035
314194 84 17968105209099067740
329604 57 18413665816613333588
3737641 26 17169260645429578046
3862424 121 16699465487901805051
4073 2 18339081591862299648
439807 62 18202847677401565683
46194498 28 18130792209536148868
465052 167 18113899382033086590
484985 159 18411978105420420377
5104073 3 17749960002389083776
5486654 36 18261387897168271361
636775 8 18263070159276827150
6431902 208 18260552263824755774
8863177 126 18338516339685159747
9862886 166 18131068229856537170
9980921 177 6843105782917875630
9980921 7 17915724420683743980
999808 66 18408318908283455311

> <PUBCHEM_SHAPE_MULTIPOLES>
432.88
17.25
2.76
1.56
2.57
0.36
-0.42
14.65
0.86
0.94
0.56
1.82
-0.01
3.9

> <PUBCHEM_SHAPE_SELFOVERLAP>
893.986

> <PUBCHEM_SHAPE_VOLUME>
249.9

> <PUBCHEM_COORDINATE_TYPE>
2
5
10

$$$$

