46174040
  -OEChem-07051213113D

 66 68  0     1  0  0  0  0  0999 V2000
    1.6670   -2.7192    1.2687 P   0  0  1  0  0  0  0  0  0  0  0  0
   -1.0736   -3.6240    0.6958 P   0  0  2  0  0  0  0  0  0  0  0  0
   -3.6691   -0.3340   -0.3268 O   0  0  0  0  0  0  0  0  0  0  0  0
    1.6435    0.0655   -1.0541 O   0  0  0  0  0  0  0  0  0  0  0  0
    2.4120   -1.4520    0.6010 O   0  0  0  0  0  0  0  0  0  0  0  0
   -4.4860   -0.1837   -3.2733 O   0  0  0  0  0  0  0  0  0  0  0  0
   -2.2959   -2.7399    0.1112 O   0  0  0  0  0  0  0  0  0  0  0  0
    0.1116   -2.5381    0.8665 O   0  0  0  0  0  0  0  0  0  0  0  0
    2.1359   -3.9841    0.3757 O   0  0  0  0  0  0  0  0  0  0  0  0
   -3.6202    3.7909   -0.1195 O   0  0  0  0  0  0  0  0  0  0  0  0
   -0.5849   -4.4993   -0.5737 O   0  0  0  0  0  0  0  0  0  0  0  0
    1.9070   -2.8784    2.7421 O   0  0  0  0  0  0  0  0  0  0  0  0
   -1.3771   -4.4169    1.9334 O   0  0  0  0  0  0  0  0  0  0  0  0
   -0.3784    3.4501    3.1243 O   0  0  0  0  0  0  0  0  0  0  0  0
    4.6064    2.3295   -0.8735 N   0  0  0  0  0  0  0  0  0  0  0  0
   -2.6606    1.6957    0.2547 N   0  0  0  0  0  0  0  0  0  0  0  0
   -2.0021    3.6067    1.4955 N   0  0  0  0  0  0  0  0  0  0  0  0
    3.7803    1.2119   -1.3270 C   0  0  2  0  0  0  0  0  0  0  0  0
    2.4155    1.1924   -0.6161 C   0  0  1  0  0  0  0  0  0  0  0  0
    4.5150   -0.1135   -1.0985 C   0  0  0  0  0  0  0  0  0  0  0  0
   -3.2138   -0.3581   -2.6535 C   0  0  2  0  0  0  0  0  0  0  0  0
   -3.3571   -1.2282   -1.4125 C   0  0  1  0  0  0  0  0  0  0  0  0
   -2.7354    0.9613   -2.0929 C   0  0  0  0  0  0  0  0  0  0  0  0
   -3.4343    1.0183   -0.7443 C   0  0  1  0  0  0  0  0  0  0  0  0
    3.6188   -1.2879   -1.4823 C   0  0  0  0  0  0  0  0  0  0  0  0
    2.2607   -1.1955   -0.7919 C   0  0  2  0  0  0  0  0  0  0  0  0
   -2.0742   -1.9678   -1.0560 C   0  0  0  0  0  0  0  0  0  0  0  0
    1.5843    2.4375   -0.9165 C   0  0  0  0  0  0  0  0  0  0  0  0
    5.6159    2.6611   -1.8788 C   0  0  0  0  0  0  0  0  0  0  0  0
    5.2437    2.0097    0.4038 C   0  0  0  0  0  0  0  0  0  0  0  0
   -1.7388    0.9611    0.9903 C   0  0  0  0  0  0  0  0  0  0  0  0
   -2.8227    3.0777    0.4931 C   0  0  0  0  0  0  0  0  0  0  0  0
   -0.9550    1.4704    1.9486 C   0  0  0  0  0  0  0  0  0  0  0  0
   -1.0682    2.9207    2.2572 C   0  0  0  0  0  0  0  0  0  0  0  0
    0.0296    0.6601    2.7291 C   0  0  0  0  0  0  0  0  0  0  0  0
    3.5738    1.3032   -2.4035 H   0  0  0  0  0  0  0  0  0  0  0  0
    2.5258    1.1172    0.4716 H   0  0  0  0  0  0  0  0  0  0  0  0
    5.4382   -0.1720   -1.6858 H   0  0  0  0  0  0  0  0  0  0  0  0
    4.7808   -0.2880   -0.0504 H   0  0  0  0  0  0  0  0  0  0  0  0
   -2.5340   -0.7699   -3.4053 H   0  0  0  0  0  0  0  0  0  0  0  0
   -4.1892   -1.9367   -1.4902 H   0  0  0  0  0  0  0  0  0  0  0  0
   -2.9895    1.8260   -2.7139 H   0  0  0  0  0  0  0  0  0  0  0  0
   -1.6454    0.9395   -1.9723 H   0  0  0  0  0  0  0  0  0  0  0  0
   -4.4128    1.5024   -0.8465 H   0  0  0  0  0  0  0  0  0  0  0  0
    4.1181   -2.2289   -1.2254 H   0  0  0  0  0  0  0  0  0  0  0  0
    3.4713   -1.2688   -2.5692 H   0  0  0  0  0  0  0  0  0  0  0  0
    1.6030   -1.9536   -1.2303 H   0  0  0  0  0  0  0  0  0  0  0  0
   -1.8171   -2.6388   -1.8817 H   0  0  0  0  0  0  0  0  0  0  0  0
   -1.2326   -1.2888   -0.9014 H   0  0  0  0  0  0  0  0  0  0  0  0
    1.4376    2.5569   -1.9958 H   0  0  0  0  0  0  0  0  0  0  0  0
    2.0537    3.3442   -0.5242 H   0  0  0  0  0  0  0  0  0  0  0  0
    0.5862    2.3495   -0.4786 H   0  0  0  0  0  0  0  0  0  0  0  0
    5.6609    2.9355    0.8202 H   0  0  0  0  0  0  0  0  0  0  0  0
    6.3267    1.8498   -2.0671 H   0  0  0  0  0  0  0  0  0  0  0  0
    5.1424    2.9343   -2.8286 H   0  0  0  0  0  0  0  0  0  0  0  0
    6.1889    3.5390   -1.5585 H   0  0  0  0  0  0  0  0  0  0  0  0
    6.0874    1.3139    0.3255 H   0  0  0  0  0  0  0  0  0  0  0  0
    4.5376    1.6528    1.1604 H   0  0  0  0  0  0  0  0  0  0  0  0
   -4.7828   -1.0583   -3.5778 H   0  0  0  0  0  0  0  0  0  0  0  0
   -1.6542   -0.0924    0.7780 H   0  0  0  0  0  0  0  0  0  0  0  0
   -2.1018    4.6002    1.6843 H   0  0  0  0  0  0  0  0  0  0  0  0
    1.0495    1.0075    2.5372 H   0  0  0  0  0  0  0  0  0  0  0  0
   -0.0189   -0.4013    2.4725 H   0  0  0  0  0  0  0  0  0  0  0  0
   -0.1700    0.7457    3.8023 H   0  0  0  0  0  0  0  0  0  0  0  0
    1.9072   -4.8887    0.6780 H   0  0  0  0  0  0  0  0  0  0  0  0
   -0.2517   -4.0461   -1.3768 H   0  0  0  0  0  0  0  0  0  0  0  0
  1  5  1  0  0  0  0
  1  8  1  0  0  0  0
  1  9  1  0  0  0  0
  1 12  2  0  0  0  0
  2  7  1  0  0  0  0
  2  8  1  0  0  0  0
  2 11  1  0  0  0  0
  2 13  2  0  0  0  0
  3 22  1  0  0  0  0
  3 24  1  0  0  0  0
  4 19  1  0  0  0  0
  4 26  1  0  0  0  0
  5 26  1  0  0  0  0
  6 21  1  0  0  0  0
  6 59  1  0  0  0  0
  7 27  1  0  0  0  0
  9 65  1  0  0  0  0
 10 32  2  0  0  0  0
 11 66  1  0  0  0  0
 14 34  2  0  0  0  0
 15 18  1  0  0  0  0
 15 29  1  0  0  0  0
 15 30  1  0  0  0  0
 16 24  1  0  0  0  0
 16 31  1  0  0  0  0
 16 32  1  0  0  0  0
 17 32  1  0  0  0  0
 17 34  1  0  0  0  0
 17 61  1  0  0  0  0
 18 19  1  0  0  0  0
 18 20  1  0  0  0  0
 18 36  1  0  0  0  0
 19 28  1  0  0  0  0
 19 37  1  0  0  0  0
 20 25  1  0  0  0  0
 20 38  1  0  0  0  0
 20 39  1  0  0  0  0
 21 22  1  0  0  0  0
 21 23  1  0  0  0  0
 21 40  1  0  0  0  0
 22 27  1  0  0  0  0
 22 41  1  0  0  0  0
 23 24  1  0  0  0  0
 23 42  1  0  0  0  0
 23 43  1  0  0  0  0
 24 44  1  0  0  0  0
 25 26  1  0  0  0  0
 25 45  1  0  0  0  0
 25 46  1  0  0  0  0
 26 47  1  0  0  0  0
 27 48  1  0  0  0  0
 27 49  1  0  0  0  0
 28 50  1  0  0  0  0
 28 51  1  0  0  0  0
 28 52  1  0  0  0  0
 29 54  1  0  0  0  0
 29 55  1  0  0  0  0
 29 56  1  0  0  0  0
 30 53  1  0  0  0  0
 30 57  1  0  0  0  0
 30 58  1  0  0  0  0
 31 33  2  0  0  0  0
 31 60  1  0  0  0  0
 33 34  1  0  0  0  0
 33 35  1  0  0  0  0
 35 62  1  0  0  0  0
 35 63  1  0  0  0  0
 35 64  1  0  0  0  0
M  END
> <PUBCHEM_COMPOUND_CID>
46174040

> <PUBCHEM_CONFORMER_RMSD>
1.4

> <PUBCHEM_CONFORMER_DIVERSEORDER>
1
112
35
11
89
45
76
24
72
106
44
103
61
69
57
36
22
68
98
117
100
80
66
88
38
120
31
32
109
26
113
56
65
6
122
55
86
75
99
41
59
63
33
30
28
77
104
101
40
73
4
93
8
46
107
39
16
95
70
114
85
116
83
17
12
34
2
90
91
79
54
108
96
58
81
67
49
84
97
48
94
71
62
3
53
14
119
121
60
43
20
10
51
105
5
78
25
21
118
64
82
42
47
102
110
87
74
115
52
92
29
27
111
37
50
18
13
9
23
15
7
19

> <PUBCHEM_MMFF94_PARTIAL_CHARGES>
36
1 1.51
10 -0.57
11 -0.77
12 -0.7
13 -0.7
14 -0.57
15 -0.81
16 -0.47
17 -0.49
18 0.27
19 0.28
2 1.51
21 0.28
22 0.28
24 0.58
26 0.56
27 0.28
29 0.27
3 -0.56
30 0.27
31 -0.04
32 0.69
33 -0.12
34 0.62
35 0.14
4 -0.56
5 -0.55
59 0.4
6 -0.68
60 0.15
61 0.37
65 0.5
66 0.5
7 -0.55
8 -0.54
9 -0.77

> <PUBCHEM_EFFECTIVE_ROTOR_COUNT>
11.2

> <PUBCHEM_PHARMACOPHORE_FEATURES>
15
1 10 acceptor
1 11 acceptor
1 12 acceptor
1 13 acceptor
1 14 acceptor
1 15 cation
1 17 donor
1 3 acceptor
1 4 acceptor
1 6 acceptor
1 6 donor
1 9 acceptor
5 3 21 22 23 24 rings
6 16 17 31 32 33 34 rings
6 4 18 19 20 25 26 rings

> <PUBCHEM_HEAVY_ATOM_COUNT>
35

> <PUBCHEM_ATOM_DEF_STEREO_COUNT>
6

> <PUBCHEM_ATOM_UDEF_STEREO_COUNT>
0

> <PUBCHEM_BOND_DEF_STEREO_COUNT>
0

> <PUBCHEM_BOND_UDEF_STEREO_COUNT>
0

> <PUBCHEM_ISOTOPIC_ATOM_COUNT>
0

> <PUBCHEM_COMPONENT_COUNT>
1

> <PUBCHEM_CACTVS_TAUTO_COUNT>
3

> <PUBCHEM_CONFORMER_ID>
02C08F5800000001

> <PUBCHEM_MMFF94_ENERGY>
42.3526

> <PUBCHEM_FEATURE_SELFOVERLAP>
76.139

> <PUBCHEM_SHAPE_FINGERPRINT>
10032420 55 18188790365247904837
10838868 49 17042376702815464528
11513181 2 15656371308952789175
12156800 1 17266415416477536944
12166972 35 17838652137518878927
12655364 131 18268443502629252490
12788726 201 18040432243758027401
13947920 24 17910953544017702468
14114206 34 18187376445108298045
14289585 56 16681740698440602774
15463212 79 18336542836694153705
19319366 153 18263639744352664761
20511986 3 18190748733201973284
20764821 26 17977383828521747249
20775438 99 16815215392872461743
21796203 349 17406242896374713202
21860390 5 17046802691950687515
3493558 16 17194601850177156916
35225 105 17620419815385537719
469060 322 17200774628361004363
50150288 127 17605809564789174793
5895379 119 17971760119062982582

> <PUBCHEM_SHAPE_MULTIPOLES>
642.61
8.86
5.97
2.91
9.31
3.31
-0.59
-5.45
6.86
-1.87
-3.62
-1.6
-0.77
-1.86

> <PUBCHEM_SHAPE_SELFOVERLAP>
1297.746

> <PUBCHEM_SHAPE_VOLUME>
378.8

> <PUBCHEM_COORDINATE_TYPE>
2
5
10

$$$$

