443364
  -OEChem-07051213023D

 69 75  0     1  0  0  0  0  0999 V2000
    1.5545   -0.1144    2.4693 O   0  0  0  0  0  0  0  0  0  0  0  0
    5.2824    1.3564   -1.7193 O   0  0  0  0  0  0  0  0  0  0  0  0
   -1.6392   -0.6952    4.0575 O   0  0  0  0  0  0  0  0  0  0  0  0
   -4.6326   -1.7514   -0.5802 O   0  0  0  0  0  0  0  0  0  0  0  0
    3.6984    0.9617   -0.0310 N   0  0  0  0  0  0  0  0  0  0  0  0
    3.0803   -1.1556   -0.5238 N   0  0  0  0  0  0  0  0  0  0  0  0
   -1.0554    0.5987    2.2675 N   0  0  0  0  0  0  0  0  0  0  0  0
   -2.6682   -0.6121    0.0634 N   0  0  0  0  0  0  0  0  0  0  0  0
   -2.4918    1.6939   -0.4893 N   0  0  0  0  0  0  0  0  0  0  0  0
    3.0388   -0.1720    0.5578 C   0  0  2  0  0  0  0  0  0  0  0  0
    1.7160    0.3856    1.1472 C   0  0  2  0  0  0  0  0  0  0  0  0
    4.3650   -0.8660   -1.2264 C   0  0  2  0  0  0  0  0  0  0  0  0
    2.0336    1.8735    1.1851 C   0  0  0  0  0  0  0  0  0  0  0  0
    0.4739    0.0947    0.3246 C   0  0  0  0  0  0  0  0  0  0  0  0
    3.1859    2.1561    0.4379 C   0  0  0  0  0  0  0  0  0  0  0  0
    4.5548    0.6386   -1.0554 C   0  0  0  0  0  0  0  0  0  0  0  0
   -0.7434    0.8230    0.8746 C   0  0  1  0  0  0  0  0  0  0  0  0
    4.3104   -1.2756   -2.6872 C   0  0  0  0  0  0  0  0  0  0  0  0
    1.3089    2.9026    1.7629 C   0  0  0  0  0  0  0  0  0  0  0  0
    4.1929   -2.8022   -2.8547 C   0  0  0  0  0  0  0  0  0  0  0  0
    3.6250    3.4452    0.2101 C   0  0  0  0  0  0  0  0  0  0  0  0
   -2.0443    0.6333    0.1129 C   0  0  0  0  0  0  0  0  0  0  0  0
    1.7542    4.2141    1.5708 C   0  0  0  0  0  0  0  0  0  0  0  0
    2.8980    4.4825    0.7972 C   0  0  0  0  0  0  0  0  0  0  0  0
    5.3427   -3.5437   -2.1691 C   0  0  0  0  0  0  0  0  0  0  0  0
    2.8569   -3.2930   -2.2921 C   0  0  0  0  0  0  0  0  0  0  0  0
   -1.4215   -0.5881    2.8521 C   0  0  0  0  0  0  0  0  0  0  0  0
   -2.1237   -1.7828    0.7112 C   0  0  0  0  0  0  0  0  0  0  0  0
   -1.5339   -1.7805    1.9893 C   0  0  0  0  0  0  0  0  0  0  0  0
   -3.9035   -0.7619   -0.6100 C   0  0  0  0  0  0  0  0  0  0  0  0
   -3.6575    1.6053   -1.2518 C   0  0  0  0  0  0  0  0  0  0  0  0
   -4.3833    0.4216   -1.3502 C   0  0  0  0  0  0  0  0  0  0  0  0
   -2.1800   -3.0161    0.0257 C   0  0  0  0  0  0  0  0  0  0  0  0
   -1.0539   -2.9768    2.5559 C   0  0  0  0  0  0  0  0  0  0  0  0
   -4.1091    2.7379   -1.9393 C   0  0  0  0  0  0  0  0  0  0  0  0
   -5.5491    0.3600   -2.1232 C   0  0  0  0  0  0  0  0  0  0  0  0
   -1.6917   -4.1969    0.5891 C   0  0  0  0  0  0  0  0  0  0  0  0
   -1.1320   -4.1778    1.8576 C   0  0  0  0  0  0  0  0  0  0  0  0
   -5.2695    2.6833   -2.7124 C   0  0  0  0  0  0  0  0  0  0  0  0
   -5.9888    1.4942   -2.8043 C   0  0  0  0  0  0  0  0  0  0  0  0
    3.6854   -0.5349    1.3707 H   0  0  0  0  0  0  0  0  0  0  0  0
    5.1943   -1.3424   -0.6918 H   0  0  0  0  0  0  0  0  0  0  0  0
    0.3210   -0.9861    0.2824 H   0  0  0  0  0  0  0  0  0  0  0  0
    0.6130    0.4165   -0.7166 H   0  0  0  0  0  0  0  0  0  0  0  0
    2.3170   -0.9484   -1.1672 H   0  0  0  0  0  0  0  0  0  0  0  0
   -0.5807    1.8968    0.7754 H   0  0  0  0  0  0  0  0  0  0  0  0
    3.4812   -0.7740   -3.2038 H   0  0  0  0  0  0  0  0  0  0  0  0
    5.2233   -0.9361   -3.1937 H   0  0  0  0  0  0  0  0  0  0  0  0
    1.4942   -1.0835    2.4130 H   0  0  0  0  0  0  0  0  0  0  0  0
    0.4579    2.7427    2.4083 H   0  0  0  0  0  0  0  0  0  0  0  0
    4.2224   -3.0214   -3.9293 H   0  0  0  0  0  0  0  0  0  0  0  0
    4.5048    3.6576   -0.3858 H   0  0  0  0  0  0  0  0  0  0  0  0
   -1.0134    1.3998    2.8890 H   0  0  0  0  0  0  0  0  0  0  0  0
    1.2136    5.0384    2.0286 H   0  0  0  0  0  0  0  0  0  0  0  0
    3.2190    5.5114    0.6571 H   0  0  0  0  0  0  0  0  0  0  0  0
    5.2827   -3.5035   -1.0772 H   0  0  0  0  0  0  0  0  0  0  0  0
    6.3104   -3.1359   -2.4789 H   0  0  0  0  0  0  0  0  0  0  0  0
    5.3248   -4.6025   -2.4511 H   0  0  0  0  0  0  0  0  0  0  0  0
    2.8621   -3.4470   -1.2097 H   0  0  0  0  0  0  0  0  0  0  0  0
    2.6425   -4.2820   -2.7176 H   0  0  0  0  0  0  0  0  0  0  0  0
    2.0213   -2.6491   -2.5848 H   0  0  0  0  0  0  0  0  0  0  0  0
   -2.5771   -3.0746   -0.9860 H   0  0  0  0  0  0  0  0  0  0  0  0
   -0.6033   -2.9841    3.5462 H   0  0  0  0  0  0  0  0  0  0  0  0
   -3.5567    3.6725   -1.8764 H   0  0  0  0  0  0  0  0  0  0  0  0
   -6.1243   -0.5579   -2.2078 H   0  0  0  0  0  0  0  0  0  0  0  0
   -1.7453   -5.1268    0.0307 H   0  0  0  0  0  0  0  0  0  0  0  0
   -0.7513   -5.0927    2.3013 H   0  0  0  0  0  0  0  0  0  0  0  0
   -5.6110    3.5677   -3.2420 H   0  0  0  0  0  0  0  0  0  0  0  0
   -6.8920    1.4507   -3.4058 H   0  0  0  0  0  0  0  0  0  0  0  0
  1 11  1  0  0  0  0
  1 49  1  0  0  0  0
  2 16  2  0  0  0  0
  3 27  2  0  0  0  0
  4 30  2  0  0  0  0
  5 10  1  0  0  0  0
  5 15  1  0  0  0  0
  5 16  1  0  0  0  0
  6 10  1  0  0  0  0
  6 12  1  0  0  0  0
  6 45  1  0  0  0  0
  7 17  1  0  0  0  0
  7 27  1  0  0  0  0
  7 53  1  0  0  0  0
  8 22  1  0  0  0  0
  8 28  1  0  0  0  0
  8 30  1  0  0  0  0
  9 22  2  0  0  0  0
  9 31  1  0  0  0  0
 10 11  1  0  0  0  0
 10 41  1  0  0  0  0
 11 13  1  0  0  0  0
 11 14  1  0  0  0  0
 12 16  1  0  0  0  0
 12 18  1  0  0  0  0
 12 42  1  0  0  0  0
 13 15  1  0  0  0  0
 13 19  2  0  0  0  0
 14 17  1  0  0  0  0
 14 43  1  0  0  0  0
 14 44  1  0  0  0  0
 15 21  2  0  0  0  0
 17 22  1  0  0  0  0
 17 46  1  0  0  0  0
 18 20  1  0  0  0  0
 18 47  1  0  0  0  0
 18 48  1  0  0  0  0
 19 23  1  0  0  0  0
 19 50  1  0  0  0  0
 20 25  1  0  0  0  0
 20 26  1  0  0  0  0
 20 51  1  0  0  0  0
 21 24  1  0  0  0  0
 21 52  1  0  0  0  0
 23 24  2  0  0  0  0
 23 54  1  0  0  0  0
 24 55  1  0  0  0  0
 25 56  1  0  0  0  0
 25 57  1  0  0  0  0
 25 58  1  0  0  0  0
 26 59  1  0  0  0  0
 26 60  1  0  0  0  0
 26 61  1  0  0  0  0
 27 29  1  0  0  0  0
 28 29  1  0  0  0  0
 28 33  2  0  0  0  0
 29 34  2  0  0  0  0
 30 32  1  0  0  0  0
 31 32  1  0  0  0  0
 31 35  2  0  0  0  0
 32 36  2  0  0  0  0
 33 37  1  0  0  0  0
 33 62  1  0  0  0  0
 34 38  1  0  0  0  0
 34 63  1  0  0  0  0
 35 39  1  0  0  0  0
 35 64  1  0  0  0  0
 36 40  1  0  0  0  0
 36 65  1  0  0  0  0
 37 38  2  0  0  0  0
 37 66  1  0  0  0  0
 38 67  1  0  0  0  0
 39 40  2  0  0  0  0
 39 68  1  0  0  0  0
 40 69  1  0  0  0  0
M  END
> <PUBCHEM_COMPOUND_CID>
443364

> <PUBCHEM_CONFORMER_RMSD>
1

> <PUBCHEM_CONFORMER_DIVERSEORDER>
1
7
2
3
6
5
4

> <PUBCHEM_MMFF94_PARTIAL_CHARGES>
50
1 -0.68
10 0.57
11 0.42
12 0.33
13 -0.14
15 0.12
16 0.57
17 0.36
19 -0.15
2 -0.57
21 -0.15
22 0.45
23 -0.15
24 -0.15
27 0.54
28 0.12
29 0.09
3 -0.57
30 0.54
31 0.18
32 0.09
33 -0.15
34 -0.15
35 -0.15
36 -0.15
37 -0.15
38 -0.15
39 -0.15
4 -0.57
40 -0.15
45 0.36
49 0.4
5 -0.48
50 0.15
52 0.15
53 0.37
54 0.15
55 0.15
6 -0.9
62 0.15
63 0.15
64 0.15
65 0.15
66 0.15
67 0.15
68 0.15
69 0.15
7 -0.73
8 -0.24
9 -0.63

> <PUBCHEM_EFFECTIVE_ROTOR_COUNT>
5

> <PUBCHEM_PHARMACOPHORE_FEATURES>
16
1 1 acceptor
1 1 donor
1 2 acceptor
1 3 acceptor
1 4 acceptor
1 6 cation
1 6 donor
1 7 donor
3 20 25 26 hydrophobe
5 5 10 11 13 15 rings
5 5 6 10 12 16 rings
6 13 15 19 21 23 24 rings
6 28 29 33 34 37 38 rings
6 31 32 35 36 39 40 rings
6 8 9 22 30 31 32 rings
7 7 8 17 22 27 28 29 rings

> <PUBCHEM_HEAVY_ATOM_COUNT>
40

> <PUBCHEM_ATOM_DEF_STEREO_COUNT>
2

> <PUBCHEM_ATOM_UDEF_STEREO_COUNT>
2

> <PUBCHEM_BOND_DEF_STEREO_COUNT>
0

> <PUBCHEM_BOND_UDEF_STEREO_COUNT>
0

> <PUBCHEM_ISOTOPIC_ATOM_COUNT>
0

> <PUBCHEM_COMPONENT_COUNT>
1

> <PUBCHEM_CACTVS_TAUTO_COUNT>
2

> <PUBCHEM_CONFORMER_ID>
0006C3E400000001

> <PUBCHEM_MMFF94_ENERGY>
164.9078

> <PUBCHEM_FEATURE_SELFOVERLAP>
81.611

> <PUBCHEM_SHAPE_FINGERPRINT>
10258939 38 17621892989025966339
10556698 54 18051998075511854693
10622 236 17023464282024724038
10675989 125 17980483678655987304
11049842 53 16702034084038097170
11135926 11 18116406225853192996
11285246 1 18265608964792791444
11434127 23 17553216410797338404
11720765 8 17677631889203832408
11966995 178 18121806052191796445
12156800 1 16168091746786115758
12202916 173 18263103122791685650
12633046 712 18119777336244906782
13944108 23 17481170198529130477
14068700 675 15864644992793827310
14659021 117 17901655292489215342
15721738 15 18337674229932233526
17909252 39 17895209804070147968
18603816 31 15940041903009729910
19311894 1 17680993203798608641
19315092 285 15864650482231815662
20764821 26 17898257693805728630
20775438 99 17972912226569556981
21033648 144 18122910828156590576
21033650 10 17416692336382120609
21857420 4 16611995338779862205
21987440 362 17267831883870685412
22440779 20 17196802161431722346
23559900 14 18260839188856398108
3388396 114 17831006198279228062
354706 35 18334573564455918086
3882209 13 17832431169759843926
4015057 19 18260541242875214820
4394409 98 17985828361924956962
4403749 210 17612333857105575224
46194498 28 18265327314022783812
469060 322 16893721540696168438
50150288 127 14475808816088345995
5223283 242 18189335839448787125
613672 6 18261382404390318270
6523845 18 18129932490612096913

> <PUBCHEM_SHAPE_MULTIPOLES>
774.8
11.65
5.64
3.55
3.21
0.36
0.42
-2.19
-13.92
-3.42
0.78
1.01
1.39
6.91

> <PUBCHEM_SHAPE_SELFOVERLAP>
1744.101

> <PUBCHEM_SHAPE_VOLUME>
404.6

> <PUBCHEM_COORDINATE_TYPE>
2
5
10

$$$$

