2832
  -OEChem-07051213013D

 52 54  0     1  0  0  0  0  0999 V2000
    0.8890   -2.0985    0.6392 O   0  0  0  0  0  0  0  0  0  0  0  0
    3.6225   -1.9669    0.5542 O   0  0  0  0  0  0  0  0  0  0  0  0
    4.8760    0.2145   -0.5921 O   0  0  0  0  0  0  0  0  0  0  0  0
   -5.0152   -1.5099   -0.9779 O   0  0  0  0  0  0  0  0  0  0  0  0
   -4.4904   -0.5980    1.5620 O   0  0  0  0  0  0  0  0  0  0  0  0
    0.1171    2.2087    1.7941 N   0  0  0  0  0  0  0  0  0  0  0  0
   -0.8429    2.3355    0.6866 C   0  0  1  0  0  0  0  0  0  0  0  0
   -0.2148    3.0955   -0.5093 C   0  0  0  0  0  0  0  0  0  0  0  0
    0.5475    2.2968   -1.5747 C   0  0  0  0  0  0  0  0  0  0  0  0
   -1.5376    1.0078    0.3451 C   0  0  0  0  0  0  0  0  0  0  0  0
    1.3626    1.1564   -1.0275 C   0  0  0  0  0  0  0  0  0  0  0  0
    0.7177    0.0402   -0.4552 C   0  0  0  0  0  0  0  0  0  0  0  0
   -0.7714   -0.0038   -0.3987 C   0  0  0  0  0  0  0  0  0  0  0  0
    1.4874   -1.0028    0.0836 C   0  0  0  0  0  0  0  0  0  0  0  0
    2.7624    1.2009   -1.0639 C   0  0  0  0  0  0  0  0  0  0  0  0
   -2.7870    0.8324    0.8152 C   0  0  0  0  0  0  0  0  0  0  0  0
   -1.3125   -0.9740   -1.1608 C   0  0  0  0  0  0  0  0  0  0  0  0
    2.8801   -0.9450    0.0397 C   0  0  0  0  0  0  0  0  0  0  0  0
    3.5161    0.1534   -0.5345 C   0  0  0  0  0  0  0  0  0  0  0  0
   -0.5552    1.7432    2.9922 C   0  0  0  0  0  0  0  0  0  0  0  0
   -3.6979   -0.3261    0.6621 C   0  0  0  0  0  0  0  0  0  0  0  0
   -2.6989   -1.2635   -1.4193 C   0  0  0  0  0  0  0  0  0  0  0  0
   -3.7578   -1.0438   -0.6316 C   0  0  0  0  0  0  0  0  0  0  0  0
    0.5983   -2.0373    2.0326 C   0  0  0  0  0  0  0  0  0  0  0  0
    4.5215   -1.6440    1.6122 C   0  0  0  0  0  0  0  0  0  0  0  0
    5.5004   -0.3349   -1.7505 C   0  0  0  0  0  0  0  0  0  0  0  0
   -5.7168   -0.5368   -1.7228 C   0  0  0  0  0  0  0  0  0  0  0  0
   -1.6097    3.0397    1.0459 H   0  0  0  0  0  0  0  0  0  0  0  0
    0.4538    3.8772   -0.1216 H   0  0  0  0  0  0  0  0  0  0  0  0
   -1.0131    3.6457   -1.0272 H   0  0  0  0  0  0  0  0  0  0  0  0
   -0.1584    1.9000   -2.3163 H   0  0  0  0  0  0  0  0  0  0  0  0
    1.1872    2.9866   -2.1401 H   0  0  0  0  0  0  0  0  0  0  0  0
    0.5390    3.1182    1.9811 H   0  0  0  0  0  0  0  0  0  0  0  0
    3.2691    2.0574   -1.5027 H   0  0  0  0  0  0  0  0  0  0  0  0
   -3.2284    1.6132    1.4340 H   0  0  0  0  0  0  0  0  0  0  0  0
   -0.6549   -1.6391   -1.7236 H   0  0  0  0  0  0  0  0  0  0  0  0
   -1.4039    2.3779    3.2690 H   0  0  0  0  0  0  0  0  0  0  0  0
   -0.8816    0.7024    2.9201 H   0  0  0  0  0  0  0  0  0  0  0  0
    0.1536    1.7782    3.8269 H   0  0  0  0  0  0  0  0  0  0  0  0
   -2.8643   -1.8132   -2.3454 H   0  0  0  0  0  0  0  0  0  0  0  0
   -0.3716   -1.5576    2.1877 H   0  0  0  0  0  0  0  0  0  0  0  0
    1.3740   -1.4999    2.5882 H   0  0  0  0  0  0  0  0  0  0  0  0
    0.5424   -3.0603    2.4149 H   0  0  0  0  0  0  0  0  0  0  0  0
    5.5286   -1.4899    1.2149 H   0  0  0  0  0  0  0  0  0  0  0  0
    4.1963   -0.7649    2.1797 H   0  0  0  0  0  0  0  0  0  0  0  0
    4.5554   -2.4968    2.2967 H   0  0  0  0  0  0  0  0  0  0  0  0
    5.2645   -1.3993   -1.8485 H   0  0  0  0  0  0  0  0  0  0  0  0
    5.1835    0.2045   -2.6487 H   0  0  0  0  0  0  0  0  0  0  0  0
    6.5827   -0.2257   -1.6403 H   0  0  0  0  0  0  0  0  0  0  0  0
   -6.7044   -0.9399   -1.9666 H   0  0  0  0  0  0  0  0  0  0  0  0
   -5.8631    0.3818   -1.1435 H   0  0  0  0  0  0  0  0  0  0  0  0
   -5.2056   -0.3090   -2.6648 H   0  0  0  0  0  0  0  0  0  0  0  0
  1 14  1  0  0  0  0
  1 24  1  0  0  0  0
  2 18  1  0  0  0  0
  2 25  1  0  0  0  0
  3 19  1  0  0  0  0
  3 26  1  0  0  0  0
  4 23  1  0  0  0  0
  4 27  1  0  0  0  0
  5 21  2  0  0  0  0
  6  7  1  0  0  0  0
  6 20  1  0  0  0  0
  6 33  1  0  0  0  0
  7  8  1  0  0  0  0
  7 10  1  0  0  0  0
  7 28  1  0  0  0  0
  8  9  1  0  0  0  0
  8 29  1  0  0  0  0
  8 30  1  0  0  0  0
  9 11  1  0  0  0  0
  9 31  1  0  0  0  0
  9 32  1  0  0  0  0
 10 13  1  0  0  0  0
 10 16  2  0  0  0  0
 11 12  1  0  0  0  0
 11 15  2  0  0  0  0
 12 13  1  0  0  0  0
 12 14  2  0  0  0  0
 13 17  2  0  0  0  0
 14 18  1  0  0  0  0
 15 19  1  0  0  0  0
 15 34  1  0  0  0  0
 16 21  1  0  0  0  0
 16 35  1  0  0  0  0
 17 22  1  0  0  0  0
 17 36  1  0  0  0  0
 18 19  2  0  0  0  0
 20 37  1  0  0  0  0
 20 38  1  0  0  0  0
 20 39  1  0  0  0  0
 21 23  1  0  0  0  0
 22 23  2  0  0  0  0
 22 40  1  0  0  0  0
 24 41  1  0  0  0  0
 24 42  1  0  0  0  0
 24 43  1  0  0  0  0
 25 44  1  0  0  0  0
 25 45  1  0  0  0  0
 25 46  1  0  0  0  0
 26 47  1  0  0  0  0
 26 48  1  0  0  0  0
 26 49  1  0  0  0  0
 27 50  1  0  0  0  0
 27 51  1  0  0  0  0
 27 52  1  0  0  0  0
M  END
> <PUBCHEM_COMPOUND_CID>
2832

> <PUBCHEM_CONFORMER_RMSD>
0.8

> <PUBCHEM_CONFORMER_DIVERSEORDER>
1
9
21
14
16
11
19
8
13
12
10
3
22
2
15
17
20
5
4
6
18
7

> <PUBCHEM_MMFF94_PARTIAL_CHARGES>
31
1 -0.36
10 -0.14
11 -0.14
12 0.03
13 -0.03
14 0.08
15 -0.15
16 -0.14
17 -0.15
18 0.08
19 0.08
2 -0.36
20 0.27
21 0.54
22 -0.15
23 0.09
24 0.28
25 0.28
26 0.28
27 0.28
3 -0.36
33 0.36
34 0.15
35 0.15
36 0.15
4 -0.36
40 0.15
5 -0.57
6 -0.9
7 0.41
9 0.14

> <PUBCHEM_EFFECTIVE_ROTOR_COUNT>
5.6

> <PUBCHEM_PHARMACOPHORE_FEATURES>
10
1 1 acceptor
1 2 acceptor
1 3 acceptor
1 4 acceptor
1 5 acceptor
1 6 cation
1 6 donor
6 11 12 14 15 18 19 rings
7 10 13 16 17 21 22 23 rings
7 7 8 9 10 11 12 13 rings

> <PUBCHEM_HEAVY_ATOM_COUNT>
27

> <PUBCHEM_ATOM_DEF_STEREO_COUNT>
0

> <PUBCHEM_ATOM_UDEF_STEREO_COUNT>
1

> <PUBCHEM_BOND_DEF_STEREO_COUNT>
0

> <PUBCHEM_BOND_UDEF_STEREO_COUNT>
0

> <PUBCHEM_ISOTOPIC_ATOM_COUNT>
0

> <PUBCHEM_COMPONENT_COUNT>
1

> <PUBCHEM_CACTVS_TAUTO_COUNT>
1

> <PUBCHEM_CONFORMER_ID>
00000B1000000001

> <PUBCHEM_MMFF94_ENERGY>
134.3257

> <PUBCHEM_FEATURE_SELFOVERLAP>
50.775

> <PUBCHEM_SHAPE_FINGERPRINT>
11578080 2 18192179103140092729
12166972 35 18114750326681473485
12236239 1 18335415759759673439
12553582 1 18409728456446606710
12633257 1 4967611728301247647
12788726 201 18335135418897149026
13140716 1 17770508835493927508
13782708 43 15936403468382445014
13911987 19 17417231175043347990
13965767 371 17469283356461129825
14251757 17 17132111321106659155
14294032 229 17532357847160730433
14347332 77 18189046676628186318
14787075 74 18115584838458327632
14955137 171 17896298269542457835
15375462 189 18335411340507487345
16945 1 18341048493436103716
17349148 13 18272081717305642378
17492 54 18060415794488390718
17980427 23 15719402698648070265
1813 80 18410006637389065140
18222031 100 17530973453607408343
200 152 18343024397825869023
20600515 1 16732975380467601361
20691752 17 18339932497734648689
21033648 29 14851606592079258971
22112679 90 18113897143880469061
23402539 116 17531239578239244709
23419403 2 17826269308517269701
23557571 272 17385713725213417972
23559900 14 17631742561081167159
312423 11 17986948738671895422
3411729 13 17170130135335344425
34934 24 18198616825561956929
392239 28 17967819336244430904
404807 14 14040733384055322808
5895379 119 15648430309601628729
9981440 41 16819407748698343792

> <PUBCHEM_SHAPE_MULTIPOLES>
521.32
9.47
2.66
2.11
0.86
1.26
-1.14
-5.41
3.64
-0.38
-0.64
0.27
0.32
-1.75

> <PUBCHEM_SHAPE_SELFOVERLAP>
1114.832

> <PUBCHEM_SHAPE_VOLUME>
286.6

> <PUBCHEM_COORDINATE_TYPE>
2
5
10

$$$$

