11991
  -OEChem-06261206223D

 24 23  0     1  0  0  0  0  0999 V2000
    1.2278    1.5525    0.2168 O   0  0  0  0  0  0  0  0  0  0  0  0
   -0.8152    0.4574   -0.4955 C   0  0  1  0  0  0  0  0  0  0  0  0
    0.5578    0.2886    0.2010 C   0  0  1  0  0  0  0  0  0  0  0  0
   -1.6358   -0.8428   -0.6036 C   0  0  0  0  0  0  0  0  0  0  0  0
    1.4877   -0.7403   -0.4553 C   0  0  0  0  0  0  0  0  0  0  0  0
   -1.6735    1.5469    0.1635 C   0  0  0  0  0  0  0  0  0  0  0  0
   -1.9962   -1.4573    0.7410 C   0  0  0  0  0  0  0  0  0  0  0  0
    2.8473   -0.8049    0.2320 C   0  0  0  0  0  0  0  0  0  0  0  0
   -0.6242    0.8018   -1.5217 H   0  0  0  0  0  0  0  0  0  0  0  0
    0.4051    0.0148    1.2509 H   0  0  0  0  0  0  0  0  0  0  0  0
   -1.0893   -1.5810   -1.2011 H   0  0  0  0  0  0  0  0  0  0  0  0
   -2.5625   -0.6408   -1.1556 H   0  0  0  0  0  0  0  0  0  0  0  0
    1.6474   -0.4790   -1.5082 H   0  0  0  0  0  0  0  0  0  0  0  0
    1.0353   -1.7367   -0.4257 H   0  0  0  0  0  0  0  0  0  0  0  0
   -1.1994    2.5286    0.0566 H   0  0  0  0  0  0  0  0  0  0  0  0
   -1.8093    1.3643    1.2340 H   0  0  0  0  0  0  0  0  0  0  0  0
   -2.6613    1.6112   -0.3050 H   0  0  0  0  0  0  0  0  0  0  0  0
   -1.1058   -1.7295    1.3146 H   0  0  0  0  0  0  0  0  0  0  0  0
   -2.5748   -2.3737    0.5831 H   0  0  0  0  0  0  0  0  0  0  0  0
   -2.6109   -0.7857    1.3465 H   0  0  0  0  0  0  0  0  0  0  0  0
    3.4628   -1.5849   -0.2278 H   0  0  0  0  0  0  0  0  0  0  0  0
    2.7378   -1.0426    1.2949 H   0  0  0  0  0  0  0  0  0  0  0  0
    3.3892    0.1417    0.1428 H   0  0  0  0  0  0  0  0  0  0  0  0
    1.3768    1.8201   -0.7062 H   0  0  0  0  0  0  0  0  0  0  0  0
  1  3  1  0  0  0  0
  1 24  1  0  0  0  0
  2  3  1  0  0  0  0
  2  4  1  0  0  0  0
  2  6  1  0  0  0  0
  2  9  1  0  0  0  0
  3  5  1  0  0  0  0
  3 10  1  0  0  0  0
  4  7  1  0  0  0  0
  4 11  1  0  0  0  0
  4 12  1  0  0  0  0
  5  8  1  0  0  0  0
  5 13  1  0  0  0  0
  5 14  1  0  0  0  0
  6 15  1  0  0  0  0
  6 16  1  0  0  0  0
  6 17  1  0  0  0  0
  7 18  1  0  0  0  0
  7 19  1  0  0  0  0
  7 20  1  0  0  0  0
  8 21  1  0  0  0  0
  8 22  1  0  0  0  0
  8 23  1  0  0  0  0
M  END
> <PUBCHEM_COMPOUND_CID>
11991

> <PUBCHEM_CONFORMER_RMSD>
0.6

> <PUBCHEM_CONFORMER_DIVERSEORDER>
21
32
13
16
33
4
19
15
11
37
25
20
17
29
26
35
3
14
34
10
6
12
18
30
24
23
28
8
27
5
9
7
36
22
1
31
2

> <PUBCHEM_MMFF94_PARTIAL_CHARGES>
3
1 -0.68
24 0.4
3 0.28

> <PUBCHEM_EFFECTIVE_ROTOR_COUNT>
3

> <PUBCHEM_PHARMACOPHORE_FEATURES>
5
1 1 acceptor
1 1 donor
1 6 hydrophobe
1 7 hydrophobe
1 8 hydrophobe

> <PUBCHEM_HEAVY_ATOM_COUNT>
8

> <PUBCHEM_ATOM_DEF_STEREO_COUNT>
0

> <PUBCHEM_ATOM_UDEF_STEREO_COUNT>
2

> <PUBCHEM_BOND_DEF_STEREO_COUNT>
0

> <PUBCHEM_BOND_UDEF_STEREO_COUNT>
0

> <PUBCHEM_ISOTOPIC_ATOM_COUNT>
0

> <PUBCHEM_COMPONENT_COUNT>
1

> <PUBCHEM_CACTVS_TAUTO_COUNT>
1

> <PUBCHEM_CONFORMER_ID>
00002ED700000015

> <PUBCHEM_MMFF94_ENERGY>
8.1544

> <PUBCHEM_FEATURE_SELFOVERLAP>
25.372

> <PUBCHEM_SHAPE_FINGERPRINT>
10857977 72 18335436668130066066
20711978 1 18411142389808323007
21040471 1 18049438446142168101
22082395 3 18051129499489368880
23552423 10 18201436930762488860
24536 1 18339096911841644421
29004967 10 18053099519499651667
5084963 1 17418095394929152862

> <PUBCHEM_SHAPE_MULTIPOLES>
158.77
3.44
1.69
0.8
1.81
0.28
-0.01
-1.02
0.34
-0.7
0.25
-0.17
-0.15
0.17

> <PUBCHEM_SHAPE_SELFOVERLAP>
280.845

> <PUBCHEM_SHAPE_VOLUME>
104.9

> <PUBCHEM_COORDINATE_TYPE>
2
5
10

$$$$

