4100
  -OEChem-07051212543D

 22 22  0     0  0  0  0  0  0999 V2000
   -2.7934    0.6293   -0.1077 S   0  0  0  0  0  0  0  0  0  0  0  0
    0.2471    0.9296   -0.0311 S   0  0  0  0  0  0  0  0  0  0  0  0
   -2.6352    1.9394   -0.7114 O   0  0  0  0  0  0  0  0  0  0  0  0
   -3.6322   -0.3921   -0.7075 O   0  0  0  0  0  0  0  0  0  0  0  0
    3.3301    1.3624    1.1114 O   0  0  0  0  0  0  0  0  0  0  0  0
    0.2728   -1.6285   -0.0108 N   0  0  0  0  0  0  0  0  0  0  0  0
   -1.0670   -1.3405   -0.0426 N   0  0  0  0  0  0  0  0  0  0  0  0
   -3.2028    0.8052    1.5400 N   0  0  0  0  0  0  0  0  0  0  0  0
    2.4442   -0.5434    0.0950 N   0  0  0  0  0  0  0  0  0  0  0  0
   -1.2012   -0.0519   -0.0603 C   0  0  0  0  0  0  0  0  0  0  0  0
    1.1590   -0.5752    0.0277 C   0  0  0  0  0  0  0  0  0  0  0  0
    0.6467   -3.0240    0.0445 C   0  0  0  0  0  0  0  0  0  0  0  0
    3.0531    0.6935    0.1174 C   0  0  0  0  0  0  0  0  0  0  0  0
    3.3789    1.1962   -1.2646 C   0  0  0  0  0  0  0  0  0  0  0  0
    0.8708   -3.3130    1.0760 H   0  0  0  0  0  0  0  0  0  0  0  0
    1.5330   -3.2127   -0.5699 H   0  0  0  0  0  0  0  0  0  0  0  0
   -0.1580   -3.6677   -0.3266 H   0  0  0  0  0  0  0  0  0  0  0  0
   -3.9000    1.5240    1.7722 H   0  0  0  0  0  0  0  0  0  0  0  0
   -3.3305   -0.0578    2.0838 H   0  0  0  0  0  0  0  0  0  0  0  0
    2.7935    0.6828   -2.0325 H   0  0  0  0  0  0  0  0  0  0  0  0
    3.1603    2.2662   -1.3222 H   0  0  0  0  0  0  0  0  0  0  0  0
    4.4414    1.0293   -1.4606 H   0  0  0  0  0  0  0  0  0  0  0  0
  1  3  2  0  0  0  0
  1  4  2  0  0  0  0
  1  8  1  0  0  0  0
  1 10  1  0  0  0  0
  2 10  1  0  0  0  0
  2 11  1  0  0  0  0
  5 13  2  0  0  0  0
  6  7  1  0  0  0  0
  6 11  1  0  0  0  0
  6 12  1  0  0  0  0
  7 10  2  0  0  0  0
  8 18  1  0  0  0  0
  8 19  1  0  0  0  0
  9 11  2  0  0  0  0
  9 13  1  0  0  0  0
 12 15  1  0  0  0  0
 12 16  1  0  0  0  0
 12 17  1  0  0  0  0
 13 14  1  0  0  0  0
 14 20  1  0  0  0  0
 14 21  1  0  0  0  0
 14 22  1  0  0  0  0
M  END
> <PUBCHEM_COMPOUND_CID>
4100

> <PUBCHEM_CONFORMER_RMSD>
0.6

> <PUBCHEM_CONFORMER_DIVERSEORDER>
1
6
3
4
5
2

> <PUBCHEM_MMFF94_PARTIAL_CHARGES>
16
1 1.41
10 0.61
11 0.64
12 0.37
13 0.72
14 0.06
18 0.42
19 0.42
2 -0.28
3 -0.65
4 -0.65
5 -0.57
6 -0.38
7 -0.49
8 -0.98
9 -0.66

> <PUBCHEM_EFFECTIVE_ROTOR_COUNT>
2

> <PUBCHEM_PHARMACOPHORE_FEATURES>
7
1 3 acceptor
1 4 acceptor
1 5 acceptor
1 7 acceptor
1 8 donor
1 9 donor
5 2 6 7 10 11 rings

> <PUBCHEM_HEAVY_ATOM_COUNT>
14

> <PUBCHEM_ATOM_DEF_STEREO_COUNT>
0

> <PUBCHEM_ATOM_UDEF_STEREO_COUNT>
0

> <PUBCHEM_BOND_DEF_STEREO_COUNT>
0

> <PUBCHEM_BOND_UDEF_STEREO_COUNT>
0

> <PUBCHEM_ISOTOPIC_ATOM_COUNT>
0

> <PUBCHEM_COMPONENT_COUNT>
1

> <PUBCHEM_CACTVS_TAUTO_COUNT>
1

> <PUBCHEM_CONFORMER_ID>
0000100400000001

> <PUBCHEM_MMFF94_ENERGY>
28.1822

> <PUBCHEM_FEATURE_SELFOVERLAP>
35.54

> <PUBCHEM_SHAPE_FINGERPRINT>
10980938 120 18411983602023776706
11132069 177 18342463620751398389
11543360 7 15647343987180250996
12932764 1 18265888245425751055
13380535 21 18337378405179687886
13380535 76 18341899579834371659
13705890 14 14923943440415970476
14325111 11 18410859879691824405
14648413 74 17838056262255644693
15309172 13 18412538791108528729
15775835 57 18334292089299735053
16945 1 18201715141553491965
1741750 31 18264485092700765080
18186145 218 18113896074286159480
19107657 9 18337098025530401000
201361 129 18115857680297026753
20510252 161 18118402834851094162
20645476 183 18130218247423295046
20645477 56 18266454318131918604
20671657 1 18261674882434963678
21028194 46 18411420626453519418
21499 59 18412548695245123719
21524375 3 18409452470649330550
23557571 272 17684369452061711548
25 1 18187074079394256688
2748010 2 18411125923062413926
305870 269 18341621455132352146
3071541 236 18198634224242377682
458136 41 18266999799830789978
633830 44 17967243208841188812
7364860 26 18119534481582680934
81228 2 17905608796267071578
81539 233 18273220828189145623

> <PUBCHEM_SHAPE_MULTIPOLES>
258.28
6.07
2.27
0.98
0.43
1.81
0.13
-3.41
-0.05
-0.41
-0.13
0
-0.4
-0.13

> <PUBCHEM_SHAPE_SELFOVERLAP>
501.221

> <PUBCHEM_SHAPE_VOLUME>
158.3

> <PUBCHEM_COORDINATE_TYPE>
2
5
10

$$$$

