6464
  -OEChem-07051212543D

 29 29  0     0  0  0  0  0  0999 V2000
   -0.6839   -1.4419    1.6648 O   0  0  0  0  0  0  0  0  0  0  0  0
    0.0842    1.0608   -2.2335 O   0  0  0  0  0  0  0  0  0  0  0  0
    3.5807   -0.7628    0.1131 O   0  0  0  0  0  0  0  0  0  0  0  0
    1.4517   -1.0184    0.9421 N   0  0  0  0  0  0  0  0  0  0  0  0
    1.8355    0.2323   -1.0048 N   0  0  0  0  0  0  0  0  0  0  0  0
   -0.3885    0.3220    0.0272 C   0  0  0  0  0  0  0  0  0  0  0  0
   -0.3609    1.6144    0.8627 C   0  0  0  0  0  0  0  0  0  0  0  0
   -1.8272    0.0461   -0.4334 C   0  0  0  0  0  0  0  0  0  0  0  0
    0.0808   -0.8084    0.9377 C   0  0  0  0  0  0  0  0  0  0  0  0
    0.5001    0.5578   -1.1900 C   0  0  0  0  0  0  0  0  0  0  0  0
   -0.7856    2.8038    0.0096 C   0  0  0  0  0  0  0  0  0  0  0  0
   -1.2603    1.4727    2.0848 C   0  0  0  0  0  0  0  0  0  0  0  0
   -1.9187   -1.2751   -1.1217 C   0  0  0  0  0  0  0  0  0  0  0  0
    2.3756   -0.5187    0.0322 C   0  0  0  0  0  0  0  0  0  0  0  0
   -2.6834   -2.2846   -0.6910 C   0  0  0  0  0  0  0  0  0  0  0  0
    0.6592    1.8087    1.2216 H   0  0  0  0  0  0  0  0  0  0  0  0
   -2.1881    0.7930   -1.1491 H   0  0  0  0  0  0  0  0  0  0  0  0
   -2.5429    0.0407    0.3934 H   0  0  0  0  0  0  0  0  0  0  0  0
   -1.7937    2.7149   -0.4027 H   0  0  0  0  0  0  0  0  0  0  0  0
   -0.7977    3.7063    0.6342 H   0  0  0  0  0  0  0  0  0  0  0  0
   -0.0839    3.0248   -0.7987 H   0  0  0  0  0  0  0  0  0  0  0  0
   -2.3249    1.3986    1.8509 H   0  0  0  0  0  0  0  0  0  0  0  0
   -1.1657    2.3821    2.6933 H   0  0  0  0  0  0  0  0  0  0  0  0
   -0.9764    0.6572    2.7527 H   0  0  0  0  0  0  0  0  0  0  0  0
    1.8092   -1.6687    1.6364 H   0  0  0  0  0  0  0  0  0  0  0  0
    2.4759    0.5039   -1.7456 H   0  0  0  0  0  0  0  0  0  0  0  0
   -1.3505   -1.4179   -2.0371 H   0  0  0  0  0  0  0  0  0  0  0  0
   -2.7177   -3.2191   -1.2404 H   0  0  0  0  0  0  0  0  0  0  0  0
   -3.2839   -2.2026    0.2081 H   0  0  0  0  0  0  0  0  0  0  0  0
  1  9  2  0  0  0  0
  2 10  2  0  0  0  0
  3 14  2  0  0  0  0
  4  9  1  0  0  0  0
  4 14  1  0  0  0  0
  4 25  1  0  0  0  0
  5 10  1  0  0  0  0
  5 14  1  0  0  0  0
  5 26  1  0  0  0  0
  6  7  1  0  0  0  0
  6  8  1  0  0  0  0
  6  9  1  0  0  0  0
  6 10  1  0  0  0  0
  7 11  1  0  0  0  0
  7 12  1  0  0  0  0
  7 16  1  0  0  0  0
  8 13  1  0  0  0  0
  8 17  1  0  0  0  0
  8 18  1  0  0  0  0
 11 19  1  0  0  0  0
 11 20  1  0  0  0  0
 11 21  1  0  0  0  0
 12 22  1  0  0  0  0
 12 23  1  0  0  0  0
 12 24  1  0  0  0  0
 13 15  2  0  0  0  0
 13 27  1  0  0  0  0
 15 28  1  0  0  0  0
 15 29  1  0  0  0  0
M  END
> <PUBCHEM_COMPOUND_CID>
6464

> <PUBCHEM_CONFORMER_RMSD>
0.6

> <PUBCHEM_CONFORMER_DIVERSEORDER>
1
4
5
3
7
6
9
8
2

> <PUBCHEM_MMFF94_PARTIAL_CHARGES>
17
1 -0.57
10 0.57
13 -0.29
14 0.69
15 -0.3
2 -0.57
25 0.37
26 0.37
27 0.15
28 0.15
29 0.15
3 -0.57
4 -0.49
5 -0.49
6 0.12
8 0.14
9 0.57

> <PUBCHEM_EFFECTIVE_ROTOR_COUNT>
3.6

> <PUBCHEM_PHARMACOPHORE_FEATURES>
8
1 1 acceptor
1 15 hydrophobe
1 2 acceptor
1 3 acceptor
1 4 donor
1 5 donor
3 7 11 12 hydrophobe
6 4 5 6 9 10 14 rings

> <PUBCHEM_HEAVY_ATOM_COUNT>
15

> <PUBCHEM_ATOM_DEF_STEREO_COUNT>
0

> <PUBCHEM_ATOM_UDEF_STEREO_COUNT>
0

> <PUBCHEM_BOND_DEF_STEREO_COUNT>
0

> <PUBCHEM_BOND_UDEF_STEREO_COUNT>
0

> <PUBCHEM_ISOTOPIC_ATOM_COUNT>
0

> <PUBCHEM_COMPONENT_COUNT>
1

> <PUBCHEM_CACTVS_TAUTO_COUNT>
5

> <PUBCHEM_CONFORMER_ID>
0000194000000001

> <PUBCHEM_MMFF94_ENERGY>
46.82

> <PUBCHEM_FEATURE_SELFOVERLAP>
40.636

> <PUBCHEM_SHAPE_FINGERPRINT>
1 1 10806844196012085673
10702982 57 17905050604941838964
12326174 3 17249192619264042933
12423570 1 15980017559671535829
13024252 1 15410321295081181860
137420 1 6866462128627351193
14128692 85 18270972232294462727
14617773 55 18340475716829494124
14817 1 15432526954611687587
15906896 17 18196633289252177113
16945 1 18265915694282106357
18534176 82 17386292128570017816
22112679 90 18190998180337863169
23419403 2 17763227632469928916
528886 8 17274838981416663207
81228 2 18040991886380382865

> <PUBCHEM_SHAPE_MULTIPOLES>
281.12
3.23
2.39
1.75
1.61
1.25
-0.05
-2.58
-0.2
-1.48
0.28
-0.14
0.32
-0.54

> <PUBCHEM_SHAPE_SELFOVERLAP>
580.881

> <PUBCHEM_SHAPE_VOLUME>
158.8

> <PUBCHEM_COORDINATE_TYPE>
2
5
10

$$$$

