17395643
  -OEChem-06241222512D

 53 56  0     1  0  0  0  0  0999 V2000
    8.4268   -1.6012    0.0000 S   0  0  0  0  0  0  0  0  0  0  0  0
    7.4562    2.8933    0.0000 S   0  0  0  0  0  0  0  0  0  0  0  0
    8.9268   -2.4672    0.0000 O   0  0  0  0  0  0  0  0  0  0  0  0
    7.9268   -0.7352    0.0000 O   0  0  0  0  0  0  0  0  0  0  0  0
    7.5608   -0.1012    0.0000 O   0  0  0  0  0  0  0  0  0  0  0  0
    9.2928   -1.1012    0.0000 N   0  0  3  0  0  0  0  0  0  0  0  0
    8.4268    1.3988    0.0000 N   0  0  0  0  0  0  0  0  0  0  0  0
    6.6472    1.4921    0.0000 N   0  0  0  0  0  0  0  0  0  0  0  0
    9.2928   -0.1012    0.0000 C   0  0  3  0  0  0  0  0  0  0  0  0
   10.1588    0.3988    0.0000 C   0  0  0  0  0  0  0  0  0  0  0  0
   10.1588   -1.6012    0.0000 C   0  0  0  0  0  0  0  0  0  0  0  0
   11.0249   -0.1012    0.0000 C   0  0  0  0  0  0  0  0  0  0  0  0
   11.0249   -1.1012    0.0000 C   0  0  0  0  0  0  0  0  0  0  0  0
    8.4268    0.3988    0.0000 C   0  0  0  0  0  0  0  0  0  0  0  0
    7.5608   -2.1012    0.0000 C   0  0  0  0  0  0  0  0  0  0  0  0
   11.9188    0.4334    0.0000 C   0  0  0  0  0  0  0  0  0  0  0  0
   11.9188   -1.6359    0.0000 C   0  0  0  0  0  0  0  0  0  0  0  0
   12.8249   -0.0804    0.0000 C   0  0  0  0  0  0  0  0  0  0  0  0
   12.8249   -1.1220    0.0000 C   0  0  0  0  0  0  0  0  0  0  0  0
    7.5608   -3.1012    0.0000 C   0  0  0  0  0  0  0  0  0  0  0  0
    7.5608    1.8988    0.0000 C   0  0  0  0  0  0  0  0  0  0  0  0
    5.9781    2.2352    0.0000 C   0  0  0  0  0  0  0  0  0  0  0  0
    6.4781    3.1012    0.0000 C   0  0  0  0  0  0  0  0  0  0  0  0
    4.9836    2.1307    0.0000 C   0  0  0  0  0  0  0  0  0  0  0  0
    4.3958    2.9397    0.0000 C   0  0  0  0  0  0  0  0  0  0  0  0
    4.5768    1.2171    0.0000 C   0  0  0  0  0  0  0  0  0  0  0  0
    2.9945    1.9216    0.0000 C   0  0  0  0  0  0  0  0  0  0  0  0
    3.4013    2.8352    0.0000 C   0  0  0  0  0  0  0  0  0  0  0  0
    3.5823    1.1126    0.0000 C   0  0  0  0  0  0  0  0  0  0  0  0
    2.0000    1.8171    0.0000 C   0  0  0  0  0  0  0  0  0  0  0  0
    8.7559   -0.4112    0.0000 H   0  0  0  0  0  0  0  0  0  0  0  0
   10.5574    0.8737    0.0000 H   0  0  0  0  0  0  0  0  0  0  0  0
    9.7603    0.8737    0.0000 H   0  0  0  0  0  0  0  0  0  0  0  0
    9.7603   -2.0762    0.0000 H   0  0  0  0  0  0  0  0  0  0  0  0
   10.5574   -2.0762    0.0000 H   0  0  0  0  0  0  0  0  0  0  0  0
    7.3487   -1.5186    0.0000 H   0  0  0  0  0  0  0  0  0  0  0  0
    6.9502   -2.2089    0.0000 H   0  0  0  0  0  0  0  0  0  0  0  0
   11.9116    1.0534    0.0000 H   0  0  0  0  0  0  0  0  0  0  0  0
   11.9116   -2.2558    0.0000 H   0  0  0  0  0  0  0  0  0  0  0  0
   13.3606    0.2317    0.0000 H   0  0  0  0  0  0  0  0  0  0  0  0
   13.3606   -1.4341    0.0000 H   0  0  0  0  0  0  0  0  0  0  0  0
    8.9637    1.7088    0.0000 H   0  0  0  0  0  0  0  0  0  0  0  0
    6.9408   -3.1012    0.0000 H   0  0  0  0  0  0  0  0  0  0  0  0
    7.5608   -3.7212    0.0000 H   0  0  0  0  0  0  0  0  0  0  0  0
    8.1808   -3.1012    0.0000 H   0  0  0  0  0  0  0  0  0  0  0  0
    6.2259    3.6676    0.0000 H   0  0  0  0  0  0  0  0  0  0  0  0
    4.6480    3.5061    0.0000 H   0  0  0  0  0  0  0  0  0  0  0  0
    4.9413    0.7155    0.0000 H   0  0  0  0  0  0  0  0  0  0  0  0
    3.0368    3.3367    0.0000 H   0  0  0  0  0  0  0  0  0  0  0  0
    3.3301    0.5462    0.0000 H   0  0  0  0  0  0  0  0  0  0  0  0
    1.9352    2.4337    0.0000 H   0  0  0  0  0  0  0  0  0  0  0  0
    1.3834    1.7523    0.0000 H   0  0  0  0  0  0  0  0  0  0  0  0
    2.0648    1.2005    0.0000 H   0  0  0  0  0  0  0  0  0  0  0  0
  1  3  2  0  0  0  0
  1  4  2  0  0  0  0
  1  6  1  0  0  0  0
  1 15  1  0  0  0  0
  2 21  1  0  0  0  0
  2 23  1  0  0  0  0
  5 14  2  0  0  0  0
  6  9  1  0  0  0  0
  6 11  1  0  0  0  0
  7 14  1  0  0  0  0
  7 21  1  0  0  0  0
  7 42  1  0  0  0  0
  8 21  2  0  0  0  0
  8 22  1  0  0  0  0
  9 10  1  0  0  0  0
  9 14  1  0  0  0  0
  9 31  1  0  0  0  0
 10 12  1  0  0  0  0
 10 32  1  0  0  0  0
 10 33  1  0  0  0  0
 11 13  1  0  0  0  0
 11 34  1  0  0  0  0
 11 35  1  0  0  0  0
 12 13  1  0  0  0  0
 12 16  2  0  0  0  0
 13 17  2  0  0  0  0
 15 20  1  0  0  0  0
 15 36  1  0  0  0  0
 15 37  1  0  0  0  0
 16 18  1  0  0  0  0
 16 38  1  0  0  0  0
 17 19  1  0  0  0  0
 17 39  1  0  0  0  0
 18 19  2  0  0  0  0
 18 40  1  0  0  0  0
 19 41  1  0  0  0  0
 20 43  1  0  0  0  0
 20 44  1  0  0  0  0
 20 45  1  0  0  0  0
 22 23  2  0  0  0  0
 22 24  1  0  0  0  0
 23 46  1  0  0  0  0
 24 25  2  0  0  0  0
 24 26  1  0  0  0  0
 25 28  1  0  0  0  0
 25 47  1  0  0  0  0
 26 29  2  0  0  0  0
 26 48  1  0  0  0  0
 27 28  2  0  0  0  0
 27 29  1  0  0  0  0
 27 30  1  0  0  0  0
 28 49  1  0  0  0  0
 29 50  1  0  0  0  0
 30 51  1  0  0  0  0
 30 52  1  0  0  0  0
 30 53  1  0  0  0  0
M  END
> <PUBCHEM_COMPOUND_CID>
17395643

> <PUBCHEM_COMPOUND_CANONICALIZED>
1

> <PUBCHEM_CACTVS_COMPLEXITY>
703

> <PUBCHEM_CACTVS_HBOND_ACCEPTOR>
6

> <PUBCHEM_CACTVS_HBOND_DONOR>
1

> <PUBCHEM_CACTVS_ROTATABLE_BOND>
5

> <PUBCHEM_CACTVS_SUBSKEYS>
AAADceB7MABgAAAAAAAAAAAAAAAAAWAAAAA8YIAAAAAAAACx0AAAHgQQQAAADCjF3gSzkZLIEAqsAyVydHDC8KlhCjkJiDW4JJiIYLKgmTGUIAhokQKIiCcYiMCOwAAAAAAQAACAAAAAACAAAAAAAAAAAA==

> <PUBCHEM_IUPAC_OPENEYE_NAME>
2-ethylsulfonyl-N-[4-(p-tolyl)thiazol-2-yl]-3,4-dihydro-1H-isoquinoline-3-carboxamide

> <PUBCHEM_IUPAC_CAS_NAME>
2-ethylsulfonyl-N-[4-(4-methylphenyl)-2-thiazolyl]-3,4-dihydro-1H-isoquinoline-3-carboxamide

> <PUBCHEM_IUPAC_NAME>
2-ethylsulfonyl-N-[4-(4-methylphenyl)-1,3-thiazol-2-yl]-3,4-dihydro-1H-isoquinoline-3-carboxamide

> <PUBCHEM_IUPAC_SYSTEMATIC_NAME>
2-ethylsulfonyl-N-[4-(4-methylphenyl)-1,3-thiazol-2-yl]-3,4-dihydro-1H-isoquinoline-3-carboxamide

> <PUBCHEM_IUPAC_TRADITIONAL_NAME>
2-esyl-N-[4-(p-tolyl)thiazol-2-yl]-3,4-dihydro-1H-isoquinoline-3-carboxamide

> <PUBCHEM_IUPAC_INCHI>
InChI=1S/C22H23N3O3S2/c1-3-30(27,28)25-13-18-7-5-4-6-17(18)12-20(25)21(26)24-22-23-19(14-29-22)16-10-8-15(2)9-11-16/h4-11,14,20H,3,12-13H2,1-2H3,(H,23,24,26)

> <PUBCHEM_IUPAC_INCHIKEY>
VFNLJTHEUIUEOZ-UHFFFAOYSA-N

> <PUBCHEM_XLOGP3_AA>
3.7

> <PUBCHEM_EXACT_MASS>
441.118084

> <PUBCHEM_MOLECULAR_FORMULA>
C22H23N3O3S2

> <PUBCHEM_MOLECULAR_WEIGHT>
441.56632

> <PUBCHEM_OPENEYE_CAN_SMILES>
CCS(=O)(=O)N1CC2=CC=CC=C2CC1C(=O)NC3=NC(=CS3)C4=CC=C(C=C4)C

> <PUBCHEM_OPENEYE_ISO_SMILES>
CCS(=O)(=O)N1CC2=CC=CC=C2CC1C(=O)NC3=NC(=CS3)C4=CC=C(C=C4)C

> <PUBCHEM_CACTVS_TPSA>
116

> <PUBCHEM_MONOISOTOPIC_WEIGHT>
441.118084

> <PUBCHEM_TOTAL_CHARGE>
0

> <PUBCHEM_HEAVY_ATOM_COUNT>
30

> <PUBCHEM_ATOM_DEF_STEREO_COUNT>
0

> <PUBCHEM_ATOM_UDEF_STEREO_COUNT>
1

> <PUBCHEM_BOND_DEF_STEREO_COUNT>
0

> <PUBCHEM_BOND_UDEF_STEREO_COUNT>
0

> <PUBCHEM_ISOTOPIC_ATOM_COUNT>
0

> <PUBCHEM_COMPONENT_COUNT>
1

> <PUBCHEM_CACTVS_TAUTO_COUNT>
5

> <PUBCHEM_COORDINATE_TYPE>
1
5
255

> <PUBCHEM_BONDANNOTATIONS>
12  13  8
12  16  8
13  17  8
16  18  8
17  19  8
18  19  8
2  21  8
2  23  8
22  23  8
24  25  8
24  26  8
25  28  8
26  29  8
27  28  8
27  29  8
8  21  8
8  22  8
9  14  3

$$$$

