5281449
  -OEChem-07051212573D

 57 58  0     1  0  0  0  0  0999 V2000
   -2.7077    1.4802    0.1487 O   0  0  0  0  0  0  0  0  0  0  0  0
    1.3395    1.1702    0.1121 O   0  0  0  0  0  0  0  0  0  0  0  0
   -1.4196   -1.4924   -1.6273 O   0  0  0  0  0  0  0  0  0  0  0  0
    2.4565   -2.3201   -0.3467 O   0  0  0  0  0  0  0  0  0  0  0  0
   -3.0365    3.7445   -0.0787 O   0  0  0  0  0  0  0  0  0  0  0  0
    3.4393    0.7290    0.9472 O   0  0  0  0  0  0  0  0  0  0  0  0
   -3.7265   -1.5523   -1.5207 O   0  0  0  0  0  0  0  0  0  0  0  0
   -0.7047    1.4568    1.4114 C   0  0  1  0  0  0  0  0  0  0  0  0
   -1.5842    0.6315    0.4641 C   0  0  1  0  0  0  0  0  0  0  0  0
    0.7862    1.0636    1.4174 C   0  0  1  0  0  0  0  0  0  0  0  0
   -1.0339    2.8306    0.9188 C   0  0  0  0  0  0  0  0  0  0  0  0
   -2.1177   -0.6227    1.1009 C   0  0  0  0  0  0  0  0  0  0  0  0
   -1.3366   -2.4307   -0.5580 C   0  0  1  0  0  0  0  0  0  0  0  0
    0.1145   -2.9171   -0.3991 C   0  0  0  0  0  0  0  0  0  0  0  0
    1.1519   -1.8551    0.0237 C   0  0  1  0  0  0  0  0  0  0  0  0
   -1.9936   -1.9069    0.7068 C   0  0  0  0  0  0  0  0  0  0  0  0
    1.0097   -0.2932    2.0442 C   0  0  0  0  0  0  0  0  0  0  0  0
    1.1801   -1.5191    1.5054 C   0  0  0  0  0  0  0  0  0  0  0  0
   -2.3599    2.7933    0.2678 C   0  0  0  0  0  0  0  0  0  0  0  0
   -2.5871   -2.9940    1.5738 C   0  0  0  0  0  0  0  0  0  0  0  0
    1.4383   -2.6773    2.4459 C   0  0  0  0  0  0  0  0  0  0  0  0
   -0.3240    3.9604    0.9755 C   0  0  0  0  0  0  0  0  0  0  0  0
    2.6882    0.9793    0.0154 C   0  0  0  0  0  0  0  0  0  0  0  0
   -2.6830   -1.1398   -2.0088 C   0  0  0  0  0  0  0  0  0  0  0  0
    3.1194    1.1279   -1.4079 C   0  0  0  0  0  0  0  0  0  0  0  0
   -2.6156   -0.1532   -3.1349 C   0  0  0  0  0  0  0  0  0  0  0  0
    2.3180    2.0245   -2.3044 C   0  0  0  0  0  0  0  0  0  0  0  0
    4.1937    0.4049   -1.7745 C   0  0  0  0  0  0  0  0  0  0  0  0
    4.9953   -0.5231   -0.9180 C   0  0  0  0  0  0  0  0  0  0  0  0
   -1.0935    1.3898    2.4386 H   0  0  0  0  0  0  0  0  0  0  0  0
   -1.0529    0.4456   -0.4698 H   0  0  0  0  0  0  0  0  0  0  0  0
    1.3169    1.7899    2.0494 H   0  0  0  0  0  0  0  0  0  0  0  0
   -2.6570   -0.4391    2.0311 H   0  0  0  0  0  0  0  0  0  0  0  0
   -1.9060   -3.3110   -0.8912 H   0  0  0  0  0  0  0  0  0  0  0  0
    0.1513   -3.7801    0.2758 H   0  0  0  0  0  0  0  0  0  0  0  0
    0.4296   -3.3121   -1.3757 H   0  0  0  0  0  0  0  0  0  0  0  0
    0.9628   -0.9757   -0.5894 H   0  0  0  0  0  0  0  0  0  0  0  0
    1.0303   -0.2311    3.1338 H   0  0  0  0  0  0  0  0  0  0  0  0
   -1.8184   -3.7183    1.8601 H   0  0  0  0  0  0  0  0  0  0  0  0
   -3.3767   -3.5226    1.0295 H   0  0  0  0  0  0  0  0  0  0  0  0
   -3.0279   -2.6030    2.4970 H   0  0  0  0  0  0  0  0  0  0  0  0
    0.5899   -3.3668    2.4562 H   0  0  0  0  0  0  0  0  0  0  0  0
    1.6025   -2.3497    3.4784 H   0  0  0  0  0  0  0  0  0  0  0  0
    2.3337   -3.2281    2.1407 H   0  0  0  0  0  0  0  0  0  0  0  0
    0.6521    3.9882    1.4467 H   0  0  0  0  0  0  0  0  0  0  0  0
   -0.6956    4.8899    0.5569 H   0  0  0  0  0  0  0  0  0  0  0  0
    2.4692   -2.4224   -1.3137 H   0  0  0  0  0  0  0  0  0  0  0  0
   -2.1535   -0.6204   -4.0080 H   0  0  0  0  0  0  0  0  0  0  0  0
   -2.0491    0.7289   -2.8263 H   0  0  0  0  0  0  0  0  0  0  0  0
   -3.6285    0.1626   -3.4008 H   0  0  0  0  0  0  0  0  0  0  0  0
    2.7935    2.1371   -3.2845 H   0  0  0  0  0  0  0  0  0  0  0  0
    1.3149    1.6166   -2.4660 H   0  0  0  0  0  0  0  0  0  0  0  0
    2.2259    3.0227   -1.8643 H   0  0  0  0  0  0  0  0  0  0  0  0
    4.5377    0.4940   -2.8033 H   0  0  0  0  0  0  0  0  0  0  0  0
    5.3594   -1.3462   -1.5439 H   0  0  0  0  0  0  0  0  0  0  0  0
    4.4627   -0.9941   -0.0946 H   0  0  0  0  0  0  0  0  0  0  0  0
    5.8735   -0.0018   -0.5242 H   0  0  0  0  0  0  0  0  0  0  0  0
  1  9  1  0  0  0  0
  1 19  1  0  0  0  0
  2 10  1  0  0  0  0
  2 23  1  0  0  0  0
  3 13  1  0  0  0  0
  3 24  1  0  0  0  0
  4 15  1  0  0  0  0
  4 47  1  0  0  0  0
  5 19  2  0  0  0  0
  6 23  2  0  0  0  0
  7 24  2  0  0  0  0
  8  9  1  0  0  0  0
  8 10  1  0  0  0  0
  8 11  1  0  0  0  0
  8 30  1  0  0  0  0
  9 12  1  0  0  0  0
  9 31  1  0  0  0  0
 10 17  1  0  0  0  0
 10 32  1  0  0  0  0
 11 19  1  0  0  0  0
 11 22  2  0  0  0  0
 12 16  2  0  0  0  0
 12 33  1  0  0  0  0
 13 14  1  0  0  0  0
 13 16  1  0  0  0  0
 13 34  1  0  0  0  0
 14 15  1  0  0  0  0
 14 35  1  0  0  0  0
 14 36  1  0  0  0  0
 15 18  1  0  0  0  0
 15 37  1  0  0  0  0
 16 20  1  0  0  0  0
 17 18  2  0  0  0  0
 17 38  1  0  0  0  0
 18 21  1  0  0  0  0
 20 39  1  0  0  0  0
 20 40  1  0  0  0  0
 20 41  1  0  0  0  0
 21 42  1  0  0  0  0
 21 43  1  0  0  0  0
 21 44  1  0  0  0  0
 22 45  1  0  0  0  0
 22 46  1  0  0  0  0
 23 25  1  0  0  0  0
 24 26  1  0  0  0  0
 25 27  1  0  0  0  0
 25 28  2  0  0  0  0
 26 48  1  0  0  0  0
 26 49  1  0  0  0  0
 26 50  1  0  0  0  0
 27 51  1  0  0  0  0
 27 52  1  0  0  0  0
 27 53  1  0  0  0  0
 28 29  1  0  0  0  0
 28 54  1  0  0  0  0
 29 55  1  0  0  0  0
 29 56  1  0  0  0  0
 29 57  1  0  0  0  0
M  END
> <PUBCHEM_COMPOUND_CID>
5281449

> <PUBCHEM_CONFORMER_RMSD>
0.8

> <PUBCHEM_CONFORMER_DIVERSEORDER>
2
7
6
1
3
4
5

> <PUBCHEM_MMFF94_PARTIAL_CHARGES>
34
1 -0.43
10 0.42
11 -0.12
12 -0.29
13 0.42
15 0.42
16 -0.28
17 -0.29
18 -0.28
19 0.71
2 -0.43
20 0.14
21 0.14
22 -0.3
23 0.71
24 0.66
25 -0.12
26 0.06
27 0.14
28 -0.29
29 0.14
3 -0.43
33 0.15
38 0.15
4 -0.68
45 0.15
46 0.15
47 0.4
5 -0.57
54 0.15
6 -0.57
7 -0.57
8 0.14
9 0.42

> <PUBCHEM_EFFECTIVE_ROTOR_COUNT>
6

> <PUBCHEM_PHARMACOPHORE_FEATURES>
8
1 27 hydrophobe
1 29 hydrophobe
1 4 acceptor
1 4 donor
1 5 acceptor
1 6 acceptor
1 7 acceptor
5 1 8 9 11 19 rings

> <PUBCHEM_HEAVY_ATOM_COUNT>
29

> <PUBCHEM_ATOM_DEF_STEREO_COUNT>
5

> <PUBCHEM_ATOM_UDEF_STEREO_COUNT>
0

> <PUBCHEM_BOND_DEF_STEREO_COUNT>
3

> <PUBCHEM_BOND_UDEF_STEREO_COUNT>
0

> <PUBCHEM_ISOTOPIC_ATOM_COUNT>
0

> <PUBCHEM_COMPONENT_COUNT>
1

> <PUBCHEM_CACTVS_TAUTO_COUNT>
1

> <PUBCHEM_CONFORMER_ID>
005096A900000002

> <PUBCHEM_MMFF94_ENERGY>
69.1123

> <PUBCHEM_FEATURE_SELFOVERLAP>
40.594

> <PUBCHEM_SHAPE_FINGERPRINT>
12035759 4 18340780307293896166
12156800 1 17461753823476456052
12553582 1 17973430015063302924
12788726 201 18337679706352788297
13140716 1 18123196697443878449
13149001 5 17618782453445245976
14251751 93 18339624733637197508
16752209 62 18408046203666457338
16945 1 18118963594503154138
17492 54 17476610536450278790
18981168 100 14116951495004216399
19930381 70 17471838222020077254
20645476 183 18198894988918422489
20691752 17 18042968679259276866
20775438 99 16815212085520770839
22889148 1 17749384901419417005
22907989 373 18270951341478583132
23419403 2 16116521851029708467
238 59 16389354688116235071
2748010 2 17618524090025249945
2818148 4 18114175354756400967
35225 105 18050809361027461693
513532 50 17101196267043429231
5262128 65 17393329814652207215
5845 1 7450917009343638235
7226269 152 18053117133677822400

> <PUBCHEM_SHAPE_MULTIPOLES>
555.72
6.13
4.43
2.54
5.05
2.2
-1.17
-0.21
-3.59
-2.61
1.55
-0.48
-0.51
-1.01

> <PUBCHEM_SHAPE_SELFOVERLAP>
1153.509

> <PUBCHEM_SHAPE_VOLUME>
314.3

> <PUBCHEM_COORDINATE_TYPE>
2
5
10

$$$$

