442986
  -OEChem-07051213002D

 79 85  0     1  0  0  0  0  0999 V2000
    3.9782   -0.2209    0.0000 O   0  0  0  0  0  0  0  0  0  0  0  0
    5.0435    2.0081    0.0000 O   0  0  0  0  0  0  0  0  0  0  0  0
    7.6415    0.5081    0.0000 O   0  0  0  0  0  0  0  0  0  0  0  0
    2.3121   -1.6792    0.0000 O   0  0  0  0  0  0  0  0  0  0  0  0
    7.6415    3.5081    0.0000 O   0  0  0  0  0  0  0  0  0  0  0  0
    6.2755    3.8741    0.0000 O   0  0  0  0  0  0  0  0  0  0  0  0
    3.1677   -3.4798    0.0000 O   0  0  0  0  0  0  0  0  0  0  0  0
    9.0254    3.9145    0.0000 O   0  0  0  0  0  0  0  0  0  0  0  0
    9.4416    1.4873    0.0000 N   0  0  3  0  0  0  0  0  0  0  0  0
    5.5776   -0.0668    0.0000 C   0  0  2  0  0  0  0  0  0  0  0  0
    5.1725    0.8410    0.0000 C   0  0  2  0  0  0  0  0  0  0  0  0
    4.9827   -0.9143    0.0000 C   0  0  2  0  0  0  0  0  0  0  0  0
    5.9095    1.5081    0.0000 C   0  0  2  0  0  0  0  0  0  0  0  0
    6.7755    1.0081    0.0000 C   0  0  2  0  0  0  0  0  0  0  0  0
    3.9520   -0.8149    0.0000 C   0  0  1  0  0  0  0  0  0  0  0  0
    6.5663    0.0363    0.0000 C   0  0  0  0  0  0  0  0  0  0  0  0
    7.6415    1.5081    0.0000 C   0  0  1  0  0  0  0  0  0  0  0  0
    3.3121   -1.6831    0.0000 C   0  0  1  0  0  0  0  0  0  0  0  0
    4.1444    0.9642    0.0000 C   0  0  0  0  0  0  0  0  0  0  0  0
    3.5300    0.1307    0.0000 C   0  0  0  0  0  0  0  0  0  0  0  0
    7.6415    2.5081    0.0000 C   0  0  1  0  0  0  0  0  0  0  0  0
    5.9095    2.5081    0.0000 C   0  0  0  0  0  0  0  0  0  0  0  0
    5.4449   -1.8888    0.0000 C   0  0  0  0  0  0  0  0  0  0  0  0
    6.7755    3.0081    0.0000 C   0  0  2  0  0  0  0  0  0  0  0  0
    3.7516   -2.6680    0.0000 C   0  0  2  0  0  0  0  0  0  0  0  0
    5.9781   -1.0103    0.0000 C   0  0  0  0  0  0  0  0  0  0  0  0
    4.8252   -2.7716    0.0000 C   0  0  0  0  0  0  0  0  0  0  0  0
    8.5355    3.0428    0.0000 C   0  0  1  0  0  0  0  0  0  0  0  0
    8.5355    0.9734    0.0000 C   0  0  0  0  0  0  0  0  0  0  0  0
    9.4416    2.5289    0.0000 C   0  0  2  0  0  0  0  0  0  0  0  0
   10.3727    3.0858    0.0000 C   0  0  0  0  0  0  0  0  0  0  0  0
    8.3505    4.0255    0.0000 C   0  0  0  0  0  0  0  0  0  0  0  0
   10.3727    0.9304    0.0000 C   0  0  0  0  0  0  0  0  0  0  0  0
   11.3165    1.4656    0.0000 C   0  0  2  0  0  0  0  0  0  0  0  0
   11.3165    2.5506    0.0000 C   0  0  0  0  0  0  0  0  0  0  0  0
   12.1806    0.9623    0.0000 C   0  0  0  0  0  0  0  0  0  0  0  0
    4.8261    1.6172    0.0000 H   0  0  0  0  0  0  0  0  0  0  0  0
    3.1059   -0.7333    0.0000 H   0  0  0  0  0  0  0  0  0  0  0  0
    6.5654   -0.5837    0.0000 H   0  0  0  0  0  0  0  0  0  0  0  0
    7.1828   -0.0298    0.0000 H   0  0  0  0  0  0  0  0  0  0  0  0
    7.6350    0.6581    0.0000 H   0  0  0  0  0  0  0  0  0  0  0  0
    4.3224    1.5581    0.0000 H   0  0  0  0  0  0  0  0  0  0  0  0
    3.5897    1.2412    0.0000 H   0  0  0  0  0  0  0  0  0  0  0  0
    3.1012    0.5785    0.0000 H   0  0  0  0  0  0  0  0  0  0  0  0
    3.0154   -0.2151    0.0000 H   0  0  0  0  0  0  0  0  0  0  0  0
    5.6974    3.0907    0.0000 H   0  0  0  0  0  0  0  0  0  0  0  0
    5.2989    2.4004    0.0000 H   0  0  0  0  0  0  0  0  0  0  0  0
    5.8839   -2.3266    0.0000 H   0  0  0  0  0  0  0  0  0  0  0  0
    5.9513   -1.5312    0.0000 H   0  0  0  0  0  0  0  0  0  0  0  0
    7.2139    3.4465    0.0000 H   0  0  0  0  0  0  0  0  0  0  0  0
    3.1348   -2.6050    0.0000 H   0  0  0  0  0  0  0  0  0  0  0  0
    5.9185   -1.6274    0.0000 H   0  0  0  0  0  0  0  0  0  0  0  0
    6.5952   -1.0698    0.0000 H   0  0  0  0  0  0  0  0  0  0  0  0
    6.0376   -0.3931    0.0000 H   0  0  0  0  0  0  0  0  0  0  0  0
    4.6610   -3.3694    0.0000 H   0  0  0  0  0  0  0  0  0  0  0  0
    5.3861   -3.0357    0.0000 H   0  0  0  0  0  0  0  0  0  0  0  0
    8.1309    0.5036    0.0000 H   0  0  0  0  0  0  0  0  0  0  0  0
    8.9291    0.4944    0.0000 H   0  0  0  0  0  0  0  0  0  0  0  0
    9.4317    3.3788    0.0000 H   0  0  0  0  0  0  0  0  0  0  0  0
    5.0435    2.6281    0.0000 H   0  0  0  0  0  0  0  0  0  0  0  0
    7.6415   -0.1119    0.0000 H   0  0  0  0  0  0  0  0  0  0  0  0
    2.0000   -2.2150    0.0000 H   0  0  0  0  0  0  0  0  0  0  0  0
    7.3315    4.0450    0.0000 H   0  0  0  0  0  0  0  0  0  0  0  0
   10.7663    3.5648    0.0000 H   0  0  0  0  0  0  0  0  0  0  0  0
    9.9681    3.5556    0.0000 H   0  0  0  0  0  0  0  0  0  0  0  0
    8.9598    4.1402    0.0000 H   0  0  0  0  0  0  0  0  0  0  0  0
    8.2357    4.6348    0.0000 H   0  0  0  0  0  0  0  0  0  0  0  0
    7.7412    3.9108    0.0000 H   0  0  0  0  0  0  0  0  0  0  0  0
    9.9681    0.4606    0.0000 H   0  0  0  0  0  0  0  0  0  0  0  0
   10.7663    0.4513    0.0000 H   0  0  0  0  0  0  0  0  0  0  0  0
    5.6555    3.8741    0.0000 H   0  0  0  0  0  0  0  0  0  0  0  0
    3.4225   -4.0450    0.0000 H   0  0  0  0  0  0  0  0  0  0  0  0
    9.6454    3.9217    0.0000 H   0  0  0  0  0  0  0  0  0  0  0  0
   11.3129    0.8456    0.0000 H   0  0  0  0  0  0  0  0  0  0  0  0
   11.9274    2.4445    0.0000 H   0  0  0  0  0  0  0  0  0  0  0  0
   11.5256    3.1343    0.0000 H   0  0  0  0  0  0  0  0  0  0  0  0
   11.8685    0.4265    0.0000 H   0  0  0  0  0  0  0  0  0  0  0  0
   12.7163    0.6502    0.0000 H   0  0  0  0  0  0  0  0  0  0  0  0
   12.4927    1.4980    0.0000 H   0  0  0  0  0  0  0  0  0  0  0  0
  1 10  1  0  0  0  0
  1 18  1  0  0  0  0
 13  2  1  1  0  0  0
  2 60  1  0  0  0  0
 14  3  1  1  0  0  0
  3 61  1  0  0  0  0
 18  4  1  6  0  0  0
  4 62  1  0  0  0  0
 21  5  1  1  0  0  0
  5 63  1  0  0  0  0
 24  6  1  6  0  0  0
  6 71  1  0  0  0  0
 25  7  1  6  0  0  0
  7 72  1  0  0  0  0
 28  8  1  6  0  0  0
  8 73  1  0  0  0  0
  9 29  1  0  0  0  0
  9 30  1  0  0  0  0
  9 33  1  0  0  0  0
 10 11  1  0  0  0  0
 10 12  1  0  0  0  0
 10 16  1  1  0  0  0
 11 13  1  0  0  0  0
 11 19  1  0  0  0  0
 11 37  1  6  0  0  0
 12 15  1  0  0  0  0
 12 23  1  0  0  0  0
 12 26  1  6  0  0  0
 13 14  1  0  0  0  0
 13 22  1  0  0  0  0
 14 16  1  0  0  0  0
 14 17  1  0  0  0  0
 15 18  1  0  0  0  0
 15 20  1  0  0  0  0
 15 38  1  6  0  0  0
 16 39  1  0  0  0  0
 16 40  1  0  0  0  0
 17 21  1  0  0  0  0
 17 29  1  0  0  0  0
 17 41  1  6  0  0  0
 18 25  1  0  0  0  0
 19 20  1  0  0  0  0
 19 42  1  0  0  0  0
 19 43  1  0  0  0  0
 20 44  1  0  0  0  0
 20 45  1  0  0  0  0
 21 24  1  0  0  0  0
 21 28  1  0  0  0  0
 22 24  1  0  0  0  0
 22 46  1  0  0  0  0
 22 47  1  0  0  0  0
 23 27  1  0  0  0  0
 23 48  1  0  0  0  0
 23 49  1  0  0  0  0
 24 50  1  0  0  0  0
 25 27  1  0  0  0  0
 25 51  1  0  0  0  0
 26 52  1  0  0  0  0
 26 53  1  0  0  0  0
 26 54  1  0  0  0  0
 27 55  1  0  0  0  0
 27 56  1  0  0  0  0
 28 30  1  0  0  0  0
 28 32  1  0  0  0  0
 29 57  1  0  0  0  0
 29 58  1  0  0  0  0
 30 31  1  0  0  0  0
 30 59  1  1  0  0  0
 31 35  1  0  0  0  0
 31 64  1  0  0  0  0
 31 65  1  0  0  0  0
 32 66  1  0  0  0  0
 32 67  1  0  0  0  0
 32 68  1  0  0  0  0
 33 34  1  0  0  0  0
 33 69  1  0  0  0  0
 33 70  1  0  0  0  0
 34 35  1  0  0  0  0
 34 36  1  6  0  0  0
 34 74  1  0  0  0  0
 35 75  1  0  0  0  0
 35 76  1  0  0  0  0
 36 77  1  0  0  0  0
 36 78  1  0  0  0  0
 36 79  1  0  0  0  0
M  END
> <PUBCHEM_COMPOUND_CID>
442986

> <PUBCHEM_COMPOUND_CANONICALIZED>
1

> <PUBCHEM_CACTVS_COMPLEXITY>
999

> <PUBCHEM_CACTVS_HBOND_ACCEPTOR>
9

> <PUBCHEM_CACTVS_HBOND_DONOR>
7

> <PUBCHEM_CACTVS_ROTATABLE_BOND>
0

> <PUBCHEM_CACTVS_SUBSKEYS>
AAADcfB6PAAAAAAAAAAAAAAAAAAAAaIAAAA8eMECBIkAAGCwAAAAHgAACAAAD3zhgAYCCAMABgAAAAAAAAAAAAAAAAAAAAAIAAATEAIAgAAGQAAHAACXAAHw8P8PgAAAAAAAAADCAAYQADCAAYQADCAAAA==

> <PUBCHEM_IUPAC_INCHI>
InChI=1S/C27H43NO8/c1-14-4-7-18-22(3,31)26(34)17(12-28(18)11-14)24(33)13-25-16(23(24,32)10-20(26)30)6-5-15-21(25,2)9-8-19(29)27(15,35)36-25/h14-20,29-35H,4-13H2,1-3H3/t14-,15-,16-,17-,18-,19-,20-,21-,22+,23+,24+,25+,26-,27-/m0/s1

> <PUBCHEM_IUPAC_INCHIKEY>
MZHXYVMEVBEFAL-XXFAKQOHSA-N

> <PUBCHEM_XLOGP3_AA>
-1.2

> <PUBCHEM_EXACT_MASS>
509.298867

> <PUBCHEM_MOLECULAR_FORMULA>
C27H43NO8

> <PUBCHEM_MOLECULAR_WEIGHT>
509.63222

> <PUBCHEM_OPENEYE_CAN_SMILES>
CC1CCC2C(C3(C(CC4(C5CCC6C7(C5(CC4(C3CN2C1)O)OC6(C(CC7)O)O)C)O)O)O)(C)O

> <PUBCHEM_OPENEYE_ISO_SMILES>
C[C@H]1CC[C@H]2[C@@]([C@]3([C@H](C[C@]4([C@@H]5CC[C@H]6[C@]7([C@]5(C[C@]4([C@@H]3CN2C1)O)O[C@@]6([C@H](CC7)O)O)C)O)O)O)(C)O

> <PUBCHEM_CACTVS_TPSA>
154

> <PUBCHEM_MONOISOTOPIC_WEIGHT>
509.298867

> <PUBCHEM_TOTAL_CHARGE>
0

> <PUBCHEM_HEAVY_ATOM_COUNT>
36

> <PUBCHEM_ATOM_DEF_STEREO_COUNT>
14

> <PUBCHEM_ATOM_UDEF_STEREO_COUNT>
0

> <PUBCHEM_BOND_DEF_STEREO_COUNT>
0

> <PUBCHEM_BOND_UDEF_STEREO_COUNT>
0

> <PUBCHEM_ISOTOPIC_ATOM_COUNT>
0

> <PUBCHEM_COMPONENT_COUNT>
1

> <PUBCHEM_CACTVS_TAUTO_COUNT>
1

> <PUBCHEM_COORDINATE_TYPE>
1
5
255

> <PUBCHEM_BONDANNOTATIONS>
10  16  5
11  37  6
12  26  6
15  38  6
17  41  6
13  2  5
14  3  5
30  59  5
34  36  6
18  4  6
21  5  5
24  6  6
25  7  6
28  8  6

$$$$

