247854
  -OEChem-07051213063D

 49 52  0     1  0  0  0  0  0999 V2000
   -1.1023    1.5166    0.2441 O   0  0  0  0  0  0  0  0  0  0  0  0
   -4.5560   -2.1560   -0.7073 O   0  0  0  0  0  0  0  0  0  0  0  0
   -3.3906    1.4402    0.5517 O   0  0  0  0  0  0  0  0  0  0  0  0
    2.6493   -0.6965    0.2866 C   0  0  2  0  0  0  0  0  0  0  0  0
    3.3042    0.2835   -0.7035 C   0  0  2  0  0  0  0  0  0  0  0  0
    1.2304   -0.2731    0.6743 C   0  0  1  0  0  0  0  0  0  0  0  0
    0.3457   -0.2352   -0.6191 C   0  0  2  0  0  0  0  0  0  0  0  0
    2.4793    0.2764   -1.9945 C   0  0  0  0  0  0  0  0  0  0  0  0
    3.7021   -0.8600    1.3763 C   0  0  0  0  0  0  0  0  0  0  0  0
    4.7003   -0.3456   -0.8216 C   0  0  0  0  0  0  0  0  0  0  0  0
    1.0059    0.6337   -1.7264 C   0  0  0  0  0  0  0  0  0  0  0  0
   -1.1238    0.1811   -0.2769 C   0  0  1  0  0  0  0  0  0  0  0  0
    0.6229   -1.2195    1.7222 C   0  0  0  0  0  0  0  0  0  0  0  0
    5.0343   -0.8086    0.6090 C   0  0  0  0  0  0  0  0  0  0  0  0
    3.4558    1.7328   -0.1829 C   0  0  0  0  0  0  0  0  0  0  0  0
   -0.8159   -0.8356    2.0588 C   0  0  0  0  0  0  0  0  0  0  0  0
   -1.6483   -0.7525    0.8043 C   0  0  0  0  0  0  0  0  0  0  0  0
   -2.0170    0.1983   -1.4962 C   0  0  0  0  0  0  0  0  0  0  0  0
   -2.7518   -1.5029    0.6645 C   0  0  0  0  0  0  0  0  0  0  0  0
   -3.1181   -0.5441   -1.6475 C   0  0  0  0  0  0  0  0  0  0  0  0
   -3.5553   -1.4592   -0.5756 C   0  0  0  0  0  0  0  0  0  0  0  0
   -2.3132    2.0161    0.6188 C   0  0  0  0  0  0  0  0  0  0  0  0
   -2.1378    3.4101    1.1406 C   0  0  0  0  0  0  0  0  0  0  0  0
    2.5647   -1.6813   -0.2031 H   0  0  0  0  0  0  0  0  0  0  0  0
    1.2590    0.7288    1.1201 H   0  0  0  0  0  0  0  0  0  0  0  0
    0.3108   -1.2615   -1.0191 H   0  0  0  0  0  0  0  0  0  0  0  0
    2.5172   -0.7171   -2.4600 H   0  0  0  0  0  0  0  0  0  0  0  0
    2.9006    0.9761   -2.7263 H   0  0  0  0  0  0  0  0  0  0  0  0
    3.5920   -1.8056    1.9170 H   0  0  0  0  0  0  0  0  0  0  0  0
    3.6502   -0.0500    2.1124 H   0  0  0  0  0  0  0  0  0  0  0  0
    0.9246    1.6950   -1.4662 H   0  0  0  0  0  0  0  0  0  0  0  0
    0.4631    0.5074   -2.6700 H   0  0  0  0  0  0  0  0  0  0  0  0
    5.4553    0.3448   -1.2116 H   0  0  0  0  0  0  0  0  0  0  0  0
    4.6802   -1.2177   -1.4872 H   0  0  0  0  0  0  0  0  0  0  0  0
    1.2178   -1.1955    2.6426 H   0  0  0  0  0  0  0  0  0  0  0  0
    0.6504   -2.2530    1.3527 H   0  0  0  0  0  0  0  0  0  0  0  0
    5.7242   -0.1113    1.0969 H   0  0  0  0  0  0  0  0  0  0  0  0
    5.5198   -1.7901    0.5888 H   0  0  0  0  0  0  0  0  0  0  0  0
    2.4958    2.2085    0.0338 H   0  0  0  0  0  0  0  0  0  0  0  0
    4.0537    1.7905    0.7321 H   0  0  0  0  0  0  0  0  0  0  0  0
    3.9610    2.3532   -0.9327 H   0  0  0  0  0  0  0  0  0  0  0  0
   -0.8331    0.1329    2.5731 H   0  0  0  0  0  0  0  0  0  0  0  0
   -1.2250   -1.5689    2.7642 H   0  0  0  0  0  0  0  0  0  0  0  0
   -1.7566    0.8777   -2.3044 H   0  0  0  0  0  0  0  0  0  0  0  0
   -3.0914   -2.1732    1.4467 H   0  0  0  0  0  0  0  0  0  0  0  0
   -3.7206   -0.4842   -2.5462 H   0  0  0  0  0  0  0  0  0  0  0  0
   -1.7252    4.0501    0.3567 H   0  0  0  0  0  0  0  0  0  0  0  0
   -1.4812    3.3984    2.0142 H   0  0  0  0  0  0  0  0  0  0  0  0
   -3.1105    3.8098    1.4410 H   0  0  0  0  0  0  0  0  0  0  0  0
  1 12  1  0  0  0  0
  1 22  1  0  0  0  0
  2 21  2  0  0  0  0
  3 22  2  0  0  0  0
  4  5  1  0  0  0  0
  4  6  1  0  0  0  0
  4  9  1  0  0  0  0
  4 24  1  0  0  0  0
  5  8  1  0  0  0  0
  5 10  1  0  0  0  0
  5 15  1  0  0  0  0
  6  7  1  0  0  0  0
  6 13  1  0  0  0  0
  6 25  1  0  0  0  0
  7 11  1  0  0  0  0
  7 12  1  0  0  0  0
  7 26  1  0  0  0  0
  8 11  1  0  0  0  0
  8 27  1  0  0  0  0
  8 28  1  0  0  0  0
  9 14  1  0  0  0  0
  9 29  1  0  0  0  0
  9 30  1  0  0  0  0
 10 14  1  0  0  0  0
 10 33  1  0  0  0  0
 10 34  1  0  0  0  0
 11 31  1  0  0  0  0
 11 32  1  0  0  0  0
 12 17  1  0  0  0  0
 12 18  1  0  0  0  0
 13 16  1  0  0  0  0
 13 35  1  0  0  0  0
 13 36  1  0  0  0  0
 14 37  1  0  0  0  0
 14 38  1  0  0  0  0
 15 39  1  0  0  0  0
 15 40  1  0  0  0  0
 15 41  1  0  0  0  0
 16 17  1  0  0  0  0
 16 42  1  0  0  0  0
 16 43  1  0  0  0  0
 17 19  2  0  0  0  0
 18 20  2  0  0  0  0
 18 44  1  0  0  0  0
 19 21  1  0  0  0  0
 19 45  1  0  0  0  0
 20 21  1  0  0  0  0
 20 46  1  0  0  0  0
 22 23  1  0  0  0  0
 23 47  1  0  0  0  0
 23 48  1  0  0  0  0
 23 49  1  0  0  0  0
M  END
> <PUBCHEM_COMPOUND_CID>
247854

> <PUBCHEM_CONFORMER_RMSD>
0.6

> <PUBCHEM_CONFORMER_DIVERSEORDER>
1

> <PUBCHEM_MMFF94_PARTIAL_CHARGES>
15
1 -0.43
12 0.56
16 0.14
17 -0.28
18 -0.29
19 -0.14
2 -0.57
20 -0.14
21 0.54
22 0.66
23 0.06
3 -0.57
44 0.15
45 0.15
46 0.15

> <PUBCHEM_EFFECTIVE_ROTOR_COUNT>
3.4

> <PUBCHEM_PHARMACOPHORE_FEATURES>
6
1 2 acceptor
1 3 acceptor
5 4 5 9 10 14 rings
6 12 17 18 19 20 21 rings
6 4 5 6 7 8 11 rings
6 6 7 12 13 16 17 rings

> <PUBCHEM_HEAVY_ATOM_COUNT>
23

> <PUBCHEM_ATOM_DEF_STEREO_COUNT>
5

> <PUBCHEM_ATOM_UDEF_STEREO_COUNT>
0

> <PUBCHEM_BOND_DEF_STEREO_COUNT>
0

> <PUBCHEM_BOND_UDEF_STEREO_COUNT>
0

> <PUBCHEM_ISOTOPIC_ATOM_COUNT>
0

> <PUBCHEM_COMPONENT_COUNT>
1

> <PUBCHEM_CACTVS_TAUTO_COUNT>
3

> <PUBCHEM_CONFORMER_ID>
0003C82E00000001

> <PUBCHEM_MMFF94_ENERGY>
66.2914

> <PUBCHEM_FEATURE_SELFOVERLAP>
30.551

> <PUBCHEM_SHAPE_FINGERPRINT>
10366900 7 18269547235729903308
10863032 1 17969788672906740518
11315181 36 18272652342724148746
11578080 2 16878238497169081769
11640471 11 18054506073949999825
12173636 292 18338513144329289675
12236239 1 18202282519997997151
12403814 3 17458345208639444325
12596599 1 18202002187250927094
12633257 1 18130510855150467672
12714826 92 17385726893778404035
12788726 201 18336252467050364025
13140716 1 17417800747799195280
13224815 77 17917709089397468494
13583140 156 17313681446219381402
13965767 371 17260167317104754537
14289901 80 18186801383441618446
14787075 74 17766000493420705108
15309172 13 16917061192088980114
15534591 1 18266737068323422409
15788980 27 17458347463940477334
16945 1 18408603638908478274
17349148 13 18060422408563992146
17980427 23 18342733018886916412
1813 80 17604992520723447239
18186145 218 17775844627483287514
18219364 16 16415473878496041218
192875 21 18060420179459972596
19862831 5 17989213637328653550
200 152 18271811189683786487
20775438 99 16754678387250134735
21033648 29 16128661846806712644
21304303 282 17903661887998145861
23402539 116 18410015441850416862
23419403 2 15965179586167942394
23557571 272 17676769859065045504
23559900 14 17560521682164066340
312423 11 18338787945143327676
3286 77 18411710863643516440
463206 1 18196376905470310411
7471813 234 18337678490270590204

> <PUBCHEM_SHAPE_MULTIPOLES>
455.72
8.39
2.2
1.83
4.99
1.52
-0.15
-1.94
-1.16
-2.28
1
-0.24
0
-1.59

> <PUBCHEM_SHAPE_SELFOVERLAP>
988.409

> <PUBCHEM_SHAPE_VOLUME>
245.8

> <PUBCHEM_COORDINATE_TYPE>
2
5
10

$$$$

