152639
  -OEChem-07051213123D

 95100  0     1  0  0  0  0  0999 V2000
    0.4522    1.2115    0.1573 O   0  0  0  0  0  0  0  0  0  0  0  0
    2.6776    2.0129    0.3370 O   0  0  0  0  0  0  0  0  0  0  0  0
    4.8718    0.2218   -0.2107 O   0  0  0  0  0  0  0  0  0  0  0  0
   -0.5398    3.3155   -1.4625 O   0  0  0  0  0  0  0  0  0  0  0  0
    6.2152   -1.5463   -1.0439 O   0  0  0  0  0  0  0  0  0  0  0  0
   -3.3979    3.7987    1.6727 O   0  0  0  0  0  0  0  0  0  0  0  0
   -1.0997   -1.0093    1.4662 O   0  0  0  0  0  0  0  0  0  0  0  0
   -4.6574    4.6138   -0.0840 O   0  0  0  0  0  0  0  0  0  0  0  0
    8.8903    0.5610    1.3407 O   0  0  0  0  0  0  0  0  0  0  0  0
    8.9262   -1.8208   -0.0620 O   0  0  0  0  0  0  0  0  0  0  0  0
   -2.5368   -3.0664    1.2337 O   0  0  0  0  0  0  0  0  0  0  0  0
   -6.2555   -0.3853   -1.5101 O   0  0  0  0  0  0  0  0  0  0  0  0
   -3.8706   -5.2494    1.0771 O   0  0  0  0  0  0  0  0  0  0  0  0
    3.2173   -2.1025   -0.3769 N   0  0  0  0  0  0  0  0  0  0  0  0
   -1.2970    3.7558   -0.3253 C   0  0  2  0  0  0  0  0  0  0  0  0
   -0.6122    1.6777    0.9859 C   0  0  1  0  0  0  0  0  0  0  0  0
   -0.6582    3.2090    0.9626 C   0  0  0  0  0  0  0  0  0  0  0  0
   -2.7354    3.2140   -0.4990 C   0  0  1  0  0  0  0  0  0  0  0  0
    2.6579   -0.7545   -0.4556 C   0  0  2  0  0  0  0  0  0  0  0  0
    3.6872    0.2410   -1.0090 C   0  0  1  0  0  0  0  0  0  0  0  0
    1.6789    1.1461    0.8787 C   0  0  2  0  0  0  0  0  0  0  0  0
   -1.8850    1.0226    0.5124 C   0  0  0  0  0  0  0  0  0  0  0  0
    2.1716   -0.3014    0.9258 C   0  0  0  0  0  0  0  0  0  0  0  0
   -2.8613    1.7283   -0.2122 C   0  0  0  0  0  0  0  0  0  0  0  0
    3.0999    1.6600   -0.9870 C   0  0  2  0  0  0  0  0  0  0  0  0
   -1.2393    5.2894   -0.3426 C   0  0  0  0  0  0  0  0  0  0  0  0
   -2.0736   -0.3474    0.7695 C   0  0  0  0  0  0  0  0  0  0  0  0
   -4.0091    1.0483   -0.6610 C   0  0  0  0  0  0  0  0  0  0  0  0
   -3.7201    3.9634    0.3581 C   0  0  0  0  0  0  0  0  0  0  0  0
    6.0127   -0.1321   -0.9872 C   0  0  2  0  0  0  0  0  0  0  0  0
    4.1087    2.7122   -1.4351 C   0  0  0  0  0  0  0  0  0  0  0  0
   -3.2194   -1.0123    0.3192 C   0  0  0  0  0  0  0  0  0  0  0  0
   -1.8643    5.8440   -1.6046 C   0  0  0  0  0  0  0  0  0  0  0  0
   -4.1873   -0.3143   -0.3973 C   0  0  0  0  0  0  0  0  0  0  0  0
    7.2467    0.5801   -0.4370 C   0  0  0  0  0  0  0  0  0  0  0  0
    7.6651   -0.0169    0.9062 C   0  0  1  0  0  0  0  0  0  0  0  0
    7.8204   -1.5345    0.7963 C   0  0  1  0  0  0  0  0  0  0  0  0
    6.5338   -2.1432    0.2214 C   0  0  2  0  0  0  0  0  0  0  0  0
    3.2440   -2.7238   -1.7008 C   0  0  0  0  0  0  0  0  0  0  0  0
    2.4462   -2.9230    0.5568 C   0  0  0  0  0  0  0  0  0  0  0  0
   -3.3898   -2.4517    0.6054 C   0  0  0  0  0  0  0  0  0  0  0  0
   -5.4032   -1.0001   -0.8812 C   0  0  0  0  0  0  0  0  0  0  0  0
    6.6391   -3.6473   -0.0036 C   0  0  0  0  0  0  0  0  0  0  0  0
   -4.6038   -3.1398    0.1210 C   0  0  0  0  0  0  0  0  0  0  0  0
   -5.5756   -2.4391   -0.5963 C   0  0  0  0  0  0  0  0  0  0  0  0
   -4.2576    4.4629    2.6042 C   0  0  0  0  0  0  0  0  0  0  0  0
   -4.7779   -4.5038    0.3840 C   0  0  0  0  0  0  0  0  0  0  0  0
   -6.7219   -3.1023   -1.0506 C   0  0  0  0  0  0  0  0  0  0  0  0
   -5.9215   -5.1610   -0.0707 C   0  0  0  0  0  0  0  0  0  0  0  0
   -6.8914   -4.4617   -0.7863 C   0  0  0  0  0  0  0  0  0  0  0  0
   -0.4646    1.3686    2.0304 H   0  0  0  0  0  0  0  0  0  0  0  0
    0.3704    3.5881    1.0284 H   0  0  0  0  0  0  0  0  0  0  0  0
   -1.1613    3.5808    1.8585 H   0  0  0  0  0  0  0  0  0  0  0  0
   -3.0323    3.3491   -1.5488 H   0  0  0  0  0  0  0  0  0  0  0  0
    1.7792   -0.7547   -1.1177 H   0  0  0  0  0  0  0  0  0  0  0  0
    3.8959   -0.0075   -2.0572 H   0  0  0  0  0  0  0  0  0  0  0  0
    1.5525    1.4794    1.9158 H   0  0  0  0  0  0  0  0  0  0  0  0
    3.0008   -0.3540    1.6445 H   0  0  0  0  0  0  0  0  0  0  0  0
    1.3475   -0.9090    1.3032 H   0  0  0  0  0  0  0  0  0  0  0  0
    2.2315    1.7121   -1.6558 H   0  0  0  0  0  0  0  0  0  0  0  0
   -0.1918    5.6169   -0.3156 H   0  0  0  0  0  0  0  0  0  0  0  0
   -1.7256    5.7254    0.5369 H   0  0  0  0  0  0  0  0  0  0  0  0
   -4.7632    1.6015   -1.2175 H   0  0  0  0  0  0  0  0  0  0  0  0
    5.9010    0.2190   -2.0204 H   0  0  0  0  0  0  0  0  0  0  0  0
    0.3845    3.5881   -1.3317 H   0  0  0  0  0  0  0  0  0  0  0  0
    4.5168    2.4806   -2.4232 H   0  0  0  0  0  0  0  0  0  0  0  0
    3.6258    3.6948   -1.4832 H   0  0  0  0  0  0  0  0  0  0  0  0
    4.9311    2.8130   -0.7200 H   0  0  0  0  0  0  0  0  0  0  0  0
   -2.9402    5.6726   -1.6685 H   0  0  0  0  0  0  0  0  0  0  0  0
   -1.7206    6.9302   -1.6316 H   0  0  0  0  0  0  0  0  0  0  0  0
   -1.3977    5.4395   -2.5084 H   0  0  0  0  0  0  0  0  0  0  0  0
    8.0792    0.4833   -1.1455 H   0  0  0  0  0  0  0  0  0  0  0  0
    7.0608    1.6534   -0.3170 H   0  0  0  0  0  0  0  0  0  0  0  0
    6.9064    0.2132    1.6642 H   0  0  0  0  0  0  0  0  0  0  0  0
    8.0566   -1.9563    1.7799 H   0  0  0  0  0  0  0  0  0  0  0  0
    5.7084   -1.9604    0.9199 H   0  0  0  0  0  0  0  0  0  0  0  0
    3.6747   -3.7299   -1.6446 H   0  0  0  0  0  0  0  0  0  0  0  0
    3.8717   -2.1682   -2.4035 H   0  0  0  0  0  0  0  0  0  0  0  0
    2.2412   -2.8152   -2.1346 H   0  0  0  0  0  0  0  0  0  0  0  0
    2.6167   -2.6452    1.6023 H   0  0  0  0  0  0  0  0  0  0  0  0
    1.3728   -2.9332    0.3319 H   0  0  0  0  0  0  0  0  0  0  0  0
    2.7892   -3.9644    0.5021 H   0  0  0  0  0  0  0  0  0  0  0  0
   -1.2044   -1.9684    1.3804 H   0  0  0  0  0  0  0  0  0  0  0  0
    5.6738   -4.0548   -0.3189 H   0  0  0  0  0  0  0  0  0  0  0  0
    6.9463   -4.1644    0.9104 H   0  0  0  0  0  0  0  0  0  0  0  0
    7.3476   -3.8857   -0.8039 H   0  0  0  0  0  0  0  0  0  0  0  0
    8.7577    1.5228    1.3943 H   0  0  0  0  0  0  0  0  0  0  0  0
    9.1312   -2.7669    0.0261 H   0  0  0  0  0  0  0  0  0  0  0  0
   -3.8923    4.2523    3.6129 H   0  0  0  0  0  0  0  0  0  0  0  0
   -5.2794    4.0825    2.5137 H   0  0  0  0  0  0  0  0  0  0  0  0
   -4.2305    5.5441    2.4391 H   0  0  0  0  0  0  0  0  0  0  0  0
   -7.4925   -2.5797   -1.6108 H   0  0  0  0  0  0  0  0  0  0  0  0
   -6.0639   -6.2198    0.1293 H   0  0  0  0  0  0  0  0  0  0  0  0
   -7.7809   -4.9757   -1.1391 H   0  0  0  0  0  0  0  0  0  0  0  0
   -3.1154   -4.7070    1.3488 H   0  0  0  0  0  0  0  0  0  0  0  0
  1 16  1  0  0  0  0
  1 21  1  0  0  0  0
  2 21  1  0  0  0  0
  2 25  1  0  0  0  0
  3 20  1  0  0  0  0
  3 30  1  0  0  0  0
  4 15  1  0  0  0  0
  4 65  1  0  0  0  0
  5 30  1  0  0  0  0
  5 38  1  0  0  0  0
  6 29  1  0  0  0  0
  6 46  1  0  0  0  0
  7 27  1  0  0  0  0
  7 83  1  0  0  0  0
  8 29  2  0  0  0  0
  9 36  1  0  0  0  0
  9 87  1  0  0  0  0
 10 37  1  0  0  0  0
 10 88  1  0  0  0  0
 11 41  2  0  0  0  0
 12 42  2  0  0  0  0
 13 47  1  0  0  0  0
 13 95  1  0  0  0  0
 14 19  1  0  0  0  0
 14 39  1  0  0  0  0
 14 40  1  0  0  0  0
 15 17  1  0  0  0  0
 15 18  1  0  0  0  0
 15 26  1  0  0  0  0
 16 17  1  0  0  0  0
 16 22  1  0  0  0  0
 16 51  1  0  0  0  0
 17 52  1  0  0  0  0
 17 53  1  0  0  0  0
 18 24  1  0  0  0  0
 18 29  1  0  0  0  0
 18 54  1  0  0  0  0
 19 20  1  0  0  0  0
 19 23  1  0  0  0  0
 19 55  1  0  0  0  0
 20 25  1  0  0  0  0
 20 56  1  0  0  0  0
 21 23  1  0  0  0  0
 21 57  1  0  0  0  0
 22 24  1  0  0  0  0
 22 27  2  0  0  0  0
 23 58  1  0  0  0  0
 23 59  1  0  0  0  0
 24 28  2  0  0  0  0
 25 31  1  0  0  0  0
 25 60  1  0  0  0  0
 26 33  1  0  0  0  0
 26 61  1  0  0  0  0
 26 62  1  0  0  0  0
 27 32  1  0  0  0  0
 28 34  1  0  0  0  0
 28 63  1  0  0  0  0
 30 35  1  0  0  0  0
 30 64  1  0  0  0  0
 31 66  1  0  0  0  0
 31 67  1  0  0  0  0
 31 68  1  0  0  0  0
 32 34  2  0  0  0  0
 32 41  1  0  0  0  0
 33 69  1  0  0  0  0
 33 70  1  0  0  0  0
 33 71  1  0  0  0  0
 34 42  1  0  0  0  0
 35 36  1  0  0  0  0
 35 72  1  0  0  0  0
 35 73  1  0  0  0  0
 36 37  1  0  0  0  0
 36 74  1  0  0  0  0
 37 38  1  0  0  0  0
 37 75  1  0  0  0  0
 38 43  1  0  0  0  0
 38 76  1  0  0  0  0
 39 77  1  0  0  0  0
 39 78  1  0  0  0  0
 39 79  1  0  0  0  0
 40 80  1  0  0  0  0
 40 81  1  0  0  0  0
 40 82  1  0  0  0  0
 41 44  1  0  0  0  0
 42 45  1  0  0  0  0
 43 84  1  0  0  0  0
 43 85  1  0  0  0  0
 43 86  1  0  0  0  0
 44 45  2  0  0  0  0
 44 47  1  0  0  0  0
 45 48  1  0  0  0  0
 46 89  1  0  0  0  0
 46 90  1  0  0  0  0
 46 91  1  0  0  0  0
 47 49  2  0  0  0  0
 48 50  2  0  0  0  0
 48 92  1  0  0  0  0
 49 50  1  0  0  0  0
 49 93  1  0  0  0  0
 50 94  1  0  0  0  0
M  END
> <PUBCHEM_COMPOUND_CID>
152639

> <PUBCHEM_CONFORMER_RMSD>
1.2

> <PUBCHEM_CONFORMER_DIVERSEORDER>
1
10
12
2
11
15
23
21
20
13
6
16
22
17
7
24
4
18
14
19
8
3
25
5
9

> <PUBCHEM_MMFF94_PARTIAL_CHARGES>
52
1 -0.56
10 -0.68
11 -0.57
12 -0.57
13 -0.53
14 -0.81
15 0.28
16 0.42
18 0.2
19 0.27
2 -0.56
20 0.28
21 0.56
22 -0.14
24 -0.14
25 0.28
27 0.08
28 -0.15
29 0.66
3 -0.56
30 0.56
32 0.09
34 0.09
36 0.28
37 0.28
38 0.28
39 0.27
4 -0.68
40 0.27
41 0.4
42 0.4
44 0.09
45 0.09
46 0.28
47 0.08
48 -0.15
49 -0.15
5 -0.56
50 -0.15
6 -0.43
63 0.15
65 0.4
7 -0.53
8 -0.57
83 0.45
87 0.4
88 0.4
9 -0.68
92 0.15
93 0.15
94 0.15
95 0.45

> <PUBCHEM_EFFECTIVE_ROTOR_COUNT>
11.2

> <PUBCHEM_PHARMACOPHORE_FEATURES>
23
1 1 acceptor
1 10 acceptor
1 10 donor
1 11 acceptor
1 12 acceptor
1 13 donor
1 14 cation
1 2 acceptor
1 3 acceptor
1 33 hydrophobe
1 4 acceptor
1 4 donor
1 5 acceptor
1 7 donor
1 8 acceptor
1 9 acceptor
1 9 donor
6 15 16 17 18 22 24 rings
6 2 19 20 21 23 25 rings
6 22 24 27 28 32 34 rings
6 32 34 41 42 44 45 rings
6 44 45 47 48 49 50 rings
6 5 30 35 36 37 38 rings

> <PUBCHEM_HEAVY_ATOM_COUNT>
50

> <PUBCHEM_ATOM_DEF_STEREO_COUNT>
11

> <PUBCHEM_ATOM_UDEF_STEREO_COUNT>
0

> <PUBCHEM_BOND_DEF_STEREO_COUNT>
0

> <PUBCHEM_BOND_UDEF_STEREO_COUNT>
0

> <PUBCHEM_ISOTOPIC_ATOM_COUNT>
0

> <PUBCHEM_COMPONENT_COUNT>
1

> <PUBCHEM_CACTVS_TAUTO_COUNT>
76

> <PUBCHEM_CONFORMER_ID>
0002543F00000001

> <PUBCHEM_MMFF94_ENERGY>
164.9512

> <PUBCHEM_FEATURE_SELFOVERLAP>
116.864

> <PUBCHEM_SHAPE_FINGERPRINT>
10100884 174 18272093751936764970
10462674 369 18261383409079855942
11007060 377 18120087544521809465
11062273 19 17765156068992350221
11297010 23 16614776042268283117
117089 54 18338232661596344447
12013929 94 18338797811579894738
12106331 60 18337687360116859086
12841400 136 18269275660326230079
1361 4 18410011061817750974
13782708 43 18040715857733439822
13811026 1 18338240371573992938
14068700 675 18272654515445162908
14068700 686 18334296435886130200
14659021 117 18411985801390034113
15200665 1 18195241342534937193
15400415 2 17763180641555074780
15664458 157 17838066149677686333
15664458 70 16965467449085118329
15890870 6 18267872856384983157
15911013 46 18334577940737649721
15968369 26 17405439801845960371
17686467 74 18263089834089252936
21133410 171 17694271825243648755
21223535 225 15338852991947362719
23559900 14 17980485560368718619
24771750 20 16976733586879073061
255183 313 18120914339080592673
3504750 166 18411415154528053760
4046055 25 18272088275219940412
4066623 53 18339081467439824458
4616759 239 17896046610313093656
6376802 90 18121216743311090900
6698420 124 17536014899020628569
6700243 42 17899658406635116452

> <PUBCHEM_SHAPE_MULTIPOLES>
947.69
21.35
8.45
1.45
36.91
3.8
0.21
-22.91
-0.91
-16.27
-0.03
-0.4
0.96
-1.48

> <PUBCHEM_SHAPE_SELFOVERLAP>
2062.769

> <PUBCHEM_SHAPE_VOLUME>
508.8

> <PUBCHEM_COORDINATE_TYPE>
2
5
10

$$$$

