466
  -OEChem-07051212453D

 29 29  0     1  0  0  0  0  0999 V2000
   -2.7789   -0.0243   -0.1928 P   0  0  0  0  0  0  0  0  0  0  0  0
    0.2694   -0.6133    0.9685 O   0  0  0  0  0  0  0  0  0  0  0  0
    1.0883    1.5244   -1.7327 O   0  0  0  0  0  0  0  0  0  0  0  0
   -1.2822    0.5514   -0.3902 O   0  0  0  0  0  0  0  0  0  0  0  0
    3.2135   -0.1642   -1.1811 O   0  0  0  0  0  0  0  0  0  0  0  0
    1.1601    2.0488    1.8676 O   0  0  0  0  0  0  0  0  0  0  0  0
    0.7768   -3.2486    0.3862 O   0  0  0  0  0  0  0  0  0  0  0  0
   -2.5477   -1.5828    0.1714 O   0  0  0  0  0  0  0  0  0  0  0  0
   -3.3423   -0.0759   -1.7076 O   0  0  0  0  0  0  0  0  0  0  0  0
   -3.6329    0.7411    0.7753 O   0  0  0  0  0  0  0  0  0  0  0  0
    1.6438    1.5163   -0.4185 C   0  0  2  0  0  0  0  0  0  0  0  0
    2.2844    0.1503   -0.1509 C   0  0  1  0  0  0  0  0  0  0  0  0
    0.5424    1.7971    0.6069 C   0  0  1  0  0  0  0  0  0  0  0  0
    1.2139   -0.9415   -0.0548 C   0  0  1  0  0  0  0  0  0  0  0  0
   -0.4287    0.6162    0.7483 C   0  0  2  0  0  0  0  0  0  0  0  0
    1.8203   -2.2950    0.3044 C   0  0  0  0  0  0  0  0  0  0  0  0
    2.4123    2.2973   -0.3845 H   0  0  0  0  0  0  0  0  0  0  0  0
    2.8365    0.1978    0.7964 H   0  0  0  0  0  0  0  0  0  0  0  0
   -0.0111    2.6956    0.3087 H   0  0  0  0  0  0  0  0  0  0  0  0
    0.6784   -1.0534   -1.0066 H   0  0  0  0  0  0  0  0  0  0  0  0
   -1.0457    0.7761    1.6398 H   0  0  0  0  0  0  0  0  0  0  0  0
    2.3065   -2.2598    1.2847 H   0  0  0  0  0  0  0  0  0  0  0  0
    2.5488   -2.6327   -0.4387 H   0  0  0  0  0  0  0  0  0  0  0  0
    1.8056    1.3100   -2.3533 H   0  0  0  0  0  0  0  0  0  0  0  0
    3.8737    0.5492   -1.2079 H   0  0  0  0  0  0  0  0  0  0  0  0
    0.4559    2.2708    2.5002 H   0  0  0  0  0  0  0  0  0  0  0  0
    0.3602   -3.3071   -0.4904 H   0  0  0  0  0  0  0  0  0  0  0  0
   -3.3241   -2.1369    0.4004 H   0  0  0  0  0  0  0  0  0  0  0  0
   -4.2832   -0.3099   -1.8563 H   0  0  0  0  0  0  0  0  0  0  0  0
  1  4  1  0  0  0  0
  1  8  1  0  0  0  0
  1  9  1  0  0  0  0
  1 10  2  0  0  0  0
  2 14  1  0  0  0  0
  2 15  1  0  0  0  0
  3 11  1  0  0  0  0
  3 24  1  0  0  0  0
  4 15  1  0  0  0  0
  5 12  1  0  0  0  0
  5 25  1  0  0  0  0
  6 13  1  0  0  0  0
  6 26  1  0  0  0  0
  7 16  1  0  0  0  0
  7 27  1  0  0  0  0
  8 28  1  0  0  0  0
  9 29  1  0  0  0  0
 11 12  1  0  0  0  0
 11 13  1  0  0  0  0
 11 17  1  0  0  0  0
 12 14  1  0  0  0  0
 12 18  1  0  0  0  0
 13 15  1  0  0  0  0
 13 19  1  0  0  0  0
 14 16  1  0  0  0  0
 14 20  1  0  0  0  0
 15 21  1  0  0  0  0
 16 22  1  0  0  0  0
 16 23  1  0  0  0  0
M  END
> <PUBCHEM_COMPOUND_CID>
466

> <PUBCHEM_CONFORMER_RMSD>
0.6

> <PUBCHEM_CONFORMER_DIVERSEORDER>
5
99
80
107
41
162
127
132
51
155
121
68
172
156
97
125
58
64
120
81
49
129
86
137
163
136
106
151
65
71
57
130
153
143
139
140
34
56
108
158
75
95
63
100
169
103
24
74
165
101
85
161
160
154
36
90
112
91
134
70
149
42
18
78
157
115
109
21
119
84
15
98
135
27
114
60
32
19
10
94
67
105
87
25
96
167
40
118
20
131
111
31
66
37
72
53
22
26
170
128
77
116
117
50
83
164
28
146
145
113
110
79
141
104
52
144
93
39
88
142
29
6
33
122
76
48
82
11
1
152
159
133
168
73
150
126
54
16
123
124
166
45
46
12
147
89
30
171
138
35
38
148
102
69
43
44
92
23
17
14
8
59
62
61
47
7
55
2
4
9
3
13

> <PUBCHEM_MMFF94_PARTIAL_CHARGES>
22
1 1.51
10 -0.7
11 0.28
12 0.28
13 0.28
14 0.28
15 0.56
16 0.28
2 -0.56
24 0.4
25 0.4
26 0.4
27 0.4
28 0.5
29 0.5
3 -0.68
4 -0.55
5 -0.68
6 -0.68
7 -0.68
8 -0.77
9 -0.77

> <PUBCHEM_EFFECTIVE_ROTOR_COUNT>
4.2

> <PUBCHEM_PHARMACOPHORE_FEATURES>
14
1 10 acceptor
1 2 acceptor
1 3 acceptor
1 3 donor
1 5 acceptor
1 5 donor
1 6 acceptor
1 6 donor
1 7 acceptor
1 7 donor
1 8 acceptor
1 9 acceptor
4 1 8 9 10 anion
6 2 11 12 13 14 15 rings

> <PUBCHEM_HEAVY_ATOM_COUNT>
16

> <PUBCHEM_ATOM_DEF_STEREO_COUNT>
0

> <PUBCHEM_ATOM_UDEF_STEREO_COUNT>
5

> <PUBCHEM_BOND_DEF_STEREO_COUNT>
0

> <PUBCHEM_BOND_UDEF_STEREO_COUNT>
0

> <PUBCHEM_ISOTOPIC_ATOM_COUNT>
0

> <PUBCHEM_COMPONENT_COUNT>
1

> <PUBCHEM_CACTVS_TAUTO_COUNT>
1

> <PUBCHEM_CONFORMER_ID>
000001D200000005

> <PUBCHEM_MMFF94_ENERGY>
4.3754

> <PUBCHEM_FEATURE_SELFOVERLAP>
71.095

> <PUBCHEM_SHAPE_FINGERPRINT>
1 1 18342455902768955502
12423570 1 17482835962844628216
14817 1 8354382333621561392
15001771 113 17906169908042594186
15375462 189 18262232330487364531
15852999 172 17910994316199908139
16945 1 18341331179693798876
18186145 218 18341324505319993356
21524375 3 16911709641015973996
22112679 90 17825096266990695280
22802520 49 17773039876210285309
23402539 116 18261383477947090934
23419403 2 17331738789927274392
2748010 2 18124312705497231475
3060560 45 18201166455176015631
4175511 335 18341058474903118087
74978 22 17894636933348083069
8030462 33 18261399910333826477
81228 2 17115235217674524075

> <PUBCHEM_SHAPE_MULTIPOLES>
280.3
4.62
2.54
1.32
4.21
1.6
-0.19
0.44
-1.26
-1.47
0.66
0.01
-0.63
-0.2

> <PUBCHEM_SHAPE_SELFOVERLAP>
548.069

> <PUBCHEM_SHAPE_VOLUME>
168.7

> <PUBCHEM_COORDINATE_TYPE>
2
5
10

$$$$

