248782
  -OEChem-07051213063D

 55 58  0     1  0  0  0  0  0999 V2000
    3.1456   -3.0367   -0.1331 F   0  0  0  0  0  0  0  0  0  0  0  0
   -3.2228    0.1468    2.0658 O   0  0  0  0  0  0  0  0  0  0  0  0
   -0.2414    2.0317   -1.8198 O   0  0  0  0  0  0  0  0  0  0  0  0
   -5.4798   -0.0983   -0.4932 O   0  0  0  0  0  0  0  0  0  0  0  0
    5.4023    0.7792    1.9613 O   0  0  0  0  0  0  0  0  0  0  0  0
   -2.2092    0.1612   -0.1780 C   0  0  1  0  0  0  0  0  0  0  0  0
   -1.2260   -0.9604    0.2270 C   0  0  2  0  0  0  0  0  0  0  0  0
    0.1166   -0.9034   -0.5167 C   0  0  1  0  0  0  0  0  0  0  0  0
    0.8086    0.4704   -0.1879 C   0  0  1  0  0  0  0  0  0  0  0  0
   -3.4228   -0.2384    0.7088 C   0  0  1  0  0  0  0  0  0  0  0  0
   -1.5451    1.5130    0.1551 C   0  0  0  0  0  0  0  0  0  0  0  0
    2.2576    0.5609   -0.8040 C   0  0  2  0  0  0  0  0  0  0  0  0
   -0.1325    1.6849   -0.4472 C   0  0  2  0  0  0  0  0  0  0  0  0
   -2.0740   -2.2253    0.1287 C   0  0  0  0  0  0  0  0  0  0  0  0
   -3.4692   -1.7816    0.6162 C   0  0  0  0  0  0  0  0  0  0  0  0
    1.0081   -2.0977   -0.1204 C   0  0  0  0  0  0  0  0  0  0  0  0
   -2.6284    0.1048   -1.6730 C   0  0  0  0  0  0  0  0  0  0  0  0
    3.0128   -0.6572   -0.2504 C   0  0  0  0  0  0  0  0  0  0  0  0
    2.4354   -1.9922   -0.6515 C   0  0  1  0  0  0  0  0  0  0  0  0
    3.0017    1.8719   -0.4235 C   0  0  0  0  0  0  0  0  0  0  0  0
    2.2740    0.5134   -2.3529 C   0  0  0  0  0  0  0  0  0  0  0  0
   -4.7178    0.4130    0.3259 C   0  0  0  0  0  0  0  0  0  0  0  0
    3.5044    1.8914    1.0082 C   0  0  0  0  0  0  0  0  0  0  0  0
    4.0277   -0.5843    0.6267 C   0  0  0  0  0  0  0  0  0  0  0  0
    4.4148    0.7114    1.2331 C   0  0  0  0  0  0  0  0  0  0  0  0
   -5.0406    1.7216    0.9948 C   0  0  0  0  0  0  0  0  0  0  0  0
   -0.9853   -0.8420    1.2967 H   0  0  0  0  0  0  0  0  0  0  0  0
   -0.0637   -0.9731   -1.5941 H   0  0  0  0  0  0  0  0  0  0  0  0
    0.9439    0.4662    0.9065 H   0  0  0  0  0  0  0  0  0  0  0  0
   -1.4458    1.6172    1.2427 H   0  0  0  0  0  0  0  0  0  0  0  0
   -2.1902    2.3326   -0.1825 H   0  0  0  0  0  0  0  0  0  0  0  0
    0.3065    2.5609    0.0447 H   0  0  0  0  0  0  0  0  0  0  0  0
   -1.6785   -3.0339    0.7520 H   0  0  0  0  0  0  0  0  0  0  0  0
   -2.1248   -2.5971   -0.9007 H   0  0  0  0  0  0  0  0  0  0  0  0
   -4.2232   -2.1555   -0.0846 H   0  0  0  0  0  0  0  0  0  0  0  0
   -3.6794   -2.2358    1.5914 H   0  0  0  0  0  0  0  0  0  0  0  0
    0.5681   -3.0349   -0.4825 H   0  0  0  0  0  0  0  0  0  0  0  0
    1.0430   -2.1928    0.9737 H   0  0  0  0  0  0  0  0  0  0  0  0
   -3.1903   -0.7994   -1.9268 H   0  0  0  0  0  0  0  0  0  0  0  0
   -3.2604    0.9629   -1.9292 H   0  0  0  0  0  0  0  0  0  0  0  0
   -1.7700    0.1352   -2.3480 H   0  0  0  0  0  0  0  0  0  0  0  0
    2.4588   -2.1167   -1.7379 H   0  0  0  0  0  0  0  0  0  0  0  0
    2.3792    2.7527   -0.6115 H   0  0  0  0  0  0  0  0  0  0  0  0
    3.8775    1.9908   -1.0792 H   0  0  0  0  0  0  0  0  0  0  0  0
    1.6253   -0.2623   -2.7681 H   0  0  0  0  0  0  0  0  0  0  0  0
    1.9557    1.4664   -2.7880 H   0  0  0  0  0  0  0  0  0  0  0  0
    3.2868    0.3203   -2.7287 H   0  0  0  0  0  0  0  0  0  0  0  0
   -3.8925   -0.2973    2.6137 H   0  0  0  0  0  0  0  0  0  0  0  0
    2.6861    1.8568    1.7337 H   0  0  0  0  0  0  0  0  0  0  0  0
    4.0762    2.8101    1.1790 H   0  0  0  0  0  0  0  0  0  0  0  0
   -0.7878    2.8333   -1.8832 H   0  0  0  0  0  0  0  0  0  0  0  0
    4.5311   -1.4672    1.0048 H   0  0  0  0  0  0  0  0  0  0  0  0
   -5.3762    1.5474    2.0201 H   0  0  0  0  0  0  0  0  0  0  0  0
   -4.1805    2.3927    0.9849 H   0  0  0  0  0  0  0  0  0  0  0  0
   -5.8500    2.2118    0.4448 H   0  0  0  0  0  0  0  0  0  0  0  0
  1 19  1  0  0  0  0
  2 10  1  0  0  0  0
  2 48  1  0  0  0  0
  3 13  1  0  0  0  0
  3 51  1  0  0  0  0
  4 22  2  0  0  0  0
  5 25  2  0  0  0  0
  6  7  1  0  0  0  0
  6 10  1  0  0  0  0
  6 11  1  0  0  0  0
  6 17  1  0  0  0  0
  7  8  1  0  0  0  0
  7 14  1  0  0  0  0
  7 27  1  0  0  0  0
  8  9  1  0  0  0  0
  8 16  1  0  0  0  0
  8 28  1  0  0  0  0
  9 12  1  0  0  0  0
  9 13  1  0  0  0  0
  9 29  1  0  0  0  0
 10 15  1  0  0  0  0
 10 22  1  0  0  0  0
 11 13  1  0  0  0  0
 11 30  1  0  0  0  0
 11 31  1  0  0  0  0
 12 18  1  0  0  0  0
 12 20  1  0  0  0  0
 12 21  1  0  0  0  0
 13 32  1  0  0  0  0
 14 15  1  0  0  0  0
 14 33  1  0  0  0  0
 14 34  1  0  0  0  0
 15 35  1  0  0  0  0
 15 36  1  0  0  0  0
 16 19  1  0  0  0  0
 16 37  1  0  0  0  0
 16 38  1  0  0  0  0
 17 39  1  0  0  0  0
 17 40  1  0  0  0  0
 17 41  1  0  0  0  0
 18 19  1  0  0  0  0
 18 24  2  0  0  0  0
 19 42  1  0  0  0  0
 20 23  1  0  0  0  0
 20 43  1  0  0  0  0
 20 44  1  0  0  0  0
 21 45  1  0  0  0  0
 21 46  1  0  0  0  0
 21 47  1  0  0  0  0
 22 26  1  0  0  0  0
 23 25  1  0  0  0  0
 23 49  1  0  0  0  0
 23 50  1  0  0  0  0
 24 25  1  0  0  0  0
 24 52  1  0  0  0  0
 26 53  1  0  0  0  0
 26 54  1  0  0  0  0
 26 55  1  0  0  0  0
M  END
> <PUBCHEM_COMPOUND_CID>
248782

> <PUBCHEM_CONFORMER_RMSD>
0.6

> <PUBCHEM_CONFORMER_DIVERSEORDER>
1
2

> <PUBCHEM_MMFF94_PARTIAL_CHARGES>
18
1 -0.34
10 0.34
12 0.14
13 0.28
18 -0.28
19 0.48
2 -0.68
22 0.45
23 0.06
24 -0.14
25 0.49
26 0.06
3 -0.68
4 -0.57
48 0.4
5 -0.57
51 0.4
52 0.15

> <PUBCHEM_EFFECTIVE_ROTOR_COUNT>
2.8

> <PUBCHEM_PHARMACOPHORE_FEATURES>
10
1 2 acceptor
1 2 donor
1 3 acceptor
1 3 donor
1 4 acceptor
1 5 acceptor
5 6 7 10 14 15 rings
6 12 18 20 23 24 25 rings
6 6 7 8 9 11 13 rings
6 8 9 12 16 18 19 rings

> <PUBCHEM_HEAVY_ATOM_COUNT>
26

> <PUBCHEM_ATOM_DEF_STEREO_COUNT>
8

> <PUBCHEM_ATOM_UDEF_STEREO_COUNT>
0

> <PUBCHEM_BOND_DEF_STEREO_COUNT>
0

> <PUBCHEM_BOND_UDEF_STEREO_COUNT>
0

> <PUBCHEM_ISOTOPIC_ATOM_COUNT>
0

> <PUBCHEM_COMPONENT_COUNT>
1

> <PUBCHEM_CACTVS_TAUTO_COUNT>
4

> <PUBCHEM_CONFORMER_ID>
0003CBCE00000001

> <PUBCHEM_MMFF94_ENERGY>
91.2222

> <PUBCHEM_FEATURE_SELFOVERLAP>
50.856

> <PUBCHEM_SHAPE_FINGERPRINT>
10906281 52 18058996316571626484
11132069 177 18413106147661550331
11370993 70 18333732403257766923
11578080 2 18116444819507019233
11796584 16 15482671294618745378
11961588 58 5256391838870839384
12236239 1 17675928716117467207
12403814 3 17632296748937119237
12422481 6 18271251607058376992
12553582 1 18270664403487977709
12596602 18 17385727989084689939
12633257 1 17632579310013301290
12670546 56 17894625993807911017
12892183 10 18260259750882171763
13140716 1 18268714909437424392
13224815 77 18341324513772582870
13533116 47 18261669384934743043
13583140 156 17676771963978607987
13675066 3 18201714055238022035
14081887 123 18334574624769345257
14178342 30 18338795589842359331
14223421 5 18411422851557873670
14739800 52 17095535010468360210
14790565 3 17908692948164229820
15196674 1 18411694357736304535
15375358 24 18408882919446765123
15536298 74 18335414698971537175
15788980 27 17132120117305240757
15840311 113 18043238253931533241
16945 1 18410566284322640452
17349148 13 18271814483918070535
17980427 23 18128826244217080036
1813 80 16988840596694690686
19784866 240 14692297291399597336
20511986 3 18115041778687753863
20715895 44 18270687596775937413
21033648 29 17988365983078889997
21421861 104 17916873542291656898
21452121 103 18334861649075878426
21756936 100 17535761694304721176
21792934 111 18340484582370156137
21859007 373 17558848401492179333
22149856 69 18263620941556114203
22182313 1 18057895825142596997
23503953 91 18343579633754262905
23557571 272 17846503676705613148
23559900 14 18335967736472671222
2748010 2 18199466747622577127
2838139 119 15431178855452774856
296302 2 17022903436673796725
3472631 163 16733814437163699145
34797466 226 16588020221717310701
34934 24 18408042892521160711
350125 39 18338792420741661228
3633792 109 18263373632817038413
392239 28 17823699663916853714
394222 165 16984884382423692988
4340502 62 18041279889607299547
474 4 18113903710880319960
495365 180 17821728368253791166
5104073 3 18336818784527418435
633830 44 17968938579026245956
7064713 232 18408887304444974176

> <PUBCHEM_SHAPE_MULTIPOLES>
504.32
10.05
2.44
1.56
3.15
0.91
-0.26
-2.04
4.26
-0.84
-0.02
-0.69
-0.56
0.35

> <PUBCHEM_SHAPE_SELFOVERLAP>
1089.157

> <PUBCHEM_SHAPE_VOLUME>
278.8

> <PUBCHEM_COORDINATE_TYPE>
2
5
10

$$$$

