234409
  -OEChem-07051213073D

 50 53  0     1  0  0  0  0  0999 V2000
   -1.5020   -4.2835    0.1114 Br  0  0  0  0  0  0  0  0  0  0  0  0
   -4.0068   -2.4842    0.8854 Br  0  0  0  0  0  0  0  0  0  0  0  0
    5.5389    0.7551   -0.1168 O   0  0  0  0  0  0  0  0  0  0  0  0
   -4.5899    1.9288   -1.5884 O   0  0  0  0  0  0  0  0  0  0  0  0
    2.1167   -0.4085   -0.6191 C   0  0  2  0  0  0  0  0  0  0  0  0
    3.0892    0.5040    0.1544 C   0  0  2  0  0  0  0  0  0  0  0  0
    0.7540   -0.5291    0.0682 C   0  0  1  0  0  0  0  0  0  0  0  0
    0.1126    0.9036    0.1589 C   0  0  1  0  0  0  0  0  0  0  0  0
   -1.3213    0.8424    0.8041 C   0  0  2  0  0  0  0  0  0  0  0  0
    2.4901    1.9158    0.1945 C   0  0  0  0  0  0  0  0  0  0  0  0
    1.0804    1.9213    0.8167 C   0  0  0  0  0  0  0  0  0  0  0  0
    4.3346    0.3551   -0.7417 C   0  0  2  0  0  0  0  0  0  0  0  0
    2.9367   -1.6701   -0.8734 C   0  0  0  0  0  0  0  0  0  0  0  0
    4.3679   -1.1456   -1.0896 C   0  0  0  0  0  0  0  0  0  0  0  0
   -0.1734   -1.5169   -0.6674 C   0  0  0  0  0  0  0  0  0  0  0  0
    3.4068    0.0384    1.5983 C   0  0  0  0  0  0  0  0  0  0  0  0
   -2.1386   -0.1366   -0.0515 C   0  0  0  0  0  0  0  0  0  0  0  0
   -2.0331    2.2248    0.8575 C   0  0  0  0  0  0  0  0  0  0  0  0
   -1.5835   -1.4832   -0.1307 C   0  0  0  0  0  0  0  0  0  0  0  0
   -1.2699    0.3497    2.2756 C   0  0  0  0  0  0  0  0  0  0  0  0
   -2.5950    2.6689   -0.4805 C   0  0  0  0  0  0  0  0  0  0  0  0
   -3.1896    0.2038   -0.8166 C   0  0  0  0  0  0  0  0  0  0  0  0
   -3.5641    1.6283   -0.9825 C   0  0  0  0  0  0  0  0  0  0  0  0
   -2.2605   -2.5821    0.2331 C   0  0  0  0  0  0  0  0  0  0  0  0
    1.9328    0.0386   -1.6106 H   0  0  0  0  0  0  0  0  0  0  0  0
    0.9073   -0.9245    1.0781 H   0  0  0  0  0  0  0  0  0  0  0  0
   -0.0173    1.2518   -0.8781 H   0  0  0  0  0  0  0  0  0  0  0  0
    2.4217    2.3227   -0.8229 H   0  0  0  0  0  0  0  0  0  0  0  0
    3.1415    2.5972    0.7547 H   0  0  0  0  0  0  0  0  0  0  0  0
    1.1587    1.7319    1.8917 H   0  0  0  0  0  0  0  0  0  0  0  0
    0.6844    2.9366    0.7095 H   0  0  0  0  0  0  0  0  0  0  0  0
    4.2250    0.9354   -1.6666 H   0  0  0  0  0  0  0  0  0  0  0  0
    2.5793   -2.2228   -1.7482 H   0  0  0  0  0  0  0  0  0  0  0  0
    2.9047   -2.3504   -0.0152 H   0  0  0  0  0  0  0  0  0  0  0  0
    5.0826   -1.6981   -0.4692 H   0  0  0  0  0  0  0  0  0  0  0  0
    4.6793   -1.2825   -2.1314 H   0  0  0  0  0  0  0  0  0  0  0  0
    0.2949   -2.5021   -0.6333 H   0  0  0  0  0  0  0  0  0  0  0  0
   -0.2137   -1.2481   -1.7327 H   0  0  0  0  0  0  0  0  0  0  0  0
    3.8748   -0.9507    1.6254 H   0  0  0  0  0  0  0  0  0  0  0  0
    4.1000    0.7349    2.0840 H   0  0  0  0  0  0  0  0  0  0  0  0
    2.5175   -0.0141    2.2317 H   0  0  0  0  0  0  0  0  0  0  0  0
   -1.3757    3.0007    1.2614 H   0  0  0  0  0  0  0  0  0  0  0  0
   -2.8771    2.1678    1.5614 H   0  0  0  0  0  0  0  0  0  0  0  0
   -0.7619   -0.6112    2.3947 H   0  0  0  0  0  0  0  0  0  0  0  0
   -0.7580    1.0731    2.9191 H   0  0  0  0  0  0  0  0  0  0  0  0
   -2.2816    0.2186    2.6797 H   0  0  0  0  0  0  0  0  0  0  0  0
   -1.8102    2.8194   -1.2281 H   0  0  0  0  0  0  0  0  0  0  0  0
   -3.1339    3.6141   -0.3526 H   0  0  0  0  0  0  0  0  0  0  0  0
    5.4449    1.6924    0.1237 H   0  0  0  0  0  0  0  0  0  0  0  0
   -3.7173   -0.5046   -1.4470 H   0  0  0  0  0  0  0  0  0  0  0  0
  1 24  1  0  0  0  0
  2 24  1  0  0  0  0
  3 12  1  0  0  0  0
  3 49  1  0  0  0  0
  4 23  2  0  0  0  0
  5  6  1  0  0  0  0
  5  7  1  0  0  0  0
  5 13  1  0  0  0  0
  5 25  1  0  0  0  0
  6 10  1  0  0  0  0
  6 12  1  0  0  0  0
  6 16  1  0  0  0  0
  7  8  1  0  0  0  0
  7 15  1  0  0  0  0
  7 26  1  0  0  0  0
  8  9  1  0  0  0  0
  8 11  1  0  0  0  0
  8 27  1  0  0  0  0
  9 17  1  0  0  0  0
  9 18  1  0  0  0  0
  9 20  1  0  0  0  0
 10 11  1  0  0  0  0
 10 28  1  0  0  0  0
 10 29  1  0  0  0  0
 11 30  1  0  0  0  0
 11 31  1  0  0  0  0
 12 14  1  0  0  0  0
 12 32  1  0  0  0  0
 13 14  1  0  0  0  0
 13 33  1  0  0  0  0
 13 34  1  0  0  0  0
 14 35  1  0  0  0  0
 14 36  1  0  0  0  0
 15 19  1  0  0  0  0
 15 37  1  0  0  0  0
 15 38  1  0  0  0  0
 16 39  1  0  0  0  0
 16 40  1  0  0  0  0
 16 41  1  0  0  0  0
 17 19  1  0  0  0  0
 17 22  2  0  0  0  0
 18 21  1  0  0  0  0
 18 42  1  0  0  0  0
 18 43  1  0  0  0  0
 19 24  2  0  0  0  0
 20 44  1  0  0  0  0
 20 45  1  0  0  0  0
 20 46  1  0  0  0  0
 21 23  1  0  0  0  0
 21 47  1  0  0  0  0
 21 48  1  0  0  0  0
 22 23  1  0  0  0  0
 22 50  1  0  0  0  0
M  END
> <PUBCHEM_COMPOUND_CID>
234409

> <PUBCHEM_CONFORMER_RMSD>
0.6

> <PUBCHEM_CONFORMER_DIVERSEORDER>
1
2

> <PUBCHEM_MMFF94_PARTIAL_CHARGES>
15
1 -0.11
12 0.28
15 0.14
17 -0.14
19 -0.14
2 -0.11
21 0.06
22 -0.14
23 0.49
24 0.22
3 -0.68
4 -0.57
49 0.4
50 0.15
9 0.14

> <PUBCHEM_EFFECTIVE_ROTOR_COUNT>
1.6

> <PUBCHEM_PHARMACOPHORE_FEATURES>
10
1 1 hydrophobe
1 2 hydrophobe
1 3 acceptor
1 3 donor
1 4 acceptor
3 1 2 24 hydrophobe
5 5 6 12 13 14 rings
6 5 6 7 8 10 11 rings
6 7 8 9 15 17 19 rings
6 9 17 18 21 22 23 rings

> <PUBCHEM_HEAVY_ATOM_COUNT>
24

> <PUBCHEM_ATOM_DEF_STEREO_COUNT>
6

> <PUBCHEM_ATOM_UDEF_STEREO_COUNT>
0

> <PUBCHEM_BOND_DEF_STEREO_COUNT>
0

> <PUBCHEM_BOND_UDEF_STEREO_COUNT>
0

> <PUBCHEM_ISOTOPIC_ATOM_COUNT>
0

> <PUBCHEM_COMPONENT_COUNT>
1

> <PUBCHEM_CACTVS_TAUTO_COUNT>
2

> <PUBCHEM_CONFORMER_ID>
000393A900000001

> <PUBCHEM_MMFF94_ENERGY>
85.6376

> <PUBCHEM_FEATURE_SELFOVERLAP>
52.318

> <PUBCHEM_SHAPE_FINGERPRINT>
10366900 7 17530689818536467328
10498660 4 18410007750128544172
105312 117 17988090005665560869
1100329 8 17689709083699944331
11370993 70 18338524143561212815
11582403 64 17201933737286989845
12293681 160 17969796356967782673
12500047 106 18413110567320035246
12553582 1 18194405476641663363
12592029 89 18196937884317365097
12714826 92 18341050697065621379
12730499 353 18125722542384002237
12788726 201 18130228134169271227
13140716 1 17900820448887270530
13224815 77 17675926491055317408
14223421 5 18191023396238408258
14790565 3 18047460412140396257
15163728 17 17413605174716104797
15219462 58 17059778797559298632
15420108 30 15444656019691525888
16752209 62 18341061735015819787
16945 1 18408323280591369361
17349148 13 18041287680830916312
17357779 13 18191882123853072743
1813 80 17839734873262535043
19862831 5 18261113027623999132
200 152 16805610290824174221
20510252 161 18408598141545732683
20775438 99 16885876680352178255
21033648 29 18338521940301726721
22182313 1 18190191095927431369
22907989 373 18341603781526740813
23419403 2 17460607926571148451
23493267 7 18412268332628123338
23557571 272 18341049605806045036
23559900 14 18334294310277836238
2748010 2 17972329412355539257
2838139 119 16772132438713743629
3380486 145 17977654317568155603
350125 39 18265040358367083904
4058900 60 17910670196741316061
4409770 3 18342463595688879183
5104073 3 18187641432238069194
9709674 26 18334300833594505172

> <PUBCHEM_SHAPE_MULTIPOLES>
494.05
8.54
3.7
1.37
6.82
2.45
-0.41
-0.2
1.87
-4.36
0.14
-0.36
-0.33
1.73

> <PUBCHEM_SHAPE_SELFOVERLAP>
1035.589

> <PUBCHEM_SHAPE_VOLUME>
286

> <PUBCHEM_COORDINATE_TYPE>
2
5
10

$$$$

