60172
  -OEChem-07051213013D

 30 31  0     0  0  0  0  0  0999 V2000
   -3.4830   -0.8408   -0.2498 P   0  0  0  0  0  0  0  0  0  0  0  0
   -1.8039    1.0123    0.2331 O   0  0  0  0  0  0  0  0  0  0  0  0
   -2.3927   -1.5867   -1.1811 O   0  0  0  0  0  0  0  0  0  0  0  0
   -4.8500   -0.9691   -1.1025 O   0  0  0  0  0  0  0  0  0  0  0  0
   -3.5660   -1.3397    1.1619 O   0  0  0  0  0  0  0  0  0  0  0  0
    1.0352    1.6426    0.2483 N   0  0  0  0  0  0  0  0  0  0  0  0
    2.6805    1.1264   -1.1373 N   0  0  0  0  0  0  0  0  0  0  0  0
    0.7620   -0.4669    1.4141 N   0  0  0  0  0  0  0  0  0  0  0  0
    2.3420   -2.1307    0.5824 N   0  0  0  0  0  0  0  0  0  0  0  0
    3.9166   -1.6515   -1.1549 N   0  0  0  0  0  0  0  0  0  0  0  0
    0.0083    2.4459    0.9082 C   0  0  0  0  0  0  0  0  0  0  0  0
   -1.3415    2.3556    0.2093 C   0  0  0  0  0  0  0  0  0  0  0  0
    1.3310    0.3470    0.5123 C   0  0  0  0  0  0  0  0  0  0  0  0
    2.3614    0.0400   -0.3619 C   0  0  0  0  0  0  0  0  0  0  0  0
    1.8591    2.0764   -0.7416 C   0  0  0  0  0  0  0  0  0  0  0  0
   -3.0644    0.8824   -0.4104 C   0  0  0  0  0  0  0  0  0  0  0  0
    2.8696   -1.2539   -0.3055 C   0  0  0  0  0  0  0  0  0  0  0  0
    1.3358   -1.6892    1.3754 C   0  0  0  0  0  0  0  0  0  0  0  0
   -0.0622    2.0861    1.9409 H   0  0  0  0  0  0  0  0  0  0  0  0
    0.3669    3.4808    0.9306 H   0  0  0  0  0  0  0  0  0  0  0  0
   -2.0611    2.9995    0.7276 H   0  0  0  0  0  0  0  0  0  0  0  0
   -1.2529    2.6925   -0.8305 H   0  0  0  0  0  0  0  0  0  0  0  0
    1.8242    3.0815   -1.1394 H   0  0  0  0  0  0  0  0  0  0  0  0
   -3.8132    1.5047    0.0895 H   0  0  0  0  0  0  0  0  0  0  0  0
   -2.9867    1.1701   -1.4637 H   0  0  0  0  0  0  0  0  0  0  0  0
    0.9369   -2.4175    2.0734 H   0  0  0  0  0  0  0  0  0  0  0  0
    4.2688   -2.5971   -1.0948 H   0  0  0  0  0  0  0  0  0  0  0  0
    4.3121   -0.9990   -1.8182 H   0  0  0  0  0  0  0  0  0  0  0  0
   -2.4012   -2.5663   -1.2308 H   0  0  0  0  0  0  0  0  0  0  0  0
   -5.3075   -1.8360   -1.1386 H   0  0  0  0  0  0  0  0  0  0  0  0
  1  3  1  0  0  0  0
  1  4  1  0  0  0  0
  1  5  2  0  0  0  0
  1 16  1  0  0  0  0
  2 12  1  0  0  0  0
  2 16  1  0  0  0  0
  3 29  1  0  0  0  0
  4 30  1  0  0  0  0
  6 11  1  0  0  0  0
  6 13  1  0  0  0  0
  6 15  1  0  0  0  0
  7 14  1  0  0  0  0
  7 15  2  0  0  0  0
  8 13  2  0  0  0  0
  8 18  1  0  0  0  0
  9 17  1  0  0  0  0
  9 18  2  0  0  0  0
 10 17  1  0  0  0  0
 10 27  1  0  0  0  0
 10 28  1  0  0  0  0
 11 12  1  0  0  0  0
 11 19  1  0  0  0  0
 11 20  1  0  0  0  0
 12 21  1  0  0  0  0
 12 22  1  0  0  0  0
 13 14  1  0  0  0  0
 14 17  2  0  0  0  0
 15 23  1  0  0  0  0
 16 24  1  0  0  0  0
 16 25  1  0  0  0  0
 18 26  1  0  0  0  0
M  END
> <PUBCHEM_COMPOUND_CID>
60172

> <PUBCHEM_CONFORMER_RMSD>
0.6

> <PUBCHEM_CONFORMER_DIVERSEORDER>
1
11
2
15
33
19
23
31
24
7
18
8
25
5
29
12
22
14
6
10
35
21
37
26
13
32
16
9
17
3
4
30
20
36
34
38
27
28

> <PUBCHEM_MMFF94_PARTIAL_CHARGES>
24
1 1.24
10 -0.9
11 0.26
12 0.28
13 0.11
14 0.23
15 0.04
16 0.28
17 0.41
18 0.47
2 -0.56
23 0.15
26 0.15
27 0.4
28 0.4
29 0.5
3 -0.77
30 0.5
4 -0.77
5 -0.7
6 0.05
7 -0.57
8 -0.57
9 -0.62

> <PUBCHEM_EFFECTIVE_ROTOR_COUNT>
5

> <PUBCHEM_PHARMACOPHORE_FEATURES>
12
1 10 cation
1 10 donor
1 2 acceptor
1 3 acceptor
1 4 acceptor
1 5 acceptor
3 6 7 15 cation
3 6 8 13 cation
3 8 9 18 cation
4 1 3 4 5 anion
5 6 7 13 14 15 rings
6 8 9 13 14 17 18 rings

> <PUBCHEM_HEAVY_ATOM_COUNT>
18

> <PUBCHEM_ATOM_DEF_STEREO_COUNT>
0

> <PUBCHEM_ATOM_UDEF_STEREO_COUNT>
0

> <PUBCHEM_BOND_DEF_STEREO_COUNT>
0

> <PUBCHEM_BOND_UDEF_STEREO_COUNT>
0

> <PUBCHEM_ISOTOPIC_ATOM_COUNT>
0

> <PUBCHEM_COMPONENT_COUNT>
1

> <PUBCHEM_CACTVS_TAUTO_COUNT>
3

> <PUBCHEM_CONFORMER_ID>
0000EB0C00000001

> <PUBCHEM_MMFF94_ENERGY>
-1.4025

> <PUBCHEM_FEATURE_SELFOVERLAP>
61.539

> <PUBCHEM_SHAPE_FINGERPRINT>
11640471 11 10231746790998560617
11806522 49 18410856590358935208
12400797 292 18341889692977703892
12553582 1 18340206413869169913
15635459 17 18126286342397848995
16752209 62 18047766068088567897
16945 1 17555988614887669984
20291156 8 18408886265131375733
20645477 70 18337401431126648397
21634736 98 18412537734741648828
21713013 43 17846214436923747295
21731516 1 18333733520197099105
23379529 103 18188756323411080678
23402539 116 18128248090396292098
23557571 272 18187660127486611250
23598291 2 18340193193812678821
238 59 18126850387203667387
2838139 119 14691702357067907782
2871803 45 18343866593525555957
6786 2 16088430475701704592
94968 8 18337112255041616485
960060 61 18341062813616412413

> <PUBCHEM_SHAPE_MULTIPOLES>
325.9
6.97
2.79
1.25
5.96
0.86
-0.1
-4.16
2.58
-0.54
-0.25
-0.12
-0.35
-0.5

> <PUBCHEM_SHAPE_SELFOVERLAP>
671.615

> <PUBCHEM_SHAPE_VOLUME>
188.6

> <PUBCHEM_COORDINATE_TYPE>
2
5
10

$$$$

