159516
  -OEChem-07051212553D

 74 78  0     1  0  0  0  0  0999 V2000
    3.3033   -3.0644   -0.0242 O   0  0  0  0  0  0  0  0  0  0  0  0
    3.7290   -2.0859    2.0246 O   0  0  0  0  0  0  0  0  0  0  0  0
   -7.0278   -1.2498    0.7728 O   0  0  0  0  0  0  0  0  0  0  0  0
   -5.4329   -2.8082   -0.8680 O   0  0  0  0  0  0  0  0  0  0  0  0
    1.2773    0.3807   -0.5136 C   0  0  1  0  0  0  0  0  0  0  0  0
    2.8098    0.7035   -0.8080 C   0  0  1  0  0  0  0  0  0  0  0  0
    0.4678    1.7222   -0.2744 C   0  0  2  0  0  0  0  0  0  0  0  0
    3.5199    1.7225    0.1573 C   0  0  1  0  0  0  0  0  0  0  0  0
    1.1252    2.4364    0.9462 C   0  0  0  0  0  0  0  0  0  0  0  0
    2.5863    2.8213    0.7302 C   0  0  0  0  0  0  0  0  0  0  0  0
    0.6321   -0.3447   -1.7348 C   0  0  0  0  0  0  0  0  0  0  0  0
    3.7251   -0.5241   -1.1242 C   0  0  0  0  0  0  0  0  0  0  0  0
   -1.0476    1.3962   -0.0682 C   0  0  0  0  0  0  0  0  0  0  0  0
    4.2205    1.0155    1.3430 C   0  0  0  0  0  0  0  0  0  0  0  0
   -1.7762    0.4687   -1.0828 C   0  0  1  0  0  0  0  0  0  0  0  0
    4.6092   -1.1167   -0.0038 C   0  0  2  0  0  0  0  0  0  0  0  0
   -0.8450   -0.6952   -1.5262 C   0  0  0  0  0  0  0  0  0  0  0  0
    1.1303   -0.5762    0.7008 C   0  0  0  0  0  0  0  0  0  0  0  0
    5.2142   -0.0608    0.9230 C   0  0  0  0  0  0  0  0  0  0  0  0
    0.5525    2.7270   -1.4616 C   0  0  0  0  0  0  0  0  0  0  0  0
    4.6183    2.4787   -0.6515 C   0  0  0  0  0  0  0  0  0  0  0  0
   -3.1057   -0.1194   -0.5008 C   0  0  0  0  0  0  0  0  0  0  0  0
   -1.7389    1.8758    0.9839 C   0  0  0  0  0  0  0  0  0  0  0  0
   -2.2184    1.2776   -2.3309 C   0  0  0  0  0  0  0  0  0  0  0  0
    5.7530   -1.9313   -0.6435 C   0  0  0  0  0  0  0  0  0  0  0  0
    3.8396   -2.1259    0.8067 C   0  0  0  0  0  0  0  0  0  0  0  0
   -3.7946    0.6006    0.5841 C   0  0  0  0  0  0  0  0  0  0  0  0
   -3.1217    1.5680    1.2329 C   0  0  0  0  0  0  0  0  0  0  0  0
   -3.6775   -1.2398   -0.9832 C   0  0  0  0  0  0  0  0  0  0  0  0
   -5.1861    0.2607    0.9436 C   0  0  0  0  0  0  0  0  0  0  0  0
   -4.9841   -1.7317   -0.4872 C   0  0  0  0  0  0  0  0  0  0  0  0
   -5.7452   -0.8595    0.4462 C   0  0  0  0  0  0  0  0  0  0  0  0
   -5.9529    1.1697    1.8729 C   0  0  0  0  0  0  0  0  0  0  0  0
    2.5414   -4.0913    0.6185 C   0  0  0  0  0  0  0  0  0  0  0  0
    2.7576    1.2206   -1.7790 H   0  0  0  0  0  0  0  0  0  0  0  0
    1.0479    1.8214    1.8504 H   0  0  0  0  0  0  0  0  0  0  0  0
    0.5909    3.3694    1.1708 H   0  0  0  0  0  0  0  0  0  0  0  0
    2.6064    3.7069    0.0821 H   0  0  0  0  0  0  0  0  0  0  0  0
    2.9847    3.1943    1.6839 H   0  0  0  0  0  0  0  0  0  0  0  0
    1.1461   -1.2900   -1.9390 H   0  0  0  0  0  0  0  0  0  0  0  0
    0.7480    0.2461   -2.6494 H   0  0  0  0  0  0  0  0  0  0  0  0
    3.1584   -1.3071   -1.6330 H   0  0  0  0  0  0  0  0  0  0  0  0
    4.4156   -0.1701   -1.9054 H   0  0  0  0  0  0  0  0  0  0  0  0
    3.4892    0.5964    2.0373 H   0  0  0  0  0  0  0  0  0  0  0  0
    4.7734    1.7575    1.9361 H   0  0  0  0  0  0  0  0  0  0  0  0
   -1.2087   -1.1300   -2.4674 H   0  0  0  0  0  0  0  0  0  0  0  0
   -0.8950   -1.5104   -0.7915 H   0  0  0  0  0  0  0  0  0  0  0  0
    1.3482   -1.6017    0.4116 H   0  0  0  0  0  0  0  0  0  0  0  0
    1.7622   -0.3031    1.5412 H   0  0  0  0  0  0  0  0  0  0  0  0
    0.1108   -0.6006    1.0986 H   0  0  0  0  0  0  0  0  0  0  0  0
    6.0676    0.4206    0.4297 H   0  0  0  0  0  0  0  0  0  0  0  0
    5.6394   -0.5205    1.8250 H   0  0  0  0  0  0  0  0  0  0  0  0
    1.5602    3.1099   -1.6366 H   0  0  0  0  0  0  0  0  0  0  0  0
    0.2553    2.3005   -2.4167 H   0  0  0  0  0  0  0  0  0  0  0  0
   -0.0887    3.5982   -1.2782 H   0  0  0  0  0  0  0  0  0  0  0  0
    5.3421    1.8052   -1.1186 H   0  0  0  0  0  0  0  0  0  0  0  0
    4.1733    3.0705   -1.4603 H   0  0  0  0  0  0  0  0  0  0  0  0
    5.1752    3.1697   -0.0079 H   0  0  0  0  0  0  0  0  0  0  0  0
   -1.2924    2.5241    1.7282 H   0  0  0  0  0  0  0  0  0  0  0  0
   -2.5958    2.2705   -2.0591 H   0  0  0  0  0  0  0  0  0  0  0  0
   -1.4123    1.4060   -3.0561 H   0  0  0  0  0  0  0  0  0  0  0  0
   -3.0189    0.7704   -2.8844 H   0  0  0  0  0  0  0  0  0  0  0  0
    5.3841   -2.6752   -1.3592 H   0  0  0  0  0  0  0  0  0  0  0  0
    6.4439   -1.2776   -1.1886 H   0  0  0  0  0  0  0  0  0  0  0  0
    6.3349   -2.4674    0.1162 H   0  0  0  0  0  0  0  0  0  0  0  0
   -3.5619    2.1330    2.0490 H   0  0  0  0  0  0  0  0  0  0  0  0
   -3.2363   -1.8211   -1.7846 H   0  0  0  0  0  0  0  0  0  0  0  0
   -5.6233    1.0262    2.9073 H   0  0  0  0  0  0  0  0  0  0  0  0
   -7.0372    1.0363    1.8395 H   0  0  0  0  0  0  0  0  0  0  0  0
   -5.7992    2.2202    1.5990 H   0  0  0  0  0  0  0  0  0  0  0  0
    3.2214   -4.8180    1.0722 H   0  0  0  0  0  0  0  0  0  0  0  0
    1.9441   -4.5970   -0.1449 H   0  0  0  0  0  0  0  0  0  0  0  0
    1.8637   -3.6817    1.3736 H   0  0  0  0  0  0  0  0  0  0  0  0
   -7.3133   -0.8167    1.5911 H   0  0  0  0  0  0  0  0  0  0  0  0
  1 26  1  0  0  0  0
  1 34  1  0  0  0  0
  2 26  2  0  0  0  0
  3 32  1  0  0  0  0
  3 74  1  0  0  0  0
  4 31  2  0  0  0  0
  5  6  1  0  0  0  0
  5  7  1  0  0  0  0
  5 11  1  0  0  0  0
  5 18  1  0  0  0  0
  6  8  1  0  0  0  0
  6 12  1  0  0  0  0
  6 35  1  0  0  0  0
  7  9  1  0  0  0  0
  7 13  1  0  0  0  0
  7 20  1  0  0  0  0
  8 10  1  0  0  0  0
  8 14  1  0  0  0  0
  8 21  1  0  0  0  0
  9 10  1  0  0  0  0
  9 36  1  0  0  0  0
  9 37  1  0  0  0  0
 10 38  1  0  0  0  0
 10 39  1  0  0  0  0
 11 17  1  0  0  0  0
 11 40  1  0  0  0  0
 11 41  1  0  0  0  0
 12 16  1  0  0  0  0
 12 42  1  0  0  0  0
 12 43  1  0  0  0  0
 13 15  1  0  0  0  0
 13 23  2  0  0  0  0
 14 19  1  0  0  0  0
 14 44  1  0  0  0  0
 14 45  1  0  0  0  0
 15 17  1  0  0  0  0
 15 22  1  0  0  0  0
 15 24  1  0  0  0  0
 16 19  1  0  0  0  0
 16 25  1  0  0  0  0
 16 26  1  0  0  0  0
 17 46  1  0  0  0  0
 17 47  1  0  0  0  0
 18 48  1  0  0  0  0
 18 49  1  0  0  0  0
 18 50  1  0  0  0  0
 19 51  1  0  0  0  0
 19 52  1  0  0  0  0
 20 53  1  0  0  0  0
 20 54  1  0  0  0  0
 20 55  1  0  0  0  0
 21 56  1  0  0  0  0
 21 57  1  0  0  0  0
 21 58  1  0  0  0  0
 22 27  1  0  0  0  0
 22 29  2  0  0  0  0
 23 28  1  0  0  0  0
 23 59  1  0  0  0  0
 24 60  1  0  0  0  0
 24 61  1  0  0  0  0
 24 62  1  0  0  0  0
 25 63  1  0  0  0  0
 25 64  1  0  0  0  0
 25 65  1  0  0  0  0
 27 28  2  0  0  0  0
 27 30  1  0  0  0  0
 28 66  1  0  0  0  0
 29 31  1  0  0  0  0
 29 67  1  0  0  0  0
 30 32  2  0  0  0  0
 30 33  1  0  0  0  0
 31 32  1  0  0  0  0
 33 68  1  0  0  0  0
 33 69  1  0  0  0  0
 33 70  1  0  0  0  0
 34 71  1  0  0  0  0
 34 72  1  0  0  0  0
 34 73  1  0  0  0  0
M  END
> <PUBCHEM_COMPOUND_CID>
159516

> <PUBCHEM_CONFORMER_RMSD>
0.8

> <PUBCHEM_CONFORMER_DIVERSEORDER>
1
2

> <PUBCHEM_MMFF94_PARTIAL_CHARGES>
22
1 -0.43
13 -0.28
15 0.28
16 0.06
2 -0.57
22 -0.14
23 -0.15
26 0.66
28 -0.15
29 -0.14
3 -0.53
30 -0.14
31 0.54
32 0.09
33 0.14
34 0.28
4 -0.57
59 0.15
66 0.15
67 0.15
7 0.14
74 0.45

> <PUBCHEM_EFFECTIVE_ROTOR_COUNT>
3.6

> <PUBCHEM_PHARMACOPHORE_FEATURES>
8
1 2 acceptor
1 3 donor
1 4 acceptor
6 13 15 22 23 27 28 rings
6 22 27 29 30 31 32 rings
6 5 6 7 8 9 10 rings
6 5 7 11 13 15 17 rings
6 6 8 12 14 16 19 rings

> <PUBCHEM_HEAVY_ATOM_COUNT>
34

> <PUBCHEM_ATOM_DEF_STEREO_COUNT>
6

> <PUBCHEM_ATOM_UDEF_STEREO_COUNT>
0

> <PUBCHEM_BOND_DEF_STEREO_COUNT>
0

> <PUBCHEM_BOND_UDEF_STEREO_COUNT>
0

> <PUBCHEM_ISOTOPIC_ATOM_COUNT>
0

> <PUBCHEM_COMPONENT_COUNT>
1

> <PUBCHEM_CACTVS_TAUTO_COUNT>
8

> <PUBCHEM_CONFORMER_ID>
00026F1C00000001

> <PUBCHEM_MMFF94_ENERGY>
151.6399

> <PUBCHEM_FEATURE_SELFOVERLAP>
40.671

> <PUBCHEM_SHAPE_FINGERPRINT>
10319926 262 17531518879914959061
10928967 22 18200597015543503146
117089 54 17902221540667148214
11763715 3 17916288601989817676
12107183 9 18117830213301443425
12236239 1 18335132081850231777
12422481 6 17386004009284214381
12553582 1 18264781037612290942
12596602 18 17894631443852540530
12633257 1 18187639237240495065
12788726 201 17458611328923878377
131258 38 18115598032238677582
13140716 1 17466245041045979576
13150687 139 17487590011422440262
13224815 77 18340212981048400972
13533116 47 18409446947205018761
13583140 156 18339659934920228252
1361 2 18413388713808212314
13782708 43 17632302301971396658
14341114 176 18333729104891545441
14341114 328 18187920651961166953
14849402 71 18262805043598535712
14955137 171 17676764366250136656
15001296 14 18341336582694521011
15064986 96 16662047156781329606
15250474 111 18334862662883670319
15361156 5 17774147032663804189
16067690 210 16153696652761205947
17349148 13 17918269852880350177
17492 89 18195530513708141002
1813 80 18060416906584708173
19301679 30 18273211994021744313
19319366 153 18266179435924667996
19841028 212 18340495452774814979
20028762 73 18334295362002141478
20775530 9 17982459501230968786
21421861 104 18408605881403399368
21859007 373 18124590049665885189
23522609 53 18121746557255038077
23559900 14 18059005082045970192
25269216 80 16056587786254360159
2838139 119 7709452801986969483
3117164 225 18117274968134215985
34797466 226 15697992994861661477
3633792 109 18339938078036233335
3680242 22 18187353359658575273
3737641 26 18194402419078538134
3886686 26 17539962197250456827
392239 28 18409449214826737282
4073 2 18196084448445755825
460360 51 18338242690123084092
463206 1 18272650108513597283
5104073 3 17967247585813446393
6086070 43 17822307773034590509
7970288 3 18193275428297709062
86090 222 17632565072302685195

> <PUBCHEM_SHAPE_MULTIPOLES>
676.23
14.07
3.52
1.69
12
1.72
-0.22
6.68
4.14
-3.02
0.44
0.52
-0.28
-1.33

> <PUBCHEM_SHAPE_SELFOVERLAP>
1465.089

> <PUBCHEM_SHAPE_VOLUME>
366.7

> <PUBCHEM_COORDINATE_TYPE>
2
5
10

$$$$

