4228
  -OEChem-06251223582D

 44 46  0     1  0  0  0  0  0999 V2000
    5.4641   -0.5600    0.0000 S   0  0  0  0  0  0  0  0  0  0  0  0
    5.9641   -1.4260    0.0000 O   0  0  0  0  0  0  0  0  0  0  0  0
    4.9641    0.3060    0.0000 O   0  0  0  0  0  0  0  0  0  0  0  0
    4.5981    0.9400    0.0000 O   0  0  0  0  0  0  0  0  0  0  0  0
    4.5981    2.9400    0.0000 O   0  0  0  0  0  0  0  0  0  0  0  0
    2.0000   -2.5600    0.0000 O   0  0  0  0  0  0  0  0  0  0  0  0
    5.4641    2.4400    0.0000 N   0  0  0  0  0  0  0  0  0  0  0  0
    6.3301   -0.0600    0.0000 C   0  0  3  0  0  0  0  0  0  0  0  0
    6.3301    0.9400    0.0000 C   0  0  3  0  0  0  0  0  0  0  0  0
    7.1962   -0.5600    0.0000 C   0  0  0  0  0  0  0  0  0  0  0  0
    7.1962    1.4400    0.0000 C   0  0  0  0  0  0  0  0  0  0  0  0
    8.0622   -0.0600    0.0000 C   0  0  0  0  0  0  0  0  0  0  0  0
    8.0622    0.9400    0.0000 C   0  0  0  0  0  0  0  0  0  0  0  0
    5.4641    1.4400    0.0000 C   0  0  0  0  0  0  0  0  0  0  0  0
    4.5981   -1.0600    0.0000 C   0  0  0  0  0  0  0  0  0  0  0  0
    8.9561   -0.5947    0.0000 C   0  0  0  0  0  0  0  0  0  0  0  0
    8.9561    1.4747    0.0000 C   0  0  0  0  0  0  0  0  0  0  0  0
    9.8622   -0.0808    0.0000 C   0  0  0  0  0  0  0  0  0  0  0  0
    9.8622    0.9608    0.0000 C   0  0  0  0  0  0  0  0  0  0  0  0
    3.7320   -0.5600    0.0000 C   0  0  0  0  0  0  0  0  0  0  0  0
    4.5981   -2.0600    0.0000 C   0  0  0  0  0  0  0  0  0  0  0  0
    2.8660   -1.0600    0.0000 C   0  0  0  0  0  0  0  0  0  0  0  0
    3.7320   -2.5600    0.0000 C   0  0  0  0  0  0  0  0  0  0  0  0
    2.8660   -2.0600    0.0000 C   0  0  0  0  0  0  0  0  0  0  0  0
    2.0000   -3.5600    0.0000 C   0  0  0  0  0  0  0  0  0  0  0  0
    5.7932    0.2500    0.0000 H   0  0  0  0  0  0  0  0  0  0  0  0
    5.7932    0.6300    0.0000 H   0  0  0  0  0  0  0  0  0  0  0  0
    6.7976   -1.0350    0.0000 H   0  0  0  0  0  0  0  0  0  0  0  0
    7.5947   -1.0350    0.0000 H   0  0  0  0  0  0  0  0  0  0  0  0
    7.5947    1.9150    0.0000 H   0  0  0  0  0  0  0  0  0  0  0  0
    6.7976    1.9150    0.0000 H   0  0  0  0  0  0  0  0  0  0  0  0
    8.9490   -1.2146    0.0000 H   0  0  0  0  0  0  0  0  0  0  0  0
    8.9490    2.0946    0.0000 H   0  0  0  0  0  0  0  0  0  0  0  0
   10.3979   -0.3929    0.0000 H   0  0  0  0  0  0  0  0  0  0  0  0
   10.3979    1.2729    0.0000 H   0  0  0  0  0  0  0  0  0  0  0  0
    3.7320    0.0600    0.0000 H   0  0  0  0  0  0  0  0  0  0  0  0
    5.1350   -2.3700    0.0000 H   0  0  0  0  0  0  0  0  0  0  0  0
    6.0010    2.7500    0.0000 H   0  0  0  0  0  0  0  0  0  0  0  0
    2.3291   -0.7500    0.0000 H   0  0  0  0  0  0  0  0  0  0  0  0
    3.7320   -3.1800    0.0000 H   0  0  0  0  0  0  0  0  0  0  0  0
    4.5981    3.5600    0.0000 H   0  0  0  0  0  0  0  0  0  0  0  0
    1.3800   -3.5600    0.0000 H   0  0  0  0  0  0  0  0  0  0  0  0
    2.0000   -4.1800    0.0000 H   0  0  0  0  0  0  0  0  0  0  0  0
    2.6200   -3.5600    0.0000 H   0  0  0  0  0  0  0  0  0  0  0  0
  1  2  2  0  0  0  0
  1  3  2  0  0  0  0
  1  8  1  0  0  0  0
  1 15  1  0  0  0  0
  4 14  2  0  0  0  0
  5  7  1  0  0  0  0
  5 41  1  0  0  0  0
  6 24  1  0  0  0  0
  6 25  1  0  0  0  0
  7 14  1  0  0  0  0
  7 38  1  0  0  0  0
  8  9  1  0  0  0  0
  8 10  1  0  0  0  0
  8 26  1  0  0  0  0
  9 11  1  0  0  0  0
  9 14  1  0  0  0  0
  9 27  1  0  0  0  0
 10 12  1  0  0  0  0
 10 28  1  0  0  0  0
 10 29  1  0  0  0  0
 11 13  1  0  0  0  0
 11 30  1  0  0  0  0
 11 31  1  0  0  0  0
 12 13  1  0  0  0  0
 12 16  2  0  0  0  0
 13 17  2  0  0  0  0
 15 20  2  0  0  0  0
 15 21  1  0  0  0  0
 16 18  1  0  0  0  0
 16 32  1  0  0  0  0
 17 19  1  0  0  0  0
 17 33  1  0  0  0  0
 18 19  2  0  0  0  0
 18 34  1  0  0  0  0
 19 35  1  0  0  0  0
 20 22  1  0  0  0  0
 20 36  1  0  0  0  0
 21 23  2  0  0  0  0
 21 37  1  0  0  0  0
 22 24  2  0  0  0  0
 22 39  1  0  0  0  0
 23 24  1  0  0  0  0
 23 40  1  0  0  0  0
 25 42  1  0  0  0  0
 25 43  1  0  0  0  0
 25 44  1  0  0  0  0
M  END
> <PUBCHEM_COMPOUND_CID>
4228

> <PUBCHEM_COMPOUND_CANONICALIZED>
1

> <PUBCHEM_CACTVS_COMPLEXITY>
565

> <PUBCHEM_CACTVS_HBOND_ACCEPTOR>
5

> <PUBCHEM_CACTVS_HBOND_DONOR>
2

> <PUBCHEM_CACTVS_ROTATABLE_BOND>
4

> <PUBCHEM_CACTVS_SUBSKEYS>
AAADceB6OABAAAAAAAAAAAAAAAAAAAAAAAAwYMAAAAAAAADBQAAAHgQUCAAADQSF2AKyB4BQBAqIAiFSEHBCCAAgKBAoiBkGCIgMJjKksRqAMCAk0BEoqAeYyMCOgIAAAAAQAAChAAUAACgAAAAAAAAAAA==

> <PUBCHEM_IUPAC_OPENEYE_NAME>
3-(4-methoxyphenyl)sulfonyltetralin-2-carbohydroxamic acid

> <PUBCHEM_IUPAC_CAS_NAME>
N-hydroxy-3-(4-methoxyphenyl)sulfonyl-1,2,3,4-tetrahydronaphthalene-2-carboxamide

> <PUBCHEM_IUPAC_NAME>
N-hydroxy-3-(4-methoxyphenyl)sulfonyl-1,2,3,4-tetrahydronaphthalene-2-carboxamide

> <PUBCHEM_IUPAC_SYSTEMATIC_NAME>
3-(4-methoxyphenyl)sulfonyl-N-oxidanyl-1,2,3,4-tetrahydronaphthalene-2-carboxamide

> <PUBCHEM_IUPAC_TRADITIONAL_NAME>
3-(4-methoxyphenyl)sulfonyltetralin-2-carbohydroxamic acid

> <PUBCHEM_IUPAC_INCHI>
InChI=1S/C18H19NO5S/c1-24-14-6-8-15(9-7-14)25(22,23)17-11-13-5-3-2-4-12(13)10-16(17)18(20)19-21/h2-9,16-17,21H,10-11H2,1H3,(H,19,20)

> <PUBCHEM_IUPAC_INCHIKEY>
ARTDYGQDGKKMOC-UHFFFAOYSA-N

> <PUBCHEM_XLOGP3_AA>
2

> <PUBCHEM_EXACT_MASS>
361.098394

> <PUBCHEM_MOLECULAR_FORMULA>
C18H19NO5S

> <PUBCHEM_MOLECULAR_WEIGHT>
361.41216

> <PUBCHEM_OPENEYE_CAN_SMILES>
COC1=CC=C(C=C1)S(=O)(=O)C2CC3=CC=CC=C3CC2C(=O)NO

> <PUBCHEM_OPENEYE_ISO_SMILES>
COC1=CC=C(C=C1)S(=O)(=O)C2CC3=CC=CC=C3CC2C(=O)NO

> <PUBCHEM_CACTVS_TPSA>
101

> <PUBCHEM_MONOISOTOPIC_WEIGHT>
361.098394

> <PUBCHEM_TOTAL_CHARGE>
0

> <PUBCHEM_HEAVY_ATOM_COUNT>
25

> <PUBCHEM_ATOM_DEF_STEREO_COUNT>
0

> <PUBCHEM_ATOM_UDEF_STEREO_COUNT>
2

> <PUBCHEM_BOND_DEF_STEREO_COUNT>
0

> <PUBCHEM_BOND_UDEF_STEREO_COUNT>
0

> <PUBCHEM_ISOTOPIC_ATOM_COUNT>
0

> <PUBCHEM_COMPONENT_COUNT>
1

> <PUBCHEM_CACTVS_TAUTO_COUNT>
4

> <PUBCHEM_COORDINATE_TYPE>
1
5
255

> <PUBCHEM_BONDANNOTATIONS>
8  1  3
12  13  8
12  16  8
13  17  8
15  20  8
15  21  8
16  18  8
17  19  8
18  19  8
20  22  8
21  23  8
22  24  8
23  24  8
9  14  3

$$$$

