442194
  -OEChem-07051212572D

 43 47  0     1  0  0  0  0  0999 V2000
    7.3092    1.4497    0.0000 O   0  0  0  0  0  0  0  0  0  0  0  0
    7.3092    3.0591    0.0000 O   0  0  0  0  0  0  0  0  0  0  0  0
    7.3534   -1.8826    0.0000 O   0  0  0  0  0  0  0  0  0  0  0  0
    5.5501   -2.9423    0.0000 O   0  0  0  0  0  0  0  0  0  0  0  0
    2.8816    1.7758    0.0000 N   0  0  3  0  0  0  0  0  0  0  0  0
    3.7209    1.2475    0.0000 C   0  0  2  0  0  0  0  0  0  0  0  0
    4.6309    1.7544    0.0000 C   0  0  0  0  0  0  0  0  0  0  0  0
    3.7129    0.2059    0.0000 C   0  0  0  0  0  0  0  0  0  0  0  0
    4.6309    2.7544    0.0000 C   0  0  0  0  0  0  0  0  0  0  0  0
    5.4969    1.2544    0.0000 C   0  0  0  0  0  0  0  0  0  0  0  0
    2.9072    2.7672    0.0000 C   0  0  0  0  0  0  0  0  0  0  0  0
    3.7727    3.2513    0.0000 C   0  0  0  0  0  0  0  0  0  0  0  0
    4.6149   -0.3149    0.0000 C   0  0  0  0  0  0  0  0  0  0  0  0
    5.5130    0.2129    0.0000 C   0  0  0  0  0  0  0  0  0  0  0  0
    6.3629    1.7544    0.0000 C   0  0  0  0  0  0  0  0  0  0  0  0
    5.4969    3.2544    0.0000 C   0  0  0  0  0  0  0  0  0  0  0  0
    6.3629    2.7544    0.0000 C   0  0  0  0  0  0  0  0  0  0  0  0
    2.0000    1.3037    0.0000 C   0  0  0  0  0  0  0  0  0  0  0  0
    4.6066   -1.3998    0.0000 C   0  0  0  0  0  0  0  0  0  0  0  0
    6.4649   -0.3077    0.0000 C   0  0  0  0  0  0  0  0  0  0  0  0
    6.4816   -1.3926    0.0000 C   0  0  0  0  0  0  0  0  0  0  0  0
    5.5462   -1.9423    0.0000 C   0  0  0  0  0  0  0  0  0  0  0  0
    7.8928    2.2544    0.0000 C   0  0  0  0  0  0  0  0  0  0  0  0
    7.3649   -2.8825    0.0000 C   0  0  0  0  0  0  0  0  0  0  0  0
    2.9752    0.8395    0.0000 H   0  0  0  0  0  0  0  0  0  0  0  0
    3.1028    0.3167    0.0000 H   0  0  0  0  0  0  0  0  0  0  0  0
    3.4993   -0.3761    0.0000 H   0  0  0  0  0  0  0  0  0  0  0  0
    2.7054    3.3534    0.0000 H   0  0  0  0  0  0  0  0  0  0  0  0
    2.2944    2.6728    0.0000 H   0  0  0  0  0  0  0  0  0  0  0  0
    4.1737    3.7241    0.0000 H   0  0  0  0  0  0  0  0  0  0  0  0
    3.3786    3.7300    0.0000 H   0  0  0  0  0  0  0  0  0  0  0  0
    5.4969    3.8744    0.0000 H   0  0  0  0  0  0  0  0  0  0  0  0
    1.7073    1.8503    0.0000 H   0  0  0  0  0  0  0  0  0  0  0  0
    1.4534    1.0110    0.0000 H   0  0  0  0  0  0  0  0  0  0  0  0
    2.2927    0.7571    0.0000 H   0  0  0  0  0  0  0  0  0  0  0  0
    4.0684   -1.7078    0.0000 H   0  0  0  0  0  0  0  0  0  0  0  0
    6.9958    0.0126    0.0000 H   0  0  0  0  0  0  0  0  0  0  0  0
    8.3536    1.8397    0.0000 H   0  0  0  0  0  0  0  0  0  0  0  0
    8.3536    2.6691    0.0000 H   0  0  0  0  0  0  0  0  0  0  0  0
    5.0143   -3.2544    0.0000 H   0  0  0  0  0  0  0  0  0  0  0  0
    6.7450   -2.8897    0.0000 H   0  0  0  0  0  0  0  0  0  0  0  0
    7.3721   -3.5024    0.0000 H   0  0  0  0  0  0  0  0  0  0  0  0
    7.9849   -2.8753    0.0000 H   0  0  0  0  0  0  0  0  0  0  0  0
  1 15  1  0  0  0  0
  1 23  1  0  0  0  0
  2 17  1  0  0  0  0
  2 23  1  0  0  0  0
  3 21  1  0  0  0  0
  3 24  1  0  0  0  0
  4 22  1  0  0  0  0
  4 40  1  0  0  0  0
  5  6  1  0  0  0  0
  5 11  1  0  0  0  0
  5 18  1  0  0  0  0
  6  7  1  0  0  0  0
  6  8  1  0  0  0  0
  6 25  1  1  0  0  0
  7  9  1  0  0  0  0
  7 10  2  0  0  0  0
  8 13  1  0  0  0  0
  8 26  1  0  0  0  0
  8 27  1  0  0  0  0
  9 12  1  0  0  0  0
  9 16  2  0  0  0  0
 10 14  1  0  0  0  0
 10 15  1  0  0  0  0
 11 12  1  0  0  0  0
 11 28  1  0  0  0  0
 11 29  1  0  0  0  0
 12 30  1  0  0  0  0
 12 31  1  0  0  0  0
 13 14  1  0  0  0  0
 13 19  2  0  0  0  0
 14 20  2  0  0  0  0
 15 17  2  0  0  0  0
 16 17  1  0  0  0  0
 16 32  1  0  0  0  0
 18 33  1  0  0  0  0
 18 34  1  0  0  0  0
 18 35  1  0  0  0  0
 19 22  1  0  0  0  0
 19 36  1  0  0  0  0
 20 21  1  0  0  0  0
 20 37  1  0  0  0  0
 21 22  2  0  0  0  0
 23 38  1  0  0  0  0
 23 39  1  0  0  0  0
 24 41  1  0  0  0  0
 24 42  1  0  0  0  0
 24 43  1  0  0  0  0
M  END
> <PUBCHEM_COMPOUND_CID>
442194

> <PUBCHEM_COMPOUND_CANONICALIZED>
1

> <PUBCHEM_CACTVS_COMPLEXITY>
488

> <PUBCHEM_CACTVS_HBOND_ACCEPTOR>
5

> <PUBCHEM_CACTVS_HBOND_DONOR>
1

> <PUBCHEM_CACTVS_ROTATABLE_BOND>
1

> <PUBCHEM_CACTVS_SUBSKEYS>
AAADceB6OAAAAAAAAAAAAAAAAAAAASAAAAA8YMEAAAAAAEjxQAAAHgAACAAADCzBmAcyDoMABgCAAiBCAACCCAAgIAAAiAAOjIgdJiKGsRukcCtkwBGPuAew8P8OoAADAAAYQADQAAaAADSAAAAAAAAAAA==

> <PUBCHEM_IUPAC_INCHI>
InChI=1S/C19H19NO4/c1-20-4-3-10-7-16-19(24-9-23-16)18-12-8-15(22-2)14(21)6-11(12)5-13(20)17(10)18/h6-8,13,21H,3-5,9H2,1-2H3/t13-/m0/s1

> <PUBCHEM_IUPAC_INCHIKEY>
MPWZJVCAMFAIGV-ZDUSSCGKSA-N

> <PUBCHEM_XLOGP3_AA>
2.9

> <PUBCHEM_EXACT_MASS>
325.131408

> <PUBCHEM_MOLECULAR_FORMULA>
C19H19NO4

> <PUBCHEM_MOLECULAR_WEIGHT>
325.35846

> <PUBCHEM_OPENEYE_CAN_SMILES>
CN1CCC2=CC3=C(C4=C2C1CC5=CC(=C(C=C54)OC)O)OCO3

> <PUBCHEM_OPENEYE_ISO_SMILES>
CN1CCC2=CC3=C(C4=C2[C@@H]1CC5=CC(=C(C=C54)OC)O)OCO3

> <PUBCHEM_CACTVS_TPSA>
51.2

> <PUBCHEM_MONOISOTOPIC_WEIGHT>
325.131408

> <PUBCHEM_TOTAL_CHARGE>
0

> <PUBCHEM_HEAVY_ATOM_COUNT>
24

> <PUBCHEM_ATOM_DEF_STEREO_COUNT>
1

> <PUBCHEM_ATOM_UDEF_STEREO_COUNT>
0

> <PUBCHEM_BOND_DEF_STEREO_COUNT>
0

> <PUBCHEM_BOND_UDEF_STEREO_COUNT>
0

> <PUBCHEM_ISOTOPIC_ATOM_COUNT>
0

> <PUBCHEM_COMPONENT_COUNT>
1

> <PUBCHEM_CACTVS_TAUTO_COUNT>
9

> <PUBCHEM_COORDINATE_TYPE>
1
5
255

> <PUBCHEM_BONDANNOTATIONS>
10  15  8
13  14  8
13  19  8
14  20  8
15  17  8
16  17  8
19  22  8
20  21  8
21  22  8
6  25  5
7  10  8
7  9  8
9  16  8

$$$$

