11954099
  -OEChem-07051213063D

 49 52  0     1  0  0  0  0  0999 V2000
    5.9360   -0.2086   -0.9401 O   0  0  0  0  0  0  0  0  0  0  0  0
   -1.6317    0.7520   -0.1715 C   0  0  1  0  0  0  0  0  0  0  0  0
   -0.2027    0.8353    0.3711 C   0  0  1  0  0  0  0  0  0  0  0  0
   -2.4038   -0.4577    0.3983 C   0  0  2  0  0  0  0  0  0  0  0  0
    0.5663   -0.4509   -0.0518 C   0  0  2  0  0  0  0  0  0  0  0  0
   -1.6847   -1.7284   -0.0809 C   0  0  0  0  0  0  0  0  0  0  0  0
   -0.2032   -1.7385    0.3377 C   0  0  0  0  0  0  0  0  0  0  0  0
    2.0260   -0.4396    0.4966 C   0  0  2  0  0  0  0  0  0  0  0  0
   -2.5787    1.9261    0.0508 C   0  0  0  0  0  0  0  0  0  0  0  0
    0.5383    2.0764   -0.1410 C   0  0  0  0  0  0  0  0  0  0  0  0
   -3.7781   -0.1564   -0.1703 C   0  0  0  0  0  0  0  0  0  0  0  0
   -3.9453    1.3405   -0.3330 C   0  0  0  0  0  0  0  0  0  0  0  0
    1.9525    2.1331    0.4265 C   0  0  0  0  0  0  0  0  0  0  0  0
    2.7298    0.8683    0.1589 C   0  0  0  0  0  0  0  0  0  0  0  0
   -2.5414   -0.4804    1.9393 C   0  0  0  0  0  0  0  0  0  0  0  0
    2.8079   -1.6622   -0.0271 C   0  0  0  0  0  0  0  0  0  0  0  0
   -4.6989   -1.0499   -0.5512 C   0  0  0  0  0  0  0  0  0  0  0  0
    4.3040   -1.5410    0.2031 C   0  0  0  0  0  0  0  0  0  0  0  0
    3.9854    0.9431   -0.3110 C   0  0  0  0  0  0  0  0  0  0  0  0
    4.8233   -0.2729   -0.4227 C   0  0  0  0  0  0  0  0  0  0  0  0
   -6.0011   -0.6882   -1.1816 C   0  0  0  0  0  0  0  0  0  0  0  0
   -1.5466    0.6338   -1.2661 H   0  0  0  0  0  0  0  0  0  0  0  0
   -0.2283    0.8961    1.4662 H   0  0  0  0  0  0  0  0  0  0  0  0
    0.6267   -0.4461   -1.1515 H   0  0  0  0  0  0  0  0  0  0  0  0
   -1.7401   -1.8025   -1.1753 H   0  0  0  0  0  0  0  0  0  0  0  0
   -2.1750   -2.6268    0.3138 H   0  0  0  0  0  0  0  0  0  0  0  0
   -0.1260   -1.8987    1.4194 H   0  0  0  0  0  0  0  0  0  0  0  0
    0.2647   -2.6099   -0.1345 H   0  0  0  0  0  0  0  0  0  0  0  0
    1.9849   -0.5059    1.5932 H   0  0  0  0  0  0  0  0  0  0  0  0
   -2.3299    2.7891   -0.5751 H   0  0  0  0  0  0  0  0  0  0  0  0
   -2.5719    2.2606    1.0942 H   0  0  0  0  0  0  0  0  0  0  0  0
    0.0058    2.9870    0.1563 H   0  0  0  0  0  0  0  0  0  0  0  0
    0.5764    2.0709   -1.2379 H   0  0  0  0  0  0  0  0  0  0  0  0
   -4.1695    1.5925   -1.3755 H   0  0  0  0  0  0  0  0  0  0  0  0
   -4.7293    1.7417    0.3167 H   0  0  0  0  0  0  0  0  0  0  0  0
    1.9002    2.2824    1.5127 H   0  0  0  0  0  0  0  0  0  0  0  0
    2.4639    3.0116    0.0149 H   0  0  0  0  0  0  0  0  0  0  0  0
   -3.1213   -1.3557    2.2577 H   0  0  0  0  0  0  0  0  0  0  0  0
   -1.5769   -0.5341    2.4512 H   0  0  0  0  0  0  0  0  0  0  0  0
   -3.0613    0.4012    2.3301 H   0  0  0  0  0  0  0  0  0  0  0  0
    2.6248   -1.7850   -1.1033 H   0  0  0  0  0  0  0  0  0  0  0  0
    2.4529   -2.5756    0.4636 H   0  0  0  0  0  0  0  0  0  0  0  0
   -4.5019   -2.1108   -0.4257 H   0  0  0  0  0  0  0  0  0  0  0  0
    4.8140   -2.3949   -0.2559 H   0  0  0  0  0  0  0  0  0  0  0  0
    4.5439   -1.5286    1.2717 H   0  0  0  0  0  0  0  0  0  0  0  0
    4.4552    1.8894   -0.5560 H   0  0  0  0  0  0  0  0  0  0  0  0
   -6.0458   -1.0976   -2.1957 H   0  0  0  0  0  0  0  0  0  0  0  0
   -6.1848    0.3871   -1.2436 H   0  0  0  0  0  0  0  0  0  0  0  0
   -6.8204   -1.1283   -0.6039 H   0  0  0  0  0  0  0  0  0  0  0  0
  1 20  2  0  0  0  0
  2  3  1  0  0  0  0
  2  4  1  0  0  0  0
  2  9  1  0  0  0  0
  2 22  1  0  0  0  0
  3  5  1  0  0  0  0
  3 10  1  0  0  0  0
  3 23  1  0  0  0  0
  4  6  1  0  0  0  0
  4 11  1  0  0  0  0
  4 15  1  0  0  0  0
  5  7  1  0  0  0  0
  5  8  1  0  0  0  0
  5 24  1  0  0  0  0
  6  7  1  0  0  0  0
  6 25  1  0  0  0  0
  6 26  1  0  0  0  0
  7 27  1  0  0  0  0
  7 28  1  0  0  0  0
  8 14  1  0  0  0  0
  8 16  1  0  0  0  0
  8 29  1  0  0  0  0
  9 12  1  0  0  0  0
  9 30  1  0  0  0  0
  9 31  1  0  0  0  0
 10 13  1  0  0  0  0
 10 32  1  0  0  0  0
 10 33  1  0  0  0  0
 11 12  1  0  0  0  0
 11 17  2  0  0  0  0
 12 34  1  0  0  0  0
 12 35  1  0  0  0  0
 13 14  1  0  0  0  0
 13 36  1  0  0  0  0
 13 37  1  0  0  0  0
 14 19  2  0  0  0  0
 15 38  1  0  0  0  0
 15 39  1  0  0  0  0
 15 40  1  0  0  0  0
 16 18  1  0  0  0  0
 16 41  1  0  0  0  0
 16 42  1  0  0  0  0
 17 21  1  0  0  0  0
 17 43  1  0  0  0  0
 18 20  1  0  0  0  0
 18 44  1  0  0  0  0
 18 45  1  0  0  0  0
 19 20  1  0  0  0  0
 19 46  1  0  0  0  0
 21 47  1  0  0  0  0
 21 48  1  0  0  0  0
 21 49  1  0  0  0  0
M  END
> <PUBCHEM_COMPOUND_CID>
11954099

> <PUBCHEM_CONFORMER_RMSD>
0.6

> <PUBCHEM_CONFORMER_DIVERSEORDER>
1

> <PUBCHEM_MMFF94_PARTIAL_CHARGES>
14
1 -0.57
11 -0.28
12 0.14
13 0.14
14 -0.28
17 -0.29
18 0.06
19 -0.14
20 0.49
21 0.14
4 0.14
43 0.15
46 0.15
8 0.14

> <PUBCHEM_EFFECTIVE_ROTOR_COUNT>
1.6

> <PUBCHEM_PHARMACOPHORE_FEATURES>
6
1 1 acceptor
1 21 hydrophobe
5 2 4 9 11 12 rings
6 2 3 4 5 6 7 rings
6 3 5 8 10 13 14 rings
6 8 14 16 18 19 20 rings

> <PUBCHEM_HEAVY_ATOM_COUNT>
21

> <PUBCHEM_ATOM_DEF_STEREO_COUNT>
5

> <PUBCHEM_ATOM_UDEF_STEREO_COUNT>
0

> <PUBCHEM_BOND_DEF_STEREO_COUNT>
1

> <PUBCHEM_BOND_UDEF_STEREO_COUNT>
0

> <PUBCHEM_ISOTOPIC_ATOM_COUNT>
0

> <PUBCHEM_COMPONENT_COUNT>
1

> <PUBCHEM_CACTVS_TAUTO_COUNT>
8

> <PUBCHEM_CONFORMER_ID>
00B667B300000001

> <PUBCHEM_MMFF94_ENERGY>
49.6319

> <PUBCHEM_FEATURE_SELFOVERLAP>
30.543

> <PUBCHEM_SHAPE_FINGERPRINT>
10366900 7 18131070428515620521
10693767 8 18261691328049811751
10967382 1 18411139099837123936
11315181 36 17989483005214393876
11471102 20 18411419484266499312
11578080 2 17058103352929937775
12011746 2 18342740710613836399
12166972 35 17894349951680052017
12236239 1 17531245037401003985
12403259 226 18336273353503204985
12403259 415 18342466936951817949
12403260 363 18408609166752856305
12596602 18 16877663448450808746
13288520 33 18187082854160168165
13533116 47 17895759482716451817
13862211 1 18409733984586520098
14790565 3 17400356145063353897
15048467 5 12535635976961307071
15099037 51 18411982472489634367
15196674 1 18410857689258548848
15536298 74 18334298634782447584
16752209 62 18411986887694993896
16945 1 18267861688024036161
17349148 13 17675920984685743399
17804303 29 18409164407023898352
18222031 100 18186523206920689178
19784866 240 17822006493535643693
200 152 18040437685481078249
20028762 73 17967822608862661879
20645477 70 18334576845784220092
20871999 31 18272369797382897996
21029758 11 18408887334446604057
21267235 1 18409160000408421759
21285901 2 18201163251188409302
21521239 73 18263097535044645095
21637258 2 16009041536457455479
221357 26 18409736161939747565
221490 88 18268706117270085026
23402539 116 18334298698885060773
23559900 14 18266184941513740969
2871803 45 18342744009053799888
3004659 81 18201437039076083658
3286 77 17240769449773118657
335352 9 18338517568040317541
34934 24 18410859850354995162
350125 39 18410574024560979073
351380 180 18410859854185680255
4214541 1 18410293639825258733
4340502 62 5112013871884934701
465052 167 18041277677667604495
474 4 17203036384351662180
4921388 177 16199854099223128817
5104073 3 18410012156216267025
9709674 26 18268994193891110939

> <PUBCHEM_SHAPE_MULTIPOLES>
426.3
11.18
2.11
0.97
1.04
0.48
0.26
-2.44
-3.91
0.27
0.06
-0.63
-0.14
-0.11

> <PUBCHEM_SHAPE_SELFOVERLAP>
912.335

> <PUBCHEM_SHAPE_VOLUME>
234.5

> <PUBCHEM_COORDINATE_TYPE>
2
5
10

$$$$

