179460
  -OEChem-07051213023D

 50 54  0     1  0  0  0  0  0999 V2000
   -4.8172   -0.9099    0.5986 O   0  0  0  0  0  0  0  0  0  0  0  0
   -2.3494    2.7737   -0.7877 O   0  0  0  0  0  0  0  0  0  0  0  0
   -3.7325    3.0827    1.0428 O   0  0  0  0  0  0  0  0  0  0  0  0
   -0.0609   -1.9201   -0.1178 N   0  0  1  0  0  0  0  0  0  0  0  0
    2.2069    1.0455   -0.3565 N   0  0  0  0  0  0  0  0  0  0  0  0
   -2.4514   -1.4077    0.1409 C   0  0  2  0  0  0  0  0  0  0  0  0
   -2.2169    0.0368   -0.3672 C   0  0  2  0  0  0  0  0  0  0  0  0
    0.2222   -0.5510   -0.6290 C   0  0  1  0  0  0  0  0  0  0  0  0
   -0.7764    0.4524   -0.0252 C   0  0  0  0  0  0  0  0  0  0  0  0
   -1.4163   -2.3607   -0.4763 C   0  0  0  0  0  0  0  0  0  0  0  0
   -3.9238   -1.7831   -0.1257 C   0  0  1  0  0  0  0  0  0  0  0  0
    1.6472   -0.2002   -0.3259 C   0  0  0  0  0  0  0  0  0  0  0  0
    0.9616   -2.8935   -0.5572 C   0  0  0  0  0  0  0  0  0  0  0  0
    2.6397   -1.1127   -0.0346 C   0  0  0  0  0  0  0  0  0  0  0  0
    2.3452   -2.5697    0.0557 C   0  0  0  0  0  0  0  0  0  0  0  0
   -3.3058    0.9213    0.1689 C   0  0  0  0  0  0  0  0  0  0  0  0
    3.8497   -0.3913    0.1505 C   0  0  0  0  0  0  0  0  0  0  0  0
   -4.2738   -3.2037    0.3056 C   0  0  0  0  0  0  0  0  0  0  0  0
   -4.4667    0.4161    0.6072 C   0  0  0  0  0  0  0  0  0  0  0  0
    3.5506    0.9597   -0.0571 C   0  0  0  0  0  0  0  0  0  0  0  0
   -3.1735    2.3779    0.2159 C   0  0  0  0  0  0  0  0  0  0  0  0
    5.1740   -0.7504    0.4718 C   0  0  0  0  0  0  0  0  0  0  0  0
    4.5160    1.9683    0.0408 C   0  0  0  0  0  0  0  0  0  0  0  0
    6.1481    0.2491    0.5738 C   0  0  0  0  0  0  0  0  0  0  0  0
    5.8220    1.5869    0.3612 C   0  0  0  0  0  0  0  0  0  0  0  0
   -2.1187    4.1838   -0.8735 C   0  0  0  0  0  0  0  0  0  0  0  0
   -2.3043   -1.4130    1.2333 H   0  0  0  0  0  0  0  0  0  0  0  0
   -2.3130    0.0434   -1.4634 H   0  0  0  0  0  0  0  0  0  0  0  0
    0.1120   -0.5444   -1.7234 H   0  0  0  0  0  0  0  0  0  0  0  0
   -0.6483    0.5134    1.0646 H   0  0  0  0  0  0  0  0  0  0  0  0
   -0.5399    1.4443   -0.4175 H   0  0  0  0  0  0  0  0  0  0  0  0
   -1.5740   -3.3673   -0.0738 H   0  0  0  0  0  0  0  0  0  0  0  0
   -1.5405   -2.4164   -1.5653 H   0  0  0  0  0  0  0  0  0  0  0  0
   -4.1543   -1.6821   -1.1948 H   0  0  0  0  0  0  0  0  0  0  0  0
    1.0290   -2.9021   -1.6534 H   0  0  0  0  0  0  0  0  0  0  0  0
    0.6871   -3.9077   -0.2422 H   0  0  0  0  0  0  0  0  0  0  0  0
    3.1182   -3.1507   -0.4593 H   0  0  0  0  0  0  0  0  0  0  0  0
    2.3542   -2.8650    1.1121 H   0  0  0  0  0  0  0  0  0  0  0  0
    1.7182    1.9049   -0.5662 H   0  0  0  0  0  0  0  0  0  0  0  0
   -4.0256   -3.3637    1.3606 H   0  0  0  0  0  0  0  0  0  0  0  0
   -5.3510   -3.3782    0.2065 H   0  0  0  0  0  0  0  0  0  0  0  0
   -3.7537   -3.9529   -0.2975 H   0  0  0  0  0  0  0  0  0  0  0  0
   -5.2772    0.9988    1.0250 H   0  0  0  0  0  0  0  0  0  0  0  0
    5.4435   -1.7893    0.6395 H   0  0  0  0  0  0  0  0  0  0  0  0
    4.2641    3.0104   -0.1251 H   0  0  0  0  0  0  0  0  0  0  0  0
    7.1707   -0.0230    0.8214 H   0  0  0  0  0  0  0  0  0  0  0  0
    6.5946    2.3470    0.4449 H   0  0  0  0  0  0  0  0  0  0  0  0
   -3.0600    4.7112   -1.0545 H   0  0  0  0  0  0  0  0  0  0  0  0
   -1.4453    4.3671   -1.7150 H   0  0  0  0  0  0  0  0  0  0  0  0
   -1.6426    4.5454    0.0428 H   0  0  0  0  0  0  0  0  0  0  0  0
  1 11  1  0  0  0  0
  1 19  1  0  0  0  0
  2 21  1  0  0  0  0
  2 26  1  0  0  0  0
  3 21  2  0  0  0  0
  4  8  1  0  0  0  0
  4 10  1  0  0  0  0
  4 13  1  0  0  0  0
  5 12  1  0  0  0  0
  5 20  1  0  0  0  0
  5 39  1  0  0  0  0
  6  7  1  0  0  0  0
  6 10  1  0  0  0  0
  6 11  1  0  0  0  0
  6 27  1  0  0  0  0
  7  9  1  0  0  0  0
  7 16  1  0  0  0  0
  7 28  1  0  0  0  0
  8  9  1  0  0  0  0
  8 12  1  0  0  0  0
  8 29  1  0  0  0  0
  9 30  1  0  0  0  0
  9 31  1  0  0  0  0
 10 32  1  0  0  0  0
 10 33  1  0  0  0  0
 11 18  1  0  0  0  0
 11 34  1  0  0  0  0
 12 14  2  0  0  0  0
 13 15  1  0  0  0  0
 13 35  1  0  0  0  0
 13 36  1  0  0  0  0
 14 15  1  0  0  0  0
 14 17  1  0  0  0  0
 15 37  1  0  0  0  0
 15 38  1  0  0  0  0
 16 19  2  0  0  0  0
 16 21  1  0  0  0  0
 17 20  1  0  0  0  0
 17 22  2  0  0  0  0
 18 40  1  0  0  0  0
 18 41  1  0  0  0  0
 18 42  1  0  0  0  0
 19 43  1  0  0  0  0
 20 23  2  0  0  0  0
 22 24  1  0  0  0  0
 22 44  1  0  0  0  0
 23 25  1  0  0  0  0
 23 45  1  0  0  0  0
 24 25  2  0  0  0  0
 24 46  1  0  0  0  0
 25 47  1  0  0  0  0
 26 48  1  0  0  0  0
 26 49  1  0  0  0  0
 26 50  1  0  0  0  0
M  END
> <PUBCHEM_COMPOUND_CID>
179460

> <PUBCHEM_CONFORMER_RMSD>
0.6

> <PUBCHEM_CONFORMER_DIVERSEORDER>
1
3
2

> <PUBCHEM_MMFF94_PARTIAL_CHARGES>
28
1 -0.36
10 0.27
11 0.28
12 -0.33
13 0.27
14 -0.18
15 0.18
16 -0.12
19 -0.07
2 -0.43
20 -0.15
21 0.71
22 -0.15
23 -0.15
24 -0.15
25 -0.15
26 0.28
3 -0.57
39 0.27
4 -0.81
43 0.15
44 0.15
45 0.15
46 0.15
47 0.15
5 0.03
7 0.14
8 0.45

> <PUBCHEM_EFFECTIVE_ROTOR_COUNT>
3.2

> <PUBCHEM_PHARMACOPHORE_FEATURES>
10
1 1 acceptor
1 3 acceptor
1 4 cation
1 5 cation
1 5 donor
5 5 12 14 17 20 rings
6 1 6 7 11 16 19 rings
6 17 20 22 23 24 25 rings
6 4 6 7 8 9 10 rings
6 4 8 12 13 14 15 rings

> <PUBCHEM_HEAVY_ATOM_COUNT>
26

> <PUBCHEM_ATOM_DEF_STEREO_COUNT>
4

> <PUBCHEM_ATOM_UDEF_STEREO_COUNT>
0

> <PUBCHEM_BOND_DEF_STEREO_COUNT>
0

> <PUBCHEM_BOND_UDEF_STEREO_COUNT>
0

> <PUBCHEM_ISOTOPIC_ATOM_COUNT>
0

> <PUBCHEM_COMPONENT_COUNT>
1

> <PUBCHEM_CACTVS_TAUTO_COUNT>
1

> <PUBCHEM_CONFORMER_ID>
0002BD0400000001

> <PUBCHEM_MMFF94_ENERGY>
59.7357

> <PUBCHEM_FEATURE_SELFOVERLAP>
50.96

> <PUBCHEM_SHAPE_FINGERPRINT>
10319926 262 18337405919631626370
10411042 1 17904484004952875895
10670039 82 18341317913194196972
10675989 125 17041488782414499193
1100329 8 17690838965457890023
11595378 159 18059029327337037600
12107183 9 17981052126215085994
12236239 1 18130511829928669578
12390115 104 18261660541612703512
12422481 6 18054809518359364154
12596602 18 17489312927908182472
12925494 130 18262805180404687905
12930653 34 18410009961520055295
13140716 1 17978787913640011451
14178342 30 18343014518958035086
14341114 176 18341609308959551298
14466204 15 18410300237596593816
14790565 3 18410852123772224092
15042514 8 18122624955244430735
15196674 1 18409730643038770702
17349148 13 17632572717196297294
17844677 252 18408878547402348250
21033648 144 18269000941068657037
21033648 29 17894928321077639152
21065198 57 18267303320959208862
21236236 1 18408325471198743973
21267235 1 18339637846462963718
21279426 13 18262233460744524894
21315764 268 18336835204113771184
21756936 100 18114753650854187638
21796203 349 17550915145951658339
21859007 373 17199677603783206333
22956985 138 16905517119141681907
23402539 116 18336832974804049215
23522609 53 17916283070821117308
23559900 14 18190179168613040762
245318 6 17270586968463793908
24771293 8 18187915193838449409
283562 15 18410297978285923483
3117164 225 17983029035263513394
3459 39 18042711480175773472
350125 39 18337108969312676184
392239 28 18337381635353381817
4214541 1 18410575102080604328
469060 322 18267286673998019849
474144 1 17701801207813504124
5104073 3 18341327911139434298
7808743 9 18409171038432012392
9709674 26 18263921206207668215
9981440 41 18412542111192706307

> <PUBCHEM_SHAPE_MULTIPOLES>
507.5
12.32
4.1
0.79
10.65
2.05
0
2.51
3.13
-4.48
-0.54
-0.22
0.2
0.2

> <PUBCHEM_SHAPE_SELFOVERLAP>
1120.363

> <PUBCHEM_SHAPE_VOLUME>
270

> <PUBCHEM_COORDINATE_TYPE>
2
5
10

$$$$

