88125
  -OEChem-07051213093D

 29 30  0     0  0  0  0  0  0999 V2000
   -2.2247   -0.3476   -0.7460 S   0  0  0  0  0  0  0  0  0  0  0  0
   -2.3185    0.5270   -1.9050 O   0  0  0  0  0  0  0  0  0  0  0  0
   -2.7882   -1.6886   -0.8022 O   0  0  0  0  0  0  0  0  0  0  0  0
    2.7742    1.2146   -0.4453 N   0  0  0  0  0  0  0  0  0  0  0  0
    3.4954   -0.5642    0.6751 N   0  0  0  0  0  0  0  0  0  0  0  0
    5.0470    1.1872    0.0841 N   0  0  0  0  0  0  0  0  0  0  0  0
   -2.9890    0.4804    0.6293 C   0  0  0  0  0  0  0  0  0  0  0  0
   -0.5384   -0.4632   -0.2971 C   0  0  0  0  0  0  0  0  0  0  0  0
   -4.4803    0.6668    0.4038 C   0  0  0  0  0  0  0  0  0  0  0  0
    1.6703    0.4204   -0.2695 C   0  0  0  0  0  0  0  0  0  0  0  0
    0.3367    0.5684   -0.6525 C   0  0  0  0  0  0  0  0  0  0  0  0
    2.1463   -0.6835    0.4323 C   0  0  0  0  0  0  0  0  0  0  0  0
   -0.0906   -1.5832    0.4071 C   0  0  0  0  0  0  0  0  0  0  0  0
    1.2531   -1.7104    0.7812 C   0  0  0  0  0  0  0  0  0  0  0  0
   -5.1324    1.3918    1.5691 C   0  0  0  0  0  0  0  0  0  0  0  0
    3.8389    0.5840    0.1359 C   0  0  0  0  0  0  0  0  0  0  0  0
   -2.4912    1.4483    0.7470 H   0  0  0  0  0  0  0  0  0  0  0  0
   -2.8056   -0.1258    1.5224 H   0  0  0  0  0  0  0  0  0  0  0  0
   -4.6545    1.2367   -0.5164 H   0  0  0  0  0  0  0  0  0  0  0  0
   -4.9661   -0.3064    0.2680 H   0  0  0  0  0  0  0  0  0  0  0  0
    0.0099    1.4497   -1.1929 H   0  0  0  0  0  0  0  0  0  0  0  0
   -0.7776   -2.3782    0.6863 H   0  0  0  0  0  0  0  0  0  0  0  0
    1.5912   -2.5838    1.3296 H   0  0  0  0  0  0  0  0  0  0  0  0
    2.7973    2.1071   -0.9202 H   0  0  0  0  0  0  0  0  0  0  0  0
   -6.2047    1.5150    1.3870 H   0  0  0  0  0  0  0  0  0  0  0  0
   -5.0084    0.8292    2.4999 H   0  0  0  0  0  0  0  0  0  0  0  0
   -4.6950    2.3858    1.7070 H   0  0  0  0  0  0  0  0  0  0  0  0
    5.8701    0.7627    0.4991 H   0  0  0  0  0  0  0  0  0  0  0  0
    5.1926    2.0857   -0.3659 H   0  0  0  0  0  0  0  0  0  0  0  0
  1  2  2  0  0  0  0
  1  3  2  0  0  0  0
  1  7  1  0  0  0  0
  1  8  1  0  0  0  0
  4 10  1  0  0  0  0
  4 16  1  0  0  0  0
  4 24  1  0  0  0  0
  5 12  1  0  0  0  0
  5 16  2  0  0  0  0
  6 16  1  0  0  0  0
  6 28  1  0  0  0  0
  6 29  1  0  0  0  0
  7  9  1  0  0  0  0
  7 17  1  0  0  0  0
  7 18  1  0  0  0  0
  8 11  2  0  0  0  0
  8 13  1  0  0  0  0
  9 15  1  0  0  0  0
  9 19  1  0  0  0  0
  9 20  1  0  0  0  0
 10 11  1  0  0  0  0
 10 12  2  0  0  0  0
 11 21  1  0  0  0  0
 12 14  1  0  0  0  0
 13 14  2  0  0  0  0
 13 22  1  0  0  0  0
 14 23  1  0  0  0  0
 15 25  1  0  0  0  0
 15 26  1  0  0  0  0
 15 27  1  0  0  0  0
M  END
> <PUBCHEM_COMPOUND_CID>
88125

> <PUBCHEM_CONFORMER_RMSD>
0.6

> <PUBCHEM_CONFORMER_DIVERSEORDER>
1
3
2
4
6
5

> <PUBCHEM_MMFF94_PARTIAL_CHARGES>
20
1 1.2
10 -0.15
11 -0.15
12 0.23
13 -0.15
14 -0.15
16 0.27
2 -0.65
21 0.15
22 0.15
23 0.15
24 0.27
28 0.4
29 0.4
3 -0.65
4 0.03
5 -0.57
6 -0.88
7 0.11
8 -0.01

> <PUBCHEM_EFFECTIVE_ROTOR_COUNT>
3

> <PUBCHEM_PHARMACOPHORE_FEATURES>
8
1 15 hydrophobe
1 2 acceptor
1 3 acceptor
1 4 donor
1 6 donor
4 4 5 6 16 cation
5 4 5 10 12 16 rings
6 8 10 11 12 13 14 rings

> <PUBCHEM_HEAVY_ATOM_COUNT>
16

> <PUBCHEM_ATOM_DEF_STEREO_COUNT>
0

> <PUBCHEM_ATOM_UDEF_STEREO_COUNT>
0

> <PUBCHEM_BOND_DEF_STEREO_COUNT>
0

> <PUBCHEM_BOND_UDEF_STEREO_COUNT>
0

> <PUBCHEM_ISOTOPIC_ATOM_COUNT>
0

> <PUBCHEM_COMPONENT_COUNT>
1

> <PUBCHEM_CACTVS_TAUTO_COUNT>
3

> <PUBCHEM_CONFORMER_ID>
0001583D00000001

> <PUBCHEM_MMFF94_ENERGY>
14.4177

> <PUBCHEM_FEATURE_SELFOVERLAP>
40.763

> <PUBCHEM_SHAPE_FINGERPRINT>
10354089 29 18341886402969497353
10465860 228 18335697307830228459
10498660 4 16082486868620044585
11543360 7 16588878841340230860
12236239 1 18333735728105538871
12251169 10 17846489331994450305
124424 183 5184347421402237428
12500047 106 16008754601749240469
12507560 40 17988079036498564205
12633257 1 16773499006922950369
12892183 10 18058433478625056433
13581323 91 14405183979948057730
13583140 156 15051189886622613012
14252887 29 17346310552868206171
14445660 50 18409730660065412263
14943859 89 17676485051499479651
15209294 21 18409448081213534897
15219456 202 17632304535280387919
15309172 13 18131075930416400535
15342168 16 18129931295978316085
15775835 57 18408885139828806169
16945 1 17632583729830093326
17844478 74 17203330048044463271
18186145 218 18411986853767648686
193927 3 11023821816458888281
19784866 240 10663815282912864025
200 152 18339939108280050527
20112054 13 18342171172301934609
20645477 70 17915484854383858479
20671657 53 10807922757290863459
20871999 31 16226340235246669597
221357 26 6555409757318298971
22854114 59 17989486329376649713
23402539 116 17822014190301797284
23402655 69 18186519891184727188
23557571 272 16733263452572023077
23559900 14 5112005067465572038
26918003 58 15410896254190515093
2748010 2 17699872883709201046
4028521 119 15864069918717409225
458136 41 18201997755045163506
465052 167 11599418314627654945
474 4 18341047436832035217
5104073 3 18129390302578019112
633830 44 18333448725263228028
76465 3 11455885845674680673

> <PUBCHEM_SHAPE_MULTIPOLES>
306.44
9.26
1.56
1.18
2.38
0.42
-0.18
-5.05
2.88
0
0.22
1.19
-0.12
-1.16

> <PUBCHEM_SHAPE_SELFOVERLAP>
640.445

> <PUBCHEM_SHAPE_VOLUME>
175.7

> <PUBCHEM_COORDINATE_TYPE>
2
5
10

$$$$

