854262
  -OEChem-06241222473D

 46 48  0     0  0  0  0  0  0999 V2000
   -1.9339    2.7365   -0.5359 S   0  0  0  0  0  0  0  0  0  0  0  0
   -5.4354   -0.8450   -0.5021 O   0  0  0  0  0  0  0  0  0  0  0  0
    5.3320   -0.8484   -0.2633 O   0  0  0  0  0  0  0  0  0  0  0  0
   -3.1641   -0.7451    0.0395 N   0  0  0  0  0  0  0  0  0  0  0  0
   -2.2640    0.2707    0.0081 N   0  0  0  0  0  0  0  0  0  0  0  0
   -4.2229    1.1431   -0.7040 N   0  0  0  0  0  0  0  0  0  0  0  0
    0.7245    2.2216    0.2572 N   0  0  0  0  0  0  0  0  0  0  0  0
   -2.8164   -2.0730    0.4644 C   0  0  0  0  0  0  0  0  0  0  0  0
   -4.0558   -2.9716    0.3834 C   0  0  0  0  0  0  0  0  0  0  0  0
   -1.7178   -2.6207   -0.4526 C   0  0  0  0  0  0  0  0  0  0  0  0
   -2.3098   -2.0260    1.9104 C   0  0  0  0  0  0  0  0  0  0  0  0
   -2.9666    1.3400   -0.4389 C   0  0  0  0  0  0  0  0  0  0  0  0
   -4.3852   -0.2220   -0.3987 C   0  0  0  0  0  0  0  0  0  0  0  0
   -0.9477    0.4710    0.2850 C   0  0  0  0  0  0  0  0  0  0  0  0
   -0.5343    1.7419    0.0655 C   0  0  0  0  0  0  0  0  0  0  0  0
    1.9083    1.4332    0.1235 C   0  0  0  0  0  0  0  0  0  0  0  0
    0.9261    3.6440    0.5717 C   0  0  0  0  0  0  0  0  0  0  0  0
    1.9205    0.3730   -0.7687 C   0  0  0  0  0  0  0  0  0  0  0  0
    3.0214    1.7435    0.8886 C   0  0  0  0  0  0  0  0  0  0  0  0
    3.0761   -0.3973   -0.8991 C   0  0  0  0  0  0  0  0  0  0  0  0
    4.1770    0.9733    0.7581 C   0  0  0  0  0  0  0  0  0  0  0  0
    4.2044   -0.0971   -0.1358 C   0  0  0  0  0  0  0  0  0  0  0  0
    5.1620   -2.2193   -0.6206 C   0  0  0  0  0  0  0  0  0  0  0  0
    6.3014   -3.0263   -0.0357 C   0  0  0  0  0  0  0  0  0  0  0  0
   -4.4388   -3.0586   -0.6397 H   0  0  0  0  0  0  0  0  0  0  0  0
   -3.8065   -3.9911    0.7043 H   0  0  0  0  0  0  0  0  0  0  0  0
   -4.8597   -2.6307    1.0455 H   0  0  0  0  0  0  0  0  0  0  0  0
   -0.7568   -2.1134   -0.3582 H   0  0  0  0  0  0  0  0  0  0  0  0
   -2.0174   -2.5558   -1.5057 H   0  0  0  0  0  0  0  0  0  0  0  0
   -1.5278   -3.6784   -0.2330 H   0  0  0  0  0  0  0  0  0  0  0  0
   -3.0361   -1.5277    2.5639 H   0  0  0  0  0  0  0  0  0  0  0  0
   -2.1655   -3.0416    2.2987 H   0  0  0  0  0  0  0  0  0  0  0  0
   -1.3555   -1.5141    2.0383 H   0  0  0  0  0  0  0  0  0  0  0  0
   -0.3374   -0.3291    0.6668 H   0  0  0  0  0  0  0  0  0  0  0  0
    1.7596    4.0620   -0.0062 H   0  0  0  0  0  0  0  0  0  0  0  0
    1.1329    3.7708    1.6407 H   0  0  0  0  0  0  0  0  0  0  0  0
    0.0630    4.2770    0.3485 H   0  0  0  0  0  0  0  0  0  0  0  0
    1.0818    0.1385   -1.4169 H   0  0  0  0  0  0  0  0  0  0  0  0
    3.0326    2.5559    1.6081 H   0  0  0  0  0  0  0  0  0  0  0  0
    3.0685   -1.1982   -1.6325 H   0  0  0  0  0  0  0  0  0  0  0  0
    5.0517    1.2089    1.3583 H   0  0  0  0  0  0  0  0  0  0  0  0
    4.2272   -2.6324   -0.2211 H   0  0  0  0  0  0  0  0  0  0  0  0
    5.1662   -2.3097   -1.7124 H   0  0  0  0  0  0  0  0  0  0  0  0
    6.2086   -4.0835   -0.2997 H   0  0  0  0  0  0  0  0  0  0  0  0
    7.2644   -2.6547   -0.4013 H   0  0  0  0  0  0  0  0  0  0  0  0
    6.3188   -2.9347    1.0554 H   0  0  0  0  0  0  0  0  0  0  0  0
  1 12  1  0  0  0  0
  1 15  1  0  0  0  0
  2 13  2  0  0  0  0
  3 22  1  0  0  0  0
  3 23  1  0  0  0  0
  4  5  1  0  0  0  0
  4  8  1  0  0  0  0
  4 13  1  0  0  0  0
  5 12  1  0  0  0  0
  5 14  1  0  0  0  0
  6 12  2  0  0  0  0
  6 13  1  0  0  0  0
  7 15  1  0  0  0  0
  7 16  1  0  0  0  0
  7 17  1  0  0  0  0
  8  9  1  0  0  0  0
  8 10  1  0  0  0  0
  8 11  1  0  0  0  0
  9 25  1  0  0  0  0
  9 26  1  0  0  0  0
  9 27  1  0  0  0  0
 10 28  1  0  0  0  0
 10 29  1  0  0  0  0
 10 30  1  0  0  0  0
 11 31  1  0  0  0  0
 11 32  1  0  0  0  0
 11 33  1  0  0  0  0
 14 15  2  0  0  0  0
 14 34  1  0  0  0  0
 16 18  2  0  0  0  0
 16 19  1  0  0  0  0
 17 35  1  0  0  0  0
 17 36  1  0  0  0  0
 17 37  1  0  0  0  0
 18 20  1  0  0  0  0
 18 38  1  0  0  0  0
 19 21  2  0  0  0  0
 19 39  1  0  0  0  0
 20 22  2  0  0  0  0
 20 40  1  0  0  0  0
 21 22  1  0  0  0  0
 21 41  1  0  0  0  0
 23 24  1  0  0  0  0
 23 42  1  0  0  0  0
 23 43  1  0  0  0  0
 24 44  1  0  0  0  0
 24 45  1  0  0  0  0
 24 46  1  0  0  0  0
M  END
> <PUBCHEM_COMPOUND_CID>
854262

> <PUBCHEM_CONFORMER_RMSD>
0.8

> <PUBCHEM_CONFORMER_DIVERSEORDER>
3
18
10
1
15
11
5
17
12
6
16
4
13
14
2
7
8
9

> <PUBCHEM_MMFF94_PARTIAL_CHARGES>
25
1 -0.24
12 0.64
13 0.84
14 -0.05
15 0.2
16 0.1
17 0.37
18 -0.15
19 -0.15
2 -0.57
20 -0.15
21 -0.15
22 0.08
23 0.28
3 -0.36
34 0.15
38 0.15
39 0.15
4 -0.34
40 0.15
41 0.15
5 -0.17
6 -0.66
7 -0.57
8 0.3

> <PUBCHEM_EFFECTIVE_ROTOR_COUNT>
5

> <PUBCHEM_PHARMACOPHORE_FEATURES>
8
1 2 acceptor
1 3 acceptor
1 6 donor
1 7 cation
4 8 9 10 11 hydrophobe
5 1 5 12 14 15 rings
5 4 5 6 12 13 rings
6 16 18 19 20 21 22 rings

> <PUBCHEM_HEAVY_ATOM_COUNT>
24

> <PUBCHEM_ATOM_DEF_STEREO_COUNT>
0

> <PUBCHEM_ATOM_UDEF_STEREO_COUNT>
0

> <PUBCHEM_BOND_DEF_STEREO_COUNT>
0

> <PUBCHEM_BOND_UDEF_STEREO_COUNT>
0

> <PUBCHEM_ISOTOPIC_ATOM_COUNT>
0

> <PUBCHEM_COMPONENT_COUNT>
1

> <PUBCHEM_CACTVS_TAUTO_COUNT>
1

> <PUBCHEM_CONFORMER_ID>
000D08F600000003

> <PUBCHEM_MMFF94_ENERGY>
114.136

> <PUBCHEM_FEATURE_SELFOVERLAP>
40.836

> <PUBCHEM_SHAPE_FINGERPRINT>
10693767 8 17900560977809356767
1100329 8 17329429957132108545
11796584 16 18271814579035111530
12363563 72 18334846217284874508
12555020 224 18340495546920249495
12596602 18 14779555543180574084
12645989 146 18260832600609532878
12760667 363 18335700597959592014
13402501 40 18408323310651054207
13544592 145 18412550890517055613
13544653 18 18114460072064024944
14251740 79 18201153364194870410
14790565 3 17906172107499392745
14866123 147 18263638640567629961
14910302 57 18272379689024916436
15322534 239 18059008514079015322
15352361 1 18409165515415292806
15927050 60 17181371928759754205
17492 89 18267303131901643482
17627616 140 17696752538334864090
19141452 34 18262798446327541895
20403669 9 18334008423916188046
20681651 13 17100298988372424227
21033650 10 17274543260192343460
21133410 58 16540182334456747674
21279426 13 18340777034697602317
21403212 168 18044082674534997593
21781051 124 17774422912237079635
221490 88 18339357440627050768
23428019 142 17417802976961822730
23559900 14 18411144618902091980
25122255 55 18336258046408489278
3004659 81 18202001062560027190
316301 35 18410015451215980402
335352 9 18410011074459754717
3421961 26 18261676982974625984
373842 8 17906176505620016670
4015057 19 18188788149424471229
44062 13 18342457053714968551
463206 1 18413668015410281738
474144 1 17344364477659971202
5104073 3 17967818305658391320
559249 180 18269838790540910798
56633871 153 18265321816813415267
6138700 20 18339363067234532351
9709674 26 18338239241496245573

> <PUBCHEM_SHAPE_MULTIPOLES>
466.1
12.13
4.04
1
9.95
0.21
-0.27
10.21
1.43
0.38
-0.53
-0.15
0.21
1.7

> <PUBCHEM_SHAPE_SELFOVERLAP>
983.688

> <PUBCHEM_SHAPE_VOLUME>
267.1

> <PUBCHEM_COORDINATE_TYPE>
2
5
10

$$$$

