23724625
  -OEChem-07051213083D

 61 62  0     1  0  0  0  0  0999 V2000
    1.2307   -2.8532   -0.2783 S   0  0  0  0  0  0  0  0  0  0  0  0
   -3.9546   -1.1358   -1.2874 P   0  0  2  0  0  0  0  0  0  0  0  0
   -4.8708    0.7920    0.7370 P   0  0  0  0  0  0  0  0  0  0  0  0
    3.5182   -1.6134   -1.6489 O   0  0  0  0  0  0  0  0  0  0  0  0
   -2.8461   -1.6850   -0.2481 O   0  0  0  0  0  0  0  0  0  0  0  0
   -4.3569    0.3245   -0.7220 O   0  0  0  0  0  0  0  0  0  0  0  0
   -5.2712   -2.0259   -0.9848 O   0  0  0  0  0  0  0  0  0  0  0  0
   -3.5208   -1.1409   -2.7246 O   0  0  0  0  0  0  0  0  0  0  0  0
   -5.2369    2.3514    0.5218 O   0  0  0  0  0  0  0  0  0  0  0  0
   -6.3153    0.0782    0.8631 O   0  0  0  0  0  0  0  0  0  0  0  0
   -3.9159    0.5062    1.8583 O   0  0  0  0  0  0  0  0  0  0  0  0
    1.3123   -0.6770    0.9630 N   0  3  0  0  0  0  0  0  0  0  0  0
    1.3309    4.0032   -0.0906 N   0  0  0  0  0  0  0  0  0  0  0  0
    0.2986    2.3440   -1.5008 N   0  0  0  0  0  0  0  0  0  0  0  0
    2.4034    3.3591    1.9242 N   0  0  0  0  0  0  0  0  0  0  0  0
    3.4007   -1.0944   -0.3212 C   0  0  2  0  0  0  0  0  0  0  0  0
    4.5214   -1.7095    0.5293 C   0  0  0  0  0  0  0  0  0  0  0  0
    2.0110   -1.4248    0.1738 C   0  0  0  0  0  0  0  0  0  0  0  0
    5.9552   -1.3269    0.1137 C   0  0  0  0  0  0  0  0  0  0  0  0
    0.0764   -1.2007    1.2706 C   0  0  0  0  0  0  0  0  0  0  0  0
   -0.1406   -2.4144    0.6629 C   0  0  0  0  0  0  0  0  0  0  0  0
    1.7762    0.5926    1.4757 C   0  0  0  0  0  0  0  0  0  0  0  0
   -1.3150   -3.3079    0.7219 C   0  0  0  0  0  0  0  0  0  0  0  0
    6.3281   -1.8773   -1.2634 C   0  0  0  0  0  0  0  0  0  0  0  0
    6.1037    0.1972    0.1159 C   0  0  0  0  0  0  0  0  0  0  0  0
   -0.8074   -0.4335    2.1610 C   0  0  0  0  0  0  0  0  0  0  0  0
    1.3802    1.6945    0.5315 C   0  0  0  0  0  0  0  0  0  0  0  0
   -2.3557   -3.0141   -0.3733 C   0  0  0  0  0  0  0  0  0  0  0  0
    1.6841    3.0119    0.7539 C   0  0  0  0  0  0  0  0  0  0  0  0
    0.6834    1.4037   -0.6129 C   0  0  0  0  0  0  0  0  0  0  0  0
    0.6503    3.6042   -1.1819 C   0  0  0  0  0  0  0  0  0  0  0  0
    0.2424    4.6719   -2.1396 C   0  0  0  0  0  0  0  0  0  0  0  0
    3.5197   -0.0129   -0.4068 H   0  0  0  0  0  0  0  0  0  0  0  0
    4.4420   -2.8048    0.5046 H   0  0  0  0  0  0  0  0  0  0  0  0
    4.3752   -1.4171    1.5776 H   0  0  0  0  0  0  0  0  0  0  0  0
    6.6428   -1.7521    0.8552 H   0  0  0  0  0  0  0  0  0  0  0  0
    2.8639    0.5763    1.6064 H   0  0  0  0  0  0  0  0  0  0  0  0
    1.3672    0.7831    2.4726 H   0  0  0  0  0  0  0  0  0  0  0  0
   -1.0081   -4.3583    0.6450 H   0  0  0  0  0  0  0  0  0  0  0  0
   -1.7975   -3.2032    1.7015 H   0  0  0  0  0  0  0  0  0  0  0  0
    6.0647   -2.9361   -1.3528 H   0  0  0  0  0  0  0  0  0  0  0  0
    5.8612   -1.3244   -2.0834 H   0  0  0  0  0  0  0  0  0  0  0  0
    7.4112   -1.7961   -1.4115 H   0  0  0  0  0  0  0  0  0  0  0  0
    7.1600    0.4686    0.0082 H   0  0  0  0  0  0  0  0  0  0  0  0
    5.7486    0.6278    1.0582 H   0  0  0  0  0  0  0  0  0  0  0  0
    5.5668    0.6750   -0.7095 H   0  0  0  0  0  0  0  0  0  0  0  0
   -1.7614   -0.9484    2.3060 H   0  0  0  0  0  0  0  0  0  0  0  0
   -1.0358    0.5563    1.7570 H   0  0  0  0  0  0  0  0  0  0  0  0
   -0.3688   -0.3238    3.1577 H   0  0  0  0  0  0  0  0  0  0  0  0
    2.8675   -1.1507   -2.2045 H   0  0  0  0  0  0  0  0  0  0  0  0
   -1.9151   -3.1342   -1.3689 H   0  0  0  0  0  0  0  0  0  0  0  0
   -3.1940   -3.7116   -0.2777 H   0  0  0  0  0  0  0  0  0  0  0  0
    0.3708    0.4160   -0.9219 H   0  0  0  0  0  0  0  0  0  0  0  0
    1.8991    3.1741    2.7869 H   0  0  0  0  0  0  0  0  0  0  0  0
    3.3454    2.9794    1.9552 H   0  0  0  0  0  0  0  0  0  0  0  0
    0.9529    4.7142   -2.9703 H   0  0  0  0  0  0  0  0  0  0  0  0
   -0.7556    4.4680   -2.5399 H   0  0  0  0  0  0  0  0  0  0  0  0
    0.2183    5.6506   -1.6503 H   0  0  0  0  0  0  0  0  0  0  0  0
   -5.3381   -2.9231   -1.3755 H   0  0  0  0  0  0  0  0  0  0  0  0
   -5.5030    2.8884    1.2984 H   0  0  0  0  0  0  0  0  0  0  0  0
   -6.8031    0.1399    1.7118 H   0  0  0  0  0  0  0  0  0  0  0  0
  1 18  1  0  0  0  0
  1 21  1  0  0  0  0
  2  5  1  0  0  0  0
  2  6  1  0  0  0  0
  2  7  1  0  0  0  0
  2  8  2  0  0  0  0
  3  6  1  0  0  0  0
  3  9  1  0  0  0  0
  3 10  1  0  0  0  0
  3 11  2  0  0  0  0
  4 16  1  0  0  0  0
  4 50  1  0  0  0  0
  5 28  1  0  0  0  0
  7 59  1  0  0  0  0
  9 60  1  0  0  0  0
 10 61  1  0  0  0  0
 12 18  2  0  0  0  0
 12 20  1  0  0  0  0
 12 22  1  0  0  0  0
 13 29  2  0  0  0  0
 13 31  1  0  0  0  0
 14 30  1  0  0  0  0
 14 31  2  0  0  0  0
 15 29  1  0  0  0  0
 15 54  1  0  0  0  0
 15 55  1  0  0  0  0
 16 17  1  0  0  0  0
 16 18  1  0  0  0  0
 16 33  1  0  0  0  0
 17 19  1  0  0  0  0
 17 34  1  0  0  0  0
 17 35  1  0  0  0  0
 19 24  1  0  0  0  0
 19 25  1  0  0  0  0
 19 36  1  0  0  0  0
 20 21  2  0  0  0  0
 20 26  1  0  0  0  0
 21 23  1  0  0  0  0
 22 27  1  0  0  0  0
 22 37  1  0  0  0  0
 22 38  1  0  0  0  0
 23 28  1  0  0  0  0
 23 39  1  0  0  0  0
 23 40  1  0  0  0  0
 24 41  1  0  0  0  0
 24 42  1  0  0  0  0
 24 43  1  0  0  0  0
 25 44  1  0  0  0  0
 25 45  1  0  0  0  0
 25 46  1  0  0  0  0
 26 47  1  0  0  0  0
 26 48  1  0  0  0  0
 26 49  1  0  0  0  0
 27 29  1  0  0  0  0
 27 30  2  0  0  0  0
 28 51  1  0  0  0  0
 28 52  1  0  0  0  0
 30 53  1  0  0  0  0
 31 32  1  0  0  0  0
 32 56  1  0  0  0  0
 32 57  1  0  0  0  0
 32 58  1  0  0  0  0
M  CHG  1  12   1
M  END
> <PUBCHEM_COMPOUND_CID>
23724625

> <PUBCHEM_CONFORMER_RMSD>
1

> <PUBCHEM_CONFORMER_DIVERSEORDER>
11
46
460
115
114
391
452
406
260
405
280
273
83
428
399
425
353
440
276
303
175
410
184
168
318
230
238
247
395
250
384
269
477
244
281
14
424
285
265
324
76
325
445
62
274
456
368
21
110
401
432
465
211
127
263
35
116
294
305
94
438
24
330
193
199
355
366
448
443
234
444
454
331
124
119
144
434
228
166
165
475
332
33
270
429
284
187
423
183
222
54
32
372
105
63
195
164
293
38
182
346
319
315
436
4
308
426
394
413
64
9
392
431
307
209
75
349
412
1
357
125
246
373
312
329
49
323
158
471
468
462
287
371
298
157
17
170
226
242
279
100
232
13
98
459
103
218
155
419
217
317
254
420
104
212
126
295
196
140
466
173
30
474
299
326
271
74
433
139
344
411
204
192
22
120
138
389
402
457
42
390
213
300
473
128
84
131
316
333
123
216
8
255
400
408
245
169
176
161
239
398
68
203
337
336
464
283
23
461
91
386
252
137
314
396
350
229
205
249
223
149
112
297
151
210
241
421
88
178
367
476
320
57
27
321
179
359
215
136
478
36
225
407
162
25
220
439
383
117
107
82
292
301
177
237
339
89
90
393
171
360
145
81
253
414
236
266
34
108
102
20
348
78
282
472
248
200
6
267
44
106
189
188
152
322
309
272
275
61
160
311
385
7
291
259
97
231
342
141
370
415
345
233
69
194
86
261
146
79
442
380
71
258
313
240
133
381
378
2
377
441
358
374
202
156
430
256
361
352
214
111
416
73
304
235
47
153
147
418
3
376
262
364
224
198
31
302
190
172
191
113
264
10
16
48
278
167
18
251
435
122
134
446
12
379
174
343
375
458
201
437
427
96
417
286
328
5
403
397
327
206
382
40
51
66
85
186
469
132
449
422
227
463
289
180
409
447
55
99
163
338
470
159
221
101
388
404
356
50
135
334
43
109
268
130
60
77
121
453
148
67
257
41
37
310
351
59
450
95
207
363
92
219
19
150
56
29
58
185
340
65
387
288
118
142
181
347
15
208
72
87
369
154
143
354
28
362
52
70
455
277
80
306
45
296
39
26
129
365
243
341
467
93
335
197
451
290
53

> <PUBCHEM_MMFF94_PARTIAL_CHARGES>
35
1 -0.08
10 -0.77
11 -0.7
12 -0.18
13 -0.62
14 -0.62
15 -0.9
16 0.46
18 0.19
2 1.51
20 0.15
21 -0.14
22 0.66
23 0.18
26 0.18
27 -0.14
28 0.28
29 0.41
3 1.51
30 0.16
31 0.48
32 0.14
4 -0.68
5 -0.55
50 0.4
53 0.15
54 0.4
55 0.4
59 0.5
6 -0.54
60 0.5
61 0.5
7 -0.77
8 -0.7
9 -0.77

> <PUBCHEM_EFFECTIVE_ROTOR_COUNT>
11

> <PUBCHEM_PHARMACOPHORE_FEATURES>
14
1 10 acceptor
1 11 acceptor
1 15 donor
1 4 acceptor
1 4 donor
1 7 acceptor
1 8 acceptor
1 9 acceptor
3 13 14 31 cation
3 13 15 29 cation
3 19 24 25 hydrophobe
4 3 9 10 11 anion
5 1 12 18 20 21 rings
6 13 14 27 29 30 31 rings

> <PUBCHEM_HEAVY_ATOM_COUNT>
32

> <PUBCHEM_ATOM_DEF_STEREO_COUNT>
0

> <PUBCHEM_ATOM_UDEF_STEREO_COUNT>
1

> <PUBCHEM_BOND_DEF_STEREO_COUNT>
0

> <PUBCHEM_BOND_UDEF_STEREO_COUNT>
0

> <PUBCHEM_ISOTOPIC_ATOM_COUNT>
0

> <PUBCHEM_COMPONENT_COUNT>
1

> <PUBCHEM_CACTVS_TAUTO_COUNT>
3

> <PUBCHEM_CONFORMER_ID>
016A02510000000B

> <PUBCHEM_MMFF94_ENERGY>
29.6548

> <PUBCHEM_FEATURE_SELFOVERLAP>
71.225

> <PUBCHEM_SHAPE_FINGERPRINT>
10930396 42 18271262560301006080
10940486 97 18262518091594049694
11582403 64 15000241653323536352
12035758 1 18340497703051991152
12107698 1 18260835848047705727
12788726 201 18129669733097990642
133893 2 17834648536798818994
13590594 115 18342738546109029173
14068700 675 18113901580281148809
14114207 22 15720515558390553351
14289585 56 18271253823609687501
15475509 8 18334851749334847818
1601671 61 18335986462192912970
17980427 23 17749937891507430170
18769570 83 18413389860590866786
21285901 2 18118393171560040366
21304303 64 18342172263308088806
23419403 2 17605584131246940210
3459 83 18410007715552404388
3493558 16 18040721312147065808
5081480 168 18337962202898823638
6287921 2 18338797819594822855

> <PUBCHEM_SHAPE_MULTIPOLES>
603.21
12.07
5.27
1.89
1.39
5.79
0.29
-5.25
1.51
-0.81
1.59
0.85
0.71
-0.02

> <PUBCHEM_SHAPE_SELFOVERLAP>
1202.407

> <PUBCHEM_SHAPE_VOLUME>
360.4

> <PUBCHEM_COORDINATE_TYPE>
2
5
10

$$$$

