5281421
  -OEChem-07051212572D

 51 52  0     1  0  0  0  0  0999 V2000
    7.9332    0.9466    0.0000 O   0  0  0  0  0  0  0  0  0  0  0  0
    4.5981    0.7796    0.0000 O   0  0  0  0  0  0  0  0  0  0  0  0
    8.0280    2.7204    0.0000 O   0  0  0  0  0  0  0  0  0  0  0  0
    8.1854    0.2456    0.0000 O   0  0  0  0  0  0  0  0  0  0  0  0
    9.7942   -1.2204    0.0000 O   0  0  0  0  0  0  0  0  0  0  0  0
    3.7320   -0.7204    0.0000 O   0  0  0  0  0  0  0  0  0  0  0  0
    6.3301    0.7796    0.0000 C   0  0  2  0  0  0  0  0  0  0  0  0
    5.4641    0.2796    0.0000 C   0  0  2  0  0  0  0  0  0  0  0  0
    7.1962    0.2796    0.0000 C   0  0  1  0  0  0  0  0  0  0  0  0
    5.4641   -0.7204    0.0000 C   0  0  0  0  0  0  0  0  0  0  0  0
    6.5393    1.7514    0.0000 C   0  0  0  0  0  0  0  0  0  0  0  0
    7.1962   -0.7204    0.0000 C   0  0  0  0  0  0  0  0  0  0  0  0
    6.3301   -1.2204    0.0000 C   0  0  0  0  0  0  0  0  0  0  0  0
    7.5280    1.8544    0.0000 C   0  0  0  0  0  0  0  0  0  0  0  0
    8.0622   -1.2204    0.0000 C   0  0  0  0  0  0  0  0  0  0  0  0
    8.0622   -2.2204    0.0000 C   0  0  0  0  0  0  0  0  0  0  0  0
    7.1962   -2.7204    0.0000 C   0  0  0  0  0  0  0  0  0  0  0  0
    6.3301   -2.2204    0.0000 C   0  0  0  0  0  0  0  0  0  0  0  0
    5.8715    2.4957    0.0000 C   0  0  0  0  0  0  0  0  0  0  0  0
    7.5426   -0.5204    0.0000 C   0  0  0  0  0  0  0  0  0  0  0  0
    8.9282   -0.7204    0.0000 C   0  0  0  0  0  0  0  0  0  0  0  0
    3.7320    0.2796    0.0000 C   0  0  0  0  0  0  0  0  0  0  0  0
    2.8660    0.7796    0.0000 C   0  0  0  0  0  0  0  0  0  0  0  0
    2.0000    0.2796    0.0000 C   0  0  0  0  0  0  0  0  0  0  0  0
    2.8660    1.7796    0.0000 C   0  0  0  0  0  0  0  0  0  0  0  0
    5.6431    1.2801    0.0000 H   0  0  0  0  0  0  0  0  0  0  0  0
    5.4641    0.8996    0.0000 H   0  0  0  0  0  0  0  0  0  0  0  0
    7.9731   -0.0652    0.0000 H   0  0  0  0  0  0  0  0  0  0  0  0
    4.8535   -0.6128    0.0000 H   0  0  0  0  0  0  0  0  0  0  0  0
    5.2520   -1.3031    0.0000 H   0  0  0  0  0  0  0  0  0  0  0  0
    6.9841   -1.3031    0.0000 H   0  0  0  0  0  0  0  0  0  0  0  0
    8.2742   -2.8031    0.0000 H   0  0  0  0  0  0  0  0  0  0  0  0
    8.6728   -2.1128    0.0000 H   0  0  0  0  0  0  0  0  0  0  0  0
    6.7976   -3.1954    0.0000 H   0  0  0  0  0  0  0  0  0  0  0  0
    7.5947   -3.1954    0.0000 H   0  0  0  0  0  0  0  0  0  0  0  0
    5.7932   -2.5304    0.0000 H   0  0  0  0  0  0  0  0  0  0  0  0
    6.0641    3.0850    0.0000 H   0  0  0  0  0  0  0  0  0  0  0  0
    5.2648    2.3678    0.0000 H   0  0  0  0  0  0  0  0  0  0  0  0
    7.6145   -1.1363    0.0000 H   0  0  0  0  0  0  0  0  0  0  0  0
    7.1440   -0.0455    0.0000 H   0  0  0  0  0  0  0  0  0  0  0  0
    9.3267   -0.2455    0.0000 H   0  0  0  0  0  0  0  0  0  0  0  0
    8.5297   -0.2455    0.0000 H   0  0  0  0  0  0  0  0  0  0  0  0
    2.8660    0.1596    0.0000 H   0  0  0  0  0  0  0  0  0  0  0  0
    1.6900    0.8165    0.0000 H   0  0  0  0  0  0  0  0  0  0  0  0
    1.4631   -0.0304    0.0000 H   0  0  0  0  0  0  0  0  0  0  0  0
    2.3100   -0.2574    0.0000 H   0  0  0  0  0  0  0  0  0  0  0  0
    3.4860    1.7796    0.0000 H   0  0  0  0  0  0  0  0  0  0  0  0
    2.8660    2.3996    0.0000 H   0  0  0  0  0  0  0  0  0  0  0  0
    2.2460    1.7796    0.0000 H   0  0  0  0  0  0  0  0  0  0  0  0
    8.7959    0.1379    0.0000 H   0  0  0  0  0  0  0  0  0  0  0  0
   10.3312   -0.9104    0.0000 H   0  0  0  0  0  0  0  0  0  0  0  0
  1  9  1  0  0  0  0
  1 14  1  0  0  0  0
  8  2  1  6  0  0  0
  2 22  1  0  0  0  0
  3 14  2  0  0  0  0
  4 20  1  0  0  0  0
  4 50  1  0  0  0  0
  5 21  1  0  0  0  0
  5 51  1  0  0  0  0
  6 22  2  0  0  0  0
  7  8  1  0  0  0  0
  7  9  1  0  0  0  0
  7 11  1  0  0  0  0
  7 26  1  6  0  0  0
  8 10  1  0  0  0  0
  8 27  1  0  0  0  0
  9 12  1  0  0  0  0
  9 28  1  1  0  0  0
 10 13  1  0  0  0  0
 10 29  1  0  0  0  0
 10 30  1  0  0  0  0
 11 14  1  0  0  0  0
 11 19  2  0  0  0  0
 12 15  2  0  0  0  0
 12 31  1  0  0  0  0
 13 18  2  0  0  0  0
 13 20  1  0  0  0  0
 15 16  1  0  0  0  0
 15 21  1  0  0  0  0
 16 17  1  0  0  0  0
 16 32  1  0  0  0  0
 16 33  1  0  0  0  0
 17 18  1  0  0  0  0
 17 34  1  0  0  0  0
 17 35  1  0  0  0  0
 18 36  1  0  0  0  0
 19 37  1  0  0  0  0
 19 38  1  0  0  0  0
 20 39  1  0  0  0  0
 20 40  1  0  0  0  0
 21 41  1  0  0  0  0
 21 42  1  0  0  0  0
 22 23  1  0  0  0  0
 23 24  1  0  0  0  0
 23 25  1  0  0  0  0
 23 43  1  0  0  0  0
 24 44  1  0  0  0  0
 24 45  1  0  0  0  0
 24 46  1  0  0  0  0
 25 47  1  0  0  0  0
 25 48  1  0  0  0  0
 25 49  1  0  0  0  0
M  END
> <PUBCHEM_COMPOUND_CID>
5281421

> <PUBCHEM_COMPOUND_CANONICALIZED>
1

> <PUBCHEM_CACTVS_COMPLEXITY>
601

> <PUBCHEM_CACTVS_HBOND_ACCEPTOR>
6

> <PUBCHEM_CACTVS_HBOND_DONOR>
2

> <PUBCHEM_CACTVS_ROTATABLE_BOND>
5

> <PUBCHEM_CACTVS_SUBSKEYS>
AAADceB4OAAAAAAAAAAAAAAAAAAAASAAAAAAAAAAAAAAAACAAAAAGgAACAAADRSggAICCAAABgCIAiDSCAAAAAAgAAAACAEAAEgAFBIAIQACUAAFwAAIMIPKyDCOAAAAAAAAAAAAAAAAAAAAAAAAAAAAAA==

> <PUBCHEM_IUPAC_OPENEYE_NAME>
[(3aR,4S,6Z,10Z,11aR)-6,10-bis(hydroxymethyl)-3-methylene-2-oxo-3a,4,5,8,9,11a-hexahydrocyclodeca[b]furan-4-yl] 2-methylpropanoate

> <PUBCHEM_IUPAC_CAS_NAME>
2-methylpropanoic acid [(3aR,4S,6Z,10Z,11aR)-6,10-bis(hydroxymethyl)-3-methylene-2-oxo-3a,4,5,8,9,11a-hexahydrocyclodeca[b]furan-4-yl] ester

> <PUBCHEM_IUPAC_NAME>
[(3aR,4S,6Z,10Z,11aR)-6,10-bis(hydroxymethyl)-3-methylidene-2-oxo-3a,4,5,8,9,11a-hexahydrocyclodeca[b]furan-4-yl] 2-methylpropanoate

> <PUBCHEM_IUPAC_SYSTEMATIC_NAME>
[(3aR,4S,6Z,10Z,11aR)-6,10-bis(hydroxymethyl)-3-methylidene-2-oxidanylidene-3a,4,5,8,9,11a-hexahydrocyclodeca[b]furan-4-yl] 2-methylpropanoate

> <PUBCHEM_IUPAC_TRADITIONAL_NAME>
2-methylpropionic acid [(3aR,4S,6Z,10Z,11aR)-2-keto-3-methylene-6,10-dimethylol-3a,4,5,8,9,11a-hexahydrocyclodeca[b]furan-4-yl] ester

> <PUBCHEM_IUPAC_INCHI>
InChI=1S/C19H26O6/c1-11(2)18(22)24-15-7-13(9-20)5-4-6-14(10-21)8-16-17(15)12(3)19(23)25-16/h5,8,11,15-17,20-21H,3-4,6-7,9-10H2,1-2H3/b13-5-,14-8-/t15-,16+,17+/m0/s1

> <PUBCHEM_IUPAC_INCHIKEY>
IAKJNLGPQQXWAV-YINPGZOOSA-N

> <PUBCHEM_XLOGP3_AA>
1

> <PUBCHEM_EXACT_MASS>
350.172939

> <PUBCHEM_MOLECULAR_FORMULA>
C19H26O6

> <PUBCHEM_MOLECULAR_WEIGHT>
350.40614

> <PUBCHEM_OPENEYE_CAN_SMILES>
CC(C)C(=O)OC1CC(=CCCC(=CC2C1C(=C)C(=O)O2)CO)CO

> <PUBCHEM_OPENEYE_ISO_SMILES>
CC(C)C(=O)O[C@H]1C/C(=C/CC/C(=C/[C@@H]2[C@@H]1C(=C)C(=O)O2)/CO)/CO

> <PUBCHEM_CACTVS_TPSA>
93.1

> <PUBCHEM_MONOISOTOPIC_WEIGHT>
350.172939

> <PUBCHEM_TOTAL_CHARGE>
0

> <PUBCHEM_HEAVY_ATOM_COUNT>
25

> <PUBCHEM_ATOM_DEF_STEREO_COUNT>
3

> <PUBCHEM_ATOM_UDEF_STEREO_COUNT>
0

> <PUBCHEM_BOND_DEF_STEREO_COUNT>
2

> <PUBCHEM_BOND_UDEF_STEREO_COUNT>
0

> <PUBCHEM_ISOTOPIC_ATOM_COUNT>
0

> <PUBCHEM_COMPONENT_COUNT>
1

> <PUBCHEM_CACTVS_TAUTO_COUNT>
1

> <PUBCHEM_COORDINATE_TYPE>
1
5
255

> <PUBCHEM_BONDANNOTATIONS>
8  2  6
7  26  6
9  28  5

$$$$

