5281081
  -OEChem-07051212542D

 37 37  0     0  0  0  0  0  0999 V2000
    4.5981    2.4050    0.0000 O   0  0  0  0  0  0  0  0  0  0  0  0
    6.3301   -2.5950    0.0000 O   0  0  0  0  0  0  0  0  0  0  0  0
    4.5981   -3.5950    0.0000 O   0  0  0  0  0  0  0  0  0  0  0  0
    2.0000   -2.0950    0.0000 O   0  5  0  0  0  0  0  0  0  0  0  0
    2.8660   -3.5950    0.0000 O   0  0  0  0  0  0  0  0  0  0  0  0
    6.3301    2.4050    0.0000 N   0  0  0  0  0  0  0  0  0  0  0  0
    2.8660   -2.5950    0.0000 N   0  3  0  0  0  0  0  0  0  0  0  0
    7.1962   -0.0950    0.0000 N   0  0  0  0  0  0  0  0  0  0  0  0
    6.3301    3.4050    0.0000 C   0  0  0  0  0  0  0  0  0  0  0  0
    7.1962    1.9050    0.0000 C   0  0  0  0  0  0  0  0  0  0  0  0
    5.4641    1.9050    0.0000 C   0  0  0  0  0  0  0  0  0  0  0  0
    8.0622    2.4050    0.0000 C   0  0  0  0  0  0  0  0  0  0  0  0
    7.1962    3.9050    0.0000 C   0  0  0  0  0  0  0  0  0  0  0  0
    4.5981   -0.5950    0.0000 C   0  0  0  0  0  0  0  0  0  0  0  0
    5.4641    0.9050    0.0000 C   0  0  0  0  0  0  0  0  0  0  0  0
    4.5981    0.4050    0.0000 C   0  0  0  0  0  0  0  0  0  0  0  0
    3.7320   -1.0950    0.0000 C   0  0  0  0  0  0  0  0  0  0  0  0
    5.4641   -1.0950    0.0000 C   0  0  0  0  0  0  0  0  0  0  0  0
    3.7320   -2.0950    0.0000 C   0  0  0  0  0  0  0  0  0  0  0  0
    5.4641   -2.0950    0.0000 C   0  0  0  0  0  0  0  0  0  0  0  0
    4.5981   -2.5950    0.0000 C   0  0  0  0  0  0  0  0  0  0  0  0
    6.3301    0.4050    0.0000 C   0  0  0  0  0  0  0  0  0  0  0  0
    6.1181    3.9876    0.0000 H   0  0  0  0  0  0  0  0  0  0  0  0
    5.7196    3.2973    0.0000 H   0  0  0  0  0  0  0  0  0  0  0  0
    6.7976    1.4300    0.0000 H   0  0  0  0  0  0  0  0  0  0  0  0
    7.5947    1.4300    0.0000 H   0  0  0  0  0  0  0  0  0  0  0  0
    7.5062    3.3681    0.0000 H   0  0  0  0  0  0  0  0  0  0  0  0
    7.7331    4.2150    0.0000 H   0  0  0  0  0  0  0  0  0  0  0  0
    8.3722    1.8681    0.0000 H   0  0  0  0  0  0  0  0  0  0  0  0
    8.5991    2.7150    0.0000 H   0  0  0  0  0  0  0  0  0  0  0  0
    7.7522    2.9419    0.0000 H   0  0  0  0  0  0  0  0  0  0  0  0
    6.8862    4.4419    0.0000 H   0  0  0  0  0  0  0  0  0  0  0  0
    4.0611    0.7150    0.0000 H   0  0  0  0  0  0  0  0  0  0  0  0
    3.1951   -0.7850    0.0000 H   0  0  0  0  0  0  0  0  0  0  0  0
    6.0010   -0.7850    0.0000 H   0  0  0  0  0  0  0  0  0  0  0  0
    6.8671   -2.2850    0.0000 H   0  0  0  0  0  0  0  0  0  0  0  0
    5.1350   -3.9050    0.0000 H   0  0  0  0  0  0  0  0  0  0  0  0
  1 11  2  0  0  0  0
  2 20  1  0  0  0  0
  2 36  1  0  0  0  0
  3 21  1  0  0  0  0
  3 37  1  0  0  0  0
  4  7  1  0  0  0  0
  5  7  2  0  0  0  0
  6  9  1  0  0  0  0
  6 10  1  0  0  0  0
  6 11  1  0  0  0  0
  7 19  1  0  0  0  0
  8 22  3  0  0  0  0
  9 13  1  0  0  0  0
  9 23  1  0  0  0  0
  9 24  1  0  0  0  0
 10 12  1  0  0  0  0
 10 25  1  0  0  0  0
 10 26  1  0  0  0  0
 11 15  1  0  0  0  0
 12 29  1  0  0  0  0
 12 30  1  0  0  0  0
 12 31  1  0  0  0  0
 13 27  1  0  0  0  0
 13 28  1  0  0  0  0
 13 32  1  0  0  0  0
 14 16  1  0  0  0  0
 14 17  2  0  0  0  0
 14 18  1  0  0  0  0
 15 16  2  0  0  0  0
 15 22  1  0  0  0  0
 16 33  1  0  0  0  0
 17 19  1  0  0  0  0
 17 34  1  0  0  0  0
 18 20  2  0  0  0  0
 18 35  1  0  0  0  0
 19 21  2  0  0  0  0
 20 21  1  0  0  0  0
M  CHG  2   4  -1   7   1
M  END
> <PUBCHEM_COMPOUND_CID>
5281081

> <PUBCHEM_COMPOUND_CANONICALIZED>
1

> <PUBCHEM_CACTVS_COMPLEXITY>
500

> <PUBCHEM_CACTVS_HBOND_ACCEPTOR>
6

> <PUBCHEM_CACTVS_HBOND_DONOR>
2

> <PUBCHEM_CACTVS_ROTATABLE_BOND>
4

> <PUBCHEM_CACTVS_SUBSKEYS>
AAADccBzOAAAAAAAAAAAAAAAAAAAAAAAAAAwAAAAAAAAAAABAAAAHgAECAAADAzBmAQyxoMQQgCZBiVSUwCiAAAgIgAgiAEP7MoLpiKSkZOEcAFmxlmJ2YeQ0BEOIAABQgAAUABAAAKEAACgAAAAAAAAAA==

> <PUBCHEM_IUPAC_OPENEYE_NAME>
(E)-2-cyano-3-(3,4-dihydroxy-5-nitro-phenyl)-N,N-diethyl-prop-2-enamide

> <PUBCHEM_IUPAC_CAS_NAME>
(E)-2-cyano-3-(3,4-dihydroxy-5-nitrophenyl)-N,N-diethyl-2-propenamide

> <PUBCHEM_IUPAC_NAME>
(E)-2-cyano-3-(3,4-dihydroxy-5-nitrophenyl)-N,N-diethylprop-2-enamide

> <PUBCHEM_IUPAC_SYSTEMATIC_NAME>
(E)-2-cyano-N,N-diethyl-3-[3-nitro-4,5-bis(oxidanyl)phenyl]prop-2-enamide

> <PUBCHEM_IUPAC_TRADITIONAL_NAME>
(E)-2-cyano-3-(3,4-dihydroxy-5-nitro-phenyl)-N,N-diethyl-acrylamide

> <PUBCHEM_IUPAC_INCHI>
InChI=1S/C14H15N3O5/c1-3-16(4-2)14(20)10(8-15)5-9-6-11(17(21)22)13(19)12(18)7-9/h5-7,18-19H,3-4H2,1-2H3/b10-5+

> <PUBCHEM_IUPAC_INCHIKEY>
JRURYQJSLYLRLN-BJMVGYQFSA-N

> <PUBCHEM_XLOGP3_AA>
2.1

> <PUBCHEM_EXACT_MASS>
305.101171

> <PUBCHEM_MOLECULAR_FORMULA>
C14H15N3O5

> <PUBCHEM_MOLECULAR_WEIGHT>
305.286

> <PUBCHEM_OPENEYE_CAN_SMILES>
CCN(CC)C(=O)C(=CC1=CC(=C(C(=C1)O)O)[N+](=O)[O-])C#N

> <PUBCHEM_OPENEYE_ISO_SMILES>
CCN(CC)C(=O)/C(=C/C1=CC(=C(C(=C1)O)O)[N+](=O)[O-])/C#N

> <PUBCHEM_CACTVS_TPSA>
130

> <PUBCHEM_MONOISOTOPIC_WEIGHT>
305.101171

> <PUBCHEM_TOTAL_CHARGE>
0

> <PUBCHEM_HEAVY_ATOM_COUNT>
22

> <PUBCHEM_ATOM_DEF_STEREO_COUNT>
0

> <PUBCHEM_ATOM_UDEF_STEREO_COUNT>
0

> <PUBCHEM_BOND_DEF_STEREO_COUNT>
1

> <PUBCHEM_BOND_UDEF_STEREO_COUNT>
0

> <PUBCHEM_ISOTOPIC_ATOM_COUNT>
0

> <PUBCHEM_COMPONENT_COUNT>
1

> <PUBCHEM_CACTVS_TAUTO_COUNT>
16

> <PUBCHEM_COORDINATE_TYPE>
1
5
255

> <PUBCHEM_BONDANNOTATIONS>
14  17  8
14  18  8
17  19  8
18  20  8
19  21  8
20  21  8

$$$$

