197701
  -OEChem-07051213123D

 28 28  0     1  0  0  0  0  0999 V2000
   -3.4743    1.2481   -0.6994 O   0  0  0  0  0  0  0  0  0  0  0  0
    3.6648    1.8706   -0.1751 O   0  5  0  0  0  0  0  0  0  0  0  0
    1.4708    1.9425   -0.0278 O   0  0  0  0  0  0  0  0  0  0  0  0
    0.3949   -0.1527    0.8693 N   0  0  0  0  0  0  0  0  0  0  0  0
    2.5833   -0.0215    0.0626 N   0  0  0  0  0  0  0  0  0  0  0  0
    1.3497   -2.0352   -0.2328 N   0  0  0  0  0  0  0  0  0  0  0  0
    2.5522    1.3472   -0.0530 N   0  3  0  0  0  0  0  0  0  0  0  0
   -1.9186   -0.3514    0.0913 C   0  0  1  0  0  0  0  0  0  0  0  0
   -3.3165   -0.8646    0.3607 C   0  0  0  0  0  0  0  0  0  0  0  0
   -2.1762    1.1337   -0.0959 C   0  0  0  0  0  0  0  0  0  0  0  0
   -0.9189   -0.6653    1.1878 C   0  0  0  0  0  0  0  0  0  0  0  0
   -4.1417   -0.0174   -0.5853 C   0  0  0  0  0  0  0  0  0  0  0  0
    1.4348   -0.8104    0.2073 C   0  0  0  0  0  0  0  0  0  0  0  0
    2.4955   -2.6236   -0.9097 C   0  0  0  0  0  0  0  0  0  0  0  0
   -1.5698   -0.7709   -0.8626 H   0  0  0  0  0  0  0  0  0  0  0  0
   -3.6112   -0.6594    1.3971 H   0  0  0  0  0  0  0  0  0  0  0  0
   -3.4337   -1.9365    0.1787 H   0  0  0  0  0  0  0  0  0  0  0  0
   -2.2047    1.6748    0.8563 H   0  0  0  0  0  0  0  0  0  0  0  0
   -1.4357    1.6103   -0.7449 H   0  0  0  0  0  0  0  0  0  0  0  0
   -0.8694   -1.7473    1.3567 H   0  0  0  0  0  0  0  0  0  0  0  0
   -1.2446   -0.2220    2.1364 H   0  0  0  0  0  0  0  0  0  0  0  0
   -4.1828   -0.4641   -1.5844 H   0  0  0  0  0  0  0  0  0  0  0  0
   -5.1642    0.1356   -0.2288 H   0  0  0  0  0  0  0  0  0  0  0  0
    0.5799    0.7728    1.2453 H   0  0  0  0  0  0  0  0  0  0  0  0
    3.4535   -0.5152   -0.1184 H   0  0  0  0  0  0  0  0  0  0  0  0
    2.8137   -2.0238   -1.7688 H   0  0  0  0  0  0  0  0  0  0  0  0
    2.2137   -3.6101   -1.2911 H   0  0  0  0  0  0  0  0  0  0  0  0
    3.3343   -2.7672   -0.2211 H   0  0  0  0  0  0  0  0  0  0  0  0
  1 10  1  0  0  0  0
  1 12  1  0  0  0  0
  2  7  1  0  0  0  0
  3  7  2  0  0  0  0
  4 11  1  0  0  0  0
  4 13  1  0  0  0  0
  4 24  1  0  0  0  0
  5  7  1  0  0  0  0
  5 13  1  0  0  0  0
  5 25  1  0  0  0  0
  6 13  2  0  0  0  0
  6 14  1  0  0  0  0
  8  9  1  0  0  0  0
  8 10  1  0  0  0  0
  8 11  1  0  0  0  0
  8 15  1  0  0  0  0
  9 12  1  0  0  0  0
  9 16  1  0  0  0  0
  9 17  1  0  0  0  0
 10 18  1  0  0  0  0
 10 19  1  0  0  0  0
 11 20  1  0  0  0  0
 11 21  1  0  0  0  0
 12 22  1  0  0  0  0
 12 23  1  0  0  0  0
 14 26  1  0  0  0  0
 14 27  1  0  0  0  0
 14 28  1  0  0  0  0
M  CHG  2   2  -1   7   1
M  END
> <PUBCHEM_COMPOUND_CID>
197701

> <PUBCHEM_CONFORMER_RMSD>
0.6

> <PUBCHEM_CONFORMER_DIVERSEORDER>
1
74
325
73
111
385
350
248
294
207
58
351
390
388
138
387
369
279
237
81
179
218
251
289
336
140
330
40
354
9
183
261
284
223
293
211
355
297
55
230
242
333
361
382
163
27
281
69
275
273
61
170
167
184
298
212
339
321
94
5
240
306
365
299
267
147
26
222
182
205
245
175
395
253
381
338
8
187
62
10
329
360
131
132
266
264
356
231
89
194
290
56
394
18
215
227
224
271
210
177
343
36
117
168
341
254
389
154
247
162
101
185
161
376
60
91
241
142
203
43
199
206
250
11
150
269
288
112
296
30
346
189
286
109
323
165
137
377
366
314
190
243
130
373
276
181
33
128
233
352
97
19
86
308
24
202
110
174
244
257
252
145
386
143
103
396
262
347
301
270
113
135
87
295
70
340
105
77
324
41
197
287
209
274
383
362
186
380
191
219
374
80
188
114
166
304
246
95
334
156
44
84
349
42
151
34
300
158
47
259
260
342
4
17
256
358
371
322
318
118
313
378
146
280
315
172
375
96
75
49
357
148
106
51
370
66
125
217
391
317
307
331
255
226
108
232
83
65
16
198
272
39
327
265
100
50
328
258
116
193
345
88
38
384
195
25
149
78
316
71
28
178
52
45
392
37
291
32
126
99
136
6
192
220
238
359
234
283
309
68
157
141
85
153
277
393
335
249
129
228
320
363
225
348
2
312
53
92
57
139
310
121
59
176
239
303
236
22
144
115
196
353
379
200
278
235
229
123
302
21
311
67
3
344
268
79
372
104
160
20
72
368
35
90
107
54
31
326
119
332
152
282
164
292
127
169
367
63
23
12
134
221
102
98
263
29
201
7
208
204
214
93
155
48
364
285
159
216
124
122
337
133
82
305
120
76
14
64
171
13
180
319
173
15
46
213

> <PUBCHEM_MMFF94_PARTIAL_CHARGES>
14
1 -0.56
10 0.28
11 0.37
12 0.28
13 0.55
14 0.25
2 -0.52
24 0.4
25 0.4
3 -0.52
4 -0.82
5 -0.45
6 -0.7
7 1.04

> <PUBCHEM_EFFECTIVE_ROTOR_COUNT>
6

> <PUBCHEM_PHARMACOPHORE_FEATURES>
7
1 1 acceptor
1 2 acceptor
1 3 acceptor
1 4 donor
1 5 donor
4 4 5 6 13 cation
5 1 8 9 10 12 rings

> <PUBCHEM_HEAVY_ATOM_COUNT>
14

> <PUBCHEM_ATOM_DEF_STEREO_COUNT>
0

> <PUBCHEM_ATOM_UDEF_STEREO_COUNT>
1

> <PUBCHEM_BOND_DEF_STEREO_COUNT>
0

> <PUBCHEM_BOND_UDEF_STEREO_COUNT>
0

> <PUBCHEM_ISOTOPIC_ATOM_COUNT>
0

> <PUBCHEM_COMPONENT_COUNT>
1

> <PUBCHEM_CACTVS_TAUTO_COUNT>
3

> <PUBCHEM_CONFORMER_ID>
0003044500000001

> <PUBCHEM_MMFF94_ENERGY>
40.6311

> <PUBCHEM_FEATURE_SELFOVERLAP>
35.643

> <PUBCHEM_SHAPE_FINGERPRINT>
10608611 8 18343304781785966661
11031198 65 18408319956265589545
116883 192 17975132359642265100
11715629 250 18131638902261078103
12932764 1 17559956687690245411
13380535 76 18342460287904230138
14250199 8 18338515347758230253
14415576 193 18413388717902400876
15219456 202 18341608213806148931
15375462 6 18409730651538794431
15502722 9 18408037420595753574
15775835 57 18188769435776708788
17041 50 18194964281845707343
170605 34 18273219676910751699
18186145 218 17988641960486827363
18619055 16 18186524332144260803
20201158 50 18412545413916418177
20606313 2 18412830187517747832
20645476 183 17749396923207023735
20645477 70 18336269028518474399
20653085 51 18268707389197596249
20671657 53 17972872837477810550
21499 59 18263645065495345228
21524375 3 18196935479019667120
21618674 68 18342179964279558749
21947302 44 18343867727270250162
22096605 113 18410014312416338851
22802520 49 18270108136603733219
23402539 116 17915752980833899315
23402655 69 18409735062507325493
23532345 88 18261401086590727311
23557571 272 17845076395017895003
23598291 2 17824527793677740963
3060560 45 18334856074429783548
3248919 1 18262244416704800563
6049 1 18058425721370826755
7364860 26 18335701671643458750
8030462 33 17458344156404164067
81228 2 17326320525522449898
81539 233 18341894056933391710
93112 12 18338517564061913095

> <PUBCHEM_SHAPE_MULTIPOLES>
250.58
6.86
2.28
0.88
2.9
0.28
0.09
-1.15
-1.66
-2.74
-0.56
0.2
0.22
0.69

> <PUBCHEM_SHAPE_SELFOVERLAP>
492.362

> <PUBCHEM_SHAPE_VOLUME>
151.7

> <PUBCHEM_COORDINATE_TYPE>
2
5
10

$$$$

