441951
  -OEChem-07051212562D

122128  0     1  0  0  0  0  0999 V2000
    7.7265   -2.5154    0.0000 O   0  0  0  0  0  0  0  0  0  0  0  0
   16.6516    0.5711    0.0000 O   0  0  0  0  0  0  0  0  0  0  0  0
   15.7972   -0.9355    0.0000 O   0  0  0  0  0  0  0  0  0  0  0  0
    5.9945   -2.5087    0.0000 O   0  0  0  0  0  0  0  0  0  0  0  0
    7.7342   -0.5154    0.0000 O   0  0  0  0  0  0  0  0  0  0  0  0
    6.0061    0.4912    0.0000 O   0  0  0  0  0  0  0  0  0  0  0  0
    4.2702   -0.5021    0.0000 O   0  0  0  0  0  0  0  0  0  0  0  0
    4.2586   -3.5020    0.0000 O   0  0  0  0  0  0  0  0  0  0  0  0
    4.2740    0.4979    0.0000 O   0  0  0  0  0  0  0  0  0  0  0  0
    3.3984   -1.9987    0.0000 O   0  0  0  0  0  0  0  0  0  0  0  0
    6.0138    2.4912    0.0000 O   0  0  0  0  0  0  0  0  0  0  0  0
    4.2856    3.4979    0.0000 O   0  0  0  0  0  0  0  0  0  0  0  0
    2.5497    2.5046    0.0000 O   0  0  0  0  0  0  0  0  0  0  0  0
    2.5381   -0.4954    0.0000 O   0  0  0  0  0  0  0  0  0  0  0  0
   12.2536   -0.9631    0.0000 C   0  0  2  0  0  0  0  0  0  0  0  0
   11.3876   -0.4631    0.0000 C   0  0  1  0  0  0  0  0  0  0  0  0
   10.4776   -0.9699    0.0000 C   0  0  2  0  0  0  0  0  0  0  0  0
   13.1196   -0.4631    0.0000 C   0  0  1  0  0  0  0  0  0  0  0  0
   10.4695   -2.0115    0.0000 C   0  0  2  0  0  0  0  0  0  0  0  0
   12.2696   -2.0046    0.0000 C   0  0  0  0  0  0  0  0  0  0  0  0
    9.5341   -2.5612    0.0000 C   0  0  0  0  0  0  0  0  0  0  0  0
   11.3716   -2.5323    0.0000 C   0  0  0  0  0  0  0  0  0  0  0  0
   13.1196    0.5369    0.0000 C   0  0  0  0  0  0  0  0  0  0  0  0
   11.3876    0.5369    0.0000 C   0  0  0  0  0  0  0  0  0  0  0  0
    9.5507   -0.4058    0.0000 C   0  0  0  0  0  0  0  0  0  0  0  0
   14.0136    1.0716    0.0000 C   0  0  1  0  0  0  0  0  0  0  0  0
   14.0136   -0.9977    0.0000 C   0  0  0  0  0  0  0  0  0  0  0  0
   14.9196    0.5577    0.0000 C   0  0  1  0  0  0  0  0  0  0  0  0
   12.8964   -1.7291    0.0000 C   0  0  0  0  0  0  0  0  0  0  0  0
    8.5945   -2.0188    0.0000 C   0  0  2  0  0  0  0  0  0  0  0  0
   14.9196   -0.4839    0.0000 C   0  0  0  0  0  0  0  0  0  0  0  0
   10.4853    0.0301    0.0000 C   0  0  0  0  0  0  0  0  0  0  0  0
    8.6028   -0.9338    0.0000 C   0  0  0  0  0  0  0  0  0  0  0  0
   12.2536    1.0369    0.0000 C   0  0  0  0  0  0  0  0  0  0  0  0
   13.4617   -1.4027    0.0000 C   0  0  0  0  0  0  0  0  0  0  0  0
   13.9885    2.1563    0.0000 C   0  0  0  0  0  0  0  0  0  0  0  0
   15.8634    1.0930    0.0000 C   0  0  0  0  0  0  0  0  0  0  0  0
   14.9196    2.7132    0.0000 C   0  0  0  0  0  0  0  0  0  0  0  0
    9.0374   -3.4292    0.0000 C   0  0  0  0  0  0  0  0  0  0  0  0
   10.0374   -3.4253    0.0000 C   0  0  0  0  0  0  0  0  0  0  0  0
   15.8634    2.1780    0.0000 C   0  0  0  0  0  0  0  0  0  0  0  0
   15.7895    0.0644    0.0000 C   0  0  0  0  0  0  0  0  0  0  0  0
   15.4096    3.5850    0.0000 C   0  0  0  0  0  0  0  0  0  0  0  0
   14.4096    3.5734    0.0000 C   0  0  0  0  0  0  0  0  0  0  0  0
    6.8624   -2.0121    0.0000 C   0  0  2  0  0  0  0  0  0  0  0  0
    6.8663   -1.0121    0.0000 C   0  0  1  0  0  0  0  0  0  0  0  0
    6.0022   -0.5087    0.0000 C   0  0  2  0  0  0  0  0  0  0  0  0
    5.1304   -2.0054    0.0000 C   0  0  1  0  0  0  0  0  0  0  0  0
    5.1343   -1.0054    0.0000 C   0  0  1  0  0  0  0  0  0  0  0  0
    4.2625   -2.5020    0.0000 C   0  0  0  0  0  0  0  0  0  0  0  0
    5.1420    0.9946    0.0000 C   0  0  2  0  0  0  0  0  0  0  0  0
    5.1458    1.9946    0.0000 C   0  0  1  0  0  0  0  0  0  0  0  0
    4.2817    2.4979    0.0000 C   0  0  2  0  0  0  0  0  0  0  0  0
    3.4099    1.0013    0.0000 C   0  0  1  0  0  0  0  0  0  0  0  0
    3.4138    2.0013    0.0000 C   0  0  1  0  0  0  0  0  0  0  0  0
    2.5420    0.5046    0.0000 C   0  0  0  0  0  0  0  0  0  0  0  0
   12.1237   -0.0381    0.0000 H   0  0  0  0  0  0  0  0  0  0  0  0
   10.4728   -2.8615    0.0000 H   0  0  0  0  0  0  0  0  0  0  0  0
   12.4877   -2.5850    0.0000 H   0  0  0  0  0  0  0  0  0  0  0  0
   12.8788   -1.8891    0.0000 H   0  0  0  0  0  0  0  0  0  0  0  0
   10.9743   -3.0083    0.0000 H   0  0  0  0  0  0  0  0  0  0  0  0
   11.7726   -3.0052    0.0000 H   0  0  0  0  0  0  0  0  0  0  0  0
   11.1755    1.1195    0.0000 H   0  0  0  0  0  0  0  0  0  0  0  0
   10.7770    0.4293    0.0000 H   0  0  0  0  0  0  0  0  0  0  0  0
    9.9589    0.0608    0.0000 H   0  0  0  0  0  0  0  0  0  0  0  0
    9.1608    0.0762    0.0000 H   0  0  0  0  0  0  0  0  0  0  0  0
   14.7430    1.5079    0.0000 H   0  0  0  0  0  0  0  0  0  0  0  0
   13.6090   -1.4675    0.0000 H   0  0  0  0  0  0  0  0  0  0  0  0
   14.4072   -1.4768    0.0000 H   0  0  0  0  0  0  0  0  0  0  0  0
   12.4214   -2.1276    0.0000 H   0  0  0  0  0  0  0  0  0  0  0  0
   13.2949   -2.2041    0.0000 H   0  0  0  0  0  0  0  0  0  0  0  0
   13.3713   -1.3306    0.0000 H   0  0  0  0  0  0  0  0  0  0  0  0
    8.0593   -1.7056    0.0000 H   0  0  0  0  0  0  0  0  0  0  0  0
   15.1287   -1.0676    0.0000 H   0  0  0  0  0  0  0  0  0  0  0  0
   15.5305   -0.3778    0.0000 H   0  0  0  0  0  0  0  0  0  0  0  0
   11.1053    0.0253    0.0000 H   0  0  0  0  0  0  0  0  0  0  0  0
   10.4901    0.6500    0.0000 H   0  0  0  0  0  0  0  0  0  0  0  0
    9.8653    0.0348    0.0000 H   0  0  0  0  0  0  0  0  0  0  0  0
    8.3983   -0.3485    0.0000 H   0  0  0  0  0  0  0  0  0  0  0  0
    7.9912   -1.0352    0.0000 H   0  0  0  0  0  0  0  0  0  0  0  0
   12.2536    1.6569    0.0000 H   0  0  0  0  0  0  0  0  0  0  0  0
   12.8791   -1.6148    0.0000 H   0  0  0  0  0  0  0  0  0  0  0  0
   13.6738   -1.9853    0.0000 H   0  0  0  0  0  0  0  0  0  0  0  0
   14.0443   -1.1906    0.0000 H   0  0  0  0  0  0  0  0  0  0  0  0
   13.7660    2.7350    0.0000 H   0  0  0  0  0  0  0  0  0  0  0  0
   13.3802    2.0361    0.0000 H   0  0  0  0  0  0  0  0  0  0  0  0
   16.0725    0.5093    0.0000 H   0  0  0  0  0  0  0  0  0  0  0  0
   16.4743    1.1991    0.0000 H   0  0  0  0  0  0  0  0  0  0  0  0
    8.4993   -3.1213    0.0000 H   0  0  0  0  0  0  0  0  0  0  0  0
    8.7295   -3.9673    0.0000 H   0  0  0  0  0  0  0  0  0  0  0  0
    9.5756   -3.7371    0.0000 H   0  0  0  0  0  0  0  0  0  0  0  0
    9.5017   -3.7374    0.0000 H   0  0  0  0  0  0  0  0  0  0  0  0
   10.3495   -3.9611    0.0000 H   0  0  0  0  0  0  0  0  0  0  0  0
   10.5732   -3.1133    0.0000 H   0  0  0  0  0  0  0  0  0  0  0  0
   16.4743    2.0719    0.0000 H   0  0  0  0  0  0  0  0  0  0  0  0
   16.0725    2.7617    0.0000 H   0  0  0  0  0  0  0  0  0  0  0  0
   15.9501    3.2812    0.0000 H   0  0  0  0  0  0  0  0  0  0  0  0
   15.7133    4.1254    0.0000 H   0  0  0  0  0  0  0  0  0  0  0  0
   14.8691    3.8887    0.0000 H   0  0  0  0  0  0  0  0  0  0  0  0
   14.9430    3.8896    0.0000 H   0  0  0  0  0  0  0  0  0  0  0  0
   14.0935    4.1067    0.0000 H   0  0  0  0  0  0  0  0  0  0  0  0
   13.8763    3.2572    0.0000 H   0  0  0  0  0  0  0  0  0  0  0  0
    6.8600   -2.6321    0.0000 H   0  0  0  0  0  0  0  0  0  0  0  0
   17.1909    0.2652    0.0000 H   0  0  0  0  0  0  0  0  0  0  0  0
    7.4020   -1.3241    0.0000 H   0  0  0  0  0  0  0  0  0  0  0  0
    5.4665   -0.1967    0.0000 H   0  0  0  0  0  0  0  0  0  0  0  0
    5.1280   -2.6254    0.0000 H   0  0  0  0  0  0  0  0  0  0  0  0
    5.1367   -0.3854    0.0000 H   0  0  0  0  0  0  0  0  0  0  0  0
    7.7366    0.1046    0.0000 H   0  0  0  0  0  0  0  0  0  0  0  0
    3.7320   -0.8100    0.0000 H   0  0  0  0  0  0  0  0  0  0  0  0
    5.6801    1.3025    0.0000 H   0  0  0  0  0  0  0  0  0  0  0  0
    5.1482    2.6146    0.0000 H   0  0  0  0  0  0  0  0  0  0  0  0
    3.7205   -3.8100    0.0000 H   0  0  0  0  0  0  0  0  0  0  0  0
    4.8198    2.8058    0.0000 H   0  0  0  0  0  0  0  0  0  0  0  0
    3.4075    0.3813    0.0000 H   0  0  0  0  0  0  0  0  0  0  0  0
    2.8757    1.6933    0.0000 H   0  0  0  0  0  0  0  0  0  0  0  0
    6.0162    3.1112    0.0000 H   0  0  0  0  0  0  0  0  0  0  0  0
    2.3322    1.0880    0.0000 H   0  0  0  0  0  0  0  0  0  0  0  0
    1.9310    0.3993    0.0000 H   0  0  0  0  0  0  0  0  0  0  0  0
    3.7498    3.8100    0.0000 H   0  0  0  0  0  0  0  0  0  0  0  0
    2.0116    2.1967    0.0000 H   0  0  0  0  0  0  0  0  0  0  0  0
    2.0000   -0.8033    0.0000 H   0  0  0  0  0  0  0  0  0  0  0  0
 30  1  1  1  0  0  0
 45  1  1  6  0  0  0
  2 42  1  0  0  0  0
  2104  1  0  0  0  0
  3 42  2  0  0  0  0
  4 45  1  0  0  0  0
  4 48  1  0  0  0  0
 46  5  1  1  0  0  0
  5109  1  0  0  0  0
 47  6  1  6  0  0  0
 51  6  1  6  0  0  0
 49  7  1  1  0  0  0
  7110  1  0  0  0  0
  8 50  1  0  0  0  0
  8113  1  0  0  0  0
  9 51  1  0  0  0  0
  9 54  1  0  0  0  0
 10 50  2  0  0  0  0
 52 11  1  1  0  0  0
 11117  1  0  0  0  0
 53 12  1  6  0  0  0
 12120  1  0  0  0  0
 55 13  1  1  0  0  0
 13121  1  0  0  0  0
 14 56  1  0  0  0  0
 14122  1  0  0  0  0
 15 16  1  0  0  0  0
 15 18  1  0  0  0  0
 15 20  1  0  0  0  0
 15 29  1  1  0  0  0
 16 17  1  0  0  0  0
 16 24  1  0  0  0  0
 16 57  1  6  0  0  0
 17 19  1  0  0  0  0
 17 25  1  0  0  0  0
 17 32  1  1  0  0  0
 18 23  1  0  0  0  0
 18 27  1  0  0  0  0
 18 35  1  6  0  0  0
 19 21  1  0  0  0  0
 19 22  1  0  0  0  0
 19 58  1  6  0  0  0
 20 22  1  0  0  0  0
 20 59  1  0  0  0  0
 20 60  1  0  0  0  0
 21 30  1  0  0  0  0
 21 39  1  0  0  0  0
 21 40  1  0  0  0  0
 22 61  1  0  0  0  0
 22 62  1  0  0  0  0
 23 26  1  0  0  0  0
 23 34  2  0  0  0  0
 24 34  1  0  0  0  0
 24 63  1  0  0  0  0
 24 64  1  0  0  0  0
 25 33  1  0  0  0  0
 25 65  1  0  0  0  0
 25 66  1  0  0  0  0
 26 28  1  0  0  0  0
 26 36  1  0  0  0  0
 26 67  1  1  0  0  0
 27 31  1  0  0  0  0
 27 68  1  0  0  0  0
 27 69  1  0  0  0  0
 28 31  1  0  0  0  0
 28 37  1  0  0  0  0
 28 42  1  1  0  0  0
 29 70  1  0  0  0  0
 29 71  1  0  0  0  0
 29 72  1  0  0  0  0
 30 33  1  0  0  0  0
 30 73  1  0  0  0  0
 31 74  1  0  0  0  0
 31 75  1  0  0  0  0
 32 76  1  0  0  0  0
 32 77  1  0  0  0  0
 32 78  1  0  0  0  0
 33 79  1  0  0  0  0
 33 80  1  0  0  0  0
 34 81  1  0  0  0  0
 35 82  1  0  0  0  0
 35 83  1  0  0  0  0
 35 84  1  0  0  0  0
 36 38  1  0  0  0  0
 36 85  1  0  0  0  0
 36 86  1  0  0  0  0
 37 41  1  0  0  0  0
 37 87  1  0  0  0  0
 37 88  1  0  0  0  0
 38 41  1  0  0  0  0
 38 43  1  0  0  0  0
 38 44  1  0  0  0  0
 39 89  1  0  0  0  0
 39 90  1  0  0  0  0
 39 91  1  0  0  0  0
 40 92  1  0  0  0  0
 40 93  1  0  0  0  0
 40 94  1  0  0  0  0
 41 95  1  0  0  0  0
 41 96  1  0  0  0  0
 43 97  1  0  0  0  0
 43 98  1  0  0  0  0
 43 99  1  0  0  0  0
 44100  1  0  0  0  0
 44101  1  0  0  0  0
 44102  1  0  0  0  0
 45 46  1  0  0  0  0
 45103  1  0  0  0  0
 46 47  1  0  0  0  0
 46105  1  0  0  0  0
 47 49  1  0  0  0  0
 47106  1  0  0  0  0
 48 49  1  0  0  0  0
 48 50  1  6  0  0  0
 48107  1  0  0  0  0
 49108  1  0  0  0  0
 51 52  1  0  0  0  0
 51111  1  0  0  0  0
 52 53  1  0  0  0  0
 52112  1  0  0  0  0
 53 55  1  0  0  0  0
 53114  1  0  0  0  0
 54 55  1  0  0  0  0
 54 56  1  6  0  0  0
 54115  1  0  0  0  0
 55116  1  0  0  0  0
 56118  1  0  0  0  0
 56119  1  0  0  0  0
M  END
> <PUBCHEM_COMPOUND_CID>
441951

> <PUBCHEM_COMPOUND_CANONICALIZED>
1

> <PUBCHEM_CACTVS_COMPLEXITY>
1560

> <PUBCHEM_CACTVS_HBOND_ACCEPTOR>
14

> <PUBCHEM_CACTVS_HBOND_DONOR>
8

> <PUBCHEM_CACTVS_ROTATABLE_BOND>
7

> <PUBCHEM_CACTVS_SUBSKEYS>
AAADcfB8PAAAAAAAAAAAAAAAAAAAAAAAAAA0aMGCAAAAAADAAAAAGgAACAAADxSwgAMCCAAABgCIAiDSCAIAAAAgAAAACAFAAAgREBYAAQQiQAAFoAAPAAPK7PzPgAAAAAAAAADAAAYAADAAAAAAAAAAAA==

> <PUBCHEM_IUPAC_OPENEYE_NAME>
(2S,3S,4S,5R,6R)-6-[[(3S,4aR,6aR,6bS,8aS,12aS,14aR,14bR)-8a-carboxy-4,4,6a,6b,11,11,14b-heptamethyl-1,2,3,4a,5,6,7,8,9,10,12,12a,14,14a-tetradecahydropicen-3-yl]oxy]-3,5-dihydroxy-4-[(2S,3R,4S,5S,6R)-3,4,5-trihydroxy-6-(hydroxymethyl)tetrahydropyran-2-yl]oxy-tetrahydropyran-2-carboxylic acid

> <PUBCHEM_IUPAC_CAS_NAME>
(2S,3S,4S,5R,6R)-6-[[(3S,4aR,6aR,6bS,8aS,12aS,14aR,14bR)-8a-carboxy-4,4,6a,6b,11,11,14b-heptamethyl-1,2,3,4a,5,6,7,8,9,10,12,12a,14,14a-tetradecahydropicen-3-yl]oxy]-3,5-dihydroxy-4-[[(2S,3R,4S,5S,6R)-3,4,5-trihydroxy-6-(hydroxymethyl)-2-oxanyl]oxy]-2-oxanecarboxylic acid

> <PUBCHEM_IUPAC_NAME>
(2S,3S,4S,5R,6R)-6-[[(3S,4aR,6aR,6bS,8aS,12aS,14aR,14bR)-8a-carboxy-4,4,6a,6b,11,11,14b-heptamethyl-1,2,3,4a,5,6,7,8,9,10,12,12a,14,14a-tetradecahydropicen-3-yl]oxy]-3,5-dihydroxy-4-[(2S,3R,4S,5S,6R)-3,4,5-trihydroxy-6-(hydroxymethyl)oxan-2-yl]oxyoxane-2-carboxylic acid

> <PUBCHEM_IUPAC_SYSTEMATIC_NAME>
(2S,3S,4S,5R,6R)-6-[[(3S,4aR,6aR,6bS,8aS,12aS,14aR,14bR)-8a-carboxy-4,4,6a,6b,11,11,14b-heptamethyl-1,2,3,4a,5,6,7,8,9,10,12,12a,14,14a-tetradecahydropicen-3-yl]oxy]-4-[(2S,3R,4S,5S,6R)-6-(hydroxymethyl)-3,4,5-tris(oxidanyl)oxan-2-yl]oxy-3,5-bis(oxidanyl)oxane-2-carboxylic acid

> <PUBCHEM_IUPAC_TRADITIONAL_NAME>
(2S,3S,4S,5R,6R)-6-[[(3S,4aR,6aR,6bS,8aS,12aS,14aR,14bR)-8a-carboxy-4,4,6a,6b,11,11,14b-heptamethyl-1,2,3,4a,5,6,7,8,9,10,12,12a,14,14a-tetradecahydropicen-3-yl]oxy]-3,5-dihydroxy-4-[(2S,3R,4S,5S,6R)-3,4,5-trihydroxy-6-methylol-tetrahydropyran-2-yl]oxy-tetrahydropyran-2-carboxylic acid

> <PUBCHEM_IUPAC_INCHI>
InChI=1S/C42H66O14/c1-37(2)14-16-42(36(51)52)17-15-40(6)20(21(42)18-37)8-9-24-39(5)12-11-25(38(3,4)23(39)10-13-41(24,40)7)54-35-30(48)31(29(47)32(56-35)33(49)50)55-34-28(46)27(45)26(44)22(19-43)53-34/h8,21-32,34-35,43-48H,9-19H2,1-7H3,(H,49,50)(H,51,52)/t21-,22+,23-,24+,25-,26+,27-,28+,29-,30+,31-,32-,34-,35+,39-,40+,41+,42-/m0/s1

> <PUBCHEM_IUPAC_INCHIKEY>
BQPYEFAVIPEQIK-CGCSGISQSA-N

> <PUBCHEM_XLOGP3_AA>
4.5

> <PUBCHEM_EXACT_MASS>
794.445257

> <PUBCHEM_MOLECULAR_FORMULA>
C42H66O14

> <PUBCHEM_MOLECULAR_WEIGHT>
794.96504

> <PUBCHEM_OPENEYE_CAN_SMILES>
CC1(CCC2(CCC3(C(=CCC4C3(CCC5C4(CCC(C5(C)C)OC6C(C(C(C(O6)C(=O)O)O)OC7C(C(C(C(O7)CO)O)O)O)O)C)C)C2C1)C)C(=O)O)C

> <PUBCHEM_OPENEYE_ISO_SMILES>
C[C@]12CC[C@@H](C([C@@H]1CC[C@@]3([C@@H]2CC=C4[C@]3(CC[C@@]5([C@H]4CC(CC5)(C)C)C(=O)O)C)C)(C)C)O[C@H]6[C@@H]([C@H]([C@@H]([C@H](O6)C(=O)O)O)O[C@H]7[C@@H]([C@H]([C@@H]([C@H](O7)CO)O)O)O)O

> <PUBCHEM_CACTVS_TPSA>
233

> <PUBCHEM_MONOISOTOPIC_WEIGHT>
794.445257

> <PUBCHEM_TOTAL_CHARGE>
0

> <PUBCHEM_HEAVY_ATOM_COUNT>
56

> <PUBCHEM_ATOM_DEF_STEREO_COUNT>
18

> <PUBCHEM_ATOM_UDEF_STEREO_COUNT>
0

> <PUBCHEM_BOND_DEF_STEREO_COUNT>
0

> <PUBCHEM_BOND_UDEF_STEREO_COUNT>
0

> <PUBCHEM_ISOTOPIC_ATOM_COUNT>
0

> <PUBCHEM_COMPONENT_COUNT>
1

> <PUBCHEM_CACTVS_TAUTO_COUNT>
1

> <PUBCHEM_COORDINATE_TYPE>
1
5
255

> <PUBCHEM_BONDANNOTATIONS>
30  1  5
45  1  6
52  11  5
53  12  6
55  13  5
15  29  5
16  57  6
17  32  5
18  35  6
19  58  6
26  67  5
28  42  5
48  50  6
46  5  5
54  56  6
47  6  6
51  6  6
49  7  5

$$$$

