5181
  -OEChem-06261200342D

 84 87  0     1  0  0  0  0  0999 V2000
   15.9185    1.7456    0.0000 O   0  0  0  0  0  0  0  0  0  0  0  0
   19.4486   -0.2785    0.0000 O   0  0  0  0  0  0  0  0  0  0  0  0
   19.4486    1.7698    0.0000 O   0  0  0  0  0  0  0  0  0  0  0  0
   14.1701    2.7802    0.0000 O   0  0  0  0  0  0  0  0  0  0  0  0
    8.0564    0.2048    0.0000 O   0  0  0  0  0  0  0  0  0  0  0  0
    9.8000   -2.7885    0.0000 O   0  0  0  0  0  0  0  0  0  0  0  0
   16.7845    0.2456    0.0000 C   0  0  3  0  0  0  0  0  0  0  0  0
   17.6785   -0.2890    0.0000 C   0  0  0  0  0  0  0  0  0  0  0  0
   16.7845    1.2456    0.0000 C   0  0  3  0  0  0  0  0  0  0  0  0
   18.5845    0.2248    0.0000 C   0  0  3  0  0  0  0  0  0  0  0  0
   17.6785    1.7803    0.0000 C   0  0  0  0  0  0  0  0  0  0  0  0
   18.5845    1.2665    0.0000 C   0  0  3  0  0  0  0  0  0  0  0  0
   15.9185   -0.2544    0.0000 C   0  0  0  0  0  0  0  0  0  0  0  0
   18.1684   -1.1608    0.0000 C   0  0  0  0  0  0  0  0  0  0  0  0
   17.1685   -1.1492    0.0000 C   0  0  0  0  0  0  0  0  0  0  0  0
   16.7845    2.2456    0.0000 C   0  0  0  0  0  0  0  0  0  0  0  0
   15.0525    0.2456    0.0000 C   0  0  0  0  0  0  0  0  0  0  0  0
   15.0525    1.2456    0.0000 C   0  0  0  0  0  0  0  0  0  0  0  0
   14.1585   -0.2890    0.0000 C   0  0  0  0  0  0  0  0  0  0  0  0
   14.1585    1.7803    0.0000 C   0  0  0  0  0  0  0  0  0  0  0  0
   13.2525    0.2248    0.0000 C   0  0  0  0  0  0  0  0  0  0  0  0
   13.2525    1.2665    0.0000 C   0  0  0  0  0  0  0  0  0  0  0  0
   12.3884   -0.2785    0.0000 C   0  0  0  0  0  0  0  0  0  0  0  0
   11.5204    0.2182    0.0000 C   0  0  0  0  0  0  0  0  0  0  0  0
   10.6563   -0.2852    0.0000 C   0  0  0  0  0  0  0  0  0  0  0  0
   10.6602   -1.2852    0.0000 C   0  0  0  0  0  0  0  0  0  0  0  0
    9.7884    0.2115    0.0000 C   0  0  0  0  0  0  0  0  0  0  0  0
    8.9243   -0.2919    0.0000 C   0  0  0  0  0  0  0  0  0  0  0  0
    9.7961   -1.7885    0.0000 C   0  0  0  0  0  0  0  0  0  0  0  0
    8.9282   -1.2918    0.0000 C   0  0  0  0  0  0  0  0  0  0  0  0
    8.0641   -1.7952    0.0000 C   0  0  0  0  0  0  0  0  0  0  0  0
    7.1961   -1.2985    0.0000 C   0  0  0  0  0  0  0  0  0  0  0  0
    6.3320   -1.8019    0.0000 C   0  0  0  0  0  0  0  0  0  0  0  0
    5.4641   -1.3052    0.0000 C   0  0  0  0  0  0  0  0  0  0  0  0
    4.6000   -1.8085    0.0000 C   0  0  0  0  0  0  0  0  0  0  0  0
    6.3359   -2.8018    0.0000 C   0  0  0  0  0  0  0  0  0  0  0  0
    3.7320   -1.3119    0.0000 C   0  0  0  0  0  0  0  0  0  0  0  0
    2.8680   -1.8152    0.0000 C   0  0  0  0  0  0  0  0  0  0  0  0
    2.0000   -1.3186    0.0000 C   0  0  0  0  0  0  0  0  0  0  0  0
    2.8718   -2.8152    0.0000 C   0  0  0  0  0  0  0  0  0  0  0  0
   16.7797   -0.3743    0.0000 H   0  0  0  0  0  0  0  0  0  0  0  0
   18.5809   -0.3952    0.0000 H   0  0  0  0  0  0  0  0  0  0  0  0
   18.0721    2.2593    0.0000 H   0  0  0  0  0  0  0  0  0  0  0  0
   17.2739    2.2501    0.0000 H   0  0  0  0  0  0  0  0  0  0  0  0
   18.5809    1.8864    0.0000 H   0  0  0  0  0  0  0  0  0  0  0  0
   15.5200   -0.7293    0.0000 H   0  0  0  0  0  0  0  0  0  0  0  0
   16.3170   -0.7293    0.0000 H   0  0  0  0  0  0  0  0  0  0  0  0
   16.6352   -0.8330    0.0000 H   0  0  0  0  0  0  0  0  0  0  0  0
   16.8523   -1.6825    0.0000 H   0  0  0  0  0  0  0  0  0  0  0  0
   17.7018   -1.4654    0.0000 H   0  0  0  0  0  0  0  0  0  0  0  0
   17.6279   -1.4645    0.0000 H   0  0  0  0  0  0  0  0  0  0  0  0
   18.4722   -1.7012    0.0000 H   0  0  0  0  0  0  0  0  0  0  0  0
   18.7089   -0.8570    0.0000 H   0  0  0  0  0  0  0  0  0  0  0  0
   17.4045    2.2456    0.0000 H   0  0  0  0  0  0  0  0  0  0  0  0
   16.7845    2.8656    0.0000 H   0  0  0  0  0  0  0  0  0  0  0  0
   16.1645    2.2456    0.0000 H   0  0  0  0  0  0  0  0  0  0  0  0
   19.9868    0.0294    0.0000 H   0  0  0  0  0  0  0  0  0  0  0  0
   19.4462    2.3898    0.0000 H   0  0  0  0  0  0  0  0  0  0  0  0
   14.1657   -0.9090    0.0000 H   0  0  0  0  0  0  0  0  0  0  0  0
   12.7167    1.5785    0.0000 H   0  0  0  0  0  0  0  0  0  0  0  0
   13.6368    3.0964    0.0000 H   0  0  0  0  0  0  0  0  0  0  0  0
   12.3908   -0.8985    0.0000 H   0  0  0  0  0  0  0  0  0  0  0  0
   11.5180    0.8381    0.0000 H   0  0  0  0  0  0  0  0  0  0  0  0
   11.1983   -1.5931    0.0000 H   0  0  0  0  0  0  0  0  0  0  0  0
    9.7860    0.8315    0.0000 H   0  0  0  0  0  0  0  0  0  0  0  0
    7.6674   -2.2717    0.0000 H   0  0  0  0  0  0  0  0  0  0  0  0
    8.4644   -2.2686    0.0000 H   0  0  0  0  0  0  0  0  0  0  0  0
    8.0540    0.8248    0.0000 H   0  0  0  0  0  0  0  0  0  0  0  0
   10.3381   -3.0964    0.0000 H   0  0  0  0  0  0  0  0  0  0  0  0
    7.1937   -0.6785    0.0000 H   0  0  0  0  0  0  0  0  0  0  0  0
    5.8608   -0.8287    0.0000 H   0  0  0  0  0  0  0  0  0  0  0  0
    5.0637   -0.8318    0.0000 H   0  0  0  0  0  0  0  0  0  0  0  0
    4.2033   -2.2850    0.0000 H   0  0  0  0  0  0  0  0  0  0  0  0
    5.0003   -2.2819    0.0000 H   0  0  0  0  0  0  0  0  0  0  0  0
    5.7159   -2.8042    0.0000 H   0  0  0  0  0  0  0  0  0  0  0  0
    6.3383   -3.4218    0.0000 H   0  0  0  0  0  0  0  0  0  0  0  0
    6.9559   -2.7995    0.0000 H   0  0  0  0  0  0  0  0  0  0  0  0
    3.7296   -0.6919    0.0000 H   0  0  0  0  0  0  0  0  0  0  0  0
    2.3079   -0.7804    0.0000 H   0  0  0  0  0  0  0  0  0  0  0  0
    1.4619   -1.0106    0.0000 H   0  0  0  0  0  0  0  0  0  0  0  0
    1.6921   -1.8567    0.0000 H   0  0  0  0  0  0  0  0  0  0  0  0
    2.2518   -2.8176    0.0000 H   0  0  0  0  0  0  0  0  0  0  0  0
    2.8742   -3.4352    0.0000 H   0  0  0  0  0  0  0  0  0  0  0  0
    3.4918   -2.8128    0.0000 H   0  0  0  0  0  0  0  0  0  0  0  0
  1  9  1  0  0  0  0
  1 18  1  0  0  0  0
  2 10  1  0  0  0  0
  2 57  1  0  0  0  0
  3 12  1  0  0  0  0
  3 58  1  0  0  0  0
  4 20  1  0  0  0  0
  4 61  1  0  0  0  0
  5 28  1  0  0  0  0
  5 68  1  0  0  0  0
  6 29  1  0  0  0  0
  6 69  1  0  0  0  0
  7  8  1  0  0  0  0
  7  9  1  0  0  0  0
  7 13  1  0  0  0  0
  7 41  1  0  0  0  0
  8 10  1  0  0  0  0
  8 14  1  0  0  0  0
  8 15  1  0  0  0  0
  9 11  1  0  0  0  0
  9 16  1  0  0  0  0
 10 12  1  0  0  0  0
 10 42  1  0  0  0  0
 11 12  1  0  0  0  0
 11 43  1  0  0  0  0
 11 44  1  0  0  0  0
 12 45  1  0  0  0  0
 13 17  1  0  0  0  0
 13 46  1  0  0  0  0
 13 47  1  0  0  0  0
 14 51  1  0  0  0  0
 14 52  1  0  0  0  0
 14 53  1  0  0  0  0
 15 48  1  0  0  0  0
 15 49  1  0  0  0  0
 15 50  1  0  0  0  0
 16 54  1  0  0  0  0
 16 55  1  0  0  0  0
 16 56  1  0  0  0  0
 17 18  2  0  0  0  0
 17 19  1  0  0  0  0
 18 20  1  0  0  0  0
 19 21  2  0  0  0  0
 19 59  1  0  0  0  0
 20 22  2  0  0  0  0
 21 22  1  0  0  0  0
 21 23  1  0  0  0  0
 22 60  1  0  0  0  0
 23 24  2  3  0  0  0
 23 62  1  0  0  0  0
 24 25  1  0  0  0  0
 24 63  1  0  0  0  0
 25 26  2  0  0  0  0
 25 27  1  0  0  0  0
 26 29  1  0  0  0  0
 26 64  1  0  0  0  0
 27 28  2  0  0  0  0
 27 65  1  0  0  0  0
 28 30  1  0  0  0  0
 29 30  2  0  0  0  0
 30 31  1  0  0  0  0
 31 32  1  0  0  0  0
 31 66  1  0  0  0  0
 31 67  1  0  0  0  0
 32 33  2  3  0  0  0
 32 70  1  0  0  0  0
 33 34  1  0  0  0  0
 33 36  1  0  0  0  0
 34 35  1  0  0  0  0
 34 71  1  0  0  0  0
 34 72  1  0  0  0  0
 35 37  1  0  0  0  0
 35 73  1  0  0  0  0
 35 74  1  0  0  0  0
 36 75  1  0  0  0  0
 36 76  1  0  0  0  0
 36 77  1  0  0  0  0
 37 38  2  0  0  0  0
 37 78  1  0  0  0  0
 38 39  1  0  0  0  0
 38 40  1  0  0  0  0
 39 79  1  0  0  0  0
 39 80  1  0  0  0  0
 39 81  1  0  0  0  0
 40 82  1  0  0  0  0
 40 83  1  0  0  0  0
 40 84  1  0  0  0  0
M  END
> <PUBCHEM_COMPOUND_CID>
5181

> <PUBCHEM_COMPOUND_CANONICALIZED>
1

> <PUBCHEM_CACTVS_COMPLEXITY>
938

> <PUBCHEM_CACTVS_HBOND_ACCEPTOR>
6

> <PUBCHEM_CACTVS_HBOND_DONOR>
5

> <PUBCHEM_CACTVS_ROTATABLE_BOND>
7

> <PUBCHEM_CACTVS_SUBSKEYS>
AAADcfB8OAAAAAAAAAAAAAAAAAAAAAAAAAA0YMEAAAAAAACRQAAAGgAACAAAD1SgmAIyBoAABgCAAiBCAAACCAAgIAAIiAAGiIgNNyKGMRqCeCOlwBULuAfA4PwP4AADCAAIQADCAAYQADCAAAAAAAAAAA==

> <PUBCHEM_IUPAC_OPENEYE_NAME>
7-[2-[4-(3,7-dimethylocta-2,6-dienyl)-3,5-dihydroxy-phenyl]vinyl]-1,1,4a-trimethyl-3,4,9,9a-tetrahydro-2H-xanthene-2,3,5-triol

> <PUBCHEM_IUPAC_CAS_NAME>
7-[2-[4-(3,7-dimethylocta-2,6-dienyl)-3,5-dihydroxyphenyl]ethenyl]-1,1,4a-trimethyl-3,4,9,9a-tetrahydro-2H-xanthene-2,3,5-triol

> <PUBCHEM_IUPAC_NAME>
7-[2-[4-(3,7-dimethylocta-2,6-dienyl)-3,5-dihydroxyphenyl]ethenyl]-1,1,4a-trimethyl-3,4,9,9a-tetrahydro-2H-xanthene-2,3,5-triol

> <PUBCHEM_IUPAC_SYSTEMATIC_NAME>
7-[2-[4-(3,7-dimethylocta-2,6-dienyl)-3,5-bis(oxidanyl)phenyl]ethenyl]-1,1,4a-trimethyl-3,4,9,9a-tetrahydro-2H-xanthene-2,3,5-triol

> <PUBCHEM_IUPAC_TRADITIONAL_NAME>
7-[2-[4-(3,7-dimethylocta-2,6-dienyl)-3,5-dihydroxy-phenyl]vinyl]-1,1,4a-trimethyl-3,4,9,9a-tetrahydro-2H-xanthene-2,3,5-triol

> <PUBCHEM_IUPAC_INCHI>
InChI=1S/C34H44O6/c1-20(2)8-7-9-21(3)10-13-25-26(35)15-23(16-27(25)36)12-11-22-14-24-18-30-33(4,5)32(39)29(38)19-34(30,6)40-31(24)28(37)17-22/h8,10-12,14-17,29-30,32,35-39H,7,9,13,18-19H2,1-6H3

> <PUBCHEM_IUPAC_INCHIKEY>
HSDZWMOBUPRZEU-UHFFFAOYSA-N

> <PUBCHEM_XLOGP3_AA>
7.5

> <PUBCHEM_EXACT_MASS>
548.313789

> <PUBCHEM_MOLECULAR_FORMULA>
C34H44O6

> <PUBCHEM_MOLECULAR_WEIGHT>
548.70956

> <PUBCHEM_OPENEYE_CAN_SMILES>
CC(=CCCC(=CCC1=C(C=C(C=C1O)C=CC2=CC3=C(C(=C2)O)OC4(CC(C(C(C4C3)(C)C)O)O)C)O)C)C

> <PUBCHEM_OPENEYE_ISO_SMILES>
CC(=CCCC(=CCC1=C(C=C(C=C1O)C=CC2=CC3=C(C(=C2)O)OC4(CC(C(C(C4C3)(C)C)O)O)C)O)C)C

> <PUBCHEM_CACTVS_TPSA>
110

> <PUBCHEM_MONOISOTOPIC_WEIGHT>
548.313789

> <PUBCHEM_TOTAL_CHARGE>
0

> <PUBCHEM_HEAVY_ATOM_COUNT>
40

> <PUBCHEM_ATOM_DEF_STEREO_COUNT>
0

> <PUBCHEM_ATOM_UDEF_STEREO_COUNT>
4

> <PUBCHEM_BOND_DEF_STEREO_COUNT>
0

> <PUBCHEM_BOND_UDEF_STEREO_COUNT>
2

> <PUBCHEM_ISOTOPIC_ATOM_COUNT>
0

> <PUBCHEM_COMPONENT_COUNT>
1

> <PUBCHEM_CACTVS_TAUTO_COUNT>
45

> <PUBCHEM_COORDINATE_TYPE>
1
5
255

> <PUBCHEM_BONDANNOTATIONS>
17  18  8
17  19  8
18  20  8
19  21  8
10  2  3
20  22  8
21  22  8
23  24  1
25  26  8
25  27  8
26  29  8
27  28  8
28  30  8
29  30  8
12  3  3
32  33  1
7  13  3
9  16  3

$$$$

