14464334
  -OEChem-07051213103D

 54 57  0     1  0  0  0  0  0999 V2000
    0.7991   -1.5069    0.8994 O   0  0  0  0  0  0  0  0  0  0  0  0
    0.6509   -1.3310   -1.9825 O   0  0  0  0  0  0  0  0  0  0  0  0
    0.3320   -4.0503   -2.3378 O   0  0  0  0  0  0  0  0  0  0  0  0
   -0.8325   -4.7226    0.2108 O   0  0  0  0  0  0  0  0  0  0  0  0
   -1.9025   -1.6116    1.5074 O   0  0  0  0  0  0  0  0  0  0  0  0
    3.9684   -0.4803    1.7162 O   0  0  0  0  0  0  0  0  0  0  0  0
    0.3266    0.7269   -2.8658 O   0  0  0  0  0  0  0  0  0  0  0  0
    4.9747    2.0307    1.2586 O   0  0  0  0  0  0  0  0  0  0  0  0
    4.0231    3.5432   -0.8522 O   0  0  0  0  0  0  0  0  0  0  0  0
   -0.7871    0.2264    2.3302 O   0  0  0  0  0  0  0  0  0  0  0  0
   -6.1967    0.2249   -0.0410 O   0  0  0  0  0  0  0  0  0  0  0  0
   -3.0220    3.7556   -0.6641 O   0  0  0  0  0  0  0  0  0  0  0  0
   -5.5719    2.7379   -1.0233 O   0  0  0  0  0  0  0  0  0  0  0  0
    1.5555   -2.2349   -1.2963 C   0  0  1  0  0  0  0  0  0  0  0  0
    1.9442   -1.6435    0.0539 C   0  0  1  0  0  0  0  0  0  0  0  0
    0.8374   -3.5710   -1.0946 C   0  0  1  0  0  0  0  0  0  0  0  0
   -0.3180   -3.4306   -0.1014 C   0  0  2  0  0  0  0  0  0  0  0  0
    0.1690   -2.7578    1.1882 C   0  0  2  0  0  0  0  0  0  0  0  0
    2.5099   -0.2749   -0.1796 C   0  0  0  0  0  0  0  0  0  0  0  0
   -0.9839   -2.4791    2.1467 C   0  0  0  0  0  0  0  0  0  0  0  0
    2.0289    0.5019   -1.2404 C   0  0  0  0  0  0  0  0  0  0  0  0
    0.9421   -0.0097   -2.1065 C   0  0  0  0  0  0  0  0  0  0  0  0
    3.4982    0.2487    0.6626 C   0  0  0  0  0  0  0  0  0  0  0  0
    2.5389    1.7855   -1.4629 C   0  0  0  0  0  0  0  0  0  0  0  0
    4.0095    1.5268    0.4373 C   0  0  0  0  0  0  0  0  0  0  0  0
    3.5319    2.2926   -0.6248 C   0  0  0  0  0  0  0  0  0  0  0  0
   -1.6908   -0.2750    1.6795 C   0  0  0  0  0  0  0  0  0  0  0  0
   -2.7183    0.5223    0.9634 C   0  0  0  0  0  0  0  0  0  0  0  0
    4.6626    3.2298    1.9634 C   0  0  0  0  0  0  0  0  0  0  0  0
   -2.3794    1.7715    0.4850 C   0  0  0  0  0  0  0  0  0  0  0  0
   -3.9808   -0.0101    0.7986 C   0  0  0  0  0  0  0  0  0  0  0  0
   -4.9463    0.7393    0.1261 C   0  0  0  0  0  0  0  0  0  0  0  0
   -3.3447    2.5209   -0.1873 C   0  0  0  0  0  0  0  0  0  0  0  0
   -4.6282    2.0048   -0.3669 C   0  0  0  0  0  0  0  0  0  0  0  0
    2.4209   -2.3774   -1.9561 H   0  0  0  0  0  0  0  0  0  0  0  0
    2.6811   -2.2943    0.5412 H   0  0  0  0  0  0  0  0  0  0  0  0
    1.5538   -4.3189   -0.7324 H   0  0  0  0  0  0  0  0  0  0  0  0
   -1.1292   -2.8627   -0.5714 H   0  0  0  0  0  0  0  0  0  0  0  0
    0.8856   -3.4061    1.7098 H   0  0  0  0  0  0  0  0  0  0  0  0
   -0.6185   -2.0467    3.0861 H   0  0  0  0  0  0  0  0  0  0  0  0
   -1.5130   -3.4020    2.4057 H   0  0  0  0  0  0  0  0  0  0  0  0
   -0.1297   -4.8878   -2.1610 H   0  0  0  0  0  0  0  0  0  0  0  0
   -0.1177   -5.2408    0.6184 H   0  0  0  0  0  0  0  0  0  0  0  0
    2.1706    2.3985   -2.2816 H   0  0  0  0  0  0  0  0  0  0  0  0
    4.6414    0.0466    2.1810 H   0  0  0  0  0  0  0  0  0  0  0  0
    4.9158    3.5979   -0.4729 H   0  0  0  0  0  0  0  0  0  0  0  0
    4.9611    3.0917    3.0072 H   0  0  0  0  0  0  0  0  0  0  0  0
    3.5936    3.4702    1.9479 H   0  0  0  0  0  0  0  0  0  0  0  0
    5.2436    4.0626    1.5574 H   0  0  0  0  0  0  0  0  0  0  0  0
   -1.3797    2.1763    0.6177 H   0  0  0  0  0  0  0  0  0  0  0  0
   -4.2437   -0.9888    1.1902 H   0  0  0  0  0  0  0  0  0  0  0  0
   -6.2335   -0.6589    0.3634 H   0  0  0  0  0  0  0  0  0  0  0  0
   -3.8071    4.1300   -1.1001 H   0  0  0  0  0  0  0  0  0  0  0  0
   -6.3965    2.2221   -1.0516 H   0  0  0  0  0  0  0  0  0  0  0  0
  1 15  1  0  0  0  0
  1 18  1  0  0  0  0
  2 14  1  0  0  0  0
  2 22  1  0  0  0  0
  3 16  1  0  0  0  0
  3 42  1  0  0  0  0
  4 17  1  0  0  0  0
  4 43  1  0  0  0  0
  5 20  1  0  0  0  0
  5 27  1  0  0  0  0
  6 23  1  0  0  0  0
  6 45  1  0  0  0  0
  7 22  2  0  0  0  0
  8 25  1  0  0  0  0
  8 29  1  0  0  0  0
  9 26  1  0  0  0  0
  9 46  1  0  0  0  0
 10 27  2  0  0  0  0
 11 32  1  0  0  0  0
 11 52  1  0  0  0  0
 12 33  1  0  0  0  0
 12 53  1  0  0  0  0
 13 34  1  0  0  0  0
 13 54  1  0  0  0  0
 14 15  1  0  0  0  0
 14 16  1  0  0  0  0
 14 35  1  0  0  0  0
 15 19  1  0  0  0  0
 15 36  1  0  0  0  0
 16 17  1  0  0  0  0
 16 37  1  0  0  0  0
 17 18  1  0  0  0  0
 17 38  1  0  0  0  0
 18 20  1  0  0  0  0
 18 39  1  0  0  0  0
 19 21  1  0  0  0  0
 19 23  2  0  0  0  0
 20 40  1  0  0  0  0
 20 41  1  0  0  0  0
 21 22  1  0  0  0  0
 21 24  2  0  0  0  0
 23 25  1  0  0  0  0
 24 26  1  0  0  0  0
 24 44  1  0  0  0  0
 25 26  2  0  0  0  0
 27 28  1  0  0  0  0
 28 30  2  0  0  0  0
 28 31  1  0  0  0  0
 29 47  1  0  0  0  0
 29 48  1  0  0  0  0
 29 49  1  0  0  0  0
 30 33  1  0  0  0  0
 30 50  1  0  0  0  0
 31 32  2  0  0  0  0
 31 51  1  0  0  0  0
 32 34  1  0  0  0  0
 33 34  2  0  0  0  0
M  END
> <PUBCHEM_COMPOUND_CID>
14464334

> <PUBCHEM_CONFORMER_RMSD>
1

> <PUBCHEM_CONFORMER_DIVERSEORDER>
12
206
55
191
173
328
332
123
200
267
277
297
50
92
294
322
41
353
366
324
116
53
78
390
229
126
299
2
54
222
58
101
440
86
97
439
325
90
37
247
145
338
396
190
367
114
209
234
279
68
127
403
66
442
298
348
383
180
167
236
258
71
265
262
386
57
181
412
416
21
249
51
120
376
10
62
421
194
197
245
160
428
389
430
158
360
237
198
113
316
427
291
77
429
128
176
235
157
61
65
95
211
393
135
371
99
250
361
131
22
130
339
388
182
170
93
292
358
398
187
405
374
72
104
356
129
308
216
214
136
432
175
73
14
437
314
132
259
9
357
184
395
350
118
301
220
363
11
270
365
134
144
23
107
139
217
121
64
98
252
379
384
286
213
103
323
146
221
352
408
169
380
223
188
59
192
446
18
166
88
349
283
355
34
159
417
153
70
36
189
215
302
35
164
423
426
242
142
387
115
240
156
382
143
89
303
368
287
178
232
273
345
289
443
6
47
163
96
149
227
333
404
3
406
310
186
397
343
125
75
43
271
102
74
119
375
399
444
124
122
67
63
16
274
105
320
369
224
202
28
4
306
244
422
434
219
410
141
196
137
155
272
276
327
108
87
133
31
304
40
30
199
391
438
165
351
69
253
7
183
359
309
256
8
268
377
39
1
228
330
336
400
254
409
195
354
238
84
230
288
81
372
17
106
151
42
381
239
411
246
45
285
56
373
315
241
300
418
278
5
318
264
401
185
392
342
261
76
407
243
79
313
52
201
233
305
94
334
177
109
207
260
293
117
231
218
280
208
284
33
290
370
329
168
425
26
83
255
420
112
100
27
435
174
319
82
38
46
263
179
326
269
19
91
341
346
110
172
344
147
295
419
226
424
29
60
210
275
138
362
212
20
225
394
445
150
140
335
154
311
251
24
282
431
203
148
433
171
13
205
80
281
15
85
111
248
378
307
364
331
48
415
414
321
347
296
49
312
152
337
436
44
413
32
193
204
162
385
25
317
266
257
161
340
402
441

> <PUBCHEM_MMFF94_PARTIAL_CHARGES>
44
1 -0.56
10 -0.57
11 -0.53
12 -0.53
13 -0.53
14 0.28
15 0.42
16 0.28
17 0.28
18 0.28
19 -0.14
2 -0.43
20 0.28
21 0.09
22 0.63
23 0.08
24 -0.15
25 0.08
26 0.08
27 0.63
28 0.09
29 0.28
3 -0.68
30 -0.15
31 -0.15
32 0.08
33 0.08
34 0.08
4 -0.68
42 0.4
43 0.4
44 0.15
45 0.45
46 0.45
5 -0.43
50 0.15
51 0.15
52 0.45
53 0.45
54 0.45
6 -0.53
7 -0.57
8 -0.36
9 -0.53

> <PUBCHEM_EFFECTIVE_ROTOR_COUNT>
6

> <PUBCHEM_PHARMACOPHORE_FEATURES>
17
1 1 acceptor
1 10 acceptor
1 11 donor
1 12 donor
1 13 donor
1 3 acceptor
1 3 donor
1 4 acceptor
1 4 donor
1 6 donor
1 7 acceptor
1 8 acceptor
1 9 donor
6 1 14 15 16 17 18 rings
6 19 21 23 24 25 26 rings
6 2 14 15 19 21 22 rings
6 28 30 31 32 33 34 rings

> <PUBCHEM_HEAVY_ATOM_COUNT>
34

> <PUBCHEM_ATOM_DEF_STEREO_COUNT>
0

> <PUBCHEM_ATOM_UDEF_STEREO_COUNT>
5

> <PUBCHEM_BOND_DEF_STEREO_COUNT>
0

> <PUBCHEM_BOND_UDEF_STEREO_COUNT>
0

> <PUBCHEM_ISOTOPIC_ATOM_COUNT>
0

> <PUBCHEM_COMPONENT_COUNT>
1

> <PUBCHEM_CACTVS_TAUTO_COUNT>
126

> <PUBCHEM_CONFORMER_ID>
00DCB54E0000000C

> <PUBCHEM_MMFF94_ENERGY>
115.115

> <PUBCHEM_FEATURE_SELFOVERLAP>
86.413

> <PUBCHEM_SHAPE_FINGERPRINT>
10165383 225 16820728511476874130
10439779 11 17838907275428407873
10764073 3 17485666058582507426
11370993 70 18343017809124594689
12156800 1 16690822196291964101
12422481 6 16772969145213097153
12633257 1 17131840828678335144
12788726 201 17764305042364837110
13965767 371 17489595592311148554
15338160 23 17834122944545537896
17974551 9 17418370281779206984
20567600 299 17836644493610050145
20715895 44 18130230470969103001
21304303 282 18119270383896119422
21792965 302 8934993807208396772
21860390 5 17977104879049194574
22149856 69 18125126491423028227
23559900 14 18197766902920614805
238 59 18192692639594591019
35225 105 18117275852849629150
376196 1 18341612641827773835
469060 322 17901656082446933727
4938544 92 18119535332761789296
508180 173 17405129112291050225
513532 50 18055351589944113223
6669772 16 16952567695426288962
8509985 295 15123500428638622709
9981440 41 18343018874508450427

> <PUBCHEM_SHAPE_MULTIPOLES>
623.4
9.76
5.28
2.24
7.12
3.1
-0.3
-12.45
1.67
-0.77
-0.93
-1.09
0.5
1.96

> <PUBCHEM_SHAPE_SELFOVERLAP>
1376.56

> <PUBCHEM_SHAPE_VOLUME>
331.1

> <PUBCHEM_COORDINATE_TYPE>
2
5
10

$$$$

