100302
  -OEChem-07051212572D

 39 42  0     1  0  0  0  0  0999 V2000
    4.4836   -3.3206    0.0000 O   0  0  0  0  0  0  0  0  0  0  0  0
    2.3784   -1.5538    0.0000 O   0  0  0  0  0  0  0  0  0  0  0  0
    5.7604    1.7370    0.0000 O   0  0  0  0  0  0  0  0  0  0  0  0
    4.9557    3.3206    0.0000 O   0  0  0  0  0  0  0  0  0  0  0  0
    4.0547   -0.9660    0.0000 C   0  0  1  0  0  0  0  0  0  0  0  0
    4.9557   -1.3999    0.0000 C   0  0  1  0  0  0  0  0  0  0  0  0
    4.8197   -2.3846    0.0000 C   0  0  2  0  0  0  0  0  0  0  0  0
    3.8414   -2.5612    0.0000 C   0  0  2  0  0  0  0  0  0  0  0  0
    3.3696   -1.6863    0.0000 C   0  0  2  0  0  0  0  0  0  0  0  0
    5.8566   -0.9660    0.0000 C   0  0  1  0  0  0  0  0  0  0  0  0
    3.8322    0.0090    0.0000 C   0  0  0  0  0  0  0  0  0  0  0  0
    4.4557    0.7908    0.0000 C   0  0  1  0  0  0  0  0  0  0  0  0
    6.0792    0.0090    0.0000 C   0  0  0  0  0  0  0  0  0  0  0  0
    3.1537   -0.5321    0.0000 C   0  0  0  0  0  0  0  0  0  0  0  0
    5.4557    0.7908    0.0000 C   0  0  2  0  0  0  0  0  0  0  0  0
    6.6385   -1.5895    0.0000 C   0  0  0  0  0  0  0  0  0  0  0  0
    4.1509    1.7370    0.0000 C   0  0  0  0  0  0  0  0  0  0  0  0
    4.9557    2.3206    0.0000 C   0  0  0  0  0  0  0  0  0  0  0  0
    3.2004    2.0477    0.0000 C   0  0  0  0  0  0  0  0  0  0  0  0
    5.6427   -1.9004    0.0000 H   0  0  0  0  0  0  0  0  0  0  0  0
    5.4218   -2.5326    0.0000 H   0  0  0  0  0  0  0  0  0  0  0  0
    3.3291   -2.9104    0.0000 H   0  0  0  0  0  0  0  0  0  0  0  0
    3.1636   -1.1015    0.0000 H   0  0  0  0  0  0  0  0  0  0  0  0
    6.4418   -0.7612    0.0000 H   0  0  0  0  0  0  0  0  0  0  0  0
    3.4456    0.4937    0.0000 H   0  0  0  0  0  0  0  0  0  0  0  0
    3.2736   -0.2601    0.0000 H   0  0  0  0  0  0  0  0  0  0  0  0
    3.6195    0.9436    0.0000 H   0  0  0  0  0  0  0  0  0  0  0  0
    6.6378   -0.2601    0.0000 H   0  0  0  0  0  0  0  0  0  0  0  0
    6.4657    0.4937    0.0000 H   0  0  0  0  0  0  0  0  0  0  0  0
    3.4227    0.0265    0.0000 H   0  0  0  0  0  0  0  0  0  0  0  0
    2.5951   -0.2631    0.0000 H   0  0  0  0  0  0  0  0  0  0  0  0
    2.8847   -1.0907    0.0000 H   0  0  0  0  0  0  0  0  0  0  0  0
    6.2918    0.9436    0.0000 H   0  0  0  0  0  0  0  0  0  0  0  0
    6.2519   -2.0742    0.0000 H   0  0  0  0  0  0  0  0  0  0  0  0
    7.1232   -1.9760    0.0000 H   0  0  0  0  0  0  0  0  0  0  0  0
    7.0250   -1.1047    0.0000 H   0  0  0  0  0  0  0  0  0  0  0  0
    2.0000   -2.0449    0.0000 H   0  0  0  0  0  0  0  0  0  0  0  0
    3.0726    2.6543    0.0000 H   0  0  0  0  0  0  0  0  0  0  0  0
    2.7390    1.6336    0.0000 H   0  0  0  0  0  0  0  0  0  0  0  0
  7  1  1  1  0  0  0
  8  1  1  1  0  0  0
  9  2  1  6  0  0  0
  2 37  1  0  0  0  0
  3 15  1  0  0  0  0
  3 18  1  0  0  0  0
  4 18  2  0  0  0  0
  5  6  1  0  0  0  0
  5  9  1  0  0  0  0
  5 11  1  0  0  0  0
  5 14  1  6  0  0  0
  6  7  1  0  0  0  0
  6 10  1  0  0  0  0
  6 20  1  1  0  0  0
  7  8  1  0  0  0  0
  7 21  1  0  0  0  0
  8  9  1  0  0  0  0
  8 22  1  0  0  0  0
  9 23  1  0  0  0  0
 10 13  1  0  0  0  0
 10 16  1  1  0  0  0
 10 24  1  0  0  0  0
 11 12  1  0  0  0  0
 11 25  1  0  0  0  0
 11 26  1  0  0  0  0
 12 15  1  0  0  0  0
 12 17  1  0  0  0  0
 12 27  1  1  0  0  0
 13 15  1  0  0  0  0
 13 28  1  0  0  0  0
 13 29  1  0  0  0  0
 14 30  1  0  0  0  0
 14 31  1  0  0  0  0
 14 32  1  0  0  0  0
 15 33  1  6  0  0  0
 16 34  1  0  0  0  0
 16 35  1  0  0  0  0
 16 36  1  0  0  0  0
 17 18  1  0  0  0  0
 17 19  2  0  0  0  0
 19 38  1  0  0  0  0
 19 39  1  0  0  0  0
M  END
> <PUBCHEM_COMPOUND_CID>
100302

> <PUBCHEM_COMPOUND_CANONICALIZED>
1

> <PUBCHEM_CACTVS_COMPLEXITY>
473

> <PUBCHEM_CACTVS_HBOND_ACCEPTOR>
4

> <PUBCHEM_CACTVS_HBOND_DONOR>
1

> <PUBCHEM_CACTVS_ROTATABLE_BOND>
0

> <PUBCHEM_CACTVS_SUBSKEYS>
AAADceBwOAAAAAAAAAAAAAAAEgAAAaIAAAAkAAAABgAAAADQAAAAGgAACAAADxSggAICCAAABgCIAgDSCAAAAAAgAAAAAAEAAEgBFBIAIQACQAAFwAADIIHK6PyPgAAAAAAAAAAAAAAAAAAAAIQADCAAAA==

> <PUBCHEM_IUPAC_INCHI>
InChI=1S/C15H20O4/c1-6-4-9-8(7(2)14(17)18-9)5-15(3)10(6)11-12(19-11)13(15)16/h6,8-13,16H,2,4-5H2,1,3H3/t6-,8-,9+,10-,11-,12-,13+,15+/m1/s1

> <PUBCHEM_IUPAC_INCHIKEY>
XPNBRTWIMIGGMT-MIPSWGQUSA-N

> <PUBCHEM_XLOGP3_AA>
1.7

> <PUBCHEM_EXACT_MASS>
264.136159

> <PUBCHEM_MOLECULAR_FORMULA>
C15H20O4

> <PUBCHEM_MOLECULAR_WEIGHT>
264.3169

> <PUBCHEM_OPENEYE_CAN_SMILES>
CC1CC2C(CC3(C1C4C(C3O)O4)C)C(=C)C(=O)O2

> <PUBCHEM_OPENEYE_ISO_SMILES>
C[C@@H]1C[C@H]2[C@H](C[C@]3([C@H]1[C@@H]4[C@H]([C@@H]3O)O4)C)C(=C)C(=O)O2

> <PUBCHEM_CACTVS_TPSA>
59.1

> <PUBCHEM_MONOISOTOPIC_WEIGHT>
264.136159

> <PUBCHEM_TOTAL_CHARGE>
0

> <PUBCHEM_HEAVY_ATOM_COUNT>
19

> <PUBCHEM_ATOM_DEF_STEREO_COUNT>
8

> <PUBCHEM_ATOM_UDEF_STEREO_COUNT>
0

> <PUBCHEM_BOND_DEF_STEREO_COUNT>
0

> <PUBCHEM_BOND_UDEF_STEREO_COUNT>
0

> <PUBCHEM_ISOTOPIC_ATOM_COUNT>
0

> <PUBCHEM_COMPONENT_COUNT>
1

> <PUBCHEM_CACTVS_TAUTO_COUNT>
1

> <PUBCHEM_COORDINATE_TYPE>
1
5
255

> <PUBCHEM_BONDANNOTATIONS>
7  1  5
8  1  5
10  16  5
12  27  5
15  33  6
9  2  6
5  14  6
6  20  5

$$$$

