4225
  -OEChem-06251223583D

 53 55  0     1  0  0  0  0  0999 V2000
    4.0037    3.2321    1.0905 S   0  0  0  0  0  0  0  0  0  0  0  0
    5.0747    5.8482   -0.0392 S   0  0  0  0  0  0  0  0  0  0  0  0
   -1.4274   -0.4651    2.3393 O   0  0  0  0  0  0  0  0  0  0  0  0
    0.5080    0.8353   -0.8472 O   0  0  0  0  0  0  0  0  0  0  0  0
   -2.5111   -1.3148    0.4666 N   0  0  0  0  0  0  0  0  0  0  0  0
    0.9219   -0.5718    0.9369 N   0  0  0  0  0  0  0  0  0  0  0  0
    2.2023    1.3196    0.7116 N   0  0  0  0  0  0  0  0  0  0  0  0
    2.3341    3.1919   -0.8526 N   0  0  0  0  0  0  0  0  0  0  0  0
    3.0803    4.3446   -1.0252 N   0  0  0  0  0  0  0  0  0  0  0  0
   -4.1598    0.4720    0.2701 C   0  0  0  0  0  0  0  0  0  0  0  0
   -4.0338    0.4995   -1.2592 C   0  0  0  0  0  0  0  0  0  0  0  0
   -5.5598    0.9196    0.7112 C   0  0  0  0  0  0  0  0  0  0  0  0
   -4.3980    1.8682   -1.8302 C   0  0  0  0  0  0  0  0  0  0  0  0
   -5.9215    2.2874    0.1367 C   0  0  0  0  0  0  0  0  0  0  0  0
   -5.7867    2.3134   -1.3826 C   0  0  0  0  0  0  0  0  0  0  0  0
   -3.8427   -0.9203    0.8124 C   0  0  0  0  0  0  0  0  0  0  0  0
   -1.3936   -1.0559    1.2619 C   0  0  0  0  0  0  0  0  0  0  0  0
   -0.0978   -1.5402    0.6212 C   0  0  2  0  0  0  0  0  0  0  0  0
    0.2572   -2.9418    1.1307 C   0  0  0  0  0  0  0  0  0  0  0  0
    1.2404   -3.6563    0.2360 C   0  0  0  0  0  0  0  0  0  0  0  0
    1.1572    0.5724    0.1621 C   0  0  0  0  0  0  0  0  0  0  0  0
    0.7786   -4.4496   -0.8144 C   0  0  0  0  0  0  0  0  0  0  0  0
    2.6110   -3.5232    0.4590 C   0  0  0  0  0  0  0  0  0  0  0  0
    1.6871   -5.1100   -1.6415 C   0  0  0  0  0  0  0  0  0  0  0  0
    3.5194   -4.1834   -0.3683 C   0  0  0  0  0  0  0  0  0  0  0  0
    3.0574   -4.9769   -1.4186 C   0  0  0  0  0  0  0  0  0  0  0  0
    2.7132    2.5199    0.2133 C   0  0  0  0  0  0  0  0  0  0  0  0
    3.9857    4.4854   -0.0806 C   0  0  0  0  0  0  0  0  0  0  0  0
   -3.4294    1.1828    0.6819 H   0  0  0  0  0  0  0  0  0  0  0  0
   -4.6889   -0.2615   -1.7025 H   0  0  0  0  0  0  0  0  0  0  0  0
   -3.0104    0.2588   -1.5695 H   0  0  0  0  0  0  0  0  0  0  0  0
   -5.6112    0.9629    1.8057 H   0  0  0  0  0  0  0  0  0  0  0  0
   -6.3064    0.1834    0.3868 H   0  0  0  0  0  0  0  0  0  0  0  0
   -3.6552    2.6077   -1.5066 H   0  0  0  0  0  0  0  0  0  0  0  0
   -4.3575    1.8333   -2.9248 H   0  0  0  0  0  0  0  0  0  0  0  0
   -6.9480    2.5460    0.4200 H   0  0  0  0  0  0  0  0  0  0  0  0
   -5.2672    3.0512    0.5745 H   0  0  0  0  0  0  0  0  0  0  0  0
   -6.5421    1.6539   -1.8272 H   0  0  0  0  0  0  0  0  0  0  0  0
   -5.9873    3.3248   -1.7535 H   0  0  0  0  0  0  0  0  0  0  0  0
   -3.9468   -0.9365    1.9032 H   0  0  0  0  0  0  0  0  0  0  0  0
   -4.5260   -1.6699    0.3983 H   0  0  0  0  0  0  0  0  0  0  0  0
   -2.3847   -1.8177   -0.4069 H   0  0  0  0  0  0  0  0  0  0  0  0
   -0.2283   -1.5520   -0.4683 H   0  0  0  0  0  0  0  0  0  0  0  0
    0.6547   -2.8963    2.1538 H   0  0  0  0  0  0  0  0  0  0  0  0
   -0.6504   -3.5564    1.2052 H   0  0  0  0  0  0  0  0  0  0  0  0
    1.4393   -0.6776    1.8044 H   0  0  0  0  0  0  0  0  0  0  0  0
   -0.2866   -4.5589   -0.9998 H   0  0  0  0  0  0  0  0  0  0  0  0
    2.9838   -2.9083    1.2738 H   0  0  0  0  0  0  0  0  0  0  0  0
    1.3275   -5.7272   -2.4597 H   0  0  0  0  0  0  0  0  0  0  0  0
    4.5866   -4.0797   -0.1950 H   0  0  0  0  0  0  0  0  0  0  0  0
    3.7649   -5.4907   -2.0628 H   0  0  0  0  0  0  0  0  0  0  0  0
    2.6500    0.9750    1.5559 H   0  0  0  0  0  0  0  0  0  0  0  0
    5.7473    5.5087    1.0701 H   0  0  0  0  0  0  0  0  0  0  0  0
  1 27  1  0  0  0  0
  1 28  1  0  0  0  0
  2 28  1  0  0  0  0
  2 53  1  0  0  0  0
  3 17  2  0  0  0  0
  4 21  2  0  0  0  0
  5 16  1  0  0  0  0
  5 17  1  0  0  0  0
  5 42  1  0  0  0  0
  6 18  1  0  0  0  0
  6 21  1  0  0  0  0
  6 46  1  0  0  0  0
  7 21  1  0  0  0  0
  7 27  1  0  0  0  0
  7 52  1  0  0  0  0
  8  9  1  0  0  0  0
  8 27  2  0  0  0  0
  9 28  2  0  0  0  0
 10 11  1  0  0  0  0
 10 12  1  0  0  0  0
 10 16  1  0  0  0  0
 10 29  1  0  0  0  0
 11 13  1  0  0  0  0
 11 30  1  0  0  0  0
 11 31  1  0  0  0  0
 12 14  1  0  0  0  0
 12 32  1  0  0  0  0
 12 33  1  0  0  0  0
 13 15  1  0  0  0  0
 13 34  1  0  0  0  0
 13 35  1  0  0  0  0
 14 15  1  0  0  0  0
 14 36  1  0  0  0  0
 14 37  1  0  0  0  0
 15 38  1  0  0  0  0
 15 39  1  0  0  0  0
 16 40  1  0  0  0  0
 16 41  1  0  0  0  0
 17 18  1  0  0  0  0
 18 19  1  0  0  0  0
 18 43  1  0  0  0  0
 19 20  1  0  0  0  0
 19 44  1  0  0  0  0
 19 45  1  0  0  0  0
 20 22  2  0  0  0  0
 20 23  1  0  0  0  0
 22 24  1  0  0  0  0
 22 47  1  0  0  0  0
 23 25  2  0  0  0  0
 23 48  1  0  0  0  0
 24 26  2  0  0  0  0
 24 49  1  0  0  0  0
 25 26  1  0  0  0  0
 25 50  1  0  0  0  0
 26 51  1  0  0  0  0
M  END
> <PUBCHEM_COMPOUND_CID>
4225

> <PUBCHEM_CONFORMER_RMSD>
1.4

> <PUBCHEM_CONFORMER_DIVERSEORDER>
1
30
5
51
50
89
42
35
99
28
69
70
82
59
46
80
72
88
47
40
39
87
100
96
66
27
79
84
86
23
9
93
2
58
83
26
7
57
55
67
10
68
31
33
16
60
45
95
15
61
19
22
63
18
78
48
29
64
102
17
13
37
53
92
21
11
6
41
24
54
85
32
56
76
73
14
94
34
71
8
25
20
44
91
4
49
101
43
38
90
77
36
3
52
75
74
65
12
97
81
98
62

> <PUBCHEM_MMFF94_PARTIAL_CHARGES>
31
1 -0.08
16 0.3
17 0.57
18 0.36
19 0.14
2 -0.24
20 -0.14
21 0.69
22 -0.15
23 -0.15
24 -0.15
25 -0.15
26 -0.15
27 0.44
28 0.43
3 -0.57
4 -0.57
42 0.37
46 0.37
47 0.15
48 0.15
49 0.15
5 -0.73
50 0.15
51 0.15
52 0.37
53 0.18
6 -0.73
7 -0.49
8 -0.34
9 -0.34

> <PUBCHEM_EFFECTIVE_ROTOR_COUNT>
11.2

> <PUBCHEM_PHARMACOPHORE_FEATURES>
9
1 3 acceptor
1 4 acceptor
1 5 donor
1 6 donor
1 7 donor
1 9 acceptor
5 1 8 9 27 28 rings
6 10 11 12 13 14 15 rings
6 20 22 23 24 25 26 rings

> <PUBCHEM_HEAVY_ATOM_COUNT>
28

> <PUBCHEM_ATOM_DEF_STEREO_COUNT>
0

> <PUBCHEM_ATOM_UDEF_STEREO_COUNT>
1

> <PUBCHEM_BOND_DEF_STEREO_COUNT>
0

> <PUBCHEM_BOND_UDEF_STEREO_COUNT>
0

> <PUBCHEM_ISOTOPIC_ATOM_COUNT>
0

> <PUBCHEM_COMPONENT_COUNT>
1

> <PUBCHEM_CACTVS_TAUTO_COUNT>
20

> <PUBCHEM_CONFORMER_ID>
0000108100000001

> <PUBCHEM_MMFF94_ENERGY>
42.2562

> <PUBCHEM_FEATURE_SELFOVERLAP>
45.721

> <PUBCHEM_SHAPE_FINGERPRINT>
10290309 65 18267013964548770097
10815517 723 17179679776428297377
11386260 185 18050586320025545885
11720765 8 18193274328358274564
12107183 9 18128837256788176960
12293681 160 17555438888479768227
12788726 201 17333652081641025723
12988421 55 18119229680612167257
13540713 4 18202274824012923051
13590594 115 17762608891160429625
13757389 114 17620741800557412956
14508225 48 17831296464557620650
14556957 393 17546413019418890966
15081414 286 18266458900192045755
15775530 1 18198884960370773243
15878777 1 14161596082445339170
16988056 13 18196096770258833780
16992828 155 17697607593198290669
18470217 77 16821104295403922056
19309040 13 18334296462099169613
20238998 120 18050566549762885442
20771845 165 18196641896551469060
21304303 282 17683552566135048390
21365058 113 17975689812396224607
21641784 216 17614547564252704494
23559900 14 18265619956146715811
23576562 1 18191877923559706527
23929065 36 17109613973653250512
24771750 20 18340471292934220814
25019877 29 17904464222253915391
255183 313 17254807812062630331
376196 1 18271530801280729970
4017518 198 18187932738722116638
46194498 28 18339653334241789847
5081480 168 18050291659139740869
5219985 13 18268993072789141145
5969126 39 17543070533982429606
6700243 42 16464408438508075604
7399639 24 18125985089102301059
9981440 41 18268427928302273401

> <PUBCHEM_SHAPE_MULTIPOLES>
547.28
11.85
9.92
1.56
14.95
3.06
-0.08
-18.45
-2.02
-20.53
-3.95
0.88
0.46
2.35

> <PUBCHEM_SHAPE_SELFOVERLAP>
1113.162

> <PUBCHEM_SHAPE_VOLUME>
318

> <PUBCHEM_COORDINATE_TYPE>
2
5
10

$$$$

