17395889
  -OEChem-06241222533D

 44 46  0     1  0  0  0  0  0999 V2000
   -5.4939   -0.5492   -0.0788 S   0  0  0  0  0  0  0  0  0  0  0  0
    5.3947    1.2072   -0.6757 S   0  0  0  0  0  0  0  0  0  0  0  0
    5.5372   -1.5217    0.5414 S   0  0  0  0  0  0  0  0  0  0  0  0
   -6.4791    0.1462   -0.8806 O   0  0  0  0  0  0  0  0  0  0  0  0
   -5.6665   -1.9250    0.3384 O   0  0  0  0  0  0  0  0  0  0  0  0
   -1.5325   -1.4142    0.6401 O   0  0  0  0  0  0  0  0  0  0  0  0
   -1.7732    0.7198   -0.2856 N   0  0  0  0  0  0  0  0  0  0  0  0
   -3.1986    0.7509   -0.1135 C   0  0  1  0  0  0  0  0  0  0  0  0
   -3.8948   -0.3861   -0.8602 C   0  0  0  0  0  0  0  0  0  0  0  0
   -3.6051    0.6024    1.3549 C   0  0  0  0  0  0  0  0  0  0  0  0
   -5.1213    0.4459    1.3577 C   0  0  0  0  0  0  0  0  0  0  0  0
   -1.1704    1.9096   -0.8964 C   0  0  0  0  0  0  0  0  0  0  0  0
   -1.0443   -0.4088    0.1254 C   0  0  0  0  0  0  0  0  0  0  0  0
   -0.7770    2.9316    0.1500 C   0  0  0  0  0  0  0  0  0  0  0  0
    0.4129   -0.4240   -0.0786 C   0  0  0  0  0  0  0  0  0  0  0  0
    1.2610    0.0672    0.9138 C   0  0  0  0  0  0  0  0  0  0  0  0
    0.9462   -0.9295   -1.2643 C   0  0  0  0  0  0  0  0  0  0  0  0
    3.1756   -0.4521   -0.4650 C   0  0  0  0  0  0  0  0  0  0  0  0
    4.6730   -0.4682   -0.6734 C   0  0  0  0  0  0  0  0  0  0  0  0
    2.6424    0.0532    0.7207 C   0  0  0  0  0  0  0  0  0  0  0  0
    2.3275   -0.9435   -1.4576 C   0  0  0  0  0  0  0  0  0  0  0  0
    6.8895    0.7910    0.2568 C   0  0  0  0  0  0  0  0  0  0  0  0
    6.4967   -0.2028    1.3304 C   0  0  0  0  0  0  0  0  0  0  0  0
   -3.5973    1.7069   -0.4789 H   0  0  0  0  0  0  0  0  0  0  0  0
   -3.4027   -1.3574   -0.7886 H   0  0  0  0  0  0  0  0  0  0  0  0
   -4.0364   -0.1460   -1.9177 H   0  0  0  0  0  0  0  0  0  0  0  0
   -3.1675   -0.2769    1.8358 H   0  0  0  0  0  0  0  0  0  0  0  0
   -3.2992    1.4705    1.9487 H   0  0  0  0  0  0  0  0  0  0  0  0
   -5.4914   -0.0491    2.2579 H   0  0  0  0  0  0  0  0  0  0  0  0
   -5.6157    1.4136    1.2321 H   0  0  0  0  0  0  0  0  0  0  0  0
   -1.8710    2.3417   -1.6199 H   0  0  0  0  0  0  0  0  0  0  0  0
   -0.2815    1.6235   -1.4656 H   0  0  0  0  0  0  0  0  0  0  0  0
   -0.3135    3.8013   -0.3262 H   0  0  0  0  0  0  0  0  0  0  0  0
   -0.0699    2.5291    0.8784 H   0  0  0  0  0  0  0  0  0  0  0  0
   -1.6553    3.2797    0.7039 H   0  0  0  0  0  0  0  0  0  0  0  0
    0.8570    0.4559    1.8450 H   0  0  0  0  0  0  0  0  0  0  0  0
    0.2939   -1.3144   -2.0440 H   0  0  0  0  0  0  0  0  0  0  0  0
    4.8980   -0.8974   -1.6557 H   0  0  0  0  0  0  0  0  0  0  0  0
    3.2809    0.4405    1.5099 H   0  0  0  0  0  0  0  0  0  0  0  0
    2.7276   -1.3403   -2.3866 H   0  0  0  0  0  0  0  0  0  0  0  0
    7.3148    1.6970    0.6987 H   0  0  0  0  0  0  0  0  0  0  0  0
    7.6354    0.3705   -0.4267 H   0  0  0  0  0  0  0  0  0  0  0  0
    7.3822   -0.6284    1.8118 H   0  0  0  0  0  0  0  0  0  0  0  0
    5.8883    0.2682    2.1104 H   0  0  0  0  0  0  0  0  0  0  0  0
  1  4  2  0  0  0  0
  1  5  2  0  0  0  0
  1  9  1  0  0  0  0
  1 11  1  0  0  0  0
  2 19  1  0  0  0  0
  2 22  1  0  0  0  0
  3 19  1  0  0  0  0
  3 23  1  0  0  0  0
  6 13  2  0  0  0  0
  7  8  1  0  0  0  0
  7 12  1  0  0  0  0
  7 13  1  0  0  0  0
  8  9  1  0  0  0  0
  8 10  1  0  0  0  0
  8 24  1  0  0  0  0
  9 25  1  0  0  0  0
  9 26  1  0  0  0  0
 10 11  1  0  0  0  0
 10 27  1  0  0  0  0
 10 28  1  0  0  0  0
 11 29  1  0  0  0  0
 11 30  1  0  0  0  0
 12 14  1  0  0  0  0
 12 31  1  0  0  0  0
 12 32  1  0  0  0  0
 13 15  1  0  0  0  0
 14 33  1  0  0  0  0
 14 34  1  0  0  0  0
 14 35  1  0  0  0  0
 15 16  2  0  0  0  0
 15 17  1  0  0  0  0
 16 20  1  0  0  0  0
 16 36  1  0  0  0  0
 17 21  2  0  0  0  0
 17 37  1  0  0  0  0
 18 19  1  0  0  0  0
 18 20  2  0  0  0  0
 18 21  1  0  0  0  0
 19 38  1  0  0  0  0
 20 39  1  0  0  0  0
 21 40  1  0  0  0  0
 22 23  1  0  0  0  0
 22 41  1  0  0  0  0
 22 42  1  0  0  0  0
 23 43  1  0  0  0  0
 23 44  1  0  0  0  0
M  END
> <PUBCHEM_COMPOUND_CID>
17395889

> <PUBCHEM_CONFORMER_RMSD>
0.8

> <PUBCHEM_CONFORMER_DIVERSEORDER>
1
83
79
8
87
72
26
49
56
42
57
81
64
53
75
74
28
55
33
68
78
50
76
39
88
20
90
54
59
89
80
38
67
82
17
48
22
13
30
73
77
65
6
12
32
16
45
66
19
60
29
61
84
91
31
63
11
36
10
70
5
62
4
52
34
51
85
44
3
40
14
27
58
37
24
71
41
21
47
86
69
23
35
25
15
18
2
43
7
46
9

> <PUBCHEM_MMFF94_PARTIAL_CHARGES>
25
1 1.09
11 0.11
12 0.3
13 0.54
15 0.09
16 -0.15
17 -0.15
18 -0.14
19 0.6
2 -0.46
20 -0.15
21 -0.15
22 0.23
23 0.23
3 -0.46
36 0.15
37 0.15
39 0.15
4 -0.65
40 0.15
5 -0.65
6 -0.57
7 -0.66
8 0.3
9 0.11

> <PUBCHEM_EFFECTIVE_ROTOR_COUNT>
6.8

> <PUBCHEM_PHARMACOPHORE_FEATURES>
6
1 4 acceptor
1 5 acceptor
1 6 acceptor
5 1 8 9 10 11 rings
5 2 3 19 22 23 rings
6 15 16 17 18 20 21 rings

> <PUBCHEM_HEAVY_ATOM_COUNT>
23

> <PUBCHEM_ATOM_DEF_STEREO_COUNT>
0

> <PUBCHEM_ATOM_UDEF_STEREO_COUNT>
1

> <PUBCHEM_BOND_DEF_STEREO_COUNT>
0

> <PUBCHEM_BOND_UDEF_STEREO_COUNT>
0

> <PUBCHEM_ISOTOPIC_ATOM_COUNT>
0

> <PUBCHEM_COMPONENT_COUNT>
1

> <PUBCHEM_CACTVS_TAUTO_COUNT>
1

> <PUBCHEM_CONFORMER_ID>
010970B100000001

> <PUBCHEM_MMFF94_ENERGY>
55.8132

> <PUBCHEM_FEATURE_SELFOVERLAP>
30.462

> <PUBCHEM_SHAPE_FINGERPRINT>
10 15 17894919507952557394
11036077 3 8862944983293623621
11089746 13 16917350307485579807
11315181 36 18186801366694168515
11724838 91 18411702050671286036
11963148 33 18409175389372313078
12166972 35 17346877845324019772
12236239 1 17132114632341983374
12516196 113 18411135822777109453
12596602 18 17418375805424030384
12643181 29 9583515417957566868
12670546 56 18130229363083259642
12730499 353 16443057305960704678
12916748 109 18341891922719617856
13533116 47 17988926712908947578
13782708 43 18042112323289922406
13914758 101 15985112950000029189
14251732 16 18333450919949525906
14251764 18 18040718060603399810
14341114 176 18201716272000341804
14848160 23 16845289440925132664
14849402 71 17023474023506794224
15048467 5 17240478143663694505
17492 89 18121781892535992462
19377110 9 18409167740298010138
19489759 90 15985105219348884133
200 152 16343698842119958367
20681677 155 6555399921326284524
21130935 74 18186799218683902626
22079108 93 16660651752029294446
2215653 11 11455889161679693864
22224240 67 17676212359419913078
23402539 116 18341895220674207303
23557571 272 18335418014649412069
23559900 14 13110666221254980055
3009799 131 17632298982104049693
34797466 226 18259977155573384724
3633792 109 16988013802758458059
4325135 7 18186802478642454788
4340502 62 18413109472668305706
5104073 3 17750505355229074923
542803 24 17967248710999840930
7495541 125 18335138670224166152

> <PUBCHEM_SHAPE_MULTIPOLES>
462.29
16.95
1.77
1.27
4.31
0.91
0.05
-2.02
2.73
-0.33
-0.11
0.12
-0.05
-0.22

> <PUBCHEM_SHAPE_SELFOVERLAP>
930.213

> <PUBCHEM_SHAPE_VOLUME>
273.2

> <PUBCHEM_COORDINATE_TYPE>
2
5
10

$$$$

