83940
  -OEChem-07051212483D

 37 37  0     1  0  0  0  0  0999 V2000
   -5.3506   -2.8249   -0.2032 Cl  0  0  0  0  0  0  0  0  0  0  0  0
   -5.9937   -0.0701    0.5242 Cl  0  0  0  0  0  0  0  0  0  0  0  0
   -0.3922   -1.9491   -1.6121 O   0  0  0  0  0  0  0  0  0  0  0  0
   -1.2337    2.0578   -0.2897 O   0  0  0  0  0  0  0  0  0  0  0  0
   -3.3661   -1.2925    1.6161 O   0  0  0  0  0  0  0  0  0  0  0  0
   -0.8843    3.6833    1.3142 O   0  0  0  0  0  0  0  0  0  0  0  0
    6.1050    0.3255   -0.1186 O   0  5  0  0  0  0  0  0  0  0  0  0
    5.7165   -1.1900    1.4212 O   0  0  0  0  0  0  0  0  0  0  0  0
   -2.5004   -0.5557   -0.4044 N   0  0  0  0  0  0  0  0  0  0  0  0
    5.3262   -0.4526    0.4838 N   0  3  0  0  0  0  0  0  0  0  0  0
   -1.1419   -0.3597    0.0649 C   0  0  1  0  0  0  0  0  0  0  0  0
   -0.1511   -0.6401   -1.0854 C   0  0  1  0  0  0  0  0  0  0  0  0
   -1.0124    1.0398    0.6779 C   0  0  0  0  0  0  0  0  0  0  0  0
    1.3016   -0.5908   -0.6691 C   0  0  0  0  0  0  0  0  0  0  0  0
    1.7378   -1.4027    0.3643 C   0  0  0  0  0  0  0  0  0  0  0  0
    2.1659    0.2656   -1.3298 C   0  0  0  0  0  0  0  0  0  0  0  0
   -3.5074   -1.0119    0.4267 C   0  0  0  0  0  0  0  0  0  0  0  0
    3.0780   -1.3568    0.7483 C   0  0  0  0  0  0  0  0  0  0  0  0
    3.5061    0.3115   -0.9458 C   0  0  0  0  0  0  0  0  0  0  0  0
    3.9621   -0.4996    0.0933 C   0  0  0  0  0  0  0  0  0  0  0  0
   -4.8331   -1.1333   -0.2875 C   0  0  0  0  0  0  0  0  0  0  0  0
   -1.1386    3.3433    0.1667 C   0  0  0  0  0  0  0  0  0  0  0  0
   -1.3937    4.3029   -0.9560 C   0  0  0  0  0  0  0  0  0  0  0  0
   -0.9858   -1.0925    0.8661 H   0  0  0  0  0  0  0  0  0  0  0  0
   -0.3329    0.0615   -1.9094 H   0  0  0  0  0  0  0  0  0  0  0  0
   -0.0143    1.1671    1.1134 H   0  0  0  0  0  0  0  0  0  0  0  0
   -1.7476    1.1565    1.4844 H   0  0  0  0  0  0  0  0  0  0  0  0
   -2.7216   -0.2749   -1.3552 H   0  0  0  0  0  0  0  0  0  0  0  0
    1.0677   -2.0859    0.8772 H   0  0  0  0  0  0  0  0  0  0  0  0
    1.8220    0.9028   -2.1394 H   0  0  0  0  0  0  0  0  0  0  0  0
   -1.3273   -1.9899   -1.8757 H   0  0  0  0  0  0  0  0  0  0  0  0
    3.3985   -2.0049    1.5600 H   0  0  0  0  0  0  0  0  0  0  0  0
    4.1660    0.9917   -1.4784 H   0  0  0  0  0  0  0  0  0  0  0  0
   -4.7746   -0.8425   -1.3394 H   0  0  0  0  0  0  0  0  0  0  0  0
   -2.4018    4.1520   -1.3501 H   0  0  0  0  0  0  0  0  0  0  0  0
   -0.6473    4.1601   -1.7415 H   0  0  0  0  0  0  0  0  0  0  0  0
   -1.3151    5.3279   -0.5823 H   0  0  0  0  0  0  0  0  0  0  0  0
  1 21  1  0  0  0  0
  2 21  1  0  0  0  0
  3 12  1  0  0  0  0
  3 31  1  0  0  0  0
  4 13  1  0  0  0  0
  4 22  1  0  0  0  0
  5 17  2  0  0  0  0
  6 22  2  0  0  0  0
  7 10  1  0  0  0  0
  8 10  2  0  0  0  0
  9 11  1  0  0  0  0
  9 17  1  0  0  0  0
  9 28  1  0  0  0  0
 10 20  1  0  0  0  0
 11 12  1  0  0  0  0
 11 13  1  0  0  0  0
 11 24  1  0  0  0  0
 12 14  1  0  0  0  0
 12 25  1  0  0  0  0
 13 26  1  0  0  0  0
 13 27  1  0  0  0  0
 14 15  2  0  0  0  0
 14 16  1  0  0  0  0
 15 18  1  0  0  0  0
 15 29  1  0  0  0  0
 16 19  2  0  0  0  0
 16 30  1  0  0  0  0
 17 21  1  0  0  0  0
 18 20  2  0  0  0  0
 18 32  1  0  0  0  0
 19 20  1  0  0  0  0
 19 33  1  0  0  0  0
 21 34  1  0  0  0  0
 22 23  1  0  0  0  0
 23 35  1  0  0  0  0
 23 36  1  0  0  0  0
 23 37  1  0  0  0  0
M  CHG  2   7  -1  10   1
M  END
> <PUBCHEM_COMPOUND_CID>
83940

> <PUBCHEM_CONFORMER_RMSD>
1

> <PUBCHEM_CONFORMER_DIVERSEORDER>
1
34
36
31
41
3
25
27
5
33
38
6
12
18
7
29
21
40
16
19
11
20
22
15
17
4
42
10
26
8
35
24
9
37
30
39
14
2
28
13
23
32

> <PUBCHEM_MMFF94_PARTIAL_CHARGES>
29
1 -0.29
10 0.91
11 0.3
12 0.42
13 0.28
14 -0.14
15 -0.15
16 -0.15
17 0.57
18 -0.15
19 -0.15
2 -0.29
20 0.13
21 0.64
22 0.66
23 0.06
28 0.37
29 0.15
3 -0.68
30 0.15
31 0.4
32 0.15
33 0.15
4 -0.43
5 -0.57
6 -0.57
7 -0.52
8 -0.52
9 -0.73

> <PUBCHEM_EFFECTIVE_ROTOR_COUNT>
9

> <PUBCHEM_PHARMACOPHORE_FEATURES>
9
1 3 acceptor
1 3 donor
1 5 acceptor
1 6 acceptor
1 7 acceptor
1 7 anion
1 8 acceptor
1 9 donor
6 14 15 16 18 19 20 rings

> <PUBCHEM_HEAVY_ATOM_COUNT>
23

> <PUBCHEM_ATOM_DEF_STEREO_COUNT>
2

> <PUBCHEM_ATOM_UDEF_STEREO_COUNT>
0

> <PUBCHEM_BOND_DEF_STEREO_COUNT>
0

> <PUBCHEM_BOND_UDEF_STEREO_COUNT>
0

> <PUBCHEM_ISOTOPIC_ATOM_COUNT>
0

> <PUBCHEM_COMPONENT_COUNT>
1

> <PUBCHEM_CACTVS_TAUTO_COUNT>
2

> <PUBCHEM_CONFORMER_ID>
000147E400000001

> <PUBCHEM_MMFF94_ENERGY>
49.1977

> <PUBCHEM_FEATURE_SELFOVERLAP>
45.755

> <PUBCHEM_SHAPE_FINGERPRINT>
10670039 82 18337936975295070716
11045515 52 18202847647590015461
12107183 9 17407690970405117786
12166972 35 17846779572640930940
12236239 1 18341613694169003646
12516196 113 18412263900607151531
12788726 201 18200038468358224393
12892183 10 18339090388646268890
12930653 34 18266179624549937270
13533116 47 18202568389101272626
13583140 156 17679045883311970810
14178342 30 18127973225020523382
14787075 74 18200876171300807058
15927050 60 17471008077861486020
167882 2 17979070488482083141
17492 89 18267024041059374914
1813 80 18188195516988354191
18222031 100 18187638060256218247
18769570 83 18341323492472719433
200 152 18060421304604617559
20600515 1 17895460437270833879
21304303 282 17767990962124277621
22182313 1 17896311609684252758
23366157 5 17764310535843851453
23402539 116 18408042896916614719
23419403 2 18196956412764764461
23557571 272 18335418018933764637
23558518 356 18055344992626433107
23559900 14 16988278660248172806
23598288 3 18193294093676444535
26918003 58 17846495915773600995
283562 15 18342740757821761291
314173 85 18334563647249615883
4409770 3 18198918079300799189
469060 322 18335406993789737272
6913067 236 18040441000789960991
69474 34 18114183008271766185
7164475 11 18269833275623450959
7226269 152 18201159953307808857
7495541 125 18198334058201029783
81228 2 18050257535756618185
9981440 41 17681857419804917946

> <PUBCHEM_SHAPE_MULTIPOLES>
431.89
12.22
3.68
1.24
2.95
6.07
-0.01
-8.29
2.76
-3.71
-0.03
0.31
-0.03
-0.72

> <PUBCHEM_SHAPE_SELFOVERLAP>
867.343

> <PUBCHEM_SHAPE_VOLUME>
253.7

> <PUBCHEM_COORDINATE_TYPE>
2
5
10

$$$$

