9550
  -OEChem-07051213142D

  5  4  0     0  0  0  0  0  0999 V2000
    3.4030    0.3100    0.0000 N   0  3  0  0  0  0  0  0  0  0  0  0
    4.2690    0.8100    0.0000 N   0  5  0  0  0  0  0  0  0  0  0  0
    2.5369   -0.1900    0.0000 C   0  0  0  0  0  0  0  0  0  0  0  0
    2.0000    0.1200    0.0000 H   0  0  0  0  0  0  0  0  0  0  0  0
    2.5369   -0.8100    0.0000 H   0  0  0  0  0  0  0  0  0  0  0  0
  1  2  2  0  0  0  0
  1  3  2  0  0  0  0
  3  4  1  0  0  0  0
  3  5  1  0  0  0  0
M  CHG  2   1   1   2  -1
M  END
> <PUBCHEM_COMPOUND_CID>
9550

> <PUBCHEM_COMPOUND_CANONICALIZED>
1

> <PUBCHEM_CACTVS_COMPLEXITY>
25.8

> <PUBCHEM_CACTVS_HBOND_ACCEPTOR>
1

> <PUBCHEM_CACTVS_HBOND_DONOR>
0

> <PUBCHEM_CACTVS_ROTATABLE_BOND>
0

> <PUBCHEM_CACTVS_SUBSKEYS>
AAADcQADAAAAAAAAAAAAAAAAAAAAAAAAAAAAAAAAAAAAAAAAAAAAFAAIAAAAAAAAAAQAAAAAAAAiAAABAAAAAAAAAAAAAAAAAAAAAAAAAAAAAAAAAAAAAAAAAAAAAAAAAAAAAAAAAAAAAAAAAAAAAAAAAA==

> <PUBCHEM_IUPAC_OPENEYE_NAME>
diazomethane

> <PUBCHEM_IUPAC_CAS_NAME>
diazomethane

> <PUBCHEM_IUPAC_NAME>
diazomethane

> <PUBCHEM_IUPAC_SYSTEMATIC_NAME>
diazomethane

> <PUBCHEM_IUPAC_TRADITIONAL_NAME>
diazomethane

> <PUBCHEM_IUPAC_INCHI>
InChI=1S/CH2N2/c1-3-2/h1H2

> <PUBCHEM_IUPAC_INCHIKEY>
YXHKONLOYHBTNS-UHFFFAOYSA-N

> <PUBCHEM_XLOGP3_AA>
1.6

> <PUBCHEM_EXACT_MASS>
42.021798

> <PUBCHEM_MOLECULAR_FORMULA>
CH2N2

> <PUBCHEM_MOLECULAR_WEIGHT>
42.03998

> <PUBCHEM_OPENEYE_CAN_SMILES>
C=[N+]=[N-]

> <PUBCHEM_OPENEYE_ISO_SMILES>
C=[N+]=[N-]

> <PUBCHEM_CACTVS_TPSA>
2

> <PUBCHEM_MONOISOTOPIC_WEIGHT>
42.021798

> <PUBCHEM_TOTAL_CHARGE>
0

> <PUBCHEM_HEAVY_ATOM_COUNT>
3

> <PUBCHEM_ATOM_DEF_STEREO_COUNT>
0

> <PUBCHEM_ATOM_UDEF_STEREO_COUNT>
0

> <PUBCHEM_BOND_DEF_STEREO_COUNT>
0

> <PUBCHEM_BOND_UDEF_STEREO_COUNT>
0

> <PUBCHEM_ISOTOPIC_ATOM_COUNT>
0

> <PUBCHEM_COMPONENT_COUNT>
1

> <PUBCHEM_CACTVS_TAUTO_COUNT>
1

> <PUBCHEM_COORDINATE_TYPE>
1
5
255

$$$$

