443606
  -OEChem-07051213023D

 31 31  0     1  0  0  0  0  0999 V2000
    1.0946   -1.1617    0.5017 O   0  0  0  0  0  0  0  0  0  0  0  0
   -1.2588    2.2239    0.2088 O   0  0  0  0  0  0  0  0  0  0  0  0
    1.5010    2.3342   -0.5886 O   0  0  0  0  0  0  0  0  0  0  0  0
   -0.2533   -1.6878   -1.3707 O   0  0  0  0  0  0  0  0  0  0  0  0
    3.8056   -1.1874    0.1835 O   0  0  0  0  0  0  0  0  0  0  0  0
   -2.4818   -0.3920   -0.1431 N   0  0  0  0  0  0  0  0  0  0  0  0
   -1.1164   -0.1793    0.3386 C   0  0  2  0  0  0  0  0  0  0  0  0
   -0.5236    1.0962   -0.2701 C   0  0  2  0  0  0  0  0  0  0  0  0
    0.9420    1.2511    0.1507 C   0  0  1  0  0  0  0  0  0  0  0  0
    1.7332   -0.0363   -0.1109 C   0  0  1  0  0  0  0  0  0  0  0  0
   -0.2343   -1.3939    0.0246 C   0  0  2  0  0  0  0  0  0  0  0  0
    3.1486    0.0367    0.4554 C   0  0  0  0  0  0  0  0  0  0  0  0
   -3.3342    0.7365    0.2270 C   0  0  0  0  0  0  0  0  0  0  0  0
   -3.0225   -1.6401    0.3930 C   0  0  0  0  0  0  0  0  0  0  0  0
   -1.1277   -0.0524    1.4324 H   0  0  0  0  0  0  0  0  0  0  0  0
   -0.6082    1.1149   -1.3628 H   0  0  0  0  0  0  0  0  0  0  0  0
    0.9967    1.5145    1.2146 H   0  0  0  0  0  0  0  0  0  0  0  0
    1.8184   -0.2244   -1.1893 H   0  0  0  0  0  0  0  0  0  0  0  0
   -0.5628   -2.2911    0.5551 H   0  0  0  0  0  0  0  0  0  0  0  0
    3.1387    0.1770    1.5414 H   0  0  0  0  0  0  0  0  0  0  0  0
    3.7233    0.8485    0.0004 H   0  0  0  0  0  0  0  0  0  0  0  0
   -1.1273    2.2847    1.1705 H   0  0  0  0  0  0  0  0  0  0  0  0
   -4.3920    0.4554    0.1336 H   0  0  0  0  0  0  0  0  0  0  0  0
   -3.2444    1.5663   -0.4802 H   0  0  0  0  0  0  0  0  0  0  0  0
   -3.2018    1.0674    1.2635 H   0  0  0  0  0  0  0  0  0  0  0  0
   -2.5619   -2.5213   -0.0641 H   0  0  0  0  0  0  0  0  0  0  0  0
   -4.0875   -1.7350    0.1467 H   0  0  0  0  0  0  0  0  0  0  0  0
   -2.9303   -1.7041    1.4835 H   0  0  0  0  0  0  0  0  0  0  0  0
    0.9660    3.1238   -0.3988 H   0  0  0  0  0  0  0  0  0  0  0  0
   -0.4226   -0.8767   -1.8739 H   0  0  0  0  0  0  0  0  0  0  0  0
    3.2842   -1.8988    0.5931 H   0  0  0  0  0  0  0  0  0  0  0  0
  1 10  1  0  0  0  0
  1 11  1  0  0  0  0
  2  8  1  0  0  0  0
  2 22  1  0  0  0  0
  3  9  1  0  0  0  0
  3 29  1  0  0  0  0
  4 11  1  0  0  0  0
  4 30  1  0  0  0  0
  5 12  1  0  0  0  0
  5 31  1  0  0  0  0
  6  7  1  0  0  0  0
  6 13  1  0  0  0  0
  6 14  1  0  0  0  0
  7  8  1  0  0  0  0
  7 11  1  0  0  0  0
  7 15  1  0  0  0  0
  8  9  1  0  0  0  0
  8 16  1  0  0  0  0
  9 10  1  0  0  0  0
  9 17  1  0  0  0  0
 10 12  1  0  0  0  0
 10 18  1  0  0  0  0
 11 19  1  0  0  0  0
 12 20  1  0  0  0  0
 12 21  1  0  0  0  0
 13 23  1  0  0  0  0
 13 24  1  0  0  0  0
 13 25  1  0  0  0  0
 14 26  1  0  0  0  0
 14 27  1  0  0  0  0
 14 28  1  0  0  0  0
M  END
> <PUBCHEM_COMPOUND_CID>
443606

> <PUBCHEM_CONFORMER_RMSD>
0.6

> <PUBCHEM_CONFORMER_DIVERSEORDER>
1

> <PUBCHEM_MMFF94_PARTIAL_CHARGES>
18
1 -0.56
10 0.28
11 0.56
12 0.28
13 0.27
14 0.27
2 -0.68
22 0.4
29 0.4
3 -0.68
30 0.4
31 0.4
4 -0.68
5 -0.68
6 -0.81
7 0.27
8 0.28
9 0.28

> <PUBCHEM_EFFECTIVE_ROTOR_COUNT>
3.2

> <PUBCHEM_PHARMACOPHORE_FEATURES>
11
1 1 acceptor
1 2 acceptor
1 2 donor
1 3 acceptor
1 3 donor
1 4 acceptor
1 4 donor
1 5 acceptor
1 5 donor
1 6 cation
6 1 7 8 9 10 11 rings

> <PUBCHEM_HEAVY_ATOM_COUNT>
14

> <PUBCHEM_ATOM_DEF_STEREO_COUNT>
5

> <PUBCHEM_ATOM_UDEF_STEREO_COUNT>
0

> <PUBCHEM_BOND_DEF_STEREO_COUNT>
0

> <PUBCHEM_BOND_UDEF_STEREO_COUNT>
0

> <PUBCHEM_ISOTOPIC_ATOM_COUNT>
0

> <PUBCHEM_COMPONENT_COUNT>
1

> <PUBCHEM_CACTVS_TAUTO_COUNT>
1

> <PUBCHEM_CONFORMER_ID>
0006C4D600000001

> <PUBCHEM_MMFF94_ENERGY>
44.3286

> <PUBCHEM_FEATURE_SELFOVERLAP>
55.866

> <PUBCHEM_SHAPE_FINGERPRINT>
10219947 1 18334294283642914474
11132069 177 18410296946918220488
12032990 46 18411696578044674522
12251169 10 18411694409481393857
12423570 1 10768099442105936318
13380535 76 18191871334620664789
14325111 11 18339641131606218185
14993402 34 18408044004733028678
15775835 57 18047460141619889345
16945 1 18341611550863726145
193761 8 17546446678617951082
20201158 50 18412547643273509043
20511035 2 18266734680036632548
20871998 184 18261116313374051510
21501502 16 18268985402261847929
21501925 9 18339651014162345227
2334 1 18194680367628096769
23402539 116 18262813963316525286
23402655 69 18193012611054155901
23463225 33 18411979122467897457
23552423 10 18200593592554158129
2748010 2 18338799992410496181
5084963 1 18334856099740631763
528862 383 17985270664072031392
528886 8 18409173224865726027
53655031 270 18341332300542918451
53812654 25 18116156562665378924
7364860 26 18192711151125117984
8809292 202 18201715150417993363

> <PUBCHEM_SHAPE_MULTIPOLES>
253.79
4.98
2.16
0.77
0.73
0.67
-0.13
-1.18
0.81
-0.15
-0.22
0
-0.17
-0.17

> <PUBCHEM_SHAPE_SELFOVERLAP>
504.728

> <PUBCHEM_SHAPE_VOLUME>
149

> <PUBCHEM_COORDINATE_TYPE>
2
5
10

$$$$

