62959
  -OEChem-07051212543D

 45 49  0     1  0  0  0  0  0999 V2000
    2.3539   -3.4259    0.2514 F   0  0  0  0  0  0  0  0  0  0  0  0
   -1.5873    1.9187    2.2275 F   0  0  0  0  0  0  0  0  0  0  0  0
   -0.6586    5.8714   -0.2016 F   0  0  0  0  0  0  0  0  0  0  0  0
   -2.6814   -3.5790    0.0212 O   0  0  0  0  0  0  0  0  0  0  0  0
   -5.0359   -2.8047   -0.8526 O   0  0  0  0  0  0  0  0  0  0  0  0
   -5.7076   -0.8603    0.1466 O   0  0  0  0  0  0  0  0  0  0  0  0
    2.9926   -0.7621    0.1263 N   0  0  0  0  0  0  0  0  0  0  0  0
    7.1519    0.3211   -0.8347 N   0  0  0  0  0  0  0  0  0  0  0  0
    0.6803   -0.2124    0.0067 N   0  0  0  0  0  0  0  0  0  0  0  0
   -1.6761    0.3915   -0.1195 N   0  0  0  0  0  0  0  0  0  0  0  0
    4.8438    0.5858    0.2584 C   0  0  1  0  0  0  0  0  0  0  0  0
    5.2602   -0.8280    0.4656 C   0  0  2  0  0  0  0  0  0  0  0  0
    5.7459   -0.0790   -0.7457 C   0  0  0  0  0  0  0  0  0  0  0  0
    3.3593    0.6243    0.0627 C   0  0  0  0  0  0  0  0  0  0  0  0
    4.0436   -1.6996    0.4035 C   0  0  0  0  0  0  0  0  0  0  0  0
    1.6351   -1.1661    0.0976 C   0  0  0  0  0  0  0  0  0  0  0  0
    1.3729   -2.5190    0.1634 C   0  0  0  0  0  0  0  0  0  0  0  0
   -0.6262   -0.5914   -0.0121 C   0  0  0  0  0  0  0  0  0  0  0  0
    0.0462   -2.9184    0.1278 C   0  0  0  0  0  0  0  0  0  0  0  0
   -0.9627   -1.9550    0.0345 C   0  0  0  0  0  0  0  0  0  0  0  0
   -2.3755   -2.3945   -0.0327 C   0  0  0  0  0  0  0  0  0  0  0  0
   -2.9892   -0.0636   -0.2052 C   0  0  0  0  0  0  0  0  0  0  0  0
   -3.4002   -1.3365   -0.1719 C   0  0  0  0  0  0  0  0  0  0  0  0
   -1.4130    1.8030   -0.1384 C   0  0  0  0  0  0  0  0  0  0  0  0
   -1.3775    2.5335    1.0548 C   0  0  0  0  0  0  0  0  0  0  0  0
   -1.1917    2.4620   -1.3529 C   0  0  0  0  0  0  0  0  0  0  0  0
   -4.8360   -1.6088   -0.2592 C   0  0  0  0  0  0  0  0  0  0  0  0
   -1.1241    3.9049    1.0335 C   0  0  0  0  0  0  0  0  0  0  0  0
   -0.9383    3.8335   -1.3742 C   0  0  0  0  0  0  0  0  0  0  0  0
   -0.9044    4.5549   -0.1809 C   0  0  0  0  0  0  0  0  0  0  0  0
    5.2323    1.3578    0.9062 H   0  0  0  0  0  0  0  0  0  0  0  0
    5.9483   -1.0710    1.2620 H   0  0  0  0  0  0  0  0  0  0  0  0
    5.3137   -0.3476   -1.7041 H   0  0  0  0  0  0  0  0  0  0  0  0
    2.8920    1.2004    0.8691 H   0  0  0  0  0  0  0  0  0  0  0  0
    3.1028    1.0742   -0.9022 H   0  0  0  0  0  0  0  0  0  0  0  0
    4.1854   -2.4335   -0.3973 H   0  0  0  0  0  0  0  0  0  0  0  0
    3.9162   -2.1929    1.3737 H   0  0  0  0  0  0  0  0  0  0  0  0
    7.5171    0.5810    0.0808 H   0  0  0  0  0  0  0  0  0  0  0  0
    7.2422    1.1509   -1.4195 H   0  0  0  0  0  0  0  0  0  0  0  0
   -0.1850   -3.9790    0.1679 H   0  0  0  0  0  0  0  0  0  0  0  0
   -3.7041    0.7497   -0.3026 H   0  0  0  0  0  0  0  0  0  0  0  0
   -1.2149    1.9109   -2.2899 H   0  0  0  0  0  0  0  0  0  0  0  0
   -1.0972    4.4665    1.9625 H   0  0  0  0  0  0  0  0  0  0  0  0
   -0.7665    4.3397   -2.3195 H   0  0  0  0  0  0  0  0  0  0  0  0
   -5.9891   -3.0234   -0.9293 H   0  0  0  0  0  0  0  0  0  0  0  0
  1 17  1  0  0  0  0
  2 25  1  0  0  0  0
  3 30  1  0  0  0  0
  4 21  2  0  0  0  0
  5 27  1  0  0  0  0
  5 45  1  0  0  0  0
  6 27  2  0  0  0  0
  7 14  1  0  0  0  0
  7 15  1  0  0  0  0
  7 16  1  0  0  0  0
  8 13  1  0  0  0  0
  8 38  1  0  0  0  0
  8 39  1  0  0  0  0
  9 16  1  0  0  0  0
  9 18  2  0  0  0  0
 10 18  1  0  0  0  0
 10 22  1  0  0  0  0
 10 24  1  0  0  0  0
 11 12  1  0  0  0  0
 11 13  1  0  0  0  0
 11 14  1  0  0  0  0
 11 31  1  0  0  0  0
 12 13  1  0  0  0  0
 12 15  1  0  0  0  0
 12 32  1  0  0  0  0
 13 33  1  0  0  0  0
 14 34  1  0  0  0  0
 14 35  1  0  0  0  0
 15 36  1  0  0  0  0
 15 37  1  0  0  0  0
 16 17  2  0  0  0  0
 17 19  1  0  0  0  0
 18 20  1  0  0  0  0
 19 20  2  0  0  0  0
 19 40  1  0  0  0  0
 20 21  1  0  0  0  0
 21 23  1  0  0  0  0
 22 23  2  0  0  0  0
 22 41  1  0  0  0  0
 23 27  1  0  0  0  0
 24 25  2  0  0  0  0
 24 26  1  0  0  0  0
 25 28  1  0  0  0  0
 26 29  2  0  0  0  0
 26 42  1  0  0  0  0
 28 30  2  0  0  0  0
 28 43  1  0  0  0  0
 29 30  1  0  0  0  0
 29 44  1  0  0  0  0
M  END
> <PUBCHEM_COMPOUND_CID>
62959

> <PUBCHEM_CONFORMER_RMSD>
0.8

> <PUBCHEM_CONFORMER_DIVERSEORDER>
2
3
5
6
4
1

> <PUBCHEM_MMFF94_PARTIAL_CHARGES>
41
1 -0.19
10 -0.3
11 -0.19
12 -0.19
13 0.06
14 0.46
15 0.46
16 0.41
17 0.19
18 0.41
19 -0.15
2 -0.19
20 0.09
21 0.47
22 -0.05
23 0.03
24 0.1
25 0.19
26 -0.15
27 0.71
28 -0.15
29 -0.15
3 -0.19
30 0.19
31 0.1
32 0.1
33 0.1
38 0.36
39 0.36
4 -0.57
40 0.15
41 0.15
42 0.15
43 0.15
44 0.15
45 0.5
5 -0.65
6 -0.57
7 -0.84
8 -0.88
9 -0.62

> <PUBCHEM_EFFECTIVE_ROTOR_COUNT>
3.8

> <PUBCHEM_PHARMACOPHORE_FEATURES>
13
1 23 anion
1 4 acceptor
1 5 acceptor
1 6 acceptor
1 7 cation
1 8 cation
1 8 donor
3 5 6 27 anion
3 9 10 18 cation
6 10 18 20 21 22 23 rings
6 24 25 26 28 29 30 rings
6 7 11 12 13 14 15 rings
6 9 16 17 18 19 20 rings

> <PUBCHEM_HEAVY_ATOM_COUNT>
30

> <PUBCHEM_ATOM_DEF_STEREO_COUNT>
2

> <PUBCHEM_ATOM_UDEF_STEREO_COUNT>
0

> <PUBCHEM_BOND_DEF_STEREO_COUNT>
0

> <PUBCHEM_BOND_UDEF_STEREO_COUNT>
0

> <PUBCHEM_ISOTOPIC_ATOM_COUNT>
0

> <PUBCHEM_COMPONENT_COUNT>
1

> <PUBCHEM_CACTVS_TAUTO_COUNT>
1

> <PUBCHEM_CONFORMER_ID>
0000F5EF00000002

> <PUBCHEM_MMFF94_ENERGY>
110.2343

> <PUBCHEM_FEATURE_SELFOVERLAP>
66.391

> <PUBCHEM_SHAPE_FINGERPRINT>
10006869 2 18267033932495248799
10670039 82 18339632422214207198
10937287 8 17762058040024515428
1100329 8 18195242222554982563
11045515 52 18342462513019224637
12107183 9 17623019302062052642
12166972 35 17917430865468473414
12788726 201 18272379693072035594
13140716 1 18339357444652908434
138480 1 15600051140264146148
14068700 675 18341895152234721532
14347332 77 18337112366917085822
14394314 77 18410851053998605593
14400156 266 18113886158024175405
14955137 171 18268419132346621635
15439362 3 17835248840177947269
15961568 22 18409725136927588590
16087824 20 18410855508528512037
18336668 15 18059856117273487391
19427546 62 17330558056184201629
19611394 137 17843107113426048298
20600515 1 18261943064640387021
20642791 178 17911796869467621205
21033650 10 18126540501862423262
21049683 271 18128534869409258743
21304253 13 18408601427691410777
21641784 216 18340757204791431420
21796203 349 17910638061463315523
22122407 14 15410600485694747302
221357 26 18260264145129905894
22907989 373 18196390301255983309
23558518 356 18055067924180809539
23559900 14 18050854316449810378
24771750 20 17837486359135417279
283562 15 18341051899303036306
3178227 256 18269261401883978067
335352 9 18410859816243690191
3380486 145 18340757243894796065
350125 39 18050001391895658627
4197921 191 18201438061599793780
469060 322 18411130350978446432
474 4 16967464162068503761
6677587 24 15330447419058406021

> <PUBCHEM_SHAPE_MULTIPOLES>
558.03
10.74
6.09
1.01
14.09
7.89
0.15
-6.09
-1.7
-5.59
-0.2
-0.23
0.85
-0.79

> <PUBCHEM_SHAPE_SELFOVERLAP>
1250.026

> <PUBCHEM_SHAPE_VOLUME>
296.7

> <PUBCHEM_COORDINATE_TYPE>
2
5
10

$$$$

