11595
  -OEChem-06261205523D

 20 19  0     0  0  0  0  0  0999 V2000
   -1.8306   -1.2989    0.4853 O   0  0  0  0  0  0  0  0  0  0  0  0
   -1.0382    0.8370    0.0253 N   0  0  0  0  0  0  0  0  0  0  0  0
   -3.1051    0.1937   -0.7055 N   0  0  0  0  0  0  0  0  0  0  0  0
    1.3028    0.1823   -0.2882 C   0  0  0  0  0  0  0  0  0  0  0  0
    2.6711    0.0590    0.3833 C   0  0  0  0  0  0  0  0  0  0  0  0
    0.2531    0.7073    0.6898 C   0  0  0  0  0  0  0  0  0  0  0  0
    3.7137   -0.4964   -0.5738 C   0  0  0  0  0  0  0  0  0  0  0  0
   -1.9669   -0.1841   -0.0162 C   0  0  0  0  0  0  0  0  0  0  0  0
    1.3721    0.8550   -1.1523 H   0  0  0  0  0  0  0  0  0  0  0  0
    0.9906   -0.7955   -0.6758 H   0  0  0  0  0  0  0  0  0  0  0  0
    2.5991   -0.6001    1.2563 H   0  0  0  0  0  0  0  0  0  0  0  0
    2.9983    1.0411    0.7438 H   0  0  0  0  0  0  0  0  0  0  0  0
    0.1484    0.0324    1.5460 H   0  0  0  0  0  0  0  0  0  0  0  0
    0.5272    1.7008    1.0590 H   0  0  0  0  0  0  0  0  0  0  0  0
    4.6840   -0.5750   -0.0734 H   0  0  0  0  0  0  0  0  0  0  0  0
    3.4314   -1.4936   -0.9260 H   0  0  0  0  0  0  0  0  0  0  0  0
    3.8325    0.1552   -1.4453 H   0  0  0  0  0  0  0  0  0  0  0  0
   -1.2550    1.7154   -0.4355 H   0  0  0  0  0  0  0  0  0  0  0  0
   -3.2000    1.1179   -1.1128 H   0  0  0  0  0  0  0  0  0  0  0  0
   -3.8831   -0.4463   -0.8250 H   0  0  0  0  0  0  0  0  0  0  0  0
  1  8  2  0  0  0  0
  2  6  1  0  0  0  0
  2  8  1  0  0  0  0
  2 18  1  0  0  0  0
  3  8  1  0  0  0  0
  3 19  1  0  0  0  0
  3 20  1  0  0  0  0
  4  5  1  0  0  0  0
  4  6  1  0  0  0  0
  4  9  1  0  0  0  0
  4 10  1  0  0  0  0
  5  7  1  0  0  0  0
  5 11  1  0  0  0  0
  5 12  1  0  0  0  0
  6 13  1  0  0  0  0
  6 14  1  0  0  0  0
  7 15  1  0  0  0  0
  7 16  1  0  0  0  0
  7 17  1  0  0  0  0
M  END
> <PUBCHEM_COMPOUND_CID>
11595

> <PUBCHEM_CONFORMER_RMSD>
0.6

> <PUBCHEM_CONFORMER_DIVERSEORDER>
1
18
16
20
10
6
17
2
12
19
13
5
9
7
4
15
8
3
14
11

> <PUBCHEM_MMFF94_PARTIAL_CHARGES>
8
1 -0.57
18 0.37
19 0.37
2 -0.73
20 0.37
3 -0.8
6 0.3
8 0.69

> <PUBCHEM_EFFECTIVE_ROTOR_COUNT>
4

> <PUBCHEM_PHARMACOPHORE_FEATURES>
4
1 1 acceptor
1 2 donor
1 3 donor
1 7 hydrophobe

> <PUBCHEM_HEAVY_ATOM_COUNT>
8

> <PUBCHEM_ATOM_DEF_STEREO_COUNT>
0

> <PUBCHEM_ATOM_UDEF_STEREO_COUNT>
0

> <PUBCHEM_BOND_DEF_STEREO_COUNT>
0

> <PUBCHEM_BOND_UDEF_STEREO_COUNT>
0

> <PUBCHEM_ISOTOPIC_ATOM_COUNT>
0

> <PUBCHEM_COMPONENT_COUNT>
1

> <PUBCHEM_CACTVS_TAUTO_COUNT>
3

> <PUBCHEM_CONFORMER_ID>
00002D4B00000001

> <PUBCHEM_MMFF94_ENERGY>
0.6995

> <PUBCHEM_FEATURE_SELFOVERLAP>
20.352

> <PUBCHEM_SHAPE_FINGERPRINT>
11062470 55 18408325492552430036
12897270 3 18273495671788806256
12932764 1 17417818330984049512
14390081 3 10663824065820056778
15310529 11 16128384799824953361
20201158 50 18260828219742292662
20211469 26 15647058178597090293
21293036 1 14907893856131539112
29004967 10 17676202455414953136
5460574 1 11095884873795092368

> <PUBCHEM_SHAPE_MULTIPOLES>
148.8
5.67
0.94
0.8
2.18
0.06
-0.01
1.35
1.09
-0.15
-0.13
-0.06
0.03
0.33

> <PUBCHEM_SHAPE_SELFOVERLAP>
266.425

> <PUBCHEM_SHAPE_VOLUME>
96.4

> <PUBCHEM_COORDINATE_TYPE>
2
5
10

$$$$

