162209
  -OEChem-07051212563D

 51 53  0     1  0  0  0  0  0999 V2000
    1.0874   -0.1629    2.2452 O   0  0  0  0  0  0  0  0  0  0  0  0
    1.9958   -2.1207    1.5119 O   0  0  0  0  0  0  0  0  0  0  0  0
   -3.4232   -2.3443   -0.2547 O   0  0  0  0  0  0  0  0  0  0  0  0
    1.9273    0.8274   -0.3562 C   0  0  2  0  0  0  0  0  0  0  0  0
    1.1473   -0.5000   -0.0959 C   0  0  2  0  0  0  0  0  0  0  0  0
    3.4915    0.6873   -0.2522 C   0  0  0  0  0  0  0  0  0  0  0  0
    1.5865   -1.5451   -1.1647 C   0  0  0  0  0  0  0  0  0  0  0  0
    3.9456   -0.7388   -0.6634 C   0  0  0  0  0  0  0  0  0  0  0  0
    1.3394    1.9865    0.4625 C   0  0  0  0  0  0  0  0  0  0  0  0
    3.0157   -1.3670   -1.6919 C   0  0  0  0  0  0  0  0  0  0  0  0
   -0.3741   -0.2893   -0.1256 C   0  0  0  0  0  0  0  0  0  0  0  0
   -0.1047    2.2445    0.0462 C   0  0  0  0  0  0  0  0  0  0  0  0
    4.1399    1.7082   -1.2207 C   0  0  0  0  0  0  0  0  0  0  0  0
    4.0538    0.9888    1.1528 C   0  0  0  0  0  0  0  0  0  0  0  0
   -0.9439    0.9962   -0.0259 C   0  0  0  0  0  0  0  0  0  0  0  0
    1.4686   -1.0415    1.2861 C   0  0  0  0  0  0  0  0  0  0  0  0
   -1.2398   -1.4007   -0.1870 C   0  0  0  0  0  0  0  0  0  0  0  0
   -2.3424    1.1424   -0.0420 C   0  0  0  0  0  0  0  0  0  0  0  0
   -3.1777    0.0309   -0.1228 C   0  0  0  0  0  0  0  0  0  0  0  0
   -2.6260   -1.2418   -0.1903 C   0  0  0  0  0  0  0  0  0  0  0  0
   -4.6576    0.2258   -0.1301 C   0  0  0  0  0  0  0  0  0  0  0  0
   -5.1380    1.0362   -1.3485 C   0  0  0  0  0  0  0  0  0  0  0  0
   -5.1713    0.8778    1.1672 C   0  0  0  0  0  0  0  0  0  0  0  0
    1.7169    1.0837   -1.4085 H   0  0  0  0  0  0  0  0  0  0  0  0
    0.9235   -1.4900   -2.0396 H   0  0  0  0  0  0  0  0  0  0  0  0
    1.4766   -2.5712   -0.7906 H   0  0  0  0  0  0  0  0  0  0  0  0
    4.0102   -1.3976    0.2096 H   0  0  0  0  0  0  0  0  0  0  0  0
    4.9635   -0.7083   -1.0729 H   0  0  0  0  0  0  0  0  0  0  0  0
    1.9005    2.9053    0.2496 H   0  0  0  0  0  0  0  0  0  0  0  0
    1.4171    1.8658    1.5430 H   0  0  0  0  0  0  0  0  0  0  0  0
    3.4089   -2.3417   -2.0039 H   0  0  0  0  0  0  0  0  0  0  0  0
    2.9951   -0.7453   -2.5954 H   0  0  0  0  0  0  0  0  0  0  0  0
   -0.1187    2.7191   -0.9434 H   0  0  0  0  0  0  0  0  0  0  0  0
   -0.5491    2.9547    0.7543 H   0  0  0  0  0  0  0  0  0  0  0  0
    3.8313    1.5308   -2.2567 H   0  0  0  0  0  0  0  0  0  0  0  0
    3.8660    2.7367   -0.9633 H   0  0  0  0  0  0  0  0  0  0  0  0
    5.2339    1.6451   -1.1897 H   0  0  0  0  0  0  0  0  0  0  0  0
    3.8477    2.0179    1.4644 H   0  0  0  0  0  0  0  0  0  0  0  0
    3.6535    0.3181    1.9162 H   0  0  0  0  0  0  0  0  0  0  0  0
    5.1439    0.8666    1.1653 H   0  0  0  0  0  0  0  0  0  0  0  0
   -0.8331   -2.4089   -0.2268 H   0  0  0  0  0  0  0  0  0  0  0  0
   -2.7645    2.1437    0.0129 H   0  0  0  0  0  0  0  0  0  0  0  0
    1.2873   -0.4946    3.1463 H   0  0  0  0  0  0  0  0  0  0  0  0
   -5.1833   -0.7307   -0.2112 H   0  0  0  0  0  0  0  0  0  0  0  0
   -4.1523   -2.2423    0.3792 H   0  0  0  0  0  0  0  0  0  0  0  0
   -4.7623    2.0649   -1.3320 H   0  0  0  0  0  0  0  0  0  0  0  0
   -6.2324    1.0836   -1.3716 H   0  0  0  0  0  0  0  0  0  0  0  0
   -4.8022    0.5709   -2.2820 H   0  0  0  0  0  0  0  0  0  0  0  0
   -4.8627    0.2959    2.0428 H   0  0  0  0  0  0  0  0  0  0  0  0
   -6.2657    0.9266    1.1653 H   0  0  0  0  0  0  0  0  0  0  0  0
   -4.7942    1.8986    1.2918 H   0  0  0  0  0  0  0  0  0  0  0  0
  1 16  1  0  0  0  0
  1 43  1  0  0  0  0
  2 16  2  0  0  0  0
  3 20  1  0  0  0  0
  3 45  1  0  0  0  0
  4  5  1  0  0  0  0
  4  6  1  0  0  0  0
  4  9  1  0  0  0  0
  4 24  1  0  0  0  0
  5  7  1  0  0  0  0
  5 11  1  0  0  0  0
  5 16  1  0  0  0  0
  6  8  1  0  0  0  0
  6 13  1  0  0  0  0
  6 14  1  0  0  0  0
  7 10  1  0  0  0  0
  7 25  1  0  0  0  0
  7 26  1  0  0  0  0
  8 10  1  0  0  0  0
  8 27  1  0  0  0  0
  8 28  1  0  0  0  0
  9 12  1  0  0  0  0
  9 29  1  0  0  0  0
  9 30  1  0  0  0  0
 10 31  1  0  0  0  0
 10 32  1  0  0  0  0
 11 15  1  0  0  0  0
 11 17  2  0  0  0  0
 12 15  1  0  0  0  0
 12 33  1  0  0  0  0
 12 34  1  0  0  0  0
 13 35  1  0  0  0  0
 13 36  1  0  0  0  0
 13 37  1  0  0  0  0
 14 38  1  0  0  0  0
 14 39  1  0  0  0  0
 14 40  1  0  0  0  0
 15 18  2  0  0  0  0
 17 20  1  0  0  0  0
 17 41  1  0  0  0  0
 18 19  1  0  0  0  0
 18 42  1  0  0  0  0
 19 20  2  0  0  0  0
 19 21  1  0  0  0  0
 21 22  1  0  0  0  0
 21 23  1  0  0  0  0
 21 44  1  0  0  0  0
 22 46  1  0  0  0  0
 22 47  1  0  0  0  0
 22 48  1  0  0  0  0
 23 49  1  0  0  0  0
 23 50  1  0  0  0  0
 23 51  1  0  0  0  0
M  END
> <PUBCHEM_COMPOUND_CID>
162209

> <PUBCHEM_CONFORMER_RMSD>
0.6

> <PUBCHEM_CONFORMER_DIVERSEORDER>
1
2
3

> <PUBCHEM_MMFF94_PARTIAL_CHARGES>
17
1 -0.65
11 -0.14
12 0.14
15 -0.14
16 0.66
17 -0.15
18 -0.15
19 -0.14
2 -0.57
20 0.08
21 0.14
3 -0.53
41 0.15
42 0.15
43 0.5
45 0.45
5 0.2

> <PUBCHEM_EFFECTIVE_ROTOR_COUNT>
3.2

> <PUBCHEM_PHARMACOPHORE_FEATURES>
9
1 1 acceptor
1 2 acceptor
1 3 donor
3 1 2 16 anion
3 21 22 23 hydrophobe
3 6 13 14 hydrophobe
6 11 15 17 18 19 20 rings
6 4 5 6 7 8 10 rings
6 4 5 9 11 12 15 rings

> <PUBCHEM_HEAVY_ATOM_COUNT>
23

> <PUBCHEM_ATOM_DEF_STEREO_COUNT>
2

> <PUBCHEM_ATOM_UDEF_STEREO_COUNT>
0

> <PUBCHEM_BOND_DEF_STEREO_COUNT>
0

> <PUBCHEM_BOND_UDEF_STEREO_COUNT>
0

> <PUBCHEM_ISOTOPIC_ATOM_COUNT>
0

> <PUBCHEM_COMPONENT_COUNT>
1

> <PUBCHEM_CACTVS_TAUTO_COUNT>
3

> <PUBCHEM_CONFORMER_ID>
000279A100000001

> <PUBCHEM_MMFF94_ENERGY>
84.7239

> <PUBCHEM_FEATURE_SELFOVERLAP>
45.763

> <PUBCHEM_SHAPE_FINGERPRINT>
10366900 7 17458354035097892081
10498660 4 18411140229703471855
10863032 1 18187357718997593878
10906281 52 18197481953837964436
10948715 1 18127969699010564092
11132069 177 18410015416117620693
116883 192 18116421716998701012
12236239 1 17632296791544043358
12553582 1 18410015481016792865
12788726 201 18188211030458388881
13140716 1 18194405493800316801
13221675 6 18409730651364675429
13224815 77 18411421695752683051
13583140 156 17561366184672810193
15196674 1 18336261254126105982
15375358 24 18334297560940149949
15536298 74 18259981586977210116
15788980 27 17704076196155034781
1601671 61 18334292050302345932
16752209 62 18194412306182612509
16945 1 18060697299656303904
17349148 13 18040444282946412527
18186145 218 18272088305284334215
19784866 9 17918281951924542608
19862831 5 18411415120315976157
200 152 17095242523263937101
20645477 70 18335699459708810999
20691752 17 17703797976615769975
21267235 1 18336814385858336526
21421861 104 17988088918711644314
21452121 103 18113627780901541264
23402539 116 18411424969045303006
23559900 14 18335134319665239470
2838139 119 17201343080663554420
296302 2 18201435839777628637
3060560 45 17894917317123344300
335352 9 18335415802714621348
34934 24 18409736140190468045
4340502 62 16773790412006155969
474 4 17774431690517080444
495365 180 17167876265230993907
5104073 3 18336263461734262234
633830 44 17988922228456532326
9709674 26 18335699382563300135

> <PUBCHEM_SHAPE_MULTIPOLES>
455.72
9.36
2.19
1.42
8.04
0.16
0.34
-1.91
-1.53
-0.48
-0.1
-0.75
0.21
0.07

> <PUBCHEM_SHAPE_SELFOVERLAP>
976.108

> <PUBCHEM_SHAPE_VOLUME>
251.3

> <PUBCHEM_COORDINATE_TYPE>
2
5
10

$$$$

