32154
  -OEChem-07051213053D

 27 27  0     0  0  0  0  0  0999 V2000
   -2.7425   -3.1908    0.3187 Cl  0  0  0  0  0  0  0  0  0  0  0  0
   -4.4890    1.8383   -0.5689 Cl  0  0  0  0  0  0  0  0  0  0  0  0
    0.7014    1.9712    0.6334 O   0  0  0  0  0  0  0  0  0  0  0  0
    1.5090   -0.0811   -0.0809 N   0  0  0  0  0  0  0  0  0  0  0  0
    2.9166    0.2536    0.0129 C   0  0  0  0  0  0  0  0  0  0  0  0
    3.2577    0.6238    1.4607 C   0  0  0  0  0  0  0  0  0  0  0  0
    3.2152    1.4383   -0.9114 C   0  0  0  0  0  0  0  0  0  0  0  0
    0.5125    0.8221    0.2429 C   0  0  0  0  0  0  0  0  0  0  0  0
   -0.8792    0.3171    0.1191 C   0  0  0  0  0  0  0  0  0  0  0  0
    3.7178   -0.9170   -0.3995 C   0  0  0  0  0  0  0  0  0  0  0  0
   -1.8941    1.2162   -0.1354 C   0  0  0  0  0  0  0  0  0  0  0  0
   -1.1125   -1.0350    0.2620 C   0  0  0  0  0  0  0  0  0  0  0  0
   -2.4190   -1.5094    0.1452 C   0  0  0  0  0  0  0  0  0  0  0  0
   -3.2006    0.7418   -0.2522 C   0  0  0  0  0  0  0  0  0  0  0  0
   -3.4631   -0.6209   -0.1118 C   0  0  0  0  0  0  0  0  0  0  0  0
    4.3698   -1.8682   -0.7348 C   0  0  0  0  0  0  0  0  0  0  0  0
    1.2695   -0.9850   -0.4753 H   0  0  0  0  0  0  0  0  0  0  0  0
    2.7724    1.5447    1.7972 H   0  0  0  0  0  0  0  0  0  0  0  0
    2.9627   -0.1740    2.1538 H   0  0  0  0  0  0  0  0  0  0  0  0
    4.3378    0.7739    1.5824 H   0  0  0  0  0  0  0  0  0  0  0  0
    4.2928    1.6413   -0.9509 H   0  0  0  0  0  0  0  0  0  0  0  0
    2.8887    1.2323   -1.9385 H   0  0  0  0  0  0  0  0  0  0  0  0
    2.7324    2.3675   -0.5950 H   0  0  0  0  0  0  0  0  0  0  0  0
   -1.6903    2.2775   -0.2503 H   0  0  0  0  0  0  0  0  0  0  0  0
   -0.3241   -1.7430    0.4988 H   0  0  0  0  0  0  0  0  0  0  0  0
   -4.4821   -0.9908   -0.2028 H   0  0  0  0  0  0  0  0  0  0  0  0
    4.9478   -2.7117   -1.0322 H   0  0  0  0  0  0  0  0  0  0  0  0
  1 13  1  0  0  0  0
  2 14  1  0  0  0  0
  3  8  2  0  0  0  0
  4  5  1  0  0  0  0
  4  8  1  0  0  0  0
  4 17  1  0  0  0  0
  5  6  1  0  0  0  0
  5  7  1  0  0  0  0
  5 10  1  0  0  0  0
  6 18  1  0  0  0  0
  6 19  1  0  0  0  0
  6 20  1  0  0  0  0
  7 21  1  0  0  0  0
  7 22  1  0  0  0  0
  7 23  1  0  0  0  0
  8  9  1  0  0  0  0
  9 11  2  0  0  0  0
  9 12  1  0  0  0  0
 10 16  3  0  0  0  0
 11 14  1  0  0  0  0
 11 24  1  0  0  0  0
 12 13  2  0  0  0  0
 12 25  1  0  0  0  0
 13 15  1  0  0  0  0
 14 15  2  0  0  0  0
 15 26  1  0  0  0  0
 16 27  1  0  0  0  0
M  END
> <PUBCHEM_COMPOUND_CID>
32154

> <PUBCHEM_CONFORMER_RMSD>
0.6

> <PUBCHEM_CONFORMER_DIVERSEORDER>
4
8
3
9
1
5
2
7
6

> <PUBCHEM_MMFF94_PARTIAL_CHARGES>
19
1 -0.18
10 -0.2
11 -0.15
12 -0.15
13 0.18
14 0.18
15 -0.15
16 -0.18
17 0.37
2 -0.18
24 0.15
25 0.15
26 0.15
27 0.18
3 -0.57
4 -0.73
5 0.5
8 0.54
9 0.09

> <PUBCHEM_EFFECTIVE_ROTOR_COUNT>
3

> <PUBCHEM_PHARMACOPHORE_FEATURES>
5
1 16 hydrophobe
1 3 acceptor
1 4 donor
3 5 6 7 hydrophobe
6 9 11 12 13 14 15 rings

> <PUBCHEM_HEAVY_ATOM_COUNT>
16

> <PUBCHEM_ATOM_DEF_STEREO_COUNT>
0

> <PUBCHEM_ATOM_UDEF_STEREO_COUNT>
0

> <PUBCHEM_BOND_DEF_STEREO_COUNT>
0

> <PUBCHEM_BOND_UDEF_STEREO_COUNT>
0

> <PUBCHEM_ISOTOPIC_ATOM_COUNT>
0

> <PUBCHEM_COMPONENT_COUNT>
1

> <PUBCHEM_CACTVS_TAUTO_COUNT>
2

> <PUBCHEM_CONFORMER_ID>
00007D9A00000004

> <PUBCHEM_MMFF94_ENERGY>
37.3731

> <PUBCHEM_FEATURE_SELFOVERLAP>
25.372

> <PUBCHEM_SHAPE_FINGERPRINT>
10608611 8 18337115553381743321
10616163 171 18339074895998027974
11132069 177 18411989060943203201
12346177 29 18336275569621570015
12500047 106 18411705395728220431
12553582 1 17762055441358467231
12555020 224 18338239396062451087
12932764 1 17531244989982199518
13296908 3 18334856091425094442
13544592 145 18335986470882528540
13571099 22 18334575767531371572
14115302 16 18340762727892637332
14866123 147 17323505771328299242
15042514 8 18270111315608032787
15099037 51 18339643459562765397
15196674 1 18410011035219245879
15375358 24 18186811270081878304
17804303 29 18411134736440371533
17834072 8 18340770463102181917
17834074 16 18411698777030935222
17870717 6 18263346140151238894
18186145 218 17489871531291435236
18522853 266 18341610382558762302
200 152 16878233051224129661
20279233 1 18113624460585768696
20281475 54 18336819784589944971
20374829 77 18337954601355471630
20645477 56 18341617005688963501
20645477 70 17530685428863463732
20871999 31 18271238339962408878
21521239 73 17969244350975302783
21618674 54 18340764828405834732
221490 88 18339070481103560666
22169311 21 18261117348361033898
22943178 12 18334300820693727096
23402539 116 18115315595664429581
23557571 272 18337121068145781304
23559900 14 18408042927276511864
2748010 2 18120666738288820609
2838139 119 16270272408162120253
3084891 72 18263930019538055441
474 4 16414344542974643252
4921388 177 17060043814105227739
495365 180 17532110404375387122
5104073 3 18409166597441019186
559249 180 18271812388143426266
633830 44 16988837272379564052
8809292 202 18410007749611592315
93112 12 18341609330481698252
9709674 26 18336831896366220543

> <PUBCHEM_SHAPE_MULTIPOLES>
322.16
8.82
2.59
0.91
2.6
1.68
-0.13
0.57
1.6
-1.89
0.06
0.71
-0.14
0.99

> <PUBCHEM_SHAPE_SELFOVERLAP>
651.244

> <PUBCHEM_SHAPE_VOLUME>
190.3

> <PUBCHEM_COORDINATE_TYPE>
2
5
10

$$$$

