439237
  -OEChem-07051212443D

 55 58  0     1  0  0  0  0  0999 V2000
   -4.8818   -2.2787   -0.2694 O   0  0  0  0  0  0  0  0  0  0  0  0
    3.6955   -2.0102   -1.6143 O   0  0  0  0  0  0  0  0  0  0  0  0
    7.6986   -1.9270    1.4480 O   0  0  0  0  0  0  0  0  0  0  0  0
    5.8611   -1.1716    2.5449 O   0  0  0  0  0  0  0  0  0  0  0  0
    7.5064    3.4172   -0.5458 O   0  0  0  0  0  0  0  0  0  0  0  0
    7.9432    1.8971   -2.1726 O   0  0  0  0  0  0  0  0  0  0  0  0
   -3.9808    0.3639    0.4140 N   0  3  0  0  0  0  0  0  0  0  0  0
   -1.7649    0.3973    0.4727 N   0  0  0  0  0  0  0  0  0  0  0  0
   -5.8607    2.3074    0.4833 N   0  0  0  0  0  0  0  0  0  0  0  0
   -7.5255    0.6832   -0.1856 N   0  0  0  0  0  0  0  0  0  0  0  0
   -7.0065   -1.5575   -0.7009 N   0  0  0  0  0  0  0  0  0  0  0  0
   -9.1842   -0.7081   -0.9580 N   0  0  0  0  0  0  0  0  0  0  0  0
    4.4578   -0.8921    0.2687 N   0  0  0  0  0  0  0  0  0  0  0  0
   -3.6703    1.5889    1.1867 C   0  0  1  0  0  0  0  0  0  0  0  0
   -2.1431    1.6997    1.0607 C   0  0  0  0  0  0  0  0  0  0  0  0
   -4.4786    2.7413    0.6086 C   0  0  0  0  0  0  0  0  0  0  0  0
   -2.8579   -0.2545    0.1104 C   0  0  0  0  0  0  0  0  0  0  0  0
   -5.2843    0.0406    0.0791 C   0  0  0  0  0  0  0  0  0  0  0  0
   -6.2292    1.0125    0.1381 C   0  0  0  0  0  0  0  0  0  0  0  0
   -0.5117   -0.0118    0.2108 C   0  0  0  0  0  0  0  0  0  0  0  0
   -5.6897   -1.3569   -0.3165 C   0  0  0  0  0  0  0  0  0  0  0  0
    0.5852    0.7470    0.6375 C   0  0  0  0  0  0  0  0  0  0  0  0
   -0.2874   -1.2030   -0.4908 C   0  0  0  0  0  0  0  0  0  0  0  0
   -7.8638   -0.5754   -0.6156 C   0  0  0  0  0  0  0  0  0  0  0  0
    1.8858    0.3215    0.3669 C   0  0  0  0  0  0  0  0  0  0  0  0
    1.0132   -1.6286   -0.7612 C   0  0  0  0  0  0  0  0  0  0  0  0
    2.0997   -0.8663   -0.3324 C   0  0  0  0  0  0  0  0  0  0  0  0
    5.8541   -1.2295    0.1101 C   0  0  1  0  0  0  0  0  0  0  0  0
    3.4557   -1.3095   -0.6150 C   0  0  0  0  0  0  0  0  0  0  0  0
    6.6140   -0.2159   -0.7542 C   0  0  0  0  0  0  0  0  0  0  0  0
    6.6800    1.2146   -0.2041 C   0  0  0  0  0  0  0  0  0  0  0  0
    6.4411   -1.4141    1.4945 C   0  0  0  0  0  0  0  0  0  0  0  0
    7.4292    2.1783   -1.0988 C   0  0  0  0  0  0  0  0  0  0  0  0
   -3.9496    1.4027    2.2323 H   0  0  0  0  0  0  0  0  0  0  0  0
   -1.8381    2.5098    0.3898 H   0  0  0  0  0  0  0  0  0  0  0  0
   -1.6848    1.8277    2.0467 H   0  0  0  0  0  0  0  0  0  0  0  0
   -4.1074    3.0198   -0.3845 H   0  0  0  0  0  0  0  0  0  0  0  0
   -4.4141    3.6240    1.2525 H   0  0  0  0  0  0  0  0  0  0  0  0
   -2.8633   -1.1788   -0.4315 H   0  0  0  0  0  0  0  0  0  0  0  0
   -6.5961    3.0060    0.4663 H   0  0  0  0  0  0  0  0  0  0  0  0
   -8.2114    1.4285   -0.1405 H   0  0  0  0  0  0  0  0  0  0  0  0
    0.4579    1.6804    1.1778 H   0  0  0  0  0  0  0  0  0  0  0  0
   -1.0822   -1.8444   -0.8521 H   0  0  0  0  0  0  0  0  0  0  0  0
    2.7014    0.9615    0.6905 H   0  0  0  0  0  0  0  0  0  0  0  0
    1.1602   -2.5591   -1.3036 H   0  0  0  0  0  0  0  0  0  0  0  0
    5.8959   -2.2100   -0.3809 H   0  0  0  0  0  0  0  0  0  0  0  0
    7.6400   -0.5752   -0.9076 H   0  0  0  0  0  0  0  0  0  0  0  0
    6.1540   -0.1848   -1.7509 H   0  0  0  0  0  0  0  0  0  0  0  0
   -9.5533   -1.5911   -1.2936 H   0  0  0  0  0  0  0  0  0  0  0  0
   -9.8308    0.0698   -0.8846 H   0  0  0  0  0  0  0  0  0  0  0  0
    4.2111   -0.3476    1.0887 H   0  0  0  0  0  0  0  0  0  0  0  0
    5.6653    1.6069   -0.0745 H   0  0  0  0  0  0  0  0  0  0  0  0
    7.1821    1.2093    0.7697 H   0  0  0  0  0  0  0  0  0  0  0  0
    8.0717   -2.0613    2.3451 H   0  0  0  0  0  0  0  0  0  0  0  0
    8.0068    4.0405   -1.1144 H   0  0  0  0  0  0  0  0  0  0  0  0
  1 21  2  0  0  0  0
  2 29  2  0  0  0  0
  3 32  1  0  0  0  0
  3 54  1  0  0  0  0
  4 32  2  0  0  0  0
  5 33  1  0  0  0  0
  5 55  1  0  0  0  0
  6 33  2  0  0  0  0
  7 14  1  0  0  0  0
  7 17  2  0  0  0  0
  7 18  1  0  0  0  0
  8 15  1  0  0  0  0
  8 17  1  0  0  0  0
  8 20  1  0  0  0  0
  9 16  1  0  0  0  0
  9 19  1  0  0  0  0
  9 40  1  0  0  0  0
 10 19  1  0  0  0  0
 10 24  1  0  0  0  0
 10 41  1  0  0  0  0
 11 21  1  0  0  0  0
 11 24  2  0  0  0  0
 12 24  1  0  0  0  0
 12 49  1  0  0  0  0
 12 50  1  0  0  0  0
 13 28  1  0  0  0  0
 13 29  1  0  0  0  0
 13 51  1  0  0  0  0
 14 15  1  0  0  0  0
 14 16  1  0  0  0  0
 14 34  1  0  0  0  0
 15 35  1  0  0  0  0
 15 36  1  0  0  0  0
 16 37  1  0  0  0  0
 16 38  1  0  0  0  0
 17 39  1  0  0  0  0
 18 19  2  0  0  0  0
 18 21  1  0  0  0  0
 20 22  2  0  0  0  0
 20 23  1  0  0  0  0
 22 25  1  0  0  0  0
 22 42  1  0  0  0  0
 23 26  2  0  0  0  0
 23 43  1  0  0  0  0
 25 27  2  0  0  0  0
 25 44  1  0  0  0  0
 26 27  1  0  0  0  0
 26 45  1  0  0  0  0
 27 29  1  0  0  0  0
 28 30  1  0  0  0  0
 28 32  1  0  0  0  0
 28 46  1  0  0  0  0
 30 31  1  0  0  0  0
 30 47  1  0  0  0  0
 30 48  1  0  0  0  0
 31 33  1  0  0  0  0
 31 52  1  0  0  0  0
 31 53  1  0  0  0  0
M  CHG  1   7   1
M  END
> <PUBCHEM_COMPOUND_CID>
439237

> <PUBCHEM_CONFORMER_RMSD>
1

> <PUBCHEM_CONFORMER_DIVERSEORDER>
5
26
56
54
17
23
55
2
36
16
19
47
12
49
11
45
37
8
15
24
4
27
7
9
1
20
52
46
33
25
22
44
51
38
29
28
57
34
31
50
6
48
40
10
32
39
18
3
13
53
42
21
14
35
41
43
30

> <PUBCHEM_MMFF94_PARTIAL_CHARGES>
44
1 -0.57
10 -0.55
11 -0.66
12 -0.85
13 -0.73
14 0.49
15 0.49
16 0.37
17 0.56
18 0.36
19 0.2
2 -0.57
20 0.35
21 0.77
22 -0.15
23 -0.15
24 0.55
25 -0.15
26 -0.15
27 0.09
28 0.36
29 0.54
3 -0.65
31 0.06
32 0.66
33 0.66
39 0.15
4 -0.57
40 0.4
41 0.4
42 0.15
43 0.15
44 0.15
45 0.15
49 0.4
5 -0.65
50 0.4
51 0.37
54 0.5
55 0.5
6 -0.57
7 -0.68
8 -0.69
9 -0.87

> <PUBCHEM_EFFECTIVE_ROTOR_COUNT>
8.8

> <PUBCHEM_PHARMACOPHORE_FEATURES>
19
1 1 acceptor
1 10 donor
1 11 donor
1 12 donor
1 13 donor
1 2 acceptor
1 3 acceptor
1 4 acceptor
1 5 acceptor
1 6 acceptor
1 9 cation
1 9 donor
3 3 4 32 anion
3 5 6 33 anion
3 7 8 17 cation
5 7 8 14 15 17 rings
6 10 11 18 19 21 24 rings
6 20 22 23 25 26 27 rings
6 7 9 14 16 18 19 rings

> <PUBCHEM_HEAVY_ATOM_COUNT>
33

> <PUBCHEM_ATOM_DEF_STEREO_COUNT>
1

> <PUBCHEM_ATOM_UDEF_STEREO_COUNT>
1

> <PUBCHEM_BOND_DEF_STEREO_COUNT>
0

> <PUBCHEM_BOND_UDEF_STEREO_COUNT>
0

> <PUBCHEM_ISOTOPIC_ATOM_COUNT>
0

> <PUBCHEM_COMPONENT_COUNT>
1

> <PUBCHEM_CACTVS_TAUTO_COUNT>
18

> <PUBCHEM_CONFORMER_ID>
0006B3C500000005

> <PUBCHEM_MMFF94_ENERGY>
110.1955

> <PUBCHEM_FEATURE_SELFOVERLAP>
96.826

> <PUBCHEM_SHAPE_FINGERPRINT>
11315181 36 18343017784230198259
11719270 70 18114184159402577542
11991303 11 16515688801780977876
12047536 79 14117512105097170476
12089408 11 18341896299349444719
14251764 18 18412544314293981537
14444916 359 13840260395029762533
14461889 52 17968101949193022954
1454969 45 18334009484572370644
14675020 138 14333416632286550824
15064986 266 18335130991788070121
15131766 46 17915173517470106860
15183329 4 18335414669218242928
15419008 47 17095535018921248961
1577012 14 18410568500753021008
15840311 113 18272086085762097700
17686467 74 18201999881460001005
18608769 82 17822019713629960851
18681886 176 18187372025792107027
20105231 36 15719389534061449525
21049683 271 18113617863680266913
21130935 74 17532369953824334575
21150785 3 18408601452748986676
21267235 1 18259703390289576427
22149856 69 17386274506182319131
23559900 14 18114471128211658953
24771293 8 18341885303664053020
335352 9 18187369849135452085
3418910 222 18186793686919091337
34797466 226 14634877453102864554
3986486 107 17823953746837830156
4073 2 18342450435381641755
44880568 143 18264199386796886749
4516262 110 18059009481411475292
45377200 153 15140967197416837287
4625314 4 18410008879530739902
5109719 28 17603592881239564098
54583773 228 18267860588776074797

> <PUBCHEM_SHAPE_MULTIPOLES>
609.04
28.52
2.67
1.34
3.54
1.48
0.26
3.45
-5.07
2.11
-0.29
3.01
-0.09
-4.15

> <PUBCHEM_SHAPE_SELFOVERLAP>
1322.484

> <PUBCHEM_SHAPE_VOLUME>
329.4

> <PUBCHEM_COORDINATE_TYPE>
2
5
10

$$$$

