33255
  -OEChem-07051212523D

 43 46  0     1  0  0  0  0  0999 V2000
    0.2983   -0.8199    2.4620 S   0  0  0  0  0  0  0  0  0  0  0  0
   -3.6440    1.0226    0.4262 S   0  0  0  0  0  0  0  0  0  0  0  0
   -6.2722    2.5205    0.0825 S   0  0  0  0  0  0  0  0  0  0  0  0
    1.7680   -1.3572   -1.9157 O   0  0  0  0  0  0  0  0  0  0  0  0
   -1.8983   -2.1604   -2.2259 O   0  0  0  0  0  0  0  0  0  0  0  0
   -1.3498    0.0582   -2.3106 O   0  0  0  0  0  0  0  0  0  0  0  0
    4.5964   -0.7927   -0.6621 O   0  0  0  0  0  0  0  0  0  0  0  0
    0.2743   -1.5216   -0.0985 N   0  0  0  0  0  0  0  0  0  0  0  0
    3.0052   -0.6840    1.0243 N   0  0  0  0  0  0  0  0  0  0  0  0
    6.0043    1.3817    0.3412 N   0  0  0  0  0  0  0  0  0  0  0  0
    7.1994    0.8867    0.6480 N   0  0  0  0  0  0  0  0  0  0  0  0
   -6.1036   -0.0334    0.2079 N   0  0  0  0  0  0  0  0  0  0  0  0
    7.3584    2.4097   -0.9723 N   0  0  0  0  0  0  0  0  0  0  0  0
    8.0340    1.5229   -0.1648 N   0  0  0  0  0  0  0  0  0  0  0  0
   -7.4503    0.2454    0.0522 N   0  0  0  0  0  0  0  0  0  0  0  0
    0.7810   -1.9952    1.1767 C   0  0  1  0  0  0  0  0  0  0  0  0
    2.1916   -1.8131    0.5747 C   0  0  1  0  0  0  0  0  0  0  0  0
    1.4483   -1.5490   -0.7659 C   0  0  0  0  0  0  0  0  0  0  0  0
   -1.0269   -1.2050   -0.3230 C   0  0  0  0  0  0  0  0  0  0  0  0
   -1.8978   -1.0266    0.6987 C   0  0  0  0  0  0  0  0  0  0  0  0
   -1.4866   -1.0619    2.1690 C   0  0  0  0  0  0  0  0  0  0  0  0
   -3.3733   -0.7543    0.5297 C   0  0  0  0  0  0  0  0  0  0  0  0
   -1.4319   -1.0009   -1.7218 C   0  0  0  0  0  0  0  0  0  0  0  0
    4.1557   -0.2652    0.3557 C   0  0  0  0  0  0  0  0  0  0  0  0
    4.8055    0.9207    1.0347 C   0  0  0  0  0  0  0  0  0  0  0  0
   -5.4023    1.0651    0.2366 C   0  0  0  0  0  0  0  0  0  0  0  0
    6.0935    2.3017   -0.6365 C   0  0  0  0  0  0  0  0  0  0  0  0
   -7.6751    1.5395   -0.0261 C   0  0  0  0  0  0  0  0  0  0  0  0
   -9.0015    2.1656   -0.1967 C   0  0  0  0  0  0  0  0  0  0  0  0
    0.5161   -3.0396    1.3798 H   0  0  0  0  0  0  0  0  0  0  0  0
    2.7746   -2.7416    0.5618 H   0  0  0  0  0  0  0  0  0  0  0  0
   -1.7900   -2.0194    2.6065 H   0  0  0  0  0  0  0  0  0  0  0  0
   -1.9942   -0.2676    2.7256 H   0  0  0  0  0  0  0  0  0  0  0  0
    2.7343   -0.1742    1.8620 H   0  0  0  0  0  0  0  0  0  0  0  0
   -3.9347   -1.1822    1.3684 H   0  0  0  0  0  0  0  0  0  0  0  0
   -3.7520   -1.2365   -0.3781 H   0  0  0  0  0  0  0  0  0  0  0  0
    4.1023    1.7599    1.0659 H   0  0  0  0  0  0  0  0  0  0  0  0
    5.0924    0.6572    2.0583 H   0  0  0  0  0  0  0  0  0  0  0  0
   -2.1819   -2.0690   -3.1605 H   0  0  0  0  0  0  0  0  0  0  0  0
    5.2594    2.8434   -1.0578 H   0  0  0  0  0  0  0  0  0  0  0  0
   -9.7838    1.4011   -0.2447 H   0  0  0  0  0  0  0  0  0  0  0  0
   -9.0456    2.7463   -1.1237 H   0  0  0  0  0  0  0  0  0  0  0  0
   -9.2343    2.8284    0.6429 H   0  0  0  0  0  0  0  0  0  0  0  0
  1 16  1  0  0  0  0
  1 21  1  0  0  0  0
  2 22  1  0  0  0  0
  2 26  1  0  0  0  0
  3 26  1  0  0  0  0
  3 28  1  0  0  0  0
  4 18  2  0  0  0  0
  5 23  1  0  0  0  0
  5 39  1  0  0  0  0
  6 23  2  0  0  0  0
  7 24  2  0  0  0  0
  8 16  1  0  0  0  0
  8 18  1  0  0  0  0
  8 19  1  0  0  0  0
  9 17  1  0  0  0  0
  9 24  1  0  0  0  0
  9 34  1  0  0  0  0
 10 11  1  0  0  0  0
 10 25  1  0  0  0  0
 10 27  1  0  0  0  0
 11 14  2  0  0  0  0
 12 15  1  0  0  0  0
 12 26  2  0  0  0  0
 13 14  1  0  0  0  0
 13 27  2  0  0  0  0
 15 28  2  0  0  0  0
 16 17  1  0  0  0  0
 16 30  1  0  0  0  0
 17 18  1  0  0  0  0
 17 31  1  0  0  0  0
 19 20  2  0  0  0  0
 19 23  1  0  0  0  0
 20 21  1  0  0  0  0
 20 22  1  0  0  0  0
 21 32  1  0  0  0  0
 21 33  1  0  0  0  0
 22 35  1  0  0  0  0
 22 36  1  0  0  0  0
 24 25  1  0  0  0  0
 25 37  1  0  0  0  0
 25 38  1  0  0  0  0
 27 40  1  0  0  0  0
 28 29  1  0  0  0  0
 29 41  1  0  0  0  0
 29 42  1  0  0  0  0
 29 43  1  0  0  0  0
M  END
> <PUBCHEM_COMPOUND_CID>
33255

> <PUBCHEM_CONFORMER_RMSD>
1

> <PUBCHEM_CONFORMER_DIVERSEORDER>
1
112
74
88
66
83
109
58
79
89
105
48
115
96
84
19
98
17
87
91
103
97
45
77
39
72
56
111
99
43
26
46
90
100
38
85
40
27
68
78
114
101
9
62
106
104
15
64
71
25
67
95
81
44
61
2
59
5
8
21
36
82
55
20
69
75
70
110
28
24
30
41
80
12
34
65
29
31
108
76
32
86
113
50
10
47
35
13
52
23
16
73
49
92
94
33
54
14
18
6
60
11
22
63
4
102
3
42
107
51
7
57
53
93
37

> <PUBCHEM_MMFF94_PARTIAL_CHARGES>
31
1 -0.45
10 0.31
11 -0.42
12 -0.34
13 -0.34
15 -0.34
16 0.44
17 0.28
18 0.58
19 0.12
2 -0.29
20 -0.28
21 0.37
22 0.37
23 0.71
24 0.57
25 0.32
26 0.43
27 0.04
28 0.2
29 0.18
3 -0.08
34 0.37
39 0.5
4 -0.57
40 0.15
5 -0.65
6 -0.57
7 -0.57
8 -0.39
9 -0.65

> <PUBCHEM_EFFECTIVE_ROTOR_COUNT>
8.6

> <PUBCHEM_PHARMACOPHORE_FEATURES>
13
1 12 acceptor
1 15 acceptor
1 4 acceptor
1 5 acceptor
1 6 acceptor
1 7 acceptor
1 9 donor
3 10 13 27 cation
3 5 6 23 anion
4 8 16 17 18 rings
5 10 11 13 14 27 rings
5 3 12 15 26 28 rings
6 1 8 16 19 20 21 rings

> <PUBCHEM_HEAVY_ATOM_COUNT>
29

> <PUBCHEM_ATOM_DEF_STEREO_COUNT>
2

> <PUBCHEM_ATOM_UDEF_STEREO_COUNT>
0

> <PUBCHEM_BOND_DEF_STEREO_COUNT>
0

> <PUBCHEM_BOND_UDEF_STEREO_COUNT>
0

> <PUBCHEM_ISOTOPIC_ATOM_COUNT>
0

> <PUBCHEM_COMPONENT_COUNT>
1

> <PUBCHEM_CACTVS_TAUTO_COUNT>
2

> <PUBCHEM_CONFORMER_ID>
000081E700000001

> <PUBCHEM_MMFF94_ENERGY>
57.615

> <PUBCHEM_FEATURE_SELFOVERLAP>
67.776

> <PUBCHEM_SHAPE_FINGERPRINT>
10 15 17561365084285599552
10753850 27 9007060158262557112
11991303 11 16950293884136872399
12035758 1 15913608372141476247
12633257 1 16558465297375053994
12895837 130 18339638936756487381
13257819 37 16877944936528679783
13911987 19 17240481425377554083
14114211 68 17240482550448093575
14216079 64 8430315736238739489
14565420 104 17989209269600219234
14767858 380 16081086008779729371
14931854 50 16081082705696489354
15131766 46 18338522915807461112
15183329 4 14562529587277726815
15188451 53 11024113152875208422
15475509 35 10519985942027102932
15510800 12 9799413381676933184
15840311 113 18272930565476985527
15961568 22 18336264630593678761
16994733 274 18410580560883616305
17492 54 17167861980460151955
17980427 23 17489023747718509774
18335252 114 17894630370680330944
18393751 57 17203610376001441354
19841028 212 8718289926577331396
19958102 18 16009012983588977916
20105231 36 5256395133860381445
2026 5 7637412803992716756
20505436 4 18408611361234043374
20511986 3 17416973997208027745
20691028 202 18127689332289091636
20771845 171 17677614331651710007
21307412 95 13984662512368560389
21344244 181 5545187333639396093
21585482 111 18129665330166188325
21639891 77 12823308892102325271
22122407 14 18270952437233632136
22224240 67 17275105028960647683
23569943 247 6699266602457543157
23576562 1 16878805790004507561
24771293 8 17775284959111558725
2838139 119 18336832996463417376
3103668 31 16590011312315539791
34797466 226 18188207727965459359
439807 62 7853854987929622353
5104073 3 15697175078232244681
6438161 24 8646766686024905245
9689198 14 18410852161598572709

> <PUBCHEM_SHAPE_MULTIPOLES>
545.03
22.88
2.64
1.79
5.96
1.05
0.35
26.73
-0.43
-1.18
0.19
-0.24
-1.03
-0.61

> <PUBCHEM_SHAPE_SELFOVERLAP>
1125.864

> <PUBCHEM_SHAPE_VOLUME>
314.2

> <PUBCHEM_COORDINATE_TYPE>
2
5
10

$$$$

