4823
  -OEChem-06261200213D

 43 46  0     1  0  0  0  0  0999 V2000
    7.7389   -0.9143   -0.0231 O   0  0  0  0  0  0  0  0  0  0  0  0
   -7.5624   -0.6251    0.1679 O   0  0  0  0  0  0  0  0  0  0  0  0
    4.7448    0.9076    0.5111 N   0  0  0  0  0  0  0  0  0  0  0  0
   -1.1421   -0.4464    0.1487 N   0  0  0  0  0  0  0  0  0  0  0  0
    6.0343    0.5019    0.5638 N   0  0  0  0  0  0  0  0  0  0  0  0
   -1.5557    1.6953   -0.2780 N   0  0  0  0  0  0  0  0  0  0  0  0
    4.1856   -1.3450   -0.3274 C   0  0  1  0  0  0  0  0  0  0  0  0
    3.8435    0.0866    0.0617 C   0  0  0  0  0  0  0  0  0  0  0  0
    5.5771   -1.3548   -0.9401 C   0  0  0  0  0  0  0  0  0  0  0  0
    2.4251    0.5635   -0.0389 C   0  0  0  0  0  0  0  0  0  0  0  0
    4.1020   -2.2587    0.8970 C   0  0  0  0  0  0  0  0  0  0  0  0
    0.0883    0.1485    0.0350 C   0  0  0  0  0  0  0  0  0  0  0  0
    1.3863   -0.3524    0.1392 C   0  0  0  0  0  0  0  0  0  0  0  0
   -0.1968    1.4848   -0.2313 C   0  0  0  0  0  0  0  0  0  0  0  0
    6.5515   -0.5967   -0.0813 C   0  0  0  0  0  0  0  0  0  0  0  0
    2.1756    1.9089   -0.3069 C   0  0  0  0  0  0  0  0  0  0  0  0
    0.8639    2.3894   -0.4071 C   0  0  0  0  0  0  0  0  0  0  0  0
   -2.0915    0.5178   -0.0461 C   0  0  0  0  0  0  0  0  0  0  0  0
   -3.5029    0.2227    0.0095 C   0  0  0  0  0  0  0  0  0  0  0  0
   -4.4032    1.2011    0.4297 C   0  0  0  0  0  0  0  0  0  0  0  0
   -3.9658   -1.0407   -0.3575 C   0  0  0  0  0  0  0  0  0  0  0  0
   -5.7675    0.9160    0.4833 C   0  0  0  0  0  0  0  0  0  0  0  0
   -5.3301   -1.3258   -0.3041 C   0  0  0  0  0  0  0  0  0  0  0  0
   -6.2311   -0.3473    0.1163 C   0  0  0  0  0  0  0  0  0  0  0  0
   -7.9679   -1.9365   -0.2213 C   0  0  0  0  0  0  0  0  0  0  0  0
    3.4754   -1.6999   -1.0831 H   0  0  0  0  0  0  0  0  0  0  0  0
    5.5627   -0.8657   -1.9218 H   0  0  0  0  0  0  0  0  0  0  0  0
    5.9368   -2.3803   -1.0778 H   0  0  0  0  0  0  0  0  0  0  0  0
    4.2877   -3.2989    0.6082 H   0  0  0  0  0  0  0  0  0  0  0  0
    4.8468   -1.9873    1.6536 H   0  0  0  0  0  0  0  0  0  0  0  0
    3.1317   -2.2218    1.3960 H   0  0  0  0  0  0  0  0  0  0  0  0
    1.5341   -1.4045    0.3335 H   0  0  0  0  0  0  0  0  0  0  0  0
    2.9921    2.6125   -0.4520 H   0  0  0  0  0  0  0  0  0  0  0  0
    0.6764    3.4375   -0.6176 H   0  0  0  0  0  0  0  0  0  0  0  0
   -1.3031   -1.4235    0.3552 H   0  0  0  0  0  0  0  0  0  0  0  0
    6.6446    1.1138    1.0960 H   0  0  0  0  0  0  0  0  0  0  0  0
   -4.0629    2.1913    0.7229 H   0  0  0  0  0  0  0  0  0  0  0  0
   -3.2913   -1.8207   -0.7022 H   0  0  0  0  0  0  0  0  0  0  0  0
   -6.4646    1.6819    0.8122 H   0  0  0  0  0  0  0  0  0  0  0  0
   -5.6224   -2.3258   -0.6058 H   0  0  0  0  0  0  0  0  0  0  0  0
   -7.7380   -2.1329   -1.2741 H   0  0  0  0  0  0  0  0  0  0  0  0
   -9.0570   -1.9820   -0.1182 H   0  0  0  0  0  0  0  0  0  0  0  0
   -7.5516   -2.7006    0.4440 H   0  0  0  0  0  0  0  0  0  0  0  0
  1 15  2  0  0  0  0
  2 24  1  0  0  0  0
  2 25  1  0  0  0  0
  3  5  1  0  0  0  0
  3  8  2  0  0  0  0
  4 12  1  0  0  0  0
  4 18  1  0  0  0  0
  4 35  1  0  0  0  0
  5 15  1  0  0  0  0
  5 36  1  0  0  0  0
  6 14  1  0  0  0  0
  6 18  2  0  0  0  0
  7  8  1  0  0  0  0
  7  9  1  0  0  0  0
  7 11  1  0  0  0  0
  7 26  1  0  0  0  0
  8 10  1  0  0  0  0
  9 15  1  0  0  0  0
  9 27  1  0  0  0  0
  9 28  1  0  0  0  0
 10 13  2  0  0  0  0
 10 16  1  0  0  0  0
 11 29  1  0  0  0  0
 11 30  1  0  0  0  0
 11 31  1  0  0  0  0
 12 13  1  0  0  0  0
 12 14  2  0  0  0  0
 13 32  1  0  0  0  0
 14 17  1  0  0  0  0
 16 17  2  0  0  0  0
 16 33  1  0  0  0  0
 17 34  1  0  0  0  0
 18 19  1  0  0  0  0
 19 20  2  0  0  0  0
 19 21  1  0  0  0  0
 20 22  1  0  0  0  0
 20 37  1  0  0  0  0
 21 23  2  0  0  0  0
 21 38  1  0  0  0  0
 22 24  2  0  0  0  0
 22 39  1  0  0  0  0
 23 24  1  0  0  0  0
 23 40  1  0  0  0  0
 25 41  1  0  0  0  0
 25 42  1  0  0  0  0
 25 43  1  0  0  0  0
M  END
> <PUBCHEM_COMPOUND_CID>
4823

> <PUBCHEM_CONFORMER_RMSD>
0.8

> <PUBCHEM_CONFORMER_DIVERSEORDER>
2
7
5
3
6
4
1

> <PUBCHEM_MMFF94_PARTIAL_CHARGES>
33
1 -0.57
10 0.09
12 -0.15
13 -0.15
14 0.23
15 0.57
16 -0.15
17 -0.15
18 0.13
19 0.05
2 -0.36
20 -0.15
21 -0.15
22 -0.15
23 -0.15
24 0.08
25 0.28
3 -0.51
32 0.15
33 0.15
34 0.15
35 0.27
36 0.37
37 0.15
38 0.15
39 0.15
4 0.03
40 0.15
5 -0.37
6 -0.57
7 0.06
8 0.3
9 0.06

> <PUBCHEM_EFFECTIVE_ROTOR_COUNT>
3.6

> <PUBCHEM_PHARMACOPHORE_FEATURES>
10
1 1 acceptor
1 2 acceptor
1 3 acceptor
1 4 donor
1 5 donor
3 4 6 18 cation
5 4 6 12 14 18 rings
6 10 12 13 14 16 17 rings
6 19 20 21 22 23 24 rings
6 3 5 7 8 9 15 rings

> <PUBCHEM_HEAVY_ATOM_COUNT>
25

> <PUBCHEM_ATOM_DEF_STEREO_COUNT>
0

> <PUBCHEM_ATOM_UDEF_STEREO_COUNT>
1

> <PUBCHEM_BOND_DEF_STEREO_COUNT>
0

> <PUBCHEM_BOND_UDEF_STEREO_COUNT>
0

> <PUBCHEM_ISOTOPIC_ATOM_COUNT>
0

> <PUBCHEM_COMPONENT_COUNT>
1

> <PUBCHEM_CACTVS_TAUTO_COUNT>
6

> <PUBCHEM_CONFORMER_ID>
000012D700000002

> <PUBCHEM_MMFF94_ENERGY>
76.8013

> <PUBCHEM_FEATURE_SELFOVERLAP>
50.851

> <PUBCHEM_SHAPE_FINGERPRINT>
10 15 5761647096640521607
10299344 5 18410008840480434046
106641 1 17894353263790588970
11135609 99 18337951169792965327
11315181 36 18259982674558822217
11524674 6 16587745330572226447
11578080 2 16807313297629927882
11963148 33 18413113870293408242
12166972 35 18260546702016713889
12236239 1 18260264149108303761
12516196 113 18408605872555248816
12596602 18 17749107794450697130
12623949 98 17750505351561719294
13288520 33 18411418415099425397
13533116 47 18261674779065676433
1361 2 18411136956723069450
13668630 136 18260543450409647614
13685833 64 18410855455843744017
13862211 1 18343302582440769464
13885169 127 18409449220087035757
14170010 4 18411139104496295928
14178184 131 18043529409701855679
14251764 18 18187643587889385053
14556957 393 16056587807360043199
14849402 71 18041841688473511496
15183329 4 18131351912414698595
15419008 91 18269014049520659077
15690457 1 18114185207722400095
15716309 27 17967534558342851815
15849732 13 18260830397100489751
15927050 60 17757274778381858588
17492 89 17981893252906188010
1768 124 17967532371930867839
1813 80 17703791426769928484
18681886 176 18335708217373876963
19141452 34 18187367610286307766
19611394 137 6770996615772461269
20028762 73 18334012791523901391
20612939 158 17917423186104325909
20721686 124 11743849075299419648
21033648 29 14274001257119789473
21049683 271 18412540986555131916
21130935 74 18187643634839061555
21150785 3 15698278902276373551
21267235 1 18412540994996379233
22224240 67 16587748633275307102
23035841 295 18412262847970522075
23522609 53 18125126511796473396
23559900 14 18199468770684412297
23569943 247 18124593347246065083
3004659 81 18060419110340397156
335352 9 18341611486323386799
3383291 50 18342736270256839827
34797466 226 16950275175143733388
397830 11 15865216592906685226
4073 2 18200871756037419443
4340502 62 14923941258277425908
465052 167 18259982699901280238
5104073 3 18189062061158543896
5385378 56 6843934849208948068
559249 180 18408603678464997653
999808 66 18060125524036148755

> <PUBCHEM_SHAPE_MULTIPOLES>
482.83
21.19
2.06
0.74
9.4
0.15
0
-11.73
-0.45
-0.12
0.1
-0.31
-0.09
-0.39

> <PUBCHEM_SHAPE_SELFOVERLAP>
1070.107

> <PUBCHEM_SHAPE_VOLUME>
260.5

> <PUBCHEM_COORDINATE_TYPE>
2
5
10

$$$$

