101810
  -OEChem-07051212563D

 81 85  0     1  0  0  0  0  0999 V2000
   -3.1811   -1.8236    2.1176 O   0  0  0  0  0  0  0  0  0  0  0  0
    7.0342    1.4958    0.3939 O   0  0  0  0  0  0  0  0  0  0  0  0
   -4.6433   -2.5463   -1.5054 O   0  0  0  0  0  0  0  0  0  0  0  0
   -3.6067   -0.7818   -2.5096 O   0  0  0  0  0  0  0  0  0  0  0  0
    6.4074   -1.8299    1.6045 O   0  0  0  0  0  0  0  0  0  0  0  0
    0.7001   -0.7867   -0.2856 C   0  0  2  0  0  0  0  0  0  0  0  0
    1.3623    0.6430   -0.4110 C   0  0  1  0  0  0  0  0  0  0  0  0
    2.9239    0.7034   -0.7310 C   0  0  2  0  0  0  0  0  0  0  0  0
   -0.7795   -0.6193    0.4084 C   0  0  1  0  0  0  0  0  0  0  0  0
    3.6393   -0.2452    0.2931 C   0  0  1  0  0  0  0  0  0  0  0  0
    1.6102   -1.7181    0.5661 C   0  0  0  0  0  0  0  0  0  0  0  0
   -1.5827    0.4955   -0.2786 C   0  0  0  0  0  0  0  0  0  0  0  0
    3.0926   -1.6832    0.1890 C   0  0  0  0  0  0  0  0  0  0  0  0
   -3.1099    0.5445   -0.1630 C   0  0  1  0  0  0  0  0  0  0  0  0
   -1.5684   -1.9636    0.3153 C   0  0  0  0  0  0  0  0  0  0  0  0
    0.4906    1.5701   -1.2802 C   0  0  0  0  0  0  0  0  0  0  0  0
   -3.8346   -0.8344   -0.0832 C   0  0  1  0  0  0  0  0  0  0  0  0
    5.2000   -0.1499    0.3460 C   0  0  2  0  0  0  0  0  0  0  0  0
    3.4328    2.1539   -0.4665 C   0  0  0  0  0  0  0  0  0  0  0  0
   -3.0507   -1.9157    0.7040 C   0  0  2  0  0  0  0  0  0  0  0  0
    0.5506   -1.4453   -1.6902 C   0  0  0  0  0  0  0  0  0  0  0  0
   -0.9795    1.4440   -1.0238 C   0  0  0  0  0  0  0  0  0  0  0  0
    3.2506    0.3619   -2.2058 C   0  0  0  0  0  0  0  0  0  0  0  0
   -0.6371   -0.2367    1.9107 C   0  0  0  0  0  0  0  0  0  0  0  0
    5.6224    1.3317    0.5355 C   0  0  2  0  0  0  0  0  0  0  0  0
    4.9548    2.2894   -0.4467 C   0  0  0  0  0  0  0  0  0  0  0  0
   -3.6035    1.5151    0.9302 C   0  0  0  0  0  0  0  0  0  0  0  0
   -5.2813   -0.6881    0.4703 C   0  0  0  0  0  0  0  0  0  0  0  0
   -5.1156    1.8428    0.7847 C   0  0  0  0  0  0  0  0  0  0  0  0
   -5.8937    0.6723    0.1333 C   0  0  0  0  0  0  0  0  0  0  0  0
    5.9296   -0.8275   -0.8237 C   0  0  0  0  0  0  0  0  0  0  0  0
   -3.9980   -1.3543   -1.5033 C   0  0  0  0  0  0  0  0  0  0  0  0
    5.6559   -0.8605    1.6084 C   0  0  0  0  0  0  0  0  0  0  0  0
   -5.2991    3.1017   -0.0851 C   0  0  0  0  0  0  0  0  0  0  0  0
   -5.6925    2.1449    2.1816 C   0  0  0  0  0  0  0  0  0  0  0  0
    1.3050    1.0779    0.5952 H   0  0  0  0  0  0  0  0  0  0  0  0
    3.3152    0.1080    1.2875 H   0  0  0  0  0  0  0  0  0  0  0  0
    1.2561   -2.7545    0.5109 H   0  0  0  0  0  0  0  0  0  0  0  0
    1.5637   -1.4411    1.6232 H   0  0  0  0  0  0  0  0  0  0  0  0
    3.6237   -2.3435    0.8843 H   0  0  0  0  0  0  0  0  0  0  0  0
    3.2429   -2.1125   -0.8048 H   0  0  0  0  0  0  0  0  0  0  0  0
   -3.4455    1.0284   -1.0930 H   0  0  0  0  0  0  0  0  0  0  0  0
   -1.0677   -2.7159    0.9378 H   0  0  0  0  0  0  0  0  0  0  0  0
   -1.5481   -2.3437   -0.7098 H   0  0  0  0  0  0  0  0  0  0  0  0
    0.6427    1.3879   -2.3471 H   0  0  0  0  0  0  0  0  0  0  0  0
    0.7704    2.6133   -1.0947 H   0  0  0  0  0  0  0  0  0  0  0  0
    3.0510    2.5077    0.5004 H   0  0  0  0  0  0  0  0  0  0  0  0
    3.0365    2.8402   -1.2247 H   0  0  0  0  0  0  0  0  0  0  0  0
   -3.4473   -2.9121    0.4707 H   0  0  0  0  0  0  0  0  0  0  0  0
   -0.2227   -0.9669   -2.2983 H   0  0  0  0  0  0  0  0  0  0  0  0
    1.4682   -1.4254   -2.2715 H   0  0  0  0  0  0  0  0  0  0  0  0
    0.2972   -2.5080   -1.6110 H   0  0  0  0  0  0  0  0  0  0  0  0
   -1.5893    2.2052   -1.5070 H   0  0  0  0  0  0  0  0  0  0  0  0
    3.3744   -0.7072   -2.3828 H   0  0  0  0  0  0  0  0  0  0  0  0
    2.4897    0.7252   -2.8990 H   0  0  0  0  0  0  0  0  0  0  0  0
    4.1773    0.8253   -2.5503 H   0  0  0  0  0  0  0  0  0  0  0  0
   -0.2840   -1.0802    2.5128 H   0  0  0  0  0  0  0  0  0  0  0  0
    0.0383    0.6047    2.0803 H   0  0  0  0  0  0  0  0  0  0  0  0
   -1.5893    0.0614    2.3542 H   0  0  0  0  0  0  0  0  0  0  0  0
    5.3686    1.6677    1.5499 H   0  0  0  0  0  0  0  0  0  0  0  0
    5.3793    2.1590   -1.4482 H   0  0  0  0  0  0  0  0  0  0  0  0
    5.2179    3.3198   -0.1734 H   0  0  0  0  0  0  0  0  0  0  0  0
   -3.4285    1.0577    1.9108 H   0  0  0  0  0  0  0  0  0  0  0  0
   -3.0165    2.4425    0.9253 H   0  0  0  0  0  0  0  0  0  0  0  0
   -5.2931   -0.7775    1.5617 H   0  0  0  0  0  0  0  0  0  0  0  0
   -5.9546   -1.4743    0.1106 H   0  0  0  0  0  0  0  0  0  0  0  0
   -5.9136    0.7836   -0.9588 H   0  0  0  0  0  0  0  0  0  0  0  0
   -6.9431    0.6897    0.4530 H   0  0  0  0  0  0  0  0  0  0  0  0
    5.5805   -1.8530   -0.9847 H   0  0  0  0  0  0  0  0  0  0  0  0
    5.8110   -0.2820   -1.7608 H   0  0  0  0  0  0  0  0  0  0  0  0
    7.0108   -0.8911   -0.6483 H   0  0  0  0  0  0  0  0  0  0  0  0
    5.2618   -0.4659    2.5616 H   0  0  0  0  0  0  0  0  0  0  0  0
   -4.0312   -2.2229    2.3677 H   0  0  0  0  0  0  0  0  0  0  0  0
   -4.8066    3.9709    0.3654 H   0  0  0  0  0  0  0  0  0  0  0  0
   -4.8745    2.9626   -1.0852 H   0  0  0  0  0  0  0  0  0  0  0  0
   -6.3606    3.3465   -0.2051 H   0  0  0  0  0  0  0  0  0  0  0  0
   -5.6242    1.2723    2.8402 H   0  0  0  0  0  0  0  0  0  0  0  0
   -5.1506    2.9677    2.6618 H   0  0  0  0  0  0  0  0  0  0  0  0
   -6.7482    2.4329    2.1218 H   0  0  0  0  0  0  0  0  0  0  0  0
    7.4652    0.9576    1.0791 H   0  0  0  0  0  0  0  0  0  0  0  0
   -4.7591   -2.8983   -2.4136 H   0  0  0  0  0  0  0  0  0  0  0  0
  1 20  1  0  0  0  0
  1 73  1  0  0  0  0
  2 25  1  0  0  0  0
  2 80  1  0  0  0  0
  3 32  1  0  0  0  0
  3 81  1  0  0  0  0
  4 32  2  0  0  0  0
  5 33  2  0  0  0  0
  6  7  1  0  0  0  0
  6  9  1  0  0  0  0
  6 11  1  0  0  0  0
  6 21  1  0  0  0  0
  7  8  1  0  0  0  0
  7 16  1  0  0  0  0
  7 36  1  0  0  0  0
  8 10  1  0  0  0  0
  8 19  1  0  0  0  0
  8 23  1  0  0  0  0
  9 12  1  0  0  0  0
  9 15  1  0  0  0  0
  9 24  1  0  0  0  0
 10 13  1  0  0  0  0
 10 18  1  0  0  0  0
 10 37  1  0  0  0  0
 11 13  1  0  0  0  0
 11 38  1  0  0  0  0
 11 39  1  0  0  0  0
 12 14  1  0  0  0  0
 12 22  2  0  0  0  0
 13 40  1  0  0  0  0
 13 41  1  0  0  0  0
 14 17  1  0  0  0  0
 14 27  1  0  0  0  0
 14 42  1  0  0  0  0
 15 20  1  0  0  0  0
 15 43  1  0  0  0  0
 15 44  1  0  0  0  0
 16 22  1  0  0  0  0
 16 45  1  0  0  0  0
 16 46  1  0  0  0  0
 17 20  1  0  0  0  0
 17 28  1  0  0  0  0
 17 32  1  0  0  0  0
 18 25  1  0  0  0  0
 18 31  1  0  0  0  0
 18 33  1  0  0  0  0
 19 26  1  0  0  0  0
 19 47  1  0  0  0  0
 19 48  1  0  0  0  0
 20 49  1  0  0  0  0
 21 50  1  0  0  0  0
 21 51  1  0  0  0  0
 21 52  1  0  0  0  0
 22 53  1  0  0  0  0
 23 54  1  0  0  0  0
 23 55  1  0  0  0  0
 23 56  1  0  0  0  0
 24 57  1  0  0  0  0
 24 58  1  0  0  0  0
 24 59  1  0  0  0  0
 25 26  1  0  0  0  0
 25 60  1  0  0  0  0
 26 61  1  0  0  0  0
 26 62  1  0  0  0  0
 27 29  1  0  0  0  0
 27 63  1  0  0  0  0
 27 64  1  0  0  0  0
 28 30  1  0  0  0  0
 28 65  1  0  0  0  0
 28 66  1  0  0  0  0
 29 30  1  0  0  0  0
 29 34  1  0  0  0  0
 29 35  1  0  0  0  0
 30 67  1  0  0  0  0
 30 68  1  0  0  0  0
 31 69  1  0  0  0  0
 31 70  1  0  0  0  0
 31 71  1  0  0  0  0
 33 72  1  0  0  0  0
 34 74  1  0  0  0  0
 34 75  1  0  0  0  0
 34 76  1  0  0  0  0
 35 77  1  0  0  0  0
 35 78  1  0  0  0  0
 35 79  1  0  0  0  0
M  END
> <PUBCHEM_COMPOUND_CID>
101810

> <PUBCHEM_CONFORMER_RMSD>
0.8

> <PUBCHEM_CONFORMER_DIVERSEORDER>
1
2
3

> <PUBCHEM_MMFF94_PARTIAL_CHARGES>
21
1 -0.68
12 -0.28
14 0.14
16 0.14
17 0.06
18 0.06
2 -0.68
20 0.28
22 -0.29
25 0.28
3 -0.65
32 0.66
33 0.45
4 -0.57
5 -0.57
53 0.15
72 0.06
73 0.4
80 0.4
81 0.5
9 0.14

> <PUBCHEM_EFFECTIVE_ROTOR_COUNT>
4.6

> <PUBCHEM_PHARMACOPHORE_FEATURES>
14
1 1 acceptor
1 1 donor
1 2 acceptor
1 2 donor
1 3 acceptor
1 4 acceptor
1 5 acceptor
3 29 34 35 hydrophobe
3 3 4 32 anion
6 14 17 27 28 29 30 rings
6 6 7 8 10 11 13 rings
6 6 7 9 12 16 22 rings
6 8 10 18 19 25 26 rings
6 9 12 14 15 17 20 rings

> <PUBCHEM_HEAVY_ATOM_COUNT>
35

> <PUBCHEM_ATOM_DEF_STEREO_COUNT>
10

> <PUBCHEM_ATOM_UDEF_STEREO_COUNT>
0

> <PUBCHEM_BOND_DEF_STEREO_COUNT>
0

> <PUBCHEM_BOND_UDEF_STEREO_COUNT>
0

> <PUBCHEM_ISOTOPIC_ATOM_COUNT>
0

> <PUBCHEM_COMPONENT_COUNT>
1

> <PUBCHEM_CACTVS_TAUTO_COUNT>
1

> <PUBCHEM_CONFORMER_ID>
00018DB200000001

> <PUBCHEM_MMFF94_ENERGY>
158.6437

> <PUBCHEM_FEATURE_SELFOVERLAP>
71.159

> <PUBCHEM_SHAPE_FINGERPRINT>
10 15 18271799151259812185
10906281 52 17988627593884610222
11578080 2 17313933234318488069
12107183 9 18270685397646648072
12236239 1 18261114058474269846
12422481 6 18272933864186091380
12616971 3 18273213114269418564
12633257 1 18202002148706536330
12788726 201 17749946794716334969
13140716 1 18131064931205492394
13224815 77 18342172241548350878
13533116 47 17703795855730367738
13690498 29 17169000989123965087
13782708 43 17822573811271053270
14068700 675 17897457090826961279
14790565 3 18412821395719822789
14849402 71 18339359652810132016
14955137 171 14836394839860197943
15131766 46 15694867015085695389
15183329 4 18342174470678542820
15361156 5 18339629114556561628
1577012 14 18408888434575267312
15788980 27 18334010575404574774
15840311 113 18191854842416201529
17349148 13 18202004317596481558
17980427 23 18410571764938586141
1813 80 16056881317177910390
20511986 3 18336555992231053313
21033648 144 17988085487038075428
21033648 29 17895206489113992216
21130935 74 18343584057803232754
21236236 1 18408604743121177301
21859007 373 17344918640141771293
23522609 53 17986646312523468868
23559900 14 17632017447203381924
23569914 2 17101485601553011624
23569943 247 17202219592956679882
24771293 8 18340491059281565284
34797466 226 17385995144292497052
350125 39 18273213127692559612
3680242 22 18201434809455067032
392239 28 18411982485564966664
404807 14 17034706964555610262
4073 2 17845647046158550832
4144715 1 18272920622654602122
4169191 19 17916303840892726548
5104073 3 18272646827326810416
6086070 43 17894639123217369784
7226269 152 18334573590152199761

> <PUBCHEM_SHAPE_MULTIPOLES>
690.94
16.25
2.7
1.8
8.47
0.6
-0.13
4.52
4.25
-1.76
0.11
-0.66
-0.38
-2.03

> <PUBCHEM_SHAPE_SELFOVERLAP>
1475.201

> <PUBCHEM_SHAPE_VOLUME>
376.4

> <PUBCHEM_COORDINATE_TYPE>
2
5
10

$$$$

