53297359
  -OEChem-07051213033D

 48 50  0     0  0  0  0  0  0999 V2000
    0.0939    2.2898    0.5978 O   0  0  0  0  0  0  0  0  0  0  0  0
   -2.4046    2.4190    0.1459 O   0  0  0  0  0  0  0  0  0  0  0  0
   -2.8363   -2.9046   -0.0276 O   0  0  0  0  0  0  0  0  0  0  0  0
    2.9676    0.5277    2.0387 O   0  0  0  0  0  0  0  0  0  0  0  0
   -4.9075    2.7245   -0.2934 O   0  0  0  0  0  0  0  0  0  0  0  0
    4.0778   -3.0590   -0.0698 O   0  0  0  0  0  0  0  0  0  0  0  0
    5.2042    1.0271    0.5161 O   0  0  0  0  0  0  0  0  0  0  0  0
    2.8832   -1.5686   -1.3630 O   0  0  0  0  0  0  0  0  0  0  0  0
   -1.3138    0.3434    0.3055 C   0  0  0  0  0  0  0  0  0  0  0  0
   -1.4272   -1.0475    0.2590 C   0  0  0  0  0  0  0  0  0  0  0  0
    0.9467   -1.2540    0.6836 C   0  0  0  0  0  0  0  0  0  0  0  0
    1.0600    0.1340    0.7302 C   0  0  0  0  0  0  0  0  0  0  0  0
   -0.0668    0.9348    0.5416 C   0  0  0  0  0  0  0  0  0  0  0  0
   -0.2939   -1.8473    0.4484 C   0  0  0  0  0  0  0  0  0  0  0  0
   -3.8112    0.5623   -0.1394 C   0  0  0  0  0  0  0  0  0  0  0  0
   -3.9248   -0.8289   -0.1855 C   0  0  0  0  0  0  0  0  0  0  0  0
   -2.5014    1.1992    0.1073 C   0  0  0  0  0  0  0  0  0  0  0  0
   -2.7369   -1.6845    0.0120 C   0  0  0  0  0  0  0  0  0  0  0  0
    2.1377   -2.1347    0.8827 C   0  0  0  0  0  0  0  0  0  0  0  0
    2.3610    0.7492    0.9759 C   0  0  0  0  0  0  0  0  0  0  0  0
   -4.9448    1.3619   -0.3278 C   0  0  0  0  0  0  0  0  0  0  0  0
    2.9609    1.6936   -0.0710 C   0  0  0  0  0  0  0  0  0  0  0  0
   -5.1719   -1.4202   -0.4203 C   0  0  0  0  0  0  0  0  0  0  0  0
   -6.1857    0.7686   -0.5612 C   0  0  0  0  0  0  0  0  0  0  0  0
   -6.2989   -0.6195   -0.6075 C   0  0  0  0  0  0  0  0  0  0  0  0
    4.4757    1.7347   -0.1774 C   0  0  0  0  0  0  0  0  0  0  0  0
    3.0492   -2.1963   -0.3259 C   0  0  0  0  0  0  0  0  0  0  0  0
    5.0328    2.6716   -1.2374 C   0  0  0  0  0  0  0  0  0  0  0  0
    6.5489    2.6427   -1.3080 C   0  0  0  0  0  0  0  0  0  0  0  0
    5.0263   -3.2188   -1.1296 C   0  0  0  0  0  0  0  0  0  0  0  0
   -0.3742   -2.9310    0.4109 H   0  0  0  0  0  0  0  0  0  0  0  0
    1.8034   -3.1620    1.0806 H   0  0  0  0  0  0  0  0  0  0  0  0
    2.7144   -1.8356    1.7626 H   0  0  0  0  0  0  0  0  0  0  0  0
    2.6244    2.7079    0.1679 H   0  0  0  0  0  0  0  0  0  0  0  0
    2.5741    1.4087   -1.0559 H   0  0  0  0  0  0  0  0  0  0  0  0
   -5.2866   -2.5001   -0.4609 H   0  0  0  0  0  0  0  0  0  0  0  0
   -7.0705    1.3826   -0.7079 H   0  0  0  0  0  0  0  0  0  0  0  0
   -7.2662   -1.0791   -0.7894 H   0  0  0  0  0  0  0  0  0  0  0  0
   -0.7402    2.7493    0.4238 H   0  0  0  0  0  0  0  0  0  0  0  0
    4.6171    2.3766   -2.2065 H   0  0  0  0  0  0  0  0  0  0  0  0
    4.6961    3.6873   -1.0054 H   0  0  0  0  0  0  0  0  0  0  0  0
   -4.0079    3.0403   -0.1224 H   0  0  0  0  0  0  0  0  0  0  0  0
    6.9122    1.6381   -1.5489 H   0  0  0  0  0  0  0  0  0  0  0  0
    6.9928    2.9394   -0.3519 H   0  0  0  0  0  0  0  0  0  0  0  0
    6.9078    3.3303   -2.0799 H   0  0  0  0  0  0  0  0  0  0  0  0
    5.7905   -3.9268   -0.7981 H   0  0  0  0  0  0  0  0  0  0  0  0
    5.5074   -2.2620   -1.3539 H   0  0  0  0  0  0  0  0  0  0  0  0
    4.5350   -3.6232   -2.0197 H   0  0  0  0  0  0  0  0  0  0  0  0
  1 13  1  0  0  0  0
  1 39  1  0  0  0  0
  2 17  2  0  0  0  0
  3 18  2  0  0  0  0
  4 20  2  0  0  0  0
  5 21  1  0  0  0  0
  5 42  1  0  0  0  0
  6 27  1  0  0  0  0
  6 30  1  0  0  0  0
  7 26  2  0  0  0  0
  8 27  2  0  0  0  0
  9 10  2  0  0  0  0
  9 13  1  0  0  0  0
  9 17  1  0  0  0  0
 10 14  1  0  0  0  0
 10 18  1  0  0  0  0
 11 12  1  0  0  0  0
 11 14  2  0  0  0  0
 11 19  1  0  0  0  0
 12 13  2  0  0  0  0
 12 20  1  0  0  0  0
 14 31  1  0  0  0  0
 15 16  2  0  0  0  0
 15 17  1  0  0  0  0
 15 21  1  0  0  0  0
 16 18  1  0  0  0  0
 16 23  1  0  0  0  0
 19 27  1  0  0  0  0
 19 32  1  0  0  0  0
 19 33  1  0  0  0  0
 20 22  1  0  0  0  0
 21 24  2  0  0  0  0
 22 26  1  0  0  0  0
 22 34  1  0  0  0  0
 22 35  1  0  0  0  0
 23 25  2  0  0  0  0
 23 36  1  0  0  0  0
 24 25  1  0  0  0  0
 24 37  1  0  0  0  0
 25 38  1  0  0  0  0
 26 28  1  0  0  0  0
 28 29  1  0  0  0  0
 28 40  1  0  0  0  0
 28 41  1  0  0  0  0
 29 43  1  0  0  0  0
 29 44  1  0  0  0  0
 29 45  1  0  0  0  0
 30 46  1  0  0  0  0
 30 47  1  0  0  0  0
 30 48  1  0  0  0  0
M  END
> <PUBCHEM_COMPOUND_CID>
53297359

> <PUBCHEM_CONFORMER_RMSD>
0.8

> <PUBCHEM_CONFORMER_DIVERSEORDER>
1
98
118
86
120
113
88
61
97
95
90
72
64
85
81
60
128
87
71
52
6
111
18
127
114
91
116
83
11
107
100
9
47
76
13
39
43
106
78
66
31
105
101
70
129
27
119
73
126
51
12
108
104
67
103
2
22
75
92
25
130
102
45
28
29
37
33
30
17
34
54
110
96
56
82
38
40
19
94
4
58
123
14
35
99
46
117
62
65
44
7
57
124
115
112
10
80
109
8
49
50
74
15
41
36
79
84
122
63
3
24
93
59
32
20
48
23
77
42
5
121
125
26
16
69
21
89
53
68
55

> <PUBCHEM_MMFF94_PARTIAL_CHARGES>
35
1 -0.53
10 0.09
11 -0.14
12 0.09
13 0.08
14 -0.15
15 0.09
16 0.09
17 0.4
18 0.4
19 0.2
2 -0.57
20 0.42
21 0.08
22 0.12
23 -0.15
24 -0.15
25 -0.15
26 0.45
27 0.66
28 0.06
3 -0.57
30 0.28
31 0.15
36 0.15
37 0.15
38 0.15
39 0.45
4 -0.57
42 0.45
5 -0.53
6 -0.43
7 -0.57
8 -0.57
9 0.09

> <PUBCHEM_EFFECTIVE_ROTOR_COUNT>
7

> <PUBCHEM_PHARMACOPHORE_FEATURES>
12
1 1 donor
1 2 acceptor
1 22 anion
1 29 hydrophobe
1 3 acceptor
1 4 acceptor
1 5 donor
1 7 acceptor
1 8 acceptor
6 15 16 21 23 24 25 rings
6 9 10 11 12 13 14 rings
6 9 10 15 16 17 18 rings

> <PUBCHEM_HEAVY_ATOM_COUNT>
30

> <PUBCHEM_ATOM_DEF_STEREO_COUNT>
0

> <PUBCHEM_ATOM_UDEF_STEREO_COUNT>
0

> <PUBCHEM_BOND_DEF_STEREO_COUNT>
0

> <PUBCHEM_BOND_UDEF_STEREO_COUNT>
0

> <PUBCHEM_ISOTOPIC_ATOM_COUNT>
0

> <PUBCHEM_COMPONENT_COUNT>
1

> <PUBCHEM_CACTVS_TAUTO_COUNT>
492

> <PUBCHEM_CONFORMER_ID>
032D40CF00000001

> <PUBCHEM_MMFF94_ENERGY>
84.0378

> <PUBCHEM_FEATURE_SELFOVERLAP>
60.939

> <PUBCHEM_SHAPE_FINGERPRINT>
10906281 52 18201152165925453209
11963148 33 18193005819762132663
12236239 1 17774730761726863193
12788726 201 17676482887142327585
131258 43 16951952055700245126
13540713 5 17970049236046507208
14790565 3 18270400486279998825
14840074 17 17274824601666216420
15183329 4 18412257316854764460
15196674 1 18409455816950664987
15961568 22 17988926647630292436
1601671 61 18411424968576148817
18335252 98 18269829836178079755
18608769 82 18197492931763661539
20554085 129 18042134176806003056
20612939 158 18410008870555754682
20691752 17 17774717675145777976
21267235 1 18336827598174861835
21279426 13 18337115691263236895
22393880 68 18196098952666222135
23522609 53 17896859080734379449
23559900 14 18262245533101125682
23569914 152 16593070471444275061
27425 322 16987993870379629200
3004659 81 18338519745873709458
3298306 158 18261391079944271964
350125 39 18338239382945096083
4073 2 18130785634078160755
4280585 95 18121497123440789150
46194498 28 18337669823385445614
5104073 3 18336273426907565827
5265222 85 17906442235457058516
9709674 26 18408892806794238307

> <PUBCHEM_SHAPE_MULTIPOLES>
570.43
14.7
3.7
1.09
1.96
0.97
0.06
-5.21
-5.89
-4.4
-0.92
-1.31
-0.05
-0.28

> <PUBCHEM_SHAPE_SELFOVERLAP>
1252.174

> <PUBCHEM_SHAPE_VOLUME>
306

> <PUBCHEM_COORDINATE_TYPE>
2
5
10

$$$$

