17396396
  -OEChem-06241222563D

 42 45  0     0  0  0  0  0  0999 V2000
   -0.9954   -2.3636    1.8207 S   0  0  0  0  0  0  0  0  0  0  0  0
    1.1543    0.0344   -2.2206 F   0  0  0  0  0  0  0  0  0  0  0  0
    0.4467   -2.4465   -1.3271 O   0  0  0  0  0  0  0  0  0  0  0  0
   -2.0927   -0.3731    0.2647 N   0  0  0  0  0  0  0  0  0  0  0  0
    2.1266   -2.1615    0.2412 N   0  0  0  0  0  0  0  0  0  0  0  0
   -3.1180    1.0146   -1.1289 N   0  0  0  0  0  0  0  0  0  0  0  0
   -3.3359   -1.4756   -1.0734 N   0  0  0  0  0  0  0  0  0  0  0  0
   -2.7342   -2.4151   -0.2401 N   0  0  0  0  0  0  0  0  0  0  0  0
   -1.6416    0.8511    0.6464 C   0  0  0  0  0  0  0  0  0  0  0  0
   -2.9488   -0.2279   -0.7711 C   0  0  0  0  0  0  0  0  0  0  0  0
   -2.3018    1.7135   -0.2471 C   0  0  0  0  0  0  0  0  0  0  0  0
   -1.9799   -1.7131    0.5678 C   0  0  0  0  0  0  0  0  0  0  0  0
    3.0094   -1.3897   -0.6252 C   0  0  0  0  0  0  0  0  0  0  0  0
   -0.7641    1.3059    1.6322 C   0  0  0  0  0  0  0  0  0  0  0  0
    0.0909   -3.4285    0.8417 C   0  0  0  0  0  0  0  0  0  0  0  0
   -2.0743    3.0975   -0.1512 C   0  0  0  0  0  0  0  0  0  0  0  0
    2.7784    0.0877   -0.4899 C   0  0  0  0  0  0  0  0  0  0  0  0
    0.8819   -2.6418   -0.1894 C   0  0  0  0  0  0  0  0  0  0  0  0
   -0.5558    2.6874    1.7064 C   0  0  0  0  0  0  0  0  0  0  0  0
   -1.1971    3.5681    0.8329 C   0  0  0  0  0  0  0  0  0  0  0  0
    2.6337   -2.3979    1.5912 C   0  0  0  0  0  0  0  0  0  0  0  0
    1.8480    0.7287   -1.3078 C   0  0  0  0  0  0  0  0  0  0  0  0
    3.4964    0.8192    0.4561 C   0  0  0  0  0  0  0  0  0  0  0  0
    1.6357    2.1014   -1.1797 C   0  0  0  0  0  0  0  0  0  0  0  0
    3.2841    2.1919    0.5841 C   0  0  0  0  0  0  0  0  0  0  0  0
    2.3538    2.8330   -0.2338 C   0  0  0  0  0  0  0  0  0  0  0  0
    2.8312   -1.6898   -1.6653 H   0  0  0  0  0  0  0  0  0  0  0  0
    4.0542   -1.6523   -0.4178 H   0  0  0  0  0  0  0  0  0  0  0  0
   -0.2592    0.6306    2.3125 H   0  0  0  0  0  0  0  0  0  0  0  0
   -3.9786   -1.7626   -1.8017 H   0  0  0  0  0  0  0  0  0  0  0  0
   -0.5205   -4.1611    0.3022 H   0  0  0  0  0  0  0  0  0  0  0  0
    0.7304   -4.0147    1.5037 H   0  0  0  0  0  0  0  0  0  0  0  0
   -2.5664    3.7917   -0.8251 H   0  0  0  0  0  0  0  0  0  0  0  0
    0.1214    3.0826    2.4599 H   0  0  0  0  0  0  0  0  0  0  0  0
   -1.0115    4.6358    0.9167 H   0  0  0  0  0  0  0  0  0  0  0  0
    2.8381   -3.4661    1.7088 H   0  0  0  0  0  0  0  0  0  0  0  0
    1.8998   -2.0785    2.3336 H   0  0  0  0  0  0  0  0  0  0  0  0
    3.5632   -1.8518    1.7710 H   0  0  0  0  0  0  0  0  0  0  0  0
    4.2299    0.3370    1.0961 H   0  0  0  0  0  0  0  0  0  0  0  0
    0.9124    2.6001   -1.8179 H   0  0  0  0  0  0  0  0  0  0  0  0
    3.8439    2.7619    1.3196 H   0  0  0  0  0  0  0  0  0  0  0  0
    2.1894    3.9021   -0.1351 H   0  0  0  0  0  0  0  0  0  0  0  0
  1 12  1  0  0  0  0
  1 15  1  0  0  0  0
  2 22  1  0  0  0  0
  3 18  2  0  0  0  0
  4  9  1  0  0  0  0
  4 10  1  0  0  0  0
  4 12  1  0  0  0  0
  5 13  1  0  0  0  0
  5 18  1  0  0  0  0
  5 21  1  0  0  0  0
  6 10  2  0  0  0  0
  6 11  1  0  0  0  0
  7  8  1  0  0  0  0
  7 10  1  0  0  0  0
  7 30  1  0  0  0  0
  8 12  2  0  0  0  0
  9 11  1  0  0  0  0
  9 14  2  0  0  0  0
 11 16  2  0  0  0  0
 13 17  1  0  0  0  0
 13 27  1  0  0  0  0
 13 28  1  0  0  0  0
 14 19  1  0  0  0  0
 14 29  1  0  0  0  0
 15 18  1  0  0  0  0
 15 31  1  0  0  0  0
 15 32  1  0  0  0  0
 16 20  1  0  0  0  0
 16 33  1  0  0  0  0
 17 22  1  0  0  0  0
 17 23  2  0  0  0  0
 19 20  2  0  0  0  0
 19 34  1  0  0  0  0
 20 35  1  0  0  0  0
 21 36  1  0  0  0  0
 21 37  1  0  0  0  0
 21 38  1  0  0  0  0
 22 24  2  0  0  0  0
 23 25  1  0  0  0  0
 23 39  1  0  0  0  0
 24 26  1  0  0  0  0
 24 40  1  0  0  0  0
 25 26  2  0  0  0  0
 25 41  1  0  0  0  0
 26 42  1  0  0  0  0
M  END
> <PUBCHEM_COMPOUND_CID>
17396396

> <PUBCHEM_CONFORMER_RMSD>
1.4

> <PUBCHEM_CONFORMER_DIVERSEORDER>
2
60
55
50
40
74
14
47
51
78
9
44
43
49
68
20
58
24
80
6
18
7
77
63
34
56
19
5
3
75
48
21
10
15
36
1
4
71
22
69
76
28
37
62
30
8
11
25
53
38
52
23
85
32
84
29
66
12
42
13
16
17
67
59
79
54
81
33
82
45
27
72
70
46
73
61
41
35
83
57
26
31
39
64
65

> <PUBCHEM_MMFF94_PARTIAL_CHARGES>
35
1 -0.37
10 0.27
11 0.23
12 0.6
13 0.44
14 -0.15
15 0.29
16 -0.15
17 -0.14
18 0.57
19 -0.15
2 -0.19
20 -0.15
21 0.3
22 0.19
23 -0.15
24 -0.15
25 -0.15
26 -0.15
29 0.15
3 -0.57
30 0.4
33 0.15
34 0.15
35 0.15
39 0.15
4 0.29
40 0.15
41 0.15
42 0.15
5 -0.66
6 -0.57
7 -0.44
8 -0.49
9 -0.15

> <PUBCHEM_EFFECTIVE_ROTOR_COUNT>
6

> <PUBCHEM_PHARMACOPHORE_FEATURES>
7
1 3 acceptor
1 7 donor
4 4 6 7 10 cation
5 4 6 9 10 11 rings
5 4 7 8 10 12 rings
6 17 22 23 24 25 26 rings
6 9 11 14 16 19 20 rings

> <PUBCHEM_HEAVY_ATOM_COUNT>
26

> <PUBCHEM_ATOM_DEF_STEREO_COUNT>
0

> <PUBCHEM_ATOM_UDEF_STEREO_COUNT>
0

> <PUBCHEM_BOND_DEF_STEREO_COUNT>
0

> <PUBCHEM_BOND_UDEF_STEREO_COUNT>
0

> <PUBCHEM_ISOTOPIC_ATOM_COUNT>
0

> <PUBCHEM_COMPONENT_COUNT>
1

> <PUBCHEM_CACTVS_TAUTO_COUNT>
2

> <PUBCHEM_CONFORMER_ID>
010972AC00000002

> <PUBCHEM_MMFF94_ENERGY>
76.4471

> <PUBCHEM_FEATURE_SELFOVERLAP>
35.962

> <PUBCHEM_SHAPE_FINGERPRINT>
10675989 125 18339091483510280965
10708813 3 17689160427418153112
10759866 29 17483676698561552100
11370993 70 18199765660182333556
12156800 1 15472604338048497712
12553582 1 17905308655314870273
12633257 1 17762063537793040560
13122387 1 17403170898971543904
13140716 1 18337660958314106705
13402501 40 17833271913226762657
13965767 371 16463055553462792283
14223421 5 18335134289389257196
14955137 171 17038079180039666097
17093844 170 15887714495001848793
17492 54 17760088419371650205
192875 21 18194984025810457790
19930381 70 18120940507872747087
20715895 44 18129121012207099645
20764821 26 16896812263586697559
20905425 154 18335986397678284527
22749437 52 18270965643946232998
23419403 2 16466225239469560417
23559900 14 18335712645554256792
35225 105 17686288340011867753
6669772 16 17255716013467834031

> <PUBCHEM_SHAPE_MULTIPOLES>
500.87
5.39
4.87
1.64
0.88
0.08
-0.11
-0.58
0.9
-0.13
-1.35
0.02
0.11
-0.54

> <PUBCHEM_SHAPE_SELFOVERLAP>
1091.332

> <PUBCHEM_SHAPE_VOLUME>
277.6

> <PUBCHEM_COORDINATE_TYPE>
2
5
10

$$$$

