61909
  -OEChem-07051213053D

 47 48  0     0  0  0  0  0  0999 V2000
   -4.6567   -0.9863   -0.4539 O   0  0  0  0  0  0  0  0  0  0  0  0
    4.6753   -0.9736    0.4542 O   0  0  0  0  0  0  0  0  0  0  0  0
   -6.9929   -2.5315   -0.4769 O   0  0  0  0  0  0  0  0  0  0  0  0
    7.0158   -2.5123    0.4751 O   0  0  0  0  0  0  0  0  0  0  0  0
    0.0048    2.1592    0.0022 C   0  0  0  0  0  0  0  0  0  0  0  0
   -1.2886    1.2872   -0.1242 C   0  0  0  0  0  0  0  0  0  0  0  0
    1.2395    1.3317    0.1215 C   0  0  0  0  0  0  0  0  0  0  0  0
   -0.0480    3.1289   -1.2383 C   0  0  0  0  0  0  0  0  0  0  0  0
   -0.0650    3.1309    1.2324 C   0  0  0  0  0  0  0  0  0  0  0  0
   -2.2401    1.4395    0.8347 C   0  0  0  0  0  0  0  0  0  0  0  0
    2.2517    1.4470   -0.8313 C   0  0  0  0  0  0  0  0  0  0  0  0
   -1.3674    0.4391   -1.1837 C   0  0  0  0  0  0  0  0  0  0  0  0
    1.3819    0.4414    1.1859 C   0  0  0  0  0  0  0  0  0  0  0  0
   -3.3924    0.6615    0.7222 C   0  0  0  0  0  0  0  0  0  0  0  0
    3.4062    0.6722   -0.7198 C   0  0  0  0  0  0  0  0  0  0  0  0
   -2.5197   -0.3388   -1.2963 C   0  0  0  0  0  0  0  0  0  0  0  0
    2.5364   -0.3334    1.2974 C   0  0  0  0  0  0  0  0  0  0  0  0
   -3.5322   -0.2276   -0.3433 C   0  0  0  0  0  0  0  0  0  0  0  0
    3.5486   -0.2180    0.3446 C   0  0  0  0  0  0  0  0  0  0  0  0
   -5.3163   -1.3503    0.7578 C   0  0  0  0  0  0  0  0  0  0  0  0
    5.3358   -1.3341   -0.7581 C   0  0  0  0  0  0  0  0  0  0  0  0
   -6.0258   -2.6753    0.5562 C   0  0  0  0  0  0  0  0  0  0  0  0
    6.0491   -2.6574   -0.5583 C   0  0  0  0  0  0  0  0  0  0  0  0
   -0.9925    3.6877   -1.2612 H   0  0  0  0  0  0  0  0  0  0  0  0
    0.0318    2.5997   -2.1948 H   0  0  0  0  0  0  0  0  0  0  0  0
    0.7618    3.8679   -1.1998 H   0  0  0  0  0  0  0  0  0  0  0  0
    0.8433    3.7468    1.2775 H   0  0  0  0  0  0  0  0  0  0  0  0
   -0.9098    3.8274    1.1668 H   0  0  0  0  0  0  0  0  0  0  0  0
   -0.1227    2.6036    2.1919 H   0  0  0  0  0  0  0  0  0  0  0  0
   -2.1902    2.1110    1.6802 H   0  0  0  0  0  0  0  0  0  0  0  0
    2.1943    2.1280   -1.6732 H   0  0  0  0  0  0  0  0  0  0  0  0
   -0.5854    0.3385   -1.9278 H   0  0  0  0  0  0  0  0  0  0  0  0
    0.6060    0.3308    1.9385 H   0  0  0  0  0  0  0  0  0  0  0  0
   -4.1682    0.7974    1.4700 H   0  0  0  0  0  0  0  0  0  0  0  0
    4.1819    0.8121   -1.4669 H   0  0  0  0  0  0  0  0  0  0  0  0
   -2.6225   -1.0310   -2.1277 H   0  0  0  0  0  0  0  0  0  0  0  0
    2.6415   -1.0260    2.1281 H   0  0  0  0  0  0  0  0  0  0  0  0
   -6.0433   -0.5680    1.0044 H   0  0  0  0  0  0  0  0  0  0  0  0
   -4.6078   -1.4775    1.5856 H   0  0  0  0  0  0  0  0  0  0  0  0
    6.0606   -0.5494   -1.0036 H   0  0  0  0  0  0  0  0  0  0  0  0
    4.6278   -1.4622   -1.5861 H   0  0  0  0  0  0  0  0  0  0  0  0
   -5.3213   -3.4501    0.2391 H   0  0  0  0  0  0  0  0  0  0  0  0
   -6.5299   -3.0034    1.4699 H   0  0  0  0  0  0  0  0  0  0  0  0
    5.3468   -3.4346   -0.2423 H   0  0  0  0  0  0  0  0  0  0  0  0
    6.5542   -2.9828   -1.4724 H   0  0  0  0  0  0  0  0  0  0  0  0
   -7.6324   -1.8583   -0.1882 H   0  0  0  0  0  0  0  0  0  0  0  0
    7.6533   -1.8367    0.1873 H   0  0  0  0  0  0  0  0  0  0  0  0
  1 18  1  0  0  0  0
  1 20  1  0  0  0  0
  2 19  1  0  0  0  0
  2 21  1  0  0  0  0
  3 22  1  0  0  0  0
  3 46  1  0  0  0  0
  4 23  1  0  0  0  0
  4 47  1  0  0  0  0
  5  6  1  0  0  0  0
  5  7  1  0  0  0  0
  5  8  1  0  0  0  0
  5  9  1  0  0  0  0
  6 10  2  0  0  0  0
  6 12  1  0  0  0  0
  7 11  2  0  0  0  0
  7 13  1  0  0  0  0
  8 24  1  0  0  0  0
  8 25  1  0  0  0  0
  8 26  1  0  0  0  0
  9 27  1  0  0  0  0
  9 28  1  0  0  0  0
  9 29  1  0  0  0  0
 10 14  1  0  0  0  0
 10 30  1  0  0  0  0
 11 15  1  0  0  0  0
 11 31  1  0  0  0  0
 12 16  2  0  0  0  0
 12 32  1  0  0  0  0
 13 17  2  0  0  0  0
 13 33  1  0  0  0  0
 14 18  2  0  0  0  0
 14 34  1  0  0  0  0
 15 19  2  0  0  0  0
 15 35  1  0  0  0  0
 16 18  1  0  0  0  0
 16 36  1  0  0  0  0
 17 19  1  0  0  0  0
 17 37  1  0  0  0  0
 20 22  1  0  0  0  0
 20 38  1  0  0  0  0
 20 39  1  0  0  0  0
 21 23  1  0  0  0  0
 21 40  1  0  0  0  0
 21 41  1  0  0  0  0
 22 42  1  0  0  0  0
 22 43  1  0  0  0  0
 23 44  1  0  0  0  0
 23 45  1  0  0  0  0
M  END
> <PUBCHEM_COMPOUND_CID>
61909

> <PUBCHEM_CONFORMER_RMSD>
0.8

> <PUBCHEM_CONFORMER_DIVERSEORDER>
1
26
43
8
10
19
28
41
14
15
34
37
38
23
40
13
48
4
16
12
47
49
33
44
35
46
2
32
50
42
30
51
27
7
17
20
9
45
22
25
36
31
5
21
6
39
18
11
24
29
3

> <PUBCHEM_MMFF94_PARTIAL_CHARGES>
31
1 -0.36
10 -0.15
11 -0.15
12 -0.15
13 -0.15
14 -0.15
15 -0.15
16 -0.15
17 -0.15
18 0.08
19 0.08
2 -0.36
20 0.28
21 0.28
22 0.28
23 0.28
3 -0.68
30 0.15
31 0.15
32 0.15
33 0.15
34 0.15
35 0.15
36 0.15
37 0.15
4 -0.68
46 0.4
47 0.4
5 0.29
6 -0.14
7 -0.14

> <PUBCHEM_EFFECTIVE_ROTOR_COUNT>
8

> <PUBCHEM_PHARMACOPHORE_FEATURES>
9
1 1 acceptor
1 2 acceptor
1 3 acceptor
1 3 donor
1 4 acceptor
1 4 donor
3 5 8 9 hydrophobe
6 6 10 12 14 16 18 rings
6 7 11 13 15 17 19 rings

> <PUBCHEM_HEAVY_ATOM_COUNT>
23

> <PUBCHEM_ATOM_DEF_STEREO_COUNT>
0

> <PUBCHEM_ATOM_UDEF_STEREO_COUNT>
0

> <PUBCHEM_BOND_DEF_STEREO_COUNT>
0

> <PUBCHEM_BOND_UDEF_STEREO_COUNT>
0

> <PUBCHEM_ISOTOPIC_ATOM_COUNT>
0

> <PUBCHEM_COMPONENT_COUNT>
1

> <PUBCHEM_CACTVS_TAUTO_COUNT>
1

> <PUBCHEM_CONFORMER_ID>
0000F1D500000001

> <PUBCHEM_MMFF94_ENERGY>
91.4862

> <PUBCHEM_FEATURE_SELFOVERLAP>
45.677

> <PUBCHEM_SHAPE_FINGERPRINT>
11578080 2 18338255811169967553
117089 54 18338504296581816971
11809386 21 18126292071862973338
11961588 58 12103842332720611740
12293681 160 12247681573579830781
12403259 118 6194545745450157259
12633257 1 15647340714388524808
13009979 54 18334004008294519528
13103583 49 16081378435875539766
13533116 47 18192993717323760617
13540713 4 18266480787309229129
13690498 29 17917713517725152431
13911852 28 18408323272481826999
13955234 65 17903915553030148225
14123256 34 18342452634431147339
14251740 57 18410577240952952624
14251764 30 18410572885640362539
14576447 43 18060421352529382842
15209294 21 8213840567537581724
15238133 3 5833986191973525562
15519825 34 14852182672048301271
16120349 189 8142080944559857010
17492 89 18410009983637995668
17780758 139 17749955582308735520
1813 80 18410281506532449357
193927 3 18410856559639809057
19784866 240 18341891875227044853
20028762 73 18410009962047972026
20775438 99 17836939897060993043
21033648 29 14996550841944739233
21344244 246 18059001784518948508
21637258 2 18410576184174719683
21682296 61 18409445861264543191
21713013 43 17775294858557657725
22950370 63 18410848863063968709
23379529 103 18341886364547264010
23559900 14 18057608651704418777
2838139 119 8790340888884307643
3004659 81 18060422408416175650
46194498 28 17130994140173520197
465052 167 18264201418811783151
474113 269 18041287591438918311
5104073 3 17822005410829755193
54039377 194 18410851084332649222
5718773 13 18410857659162668422
6327066 14 9655571907418370386
636775 8 18263352738007508830
77188 2 18335984185908251649
7970288 3 18410573985157531394

> <PUBCHEM_SHAPE_MULTIPOLES>
449.85
14.73
3.42
1.25
0.44
0.03
0
-21.94
-0.01
-0.09
0
0
0.34
-0.03

> <PUBCHEM_SHAPE_SELFOVERLAP>
944.678

> <PUBCHEM_SHAPE_VOLUME>
255.3

> <PUBCHEM_COORDINATE_TYPE>
2
5
10

$$$$

