47205699
  -OEChem-06241222592D

 36 36  0     0  0  0  0  0  0999 V2000
    2.0000   -3.5000    0.0000 S   0  0  0  0  0  0  0  0  0  0  0  0
    4.5981    3.0000    0.0000 O   0  0  0  0  0  0  0  0  0  0  0  0
    5.4641   -0.5000    0.0000 O   0  0  0  0  0  0  0  0  0  0  0  0
    5.4641    1.5000    0.0000 N   0  0  0  0  0  0  0  0  0  0  0  0
    3.7320   -0.5000    0.0000 N   0  0  0  0  0  0  0  0  0  0  0  0
    6.3301    3.0000    0.0000 C   0  0  0  0  0  0  0  0  0  0  0  0
    6.3301    4.0000    0.0000 C   0  0  0  0  0  0  0  0  0  0  0  0
    4.5981    1.0000    0.0000 C   0  0  0  0  0  0  0  0  0  0  0  0
    5.4641    2.5000    0.0000 C   0  0  0  0  0  0  0  0  0  0  0  0
    3.7320   -1.5000    0.0000 C   0  0  0  0  0  0  0  0  0  0  0  0
    7.1962    4.5000    0.0000 C   0  0  0  0  0  0  0  0  0  0  0  0
    4.5981    0.0000    0.0000 C   0  0  0  0  0  0  0  0  0  0  0  0
    2.8660   -2.0000    0.0000 C   0  0  0  0  0  0  0  0  0  0  0  0
    4.5981   -2.0000    0.0000 C   0  0  0  0  0  0  0  0  0  0  0  0
    2.8660   -3.0000    0.0000 C   0  0  0  0  0  0  0  0  0  0  0  0
    4.5981   -3.0000    0.0000 C   0  0  0  0  0  0  0  0  0  0  0  0
    3.7320   -3.5000    0.0000 C   0  0  0  0  0  0  0  0  0  0  0  0
    2.0000   -4.5000    0.0000 C   0  0  0  0  0  0  0  0  0  0  0  0
    6.5422    2.4174    0.0000 H   0  0  0  0  0  0  0  0  0  0  0  0
    6.9407    3.1077    0.0000 H   0  0  0  0  0  0  0  0  0  0  0  0
    6.1181    4.5826    0.0000 H   0  0  0  0  0  0  0  0  0  0  0  0
    5.7196    3.8923    0.0000 H   0  0  0  0  0  0  0  0  0  0  0  0
    4.3860    1.5826    0.0000 H   0  0  0  0  0  0  0  0  0  0  0  0
    3.9875    0.8923    0.0000 H   0  0  0  0  0  0  0  0  0  0  0  0
    6.0010    1.1900    0.0000 H   0  0  0  0  0  0  0  0  0  0  0  0
    7.5062    3.9631    0.0000 H   0  0  0  0  0  0  0  0  0  0  0  0
    7.7331    4.8100    0.0000 H   0  0  0  0  0  0  0  0  0  0  0  0
    6.8862    5.0369    0.0000 H   0  0  0  0  0  0  0  0  0  0  0  0
    3.1951   -0.1900    0.0000 H   0  0  0  0  0  0  0  0  0  0  0  0
    2.3291   -1.6900    0.0000 H   0  0  0  0  0  0  0  0  0  0  0  0
    5.1350   -1.6900    0.0000 H   0  0  0  0  0  0  0  0  0  0  0  0
    5.1350   -3.3100    0.0000 H   0  0  0  0  0  0  0  0  0  0  0  0
    3.7320   -4.1200    0.0000 H   0  0  0  0  0  0  0  0  0  0  0  0
    1.3800   -4.5000    0.0000 H   0  0  0  0  0  0  0  0  0  0  0  0
    2.0000   -5.1200    0.0000 H   0  0  0  0  0  0  0  0  0  0  0  0
    2.6200   -4.5000    0.0000 H   0  0  0  0  0  0  0  0  0  0  0  0
  1 15  1  0  0  0  0
  1 18  1  0  0  0  0
  2  9  2  0  0  0  0
  3 12  2  0  0  0  0
  4  8  1  0  0  0  0
  4  9  1  0  0  0  0
  4 25  1  0  0  0  0
  5 10  1  0  0  0  0
  5 12  1  0  0  0  0
  5 29  1  0  0  0  0
  6  7  1  0  0  0  0
  6  9  1  0  0  0  0
  6 19  1  0  0  0  0
  6 20  1  0  0  0  0
  7 11  1  0  0  0  0
  7 21  1  0  0  0  0
  7 22  1  0  0  0  0
  8 12  1  0  0  0  0
  8 23  1  0  0  0  0
  8 24  1  0  0  0  0
 10 13  2  0  0  0  0
 10 14  1  0  0  0  0
 11 26  1  0  0  0  0
 11 27  1  0  0  0  0
 11 28  1  0  0  0  0
 13 15  1  0  0  0  0
 13 30  1  0  0  0  0
 14 16  2  0  0  0  0
 14 31  1  0  0  0  0
 15 17  2  0  0  0  0
 16 17  1  0  0  0  0
 16 32  1  0  0  0  0
 17 33  1  0  0  0  0
 18 34  1  0  0  0  0
 18 35  1  0  0  0  0
 18 36  1  0  0  0  0
M  END
> <PUBCHEM_COMPOUND_CID>
47205699

> <PUBCHEM_COMPOUND_CANONICALIZED>
1

> <PUBCHEM_CACTVS_COMPLEXITY>
284

> <PUBCHEM_CACTVS_HBOND_ACCEPTOR>
3

> <PUBCHEM_CACTVS_HBOND_DONOR>
2

> <PUBCHEM_CACTVS_ROTATABLE_BOND>
6

> <PUBCHEM_CACTVS_SUBSKEYS>
AAADceBzMABAAAAAAAAAAAAAAAAAAAAAAAAwAAAAAAAAAAABAAAAHgQQAAAACAjB0ASywYLAAAiIACVSUACCAAAhChAIiJmIZIgIYDLgkbGUIAxglgDIyAcQAAAAAAAAACAAAAAAAAAAQAAAAAAAAAAAAA==

> <PUBCHEM_IUPAC_OPENEYE_NAME>
N-[2-(3-methylsulfanylanilino)-2-oxo-ethyl]butanamide

> <PUBCHEM_IUPAC_CAS_NAME>
N-[2-[3-(methylthio)anilino]-2-oxoethyl]butanamide

> <PUBCHEM_IUPAC_NAME>
N-[2-(3-methylsulfanylanilino)-2-oxoethyl]butanamide

> <PUBCHEM_IUPAC_SYSTEMATIC_NAME>
N-[2-[(3-methylsulfanylphenyl)amino]-2-oxidanylidene-ethyl]butanamide

> <PUBCHEM_IUPAC_TRADITIONAL_NAME>
N-[2-keto-2-[3-(methylthio)anilino]ethyl]butyramide

> <PUBCHEM_IUPAC_INCHI>
InChI=1S/C13H18N2O2S/c1-3-5-12(16)14-9-13(17)15-10-6-4-7-11(8-10)18-2/h4,6-8H,3,5,9H2,1-2H3,(H,14,16)(H,15,17)

> <PUBCHEM_IUPAC_INCHIKEY>
SHUGLQDKXAAVSB-UHFFFAOYSA-N

> <PUBCHEM_XLOGP3_AA>
1.8

> <PUBCHEM_EXACT_MASS>
266.108899

> <PUBCHEM_MOLECULAR_FORMULA>
C13H18N2O2S

> <PUBCHEM_MOLECULAR_WEIGHT>
266.35922

> <PUBCHEM_OPENEYE_CAN_SMILES>
CCCC(=O)NCC(=O)NC1=CC(=CC=C1)SC

> <PUBCHEM_OPENEYE_ISO_SMILES>
CCCC(=O)NCC(=O)NC1=CC(=CC=C1)SC

> <PUBCHEM_CACTVS_TPSA>
83.5

> <PUBCHEM_MONOISOTOPIC_WEIGHT>
266.108899

> <PUBCHEM_TOTAL_CHARGE>
0

> <PUBCHEM_HEAVY_ATOM_COUNT>
18

> <PUBCHEM_ATOM_DEF_STEREO_COUNT>
0

> <PUBCHEM_ATOM_UDEF_STEREO_COUNT>
0

> <PUBCHEM_BOND_DEF_STEREO_COUNT>
0

> <PUBCHEM_BOND_UDEF_STEREO_COUNT>
0

> <PUBCHEM_ISOTOPIC_ATOM_COUNT>
0

> <PUBCHEM_COMPONENT_COUNT>
1

> <PUBCHEM_CACTVS_TAUTO_COUNT>
6

> <PUBCHEM_COORDINATE_TYPE>
1
5
255

> <PUBCHEM_BONDANNOTATIONS>
10  13  8
10  14  8
13  15  8
14  16  8
15  17  8
16  17  8

$$$$

