439616
  -OEChem-07051212463D

 19 19  0     1  0  0  0  0  0999 V2000
    1.4433    1.6936   -0.8693 O   0  0  0  0  0  0  0  0  0  0  0  0
    1.9433   -1.1813    1.2668 O   0  0  0  0  0  0  0  0  0  0  0  0
    3.0155   -0.4886   -0.6057 O   0  0  0  0  0  0  0  0  0  0  0  0
   -0.2896    0.3497    0.0803 C   0  0  0  0  0  0  0  0  0  0  0  0
    1.1216    0.8154    0.2064 C   0  0  1  0  0  0  0  0  0  0  0  0
   -1.3237    1.0970    0.6444 C   0  0  0  0  0  0  0  0  0  0  0  0
   -0.5757   -0.8329   -0.6020 C   0  0  0  0  0  0  0  0  0  0  0  0
   -2.6436    0.6618    0.5264 C   0  0  0  0  0  0  0  0  0  0  0  0
   -1.8958   -1.2680   -0.7201 C   0  0  0  0  0  0  0  0  0  0  0  0
   -2.9296   -0.5207   -0.1558 C   0  0  0  0  0  0  0  0  0  0  0  0
    2.1342   -0.3261    0.2284 C   0  0  0  0  0  0  0  0  0  0  0  0
    1.2692    1.3784    1.1356 H   0  0  0  0  0  0  0  0  0  0  0  0
   -1.1138    2.0209    1.1768 H   0  0  0  0  0  0  0  0  0  0  0  0
    0.2033   -1.4281   -1.0697 H   0  0  0  0  0  0  0  0  0  0  0  0
   -3.4488    1.2440    0.9650 H   0  0  0  0  0  0  0  0  0  0  0  0
   -2.1194   -2.1863   -1.2551 H   0  0  0  0  0  0  0  0  0  0  0  0
   -3.9575   -0.8589   -0.2489 H   0  0  0  0  0  0  0  0  0  0  0  0
    1.1687    1.2712   -1.7013 H   0  0  0  0  0  0  0  0  0  0  0  0
    2.5919   -1.9171    1.2580 H   0  0  0  0  0  0  0  0  0  0  0  0
  1  5  1  0  0  0  0
  1 18  1  0  0  0  0
  2 11  1  0  0  0  0
  2 19  1  0  0  0  0
  3 11  2  0  0  0  0
  4  5  1  0  0  0  0
  4  6  2  0  0  0  0
  4  7  1  0  0  0  0
  5 11  1  0  0  0  0
  5 12  1  0  0  0  0
  6  8  1  0  0  0  0
  6 13  1  0  0  0  0
  7  9  2  0  0  0  0
  7 14  1  0  0  0  0
  8 10  2  0  0  0  0
  8 15  1  0  0  0  0
  9 10  1  0  0  0  0
  9 16  1  0  0  0  0
 10 17  1  0  0  0  0
M  END
> <PUBCHEM_COMPOUND_CID>
439616

> <PUBCHEM_CONFORMER_RMSD>
0.4

> <PUBCHEM_CONFORMER_DIVERSEORDER>
1
6
8
9
4
3
2
5
7

> <PUBCHEM_MMFF94_PARTIAL_CHARGES>
18
1 -0.68
10 -0.15
11 0.66
13 0.15
14 0.15
15 0.15
16 0.15
17 0.15
18 0.4
19 0.5
2 -0.65
3 -0.57
4 -0.14
5 0.48
6 -0.15
7 -0.15
8 -0.15
9 -0.15

> <PUBCHEM_EFFECTIVE_ROTOR_COUNT>
2

> <PUBCHEM_PHARMACOPHORE_FEATURES>
6
1 1 acceptor
1 1 donor
1 2 acceptor
1 3 acceptor
3 2 3 11 anion
6 4 6 7 8 9 10 rings

> <PUBCHEM_HEAVY_ATOM_COUNT>
11

> <PUBCHEM_ATOM_DEF_STEREO_COUNT>
1

> <PUBCHEM_ATOM_UDEF_STEREO_COUNT>
0

> <PUBCHEM_BOND_DEF_STEREO_COUNT>
0

> <PUBCHEM_BOND_UDEF_STEREO_COUNT>
0

> <PUBCHEM_ISOTOPIC_ATOM_COUNT>
0

> <PUBCHEM_COMPONENT_COUNT>
1

> <PUBCHEM_CACTVS_TAUTO_COUNT>
1

> <PUBCHEM_CONFORMER_ID>
0006B54000000001

> <PUBCHEM_MMFF94_ENERGY>
22.5124

> <PUBCHEM_FEATURE_SELFOVERLAP>
30.512

> <PUBCHEM_SHAPE_FINGERPRINT>
10857977 72 17385732365624638123
12326174 3 17131006286309468544
12932764 1 18273217508110678461
14128692 85 18335701611392519324
14993402 34 18410853299780750181
15310529 11 17489308624150419871
16945 1 18188497985453958035
20645464 45 16660658357293415354
20653085 51 17774736315647000525
20653091 64 18341337682337380800
207724 885 18339355370030424591
20871998 184 17458627753158178455
21040471 1 17895183459146084937
23552423 10 18268714922090159231
29004967 10 17275106136798374544
369184 2 15068630387333487763
5084963 1 18408604764379664489
7364860 26 17969222235651170400

> <PUBCHEM_SHAPE_MULTIPOLES>
208.77
4.29
1.42
0.94
0.33
0.11
0.09
-0.68
0.09
-0.16
-0.13
0.35
-0.03
-0.63

> <PUBCHEM_SHAPE_SELFOVERLAP>
434.145

> <PUBCHEM_SHAPE_VOLUME>
118.6

> <PUBCHEM_COORDINATE_TYPE>
2
5
10

$$$$

