7816
  -OEChem-06261202213D

 22 22  0     1  0  0  0  0  0999 V2000
    0.6136   -1.2107   -0.0813 N   0  0  0  0  0  0  0  0  0  0  0  0
   -0.8173    1.2157    0.5943 N   0  0  0  0  0  0  0  0  0  0  0  0
    1.3398    0.0142    0.2715 C   0  0  2  0  0  0  0  0  0  0  0  0
   -1.5434   -0.0287    0.2961 C   0  0  2  0  0  0  0  0  0  0  0  0
   -0.6783   -1.2602    0.6036 C   0  0  0  0  0  0  0  0  0  0  0  0
    0.4970    1.2549   -0.0556 C   0  0  0  0  0  0  0  0  0  0  0  0
    2.6641    0.0476   -0.4883 C   0  0  0  0  0  0  0  0  0  0  0  0
   -2.0756   -0.0327   -1.1404 C   0  0  0  0  0  0  0  0  0  0  0  0
    1.5656    0.0018    1.3463 H   0  0  0  0  0  0  0  0  0  0  0  0
   -2.4183   -0.0585    0.9576 H   0  0  0  0  0  0  0  0  0  0  0  0
   -0.5156   -1.3408    1.6862 H   0  0  0  0  0  0  0  0  0  0  0  0
   -1.2066   -2.1702    0.2970 H   0  0  0  0  0  0  0  0  0  0  0  0
    1.0215    2.1548    0.2873 H   0  0  0  0  0  0  0  0  0  0  0  0
    0.3738    1.3730   -1.1390 H   0  0  0  0  0  0  0  0  0  0  0  0
    1.1678   -2.0266    0.1770 H   0  0  0  0  0  0  0  0  0  0  0  0
   -0.6732    1.2662    1.6038 H   0  0  0  0  0  0  0  0  0  0  0  0
    3.2332    0.9477   -0.2320 H   0  0  0  0  0  0  0  0  0  0  0  0
    3.2841   -0.8199   -0.2361 H   0  0  0  0  0  0  0  0  0  0  0  0
    2.5064    0.0467   -1.5728 H   0  0  0  0  0  0  0  0  0  0  0  0
   -1.2762   -0.0588   -1.8876 H   0  0  0  0  0  0  0  0  0  0  0  0
   -2.7100   -0.9103   -1.3067 H   0  0  0  0  0  0  0  0  0  0  0  0
   -2.6875    0.8560   -1.3304 H   0  0  0  0  0  0  0  0  0  0  0  0
  1  3  1  0  0  0  0
  1  5  1  0  0  0  0
  1 15  1  0  0  0  0
  2  4  1  0  0  0  0
  2  6  1  0  0  0  0
  2 16  1  0  0  0  0
  3  6  1  0  0  0  0
  3  7  1  0  0  0  0
  3  9  1  0  0  0  0
  4  5  1  0  0  0  0
  4  8  1  0  0  0  0
  4 10  1  0  0  0  0
  5 11  1  0  0  0  0
  5 12  1  0  0  0  0
  6 13  1  0  0  0  0
  6 14  1  0  0  0  0
  7 17  1  0  0  0  0
  7 18  1  0  0  0  0
  7 19  1  0  0  0  0
  8 20  1  0  0  0  0
  8 21  1  0  0  0  0
  8 22  1  0  0  0  0
M  END
> <PUBCHEM_COMPOUND_CID>
7816

> <PUBCHEM_CONFORMER_RMSD>
0.4

> <PUBCHEM_CONFORMER_DIVERSEORDER>
2
5
1
4
3

> <PUBCHEM_MMFF94_PARTIAL_CHARGES>
8
1 -0.9
15 0.36
16 0.36
2 -0.9
3 0.27
4 0.27
5 0.27
6 0.27

> <PUBCHEM_EFFECTIVE_ROTOR_COUNT>
1.2

> <PUBCHEM_PHARMACOPHORE_FEATURES>
5
1 1 cation
1 1 donor
1 2 cation
1 2 donor
6 1 2 3 4 5 6 rings

> <PUBCHEM_HEAVY_ATOM_COUNT>
8

> <PUBCHEM_ATOM_DEF_STEREO_COUNT>
0

> <PUBCHEM_ATOM_UDEF_STEREO_COUNT>
2

> <PUBCHEM_BOND_DEF_STEREO_COUNT>
0

> <PUBCHEM_BOND_UDEF_STEREO_COUNT>
0

> <PUBCHEM_ISOTOPIC_ATOM_COUNT>
0

> <PUBCHEM_COMPONENT_COUNT>
1

> <PUBCHEM_CACTVS_TAUTO_COUNT>
1

> <PUBCHEM_CONFORMER_ID>
00001E8800000002

> <PUBCHEM_MMFF94_ENERGY>
2.4581

> <PUBCHEM_FEATURE_SELFOVERLAP>
25.376

> <PUBCHEM_SHAPE_FINGERPRINT>
12423570 1 17120577207960912689
15310529 11 16558750092044966992
16714656 1 18411127035484823536
18185500 45 18264215892302716851
20653085 51 16702014309808166724
21040471 1 18340767134465506576
21293036 1 18341335496003848478
23235685 24 18413102874833108865
23552423 10 18198050581305277086
24536 1 18410288086458684976
29004967 10 18187360995762287074
5084963 1 17774715359931629762

> <PUBCHEM_SHAPE_MULTIPOLES>
154.67
2.87
1.31
0.9
1.04
0.03
0.15
-0.03
0.87
-0.08
-0.2
-0.32
-0.02
0.05

> <PUBCHEM_SHAPE_SELFOVERLAP>
292.292

> <PUBCHEM_SHAPE_VOLUME>
93.9

> <PUBCHEM_COORDINATE_TYPE>
2
5
10

$$$$

