21826
  -OEChem-07051212542D

 79 83  0     1  0  0  0  0  0999 V2000
    5.9499    1.6551    0.0000 F   0  0  0  0  0  0  0  0  0  0  0  0
    9.0594   -1.0583    0.0000 O   0  0  0  0  0  0  0  0  0  0  0  0
    8.4073   -2.5194    0.0000 O   0  0  0  0  0  0  0  0  0  0  0  0
    6.4739    2.2154    0.0000 O   0  0  0  0  0  0  0  0  0  0  0  0
    8.7828    0.6301    0.0000 O   0  0  0  0  0  0  0  0  0  0  0  0
   10.6092   -0.1850    0.0000 O   0  0  0  0  0  0  0  0  0  0  0  0
    2.0000    2.8598    0.0000 O   0  0  0  0  0  0  0  0  0  0  0  0
   11.6261   -1.5871    0.0000 O   0  0  0  0  0  0  0  0  0  0  0  0
    7.3399   -0.2845    0.0000 C   0  0  1  0  0  0  0  0  0  0  0  0
    6.4739   -0.7845    0.0000 C   0  0  2  0  0  0  0  0  0  0  0  0
    5.6079   -0.2845    0.0000 C   0  0  1  0  0  0  0  0  0  0  0  0
    8.0770   -0.9516    0.0000 C   0  0  1  0  0  0  0  0  0  0  0  0
    5.6079    0.7155    0.0000 C   0  0  1  0  0  0  0  0  0  0  0  0
    7.6718   -1.8594    0.0000 C   0  0  1  0  0  0  0  0  0  0  0  0
    6.6831   -1.7564    0.0000 C   0  0  0  0  0  0  0  0  0  0  0  0
    7.3399    0.7155    0.0000 C   0  0  0  0  0  0  0  0  0  0  0  0
    6.4739    1.2154    0.0000 C   0  0  2  0  0  0  0  0  0  0  0  0
    4.7140    1.2501    0.0000 C   0  0  1  0  0  0  0  0  0  0  0  0
    4.7140   -0.8192    0.0000 C   0  0  0  0  0  0  0  0  0  0  0  0
    8.2060    0.2155    0.0000 C   0  0  0  0  0  0  0  0  0  0  0  0
    8.8865   -0.3645    0.0000 C   0  0  0  0  0  0  0  0  0  0  0  0
    3.8079   -0.3054    0.0000 C   0  0  0  0  0  0  0  0  0  0  0  0
    9.2632   -2.0253    0.0000 C   0  0  0  0  0  0  0  0  0  0  0  0
    3.8079    0.7363    0.0000 C   0  0  0  0  0  0  0  0  0  0  0  0
    5.3626    2.0112    0.0000 C   0  0  0  0  0  0  0  0  0  0  0  0
    4.7390    2.3348    0.0000 C   0  0  0  0  0  0  0  0  0  0  0  0
    9.7997   -0.7721    0.0000 C   0  0  0  0  0  0  0  0  0  0  0  0
    9.7624   -2.8917    0.0000 C   0  0  0  0  0  0  0  0  0  0  0  0
   10.2415   -1.8182    0.0000 C   0  0  0  0  0  0  0  0  0  0  0  0
    2.8641    1.2715    0.0000 C   0  0  0  0  0  0  0  0  0  0  0  0
    3.8079    2.8917    0.0000 C   0  0  0  0  0  0  0  0  0  0  0  0
    2.8641    2.3565    0.0000 C   0  0  0  0  0  0  0  0  0  0  0  0
   11.5224   -0.5925    0.0000 C   0  0  0  0  0  0  0  0  0  0  0  0
   12.3319   -0.0054    0.0000 C   0  0  0  0  0  0  0  0  0  0  0  0
   13.2451   -0.4130    0.0000 C   0  0  0  0  0  0  0  0  0  0  0  0
   14.1583   -0.8205    0.0000 C   0  0  0  0  0  0  0  0  0  0  0  0
   13.6526    0.5002    0.0000 C   0  0  0  0  0  0  0  0  0  0  0  0
   12.8376   -1.3262    0.0000 C   0  0  0  0  0  0  0  0  0  0  0  0
    5.7869   -1.2851    0.0000 H   0  0  0  0  0  0  0  0  0  0  0  0
    5.6144   -1.1345    0.0000 H   0  0  0  0  0  0  0  0  0  0  0  0
    7.3271   -2.6364    0.0000 H   0  0  0  0  0  0  0  0  0  0  0  0
    6.0666   -1.8224    0.0000 H   0  0  0  0  0  0  0  0  0  0  0  0
    6.6840   -2.3764    0.0000 H   0  0  0  0  0  0  0  0  0  0  0  0
    7.9505    0.6078    0.0000 H   0  0  0  0  0  0  0  0  0  0  0  0
    7.5520    1.2981    0.0000 H   0  0  0  0  0  0  0  0  0  0  0  0
    7.0108    1.5254    0.0000 H   0  0  0  0  0  0  0  0  0  0  0  0
    4.3203   -1.2982    0.0000 H   0  0  0  0  0  0  0  0  0  0  0  0
    5.1185   -1.2890    0.0000 H   0  0  0  0  0  0  0  0  0  0  0  0
    8.5160   -0.3215    0.0000 H   0  0  0  0  0  0  0  0  0  0  0  0
    8.7429    0.5255    0.0000 H   0  0  0  0  0  0  0  0  0  0  0  0
    7.8960    0.7524    0.0000 H   0  0  0  0  0  0  0  0  0  0  0  0
    3.1970   -0.1993    0.0000 H   0  0  0  0  0  0  0  0  0  0  0  0
    3.5988   -0.8891    0.0000 H   0  0  0  0  0  0  0  0  0  0  0  0
    5.8345    1.6090    0.0000 H   0  0  0  0  0  0  0  0  0  0  0  0
    5.7648    2.4830    0.0000 H   0  0  0  0  0  0  0  0  0  0  0  0
    4.8908    2.4134    0.0000 H   0  0  0  0  0  0  0  0  0  0  0  0
    5.2819    2.6344    0.0000 H   0  0  0  0  0  0  0  0  0  0  0  0
    7.0108    2.5255    0.0000 H   0  0  0  0  0  0  0  0  0  0  0  0
    9.4525   -1.2858    0.0000 H   0  0  0  0  0  0  0  0  0  0  0  0
   10.2453   -1.2032    0.0000 H   0  0  0  0  0  0  0  0  0  0  0  0
   10.3699   -2.4248    0.0000 H   0  0  0  0  0  0  0  0  0  0  0  0
   10.8480   -1.6898    0.0000 H   0  0  0  0  0  0  0  0  0  0  0  0
   10.1131   -1.2116    0.0000 H   0  0  0  0  0  0  0  0  0  0  0  0
    9.2252   -3.2013    0.0000 H   0  0  0  0  0  0  0  0  0  0  0  0
   10.0719   -3.4289    0.0000 H   0  0  0  0  0  0  0  0  0  0  0  0
   10.2996   -2.5822    0.0000 H   0  0  0  0  0  0  0  0  0  0  0  0
    2.3284    0.9594    0.0000 H   0  0  0  0  0  0  0  0  0  0  0  0
    3.8150    3.5117    0.0000 H   0  0  0  0  0  0  0  0  0  0  0  0
   12.6791    0.5083    0.0000 H   0  0  0  0  0  0  0  0  0  0  0  0
   11.8863    0.4256    0.0000 H   0  0  0  0  0  0  0  0  0  0  0  0
   14.2188    0.2476    0.0000 H   0  0  0  0  0  0  0  0  0  0  0  0
   13.9053    1.0664    0.0000 H   0  0  0  0  0  0  0  0  0  0  0  0
   13.9056   -1.3867    0.0000 H   0  0  0  0  0  0  0  0  0  0  0  0
   14.7245   -1.0732    0.0000 H   0  0  0  0  0  0  0  0  0  0  0  0
   14.4110   -0.2543    0.0000 H   0  0  0  0  0  0  0  0  0  0  0  0
   13.0865    0.7529    0.0000 H   0  0  0  0  0  0  0  0  0  0  0  0
   12.2714   -1.0735    0.0000 H   0  0  0  0  0  0  0  0  0  0  0  0
   12.5849   -1.8923    0.0000 H   0  0  0  0  0  0  0  0  0  0  0  0
   13.4038   -1.5788    0.0000 H   0  0  0  0  0  0  0  0  0  0  0  0
 13  1  1  6  0  0  0
  2 12  1  0  0  0  0
  2 23  1  0  0  0  0
  3 14  1  0  0  0  0
  3 23  1  0  0  0  0
 17  4  1  1  0  0  0
  4 58  1  0  0  0  0
  5 21  2  0  0  0  0
  6 27  1  0  0  0  0
  6 33  1  0  0  0  0
  7 32  2  0  0  0  0
  8 33  2  0  0  0  0
  9 10  1  0  0  0  0
  9 12  1  0  0  0  0
  9 16  1  0  0  0  0
  9 20  1  1  0  0  0
 10 11  1  0  0  0  0
 10 15  1  0  0  0  0
 10 39  1  6  0  0  0
 11 13  1  0  0  0  0
 11 19  1  0  0  0  0
 11 40  1  1  0  0  0
 12 14  1  0  0  0  0
 12 21  1  1  0  0  0
 13 17  1  0  0  0  0
 13 18  1  0  0  0  0
 14 15  1  0  0  0  0
 14 41  1  1  0  0  0
 15 42  1  0  0  0  0
 15 43  1  0  0  0  0
 16 17  1  0  0  0  0
 16 44  1  0  0  0  0
 16 45  1  0  0  0  0
 17 46  1  0  0  0  0
 18 24  1  0  0  0  0
 18 25  1  1  0  0  0
 18 26  1  0  0  0  0
 19 22  1  0  0  0  0
 19 47  1  0  0  0  0
 19 48  1  0  0  0  0
 20 49  1  0  0  0  0
 20 50  1  0  0  0  0
 20 51  1  0  0  0  0
 21 27  1  0  0  0  0
 22 24  1  0  0  0  0
 22 52  1  0  0  0  0
 22 53  1  0  0  0  0
 23 28  1  0  0  0  0
 23 29  1  0  0  0  0
 24 30  2  0  0  0  0
 25 54  1  0  0  0  0
 25 55  1  0  0  0  0
 25 56  1  0  0  0  0
 26 31  2  0  0  0  0
 26 57  1  0  0  0  0
 27 59  1  0  0  0  0
 27 60  1  0  0  0  0
 28 64  1  0  0  0  0
 28 65  1  0  0  0  0
 28 66  1  0  0  0  0
 29 61  1  0  0  0  0
 29 62  1  0  0  0  0
 29 63  1  0  0  0  0
 30 32  1  0  0  0  0
 30 67  1  0  0  0  0
 31 32  1  0  0  0  0
 31 68  1  0  0  0  0
 33 34  1  0  0  0  0
 34 35  1  0  0  0  0
 34 69  1  0  0  0  0
 34 70  1  0  0  0  0
 35 36  1  0  0  0  0
 35 37  1  0  0  0  0
 35 38  1  0  0  0  0
 36 73  1  0  0  0  0
 36 74  1  0  0  0  0
 36 75  1  0  0  0  0
 37 71  1  0  0  0  0
 37 72  1  0  0  0  0
 37 76  1  0  0  0  0
 38 77  1  0  0  0  0
 38 78  1  0  0  0  0
 38 79  1  0  0  0  0
M  END
> <PUBCHEM_COMPOUND_CID>
21826

> <PUBCHEM_COMPOUND_CANONICALIZED>
1

> <PUBCHEM_CACTVS_COMPLEXITY>
1130

> <PUBCHEM_CACTVS_HBOND_ACCEPTOR>
8

> <PUBCHEM_CACTVS_HBOND_DONOR>
1

> <PUBCHEM_CACTVS_ROTATABLE_BOND>
6

> <PUBCHEM_CACTVS_SUBSKEYS>
AAADcfB4OQAAAAAAAAAAAAAAAAAAAaIAAAAwYIAAAAASAGDAAAAAGwAACAAAD1SggAICCAAABgCIAqDSCAIAAAAgAAAICAFAAEgREBYAAQQiQAAFoAAOAYPI7PzPgAAAAAAAAADAAAYAADAAAYAADCAAAA==

> <PUBCHEM_IUPAC_INCHI>
InChI=1S/C30H41FO7/c1-25(2,3)15-24(35)36-16-22(34)30-23(37-26(4,5)38-30)13-20-19-9-8-17-12-18(32)10-11-27(17,6)29(19,31)21(33)14-28(20,30)7/h10-12,19-21,23,33H,8-9,13-16H2,1-7H3/t19-,20-,21-,23+,27-,28-,29-,30+/m0/s1

> <PUBCHEM_IUPAC_INCHIKEY>
TZIZWYVVGLXXFV-FLRHRWPCSA-N

> <PUBCHEM_XLOGP3>
4.8

> <PUBCHEM_EXACT_MASS>
532.283632

> <PUBCHEM_MOLECULAR_FORMULA>
C30H41FO7

> <PUBCHEM_MOLECULAR_WEIGHT>
532.640743

> <PUBCHEM_OPENEYE_CAN_SMILES>
CC1(OC2CC3C4CCC5=CC(=O)C=CC5(C4(C(CC3(C2(O1)C(=O)COC(=O)CC(C)(C)C)C)O)F)C)C

> <PUBCHEM_OPENEYE_ISO_SMILES>
C[C@]12C[C@@H]([C@]3([C@H]([C@@H]1C[C@@H]4[C@]2(OC(O4)(C)C)C(=O)COC(=O)CC(C)(C)C)CCC5=CC(=O)C=C[C@@]53C)F)O

> <PUBCHEM_CACTVS_TPSA>
99.1

> <PUBCHEM_MONOISOTOPIC_WEIGHT>
532.283632

> <PUBCHEM_TOTAL_CHARGE>
0

> <PUBCHEM_HEAVY_ATOM_COUNT>
38

> <PUBCHEM_ATOM_DEF_STEREO_COUNT>
8

> <PUBCHEM_ATOM_UDEF_STEREO_COUNT>
0

> <PUBCHEM_BOND_DEF_STEREO_COUNT>
0

> <PUBCHEM_BOND_UDEF_STEREO_COUNT>
0

> <PUBCHEM_ISOTOPIC_ATOM_COUNT>
0

> <PUBCHEM_COMPONENT_COUNT>
1

> <PUBCHEM_CACTVS_TAUTO_COUNT>
6

> <PUBCHEM_COORDINATE_TYPE>
1
5
255

> <PUBCHEM_BONDANNOTATIONS>
13  1  6
10  39  6
11  40  5
12  21  5
14  41  5
18  25  5
17  4  5
9  20  5

$$$$

