17395831
  -OEChem-06241222523D

 50 52  0     1  0  0  0  0  0999 V2000
    1.5027   -2.5897   -1.0340 O   0  0  0  0  0  0  0  0  0  0  0  0
   -3.4048    0.5449    2.2479 O   0  0  0  0  0  0  0  0  0  0  0  0
    3.3645   -1.0793    0.2762 N   0  0  2  0  0  0  0  0  0  0  0  0
   -4.4113    0.6298    0.1827 N   0  0  0  0  0  0  0  0  0  0  0  0
   -2.5251   -1.8067   -0.1009 N   0  0  0  0  0  0  0  0  0  0  0  0
    4.4135   -0.0624    0.2324 C   0  0  0  0  0  0  0  0  0  0  0  0
    3.9499    1.1966    0.9732 C   0  0  0  0  0  0  0  0  0  0  0  0
    4.7721    0.2535   -1.2238 C   0  0  0  0  0  0  0  0  0  0  0  0
    4.9917    2.3103    0.8833 C   0  0  0  0  0  0  0  0  0  0  0  0
    5.8125    1.3689   -1.3114 C   0  0  0  0  0  0  0  0  0  0  0  0
    5.3601    2.6205   -0.5648 C   0  0  0  0  0  0  0  0  0  0  0  0
    2.0625   -0.4849   -0.0259 C   0  0  0  0  0  0  0  0  0  0  0  0
    3.3369   -1.7303    1.5857 C   0  0  0  0  0  0  0  0  0  0  0  0
   -5.5220    1.3474   -1.7689 C   0  0  0  0  0  0  0  0  0  0  0  0
   -6.4301    1.5871   -0.5699 C   0  0  0  0  0  0  0  0  0  0  0  0
   -4.5312    0.3190   -1.2412 C   0  0  0  0  0  0  0  0  0  0  0  0
   -5.4591    1.5520    0.6000 C   0  0  0  0  0  0  0  0  0  0  0  0
    1.0956   -1.5781   -0.4609 C   0  0  0  0  0  0  0  0  0  0  0  0
   -3.4055    0.2213    1.0589 C   0  0  0  0  0  0  0  0  0  0  0  0
   -0.3425   -1.4035   -0.1813 C   0  0  0  0  0  0  0  0  0  0  0  0
   -2.3288   -0.5902    0.4991 C   0  0  0  0  0  0  0  0  0  0  0  0
   -0.9798   -0.3146    0.4630 C   0  0  0  0  0  0  0  0  0  0  0  0
   -1.3216   -2.3115   -0.5194 C   0  0  0  0  0  0  0  0  0  0  0  0
    5.3269   -0.4457    0.7083 H   0  0  0  0  0  0  0  0  0  0  0  0
    3.7623    0.9934    2.0334 H   0  0  0  0  0  0  0  0  0  0  0  0
    3.0338    1.6311    0.5583 H   0  0  0  0  0  0  0  0  0  0  0  0
    3.8993    0.5649   -1.8079 H   0  0  0  0  0  0  0  0  0  0  0  0
    5.1686   -0.6449   -1.7135 H   0  0  0  0  0  0  0  0  0  0  0  0
    4.6092    3.2159    1.3681 H   0  0  0  0  0  0  0  0  0  0  0  0
    5.8929    2.0114    1.4330 H   0  0  0  0  0  0  0  0  0  0  0  0
    6.7618    1.0160   -0.8899 H   0  0  0  0  0  0  0  0  0  0  0  0
    6.0028    1.6145   -2.3623 H   0  0  0  0  0  0  0  0  0  0  0  0
    4.4931    3.0564   -1.0763 H   0  0  0  0  0  0  0  0  0  0  0  0
    6.1567    3.3726   -0.5895 H   0  0  0  0  0  0  0  0  0  0  0  0
    1.6495    0.0271    0.8494 H   0  0  0  0  0  0  0  0  0  0  0  0
    2.0770    0.2131   -0.8697 H   0  0  0  0  0  0  0  0  0  0  0  0
   -6.0623    0.9971   -2.6525 H   0  0  0  0  0  0  0  0  0  0  0  0
   -4.9988    2.2754   -2.0292 H   0  0  0  0  0  0  0  0  0  0  0  0
   -6.9823    2.5286   -0.6317 H   0  0  0  0  0  0  0  0  0  0  0  0
   -7.1539    0.7677   -0.4832 H   0  0  0  0  0  0  0  0  0  0  0  0
    4.3120   -2.1748    1.8165 H   0  0  0  0  0  0  0  0  0  0  0  0
    3.0653   -1.0580    2.4063 H   0  0  0  0  0  0  0  0  0  0  0  0
    2.6224   -2.5613    1.5904 H   0  0  0  0  0  0  0  0  0  0  0  0
   -3.5636    0.3750   -1.7471 H   0  0  0  0  0  0  0  0  0  0  0  0
   -4.9318   -0.6964   -1.3298 H   0  0  0  0  0  0  0  0  0  0  0  0
   -5.9223    1.2153    1.5323 H   0  0  0  0  0  0  0  0  0  0  0  0
   -4.9960    2.5305    0.7690 H   0  0  0  0  0  0  0  0  0  0  0  0
   -0.5231    0.5825    0.8580 H   0  0  0  0  0  0  0  0  0  0  0  0
   -1.2755   -3.2701   -1.0177 H   0  0  0  0  0  0  0  0  0  0  0  0
   -3.4179   -2.2672   -0.2130 H   0  0  0  0  0  0  0  0  0  0  0  0
  1 18  2  0  0  0  0
  2 19  2  0  0  0  0
  3  6  1  0  0  0  0
  3 12  1  0  0  0  0
  3 13  1  0  0  0  0
  4 16  1  0  0  0  0
  4 17  1  0  0  0  0
  4 19  1  0  0  0  0
  5 21  1  0  0  0  0
  5 23  1  0  0  0  0
  5 50  1  0  0  0  0
  6  7  1  0  0  0  0
  6  8  1  0  0  0  0
  6 24  1  0  0  0  0
  7  9  1  0  0  0  0
  7 25  1  0  0  0  0
  7 26  1  0  0  0  0
  8 10  1  0  0  0  0
  8 27  1  0  0  0  0
  8 28  1  0  0  0  0
  9 11  1  0  0  0  0
  9 29  1  0  0  0  0
  9 30  1  0  0  0  0
 10 11  1  0  0  0  0
 10 31  1  0  0  0  0
 10 32  1  0  0  0  0
 11 33  1  0  0  0  0
 11 34  1  0  0  0  0
 12 18  1  0  0  0  0
 12 35  1  0  0  0  0
 12 36  1  0  0  0  0
 13 41  1  0  0  0  0
 13 42  1  0  0  0  0
 13 43  1  0  0  0  0
 14 15  1  0  0  0  0
 14 16  1  0  0  0  0
 14 37  1  0  0  0  0
 14 38  1  0  0  0  0
 15 17  1  0  0  0  0
 15 39  1  0  0  0  0
 15 40  1  0  0  0  0
 16 44  1  0  0  0  0
 16 45  1  0  0  0  0
 17 46  1  0  0  0  0
 17 47  1  0  0  0  0
 18 20  1  0  0  0  0
 19 21  1  0  0  0  0
 20 22  1  0  0  0  0
 20 23  2  0  0  0  0
 21 22  2  0  0  0  0
 22 48  1  0  0  0  0
 23 49  1  0  0  0  0
M  END
> <PUBCHEM_COMPOUND_CID>
17395831

> <PUBCHEM_CONFORMER_RMSD>
1.2

> <PUBCHEM_CONFORMER_DIVERSEORDER>
1
46
18
6
36
15
26
32
45
35
7
28
42
31
44
29
16
3
22
30
5
20
11
17
38
4
9
24
39
41
25
19
27
21
10
14
43
33
37
40
34
13
2
12
8
23

> <PUBCHEM_MMFF94_PARTIAL_CHARGES>
19
1 -0.57
12 0.33
13 0.27
16 0.3
17 0.3
18 0.6
19 0.71
2 -0.57
20 -0.09
21 -0.24
22 -0.15
23 -0.3
3 -0.81
4 -0.66
48 0.15
49 0.15
5 0.03
50 0.27
6 0.27

> <PUBCHEM_EFFECTIVE_ROTOR_COUNT>
8.2

> <PUBCHEM_PHARMACOPHORE_FEATURES>
8
1 1 acceptor
1 2 acceptor
1 3 cation
1 5 cation
1 5 donor
5 4 14 15 16 17 rings
5 5 20 21 22 23 rings
6 6 7 8 9 10 11 rings

> <PUBCHEM_HEAVY_ATOM_COUNT>
23

> <PUBCHEM_ATOM_DEF_STEREO_COUNT>
0

> <PUBCHEM_ATOM_UDEF_STEREO_COUNT>
0

> <PUBCHEM_BOND_DEF_STEREO_COUNT>
0

> <PUBCHEM_BOND_UDEF_STEREO_COUNT>
0

> <PUBCHEM_ISOTOPIC_ATOM_COUNT>
0

> <PUBCHEM_COMPONENT_COUNT>
1

> <PUBCHEM_CACTVS_TAUTO_COUNT>
7

> <PUBCHEM_CONFORMER_ID>
0109707700000001

> <PUBCHEM_MMFF94_ENERGY>
42.344

> <PUBCHEM_FEATURE_SELFOVERLAP>
40.594

> <PUBCHEM_SHAPE_FINGERPRINT>
10014705 185 18411420587930871003
10498660 4 18187360987715593704
10591671 39 18261391088349941287
10670039 82 17822279224085956424
10730089 43 18060700593785463396
10763959 59 18266739276057879870
11089746 13 18334582343374026666
11796584 16 7204504268372775022
12422481 6 17561367270555894364
12523318 42 16916205699355168427
12596602 18 15769772455133647625
12760667 363 9079116661500273829
13533116 47 17202208614851290163
13583140 156 17989197132233481251
13878862 14 18128276617035790164
14123256 34 9367356950637218008
14251740 57 11023838296807539720
14251764 30 6988022584296660421
14251764 38 18126290984798871813
14528608 73 18041001738829793893
14767858 380 17749119889611449581
14774955 27 18409450292863125431
14840074 17 18408600370802726949
14848178 5 8358269111731537784
14848178 96 18333446530592961754
14951699 99 17346590881136479244
15183329 4 15574709218436364380
15238133 3 18341057324854059808
17857418 61 10447923966927224265
1813 80 10303519667713521363
193927 3 8502378844898104452
1979834 28 14117520986240582376
19958102 18 14129061413157253437
20398071 356 9150909281773620836
21033648 29 17775565338233389496
21033650 10 15719939332751573067
21315764 119 14273723101672809033
21344244 181 5545188459047539141
22849339 104 15647634263198800805
22950370 63 9583226276057537723
23503953 91 15195273244833326019
23559900 14 18115024233467788366
25122255 55 6771866294292979421
270888 7 18412545371336231204
2748736 6 18410300198224937172
2838139 119 18337678610809320397
2916195 48 17988927808051540317
314194 84 10375863061416659626
345986 75 12967128354024754063
3472631 163 18336262366860219988
44062 13 8141546590525215386
445580 182 13901917721533374349
474 4 18260830440303857067
5104073 3 17988649579479678202
513202 73 8358261467138338847
56633871 153 12319742470564179945
5718773 13 6555150294144523396
6034566 193 18340482257927490719
633830 44 18412265008999156582
6371009 1 18115031925869350976
6608658 132 17531243985013347385
6898599 12 18189336762344133143
7237137 82 18115033987654483335
7970288 3 8718565899537204228

> <PUBCHEM_SHAPE_MULTIPOLES>
446.65
16.35
2.65
1.5
4.69
0.14
0.19
-14.36
-2.67
-1.85
-0.34
0.4
-0.25
-0.04

> <PUBCHEM_SHAPE_SELFOVERLAP>
933.078

> <PUBCHEM_SHAPE_VOLUME>
254

> <PUBCHEM_COORDINATE_TYPE>
2
5
10

$$$$

