37463
  -OEChem-07051213112D

 20 20  0     0  0  0  0  0  0999 V2000
    2.8090   -2.0084    0.0000 N   0  0  0  0  0  0  0  0  0  0  0  0
    2.3090   -0.4696    0.0000 N   0  0  0  0  0  0  0  0  0  0  0  0
    4.0778    2.0620    0.0000 N   0  0  0  0  0  0  0  0  0  0  0  0
    3.8968    0.3394    0.0000 C   0  0  0  0  0  0  0  0  0  0  0  0
    3.3090   -0.4696    0.0000 C   0  0  0  0  0  0  0  0  0  0  0  0
    3.6180   -1.4206    0.0000 C   0  0  0  0  0  0  0  0  0  0  0  0
    3.4901    1.2530    0.0000 C   0  0  0  0  0  0  0  0  0  0  0  0
    4.5691   -1.7296    0.0000 C   0  0  0  0  0  0  0  0  0  0  0  0
    2.0000   -1.4206    0.0000 C   0  0  0  0  0  0  0  0  0  0  0  0
    4.3275   -0.1065    0.0000 H   0  0  0  0  0  0  0  0  0  0  0  0
    4.4108    0.6861    0.0000 H   0  0  0  0  0  0  0  0  0  0  0  0
    3.0594    1.6990    0.0000 H   0  0  0  0  0  0  0  0  0  0  0  0
    2.9761    0.9063    0.0000 H   0  0  0  0  0  0  0  0  0  0  0  0
    2.8090   -2.6284    0.0000 H   0  0  0  0  0  0  0  0  0  0  0  0
    4.3775   -2.3193    0.0000 H   0  0  0  0  0  0  0  0  0  0  0  0
    5.1588   -1.9212    0.0000 H   0  0  0  0  0  0  0  0  0  0  0  0
    4.7607   -1.1400    0.0000 H   0  0  0  0  0  0  0  0  0  0  0  0
    1.4103   -1.6122    0.0000 H   0  0  0  0  0  0  0  0  0  0  0  0
    3.8257    2.6284    0.0000 H   0  0  0  0  0  0  0  0  0  0  0  0
    4.6944    1.9972    0.0000 H   0  0  0  0  0  0  0  0  0  0  0  0
  1  6  1  0  0  0  0
  1  9  1  0  0  0  0
  1 14  1  0  0  0  0
  2  5  1  0  0  0  0
  2  9  2  0  0  0  0
  3  7  1  0  0  0  0
  3 19  1  0  0  0  0
  3 20  1  0  0  0  0
  4  5  1  0  0  0  0
  4  7  1  0  0  0  0
  4 10  1  0  0  0  0
  4 11  1  0  0  0  0
  5  6  2  0  0  0  0
  6  8  1  0  0  0  0
  7 12  1  0  0  0  0
  7 13  1  0  0  0  0
  8 15  1  0  0  0  0
  8 16  1  0  0  0  0
  8 17  1  0  0  0  0
  9 18  1  0  0  0  0
M  END
> <PUBCHEM_COMPOUND_CID>
37463

> <PUBCHEM_COMPOUND_CANONICALIZED>
1

> <PUBCHEM_CACTVS_COMPLEXITY>
84.4

> <PUBCHEM_CACTVS_HBOND_ACCEPTOR>
2

> <PUBCHEM_CACTVS_HBOND_DONOR>
2

> <PUBCHEM_CACTVS_ROTATABLE_BOND>
2

> <PUBCHEM_CACTVS_SUBSKEYS>
AAADccBjAAAAAAAAAAAAAAAAAAAAAWAAAAAAAAAAAAAAAAABgAAAHAAQAAAACAjBFgQHkBbJkACgAQRhZAAAgC2xEKABWYA4UAiAaAJAyAEUAAAoEAJISCIQAAAAAAAAAAAAAAAAAAAAAAAAAAAAAAAAAA==

> <PUBCHEM_IUPAC_OPENEYE_NAME>
2-(5-methyl-1H-imidazol-4-yl)ethanamine

> <PUBCHEM_IUPAC_CAS_NAME>
2-(5-methyl-1H-imidazol-4-yl)ethanamine

> <PUBCHEM_IUPAC_NAME>
2-(5-methyl-1H-imidazol-4-yl)ethanamine

> <PUBCHEM_IUPAC_SYSTEMATIC_NAME>
2-(5-methyl-1H-imidazol-4-yl)ethanamine

> <PUBCHEM_IUPAC_TRADITIONAL_NAME>
2-(5-methyl-1H-imidazol-4-yl)ethylamine

> <PUBCHEM_IUPAC_INCHI>
InChI=1S/C6H11N3/c1-5-6(2-3-7)9-4-8-5/h4H,2-3,7H2,1H3,(H,8,9)

> <PUBCHEM_IUPAC_INCHIKEY>
UGYXPZQILZRKJJ-UHFFFAOYSA-N

> <PUBCHEM_XLOGP3_AA>
-0.2

> <PUBCHEM_EXACT_MASS>
125.095297

> <PUBCHEM_MOLECULAR_FORMULA>
C6H11N3

> <PUBCHEM_MOLECULAR_WEIGHT>
125.17164

> <PUBCHEM_OPENEYE_CAN_SMILES>
CC1=C(N=CN1)CCN

> <PUBCHEM_OPENEYE_ISO_SMILES>
CC1=C(N=CN1)CCN

> <PUBCHEM_CACTVS_TPSA>
54.7

> <PUBCHEM_MONOISOTOPIC_WEIGHT>
125.095297

> <PUBCHEM_TOTAL_CHARGE>
0

> <PUBCHEM_HEAVY_ATOM_COUNT>
9

> <PUBCHEM_ATOM_DEF_STEREO_COUNT>
0

> <PUBCHEM_ATOM_UDEF_STEREO_COUNT>
0

> <PUBCHEM_BOND_DEF_STEREO_COUNT>
0

> <PUBCHEM_BOND_UDEF_STEREO_COUNT>
0

> <PUBCHEM_ISOTOPIC_ATOM_COUNT>
0

> <PUBCHEM_COMPONENT_COUNT>
1

> <PUBCHEM_CACTVS_TAUTO_COUNT>
2

> <PUBCHEM_COORDINATE_TYPE>
1
5
255

> <PUBCHEM_BONDANNOTATIONS>
1  6  8
1  9  8
2  5  8
2  9  8
5  6  8

$$$$

