16058
  -OEChem-07051213142D

 40 41  0     1  0  0  0  0  0999 V2000
   14.7583    1.1160    0.0000 O   0  0  0  0  0  0  0  0  0  0  0  0
    2.0000   -0.2500    0.0000 O   0  0  0  0  0  0  0  0  0  0  0  0
   12.5263    0.2500    0.0000 O   0  0  0  0  0  0  0  0  0  0  0  0
    4.7320   -0.2500    0.0000 O   0  0  0  0  0  0  0  0  0  0  0  0
    9.9282   -0.2500    0.0000 O   0  0  0  0  0  0  0  0  0  0  0  0
    7.3301    0.2500    0.0000 O   0  0  0  0  0  0  0  0  0  0  0  0
   14.2583    0.2500    0.0000 C   0  0  3  0  0  0  0  0  0  0  0  0
    3.0000   -0.2500    0.0000 C   0  0  3  0  0  0  0  0  0  0  0  0
   15.2583    0.2500    0.0000 C   0  0  0  0  0  0  0  0  0  0  0  0
    2.5000   -1.1160    0.0000 C   0  0  0  0  0  0  0  0  0  0  0  0
   13.3923   -0.2500    0.0000 C   0  0  0  0  0  0  0  0  0  0  0  0
    3.8660    0.2500    0.0000 C   0  0  0  0  0  0  0  0  0  0  0  0
   11.6603   -0.2500    0.0000 C   0  0  0  0  0  0  0  0  0  0  0  0
    5.5981    0.2500    0.0000 C   0  0  0  0  0  0  0  0  0  0  0  0
   10.7942    0.2500    0.0000 C   0  0  0  0  0  0  0  0  0  0  0  0
    6.4641   -0.2500    0.0000 C   0  0  0  0  0  0  0  0  0  0  0  0
    9.0622    0.2500    0.0000 C   0  0  0  0  0  0  0  0  0  0  0  0
    8.1962   -0.2500    0.0000 C   0  0  0  0  0  0  0  0  0  0  0  0
    2.8395    0.3489    0.0000 H   0  0  0  0  0  0  0  0  0  0  0  0
   13.8199    0.6884    0.0000 H   0  0  0  0  0  0  0  0  0  0  0  0
    2.0250   -1.5146    0.0000 H   0  0  0  0  0  0  0  0  0  0  0  0
    2.9750   -1.5146    0.0000 H   0  0  0  0  0  0  0  0  0  0  0  0
   15.3660   -0.3606    0.0000 H   0  0  0  0  0  0  0  0  0  0  0  0
   15.8409    0.4621    0.0000 H   0  0  0  0  0  0  0  0  0  0  0  0
    4.2646    0.7249    0.0000 H   0  0  0  0  0  0  0  0  0  0  0  0
    3.4675    0.7249    0.0000 H   0  0  0  0  0  0  0  0  0  0  0  0
   12.9938   -0.7249    0.0000 H   0  0  0  0  0  0  0  0  0  0  0  0
   13.7908   -0.7249    0.0000 H   0  0  0  0  0  0  0  0  0  0  0  0
    5.9966    0.7249    0.0000 H   0  0  0  0  0  0  0  0  0  0  0  0
    5.1996    0.7249    0.0000 H   0  0  0  0  0  0  0  0  0  0  0  0
   11.2617   -0.7249    0.0000 H   0  0  0  0  0  0  0  0  0  0  0  0
   12.0588   -0.7249    0.0000 H   0  0  0  0  0  0  0  0  0  0  0  0
    6.0656   -0.7249    0.0000 H   0  0  0  0  0  0  0  0  0  0  0  0
    6.8626   -0.7249    0.0000 H   0  0  0  0  0  0  0  0  0  0  0  0
   11.1928    0.7249    0.0000 H   0  0  0  0  0  0  0  0  0  0  0  0
   10.3957    0.7249    0.0000 H   0  0  0  0  0  0  0  0  0  0  0  0
    9.4607    0.7249    0.0000 H   0  0  0  0  0  0  0  0  0  0  0  0
    8.6636    0.7249    0.0000 H   0  0  0  0  0  0  0  0  0  0  0  0
    7.7976   -0.7249    0.0000 H   0  0  0  0  0  0  0  0  0  0  0  0
    8.5947   -0.7249    0.0000 H   0  0  0  0  0  0  0  0  0  0  0  0
  1  7  1  0  0  0  0
  1  9  1  0  0  0  0
  2  8  1  0  0  0  0
  2 10  1  0  0  0  0
  3 11  1  0  0  0  0
  3 13  1  0  0  0  0
  4 12  1  0  0  0  0
  4 14  1  0  0  0  0
  5 15  1  0  0  0  0
  5 17  1  0  0  0  0
  6 16  1  0  0  0  0
  6 18  1  0  0  0  0
  7  9  1  0  0  0  0
  7 11  1  0  0  0  0
  7 20  1  0  0  0  0
  8 10  1  0  0  0  0
  8 12  1  0  0  0  0
  8 19  1  0  0  0  0
  9 23  1  0  0  0  0
  9 24  1  0  0  0  0
 10 21  1  0  0  0  0
 10 22  1  0  0  0  0
 11 27  1  0  0  0  0
 11 28  1  0  0  0  0
 12 25  1  0  0  0  0
 12 26  1  0  0  0  0
 13 15  1  0  0  0  0
 13 31  1  0  0  0  0
 13 32  1  0  0  0  0
 14 16  1  0  0  0  0
 14 29  1  0  0  0  0
 14 30  1  0  0  0  0
 15 35  1  0  0  0  0
 15 36  1  0  0  0  0
 16 33  1  0  0  0  0
 16 34  1  0  0  0  0
 17 18  1  0  0  0  0
 17 37  1  0  0  0  0
 17 38  1  0  0  0  0
 18 39  1  0  0  0  0
 18 40  1  0  0  0  0
M  END
> <PUBCHEM_COMPOUND_CID>
16058

> <PUBCHEM_COMPOUND_CANONICALIZED>
1

> <PUBCHEM_CACTVS_COMPLEXITY>
191

> <PUBCHEM_CACTVS_HBOND_ACCEPTOR>
6

> <PUBCHEM_CACTVS_HBOND_DONOR>
0

> <PUBCHEM_CACTVS_ROTATABLE_BOND>
13

> <PUBCHEM_CACTVS_SUBSKEYS>
AAADceBwOAAAAAAAAAAAAAAAEiQAAAAAAAAAAAAAAAAAAAAAAAAAGgAAAAAACBSggAIAAAAABAAAAAAAAAAAAAAAAAAAAAAAAAABAAAAAAACAAABAAACAAAAAAAAAAAAAAAAAAAAAAAAAAAAAAAAAAAAAA==

> <PUBCHEM_IUPAC_OPENEYE_NAME>
2-[2-[2-[2-(oxiran-2-ylmethoxy)ethoxy]ethoxy]ethoxymethyl]oxirane

> <PUBCHEM_IUPAC_CAS_NAME>
2-[2-[2-[2-(2-oxiranylmethoxy)ethoxy]ethoxy]ethoxymethyl]oxirane

> <PUBCHEM_IUPAC_NAME>
2-[2-[2-[2-(oxiran-2-ylmethoxy)ethoxy]ethoxy]ethoxymethyl]oxirane

> <PUBCHEM_IUPAC_SYSTEMATIC_NAME>
2-[2-[2-[2-(oxiran-2-ylmethoxy)ethoxy]ethoxy]ethoxymethyl]oxirane

> <PUBCHEM_IUPAC_TRADITIONAL_NAME>
2-[2-[2-(2-glycidoxyethoxy)ethoxy]ethoxymethyl]oxirane

> <PUBCHEM_IUPAC_INCHI>
InChI=1S/C12H22O6/c1(13-3-5-15-7-11-9-17-11)2-14-4-6-16-8-12-10-18-12/h11-12H,1-10H2

> <PUBCHEM_IUPAC_INCHIKEY>
UMILHIMHKXVDGH-UHFFFAOYSA-N

> <PUBCHEM_XLOGP3_AA>
-1

> <PUBCHEM_EXACT_MASS>
262.141638

> <PUBCHEM_MOLECULAR_FORMULA>
C12H22O6

> <PUBCHEM_MOLECULAR_WEIGHT>
262.29948

> <PUBCHEM_OPENEYE_CAN_SMILES>
C1C(O1)COCCOCCOCCOCC2CO2

> <PUBCHEM_OPENEYE_ISO_SMILES>
C1C(O1)COCCOCCOCCOCC2CO2

> <PUBCHEM_CACTVS_TPSA>
62

> <PUBCHEM_MONOISOTOPIC_WEIGHT>
262.141638

> <PUBCHEM_TOTAL_CHARGE>
0

> <PUBCHEM_HEAVY_ATOM_COUNT>
18

> <PUBCHEM_ATOM_DEF_STEREO_COUNT>
0

> <PUBCHEM_ATOM_UDEF_STEREO_COUNT>
2

> <PUBCHEM_BOND_DEF_STEREO_COUNT>
0

> <PUBCHEM_BOND_UDEF_STEREO_COUNT>
0

> <PUBCHEM_ISOTOPIC_ATOM_COUNT>
0

> <PUBCHEM_COMPONENT_COUNT>
1

> <PUBCHEM_CACTVS_TAUTO_COUNT>
1

> <PUBCHEM_COORDINATE_TYPE>
1
5
255

> <PUBCHEM_BONDANNOTATIONS>
7  11  3
8  12  3

$$$$

