441076
  -OEChem-07051212513D

 39 42  0     1  0  0  0  0  0999 V2000
   -2.9637   -1.9711   -0.2991 O   0  0  0  0  0  0  0  0  0  0  0  0
    3.3437   -0.9493   -1.4630 O   0  0  0  0  0  0  0  0  0  0  0  0
   -1.9493   -3.2583    1.2624 O   0  0  0  0  0  0  0  0  0  0  0  0
   -0.0598    2.2679   -0.3346 N   0  0  1  0  0  0  0  0  0  0  0  0
    0.3388    0.8597   -0.0750 C   0  0  1  0  0  0  0  0  0  0  0  0
   -0.8631   -0.1165   -0.0416 C   0  0  0  0  0  0  0  0  0  0  0  0
   -1.9698    0.1419   -1.0415 C   0  0  2  0  0  0  0  0  0  0  0  0
    1.3993    0.4085   -1.1047 C   0  0  0  0  0  0  0  0  0  0  0  0
    1.0280    1.0274    1.2701 C   0  0  0  0  0  0  0  0  0  0  0  0
   -1.0645    2.4817   -1.3592 C   0  0  0  0  0  0  0  0  0  0  0  0
   -2.3091    1.6319   -1.1594 C   0  0  0  0  0  0  0  0  0  0  0  0
   -0.3261    2.8792    0.9799 C   0  0  0  0  0  0  0  0  0  0  0  0
    2.1912   -0.8283   -0.6310 C   0  0  2  0  0  0  0  0  0  0  0  0
    0.5992    2.1333    1.8889 C   0  0  0  0  0  0  0  0  0  0  0  0
   -3.2380   -0.6086   -0.6435 C   0  0  0  0  0  0  0  0  0  0  0  0
    2.0826    0.1405    1.6809 C   0  0  0  0  0  0  0  0  0  0  0  0
   -0.9521   -1.1844    0.7718 C   0  0  0  0  0  0  0  0  0  0  0  0
    2.6185   -0.7334    0.8141 C   0  0  0  0  0  0  0  0  0  0  0  0
   -2.0008   -2.2130    0.6234 C   0  0  0  0  0  0  0  0  0  0  0  0
    4.0950   -2.1090   -1.1389 C   0  0  0  0  0  0  0  0  0  0  0  0
   -1.6207   -0.2308   -2.0138 H   0  0  0  0  0  0  0  0  0  0  0  0
    2.1130    1.2250   -1.2961 H   0  0  0  0  0  0  0  0  0  0  0  0
    0.9470    0.1984   -2.0832 H   0  0  0  0  0  0  0  0  0  0  0  0
   -0.6262    2.2501   -2.3380 H   0  0  0  0  0  0  0  0  0  0  0  0
   -1.3396    3.5423   -1.4028 H   0  0  0  0  0  0  0  0  0  0  0  0
   -2.8463    1.9751   -0.2658 H   0  0  0  0  0  0  0  0  0  0  0  0
   -2.9908    1.7865   -2.0050 H   0  0  0  0  0  0  0  0  0  0  0  0
   -1.3593    2.7553    1.3209 H   0  0  0  0  0  0  0  0  0  0  0  0
   -0.0756    3.9440    0.9553 H   0  0  0  0  0  0  0  0  0  0  0  0
    1.5698   -1.7228   -0.7642 H   0  0  0  0  0  0  0  0  0  0  0  0
    0.9370    2.4964    2.8483 H   0  0  0  0  0  0  0  0  0  0  0  0
   -3.7478   -0.1432    0.2098 H   0  0  0  0  0  0  0  0  0  0  0  0
   -3.9485   -0.6168   -1.4775 H   0  0  0  0  0  0  0  0  0  0  0  0
    2.4399    0.1902    2.7040 H   0  0  0  0  0  0  0  0  0  0  0  0
   -0.1912   -1.4193    1.5056 H   0  0  0  0  0  0  0  0  0  0  0  0
    3.3638   -1.4159    1.2094 H   0  0  0  0  0  0  0  0  0  0  0  0
    3.4595   -2.9741   -0.9221 H   0  0  0  0  0  0  0  0  0  0  0  0
    4.7882   -1.9121   -0.3161 H   0  0  0  0  0  0  0  0  0  0  0  0
    4.7069   -2.3581   -2.0116 H   0  0  0  0  0  0  0  0  0  0  0  0
  1 15  1  0  0  0  0
  1 19  1  0  0  0  0
  2 13  1  0  0  0  0
  2 20  1  0  0  0  0
  3 19  2  0  0  0  0
  4  5  1  0  0  0  0
  4 10  1  0  0  0  0
  4 12  1  0  0  0  0
  5  6  1  0  0  0  0
  5  8  1  0  0  0  0
  5  9  1  0  0  0  0
  6  7  1  0  0  0  0
  6 17  2  0  0  0  0
  7 11  1  0  0  0  0
  7 15  1  0  0  0  0
  7 21  1  0  0  0  0
  8 13  1  0  0  0  0
  8 22  1  0  0  0  0
  8 23  1  0  0  0  0
  9 14  2  0  0  0  0
  9 16  1  0  0  0  0
 10 11  1  0  0  0  0
 10 24  1  0  0  0  0
 10 25  1  0  0  0  0
 11 26  1  0  0  0  0
 11 27  1  0  0  0  0
 12 14  1  0  0  0  0
 12 28  1  0  0  0  0
 12 29  1  0  0  0  0
 13 18  1  0  0  0  0
 13 30  1  0  0  0  0
 14 31  1  0  0  0  0
 15 32  1  0  0  0  0
 15 33  1  0  0  0  0
 16 18  2  0  0  0  0
 16 34  1  0  0  0  0
 17 19  1  0  0  0  0
 17 35  1  0  0  0  0
 18 36  1  0  0  0  0
 20 37  1  0  0  0  0
 20 38  1  0  0  0  0
 20 39  1  0  0  0  0
M  END
> <PUBCHEM_COMPOUND_CID>
441076

> <PUBCHEM_CONFORMER_RMSD>
0.6

> <PUBCHEM_CONFORMER_DIVERSEORDER>
1
2

> <PUBCHEM_MMFF94_PARTIAL_CHARGES>
22
1 -0.43
10 0.27
12 0.41
13 0.42
14 -0.29
15 0.28
16 -0.15
17 -0.14
18 -0.29
19 0.71
2 -0.56
20 0.28
3 -0.57
31 0.15
34 0.15
35 0.15
36 0.15
4 -0.81
5 0.55
6 -0.28
7 0.14
9 -0.14

> <PUBCHEM_EFFECTIVE_ROTOR_COUNT>
2.4

> <PUBCHEM_PHARMACOPHORE_FEATURES>
7
1 2 acceptor
1 3 acceptor
1 4 cation
5 4 5 9 12 14 rings
6 1 6 7 15 17 19 rings
6 4 5 6 7 10 11 rings
6 5 8 9 13 16 18 rings

> <PUBCHEM_HEAVY_ATOM_COUNT>
20

> <PUBCHEM_ATOM_DEF_STEREO_COUNT>
3

> <PUBCHEM_ATOM_UDEF_STEREO_COUNT>
0

> <PUBCHEM_BOND_DEF_STEREO_COUNT>
0

> <PUBCHEM_BOND_UDEF_STEREO_COUNT>
0

> <PUBCHEM_ISOTOPIC_ATOM_COUNT>
0

> <PUBCHEM_COMPONENT_COUNT>
1

> <PUBCHEM_CACTVS_TAUTO_COUNT>
1

> <PUBCHEM_CONFORMER_ID>
0006BAF400000001

> <PUBCHEM_MMFF94_ENERGY>
56.6059

> <PUBCHEM_FEATURE_SELFOVERLAP>
35.805

> <PUBCHEM_SHAPE_FINGERPRINT>
11315181 36 17900540379346372614
11582403 64 15739189603742545768
12423570 1 16334721587108705852
12592029 89 17049068785442004712
12714826 92 18272925038017787635
14022347 108 17917159303803711051
14251740 79 18050274071101620334
14817 1 5202089484562332024
15375462 175 18058745722177522569
15415430 2 18265057001375736535
15664445 248 15622003375856097903
16752209 62 18057898020176833423
16945 1 18200885083252119812
18981168 100 9726263955285822583
20600515 1 18270984400084563632
20645476 183 17773031088453736598
23419403 2 17968107420875395392
23526113 38 18116175383291353696
23557571 272 18411144632277240624
23559900 14 18192444172079600386
2748010 2 17983310231014302871
298252 57 17343780679655420612
3060560 45 16685688421803895071
576247 118 18262506027114778042
5845 1 10839878988477345933
7364860 26 17832704578238423513
81228 2 18116152358056271168
84936 31 17608372337366979736
8809292 202 18262804110819654326

> <PUBCHEM_SHAPE_MULTIPOLES>
389
4.84
3.28
1.71
3.1
0.27
-0.21
3.61
2.1
-1.82
-0.94
0.6
-0.36
1.57

> <PUBCHEM_SHAPE_SELFOVERLAP>
850.777

> <PUBCHEM_SHAPE_VOLUME>
210.1

> <PUBCHEM_COORDINATE_TYPE>
2
5
10

$$$$

