443942
  -OEChem-07051213032D

 47 48  0     0  0  0  0  0  0999 V2000
    3.9686    0.0000    0.0000 Cl  0  0  0  0  0  0  0  0  0  0  0  0
    4.0010    5.6845    0.0000 O   0  0  0  0  0  0  0  0  0  0  0  0
    7.5312    5.6603    0.0000 O   0  0  0  0  0  0  0  0  0  0  0  0
    4.0010    8.6845    0.0000 O   0  0  0  0  0  0  0  0  0  0  0  0
    6.6096    4.1399    0.0000 N   0  0  0  0  0  0  0  0  0  0  0  0
    5.7610    5.6498    0.0000 C   0  0  0  0  0  0  0  0  0  0  0  0
    4.8671    6.1845    0.0000 C   0  0  0  0  0  0  0  0  0  0  0  0
    4.8671    7.1845    0.0000 C   0  0  0  0  0  0  0  0  0  0  0  0
    5.7494    4.6499    0.0000 C   0  0  0  0  0  0  0  0  0  0  0  0
    6.6671    6.1637    0.0000 C   0  0  0  0  0  0  0  0  0  0  0  0
    3.1350    7.1845    0.0000 C   0  0  0  0  0  0  0  0  0  0  0  0
    3.1350    6.1845    0.0000 C   0  0  0  0  0  0  0  0  0  0  0  0
    4.0010    7.6845    0.0000 C   0  0  0  0  0  0  0  0  0  0  0  0
    5.7610    7.7191    0.0000 C   0  0  0  0  0  0  0  0  0  0  0  0
    6.6671    7.2053    0.0000 C   0  0  0  0  0  0  0  0  0  0  0  0
    2.2690    5.6845    0.0000 C   0  0  0  0  0  0  0  0  0  0  0  0
    2.2690    7.6845    0.0000 C   0  0  0  0  0  0  0  0  0  0  0  0
    6.5981    3.1400    0.0000 C   0  0  0  0  0  0  0  0  0  0  0  0
    7.4814    4.6299    0.0000 C   0  0  0  0  0  0  0  0  0  0  0  0
    1.4030    6.1845    0.0000 C   0  0  0  0  0  0  0  0  0  0  0  0
    2.2690    4.6845    0.0000 C   0  0  0  0  0  0  0  0  0  0  0  0
    0.5369    5.6845    0.0000 C   0  0  0  0  0  0  0  0  0  0  0  0
    1.4030    4.1845    0.0000 C   0  0  0  0  0  0  0  0  0  0  0  0
    8.3991    6.1570    0.0000 C   0  0  0  0  0  0  0  0  0  0  0  0
    0.5369    4.6845    0.0000 C   0  0  0  0  0  0  0  0  0  0  0  0
    5.1402    4.7646    0.0000 H   0  0  0  0  0  0  0  0  0  0  0  0
    5.5307    4.0698    0.0000 H   0  0  0  0  0  0  0  0  0  0  0  0
    5.7538    8.3391    0.0000 H   0  0  0  0  0  0  0  0  0  0  0  0
    7.2028    7.5174    0.0000 H   0  0  0  0  0  0  0  0  0  0  0  0
    2.5790    8.2214    0.0000 H   0  0  0  0  0  0  0  0  0  0  0  0
    1.7320    7.9945    0.0000 H   0  0  0  0  0  0  0  0  0  0  0  0
    1.9590    7.1476    0.0000 H   0  0  0  0  0  0  0  0  0  0  0  0
    5.9781    3.1471    0.0000 H   0  0  0  0  0  0  0  0  0  0  0  0
    6.5909    2.5200    0.0000 H   0  0  0  0  0  0  0  0  0  0  0  0
    7.2180    3.1328    0.0000 H   0  0  0  0  0  0  0  0  0  0  0  0
    7.7852    4.0894    0.0000 H   0  0  0  0  0  0  0  0  0  0  0  0
    8.0219    4.9336    0.0000 H   0  0  0  0  0  0  0  0  0  0  0  0
    7.1776    5.1703    0.0000 H   0  0  0  0  0  0  0  0  0  0  0  0
    1.4030    6.8045    0.0000 H   0  0  0  0  0  0  0  0  0  0  0  0
    2.8059    4.3745    0.0000 H   0  0  0  0  0  0  0  0  0  0  0  0
    0.0000    5.9945    0.0000 H   0  0  0  0  0  0  0  0  0  0  0  0
    1.4030    3.5645    0.0000 H   0  0  0  0  0  0  0  0  0  0  0  0
    8.7070    5.6189    0.0000 H   0  0  0  0  0  0  0  0  0  0  0  0
    8.9372    6.4649    0.0000 H   0  0  0  0  0  0  0  0  0  0  0  0
    8.0912    6.6951    0.0000 H   0  0  0  0  0  0  0  0  0  0  0  0
    0.0000    4.3745    0.0000 H   0  0  0  0  0  0  0  0  0  0  0  0
    4.9686    0.0000    0.0000 H   0  0  0  0  0  0  0  0  0  0  0  0
  1 47  1  0  0  0  0
  2  7  1  0  0  0  0
  2 12  1  0  0  0  0
  3 10  1  0  0  0  0
  3 24  1  0  0  0  0
  4 13  2  0  0  0  0
  5  9  1  0  0  0  0
  5 18  1  0  0  0  0
  5 19  1  0  0  0  0
  6  7  1  0  0  0  0
  6  9  1  0  0  0  0
  6 10  2  0  0  0  0
  7  8  2  0  0  0  0
  8 13  1  0  0  0  0
  8 14  1  0  0  0  0
  9 26  1  0  0  0  0
  9 27  1  0  0  0  0
 10 15  1  0  0  0  0
 11 12  2  0  0  0  0
 11 13  1  0  0  0  0
 11 17  1  0  0  0  0
 12 16  1  0  0  0  0
 14 15  2  0  0  0  0
 14 28  1  0  0  0  0
 15 29  1  0  0  0  0
 16 20  2  0  0  0  0
 16 21  1  0  0  0  0
 17 30  1  0  0  0  0
 17 31  1  0  0  0  0
 17 32  1  0  0  0  0
 18 33  1  0  0  0  0
 18 34  1  0  0  0  0
 18 35  1  0  0  0  0
 19 36  1  0  0  0  0
 19 37  1  0  0  0  0
 19 38  1  0  0  0  0
 20 22  1  0  0  0  0
 20 39  1  0  0  0  0
 21 23  2  0  0  0  0
 21 40  1  0  0  0  0
 22 25  2  0  0  0  0
 22 41  1  0  0  0  0
 23 25  1  0  0  0  0
 23 42  1  0  0  0  0
 24 43  1  0  0  0  0
 24 44  1  0  0  0  0
 24 45  1  0  0  0  0
 25 46  1  0  0  0  0
M  END
> <PUBCHEM_COMPOUND_CID>
443942

> <PUBCHEM_COMPOUND_CANONICALIZED>
1

> <PUBCHEM_CACTVS_COMPLEXITY>
493

> <PUBCHEM_CACTVS_HBOND_ACCEPTOR>
4

> <PUBCHEM_CACTVS_HBOND_DONOR>
1

> <PUBCHEM_CACTVS_ROTATABLE_BOND>
4

> <PUBCHEM_CACTVS_SUBSKEYS>
AAADceB6MAAEAAAAAAAAAAAAAAAAAAAAAAAwYIAAAAAAAACBQAAAHgAAAAAADATBmAYyBoMABACIAqBSAACCCAAkIAAIiAEODMgMJzaEtRuGOWjn4BUIqYeY7ezOIAACCAAIAABAAAQQABAAAAAAAAAAAA==

> <PUBCHEM_IUPAC_OPENEYE_NAME>
8-[(dimethylamino)methyl]-7-methoxy-3-methyl-2-phenyl-chromen-4-one hydrochloride

> <PUBCHEM_IUPAC_CAS_NAME>
8-[(dimethylamino)methyl]-7-methoxy-3-methyl-2-phenyl-1-benzopyran-4-one hydrochloride

> <PUBCHEM_IUPAC_NAME>
8-[(dimethylamino)methyl]-7-methoxy-3-methyl-2-phenylchromen-4-one hydrochloride

> <PUBCHEM_IUPAC_SYSTEMATIC_NAME>
8-[(dimethylamino)methyl]-7-methoxy-3-methyl-2-phenyl-chromen-4-one hydrochloride

> <PUBCHEM_IUPAC_TRADITIONAL_NAME>
8-[(dimethylamino)methyl]-7-methoxy-3-methyl-2-phenyl-chromone hydrochloride

> <PUBCHEM_IUPAC_INCHI>
InChI=1S/C20H21NO3.ClH/c1-13-18(22)15-10-11-17(23-4)16(12-21(2)3)20(15)24-19(13)14-8-6-5-7-9-14;/h5-11H,12H2,1-4H3;1H

> <PUBCHEM_IUPAC_INCHIKEY>
RCISIXJGNBXXPZ-UHFFFAOYSA-N

> <PUBCHEM_EXACT_MASS>
359.128821

> <PUBCHEM_MOLECULAR_FORMULA>
C20H22ClNO3

> <PUBCHEM_MOLECULAR_WEIGHT>
359.84658

> <PUBCHEM_OPENEYE_CAN_SMILES>
CC1=C(OC2=C(C1=O)C=CC(=C2CN(C)C)OC)C3=CC=CC=C3.Cl

> <PUBCHEM_OPENEYE_ISO_SMILES>
CC1=C(OC2=C(C1=O)C=CC(=C2CN(C)C)OC)C3=CC=CC=C3.Cl

> <PUBCHEM_CACTVS_TPSA>
38.8

> <PUBCHEM_MONOISOTOPIC_WEIGHT>
359.128821

> <PUBCHEM_TOTAL_CHARGE>
0

> <PUBCHEM_HEAVY_ATOM_COUNT>
25

> <PUBCHEM_ATOM_DEF_STEREO_COUNT>
0

> <PUBCHEM_ATOM_UDEF_STEREO_COUNT>
0

> <PUBCHEM_BOND_DEF_STEREO_COUNT>
0

> <PUBCHEM_BOND_UDEF_STEREO_COUNT>
0

> <PUBCHEM_ISOTOPIC_ATOM_COUNT>
0

> <PUBCHEM_COMPONENT_COUNT>
2

> <PUBCHEM_CACTVS_TAUTO_COUNT>
1

> <PUBCHEM_COORDINATE_TYPE>
1
5
255

> <PUBCHEM_BONDANNOTATIONS>
10  15  8
11  12  8
11  13  8
14  15  8
16  20  8
16  21  8
2  12  8
2  7  8
20  22  8
21  23  8
22  25  8
23  25  8
6  10  8
6  7  8
7  8  8
8  13  8
8  14  8

$$$$

