7847064
  -OEChem-06241222482D

 50 52  0     0  0  0  0  0  0999 V2000
    6.3301    0.7500    0.0000 O   0  0  0  0  0  0  0  0  0  0  0  0
    8.0622    0.7500    0.0000 O   0  0  0  0  0  0  0  0  0  0  0  0
    4.5981   -0.2500    0.0000 O   0  0  0  0  0  0  0  0  0  0  0  0
    5.4641   -3.7500    0.0000 O   0  0  0  0  0  0  0  0  0  0  0  0
    7.1962    4.2500    0.0000 N   0  0  0  0  0  0  0  0  0  0  0  0
    5.4641   -1.7500    0.0000 N   0  0  0  0  0  0  0  0  0  0  0  0
    4.5981   -2.2500    0.0000 N   0  0  0  0  0  0  0  0  0  0  0  0
    6.3301    2.7500    0.0000 C   0  0  0  0  0  0  0  0  0  0  0  0
    7.1962    2.2500    0.0000 C   0  0  0  0  0  0  0  0  0  0  0  0
    6.3301    3.7500    0.0000 C   0  0  0  0  0  0  0  0  0  0  0  0
    8.0622    2.7500    0.0000 C   0  0  0  0  0  0  0  0  0  0  0  0
    8.0622    3.7500    0.0000 C   0  0  0  0  0  0  0  0  0  0  0  0
    5.4641    4.2500    0.0000 C   0  0  0  0  0  0  0  0  0  0  0  0
    5.4641    2.2500    0.0000 C   0  0  0  0  0  0  0  0  0  0  0  0
    8.9561    2.2153    0.0000 C   0  0  0  0  0  0  0  0  0  0  0  0
    8.9561    4.2847    0.0000 C   0  0  0  0  0  0  0  0  0  0  0  0
    7.1962    1.2500    0.0000 C   0  0  0  0  0  0  0  0  0  0  0  0
    5.4641    5.2500    0.0000 C   0  0  0  0  0  0  0  0  0  0  0  0
    9.8622    2.7292    0.0000 C   0  0  0  0  0  0  0  0  0  0  0  0
    9.8622    3.7708    0.0000 C   0  0  0  0  0  0  0  0  0  0  0  0
    6.3301   -0.2500    0.0000 C   0  0  0  0  0  0  0  0  0  0  0  0
    5.4641   -0.7500    0.0000 C   0  0  0  0  0  0  0  0  0  0  0  0
    3.7320   -3.7500    0.0000 C   0  0  0  0  0  0  0  0  0  0  0  0
    4.5981   -3.2500    0.0000 C   0  0  0  0  0  0  0  0  0  0  0  0
    2.8660   -3.2500    0.0000 C   0  0  0  0  0  0  0  0  0  0  0  0
    3.7320   -4.7500    0.0000 C   0  0  0  0  0  0  0  0  0  0  0  0
    2.0000   -3.7500    0.0000 C   0  0  0  0  0  0  0  0  0  0  0  0
    2.8660   -5.2500    0.0000 C   0  0  0  0  0  0  0  0  0  0  0  0
    2.0000   -4.7500    0.0000 C   0  0  0  0  0  0  0  0  0  0  0  0
    4.8535    4.3577    0.0000 H   0  0  0  0  0  0  0  0  0  0  0  0
    5.2520    3.6674    0.0000 H   0  0  0  0  0  0  0  0  0  0  0  0
    5.1541    2.7869    0.0000 H   0  0  0  0  0  0  0  0  0  0  0  0
    4.9272    1.9400    0.0000 H   0  0  0  0  0  0  0  0  0  0  0  0
    5.7741    1.7131    0.0000 H   0  0  0  0  0  0  0  0  0  0  0  0
    8.9490    1.5954    0.0000 H   0  0  0  0  0  0  0  0  0  0  0  0
    8.9490    4.9046    0.0000 H   0  0  0  0  0  0  0  0  0  0  0  0
    6.0841    5.2500    0.0000 H   0  0  0  0  0  0  0  0  0  0  0  0
    5.4641    5.8700    0.0000 H   0  0  0  0  0  0  0  0  0  0  0  0
    4.8441    5.2500    0.0000 H   0  0  0  0  0  0  0  0  0  0  0  0
   10.3979    2.4171    0.0000 H   0  0  0  0  0  0  0  0  0  0  0  0
   10.3979    4.0829    0.0000 H   0  0  0  0  0  0  0  0  0  0  0  0
    6.5422   -0.8326    0.0000 H   0  0  0  0  0  0  0  0  0  0  0  0
    6.9407   -0.1423    0.0000 H   0  0  0  0  0  0  0  0  0  0  0  0
    6.0010   -2.0600    0.0000 H   0  0  0  0  0  0  0  0  0  0  0  0
    4.0611   -1.9400    0.0000 H   0  0  0  0  0  0  0  0  0  0  0  0
    2.8660   -2.6300    0.0000 H   0  0  0  0  0  0  0  0  0  0  0  0
    4.2690   -5.0600    0.0000 H   0  0  0  0  0  0  0  0  0  0  0  0
    1.4631   -3.4400    0.0000 H   0  0  0  0  0  0  0  0  0  0  0  0
    2.8660   -5.8700    0.0000 H   0  0  0  0  0  0  0  0  0  0  0  0
    1.4631   -5.0600    0.0000 H   0  0  0  0  0  0  0  0  0  0  0  0
  1 17  1  0  0  0  0
  1 21  1  0  0  0  0
  2 17  2  0  0  0  0
  3 22  2  0  0  0  0
  4 24  2  0  0  0  0
  5 10  2  0  0  0  0
  5 12  1  0  0  0  0
  6  7  1  0  0  0  0
  6 22  1  0  0  0  0
  6 44  1  0  0  0  0
  7 24  1  0  0  0  0
  7 45  1  0  0  0  0
  8  9  2  0  0  0  0
  8 10  1  0  0  0  0
  8 14  1  0  0  0  0
  9 11  1  0  0  0  0
  9 17  1  0  0  0  0
 10 13  1  0  0  0  0
 11 12  1  0  0  0  0
 11 15  2  0  0  0  0
 12 16  2  0  0  0  0
 13 18  1  0  0  0  0
 13 30  1  0  0  0  0
 13 31  1  0  0  0  0
 14 32  1  0  0  0  0
 14 33  1  0  0  0  0
 14 34  1  0  0  0  0
 15 19  1  0  0  0  0
 15 35  1  0  0  0  0
 16 20  1  0  0  0  0
 16 36  1  0  0  0  0
 18 37  1  0  0  0  0
 18 38  1  0  0  0  0
 18 39  1  0  0  0  0
 19 20  2  0  0  0  0
 19 40  1  0  0  0  0
 20 41  1  0  0  0  0
 21 22  1  0  0  0  0
 21 42  1  0  0  0  0
 21 43  1  0  0  0  0
 23 24  1  0  0  0  0
 23 25  2  0  0  0  0
 23 26  1  0  0  0  0
 25 27  1  0  0  0  0
 25 46  1  0  0  0  0
 26 28  2  0  0  0  0
 26 47  1  0  0  0  0
 27 29  2  0  0  0  0
 27 48  1  0  0  0  0
 28 29  1  0  0  0  0
 28 49  1  0  0  0  0
 29 50  1  0  0  0  0
M  END
> <PUBCHEM_COMPOUND_CID>
7847064

> <PUBCHEM_COMPOUND_CANONICALIZED>
1

> <PUBCHEM_CACTVS_COMPLEXITY>
591

> <PUBCHEM_CACTVS_HBOND_ACCEPTOR>
5

> <PUBCHEM_CACTVS_HBOND_DONOR>
2

> <PUBCHEM_CACTVS_ROTATABLE_BOND>
6

> <PUBCHEM_CACTVS_SUBSKEYS>
AAADceB7OAAAAAAAAAAAAAAAAAAAAAAAAAA8YIAAAAAAAACx9AAAHgAYAAAADAihngIyyPJqFACoAyXyXAKCgCAlAiIauCFwbNgKJvLAtZ2HMQhk0AHI6Ye8yOCOgAAAAAACAAAAAAAAAAQAAAAAAAAAAA==

> <PUBCHEM_IUPAC_OPENEYE_NAME>
[2-(2-benzoylhydrazino)-2-oxo-ethyl] 2-ethyl-3-methyl-quinoline-4-carboxylate

> <PUBCHEM_IUPAC_CAS_NAME>
2-ethyl-3-methyl-4-quinolinecarboxylic acid [2-(benzoylhydrazo)-2-oxoethyl] ester

> <PUBCHEM_IUPAC_NAME>
[2-(2-benzoylhydrazinyl)-2-oxoethyl] 2-ethyl-3-methylquinoline-4-carboxylate

> <PUBCHEM_IUPAC_SYSTEMATIC_NAME>
[2-oxidanylidene-2-[2-(phenylcarbonyl)hydrazinyl]ethyl] 2-ethyl-3-methyl-quinoline-4-carboxylate

> <PUBCHEM_IUPAC_TRADITIONAL_NAME>
2-ethyl-3-methyl-cinchoninic acid [2-(N'-benzoylhydrazino)-2-keto-ethyl] ester

> <PUBCHEM_IUPAC_INCHI>
InChI=1S/C22H21N3O4/c1-3-17-14(2)20(16-11-7-8-12-18(16)23-17)22(28)29-13-19(26)24-25-21(27)15-9-5-4-6-10-15/h4-12H,3,13H2,1-2H3,(H,24,26)(H,25,27)

> <PUBCHEM_IUPAC_INCHIKEY>
ASWKKMANTHSUEJ-UHFFFAOYSA-N

> <PUBCHEM_XLOGP3_AA>
3.8

> <PUBCHEM_EXACT_MASS>
391.153206

> <PUBCHEM_MOLECULAR_FORMULA>
C22H21N3O4

> <PUBCHEM_MOLECULAR_WEIGHT>
391.41984

> <PUBCHEM_OPENEYE_CAN_SMILES>
CCC1=NC2=CC=CC=C2C(=C1C)C(=O)OCC(=O)NNC(=O)C3=CC=CC=C3

> <PUBCHEM_OPENEYE_ISO_SMILES>
CCC1=NC2=CC=CC=C2C(=C1C)C(=O)OCC(=O)NNC(=O)C3=CC=CC=C3

> <PUBCHEM_CACTVS_TPSA>
97.4

> <PUBCHEM_MONOISOTOPIC_WEIGHT>
391.153206

> <PUBCHEM_TOTAL_CHARGE>
0

> <PUBCHEM_HEAVY_ATOM_COUNT>
29

> <PUBCHEM_ATOM_DEF_STEREO_COUNT>
0

> <PUBCHEM_ATOM_UDEF_STEREO_COUNT>
0

> <PUBCHEM_BOND_DEF_STEREO_COUNT>
0

> <PUBCHEM_BOND_UDEF_STEREO_COUNT>
0

> <PUBCHEM_ISOTOPIC_ATOM_COUNT>
0

> <PUBCHEM_COMPONENT_COUNT>
1

> <PUBCHEM_CACTVS_TAUTO_COUNT>
24

> <PUBCHEM_COORDINATE_TYPE>
1
5
255

> <PUBCHEM_BONDANNOTATIONS>
11  12  8
11  15  8
12  16  8
15  19  8
16  20  8
19  20  8
23  25  8
23  26  8
25  27  8
26  28  8
27  29  8
28  29  8
5  10  8
5  12  8
8  10  8
8  9  8
9  11  8

$$$$

