164695
  -OEChem-07051212503D

 39 41  0     0  0  0  0  0  0999 V2000
    0.0001    1.4770   -0.0062 S   0  0  0  0  0  0  0  0  0  0  0  0
   -0.0001   -1.6481   -0.0020 N   0  0  0  0  0  0  0  0  0  0  0  0
    5.1019    0.7164   -0.0163 N   0  0  0  0  0  0  0  0  0  0  0  0
   -5.1018    0.7166    0.0209 N   0  0  0  0  0  0  0  0  0  0  0  0
    1.2588   -1.0273   -0.0060 C   0  0  0  0  0  0  0  0  0  0  0  0
   -1.2589   -1.0272    0.0024 C   0  0  0  0  0  0  0  0  0  0  0  0
    1.3996    0.3694   -0.0078 C   0  0  0  0  0  0  0  0  0  0  0  0
   -1.3997    0.3695    0.0018 C   0  0  0  0  0  0  0  0  0  0  0  0
    3.8189    0.1310   -0.0126 C   0  0  0  0  0  0  0  0  0  0  0  0
   -3.8189    0.1312    0.0136 C   0  0  0  0  0  0  0  0  0  0  0  0
    2.6823    0.9391   -0.0112 C   0  0  0  0  0  0  0  0  0  0  0  0
   -2.6824    0.9392    0.0075 C   0  0  0  0  0  0  0  0  0  0  0  0
    2.4146   -1.8270   -0.0081 C   0  0  0  0  0  0  0  0  0  0  0  0
   -2.4147   -1.8268    0.0085 C   0  0  0  0  0  0  0  0  0  0  0  0
    3.6853   -1.2526   -0.0114 C   0  0  0  0  0  0  0  0  0  0  0  0
   -3.6854   -1.2525    0.0141 C   0  0  0  0  0  0  0  0  0  0  0  0
    6.2208    0.0368    0.6060 C   0  0  0  0  0  0  0  0  0  0  0  0
    5.3216    1.9992   -0.6547 C   0  0  0  0  0  0  0  0  0  0  0  0
   -6.2227    0.0361   -0.5967 C   0  0  0  0  0  0  0  0  0  0  0  0
   -5.3194    2.0002    0.6582 C   0  0  0  0  0  0  0  0  0  0  0  0
   -0.0001   -2.6619   -0.0015 H   0  0  0  0  0  0  0  0  0  0  0  0
    2.7781    2.0229    0.0005 H   0  0  0  0  0  0  0  0  0  0  0  0
   -2.7782    2.0230   -0.0059 H   0  0  0  0  0  0  0  0  0  0  0  0
    2.3291   -2.9117   -0.0095 H   0  0  0  0  0  0  0  0  0  0  0  0
   -2.3291   -2.9115    0.0119 H   0  0  0  0  0  0  0  0  0  0  0  0
    4.5469   -1.9140   -0.0250 H   0  0  0  0  0  0  0  0  0  0  0  0
   -4.5469   -1.9137    0.0311 H   0  0  0  0  0  0  0  0  0  0  0  0
    5.9347   -0.4145    1.5628 H   0  0  0  0  0  0  0  0  0  0  0  0
    7.0376    0.7354    0.8195 H   0  0  0  0  0  0  0  0  0  0  0  0
    6.6176   -0.7419   -0.0539 H   0  0  0  0  0  0  0  0  0  0  0  0
    6.3838    2.1537   -0.8753 H   0  0  0  0  0  0  0  0  0  0  0  0
    4.9989    2.8175   -0.0025 H   0  0  0  0  0  0  0  0  0  0  0  0
    4.7886    2.0690   -1.6097 H   0  0  0  0  0  0  0  0  0  0  0  0
   -6.6174   -0.7417    0.0655 H   0  0  0  0  0  0  0  0  0  0  0  0
   -5.9398   -0.4165   -1.5539 H   0  0  0  0  0  0  0  0  0  0  0  0
   -7.0402    0.7344   -0.8086 H   0  0  0  0  0  0  0  0  0  0  0  0
   -4.7833    2.0714    1.6114 H   0  0  0  0  0  0  0  0  0  0  0  0
   -6.3809    2.1550    0.8821 H   0  0  0  0  0  0  0  0  0  0  0  0
   -4.9989    2.8176    0.0039 H   0  0  0  0  0  0  0  0  0  0  0  0
  1  7  1  0  0  0  0
  1  8  1  0  0  0  0
  2  5  1  0  0  0  0
  2  6  1  0  0  0  0
  2 21  1  0  0  0  0
  3  9  1  0  0  0  0
  3 17  1  0  0  0  0
  3 18  1  0  0  0  0
  4 10  1  0  0  0  0
  4 19  1  0  0  0  0
  4 20  1  0  0  0  0
  5  7  2  0  0  0  0
  5 13  1  0  0  0  0
  6  8  2  0  0  0  0
  6 14  1  0  0  0  0
  7 11  1  0  0  0  0
  8 12  1  0  0  0  0
  9 11  2  0  0  0  0
  9 15  1  0  0  0  0
 10 12  2  0  0  0  0
 10 16  1  0  0  0  0
 11 22  1  0  0  0  0
 12 23  1  0  0  0  0
 13 15  2  0  0  0  0
 13 24  1  0  0  0  0
 14 16  2  0  0  0  0
 14 25  1  0  0  0  0
 15 26  1  0  0  0  0
 16 27  1  0  0  0  0
 17 28  1  0  0  0  0
 17 29  1  0  0  0  0
 17 30  1  0  0  0  0
 18 31  1  0  0  0  0
 18 32  1  0  0  0  0
 18 33  1  0  0  0  0
 19 34  1  0  0  0  0
 19 35  1  0  0  0  0
 19 36  1  0  0  0  0
 20 37  1  0  0  0  0
 20 38  1  0  0  0  0
 20 39  1  0  0  0  0
M  END
> <PUBCHEM_COMPOUND_CID>
164695

> <PUBCHEM_CONFORMER_RMSD>
0.6

> <PUBCHEM_CONFORMER_DIVERSEORDER>
1
2

> <PUBCHEM_MMFF94_PARTIAL_CHARGES>
27
1 -0.2
10 0.1
11 -0.15
12 -0.15
13 -0.15
14 -0.15
15 -0.15
16 -0.15
17 0.37
18 0.37
19 0.37
2 -0.6
20 0.37
21 0.4
22 0.15
23 0.15
24 0.15
25 0.15
26 0.15
27 0.15
3 -0.84
4 -0.84
5 0.1
6 0.1
7 0.1
8 0.1
9 0.1

> <PUBCHEM_EFFECTIVE_ROTOR_COUNT>
2.4

> <PUBCHEM_PHARMACOPHORE_FEATURES>
7
1 2 cation
1 2 donor
1 3 cation
1 4 cation
6 1 2 5 6 7 8 rings
6 5 7 9 11 13 15 rings
6 6 8 10 12 14 16 rings

> <PUBCHEM_HEAVY_ATOM_COUNT>
20

> <PUBCHEM_ATOM_DEF_STEREO_COUNT>
0

> <PUBCHEM_ATOM_UDEF_STEREO_COUNT>
0

> <PUBCHEM_BOND_DEF_STEREO_COUNT>
0

> <PUBCHEM_BOND_UDEF_STEREO_COUNT>
0

> <PUBCHEM_ISOTOPIC_ATOM_COUNT>
0

> <PUBCHEM_COMPONENT_COUNT>
1

> <PUBCHEM_CACTVS_TAUTO_COUNT>
1

> <PUBCHEM_CONFORMER_ID>
0002835700000001

> <PUBCHEM_MMFF94_ENERGY>
93.4604

> <PUBCHEM_FEATURE_SELFOVERLAP>
35.55

> <PUBCHEM_SHAPE_FINGERPRINT>
10 15 17988638575651886145
10366900 7 16805322201792967843
10906281 52 18338781373415817218
11089746 13 17821736017711942664
12107183 9 17688306111136030489
12236239 1 18410293613981361546
12616971 3 16128651916742207678
12788726 201 17531803687749622313
13073987 5 18410290359150531963
13533116 47 17822573918576416686
14251764 18 18333729122714966985
14528608 73 18333450923933146460
14790565 3 18410851062082150884
15048467 5 18410573989446697769
15196674 1 18410572885640154663
1601671 61 18409729556311707600
18222031 100 6194837051580992154
200 152 17822014211776542763
20281389 69 18131073731377489781
20621476 66 18261385715704751601
20645477 70 18188489193524632350
21150785 3 16081376228188483285
21267235 1 18410847767842117926
21279426 13 18192429890759284613
21304253 335 18342168968815244948
21421861 104 17916315003401673354
23402539 116 18334019362881210854
23402655 69 18334014994830957350
23559900 14 18261962834090579232
300161 21 18410860961986549223
3004659 81 18413106195618301598
335352 9 18411418411031201294
34797466 226 16371006261146587328
34934 24 18410578387493358279
3545911 37 18410293609686394254
3680242 22 18270964656293672514
4072396 5 18410303514746304818
4073 2 18059851723812561498
4214541 1 18410856546760168937
4340502 62 16773794809662290114
474 4 18060414686239050692
5104073 3 18342176665428190794
542803 24 18410855460128194276

> <PUBCHEM_SHAPE_MULTIPOLES>
400.5
14.12
2.02
0.69
0
0.02
0
-5.15
0.03
0
0
0
-0.1
-0.7

> <PUBCHEM_SHAPE_SELFOVERLAP>
847.078

> <PUBCHEM_SHAPE_VOLUME>
227.3

> <PUBCHEM_COORDINATE_TYPE>
2
5
10

$$$$

