14307
  -OEChem-06241222433D

 18 18  0     0  0  0  0  0  0999 V2000
    4.1430   -0.3261   -0.0005 Cl  0  0  0  0  0  0  0  0  0  0  0  0
   -2.4277   -0.8497    0.0000 O   0  0  0  0  0  0  0  0  0  0  0  0
   -2.3616    1.4512    0.0002 O   0  0  0  0  0  0  0  0  0  0  0  0
   -0.3377    0.1907    0.0006 C   0  0  0  0  0  0  0  0  0  0  0  0
    0.4934    1.3109    0.0001 C   0  0  0  0  0  0  0  0  0  0  0  0
    0.2168   -1.0892    0.0008 C   0  0  0  0  0  0  0  0  0  0  0  0
    1.8791    1.1511   -0.0005 C   0  0  0  0  0  0  0  0  0  0  0  0
    1.6025   -1.2489    0.0003 C   0  0  0  0  0  0  0  0  0  0  0  0
    2.4336   -0.1288   -0.0003 C   0  0  0  0  0  0  0  0  0  0  0  0
   -1.7825    0.3569    0.0007 C   0  0  0  0  0  0  0  0  0  0  0  0
   -3.8590   -0.8181   -0.0013 C   0  0  0  0  0  0  0  0  0  0  0  0
    0.0820    2.3169   -0.0001 H   0  0  0  0  0  0  0  0  0  0  0  0
   -0.3908   -1.9898    0.0013 H   0  0  0  0  0  0  0  0  0  0  0  0
    2.5147    2.0329   -0.0011 H   0  0  0  0  0  0  0  0  0  0  0  0
    2.0212   -2.2521    0.0006 H   0  0  0  0  0  0  0  0  0  0  0  0
   -4.2224   -1.8491   -0.0016 H   0  0  0  0  0  0  0  0  0  0  0  0
   -4.2241   -0.3150   -0.9015 H   0  0  0  0  0  0  0  0  0  0  0  0
   -4.2256   -0.3150    0.8984 H   0  0  0  0  0  0  0  0  0  0  0  0
  1  9  1  0  0  0  0
  2 10  1  0  0  0  0
  2 11  1  0  0  0  0
  3 10  2  0  0  0  0
  4  5  2  0  0  0  0
  4  6  1  0  0  0  0
  4 10  1  0  0  0  0
  5  7  1  0  0  0  0
  5 12  1  0  0  0  0
  6  8  2  0  0  0  0
  6 13  1  0  0  0  0
  7  9  2  0  0  0  0
  7 14  1  0  0  0  0
  8  9  1  0  0  0  0
  8 15  1  0  0  0  0
 11 16  1  0  0  0  0
 11 17  1  0  0  0  0
 11 18  1  0  0  0  0
M  END
> <PUBCHEM_COMPOUND_CID>
14307

> <PUBCHEM_CONFORMER_RMSD>
0.4

> <PUBCHEM_CONFORMER_DIVERSEORDER>
1
2

> <PUBCHEM_MMFF94_PARTIAL_CHARGES>
15
1 -0.18
10 0.63
11 0.28
12 0.15
13 0.15
14 0.15
15 0.15
2 -0.43
3 -0.57
4 0.09
5 -0.15
6 -0.15
7 -0.15
8 -0.15
9 0.18

> <PUBCHEM_EFFECTIVE_ROTOR_COUNT>
2

> <PUBCHEM_PHARMACOPHORE_FEATURES>
2
1 3 acceptor
6 4 5 6 7 8 9 rings

> <PUBCHEM_HEAVY_ATOM_COUNT>
11

> <PUBCHEM_ATOM_DEF_STEREO_COUNT>
0

> <PUBCHEM_ATOM_UDEF_STEREO_COUNT>
0

> <PUBCHEM_BOND_DEF_STEREO_COUNT>
0

> <PUBCHEM_BOND_UDEF_STEREO_COUNT>
0

> <PUBCHEM_ISOTOPIC_ATOM_COUNT>
0

> <PUBCHEM_COMPONENT_COUNT>
1

> <PUBCHEM_CACTVS_TAUTO_COUNT>
1

> <PUBCHEM_CONFORMER_ID>
000037E300000001

> <PUBCHEM_MMFF94_ENERGY>
28.5378

> <PUBCHEM_FEATURE_SELFOVERLAP>
10.148

> <PUBCHEM_SHAPE_FINGERPRINT>
11062470 55 12319741357919320470
12032990 46 18408317813536039678
12897270 3 18412547587375526783
12932764 1 17095536101057587046
13690532 89 18413109472398851562
14325111 11 18410573994063333984
14993402 34 17988917856332617422
16945 1 18410855425805405158
193761 8 17474108078166009414
200 152 18114191821850287823
20201158 50 18413669106220925523
20871998 22 18189044451465634134
21040471 1 18338797806345872032
21293036 1 18412820275070683038
21501925 9 18411991251671786914
23402539 116 18409176497446364727
23402655 69 18193290791527264861
23463225 33 18341896329050192922
23552423 10 18271803553184091013
2748010 2 18265051525350586510
3312278 4 18336264651455981400
5084963 1 18334856095440506528
528886 8 18337960089938372248
8809292 202 18129938966832358179

> <PUBCHEM_SHAPE_MULTIPOLES>
216.51
6.03
1.44
0.6
0.65
0.2
0
-1.29
0
0.16
0
-0.06
-0.01
0

> <PUBCHEM_SHAPE_SELFOVERLAP>
440.636

> <PUBCHEM_SHAPE_VOLUME>
127.4

> <PUBCHEM_COORDINATE_TYPE>
2
5
10

$$$$

