49787014
  -OEChem-07051212552D

 45 46  0     1  0  0  0  0  0999 V2000
    6.4747    0.4069    0.0000 O   0  0  0  0  0  0  0  0  0  0  0  0
    4.7690    0.1062    0.0000 O   0  0  0  0  0  0  0  0  0  0  0  0
    5.9538    3.3613    0.0000 O   0  0  0  0  0  0  0  0  0  0  0  0
    4.4217    2.0758    0.0000 O   0  0  0  0  0  0  0  0  0  0  0  0
    7.8332    2.6773    0.0000 O   0  0  0  0  0  0  0  0  0  0  0  0
    2.5369   -0.7599    0.0000 O   0  0  0  0  0  0  0  0  0  0  0  0
    8.9465    1.3505    0.0000 O   0  0  0  0  0  0  0  0  0  0  0  0
    6.1198   -1.4335    0.0000 O   0  0  0  0  0  0  0  0  0  0  0  0
    4.2690   -3.7599    0.0000 O   0  0  0  0  0  0  0  0  0  0  0  0
    3.4030   -2.2599    0.0000 N   0  0  0  0  0  0  0  0  0  0  0  0
    3.2690    0.9722    0.0000 N   0  0  0  0  0  0  0  0  0  0  0  0
    6.1274    2.3765    0.0000 C   0  0  2  0  0  0  0  0  0  0  0  0
    5.3614    1.7338    0.0000 C   0  0  2  0  0  0  0  0  0  0  0  0
    7.0671    2.0345    0.0000 C   0  0  1  0  0  0  0  0  0  0  0  0
    5.5350    0.7489    0.0000 C   0  0  1  0  0  0  0  0  0  0  0  0
    7.2408    1.0497    0.0000 C   0  0  1  0  0  0  0  0  0  0  0  0
    4.2690   -0.7599    0.0000 C   0  0  1  0  0  0  0  0  0  0  0  0
    3.4030   -1.2599    0.0000 C   0  0  2  0  0  0  0  0  0  0  0  0
    8.1805    0.7077    0.0000 C   0  0  0  0  0  0  0  0  0  0  0  0
    5.1350   -1.2599    0.0000 C   0  0  0  0  0  0  0  0  0  0  0  0
    5.1350   -2.2599    0.0000 C   0  0  0  0  0  0  0  0  0  0  0  0
    4.2690   -2.7599    0.0000 C   0  0  0  0  0  0  0  0  0  0  0  0
    3.7690    0.1062    0.0000 C   0  0  0  0  0  0  0  0  0  0  0  0
    2.5369   -2.7599    0.0000 C   0  0  0  0  0  0  0  0  0  0  0  0
    6.4618   -2.3732    0.0000 C   0  0  0  0  0  0  0  0  0  0  0  0
    5.5448    2.5886    0.0000 H   0  0  0  0  0  0  0  0  0  0  0  0
    5.2537    2.3443    0.0000 H   0  0  0  0  0  0  0  0  0  0  0  0
    7.6497    1.8225    0.0000 H   0  0  0  0  0  0  0  0  0  0  0  0
    4.9524    0.9610    0.0000 H   0  0  0  0  0  0  0  0  0  0  0  0
    7.3484    0.4391    0.0000 H   0  0  0  0  0  0  0  0  0  0  0  0
    3.4030   -0.6399    0.0000 H   0  0  0  0  0  0  0  0  0  0  0  0
    7.8705    0.1708    0.0000 H   0  0  0  0  0  0  0  0  0  0  0  0
    8.6554    0.3092    0.0000 H   0  0  0  0  0  0  0  0  0  0  0  0
    6.4287    3.7599    0.0000 H   0  0  0  0  0  0  0  0  0  0  0  0
    4.3140    2.6864    0.0000 H   0  0  0  0  0  0  0  0  0  0  0  0
    7.7255    3.2879    0.0000 H   0  0  0  0  0  0  0  0  0  0  0  0
    5.6720   -2.5699    0.0000 H   0  0  0  0  0  0  0  0  0  0  0  0
    2.2269   -2.2229    0.0000 H   0  0  0  0  0  0  0  0  0  0  0  0
    2.0000   -3.0699    0.0000 H   0  0  0  0  0  0  0  0  0  0  0  0
    2.8469   -3.2968    0.0000 H   0  0  0  0  0  0  0  0  0  0  0  0
    2.0000   -1.0699    0.0000 H   0  0  0  0  0  0  0  0  0  0  0  0
    9.5291    1.1384    0.0000 H   0  0  0  0  0  0  0  0  0  0  0  0
    5.8792   -2.5853    0.0000 H   0  0  0  0  0  0  0  0  0  0  0  0
    6.6739   -2.9558    0.0000 H   0  0  0  0  0  0  0  0  0  0  0  0
    7.0444   -2.1612    0.0000 H   0  0  0  0  0  0  0  0  0  0  0  0
  1 15  1  0  0  0  0
  1 16  1  0  0  0  0
 15  2  1  1  0  0  0
 17  2  1  6  0  0  0
 12  3  1  1  0  0  0
  3 34  1  0  0  0  0
 13  4  1  6  0  0  0
  4 35  1  0  0  0  0
 14  5  1  6  0  0  0
  5 36  1  0  0  0  0
 18  6  1  1  0  0  0
  6 41  1  0  0  0  0
  7 19  1  0  0  0  0
  7 42  1  0  0  0  0
  8 20  1  0  0  0  0
  8 25  1  0  0  0  0
  9 22  2  0  0  0  0
 10 18  1  0  0  0  0
 10 22  1  0  0  0  0
 10 24  1  0  0  0  0
 11 23  3  0  0  0  0
 12 13  1  0  0  0  0
 12 14  1  0  0  0  0
 12 26  1  0  0  0  0
 13 15  1  0  0  0  0
 13 27  1  0  0  0  0
 14 16  1  0  0  0  0
 14 28  1  0  0  0  0
 15 29  1  0  0  0  0
 16 19  1  1  0  0  0
 16 30  1  0  0  0  0
 17 18  1  0  0  0  0
 17 20  1  0  0  0  0
 17 23  1  0  0  0  0
 18 31  1  0  0  0  0
 19 32  1  0  0  0  0
 19 33  1  0  0  0  0
 20 21  2  0  0  0  0
 21 22  1  0  0  0  0
 21 37  1  0  0  0  0
 24 38  1  0  0  0  0
 24 39  1  0  0  0  0
 24 40  1  0  0  0  0
 25 43  1  0  0  0  0
 25 44  1  0  0  0  0
 25 45  1  0  0  0  0
M  END
> <PUBCHEM_COMPOUND_CID>
49787014

> <PUBCHEM_COMPOUND_CANONICALIZED>
1

> <PUBCHEM_CACTVS_COMPLEXITY>
602

> <PUBCHEM_CACTVS_HBOND_ACCEPTOR>
10

> <PUBCHEM_CACTVS_HBOND_DONOR>
5

> <PUBCHEM_CACTVS_ROTATABLE_BOND>
4

> <PUBCHEM_CACTVS_SUBSKEYS>
AAADceBzPAAAAAAAAAAAAAAAAAAAAAAAAAAkQAAAAAAAAAAAAAAAHgAACAAADFTxgAcCCAMABgCYBCFSEACACAAgIAAACAAIAEgTlAIAIAAnUAAHRgCfIQPAYAwAAAAAAAAAAAAAAAAAAAAAAAAAAAAAAA==

> <PUBCHEM_IUPAC_OPENEYE_NAME>
(2S,3R)-2-hydroxy-4-methoxy-1-methyl-6-oxo-3-[(2S,3R,4S,5S,6R)-3,4,5-trihydroxy-6-(hydroxymethyl)tetrahydropyran-2-yl]oxy-2H-pyridine-3-carbonitrile

> <PUBCHEM_IUPAC_CAS_NAME>
(2S,3R)-2-hydroxy-4-methoxy-1-methyl-6-oxo-3-[[(2S,3R,4S,5S,6R)-3,4,5-trihydroxy-6-(hydroxymethyl)-2-oxanyl]oxy]-2H-pyridine-3-carbonitrile

> <PUBCHEM_IUPAC_NAME>
(2S,3R)-2-hydroxy-4-methoxy-1-methyl-6-oxo-3-[(2S,3R,4S,5S,6R)-3,4,5-trihydroxy-6-(hydroxymethyl)oxan-2-yl]oxy-2H-pyridine-3-carbonitrile

> <PUBCHEM_IUPAC_SYSTEMATIC_NAME>
(2S,3R)-3-[(2S,3R,4S,5S,6R)-6-(hydroxymethyl)-3,4,5-tris(oxidanyl)oxan-2-yl]oxy-4-methoxy-1-methyl-2-oxidanyl-6-oxidanylidene-2H-pyridine-3-carbonitrile

> <PUBCHEM_IUPAC_TRADITIONAL_NAME>
(2S,3R)-2-hydroxy-6-keto-4-methoxy-1-methyl-3-[(2S,3R,4S,5S,6R)-3,4,5-trihydroxy-6-methylol-tetrahydropyran-2-yl]oxy-2H-pyridine-3-carbonitrile

> <PUBCHEM_IUPAC_INCHI>
InChI=1S/C14H20N2O9/c1-16-8(18)3-7(23-2)14(5-15,13(16)22)25-12-11(21)10(20)9(19)6(4-17)24-12/h3,6,9-13,17,19-22H,4H2,1-2H3/t6-,9-,10+,11-,12+,13+,14-/m1/s1

> <PUBCHEM_IUPAC_INCHIKEY>
QZRKNNXRNBTODR-JKTRLFLGSA-N

> <PUBCHEM_XLOGP3_AA>
-2.9

> <PUBCHEM_EXACT_MASS>
360.11688

> <PUBCHEM_MOLECULAR_FORMULA>
C14H20N2O9

> <PUBCHEM_MOLECULAR_WEIGHT>
360.3166

> <PUBCHEM_OPENEYE_CAN_SMILES>
CN1C(C(C(=CC1=O)OC)(C#N)OC2C(C(C(C(O2)CO)O)O)O)O

> <PUBCHEM_OPENEYE_ISO_SMILES>
CN1[C@H]([C@](C(=CC1=O)OC)(C#N)O[C@H]2[C@@H]([C@H]([C@@H]([C@H](O2)CO)O)O)O)O

> <PUBCHEM_CACTVS_TPSA>
173

> <PUBCHEM_MONOISOTOPIC_WEIGHT>
360.11688

> <PUBCHEM_TOTAL_CHARGE>
0

> <PUBCHEM_HEAVY_ATOM_COUNT>
25

> <PUBCHEM_ATOM_DEF_STEREO_COUNT>
7

> <PUBCHEM_ATOM_UDEF_STEREO_COUNT>
0

> <PUBCHEM_BOND_DEF_STEREO_COUNT>
0

> <PUBCHEM_BOND_UDEF_STEREO_COUNT>
0

> <PUBCHEM_ISOTOPIC_ATOM_COUNT>
0

> <PUBCHEM_COMPONENT_COUNT>
1

> <PUBCHEM_CACTVS_TAUTO_COUNT>
1

> <PUBCHEM_COORDINATE_TYPE>
1
5
255

> <PUBCHEM_BONDANNOTATIONS>
16  19  5
15  2  5
17  2  6
12  3  5
13  4  6
14  5  6
18  6  5

$$$$

