17395401
  -OEChem-06241222503D

 48 50  0     0  0  0  0  0  0999 V2000
   -2.1445   -2.5309    0.2285 S   0  0  0  0  0  0  0  0  0  0  0  0
    1.6670   -0.1255    1.0943 O   0  0  0  0  0  0  0  0  0  0  0  0
   -7.2508    1.6351    0.3088 O   0  0  0  0  0  0  0  0  0  0  0  0
    3.3013    0.1118   -0.5377 N   0  0  0  0  0  0  0  0  0  0  0  0
   -1.1976   -0.3120   -0.7002 N   0  0  0  0  0  0  0  0  0  0  0  0
    4.3338    0.6609    0.3174 C   0  0  0  0  0  0  0  0  0  0  0  0
    5.1677    1.6884   -0.4547 C   0  0  0  0  0  0  0  0  0  0  0  0
    5.1044   -0.4821    0.9857 C   0  0  0  0  0  0  0  0  0  0  0  0
    6.3290    1.1086   -1.2609 C   0  0  0  0  0  0  0  0  0  0  0  0
    6.4415   -0.0870    1.6065 C   0  0  0  0  0  0  0  0  0  0  0  0
    7.6081    0.9697   -0.4366 C   0  0  0  0  0  0  0  0  0  0  0  0
    7.5946   -0.1433    0.6057 C   0  0  0  0  0  0  0  0  0  0  0  0
    2.0444   -0.2372   -0.0693 C   0  0  0  0  0  0  0  0  0  0  0  0
    1.1771   -0.8019   -1.1808 C   0  0  0  0  0  0  0  0  0  0  0  0
   -0.1692   -1.2342   -0.6917 C   0  0  0  0  0  0  0  0  0  0  0  0
   -0.4904   -2.4909   -0.2228 C   0  0  0  0  0  0  0  0  0  0  0  0
   -2.2859   -0.8851   -0.2363 C   0  0  0  0  0  0  0  0  0  0  0  0
   -3.5671   -0.2347   -0.0949 C   0  0  0  0  0  0  0  0  0  0  0  0
   -3.6420    1.1576   -0.0544 C   0  0  0  0  0  0  0  0  0  0  0  0
   -4.7304   -0.9987    0.0000 C   0  0  0  0  0  0  0  0  0  0  0  0
   -4.8799    1.7859    0.0812 C   0  0  0  0  0  0  0  0  0  0  0  0
   -5.9683   -0.3704    0.1356 C   0  0  0  0  0  0  0  0  0  0  0  0
   -6.0430    1.0219    0.1762 C   0  0  0  0  0  0  0  0  0  0  0  0
   -8.3996    0.7939    0.4005 C   0  0  0  0  0  0  0  0  0  0  0  0
    3.8190    1.2173    1.1124 H   0  0  0  0  0  0  0  0  0  0  0  0
    5.5545    2.4385    0.2472 H   0  0  0  0  0  0  0  0  0  0  0  0
    4.5086    2.2395   -1.1391 H   0  0  0  0  0  0  0  0  0  0  0  0
    5.2564   -1.3076    0.2774 H   0  0  0  0  0  0  0  0  0  0  0  0
    4.4658   -0.8986    1.7767 H   0  0  0  0  0  0  0  0  0  0  0  0
    6.0571    0.1554   -1.7279 H   0  0  0  0  0  0  0  0  0  0  0  0
    6.5460    1.8051   -2.0809 H   0  0  0  0  0  0  0  0  0  0  0  0
    6.6664   -0.8093    2.4019 H   0  0  0  0  0  0  0  0  0  0  0  0
    6.3833    0.8957    2.0878 H   0  0  0  0  0  0  0  0  0  0  0  0
    8.4420    0.7781   -1.1237 H   0  0  0  0  0  0  0  0  0  0  0  0
    7.8345    1.9241    0.0550 H   0  0  0  0  0  0  0  0  0  0  0  0
    7.5946   -1.1158    0.0979 H   0  0  0  0  0  0  0  0  0  0  0  0
    8.5382   -0.0932    1.1638 H   0  0  0  0  0  0  0  0  0  0  0  0
    3.5367   -0.0796   -1.5076 H   0  0  0  0  0  0  0  0  0  0  0  0
    1.6987   -1.6518   -1.6374 H   0  0  0  0  0  0  0  0  0  0  0  0
    1.0583   -0.0324   -1.9529 H   0  0  0  0  0  0  0  0  0  0  0  0
    0.1440   -3.3604   -0.1251 H   0  0  0  0  0  0  0  0  0  0  0  0
   -2.7492    1.7745   -0.1234 H   0  0  0  0  0  0  0  0  0  0  0  0
   -4.7439   -2.0831   -0.0522 H   0  0  0  0  0  0  0  0  0  0  0  0
   -4.9320    2.8708    0.1131 H   0  0  0  0  0  0  0  0  0  0  0  0
   -6.8326   -1.0227    0.1981 H   0  0  0  0  0  0  0  0  0  0  0  0
   -8.5442    0.2091   -0.5143 H   0  0  0  0  0  0  0  0  0  0  0  0
   -8.3664    0.1635    1.2955 H   0  0  0  0  0  0  0  0  0  0  0  0
   -9.2718    1.4481    0.5027 H   0  0  0  0  0  0  0  0  0  0  0  0
  1 16  1  0  0  0  0
  1 17  1  0  0  0  0
  2 13  2  0  0  0  0
  3 23  1  0  0  0  0
  3 24  1  0  0  0  0
  4  6  1  0  0  0  0
  4 13  1  0  0  0  0
  4 38  1  0  0  0  0
  5 15  1  0  0  0  0
  5 17  2  0  0  0  0
  6  7  1  0  0  0  0
  6  8  1  0  0  0  0
  6 25  1  0  0  0  0
  7  9  1  0  0  0  0
  7 26  1  0  0  0  0
  7 27  1  0  0  0  0
  8 10  1  0  0  0  0
  8 28  1  0  0  0  0
  8 29  1  0  0  0  0
  9 11  1  0  0  0  0
  9 30  1  0  0  0  0
  9 31  1  0  0  0  0
 10 12  1  0  0  0  0
 10 32  1  0  0  0  0
 10 33  1  0  0  0  0
 11 12  1  0  0  0  0
 11 34  1  0  0  0  0
 11 35  1  0  0  0  0
 12 36  1  0  0  0  0
 12 37  1  0  0  0  0
 13 14  1  0  0  0  0
 14 15  1  0  0  0  0
 14 39  1  0  0  0  0
 14 40  1  0  0  0  0
 15 16  2  0  0  0  0
 16 41  1  0  0  0  0
 17 18  1  0  0  0  0
 18 19  2  0  0  0  0
 18 20  1  0  0  0  0
 19 21  1  0  0  0  0
 19 42  1  0  0  0  0
 20 22  2  0  0  0  0
 20 43  1  0  0  0  0
 21 23  2  0  0  0  0
 21 44  1  0  0  0  0
 22 23  1  0  0  0  0
 22 45  1  0  0  0  0
 24 46  1  0  0  0  0
 24 47  1  0  0  0  0
 24 48  1  0  0  0  0
M  END
> <PUBCHEM_COMPOUND_CID>
17395401

> <PUBCHEM_CONFORMER_RMSD>
0.8

> <PUBCHEM_CONFORMER_DIVERSEORDER>
1
121
164
45
67
170
93
17
119
120
185
47
140
133
126
30
177
97
117
19
37
161
29
12
111
102
143
163
130
181
131
186
115
92
58
146
118
182
160
149
94
137
139
100
46
24
88
166
84
184
23
147
141
16
39
157
151
138
27
159
144
168
127
132
35
50
175
70
171
43
155
26
134
20
169
82
51
178
41
136
8
103
124
87
4
80
113
83
125
179
66
153
150
98
78
114
55
152
110
52
142
109
167
61
174
40
7
145
148
81
60
76
122
42
53
14
74
180
68
89
128
63
183
22
105
28
54
33
32
187
158
15
156
154
116
79
69
57
173
36
10
6
2
162
165
31
123
59
49
176
73
21
101
77
62
85
135
64
75
106
99
72
86
91
18
38
44
65
71
48
5
107
172
25
34
90
13
96
56
9
3
95
129
108
112
11
104

> <PUBCHEM_MMFF94_PARTIAL_CHARGES>
24
1 -0.08
13 0.57
14 0.24
15 0.05
16 -0.11
17 0.33
18 0.05
19 -0.15
2 -0.57
20 -0.15
21 -0.15
22 -0.15
23 0.08
24 0.28
3 -0.36
38 0.37
4 -0.73
41 0.15
42 0.15
43 0.15
44 0.15
45 0.15
5 -0.57
6 0.3

> <PUBCHEM_EFFECTIVE_ROTOR_COUNT>
7.4

> <PUBCHEM_PHARMACOPHORE_FEATURES>
7
1 2 acceptor
1 3 acceptor
1 4 donor
1 5 acceptor
5 1 5 15 16 17 rings
6 18 19 20 21 22 23 rings
7 6 7 8 9 10 11 12 rings

> <PUBCHEM_HEAVY_ATOM_COUNT>
24

> <PUBCHEM_ATOM_DEF_STEREO_COUNT>
0

> <PUBCHEM_ATOM_UDEF_STEREO_COUNT>
0

> <PUBCHEM_BOND_DEF_STEREO_COUNT>
0

> <PUBCHEM_BOND_UDEF_STEREO_COUNT>
0

> <PUBCHEM_ISOTOPIC_ATOM_COUNT>
0

> <PUBCHEM_COMPONENT_COUNT>
1

> <PUBCHEM_CACTVS_TAUTO_COUNT>
2

> <PUBCHEM_CONFORMER_ID>
01096EC900000001

> <PUBCHEM_MMFF94_ENERGY>
56.3056

> <PUBCHEM_FEATURE_SELFOVERLAP>
35.52

> <PUBCHEM_SHAPE_FINGERPRINT>
10 15 18201996634337871329
10299344 5 17989208136271911442
10319926 262 18337680698137150474
10411042 1 17833268615763953199
106641 1 17704066284013964065
11315181 36 17989488485909330539
12107183 9 18343028826259242522
12236239 1 17917713474379937450
12516196 113 12319738063684731446
12596602 18 17561363954777714409
12778500 126 18273495663969141700
12838862 33 18336842960993512685
13288520 33 9799692597890547247
13540713 5 17057786435567102367
13668630 136 11887678403188449138
13685833 64 11600001051025364343
13914758 101 14779536911971536514
14251764 18 18273216382692083966
14257110 125 18410292519344988781
14849402 71 17489014951852373964
14933364 13 18342455933171382148
15142383 8 18261112955532675616
15183329 4 17967809453419291136
15301273 46 15051739706687067022
15461852 350 17967817102787791615
1577012 14 18342461417670526430
15778101 99 18409727335729317127
16989713 51 17386857089196551471
17980427 23 18271805675504851055
18006028 8 11312055448380244535
19611394 137 18057591072308487419
20281389 69 18343304756121924388
20554085 129 17821739346575841562
20621476 66 18411418384934213134
21033648 29 17677350316143656314
21150785 3 5761650386796252428
21223535 225 15791999113217537747
21623969 137 14405192776621160138
21756936 100 18334301950740105223
22224240 67 15985103007139962257
22956985 138 11454243244598319944
23522609 53 17702930467006699092
23559900 14 8430299234694962799
24771293 8 18335979862009859885
2838139 119 17968387792082427501
3009799 131 16153427238489861586
3411729 13 18411982502982550306
3633792 109 14201389504192901438
4073 2 17917425368723120450
5104073 3 17916595220147677242
5219985 9 9871747996915675287
5385378 56 18337673121825733562
999808 66 6699518455783291389

> <PUBCHEM_SHAPE_MULTIPOLES>
476.06
24.34
1.98
1.03
4.88
0.69
-0.08
-13.14
-4.14
-1.92
0.13
1.61
0.03
-1.14

> <PUBCHEM_SHAPE_SELFOVERLAP>
986.894

> <PUBCHEM_SHAPE_VOLUME>
272.6

> <PUBCHEM_COORDINATE_TYPE>
2
5
10

$$$$

