443407
  -OEChem-07051213022D

 63 68  0     1  0  0  0  0  0999 V2000
    5.0395   -1.2488    0.0000 O   0  0  0  0  0  0  0  0  0  0  0  0
    7.4805   -1.4493    0.0000 O   0  0  0  0  0  0  0  0  0  0  0  0
    5.4324   -1.8688    0.0000 O   0  0  0  0  0  0  0  0  0  0  0  0
    2.6200   -1.4493    0.0000 O   0  0  0  0  0  0  0  0  0  0  0  0
    6.0154    2.7600    0.0000 N   0  0  3  0  0  0  0  0  0  0  0  0
    5.5328    0.2525    0.0000 C   0  0  1  0  0  0  0  0  0  0  0  0
    6.0154    1.0883    0.0000 C   0  0  1  0  0  0  0  0  0  0  0  0
    6.0154   -0.5833    0.0000 C   0  0  2  0  0  0  0  0  0  0  0  0
    6.9805   -0.5833    0.0000 C   0  0  1  0  0  0  0  0  0  0  0  0
    5.5328    1.9242    0.0000 C   0  0  1  0  0  0  0  0  0  0  0  0
    6.7124    0.6386    0.0000 C   0  0  0  0  0  0  0  0  0  0  0  0
    6.3478   -0.0906    0.0000 C   0  0  2  0  0  0  0  0  0  0  0  0
    5.0503    1.0883    0.0000 C   0  0  0  0  0  0  0  0  0  0  0  0
    4.5677    0.2525    0.0000 C   0  0  0  0  0  0  0  0  0  0  0  0
    6.9805    1.0883    0.0000 C   0  0  0  0  0  0  0  0  0  0  0  0
    4.5677    1.9242    0.0000 C   0  0  0  0  0  0  0  0  0  0  0  0
    7.4631    0.2525    0.0000 C   0  0  0  0  0  0  0  0  0  0  0  0
    5.0395    2.9334    0.0000 C   0  0  0  0  0  0  0  0  0  0  0  0
    5.8901   -0.9797    0.0000 C   0  0  2  0  0  0  0  0  0  0  0  0
    4.0851    1.0883    0.0000 C   0  0  0  0  0  0  0  0  0  0  0  0
    4.0851   -0.5833    0.0000 C   0  0  0  0  0  0  0  0  0  0  0  0
    6.6864   -1.5849    0.0000 C   0  0  0  0  0  0  0  0  0  0  0  0
    6.9220    3.1820    0.0000 C   0  0  0  0  0  0  0  0  0  0  0  0
    3.1200    1.0883    0.0000 C   0  0  0  0  0  0  0  0  0  0  0  0
    5.0010   -0.5220    0.0000 C   0  0  0  0  0  0  0  0  0  0  0  0
    3.1200   -0.5833    0.0000 C   0  0  0  0  0  0  0  0  0  0  0  0
    2.6374    0.2525    0.0000 C   0  0  0  0  0  0  0  0  0  0  0  0
    8.4805   -1.4493    0.0000 C   0  0  0  0  0  0  0  0  0  0  0  0
    6.5604   -2.5769    0.0000 C   0  0  0  0  0  0  0  0  0  0  0  0
    7.3566   -3.1820    0.0000 C   0  0  0  0  0  0  0  0  0  0  0  0
    6.6385   -1.1614    0.0000 H   0  0  0  0  0  0  0  0  0  0  0  0
    6.3290    1.6265    0.0000 H   0  0  0  0  0  0  0  0  0  0  0  0
    7.2565    0.3413    0.0000 H   0  0  0  0  0  0  0  0  0  0  0  0
    7.0294    1.1714    0.0000 H   0  0  0  0  0  0  0  0  0  0  0  0
    5.5898    0.2940    0.0000 H   0  0  0  0  0  0  0  0  0  0  0  0
    4.4668    1.2981    0.0000 H   0  0  0  0  0  0  0  0  0  0  0  0
    5.6487    1.2505    0.0000 H   0  0  0  0  0  0  0  0  0  0  0  0
    7.2905    1.6253    0.0000 H   0  0  0  0  0  0  0  0  0  0  0  0
    4.6754    2.5348    0.0000 H   0  0  0  0  0  0  0  0  0  0  0  0
    3.9851    2.1362    0.0000 H   0  0  0  0  0  0  0  0  0  0  0  0
    8.0831    0.2525    0.0000 H   0  0  0  0  0  0  0  0  0  0  0  0
    5.1109    3.5493    0.0000 H   0  0  0  0  0  0  0  0  0  0  0  0
    4.4205    2.9674    0.0000 H   0  0  0  0  0  0  0  0  0  0  0  0
    7.2786   -1.7686    0.0000 H   0  0  0  0  0  0  0  0  0  0  0  0
    6.9701   -1.0336    0.0000 H   0  0  0  0  0  0  0  0  0  0  0  0
    7.1836    2.6199    0.0000 H   0  0  0  0  0  0  0  0  0  0  0  0
    7.4841    3.4436    0.0000 H   0  0  0  0  0  0  0  0  0  0  0  0
    6.6604    3.7441    0.0000 H   0  0  0  0  0  0  0  0  0  0  0  0
    2.8100    1.6253    0.0000 H   0  0  0  0  0  0  0  0  0  0  0  0
    5.2848    0.0292    0.0000 H   0  0  0  0  0  0  0  0  0  0  0  0
    4.4498   -0.2383    0.0000 H   0  0  0  0  0  0  0  0  0  0  0  0
    4.7172   -1.0733    0.0000 H   0  0  0  0  0  0  0  0  0  0  0  0
    5.7680   -2.3903    0.0000 H   0  0  0  0  0  0  0  0  0  0  0  0
    2.0174    0.2525    0.0000 H   0  0  0  0  0  0  0  0  0  0  0  0
    8.4805   -2.0693    0.0000 H   0  0  0  0  0  0  0  0  0  0  0  0
    9.1005   -1.4493    0.0000 H   0  0  0  0  0  0  0  0  0  0  0  0
    8.4805   -0.8293    0.0000 H   0  0  0  0  0  0  0  0  0  0  0  0
    5.9682   -2.3932    0.0000 H   0  0  0  0  0  0  0  0  0  0  0  0
    6.2767   -3.1282    0.0000 H   0  0  0  0  0  0  0  0  0  0  0  0
    2.0000   -1.4493    0.0000 H   0  0  0  0  0  0  0  0  0  0  0  0
    6.9815   -3.6756    0.0000 H   0  0  0  0  0  0  0  0  0  0  0  0
    7.8502   -3.5571    0.0000 H   0  0  0  0  0  0  0  0  0  0  0  0
    7.7318   -2.6883    0.0000 H   0  0  0  0  0  0  0  0  0  0  0  0
  1  8  1  0  0  0  0
  1 21  1  0  0  0  0
  9  2  1  1  0  0  0
  2 28  1  0  0  0  0
 19  3  1  6  0  0  0
  3 53  1  0  0  0  0
  4 26  1  0  0  0  0
  4 60  1  0  0  0  0
  5 10  1  0  0  0  0
  5 18  1  0  0  0  0
  5 23  1  0  0  0  0
  6  7  1  0  0  0  0
  6  8  1  0  0  0  0
  6 13  1  1  0  0  0
  6 14  1  0  0  0  0
  7 10  1  0  0  0  0
  7 11  1  1  0  0  0
  7 15  1  0  0  0  0
  8  9  1  0  0  0  0
  8 31  1  1  0  0  0
  9 12  1  0  0  0  0
  9 17  1  0  0  0  0
 10 16  1  0  0  0  0
 10 32  1  6  0  0  0
 11 12  1  0  0  0  0
 11 33  1  0  0  0  0
 11 34  1  0  0  0  0
 12 19  1  0  0  0  0
 12 35  1  6  0  0  0
 13 18  1  0  0  0  0
 13 36  1  0  0  0  0
 13 37  1  0  0  0  0
 14 20  2  0  0  0  0
 14 21  1  0  0  0  0
 15 17  2  0  0  0  0
 15 38  1  0  0  0  0
 16 20  1  0  0  0  0
 16 39  1  0  0  0  0
 16 40  1  0  0  0  0
 17 41  1  0  0  0  0
 18 42  1  0  0  0  0
 18 43  1  0  0  0  0
 19 22  1  0  0  0  0
 19 25  1  0  0  0  0
 20 24  1  0  0  0  0
 21 26  2  0  0  0  0
 22 29  1  0  0  0  0
 22 44  1  0  0  0  0
 22 45  1  0  0  0  0
 23 46  1  0  0  0  0
 23 47  1  0  0  0  0
 23 48  1  0  0  0  0
 24 27  2  0  0  0  0
 24 49  1  0  0  0  0
 25 50  1  0  0  0  0
 25 51  1  0  0  0  0
 25 52  1  0  0  0  0
 26 27  1  0  0  0  0
 27 54  1  0  0  0  0
 28 55  1  0  0  0  0
 28 56  1  0  0  0  0
 28 57  1  0  0  0  0
 29 30  1  0  0  0  0
 29 58  1  0  0  0  0
 29 59  1  0  0  0  0
 30 61  1  0  0  0  0
 30 62  1  0  0  0  0
 30 63  1  0  0  0  0
M  END
> <PUBCHEM_COMPOUND_CID>
443407

> <PUBCHEM_COMPOUND_CANONICALIZED>
1

> <PUBCHEM_CACTVS_COMPLEXITY>
772

> <PUBCHEM_CACTVS_HBOND_ACCEPTOR>
5

> <PUBCHEM_CACTVS_HBOND_DONOR>
2

> <PUBCHEM_CACTVS_ROTATABLE_BOND>
4

> <PUBCHEM_CACTVS_SUBSKEYS>
AAADcfB6OAAAAAAAAAAAAAAAAAAAASAAAAA8YMECAAAWAEjxAAAAHgAACAAAD3zhmAYyBoMABgCAAiBCAAACCAAgIAAIiAAOiIgNJiKGsRuGeCOlwBGLuAfw8P8PoAABAAAYQADQAAaAADSAAAAAAAAAAA==

> <PUBCHEM_IUPAC_INCHI>
InChI=1S/C25H33NO4/c1-5-8-22(2,28)17-14-23-9-10-25(17,29-4)21-24(23)11-12-26(3)18(23)13-15-6-7-16(27)20(30-21)19(15)24/h6-7,9-10,17-18,21,27-28H,5,8,11-14H2,1-4H3/t17-,18-,21-,22+,23-,24+,25-/m1/s1

> <PUBCHEM_IUPAC_INCHIKEY>
CAHCBJPUTCKATP-NNFUYEGGSA-N

> <PUBCHEM_XLOGP3_AA>
3.1

> <PUBCHEM_EXACT_MASS>
411.240959

> <PUBCHEM_MOLECULAR_FORMULA>
C25H33NO4

> <PUBCHEM_MOLECULAR_WEIGHT>
411.53382

> <PUBCHEM_OPENEYE_CAN_SMILES>
CCCC(C)(C1CC23C=CC1(C4C25CCN(C3CC6=C5C(=C(C=C6)O)O4)C)OC)O

> <PUBCHEM_OPENEYE_ISO_SMILES>
CCC[C@@](C)([C@H]1C[C@@]23C=C[C@@]1([C@H]4[C@@]25CCN([C@@H]3CC6=C5C(=C(C=C6)O)O4)C)OC)O

> <PUBCHEM_CACTVS_TPSA>
62.2

> <PUBCHEM_MONOISOTOPIC_WEIGHT>
411.240959

> <PUBCHEM_TOTAL_CHARGE>
0

> <PUBCHEM_HEAVY_ATOM_COUNT>
30

> <PUBCHEM_ATOM_DEF_STEREO_COUNT>
7

> <PUBCHEM_ATOM_UDEF_STEREO_COUNT>
0

> <PUBCHEM_BOND_DEF_STEREO_COUNT>
0

> <PUBCHEM_BOND_UDEF_STEREO_COUNT>
0

> <PUBCHEM_ISOTOPIC_ATOM_COUNT>
0

> <PUBCHEM_COMPONENT_COUNT>
1

> <PUBCHEM_CACTVS_TAUTO_COUNT>
2

> <PUBCHEM_COORDINATE_TYPE>
1
5
255

> <PUBCHEM_BONDANNOTATIONS>
10  32  6
12  35  6
14  20  8
14  21  8
9  2  5
20  24  8
21  26  8
24  27  8
26  27  8
19  3  6
6  13  5
7  11  5
8  31  5

$$$$

