10756
  -OEChem-06261204553D

 32 32  0     0  0  0  0  0  0999 V2000
   -1.0050   -0.5404   -0.8666 O   0  0  0  0  0  0  0  0  0  0  0  0
    3.1768    2.0814    0.4341 O   0  0  0  0  0  0  0  0  0  0  0  0
    1.0881    1.2234   -0.2426 N   0  0  0  0  0  0  0  0  0  0  0  0
   -3.1719    0.2768   -0.2587 C   0  0  0  0  0  0  0  0  0  0  0  0
   -4.4293    0.0266    0.5691 C   0  0  0  0  0  0  0  0  0  0  0  0
   -2.1530   -0.8404   -0.0850 C   0  0  0  0  0  0  0  0  0  0  0  0
    0.1950   -1.0250   -0.4146 C   0  0  0  0  0  0  0  0  0  0  0  0
   -5.4261    1.1656    0.4264 C   0  0  0  0  0  0  0  0  0  0  0  0
    1.2372   -0.1582   -0.1023 C   0  0  0  0  0  0  0  0  0  0  0  0
    0.3526   -2.3999   -0.2726 C   0  0  0  0  0  0  0  0  0  0  0  0
    2.4501   -0.6717    0.3569 C   0  0  0  0  0  0  0  0  0  0  0  0
    1.5655   -2.9136    0.1868 C   0  0  0  0  0  0  0  0  0  0  0  0
    2.6142   -2.0494    0.5015 C   0  0  0  0  0  0  0  0  0  0  0  0
    2.0293    2.2251    0.0247 C   0  0  0  0  0  0  0  0  0  0  0  0
    1.4765    3.5998   -0.2571 C   0  0  0  0  0  0  0  0  0  0  0  0
   -3.4286    0.3752   -1.3209 H   0  0  0  0  0  0  0  0  0  0  0  0
   -2.7129    1.2315    0.0282 H   0  0  0  0  0  0  0  0  0  0  0  0
   -4.1636   -0.0855    1.6267 H   0  0  0  0  0  0  0  0  0  0  0  0
   -4.9030   -0.9099    0.2526 H   0  0  0  0  0  0  0  0  0  0  0  0
   -1.8891   -0.9339    0.9766 H   0  0  0  0  0  0  0  0  0  0  0  0
   -2.5760   -1.7923   -0.4257 H   0  0  0  0  0  0  0  0  0  0  0  0
   -4.9930    2.1112    0.7678 H   0  0  0  0  0  0  0  0  0  0  0  0
   -5.7370    1.2863   -0.6162 H   0  0  0  0  0  0  0  0  0  0  0  0
   -6.3194    0.9649    1.0262 H   0  0  0  0  0  0  0  0  0  0  0  0
   -0.4522   -3.0855   -0.5224 H   0  0  0  0  0  0  0  0  0  0  0  0
    3.3090   -0.0720    0.6217 H   0  0  0  0  0  0  0  0  0  0  0  0
    0.1772    1.5264   -0.5816 H   0  0  0  0  0  0  0  0  0  0  0  0
    1.6940   -3.9863    0.2975 H   0  0  0  0  0  0  0  0  0  0  0  0
    3.5582   -2.4508    0.8587 H   0  0  0  0  0  0  0  0  0  0  0  0
    1.2288    3.6873   -1.3187 H   0  0  0  0  0  0  0  0  0  0  0  0
    2.2212    4.3585   -0.0015 H   0  0  0  0  0  0  0  0  0  0  0  0
    0.5781    3.7693    0.3431 H   0  0  0  0  0  0  0  0  0  0  0  0
  1  6  1  0  0  0  0
  1  7  1  0  0  0  0
  2 14  2  0  0  0  0
  3  9  1  0  0  0  0
  3 14  1  0  0  0  0
  3 27  1  0  0  0  0
  4  5  1  0  0  0  0
  4  6  1  0  0  0  0
  4 16  1  0  0  0  0
  4 17  1  0  0  0  0
  5  8  1  0  0  0  0
  5 18  1  0  0  0  0
  5 19  1  0  0  0  0
  6 20  1  0  0  0  0
  6 21  1  0  0  0  0
  7  9  1  0  0  0  0
  7 10  2  0  0  0  0
  8 22  1  0  0  0  0
  8 23  1  0  0  0  0
  8 24  1  0  0  0  0
  9 11  2  0  0  0  0
 10 12  1  0  0  0  0
 10 25  1  0  0  0  0
 11 13  1  0  0  0  0
 11 26  1  0  0  0  0
 12 13  2  0  0  0  0
 12 28  1  0  0  0  0
 13 29  1  0  0  0  0
 14 15  1  0  0  0  0
 15 30  1  0  0  0  0
 15 31  1  0  0  0  0
 15 32  1  0  0  0  0
M  END
> <PUBCHEM_COMPOUND_CID>
10756

> <PUBCHEM_CONFORMER_RMSD>
0.6

> <PUBCHEM_CONFORMER_DIVERSEORDER>
1
76
75
68
88
77
37
48
38
96
33
99
98
95
83
29
52
54
72
30
93
90
21
35
94
57
91
23
42
7
41
81
20
82
31
24
100
49
47
43
26
84
65
80
89
14
45
79
55
19
85
44
86
50
46
73
13
56
71
27
97
17
15
60
64
10
62
70
25
12
67
61
59
16
69
74
22
63
11
58
8
2
78
51
18
87
92
34
53
39
66
36
9
6
32
28
40
5
4
3

> <PUBCHEM_MMFF94_PARTIAL_CHARGES>
17
1 -0.36
10 -0.15
11 -0.15
12 -0.15
13 -0.15
14 0.57
15 0.06
2 -0.57
25 0.15
26 0.15
27 0.37
28 0.15
29 0.15
3 -0.55
6 0.28
7 0.08
9 0.12

> <PUBCHEM_EFFECTIVE_ROTOR_COUNT>
6

> <PUBCHEM_PHARMACOPHORE_FEATURES>
5
1 1 acceptor
1 2 acceptor
1 3 donor
1 8 hydrophobe
6 7 9 10 11 12 13 rings

> <PUBCHEM_HEAVY_ATOM_COUNT>
15

> <PUBCHEM_ATOM_DEF_STEREO_COUNT>
0

> <PUBCHEM_ATOM_UDEF_STEREO_COUNT>
0

> <PUBCHEM_BOND_DEF_STEREO_COUNT>
0

> <PUBCHEM_BOND_UDEF_STEREO_COUNT>
0

> <PUBCHEM_ISOTOPIC_ATOM_COUNT>
0

> <PUBCHEM_COMPONENT_COUNT>
1

> <PUBCHEM_CACTVS_TAUTO_COUNT>
2

> <PUBCHEM_CONFORMER_ID>
00002A0400000001

> <PUBCHEM_MMFF94_ENERGY>
40.3283

> <PUBCHEM_FEATURE_SELFOVERLAP>
25.371

> <PUBCHEM_SHAPE_FINGERPRINT>
10465860 228 18409167692731616249
12173636 292 17545321878270391180
14123255 52 18192712241724966873
14790565 3 18340199709758413508
18785283 64 18271802389269202232
20559304 39 18337949103396152767
20671657 1 18409725149590716703
20681677 76 18271535273143557493
21041028 32 18124039197938263838
21524375 3 18045503006337291741
21665062 11 18337946908836656721
2255824 54 18409448085424301063
23558518 356 18051417266725686766
23598291 2 18113913636512831135
305870 269 18339364037374693740
3071541 12 18410293567116646494
31174 14 18343585183136820159
474 4 18338520742358635721
49207404 50 18128523882840737059
54173680 148 17114104924232486518
5939293 188 18410012164864313918
7364860 26 18410011048119997998
81228 2 17330572341149793998
84936 182 18115593625723889225

> <PUBCHEM_SHAPE_MULTIPOLES>
291.97
7.36
3.72
0.74
14.39
2.31
0
2.1
-1.88
-4.44
0.03
0.1
-0.06
-0.3

> <PUBCHEM_SHAPE_SELFOVERLAP>
585.679

> <PUBCHEM_SHAPE_VOLUME>
172

> <PUBCHEM_COORDINATE_TYPE>
2
5
10

$$$$

