330358
  -OEChem-07051212582D

 37 40  0     1  0  0  0  0  0999 V2000
    3.7977   -1.7168    0.0000 O   0  0  0  0  0  0  0  0  0  0  0  0
    2.4141   -0.6028    0.0000 O   0  0  0  0  0  0  0  0  0  0  0  0
    5.4542   -2.3581    0.0000 O   0  0  0  0  0  0  0  0  0  0  0  0
    3.2636    2.3581    0.0000 O   0  0  0  0  0  0  0  0  0  0  0  0
    4.9956   -0.6419    0.0000 C   0  0  2  0  0  0  0  0  0  0  0  0
    4.1296   -0.1419    0.0000 C   0  0  2  0  0  0  0  0  0  0  0  0
    4.1293   -1.1424    0.0000 C   0  0  0  0  0  0  0  0  0  0  0  0
    5.8616   -0.1419    0.0000 C   0  0  2  0  0  0  0  0  0  0  0  0
    5.8616    0.8581    0.0000 C   0  0  1  0  0  0  0  0  0  0  0  0
    3.3926   -0.8090    0.0000 C   0  0  3  0  0  0  0  0  0  0  0  0
    6.8079   -0.4467    0.0000 C   0  0  0  0  0  0  0  0  0  0  0  0
    4.1296    0.8581    0.0000 C   0  0  0  0  0  0  0  0  0  0  0  0
    4.7864   -1.6138    0.0000 C   0  0  0  0  0  0  0  0  0  0  0  0
    7.3915    0.3581    0.0000 C   0  0  0  0  0  0  0  0  0  0  0  0
    6.8079    1.1628    0.0000 C   0  0  0  0  0  0  0  0  0  0  0  0
    4.9956    1.3581    0.0000 C   0  0  0  0  0  0  0  0  0  0  0  0
    8.2005    0.9458    0.0000 C   0  0  0  0  0  0  0  0  0  0  0  0
    8.2005   -0.2297    0.0000 C   0  0  0  0  0  0  0  0  0  0  0  0
    3.2636    1.3581    0.0000 C   0  0  0  0  0  0  0  0  0  0  0  0
    3.5187   -1.2500    0.0000 H   0  0  0  0  0  0  0  0  0  0  0  0
    4.3414   -1.7250    0.0000 H   0  0  0  0  0  0  0  0  0  0  0  0
    5.9516   -0.9872    0.0000 H   0  0  0  0  0  0  0  0  0  0  0  0
    5.9516    1.7033    0.0000 H   0  0  0  0  0  0  0  0  0  0  0  0
    3.1708    0.0115    0.0000 H   0  0  0  0  0  0  0  0  0  0  0  0
    6.5568   -1.0136    0.0000 H   0  0  0  0  0  0  0  0  0  0  0  0
    7.3452   -0.7559    0.0000 H   0  0  0  0  0  0  0  0  0  0  0  0
    7.3452    1.4720    0.0000 H   0  0  0  0  0  0  0  0  0  0  0  0
    6.5568    1.7297    0.0000 H   0  0  0  0  0  0  0  0  0  0  0  0
    4.9956    1.9781    0.0000 H   0  0  0  0  0  0  0  0  0  0  0  0
    8.5649    0.4443    0.0000 H   0  0  0  0  0  0  0  0  0  0  0  0
    8.7021    1.3103    0.0000 H   0  0  0  0  0  0  0  0  0  0  0  0
    7.8360    1.4474    0.0000 H   0  0  0  0  0  0  0  0  0  0  0  0
    7.8360   -0.7313    0.0000 H   0  0  0  0  0  0  0  0  0  0  0  0
    8.7021   -0.5942    0.0000 H   0  0  0  0  0  0  0  0  0  0  0  0
    8.5649    0.2719    0.0000 H   0  0  0  0  0  0  0  0  0  0  0  0
    2.7266    1.0481    0.0000 H   0  0  0  0  0  0  0  0  0  0  0  0
    2.0000   -1.0643    0.0000 H   0  0  0  0  0  0  0  0  0  0  0  0
  1 10  1  0  0  0  0
  1 13  1  0  0  0  0
  2 10  1  0  0  0  0
  2 37  1  0  0  0  0
  3 13  2  0  0  0  0
  4 19  2  0  0  0  0
  5  6  1  0  0  0  0
  5  7  1  1  0  0  0
  5  8  1  0  0  0  0
  5 13  1  0  0  0  0
  6  7  1  1  0  0  0
  6 10  1  0  0  0  0
  6 12  1  0  0  0  0
  7 20  1  0  0  0  0
  7 21  1  0  0  0  0
  8  9  1  0  0  0  0
  8 11  1  0  0  0  0
  8 22  1  1  0  0  0
  9 15  1  0  0  0  0
  9 16  1  0  0  0  0
  9 23  1  1  0  0  0
 10 24  1  0  0  0  0
 11 14  1  0  0  0  0
 11 25  1  0  0  0  0
 11 26  1  0  0  0  0
 12 16  2  0  0  0  0
 12 19  1  0  0  0  0
 14 15  1  0  0  0  0
 14 17  1  0  0  0  0
 14 18  1  0  0  0  0
 15 27  1  0  0  0  0
 15 28  1  0  0  0  0
 16 29  1  0  0  0  0
 17 30  1  0  0  0  0
 17 31  1  0  0  0  0
 17 32  1  0  0  0  0
 18 33  1  0  0  0  0
 18 34  1  0  0  0  0
 18 35  1  0  0  0  0
 19 36  1  0  0  0  0
M  END
> <PUBCHEM_COMPOUND_CID>
330358

> <PUBCHEM_COMPOUND_CANONICALIZED>
1

> <PUBCHEM_CACTVS_COMPLEXITY>
534

> <PUBCHEM_CACTVS_HBOND_ACCEPTOR>
4

> <PUBCHEM_CACTVS_HBOND_DONOR>
1

> <PUBCHEM_CACTVS_ROTATABLE_BOND>
1

> <PUBCHEM_CACTVS_SUBSKEYS>
AAADceBwOAAAAAAAAAAAAAAAGAAAAaIAAAAkQAAABAAAAEAAAAAAGgAACAAADwCwgAMCCAAABgCIAijSiAAAAAAgAAAACAEAAEgQEBIAAQACQAAEwAAMAYPK7vCPgAAAAAAAAAAAAAAAAAAAAQAACAAAAA==

> <PUBCHEM_IUPAC_INCHI>
InChI=1S/C15H18O4/c1-13(2)4-8-3-9(6-16)14-7-15(14,10(8)5-13)12(18)19-11(14)17/h3,6,8,10-11,17H,4-5,7H2,1-2H3/t8-,10+,11?,14+,15-/m1/s1

> <PUBCHEM_IUPAC_INCHIKEY>
BIUVCPLWWOLECJ-LIHVSQBMSA-N

> <PUBCHEM_XLOGP3_AA>
1.5

> <PUBCHEM_EXACT_MASS>
262.120509

> <PUBCHEM_MOLECULAR_FORMULA>
C15H18O4

> <PUBCHEM_MOLECULAR_WEIGHT>
262.30102

> <PUBCHEM_OPENEYE_CAN_SMILES>
CC1(CC2C=C(C34CC3(C2C1)C(=O)OC4O)C=O)C

> <PUBCHEM_OPENEYE_ISO_SMILES>
CC1(C[C@H]2C=C([C@]34C[C@@]3([C@H]2C1)C(=O)OC4O)C=O)C

> <PUBCHEM_CACTVS_TPSA>
63.6

> <PUBCHEM_MONOISOTOPIC_WEIGHT>
262.120509

> <PUBCHEM_TOTAL_CHARGE>
0

> <PUBCHEM_HEAVY_ATOM_COUNT>
19

> <PUBCHEM_ATOM_DEF_STEREO_COUNT>
4

> <PUBCHEM_ATOM_UDEF_STEREO_COUNT>
1

> <PUBCHEM_BOND_DEF_STEREO_COUNT>
0

> <PUBCHEM_BOND_UDEF_STEREO_COUNT>
0

> <PUBCHEM_ISOTOPIC_ATOM_COUNT>
0

> <PUBCHEM_COMPONENT_COUNT>
1

> <PUBCHEM_CACTVS_TAUTO_COUNT>
1

> <PUBCHEM_COORDINATE_TYPE>
1
5
255

> <PUBCHEM_BONDANNOTATIONS>
10  24  3
5  7  5
6  7  5
8  22  5
9  23  5

$$$$

