68563
  -OEChem-07051213023D

 47 48  0     1  0  0  0  0  0999 V2000
    2.7008    0.8334    0.0213 O   0  0  0  0  0  0  0  0  0  0  0  0
    4.6862   -1.1129   -0.0144 O   0  0  0  0  0  0  0  0  0  0  0  0
   -0.9249   -2.2948    1.9751 O   0  0  0  0  0  0  0  0  0  0  0  0
   -3.5390    1.3604    0.9975 O   0  0  0  0  0  0  0  0  0  0  0  0
    1.1996   -2.3542   -0.1229 N   0  0  0  0  0  0  0  0  0  0  0  0
   -1.6633   -2.0097   -0.2195 N   0  0  0  0  0  0  0  0  0  0  0  0
   -2.2298   -0.4765    1.4737 N   0  0  0  0  0  0  0  0  0  0  0  0
    2.5507   -2.0518   -0.5749 C   0  0  0  0  0  0  0  0  0  0  0  0
    3.3956   -1.4086    0.5273 C   0  0  2  0  0  0  0  0  0  0  0  0
    0.4007   -2.9127   -1.2062 C   0  0  0  0  0  0  0  0  0  0  0  0
   -1.0102   -3.2128   -0.7223 C   0  0  0  0  0  0  0  0  0  0  0  0
    2.7918   -0.1182    1.0771 C   0  0  0  0  0  0  0  0  0  0  0  0
   -2.3837   -1.2472   -1.1159 C   0  0  0  0  0  0  0  0  0  0  0  0
   -1.5540   -1.6529    1.1312 C   0  0  0  0  0  0  0  0  0  0  0  0
   -3.0293   -0.1221   -0.7847 C   0  0  0  0  0  0  0  0  0  0  0  0
    1.6727    1.7350    0.0927 C   0  0  0  0  0  0  0  0  0  0  0  0
   -2.9696    0.3366    0.6286 C   0  0  0  0  0  0  0  0  0  0  0  0
    1.1088    2.2573   -1.0673 C   0  0  0  0  0  0  0  0  0  0  0  0
   -3.8090    0.7014   -1.7588 C   0  0  0  0  0  0  0  0  0  0  0  0
    1.1998    2.1214    1.3432 C   0  0  0  0  0  0  0  0  0  0  0  0
    0.0619    3.1746   -0.9758 C   0  0  0  0  0  0  0  0  0  0  0  0
    1.6074    1.8506   -2.4146 C   0  0  0  0  0  0  0  0  0  0  0  0
    0.1528    3.0385    1.4345 C   0  0  0  0  0  0  0  0  0  0  0  0
   -0.4160    3.5651    0.2751 C   0  0  0  0  0  0  0  0  0  0  0  0
    3.0548   -2.9666   -0.9131 H   0  0  0  0  0  0  0  0  0  0  0  0
    2.5225   -1.3854   -1.4467 H   0  0  0  0  0  0  0  0  0  0  0  0
    3.5413   -2.1198    1.3483 H   0  0  0  0  0  0  0  0  0  0  0  0
    0.3553   -2.2035   -2.0418 H   0  0  0  0  0  0  0  0  0  0  0  0
    0.8534   -3.8399   -1.5770 H   0  0  0  0  0  0  0  0  0  0  0  0
   -0.9772   -3.9588    0.0818 H   0  0  0  0  0  0  0  0  0  0  0  0
   -1.6083   -3.6496   -1.5314 H   0  0  0  0  0  0  0  0  0  0  0  0
    1.2347   -3.0082    0.6583 H   0  0  0  0  0  0  0  0  0  0  0  0
    1.8193   -0.3490    1.5288 H   0  0  0  0  0  0  0  0  0  0  0  0
    3.4583    0.2944    1.8438 H   0  0  0  0  0  0  0  0  0  0  0  0
   -2.4021   -1.6099   -2.1389 H   0  0  0  0  0  0  0  0  0  0  0  0
    4.5686   -0.4465   -0.7131 H   0  0  0  0  0  0  0  0  0  0  0  0
   -2.1703   -0.1873    2.4461 H   0  0  0  0  0  0  0  0  0  0  0  0
   -4.8569    0.7703   -1.4493 H   0  0  0  0  0  0  0  0  0  0  0  0
   -3.7868    0.2728   -2.7663 H   0  0  0  0  0  0  0  0  0  0  0  0
   -3.3962    1.7139   -1.8191 H   0  0  0  0  0  0  0  0  0  0  0  0
    1.6337    1.7640    2.2721 H   0  0  0  0  0  0  0  0  0  0  0  0
   -0.3937    3.5932   -1.8693 H   0  0  0  0  0  0  0  0  0  0  0  0
    1.1192    2.4125   -3.2181 H   0  0  0  0  0  0  0  0  0  0  0  0
    2.6841    2.0338   -2.4957 H   0  0  0  0  0  0  0  0  0  0  0  0
    1.4102    0.7871   -2.5847 H   0  0  0  0  0  0  0  0  0  0  0  0
   -0.2156    3.3479    2.4082 H   0  0  0  0  0  0  0  0  0  0  0  0
   -1.2313    4.2791    0.3464 H   0  0  0  0  0  0  0  0  0  0  0  0
  1 12  1  0  0  0  0
  1 16  1  0  0  0  0
  2  9  1  0  0  0  0
  2 36  1  0  0  0  0
  3 14  2  0  0  0  0
  4 17  2  0  0  0  0
  5  8  1  0  0  0  0
  5 10  1  0  0  0  0
  5 32  1  0  0  0  0
  6 11  1  0  0  0  0
  6 13  1  0  0  0  0
  6 14  1  0  0  0  0
  7 14  1  0  0  0  0
  7 17  1  0  0  0  0
  7 37  1  0  0  0  0
  8  9  1  0  0  0  0
  8 25  1  0  0  0  0
  8 26  1  0  0  0  0
  9 12  1  0  0  0  0
  9 27  1  0  0  0  0
 10 11  1  0  0  0  0
 10 28  1  0  0  0  0
 10 29  1  0  0  0  0
 11 30  1  0  0  0  0
 11 31  1  0  0  0  0
 12 33  1  0  0  0  0
 12 34  1  0  0  0  0
 13 15  2  0  0  0  0
 13 35  1  0  0  0  0
 15 17  1  0  0  0  0
 15 19  1  0  0  0  0
 16 18  1  0  0  0  0
 16 20  2  0  0  0  0
 18 21  2  0  0  0  0
 18 22  1  0  0  0  0
 19 38  1  0  0  0  0
 19 39  1  0  0  0  0
 19 40  1  0  0  0  0
 20 23  1  0  0  0  0
 20 41  1  0  0  0  0
 21 24  1  0  0  0  0
 21 42  1  0  0  0  0
 22 43  1  0  0  0  0
 22 44  1  0  0  0  0
 22 45  1  0  0  0  0
 23 24  2  0  0  0  0
 23 46  1  0  0  0  0
 24 47  1  0  0  0  0
M  END
> <PUBCHEM_COMPOUND_CID>
68563

> <PUBCHEM_CONFORMER_RMSD>
1.2

> <PUBCHEM_CONFORMER_DIVERSEORDER>
3
4
423
451
8
183
28
454
81
373
12
30
72
116
204
155
290
279
350
142
422
5
219
111
43
54
59
121
136
203
9
461
16
100
19
64
138
223
439
307
106
508
39
2
260
246
248
74
20
490
120
247
18
32
208
252
292
318
303
38
158
450
125
157
71
52
442
194
57
264
195
400
304
33
6
282
53
315
270
60
432
232
313
84
118
68
231
237
78
34
22
230
510
47
355
126
474
143
488
61
40
516
296
382
17
90
13
151
27
11
98
405
218
130
77
372
86
91
65
255
1
379
197
119
129
29
156
10
7
25
349
42
316
58
97
321
293
50
265
278
222
94
285

> <PUBCHEM_MMFF94_PARTIAL_CHARGES>
32
1 -0.36
10 0.27
11 0.3
12 0.28
13 -0.04
14 0.69
15 -0.12
16 0.08
17 0.62
18 -0.14
19 0.14
2 -0.68
20 -0.15
21 -0.15
22 0.14
23 -0.15
24 -0.15
3 -0.57
32 0.36
35 0.15
36 0.4
37 0.37
4 -0.57
41 0.15
42 0.15
46 0.15
47 0.15
5 -0.9
6 -0.47
7 -0.49
8 0.27
9 0.28

> <PUBCHEM_EFFECTIVE_ROTOR_COUNT>
8

> <PUBCHEM_PHARMACOPHORE_FEATURES>
10
1 1 acceptor
1 2 acceptor
1 2 donor
1 3 acceptor
1 4 acceptor
1 5 cation
1 5 donor
1 7 donor
6 16 18 20 21 23 24 rings
6 6 7 13 14 15 17 rings

> <PUBCHEM_HEAVY_ATOM_COUNT>
24

> <PUBCHEM_ATOM_DEF_STEREO_COUNT>
0

> <PUBCHEM_ATOM_UDEF_STEREO_COUNT>
1

> <PUBCHEM_BOND_DEF_STEREO_COUNT>
0

> <PUBCHEM_BOND_UDEF_STEREO_COUNT>
0

> <PUBCHEM_ISOTOPIC_ATOM_COUNT>
0

> <PUBCHEM_COMPONENT_COUNT>
1

> <PUBCHEM_CACTVS_TAUTO_COUNT>
3

> <PUBCHEM_CONFORMER_ID>
00010BD300000003

> <PUBCHEM_MMFF94_ENERGY>
50.9584

> <PUBCHEM_FEATURE_SELFOVERLAP>
50.747

> <PUBCHEM_SHAPE_FINGERPRINT>
104564 63 18194117645423850266
12156800 1 16030614108353516799
12422481 6 17469854033408831233
12553582 1 18410006654658825392
128993 33 17692792814520462877
13122387 1 18409732867356699662
14251751 93 17694481677561099764
14713325 29 15904857097324684756
17357779 13 18265055910802196582
19930381 70 18335147488040327983
20465049 17 17544994305335715731
20600515 1 18058720429236682910
20905425 154 17835542774247751879
238 59 17908433450128237151
3027735 51 17977111476050259411
35225 105 17398383616896743484
3797600 57 14467962460589007700
81228 2 18125433370308497034

> <PUBCHEM_SHAPE_MULTIPOLES>
455.49
5.71
4.73
1.82
0.12
0.82
-0.24
-1.52
-0.29
0.95
-0.32
-0.41
0.52
-0.1

> <PUBCHEM_SHAPE_SELFOVERLAP>
942.881

> <PUBCHEM_SHAPE_VOLUME>
259.9

> <PUBCHEM_COORDINATE_TYPE>
2
5
10

$$$$

