442646
  -OEChem-07051212583D

 54 56  0     1  0  0  0  0  0999 V2000
   -3.6704    0.7592   -1.9679 O   0  0  0  0  0  0  0  0  0  0  0  0
    3.8453    0.0604   -1.8448 O   0  0  0  0  0  0  0  0  0  0  0  0
    0.2043    1.8304   -0.4201 N   0  0  0  0  0  0  0  0  0  0  0  0
   -1.0131    2.0341    0.4001 C   0  0  1  0  0  0  0  0  0  0  0  0
    1.4008    1.7990    0.4538 C   0  0  2  0  0  0  0  0  0  0  0  0
   -0.9544    3.3192    1.2450 C   0  0  0  0  0  0  0  0  0  0  0  0
    1.5541    3.0753    1.3001 C   0  0  0  0  0  0  0  0  0  0  0  0
    0.2964    3.3536    2.1175 C   0  0  0  0  0  0  0  0  0  0  0  0
   -2.3126    1.9829   -0.4112 C   0  0  0  0  0  0  0  0  0  0  0  0
    2.7003    1.4937   -0.2996 C   0  0  0  0  0  0  0  0  0  0  0  0
    0.3195    2.7593   -1.5455 C   0  0  0  0  0  0  0  0  0  0  0  0
   -2.4363    0.7101   -1.2494 C   0  0  1  0  0  0  0  0  0  0  0  0
    2.5944    0.2485   -1.1804 C   0  0  2  0  0  0  0  0  0  0  0  0
   -2.4177   -0.5654   -0.4397 C   0  0  0  0  0  0  0  0  0  0  0  0
    2.2725   -1.0186   -0.4229 C   0  0  0  0  0  0  0  0  0  0  0  0
   -1.9060   -1.7210   -1.0069 C   0  0  0  0  0  0  0  0  0  0  0  0
    1.5589   -2.0236   -1.0552 C   0  0  0  0  0  0  0  0  0  0  0  0
   -2.9121   -0.5544    0.8543 C   0  0  0  0  0  0  0  0  0  0  0  0
    2.6974   -1.1510    0.8889 C   0  0  0  0  0  0  0  0  0  0  0  0
   -1.8886   -2.8986   -0.2595 C   0  0  0  0  0  0  0  0  0  0  0  0
    1.2617   -3.1935   -0.3561 C   0  0  0  0  0  0  0  0  0  0  0  0
   -2.8945   -1.7321    1.6017 C   0  0  0  0  0  0  0  0  0  0  0  0
    2.4004   -2.3210    1.5879 C   0  0  0  0  0  0  0  0  0  0  0  0
   -2.3827   -2.9041    1.0448 C   0  0  0  0  0  0  0  0  0  0  0  0
    1.6825   -3.3422    0.9653 C   0  0  0  0  0  0  0  0  0  0  0  0
   -1.0380    1.2102    1.1224 H   0  0  0  0  0  0  0  0  0  0  0  0
    1.2368    0.9870    1.1719 H   0  0  0  0  0  0  0  0  0  0  0  0
   -1.8386    3.3828    1.8911 H   0  0  0  0  0  0  0  0  0  0  0  0
   -0.9760    4.2060    0.5999 H   0  0  0  0  0  0  0  0  0  0  0  0
    1.7727    3.9381    0.6592 H   0  0  0  0  0  0  0  0  0  0  0  0
    2.4055    2.9710    1.9838 H   0  0  0  0  0  0  0  0  0  0  0  0
    0.3800    4.3260    2.6153 H   0  0  0  0  0  0  0  0  0  0  0  0
    0.2056    2.5984    2.9083 H   0  0  0  0  0  0  0  0  0  0  0  0
   -2.3848    2.8513   -1.0803 H   0  0  0  0  0  0  0  0  0  0  0  0
   -3.1815    2.1129    0.2467 H   0  0  0  0  0  0  0  0  0  0  0  0
    3.5436    1.4190    0.3988 H   0  0  0  0  0  0  0  0  0  0  0  0
    2.9851    2.3450   -0.9335 H   0  0  0  0  0  0  0  0  0  0  0  0
   -0.5308    2.6820   -2.2287 H   0  0  0  0  0  0  0  0  0  0  0  0
    1.1877    2.5453   -2.1747 H   0  0  0  0  0  0  0  0  0  0  0  0
    0.3950    3.8034   -1.2264 H   0  0  0  0  0  0  0  0  0  0  0  0
   -1.6428    0.6755   -2.0030 H   0  0  0  0  0  0  0  0  0  0  0  0
    1.8485    0.4014   -1.9670 H   0  0  0  0  0  0  0  0  0  0  0  0
   -4.3984    0.7397   -1.3231 H   0  0  0  0  0  0  0  0  0  0  0  0
    3.8295   -0.8031   -2.2916 H   0  0  0  0  0  0  0  0  0  0  0  0
   -1.5341   -1.7300   -2.0273 H   0  0  0  0  0  0  0  0  0  0  0  0
    1.2394   -1.9227   -2.0884 H   0  0  0  0  0  0  0  0  0  0  0  0
   -3.3468    0.3230    1.3187 H   0  0  0  0  0  0  0  0  0  0  0  0
    3.2827   -0.3985    1.4044 H   0  0  0  0  0  0  0  0  0  0  0  0
   -1.5338   -3.8225   -0.7047 H   0  0  0  0  0  0  0  0  0  0  0  0
    0.7421   -4.0065   -0.8531 H   0  0  0  0  0  0  0  0  0  0  0  0
   -3.2873   -1.7393    2.6143 H   0  0  0  0  0  0  0  0  0  0  0  0
    2.7351   -2.4411    2.6141 H   0  0  0  0  0  0  0  0  0  0  0  0
   -2.3794   -3.8237    1.6226 H   0  0  0  0  0  0  0  0  0  0  0  0
    1.4607   -4.2577    1.5058 H   0  0  0  0  0  0  0  0  0  0  0  0
  1 12  1  0  0  0  0
  1 43  1  0  0  0  0
  2 13  1  0  0  0  0
  2 44  1  0  0  0  0
  3  4  1  0  0  0  0
  3  5  1  0  0  0  0
  3 11  1  0  0  0  0
  4  6  1  0  0  0  0
  4  9  1  0  0  0  0
  4 26  1  0  0  0  0
  5  7  1  0  0  0  0
  5 10  1  0  0  0  0
  5 27  1  0  0  0  0
  6  8  1  0  0  0  0
  6 28  1  0  0  0  0
  6 29  1  0  0  0  0
  7  8  1  0  0  0  0
  7 30  1  0  0  0  0
  7 31  1  0  0  0  0
  8 32  1  0  0  0  0
  8 33  1  0  0  0  0
  9 12  1  0  0  0  0
  9 34  1  0  0  0  0
  9 35  1  0  0  0  0
 10 13  1  0  0  0  0
 10 36  1  0  0  0  0
 10 37  1  0  0  0  0
 11 38  1  0  0  0  0
 11 39  1  0  0  0  0
 11 40  1  0  0  0  0
 12 14  1  0  0  0  0
 12 41  1  0  0  0  0
 13 15  1  0  0  0  0
 13 42  1  0  0  0  0
 14 16  2  0  0  0  0
 14 18  1  0  0  0  0
 15 17  2  0  0  0  0
 15 19  1  0  0  0  0
 16 20  1  0  0  0  0
 16 45  1  0  0  0  0
 17 21  1  0  0  0  0
 17 46  1  0  0  0  0
 18 22  2  0  0  0  0
 18 47  1  0  0  0  0
 19 23  2  0  0  0  0
 19 48  1  0  0  0  0
 20 24  2  0  0  0  0
 20 49  1  0  0  0  0
 21 25  2  0  0  0  0
 21 50  1  0  0  0  0
 22 24  1  0  0  0  0
 22 51  1  0  0  0  0
 23 25  1  0  0  0  0
 23 52  1  0  0  0  0
 24 53  1  0  0  0  0
 25 54  1  0  0  0  0
M  END
> <PUBCHEM_COMPOUND_CID>
442646

> <PUBCHEM_CONFORMER_RMSD>
0.8

> <PUBCHEM_CONFORMER_DIVERSEORDER>
1
4
21
22
32
34
26
36
18
9
27
38
33
8
41
30
3
40
16
11
35
14
2
6
39
7
23
5
25
31
29
19
24
15
37
13
17
20
12
10
28

> <PUBCHEM_MMFF94_PARTIAL_CHARGES>
32
1 -0.68
11 0.27
12 0.42
13 0.42
14 -0.14
15 -0.14
16 -0.15
17 -0.15
18 -0.15
19 -0.15
2 -0.68
20 -0.15
21 -0.15
22 -0.15
23 -0.15
24 -0.15
25 -0.15
3 -0.81
4 0.27
43 0.4
44 0.4
45 0.15
46 0.15
47 0.15
48 0.15
49 0.15
5 0.27
50 0.15
51 0.15
52 0.15
53 0.15
54 0.15

> <PUBCHEM_EFFECTIVE_ROTOR_COUNT>
7.2

> <PUBCHEM_PHARMACOPHORE_FEATURES>
8
1 1 acceptor
1 1 donor
1 2 acceptor
1 2 donor
1 3 cation
6 14 16 18 20 22 24 rings
6 15 17 19 21 23 25 rings
6 3 4 5 6 7 8 rings

> <PUBCHEM_HEAVY_ATOM_COUNT>
25

> <PUBCHEM_ATOM_DEF_STEREO_COUNT>
4

> <PUBCHEM_ATOM_UDEF_STEREO_COUNT>
0

> <PUBCHEM_BOND_DEF_STEREO_COUNT>
0

> <PUBCHEM_BOND_UDEF_STEREO_COUNT>
0

> <PUBCHEM_ISOTOPIC_ATOM_COUNT>
0

> <PUBCHEM_COMPONENT_COUNT>
1

> <PUBCHEM_CACTVS_TAUTO_COUNT>
1

> <PUBCHEM_CONFORMER_ID>
0006C11600000001

> <PUBCHEM_MMFF94_ENERGY>
67.3487

> <PUBCHEM_FEATURE_SELFOVERLAP>
40.594

> <PUBCHEM_SHAPE_FINGERPRINT>
10064457 181 17255661016205893697
10675989 125 17761230098984271516
12156800 1 13386041399459847226
12422481 6 16182118663367832507
12553582 1 18261671562155913193
12596599 1 17680122124037044071
12788726 201 17898846013656083665
13122387 1 18267583705045764547
13140716 1 18337111146539082232
13402501 40 17760926247342875840
14081887 123 17830202408054983402
14114207 22 15758037419480959339
1420 336 17905048405976794111
20600515 1 17768552803791292106
20691752 17 17623566445807784871
20775438 99 17687792326418006847
20905425 154 18340209574706850990
21141583 151 18191567676180075014
23419403 2 17331178026043920868
238 59 17757582684048803823
35225 105 16374644768271151360
392239 28 18261972769019432544
469060 322 16769810140731438638
5282274 181 16968287116498827657
56638632 33 17766038186597105640
6287921 2 17251999659375559651
81228 2 17832994119116210866

> <PUBCHEM_SHAPE_MULTIPOLES>
497.77
5.3
5.24
1.86
1.08
2.26
0.07
-1.45
1.32
0.12
-0.2
-0.45
-0.37
1.44

> <PUBCHEM_SHAPE_SELFOVERLAP>
1049.142

> <PUBCHEM_SHAPE_VOLUME>
278.7

> <PUBCHEM_COORDINATE_TYPE>
2
5
10

$$$$

