32817
  -OEChem-07051213033D

 14 14  0     0  0  0  0  0  0999 V2000
   -2.7614    1.1631    0.0012 Cl  0  0  0  0  0  0  0  0  0  0  0  0
    2.8375   -1.6135    0.0019 Cl  0  0  0  0  0  0  0  0  0  0  0  0
   -2.5009   -2.0430    0.0000 Cl  0  0  0  0  0  0  0  0  0  0  0  0
   -0.1401    2.5258   -0.0003 O   0  0  0  0  0  0  0  0  0  0  0  0
    2.3155    1.3352   -0.0010 O   0  0  0  0  0  0  0  0  0  0  0  0
   -0.0609    1.1633    0.0005 C   0  0  0  0  0  0  0  0  0  0  0  0
    1.1951    0.5563    0.0002 C   0  0  0  0  0  0  0  0  0  0  0  0
   -1.2145    0.3789    0.0000 C   0  0  0  0  0  0  0  0  0  0  0  0
    1.2975   -0.8348   -0.0006 C   0  0  0  0  0  0  0  0  0  0  0  0
   -1.1118   -1.0123   -0.0008 C   0  0  0  0  0  0  0  0  0  0  0  0
    0.1441   -1.6191   -0.0010 C   0  0  0  0  0  0  0  0  0  0  0  0
    0.2262   -2.7042   -0.0011 H   0  0  0  0  0  0  0  0  0  0  0  0
   -1.0796    2.7779   -0.0004 H   0  0  0  0  0  0  0  0  0  0  0  0
    2.0424    2.2691   -0.0006 H   0  0  0  0  0  0  0  0  0  0  0  0
  1  8  1  0  0  0  0
  2  9  1  0  0  0  0
  3 10  1  0  0  0  0
  4  6  1  0  0  0  0
  4 13  1  0  0  0  0
  5  7  1  0  0  0  0
  5 14  1  0  0  0  0
  6  7  2  0  0  0  0
  6  8  1  0  0  0  0
  7  9  1  0  0  0  0
  8 10  2  0  0  0  0
  9 11  2  0  0  0  0
 10 11  1  0  0  0  0
 11 12  1  0  0  0  0
M  END
> <PUBCHEM_COMPOUND_CID>
32817

> <PUBCHEM_CONFORMER_RMSD>
0.4

> <PUBCHEM_CONFORMER_DIVERSEORDER>
1

> <PUBCHEM_MMFF94_PARTIAL_CHARGES>
14
1 -0.18
10 0.18
11 -0.15
12 0.15
13 0.45
14 0.45
2 -0.18
3 -0.18
4 -0.53
5 -0.53
6 0.08
7 0.08
8 0.18
9 0.18

> <PUBCHEM_EFFECTIVE_ROTOR_COUNT>
0

> <PUBCHEM_PHARMACOPHORE_FEATURES>
3
1 4 donor
1 5 donor
6 6 7 8 9 10 11 rings

> <PUBCHEM_HEAVY_ATOM_COUNT>
11

> <PUBCHEM_ATOM_DEF_STEREO_COUNT>
0

> <PUBCHEM_ATOM_UDEF_STEREO_COUNT>
0

> <PUBCHEM_BOND_DEF_STEREO_COUNT>
0

> <PUBCHEM_BOND_UDEF_STEREO_COUNT>
0

> <PUBCHEM_ISOTOPIC_ATOM_COUNT>
0

> <PUBCHEM_COMPONENT_COUNT>
1

> <PUBCHEM_CACTVS_TAUTO_COUNT>
8

> <PUBCHEM_CONFORMER_ID>
0000803100000001

> <PUBCHEM_MMFF94_ENERGY>
22.9519

> <PUBCHEM_FEATURE_SELFOVERLAP>
15.229

> <PUBCHEM_SHAPE_FINGERPRINT>
11206711 2 18195806267529567685
16945 1 18194682794010318886
193761 8 18410573937943734149
20588541 1 18119244206038496287
20871998 184 18187649158008787806
21040471 1 18410573980919982245
21501502 16 18410854339173547463
2334 1 18338517443386025827
23402655 69 17546184342754880285
23552423 10 18272086076354621374
23559900 14 18191303978659084694
241688 4 18411418422977151778
2748010 2 18409731742075437070
5084963 1 17825959392071283705
528886 8 18337678636357428763

> <PUBCHEM_SHAPE_MULTIPOLES>
220.25
3.76
2.54
0.61
0.4
0.2
0
-0.93
0
-0.55
0
-0.02
-0.04
0

> <PUBCHEM_SHAPE_SELFOVERLAP>
437.971

> <PUBCHEM_SHAPE_VOLUME>
133.6

> <PUBCHEM_COORDINATE_TYPE>
2
5
10

$$$$

