13545
  -OEChem-06241222393D

 17 16  0     0  0  0  0  0  0999 V2000
    1.9300    1.3428   -0.2195 O   0  0  0  0  0  0  0  0  0  0  0  0
    0.6932   -0.3692   -0.2011 N   0  0  0  0  0  0  0  0  0  0  0  0
    1.1547    0.6752    0.4756 N   0  0  0  0  0  0  0  0  0  0  0  0
   -0.6795   -0.7192    0.0747 C   0  0  0  0  0  0  0  0  0  0  0  0
   -1.6003    0.4709   -0.1732 C   0  0  0  0  0  0  0  0  0  0  0  0
   -3.0680    0.1405    0.0606 C   0  0  0  0  0  0  0  0  0  0  0  0
    1.5700   -1.5410   -0.0170 C   0  0  0  0  0  0  0  0  0  0  0  0
   -0.8064   -1.0688    1.1088 H   0  0  0  0  0  0  0  0  0  0  0  0
   -0.9951   -1.5409   -0.5813 H   0  0  0  0  0  0  0  0  0  0  0  0
   -1.4846    0.8245   -1.2057 H   0  0  0  0  0  0  0  0  0  0  0  0
   -1.3485    1.3120    0.4843 H   0  0  0  0  0  0  0  0  0  0  0  0
   -3.3985   -0.6630   -0.6053 H   0  0  0  0  0  0  0  0  0  0  0  0
   -3.2370   -0.1778    1.0942 H   0  0  0  0  0  0  0  0  0  0  0  0
   -3.6911    1.0196   -0.1317 H   0  0  0  0  0  0  0  0  0  0  0  0
    2.6014   -1.3170   -0.3171 H   0  0  0  0  0  0  0  0  0  0  0  0
    1.2380   -2.3697   -0.6533 H   0  0  0  0  0  0  0  0  0  0  0  0
    1.5810   -1.8898    1.0233 H   0  0  0  0  0  0  0  0  0  0  0  0
  1  3  2  0  0  0  0
  2  3  1  0  0  0  0
  2  4  1  0  0  0  0
  2  7  1  0  0  0  0
  4  5  1  0  0  0  0
  4  8  1  0  0  0  0
  4  9  1  0  0  0  0
  5  6  1  0  0  0  0
  5 10  1  0  0  0  0
  5 11  1  0  0  0  0
  6 12  1  0  0  0  0
  6 13  1  0  0  0  0
  6 14  1  0  0  0  0
  7 15  1  0  0  0  0
  7 16  1  0  0  0  0
  7 17  1  0  0  0  0
M  END
> <PUBCHEM_COMPOUND_CID>
13545

> <PUBCHEM_CONFORMER_RMSD>
0.4

> <PUBCHEM_CONFORMER_DIVERSEORDER>
1
38
31
33
28
46
55
54
61
22
39
52
15
56
2
5
35
32
3
53
59
42
14
9
36
43
37
26
4
34
17
23
21
11
19
18
12
6
45
7
41
8
49
60
13
10
20
51
40
29
57
16
24
30
27
47
25
50
58
44
48

> <PUBCHEM_MMFF94_PARTIAL_CHARGES>
5
1 -0.16
2 -0.36
3 -0.01
4 0.27
7 0.27

> <PUBCHEM_EFFECTIVE_ROTOR_COUNT>
3

> <PUBCHEM_PHARMACOPHORE_FEATURES>
1
1 6 hydrophobe

> <PUBCHEM_HEAVY_ATOM_COUNT>
7

> <PUBCHEM_ATOM_DEF_STEREO_COUNT>
0

> <PUBCHEM_ATOM_UDEF_STEREO_COUNT>
0

> <PUBCHEM_BOND_DEF_STEREO_COUNT>
0

> <PUBCHEM_BOND_UDEF_STEREO_COUNT>
0

> <PUBCHEM_ISOTOPIC_ATOM_COUNT>
0

> <PUBCHEM_COMPONENT_COUNT>
1

> <PUBCHEM_CACTVS_TAUTO_COUNT>
1

> <PUBCHEM_CONFORMER_ID>
000034E900000001

> <PUBCHEM_MMFF94_ENERGY>
9.5179

> <PUBCHEM_FEATURE_SELFOVERLAP>
5.074

> <PUBCHEM_SHAPE_FINGERPRINT>
12932741 1 17846495963381893663
14390081 3 18260549978991993921
20096714 4 18408605829294092517
21040471 1 18264492780264911402
23552449 11 18200042861708971067
24536 1 18339939167971398027
29004967 10 18192715763450411074
5460574 1 9295287244590561415

> <PUBCHEM_SHAPE_MULTIPOLES>
128.23
3.6
1.34
0.62
2.47
0.02
0.01
-0.25
-0.01
-1.06
-0.03
0.01
0
0.02

> <PUBCHEM_SHAPE_SELFOVERLAP>
226.279

> <PUBCHEM_SHAPE_VOLUME>
86

> <PUBCHEM_COORDINATE_TYPE>
2
5
10

$$$$

