443021
  -OEChem-07051213003D

 57 61  0     1  0  0  0  0  0999 V2000
   -1.0088   -4.7218    0.3032 O   0  0  0  0  0  0  0  0  0  0  0  0
   -2.1328   -1.3508   -1.9742 O   0  0  0  0  0  0  0  0  0  0  0  0
    0.5682   -4.7233    1.9725 O   0  0  0  0  0  0  0  0  0  0  0  0
   -4.4933    1.9431    1.0479 O   0  0  0  0  0  0  0  0  0  0  0  0
   -2.8160    3.2626    2.1635 O   0  0  0  0  0  0  0  0  0  0  0  0
    1.2382    2.6021   -0.6924 O   0  0  0  0  0  0  0  0  0  0  0  0
    5.0399   -0.0963    0.2678 O   0  0  0  0  0  0  0  0  0  0  0  0
    3.9282    2.1949   -0.8104 O   0  0  0  0  0  0  0  0  0  0  0  0
   -1.5648    0.7197   -2.8269 O   0  0  0  0  0  0  0  0  0  0  0  0
   -1.1532   -2.4250   -0.0152 C   0  0  1  0  0  0  0  0  0  0  0  0
    0.2132   -2.7392    0.5889 C   0  0  1  0  0  0  0  0  0  0  0  0
   -1.1766   -1.1885   -0.9252 C   0  0  2  0  0  0  0  0  0  0  0  0
    0.6685   -1.7558    1.6648 C   0  0  0  0  0  0  0  0  0  0  0  0
   -1.4799   -3.7601   -0.6544 C   0  0  0  0  0  0  0  0  0  0  0  0
   -1.5333    0.0491   -0.1043 C   0  0  0  0  0  0  0  0  0  0  0  0
   -0.0293   -4.1483    1.0771 C   0  0  0  0  0  0  0  0  0  0  0  0
    1.4863   -0.6425    1.0380 C   0  0  0  0  0  0  0  0  0  0  0  0
   -0.5385    0.8214    0.5692 C   0  0  0  0  0  0  0  0  0  0  0  0
    0.9064    0.5246    0.4918 C   0  0  0  0  0  0  0  0  0  0  0  0
   -2.8966    0.3950    0.0431 C   0  0  0  0  0  0  0  0  0  0  0  0
    2.8805   -0.8286    0.9482 C   0  0  0  0  0  0  0  0  0  0  0  0
   -0.9397    1.9308    1.3499 C   0  0  0  0  0  0  0  0  0  0  0  0
    1.7556    1.4674   -0.1256 C   0  0  0  0  0  0  0  0  0  0  0  0
   -3.2330    1.4866    0.8146 C   0  0  0  0  0  0  0  0  0  0  0  0
   -2.2800    2.2357    1.4500 C   0  0  0  0  0  0  0  0  0  0  0  0
    3.6971    0.1195    0.3363 C   0  0  0  0  0  0  0  0  0  0  0  0
    3.1340    1.2677   -0.2032 C   0  0  0  0  0  0  0  0  0  0  0  0
   -2.2197   -0.3135   -2.8560 C   0  0  0  0  0  0  0  0  0  0  0  0
   -4.2214    3.0724    1.9026 C   0  0  0  0  0  0  0  0  0  0  0  0
   -3.2554   -0.6215   -3.8944 C   0  0  0  0  0  0  0  0  0  0  0  0
    1.4711    2.7867   -2.0837 C   0  0  0  0  0  0  0  0  0  0  0  0
    5.5271   -0.7957   -0.8759 C   0  0  0  0  0  0  0  0  0  0  0  0
    4.4578    3.2316    0.0126 C   0  0  0  0  0  0  0  0  0  0  0  0
   -1.8761   -2.2932    0.8054 H   0  0  0  0  0  0  0  0  0  0  0  0
    0.9724   -2.8306   -0.2016 H   0  0  0  0  0  0  0  0  0  0  0  0
   -0.2007   -1.0639   -1.4110 H   0  0  0  0  0  0  0  0  0  0  0  0
    1.2884   -2.2640    2.4148 H   0  0  0  0  0  0  0  0  0  0  0  0
   -0.1759   -1.3479    2.2329 H   0  0  0  0  0  0  0  0  0  0  0  0
   -2.5558   -3.8949   -0.7994 H   0  0  0  0  0  0  0  0  0  0  0  0
   -0.9619   -3.9259   -1.6053 H   0  0  0  0  0  0  0  0  0  0  0  0
   -3.6859   -0.1917   -0.4170 H   0  0  0  0  0  0  0  0  0  0  0  0
    3.3313   -1.7322    1.3549 H   0  0  0  0  0  0  0  0  0  0  0  0
   -0.2089    2.5376    1.8785 H   0  0  0  0  0  0  0  0  0  0  0  0
   -4.7389    2.9229    2.8573 H   0  0  0  0  0  0  0  0  0  0  0  0
   -4.6160    3.9770    1.4258 H   0  0  0  0  0  0  0  0  0  0  0  0
   -4.2302   -0.7515   -3.4176 H   0  0  0  0  0  0  0  0  0  0  0  0
   -2.9721   -1.5222   -4.4448 H   0  0  0  0  0  0  0  0  0  0  0  0
   -3.3208    0.2119   -4.5996 H   0  0  0  0  0  0  0  0  0  0  0  0
    1.6788    1.8457   -2.6057 H   0  0  0  0  0  0  0  0  0  0  0  0
    2.2873    3.4980   -2.2379 H   0  0  0  0  0  0  0  0  0  0  0  0
    0.5654    3.2189   -2.5201 H   0  0  0  0  0  0  0  0  0  0  0  0
    5.2917   -0.2464   -1.7929 H   0  0  0  0  0  0  0  0  0  0  0  0
    5.0996   -1.8024   -0.9203 H   0  0  0  0  0  0  0  0  0  0  0  0
    6.6137   -0.8805   -0.7883 H   0  0  0  0  0  0  0  0  0  0  0  0
    5.0537    3.8977   -0.6174 H   0  0  0  0  0  0  0  0  0  0  0  0
    5.1053    2.8132    0.7895 H   0  0  0  0  0  0  0  0  0  0  0  0
    3.6506    3.8127    0.4697 H   0  0  0  0  0  0  0  0  0  0  0  0
  1 14  1  0  0  0  0
  1 16  1  0  0  0  0
  2 12  1  0  0  0  0
  2 28  1  0  0  0  0
  3 16  2  0  0  0  0
  4 24  1  0  0  0  0
  4 29  1  0  0  0  0
  5 25  1  0  0  0  0
  5 29  1  0  0  0  0
  6 23  1  0  0  0  0
  6 31  1  0  0  0  0
  7 26  1  0  0  0  0
  7 32  1  0  0  0  0
  8 27  1  0  0  0  0
  8 33  1  0  0  0  0
  9 28  2  0  0  0  0
 10 11  1  0  0  0  0
 10 12  1  0  0  0  0
 10 14  1  0  0  0  0
 10 34  1  0  0  0  0
 11 13  1  0  0  0  0
 11 16  1  0  0  0  0
 11 35  1  0  0  0  0
 12 15  1  0  0  0  0
 12 36  1  0  0  0  0
 13 17  1  0  0  0  0
 13 37  1  0  0  0  0
 13 38  1  0  0  0  0
 14 39  1  0  0  0  0
 14 40  1  0  0  0  0
 15 18  1  0  0  0  0
 15 20  2  0  0  0  0
 17 19  1  0  0  0  0
 17 21  2  0  0  0  0
 18 19  1  0  0  0  0
 18 22  2  0  0  0  0
 19 23  2  0  0  0  0
 20 24  1  0  0  0  0
 20 41  1  0  0  0  0
 21 26  1  0  0  0  0
 21 42  1  0  0  0  0
 22 25  1  0  0  0  0
 22 43  1  0  0  0  0
 23 27  1  0  0  0  0
 24 25  2  0  0  0  0
 26 27  2  0  0  0  0
 28 30  1  0  0  0  0
 29 44  1  0  0  0  0
 29 45  1  0  0  0  0
 30 46  1  0  0  0  0
 30 47  1  0  0  0  0
 30 48  1  0  0  0  0
 31 49  1  0  0  0  0
 31 50  1  0  0  0  0
 31 51  1  0  0  0  0
 32 52  1  0  0  0  0
 32 53  1  0  0  0  0
 32 54  1  0  0  0  0
 33 55  1  0  0  0  0
 33 56  1  0  0  0  0
 33 57  1  0  0  0  0
M  END
> <PUBCHEM_COMPOUND_CID>
443021

> <PUBCHEM_CONFORMER_RMSD>
0.8

> <PUBCHEM_CONFORMER_DIVERSEORDER>
1
3
4
9
2
7
5
8
6

> <PUBCHEM_MMFF94_PARTIAL_CHARGES>
33
1 -0.43
11 0.06
12 0.42
13 0.14
14 0.28
15 -0.14
16 0.66
17 -0.14
2 -0.43
20 -0.15
21 -0.15
22 -0.15
23 0.08
24 0.08
25 0.08
26 0.08
27 0.08
28 0.66
29 0.56
3 -0.57
30 0.06
31 0.28
32 0.28
33 0.28
4 -0.36
41 0.15
42 0.15
43 0.15
5 -0.36
6 -0.36
7 -0.36
8 -0.36
9 -0.57

> <PUBCHEM_EFFECTIVE_ROTOR_COUNT>
6.4

> <PUBCHEM_PHARMACOPHORE_FEATURES>
11
1 3 acceptor
1 4 acceptor
1 5 acceptor
1 6 acceptor
1 7 acceptor
1 8 acceptor
1 9 acceptor
5 1 10 11 14 16 rings
5 4 5 24 25 29 rings
6 15 18 20 22 24 25 rings
6 17 19 21 23 26 27 rings

> <PUBCHEM_HEAVY_ATOM_COUNT>
33

> <PUBCHEM_ATOM_DEF_STEREO_COUNT>
3

> <PUBCHEM_ATOM_UDEF_STEREO_COUNT>
0

> <PUBCHEM_BOND_DEF_STEREO_COUNT>
0

> <PUBCHEM_BOND_UDEF_STEREO_COUNT>
0

> <PUBCHEM_ISOTOPIC_ATOM_COUNT>
0

> <PUBCHEM_COMPONENT_COUNT>
1

> <PUBCHEM_CACTVS_TAUTO_COUNT>
2

> <PUBCHEM_CONFORMER_ID>
0006C28D00000001

> <PUBCHEM_MMFF94_ENERGY>
135.5301

> <PUBCHEM_FEATURE_SELFOVERLAP>
55.979

> <PUBCHEM_SHAPE_FINGERPRINT>
107951 10 18117812547430697639
11445158 3 17702925015923216364
12156800 1 17766510834346637279
12160290 23 17985562060661132050
12788726 201 18191018998139383619
133893 2 17838361904982337627
14114206 34 18043837332632546093
14790565 3 18267290101408756592
15219462 58 17898855647837479596
15420108 30 17464260804503939249
18603816 31 17532090687025031622
19319366 153 18334858367905630409
20587220 46 4959411811083548669
20600515 1 17545093334401889424
20739085 24 17982160420934612696
20775438 99 16027654906242755318
23419403 2 16823069114213485885
23558518 356 18266732481482960000
23559900 14 17386007304268071744
238 59 17556338168742150039
266924 78 18199761404170345671
27425 322 18262224607962749012
3380486 77 17767450989913352698
394222 165 17825937402355719433
463206 1 17041477212457879934
469060 322 16414634830859929643

> <PUBCHEM_SHAPE_MULTIPOLES>
626.3
7.59
5.42
2.6
7.17
5.03
2.61
-5.92
0.71
-1.7
-2.71
-3.2
-0.19
-3.19

> <PUBCHEM_SHAPE_SELFOVERLAP>
1386.592

> <PUBCHEM_SHAPE_VOLUME>
335.3

> <PUBCHEM_COORDINATE_TYPE>
2
5
10

$$$$

