53297400
  -OEChem-07051213123D

 44 46  0     0  0  0  0  0  0999 V2000
    0.6528   -2.1731   -0.7644 O   0  0  0  0  0  0  0  0  0  0  0  0
   -1.8659   -2.3416   -0.7677 O   0  0  0  0  0  0  0  0  0  0  0  0
   -4.4025   -2.4989   -0.7667 O   0  0  0  0  0  0  0  0  0  0  0  0
    3.5185   -0.6388   -1.4289 O   0  0  0  0  0  0  0  0  0  0  0  0
   -6.9441    1.2415    0.6048 O   0  0  0  0  0  0  0  0  0  0  0  0
    4.7952    2.6661   -0.4532 O   0  0  0  0  0  0  0  0  0  0  0  0
    2.8784    2.7199   -1.6685 O   0  0  0  0  0  0  0  0  0  0  0  0
    5.8565   -0.9889   -0.0944 O   0  0  0  0  0  0  0  0  0  0  0  0
   -0.7666   -0.3248   -0.0826 C   0  0  0  0  0  0  0  0  0  0  0  0
   -0.8534    1.0040    0.3871 C   0  0  0  0  0  0  0  0  0  0  0  0
    1.5757    1.1524    0.3851 C   0  0  0  0  0  0  0  0  0  0  0  0
    1.6613   -0.1568   -0.0777 C   0  0  0  0  0  0  0  0  0  0  0  0
   -3.2116   -0.4840   -0.0843 C   0  0  0  0  0  0  0  0  0  0  0  0
    0.4986   -0.8916   -0.3104 C   0  0  0  0  0  0  0  0  0  0  0  0
   -1.9467   -1.0516   -0.3121 C   0  0  0  0  0  0  0  0  0  0  0  0
   -3.2984    0.8449    0.3854 C   0  0  0  0  0  0  0  0  0  0  0  0
    0.3271    1.7301    0.6163 C   0  0  0  0  0  0  0  0  0  0  0  0
   -2.1182    1.5715    0.6150 C   0  0  0  0  0  0  0  0  0  0  0  0
    2.8023    1.9653    0.6455 C   0  0  0  0  0  0  0  0  0  0  0  0
    2.9700   -0.7577   -0.3190 C   0  0  0  0  0  0  0  0  0  0  0  0
   -4.3922   -1.2099   -0.3137 C   0  0  0  0  0  0  0  0  0  0  0  0
   -4.5634    1.4117    0.6129 C   0  0  0  0  0  0  0  0  0  0  0  0
    3.6766   -1.5113    0.8126 C   0  0  0  0  0  0  0  0  0  0  0  0
   -5.7262    0.6771    0.3800 C   0  0  0  0  0  0  0  0  0  0  0  0
   -5.6407   -0.6321   -0.0828 C   0  0  0  0  0  0  0  0  0  0  0  0
    3.4581    2.4851   -0.6172 C   0  0  0  0  0  0  0  0  0  0  0  0
    5.1934   -1.5240    0.7924 C   0  0  0  0  0  0  0  0  0  0  0  0
    5.8654   -2.2846    1.9066 C   0  0  0  0  0  0  0  0  0  0  0  0
    0.2656    2.7558    0.9763 H   0  0  0  0  0  0  0  0  0  0  0  0
   -2.1852    2.5974    0.9776 H   0  0  0  0  0  0  0  0  0  0  0  0
    3.5270    1.3738    1.2163 H   0  0  0  0  0  0  0  0  0  0  0  0
    2.5697    2.8377    1.2687 H   0  0  0  0  0  0  0  0  0  0  0  0
   -4.6399    2.4357    0.9749 H   0  0  0  0  0  0  0  0  0  0  0  0
    3.3661   -1.0750    1.7683 H   0  0  0  0  0  0  0  0  0  0  0  0
    3.3322   -2.5505    0.7706 H   0  0  0  0  0  0  0  0  0  0  0  0
   -6.5550   -1.1936   -0.2603 H   0  0  0  0  0  0  0  0  0  0  0  0
    1.5727   -2.3676   -1.0011 H   0  0  0  0  0  0  0  0  0  0  0  0
   -2.6659   -2.8380   -0.5372 H   0  0  0  0  0  0  0  0  0  0  0  0
   -5.3191   -2.8108   -0.8560 H   0  0  0  0  0  0  0  0  0  0  0  0
   -6.8167    2.1519    0.9224 H   0  0  0  0  0  0  0  0  0  0  0  0
    5.5992   -3.3423    1.8401 H   0  0  0  0  0  0  0  0  0  0  0  0
    6.9509   -2.1838    1.8201 H   0  0  0  0  0  0  0  0  0  0  0  0
    5.5516   -1.8760    2.8704 H   0  0  0  0  0  0  0  0  0  0  0  0
    5.2213    3.0011   -1.2708 H   0  0  0  0  0  0  0  0  0  0  0  0
  1 14  1  0  0  0  0
  1 37  1  0  0  0  0
  2 15  1  0  0  0  0
  2 38  1  0  0  0  0
  3 21  1  0  0  0  0
  3 39  1  0  0  0  0
  4 20  2  0  0  0  0
  5 24  1  0  0  0  0
  5 40  1  0  0  0  0
  6 26  1  0  0  0  0
  6 44  1  0  0  0  0
  7 26  2  0  0  0  0
  8 27  2  0  0  0  0
  9 10  1  0  0  0  0
  9 14  2  0  0  0  0
  9 15  1  0  0  0  0
 10 17  2  0  0  0  0
 10 18  1  0  0  0  0
 11 12  2  0  0  0  0
 11 17  1  0  0  0  0
 11 19  1  0  0  0  0
 12 14  1  0  0  0  0
 12 20  1  0  0  0  0
 13 15  2  0  0  0  0
 13 16  1  0  0  0  0
 13 21  1  0  0  0  0
 16 18  2  0  0  0  0
 16 22  1  0  0  0  0
 17 29  1  0  0  0  0
 18 30  1  0  0  0  0
 19 26  1  0  0  0  0
 19 31  1  0  0  0  0
 19 32  1  0  0  0  0
 20 23  1  0  0  0  0
 21 25  2  0  0  0  0
 22 24  2  0  0  0  0
 22 33  1  0  0  0  0
 23 27  1  0  0  0  0
 23 34  1  0  0  0  0
 23 35  1  0  0  0  0
 24 25  1  0  0  0  0
 25 36  1  0  0  0  0
 27 28  1  0  0  0  0
 28 41  1  0  0  0  0
 28 42  1  0  0  0  0
 28 43  1  0  0  0  0
M  END
> <PUBCHEM_COMPOUND_CID>
53297400

> <PUBCHEM_CONFORMER_RMSD>
0.8

> <PUBCHEM_CONFORMER_DIVERSEORDER>
1
19
30
6
22
21
14
29
18
10
25
26
20
12
3
15
9
27
16
28
23
2
24
4
5
17
7
13
8
11

> <PUBCHEM_MMFF94_PARTIAL_CHARGES>
33
1 -0.53
11 -0.14
12 0.09
14 0.08
15 0.08
17 -0.15
18 -0.15
19 0.2
2 -0.53
20 0.42
21 0.08
22 -0.15
23 0.12
24 0.08
25 -0.15
26 0.66
27 0.45
28 0.06
29 0.15
3 -0.53
30 0.15
33 0.15
36 0.15
37 0.45
38 0.45
39 0.45
4 -0.57
40 0.45
44 0.5
5 -0.53
6 -0.65
7 -0.57
8 -0.57

> <PUBCHEM_EFFECTIVE_ROTOR_COUNT>
5

> <PUBCHEM_PHARMACOPHORE_FEATURES>
13
1 1 donor
1 2 donor
1 23 anion
1 3 donor
1 4 acceptor
1 5 donor
1 6 acceptor
1 7 acceptor
1 8 acceptor
3 6 7 26 anion
6 13 16 21 22 24 25 rings
6 9 10 11 12 14 17 rings
6 9 10 13 15 16 18 rings

> <PUBCHEM_HEAVY_ATOM_COUNT>
28

> <PUBCHEM_ATOM_DEF_STEREO_COUNT>
0

> <PUBCHEM_ATOM_UDEF_STEREO_COUNT>
0

> <PUBCHEM_BOND_DEF_STEREO_COUNT>
0

> <PUBCHEM_BOND_UDEF_STEREO_COUNT>
0

> <PUBCHEM_ISOTOPIC_ATOM_COUNT>
0

> <PUBCHEM_COMPONENT_COUNT>
1

> <PUBCHEM_CACTVS_TAUTO_COUNT>
998

> <PUBCHEM_CONFORMER_ID>
032D40F800000001

> <PUBCHEM_MMFF94_ENERGY>
88.9401

> <PUBCHEM_FEATURE_SELFOVERLAP>
66.116

> <PUBCHEM_SHAPE_FINGERPRINT>
1100329 8 18409170995556647098
11405975 8 18412262818106393147
11578080 2 16557314083131415812
11756154 67 17903070376818492422
11963148 33 17835809594617928219
12107183 9 18267024036499981849
12107698 1 18201721803069373905
12236239 1 18130506430622113202
12403260 363 18410295834606132185
12616971 3 18335423465352988903
12633257 1 18408602591078837367
12788726 201 17604133892199915553
12838862 33 18116450309234215881
13140716 1 18334581221865453202
13533116 47 17917713535037065754
13540713 5 18264217915427836742
14117953 113 18261955270974664645
14739800 52 17969793981893079184
14790565 3 18334285453812860521
14955137 171 18114463457152057066
15183329 4 18334287669520093701
15196674 1 18334574608169549097
15238133 3 17386279991098227425
15250474 111 18334586698271243199
17349148 13 18113622291637794608
17857418 61 18409450297189741419
17980427 23 17750539341943182132
1813 80 18129660937015231862
18681886 176 18259985964266296394
20028762 73 18113342998384048191
20612939 158 18341894078002195629
20642791 105 18119533386150158968
20691752 17 17846786173857815292
21267235 1 18335133206873070499
21781055 127 17241587572038530969
21792934 111 18333739035563082497
21859007 373 18127148573867316453
23522609 53 18197469970151455348
23559900 14 17823121483941173286
25147074 1 18334864870116682134
3004659 81 18335695053230796052
335352 9 18334013917437543053
3411729 13 18188781535749699552
350125 39 18409449197884166540
3680242 22 18337105760671478066
4073 2 18058444301383206818
474 4 17916019049873988012
5104073 3 18334290929853673363
9981440 41 17693658113503746640

> <PUBCHEM_SHAPE_MULTIPOLES>
529.27
14.26
2.91
1.09
4.73
0.63
-0.03
-2.58
-2.92
-2.73
0.35
-1.17
-0.1
-2.62

> <PUBCHEM_SHAPE_SELFOVERLAP>
1175.653

> <PUBCHEM_SHAPE_VOLUME>
282.2

> <PUBCHEM_COORDINATE_TYPE>
2
5
10

$$$$

