6438888
  -OEChem-07051213072D

 84 85  0     1  0  0  0  0  0999 V2000
    5.4641    0.0600    0.0000 O   0  0  0  0  0  0  0  0  0  0  0  0
    6.3301    1.5600    0.0000 O   0  0  0  0  0  0  0  0  0  0  0  0
    2.8660    1.5600    0.0000 O   0  0  0  0  0  0  0  0  0  0  0  0
   12.3923    0.0600    0.0000 O   0  0  0  0  0  0  0  0  0  0  0  0
    2.8660   -0.4400    0.0000 N   0  0  0  0  0  0  0  0  0  0  0  0
   13.2583    1.5600    0.0000 N   0  0  0  0  0  0  0  0  0  0  0  0
    3.7320    0.0600    0.0000 C   0  0  1  0  0  0  0  0  0  0  0  0
    3.7320    1.0600    0.0000 C   0  0  2  0  0  0  0  0  0  0  0  0
    4.5981   -0.4400    0.0000 C   0  0  1  0  0  0  0  0  0  0  0  0
    4.5981    1.5600    0.0000 C   0  0  0  0  0  0  0  0  0  0  0  0
    5.4641    1.0600    0.0000 C   0  0  1  0  0  0  0  0  0  0  0  0
    7.1962    1.0600    0.0000 C   0  0  2  0  0  0  0  0  0  0  0  0
    4.5981   -1.4400    0.0000 C   0  0  0  0  0  0  0  0  0  0  0  0
    8.0622    1.5600    0.0000 C   0  0  1  0  0  0  0  0  0  0  0  0
    7.1962    0.0600    0.0000 C   0  0  0  0  0  0  0  0  0  0  0  0
    2.0000    0.0600    0.0000 C   0  0  0  0  0  0  0  0  0  0  0  0
    8.0622    2.5600    0.0000 C   0  0  0  0  0  0  0  0  0  0  0  0
    8.9282    1.0600    0.0000 C   0  0  0  0  0  0  0  0  0  0  0  0
    8.0622   -0.4400    0.0000 C   0  0  0  0  0  0  0  0  0  0  0  0
    8.0622   -1.4400    0.0000 C   0  0  0  0  0  0  0  0  0  0  0  0
    9.7942    1.5600    0.0000 C   0  0  0  0  0  0  0  0  0  0  0  0
    8.9282   -1.9400    0.0000 C   0  0  0  0  0  0  0  0  0  0  0  0
   14.1244    0.0600    0.0000 C   0  0  1  0  0  0  0  0  0  0  0  0
    7.1962   -1.9400    0.0000 C   0  0  0  0  0  0  0  0  0  0  0  0
   13.2583   -0.4400    0.0000 C   0  0  0  0  0  0  0  0  0  0  0  0
   14.1244    1.0600    0.0000 C   0  0  0  0  0  0  0  0  0  0  0  0
    9.7942   -1.4400    0.0000 C   0  0  0  0  0  0  0  0  0  0  0  0
   13.2583   -1.4400    0.0000 C   0  0  0  0  0  0  0  0  0  0  0  0
   10.6603    1.0600    0.0000 C   0  0  0  0  0  0  0  0  0  0  0  0
   14.9904   -0.4400    0.0000 C   0  0  0  0  0  0  0  0  0  0  0  0
   10.6603   -1.9400    0.0000 C   0  0  0  0  0  0  0  0  0  0  0  0
   12.3923   -1.9400    0.0000 C   0  0  0  0  0  0  0  0  0  0  0  0
   11.5263    1.5600    0.0000 C   0  0  0  0  0  0  0  0  0  0  0  0
    9.7942   -0.4400    0.0000 C   0  0  0  0  0  0  0  0  0  0  0  0
   12.3923    1.0600    0.0000 C   0  0  0  0  0  0  0  0  0  0  0  0
   11.5263   -1.4400    0.0000 C   0  0  0  0  0  0  0  0  0  0  0  0
    3.7320   -0.5600    0.0000 H   0  0  0  0  0  0  0  0  0  0  0  0
    3.7320    1.6800    0.0000 H   0  0  0  0  0  0  0  0  0  0  0  0
    5.1350   -0.7500    0.0000 H   0  0  0  0  0  0  0  0  0  0  0  0
    4.9966    2.0349    0.0000 H   0  0  0  0  0  0  0  0  0  0  0  0
    4.1996    2.0349    0.0000 H   0  0  0  0  0  0  0  0  0  0  0  0
    5.4641    1.6800    0.0000 H   0  0  0  0  0  0  0  0  0  0  0  0
    6.6592    0.7500    0.0000 H   0  0  0  0  0  0  0  0  0  0  0  0
    2.8660   -1.0600    0.0000 H   0  0  0  0  0  0  0  0  0  0  0  0
    3.9781   -1.4400    0.0000 H   0  0  0  0  0  0  0  0  0  0  0  0
    4.5981   -2.0600    0.0000 H   0  0  0  0  0  0  0  0  0  0  0  0
    5.2181   -1.4400    0.0000 H   0  0  0  0  0  0  0  0  0  0  0  0
    7.5252    1.8700    0.0000 H   0  0  0  0  0  0  0  0  0  0  0  0
    6.5856    0.1677    0.0000 H   0  0  0  0  0  0  0  0  0  0  0  0
    6.9841   -0.5226    0.0000 H   0  0  0  0  0  0  0  0  0  0  0  0
    2.8660    2.1800    0.0000 H   0  0  0  0  0  0  0  0  0  0  0  0
    2.3100    0.5969    0.0000 H   0  0  0  0  0  0  0  0  0  0  0  0
    1.4631    0.3700    0.0000 H   0  0  0  0  0  0  0  0  0  0  0  0
    1.6900   -0.4769    0.0000 H   0  0  0  0  0  0  0  0  0  0  0  0
    8.6822    2.5600    0.0000 H   0  0  0  0  0  0  0  0  0  0  0  0
    8.0622    3.1800    0.0000 H   0  0  0  0  0  0  0  0  0  0  0  0
    7.4422    2.5600    0.0000 H   0  0  0  0  0  0  0  0  0  0  0  0
    8.9282    0.4400    0.0000 H   0  0  0  0  0  0  0  0  0  0  0  0
    8.5991   -0.1300    0.0000 H   0  0  0  0  0  0  0  0  0  0  0  0
    9.7942    2.1800    0.0000 H   0  0  0  0  0  0  0  0  0  0  0  0
    8.5297   -2.4150    0.0000 H   0  0  0  0  0  0  0  0  0  0  0  0
    9.3267   -2.4150    0.0000 H   0  0  0  0  0  0  0  0  0  0  0  0
   14.1244   -0.5600    0.0000 H   0  0  0  0  0  0  0  0  0  0  0  0
   13.0463    0.1426    0.0000 H   0  0  0  0  0  0  0  0  0  0  0  0
   12.6477   -0.5477    0.0000 H   0  0  0  0  0  0  0  0  0  0  0  0
    6.8862   -1.4031    0.0000 H   0  0  0  0  0  0  0  0  0  0  0  0
    6.6592   -2.2500    0.0000 H   0  0  0  0  0  0  0  0  0  0  0  0
    7.5062   -2.4769    0.0000 H   0  0  0  0  0  0  0  0  0  0  0  0
   14.7349    0.9523    0.0000 H   0  0  0  0  0  0  0  0  0  0  0  0
   14.3364    1.6426    0.0000 H   0  0  0  0  0  0  0  0  0  0  0  0
   13.4704   -2.0226    0.0000 H   0  0  0  0  0  0  0  0  0  0  0  0
   13.8689   -1.3323    0.0000 H   0  0  0  0  0  0  0  0  0  0  0  0
   10.6603    0.4400    0.0000 H   0  0  0  0  0  0  0  0  0  0  0  0
   14.6804   -0.9769    0.0000 H   0  0  0  0  0  0  0  0  0  0  0  0
   15.5273   -0.7500    0.0000 H   0  0  0  0  0  0  0  0  0  0  0  0
   15.3004    0.0969    0.0000 H   0  0  0  0  0  0  0  0  0  0  0  0
   13.2583    2.1800    0.0000 H   0  0  0  0  0  0  0  0  0  0  0  0
   10.6603   -2.5600    0.0000 H   0  0  0  0  0  0  0  0  0  0  0  0
   12.3923   -2.5600    0.0000 H   0  0  0  0  0  0  0  0  0  0  0  0
   11.5263    2.1800    0.0000 H   0  0  0  0  0  0  0  0  0  0  0  0
   10.4142   -0.4400    0.0000 H   0  0  0  0  0  0  0  0  0  0  0  0
    9.7942    0.1800    0.0000 H   0  0  0  0  0  0  0  0  0  0  0  0
    9.1742   -0.4400    0.0000 H   0  0  0  0  0  0  0  0  0  0  0  0
   11.5263   -0.8200    0.0000 H   0  0  0  0  0  0  0  0  0  0  0  0
  1  9  1  0  0  0  0
  1 11  1  0  0  0  0
 11  2  1  6  0  0  0
 12  2  1  6  0  0  0
  8  3  1  1  0  0  0
  3 51  1  0  0  0  0
  4 35  2  0  0  0  0
  7  5  1  1  0  0  0
  5 16  1  0  0  0  0
  5 44  1  0  0  0  0
  6 26  1  0  0  0  0
  6 35  1  0  0  0  0
  6 77  1  0  0  0  0
  7  8  1  0  0  0  0
  7  9  1  0  0  0  0
  7 37  1  0  0  0  0
  8 10  1  0  0  0  0
  8 38  1  0  0  0  0
  9 13  1  6  0  0  0
  9 39  1  0  0  0  0
 10 11  1  0  0  0  0
 10 40  1  0  0  0  0
 10 41  1  0  0  0  0
 11 42  1  0  0  0  0
 12 14  1  0  0  0  0
 12 15  1  0  0  0  0
 12 43  1  0  0  0  0
 13 45  1  0  0  0  0
 13 46  1  0  0  0  0
 13 47  1  0  0  0  0
 14 17  1  1  0  0  0
 14 18  1  0  0  0  0
 14 48  1  0  0  0  0
 15 19  1  0  0  0  0
 15 49  1  0  0  0  0
 15 50  1  0  0  0  0
 16 52  1  0  0  0  0
 16 53  1  0  0  0  0
 16 54  1  0  0  0  0
 17 55  1  0  0  0  0
 17 56  1  0  0  0  0
 17 57  1  0  0  0  0
 18 21  2  0  0  0  0
 18 58  1  0  0  0  0
 19 20  2  0  0  0  0
 19 59  1  0  0  0  0
 20 22  1  0  0  0  0
 20 24  1  0  0  0  0
 21 29  1  0  0  0  0
 21 60  1  0  0  0  0
 22 27  1  0  0  0  0
 22 61  1  0  0  0  0
 22 62  1  0  0  0  0
 23 25  1  0  0  0  0
 23 26  1  0  0  0  0
 23 30  1  1  0  0  0
 23 63  1  0  0  0  0
 24 66  1  0  0  0  0
 24 67  1  0  0  0  0
 24 68  1  0  0  0  0
 25 28  1  0  0  0  0
 25 64  1  0  0  0  0
 25 65  1  0  0  0  0
 26 69  1  0  0  0  0
 26 70  1  0  0  0  0
 27 31  2  0  0  0  0
 27 34  1  0  0  0  0
 28 32  1  0  0  0  0
 28 71  1  0  0  0  0
 28 72  1  0  0  0  0
 29 33  2  0  0  0  0
 29 73  1  0  0  0  0
 30 74  1  0  0  0  0
 30 75  1  0  0  0  0
 30 76  1  0  0  0  0
 31 36  1  0  0  0  0
 31 78  1  0  0  0  0
 32 36  2  0  0  0  0
 32 79  1  0  0  0  0
 33 35  1  0  0  0  0
 33 80  1  0  0  0  0
 34 81  1  0  0  0  0
 34 82  1  0  0  0  0
 34 83  1  0  0  0  0
 36 84  1  0  0  0  0
M  END
> <PUBCHEM_COMPOUND_CID>
6438888

> <PUBCHEM_COMPOUND_CANONICALIZED>
1

> <PUBCHEM_CACTVS_COMPLEXITY>
829

> <PUBCHEM_CACTVS_HBOND_ACCEPTOR>
5

> <PUBCHEM_CACTVS_HBOND_DONOR>
3

> <PUBCHEM_CACTVS_ROTATABLE_BOND>
3

> <PUBCHEM_CACTVS_SUBSKEYS>
AAADcfB7OAAAAAAAAAAAAAAAAAAAAAAAAAAkAAAAAAAAAAAAAAAAHgAQCAAADTzxgAcCCALABgCIAiFSEACAAAAgAAAICIAIAEgaEAIAgQAnQAAF1gCcgYOwYAwMAAAAAAAAAAAAAAAAAAAAAAAAAAAAAA==

> <PUBCHEM_IUPAC_OPENEYE_NAME>
(3E,5E,7S,8S,10E,13E,15E,19S)-8-[(2R,4S,5S,6R)-4-hydroxy-6-methyl-5-(methylamino)tetrahydropyran-2-yl]oxy-7,11,13,19-tetramethyl-1-azacycloicosa-3,5,10,13,15-pentaen-2-one

> <PUBCHEM_IUPAC_CAS_NAME>
(3E,5E,7S,8S,10E,13E,15E,19S)-8-[[(2R,4S,5S,6R)-4-hydroxy-6-methyl-5-(methylamino)-2-oxanyl]oxy]-7,11,13,19-tetramethyl-1-azacycloeicosa-3,5,10,13,15-pentaen-2-one

> <PUBCHEM_IUPAC_NAME>
(3E,5E,7S,8S,10E,13E,15E,19S)-8-[(2R,4S,5S,6R)-4-hydroxy-6-methyl-5-(methylamino)oxan-2-yl]oxy-7,11,13,19-tetramethyl-1-azacycloicosa-3,5,10,13,15-pentaen-2-one

> <PUBCHEM_IUPAC_SYSTEMATIC_NAME>
(3E,5E,7S,8S,10E,13E,15E,19S)-7,11,13,19-tetramethyl-8-[(2R,4S,5S,6R)-6-methyl-5-(methylamino)-4-oxidanyl-oxan-2-yl]oxy-1-azacycloicosa-3,5,10,13,15-pentaen-2-one

> <PUBCHEM_IUPAC_TRADITIONAL_NAME>
(3E,5E,7S,8S,10E,13E,15E,19S)-8-[(2R,4S,5S,6R)-4-hydroxy-6-methyl-5-(methylamino)tetrahydropyran-2-yl]oxy-7,11,13,19-tetramethyl-1-azacycloeicosa-3,5,10,13,15-pentaen-2-one

> <PUBCHEM_IUPAC_INCHI>
InChI=1S/C30H48N2O4/c1-21-12-8-7-9-13-23(3)20-32-28(34)15-11-10-14-24(4)27(17-16-22(2)18-21)36-29-19-26(33)30(31-6)25(5)35-29/h7-8,10-12,14-16,23-27,29-31,33H,9,13,17-20H2,1-6H3,(H,32,34)/b8-7+,14-10+,15-11+,21-12+,22-16+/t23-,24-,25+,26-,27-,29-,30+/m0/s1

> <PUBCHEM_IUPAC_INCHIKEY>
FINGADBUNZWVLV-KVAOKYIVSA-N

> <PUBCHEM_XLOGP3_AA>
5

> <PUBCHEM_EXACT_MASS>
500.361408

> <PUBCHEM_MOLECULAR_FORMULA>
C30H48N2O4

> <PUBCHEM_MOLECULAR_WEIGHT>
500.71312

> <PUBCHEM_OPENEYE_CAN_SMILES>
CC1CCC=CC=C(CC(=CCC(C(C=CC=CC(=O)NC1)C)OC2CC(C(C(O2)C)NC)O)C)C

> <PUBCHEM_OPENEYE_ISO_SMILES>
C[C@H]1CC/C=C/C=C(/C/C(=C/C[C@@H]([C@H](/C=C/C=C/C(=O)NC1)C)O[C@H]2C[C@@H]([C@@H]([C@H](O2)C)NC)O)/C)\C

> <PUBCHEM_CACTVS_TPSA>
79.8

> <PUBCHEM_MONOISOTOPIC_WEIGHT>
500.361408

> <PUBCHEM_TOTAL_CHARGE>
0

> <PUBCHEM_HEAVY_ATOM_COUNT>
36

> <PUBCHEM_ATOM_DEF_STEREO_COUNT>
7

> <PUBCHEM_ATOM_UDEF_STEREO_COUNT>
0

> <PUBCHEM_BOND_DEF_STEREO_COUNT>
5

> <PUBCHEM_BOND_UDEF_STEREO_COUNT>
0

> <PUBCHEM_ISOTOPIC_ATOM_COUNT>
0

> <PUBCHEM_COMPONENT_COUNT>
1

> <PUBCHEM_CACTVS_TAUTO_COUNT>
5

> <PUBCHEM_COORDINATE_TYPE>
1
5
255

> <PUBCHEM_BONDANNOTATIONS>
14  17  5
11  2  6
12  2  6
23  30  5
8  3  5
7  5  5
9  13  6

$$$$

