1673
  -OEChem-07051212453D

 18 19  0     0  0  0  0  0  0999 V2000
   -1.5067    0.4847    0.0216 N   0  0  0  0  0  0  0  0  0  0  0  0
   -0.8190   -1.8865    0.0005 N   0  0  0  0  0  0  0  0  0  0  0  0
    0.3306    2.0321   -0.0046 N   0  0  0  0  0  0  0  0  0  0  0  0
    1.4466   -1.5206   -0.0018 N   0  0  0  0  0  0  0  0  0  0  0  0
    2.5911    1.1854   -0.0058 N   0  0  0  0  0  0  0  0  0  0  0  0
   -0.6540   -0.5964    0.0095 C   0  0  0  0  0  0  0  0  0  0  0  0
    0.7933   -0.3214    0.0038 C   0  0  0  0  0  0  0  0  0  0  0  0
    1.2334    0.9567   -0.0004 C   0  0  0  0  0  0  0  0  0  0  0  0
   -0.9408    1.7490    0.0029 C   0  0  0  0  0  0  0  0  0  0  0  0
   -2.9490    0.3037   -0.0207 C   0  0  0  0  0  0  0  0  0  0  0  0
    0.4745   -2.3865   -0.0052 C   0  0  0  0  0  0  0  0  0  0  0  0
   -1.6820    2.5647   -0.0076 H   0  0  0  0  0  0  0  0  0  0  0  0
   -3.2885    0.2446   -1.0595 H   0  0  0  0  0  0  0  0  0  0  0  0
   -3.4670    1.1361    0.4673 H   0  0  0  0  0  0  0  0  0  0  0  0
   -3.2481   -0.6146    0.4959 H   0  0  0  0  0  0  0  0  0  0  0  0
    0.6491   -3.4730   -0.0108 H   0  0  0  0  0  0  0  0  0  0  0  0
    2.9265    2.1401   -0.0119 H   0  0  0  0  0  0  0  0  0  0  0  0
    3.2407    0.4089   -0.0050 H   0  0  0  0  0  0  0  0  0  0  0  0
  1  6  1  0  0  0  0
  1  9  1  0  0  0  0
  1 10  1  0  0  0  0
  2  6  2  0  0  0  0
  2 11  1  0  0  0  0
  3  8  1  0  0  0  0
  3  9  2  0  0  0  0
  4  7  1  0  0  0  0
  4 11  2  0  0  0  0
  5  8  1  0  0  0  0
  5 17  1  0  0  0  0
  5 18  1  0  0  0  0
  6  7  1  0  0  0  0
  7  8  2  0  0  0  0
  9 12  1  0  0  0  0
 10 13  1  0  0  0  0
 10 14  1  0  0  0  0
 10 15  1  0  0  0  0
 11 16  1  0  0  0  0
M  END
> <PUBCHEM_COMPOUND_CID>
1673

> <PUBCHEM_CONFORMER_RMSD>
0.4

> <PUBCHEM_CONFORMER_DIVERSEORDER>
1

> <PUBCHEM_MMFF94_PARTIAL_CHARGES>
15
1 -0.47
10 0.37
11 0.6
12 0.06
16 0.06
17 0.4
18 0.4
2 -0.66
3 -0.62
4 -0.62
5 -0.9
6 0.49
7 0.19
8 0.27
9 0.44

> <PUBCHEM_EFFECTIVE_ROTOR_COUNT>
0

> <PUBCHEM_PHARMACOPHORE_FEATURES>
7
1 5 cation
1 5 donor
3 1 2 6 cation
3 1 3 9 cation
3 2 4 11 cation
5 2 4 6 7 11 rings
6 1 3 6 7 8 9 rings

> <PUBCHEM_HEAVY_ATOM_COUNT>
11

> <PUBCHEM_ATOM_DEF_STEREO_COUNT>
0

> <PUBCHEM_ATOM_UDEF_STEREO_COUNT>
0

> <PUBCHEM_BOND_DEF_STEREO_COUNT>
0

> <PUBCHEM_BOND_UDEF_STEREO_COUNT>
0

> <PUBCHEM_ISOTOPIC_ATOM_COUNT>
0

> <PUBCHEM_COMPONENT_COUNT>
1

> <PUBCHEM_CACTVS_TAUTO_COUNT>
3

> <PUBCHEM_CONFORMER_ID>
0000068900000001

> <PUBCHEM_MMFF94_ENERGY>
38.9315

> <PUBCHEM_FEATURE_SELFOVERLAP>
36.088

> <PUBCHEM_SHAPE_FINGERPRINT>
12423570 1 12169923114820516904
16945 1 17474106978211451885
18185500 45 17330551458765560751
193761 8 17906171002990573476
21040471 1 18338516326736661920
23552423 10 18053376888345286941
241688 4 17330274381756240298
2748010 2 18338792321308839670
5084963 1 17970072355433318459
66348 1 18339075007471329609

> <PUBCHEM_SHAPE_MULTIPOLES>
201.47
2.77
2.51
0.58
1.32
0.22
0
-0.24
-0.02
-0.91
0
0.02
0.01
0

> <PUBCHEM_SHAPE_SELFOVERLAP>
438.996

> <PUBCHEM_SHAPE_VOLUME>
107.3

> <PUBCHEM_COORDINATE_TYPE>
2
5
10

$$$$

