5281478
  -OEChem-07051212572D

 44 46  0     1  0  0  0  0  0999 V2000
    3.0666    2.1620    0.0000 O   0  0  0  0  0  0  0  0  0  0  0  0
    3.5594    0.8211    0.0000 O   0  0  0  0  0  0  0  0  0  0  0  0
    4.8808   -1.8018    0.0000 O   0  0  0  0  0  0  0  0  0  0  0  0
    2.0000   -0.2427    0.0000 O   0  0  0  0  0  0  0  0  0  0  0  0
    6.5750   -2.1619    0.0000 O   0  0  0  0  0  0  0  0  0  0  0  0
    4.0182    2.4709    0.0000 C   0  0  1  0  0  0  0  0  0  0  0  0
    3.8103    1.4928    0.0000 C   0  0  3  0  0  0  0  0  0  0  0  0
    4.5534    0.8236    0.0000 C   0  0  2  0  0  0  0  0  0  0  0  0
    4.3455   -0.1545    0.0000 C   0  0  1  0  0  0  0  0  0  0  0  0
    4.9692    2.7799    0.0000 C   0  0  0  0  0  0  0  0  0  0  0  0
    4.2261    3.4491    0.0000 C   0  0  0  0  0  0  0  0  0  0  0  0
    5.0887   -0.8236    0.0000 C   0  0  1  0  0  0  0  0  0  0  0  0
    5.7124    2.1108    0.0000 C   0  0  0  0  0  0  0  0  0  0  0  0
    3.5398   -0.7367    0.0000 C   0  0  0  0  0  0  0  0  0  0  0  0
    6.0397   -0.5146    0.0000 C   0  0  0  0  0  0  0  0  0  0  0  0
    2.9945   -0.1382    0.0000 C   0  0  0  0  0  0  0  0  0  0  0  0
    5.5045    1.1327    0.0000 C   0  0  0  0  0  0  0  0  0  0  0  0
    6.2476    0.4635    0.0000 C   0  0  0  0  0  0  0  0  0  0  0  0
    3.3302   -1.7145    0.0000 C   0  0  0  0  0  0  0  0  0  0  0  0
    7.1987    0.7725    0.0000 C   0  0  0  0  0  0  0  0  0  0  0  0
    5.6239   -2.4709    0.0000 C   0  0  0  0  0  0  0  0  0  0  0  0
    5.4160   -3.4491    0.0000 C   0  0  0  0  0  0  0  0  0  0  0  0
    3.2416    0.8610    0.0000 H   0  0  0  0  0  0  0  0  0  0  0  0
    5.3618    1.0863    0.0000 H   0  0  0  0  0  0  0  0  0  0  0  0
    4.2999   -1.0033    0.0000 H   0  0  0  0  0  0  0  0  0  0  0  0
    5.4578    3.1616    0.0000 H   0  0  0  0  0  0  0  0  0  0  0  0
    4.6782    3.3274    0.0000 H   0  0  0  0  0  0  0  0  0  0  0  0
    4.8326    3.3202    0.0000 H   0  0  0  0  0  0  0  0  0  0  0  0
    4.3550    4.0555    0.0000 H   0  0  0  0  0  0  0  0  0  0  0  0
    3.6197    3.5780    0.0000 H   0  0  0  0  0  0  0  0  0  0  0  0
    4.4990   -1.0152    0.0000 H   0  0  0  0  0  0  0  0  0  0  0  0
    6.2872    1.8786    0.0000 H   0  0  0  0  0  0  0  0  0  0  0  0
    6.0409    2.6366    0.0000 H   0  0  0  0  0  0  0  0  0  0  0  0
    6.1260   -1.1286    0.0000 H   0  0  0  0  0  0  0  0  0  0  0  0
    6.6593   -0.5363    0.0000 H   0  0  0  0  0  0  0  0  0  0  0  0
    4.9297    1.3651    0.0000 H   0  0  0  0  0  0  0  0  0  0  0  0
    2.7402   -1.9051    0.0000 H   0  0  0  0  0  0  0  0  0  0  0  0
    3.7902   -2.1302    0.0000 H   0  0  0  0  0  0  0  0  0  0  0  0
    7.3903    0.1829    0.0000 H   0  0  0  0  0  0  0  0  0  0  0  0
    7.7883    0.9641    0.0000 H   0  0  0  0  0  0  0  0  0  0  0  0
    7.0071    1.3622    0.0000 H   0  0  0  0  0  0  0  0  0  0  0  0
    4.8095   -3.3202    0.0000 H   0  0  0  0  0  0  0  0  0  0  0  0
    5.2871   -4.0555    0.0000 H   0  0  0  0  0  0  0  0  0  0  0  0
    6.0224   -3.5780    0.0000 H   0  0  0  0  0  0  0  0  0  0  0  0
  1  6  1  0  0  0  0
  1  7  1  0  0  0  0
  2  8  1  0  0  0  0
  2 16  1  0  0  0  0
 12  3  1  1  0  0  0
  3 21  1  0  0  0  0
  4 16  2  0  0  0  0
  5 21  2  0  0  0  0
  6  7  1  0  0  0  0
  6 10  1  0  0  0  0
  6 11  1  1  0  0  0
  7  8  1  0  0  0  0
  7 23  1  0  0  0  0
  8  9  1  0  0  0  0
  8 24  1  1  0  0  0
  9 12  1  0  0  0  0
  9 14  1  0  0  0  0
  9 25  1  6  0  0  0
 10 13  1  0  0  0  0
 10 26  1  0  0  0  0
 10 27  1  0  0  0  0
 11 28  1  0  0  0  0
 11 29  1  0  0  0  0
 11 30  1  0  0  0  0
 12 15  1  0  0  0  0
 12 31  1  0  0  0  0
 13 17  1  0  0  0  0
 13 32  1  0  0  0  0
 13 33  1  0  0  0  0
 14 16  1  0  0  0  0
 14 19  2  0  0  0  0
 15 18  1  0  0  0  0
 15 34  1  0  0  0  0
 15 35  1  0  0  0  0
 17 18  2  0  0  0  0
 17 36  1  0  0  0  0
 18 20  1  0  0  0  0
 19 37  1  0  0  0  0
 19 38  1  0  0  0  0
 20 39  1  0  0  0  0
 20 40  1  0  0  0  0
 20 41  1  0  0  0  0
 21 22  1  0  0  0  0
 22 42  1  0  0  0  0
 22 43  1  0  0  0  0
 22 44  1  0  0  0  0
M  END
> <PUBCHEM_COMPOUND_CID>
5281478

> <PUBCHEM_COMPOUND_CANONICALIZED>
1

> <PUBCHEM_CACTVS_COMPLEXITY>
563

> <PUBCHEM_CACTVS_HBOND_ACCEPTOR>
5

> <PUBCHEM_CACTVS_HBOND_DONOR>
0

> <PUBCHEM_CACTVS_ROTATABLE_BOND>
2

> <PUBCHEM_CACTVS_SUBSKEYS>
AAADceB4OAAAAAAAAAAAAAAAEgAAASAAAAAAAAAAAAAAAACAAAAAGgAAAAAADVSggAICCAAABACIAiDSCAAAAAAgAAAACAEAAEgBBBIAIQACAAAFwAAKIIPK7PzOAAAAAAAAAAAAAAAAAAAAAAAAAAAAAA==

> <PUBCHEM_IUPAC_INCHI>
InChI=1S/C17H22O5/c1-9-6-5-7-17(4)15(22-17)14-13(10(2)16(19)21-14)12(8-9)20-11(3)18/h6,12-15H,2,5,7-8H2,1,3-4H3/b9-6+/t12-,13-,14+,15?,17-/m1/s1

> <PUBCHEM_IUPAC_INCHIKEY>
ODYJJNFWFYUXSS-CTSUEIOESA-N

> <PUBCHEM_XLOGP3_AA>
1.9

> <PUBCHEM_EXACT_MASS>
306.146724

> <PUBCHEM_MOLECULAR_FORMULA>
C17H22O5

> <PUBCHEM_MOLECULAR_WEIGHT>
306.35358

> <PUBCHEM_OPENEYE_CAN_SMILES>
CC1=CCCC2(C(O2)C3C(C(C1)OC(=O)C)C(=C)C(=O)O3)C

> <PUBCHEM_OPENEYE_ISO_SMILES>
C/C/1=C\CC[C@@]2(C(O2)[C@@H]3[C@@H]([C@@H](C1)OC(=O)C)C(=C)C(=O)O3)C

> <PUBCHEM_CACTVS_TPSA>
65.1

> <PUBCHEM_MONOISOTOPIC_WEIGHT>
306.146724

> <PUBCHEM_TOTAL_CHARGE>
0

> <PUBCHEM_HEAVY_ATOM_COUNT>
22

> <PUBCHEM_ATOM_DEF_STEREO_COUNT>
4

> <PUBCHEM_ATOM_UDEF_STEREO_COUNT>
1

> <PUBCHEM_BOND_DEF_STEREO_COUNT>
1

> <PUBCHEM_BOND_UDEF_STEREO_COUNT>
0

> <PUBCHEM_ISOTOPIC_ATOM_COUNT>
0

> <PUBCHEM_COMPONENT_COUNT>
1

> <PUBCHEM_CACTVS_TAUTO_COUNT>
1

> <PUBCHEM_COORDINATE_TYPE>
1
5
255

> <PUBCHEM_BONDANNOTATIONS>
12  3  5
6  11  5
7  23  3
8  24  5
9  25  6

$$$$

