442270
  -OEChem-07051212572D

 44 46  0     1  0  0  0  0  0999 V2000
    3.7230    0.1809    0.0000 O   0  0  0  0  0  0  0  0  0  0  0  0
    4.5029   -1.1765    0.0000 O   0  0  0  0  0  0  0  0  0  0  0  0
    5.3359   -1.6905    0.0000 O   0  0  0  0  0  0  0  0  0  0  0  0
    2.0000    0.6130    0.0000 O   0  0  0  0  0  0  0  0  0  0  0  0
    2.7757   -1.0470    0.0000 O   0  0  0  0  0  0  0  0  0  0  0  0
    5.4786    0.2546    0.0000 C   0  0  2  0  0  0  0  0  0  0  0  0
    6.3796    0.6885    0.0000 C   0  0  2  0  0  0  0  0  0  0  0  0
    4.5777    0.6885    0.0000 C   0  0  1  0  0  0  0  0  0  0  0  0
    6.6021    1.6634    0.0000 C   0  0  2  0  0  0  0  0  0  0  0  0
    4.3551    1.6634    0.0000 C   0  0  1  0  0  0  0  0  0  0  0  0
    7.0647   -0.0318    0.0000 C   0  0  0  0  0  0  0  0  0  0  0  0
    5.6146   -0.7301    0.0000 C   0  0  0  0  0  0  0  0  0  0  0  0
    5.9786    2.4453    0.0000 C   0  0  0  0  0  0  0  0  0  0  0  0
    6.5929   -0.9068    0.0000 C   0  0  0  0  0  0  0  0  0  0  0  0
    4.9786    2.4453    0.0000 C   0  0  0  0  0  0  0  0  0  0  0  0
    4.5777   -0.1793    0.0000 C   0  0  0  0  0  0  0  0  0  0  0  0
    3.3648    1.7500    0.0000 C   0  0  0  0  0  0  0  0  0  0  0  0
    7.5770    1.8860    0.0000 C   0  0  0  0  0  0  0  0  0  0  0  0
    2.9749    0.8356    0.0000 C   0  0  0  0  0  0  0  0  0  0  0  0
    2.8504    2.6075    0.0000 C   0  0  0  0  0  0  0  0  0  0  0  0
    3.6020   -1.6103    0.0000 C   0  0  0  0  0  0  0  0  0  0  0  0
    3.5272   -2.6075    0.0000 C   0  0  0  0  0  0  0  0  0  0  0  0
    7.1993    0.9136    0.0000 H   0  0  0  0  0  0  0  0  0  0  0  0
    4.6147   -0.1607    0.0000 H   0  0  0  0  0  0  0  0  0  0  0  0
    6.8069    2.2486    0.0000 H   0  0  0  0  0  0  0  0  0  0  0  0
    4.0200    2.4446    0.0000 H   0  0  0  0  0  0  0  0  0  0  0  0
    7.5765   -0.3818    0.0000 H   0  0  0  0  0  0  0  0  0  0  0  0
    7.4666    0.4404    0.0000 H   0  0  0  0  0  0  0  0  0  0  0  0
    6.5372    2.7143    0.0000 H   0  0  0  0  0  0  0  0  0  0  0  0
    5.8407    3.0497    0.0000 H   0  0  0  0  0  0  0  0  0  0  0  0
    6.4192   -1.5019    0.0000 H   0  0  0  0  0  0  0  0  0  0  0  0
    7.1665   -1.1420    0.0000 H   0  0  0  0  0  0  0  0  0  0  0  0
    5.1166    3.0497    0.0000 H   0  0  0  0  0  0  0  0  0  0  0  0
    4.4200    2.7143    0.0000 H   0  0  0  0  0  0  0  0  0  0  0  0
    4.4097    0.4176    0.0000 H   0  0  0  0  0  0  0  0  0  0  0  0
    3.9607   -0.2410    0.0000 H   0  0  0  0  0  0  0  0  0  0  0  0
    7.7150    1.2815    0.0000 H   0  0  0  0  0  0  0  0  0  0  0  0
    8.1815    2.0239    0.0000 H   0  0  0  0  0  0  0  0  0  0  0  0
    7.4391    2.4904    0.0000 H   0  0  0  0  0  0  0  0  0  0  0  0
    3.1514    3.1496    0.0000 H   0  0  0  0  0  0  0  0  0  0  0  0
    2.2305    2.5972    0.0000 H   0  0  0  0  0  0  0  0  0  0  0  0
    2.9090   -2.5612    0.0000 H   0  0  0  0  0  0  0  0  0  0  0  0
    3.4809   -3.2258    0.0000 H   0  0  0  0  0  0  0  0  0  0  0  0
    4.1455   -2.6539    0.0000 H   0  0  0  0  0  0  0  0  0  0  0  0
  1  8  1  0  0  0  0
  1 19  1  0  0  0  0
  2 16  1  0  0  0  0
  2 21  1  0  0  0  0
  3 12  2  0  0  0  0
  4 19  2  0  0  0  0
  5 21  2  0  0  0  0
  6  7  1  0  0  0  0
  6  8  1  0  0  0  0
  6 12  1  0  0  0  0
  6 16  1  6  0  0  0
  7  9  1  0  0  0  0
  7 11  1  0  0  0  0
  7 23  1  1  0  0  0
  8 10  1  0  0  0  0
  8 24  1  1  0  0  0
  9 13  1  0  0  0  0
  9 18  1  6  0  0  0
  9 25  1  0  0  0  0
 10 15  1  0  0  0  0
 10 17  1  0  0  0  0
 10 26  1  1  0  0  0
 11 14  1  0  0  0  0
 11 27  1  0  0  0  0
 11 28  1  0  0  0  0
 12 14  1  0  0  0  0
 13 15  1  0  0  0  0
 13 29  1  0  0  0  0
 13 30  1  0  0  0  0
 14 31  1  0  0  0  0
 14 32  1  0  0  0  0
 15 33  1  0  0  0  0
 15 34  1  0  0  0  0
 16 35  1  0  0  0  0
 16 36  1  0  0  0  0
 17 19  1  0  0  0  0
 17 20  2  0  0  0  0
 18 37  1  0  0  0  0
 18 38  1  0  0  0  0
 18 39  1  0  0  0  0
 20 40  1  0  0  0  0
 20 41  1  0  0  0  0
 21 22  1  0  0  0  0
 22 42  1  0  0  0  0
 22 43  1  0  0  0  0
 22 44  1  0  0  0  0
M  END
> <PUBCHEM_COMPOUND_CID>
442270

> <PUBCHEM_COMPOUND_CANONICALIZED>
1

> <PUBCHEM_CACTVS_COMPLEXITY>
551

> <PUBCHEM_CACTVS_HBOND_ACCEPTOR>
5

> <PUBCHEM_CACTVS_HBOND_DONOR>
0

> <PUBCHEM_CACTVS_ROTATABLE_BOND>
3

> <PUBCHEM_CACTVS_SUBSKEYS>
AAADceB4OAAAAAAAAAAAAAAAAAAAAaIAAAAAAAAABgAAAADQAAAAGgAAAAAADxSggAICCAAABACIAoDSCAAAAAAgAAAAAAEAAEgABBYAIQACAAAF4AAAIIGKyPCPgAAAAAAAAAAAAAAAAAAAAAAACAAAAA==

> <PUBCHEM_IUPAC_OPENEYE_NAME>
[(3aS,6S,6aS,9aS,9bR)-6-methyl-3-methylene-2,9-dioxo-3a,4,5,6,6a,7,8,9b-octahydroazuleno[4,5-b]furan-9a-yl]methyl acetate

> <PUBCHEM_IUPAC_CAS_NAME>
acetic acid [(3aS,6S,6aS,9aS,9bR)-6-methyl-3-methylene-2,9-dioxo-3a,4,5,6,6a,7,8,9b-octahydroazuleno[4,5-b]furan-9a-yl]methyl ester

> <PUBCHEM_IUPAC_NAME>
[(3aS,6S,6aS,9aS,9bR)-6-methyl-3-methylidene-2,9-dioxo-3a,4,5,6,6a,7,8,9b-octahydroazuleno[4,5-b]furan-9a-yl]methyl acetate

> <PUBCHEM_IUPAC_SYSTEMATIC_NAME>
[(3aS,6S,6aS,9aS,9bR)-6-methyl-3-methylidene-2,9-bis(oxidanylidene)-3a,4,5,6,6a,7,8,9b-octahydroazuleno[4,5-b]furan-9a-yl]methyl ethanoate

> <PUBCHEM_IUPAC_TRADITIONAL_NAME>
acetic acid [(3aS,6S,6aS,9aS,9bR)-2,9-diketo-6-methyl-3-methylene-3a,4,5,6,6a,7,8,9b-octahydroazuleno[4,5-b]furan-9a-yl]methyl ester

> <PUBCHEM_IUPAC_INCHI>
InChI=1S/C17H22O5/c1-9-4-5-12-10(2)16(20)22-15(12)17(8-21-11(3)18)13(9)6-7-14(17)19/h9,12-13,15H,2,4-8H2,1,3H3/t9-,12-,13-,15+,17-/m0/s1

> <PUBCHEM_IUPAC_INCHIKEY>
BDTUWJXMQGOJIJ-AUPGVYSRSA-N

> <PUBCHEM_XLOGP3_AA>
1.9

> <PUBCHEM_EXACT_MASS>
306.146724

> <PUBCHEM_MOLECULAR_FORMULA>
C17H22O5

> <PUBCHEM_MOLECULAR_WEIGHT>
306.35358

> <PUBCHEM_OPENEYE_CAN_SMILES>
CC1CCC2C(C3(C1CCC3=O)COC(=O)C)OC(=O)C2=C

> <PUBCHEM_OPENEYE_ISO_SMILES>
C[C@H]1CC[C@@H]2[C@H]([C@]3([C@H]1CCC3=O)COC(=O)C)OC(=O)C2=C

> <PUBCHEM_CACTVS_TPSA>
69.7

> <PUBCHEM_MONOISOTOPIC_WEIGHT>
306.146724

> <PUBCHEM_TOTAL_CHARGE>
0

> <PUBCHEM_HEAVY_ATOM_COUNT>
22

> <PUBCHEM_ATOM_DEF_STEREO_COUNT>
5

> <PUBCHEM_ATOM_UDEF_STEREO_COUNT>
0

> <PUBCHEM_BOND_DEF_STEREO_COUNT>
0

> <PUBCHEM_BOND_UDEF_STEREO_COUNT>
0

> <PUBCHEM_ISOTOPIC_ATOM_COUNT>
0

> <PUBCHEM_COMPONENT_COUNT>
1

> <PUBCHEM_CACTVS_TAUTO_COUNT>
2

> <PUBCHEM_COORDINATE_TYPE>
1
5
255

> <PUBCHEM_BONDANNOTATIONS>
10  26  5
6  16  6
7  23  5
8  24  5
9  18  6

$$$$

