17395397
  -OEChem-06241222502D

 43 46  0     1  0  0  0  0  0999 V2000
    3.8650    3.7838    0.0000 S   0  0  0  0  0  0  0  0  0  0  0  0
    4.5388   -1.9941    0.0000 O   0  0  0  0  0  0  0  0  0  0  0  0
    3.4511    1.3538    0.0000 O   0  0  0  0  0  0  0  0  0  0  0  0
    6.2281    2.4544    0.0000 O   0  0  0  0  0  0  0  0  0  0  0  0
    2.6420   -0.2340    0.0000 N   0  0  0  0  0  0  0  0  0  0  0  0
    4.2601   -0.2340    0.0000 N   0  0  0  0  0  0  0  0  0  0  0  0
    4.7499    1.7963    0.0000 N   0  0  0  0  0  0  0  0  0  0  0  0
    2.9511   -1.1850    0.0000 C   0  0  3  0  0  0  0  0  0  0  0  0
    3.9511   -1.1850    0.0000 C   0  0  0  0  0  0  0  0  0  0  0  0
    2.9511   -2.1850    0.0000 C   0  0  0  0  0  0  0  0  0  0  0  0
    2.0000   -1.4941    0.0000 C   0  0  0  0  0  0  0  0  0  0  0  0
    3.4511    0.3538    0.0000 C   0  0  0  0  0  0  0  0  0  0  0  0
    5.2111    0.0750    0.0000 C   0  0  0  0  0  0  0  0  0  0  0  0
    2.0850   -2.6850    0.0000 C   0  0  0  0  0  0  0  0  0  0  0  0
    3.8171   -2.6850    0.0000 C   0  0  0  0  0  0  0  0  0  0  0  0
    5.4190    1.0532    0.0000 C   0  0  0  0  0  0  0  0  0  0  0  0
    2.0850   -3.6850    0.0000 C   0  0  0  0  0  0  0  0  0  0  0  0
    3.8171   -3.6850    0.0000 C   0  0  0  0  0  0  0  0  0  0  0  0
    2.9511   -4.1851    0.0000 C   0  0  0  0  0  0  0  0  0  0  0  0
    6.3326    1.4599    0.0000 C   0  0  0  0  0  0  0  0  0  0  0  0
    2.9511   -5.1851    0.0000 C   0  0  0  0  0  0  0  0  0  0  0  0
    5.2499    2.6623    0.0000 C   0  0  0  0  0  0  0  0  0  0  0  0
    4.8432    3.5759    0.0000 C   0  0  0  0  0  0  0  0  0  0  0  0
    5.3432    4.4419    0.0000 C   0  0  0  0  0  0  0  0  0  0  0  0
    4.6740    5.1851    0.0000 C   0  0  0  0  0  0  0  0  0  0  0  0
    3.7605    4.7783    0.0000 C   0  0  0  0  0  0  0  0  0  0  0  0
    2.0524   -0.0424    0.0000 H   0  0  0  0  0  0  0  0  0  0  0  0
    1.8084   -0.9044    0.0000 H   0  0  0  0  0  0  0  0  0  0  0  0
    1.4103   -1.6857    0.0000 H   0  0  0  0  0  0  0  0  0  0  0  0
    2.1916   -2.0837    0.0000 H   0  0  0  0  0  0  0  0  0  0  0  0
    5.2974   -0.5389    0.0000 H   0  0  0  0  0  0  0  0  0  0  0  0
    5.8308    0.0534    0.0000 H   0  0  0  0  0  0  0  0  0  0  0  0
    1.5481   -2.3750    0.0000 H   0  0  0  0  0  0  0  0  0  0  0  0
    4.3540   -2.3750    0.0000 H   0  0  0  0  0  0  0  0  0  0  0  0
    1.5481   -3.9950    0.0000 H   0  0  0  0  0  0  0  0  0  0  0  0
    4.3540   -3.9950    0.0000 H   0  0  0  0  0  0  0  0  0  0  0  0
    6.8695    1.1499    0.0000 H   0  0  0  0  0  0  0  0  0  0  0  0
    2.3311   -5.1851    0.0000 H   0  0  0  0  0  0  0  0  0  0  0  0
    2.9511   -5.8050    0.0000 H   0  0  0  0  0  0  0  0  0  0  0  0
    3.5711   -5.1851    0.0000 H   0  0  0  0  0  0  0  0  0  0  0  0
    5.9598    4.5067    0.0000 H   0  0  0  0  0  0  0  0  0  0  0  0
    4.8030    5.7915    0.0000 H   0  0  0  0  0  0  0  0  0  0  0  0
    3.2236    5.0883    0.0000 H   0  0  0  0  0  0  0  0  0  0  0  0
  1 23  1  0  0  0  0
  1 26  1  0  0  0  0
  2  9  2  0  0  0  0
  3 12  2  0  0  0  0
  4 20  1  0  0  0  0
  4 22  1  0  0  0  0
  5  8  1  0  0  0  0
  5 12  1  0  0  0  0
  5 27  1  0  0  0  0
  6  9  1  0  0  0  0
  6 12  1  0  0  0  0
  6 13  1  0  0  0  0
  7 16  1  0  0  0  0
  7 22  2  0  0  0  0
  8  9  1  0  0  0  0
  8 10  1  0  0  0  0
  8 11  1  0  0  0  0
 10 14  2  0  0  0  0
 10 15  1  0  0  0  0
 11 28  1  0  0  0  0
 11 29  1  0  0  0  0
 11 30  1  0  0  0  0
 13 16  1  0  0  0  0
 13 31  1  0  0  0  0
 13 32  1  0  0  0  0
 14 17  1  0  0  0  0
 14 33  1  0  0  0  0
 15 18  2  0  0  0  0
 15 34  1  0  0  0  0
 16 20  2  0  0  0  0
 17 19  2  0  0  0  0
 17 35  1  0  0  0  0
 18 19  1  0  0  0  0
 18 36  1  0  0  0  0
 19 21  1  0  0  0  0
 20 37  1  0  0  0  0
 21 38  1  0  0  0  0
 21 39  1  0  0  0  0
 21 40  1  0  0  0  0
 22 23  1  0  0  0  0
 23 24  2  0  0  0  0
 24 25  1  0  0  0  0
 24 41  1  0  0  0  0
 25 26  2  0  0  0  0
 25 42  1  0  0  0  0
 26 43  1  0  0  0  0
M  END
> <PUBCHEM_COMPOUND_CID>
17395397

> <PUBCHEM_COMPOUND_CANONICALIZED>
1

> <PUBCHEM_CACTVS_COMPLEXITY>
566

> <PUBCHEM_CACTVS_HBOND_ACCEPTOR>
5

> <PUBCHEM_CACTVS_HBOND_DONOR>
1

> <PUBCHEM_CACTVS_ROTATABLE_BOND>
4

> <PUBCHEM_CACTVS_SUBSKEYS>
AAADceB7MABAAAAAAAAAAAAAAAAAAWLEgAAwAAAAAAAAAAAB8AAAHgQQAAAADIjl3gazhZPIFEisAy1y1ASDiKAvajBIiDm9LNiOZrqktTmfOSju1yO4qYeYiMCOwAAAAAAAAACAAAAAAAAAAAAAAAAAAA==

> <PUBCHEM_IUPAC_OPENEYE_NAME>
5-methyl-5-(p-tolyl)-3-[[2-(2-thienyl)oxazol-4-yl]methyl]imidazolidine-2,4-dione

> <PUBCHEM_IUPAC_CAS_NAME>
5-methyl-5-(4-methylphenyl)-3-[(2-thiophen-2-yl-4-oxazolyl)methyl]imidazolidine-2,4-dione

> <PUBCHEM_IUPAC_NAME>
5-methyl-5-(4-methylphenyl)-3-[(2-thiophen-2-yl-1,3-oxazol-4-yl)methyl]imidazolidine-2,4-dione

> <PUBCHEM_IUPAC_SYSTEMATIC_NAME>
5-methyl-5-(4-methylphenyl)-3-[(2-thiophen-2-yl-1,3-oxazol-4-yl)methyl]imidazolidine-2,4-dione

> <PUBCHEM_IUPAC_TRADITIONAL_NAME>
5-methyl-5-(p-tolyl)-3-[[2-(2-thienyl)oxazol-4-yl]methyl]hydantoin

> <PUBCHEM_IUPAC_INCHI>
InChI=1S/C19H17N3O3S/c1-12-5-7-13(8-6-12)19(2)17(23)22(18(24)21-19)10-14-11-25-16(20-14)15-4-3-9-26-15/h3-9,11H,10H2,1-2H3,(H,21,24)

> <PUBCHEM_IUPAC_INCHIKEY>
FFTHXIMLCRZTRF-UHFFFAOYSA-N

> <PUBCHEM_XLOGP3_AA>
2.7

> <PUBCHEM_EXACT_MASS>
367.099062

> <PUBCHEM_MOLECULAR_FORMULA>
C19H17N3O3S

> <PUBCHEM_MOLECULAR_WEIGHT>
367.42158

> <PUBCHEM_OPENEYE_CAN_SMILES>
CC1=CC=C(C=C1)C2(C(=O)N(C(=O)N2)CC3=COC(=N3)C4=CC=CS4)C

> <PUBCHEM_OPENEYE_ISO_SMILES>
CC1=CC=C(C=C1)C2(C(=O)N(C(=O)N2)CC3=COC(=N3)C4=CC=CS4)C

> <PUBCHEM_CACTVS_TPSA>
104

> <PUBCHEM_MONOISOTOPIC_WEIGHT>
367.099062

> <PUBCHEM_TOTAL_CHARGE>
0

> <PUBCHEM_HEAVY_ATOM_COUNT>
26

> <PUBCHEM_ATOM_DEF_STEREO_COUNT>
0

> <PUBCHEM_ATOM_UDEF_STEREO_COUNT>
1

> <PUBCHEM_BOND_DEF_STEREO_COUNT>
0

> <PUBCHEM_BOND_UDEF_STEREO_COUNT>
0

> <PUBCHEM_ISOTOPIC_ATOM_COUNT>
0

> <PUBCHEM_COMPONENT_COUNT>
1

> <PUBCHEM_CACTVS_TAUTO_COUNT>
2

> <PUBCHEM_COORDINATE_TYPE>
1
5
255

> <PUBCHEM_BONDANNOTATIONS>
1  23  8
1  26  8
10  14  8
10  15  8
14  17  8
15  18  8
16  20  8
17  19  8
18  19  8
23  24  8
24  25  8
25  26  8
4  20  8
4  22  8
7  16  8
7  22  8
8  11  3

$$$$

