442073
  -OEChem-07051212562D

 96103  0     1  0  0  0  0  0999 V2000
    9.1459    1.5469    0.0000 O   0  0  0  0  0  0  0  0  0  0  0  0
    8.5429   -1.2563    0.0000 O   0  0  0  0  0  0  0  0  0  0  0  0
   10.3740   -0.7265    0.0000 O   0  0  0  0  0  0  0  0  0  0  0  0
    9.8615   -2.8462    0.0000 O   0  0  0  0  0  0  0  0  0  0  0  0
    6.3107    1.5906    0.0000 O   0  0  0  0  0  0  0  0  0  0  0  0
    6.7228    2.2985    0.0000 O   0  0  0  0  0  0  0  0  0  0  0  0
    5.0285    1.5598    0.0000 O   0  0  0  0  0  0  0  0  0  0  0  0
    7.8985    3.1102    0.0000 O   0  0  0  0  0  0  0  0  0  0  0  0
    3.5432    0.6688    0.0000 O   0  0  0  0  0  0  0  0  0  0  0  0
    7.6567   -0.7931    0.0000 C   0  0  2  0  0  0  0  0  0  0  0  0
    8.5576   -0.3593    0.0000 C   0  0  1  0  0  0  0  0  0  0  0  0
    6.7557   -0.3593    0.0000 C   0  0  1  0  0  0  0  0  0  0  0  0
    8.7802    0.6157    0.0000 C   0  0  1  0  0  0  0  0  0  0  0  0
    6.5332    0.6157    0.0000 C   0  0  1  0  0  0  0  0  0  0  0  0
    8.1567    1.3975    0.0000 C   0  0  1  0  0  0  0  0  0  0  0  0
    9.4272   -0.9327    0.0000 C   0  0  2  0  0  0  0  0  0  0  0  0
    5.9010   -0.8669    0.0000 C   0  0  2  0  0  0  0  0  0  0  0  0
    7.5628   -1.8305    0.0000 C   0  0  1  0  0  0  0  0  0  0  0  0
    7.1567    1.3975    0.0000 C   0  0  1  0  0  0  0  0  0  0  0  0
    9.3574   -1.9720    0.0000 C   0  0  2  0  0  0  0  0  0  0  0  0
    5.5429    0.7022    0.0000 C   0  0  2  0  0  0  0  0  0  0  0  0
    5.1530   -0.2122    0.0000 C   0  0  1  0  0  0  0  0  0  0  0  0
    8.4189   -2.4239    0.0000 C   0  0  0  0  0  0  0  0  0  0  0  0
    9.1308   -2.1502    0.0000 C   0  0  3  0  0  0  0  0  0  0  0  0
    5.0567   -1.4028    0.0000 C   0  0  1  0  0  0  0  0  0  0  0  0
    7.5332    2.1793    0.0000 C   0  0  0  0  0  0  0  0  0  0  0  0
    6.6569   -2.2540    0.0000 C   0  0  0  0  0  0  0  0  0  0  0  0
   10.3265   -2.2187    0.0000 C   0  0  0  0  0  0  0  0  0  0  0  0
    4.1780   -0.4347    0.0000 C   0  0  0  0  0  0  0  0  0  0  0  0
    8.6676   -3.0364    0.0000 C   0  0  0  0  0  0  0  0  0  0  0  0
    5.0987   -2.4019    0.0000 C   0  0  0  0  0  0  0  0  0  0  0  0
    4.1025   -1.7020    0.0000 C   0  0  0  0  0  0  0  0  0  0  0  0
    7.6684   -3.0784    0.0000 C   0  0  0  0  0  0  0  0  0  0  0  0
   10.5973   -3.1814    0.0000 C   0  0  0  0  0  0  0  0  0  0  0  0
    4.6355   -3.2882    0.0000 C   0  0  0  0  0  0  0  0  0  0  0  0
   11.0247   -1.5029    0.0000 C   0  0  0  0  0  0  0  0  0  0  0  0
    4.0286    1.5431    0.0000 C   0  0  0  0  0  0  0  0  0  0  0  0
    6.9916   -3.8146    0.0000 C   0  0  0  0  0  0  0  0  0  0  0  0
    5.1714   -4.1325    0.0000 C   0  0  0  0  0  0  0  0  0  0  0  0
    6.0157   -3.5965    0.0000 C   0  0  0  0  0  0  0  0  0  0  0  0
    3.5142    2.4006    0.0000 C   0  0  0  0  0  0  0  0  0  0  0  0
    3.9997    3.2749    0.0000 C   0  0  0  0  0  0  0  0  0  0  0  0
    2.5144    2.3840    0.0000 C   0  0  0  0  0  0  0  0  0  0  0  0
    3.4853    4.1325    0.0000 C   0  0  0  0  0  0  0  0  0  0  0  0
    2.0000    3.2415    0.0000 C   0  0  0  0  0  0  0  0  0  0  0  0
    2.4855    4.1158    0.0000 C   0  0  0  0  0  0  0  0  0  0  0  0
    9.3235    0.0095    0.0000 H   0  0  0  0  0  0  0  0  0  0  0  0
    6.9448   -1.1879    0.0000 H   0  0  0  0  0  0  0  0  0  0  0  0
    9.5924    0.3650    0.0000 H   0  0  0  0  0  0  0  0  0  0  0  0
   10.1368   -1.4006    0.0000 H   0  0  0  0  0  0  0  0  0  0  0  0
    6.5406   -1.4267    0.0000 H   0  0  0  0  0  0  0  0  0  0  0  0
    7.5105   -2.4483    0.0000 H   0  0  0  0  0  0  0  0  0  0  0  0
    6.5406    1.4669    0.0000 H   0  0  0  0  0  0  0  0  0  0  0  0
    4.9243    0.6597    0.0000 H   0  0  0  0  0  0  0  0  0  0  0  0
    5.0012   -0.8133    0.0000 H   0  0  0  0  0  0  0  0  0  0  0  0
    7.9837   -2.8655    0.0000 H   0  0  0  0  0  0  0  0  0  0  0  0
    8.7795   -2.9282    0.0000 H   0  0  0  0  0  0  0  0  0  0  0  0
    4.6003   -0.9832    0.0000 H   0  0  0  0  0  0  0  0  0  0  0  0
    7.0041    2.5026    0.0000 H   0  0  0  0  0  0  0  0  0  0  0  0
    7.1229    1.7145    0.0000 H   0  0  0  0  0  0  0  0  0  0  0  0
    6.3944   -1.6923    0.0000 H   0  0  0  0  0  0  0  0  0  0  0  0
    6.0952   -2.5165    0.0000 H   0  0  0  0  0  0  0  0  0  0  0  0
    6.9194   -2.8156    0.0000 H   0  0  0  0  0  0  0  0  0  0  0  0
    5.7182    1.7734    0.0000 H   0  0  0  0  0  0  0  0  0  0  0  0
    4.0401    0.1697    0.0000 H   0  0  0  0  0  0  0  0  0  0  0  0
    3.5736   -0.5727    0.0000 H   0  0  0  0  0  0  0  0  0  0  0  0
    4.3160   -1.0392    0.0000 H   0  0  0  0  0  0  0  0  0  0  0  0
    8.5856   -3.6510    0.0000 H   0  0  0  0  0  0  0  0  0  0  0  0
    9.2586   -3.2238    0.0000 H   0  0  0  0  0  0  0  0  0  0  0  0
    7.0720    2.8107    0.0000 H   0  0  0  0  0  0  0  0  0  0  0  0
    5.5168   -2.8597    0.0000 H   0  0  0  0  0  0  0  0  0  0  0  0
    4.4936   -2.2667    0.0000 H   0  0  0  0  0  0  0  0  0  0  0  0
    3.9171   -1.1103    0.0000 H   0  0  0  0  0  0  0  0  0  0  0  0
    3.5109   -1.8874    0.0000 H   0  0  0  0  0  0  0  0  0  0  0  0
    4.2880   -2.2936    0.0000 H   0  0  0  0  0  0  0  0  0  0  0  0
    7.8036   -2.4733    0.0000 H   0  0  0  0  0  0  0  0  0  0  0  0
    7.1190   -2.7912    0.0000 H   0  0  0  0  0  0  0  0  0  0  0  0
    8.5116    3.2026    0.0000 H   0  0  0  0  0  0  0  0  0  0  0  0
   10.0005   -3.3493    0.0000 H   0  0  0  0  0  0  0  0  0  0  0  0
   10.7652   -3.7782    0.0000 H   0  0  0  0  0  0  0  0  0  0  0  0
   11.1941   -3.0134    0.0000 H   0  0  0  0  0  0  0  0  0  0  0  0
    4.1443   -2.9099    0.0000 H   0  0  0  0  0  0  0  0  0  0  0  0
    4.1777   -3.7063    0.0000 H   0  0  0  0  0  0  0  0  0  0  0  0
   11.6255   -1.6558    0.0000 H   0  0  0  0  0  0  0  0  0  0  0  0
   10.8568   -0.9060    0.0000 H   0  0  0  0  0  0  0  0  0  0  0  0
    6.7534   -4.3870    0.0000 H   0  0  0  0  0  0  0  0  0  0  0  0
    7.5140   -4.1486    0.0000 H   0  0  0  0  0  0  0  0  0  0  0  0
    4.6480   -4.4647    0.0000 H   0  0  0  0  0  0  0  0  0  0  0  0
    5.5037   -4.6559    0.0000 H   0  0  0  0  0  0  0  0  0  0  0  0
    6.3029   -3.0471    0.0000 H   0  0  0  0  0  0  0  0  0  0  0  0
    5.5593   -3.1769    0.0000 H   0  0  0  0  0  0  0  0  0  0  0  0
    4.6196    3.2852    0.0000 H   0  0  0  0  0  0  0  0  0  0  0  0
    2.2134    1.8419    0.0000 H   0  0  0  0  0  0  0  0  0  0  0  0
    3.7863    4.6745    0.0000 H   0  0  0  0  0  0  0  0  0  0  0  0
    1.3801    3.2312    0.0000 H   0  0  0  0  0  0  0  0  0  0  0  0
    2.1666    4.6474    0.0000 H   0  0  0  0  0  0  0  0  0  0  0  0
  1 13  1  0  0  0  0
  1 15  1  0  0  0  0
 10  2  1  1  0  0  0
  2 24  1  0  0  0  0
  3 16  1  0  0  0  0
  3 24  1  0  0  0  0
  4 20  1  0  0  0  0
  4 24  1  0  0  0  0
 14  5  1  6  0  0  0
  5 64  1  0  0  0  0
 19  6  1  6  0  0  0
  6 70  1  0  0  0  0
 21  7  1  6  0  0  0
  7 37  1  0  0  0  0
  8 26  1  0  0  0  0
  8 78  1  0  0  0  0
  9 37  2  0  0  0  0
 10 11  1  0  0  0  0
 10 12  1  0  0  0  0
 10 18  1  0  0  0  0
 11 13  1  0  0  0  0
 11 16  1  0  0  0  0
 11 47  1  6  0  0  0
 12 14  1  0  0  0  0
 12 17  1  0  0  0  0
 12 48  1  1  0  0  0
 13 15  1  0  0  0  0
 13 49  1  6  0  0  0
 14 19  1  0  0  0  0
 14 21  1  0  0  0  0
 15 19  1  0  0  0  0
 15 26  1  6  0  0  0
 16 20  1  0  0  0  0
 16 50  1  6  0  0  0
 17 22  1  0  0  0  0
 17 25  1  0  0  0  0
 17 51  1  6  0  0  0
 18 23  1  0  0  0  0
 18 27  1  1  0  0  0
 18 52  1  0  0  0  0
 19 53  1  0  0  0  0
 20 23  1  0  0  0  0
 20 28  1  6  0  0  0
 21 22  1  0  0  0  0
 21 54  1  0  0  0  0
 22 29  1  6  0  0  0
 22 55  1  0  0  0  0
 23 56  1  0  0  0  0
 23 57  1  0  0  0  0
 24 30  1  0  0  0  0
 25 31  1  0  0  0  0
 25 32  1  1  0  0  0
 25 58  1  0  0  0  0
 26 59  1  0  0  0  0
 26 60  1  0  0  0  0
 27 61  1  0  0  0  0
 27 62  1  0  0  0  0
 27 63  1  0  0  0  0
 28 34  1  0  0  0  0
 28 36  2  0  0  0  0
 29 65  1  0  0  0  0
 29 66  1  0  0  0  0
 29 67  1  0  0  0  0
 30 33  1  0  0  0  0
 30 68  1  0  0  0  0
 30 69  1  0  0  0  0
 31 35  1  0  0  0  0
 31 71  1  0  0  0  0
 31 72  1  0  0  0  0
 32 73  1  0  0  0  0
 32 74  1  0  0  0  0
 32 75  1  0  0  0  0
 33 38  1  0  0  0  0
 33 76  1  0  0  0  0
 33 77  1  0  0  0  0
 34 79  1  0  0  0  0
 34 80  1  0  0  0  0
 34 81  1  0  0  0  0
 35 39  1  0  0  0  0
 35 82  1  0  0  0  0
 35 83  1  0  0  0  0
 36 84  1  0  0  0  0
 36 85  1  0  0  0  0
 37 41  1  0  0  0  0
 38 40  1  0  0  0  0
 38 86  1  0  0  0  0
 38 87  1  0  0  0  0
 39 40  1  0  0  0  0
 39 88  1  0  0  0  0
 39 89  1  0  0  0  0
 40 90  1  0  0  0  0
 40 91  1  0  0  0  0
 41 42  2  0  0  0  0
 41 43  1  0  0  0  0
 42 44  1  0  0  0  0
 42 92  1  0  0  0  0
 43 45  2  0  0  0  0
 43 93  1  0  0  0  0
 44 46  2  0  0  0  0
 44 94  1  0  0  0  0
 45 46  1  0  0  0  0
 45 95  1  0  0  0  0
 46 96  1  0  0  0  0
M  END
> <PUBCHEM_COMPOUND_CID>
442073

> <PUBCHEM_COMPOUND_CANONICALIZED>
1

> <PUBCHEM_CACTVS_COMPLEXITY>
1250

> <PUBCHEM_CACTVS_HBOND_ACCEPTOR>
9

> <PUBCHEM_CACTVS_HBOND_DONOR>
3

> <PUBCHEM_CACTVS_ROTATABLE_BOND>
5

> <PUBCHEM_CACTVS_SUBSKEYS>
AAADcfB8PAAAAAAAAAAAAAAAEgAAAaIAAAA0YIAABogSAADBAAAAGgAACAAADVSgmAIyCIAABgCIAiDSCAACAAAkAAAIiAEACMgZNjKANRiicQAlwAEPqYfI6PyOgAAAAAAAAADCAAYQADCAAYAADCAAAA==

> <PUBCHEM_IUPAC_INCHI>
InChI=1S/C37H50O9/c1-20(2)33-18-22(4)37-26-29(33)44-35(45-33,46-37)17-13-8-6-7-10-14-21(3)25-23(5)28(42-31(39)24-15-11-9-12-16-24)36(41,27(25)37)32(40)34(19-38)30(26)43-34/h9,11-12,15-16,21-23,25-30,32,38,40-41H,1,6-8,10,13-14,17-19H2,2-5H3/t21-,22-,23+,25+,26-,27-,28+,29-,30+,32-,33-,34+,35?,36-,37-/m1/s1

> <PUBCHEM_IUPAC_INCHIKEY>
IAPHKDDUYAWCMB-FSMYGLCCSA-N

> <PUBCHEM_XLOGP3_AA>
6.2

> <PUBCHEM_EXACT_MASS>
638.345483

> <PUBCHEM_MOLECULAR_FORMULA>
C37H50O9

> <PUBCHEM_MOLECULAR_WEIGHT>
638.7875

> <PUBCHEM_OPENEYE_CAN_SMILES>
CC1CCCCCCCC23OC4C5C6C(O6)(C(C7(C(C1C(C7OC(=O)C8=CC=CC=C8)C)C5(O2)C(CC4(O3)C(=C)C)C)O)O)CO

> <PUBCHEM_OPENEYE_ISO_SMILES>
C[C@@H]1CCCCCCCC23O[C@@H]4[C@@H]5[C@H]6[C@](O6)([C@H]([C@]7([C@@H]([C@@H]1[C@@H]([C@@H]7OC(=O)C8=CC=CC=C8)C)[C@@]5(O2)[C@@H](C[C@@]4(O3)C(=C)C)C)O)O)CO

> <PUBCHEM_CACTVS_TPSA>
127

> <PUBCHEM_MONOISOTOPIC_WEIGHT>
638.345483

> <PUBCHEM_TOTAL_CHARGE>
0

> <PUBCHEM_HEAVY_ATOM_COUNT>
46

> <PUBCHEM_ATOM_DEF_STEREO_COUNT>
14

> <PUBCHEM_ATOM_UDEF_STEREO_COUNT>
1

> <PUBCHEM_BOND_DEF_STEREO_COUNT>
0

> <PUBCHEM_BOND_UDEF_STEREO_COUNT>
0

> <PUBCHEM_ISOTOPIC_ATOM_COUNT>
0

> <PUBCHEM_COMPONENT_COUNT>
1

> <PUBCHEM_CACTVS_TAUTO_COUNT>
1

> <PUBCHEM_COORDINATE_TYPE>
1
5
255

> <PUBCHEM_BONDANNOTATIONS>
11  47  6
12  48  5
13  49  6
15  26  6
16  50  6
17  51  6
18  27  5
10  2  5
20  28  6
22  29  6
24  30  3
25  32  5
41  42  8
41  43  8
42  44  8
43  45  8
44  46  8
45  46  8
14  5  6
19  6  6
21  7  6

$$$$

