440078
  -OEChem-07051212483D

 27 27  0     1  0  0  0  0  0999 V2000
    1.9120    0.0681    0.3119 O   0  0  0  0  0  0  0  0  0  0  0  0
   -0.5437   -1.5708   -1.8219 O   0  0  0  0  0  0  0  0  0  0  0  0
    0.8784    2.3924   -0.9222 O   0  0  0  0  0  0  0  0  0  0  0  0
   -0.1560   -1.3580    1.7902 O   0  0  0  0  0  0  0  0  0  0  0  0
   -0.1094    1.5451    1.5723 O   0  0  0  0  0  0  0  0  0  0  0  0
   -2.6414   -0.0351   -0.5157 O   0  0  0  0  0  0  0  0  0  0  0  0
    0.9941   -0.0284   -0.7746 C   0  0  0  0  0  0  0  0  0  0  0  0
    0.1681   -1.3122   -0.6139 C   0  0  1  0  0  0  0  0  0  0  0  0
    0.0882    1.2097   -0.8340 C   0  0  1  0  0  0  0  0  0  0  0  0
   -0.8422   -1.2371    0.5465 C   0  0  2  0  0  0  0  0  0  0  0  0
   -0.8502    1.3215    0.3749 C   0  0  1  0  0  0  0  0  0  0  0  0
   -1.6911    0.0485    0.5437 C   0  0  0  0  0  0  0  0  0  0  0  0
    2.7932   -1.0437    0.3428 C   0  0  0  0  0  0  0  0  0  0  0  0
    1.5705   -0.0559   -1.7092 H   0  0  0  0  0  0  0  0  0  0  0  0
    0.8003   -2.1904   -0.4656 H   0  0  0  0  0  0  0  0  0  0  0  0
   -0.5113    1.1671   -1.7510 H   0  0  0  0  0  0  0  0  0  0  0  0
   -1.5178   -2.0983    0.4639 H   0  0  0  0  0  0  0  0  0  0  0  0
   -1.5010    2.1933    0.2417 H   0  0  0  0  0  0  0  0  0  0  0  0
   -2.2469    0.1075    1.4876 H   0  0  0  0  0  0  0  0  0  0  0  0
   -1.2346   -0.8962   -1.9275 H   0  0  0  0  0  0  0  0  0  0  0  0
    0.2705    3.1487   -0.9853 H   0  0  0  0  0  0  0  0  0  0  0  0
   -0.8244   -1.3639    2.4963 H   0  0  0  0  0  0  0  0  0  0  0  0
    0.4779    0.7847    1.7172 H   0  0  0  0  0  0  0  0  0  0  0  0
   -3.1902    0.7669   -0.4820 H   0  0  0  0  0  0  0  0  0  0  0  0
    3.1071   -1.3592   -0.6577 H   0  0  0  0  0  0  0  0  0  0  0  0
    2.3614   -1.8777    0.9023 H   0  0  0  0  0  0  0  0  0  0  0  0
    3.6905   -0.7344    0.8880 H   0  0  0  0  0  0  0  0  0  0  0  0
  1  7  1  0  0  0  0
  1 13  1  0  0  0  0
  2  8  1  0  0  0  0
  2 20  1  0  0  0  0
  3  9  1  0  0  0  0
  3 21  1  0  0  0  0
  4 10  1  0  0  0  0
  4 22  1  0  0  0  0
  5 11  1  0  0  0  0
  5 23  1  0  0  0  0
  6 12  1  0  0  0  0
  6 24  1  0  0  0  0
  7  8  1  0  0  0  0
  7  9  1  0  0  0  0
  7 14  1  0  0  0  0
  8 10  1  0  0  0  0
  8 15  1  0  0  0  0
  9 11  1  0  0  0  0
  9 16  1  0  0  0  0
 10 12  1  0  0  0  0
 10 17  1  0  0  0  0
 11 12  1  0  0  0  0
 11 18  1  0  0  0  0
 12 19  1  0  0  0  0
 13 25  1  0  0  0  0
 13 26  1  0  0  0  0
 13 27  1  0  0  0  0
M  END
> <PUBCHEM_COMPOUND_CID>
440078

> <PUBCHEM_CONFORMER_RMSD>
0.6

> <PUBCHEM_CONFORMER_DIVERSEORDER>
2
1
3

> <PUBCHEM_MMFF94_PARTIAL_CHARGES>
18
1 -0.56
10 0.28
11 0.28
12 0.28
13 0.28
2 -0.68
20 0.4
21 0.4
22 0.4
23 0.4
24 0.4
3 -0.68
4 -0.68
5 -0.68
6 -0.68
7 0.28
8 0.28
9 0.28

> <PUBCHEM_EFFECTIVE_ROTOR_COUNT>
2.2

> <PUBCHEM_PHARMACOPHORE_FEATURES>
12
1 1 acceptor
1 2 acceptor
1 2 donor
1 3 acceptor
1 3 donor
1 4 acceptor
1 4 donor
1 5 acceptor
1 5 donor
1 6 acceptor
1 6 donor
6 7 8 9 10 11 12 rings

> <PUBCHEM_HEAVY_ATOM_COUNT>
13

> <PUBCHEM_ATOM_DEF_STEREO_COUNT>
4

> <PUBCHEM_ATOM_UDEF_STEREO_COUNT>
0

> <PUBCHEM_BOND_DEF_STEREO_COUNT>
0

> <PUBCHEM_BOND_UDEF_STEREO_COUNT>
0

> <PUBCHEM_ISOTOPIC_ATOM_COUNT>
0

> <PUBCHEM_COMPONENT_COUNT>
1

> <PUBCHEM_CACTVS_TAUTO_COUNT>
1

> <PUBCHEM_CONFORMER_ID>
0006B70E00000002

> <PUBCHEM_MMFF94_ENERGY>
44.5791

> <PUBCHEM_FEATURE_SELFOVERLAP>
60.917

> <PUBCHEM_SHAPE_FINGERPRINT>
12423570 1 7491338161641092447
13024252 1 17203047516553452130
137420 1 4865222254416061567
16945 1 18412818105700832695
20511035 2 18265602191766073897
22344851 12 7533347747969878048
241688 4 17547258534810934521
2748010 2 17545576303806679037
369184 2 18059296568934306794
5084963 1 18196089078288599194
54338 74 18129939091380686416

> <PUBCHEM_SHAPE_MULTIPOLES>
232.32
2.49
2.01
1.44
0.96
0.75
0.06
-0.45
0.26
-0.04
-0.23
-0.11
-0.28
-0.22

> <PUBCHEM_SHAPE_SELFOVERLAP>
467.238

> <PUBCHEM_SHAPE_VOLUME>
135.2

> <PUBCHEM_COORDINATE_TYPE>
2
5
10

$$$$

