9548
  -OEChem-06261203483D

 38 37  0     0  0  0  0  0  0999 V2000
    6.5694   -1.0465    0.4952 F   0  0  0  0  0  0  0  0  0  0  0  0
    0.0568    0.5027    0.1169 C   0  0  0  0  0  0  0  0  0  0  0  0
   -1.1677   -0.3719   -0.1667 C   0  0  0  0  0  0  0  0  0  0  0  0
    1.3553   -0.2488   -0.1828 C   0  0  0  0  0  0  0  0  0  0  0  0
   -2.4656    0.3689    0.1634 C   0  0  0  0  0  0  0  0  0  0  0  0
    2.6157    0.5775    0.0909 C   0  0  0  0  0  0  0  0  0  0  0  0
   -3.7255   -0.4531   -0.1230 C   0  0  0  0  0  0  0  0  0  0  0  0
    3.9468   -0.1031   -0.2432 C   0  0  0  0  0  0  0  0  0  0  0  0
   -5.0243    0.3132    0.1371 C   0  0  0  0  0  0  0  0  0  0  0  0
    5.1671    0.7794    0.0270 C   0  0  0  0  0  0  0  0  0  0  0  0
   -6.2477   -0.5576   -0.1522 C   0  0  0  0  0  0  0  0  0  0  0  0
    6.4617    0.0524   -0.2975 C   0  0  0  0  0  0  0  0  0  0  0  0
   -7.5420    0.1868    0.1351 C   0  0  0  0  0  0  0  0  0  0  0  0
    0.0514    0.8161    1.1677 H   0  0  0  0  0  0  0  0  0  0  0  0
    0.0101    1.4129   -0.4930 H   0  0  0  0  0  0  0  0  0  0  0  0
   -1.1721   -0.6681   -1.2225 H   0  0  0  0  0  0  0  0  0  0  0  0
   -1.1121   -1.2916    0.4279 H   0  0  0  0  0  0  0  0  0  0  0  0
    1.3946   -1.1651    0.4190 H   0  0  0  0  0  0  0  0  0  0  0  0
    1.3570   -0.5611   -1.2345 H   0  0  0  0  0  0  0  0  0  0  0  0
   -2.5063    1.2977   -0.4193 H   0  0  0  0  0  0  0  0  0  0  0  0
   -2.4605    0.6594    1.2213 H   0  0  0  0  0  0  0  0  0  0  0  0
    2.5507    1.5119   -0.4812 H   0  0  0  0  0  0  0  0  0  0  0  0
    2.6234    0.8646    1.1501 H   0  0  0  0  0  0  0  0  0  0  0  0
   -3.7074   -0.7824   -1.1694 H   0  0  0  0  0  0  0  0  0  0  0  0
   -3.7072   -1.3599    0.4942 H   0  0  0  0  0  0  0  0  0  0  0  0
    3.9406   -0.3976   -1.3000 H   0  0  0  0  0  0  0  0  0  0  0  0
    4.0263   -1.0278    0.3415 H   0  0  0  0  0  0  0  0  0  0  0  0
   -5.0531    1.2117   -0.4910 H   0  0  0  0  0  0  0  0  0  0  0  0
   -5.0473    0.6473    1.1814 H   0  0  0  0  0  0  0  0  0  0  0  0
    5.1032    1.6974   -0.5676 H   0  0  0  0  0  0  0  0  0  0  0  0
    5.1732    1.0657    1.0849 H   0  0  0  0  0  0  0  0  0  0  0  0
   -6.2392   -0.8748   -1.2014 H   0  0  0  0  0  0  0  0  0  0  0  0
   -6.2128   -1.4652    0.4617 H   0  0  0  0  0  0  0  0  0  0  0  0
    7.3267    0.6928   -0.1036 H   0  0  0  0  0  0  0  0  0  0  0  0
    6.4913   -0.2755   -1.3407 H   0  0  0  0  0  0  0  0  0  0  0  0
   -7.5963    0.4883    1.1860 H   0  0  0  0  0  0  0  0  0  0  0  0
   -7.6236    1.0851   -0.4851 H   0  0  0  0  0  0  0  0  0  0  0  0
   -8.4032   -0.4536   -0.0794 H   0  0  0  0  0  0  0  0  0  0  0  0
  1 12  1  0  0  0  0
  2  3  1  0  0  0  0
  2  4  1  0  0  0  0
  2 14  1  0  0  0  0
  2 15  1  0  0  0  0
  3  5  1  0  0  0  0
  3 16  1  0  0  0  0
  3 17  1  0  0  0  0
  4  6  1  0  0  0  0
  4 18  1  0  0  0  0
  4 19  1  0  0  0  0
  5  7  1  0  0  0  0
  5 20  1  0  0  0  0
  5 21  1  0  0  0  0
  6  8  1  0  0  0  0
  6 22  1  0  0  0  0
  6 23  1  0  0  0  0
  7  9  1  0  0  0  0
  7 24  1  0  0  0  0
  7 25  1  0  0  0  0
  8 10  1  0  0  0  0
  8 26  1  0  0  0  0
  8 27  1  0  0  0  0
  9 11  1  0  0  0  0
  9 28  1  0  0  0  0
  9 29  1  0  0  0  0
 10 12  1  0  0  0  0
 10 30  1  0  0  0  0
 10 31  1  0  0  0  0
 11 13  1  0  0  0  0
 11 32  1  0  0  0  0
 11 33  1  0  0  0  0
 12 34  1  0  0  0  0
 12 35  1  0  0  0  0
 13 36  1  0  0  0  0
 13 37  1  0  0  0  0
 13 38  1  0  0  0  0
M  END
> <PUBCHEM_COMPOUND_CID>
9548

> <PUBCHEM_CONFORMER_RMSD>
1

> <PUBCHEM_CONFORMER_DIVERSEORDER>
1
233
4
626
206
213
183
387
28
43
250
96
562
787
494
704
184
260
378
110
249
101
320
107
189
566
750
79
3
71
209
611
74
575
349
791
29
384
237
239
685
651
356
31
773
50
406
504
93
12
614
341
735
44
567
736
468
5
370
365
674
676
254
220
225
369
483
199
105
242
821
139
546
783
8
707
628
597
592
534
792
47
619
30
137
654
428
173
599
498
187
86
396
853
123
25
158
307
161
733
431
201
653
2
102
45
84
514
457
824
77
289
591
292
581
550
632
27
73
633
229
535
450
741
14
169
109
390
638

> <PUBCHEM_MMFF94_PARTIAL_CHARGES>
2
1 -0.34
12 0.34

> <PUBCHEM_EFFECTIVE_ROTOR_COUNT>
10

> <PUBCHEM_PHARMACOPHORE_FEATURES>
1
1 13 hydrophobe

> <PUBCHEM_HEAVY_ATOM_COUNT>
13

> <PUBCHEM_ATOM_DEF_STEREO_COUNT>
0

> <PUBCHEM_ATOM_UDEF_STEREO_COUNT>
0

> <PUBCHEM_BOND_DEF_STEREO_COUNT>
0

> <PUBCHEM_BOND_UDEF_STEREO_COUNT>
0

> <PUBCHEM_ISOTOPIC_ATOM_COUNT>
0

> <PUBCHEM_COMPONENT_COUNT>
1

> <PUBCHEM_CACTVS_TAUTO_COUNT>
1

> <PUBCHEM_CONFORMER_ID>
0000254C00000001

> <PUBCHEM_MMFF94_ENERGY>
-3.4709

> <PUBCHEM_FEATURE_SELFOVERLAP>
5.074

> <PUBCHEM_SHAPE_FINGERPRINT>
12091667 2 17989205941796700733
13533116 47 17703519877979285426
1420 363 18410852157303598934
14251764 18 18333730230241457913
14251764 46 18409449184772067090
14729087 3 14779541318987452867
17834076 25 18411699881037639581
20281389 69 18411139129907559464
20621476 38 18261954158963542374
20621476 8 17775288291916535365
22224240 67 14490476387017898669
23035841 295 18410012130768293651
23402539 116 17967537856661600445
23521765 1 18335420166369712493
28498 318 18412828023033663334
33532 11 17989210369133225050
33684 2 18410856563940038118
42788 4 18407759231131737708
8209 1 18411136935147148501

> <PUBCHEM_SHAPE_MULTIPOLES>
260.26
21.38
0.84
0.65
4.19
0.01
0
1.39
0.57
-0.34
0.03
-0.11
0.01
-0.28

> <PUBCHEM_SHAPE_SELFOVERLAP>
461.307

> <PUBCHEM_SHAPE_VOLUME>
169.9

> <PUBCHEM_COORDINATE_TYPE>
2
5
10

$$$$

