5312529
  -OEChem-07051213082D

 56 55  0     0  0  0  0  0  0999 V2000
    2.8660    4.6550    0.0000 O   0  0  0  0  0  0  0  0  0  0  0  0
    2.0000    3.1550    0.0000 O   0  0  0  0  0  0  0  0  0  0  0  0
    5.4641    0.1550    0.0000 C   0  0  0  0  0  0  0  0  0  0  0  0
    5.4641   -0.8450    0.0000 C   0  0  0  0  0  0  0  0  0  0  0  0
    4.5981    0.6550    0.0000 C   0  0  0  0  0  0  0  0  0  0  0  0
    6.3301   -1.3450    0.0000 C   0  0  0  0  0  0  0  0  0  0  0  0
    4.5981    1.6550    0.0000 C   0  0  0  0  0  0  0  0  0  0  0  0
    6.3301   -2.3450    0.0000 C   0  0  0  0  0  0  0  0  0  0  0  0
    3.7320    2.1550    0.0000 C   0  0  0  0  0  0  0  0  0  0  0  0
    7.1962   -2.8450    0.0000 C   0  0  0  0  0  0  0  0  0  0  0  0
    3.7320    3.1550    0.0000 C   0  0  0  0  0  0  0  0  0  0  0  0
    7.1962   -3.8450    0.0000 C   0  0  0  0  0  0  0  0  0  0  0  0
    2.8660    3.6550    0.0000 C   0  0  0  0  0  0  0  0  0  0  0  0
    8.0622   -4.3450    0.0000 C   0  0  0  0  0  0  0  0  0  0  0  0
    8.9282   -3.8450    0.0000 C   0  0  0  0  0  0  0  0  0  0  0  0
    9.7942   -4.3450    0.0000 C   0  0  0  0  0  0  0  0  0  0  0  0
   10.6603   -3.8450    0.0000 C   0  0  0  0  0  0  0  0  0  0  0  0
   10.6603   -2.8450    0.0000 C   0  0  0  0  0  0  0  0  0  0  0  0
   11.5263   -2.3450    0.0000 C   0  0  0  0  0  0  0  0  0  0  0  0
   11.5263   -1.3450    0.0000 C   0  0  0  0  0  0  0  0  0  0  0  0
   10.6603   -0.8450    0.0000 C   0  0  0  0  0  0  0  0  0  0  0  0
   10.6603    0.1550    0.0000 C   0  0  0  0  0  0  0  0  0  0  0  0
    6.0747    0.0473    0.0000 H   0  0  0  0  0  0  0  0  0  0  0  0
    5.6762    0.7376    0.0000 H   0  0  0  0  0  0  0  0  0  0  0  0
    4.8535   -0.7373    0.0000 H   0  0  0  0  0  0  0  0  0  0  0  0
    5.2520   -1.4276    0.0000 H   0  0  0  0  0  0  0  0  0  0  0  0
    3.9875    0.7627    0.0000 H   0  0  0  0  0  0  0  0  0  0  0  0
    4.3860    0.0724    0.0000 H   0  0  0  0  0  0  0  0  0  0  0  0
    6.9407   -1.4527    0.0000 H   0  0  0  0  0  0  0  0  0  0  0  0
    6.5422   -0.7624    0.0000 H   0  0  0  0  0  0  0  0  0  0  0  0
    5.2087    1.5473    0.0000 H   0  0  0  0  0  0  0  0  0  0  0  0
    4.8101    2.2376    0.0000 H   0  0  0  0  0  0  0  0  0  0  0  0
    5.7196   -2.2373    0.0000 H   0  0  0  0  0  0  0  0  0  0  0  0
    6.1181   -2.9276    0.0000 H   0  0  0  0  0  0  0  0  0  0  0  0
    3.1215    2.2627    0.0000 H   0  0  0  0  0  0  0  0  0  0  0  0
    3.5200    1.5724    0.0000 H   0  0  0  0  0  0  0  0  0  0  0  0
    7.8067   -2.9527    0.0000 H   0  0  0  0  0  0  0  0  0  0  0  0
    7.4082   -2.2624    0.0000 H   0  0  0  0  0  0  0  0  0  0  0  0
    4.3426    3.0473    0.0000 H   0  0  0  0  0  0  0  0  0  0  0  0
    3.9441    3.7376    0.0000 H   0  0  0  0  0  0  0  0  0  0  0  0
    6.6592   -4.1550    0.0000 H   0  0  0  0  0  0  0  0  0  0  0  0
    8.0622   -4.9650    0.0000 H   0  0  0  0  0  0  0  0  0  0  0  0
    9.3267   -3.3700    0.0000 H   0  0  0  0  0  0  0  0  0  0  0  0
    8.5297   -3.3700    0.0000 H   0  0  0  0  0  0  0  0  0  0  0  0
    9.7942   -4.9650    0.0000 H   0  0  0  0  0  0  0  0  0  0  0  0
    2.3291    4.9650    0.0000 H   0  0  0  0  0  0  0  0  0  0  0  0
   11.1972   -4.1550    0.0000 H   0  0  0  0  0  0  0  0  0  0  0  0
   10.4482   -2.2624    0.0000 H   0  0  0  0  0  0  0  0  0  0  0  0
   10.0497   -2.9527    0.0000 H   0  0  0  0  0  0  0  0  0  0  0  0
   12.0632   -2.6550    0.0000 H   0  0  0  0  0  0  0  0  0  0  0  0
   12.0632   -1.0350    0.0000 H   0  0  0  0  0  0  0  0  0  0  0  0
   10.0497   -0.7373    0.0000 H   0  0  0  0  0  0  0  0  0  0  0  0
   10.4482   -1.4276    0.0000 H   0  0  0  0  0  0  0  0  0  0  0  0
   11.2803    0.1550    0.0000 H   0  0  0  0  0  0  0  0  0  0  0  0
   10.6603    0.7750    0.0000 H   0  0  0  0  0  0  0  0  0  0  0  0
   10.0403    0.1550    0.0000 H   0  0  0  0  0  0  0  0  0  0  0  0
  1 13  1  0  0  0  0
  1 46  1  0  0  0  0
  2 13  2  0  0  0  0
  3  4  1  0  0  0  0
  3  5  1  0  0  0  0
  3 23  1  0  0  0  0
  3 24  1  0  0  0  0
  4  6  1  0  0  0  0
  4 25  1  0  0  0  0
  4 26  1  0  0  0  0
  5  7  1  0  0  0  0
  5 27  1  0  0  0  0
  5 28  1  0  0  0  0
  6  8  1  0  0  0  0
  6 29  1  0  0  0  0
  6 30  1  0  0  0  0
  7  9  1  0  0  0  0
  7 31  1  0  0  0  0
  7 32  1  0  0  0  0
  8 10  1  0  0  0  0
  8 33  1  0  0  0  0
  8 34  1  0  0  0  0
  9 11  1  0  0  0  0
  9 35  1  0  0  0  0
  9 36  1  0  0  0  0
 10 12  1  0  0  0  0
 10 37  1  0  0  0  0
 10 38  1  0  0  0  0
 11 13  1  0  0  0  0
 11 39  1  0  0  0  0
 11 40  1  0  0  0  0
 12 14  2  0  0  0  0
 12 41  1  0  0  0  0
 14 15  1  0  0  0  0
 14 42  1  0  0  0  0
 15 16  1  0  0  0  0
 15 43  1  0  0  0  0
 15 44  1  0  0  0  0
 16 17  2  0  0  0  0
 16 45  1  0  0  0  0
 17 18  1  0  0  0  0
 17 47  1  0  0  0  0
 18 19  1  0  0  0  0
 18 48  1  0  0  0  0
 18 49  1  0  0  0  0
 19 20  2  0  0  0  0
 19 50  1  0  0  0  0
 20 21  1  0  0  0  0
 20 51  1  0  0  0  0
 21 22  1  0  0  0  0
 21 52  1  0  0  0  0
 21 53  1  0  0  0  0
 22 54  1  0  0  0  0
 22 55  1  0  0  0  0
 22 56  1  0  0  0  0
M  END
> <PUBCHEM_COMPOUND_CID>
5312529

> <PUBCHEM_COMPOUND_CANONICALIZED>
1

> <PUBCHEM_CACTVS_COMPLEXITY>
327

> <PUBCHEM_CACTVS_HBOND_ACCEPTOR>
2

> <PUBCHEM_CACTVS_HBOND_DONOR>
1

> <PUBCHEM_CACTVS_ROTATABLE_BOND>
15

> <PUBCHEM_CACTVS_SUBSKEYS>
AAADcfB4MAAAAAAAAAAAAAAAAAAAAAAAAAAAAAAAAAAAAAAAAAAAGgAACAAACACAgAACCAAAAgCIACDSCAAAAAAgAAAICAEAAAgAABIAAQAAQAAEgAAIAAOIyKCAAAAAAAAAAAAAAAAAAAAAAAAAAAAAAA==

> <PUBCHEM_IUPAC_OPENEYE_NAME>
(11Z,14Z,17Z)-icosa-11,14,17-trienoic acid

> <PUBCHEM_IUPAC_CAS_NAME>
(11Z,14Z,17Z)-eicosa-11,14,17-trienoic acid

> <PUBCHEM_IUPAC_NAME>
(11Z,14Z,17Z)-icosa-11,14,17-trienoic acid

> <PUBCHEM_IUPAC_SYSTEMATIC_NAME>
(11Z,14Z,17Z)-icosa-11,14,17-trienoic acid

> <PUBCHEM_IUPAC_TRADITIONAL_NAME>
(11Z,14Z,17Z)-eicosa-11,14,17-trienoic acid

> <PUBCHEM_IUPAC_INCHI>
InChI=1S/C20H34O2/c1-2-3-4-5-6-7-8-9-10-11-12-13-14-15-16-17-18-19-20(21)22/h3-4,6-7,9-10H,2,5,8,11-19H2,1H3,(H,21,22)/b4-3-,7-6-,10-9-

> <PUBCHEM_IUPAC_INCHIKEY>
AHANXAKGNAKFSK-PDBXOOCHSA-N

> <PUBCHEM_XLOGP3>
6.9

> <PUBCHEM_EXACT_MASS>
306.25588

> <PUBCHEM_MOLECULAR_FORMULA>
C20H34O2

> <PUBCHEM_MOLECULAR_WEIGHT>
306.48276

> <PUBCHEM_OPENEYE_CAN_SMILES>
CCC=CCC=CCC=CCCCCCCCCCC(=O)O

> <PUBCHEM_OPENEYE_ISO_SMILES>
CC/C=C\C/C=C\C/C=C\CCCCCCCCCC(=O)O

> <PUBCHEM_CACTVS_TPSA>
37.3

> <PUBCHEM_MONOISOTOPIC_WEIGHT>
306.25588

> <PUBCHEM_TOTAL_CHARGE>
0

> <PUBCHEM_HEAVY_ATOM_COUNT>
22

> <PUBCHEM_ATOM_DEF_STEREO_COUNT>
0

> <PUBCHEM_ATOM_UDEF_STEREO_COUNT>
0

> <PUBCHEM_BOND_DEF_STEREO_COUNT>
3

> <PUBCHEM_BOND_UDEF_STEREO_COUNT>
0

> <PUBCHEM_ISOTOPIC_ATOM_COUNT>
0

> <PUBCHEM_COMPONENT_COUNT>
1

> <PUBCHEM_CACTVS_TAUTO_COUNT>
1

> <PUBCHEM_COORDINATE_TYPE>
1
5
255

$$$$

