439696
  -OEChem-07051212473D

 25 25  0     1  0  0  0  0  0999 V2000
   -0.6414   -2.0803    0.0276 O   0  0  0  0  0  0  0  0  0  0  0  0
   -0.6745    0.3177    0.3984 C   0  0  2  0  0  0  0  0  0  0  0  0
    0.0914    1.4436   -0.2924 C   0  0  0  0  0  0  0  0  0  0  0  0
    1.5629    1.4408    0.1175 C   0  0  0  0  0  0  0  0  0  0  0  0
    2.1884    0.0725    0.0284 C   0  0  0  0  0  0  0  0  0  0  0  0
   -0.0145   -1.0245    0.1042 C   0  0  0  0  0  0  0  0  0  0  0  0
   -2.1000    0.2837   -0.0485 C   0  0  0  0  0  0  0  0  0  0  0  0
    1.4681   -1.0592   -0.0080 C   0  0  0  0  0  0  0  0  0  0  0  0
    3.6889    0.0422   -0.0165 C   0  0  0  0  0  0  0  0  0  0  0  0
   -3.1341    0.4433    1.0261 C   0  0  0  0  0  0  0  0  0  0  0  0
   -2.4354    0.1202   -1.3368 C   0  0  0  0  0  0  0  0  0  0  0  0
   -0.6223    0.4584    1.4864 H   0  0  0  0  0  0  0  0  0  0  0  0
   -0.3509    2.4172   -0.0465 H   0  0  0  0  0  0  0  0  0  0  0  0
    0.0470    1.3448   -1.3852 H   0  0  0  0  0  0  0  0  0  0  0  0
    1.6657    1.8101    1.1452 H   0  0  0  0  0  0  0  0  0  0  0  0
    2.1017    2.1408   -0.5323 H   0  0  0  0  0  0  0  0  0  0  0  0
    1.9344   -2.0352   -0.0879 H   0  0  0  0  0  0  0  0  0  0  0  0
    4.1039    0.5212    0.8763 H   0  0  0  0  0  0  0  0  0  0  0  0
    4.0538    0.5760   -0.8998 H   0  0  0  0  0  0  0  0  0  0  0  0
    4.0809   -0.9796   -0.0589 H   0  0  0  0  0  0  0  0  0  0  0  0
   -3.0404   -0.3581    1.7662 H   0  0  0  0  0  0  0  0  0  0  0  0
   -3.0085    1.4047    1.5347 H   0  0  0  0  0  0  0  0  0  0  0  0
   -4.1530    0.4091    0.6261 H   0  0  0  0  0  0  0  0  0  0  0  0
   -3.4755    0.0984   -1.6459 H   0  0  0  0  0  0  0  0  0  0  0  0
   -1.6915   -0.0064   -2.1158 H   0  0  0  0  0  0  0  0  0  0  0  0
  1  6  2  0  0  0  0
  2  3  1  0  0  0  0
  2  6  1  0  0  0  0
  2  7  1  0  0  0  0
  2 12  1  0  0  0  0
  3  4  1  0  0  0  0
  3 13  1  0  0  0  0
  3 14  1  0  0  0  0
  4  5  1  0  0  0  0
  4 15  1  0  0  0  0
  4 16  1  0  0  0  0
  5  8  2  0  0  0  0
  5  9  1  0  0  0  0
  6  8  1  0  0  0  0
  7 10  1  0  0  0  0
  7 11  2  0  0  0  0
  8 17  1  0  0  0  0
  9 18  1  0  0  0  0
  9 19  1  0  0  0  0
  9 20  1  0  0  0  0
 10 21  1  0  0  0  0
 10 22  1  0  0  0  0
 10 23  1  0  0  0  0
 11 24  1  0  0  0  0
 11 25  1  0  0  0  0
M  END
> <PUBCHEM_COMPOUND_CID>
439696

> <PUBCHEM_CONFORMER_RMSD>
0.4

> <PUBCHEM_CONFORMER_DIVERSEORDER>
1
2
5
4
3

> <PUBCHEM_MMFF94_PARTIAL_CHARGES>
13
1 -0.57
10 0.14
11 -0.3
17 0.15
2 0.2
24 0.15
25 0.15
4 0.14
5 -0.28
6 0.49
7 -0.28
8 -0.14
9 0.14

> <PUBCHEM_EFFECTIVE_ROTOR_COUNT>
1.6

> <PUBCHEM_PHARMACOPHORE_FEATURES>
2
1 1 acceptor
6 2 3 4 5 6 8 rings

> <PUBCHEM_HEAVY_ATOM_COUNT>
11

> <PUBCHEM_ATOM_DEF_STEREO_COUNT>
1

> <PUBCHEM_ATOM_UDEF_STEREO_COUNT>
0

> <PUBCHEM_BOND_DEF_STEREO_COUNT>
0

> <PUBCHEM_BOND_UDEF_STEREO_COUNT>
0

> <PUBCHEM_ISOTOPIC_ATOM_COUNT>
0

> <PUBCHEM_COMPONENT_COUNT>
1

> <PUBCHEM_CACTVS_TAUTO_COUNT>
13

> <PUBCHEM_CONFORMER_ID>
0006B59000000001

> <PUBCHEM_MMFF94_ENERGY>
11.9471

> <PUBCHEM_FEATURE_SELFOVERLAP>
10.148

> <PUBCHEM_SHAPE_FINGERPRINT>
10219947 1 18341045297964507113
12932764 1 17775011158729787216
13380535 21 18125427619268374268
14325111 11 18410009931396878488
14993402 34 18410579482825654284
15310529 11 16774081777912740624
15775835 57 18412545426753782381
16945 1 18411423912187994336
17844478 74 17846771923399167125
193761 8 17834955270008562088
21040471 1 18339080393450067568
21501502 16 18123466081749526692
23235685 24 18408885143933940888
23402539 116 18188218692637229420
23402655 69 18195265514553201493
23552423 10 17984705515480261996
23559900 14 18335977590013858260
2748010 2 18122626055040024596
29004967 10 18272365420979970097
5084963 1 18260560999709120901
528886 8 18409732884705426033

> <PUBCHEM_SHAPE_MULTIPOLES>
220.51
4.71
1.52
0.9
0.97
0.33
0.12
-0.55
-0.22
0.22
0
-0.72
-0.07
-0.08

> <PUBCHEM_SHAPE_SELFOVERLAP>
443.32

> <PUBCHEM_SHAPE_VOLUME>
130.1

> <PUBCHEM_COORDINATE_TYPE>
2
5
10

$$$$

