17395860
  -OEChem-06241222522D

 48 50  0     1  0  0  0  0  0999 V2000
    4.8255    2.5444    0.0000 O   0  0  0  0  0  0  0  0  0  0  0  0
    6.5856   -0.5042    0.0000 O   0  0  0  0  0  0  0  0  0  0  0  0
    5.4641    0.8807    0.0000 N   0  0  0  0  0  0  0  0  0  0  0  0
    7.0468    1.2171    0.0000 N   0  0  0  0  0  0  0  0  0  0  0  0
    4.5981   -0.6193    0.0000 N   0  0  3  0  0  0  0  0  0  0  0  0
    6.5468    2.0831    0.0000 C   0  0  3  0  0  0  0  0  0  0  0  0
    6.9535    2.9967    0.0000 C   0  0  0  0  0  0  0  0  0  0  0  0
    5.5686    1.8752    0.0000 C   0  0  0  0  0  0  0  0  0  0  0  0
    4.5981    0.3807    0.0000 C   0  0  0  0  0  0  0  0  0  0  0  0
    6.3776    0.4740    0.0000 C   0  0  0  0  0  0  0  0  0  0  0  0
    3.7320   -1.1193    0.0000 C   0  0  0  0  0  0  0  0  0  0  0  0
    7.9480    3.1012    0.0000 C   0  0  0  0  0  0  0  0  0  0  0  0
    3.7320   -2.1193    0.0000 C   0  0  0  0  0  0  0  0  0  0  0  0
    5.4641   -1.1193    0.0000 C   0  0  0  0  0  0  0  0  0  0  0  0
    2.8660   -2.6193    0.0000 C   0  0  0  0  0  0  0  0  0  0  0  0
    8.5358    2.2922    0.0000 C   0  0  0  0  0  0  0  0  0  0  0  0
    8.3548    4.0148    0.0000 C   0  0  0  0  0  0  0  0  0  0  0  0
    4.5981   -2.6193    0.0000 C   0  0  0  0  0  0  0  0  0  0  0  0
    2.8660   -3.6193    0.0000 C   0  0  0  0  0  0  0  0  0  0  0  0
    9.5303    2.3967    0.0000 C   0  0  0  0  0  0  0  0  0  0  0  0
    9.3493    4.1193    0.0000 C   0  0  0  0  0  0  0  0  0  0  0  0
    2.0000   -2.1193    0.0000 C   0  0  0  0  0  0  0  0  0  0  0  0
    4.5981   -3.6193    0.0000 C   0  0  0  0  0  0  0  0  0  0  0  0
    9.9371    3.3103    0.0000 C   0  0  0  0  0  0  0  0  0  0  0  0
    3.7320   -4.1193    0.0000 C   0  0  0  0  0  0  0  0  0  0  0  0
    7.1659    2.1156    0.0000 H   0  0  0  0  0  0  0  0  0  0  0  0
    6.9968    3.6152    0.0000 H   0  0  0  0  0  0  0  0  0  0  0  0
    6.3519    3.1467    0.0000 H   0  0  0  0  0  0  0  0  0  0  0  0
    4.3860    0.9633    0.0000 H   0  0  0  0  0  0  0  0  0  0  0  0
    3.9875    0.2730    0.0000 H   0  0  0  0  0  0  0  0  0  0  0  0
    7.6634    1.1523    0.0000 H   0  0  0  0  0  0  0  0  0  0  0  0
    3.5200   -0.5367    0.0000 H   0  0  0  0  0  0  0  0  0  0  0  0
    3.1215   -1.2270    0.0000 H   0  0  0  0  0  0  0  0  0  0  0  0
    5.1541   -1.6562    0.0000 H   0  0  0  0  0  0  0  0  0  0  0  0
    6.0010   -1.4293    0.0000 H   0  0  0  0  0  0  0  0  0  0  0  0
    5.7741   -0.5824    0.0000 H   0  0  0  0  0  0  0  0  0  0  0  0
    8.2836    1.7258    0.0000 H   0  0  0  0  0  0  0  0  0  0  0  0
    7.9904    4.5164    0.0000 H   0  0  0  0  0  0  0  0  0  0  0  0
    5.1350   -2.3093    0.0000 H   0  0  0  0  0  0  0  0  0  0  0  0
    2.3291   -3.9293    0.0000 H   0  0  0  0  0  0  0  0  0  0  0  0
    9.8948    1.8951    0.0000 H   0  0  0  0  0  0  0  0  0  0  0  0
    9.6015    4.6857    0.0000 H   0  0  0  0  0  0  0  0  0  0  0  0
    2.3100   -1.5824    0.0000 H   0  0  0  0  0  0  0  0  0  0  0  0
    1.4631   -1.8093    0.0000 H   0  0  0  0  0  0  0  0  0  0  0  0
    1.6900   -2.6562    0.0000 H   0  0  0  0  0  0  0  0  0  0  0  0
    5.1350   -3.9293    0.0000 H   0  0  0  0  0  0  0  0  0  0  0  0
    3.7320   -4.7393    0.0000 H   0  0  0  0  0  0  0  0  0  0  0  0
   10.5537    3.3751    0.0000 H   0  0  0  0  0  0  0  0  0  0  0  0
  1  8  2  0  0  0  0
  2 10  2  0  0  0  0
  3  8  1  0  0  0  0
  3  9  1  0  0  0  0
  3 10  1  0  0  0  0
  4  6  1  0  0  0  0
  4 10  1  0  0  0  0
  4 31  1  0  0  0  0
  5  9  1  0  0  0  0
  5 11  1  0  0  0  0
  5 14  1  0  0  0  0
  6  7  1  0  0  0  0
  6  8  1  0  0  0  0
  6 26  1  0  0  0  0
  7 12  1  0  0  0  0
  7 27  1  0  0  0  0
  7 28  1  0  0  0  0
  9 29  1  0  0  0  0
  9 30  1  0  0  0  0
 11 13  1  0  0  0  0
 11 32  1  0  0  0  0
 11 33  1  0  0  0  0
 12 16  2  0  0  0  0
 12 17  1  0  0  0  0
 13 15  1  0  0  0  0
 13 18  2  0  0  0  0
 14 34  1  0  0  0  0
 14 35  1  0  0  0  0
 14 36  1  0  0  0  0
 15 19  2  0  0  0  0
 15 22  1  0  0  0  0
 16 20  1  0  0  0  0
 16 37  1  0  0  0  0
 17 21  2  0  0  0  0
 17 38  1  0  0  0  0
 18 23  1  0  0  0  0
 18 39  1  0  0  0  0
 19 25  1  0  0  0  0
 19 40  1  0  0  0  0
 20 24  2  0  0  0  0
 20 41  1  0  0  0  0
 21 24  1  0  0  0  0
 21 42  1  0  0  0  0
 22 43  1  0  0  0  0
 22 44  1  0  0  0  0
 22 45  1  0  0  0  0
 23 25  2  0  0  0  0
 23 46  1  0  0  0  0
 24 48  1  0  0  0  0
 25 47  1  0  0  0  0
M  END
> <PUBCHEM_COMPOUND_CID>
17395860

> <PUBCHEM_COMPOUND_CANONICALIZED>
1

> <PUBCHEM_CACTVS_COMPLEXITY>
476

> <PUBCHEM_CACTVS_HBOND_ACCEPTOR>
3

> <PUBCHEM_CACTVS_HBOND_DONOR>
1

> <PUBCHEM_CACTVS_ROTATABLE_BOND>
6

> <PUBCHEM_CACTVS_SUBSKEYS>
AAADceB7MAAAAAAAAAAAAAAAAAAAAWAAAAAwYAAAAAAAAAABQAAAHgAQAAAADCjBmAQzAIPAAACIAiFSEACCAAAgAAAIiIGIBIiIYDKAkTGUIAholyIIiAcYiICOgAAAAAAQAAAAAAAAACAAAAAAAAAAAA==

> <PUBCHEM_IUPAC_OPENEYE_NAME>
5-benzyl-3-[[methyl(o-tolylmethyl)amino]methyl]imidazolidine-2,4-dione

> <PUBCHEM_IUPAC_CAS_NAME>
3-[[methyl-[(2-methylphenyl)methyl]amino]methyl]-5-(phenylmethyl)imidazolidine-2,4-dione

> <PUBCHEM_IUPAC_NAME>
5-benzyl-3-[[methyl-[(2-methylphenyl)methyl]amino]methyl]imidazolidine-2,4-dione

> <PUBCHEM_IUPAC_SYSTEMATIC_NAME>
3-[[methyl-[(2-methylphenyl)methyl]amino]methyl]-5-(phenylmethyl)imidazolidine-2,4-dione

> <PUBCHEM_IUPAC_TRADITIONAL_NAME>
5-benzyl-3-[[methyl-(2-methylbenzyl)amino]methyl]hydantoin

> <PUBCHEM_IUPAC_INCHI>
InChI=1S/C20H23N3O2/c1-15-8-6-7-11-17(15)13-22(2)14-23-19(24)18(21-20(23)25)12-16-9-4-3-5-10-16/h3-11,18H,12-14H2,1-2H3,(H,21,25)

> <PUBCHEM_IUPAC_INCHIKEY>
QMZDBUDZVIFYMT-UHFFFAOYSA-N

> <PUBCHEM_XLOGP3_AA>
3.1

> <PUBCHEM_EXACT_MASS>
337.179027

> <PUBCHEM_MOLECULAR_FORMULA>
C20H23N3O2

> <PUBCHEM_MOLECULAR_WEIGHT>
337.41552

> <PUBCHEM_OPENEYE_CAN_SMILES>
CC1=CC=CC=C1CN(C)CN2C(=O)C(NC2=O)CC3=CC=CC=C3

> <PUBCHEM_OPENEYE_ISO_SMILES>
CC1=CC=CC=C1CN(C)CN2C(=O)C(NC2=O)CC3=CC=CC=C3

> <PUBCHEM_CACTVS_TPSA>
52.6

> <PUBCHEM_MONOISOTOPIC_WEIGHT>
337.179027

> <PUBCHEM_TOTAL_CHARGE>
0

> <PUBCHEM_HEAVY_ATOM_COUNT>
25

> <PUBCHEM_ATOM_DEF_STEREO_COUNT>
0

> <PUBCHEM_ATOM_UDEF_STEREO_COUNT>
1

> <PUBCHEM_BOND_DEF_STEREO_COUNT>
0

> <PUBCHEM_BOND_UDEF_STEREO_COUNT>
0

> <PUBCHEM_ISOTOPIC_ATOM_COUNT>
0

> <PUBCHEM_COMPONENT_COUNT>
1

> <PUBCHEM_CACTVS_TAUTO_COUNT>
4

> <PUBCHEM_COORDINATE_TYPE>
1
5
255

> <PUBCHEM_BONDANNOTATIONS>
12  16  8
12  17  8
13  15  8
13  18  8
15  19  8
16  20  8
17  21  8
18  23  8
19  25  8
20  24  8
21  24  8
23  25  8
6  7  3

$$$$

