11954010
  -OEChem-07051213033D

 76 77  0     1  0  0  0  0  0999 V2000
    0.3290   -0.2673    0.1400 O   0  0  0  0  0  0  0  0  0  0  0  0
    5.6072   -1.1070    0.1841 O   0  0  0  0  0  0  0  0  0  0  0  0
   -3.7068    2.6917   -0.5561 C   0  0  1  0  0  0  0  0  0  0  0  0
   -4.3498    1.3124   -0.8036 C   0  0  0  0  0  0  0  0  0  0  0  0
   -3.0579   -2.2331   -1.8674 C   0  0  1  0  0  0  0  0  0  0  0  0
   -3.3463    0.2536   -1.2762 C   0  0  0  0  0  0  0  0  0  0  0  0
   -4.0313   -1.1018   -1.4810 C   0  0  0  0  0  0  0  0  0  0  0  0
   -2.6954    2.6464    0.6115 C   0  0  0  0  0  0  0  0  0  0  0  0
   -2.1197   -2.6829   -0.7280 C   0  0  0  0  0  0  0  0  0  0  0  0
   -2.0718    3.9952    0.9871 C   0  0  0  0  0  0  0  0  0  0  0  0
   -1.0312    3.8914    2.1105 C   0  0  0  0  0  0  0  0  0  0  0  0
   -3.0751    3.2706   -1.8248 C   0  0  0  0  0  0  0  0  0  0  0  0
   -2.8098   -3.3842    0.4477 C   0  0  0  0  0  0  0  0  0  0  0  0
   -3.8434   -3.4156   -2.4448 C   0  0  0  0  0  0  0  0  0  0  0  0
    0.2169    3.0441    1.7982 C   0  0  0  0  0  0  0  0  0  0  0  0
   -1.7851   -3.8352    1.4957 C   0  0  0  0  0  0  0  0  0  0  0  0
    1.1241    2.9887    3.0308 C   0  0  0  0  0  0  0  0  0  0  0  0
    1.0036    3.5802    0.6017 C   0  0  0  0  0  0  0  0  0  0  0  0
   -0.9695   -2.6799    2.0426 C   0  0  0  0  0  0  0  0  0  0  0  0
    0.3744   -2.6943    1.9423 C   0  0  0  0  0  0  0  0  0  0  0  0
   -1.7657   -1.5525    2.6408 C   0  0  0  0  0  0  0  0  0  0  0  0
    1.3396   -1.6340    2.3859 C   0  0  0  0  0  0  0  0  0  0  0  0
    2.2088   -1.1657    1.2683 C   0  0  0  0  0  0  0  0  0  0  0  0
    1.5402   -0.4568    0.1431 C   0  0  0  0  0  0  0  0  0  0  0  0
    3.5320   -1.3640    1.2574 C   0  0  0  0  0  0  0  0  0  0  0  0
    2.3805    0.0149   -0.9761 C   0  0  0  0  0  0  0  0  0  0  0  0
    3.7596   -0.2003   -0.9710 C   0  0  0  0  0  0  0  0  0  0  0  0
    4.3996   -0.9039    0.1541 C   0  0  0  0  0  0  0  0  0  0  0  0
    1.7846    0.6843   -2.0518 C   0  0  0  0  0  0  0  0  0  0  0  0
    4.5440    0.2522   -2.0384 C   0  0  0  0  0  0  0  0  0  0  0  0
    2.5689    1.1343   -3.1147 C   0  0  0  0  0  0  0  0  0  0  0  0
    3.9457    0.9187   -3.1079 C   0  0  0  0  0  0  0  0  0  0  0  0
   -4.5205    3.3681   -0.2613 H   0  0  0  0  0  0  0  0  0  0  0  0
   -5.1445    1.4171   -1.5530 H   0  0  0  0  0  0  0  0  0  0  0  0
   -4.8341    0.9717    0.1202 H   0  0  0  0  0  0  0  0  0  0  0  0
   -2.4164   -1.8565   -2.6760 H   0  0  0  0  0  0  0  0  0  0  0  0
   -2.8766    0.5602   -2.2170 H   0  0  0  0  0  0  0  0  0  0  0  0
   -2.5524    0.1412   -0.5347 H   0  0  0  0  0  0  0  0  0  0  0  0
   -4.7757   -0.9825   -2.2795 H   0  0  0  0  0  0  0  0  0  0  0  0
   -4.5926   -1.3776   -0.5811 H   0  0  0  0  0  0  0  0  0  0  0  0
   -3.1875    2.2246    1.4969 H   0  0  0  0  0  0  0  0  0  0  0  0
   -1.8862    1.9605    0.3448 H   0  0  0  0  0  0  0  0  0  0  0  0
   -1.5607   -1.8127   -0.3823 H   0  0  0  0  0  0  0  0  0  0  0  0
   -1.3745   -3.3692   -1.1525 H   0  0  0  0  0  0  0  0  0  0  0  0
   -2.8708    4.6718    1.3145 H   0  0  0  0  0  0  0  0  0  0  0  0
   -1.6071    4.4667    0.1163 H   0  0  0  0  0  0  0  0  0  0  0  0
   -1.5255    3.4837    3.0020 H   0  0  0  0  0  0  0  0  0  0  0  0
   -0.7160    4.9093    2.3752 H   0  0  0  0  0  0  0  0  0  0  0  0
   -2.1252    2.7823   -2.0655 H   0  0  0  0  0  0  0  0  0  0  0  0
   -2.8834    4.3427   -1.7158 H   0  0  0  0  0  0  0  0  0  0  0  0
   -3.7469    3.1534   -2.6819 H   0  0  0  0  0  0  0  0  0  0  0  0
   -3.3436   -4.2747    0.0985 H   0  0  0  0  0  0  0  0  0  0  0  0
   -3.5576   -2.7283    0.9056 H   0  0  0  0  0  0  0  0  0  0  0  0
   -4.6093   -3.7743   -1.7498 H   0  0  0  0  0  0  0  0  0  0  0  0
   -4.3516   -3.1219   -3.3700 H   0  0  0  0  0  0  0  0  0  0  0  0
   -3.1760   -4.2497   -2.6858 H   0  0  0  0  0  0  0  0  0  0  0  0
   -0.0881    2.0153    1.5811 H   0  0  0  0  0  0  0  0  0  0  0  0
   -2.3126   -4.3185    2.3273 H   0  0  0  0  0  0  0  0  0  0  0  0
   -1.1373   -4.6037    1.0554 H   0  0  0  0  0  0  0  0  0  0  0  0
    1.4837    3.9859    3.3060 H   0  0  0  0  0  0  0  0  0  0  0  0
    1.9963    2.3533    2.8426 H   0  0  0  0  0  0  0  0  0  0  0  0
    0.5885    2.5708    3.8898 H   0  0  0  0  0  0  0  0  0  0  0  0
    1.2721    4.6325    0.7418 H   0  0  0  0  0  0  0  0  0  0  0  0
    0.4257    3.4939   -0.3235 H   0  0  0  0  0  0  0  0  0  0  0  0
    1.9295    3.0126    0.4593 H   0  0  0  0  0  0  0  0  0  0  0  0
    0.8410   -3.5713    1.4938 H   0  0  0  0  0  0  0  0  0  0  0  0
   -2.1985   -0.9208    1.8594 H   0  0  0  0  0  0  0  0  0  0  0  0
   -2.5819   -1.9514    3.2533 H   0  0  0  0  0  0  0  0  0  0  0  0
   -1.1763   -0.9136    3.3022 H   0  0  0  0  0  0  0  0  0  0  0  0
    1.9467   -2.0594    3.1954 H   0  0  0  0  0  0  0  0  0  0  0  0
    0.8408   -0.7631    2.8214 H   0  0  0  0  0  0  0  0  0  0  0  0
    4.0276   -1.8807    2.0734 H   0  0  0  0  0  0  0  0  0  0  0  0
    0.7133    0.8660   -2.0801 H   0  0  0  0  0  0  0  0  0  0  0  0
    5.6192    0.0956   -2.0551 H   0  0  0  0  0  0  0  0  0  0  0  0
    2.1053    1.6540   -3.9482 H   0  0  0  0  0  0  0  0  0  0  0  0
    4.5538    1.2703   -3.9363 H   0  0  0  0  0  0  0  0  0  0  0  0
  1 24  2  0  0  0  0
  2 28  2  0  0  0  0
  3  4  1  0  0  0  0
  3  8  1  0  0  0  0
  3 12  1  0  0  0  0
  3 33  1  0  0  0  0
  4  6  1  0  0  0  0
  4 34  1  0  0  0  0
  4 35  1  0  0  0  0
  5  7  1  0  0  0  0
  5  9  1  0  0  0  0
  5 14  1  0  0  0  0
  5 36  1  0  0  0  0
  6  7  1  0  0  0  0
  6 37  1  0  0  0  0
  6 38  1  0  0  0  0
  7 39  1  0  0  0  0
  7 40  1  0  0  0  0
  8 10  1  0  0  0  0
  8 41  1  0  0  0  0
  8 42  1  0  0  0  0
  9 13  1  0  0  0  0
  9 43  1  0  0  0  0
  9 44  1  0  0  0  0
 10 11  1  0  0  0  0
 10 45  1  0  0  0  0
 10 46  1  0  0  0  0
 11 15  1  0  0  0  0
 11 47  1  0  0  0  0
 11 48  1  0  0  0  0
 12 49  1  0  0  0  0
 12 50  1  0  0  0  0
 12 51  1  0  0  0  0
 13 16  1  0  0  0  0
 13 52  1  0  0  0  0
 13 53  1  0  0  0  0
 14 54  1  0  0  0  0
 14 55  1  0  0  0  0
 14 56  1  0  0  0  0
 15 17  1  0  0  0  0
 15 18  1  0  0  0  0
 15 57  1  0  0  0  0
 16 19  1  0  0  0  0
 16 58  1  0  0  0  0
 16 59  1  0  0  0  0
 17 60  1  0  0  0  0
 17 61  1  0  0  0  0
 17 62  1  0  0  0  0
 18 63  1  0  0  0  0
 18 64  1  0  0  0  0
 18 65  1  0  0  0  0
 19 20  2  0  0  0  0
 19 21  1  0  0  0  0
 20 22  1  0  0  0  0
 20 66  1  0  0  0  0
 21 67  1  0  0  0  0
 21 68  1  0  0  0  0
 21 69  1  0  0  0  0
 22 23  1  0  0  0  0
 22 70  1  0  0  0  0
 22 71  1  0  0  0  0
 23 24  1  0  0  0  0
 23 25  2  0  0  0  0
 24 26  1  0  0  0  0
 25 28  1  0  0  0  0
 25 72  1  0  0  0  0
 26 27  1  0  0  0  0
 26 29  2  0  0  0  0
 27 28  1  0  0  0  0
 27 30  2  0  0  0  0
 29 31  1  0  0  0  0
 29 73  1  0  0  0  0
 30 32  1  0  0  0  0
 30 74  1  0  0  0  0
 31 32  2  0  0  0  0
 31 75  1  0  0  0  0
 32 76  1  0  0  0  0
M  END
> <PUBCHEM_COMPOUND_CID>
11954010

> <PUBCHEM_CONFORMER_RMSD>
1.8

> <PUBCHEM_CONFORMER_DIVERSEORDER>
2
39
57
32
81
45
8
37
43
86
30
70
49
36
47
89
83
75
31
95
44
27
87
14
52
94
38
92
62
48
3
113
67
69
4
65
77
17
50
73
7
9
46
59
88
78
13
41
28
29
11
6
51
103
85
53
106
60
79
116
64
55
104
91
33
1
5
112
19
90
114
101
108
110
18
61
12
58
71
63
22
109
117
42
10
74
21
40
93
25
111
107
66
54
99
26
16
84
68
97
23
34
98
15
102
20
24
96
72
35
56
100
80
115
105
82
76

> <PUBCHEM_MMFF94_PARTIAL_CHARGES>
23
1 -0.57
16 0.14
19 -0.28
2 -0.57
20 -0.29
21 0.14
22 0.28
23 -0.12
24 0.47
25 -0.14
26 0.09
27 0.09
28 0.47
29 -0.15
30 -0.15
31 -0.15
32 -0.15
66 0.15
72 0.15
73 0.15
74 0.15
75 0.15
76 0.15

> <PUBCHEM_EFFECTIVE_ROTOR_COUNT>
14

> <PUBCHEM_PHARMACOPHORE_FEATURES>
8
1 1 acceptor
1 12 hydrophobe
1 14 hydrophobe
1 2 acceptor
1 21 hydrophobe
3 15 17 18 hydrophobe
6 23 24 25 26 27 28 rings
6 26 27 29 30 31 32 rings

> <PUBCHEM_HEAVY_ATOM_COUNT>
32

> <PUBCHEM_ATOM_DEF_STEREO_COUNT>
0

> <PUBCHEM_ATOM_UDEF_STEREO_COUNT>
2

> <PUBCHEM_BOND_DEF_STEREO_COUNT>
1

> <PUBCHEM_BOND_UDEF_STEREO_COUNT>
0

> <PUBCHEM_ISOTOPIC_ATOM_COUNT>
0

> <PUBCHEM_COMPONENT_COUNT>
1

> <PUBCHEM_CACTVS_TAUTO_COUNT>
3

> <PUBCHEM_CONFORMER_ID>
00B6675A00000002

> <PUBCHEM_MMFF94_ENERGY>
52.5039

> <PUBCHEM_FEATURE_SELFOVERLAP>
40.616

> <PUBCHEM_SHAPE_FINGERPRINT>
10764073 3 17049142105382421794
10815517 723 17768260355505742418
10974685 15 18129662985277614236
12147406 95 17681861530421067013
12788726 201 18411695474770732351
15264996 19 17912042176904462513
15403338 16 6946927735596502754
15815584 197 17545054705624167874
16067690 210 18115041782403031236
161222 10 18117555347794383584
19319366 153 18127689538283160393
20600515 1 17606715605641797825
20764821 26 18199473160415185489
3493558 16 18056766425534402500
35225 105 18195496342874149729
50150288 127 17477144632818946877
5081480 168 17972589996980762987

> <PUBCHEM_SHAPE_MULTIPOLES>
646.81
8.81
5.94
3.56
4.23
2.84
-0.38
-1.95
-6.53
-6.85
3.2
1.19
0.27
-1.36

> <PUBCHEM_SHAPE_SELFOVERLAP>
1305.142

> <PUBCHEM_SHAPE_VOLUME>
378.4

> <PUBCHEM_COORDINATE_TYPE>
2
5
10

$$$$

