21820757
  -OEChem-07051213092D

 41 43  0     1  0  0  0  0  0999 V2000
    4.2690   -4.4650    0.0000 S   0  0  0  0  0  0  0  0  0  0  0  0
    6.4504    3.5534    0.0000 P   0  0  0  0  0  0  0  0  0  0  0  0
    5.8055    0.1003    0.0000 O   0  0  0  0  0  0  0  0  0  0  0  0
    8.1515   -0.9916    0.0000 O   0  0  0  0  0  0  0  0  0  0  0  0
    8.1552    1.1840    0.0000 O   0  0  0  0  0  0  0  0  0  0  0  0
    6.7577    2.6018    0.0000 O   0  0  0  0  0  0  0  0  0  0  0  0
    6.1430    4.5050    0.0000 O   0  0  0  0  0  0  0  0  0  0  0  0
    7.4020    3.8608    0.0000 O   0  0  0  0  0  0  0  0  0  0  0  0
    5.4988    3.2460    0.0000 O   0  0  0  0  0  0  0  0  0  0  0  0
    6.0812   -1.6603    0.0000 N   0  0  0  0  0  0  0  0  0  0  0  0
    6.0812   -3.2698    0.0000 N   0  0  0  0  0  0  0  0  0  0  0  0
    4.2690   -1.4650    0.0000 N   0  0  0  0  0  0  0  0  0  0  0  0
    3.4030   -2.9650    0.0000 N   0  0  0  0  0  0  0  0  0  0  0  0
    2.5369   -1.4650    0.0000 N   0  0  0  0  0  0  0  0  0  0  0  0
    7.3435   -0.4024    0.0000 C   0  0  2  0  0  0  0  0  0  0  0  0
    7.3452    0.5976    0.0000 C   0  0  1  0  0  0  0  0  0  0  0  0
    6.3919   -0.7098    0.0000 C   0  0  1  0  0  0  0  0  0  0  0  0
    6.3947    0.9082    0.0000 C   0  0  1  0  0  0  0  0  0  0  0  0
    6.0873    1.8598    0.0000 C   0  0  0  0  0  0  0  0  0  0  0  0
    5.1350   -1.9650    0.0000 C   0  0  0  0  0  0  0  0  0  0  0  0
    6.6648   -2.4650    0.0000 C   0  0  0  0  0  0  0  0  0  0  0  0
    5.1350   -2.9650    0.0000 C   0  0  0  0  0  0  0  0  0  0  0  0
    4.2690   -3.4650    0.0000 C   0  0  0  0  0  0  0  0  0  0  0  0
    3.4030   -1.9650    0.0000 C   0  0  0  0  0  0  0  0  0  0  0  0
    3.4030   -4.9650    0.0000 C   0  0  0  0  0  0  0  0  0  0  0  0
    7.8964   -0.1219    0.0000 H   0  0  0  0  0  0  0  0  0  0  0  0
    7.2493    1.2101    0.0000 H   0  0  0  0  0  0  0  0  0  0  0  0
    5.7794   -0.8057    0.0000 H   0  0  0  0  0  0  0  0  0  0  0  0
    5.7825    1.0063    0.0000 H   0  0  0  0  0  0  0  0  0  0  0  0
    5.7065    2.3491    0.0000 H   0  0  0  0  0  0  0  0  0  0  0  0
    5.5394    1.5697    0.0000 H   0  0  0  0  0  0  0  0  0  0  0  0
    8.7183   -0.7404    0.0000 H   0  0  0  0  0  0  0  0  0  0  0  0
    8.7212    0.9308    0.0000 H   0  0  0  0  0  0  0  0  0  0  0  0
    7.2848   -2.4650    0.0000 H   0  0  0  0  0  0  0  0  0  0  0  0
    6.5587    4.9650    0.0000 H   0  0  0  0  0  0  0  0  0  0  0  0
    7.5319    4.4670    0.0000 H   0  0  0  0  0  0  0  0  0  0  0  0
    2.0000   -1.7750    0.0000 H   0  0  0  0  0  0  0  0  0  0  0  0
    2.5369   -0.8450    0.0000 H   0  0  0  0  0  0  0  0  0  0  0  0
    3.0930   -4.4281    0.0000 H   0  0  0  0  0  0  0  0  0  0  0  0
    2.8660   -5.2750    0.0000 H   0  0  0  0  0  0  0  0  0  0  0  0
    3.7130   -5.5020    0.0000 H   0  0  0  0  0  0  0  0  0  0  0  0
  1 23  1  0  0  0  0
  1 25  1  0  0  0  0
  2  6  1  0  0  0  0
  2  7  1  0  0  0  0
  2  8  1  0  0  0  0
  2  9  2  0  0  0  0
  3 17  1  0  0  0  0
  3 18  1  0  0  0  0
 15  4  1  1  0  0  0
  4 32  1  0  0  0  0
 16  5  1  1  0  0  0
  5 33  1  0  0  0  0
  6 19  1  0  0  0  0
  7 35  1  0  0  0  0
  8 36  1  0  0  0  0
 17 10  1  6  0  0  0
 10 20  1  0  0  0  0
 10 21  1  0  0  0  0
 11 21  2  0  0  0  0
 11 22  1  0  0  0  0
 12 20  1  0  0  0  0
 12 24  2  0  0  0  0
 13 23  2  0  0  0  0
 13 24  1  0  0  0  0
 14 24  1  0  0  0  0
 14 37  1  0  0  0  0
 14 38  1  0  0  0  0
 15 16  1  0  0  0  0
 15 17  1  0  0  0  0
 15 26  1  0  0  0  0
 16 18  1  0  0  0  0
 16 27  1  0  0  0  0
 17 28  1  0  0  0  0
 18 19  1  6  0  0  0
 18 29  1  0  0  0  0
 19 30  1  0  0  0  0
 19 31  1  0  0  0  0
 20 22  2  0  0  0  0
 21 34  1  0  0  0  0
 22 23  1  0  0  0  0
 25 39  1  0  0  0  0
 25 40  1  0  0  0  0
 25 41  1  0  0  0  0
M  END
> <PUBCHEM_COMPOUND_CID>
21820757

> <PUBCHEM_COMPOUND_CANONICALIZED>
1

> <PUBCHEM_CACTVS_COMPLEXITY>
529

> <PUBCHEM_CACTVS_HBOND_ACCEPTOR>
12

> <PUBCHEM_CACTVS_HBOND_DONOR>
5

> <PUBCHEM_CACTVS_ROTATABLE_BOND>
5

> <PUBCHEM_CACTVS_SUBSKEYS>
AAADceBzuAJAAAAAAAAAAAAAAAAAAWJAAAAsAAAAAAAAAFgB+AAAHgQQCCAACBzh1waH8b9MFxigQQZhZICA0C1RGLABUDQoVBCDWAJgyEAeRAwPAALTACDwMAIAAAAAAAAAAAAAAAAAAAAAAAAAAAAAAA==

> <PUBCHEM_IUPAC_OPENEYE_NAME>
[(2R,3S,4R,5R)-5-(2-amino-6-methylsulfanyl-purin-9-yl)-3,4-dihydroxy-tetrahydrofuran-2-yl]methyl dihydrogen phosphate

> <PUBCHEM_IUPAC_CAS_NAME>
[(2R,3S,4R,5R)-5-[2-amino-6-(methylthio)-9-purinyl]-3,4-dihydroxy-2-oxolanyl]methyl dihydrogen phosphate

> <PUBCHEM_IUPAC_NAME>
[(2R,3S,4R,5R)-5-(2-amino-6-methylsulfanylpurin-9-yl)-3,4-dihydroxyoxolan-2-yl]methyl dihydrogen phosphate

> <PUBCHEM_IUPAC_SYSTEMATIC_NAME>
[(2R,3S,4R,5R)-5-(2-azanyl-6-methylsulfanyl-purin-9-yl)-3,4-bis(oxidanyl)oxolan-2-yl]methyl dihydrogen phosphate

> <PUBCHEM_IUPAC_TRADITIONAL_NAME>
[(2R,3S,4R,5R)-5-[2-amino-6-(methylthio)purin-9-yl]-3,4-dihydroxy-tetrahydrofuran-2-yl]methyl dihydrogen phosphate

> <PUBCHEM_IUPAC_INCHI>
InChI=1S/C11H16N5O7PS/c1-25-9-5-8(14-11(12)15-9)16(3-13-5)10-7(18)6(17)4(23-10)2-22-24(19,20)21/h3-4,6-7,10,17-18H,2H2,1H3,(H2,12,14,15)(H2,19,20,21)/t4-,6-,7-,10-/m1/s1

> <PUBCHEM_IUPAC_INCHIKEY>
QJRQZGPABIMRAZ-KQYNXXCUSA-N

> <PUBCHEM_XLOGP3>
-2.7

> <PUBCHEM_EXACT_MASS>
393.050806

> <PUBCHEM_MOLECULAR_FORMULA>
C11H16N5O7PS

> <PUBCHEM_MOLECULAR_WEIGHT>
393.312802

> <PUBCHEM_OPENEYE_CAN_SMILES>
CSC1=NC(=NC2=C1N=CN2C3C(C(C(O3)COP(=O)(O)O)O)O)N

> <PUBCHEM_OPENEYE_ISO_SMILES>
CSC1=NC(=NC2=C1N=CN2[C@H]3[C@@H]([C@@H]([C@H](O3)COP(=O)(O)O)O)O)N

> <PUBCHEM_CACTVS_TPSA>
211

> <PUBCHEM_MONOISOTOPIC_WEIGHT>
393.050806

> <PUBCHEM_TOTAL_CHARGE>
0

> <PUBCHEM_HEAVY_ATOM_COUNT>
25

> <PUBCHEM_ATOM_DEF_STEREO_COUNT>
4

> <PUBCHEM_ATOM_UDEF_STEREO_COUNT>
0

> <PUBCHEM_BOND_DEF_STEREO_COUNT>
0

> <PUBCHEM_BOND_UDEF_STEREO_COUNT>
0

> <PUBCHEM_ISOTOPIC_ATOM_COUNT>
0

> <PUBCHEM_COMPONENT_COUNT>
1

> <PUBCHEM_CACTVS_TAUTO_COUNT>
3

> <PUBCHEM_COORDINATE_TYPE>
1
5
255

> <PUBCHEM_BONDANNOTATIONS>
17  10  6
10  20  8
10  21  8
11  21  8
11  22  8
12  20  8
12  24  8
13  23  8
13  24  8
18  19  6
20  22  8
22  23  8
15  4  5
16  5  5

$$$$

