11779
  -OEChem-06261206062D

 18 19  0     0  0  0  0  0  0999 V2000
    4.9889    1.3829    0.0000 O   0  0  0  0  0  0  0  0  0  0  0  0
    4.9889   -2.1276    0.0000 O   0  0  0  0  0  0  0  0  0  0  0  0
    2.0000    2.1276    0.0000 O   0  5  0  0  0  0  0  0  0  0  0  0
    3.7320    2.1276    0.0000 O   0  0  0  0  0  0  0  0  0  0  0  0
    5.2619   -0.3724    0.0000 N   0  0  0  0  0  0  0  0  0  0  0  0
    2.8660    1.6276    0.0000 N   0  3  0  0  0  0  0  0  0  0  0  0
    3.7320    0.1276    0.0000 C   0  0  0  0  0  0  0  0  0  0  0  0
    3.7320   -0.8724    0.0000 C   0  0  0  0  0  0  0  0  0  0  0  0
    2.8660    0.6276    0.0000 C   0  0  0  0  0  0  0  0  0  0  0  0
    4.6783    0.4324    0.0000 C   0  0  0  0  0  0  0  0  0  0  0  0
    4.6783   -1.1771    0.0000 C   0  0  0  0  0  0  0  0  0  0  0  0
    2.8660   -1.3724    0.0000 C   0  0  0  0  0  0  0  0  0  0  0  0
    2.0000    0.1276    0.0000 C   0  0  0  0  0  0  0  0  0  0  0  0
    2.0000   -0.8724    0.0000 C   0  0  0  0  0  0  0  0  0  0  0  0
    2.8660   -1.9924    0.0000 H   0  0  0  0  0  0  0  0  0  0  0  0
    5.8819   -0.3724    0.0000 H   0  0  0  0  0  0  0  0  0  0  0  0
    1.4631    0.4376    0.0000 H   0  0  0  0  0  0  0  0  0  0  0  0
    1.4631   -1.1824    0.0000 H   0  0  0  0  0  0  0  0  0  0  0  0
  1 10  2  0  0  0  0
  2 11  2  0  0  0  0
  3  6  1  0  0  0  0
  4  6  2  0  0  0  0
  5 10  1  0  0  0  0
  5 11  1  0  0  0  0
  5 16  1  0  0  0  0
  6  9  1  0  0  0  0
  7  8  2  0  0  0  0
  7  9  1  0  0  0  0
  7 10  1  0  0  0  0
  8 11  1  0  0  0  0
  8 12  1  0  0  0  0
  9 13  2  0  0  0  0
 12 14  2  0  0  0  0
 12 15  1  0  0  0  0
 13 14  1  0  0  0  0
 13 17  1  0  0  0  0
 14 18  1  0  0  0  0
M  CHG  2   3  -1   6   1
M  END
> <PUBCHEM_COMPOUND_CID>
11779

> <PUBCHEM_COMPOUND_CANONICALIZED>
1

> <PUBCHEM_CACTVS_COMPLEXITY>
309

> <PUBCHEM_CACTVS_HBOND_ACCEPTOR>
4

> <PUBCHEM_CACTVS_HBOND_DONOR>
1

> <PUBCHEM_CACTVS_ROTATABLE_BOND>
0

> <PUBCHEM_CACTVS_SUBSKEYS>
AAADcYBzOAAAAAAAAAAAAAAAAAAAAWAAAAAwAAAAAAAAAFgBAAAAHgAUAAAADAiBmAAwwILQQACJAiVSUwCCAAAkAgAoiAEAZMoIIDqA1ZGEIYhghCCIyccdiICOgAAAQAASAAAAAACAACQAAAAAAAAAAA==

> <PUBCHEM_IUPAC_OPENEYE_NAME>
4-nitroisoindoline-1,3-dione

> <PUBCHEM_IUPAC_CAS_NAME>
4-nitroisoindole-1,3-dione

> <PUBCHEM_IUPAC_NAME>
4-nitroisoindole-1,3-dione

> <PUBCHEM_IUPAC_SYSTEMATIC_NAME>
4-nitroisoindole-1,3-dione

> <PUBCHEM_IUPAC_TRADITIONAL_NAME>
4-nitroisoindoline-1,3-quinone

> <PUBCHEM_IUPAC_INCHI>
InChI=1S/C8H4N2O4/c11-7-4-2-1-3-5(10(13)14)6(4)8(12)9-7/h1-3H,(H,9,11,12)

> <PUBCHEM_IUPAC_INCHIKEY>
BONIIQYTWOPUQI-UHFFFAOYSA-N

> <PUBCHEM_XLOGP3_AA>
0.5

> <PUBCHEM_EXACT_MASS>
192.017107

> <PUBCHEM_MOLECULAR_FORMULA>
C8H4N2O4

> <PUBCHEM_MOLECULAR_WEIGHT>
192.12836

> <PUBCHEM_OPENEYE_CAN_SMILES>
C1=CC2=C(C(=C1)[N+](=O)[O-])C(=O)NC2=O

> <PUBCHEM_OPENEYE_ISO_SMILES>
C1=CC2=C(C(=C1)[N+](=O)[O-])C(=O)NC2=O

> <PUBCHEM_CACTVS_TPSA>
92

> <PUBCHEM_MONOISOTOPIC_WEIGHT>
192.017107

> <PUBCHEM_TOTAL_CHARGE>
0

> <PUBCHEM_HEAVY_ATOM_COUNT>
14

> <PUBCHEM_ATOM_DEF_STEREO_COUNT>
0

> <PUBCHEM_ATOM_UDEF_STEREO_COUNT>
0

> <PUBCHEM_BOND_DEF_STEREO_COUNT>
0

> <PUBCHEM_BOND_UDEF_STEREO_COUNT>
0

> <PUBCHEM_ISOTOPIC_ATOM_COUNT>
0

> <PUBCHEM_COMPONENT_COUNT>
1

> <PUBCHEM_CACTVS_TAUTO_COUNT>
3

> <PUBCHEM_COORDINATE_TYPE>
1
5
255

> <PUBCHEM_BONDANNOTATIONS>
12  14  8
13  14  8
7  8  8
7  9  8
8  12  8
9  13  8

$$$$

