47205796
  -OEChem-06241223003D

 40 41  0     0  0  0  0  0  0999 V2000
   -4.0745    1.7596    0.7634 S   0  0  0  0  0  0  0  0  0  0  0  0
    2.3336    2.0623   -0.4260 O   0  0  0  0  0  0  0  0  0  0  0  0
    0.9796   -1.3255   -0.7110 O   0  0  0  0  0  0  0  0  0  0  0  0
   -0.7540   -3.7165   -0.1846 O   0  0  0  0  0  0  0  0  0  0  0  0
    2.1627    0.2701    1.0529 N   0  0  0  0  0  0  0  0  0  0  0  0
   -1.1859   -0.8770   -0.0102 N   0  0  0  0  0  0  0  0  0  0  0  0
    4.3300    1.0964    0.3585 C   0  0  0  0  0  0  0  0  0  0  0  0
    5.1195    0.9377   -0.9078 C   0  0  0  0  0  0  0  0  0  0  0  0
    4.9861   -0.2157    0.0429 C   0  0  0  0  0  0  0  0  0  0  0  0
    2.8429    1.2005    0.2808 C   0  0  0  0  0  0  0  0  0  0  0  0
    0.7315    0.1958    1.1248 C   0  0  0  0  0  0  0  0  0  0  0  0
    0.2054   -0.7389    0.0498 C   0  0  0  0  0  0  0  0  0  0  0  0
   -1.8438   -1.7351   -0.9877 C   0  0  0  0  0  0  0  0  0  0  0  0
   -2.0822   -0.1711    0.9023 C   0  0  0  0  0  0  0  0  0  0  0  0
   -2.0271   -3.1455   -0.4575 C   0  0  0  0  0  0  0  0  0  0  0  0
   -2.5328    1.1462    0.3403 C   0  0  0  0  0  0  0  0  0  0  0  0
   -1.8582    1.9891   -0.5154 C   0  0  0  0  0  0  0  0  0  0  0  0
   -2.6170    3.1539   -0.8275 C   0  0  0  0  0  0  0  0  0  0  0  0
   -3.8426    3.1569   -0.1986 C   0  0  0  0  0  0  0  0  0  0  0  0
   -0.8732   -5.0432    0.3105 C   0  0  0  0  0  0  0  0  0  0  0  0
    4.7834    1.7049    1.1346 H   0  0  0  0  0  0  0  0  0  0  0  0
    4.5886    0.8753   -1.8499 H   0  0  0  0  0  0  0  0  0  0  0  0
    6.0813    1.4322   -0.9685 H   0  0  0  0  0  0  0  0  0  0  0  0
    5.8575   -0.4952    0.6224 H   0  0  0  0  0  0  0  0  0  0  0  0
    4.3743   -1.0520   -0.2731 H   0  0  0  0  0  0  0  0  0  0  0  0
    2.6975   -0.4013    1.5964 H   0  0  0  0  0  0  0  0  0  0  0  0
    0.3223    1.2010    1.0204 H   0  0  0  0  0  0  0  0  0  0  0  0
    0.4938   -0.2105    2.1119 H   0  0  0  0  0  0  0  0  0  0  0  0
   -1.2094   -1.7704   -1.8811 H   0  0  0  0  0  0  0  0  0  0  0  0
   -2.8041   -1.2959   -1.2783 H   0  0  0  0  0  0  0  0  0  0  0  0
   -1.6043    0.0030    1.8699 H   0  0  0  0  0  0  0  0  0  0  0  0
   -2.9405   -0.8232    1.1067 H   0  0  0  0  0  0  0  0  0  0  0  0
   -2.6278   -3.1378    0.4592 H   0  0  0  0  0  0  0  0  0  0  0  0
   -2.5440   -3.7517   -1.2102 H   0  0  0  0  0  0  0  0  0  0  0  0
   -0.8731    1.7962   -0.9188 H   0  0  0  0  0  0  0  0  0  0  0  0
   -2.2820    3.9481   -1.4819 H   0  0  0  0  0  0  0  0  0  0  0  0
   -4.6131    3.9125   -0.2588 H   0  0  0  0  0  0  0  0  0  0  0  0
   -1.4342   -5.0531    1.2501 H   0  0  0  0  0  0  0  0  0  0  0  0
   -1.3620   -5.6861   -0.4279 H   0  0  0  0  0  0  0  0  0  0  0  0
    0.1312   -5.4309    0.5002 H   0  0  0  0  0  0  0  0  0  0  0  0
  1 16  1  0  0  0  0
  1 19  1  0  0  0  0
  2 10  2  0  0  0  0
  3 12  2  0  0  0  0
  4 15  1  0  0  0  0
  4 20  1  0  0  0  0
  5 10  1  0  0  0  0
  5 11  1  0  0  0  0
  5 26  1  0  0  0  0
  6 12  1  0  0  0  0
  6 13  1  0  0  0  0
  6 14  1  0  0  0  0
  7  8  1  0  0  0  0
  7  9  1  0  0  0  0
  7 10  1  0  0  0  0
  7 21  1  0  0  0  0
  8  9  1  0  0  0  0
  8 22  1  0  0  0  0
  8 23  1  0  0  0  0
  9 24  1  0  0  0  0
  9 25  1  0  0  0  0
 11 12  1  0  0  0  0
 11 27  1  0  0  0  0
 11 28  1  0  0  0  0
 13 15  1  0  0  0  0
 13 29  1  0  0  0  0
 13 30  1  0  0  0  0
 14 16  1  0  0  0  0
 14 31  1  0  0  0  0
 14 32  1  0  0  0  0
 15 33  1  0  0  0  0
 15 34  1  0  0  0  0
 16 17  2  0  0  0  0
 17 18  1  0  0  0  0
 17 35  1  0  0  0  0
 18 19  2  0  0  0  0
 18 36  1  0  0  0  0
 19 37  1  0  0  0  0
 20 38  1  0  0  0  0
 20 39  1  0  0  0  0
 20 40  1  0  0  0  0
M  END
> <PUBCHEM_COMPOUND_CID>
47205796

> <PUBCHEM_CONFORMER_RMSD>
1

> <PUBCHEM_CONFORMER_DIVERSEORDER>
1
86
51
76
38
100
123
10
43
116
48
136
88
61
84
92
90
118
124
6
129
35
99
59
14
44
89
22
120
87
110
102
132
125
57
15
8
133
135
58
64
36
96
62
60
128
119
122
131
33
72
47
65
109
114
26
130
45
46
81
113
67
101
34
24
19
77
54
98
97
63
93
73
71
127
126
91
7
137
108
30
79
29
2
74
53
18
115
42
27
52
23
94
103
32
21
12
3
4
105
104
134
9
107
25
121
66
40
70
41
69
80
20
106
50
28
37
78
111
117
85
55
5
75
82
16
31
11
68
17
112
13
83
39
56
49
95

> <PUBCHEM_MMFF94_PARTIAL_CHARGES>
29
1 -0.08
10 0.63
11 0.36
12 0.57
13 0.3
14 0.48
15 0.28
16 -0.14
17 -0.15
18 -0.15
19 -0.11
2 -0.57
20 0.28
21 0.1
22 0.1
23 0.1
24 0.1
25 0.1
26 0.37
3 -0.57
35 0.15
36 0.15
37 0.15
4 -0.56
5 -0.73
6 -0.66
7 -0.1
8 -0.2
9 -0.2

> <PUBCHEM_EFFECTIVE_ROTOR_COUNT>
10.6

> <PUBCHEM_PHARMACOPHORE_FEATURES>
5
1 2 acceptor
1 3 acceptor
1 4 acceptor
1 5 donor
5 1 16 17 18 19 rings

> <PUBCHEM_HEAVY_ATOM_COUNT>
20

> <PUBCHEM_ATOM_DEF_STEREO_COUNT>
0

> <PUBCHEM_ATOM_UDEF_STEREO_COUNT>
0

> <PUBCHEM_BOND_DEF_STEREO_COUNT>
0

> <PUBCHEM_BOND_UDEF_STEREO_COUNT>
0

> <PUBCHEM_ISOTOPIC_ATOM_COUNT>
0

> <PUBCHEM_COMPONENT_COUNT>
1

> <PUBCHEM_CACTVS_TAUTO_COUNT>
2

> <PUBCHEM_CONFORMER_ID>
02D04DA400000001

> <PUBCHEM_MMFF94_ENERGY>
37.5777

> <PUBCHEM_FEATURE_SELFOVERLAP>
25.373

> <PUBCHEM_SHAPE_FINGERPRINT>
10165383 225 18261382386767435289
107951 10 18334851744670570526
11014199 57 17908137681811341748
11045515 52 17696482780001595119
12730499 353 18121209051235848505
12788726 201 18267883695632185499
13134695 92 17042332104001272759
138480 1 17257373475353462815
14251751 93 18411702080124374168
14251757 5 18336533937917081116
14508225 48 17902523592588307431
15042514 8 18194957453333191747
15230672 131 18268983354307110702
15664445 248 16824721684484844748
15842332 3 17916044420477505250
167882 2 17978513357866021267
17539 30 18117852005601447703
18785283 64 17907858758029634259
20101258 96 17908128889802316578
20600515 1 17830439597502903319
20645477 56 18334851714742864600
21120745 212 17907280070994176573
21524375 3 18342737450876473305
23557571 272 18114734924559698940
23558518 356 18127411146982438528
23559900 14 17476364272116737121
3057174 1 18118416265530249423
3091708 16 9124287910341209595
3729539 64 17758373542421633670
458136 41 18119526781064892169
532947 4 17975129052607527414
559249 180 18334580174716709742
633830 44 17489582360366417480
7164475 11 18122907521453369492
81228 2 17973466320664455851
9981440 41 18267868457314605257

> <PUBCHEM_SHAPE_MULTIPOLES>
387.87
8.66
5.16
1
10.25
7.85
-0.05
-8.47
0.35
-4.93
0.76
-0.07
-0.12
-0.11

> <PUBCHEM_SHAPE_SELFOVERLAP>
771.453

> <PUBCHEM_SHAPE_VOLUME>
231.4

> <PUBCHEM_COORDINATE_TYPE>
2
5
10

$$$$

