5281679
  -OEChem-07051212583D

 35 37  0     0  0  0  0  0  0999 V2000
   -0.0795   -0.8389   -0.1339 O   0  0  0  0  0  0  0  0  0  0  0  0
   -4.1118    1.8206    0.1524 O   0  0  0  0  0  0  0  0  0  0  0  0
    1.0293    2.6759   -0.0669 O   0  0  0  0  0  0  0  0  0  0  0  0
   -4.3234   -2.9420   -0.0242 O   0  0  0  0  0  0  0  0  0  0  0  0
   -1.7411    2.8757    0.0776 O   0  0  0  0  0  0  0  0  0  0  0  0
    4.9685   -0.6059    2.0485 O   0  0  0  0  0  0  0  0  0  0  0  0
    6.2106   -0.8098   -0.4288 O   0  0  0  0  0  0  0  0  0  0  0  0
   -2.0708    0.5415    0.0100 C   0  0  0  0  0  0  0  0  0  0  0  0
   -1.4416   -0.6991   -0.0662 C   0  0  0  0  0  0  0  0  0  0  0  0
   -3.4640    0.6232    0.0756 C   0  0  0  0  0  0  0  0  0  0  0  0
    0.7045    0.3038   -0.1137 C   0  0  0  0  0  0  0  0  0  0  0  0
   -4.2232   -0.5475    0.0645 C   0  0  0  0  0  0  0  0  0  0  0  0
   -1.2449    1.7587    0.0180 C   0  0  0  0  0  0  0  0  0  0  0  0
    0.2227    1.5585   -0.0519 C   0  0  0  0  0  0  0  0  0  0  0  0
   -2.2028   -1.8681   -0.0779 C   0  0  0  0  0  0  0  0  0  0  0  0
    2.1470    0.0126   -0.1928 C   0  0  0  0  0  0  0  0  0  0  0  0
   -3.5941   -1.7908   -0.0122 C   0  0  0  0  0  0  0  0  0  0  0  0
   -5.7158   -0.4757    0.1356 C   0  0  0  0  0  0  0  0  0  0  0  0
    2.8890   -0.1624    0.9756 C   0  0  0  0  0  0  0  0  0  0  0  0
    2.7716   -0.0885   -1.4363 C   0  0  0  0  0  0  0  0  0  0  0  0
    4.2544   -0.4384    0.9008 C   0  0  0  0  0  0  0  0  0  0  0  0
    4.1369   -0.3642   -1.5112 C   0  0  0  0  0  0  0  0  0  0  0  0
    4.8783   -0.5393   -0.3426 C   0  0  0  0  0  0  0  0  0  0  0  0
   -1.7144   -2.8376   -0.1377 H   0  0  0  0  0  0  0  0  0  0  0  0
   -6.1621   -0.9264   -0.7577 H   0  0  0  0  0  0  0  0  0  0  0  0
   -6.0804   -0.9957    1.0282 H   0  0  0  0  0  0  0  0  0  0  0  0
   -6.0982    0.5478    0.1928 H   0  0  0  0  0  0  0  0  0  0  0  0
    2.4103   -0.0855    1.9495 H   0  0  0  0  0  0  0  0  0  0  0  0
    2.2069    0.0449   -2.3559 H   0  0  0  0  0  0  0  0  0  0  0  0
    4.6170   -0.4419   -2.4829 H   0  0  0  0  0  0  0  0  0  0  0  0
   -3.4804    2.5554    0.1612 H   0  0  0  0  0  0  0  0  0  0  0  0
    1.9612    2.4091   -0.1178 H   0  0  0  0  0  0  0  0  0  0  0  0
   -5.2741   -2.7591    0.0254 H   0  0  0  0  0  0  0  0  0  0  0  0
    5.9093   -0.4400    1.8758 H   0  0  0  0  0  0  0  0  0  0  0  0
    6.5107   -1.2405    0.3878 H   0  0  0  0  0  0  0  0  0  0  0  0
  1  9  1  0  0  0  0
  1 11  1  0  0  0  0
  2 10  1  0  0  0  0
  2 31  1  0  0  0  0
  3 14  1  0  0  0  0
  3 32  1  0  0  0  0
  4 17  1  0  0  0  0
  4 33  1  0  0  0  0
  5 13  2  0  0  0  0
  6 21  1  0  0  0  0
  6 34  1  0  0  0  0
  7 23  1  0  0  0  0
  7 35  1  0  0  0  0
  8  9  2  0  0  0  0
  8 10  1  0  0  0  0
  8 13  1  0  0  0  0
  9 15  1  0  0  0  0
 10 12  2  0  0  0  0
 11 14  2  0  0  0  0
 11 16  1  0  0  0  0
 12 17  1  0  0  0  0
 12 18  1  0  0  0  0
 13 14  1  0  0  0  0
 15 17  2  0  0  0  0
 15 24  1  0  0  0  0
 16 19  2  0  0  0  0
 16 20  1  0  0  0  0
 18 25  1  0  0  0  0
 18 26  1  0  0  0  0
 18 27  1  0  0  0  0
 19 21  1  0  0  0  0
 19 28  1  0  0  0  0
 20 22  2  0  0  0  0
 20 29  1  0  0  0  0
 21 23  2  0  0  0  0
 22 23  1  0  0  0  0
 22 30  1  0  0  0  0
M  END
> <PUBCHEM_COMPOUND_CID>
5281679

> <PUBCHEM_CONFORMER_RMSD>
0.6

> <PUBCHEM_CONFORMER_DIVERSEORDER>
2
4
1
3

> <PUBCHEM_MMFF94_PARTIAL_CHARGES>
32
1 -0.16
10 0.08
11 0.05
12 -0.14
13 0.47
14 0.09
15 -0.15
16 0.03
17 0.08
18 0.14
19 -0.15
2 -0.53
20 -0.15
21 0.08
22 -0.15
23 0.08
24 0.15
28 0.15
29 0.15
3 -0.53
30 0.15
31 0.45
32 0.45
33 0.45
34 0.45
35 0.45
4 -0.53
5 -0.57
6 -0.53
7 -0.53
8 0.09
9 0.08

> <PUBCHEM_EFFECTIVE_ROTOR_COUNT>
1

> <PUBCHEM_PHARMACOPHORE_FEATURES>
10
1 1 acceptor
1 2 donor
1 3 donor
1 4 donor
1 5 acceptor
1 6 donor
1 7 donor
6 1 8 9 11 13 14 rings
6 16 19 20 21 22 23 rings
6 8 9 10 12 15 17 rings

> <PUBCHEM_HEAVY_ATOM_COUNT>
23

> <PUBCHEM_ATOM_DEF_STEREO_COUNT>
0

> <PUBCHEM_ATOM_UDEF_STEREO_COUNT>
0

> <PUBCHEM_BOND_DEF_STEREO_COUNT>
0

> <PUBCHEM_BOND_UDEF_STEREO_COUNT>
0

> <PUBCHEM_ISOTOPIC_ATOM_COUNT>
0

> <PUBCHEM_COMPONENT_COUNT>
1

> <PUBCHEM_CACTVS_TAUTO_COUNT>
435

> <PUBCHEM_CONFORMER_ID>
0050978F00000002

> <PUBCHEM_MMFF94_ENERGY>
74.0979

> <PUBCHEM_FEATURE_SELFOVERLAP>
50.776

> <PUBCHEM_SHAPE_FINGERPRINT>
10 15 17822869615265654154
10062212 137 18201718453274061475
10319926 262 18190197839716942762
10411042 1 18265893550169765135
11370993 144 16733252555923637795
12107183 9 17550957326814052162
12236239 1 17846494868354974964
12553582 1 18412547600165697443
12633257 1 18336533950833170203
12788726 201 18271806873325927105
13140716 1 18336544915779513361
13288520 33 18410007736995546983
13675066 3 17749109971761784150
13862211 1 18410294696962246015
14386348 63 17822007631744266214
15196674 1 18337952286014599749
16752209 62 18343024414641676259
17138139 8 17702670925911615106
17349148 13 17775284984649448594
17492 89 17976539408504520991
17804303 29 18408040710593495201
1813 80 17632571682235766998
18222031 100 18334579001351530318
18681886 176 18413102841491306958
19141452 34 17676769786446390039
200 152 16773798112592314940
20028762 73 18042967576075765695
20374829 77 18410291385294437087
21033648 29 17095535022973440594
21065201 7 18262798587882205598
21267235 1 18411973642596205403
22182313 1 17896028996135104703
2297311 6 18334848437861821500
23366157 5 17985828116594544748
23402539 116 18410013251411775950
23536379 177 16272211903249056823
23557571 272 18115019818372542756
23559900 14 18336550417099973344
2838139 119 14563362004170279803
3004659 81 18201998811538195942
335352 9 18410573973305721301
3411729 13 18119535341125137048
4340502 62 14418127397082363741
474 4 17130409204789185604
5104073 3 18191579762555650211
559249 180 18200879585852405395
573450 72 18272374191276827730
602551 16 18408325492974533826
8863177 126 17699835238722207523
9709674 26 18123748647943479099

> <PUBCHEM_SHAPE_MULTIPOLES>
432.24
12.11
2.27
1.04
5.21
0.77
0.12
-5.32
0.77
-2.84
0.01
1.8
-0.18
-0.18

> <PUBCHEM_SHAPE_SELFOVERLAP>
967.637

> <PUBCHEM_SHAPE_VOLUME>
228.8

> <PUBCHEM_COORDINATE_TYPE>
2
5
10

$$$$

