149604
  -OEChem-07051213113D

 28 31  0     0  0  0  0  0  0999 V2000
    3.5436   -2.1023    0.0010 O   0  0  0  0  0  0  0  0  0  0  0  0
   -3.5434   -2.1025    0.0004 O   0  0  0  0  0  0  0  0  0  0  0  0
    0.7085    0.2628   -0.0001 C   0  0  0  0  0  0  0  0  0  0  0  0
   -0.7085    0.2628   -0.0001 C   0  0  0  0  0  0  0  0  0  0  0  0
    1.4154   -0.9623   -0.0002 C   0  0  0  0  0  0  0  0  0  0  0  0
   -1.4154   -0.9623   -0.0002 C   0  0  0  0  0  0  0  0  0  0  0  0
    1.4154    1.4879    0.0000 C   0  0  0  0  0  0  0  0  0  0  0  0
   -1.4154    1.4879    0.0001 C   0  0  0  0  0  0  0  0  0  0  0  0
    0.6982   -2.1662   -0.0003 C   0  0  0  0  0  0  0  0  0  0  0  0
   -0.6981   -2.1662   -0.0003 C   0  0  0  0  0  0  0  0  0  0  0  0
    0.6981    2.6918    0.0001 C   0  0  0  0  0  0  0  0  0  0  0  0
   -0.6982    2.6918    0.0001 C   0  0  0  0  0  0  0  0  0  0  0  0
    2.8178   -0.9455   -0.0002 C   0  0  0  0  0  0  0  0  0  0  0  0
   -2.8179   -0.9456   -0.0002 C   0  0  0  0  0  0  0  0  0  0  0  0
    2.8178    1.4711   -0.0001 C   0  0  0  0  0  0  0  0  0  0  0  0
   -2.8178    1.4711    0.0001 C   0  0  0  0  0  0  0  0  0  0  0  0
    3.5126    0.2628   -0.0002 C   0  0  0  0  0  0  0  0  0  0  0  0
   -3.5126    0.2628    0.0000 C   0  0  0  0  0  0  0  0  0  0  0  0
    1.2108   -3.1258   -0.0040 H   0  0  0  0  0  0  0  0  0  0  0  0
   -1.1864   -3.1364   -0.0167 H   0  0  0  0  0  0  0  0  0  0  0  0
    1.2204    3.6464    0.0002 H   0  0  0  0  0  0  0  0  0  0  0  0
   -1.2204    3.6464    0.0002 H   0  0  0  0  0  0  0  0  0  0  0  0
    3.3825    2.4011    0.0000 H   0  0  0  0  0  0  0  0  0  0  0  0
   -3.3827    2.4009    0.0003 H   0  0  0  0  0  0  0  0  0  0  0  0
    4.5995    0.2801    0.0001 H   0  0  0  0  0  0  0  0  0  0  0  0
   -4.5995    0.2708    0.0002 H   0  0  0  0  0  0  0  0  0  0  0  0
    4.4919   -1.8869    0.0009 H   0  0  0  0  0  0  0  0  0  0  0  0
   -3.0436   -2.8151    0.4280 H   0  0  0  0  0  0  0  0  0  0  0  0
  1 13  1  0  0  0  0
  1 27  1  0  0  0  0
  2 14  1  0  0  0  0
  2 28  1  0  0  0  0
  3  4  1  0  0  0  0
  3  5  1  0  0  0  0
  3  7  2  0  0  0  0
  4  6  1  0  0  0  0
  4  8  2  0  0  0  0
  5  9  1  0  0  0  0
  5 13  2  0  0  0  0
  6 10  1  0  0  0  0
  6 14  2  0  0  0  0
  7 11  1  0  0  0  0
  7 15  1  0  0  0  0
  8 12  1  0  0  0  0
  8 16  1  0  0  0  0
  9 10  2  0  0  0  0
  9 19  1  0  0  0  0
 10 20  1  0  0  0  0
 11 12  2  0  0  0  0
 11 21  1  0  0  0  0
 12 22  1  0  0  0  0
 13 17  1  0  0  0  0
 14 18  1  0  0  0  0
 15 17  2  0  0  0  0
 15 23  1  0  0  0  0
 16 18  2  0  0  0  0
 16 24  1  0  0  0  0
 17 25  1  0  0  0  0
 18 26  1  0  0  0  0
M  END
> <PUBCHEM_COMPOUND_CID>
149604

> <PUBCHEM_CONFORMER_RMSD>
0.4

> <PUBCHEM_CONFORMER_DIVERSEORDER>
1

> <PUBCHEM_MMFF94_PARTIAL_CHARGES>
22
1 -0.53
10 -0.15
11 -0.15
12 -0.15
13 0.08
14 0.08
15 -0.15
16 -0.15
17 -0.15
18 -0.15
19 0.15
2 -0.53
20 0.15
21 0.15
22 0.15
23 0.15
24 0.15
25 0.15
26 0.15
27 0.45
28 0.45
9 -0.15

> <PUBCHEM_EFFECTIVE_ROTOR_COUNT>
0

> <PUBCHEM_PHARMACOPHORE_FEATURES>
6
1 1 donor
1 2 donor
6 3 4 5 6 9 10 rings
6 3 4 7 8 11 12 rings
6 3 5 7 13 15 17 rings
6 4 6 8 14 16 18 rings

> <PUBCHEM_HEAVY_ATOM_COUNT>
18

> <PUBCHEM_ATOM_DEF_STEREO_COUNT>
0

> <PUBCHEM_ATOM_UDEF_STEREO_COUNT>
0

> <PUBCHEM_BOND_DEF_STEREO_COUNT>
0

> <PUBCHEM_BOND_UDEF_STEREO_COUNT>
0

> <PUBCHEM_ISOTOPIC_ATOM_COUNT>
0

> <PUBCHEM_COMPONENT_COUNT>
1

> <PUBCHEM_CACTVS_TAUTO_COUNT>
5

> <PUBCHEM_CONFORMER_ID>
0002486400000001

> <PUBCHEM_MMFF94_ENERGY>
64.0819

> <PUBCHEM_FEATURE_SELFOVERLAP>
30.578

> <PUBCHEM_SHAPE_FINGERPRINT>
10411042 1 18410856559640562595
10863032 1 18408041814167812737
10967382 1 18194402182311368292
11132069 177 18337960081253492208
11578080 2 17169858612404240545
13132413 78 18336826403092571092
13140716 1 18410011082447977729
14790565 3 18338778074881927780
15196674 1 18410856563934776357
15442244 35 18338517551044960490
15536298 74 18334295370659796600
16945 1 18410575088958221605
17804303 29 18264485268625671014
193761 8 18410855468718278276
19591789 44 18410571786128695782
20510252 161 18334012800287415624
20905425 154 18408037412079451252
21267235 1 18410846664035490374
21501502 16 18410853265405226244
221490 88 18341325587530477979
2334 1 18410575054603602093
23402539 116 18335149686831312582
23463225 33 18412262848054982964
23559900 14 18263368148064400588
2748010 2 18410577283691706788
335352 9 18194683906417268573
34934 24 18410583885051263304
5104073 3 18410293618276323330
54173680 148 18267021850356430890
7364860 26 18119811304988432280
8809292 202 18270958050238513795
9709674 26 18338794524848861846

> <PUBCHEM_SHAPE_MULTIPOLES>
358.69
5.5
3.06
0.61
0
0.42
0
-1.46
0
0
0
0
0.02
0

> <PUBCHEM_SHAPE_SELFOVERLAP>
840.137

> <PUBCHEM_SHAPE_VOLUME>
182.9

> <PUBCHEM_COORDINATE_TYPE>
2
5
10

$$$$

