47205095
  -OEChem-06241222582D

 31 32  0     0  0  0  0  0  0999 V2000
    3.7320    0.7953    0.0000 O   0  0  0  0  0  0  0  0  0  0  0  0
    2.8660   -3.7047    0.0000 O   0  5  0  0  0  0  0  0  0  0  0  0
    2.0000   -2.2047    0.0000 O   0  0  0  0  0  0  0  0  0  0  0  0
    5.4641    0.7953    0.0000 N   0  0  0  0  0  0  0  0  0  0  0  0
    6.4347    3.2898    0.0000 N   0  0  0  0  0  0  0  0  0  0  0  0
    2.8660   -2.7047    0.0000 N   0  3  0  0  0  0  0  0  0  0  0  0
    7.4128    3.4977    0.0000 N   0  0  0  0  0  0  0  0  0  0  0  0
    4.5981   -0.7047    0.0000 C   0  0  0  0  0  0  0  0  0  0  0  0
    3.7320   -1.2047    0.0000 C   0  0  0  0  0  0  0  0  0  0  0  0
    5.4641    1.7953    0.0000 C   0  0  0  0  0  0  0  0  0  0  0  0
    3.7320   -2.2047    0.0000 C   0  0  0  0  0  0  0  0  0  0  0  0
    4.5981    0.2953    0.0000 C   0  0  0  0  0  0  0  0  0  0  0  0
    6.3301    2.2953    0.0000 C   0  0  0  0  0  0  0  0  0  0  0  0
    5.4641   -1.2047    0.0000 C   0  0  0  0  0  0  0  0  0  0  0  0
    2.8660   -0.7047    0.0000 C   0  0  0  0  0  0  0  0  0  0  0  0
    4.5981   -2.7047    0.0000 C   0  0  0  0  0  0  0  0  0  0  0  0
    5.4641   -2.2047    0.0000 C   0  0  0  0  0  0  0  0  0  0  0  0
    7.2437    1.8886    0.0000 C   0  0  0  0  0  0  0  0  0  0  0  0
    7.9128    2.6317    0.0000 C   0  0  0  0  0  0  0  0  0  0  0  0
    5.2520    2.3779    0.0000 H   0  0  0  0  0  0  0  0  0  0  0  0
    4.8535    1.6876    0.0000 H   0  0  0  0  0  0  0  0  0  0  0  0
    6.0010    0.4853    0.0000 H   0  0  0  0  0  0  0  0  0  0  0  0
    6.0010   -0.8947    0.0000 H   0  0  0  0  0  0  0  0  0  0  0  0
    3.1760   -0.1678    0.0000 H   0  0  0  0  0  0  0  0  0  0  0  0
    2.3291   -0.3947    0.0000 H   0  0  0  0  0  0  0  0  0  0  0  0
    2.5560   -1.2416    0.0000 H   0  0  0  0  0  0  0  0  0  0  0  0
    4.5981   -3.3247    0.0000 H   0  0  0  0  0  0  0  0  0  0  0  0
    6.0010   -2.5147    0.0000 H   0  0  0  0  0  0  0  0  0  0  0  0
    7.3726    1.2821    0.0000 H   0  0  0  0  0  0  0  0  0  0  0  0
    5.9739    3.7047    0.0000 H   0  0  0  0  0  0  0  0  0  0  0  0
    8.5294    2.5669    0.0000 H   0  0  0  0  0  0  0  0  0  0  0  0
  1 12  2  0  0  0  0
  2  6  1  0  0  0  0
  3  6  2  0  0  0  0
  4 10  1  0  0  0  0
  4 12  1  0  0  0  0
  4 22  1  0  0  0  0
  5  7  1  0  0  0  0
  5 13  1  0  0  0  0
  5 30  1  0  0  0  0
  6 11  1  0  0  0  0
  7 19  2  0  0  0  0
  8  9  2  0  0  0  0
  8 12  1  0  0  0  0
  8 14  1  0  0  0  0
  9 11  1  0  0  0  0
  9 15  1  0  0  0  0
 10 13  1  0  0  0  0
 10 20  1  0  0  0  0
 10 21  1  0  0  0  0
 11 16  2  0  0  0  0
 13 18  2  0  0  0  0
 14 17  2  0  0  0  0
 14 23  1  0  0  0  0
 15 24  1  0  0  0  0
 15 25  1  0  0  0  0
 15 26  1  0  0  0  0
 16 17  1  0  0  0  0
 16 27  1  0  0  0  0
 17 28  1  0  0  0  0
 18 19  1  0  0  0  0
 18 29  1  0  0  0  0
 19 31  1  0  0  0  0
M  CHG  2   2  -1   6   1
M  END
> <PUBCHEM_COMPOUND_CID>
47205095

> <PUBCHEM_COMPOUND_CANONICALIZED>
1

> <PUBCHEM_CACTVS_COMPLEXITY>
344

> <PUBCHEM_CACTVS_HBOND_ACCEPTOR>
4

> <PUBCHEM_CACTVS_HBOND_DONOR>
2

> <PUBCHEM_CACTVS_ROTATABLE_BOND>
3

> <PUBCHEM_CACTVS_SUBSKEYS>
AAADccBzsAAAAAAAAAAAAAAAAAAAAWAAAAAwAAAAAAAAAAABwAAAHgAcAAAADAjBngQ+wJLzQACrAzV3UwCSBAAkggA4uaE4ZNoIYLKA1dGUpQhgngCIyYcciICOgAAAQAASAAAAAACAACQAAAAAAAAAAA==

> <PUBCHEM_IUPAC_OPENEYE_NAME>
2-methyl-3-nitro-N-(1H-pyrazol-5-ylmethyl)benzamide

> <PUBCHEM_IUPAC_CAS_NAME>
2-methyl-3-nitro-N-(1H-pyrazol-5-ylmethyl)benzamide

> <PUBCHEM_IUPAC_NAME>
2-methyl-3-nitro-N-(1H-pyrazol-5-ylmethyl)benzamide

> <PUBCHEM_IUPAC_SYSTEMATIC_NAME>
2-methyl-3-nitro-N-(1H-pyrazol-5-ylmethyl)benzamide

> <PUBCHEM_IUPAC_TRADITIONAL_NAME>
2-methyl-3-nitro-N-(1H-pyrazol-5-ylmethyl)benzamide

> <PUBCHEM_IUPAC_INCHI>
InChI=1S/C12H12N4O3/c1-8-10(3-2-4-11(8)16(18)19)12(17)13-7-9-5-6-14-15-9/h2-6H,7H2,1H3,(H,13,17)(H,14,15)

> <PUBCHEM_IUPAC_INCHIKEY>
JINHAGUZMQJXAZ-UHFFFAOYSA-N

> <PUBCHEM_XLOGP3_AA>
1.2

> <PUBCHEM_EXACT_MASS>
260.09094

> <PUBCHEM_MOLECULAR_FORMULA>
C12H12N4O3

> <PUBCHEM_MOLECULAR_WEIGHT>
260.24868

> <PUBCHEM_OPENEYE_CAN_SMILES>
CC1=C(C=CC=C1[N+](=O)[O-])C(=O)NCC2=CC=NN2

> <PUBCHEM_OPENEYE_ISO_SMILES>
CC1=C(C=CC=C1[N+](=O)[O-])C(=O)NCC2=CC=NN2

> <PUBCHEM_CACTVS_TPSA>
104

> <PUBCHEM_MONOISOTOPIC_WEIGHT>
260.09094

> <PUBCHEM_TOTAL_CHARGE>
0

> <PUBCHEM_HEAVY_ATOM_COUNT>
19

> <PUBCHEM_ATOM_DEF_STEREO_COUNT>
0

> <PUBCHEM_ATOM_UDEF_STEREO_COUNT>
0

> <PUBCHEM_BOND_DEF_STEREO_COUNT>
0

> <PUBCHEM_BOND_UDEF_STEREO_COUNT>
0

> <PUBCHEM_ISOTOPIC_ATOM_COUNT>
0

> <PUBCHEM_COMPONENT_COUNT>
1

> <PUBCHEM_CACTVS_TAUTO_COUNT>
4

> <PUBCHEM_COORDINATE_TYPE>
1
5
255

> <PUBCHEM_BONDANNOTATIONS>
11  16  8
13  18  8
14  17  8
16  17  8
18  19  8
5  13  8
5  7  8
7  19  8
8  14  8
8  9  8
9  11  8

$$$$

