4893
  -OEChem-07051212533D

 49 52  0     0  0  0  0  0  0999 V2000
   -5.7145   -1.1446   -1.6280 O   0  0  0  0  0  0  0  0  0  0  0  0
   -5.4960    0.7234    1.3047 O   0  0  0  0  0  0  0  0  0  0  0  0
    5.4926    2.4845   -0.3391 O   0  0  0  0  0  0  0  0  0  0  0  0
    6.7137    0.0747    0.3114 O   0  0  0  0  0  0  0  0  0  0  0  0
   -0.8973   -0.6704   -0.2587 N   0  0  0  0  0  0  0  0  0  0  0  0
   -3.7743   -0.4868   -0.5557 N   0  0  0  0  0  0  0  0  0  0  0  0
    1.2238    0.3745   -0.2843 N   0  0  0  0  0  0  0  0  0  0  0  0
    1.0141   -1.9737    0.2143 N   0  0  0  0  0  0  0  0  0  0  0  0
    2.9165   -3.2756    0.6856 N   0  0  0  0  0  0  0  0  0  0  0  0
   -1.5367    0.6027   -0.6016 C   0  0  0  0  0  0  0  0  0  0  0  0
   -1.7513   -1.8496   -0.0924 C   0  0  0  0  0  0  0  0  0  0  0  0
   -2.9722    0.6448   -0.0769 C   0  0  0  0  0  0  0  0  0  0  0  0
   -3.0375   -1.7002   -0.9019 C   0  0  0  0  0  0  0  0  0  0  0  0
    0.4838   -0.7610   -0.1052 C   0  0  0  0  0  0  0  0  0  0  0  0
   -5.1659   -0.4483   -0.7712 C   0  0  0  0  0  0  0  0  0  0  0  0
    2.5581    0.2945   -0.1380 C   0  0  0  0  0  0  0  0  0  0  0  0
   -5.9521    0.4630    0.0573 C   0  0  0  0  0  0  0  0  0  0  0  0
    3.1882   -0.9170    0.1904 C   0  0  0  0  0  0  0  0  0  0  0  0
    2.3526   -2.0186    0.3533 C   0  0  0  0  0  0  0  0  0  0  0  0
    3.3614    1.4193   -0.3092 C   0  0  0  0  0  0  0  0  0  0  0  0
    4.5840   -0.9888    0.3409 C   0  0  0  0  0  0  0  0  0  0  0  0
   -7.1157    1.1356   -0.1979 C   0  0  0  0  0  0  0  0  0  0  0  0
    4.7502    1.3562   -0.1612 C   0  0  0  0  0  0  0  0  0  0  0  0
    5.3625    0.1509    0.1640 C   0  0  0  0  0  0  0  0  0  0  0  0
   -7.4029    1.8677    0.9787 C   0  0  0  0  0  0  0  0  0  0  0  0
   -6.3882    1.5834    1.8627 C   0  0  0  0  0  0  0  0  0  0  0  0
    5.9646    2.7483   -1.6588 C   0  0  0  0  0  0  0  0  0  0  0  0
    7.2386    0.3112    1.6168 C   0  0  0  0  0  0  0  0  0  0  0  0
   -1.5265    0.7255   -1.6913 H   0  0  0  0  0  0  0  0  0  0  0  0
   -1.0000    1.4524   -0.1637 H   0  0  0  0  0  0  0  0  0  0  0  0
   -1.9838   -1.9753    0.9718 H   0  0  0  0  0  0  0  0  0  0  0  0
   -1.2475   -2.7604   -0.4365 H   0  0  0  0  0  0  0  0  0  0  0  0
   -2.9621    0.5900    1.0182 H   0  0  0  0  0  0  0  0  0  0  0  0
   -3.4577    1.5828   -0.3662 H   0  0  0  0  0  0  0  0  0  0  0  0
   -2.8097   -1.6387   -1.9734 H   0  0  0  0  0  0  0  0  0  0  0  0
   -3.6870   -2.5707   -0.7558 H   0  0  0  0  0  0  0  0  0  0  0  0
    2.8989    2.3720   -0.5633 H   0  0  0  0  0  0  0  0  0  0  0  0
    5.0899   -1.9189    0.5854 H   0  0  0  0  0  0  0  0  0  0  0  0
   -7.6920    1.1098   -1.1117 H   0  0  0  0  0  0  0  0  0  0  0  0
    3.7107   -3.2975    1.3128 H   0  0  0  0  0  0  0  0  0  0  0  0
    2.2603   -4.0442    0.7633 H   0  0  0  0  0  0  0  0  0  0  0  0
   -8.2440    2.5212    1.1597 H   0  0  0  0  0  0  0  0  0  0  0  0
   -6.1672    1.8954    2.8730 H   0  0  0  0  0  0  0  0  0  0  0  0
    6.6147    1.9385   -2.0047 H   0  0  0  0  0  0  0  0  0  0  0  0
    6.5432    3.6758   -1.6367 H   0  0  0  0  0  0  0  0  0  0  0  0
    5.1240    2.8762   -2.3482 H   0  0  0  0  0  0  0  0  0  0  0  0
    6.8557   -0.4314    2.3240 H   0  0  0  0  0  0  0  0  0  0  0  0
    6.9854    1.3203    1.9568 H   0  0  0  0  0  0  0  0  0  0  0  0
    8.3272    0.2208    1.5696 H   0  0  0  0  0  0  0  0  0  0  0  0
  1 15  2  0  0  0  0
  2 17  1  0  0  0  0
  2 26  1  0  0  0  0
  3 23  1  0  0  0  0
  3 27  1  0  0  0  0
  4 24  1  0  0  0  0
  4 28  1  0  0  0  0
  5 10  1  0  0  0  0
  5 11  1  0  0  0  0
  5 14  1  0  0  0  0
  6 12  1  0  0  0  0
  6 13  1  0  0  0  0
  6 15  1  0  0  0  0
  7 14  2  0  0  0  0
  7 16  1  0  0  0  0
  8 14  1  0  0  0  0
  8 19  2  0  0  0  0
  9 19  1  0  0  0  0
  9 40  1  0  0  0  0
  9 41  1  0  0  0  0
 10 12  1  0  0  0  0
 10 29  1  0  0  0  0
 10 30  1  0  0  0  0
 11 13  1  0  0  0  0
 11 31  1  0  0  0  0
 11 32  1  0  0  0  0
 12 33  1  0  0  0  0
 12 34  1  0  0  0  0
 13 35  1  0  0  0  0
 13 36  1  0  0  0  0
 15 17  1  0  0  0  0
 16 18  1  0  0  0  0
 16 20  2  0  0  0  0
 17 22  2  0  0  0  0
 18 19  1  0  0  0  0
 18 21  2  0  0  0  0
 20 23  1  0  0  0  0
 20 37  1  0  0  0  0
 21 24  1  0  0  0  0
 21 38  1  0  0  0  0
 22 25  1  0  0  0  0
 22 39  1  0  0  0  0
 23 24  2  0  0  0  0
 25 26  2  0  0  0  0
 25 42  1  0  0  0  0
 26 43  1  0  0  0  0
 27 44  1  0  0  0  0
 27 45  1  0  0  0  0
 27 46  1  0  0  0  0
 28 47  1  0  0  0  0
 28 48  1  0  0  0  0
 28 49  1  0  0  0  0
M  END
> <PUBCHEM_COMPOUND_CID>
4893

> <PUBCHEM_CONFORMER_RMSD>
0.8

> <PUBCHEM_CONFORMER_DIVERSEORDER>
1
24
18
17
36
14
29
34
8
22
3
13
33
30
19
21
25
23
11
15
7
28
5
12
31
20
32
6
27
16
26
9
10
4
35
2

> <PUBCHEM_MMFF94_PARTIAL_CHARGES>
34
1 -0.57
10 0.37
11 0.37
12 0.3
13 0.3
14 0.72
15 0.71
16 0.31
17 0.05
19 0.41
2 -0.28
20 -0.15
21 -0.15
22 -0.15
23 0.08
24 0.08
25 -0.15
26 -0.01
27 0.28
28 0.28
3 -0.36
37 0.15
38 0.15
39 0.15
4 -0.36
40 0.4
41 0.4
42 0.15
43 0.15
5 -0.84
6 -0.66
7 -0.62
8 -0.62
9 -0.9

> <PUBCHEM_EFFECTIVE_ROTOR_COUNT>
6.2

> <PUBCHEM_PHARMACOPHORE_FEATURES>
10
1 1 acceptor
1 2 acceptor
1 3 acceptor
1 4 acceptor
1 9 donor
4 5 7 8 14 cation
5 2 17 22 25 26 rings
6 16 18 20 21 23 24 rings
6 5 6 10 11 12 13 rings
6 7 8 14 16 18 19 rings

> <PUBCHEM_HEAVY_ATOM_COUNT>
28

> <PUBCHEM_ATOM_DEF_STEREO_COUNT>
0

> <PUBCHEM_ATOM_UDEF_STEREO_COUNT>
0

> <PUBCHEM_BOND_DEF_STEREO_COUNT>
0

> <PUBCHEM_BOND_UDEF_STEREO_COUNT>
0

> <PUBCHEM_ISOTOPIC_ATOM_COUNT>
0

> <PUBCHEM_COMPONENT_COUNT>
1

> <PUBCHEM_CACTVS_TAUTO_COUNT>
3

> <PUBCHEM_CONFORMER_ID>
0000131D00000001

> <PUBCHEM_MMFF94_ENERGY>
109.7703

> <PUBCHEM_FEATURE_SELFOVERLAP>
50.779

> <PUBCHEM_SHAPE_FINGERPRINT>
10 15 17632855313170086509
10411042 1 17837214041393952458
10554248 39 18042133227185252895
10595046 47 18408045100508975271
10906281 52 18410001126835475015
11089746 13 17968100797898395465
11524674 6 16128371571958672329
12236239 1 18186242839818934527
12788726 201 17458620181362697769
13167372 99 18334857250860627097
13668630 136 12175624001159105336
13782708 43 12463576157713847821
13785724 45 17686055397997706263
14251764 18 18333732408407023005
15183329 4 17894343380686251553
15475509 35 15984550039271084962
15483637 11 17984147225346065252
1577012 14 18410854322326221844
15840311 113 18267014133080844061
2026 5 12246861394658937992
21033650 10 15213293167214238963
21130935 74 18261117378563890402
21150785 3 14129063612385989865
21298829 104 18335422352893519504
21781055 127 18334569154252420456
21792964 463 18197472186307464512
23081809 10 18260836990297522383
23522609 53 18261658329710288633
23569914 152 6551516274785920353
24771293 8 18263092033197079464
255183 451 17972594666043490742
3178227 256 17917715712949111442
328310 630 18410855447929367885
335352 9 18342741794148504814
394071 54 18202561786976577981
397830 11 16343128118228693665
4073 2 18201996586898572267
4093350 32 17676768764455351958
4340502 62 16988562420253207722
44555599 121 18409445864800037085
44880568 143 14562535107038716411
5104073 3 18201726093862866554
5385378 56 18339928207669150322
5718773 13 8213880145318966500
5758199 1 18409451384201686658
6328613 192 18261109669276299201
636775 72 17894356561661594977

> <PUBCHEM_SHAPE_MULTIPOLES>
527.84
21.81
2.55
1.21
12.02
0.34
0.16
-13.16
4.36
-2.19
-0.17
0.56
-0.42
-3.34

> <PUBCHEM_SHAPE_SELFOVERLAP>
1149.651

> <PUBCHEM_SHAPE_VOLUME>
286.9

> <PUBCHEM_COORDINATE_TYPE>
2
5
10

$$$$

