443014
  -OEChem-07051213003D

 50 54  0     1  0  0  0  0  0999 V2000
   -1.1735    3.9233    0.4095 O   0  0  0  0  0  0  0  0  0  0  0  0
    2.4691    2.4079    2.1027 O   0  0  0  0  0  0  0  0  0  0  0  0
   -1.9265    3.0310   -1.5768 O   0  0  0  0  0  0  0  0  0  0  0  0
    3.9763   -2.3836   -1.6824 O   0  0  0  0  0  0  0  0  0  0  0  0
    5.2217   -1.5012    0.1814 O   0  0  0  0  0  0  0  0  0  0  0  0
   -1.7032   -2.3479    2.0323 O   0  0  0  0  0  0  0  0  0  0  0  0
   -4.2717   -0.9241   -1.7511 O   0  0  0  0  0  0  0  0  0  0  0  0
   -4.0423   -2.4460    0.5511 O   0  0  0  0  0  0  0  0  0  0  0  0
    0.1443    2.2553   -0.5506 C   0  0  1  0  0  0  0  0  0  0  0  0
    0.3674    2.2722    0.9462 C   0  0  2  0  0  0  0  0  0  0  0  0
    0.2357    0.8365   -1.1179 C   0  0  1  0  0  0  0  0  0  0  0  0
    1.5873    0.2434   -0.7023 C   0  0  0  0  0  0  0  0  0  0  0  0
   -0.0575    3.6780    1.2862 C   0  0  0  0  0  0  0  0  0  0  0  0
    1.7969    1.8835    1.2228 C   0  0  0  0  0  0  0  0  0  0  0  0
    2.3320    0.7536    0.4032 C   0  0  0  0  0  0  0  0  0  0  0  0
   -1.1146    3.0689   -0.6675 C   0  0  0  0  0  0  0  0  0  0  0  0
   -0.8991   -0.0341   -0.6746 C   0  0  0  0  0  0  0  0  0  0  0  0
    2.1097   -0.8308   -1.4449 C   0  0  0  0  0  0  0  0  0  0  0  0
    3.5745    0.2060    0.7496 C   0  0  0  0  0  0  0  0  0  0  0  0
    3.3331   -1.3499   -1.0735 C   0  0  0  0  0  0  0  0  0  0  0  0
   -2.0709   -0.0766   -1.4242 C   0  0  0  0  0  0  0  0  0  0  0  0
   -0.7751   -0.7955    0.4840 C   0  0  0  0  0  0  0  0  0  0  0  0
    4.0438   -0.8457   -0.0100 C   0  0  0  0  0  0  0  0  0  0  0  0
   -1.8324   -1.6064    0.8967 C   0  0  0  0  0  0  0  0  0  0  0  0
   -3.1283   -0.8873   -1.0115 C   0  0  0  0  0  0  0  0  0  0  0  0
   -3.0091   -1.6523    0.1488 C   0  0  0  0  0  0  0  0  0  0  0  0
    5.1705   -2.4764   -0.8795 C   0  0  0  0  0  0  0  0  0  0  0  0
   -0.4681   -2.2430    2.7376 C   0  0  0  0  0  0  0  0  0  0  0  0
   -5.2883    0.0200   -1.4203 C   0  0  0  0  0  0  0  0  0  0  0  0
   -4.6016   -2.1787    1.8349 C   0  0  0  0  0  0  0  0  0  0  0  0
    0.9207    2.8613   -1.0472 H   0  0  0  0  0  0  0  0  0  0  0  0
   -0.2928    1.5884    1.4892 H   0  0  0  0  0  0  0  0  0  0  0  0
    0.2278    0.9079   -2.2148 H   0  0  0  0  0  0  0  0  0  0  0  0
   -0.3897    3.7661    2.3249 H   0  0  0  0  0  0  0  0  0  0  0  0
    0.7167    4.4298    1.0980 H   0  0  0  0  0  0  0  0  0  0  0  0
    1.5692   -1.2421   -2.2916 H   0  0  0  0  0  0  0  0  0  0  0  0
    4.1560    0.5789    1.5857 H   0  0  0  0  0  0  0  0  0  0  0  0
   -2.1667    0.5035   -2.3381 H   0  0  0  0  0  0  0  0  0  0  0  0
    0.1370   -0.7357    1.0591 H   0  0  0  0  0  0  0  0  0  0  0  0
    6.0419   -2.3347   -1.5289 H   0  0  0  0  0  0  0  0  0  0  0  0
    5.2197   -3.4784   -0.4380 H   0  0  0  0  0  0  0  0  0  0  0  0
   -0.5402   -2.9017    3.6095 H   0  0  0  0  0  0  0  0  0  0  0  0
   -0.3056   -1.2298    3.1211 H   0  0  0  0  0  0  0  0  0  0  0  0
    0.3738   -2.6058    2.1377 H   0  0  0  0  0  0  0  0  0  0  0  0
   -5.6306   -0.1251   -0.3910 H   0  0  0  0  0  0  0  0  0  0  0  0
   -6.1341   -0.1367   -2.0953 H   0  0  0  0  0  0  0  0  0  0  0  0
   -4.9194    1.0422   -1.5526 H   0  0  0  0  0  0  0  0  0  0  0  0
   -4.4816   -1.1299    2.1286 H   0  0  0  0  0  0  0  0  0  0  0  0
   -4.1533   -2.8377    2.5837 H   0  0  0  0  0  0  0  0  0  0  0  0
   -5.6722   -2.3989    1.7881 H   0  0  0  0  0  0  0  0  0  0  0  0
  1 13  1  0  0  0  0
  1 16  1  0  0  0  0
  2 14  2  0  0  0  0
  3 16  2  0  0  0  0
  4 20  1  0  0  0  0
  4 27  1  0  0  0  0
  5 23  1  0  0  0  0
  5 27  1  0  0  0  0
  6 24  1  0  0  0  0
  6 28  1  0  0  0  0
  7 25  1  0  0  0  0
  7 29  1  0  0  0  0
  8 26  1  0  0  0  0
  8 30  1  0  0  0  0
  9 10  1  0  0  0  0
  9 11  1  0  0  0  0
  9 16  1  0  0  0  0
  9 31  1  0  0  0  0
 10 13  1  0  0  0  0
 10 14  1  0  0  0  0
 10 32  1  0  0  0  0
 11 12  1  0  0  0  0
 11 17  1  0  0  0  0
 11 33  1  0  0  0  0
 12 15  1  0  0  0  0
 12 18  2  0  0  0  0
 13 34  1  0  0  0  0
 13 35  1  0  0  0  0
 14 15  1  0  0  0  0
 15 19  2  0  0  0  0
 17 21  2  0  0  0  0
 17 22  1  0  0  0  0
 18 20  1  0  0  0  0
 18 36  1  0  0  0  0
 19 23  1  0  0  0  0
 19 37  1  0  0  0  0
 20 23  2  0  0  0  0
 21 25  1  0  0  0  0
 21 38  1  0  0  0  0
 22 24  2  0  0  0  0
 22 39  1  0  0  0  0
 24 26  1  0  0  0  0
 25 26  2  0  0  0  0
 27 40  1  0  0  0  0
 27 41  1  0  0  0  0
 28 42  1  0  0  0  0
 28 43  1  0  0  0  0
 28 44  1  0  0  0  0
 29 45  1  0  0  0  0
 29 46  1  0  0  0  0
 29 47  1  0  0  0  0
 30 48  1  0  0  0  0
 30 49  1  0  0  0  0
 30 50  1  0  0  0  0
M  END
> <PUBCHEM_COMPOUND_CID>
443014

> <PUBCHEM_CONFORMER_RMSD>
0.8

> <PUBCHEM_CONFORMER_DIVERSEORDER>
1
4
2
3

> <PUBCHEM_MMFF94_PARTIAL_CHARGES>
34
1 -0.43
10 0.06
11 0.29
12 -0.14
13 0.28
14 0.42
15 0.09
16 0.66
17 -0.14
18 -0.15
19 -0.15
2 -0.57
20 0.08
21 -0.15
22 -0.15
23 0.08
24 0.08
25 0.08
26 0.08
27 0.56
28 0.28
29 0.28
3 -0.57
30 0.28
36 0.15
37 0.15
38 0.15
39 0.15
4 -0.36
5 -0.36
6 -0.36
7 -0.36
8 -0.36
9 0.06

> <PUBCHEM_EFFECTIVE_ROTOR_COUNT>
5.2

> <PUBCHEM_PHARMACOPHORE_FEATURES>
12
1 2 acceptor
1 3 acceptor
1 4 acceptor
1 5 acceptor
1 6 acceptor
1 7 acceptor
1 8 acceptor
5 1 9 10 13 16 rings
5 4 5 20 23 27 rings
6 12 15 18 19 20 23 rings
6 17 21 22 24 25 26 rings
6 9 10 11 12 14 15 rings

> <PUBCHEM_HEAVY_ATOM_COUNT>
30

> <PUBCHEM_ATOM_DEF_STEREO_COUNT>
3

> <PUBCHEM_ATOM_UDEF_STEREO_COUNT>
0

> <PUBCHEM_BOND_DEF_STEREO_COUNT>
0

> <PUBCHEM_BOND_UDEF_STEREO_COUNT>
0

> <PUBCHEM_ISOTOPIC_ATOM_COUNT>
0

> <PUBCHEM_COMPONENT_COUNT>
1

> <PUBCHEM_CACTVS_TAUTO_COUNT>
4

> <PUBCHEM_CONFORMER_ID>
0006C28600000001

> <PUBCHEM_MMFF94_ENERGY>
118.5519

> <PUBCHEM_FEATURE_SELFOVERLAP>
61.154

> <PUBCHEM_SHAPE_FINGERPRINT>
10119406 146 17033861440904907982
10906281 52 18196943179501227792
11582403 64 16394453294884979453
11640471 11 16446710802320839193
12156800 1 17829076511952277073
12363563 72 18336255791271025662
12422481 6 17678710510611094107
12553582 1 18115009845321494294
12788726 201 18195254527319683495
131258 38 16978098183735092251
13134695 92 18188776037410741197
13140716 1 18334568070681205201
13544653 18 18333731321205472822
14022347 108 17988096525215191637
14251740 79 18198623439468292478
14844126 61 17899428755346286742
14856354 85 15904359026325174688
14866123 147 18049438437747516411
16752209 62 17916594261568207356
17357779 13 18408890641592280772
17980427 23 14201396080183685467
1813 80 17895736453106936278
20600515 1 17773900626137276412
20642791 268 16660355970479487290
23559900 14 18202007594862244022
3027735 51 18196083567550783114
3380486 145 18115322071947338085
3383291 50 16674138657661082206
35225 105 17616772915688721298
484985 159 17026825575545713510
513532 50 18119279223270883595
81228 2 18340482365228300508

> <PUBCHEM_SHAPE_MULTIPOLES>
570.43
8.78
4.21
2.08
1
3.57
0.75
-8.59
-2.24
-0.47
1.39
-0.89
-0.62
2.79

> <PUBCHEM_SHAPE_SELFOVERLAP>
1279.476

> <PUBCHEM_SHAPE_VOLUME>
302.4

> <PUBCHEM_COORDINATE_TYPE>
2
5
10

$$$$

