586078
  -OEChem-06241222452D

 40 42  0     1  0  0  0  0  0999 V2000
    3.6721   -1.1560    0.0000 O   0  0  0  0  0  0  0  0  0  0  0  0
    5.3860   -1.4433    0.0000 N   0  0  0  0  0  0  0  0  0  0  0  0
    5.3860   -0.4433    0.0000 C   0  0  3  0  0  0  0  0  0  0  0  0
    5.3860    0.5567    0.0000 C   0  0  3  0  0  0  0  0  0  0  0  0
    4.3778    0.5608    0.0000 C   0  0  3  0  0  0  0  0  0  0  0  0
    4.3778   -0.4475    0.0000 C   0  0  0  0  0  0  0  0  0  0  0  0
    6.3371   -0.7523    0.0000 C   0  0  0  0  0  0  0  0  0  0  0  0
    6.3371    0.8657    0.0000 C   0  0  0  0  0  0  0  0  0  0  0  0
    6.9249    0.0567    0.0000 C   0  0  0  0  0  0  0  0  0  0  0  0
    3.6721    1.2694    0.0000 C   0  0  0  0  0  0  0  0  0  0  0  0
    6.2521   -1.9433    0.0000 C   0  0  0  0  0  0  0  0  0  0  0  0
    4.5200   -1.9433    0.0000 C   0  0  0  0  0  0  0  0  0  0  0  0
    3.9329    2.2348    0.0000 C   0  0  0  0  0  0  0  0  0  0  0  0
    2.7056    1.0125    0.0000 C   0  0  0  0  0  0  0  0  0  0  0  0
    6.2521   -2.9433    0.0000 C   0  0  0  0  0  0  0  0  0  0  0  0
    4.5200   -2.9433    0.0000 C   0  0  0  0  0  0  0  0  0  0  0  0
    3.2273    2.9433    0.0000 C   0  0  0  0  0  0  0  0  0  0  0  0
    2.0000    1.7211    0.0000 C   0  0  0  0  0  0  0  0  0  0  0  0
    2.2608    2.6865    0.0000 C   0  0  0  0  0  0  0  0  0  0  0  0
    5.2548    1.3965    0.0000 H   0  0  0  0  0  0  0  0  0  0  0  0
    3.5921    0.2363    0.0000 H   0  0  0  0  0  0  0  0  0  0  0  0
    6.0849   -1.3187    0.0000 H   0  0  0  0  0  0  0  0  0  0  0  0
    6.8740   -1.0623    0.0000 H   0  0  0  0  0  0  0  0  0  0  0  0
    6.5287    1.4554    0.0000 H   0  0  0  0  0  0  0  0  0  0  0  0
    7.5449    0.0567    0.0000 H   0  0  0  0  0  0  0  0  0  0  0  0
    6.8626   -2.0510    0.0000 H   0  0  0  0  0  0  0  0  0  0  0  0
    6.4641   -1.3607    0.0000 H   0  0  0  0  0  0  0  0  0  0  0  0
    4.3080   -1.3607    0.0000 H   0  0  0  0  0  0  0  0  0  0  0  0
    3.9094   -2.0510    0.0000 H   0  0  0  0  0  0  0  0  0  0  0  0
    4.5321    2.3940    0.0000 H   0  0  0  0  0  0  0  0  0  0  0  0
    2.5440    0.4140    0.0000 H   0  0  0  0  0  0  0  0  0  0  0  0
    5.6321   -2.9433    0.0000 H   0  0  0  0  0  0  0  0  0  0  0  0
    6.2521   -3.5633    0.0000 H   0  0  0  0  0  0  0  0  0  0  0  0
    6.8721   -2.9433    0.0000 H   0  0  0  0  0  0  0  0  0  0  0  0
    3.9000   -2.9433    0.0000 H   0  0  0  0  0  0  0  0  0  0  0  0
    4.5200   -3.5633    0.0000 H   0  0  0  0  0  0  0  0  0  0  0  0
    5.1400   -2.9433    0.0000 H   0  0  0  0  0  0  0  0  0  0  0  0
    3.3890    3.5419    0.0000 H   0  0  0  0  0  0  0  0  0  0  0  0
    1.4008    1.5619    0.0000 H   0  0  0  0  0  0  0  0  0  0  0  0
    1.8233    3.1258    0.0000 H   0  0  0  0  0  0  0  0  0  0  0  0
  1  6  2  0  0  0  0
  2  3  1  0  0  0  0
  2 11  1  0  0  0  0
  2 12  1  0  0  0  0
  3  4  1  0  0  0  0
  3  6  1  0  0  0  0
  3  7  1  0  0  0  0
  4  5  1  0  0  0  0
  4  8  1  0  0  0  0
  4 20  1  0  0  0  0
  5  6  1  0  0  0  0
  5 10  1  0  0  0  0
  5 21  1  0  0  0  0
  7  9  1  0  0  0  0
  7 22  1  0  0  0  0
  7 23  1  0  0  0  0
  8  9  2  0  0  0  0
  8 24  1  0  0  0  0
  9 25  1  0  0  0  0
 10 13  2  0  0  0  0
 10 14  1  0  0  0  0
 11 15  1  0  0  0  0
 11 26  1  0  0  0  0
 11 27  1  0  0  0  0
 12 16  1  0  0  0  0
 12 28  1  0  0  0  0
 12 29  1  0  0  0  0
 13 17  1  0  0  0  0
 13 30  1  0  0  0  0
 14 18  2  0  0  0  0
 14 31  1  0  0  0  0
 15 32  1  0  0  0  0
 15 33  1  0  0  0  0
 15 34  1  0  0  0  0
 16 35  1  0  0  0  0
 16 36  1  0  0  0  0
 16 37  1  0  0  0  0
 17 19  2  0  0  0  0
 17 38  1  0  0  0  0
 18 19  1  0  0  0  0
 18 39  1  0  0  0  0
 19 40  1  0  0  0  0
M  END
> <PUBCHEM_COMPOUND_CID>
586078

> <PUBCHEM_COMPOUND_CANONICALIZED>
1

> <PUBCHEM_CACTVS_COMPLEXITY>
379

> <PUBCHEM_CACTVS_HBOND_ACCEPTOR>
2

> <PUBCHEM_CACTVS_HBOND_DONOR>
0

> <PUBCHEM_CACTVS_ROTATABLE_BOND>
4

> <PUBCHEM_CACTVS_SUBSKEYS>
AAADceB6IAAAAAAAAAAAAAAAAABgAQAAAAAwAAAABAAAAAABAAAAHgAAAAAADYzBmAQyAIMAAACIAqBSAAACAAAgAAAIiAGIAIgIIDKAlTCEIAAggACIiAcciMCOgAAAAAAAAAAAAAAAAAAAAAAAAAAAAA==

> <PUBCHEM_IUPAC_OPENEYE_NAME>
5-(diethylamino)-7-phenyl-bicyclo[3.2.0]hept-2-en-6-one

> <PUBCHEM_IUPAC_CAS_NAME>
5-(diethylamino)-7-phenyl-6-bicyclo[3.2.0]hept-2-enone

> <PUBCHEM_IUPAC_NAME>
5-(diethylamino)-7-phenylbicyclo[3.2.0]hept-2-en-6-one

> <PUBCHEM_IUPAC_SYSTEMATIC_NAME>
5-(diethylamino)-7-phenyl-bicyclo[3.2.0]hept-2-en-6-one

> <PUBCHEM_IUPAC_TRADITIONAL_NAME>
5-(diethylamino)-7-phenyl-bicyclo[3.2.0]hept-2-en-6-one

> <PUBCHEM_IUPAC_INCHI>
InChI=1S/C17H21NO/c1-3-18(4-2)17-12-8-11-14(17)15(16(17)19)13-9-6-5-7-10-13/h5-11,14-15H,3-4,12H2,1-2H3

> <PUBCHEM_IUPAC_INCHIKEY>
DLZJVNSAXSTBES-UHFFFAOYSA-N

> <PUBCHEM_XLOGP3_AA>
3

> <PUBCHEM_EXACT_MASS>
255.162314

> <PUBCHEM_MOLECULAR_FORMULA>
C17H21NO

> <PUBCHEM_MOLECULAR_WEIGHT>
255.35474

> <PUBCHEM_OPENEYE_CAN_SMILES>
CCN(CC)C12CC=CC1C(C2=O)C3=CC=CC=C3

> <PUBCHEM_OPENEYE_ISO_SMILES>
CCN(CC)C12CC=CC1C(C2=O)C3=CC=CC=C3

> <PUBCHEM_CACTVS_TPSA>
20.3

> <PUBCHEM_MONOISOTOPIC_WEIGHT>
255.162314

> <PUBCHEM_TOTAL_CHARGE>
0

> <PUBCHEM_HEAVY_ATOM_COUNT>
19

> <PUBCHEM_ATOM_DEF_STEREO_COUNT>
0

> <PUBCHEM_ATOM_UDEF_STEREO_COUNT>
3

> <PUBCHEM_BOND_DEF_STEREO_COUNT>
0

> <PUBCHEM_BOND_UDEF_STEREO_COUNT>
0

> <PUBCHEM_ISOTOPIC_ATOM_COUNT>
0

> <PUBCHEM_COMPONENT_COUNT>
1

> <PUBCHEM_CACTVS_TAUTO_COUNT>
2

> <PUBCHEM_COORDINATE_TYPE>
1
5
255

> <PUBCHEM_BONDANNOTATIONS>
10  13  8
10  14  8
13  17  8
14  18  8
17  19  8
18  19  8
3  2  3
4  20  3
5  21  3

$$$$

