14431
  -OEChem-06241222433D

 58 62  0     1  0  0  0  0  0999 V2000
    6.1978    1.1651   -0.5519 O   0  0  0  0  0  0  0  0  0  0  0  0
    5.6240   -2.0154    0.8300 O   0  0  0  0  0  0  0  0  0  0  0  0
   -4.4843   -0.4835    0.4130 O   0  0  0  0  0  0  0  0  0  0  0  0
    3.9188    0.2677   -0.8420 C   0  0  1  0  0  0  0  0  0  0  0  0
    3.4100    0.7015    0.5529 C   0  0  1  0  0  0  0  0  0  0  0  0
    1.8817    0.6692    0.7771 C   0  0  2  0  0  0  0  0  0  0  0  0
    1.2045   -0.6011    0.2061 C   0  0  2  0  0  0  0  0  0  0  0  0
    5.4188   -0.0316   -0.5598 C   0  0  2  0  0  0  0  0  0  0  0  0
    3.1943   -1.0102   -1.3229 C   0  0  0  0  0  0  0  0  0  0  0  0
    4.1374   -0.2566    1.5187 C   0  0  0  0  0  0  0  0  0  0  0  0
    5.4741   -0.6015    0.8611 C   0  0  1  0  0  0  0  0  0  0  0  0
    1.6720   -0.9135   -1.2271 C   0  0  0  0  0  0  0  0  0  0  0  0
    1.1870    1.9303    0.2408 C   0  0  0  0  0  0  0  0  0  0  0  0
    3.7732    1.3737   -1.9025 C   0  0  0  0  0  0  0  0  0  0  0  0
   -0.3144   -0.5359    0.2708 C   0  0  0  0  0  0  0  0  0  0  0  0
   -0.2679    1.9732    0.7003 C   0  0  0  0  0  0  0  0  0  0  0  0
   -0.9994    0.6769    0.4701 C   0  0  0  0  0  0  0  0  0  0  0  0
   -1.0576   -1.7204    0.1201 C   0  0  0  0  0  0  0  0  0  0  0  0
   -2.4030    0.6790    0.5216 C   0  0  0  0  0  0  0  0  0  0  0  0
   -2.4514   -1.7034    0.1629 C   0  0  0  0  0  0  0  0  0  0  0  0
   -3.1243   -0.5031    0.3628 C   0  0  0  0  0  0  0  0  0  0  0  0
   -5.1570    0.3114   -0.5555 C   0  0  0  0  0  0  0  0  0  0  0  0
   -6.0495    1.3206    0.1502 C   0  0  0  0  0  0  0  0  0  0  0  0
   -6.1491   -0.5348   -1.3391 C   0  0  0  0  0  0  0  0  0  0  0  0
   -7.2947    0.5249    0.5393 C   0  0  0  0  0  0  0  0  0  0  0  0
   -7.3412   -0.6827   -0.3970 C   0  0  0  0  0  0  0  0  0  0  0  0
    3.7695    1.7157    0.7765 H   0  0  0  0  0  0  0  0  0  0  0  0
    1.7183    0.6719    1.8660 H   0  0  0  0  0  0  0  0  0  0  0  0
    1.5062   -1.4418    0.8463 H   0  0  0  0  0  0  0  0  0  0  0  0
    5.8494   -0.7039   -1.3091 H   0  0  0  0  0  0  0  0  0  0  0  0
    3.5134   -1.8822   -0.7400 H   0  0  0  0  0  0  0  0  0  0  0  0
    3.4768   -1.2291   -2.3606 H   0  0  0  0  0  0  0  0  0  0  0  0
    4.2972    0.2392    2.4833 H   0  0  0  0  0  0  0  0  0  0  0  0
    3.5575   -1.1629    1.7237 H   0  0  0  0  0  0  0  0  0  0  0  0
    6.3057   -0.1925    1.4458 H   0  0  0  0  0  0  0  0  0  0  0  0
    1.2905   -0.1645   -1.9306 H   0  0  0  0  0  0  0  0  0  0  0  0
    1.2502   -1.8703   -1.5602 H   0  0  0  0  0  0  0  0  0  0  0  0
    1.2091    1.9593   -0.8517 H   0  0  0  0  0  0  0  0  0  0  0  0
    1.6983    2.8333    0.5944 H   0  0  0  0  0  0  0  0  0  0  0  0
    4.1115    2.3446   -1.5248 H   0  0  0  0  0  0  0  0  0  0  0  0
    4.3737    1.1348   -2.7881 H   0  0  0  0  0  0  0  0  0  0  0  0
    2.7454    1.5005   -2.2468 H   0  0  0  0  0  0  0  0  0  0  0  0
   -0.7778    2.7886    0.1732 H   0  0  0  0  0  0  0  0  0  0  0  0
   -0.3041    2.2002    1.7732 H   0  0  0  0  0  0  0  0  0  0  0  0
    5.8642    1.7521    0.1468 H   0  0  0  0  0  0  0  0  0  0  0  0
    6.4670   -2.2091    0.3859 H   0  0  0  0  0  0  0  0  0  0  0  0
   -0.5492   -2.6699   -0.0308 H   0  0  0  0  0  0  0  0  0  0  0  0
   -2.9286    1.6146    0.7005 H   0  0  0  0  0  0  0  0  0  0  0  0
   -3.0048   -2.6306    0.0425 H   0  0  0  0  0  0  0  0  0  0  0  0
   -4.4563    0.8067   -1.2390 H   0  0  0  0  0  0  0  0  0  0  0  0
   -6.3329    2.1213   -0.5432 H   0  0  0  0  0  0  0  0  0  0  0  0
   -5.5788    1.7722    1.0289 H   0  0  0  0  0  0  0  0  0  0  0  0
   -5.7458   -1.5115   -1.6236 H   0  0  0  0  0  0  0  0  0  0  0  0
   -6.4635   -0.0063   -2.2468 H   0  0  0  0  0  0  0  0  0  0  0  0
   -8.1974    1.1387    0.4556 H   0  0  0  0  0  0  0  0  0  0  0  0
   -7.2244    0.1866    1.5795 H   0  0  0  0  0  0  0  0  0  0  0  0
   -7.2529   -1.6068    0.1862 H   0  0  0  0  0  0  0  0  0  0  0  0
   -8.2840   -0.7344   -0.9507 H   0  0  0  0  0  0  0  0  0  0  0  0
  1  8  1  0  0  0  0
  1 45  1  0  0  0  0
  2 11  1  0  0  0  0
  2 46  1  0  0  0  0
  3 21  1  0  0  0  0
  3 22  1  0  0  0  0
  4  5  1  0  0  0  0
  4  8  1  0  0  0  0
  4  9  1  0  0  0  0
  4 14  1  0  0  0  0
  5  6  1  0  0  0  0
  5 10  1  0  0  0  0
  5 27  1  0  0  0  0
  6  7  1  0  0  0  0
  6 13  1  0  0  0  0
  6 28  1  0  0  0  0
  7 12  1  0  0  0  0
  7 15  1  0  0  0  0
  7 29  1  0  0  0  0
  8 11  1  0  0  0  0
  8 30  1  0  0  0  0
  9 12  1  0  0  0  0
  9 31  1  0  0  0  0
  9 32  1  0  0  0  0
 10 11  1  0  0  0  0
 10 33  1  0  0  0  0
 10 34  1  0  0  0  0
 11 35  1  0  0  0  0
 12 36  1  0  0  0  0
 12 37  1  0  0  0  0
 13 16  1  0  0  0  0
 13 38  1  0  0  0  0
 13 39  1  0  0  0  0
 14 40  1  0  0  0  0
 14 41  1  0  0  0  0
 14 42  1  0  0  0  0
 15 17  2  0  0  0  0
 15 18  1  0  0  0  0
 16 17  1  0  0  0  0
 16 43  1  0  0  0  0
 16 44  1  0  0  0  0
 17 19  1  0  0  0  0
 18 20  2  0  0  0  0
 18 47  1  0  0  0  0
 19 21  2  0  0  0  0
 19 48  1  0  0  0  0
 20 21  1  0  0  0  0
 20 49  1  0  0  0  0
 22 23  1  0  0  0  0
 22 24  1  0  0  0  0
 22 50  1  0  0  0  0
 23 25  1  0  0  0  0
 23 51  1  0  0  0  0
 23 52  1  0  0  0  0
 24 26  1  0  0  0  0
 24 53  1  0  0  0  0
 24 54  1  0  0  0  0
 25 26  1  0  0  0  0
 25 55  1  0  0  0  0
 25 56  1  0  0  0  0
 26 57  1  0  0  0  0
 26 58  1  0  0  0  0
M  END
> <PUBCHEM_COMPOUND_CID>
14431

> <PUBCHEM_CONFORMER_RMSD>
0.8

> <PUBCHEM_CONFORMER_DIVERSEORDER>
2
84
17
100
90
87
12
106
111
95
14
75
69
9
107
8
15
36
32
103
101
62
35
108
43
105
97
89
112
22
1
6
39
33
96
38
56
51
113
58
47
28
114
72
119
88
25
50
27
85
21
46
116
110
82
13
118
54
98
11
94
7
117
93
83
34
19
80
16
29
68
102
40
109
63
81
74
55
79
78
115
76
99
53
44
61
23
24
86
91
104
20
49
4
5
60
77
41
31
71
66
52
92
26
45
57
65
42
3
73
59
30
70
67
48
18
37
64
10

> <PUBCHEM_MMFF94_PARTIAL_CHARGES>
19
1 -0.68
11 0.28
15 -0.14
16 0.14
17 -0.14
18 -0.15
19 -0.15
2 -0.68
20 -0.15
21 0.08
22 0.28
3 -0.36
45 0.4
46 0.4
47 0.15
48 0.15
49 0.15
7 0.14
8 0.28

> <PUBCHEM_EFFECTIVE_ROTOR_COUNT>
4.4

> <PUBCHEM_PHARMACOPHORE_FEATURES>
10
1 1 acceptor
1 1 donor
1 2 acceptor
1 2 donor
1 3 acceptor
5 22 23 24 25 26 rings
5 4 5 8 10 11 rings
6 15 17 18 19 20 21 rings
6 4 5 6 7 9 12 rings
6 6 7 13 15 16 17 rings

> <PUBCHEM_HEAVY_ATOM_COUNT>
26

> <PUBCHEM_ATOM_DEF_STEREO_COUNT>
2

> <PUBCHEM_ATOM_UDEF_STEREO_COUNT>
4

> <PUBCHEM_BOND_DEF_STEREO_COUNT>
0

> <PUBCHEM_BOND_UDEF_STEREO_COUNT>
0

> <PUBCHEM_ISOTOPIC_ATOM_COUNT>
0

> <PUBCHEM_COMPONENT_COUNT>
1

> <PUBCHEM_CACTVS_TAUTO_COUNT>
1

> <PUBCHEM_CONFORMER_ID>
0000385F00000002

> <PUBCHEM_MMFF94_ENERGY>
93.0045

> <PUBCHEM_FEATURE_SELFOVERLAP>
50.966

> <PUBCHEM_SHAPE_FINGERPRINT>
10554248 39 18272374169702129022
10906281 52 18261937605467902345
11578080 2 15193852568657837436
11646440 116 18040428881030308713
11719270 70 18040999569829690031
11796584 16 17703788102824041554
11963148 33 18259993660173595246
11991303 11 17846220999982708267
12011746 2 18040992934215318068
12166972 35 18060137660643179076
12236239 1 17917992767608162034
12516196 113 16515405166514668713
12596602 18 14549017685333078781
12741549 16 16443349814892807896
12788726 201 18334851757544994432
12916748 109 10303818687420054570
13533116 47 18340773740632162450
13668630 136 15791725291967603957
13862211 1 18334580148440055803
14170010 4 17603305938426600065
14251752 14 18060424637852264397
14251764 18 18413108347122473881
14294032 229 18122334942237031497
14933364 13 15985104120005937861
15099037 51 18408603648052021427
15142383 8 16988852687006516662
15183329 4 18260548922809678253
15849732 13 16845573114777704767
17349148 13 18259985972260190560
18222031 100 17967810535772271936
18335252 114 17632306666032508325
18608769 82 18271517591101329763
18681886 176 17749117651885996203
19377110 9 8358269154623208255
200 152 16732700554269005027
20157964 124 17632574942537761940
20281389 69 17561084709358457157
20511986 3 18199753548997129140
21150785 3 18334011662184372381
21267235 1 18408320007789425074
21285901 2 18261103127555726677
21304304 249 18334858376976229750
22079108 93 14418142811630408590
22224240 67 16950574264028900658
22956985 138 17754730860568117094
23402539 116 18186809075690979303
23522609 53 18267276842956003025
23536379 177 16845575322649026465
23559900 14 18041565723949780209
23569943 247 17316178505587841999
23576562 1 18195806267709195509
249057 3 17203607082262619898
29717793 49 18272367594549867942
3004659 81 18343017800850904732
3009799 131 18260830397411894577
3178227 256 18341037563619814755
335352 9 18408886213359627213
3411729 13 17970360213428413656
4072396 5 18260834817091711946
4093350 32 15625931046291729102
4340502 62 14706931735167151756
5385378 56 18339356491829850731
8988823 20 16660366974196171288

> <PUBCHEM_SHAPE_MULTIPOLES>
517.46
17.84
1.7
1.26
19.98
0.11
0.34
-0.56
1.68
-0.39
-0.08
-1.27
0.01
-0.9

> <PUBCHEM_SHAPE_SELFOVERLAP>
1122.421

> <PUBCHEM_SHAPE_VOLUME>
282.6

> <PUBCHEM_COORDINATE_TYPE>
2
5
10

$$$$

