10753985
  -OEChem-07051213152D

 45 44  0     1  0  0  0  0  0999 V2000
    6.3301   -0.5000    0.0000 O   0  0  0  0  0  0  0  0  0  0  0  0
   13.2583   -3.5000    0.0000 O   0  0  0  0  0  0  0  0  0  0  0  0
    2.8660    1.5000    0.0000 C   0  0  0  0  0  0  0  0  0  0  0  0
    3.7320    1.0000    0.0000 C   0  0  0  0  0  0  0  0  0  0  0  0
    2.8660    2.5000    0.0000 C   0  0  0  0  0  0  0  0  0  0  0  0
    3.7320    0.0000    0.0000 C   0  0  0  0  0  0  0  0  0  0  0  0
    2.0000    3.0000    0.0000 C   0  0  0  0  0  0  0  0  0  0  0  0
    4.5981   -0.5000    0.0000 C   0  0  0  0  0  0  0  0  0  0  0  0
    2.0000    4.0000    0.0000 C   0  0  0  0  0  0  0  0  0  0  0  0
    4.5981   -1.5000    0.0000 C   0  0  0  0  0  0  0  0  0  0  0  0
    5.4641   -2.0000    0.0000 C   0  0  0  0  0  0  0  0  0  0  0  0
    6.3301   -1.5000    0.0000 C   0  0  1  0  0  0  0  0  0  0  0  0
   11.5263   -3.5000    0.0000 C   0  0  0  0  0  0  0  0  0  0  0  0
   10.6603   -4.0000    0.0000 C   0  0  0  0  0  0  0  0  0  0  0  0
   12.3923   -4.0000    0.0000 C   0  0  0  0  0  0  0  0  0  0  0  0
    7.1962   -2.0000    0.0000 C   0  0  0  0  0  0  0  0  0  0  0  0
    9.7942   -3.5000    0.0000 C   0  0  0  0  0  0  0  0  0  0  0  0
    8.0622   -2.5000    0.0000 C   0  0  0  0  0  0  0  0  0  0  0  0
    8.9282   -3.0000    0.0000 C   0  0  0  0  0  0  0  0  0  0  0  0
    2.2554    1.6077    0.0000 H   0  0  0  0  0  0  0  0  0  0  0  0
    2.6540    0.9174    0.0000 H   0  0  0  0  0  0  0  0  0  0  0  0
    4.3426    0.8923    0.0000 H   0  0  0  0  0  0  0  0  0  0  0  0
    3.9441    1.5826    0.0000 H   0  0  0  0  0  0  0  0  0  0  0  0
    3.4766    2.3923    0.0000 H   0  0  0  0  0  0  0  0  0  0  0  0
    3.0781    3.0826    0.0000 H   0  0  0  0  0  0  0  0  0  0  0  0
    3.1215    0.1077    0.0000 H   0  0  0  0  0  0  0  0  0  0  0  0
    3.5200   -0.5826    0.0000 H   0  0  0  0  0  0  0  0  0  0  0  0
    1.3894    3.1077    0.0000 H   0  0  0  0  0  0  0  0  0  0  0  0
    1.7880    2.4174    0.0000 H   0  0  0  0  0  0  0  0  0  0  0  0
    5.2087   -0.6077    0.0000 H   0  0  0  0  0  0  0  0  0  0  0  0
    4.8101    0.0826    0.0000 H   0  0  0  0  0  0  0  0  0  0  0  0
    2.6200    4.0000    0.0000 H   0  0  0  0  0  0  0  0  0  0  0  0
    2.0000    4.6200    0.0000 H   0  0  0  0  0  0  0  0  0  0  0  0
    1.3800    4.0000    0.0000 H   0  0  0  0  0  0  0  0  0  0  0  0
    4.0611   -1.8100    0.0000 H   0  0  0  0  0  0  0  0  0  0  0  0
    5.4641   -2.6200    0.0000 H   0  0  0  0  0  0  0  0  0  0  0  0
    6.8671   -1.1900    0.0000 H   0  0  0  0  0  0  0  0  0  0  0  0
   11.9248   -3.0250    0.0000 H   0  0  0  0  0  0  0  0  0  0  0  0
   11.1278   -3.0250    0.0000 H   0  0  0  0  0  0  0  0  0  0  0  0
   10.2617   -4.4750    0.0000 H   0  0  0  0  0  0  0  0  0  0  0  0
   11.0588   -4.4750    0.0000 H   0  0  0  0  0  0  0  0  0  0  0  0
   11.9938   -4.4750    0.0000 H   0  0  0  0  0  0  0  0  0  0  0  0
   12.7908   -4.4750    0.0000 H   0  0  0  0  0  0  0  0  0  0  0  0
    6.8671   -0.1900    0.0000 H   0  0  0  0  0  0  0  0  0  0  0  0
   13.7953   -3.8100    0.0000 H   0  0  0  0  0  0  0  0  0  0  0  0
 12  1  1  6  0  0  0
  1 44  1  0  0  0  0
  2 15  1  0  0  0  0
  2 45  1  0  0  0  0
  3  4  1  0  0  0  0
  3  5  1  0  0  0  0
  3 20  1  0  0  0  0
  3 21  1  0  0  0  0
  4  6  1  0  0  0  0
  4 22  1  0  0  0  0
  4 23  1  0  0  0  0
  5  7  1  0  0  0  0
  5 24  1  0  0  0  0
  5 25  1  0  0  0  0
  6  8  1  0  0  0  0
  6 26  1  0  0  0  0
  6 27  1  0  0  0  0
  7  9  1  0  0  0  0
  7 28  1  0  0  0  0
  7 29  1  0  0  0  0
  8 10  1  0  0  0  0
  8 30  1  0  0  0  0
  8 31  1  0  0  0  0
  9 32  1  0  0  0  0
  9 33  1  0  0  0  0
  9 34  1  0  0  0  0
 10 11  2  0  0  0  0
 10 35  1  0  0  0  0
 11 12  1  0  0  0  0
 11 36  1  0  0  0  0
 12 16  1  0  0  0  0
 12 37  1  0  0  0  0
 13 14  1  0  0  0  0
 13 15  1  0  0  0  0
 13 38  1  0  0  0  0
 13 39  1  0  0  0  0
 14 17  1  0  0  0  0
 14 40  1  0  0  0  0
 14 41  1  0  0  0  0
 15 42  1  0  0  0  0
 15 43  1  0  0  0  0
 16 18  3  0  0  0  0
 17 19  3  0  0  0  0
 18 19  1  0  0  0  0
M  END
> <PUBCHEM_COMPOUND_CID>
10753985

> <PUBCHEM_COMPOUND_CANONICALIZED>
1

> <PUBCHEM_CACTVS_COMPLEXITY>
356

> <PUBCHEM_CACTVS_HBOND_ACCEPTOR>
2

> <PUBCHEM_CACTVS_HBOND_DONOR>
2

> <PUBCHEM_CACTVS_ROTATABLE_BOND>
10

> <PUBCHEM_CACTVS_SUBSKEYS>
AAADceB4MAAAAAAAAAAAAAAAAAAAAAAAAAAAAAAAAAAAAAAAAAAAGgAACAAACBSggAICAAAAAgDAECBCAAgAAAAgAAAICAAAAAgAFAIAAQAAUAAEgAAIEAMAgIAAAAAAAAAAAAAAAAAAAAAAAAAAAAAAAA==

> <PUBCHEM_IUPAC_OPENEYE_NAME>
(Z,8S)-heptadec-9-en-4,6-diyne-1,8-diol

> <PUBCHEM_IUPAC_CAS_NAME>
(Z,8S)-heptadec-9-en-4,6-diyne-1,8-diol

> <PUBCHEM_IUPAC_NAME>
(Z,8S)-heptadec-9-en-4,6-diyne-1,8-diol

> <PUBCHEM_IUPAC_SYSTEMATIC_NAME>
(Z,8S)-heptadec-9-en-4,6-diyne-1,8-diol

> <PUBCHEM_IUPAC_TRADITIONAL_NAME>
(Z,8S)-heptadec-9-en-4,6-diyne-1,8-diol

> <PUBCHEM_IUPAC_INCHI>
InChI=1S/C17H26O2/c1-2-3-4-5-6-8-11-14-17(19)15-12-9-7-10-13-16-18/h11,14,17-19H,2-6,8,10,13,16H2,1H3/b14-11-/t17-/m0/s1

> <PUBCHEM_IUPAC_INCHIKEY>
OZXJUTMPBYVTKB-IFCKCIONSA-N

> <PUBCHEM_XLOGP3_AA>
4.3

> <PUBCHEM_EXACT_MASS>
262.19328

> <PUBCHEM_MOLECULAR_FORMULA>
C17H26O2

> <PUBCHEM_MOLECULAR_WEIGHT>
262.38714

> <PUBCHEM_OPENEYE_CAN_SMILES>
CCCCCCCC=CC(C#CC#CCCCO)O

> <PUBCHEM_OPENEYE_ISO_SMILES>
CCCCCCC/C=C\[C@@H](C#CC#CCCCO)O

> <PUBCHEM_CACTVS_TPSA>
40.5

> <PUBCHEM_MONOISOTOPIC_WEIGHT>
262.19328

> <PUBCHEM_TOTAL_CHARGE>
0

> <PUBCHEM_HEAVY_ATOM_COUNT>
19

> <PUBCHEM_ATOM_DEF_STEREO_COUNT>
1

> <PUBCHEM_ATOM_UDEF_STEREO_COUNT>
0

> <PUBCHEM_BOND_DEF_STEREO_COUNT>
1

> <PUBCHEM_BOND_UDEF_STEREO_COUNT>
0

> <PUBCHEM_ISOTOPIC_ATOM_COUNT>
0

> <PUBCHEM_COMPONENT_COUNT>
1

> <PUBCHEM_CACTVS_TAUTO_COUNT>
1

> <PUBCHEM_COORDINATE_TYPE>
1
5
255

> <PUBCHEM_BONDANNOTATIONS>
12  1  6

$$$$

