439536
  -OEChem-07051212462D

 56 58  0     1  0  0  0  0  0999 V2000
    8.4732   -1.9386    0.0000 P   0  0  3  0  0  0  0  0  0  0  0  0
    6.8909   -1.2341    0.0000 P   0  0  3  0  0  0  0  0  0  0  0  0
    5.0298    1.2305    0.0000 O   0  0  0  0  0  0  0  0  0  0  0  0
    9.7465   -3.5941    0.0000 O   0  0  0  0  0  0  0  0  0  0  0  0
    3.1330   -0.5296    0.0000 O   0  0  0  0  0  0  0  0  0  0  0  0
    2.4608    1.5395    0.0000 O   0  0  0  0  0  0  0  0  0  0  0  0
   12.3156   -3.2851    0.0000 O   0  0  0  0  0  0  0  0  0  0  0  0
    9.4677   -1.8340    0.0000 O   0  0  0  0  0  0  0  0  0  0  0  0
   11.6433   -1.8340    0.0000 O   0  0  0  0  0  0  0  0  0  0  0  0
    6.3031   -0.4251    0.0000 O   0  0  0  0  0  0  0  0  0  0  0  0
   11.5456   -5.3167    0.0000 O   0  0  0  0  0  0  0  0  0  0  0  0
    7.4787   -2.0431    0.0000 O   0  0  0  0  0  0  0  0  0  0  0  0
    8.5778   -2.9331    0.0000 O   0  0  0  0  0  0  0  0  0  0  0  0
    2.4888    2.8183    0.0000 O   0  0  0  0  0  0  0  0  0  0  0  0
    7.6999   -0.6463    0.0000 O   0  0  0  0  0  0  0  0  0  0  0  0
    8.3687   -0.9440    0.0000 O   0  0  0  0  0  0  0  0  0  0  0  0
    6.0819   -1.8219    0.0000 O   0  0  0  0  0  0  0  0  0  0  0  0
    4.2208    5.8183    0.0000 O   0  0  0  0  0  0  0  0  0  0  0  0
    4.2208    2.8183    0.0000 N   0  0  0  0  0  0  0  0  0  0  0  0
    3.3548    4.3183    0.0000 N   0  0  0  0  0  0  0  0  0  0  0  0
    3.7208    0.2794    0.0000 C   0  0  1  0  0  0  0  0  0  0  0  0
    3.4118    1.2305    0.0000 C   0  0  2  0  0  0  0  0  0  0  0  0
    4.7208    0.2794    0.0000 C   0  0  1  0  0  0  0  0  0  0  0  0
    4.2208    1.8183    0.0000 C   0  0  1  0  0  0  0  0  0  0  0  0
   11.3645   -3.5941    0.0000 C   0  0  1  0  0  0  0  0  0  0  0  0
   11.0555   -2.6431    0.0000 C   0  0  2  0  0  0  0  0  0  0  0  0
   10.0555   -2.6431    0.0000 C   0  0  2  0  0  0  0  0  0  0  0  0
   10.5555   -4.1819    0.0000 C   0  0  0  0  0  0  0  0  0  0  0  0
    5.3086   -0.5296    0.0000 C   0  0  0  0  0  0  0  0  0  0  0  0
   11.9523   -4.4031    0.0000 C   0  0  0  0  0  0  0  0  0  0  0  0
    3.3548    3.3183    0.0000 C   0  0  0  0  0  0  0  0  0  0  0  0
    5.0868    3.3183    0.0000 C   0  0  0  0  0  0  0  0  0  0  0  0
    5.0868    4.3183    0.0000 C   0  0  0  0  0  0  0  0  0  0  0  0
    4.2208    4.8183    0.0000 C   0  0  0  0  0  0  0  0  0  0  0  0
    3.1085    0.3764    0.0000 H   0  0  0  0  0  0  0  0  0  0  0  0
    2.9734    0.7921    0.0000 H   0  0  0  0  0  0  0  0  0  0  0  0
    5.3332    0.3764    0.0000 H   0  0  0  0  0  0  0  0  0  0  0  0
    3.6684    2.0997    0.0000 H   0  0  0  0  0  0  0  0  0  0  0  0
   10.7741   -2.0906    0.0000 H   0  0  0  0  0  0  0  0  0  0  0  0
    9.4432   -2.7400    0.0000 H   0  0  0  0  0  0  0  0  0  0  0  0
   10.1407   -4.6426    0.0000 H   0  0  0  0  0  0  0  0  0  0  0  0
   10.9704   -4.6426    0.0000 H   0  0  0  0  0  0  0  0  0  0  0  0
    4.7514   -0.8014    0.0000 H   0  0  0  0  0  0  0  0  0  0  0  0
    5.4795   -1.1256    0.0000 H   0  0  0  0  0  0  0  0  0  0  0  0
   12.4663   -4.7498    0.0000 H   0  0  0  0  0  0  0  0  0  0  0  0
   12.3830   -3.9571    0.0000 H   0  0  0  0  0  0  0  0  0  0  0  0
    3.3852   -1.0960    0.0000 H   0  0  0  0  0  0  0  0  0  0  0  0
    2.0000    1.1246    0.0000 H   0  0  0  0  0  0  0  0  0  0  0  0
   12.7764   -3.7000    0.0000 H   0  0  0  0  0  0  0  0  0  0  0  0
   11.3911   -1.2676    0.0000 H   0  0  0  0  0  0  0  0  0  0  0  0
    5.6238    3.0083    0.0000 H   0  0  0  0  0  0  0  0  0  0  0  0
   11.9100   -5.8183    0.0000 H   0  0  0  0  0  0  0  0  0  0  0  0
    2.8179    4.6283    0.0000 H   0  0  0  0  0  0  0  0  0  0  0  0
    5.6238    4.6283    0.0000 H   0  0  0  0  0  0  0  0  0  0  0  0
    8.0762   -3.2975    0.0000 H   0  0  0  0  0  0  0  0  0  0  0  0
    7.6351   -0.0297    0.0000 H   0  0  0  0  0  0  0  0  0  0  0  0
  1  8  1  0  0  0  0
  1 12  1  0  0  0  0
  1 13  1  0  0  0  0
  1 16  2  0  0  0  0
  2 10  1  0  0  0  0
  2 12  1  0  0  0  0
  2 15  1  0  0  0  0
  2 17  2  0  0  0  0
  3 23  1  0  0  0  0
  3 24  1  0  0  0  0
  4 27  1  0  0  0  0
  4 28  1  0  0  0  0
 21  5  1  1  0  0  0
  5 47  1  0  0  0  0
 22  6  1  1  0  0  0
  6 48  1  0  0  0  0
 25  7  1  6  0  0  0
  7 49  1  0  0  0  0
 27  8  1  6  0  0  0
 26  9  1  6  0  0  0
  9 50  1  0  0  0  0
 10 29  1  0  0  0  0
 11 30  1  0  0  0  0
 11 52  1  0  0  0  0
 13 55  1  0  0  0  0
 14 31  2  0  0  0  0
 15 56  1  0  0  0  0
 18 34  2  0  0  0  0
 24 19  1  6  0  0  0
 19 31  1  0  0  0  0
 19 32  1  0  0  0  0
 20 31  1  0  0  0  0
 20 34  1  0  0  0  0
 20 53  1  0  0  0  0
 21 22  1  0  0  0  0
 21 23  1  0  0  0  0
 21 35  1  0  0  0  0
 22 24  1  0  0  0  0
 22 36  1  0  0  0  0
 23 29  1  6  0  0  0
 23 37  1  0  0  0  0
 24 38  1  0  0  0  0
 25 26  1  0  0  0  0
 25 28  1  0  0  0  0
 25 30  1  0  0  0  0
 26 27  1  0  0  0  0
 26 39  1  0  0  0  0
 27 40  1  0  0  0  0
 28 41  1  0  0  0  0
 28 42  1  0  0  0  0
 29 43  1  0  0  0  0
 29 44  1  0  0  0  0
 30 45  1  0  0  0  0
 30 46  1  0  0  0  0
 32 33  2  0  0  0  0
 32 51  1  0  0  0  0
 33 34  1  0  0  0  0
 33 54  1  0  0  0  0
M  END
> <PUBCHEM_COMPOUND_CID>
439536

> <PUBCHEM_COMPOUND_CANONICALIZED>
1

> <PUBCHEM_CACTVS_COMPLEXITY>
931

> <PUBCHEM_CACTVS_HBOND_ACCEPTOR>
16

> <PUBCHEM_CACTVS_HBOND_DONOR>
8

> <PUBCHEM_CACTVS_ROTATABLE_BOND>
9

> <PUBCHEM_CACTVS_SUBSKEYS>
AAADceBzPgMAAAAAAAAAAAAAAAAAASJAAAAgAAAAAAAAAAAAAAAAHgAQCCAADFTxgAcBCAPABxCIQCFWUICAAAAAAgAIAAAIAECTEAIAgAAOQAAPFyIXAMDwMAIIAAAAAAAAAAAAAAAAAAAAAAAAAAAAAA==

> <PUBCHEM_IUPAC_OPENEYE_NAME>
[(2R,3R,4R)-3,4-dihydroxy-4-(hydroxymethyl)tetrahydrofuran-2-yl] [[(2R,3S,4R,5R)-5-(2,4-dioxopyrimidin-1-yl)-3,4-dihydroxy-tetrahydrofuran-2-yl]methoxy-hydroxy-phosphoryl] hydrogen phosphate

> <PUBCHEM_IUPAC_CAS_NAME>
[(2R,3R,4R)-3,4-dihydroxy-4-(hydroxymethyl)-2-oxolanyl] [[(2R,3S,4R,5R)-5-(2,4-dioxo-1-pyrimidinyl)-3,4-dihydroxy-2-oxolanyl]methoxy-hydroxyphosphoryl] hydrogen phosphate

> <PUBCHEM_IUPAC_NAME>
[(2R,3R,4R)-3,4-dihydroxy-4-(hydroxymethyl)oxolan-2-yl] [[(2R,3S,4R,5R)-5-(2,4-dioxopyrimidin-1-yl)-3,4-dihydroxyoxolan-2-yl]methoxy-hydroxyphosphoryl] hydrogen phosphate

> <PUBCHEM_IUPAC_SYSTEMATIC_NAME>
[[(2R,3S,4R,5R)-5-[2,4-bis(oxidanylidene)pyrimidin-1-yl]-3,4-bis(oxidanyl)oxolan-2-yl]methoxy-oxidanyl-phosphoryl] [(2R,3R,4R)-4-(hydroxymethyl)-3,4-bis(oxidanyl)oxolan-2-yl] hydrogen phosphate

> <PUBCHEM_IUPAC_TRADITIONAL_NAME>
[(2R,3R,4R)-3,4-dihydroxy-4-methylol-tetrahydrofuran-2-yl] [[(2R,3S,4R,5R)-5-(2,4-diketopyrimidin-1-yl)-3,4-dihydroxy-tetrahydrofuran-2-yl]methoxy-hydroxy-phosphoryl] hydrogen phosphate

> <PUBCHEM_IUPAC_INCHI>
InChI=1S/C14H22N2O16P2/c17-4-14(23)5-28-12(10(14)21)31-34(26,27)32-33(24,25)29-3-6-8(19)9(20)11(30-6)16-2-1-7(18)15-13(16)22/h1-2,6,8-12,17,19-21,23H,3-5H2,(H,24,25)(H,26,27)(H,15,18,22)/t6-,8-,9-,10+,11-,12-,14-/m1/s1

> <PUBCHEM_IUPAC_INCHIKEY>
SYVORCSTSYHSPN-UXAZDEAISA-N

> <PUBCHEM_XLOGP3_AA>
-6.3

> <PUBCHEM_EXACT_MASS>
536.044456

> <PUBCHEM_MOLECULAR_FORMULA>
C14H22N2O16P2

> <PUBCHEM_MOLECULAR_WEIGHT>
536.275804

> <PUBCHEM_OPENEYE_CAN_SMILES>
C1C(C(C(O1)OP(=O)(O)OP(=O)(O)OCC2C(C(C(O2)N3C=CC(=O)NC3=O)O)O)O)(CO)O

> <PUBCHEM_OPENEYE_ISO_SMILES>
C1[C@@]([C@H]([C@H](O1)OP(=O)(O)OP(=O)(O)OC[C@@H]2[C@H]([C@H]([C@@H](O2)N3C=CC(=O)NC3=O)O)O)O)(CO)O

> <PUBCHEM_CACTVS_TPSA>
271

> <PUBCHEM_MONOISOTOPIC_WEIGHT>
536.044456

> <PUBCHEM_TOTAL_CHARGE>
0

> <PUBCHEM_HEAVY_ATOM_COUNT>
34

> <PUBCHEM_ATOM_DEF_STEREO_COUNT>
7

> <PUBCHEM_ATOM_UDEF_STEREO_COUNT>
0

> <PUBCHEM_BOND_DEF_STEREO_COUNT>
0

> <PUBCHEM_BOND_UDEF_STEREO_COUNT>
0

> <PUBCHEM_ISOTOPIC_ATOM_COUNT>
0

> <PUBCHEM_COMPONENT_COUNT>
1

> <PUBCHEM_CACTVS_TAUTO_COUNT>
3

> <PUBCHEM_COORDINATE_TYPE>
1
5
255

> <PUBCHEM_BONDANNOTATIONS>
24  19  6
19  31  8
19  32  8
20  31  8
20  34  8
23  29  6
32  33  8
33  34  8
21  5  5
22  6  5
25  7  6
27  8  6
26  9  6

$$$$

