442626
  -OEChem-07051212583D

 49 52  0     1  0  0  0  0  0999 V2000
    0.8486    3.2948    0.9773 O   0  0  0  0  0  0  0  0  0  0  0  0
   -3.2997    0.7864    0.6478 N   0  0  2  0  0  0  0  0  0  0  0  0
    0.7233    1.4505   -0.4301 N   0  0  0  0  0  0  0  0  0  0  0  0
   -1.3586    0.1390   -0.7338 C   0  0  1  0  0  0  0  0  0  0  0  0
   -2.8901    0.1889   -0.6387 C   0  0  1  0  0  0  0  0  0  0  0  0
   -0.9118   -0.4014   -2.0954 C   0  0  0  0  0  0  0  0  0  0  0  0
   -0.7413    1.5118   -0.4799 C   0  0  0  0  0  0  0  0  0  0  0  0
   -3.5158   -1.1943   -0.8961 C   0  0  0  0  0  0  0  0  0  0  0  0
    1.4071    0.4798   -1.3152 C   0  0  2  0  0  0  0  0  0  0  0  0
    0.5026    0.0410   -2.4851 C   0  0  0  0  0  0  0  0  0  0  0  0
   -3.3341   -2.1512    0.2780 C   0  0  0  0  0  0  0  0  0  0  0  0
   -3.1408   -0.1357    1.7819 C   0  0  0  0  0  0  0  0  0  0  0  0
   -3.7946   -1.5032    1.5776 C   0  0  0  0  0  0  0  0  0  0  0  0
    2.0661   -0.6108   -0.4811 C   0  0  0  0  0  0  0  0  0  0  0  0
   -4.6553    1.3344    0.5860 C   0  0  0  0  0  0  0  0  0  0  0  0
    1.3958    2.3704    0.3716 C   0  0  0  0  0  0  0  0  0  0  0  0
    3.0951   -0.2533    0.4195 C   0  0  0  0  0  0  0  0  0  0  0  0
    1.7066   -1.9646   -0.5766 C   0  0  0  0  0  0  0  0  0  0  0  0
    2.8750    2.2555    0.4921 C   0  0  0  0  0  0  0  0  0  0  0  0
    3.5917    1.1253    0.5444 C   0  0  0  0  0  0  0  0  0  0  0  0
    3.7358   -1.2450    1.1813 C   0  0  0  0  0  0  0  0  0  0  0  0
    2.3404   -2.9387    0.1980 C   0  0  0  0  0  0  0  0  0  0  0  0
    3.3542   -2.5799    1.0766 C   0  0  0  0  0  0  0  0  0  0  0  0
   -0.9645   -0.5441    0.0297 H   0  0  0  0  0  0  0  0  0  0  0  0
   -3.2277    0.8541   -1.4467 H   0  0  0  0  0  0  0  0  0  0  0  0
   -1.5950   -0.0784   -2.8917 H   0  0  0  0  0  0  0  0  0  0  0  0
   -0.9565   -1.4962   -2.0894 H   0  0  0  0  0  0  0  0  0  0  0  0
   -1.0074    2.2167   -1.2779 H   0  0  0  0  0  0  0  0  0  0  0  0
   -1.0927    1.9471    0.4607 H   0  0  0  0  0  0  0  0  0  0  0  0
   -3.1434   -1.6588   -1.8138 H   0  0  0  0  0  0  0  0  0  0  0  0
   -4.5934   -1.0642   -1.0642 H   0  0  0  0  0  0  0  0  0  0  0  0
    2.2329    1.0206   -1.8005 H   0  0  0  0  0  0  0  0  0  0  0  0
    0.9859   -0.7291   -3.0982 H   0  0  0  0  0  0  0  0  0  0  0  0
    0.3891    0.9114   -3.1479 H   0  0  0  0  0  0  0  0  0  0  0  0
   -2.2817   -2.4456    0.3629 H   0  0  0  0  0  0  0  0  0  0  0  0
   -3.9045   -3.0699    0.1002 H   0  0  0  0  0  0  0  0  0  0  0  0
   -3.5334    0.3236    2.6979 H   0  0  0  0  0  0  0  0  0  0  0  0
   -2.0711   -0.2783    1.9779 H   0  0  0  0  0  0  0  0  0  0  0  0
   -4.8863   -1.4010    1.5709 H   0  0  0  0  0  0  0  0  0  0  0  0
   -3.5467   -2.1579    2.4210 H   0  0  0  0  0  0  0  0  0  0  0  0
   -4.9061    1.8413    1.5246 H   0  0  0  0  0  0  0  0  0  0  0  0
   -5.4198    0.5751    0.3946 H   0  0  0  0  0  0  0  0  0  0  0  0
   -4.7253    2.0948   -0.2000 H   0  0  0  0  0  0  0  0  0  0  0  0
    0.9329   -2.2985   -1.2585 H   0  0  0  0  0  0  0  0  0  0  0  0
    3.3910    3.1995    0.6527 H   0  0  0  0  0  0  0  0  0  0  0  0
    4.6631    1.2173    0.7139 H   0  0  0  0  0  0  0  0  0  0  0  0
    4.5397   -0.9845    1.8669 H   0  0  0  0  0  0  0  0  0  0  0  0
    2.0434   -3.9796    0.1073 H   0  0  0  0  0  0  0  0  0  0  0  0
    3.8521   -3.3374    1.6743 H   0  0  0  0  0  0  0  0  0  0  0  0
  1 16  2  0  0  0  0
  2  5  1  0  0  0  0
  2 12  1  0  0  0  0
  2 15  1  0  0  0  0
  3  7  1  0  0  0  0
  3  9  1  0  0  0  0
  3 16  1  0  0  0  0
  4  5  1  0  0  0  0
  4  6  1  0  0  0  0
  4  7  1  0  0  0  0
  4 24  1  0  0  0  0
  5  8  1  0  0  0  0
  5 25  1  0  0  0  0
  6 10  1  0  0  0  0
  6 26  1  0  0  0  0
  6 27  1  0  0  0  0
  7 28  1  0  0  0  0
  7 29  1  0  0  0  0
  8 11  1  0  0  0  0
  8 30  1  0  0  0  0
  8 31  1  0  0  0  0
  9 10  1  0  0  0  0
  9 14  1  0  0  0  0
  9 32  1  0  0  0  0
 10 33  1  0  0  0  0
 10 34  1  0  0  0  0
 11 13  1  0  0  0  0
 11 35  1  0  0  0  0
 11 36  1  0  0  0  0
 12 13  1  0  0  0  0
 12 37  1  0  0  0  0
 12 38  1  0  0  0  0
 13 39  1  0  0  0  0
 13 40  1  0  0  0  0
 14 17  1  0  0  0  0
 14 18  2  0  0  0  0
 15 41  1  0  0  0  0
 15 42  1  0  0  0  0
 15 43  1  0  0  0  0
 16 19  1  0  0  0  0
 17 20  1  0  0  0  0
 17 21  2  0  0  0  0
 18 22  1  0  0  0  0
 18 44  1  0  0  0  0
 19 20  2  0  0  0  0
 19 45  1  0  0  0  0
 20 46  1  0  0  0  0
 21 23  1  0  0  0  0
 21 47  1  0  0  0  0
 22 23  2  0  0  0  0
 22 48  1  0  0  0  0
 23 49  1  0  0  0  0
M  END
> <PUBCHEM_COMPOUND_CID>
442626

> <PUBCHEM_CONFORMER_RMSD>
0.6

> <PUBCHEM_CONFORMER_DIVERSEORDER>
3
8
4
7
9
6
1
5
10
2

> <PUBCHEM_MMFF94_PARTIAL_CHARGES>
23
1 -0.57
12 0.27
14 -0.14
15 0.27
16 0.62
17 0.03
18 -0.15
19 -0.14
2 -0.81
20 -0.18
21 -0.15
22 -0.15
23 -0.15
3 -0.66
44 0.15
45 0.15
46 0.15
47 0.15
48 0.15
49 0.15
5 0.27
7 0.3
9 0.44

> <PUBCHEM_EFFECTIVE_ROTOR_COUNT>
3

> <PUBCHEM_PHARMACOPHORE_FEATURES>
6
1 1 acceptor
1 2 cation
6 14 17 18 21 22 23 rings
6 2 5 8 11 12 13 rings
6 3 4 6 7 9 10 rings
7 3 9 14 16 17 19 20 rings

> <PUBCHEM_HEAVY_ATOM_COUNT>
23

> <PUBCHEM_ATOM_DEF_STEREO_COUNT>
3

> <PUBCHEM_ATOM_UDEF_STEREO_COUNT>
0

> <PUBCHEM_BOND_DEF_STEREO_COUNT>
0

> <PUBCHEM_BOND_UDEF_STEREO_COUNT>
0

> <PUBCHEM_ISOTOPIC_ATOM_COUNT>
0

> <PUBCHEM_COMPONENT_COUNT>
1

> <PUBCHEM_CACTVS_TAUTO_COUNT>
1

> <PUBCHEM_CONFORMER_ID>
0006C10200000003

> <PUBCHEM_MMFF94_ENERGY>
66.9023

> <PUBCHEM_FEATURE_SELFOVERLAP>
30.468

> <PUBCHEM_SHAPE_FINGERPRINT>
10064457 181 18125434212053443778
10366900 7 18342458093165281925
10498660 4 5906048102285014851
10871710 139 7557944600636455738
1100329 8 16036062442183453401
11221954 11 6194546836266881698
11578080 2 17988934408599130317
12202030 40 17703798019549599415
12363563 72 15984829190258803415
12403259 327 18410846694680152989
12506688 2 18271246122517002034
12553582 1 18264488562586207374
12633257 1 18337955696187003947
12670546 177 8790591603321048761
12892183 10 18410292467531250089
13224815 77 17846775174594484111
13533116 47 18412263901002744891
13544653 18 18202286939350825526
13583140 156 18337679607410583869
13965767 371 17313374694769297152
14178342 30 18199177387597606931
14223421 5 18412268358466356012
14787075 74 16745656911417282111
14790565 3 18194965132988457048
14955137 171 18187366571626687514
1813 80 16630519644359599909
18186145 218 5617260342008831398
20691752 17 16343985797274719427
20715895 44 17534899990626134129
20739085 24 18409735045628331384
20775530 9 17342949457650390578
21421861 104 18338222881839396872
21427221 339 17967527999590304082
21756936 100 17755020792345644292
23559900 14 18059862757034665276
3797600 57 17316189242815404235
392239 28 17687185287965369179
5281201 14 8790892886444166705
7097593 13 18408885131238871575
8509985 295 18265604563105265353
8988823 20 18336544894631795655

> <PUBCHEM_SHAPE_MULTIPOLES>
457.5
7.94
3.11
1.75
4.78
0.05
0.64
-2.21
-3.67
-2.21
-1.1
0.59
-0.17
-0.05

> <PUBCHEM_SHAPE_SELFOVERLAP>
978.763

> <PUBCHEM_SHAPE_VOLUME>
249.6

> <PUBCHEM_COORDINATE_TYPE>
2
5
10

$$$$

