128834
  -OEChem-07051212563D

 33 35  0     0  0  0  0  0  0999 V2000
    0.2926    1.7421    0.1571 O   0  0  0  0  0  0  0  0  0  0  0  0
   -4.4567    0.8597   -0.1034 O   0  0  0  0  0  0  0  0  0  0  0  0
    2.5467    2.0817    0.2744 O   0  0  0  0  0  0  0  0  0  0  0  0
    3.2328   -0.6617    0.2885 C   0  0  0  0  0  0  0  0  0  0  0  0
    1.8166   -0.1771    0.2189 C   0  0  0  0  0  0  0  0  0  0  0  0
    3.8680   -0.1634    1.6022 C   0  0  0  0  0  0  0  0  0  0  0  0
    3.2342   -2.2034    0.2962 C   0  0  0  0  0  0  0  0  0  0  0  0
    0.7742   -1.0161    0.1564 C   0  0  0  0  0  0  0  0  0  0  0  0
   -0.5915   -0.5202    0.0890 C   0  0  0  0  0  0  0  0  0  0  0  0
    4.1034   -0.1903   -0.8703 C   0  0  0  0  0  0  0  0  0  0  0  0
   -0.8049    0.8558    0.0910 C   0  0  0  0  0  0  0  0  0  0  0  0
    1.6085    1.2933    0.2208 C   0  0  0  0  0  0  0  0  0  0  0  0
   -1.6870   -1.3957    0.0221 C   0  0  0  0  0  0  0  0  0  0  0  0
   -2.9864   -0.8549   -0.0417 C   0  0  0  0  0  0  0  0  0  0  0  0
   -3.1362    0.5287   -0.0362 C   0  0  0  0  0  0  0  0  0  0  0  0
   -2.0774    1.4308    0.0291 C   0  0  0  0  0  0  0  0  0  0  0  0
   -4.3018   -1.3847   -0.1173 C   0  0  0  0  0  0  0  0  0  0  0  0
    3.7185    0.0809   -2.1245 C   0  0  0  0  0  0  0  0  0  0  0  0
   -5.1537   -0.3052   -0.1522 C   0  0  0  0  0  0  0  0  0  0  0  0
    4.1052    0.9051    1.6003 H   0  0  0  0  0  0  0  0  0  0  0  0
    4.8154   -0.6826    1.7974 H   0  0  0  0  0  0  0  0  0  0  0  0
    3.2163   -0.3605    2.4625 H   0  0  0  0  0  0  0  0  0  0  0  0
    4.2653   -2.5785    0.3593 H   0  0  0  0  0  0  0  0  0  0  0  0
    2.8210   -2.6367   -0.6236 H   0  0  0  0  0  0  0  0  0  0  0  0
    2.7162   -2.6234    1.1674 H   0  0  0  0  0  0  0  0  0  0  0  0
    0.8541   -2.0955    0.1492 H   0  0  0  0  0  0  0  0  0  0  0  0
    5.1722   -0.1229   -0.6684 H   0  0  0  0  0  0  0  0  0  0  0  0
   -1.5456   -2.4733    0.0189 H   0  0  0  0  0  0  0  0  0  0  0  0
   -2.2334    2.5025    0.0311 H   0  0  0  0  0  0  0  0  0  0  0  0
   -4.5922   -2.4254   -0.1432 H   0  0  0  0  0  0  0  0  0  0  0  0
    4.4500    0.3818   -2.8670 H   0  0  0  0  0  0  0  0  0  0  0  0
    2.6848    0.0028   -2.4407 H   0  0  0  0  0  0  0  0  0  0  0  0
   -6.2276   -0.2040   -0.2086 H   0  0  0  0  0  0  0  0  0  0  0  0
  1 11  1  0  0  0  0
  1 12  1  0  0  0  0
  2 15  1  0  0  0  0
  2 19  1  0  0  0  0
  3 12  2  0  0  0  0
  4  5  1  0  0  0  0
  4  6  1  0  0  0  0
  4  7  1  0  0  0  0
  4 10  1  0  0  0  0
  5  8  2  0  0  0  0
  5 12  1  0  0  0  0
  6 20  1  0  0  0  0
  6 21  1  0  0  0  0
  6 22  1  0  0  0  0
  7 23  1  0  0  0  0
  7 24  1  0  0  0  0
  7 25  1  0  0  0  0
  8  9  1  0  0  0  0
  8 26  1  0  0  0  0
  9 11  2  0  0  0  0
  9 13  1  0  0  0  0
 10 18  2  0  0  0  0
 10 27  1  0  0  0  0
 11 16  1  0  0  0  0
 13 14  2  0  0  0  0
 13 28  1  0  0  0  0
 14 15  1  0  0  0  0
 14 17  1  0  0  0  0
 15 16  2  0  0  0  0
 16 29  1  0  0  0  0
 17 19  2  0  0  0  0
 17 30  1  0  0  0  0
 18 31  1  0  0  0  0
 18 32  1  0  0  0  0
 19 33  1  0  0  0  0
M  END
> <PUBCHEM_COMPOUND_CID>
128834

> <PUBCHEM_CONFORMER_RMSD>
0.6

> <PUBCHEM_CONFORMER_DIVERSEORDER>
1
6
2
5
4
3

> <PUBCHEM_MMFF94_PARTIAL_CHARGES>
24
1 -0.23
10 -0.29
11 0.08
12 0.71
13 -0.15
15 0.14
16 -0.15
17 -0.15
18 -0.3
19 -0.01
2 -0.28
26 0.15
27 0.15
28 0.15
29 0.15
3 -0.57
30 0.15
31 0.15
32 0.15
33 0.15
4 0.28
5 -0.12
8 -0.18
9 0.03

> <PUBCHEM_EFFECTIVE_ROTOR_COUNT>
2

> <PUBCHEM_PHARMACOPHORE_FEATURES>
7
1 18 hydrophobe
1 2 acceptor
1 3 acceptor
3 4 6 7 hydrophobe
5 2 14 15 17 19 rings
6 1 5 8 9 11 12 rings
6 9 11 13 14 15 16 rings

> <PUBCHEM_HEAVY_ATOM_COUNT>
19

> <PUBCHEM_ATOM_DEF_STEREO_COUNT>
0

> <PUBCHEM_ATOM_UDEF_STEREO_COUNT>
0

> <PUBCHEM_BOND_DEF_STEREO_COUNT>
0

> <PUBCHEM_BOND_UDEF_STEREO_COUNT>
0

> <PUBCHEM_ISOTOPIC_ATOM_COUNT>
0

> <PUBCHEM_COMPONENT_COUNT>
1

> <PUBCHEM_CACTVS_TAUTO_COUNT>
1

> <PUBCHEM_CONFORMER_ID>
0001F74200000001

> <PUBCHEM_MMFF94_ENERGY>
56.2293

> <PUBCHEM_FEATURE_SELFOVERLAP>
35.652

> <PUBCHEM_SHAPE_FINGERPRINT>
11132069 177 18334020488415758899
11543360 7 16343699898513257491
12032990 46 18408603669162913051
12236239 1 17917992793673351710
12616999 72 18273207608601613846
12670546 56 4750875892854152787
13140716 1 18266469697818955834
13221675 6 18412267254728501459
13533116 47 14056993953573814559
13675066 3 17458349636792911457
13760787 5 17846492660172111489
13862211 1 18409738348415912487
14115302 16 17917705799452844490
14252887 29 17603302661530011738
14866123 147 16963223337156546186
15196674 1 18410295779246291481
15536298 74 18261958453118097665
15848700 24 18334016090211057180
16752209 62 18337388339475616105
16945 1 18410009965967548544
17804303 29 18335419058732516705
18186145 218 18413112740668412893
200 152 18040161712631767335
20281475 54 18340485668015433392
20559304 39 18413111680080490186
20645477 70 18186799141009656772
21267235 1 18410005529577801907
21501925 9 18409177601215893608
221490 88 18269269071850938955
2255824 54 18271806766294576988
23175994 123 17095239220534300601
23402539 116 18261123980175608951
23463225 33 18410859871112348363
23559900 14 18335142020446512266
239999 70 18113334189943225820
2748010 2 18051126999850090266
3004659 81 18130787914647765610
3060560 45 17967810557405585342
3286 77 18343310279206962036
335352 9 18338238284045404629
474 4 16199288899218495412
4921388 177 15841258269376798019
4990 188 18187638111352395844
5104073 3 18410012092424630385
537710 114 18342453759622349436
542803 24 17275102843048926047
7164475 11 18058169608334150588
7364860 26 18189336775614377304
9709674 26 18266178331733035203
9981440 41 17404028020052525985

> <PUBCHEM_SHAPE_MULTIPOLES>
373.4
9.63
1.8
1.06
5.23
0.1
0.32
-1.78
1.07
-0.35
-0.18
-1.67
0.01
-0.2

> <PUBCHEM_SHAPE_SELFOVERLAP>
828.05

> <PUBCHEM_SHAPE_VOLUME>
201.4

> <PUBCHEM_COORDINATE_TYPE>
2
5
10

$$$$

