109865
  -OEChem-07051213133D

 25 25  0     0  0  0  0  0  0999 V2000
   -2.3206    3.6265    0.0043 Cl  0  0  0  0  0  0  0  0  0  0  0  0
    4.4860   -1.6325   -0.0107 O   0  0  0  0  0  0  0  0  0  0  0  0
    4.3839    0.6338    0.0186 O   0  0  0  0  0  0  0  0  0  0  0  0
   -2.6300   -1.3112   -0.0041 N   0  0  0  0  0  0  0  0  0  0  0  0
    1.6312    0.6494   -0.0034 N   0  0  0  0  0  0  0  0  0  0  0  0
   -0.4858   -0.3605   -0.0038 N   0  0  0  0  0  0  0  0  0  0  0  0
   -2.4443    1.0259   -0.0015 N   0  0  0  0  0  0  0  0  0  0  0  0
   -0.2644    2.0288   -0.0012 N   0  0  0  0  0  0  0  0  0  0  0  0
   -2.0988   -2.6382   -0.0055 C   0  0  0  0  0  0  0  0  0  0  0  0
   -1.8134   -0.1595   -0.0032 C   0  0  0  0  0  0  0  0  0  0  0  0
    0.2462    0.7766   -0.0028 C   0  0  0  0  0  0  0  0  0  0  0  0
    2.3219   -0.6080   -0.0049 C   0  0  0  0  0  0  0  0  0  0  0  0
   -3.2265   -3.6522    0.0161 C   0  0  0  0  0  0  0  0  0  0  0  0
   -1.6064    2.0752   -0.0007 C   0  0  0  0  0  0  0  0  0  0  0  0
    3.8210   -0.4540    0.0029 C   0  0  0  0  0  0  0  0  0  0  0  0
   -1.4871   -2.8041   -0.8999 H   0  0  0  0  0  0  0  0  0  0  0  0
   -1.4623   -2.7969    0.8727 H   0  0  0  0  0  0  0  0  0  0  0  0
   -3.6315   -1.1550   -0.0055 H   0  0  0  0  0  0  0  0  0  0  0  0
    2.0548   -1.1776   -0.9022 H   0  0  0  0  0  0  0  0  0  0  0  0
    2.0471   -1.1851    0.8852 H   0  0  0  0  0  0  0  0  0  0  0  0
    2.1650    1.5112   -0.0036 H   0  0  0  0  0  0  0  0  0  0  0  0
   -3.8486   -3.5305    0.9093 H   0  0  0  0  0  0  0  0  0  0  0  0
   -3.8741   -3.5398   -0.8602 H   0  0  0  0  0  0  0  0  0  0  0  0
   -2.8251   -4.6703    0.0156 H   0  0  0  0  0  0  0  0  0  0  0  0
    5.4587   -1.5055   -0.0061 H   0  0  0  0  0  0  0  0  0  0  0  0
  1 14  1  0  0  0  0
  2 15  1  0  0  0  0
  2 25  1  0  0  0  0
  3 15  2  0  0  0  0
  4  9  1  0  0  0  0
  4 10  1  0  0  0  0
  4 18  1  0  0  0  0
  5 11  1  0  0  0  0
  5 12  1  0  0  0  0
  5 21  1  0  0  0  0
  6 10  2  0  0  0  0
  6 11  1  0  0  0  0
  7 10  1  0  0  0  0
  7 14  2  0  0  0  0
  8 11  2  0  0  0  0
  8 14  1  0  0  0  0
  9 13  1  0  0  0  0
  9 16  1  0  0  0  0
  9 17  1  0  0  0  0
 12 15  1  0  0  0  0
 12 19  1  0  0  0  0
 12 20  1  0  0  0  0
 13 22  1  0  0  0  0
 13 23  1  0  0  0  0
 13 24  1  0  0  0  0
M  END
> <PUBCHEM_COMPOUND_CID>
109865

> <PUBCHEM_CONFORMER_RMSD>
0.6

> <PUBCHEM_CONFORMER_DIVERSEORDER>
1
27
60
67
55
63
48
3
13
14
61
71
28
24
35
72
2
69
18
31
50
33
49
74
73
75
56
51
57
47
62
41
6
12
23
43
38
20
4
76
54
65
39
40
68
44
30
58
64
70
16
37
10
36
29
46
52
25
22
11
7
53
8
17
5
45
32
59
9
66
42
15
77
21
19
26
34

> <PUBCHEM_MMFF94_PARTIAL_CHARGES>
17
1 -0.18
10 0.72
11 0.72
12 0.43
14 0.8
15 0.66
18 0.4
2 -0.65
21 0.4
25 0.5
3 -0.57
4 -0.87
5 -0.87
6 -0.62
7 -0.62
8 -0.62
9 0.37

> <PUBCHEM_EFFECTIVE_ROTOR_COUNT>
5

> <PUBCHEM_PHARMACOPHORE_FEATURES>
8
1 2 acceptor
1 3 acceptor
1 4 donor
1 5 donor
3 2 3 15 anion
4 4 6 7 10 cation
4 5 6 8 11 cation
6 6 7 8 10 11 14 rings

> <PUBCHEM_HEAVY_ATOM_COUNT>
15

> <PUBCHEM_ATOM_DEF_STEREO_COUNT>
0

> <PUBCHEM_ATOM_UDEF_STEREO_COUNT>
0

> <PUBCHEM_BOND_DEF_STEREO_COUNT>
0

> <PUBCHEM_BOND_UDEF_STEREO_COUNT>
0

> <PUBCHEM_ISOTOPIC_ATOM_COUNT>
0

> <PUBCHEM_COMPONENT_COUNT>
1

> <PUBCHEM_CACTVS_TAUTO_COUNT>
9

> <PUBCHEM_CONFORMER_ID>
0001AD2900000001

> <PUBCHEM_MMFF94_ENERGY>
32.3756

> <PUBCHEM_FEATURE_SELFOVERLAP>
40.696

> <PUBCHEM_SHAPE_FINGERPRINT>
10616163 171 18410009966311076486
11357001 24 18411697694957503227
12500047 106 18266464402440686584
12553582 1 18122893248929268391
12757275 245 18410854395414408174
12841375 25 18195247702780310403
13955234 65 17184181744215891635
15042514 8 18411693288621809371
17539 30 18336840727298724095
20510252 161 18116994588274224905
20524608 308 18337953509905971929
20645477 70 17404316096768542255
20671657 53 18048876299833291575
20871998 184 18187081736999419878
20871998 22 18049726217883735139
21426921 1 18410854365328304220
21452121 199 18052831251267976817
21665056 4 18195250146452807839
23402539 116 18334867159988697125
23557571 272 18187638137671183036
23559900 14 18117846714871489370
257057 1 18194121815847702677
2748010 2 18119826711352491197
3091708 16 9347487658594048625
3421961 26 17833548994848114107
474229 33 18267862977337644857
54173680 148 18410575076299997645
7364860 26 17473544651360461513
77188 2 18122343476383468885
9709674 26 18261672692186278886

> <PUBCHEM_SHAPE_MULTIPOLES>
273.92
7.08
4.18
0.58
10.22
0.25
0
3.82
-0.02
-6.46
-0.01
-0.05
-0.01
0.01

> <PUBCHEM_SHAPE_SELFOVERLAP>
542.901

> <PUBCHEM_SHAPE_VOLUME>
161.5

> <PUBCHEM_COORDINATE_TYPE>
2
5
10

$$$$

