439901
  -OEChem-07051212482D

 31 33  0     0  0  0  0  0  0999 V2000
    7.1962    1.7327    0.0000 O   0  0  0  0  0  0  0  0  0  0  0  0
    7.1962   -1.2673    0.0000 O   0  0  0  0  0  0  0  0  0  0  0  0
    2.8660   -1.7673    0.0000 O   0  0  0  0  0  0  0  0  0  0  0  0
    6.3301    0.2327    0.0000 C   0  0  0  0  0  0  0  0  0  0  0  0
    8.0622    0.2327    0.0000 C   0  0  0  0  0  0  0  0  0  0  0  0
    5.4641   -0.2673    0.0000 C   0  0  0  0  0  0  0  0  0  0  0  0
    7.1962   -0.2673    0.0000 C   0  0  0  0  0  0  0  0  0  0  0  0
    8.0622    1.2327    0.0000 C   0  0  0  0  0  0  0  0  0  0  0  0
    6.3301    1.2327    0.0000 C   0  0  0  0  0  0  0  0  0  0  0  0
    4.5981    0.2327    0.0000 C   0  0  0  0  0  0  0  0  0  0  0  0
    5.4641   -1.2673    0.0000 C   0  0  0  0  0  0  0  0  0  0  0  0
    8.9561   -0.3020    0.0000 C   0  0  0  0  0  0  0  0  0  0  0  0
    8.9561    1.7673    0.0000 C   0  0  0  0  0  0  0  0  0  0  0  0
    3.7320   -0.2673    0.0000 C   0  0  0  0  0  0  0  0  0  0  0  0
    4.5981   -1.7673    0.0000 C   0  0  0  0  0  0  0  0  0  0  0  0
    3.7320   -1.2673    0.0000 C   0  0  0  0  0  0  0  0  0  0  0  0
    9.8622    0.2119    0.0000 C   0  0  0  0  0  0  0  0  0  0  0  0
    9.8622    1.2535    0.0000 C   0  0  0  0  0  0  0  0  0  0  0  0
    2.0000   -1.2673    0.0000 C   0  0  0  0  0  0  0  0  0  0  0  0
    5.7932    1.5427    0.0000 H   0  0  0  0  0  0  0  0  0  0  0  0
    4.5981    0.8527    0.0000 H   0  0  0  0  0  0  0  0  0  0  0  0
    6.0010   -1.5773    0.0000 H   0  0  0  0  0  0  0  0  0  0  0  0
    8.9490   -0.9220    0.0000 H   0  0  0  0  0  0  0  0  0  0  0  0
    8.9490    2.3873    0.0000 H   0  0  0  0  0  0  0  0  0  0  0  0
    3.1951    0.0427    0.0000 H   0  0  0  0  0  0  0  0  0  0  0  0
    4.5981   -2.3873    0.0000 H   0  0  0  0  0  0  0  0  0  0  0  0
   10.3979   -0.1002    0.0000 H   0  0  0  0  0  0  0  0  0  0  0  0
   10.3979    1.5656    0.0000 H   0  0  0  0  0  0  0  0  0  0  0  0
    2.3100   -0.7304    0.0000 H   0  0  0  0  0  0  0  0  0  0  0  0
    1.4631   -0.9573    0.0000 H   0  0  0  0  0  0  0  0  0  0  0  0
    1.6900   -1.8043    0.0000 H   0  0  0  0  0  0  0  0  0  0  0  0
  1  8  1  0  0  0  0
  1  9  1  0  0  0  0
  2  7  2  0  0  0  0
  3 16  1  0  0  0  0
  3 19  1  0  0  0  0
  4  6  1  0  0  0  0
  4  7  1  0  0  0  0
  4  9  2  0  0  0  0
  5  7  1  0  0  0  0
  5  8  1  0  0  0  0
  5 12  2  0  0  0  0
  6 10  2  0  0  0  0
  6 11  1  0  0  0  0
  8 13  2  0  0  0  0
  9 20  1  0  0  0  0
 10 14  1  0  0  0  0
 10 21  1  0  0  0  0
 11 15  2  0  0  0  0
 11 22  1  0  0  0  0
 12 17  1  0  0  0  0
 12 23  1  0  0  0  0
 13 18  1  0  0  0  0
 13 24  1  0  0  0  0
 14 16  2  0  0  0  0
 14 25  1  0  0  0  0
 15 16  1  0  0  0  0
 15 26  1  0  0  0  0
 17 18  2  0  0  0  0
 17 27  1  0  0  0  0
 18 28  1  0  0  0  0
 19 29  1  0  0  0  0
 19 30  1  0  0  0  0
 19 31  1  0  0  0  0
M  END
> <PUBCHEM_COMPOUND_CID>
439901

> <PUBCHEM_COMPOUND_CANONICALIZED>
1

> <PUBCHEM_CACTVS_COMPLEXITY>
366

> <PUBCHEM_CACTVS_HBOND_ACCEPTOR>
3

> <PUBCHEM_CACTVS_HBOND_DONOR>
0

> <PUBCHEM_CACTVS_ROTATABLE_BOND>
2

> <PUBCHEM_CACTVS_SUBSKEYS>
AAADccB4MAAAAAAAAAAAAAAAAAAAAAAAAAAwYIAAAAAAAACBQAAAGgAAAAAADASgmAIyBoAABACIAqBSAAACCAAkIAAIiAEGCMgMJjaENRqAMWAk4BEIqYeIyPCOIAAAAAAIAABAAAAAABAAAAAAAAAAAA==

> <PUBCHEM_IUPAC_OPENEYE_NAME>
3-(4-methoxyphenyl)chromen-4-one

> <PUBCHEM_IUPAC_CAS_NAME>
3-(4-methoxyphenyl)-1-benzopyran-4-one

> <PUBCHEM_IUPAC_NAME>
3-(4-methoxyphenyl)chromen-4-one

> <PUBCHEM_IUPAC_SYSTEMATIC_NAME>
3-(4-methoxyphenyl)chromen-4-one

> <PUBCHEM_IUPAC_TRADITIONAL_NAME>
3-(4-methoxyphenyl)chromone

> <PUBCHEM_IUPAC_INCHI>
InChI=1S/C16H12O3/c1-18-12-8-6-11(7-9-12)14-10-19-15-5-3-2-4-13(15)16(14)17/h2-10H,1H3

> <PUBCHEM_IUPAC_INCHIKEY>
RIKPNWPEMPODJD-UHFFFAOYSA-N

> <PUBCHEM_XLOGP3_AA>
3.2

> <PUBCHEM_EXACT_MASS>
252.078644

> <PUBCHEM_MOLECULAR_FORMULA>
C16H12O3

> <PUBCHEM_MOLECULAR_WEIGHT>
252.26468

> <PUBCHEM_OPENEYE_CAN_SMILES>
COC1=CC=C(C=C1)C2=COC3=CC=CC=C3C2=O

> <PUBCHEM_OPENEYE_ISO_SMILES>
COC1=CC=C(C=C1)C2=COC3=CC=CC=C3C2=O

> <PUBCHEM_CACTVS_TPSA>
35.5

> <PUBCHEM_MONOISOTOPIC_WEIGHT>
252.078644

> <PUBCHEM_TOTAL_CHARGE>
0

> <PUBCHEM_HEAVY_ATOM_COUNT>
19

> <PUBCHEM_ATOM_DEF_STEREO_COUNT>
0

> <PUBCHEM_ATOM_UDEF_STEREO_COUNT>
0

> <PUBCHEM_BOND_DEF_STEREO_COUNT>
0

> <PUBCHEM_BOND_UDEF_STEREO_COUNT>
0

> <PUBCHEM_ISOTOPIC_ATOM_COUNT>
0

> <PUBCHEM_COMPONENT_COUNT>
1

> <PUBCHEM_CACTVS_TAUTO_COUNT>
1

> <PUBCHEM_COORDINATE_TYPE>
1
5
255

> <PUBCHEM_BONDANNOTATIONS>
1  8  8
1  9  8
10  14  8
11  15  8
12  17  8
13  18  8
14  16  8
15  16  8
17  18  8
4  7  8
4  9  8
5  12  8
5  7  8
5  8  8
6  10  8
6  11  8
8  13  8

$$$$

