11685
  -OEChem-06261205592D

 24 23  0     1  0  0  0  0  0999 V2000
    2.6340   -0.8170    0.0000 O   0  0  0  0  0  0  0  0  0  0  0  0
    3.5000   -0.3170    0.0000 C   0  0  3  0  0  0  0  0  0  0  0  0
    4.3660    0.1830    0.0000 C   0  0  0  0  0  0  0  0  0  0  0  0
    3.0000    0.5490    0.0000 C   0  0  0  0  0  0  0  0  0  0  0  0
    4.0000   -1.1830    0.0000 C   0  0  0  0  0  0  0  0  0  0  0  0
    5.2320   -0.3170    0.0000 C   0  0  0  0  0  0  0  0  0  0  0  0
    4.3660    1.1830    0.0000 C   0  0  0  0  0  0  0  0  0  0  0  0
    2.0000    0.5490    0.0000 C   0  0  0  0  0  0  0  0  0  0  0  0
    4.3660   -0.4370    0.0000 H   0  0  0  0  0  0  0  0  0  0  0  0
    3.5826    0.7611    0.0000 H   0  0  0  0  0  0  0  0  0  0  0  0
    2.8923    1.1596    0.0000 H   0  0  0  0  0  0  0  0  0  0  0  0
    3.4631   -1.4930    0.0000 H   0  0  0  0  0  0  0  0  0  0  0  0
    4.3100   -1.7200    0.0000 H   0  0  0  0  0  0  0  0  0  0  0  0
    4.5369   -0.8730    0.0000 H   0  0  0  0  0  0  0  0  0  0  0  0
    4.9220   -0.8539    0.0000 H   0  0  0  0  0  0  0  0  0  0  0  0
    5.7690   -0.6270    0.0000 H   0  0  0  0  0  0  0  0  0  0  0  0
    5.5420    0.2199    0.0000 H   0  0  0  0  0  0  0  0  0  0  0  0
    4.9860    1.1830    0.0000 H   0  0  0  0  0  0  0  0  0  0  0  0
    4.3660    1.8030    0.0000 H   0  0  0  0  0  0  0  0  0  0  0  0
    3.7460    1.1830    0.0000 H   0  0  0  0  0  0  0  0  0  0  0  0
    2.0000    1.1690    0.0000 H   0  0  0  0  0  0  0  0  0  0  0  0
    1.3800    0.5490    0.0000 H   0  0  0  0  0  0  0  0  0  0  0  0
    2.0000   -0.0710    0.0000 H   0  0  0  0  0  0  0  0  0  0  0  0
    2.0970   -0.5070    0.0000 H   0  0  0  0  0  0  0  0  0  0  0  0
  1  2  1  0  0  0  0
  1 24  1  0  0  0  0
  2  3  1  0  0  0  0
  2  4  1  0  0  0  0
  2  5  1  0  0  0  0
  3  6  1  0  0  0  0
  3  7  1  0  0  0  0
  3  9  1  0  0  0  0
  4  8  1  0  0  0  0
  4 10  1  0  0  0  0
  4 11  1  0  0  0  0
  5 12  1  0  0  0  0
  5 13  1  0  0  0  0
  5 14  1  0  0  0  0
  6 15  1  0  0  0  0
  6 16  1  0  0  0  0
  6 17  1  0  0  0  0
  7 18  1  0  0  0  0
  7 19  1  0  0  0  0
  7 20  1  0  0  0  0
  8 21  1  0  0  0  0
  8 22  1  0  0  0  0
  8 23  1  0  0  0  0
M  END
> <PUBCHEM_COMPOUND_CID>
11685

> <PUBCHEM_COMPOUND_CANONICALIZED>
1

> <PUBCHEM_CACTVS_COMPLEXITY>
68.8

> <PUBCHEM_CACTVS_HBOND_ACCEPTOR>
1

> <PUBCHEM_CACTVS_HBOND_DONOR>
1

> <PUBCHEM_CACTVS_ROTATABLE_BOND>
2

> <PUBCHEM_CACTVS_SUBSKEYS>
AAADceBgIAAAAAAAAAAAAAAAAAAAAAAAAAAAAAAAAAAAAAAAAAAAGgAACAAADUSAgAACAAAAAgAAAAAAAAAAAAAAAAAAAAAAAAAAAAIAAAAAQAAAAAAAAAAAAAAOgAAAAAAAAAAAAAAAAAAAAAAAAAAAAA==

> <PUBCHEM_IUPAC_OPENEYE_NAME>
2,3-dimethylpentan-3-ol

> <PUBCHEM_IUPAC_CAS_NAME>
2,3-dimethyl-3-pentanol

> <PUBCHEM_IUPAC_NAME>
2,3-dimethylpentan-3-ol

> <PUBCHEM_IUPAC_SYSTEMATIC_NAME>
2,3-dimethylpentan-3-ol

> <PUBCHEM_IUPAC_TRADITIONAL_NAME>
2,3-dimethylpentan-3-ol

> <PUBCHEM_IUPAC_INCHI>
InChI=1S/C7H16O/c1-5-7(4,8)6(2)3/h6,8H,5H2,1-4H3

> <PUBCHEM_IUPAC_INCHIKEY>
RFZHJHSNHYIRNE-UHFFFAOYSA-N

> <PUBCHEM_XLOGP3_AA>
2

> <PUBCHEM_EXACT_MASS>
116.120115

> <PUBCHEM_MOLECULAR_FORMULA>
C7H16O

> <PUBCHEM_MOLECULAR_WEIGHT>
116.20134

> <PUBCHEM_OPENEYE_CAN_SMILES>
CCC(C)(C(C)C)O

> <PUBCHEM_OPENEYE_ISO_SMILES>
CCC(C)(C(C)C)O

> <PUBCHEM_CACTVS_TPSA>
20.2

> <PUBCHEM_MONOISOTOPIC_WEIGHT>
116.120115

> <PUBCHEM_TOTAL_CHARGE>
0

> <PUBCHEM_HEAVY_ATOM_COUNT>
8

> <PUBCHEM_ATOM_DEF_STEREO_COUNT>
0

> <PUBCHEM_ATOM_UDEF_STEREO_COUNT>
1

> <PUBCHEM_BOND_DEF_STEREO_COUNT>
0

> <PUBCHEM_BOND_UDEF_STEREO_COUNT>
0

> <PUBCHEM_ISOTOPIC_ATOM_COUNT>
0

> <PUBCHEM_COMPONENT_COUNT>
1

> <PUBCHEM_CACTVS_TAUTO_COUNT>
1

> <PUBCHEM_COORDINATE_TYPE>
1
5
255

> <PUBCHEM_BONDANNOTATIONS>
2  1  3

$$$$

