5282067
  -OEChem-07051213022D

 70 74  0     1  0  0  0  0  0999 V2000
    6.0010    1.2500    0.0000 O   0  0  0  0  0  0  0  0  0  0  0  0
    5.1350    2.7500    0.0000 O   0  0  0  0  0  0  0  0  0  0  0  0
    5.1350   -1.2500    0.0000 O   0  0  0  0  0  0  0  0  0  0  0  0
    3.4030   -0.2500    0.0000 O   0  0  0  0  0  0  0  0  0  0  0  0
    3.4030    1.7500    0.0000 O   0  0  0  0  0  0  0  0  0  0  0  0
    6.8671   -1.2500    0.0000 O   0  0  0  0  0  0  0  0  0  0  0  0
    6.8671    4.7500    0.0000 O   0  3  0  0  0  0  0  0  0  0  0  0
    8.5991   -1.2500    0.0000 O   0  0  0  0  0  0  0  0  0  0  0  0
    8.6155    1.7154    0.0000 O   0  0  0  0  0  0  0  0  0  0  0  0
   10.3972    4.7742    0.0000 O   0  0  0  0  0  0  0  0  0  0  0  0
    4.2690    7.2500    0.0000 O   0  0  0  0  0  0  0  0  0  0  0  0
    2.5369    6.2500    0.0000 O   0  0  0  0  0  0  0  0  0  0  0  0
    8.5991   -7.2500    0.0000 O   0  0  0  0  0  0  0  0  0  0  0  0
    5.1350   -0.2500    0.0000 C   0  0  1  0  0  0  0  0  0  0  0  0
    4.2690    0.2500    0.0000 C   0  0  1  0  0  0  0  0  0  0  0  0
    6.0010    0.2500    0.0000 C   0  0  1  0  0  0  0  0  0  0  0  0
    4.2690    1.2500    0.0000 C   0  0  2  0  0  0  0  0  0  0  0  0
    5.1350    1.7500    0.0000 C   0  0  1  0  0  0  0  0  0  0  0  0
    6.8671   -0.2500    0.0000 C   0  0  0  0  0  0  0  0  0  0  0  0
    6.0010    3.2500    0.0000 C   0  0  0  0  0  0  0  0  0  0  0  0
    6.0010    4.2500    0.0000 C   0  0  0  0  0  0  0  0  0  0  0  0
    6.8671    2.7500    0.0000 C   0  0  0  0  0  0  0  0  0  0  0  0
    7.7331    3.2500    0.0000 C   0  0  0  0  0  0  0  0  0  0  0  0
    7.7331   -1.7500    0.0000 C   0  0  0  0  0  0  0  0  0  0  0  0
    7.7331    4.2500    0.0000 C   0  0  0  0  0  0  0  0  0  0  0  0
    5.1350    4.7500    0.0000 C   0  0  0  0  0  0  0  0  0  0  0  0
    8.6270    2.7153    0.0000 C   0  0  0  0  0  0  0  0  0  0  0  0
    8.6270    4.7847    0.0000 C   0  0  0  0  0  0  0  0  0  0  0  0
    5.1350    5.7500    0.0000 C   0  0  0  0  0  0  0  0  0  0  0  0
    4.2690    4.2500    0.0000 C   0  0  0  0  0  0  0  0  0  0  0  0
    7.7331   -2.7500    0.0000 C   0  0  0  0  0  0  0  0  0  0  0  0
    9.5331    3.2292    0.0000 C   0  0  0  0  0  0  0  0  0  0  0  0
    9.5331    4.2708    0.0000 C   0  0  0  0  0  0  0  0  0  0  0  0
    4.2690    6.2500    0.0000 C   0  0  0  0  0  0  0  0  0  0  0  0
    3.4030    4.7500    0.0000 C   0  0  0  0  0  0  0  0  0  0  0  0
    3.4030    5.7500    0.0000 C   0  0  0  0  0  0  0  0  0  0  0  0
    8.5991   -3.2500    0.0000 C   0  0  0  0  0  0  0  0  0  0  0  0
    8.5991   -4.2500    0.0000 C   0  0  0  0  0  0  0  0  0  0  0  0
    7.7331   -4.7500    0.0000 C   0  0  0  0  0  0  0  0  0  0  0  0
    9.4651   -4.7500    0.0000 C   0  0  0  0  0  0  0  0  0  0  0  0
    7.7331   -5.7500    0.0000 C   0  0  0  0  0  0  0  0  0  0  0  0
    9.4651   -5.7500    0.0000 C   0  0  0  0  0  0  0  0  0  0  0  0
    8.5991   -6.2500    0.0000 C   0  0  0  0  0  0  0  0  0  0  0  0
    5.6720   -0.5600    0.0000 H   0  0  0  0  0  0  0  0  0  0  0  0
    4.2690   -0.3700    0.0000 H   0  0  0  0  0  0  0  0  0  0  0  0
    6.5380    0.5600    0.0000 H   0  0  0  0  0  0  0  0  0  0  0  0
    4.2690    1.8700    0.0000 H   0  0  0  0  0  0  0  0  0  0  0  0
    4.5981    2.0600    0.0000 H   0  0  0  0  0  0  0  0  0  0  0  0
    7.4776   -0.3577    0.0000 H   0  0  0  0  0  0  0  0  0  0  0  0
    7.0791    0.3326    0.0000 H   0  0  0  0  0  0  0  0  0  0  0  0
    4.5981   -1.5600    0.0000 H   0  0  0  0  0  0  0  0  0  0  0  0
    3.4030   -0.8700    0.0000 H   0  0  0  0  0  0  0  0  0  0  0  0
    2.8660    1.4400    0.0000 H   0  0  0  0  0  0  0  0  0  0  0  0
    6.8671    2.1300    0.0000 H   0  0  0  0  0  0  0  0  0  0  0  0
    8.6199    5.4046    0.0000 H   0  0  0  0  0  0  0  0  0  0  0  0
    5.6720    6.0600    0.0000 H   0  0  0  0  0  0  0  0  0  0  0  0
    4.2690    3.6300    0.0000 H   0  0  0  0  0  0  0  0  0  0  0  0
    7.1962   -3.0600    0.0000 H   0  0  0  0  0  0  0  0  0  0  0  0
   10.0688    2.9171    0.0000 H   0  0  0  0  0  0  0  0  0  0  0  0
    2.8660    4.4400    0.0000 H   0  0  0  0  0  0  0  0  0  0  0  0
    9.1360   -2.9400    0.0000 H   0  0  0  0  0  0  0  0  0  0  0  0
    9.1488    1.3992    0.0000 H   0  0  0  0  0  0  0  0  0  0  0  0
   10.9353    4.4662    0.0000 H   0  0  0  0  0  0  0  0  0  0  0  0
    3.7320    7.5600    0.0000 H   0  0  0  0  0  0  0  0  0  0  0  0
    2.0000    5.9400    0.0000 H   0  0  0  0  0  0  0  0  0  0  0  0
    7.1962   -4.4400    0.0000 H   0  0  0  0  0  0  0  0  0  0  0  0
   10.0021   -4.4400    0.0000 H   0  0  0  0  0  0  0  0  0  0  0  0
    7.1962   -6.0600    0.0000 H   0  0  0  0  0  0  0  0  0  0  0  0
   10.0021   -6.0600    0.0000 H   0  0  0  0  0  0  0  0  0  0  0  0
    9.1360   -7.5600    0.0000 H   0  0  0  0  0  0  0  0  0  0  0  0
  1 16  1  0  0  0  0
  1 18  1  0  0  0  0
 18  2  1  6  0  0  0
  2 20  1  0  0  0  0
 14  3  1  1  0  0  0
  3 51  1  0  0  0  0
 15  4  1  6  0  0  0
  4 52  1  0  0  0  0
 17  5  1  1  0  0  0
  5 53  1  0  0  0  0
  6 19  1  0  0  0  0
  6 24  1  0  0  0  0
  7 21  2  0  0  0  0
  7 25  1  0  0  0  0
  8 24  2  0  0  0  0
  9 27  1  0  0  0  0
  9 62  1  0  0  0  0
 10 33  1  0  0  0  0
 10 63  1  0  0  0  0
 11 34  1  0  0  0  0
 11 64  1  0  0  0  0
 12 36  1  0  0  0  0
 12 65  1  0  0  0  0
 13 43  1  0  0  0  0
 13 70  1  0  0  0  0
 14 15  1  0  0  0  0
 14 16  1  0  0  0  0
 14 44  1  0  0  0  0
 15 17  1  0  0  0  0
 15 45  1  0  0  0  0
 16 19  1  6  0  0  0
 16 46  1  0  0  0  0
 17 18  1  0  0  0  0
 17 47  1  0  0  0  0
 18 48  1  0  0  0  0
 19 49  1  0  0  0  0
 19 50  1  0  0  0  0
 20 21  1  0  0  0  0
 20 22  2  0  0  0  0
 21 26  1  0  0  0  0
 22 23  1  0  0  0  0
 22 54  1  0  0  0  0
 23 25  1  0  0  0  0
 23 27  2  0  0  0  0
 24 31  1  0  0  0  0
 25 28  2  0  0  0  0
 26 29  2  0  0  0  0
 26 30  1  0  0  0  0
 27 32  1  0  0  0  0
 28 33  1  0  0  0  0
 28 55  1  0  0  0  0
 29 34  1  0  0  0  0
 29 56  1  0  0  0  0
 30 35  2  0  0  0  0
 30 57  1  0  0  0  0
 31 37  2  0  0  0  0
 31 58  1  0  0  0  0
 32 33  2  0  0  0  0
 32 59  1  0  0  0  0
 34 36  2  0  0  0  0
 35 36  1  0  0  0  0
 35 60  1  0  0  0  0
 37 38  1  0  0  0  0
 37 61  1  0  0  0  0
 38 39  2  0  0  0  0
 38 40  1  0  0  0  0
 39 41  1  0  0  0  0
 39 66  1  0  0  0  0
 40 42  2  0  0  0  0
 40 67  1  0  0  0  0
 41 43  2  0  0  0  0
 41 68  1  0  0  0  0
 42 43  1  0  0  0  0
 42 69  1  0  0  0  0
M  CHG  1   7   1
M  END
> <PUBCHEM_COMPOUND_CID>
5282067

> <PUBCHEM_COMPOUND_CANONICALIZED>
1

> <PUBCHEM_CACTVS_COMPLEXITY>
941

> <PUBCHEM_CACTVS_HBOND_ACCEPTOR>
12

> <PUBCHEM_CACTVS_HBOND_DONOR>
8

> <PUBCHEM_CACTVS_ROTATABLE_BOND>
8

> <PUBCHEM_CACTVS_SUBSKEYS>
AAADceB4PAAAAAAAAAAAAAAAAAAAAAAAAAA0aMECAAAAAACR9AAAGgAACAAADBSwmAMwDsAABkCIAqDSCAICCAAkIAAIiAFGiMgdNzaGNR6ieWOl4BUPuYfK7PzOIAABCAAIQABAAAIQABCAAAAAAAAAAA==

> <PUBCHEM_IUPAC_OPENEYE_NAME>
[(2R,3S,4S,5R,6S)-6-[2-(3,4-dihydroxyphenyl)-5,7-dihydroxy-chromenylium-3-yl]oxy-3,4,5-trihydroxy-tetrahydropyran-2-yl]methyl (E)-3-(4-hydroxyphenyl)prop-2-enoate

> <PUBCHEM_IUPAC_CAS_NAME>
(E)-3-(4-hydroxyphenyl)-2-propenoic acid [(2R,3S,4S,5R,6S)-6-[[2-(3,4-dihydroxyphenyl)-5,7-dihydroxy-1-benzopyrylium-3-yl]oxy]-3,4,5-trihydroxy-2-oxanyl]methyl ester

> <PUBCHEM_IUPAC_NAME>
[(2R,3S,4S,5R,6S)-6-[2-(3,4-dihydroxyphenyl)-5,7-dihydroxychromenylium-3-yl]oxy-3,4,5-trihydroxyoxan-2-yl]methyl (E)-3-(4-hydroxyphenyl)prop-2-enoate

> <PUBCHEM_IUPAC_SYSTEMATIC_NAME>
[(2R,3S,4S,5R,6S)-6-[2-[3,4-bis(oxidanyl)phenyl]-5,7-bis(oxidanyl)chromenylium-3-yl]oxy-3,4,5-tris(oxidanyl)oxan-2-yl]methyl (E)-3-(4-hydroxyphenyl)prop-2-enoate

> <PUBCHEM_IUPAC_TRADITIONAL_NAME>
(E)-3-(4-hydroxyphenyl)acrylic acid [(2R,3S,4S,5R,6S)-6-[[2-(3,4-dihydroxyphenyl)-5,7-dihydroxy-1-benzopyrylium-3-yl]oxy]-3,4,5-trihydroxy-tetrahydropyran-2-yl]methyl ester

> <PUBCHEM_IUPAC_INCHI>
InChI=1S/C30H26O13/c31-16-5-1-14(2-6-16)3-8-25(36)40-13-24-26(37)27(38)28(39)30(43-24)42-23-12-18-20(34)10-17(32)11-22(18)41-29(23)15-4-7-19(33)21(35)9-15/h1-12,24,26-28,30,37-39H,13H2,(H4-,31,32,33,34,35,36)/p+1/t24-,26-,27+,28-,30-/m1/s1

> <PUBCHEM_IUPAC_INCHIKEY>
QAOBEOXFSUJDJL-SHPGVJHPSA-O

> <PUBCHEM_EXACT_MASS>
595.145166

> <PUBCHEM_MOLECULAR_FORMULA>
C30H27O13+

> <PUBCHEM_MOLECULAR_WEIGHT>
595.52758

> <PUBCHEM_OPENEYE_CAN_SMILES>
C1=CC(=CC=C1C=CC(=O)OCC2C(C(C(C(O2)OC3=C([O+]=C4C=C(C=C(C4=C3)O)O)C5=CC(=C(C=C5)O)O)O)O)O)O

> <PUBCHEM_OPENEYE_ISO_SMILES>
C1=CC(=CC=C1/C=C/C(=O)OC[C@@H]2[C@H]([C@@H]([C@H]([C@@H](O2)OC3=C([O+]=C4C=C(C=C(C4=C3)O)O)C5=CC(=C(C=C5)O)O)O)O)O)O

> <PUBCHEM_CACTVS_TPSA>
208

> <PUBCHEM_MONOISOTOPIC_WEIGHT>
595.145166

> <PUBCHEM_TOTAL_CHARGE>
1

> <PUBCHEM_HEAVY_ATOM_COUNT>
43

> <PUBCHEM_ATOM_DEF_STEREO_COUNT>
5

> <PUBCHEM_ATOM_UDEF_STEREO_COUNT>
0

> <PUBCHEM_BOND_DEF_STEREO_COUNT>
1

> <PUBCHEM_BOND_UDEF_STEREO_COUNT>
0

> <PUBCHEM_ISOTOPIC_ATOM_COUNT>
0

> <PUBCHEM_COMPONENT_COUNT>
1

> <PUBCHEM_CACTVS_TAUTO_COUNT>
684

> <PUBCHEM_COORDINATE_TYPE>
1
5
255

> <PUBCHEM_BONDANNOTATIONS>
16  19  6
18  2  6
20  21  8
20  22  8
22  23  8
23  25  8
23  27  8
25  28  8
26  29  8
26  30  8
27  32  8
28  33  8
29  34  8
14  3  5
30  35  8
32  33  8
34  36  8
35  36  8
38  39  8
38  40  8
39  41  8
15  4  6
40  42  8
41  43  8
42  43  8
17  5  5
7  21  8
7  25  8

$$$$

