17395868
  -OEChem-06241222522D

 48 51  0     0  0  0  0  0  0999 V2000
    4.6783   -2.1732    0.0000 O   0  0  0  0  0  0  0  0  0  0  0  0
    6.2619   -1.3684    0.0000 O   0  0  0  0  0  0  0  0  0  0  0  0
    5.9674    0.5930    0.0000 N   0  0  0  0  0  0  0  0  0  0  0  0
    7.9244    1.0055    0.0000 N   0  0  0  0  0  0  0  0  0  0  0  0
    4.6783   -0.5637    0.0000 N   0  0  0  0  0  0  0  0  0  0  0  0
    6.6353   -0.1513    0.0000 C   0  0  0  0  0  0  0  0  0  0  0  0
    6.2781    1.5436    0.0000 C   0  0  0  0  0  0  0  0  0  0  0  0
    7.6138    0.0550    0.0000 C   0  0  0  0  0  0  0  0  0  0  0  0
    7.2566    1.7498    0.0000 C   0  0  0  0  0  0  0  0  0  0  0  0
    4.9889    0.3868    0.0000 C   0  0  0  0  0  0  0  0  0  0  0  0
    8.9030    1.2117    0.0000 C   0  0  0  0  0  0  0  0  0  0  0  0
    9.5708    0.4674    0.0000 C   0  0  0  0  0  0  0  0  0  0  0  0
    3.7320   -0.8684    0.0000 C   0  0  0  0  0  0  0  0  0  0  0  0
    9.2136    2.1622    0.0000 C   0  0  0  0  0  0  0  0  0  0  0  0
   10.5493    0.6736    0.0000 C   0  0  0  0  0  0  0  0  0  0  0  0
    5.2619   -1.3684    0.0000 C   0  0  0  0  0  0  0  0  0  0  0  0
    3.7320   -1.8684    0.0000 C   0  0  0  0  0  0  0  0  0  0  0  0
    9.2601   -0.4831    0.0000 C   0  0  0  0  0  0  0  0  0  0  0  0
   10.1921    2.3684    0.0000 C   0  0  0  0  0  0  0  0  0  0  0  0
   10.8600    1.6241    0.0000 C   0  0  0  0  0  0  0  0  0  0  0  0
    2.8660   -0.3684    0.0000 C   0  0  0  0  0  0  0  0  0  0  0  0
   11.2171   -0.0707    0.0000 C   0  0  0  0  0  0  0  0  0  0  0  0
    2.8660   -2.3684    0.0000 C   0  0  0  0  0  0  0  0  0  0  0  0
    2.0000   -0.8684    0.0000 C   0  0  0  0  0  0  0  0  0  0  0  0
    2.0000   -1.8684    0.0000 C   0  0  0  0  0  0  0  0  0  0  0  0
    6.1089   -0.4789    0.0000 H   0  0  0  0  0  0  0  0  0  0  0  0
    6.8665   -0.7265    0.0000 H   0  0  0  0  0  0  0  0  0  0  0  0
    6.2575    2.1632    0.0000 H   0  0  0  0  0  0  0  0  0  0  0  0
    5.6643    1.6309    0.0000 H   0  0  0  0  0  0  0  0  0  0  0  0
    7.6344   -0.5647    0.0000 H   0  0  0  0  0  0  0  0  0  0  0  0
    8.2276   -0.0324    0.0000 H   0  0  0  0  0  0  0  0  0  0  0  0
    7.7830    2.0774    0.0000 H   0  0  0  0  0  0  0  0  0  0  0  0
    7.0254    2.3250    0.0000 H   0  0  0  0  0  0  0  0  0  0  0  0
    4.9684    1.0065    0.0000 H   0  0  0  0  0  0  0  0  0  0  0  0
    4.3751    0.4742    0.0000 H   0  0  0  0  0  0  0  0  0  0  0  0
    8.7996    2.6237    0.0000 H   0  0  0  0  0  0  0  0  0  0  0  0
    8.6708   -0.2905    0.0000 H   0  0  0  0  0  0  0  0  0  0  0  0
    9.0675   -1.0724    0.0000 H   0  0  0  0  0  0  0  0  0  0  0  0
    9.8495   -0.6757    0.0000 H   0  0  0  0  0  0  0  0  0  0  0  0
   10.3847    2.9578    0.0000 H   0  0  0  0  0  0  0  0  0  0  0  0
   11.4666    1.7520    0.0000 H   0  0  0  0  0  0  0  0  0  0  0  0
    2.8660    0.2516    0.0000 H   0  0  0  0  0  0  0  0  0  0  0  0
   10.7557   -0.4848    0.0000 H   0  0  0  0  0  0  0  0  0  0  0  0
   11.6312   -0.5322    0.0000 H   0  0  0  0  0  0  0  0  0  0  0  0
   11.6786    0.3434    0.0000 H   0  0  0  0  0  0  0  0  0  0  0  0
    2.8660   -2.9884    0.0000 H   0  0  0  0  0  0  0  0  0  0  0  0
    1.4631   -0.5584    0.0000 H   0  0  0  0  0  0  0  0  0  0  0  0
    1.4631   -2.1784    0.0000 H   0  0  0  0  0  0  0  0  0  0  0  0
  1 16  1  0  0  0  0
  1 17  1  0  0  0  0
  2 16  2  0  0  0  0
  3  6  1  0  0  0  0
  3  7  1  0  0  0  0
  3 10  1  0  0  0  0
  4  8  1  0  0  0  0
  4  9  1  0  0  0  0
  4 11  1  0  0  0  0
  5 10  1  0  0  0  0
  5 13  1  0  0  0  0
  5 16  1  0  0  0  0
  6  8  1  0  0  0  0
  6 26  1  0  0  0  0
  6 27  1  0  0  0  0
  7  9  1  0  0  0  0
  7 28  1  0  0  0  0
  7 29  1  0  0  0  0
  8 30  1  0  0  0  0
  8 31  1  0  0  0  0
  9 32  1  0  0  0  0
  9 33  1  0  0  0  0
 10 34  1  0  0  0  0
 10 35  1  0  0  0  0
 11 12  1  0  0  0  0
 11 14  2  0  0  0  0
 12 15  2  0  0  0  0
 12 18  1  0  0  0  0
 13 17  1  0  0  0  0
 13 21  2  0  0  0  0
 14 19  1  0  0  0  0
 14 36  1  0  0  0  0
 15 20  1  0  0  0  0
 15 22  1  0  0  0  0
 17 23  2  0  0  0  0
 18 37  1  0  0  0  0
 18 38  1  0  0  0  0
 18 39  1  0  0  0  0
 19 20  2  0  0  0  0
 19 40  1  0  0  0  0
 20 41  1  0  0  0  0
 21 24  1  0  0  0  0
 21 42  1  0  0  0  0
 22 43  1  0  0  0  0
 22 44  1  0  0  0  0
 22 45  1  0  0  0  0
 23 25  1  0  0  0  0
 23 46  1  0  0  0  0
 24 25  2  0  0  0  0
 24 47  1  0  0  0  0
 25 48  1  0  0  0  0
M  END
> <PUBCHEM_COMPOUND_CID>
17395868

> <PUBCHEM_COMPOUND_CANONICALIZED>
1

> <PUBCHEM_CACTVS_COMPLEXITY>
478

> <PUBCHEM_CACTVS_HBOND_ACCEPTOR>
4

> <PUBCHEM_CACTVS_HBOND_DONOR>
0

> <PUBCHEM_CACTVS_ROTATABLE_BOND>
3

> <PUBCHEM_CACTVS_SUBSKEYS>
AAADceB7MAAAAAAAAAAAAAAAAAAAAWAAAAA8YIAAAAAAAFgBQAAAHgAAAAAADAzBmAQzzoMABACIAiRCWACCCAAhIgAIiAAPbIiOZiLEsZudMihsxxPY6CeQwIAOgAAAQAASEAAAAACAACQgAAAAAAAAAA==

> <PUBCHEM_IUPAC_OPENEYE_NAME>
3-[[4-(2,3-dimethylphenyl)piperazin-1-yl]methyl]-1,3-benzoxazol-2-one

> <PUBCHEM_IUPAC_CAS_NAME>
3-[[4-(2,3-dimethylphenyl)-1-piperazinyl]methyl]-1,3-benzoxazol-2-one

> <PUBCHEM_IUPAC_NAME>
3-[[4-(2,3-dimethylphenyl)piperazin-1-yl]methyl]-1,3-benzoxazol-2-one

> <PUBCHEM_IUPAC_SYSTEMATIC_NAME>
3-[[4-(2,3-dimethylphenyl)piperazin-1-yl]methyl]-1,3-benzoxazol-2-one

> <PUBCHEM_IUPAC_TRADITIONAL_NAME>
3-[[4-(2,3-dimethylphenyl)piperazino]methyl]-1,3-benzoxazol-2-one

> <PUBCHEM_IUPAC_INCHI>
InChI=1S/C20H23N3O2/c1-15-6-5-8-17(16(15)2)22-12-10-21(11-13-22)14-23-18-7-3-4-9-19(18)25-20(23)24/h3-9H,10-14H2,1-2H3

> <PUBCHEM_IUPAC_INCHIKEY>
PJVULKQJSCCJKC-UHFFFAOYSA-N

> <PUBCHEM_XLOGP3_AA>
3.8

> <PUBCHEM_EXACT_MASS>
337.179027

> <PUBCHEM_MOLECULAR_FORMULA>
C20H23N3O2

> <PUBCHEM_MOLECULAR_WEIGHT>
337.41552

> <PUBCHEM_OPENEYE_CAN_SMILES>
CC1=C(C(=CC=C1)N2CCN(CC2)CN3C4=CC=CC=C4OC3=O)C

> <PUBCHEM_OPENEYE_ISO_SMILES>
CC1=C(C(=CC=C1)N2CCN(CC2)CN3C4=CC=CC=C4OC3=O)C

> <PUBCHEM_CACTVS_TPSA>
36

> <PUBCHEM_MONOISOTOPIC_WEIGHT>
337.179027

> <PUBCHEM_TOTAL_CHARGE>
0

> <PUBCHEM_HEAVY_ATOM_COUNT>
25

> <PUBCHEM_ATOM_DEF_STEREO_COUNT>
0

> <PUBCHEM_ATOM_UDEF_STEREO_COUNT>
0

> <PUBCHEM_BOND_DEF_STEREO_COUNT>
0

> <PUBCHEM_BOND_UDEF_STEREO_COUNT>
0

> <PUBCHEM_ISOTOPIC_ATOM_COUNT>
0

> <PUBCHEM_COMPONENT_COUNT>
1

> <PUBCHEM_CACTVS_TAUTO_COUNT>
1

> <PUBCHEM_COORDINATE_TYPE>
1
5
255

> <PUBCHEM_BONDANNOTATIONS>
1  16  8
1  17  8
11  12  8
11  14  8
12  15  8
13  17  8
13  21  8
14  19  8
15  20  8
17  23  8
19  20  8
21  24  8
23  25  8
24  25  8
5  13  8
5  16  8

$$$$

