583260
  -OEChem-06241222452D

123122  0     0  0  0  0  0  0999 V2000
   20.1865    0.2500    0.0000 S   0  0  0  0  0  0  0  0  0  0  0  0
   17.5885    0.7500    0.0000 O   0  0  0  0  0  0  0  0  0  0  0  0
   22.7846    0.7500    0.0000 O   0  0  0  0  0  0  0  0  0  0  0  0
   18.4545   -0.7500    0.0000 O   0  0  0  0  0  0  0  0  0  0  0  0
   21.9186   -0.7500    0.0000 O   0  0  0  0  0  0  0  0  0  0  0  0
    9.7942    0.2500    0.0000 C   0  0  0  0  0  0  0  0  0  0  0  0
   30.5788    0.2500    0.0000 C   0  0  0  0  0  0  0  0  0  0  0  0
    8.9282    0.7500    0.0000 C   0  0  0  0  0  0  0  0  0  0  0  0
   31.4449    0.7500    0.0000 C   0  0  0  0  0  0  0  0  0  0  0  0
   10.6603    0.7500    0.0000 C   0  0  0  0  0  0  0  0  0  0  0  0
   29.7128    0.7500    0.0000 C   0  0  0  0  0  0  0  0  0  0  0  0
    8.0622    0.2500    0.0000 C   0  0  0  0  0  0  0  0  0  0  0  0
   32.3109    0.2500    0.0000 C   0  0  0  0  0  0  0  0  0  0  0  0
   11.5263    0.2500    0.0000 C   0  0  0  0  0  0  0  0  0  0  0  0
   28.8468    0.2500    0.0000 C   0  0  0  0  0  0  0  0  0  0  0  0
    7.1962    0.7500    0.0000 C   0  0  0  0  0  0  0  0  0  0  0  0
   33.1769    0.7500    0.0000 C   0  0  0  0  0  0  0  0  0  0  0  0
   12.3923    0.7500    0.0000 C   0  0  0  0  0  0  0  0  0  0  0  0
   27.9808    0.7500    0.0000 C   0  0  0  0  0  0  0  0  0  0  0  0
    6.3301    0.2500    0.0000 C   0  0  0  0  0  0  0  0  0  0  0  0
   34.0429    0.2500    0.0000 C   0  0  0  0  0  0  0  0  0  0  0  0
   13.2583    0.2500    0.0000 C   0  0  0  0  0  0  0  0  0  0  0  0
   27.1147    0.2500    0.0000 C   0  0  0  0  0  0  0  0  0  0  0  0
    5.4641    0.7500    0.0000 C   0  0  0  0  0  0  0  0  0  0  0  0
   34.9090    0.7500    0.0000 C   0  0  0  0  0  0  0  0  0  0  0  0
   14.1244    0.7500    0.0000 C   0  0  0  0  0  0  0  0  0  0  0  0
   26.2487    0.7500    0.0000 C   0  0  0  0  0  0  0  0  0  0  0  0
    4.5981    0.2500    0.0000 C   0  0  0  0  0  0  0  0  0  0  0  0
   35.7750    0.2500    0.0000 C   0  0  0  0  0  0  0  0  0  0  0  0
   14.9904    0.2500    0.0000 C   0  0  0  0  0  0  0  0  0  0  0  0
   25.3827    0.2500    0.0000 C   0  0  0  0  0  0  0  0  0  0  0  0
    3.7320    0.7500    0.0000 C   0  0  0  0  0  0  0  0  0  0  0  0
   36.6410    0.7500    0.0000 C   0  0  0  0  0  0  0  0  0  0  0  0
   15.8564    0.7500    0.0000 C   0  0  0  0  0  0  0  0  0  0  0  0
   24.5167    0.7500    0.0000 C   0  0  0  0  0  0  0  0  0  0  0  0
    2.8660    0.2500    0.0000 C   0  0  0  0  0  0  0  0  0  0  0  0
   37.5070    0.2500    0.0000 C   0  0  0  0  0  0  0  0  0  0  0  0
   16.7224    0.2500    0.0000 C   0  0  0  0  0  0  0  0  0  0  0  0
   23.6506    0.2500    0.0000 C   0  0  0  0  0  0  0  0  0  0  0  0
    2.0000    0.7500    0.0000 C   0  0  0  0  0  0  0  0  0  0  0  0
   38.3731    0.7500    0.0000 C   0  0  0  0  0  0  0  0  0  0  0  0
   18.4545    0.2500    0.0000 C   0  0  0  0  0  0  0  0  0  0  0  0
   21.9186    0.2500    0.0000 C   0  0  0  0  0  0  0  0  0  0  0  0
   19.3205    0.7500    0.0000 C   0  0  0  0  0  0  0  0  0  0  0  0
   21.0526    0.7500    0.0000 C   0  0  0  0  0  0  0  0  0  0  0  0
   30.1803   -0.2249    0.0000 H   0  0  0  0  0  0  0  0  0  0  0  0
   30.9774   -0.2249    0.0000 H   0  0  0  0  0  0  0  0  0  0  0  0
    9.3957   -0.2249    0.0000 H   0  0  0  0  0  0  0  0  0  0  0  0
   10.1928   -0.2249    0.0000 H   0  0  0  0  0  0  0  0  0  0  0  0
   31.8434    1.2250    0.0000 H   0  0  0  0  0  0  0  0  0  0  0  0
   31.0463    1.2250    0.0000 H   0  0  0  0  0  0  0  0  0  0  0  0
    9.3267    1.2250    0.0000 H   0  0  0  0  0  0  0  0  0  0  0  0
    8.5297    1.2250    0.0000 H   0  0  0  0  0  0  0  0  0  0  0  0
   30.1113    1.2250    0.0000 H   0  0  0  0  0  0  0  0  0  0  0  0
   29.3143    1.2250    0.0000 H   0  0  0  0  0  0  0  0  0  0  0  0
   11.0588    1.2250    0.0000 H   0  0  0  0  0  0  0  0  0  0  0  0
   10.2617    1.2250    0.0000 H   0  0  0  0  0  0  0  0  0  0  0  0
    7.6636   -0.2249    0.0000 H   0  0  0  0  0  0  0  0  0  0  0  0
    8.4607   -0.2249    0.0000 H   0  0  0  0  0  0  0  0  0  0  0  0
   31.9124   -0.2249    0.0000 H   0  0  0  0  0  0  0  0  0  0  0  0
   32.7094   -0.2249    0.0000 H   0  0  0  0  0  0  0  0  0  0  0  0
   11.1278   -0.2249    0.0000 H   0  0  0  0  0  0  0  0  0  0  0  0
   11.9248   -0.2249    0.0000 H   0  0  0  0  0  0  0  0  0  0  0  0
   28.4483   -0.2249    0.0000 H   0  0  0  0  0  0  0  0  0  0  0  0
   29.2453   -0.2249    0.0000 H   0  0  0  0  0  0  0  0  0  0  0  0
   33.5754    1.2250    0.0000 H   0  0  0  0  0  0  0  0  0  0  0  0
   32.7784    1.2250    0.0000 H   0  0  0  0  0  0  0  0  0  0  0  0
    7.5947    1.2250    0.0000 H   0  0  0  0  0  0  0  0  0  0  0  0
    6.7976    1.2250    0.0000 H   0  0  0  0  0  0  0  0  0  0  0  0
   28.3793    1.2250    0.0000 H   0  0  0  0  0  0  0  0  0  0  0  0
   27.5822    1.2250    0.0000 H   0  0  0  0  0  0  0  0  0  0  0  0
   12.7908    1.2250    0.0000 H   0  0  0  0  0  0  0  0  0  0  0  0
   11.9938    1.2250    0.0000 H   0  0  0  0  0  0  0  0  0  0  0  0
   33.6444   -0.2249    0.0000 H   0  0  0  0  0  0  0  0  0  0  0  0
   34.4415   -0.2249    0.0000 H   0  0  0  0  0  0  0  0  0  0  0  0
    5.9316   -0.2249    0.0000 H   0  0  0  0  0  0  0  0  0  0  0  0
    6.7287   -0.2249    0.0000 H   0  0  0  0  0  0  0  0  0  0  0  0
   12.8598   -0.2249    0.0000 H   0  0  0  0  0  0  0  0  0  0  0  0
   13.6569   -0.2249    0.0000 H   0  0  0  0  0  0  0  0  0  0  0  0
   26.7162   -0.2249    0.0000 H   0  0  0  0  0  0  0  0  0  0  0  0
   27.5133   -0.2249    0.0000 H   0  0  0  0  0  0  0  0  0  0  0  0
    5.8626    1.2250    0.0000 H   0  0  0  0  0  0  0  0  0  0  0  0
    5.0656    1.2250    0.0000 H   0  0  0  0  0  0  0  0  0  0  0  0
   35.3075    1.2250    0.0000 H   0  0  0  0  0  0  0  0  0  0  0  0
   34.5104    1.2250    0.0000 H   0  0  0  0  0  0  0  0  0  0  0  0
   14.5229    1.2250    0.0000 H   0  0  0  0  0  0  0  0  0  0  0  0
   13.7258    1.2250    0.0000 H   0  0  0  0  0  0  0  0  0  0  0  0
   26.6472    1.2250    0.0000 H   0  0  0  0  0  0  0  0  0  0  0  0
   25.8502    1.2250    0.0000 H   0  0  0  0  0  0  0  0  0  0  0  0
    4.1996   -0.2249    0.0000 H   0  0  0  0  0  0  0  0  0  0  0  0
    4.9966   -0.2249    0.0000 H   0  0  0  0  0  0  0  0  0  0  0  0
   35.3765   -0.2249    0.0000 H   0  0  0  0  0  0  0  0  0  0  0  0
   36.1735   -0.2249    0.0000 H   0  0  0  0  0  0  0  0  0  0  0  0
   24.9842   -0.2249    0.0000 H   0  0  0  0  0  0  0  0  0  0  0  0
   25.7812   -0.2249    0.0000 H   0  0  0  0  0  0  0  0  0  0  0  0
   14.5919   -0.2249    0.0000 H   0  0  0  0  0  0  0  0  0  0  0  0
   15.3889   -0.2249    0.0000 H   0  0  0  0  0  0  0  0  0  0  0  0
   37.0395    1.2250    0.0000 H   0  0  0  0  0  0  0  0  0  0  0  0
   36.2425    1.2250    0.0000 H   0  0  0  0  0  0  0  0  0  0  0  0
    4.1306    1.2250    0.0000 H   0  0  0  0  0  0  0  0  0  0  0  0
    3.3335    1.2250    0.0000 H   0  0  0  0  0  0  0  0  0  0  0  0
   16.2549    1.2250    0.0000 H   0  0  0  0  0  0  0  0  0  0  0  0
   15.4579    1.2250    0.0000 H   0  0  0  0  0  0  0  0  0  0  0  0
   24.9152    1.2250    0.0000 H   0  0  0  0  0  0  0  0  0  0  0  0
   24.1181    1.2250    0.0000 H   0  0  0  0  0  0  0  0  0  0  0  0
   37.1085   -0.2249    0.0000 H   0  0  0  0  0  0  0  0  0  0  0  0
   37.9056   -0.2249    0.0000 H   0  0  0  0  0  0  0  0  0  0  0  0
    2.4675   -0.2249    0.0000 H   0  0  0  0  0  0  0  0  0  0  0  0
    3.2646   -0.2249    0.0000 H   0  0  0  0  0  0  0  0  0  0  0  0
   16.3239   -0.2249    0.0000 H   0  0  0  0  0  0  0  0  0  0  0  0
   17.1210   -0.2249    0.0000 H   0  0  0  0  0  0  0  0  0  0  0  0
   23.2521   -0.2249    0.0000 H   0  0  0  0  0  0  0  0  0  0  0  0
   24.0492   -0.2249    0.0000 H   0  0  0  0  0  0  0  0  0  0  0  0
   38.6831    0.2131    0.0000 H   0  0  0  0  0  0  0  0  0  0  0  0
   38.9100    1.0600    0.0000 H   0  0  0  0  0  0  0  0  0  0  0  0
   38.0631    1.2869    0.0000 H   0  0  0  0  0  0  0  0  0  0  0  0
    2.3100    1.2869    0.0000 H   0  0  0  0  0  0  0  0  0  0  0  0
    1.4631    1.0600    0.0000 H   0  0  0  0  0  0  0  0  0  0  0  0
    1.6900    0.2131    0.0000 H   0  0  0  0  0  0  0  0  0  0  0  0
   21.4511    1.2250    0.0000 H   0  0  0  0  0  0  0  0  0  0  0  0
   20.6540    1.2250    0.0000 H   0  0  0  0  0  0  0  0  0  0  0  0
   19.7190    1.2250    0.0000 H   0  0  0  0  0  0  0  0  0  0  0  0
   18.9220    1.2250    0.0000 H   0  0  0  0  0  0  0  0  0  0  0  0
  1 44  1  0  0  0  0
  1 45  1  0  0  0  0
  2 38  1  0  0  0  0
  2 42  1  0  0  0  0
  3 39  1  0  0  0  0
  3 43  1  0  0  0  0
  4 42  2  0  0  0  0
  5 43  2  0  0  0  0
  6  8  1  0  0  0  0
  6 10  1  0  0  0  0
  6 48  1  0  0  0  0
  6 49  1  0  0  0  0
  7  9  1  0  0  0  0
  7 11  1  0  0  0  0
  7 46  1  0  0  0  0
  7 47  1  0  0  0  0
  8 12  1  0  0  0  0
  8 52  1  0  0  0  0
  8 53  1  0  0  0  0
  9 13  1  0  0  0  0
  9 50  1  0  0  0  0
  9 51  1  0  0  0  0
 10 14  1  0  0  0  0
 10 56  1  0  0  0  0
 10 57  1  0  0  0  0
 11 15  1  0  0  0  0
 11 54  1  0  0  0  0
 11 55  1  0  0  0  0
 12 16  1  0  0  0  0
 12 58  1  0  0  0  0
 12 59  1  0  0  0  0
 13 17  1  0  0  0  0
 13 60  1  0  0  0  0
 13 61  1  0  0  0  0
 14 18  1  0  0  0  0
 14 62  1  0  0  0  0
 14 63  1  0  0  0  0
 15 19  1  0  0  0  0
 15 64  1  0  0  0  0
 15 65  1  0  0  0  0
 16 20  1  0  0  0  0
 16 68  1  0  0  0  0
 16 69  1  0  0  0  0
 17 21  1  0  0  0  0
 17 66  1  0  0  0  0
 17 67  1  0  0  0  0
 18 22  1  0  0  0  0
 18 72  1  0  0  0  0
 18 73  1  0  0  0  0
 19 23  1  0  0  0  0
 19 70  1  0  0  0  0
 19 71  1  0  0  0  0
 20 24  1  0  0  0  0
 20 76  1  0  0  0  0
 20 77  1  0  0  0  0
 21 25  1  0  0  0  0
 21 74  1  0  0  0  0
 21 75  1  0  0  0  0
 22 26  1  0  0  0  0
 22 78  1  0  0  0  0
 22 79  1  0  0  0  0
 23 27  1  0  0  0  0
 23 80  1  0  0  0  0
 23 81  1  0  0  0  0
 24 28  1  0  0  0  0
 24 82  1  0  0  0  0
 24 83  1  0  0  0  0
 25 29  1  0  0  0  0
 25 84  1  0  0  0  0
 25 85  1  0  0  0  0
 26 30  1  0  0  0  0
 26 86  1  0  0  0  0
 26 87  1  0  0  0  0
 27 31  1  0  0  0  0
 27 88  1  0  0  0  0
 27 89  1  0  0  0  0
 28 32  1  0  0  0  0
 28 90  1  0  0  0  0
 28 91  1  0  0  0  0
 29 33  1  0  0  0  0
 29 92  1  0  0  0  0
 29 93  1  0  0  0  0
 30 34  1  0  0  0  0
 30 96  1  0  0  0  0
 30 97  1  0  0  0  0
 31 35  1  0  0  0  0
 31 94  1  0  0  0  0
 31 95  1  0  0  0  0
 32 36  1  0  0  0  0
 32100  1  0  0  0  0
 32101  1  0  0  0  0
 33 37  1  0  0  0  0
 33 98  1  0  0  0  0
 33 99  1  0  0  0  0
 34 38  1  0  0  0  0
 34102  1  0  0  0  0
 34103  1  0  0  0  0
 35 39  1  0  0  0  0
 35104  1  0  0  0  0
 35105  1  0  0  0  0
 36 40  1  0  0  0  0
 36108  1  0  0  0  0
 36109  1  0  0  0  0
 37 41  1  0  0  0  0
 37106  1  0  0  0  0
 37107  1  0  0  0  0
 38110  1  0  0  0  0
 38111  1  0  0  0  0
 39112  1  0  0  0  0
 39113  1  0  0  0  0
 40117  1  0  0  0  0
 40118  1  0  0  0  0
 40119  1  0  0  0  0
 41114  1  0  0  0  0
 41115  1  0  0  0  0
 41116  1  0  0  0  0
 42 44  1  0  0  0  0
 43 45  1  0  0  0  0
 44122  1  0  0  0  0
 44123  1  0  0  0  0
 45120  1  0  0  0  0
 45121  1  0  0  0  0
M  END
> <PUBCHEM_COMPOUND_CID>
583260

> <PUBCHEM_COMPOUND_CANONICALIZED>
1

> <PUBCHEM_CACTVS_COMPLEXITY>
547

> <PUBCHEM_CACTVS_HBOND_ACCEPTOR>
5

> <PUBCHEM_CACTVS_HBOND_DONOR>
0

> <PUBCHEM_CACTVS_ROTATABLE_BOND>
40

> <PUBCHEM_CACTVS_SUBSKEYS>
AAADcfB8OABAAAAAAAAAAAAAAAAAAAAAAAAAAAAAAAAAAAAAAAAAGgQAAAAACACkwAKCCAAABAgIAACQCAAAAAAAABAAAAAAAAAAAAIAAAACAAAEAAAgAAGAwKAAAAAAAAAAAAAAAAAAAAAAAAAAAAAAAA==

> <PUBCHEM_IUPAC_OPENEYE_NAME>
octadecyl 2-(2-octadecoxy-2-oxo-ethyl)sulfanylacetate

> <PUBCHEM_IUPAC_CAS_NAME>
2-[(2-octadecoxy-2-oxoethyl)thio]acetic acid octadecyl ester

> <PUBCHEM_IUPAC_NAME>
octadecyl 2-(2-octadecoxy-2-oxoethyl)sulfanylacetate

> <PUBCHEM_IUPAC_SYSTEMATIC_NAME>
octadecyl 2-(2-octadecoxy-2-oxidanylidene-ethyl)sulfanylethanoate

> <PUBCHEM_IUPAC_TRADITIONAL_NAME>
2-[(2-keto-2-stearyloxy-ethyl)thio]acetic acid stearyl ester

> <PUBCHEM_IUPAC_INCHI>
InChI=1S/C40H78O4S/c1-3-5-7-9-11-13-15-17-19-21-23-25-27-29-31-33-35-43-39(41)37-45-38-40(42)44-36-34-32-30-28-26-24-22-20-18-16-14-12-10-8-6-4-2/h3-38H2,1-2H3

> <PUBCHEM_IUPAC_INCHIKEY>
GIZCSQLWVMDAOE-UHFFFAOYSA-N

> <PUBCHEM_XLOGP3_AA>
18.4

> <PUBCHEM_EXACT_MASS>
654.562082

> <PUBCHEM_MOLECULAR_FORMULA>
C40H78O4S

> <PUBCHEM_MOLECULAR_WEIGHT>
655.10992

> <PUBCHEM_OPENEYE_CAN_SMILES>
CCCCCCCCCCCCCCCCCCOC(=O)CSCC(=O)OCCCCCCCCCCCCCCCCCC

> <PUBCHEM_OPENEYE_ISO_SMILES>
CCCCCCCCCCCCCCCCCCOC(=O)CSCC(=O)OCCCCCCCCCCCCCCCCCC

> <PUBCHEM_CACTVS_TPSA>
77.9

> <PUBCHEM_MONOISOTOPIC_WEIGHT>
654.562082

> <PUBCHEM_TOTAL_CHARGE>
0

> <PUBCHEM_HEAVY_ATOM_COUNT>
45

> <PUBCHEM_ATOM_DEF_STEREO_COUNT>
0

> <PUBCHEM_ATOM_UDEF_STEREO_COUNT>
0

> <PUBCHEM_BOND_DEF_STEREO_COUNT>
0

> <PUBCHEM_BOND_UDEF_STEREO_COUNT>
0

> <PUBCHEM_ISOTOPIC_ATOM_COUNT>
0

> <PUBCHEM_COMPONENT_COUNT>
1

> <PUBCHEM_CACTVS_TAUTO_COUNT>
1

> <PUBCHEM_COORDINATE_TYPE>
1
5
255

$$$$

