62843
  -OEChem-07051213143D

 52 54  0     1  0  0  0  0  0999 V2000
    3.4418   -1.0997    2.1402 O   0  0  0  0  0  0  0  0  0  0  0  0
    4.4611    2.9861   -0.8656 O   0  0  0  0  0  0  0  0  0  0  0  0
    5.1337    0.3397    2.6051 O   0  0  0  0  0  0  0  0  0  0  0  0
    3.3287   -4.0747   -0.7675 O   0  0  0  0  0  0  0  0  0  0  0  0
    4.1071   -2.5001   -2.2036 O   0  0  0  0  0  0  0  0  0  0  0  0
    6.8534    2.4076   -0.5772 O   0  0  0  0  0  0  0  0  0  0  0  0
   -6.2924    2.4294   -0.6892 O   0  0  0  0  0  0  0  0  0  0  0  0
    5.1994    0.8985   -0.1231 N   0  0  0  0  0  0  0  0  0  0  0  0
   -1.2435    0.3534   -0.1957 N   0  0  0  0  0  0  0  0  0  0  0  0
    6.6532    1.2517   -0.1891 N   0  0  0  0  0  0  0  0  0  0  0  0
   -4.3476    0.8722    0.2726 N   0  0  0  0  0  0  0  0  0  0  0  0
   -4.9812   -1.7973    0.8693 N   0  0  0  0  0  0  0  0  0  0  0  0
   -7.2319   -1.3645    0.1510 N   0  0  0  0  0  0  0  0  0  0  0  0
   -7.8954    0.7826   -0.6395 N   0  0  0  0  0  0  0  0  0  0  0  0
   -9.3980   -1.0140   -0.5213 N   0  0  0  0  0  0  0  0  0  0  0  0
    4.8120   -0.4191    0.3132 C   0  0  1  0  0  0  0  0  0  0  0  0
    5.8424   -1.4927   -0.0576 C   0  0  0  0  0  0  0  0  0  0  0  0
    5.3126   -2.9306   -0.1305 C   0  0  0  0  0  0  0  0  0  0  0  0
    4.2237    1.8414   -0.4827 C   0  0  0  0  0  0  0  0  0  0  0  0
    4.5165   -0.3422    1.7971 C   0  0  0  0  0  0  0  0  0  0  0  0
    2.8041    1.4545   -0.4078 C   0  0  0  0  0  0  0  0  0  0  0  0
    0.1159    0.7224   -0.2665 C   0  0  0  0  0  0  0  0  0  0  0  0
   -2.0379    0.5368    0.9792 C   0  0  0  0  0  0  0  0  0  0  0  0
    2.0864    1.6598    0.7704 C   0  0  0  0  0  0  0  0  0  0  0  0
    2.1777    0.8831   -1.5155 C   0  0  0  0  0  0  0  0  0  0  0  0
    0.7422    1.2939    0.8412 C   0  0  0  0  0  0  0  0  0  0  0  0
    0.8336    0.5171   -1.4449 C   0  0  0  0  0  0  0  0  0  0  0  0
    4.2201   -3.1267   -1.1592 C   0  0  0  0  0  0  0  0  0  0  0  0
   -3.4312    0.0158    0.7603 C   0  0  0  0  0  0  0  0  0  0  0  0
   -5.5816    0.3594    0.0930 C   0  0  0  0  0  0  0  0  0  0  0  0
   -5.9156   -0.9539    0.3809 C   0  0  0  0  0  0  0  0  0  0  0  0
   -3.7420   -1.2940    1.0531 C   0  0  0  0  0  0  0  0  0  0  0  0
   -6.6165    1.2720   -0.4417 C   0  0  0  0  0  0  0  0  0  0  0  0
   -8.1508   -0.4678   -0.3484 C   0  0  0  0  0  0  0  0  0  0  0  0
    3.8785   -0.6891   -0.1837 H   0  0  0  0  0  0  0  0  0  0  0  0
    6.6741   -1.4745    0.6586 H   0  0  0  0  0  0  0  0  0  0  0  0
    6.2699   -1.2646   -1.0434 H   0  0  0  0  0  0  0  0  0  0  0  0
    6.1290   -3.6167   -0.3809 H   0  0  0  0  0  0  0  0  0  0  0  0
    4.9257   -3.2149    0.8548 H   0  0  0  0  0  0  0  0  0  0  0  0
   -2.1077    1.6017    1.2349 H   0  0  0  0  0  0  0  0  0  0  0  0
   -1.5995    0.0200    1.8422 H   0  0  0  0  0  0  0  0  0  0  0  0
    2.5635    2.1082    1.6381 H   0  0  0  0  0  0  0  0  0  0  0  0
    2.7283    0.7178   -2.4380 H   0  0  0  0  0  0  0  0  0  0  0  0
   -1.6566   -0.0514   -1.0293 H   0  0  0  0  0  0  0  0  0  0  0  0
    0.2212    1.4737    1.7767 H   0  0  0  0  0  0  0  0  0  0  0  0
    0.3575    0.0723   -2.3149 H   0  0  0  0  0  0  0  0  0  0  0  0
   -3.0107   -1.9917    1.4444 H   0  0  0  0  0  0  0  0  0  0  0  0
    3.2389   -1.0336    3.0976 H   0  0  0  0  0  0  0  0  0  0  0  0
   -7.4746   -2.3243    0.3618 H   0  0  0  0  0  0  0  0  0  0  0  0
    2.6081   -4.1912   -1.4228 H   0  0  0  0  0  0  0  0  0  0  0  0
   -9.5874   -1.9836   -0.2924 H   0  0  0  0  0  0  0  0  0  0  0  0
  -10.1675   -0.4609   -0.8827 H   0  0  0  0  0  0  0  0  0  0  0  0
  1 20  1  0  0  0  0
  1 48  1  0  0  0  0
  2 19  2  0  0  0  0
  3 20  2  0  0  0  0
  4 28  1  0  0  0  0
  4 50  1  0  0  0  0
  5 28  2  0  0  0  0
  6 10  2  0  0  0  0
  7 33  2  0  0  0  0
  8 10  1  0  0  0  0
  8 16  1  0  0  0  0
  8 19  1  0  0  0  0
  9 22  1  0  0  0  0
  9 23  1  0  0  0  0
  9 44  1  0  0  0  0
 11 29  1  0  0  0  0
 11 30  2  0  0  0  0
 12 31  2  0  0  0  0
 12 32  1  0  0  0  0
 13 31  1  0  0  0  0
 13 34  1  0  0  0  0
 13 49  1  0  0  0  0
 14 33  1  0  0  0  0
 14 34  2  0  0  0  0
 15 34  1  0  0  0  0
 15 51  1  0  0  0  0
 15 52  1  0  0  0  0
 16 17  1  0  0  0  0
 16 20  1  0  0  0  0
 16 35  1  0  0  0  0
 17 18  1  0  0  0  0
 17 36  1  0  0  0  0
 17 37  1  0  0  0  0
 18 28  1  0  0  0  0
 18 38  1  0  0  0  0
 18 39  1  0  0  0  0
 19 21  1  0  0  0  0
 21 24  2  0  0  0  0
 21 25  1  0  0  0  0
 22 26  2  0  0  0  0
 22 27  1  0  0  0  0
 23 29  1  0  0  0  0
 23 40  1  0  0  0  0
 23 41  1  0  0  0  0
 24 26  1  0  0  0  0
 24 42  1  0  0  0  0
 25 27  2  0  0  0  0
 25 43  1  0  0  0  0
 26 45  1  0  0  0  0
 27 46  1  0  0  0  0
 29 32  2  0  0  0  0
 30 31  1  0  0  0  0
 30 33  1  0  0  0  0
 32 47  1  0  0  0  0
M  END
> <PUBCHEM_COMPOUND_CID>
62843

> <PUBCHEM_CONFORMER_RMSD>
1

> <PUBCHEM_CONFORMER_DIVERSEORDER>
1
88
128
127
52
105
68
60
78
75
27
4
92
26
55
87
57
41
66
135
28
47
83
114
21
108
138
102
137
45
136
34
46
48
42
20
130
110
43
3
139
121
70
77
113
84
64
37
95
31
129
132
82
76
80
22
58
10
36
56
119
81
50
115
74
62
134
90
9
109
125
140
104
126
97
67
30
99
44
18
17
12
54
103
91
120
131
124
96
49
116
107
89
69
61
133
63
16
59
94
11
100
14
53
112
13
33
117
73
79
51
6
7
35
29
93
39
123
25
106
86
38
8
40
122
72
118
5
98
32
101
15
65
23
71
111
24
85
2
19

> <PUBCHEM_MMFF94_PARTIAL_CHARGES>
44
1 -0.65
10 -0.02
11 -0.62
12 -0.62
13 -0.55
14 -0.66
15 -0.85
16 0.36
18 0.06
19 0.54
2 -0.57
20 0.66
21 0.09
22 0.1
23 0.51
24 -0.15
25 -0.15
26 -0.15
27 -0.15
28 0.66
29 0.17
3 -0.57
30 0.4
31 0.41
32 0.16
33 0.69
34 0.55
4 -0.65
42 0.15
43 0.15
44 0.4
45 0.15
46 0.15
47 0.15
48 0.5
49 0.4
5 -0.57
50 0.5
51 0.4
52 0.4
6 -0.16
7 -0.57
8 -0.18
9 -0.87

> <PUBCHEM_EFFECTIVE_ROTOR_COUNT>
11

> <PUBCHEM_PHARMACOPHORE_FEATURES>
18
1 1 acceptor
1 11 acceptor
1 13 donor
1 14 donor
1 15 donor
1 2 acceptor
1 3 acceptor
1 4 acceptor
1 5 acceptor
1 7 acceptor
1 9 cation
1 9 donor
3 1 3 20 anion
3 12 13 31 cation
3 4 5 28 anion
6 11 12 29 30 31 32 rings
6 13 14 30 31 33 34 rings
6 21 22 24 25 26 27 rings

> <PUBCHEM_HEAVY_ATOM_COUNT>
34

> <PUBCHEM_ATOM_DEF_STEREO_COUNT>
1

> <PUBCHEM_ATOM_UDEF_STEREO_COUNT>
0

> <PUBCHEM_BOND_DEF_STEREO_COUNT>
0

> <PUBCHEM_BOND_UDEF_STEREO_COUNT>
0

> <PUBCHEM_ISOTOPIC_ATOM_COUNT>
0

> <PUBCHEM_COMPONENT_COUNT>
1

> <PUBCHEM_CACTVS_TAUTO_COUNT>
18

> <PUBCHEM_CONFORMER_ID>
0000F57B00000001

> <PUBCHEM_MMFF94_ENERGY>
108.9098

> <PUBCHEM_FEATURE_SELFOVERLAP>
91.629

> <PUBCHEM_SHAPE_FINGERPRINT>
10951579 204 17345471664362273677
11181472 205 18410846690354427033
11456790 92 7997699654001955278
117089 54 17609484283728159526
11719270 70 18186519912638848383
11796584 16 18202560657394969554
12522641 68 17548673216484581124
13533116 47 18040433325973481730
13782708 43 18334857230050344605
15119646 104 18259977202380148931
15183329 4 17060616720351665591
15419008 42 18052835911634385423
19377110 9 14273737386949955863
20771845 140 17895199914067966846
21927370 108 11059565235299451232
23559900 14 18411140204313989657
25269216 80 15481803711905909875
3004659 81 18131069341941713593
3633792 109 18272368689497776257
4073 2 17202477797478592753
4093350 32 18411702080287709888
4874694 18 18271249317708913490
6441014 3 17254268446128637038
9831232 110 18339361988717894783

> <PUBCHEM_SHAPE_MULTIPOLES>
618.77
24.91
3.13
1.52
44.48
2.13
0.41
2.97
-2.36
-5.72
-1.23
-2.19
0.33
1.14

> <PUBCHEM_SHAPE_SELFOVERLAP>
1326.338

> <PUBCHEM_SHAPE_VOLUME>
336.1

> <PUBCHEM_COORDINATE_TYPE>
2
5
10

$$$$

