10068142
  -OEChem-07051213093D

 46 48  0     1  0  0  0  0  0999 V2000
   -1.6855    5.0941   -0.1542 F   0  0  0  0  0  0  0  0  0  0  0  0
    0.0947   -0.5764    1.6401 O   0  0  0  0  0  0  0  0  0  0  0  0
   -4.4745   -2.3730    1.1298 O   0  5  0  0  0  0  0  0  0  0  0  0
   -4.4892   -2.0508   -0.2097 N   0  3  0  0  0  0  0  0  0  0  0  0
    6.8683   -1.2306   -0.5087 N   0  0  0  0  0  0  0  0  0  0  0  0
    0.1439   -0.2072    0.2253 C   0  0  2  0  0  0  0  0  0  0  0  0
   -0.7589   -1.1567   -0.5536 C   0  0  0  0  0  0  0  0  0  0  0  0
    1.5940   -0.3523   -0.1346 C   0  0  0  0  0  0  0  0  0  0  0  0
   -2.1812   -1.1545    0.0067 C   0  0  0  0  0  0  0  0  0  0  0  0
   -0.3421    1.2004    0.1249 C   0  0  0  0  0  0  0  0  0  0  0  0
    2.2948   -0.8653    0.9481 C   0  0  0  0  0  0  0  0  0  0  0  0
   -3.1116   -2.0856   -0.7556 C   0  0  0  0  0  0  0  0  0  0  0  0
    1.3687   -1.1044    2.0782 C   0  0  0  0  0  0  0  0  0  0  0  0
    2.2398   -0.0633   -1.3277 C   0  0  0  0  0  0  0  0  0  0  0  0
    3.6566   -1.1035    0.8782 C   0  0  0  0  0  0  0  0  0  0  0  0
   -0.8741    1.6693   -1.0757 C   0  0  0  0  0  0  0  0  0  0  0  0
   -0.2630    2.0453    1.2313 C   0  0  0  0  0  0  0  0  0  0  0  0
   -5.3657   -3.0437   -0.9319 C   0  0  0  0  0  0  0  0  0  0  0  0
   -5.0810   -0.6716   -0.3641 C   0  0  0  0  0  0  0  0  0  0  0  0
    3.6143   -0.2941   -1.4126 C   0  0  0  0  0  0  0  0  0  0  0  0
    4.3190   -0.8108   -0.3152 C   0  0  0  0  0  0  0  0  0  0  0  0
   -1.3274    2.9851   -1.1701 C   0  0  0  0  0  0  0  0  0  0  0  0
   -0.7165    3.3610    1.1368 C   0  0  0  0  0  0  0  0  0  0  0  0
   -1.2486    3.8310   -0.0639 C   0  0  0  0  0  0  0  0  0  0  0  0
    5.7253   -1.0425   -0.4218 C   0  0  0  0  0  0  0  0  0  0  0  0
   -0.7581   -0.9760   -1.6342 H   0  0  0  0  0  0  0  0  0  0  0  0
   -0.3745   -2.1811   -0.4390 H   0  0  0  0  0  0  0  0  0  0  0  0
   -2.1593   -1.4493    1.0625 H   0  0  0  0  0  0  0  0  0  0  0  0
   -2.5802   -0.1395   -0.0199 H   0  0  0  0  0  0  0  0  0  0  0  0
   -3.1756   -1.8163   -1.8160 H   0  0  0  0  0  0  0  0  0  0  0  0
   -2.7690   -3.1236   -0.6703 H   0  0  0  0  0  0  0  0  0  0  0  0
    1.2475   -2.1714    2.2852 H   0  0  0  0  0  0  0  0  0  0  0  0
    1.6707   -0.5704    2.9830 H   0  0  0  0  0  0  0  0  0  0  0  0
    1.6995    0.3302   -2.1819 H   0  0  0  0  0  0  0  0  0  0  0  0
    4.1867   -1.5093    1.7348 H   0  0  0  0  0  0  0  0  0  0  0  0
   -0.9297    1.0603   -1.9712 H   0  0  0  0  0  0  0  0  0  0  0  0
    0.1594    1.7250    2.1791 H   0  0  0  0  0  0  0  0  0  0  0  0
   -4.9197   -4.0332   -0.8004 H   0  0  0  0  0  0  0  0  0  0  0  0
   -6.3579   -3.0085   -0.4736 H   0  0  0  0  0  0  0  0  0  0  0  0
   -5.4006   -2.7576   -1.9861 H   0  0  0  0  0  0  0  0  0  0  0  0
   -4.6058    0.0038    0.3499 H   0  0  0  0  0  0  0  0  0  0  0  0
   -4.9409   -0.3493   -1.3987 H   0  0  0  0  0  0  0  0  0  0  0  0
   -6.1455   -0.7451   -0.1220 H   0  0  0  0  0  0  0  0  0  0  0  0
    4.1293   -0.0691   -2.3441 H   0  0  0  0  0  0  0  0  0  0  0  0
   -1.7364    3.3536   -2.1063 H   0  0  0  0  0  0  0  0  0  0  0  0
   -0.6524    4.0213    1.9967 H   0  0  0  0  0  0  0  0  0  0  0  0
  1 24  1  0  0  0  0
  2  6  1  0  0  0  0
  2 13  1  0  0  0  0
  3  4  1  0  0  0  0
  4 12  1  0  0  0  0
  4 18  1  0  0  0  0
  4 19  1  0  0  0  0
  5 25  3  0  0  0  0
  6  7  1  0  0  0  0
  6  8  1  0  0  0  0
  6 10  1  0  0  0  0
  7  9  1  0  0  0  0
  7 26  1  0  0  0  0
  7 27  1  0  0  0  0
  8 11  2  0  0  0  0
  8 14  1  0  0  0  0
  9 12  1  0  0  0  0
  9 28  1  0  0  0  0
  9 29  1  0  0  0  0
 10 16  2  0  0  0  0
 10 17  1  0  0  0  0
 11 13  1  0  0  0  0
 11 15  1  0  0  0  0
 12 30  1  0  0  0  0
 12 31  1  0  0  0  0
 13 32  1  0  0  0  0
 13 33  1  0  0  0  0
 14 20  2  0  0  0  0
 14 34  1  0  0  0  0
 15 21  2  0  0  0  0
 15 35  1  0  0  0  0
 16 22  1  0  0  0  0
 16 36  1  0  0  0  0
 17 23  2  0  0  0  0
 17 37  1  0  0  0  0
 18 38  1  0  0  0  0
 18 39  1  0  0  0  0
 18 40  1  0  0  0  0
 19 41  1  0  0  0  0
 19 42  1  0  0  0  0
 19 43  1  0  0  0  0
 20 21  1  0  0  0  0
 20 44  1  0  0  0  0
 21 25  1  0  0  0  0
 22 24  2  0  0  0  0
 22 45  1  0  0  0  0
 23 24  1  0  0  0  0
 23 46  1  0  0  0  0
M  CHG  2   3  -1   4   1
M  END
> <PUBCHEM_COMPOUND_CID>
10068142

> <PUBCHEM_CONFORMER_RMSD>
0.8

> <PUBCHEM_CONFORMER_DIVERSEORDER>
3
8
7
6
9
18
15
4
19
2
17
22
5
20
12
11
1
21
14
16
13
10

> <PUBCHEM_MMFF94_PARTIAL_CHARGES>
30
1 -0.19
10 -0.14
11 -0.14
12 0.26
13 0.42
14 -0.15
15 -0.15
16 -0.15
17 -0.15
18 0.26
19 0.26
2 -0.56
20 -0.15
21 0.07
22 -0.15
23 -0.15
24 0.19
25 0.48
3 -0.75
34 0.15
35 0.15
36 0.15
37 0.15
4 -0.02
44 0.15
45 0.15
46 0.15
5 -0.56
6 0.57
8 -0.14

> <PUBCHEM_EFFECTIVE_ROTOR_COUNT>
5.6

> <PUBCHEM_PHARMACOPHORE_FEATURES>
6
1 2 acceptor
1 3 anion
1 5 acceptor
5 2 6 8 11 13 rings
6 10 16 17 22 23 24 rings
6 8 11 14 15 20 21 rings

> <PUBCHEM_HEAVY_ATOM_COUNT>
25

> <PUBCHEM_ATOM_DEF_STEREO_COUNT>
0

> <PUBCHEM_ATOM_UDEF_STEREO_COUNT>
1

> <PUBCHEM_BOND_DEF_STEREO_COUNT>
0

> <PUBCHEM_BOND_UDEF_STEREO_COUNT>
0

> <PUBCHEM_ISOTOPIC_ATOM_COUNT>
0

> <PUBCHEM_COMPONENT_COUNT>
1

> <PUBCHEM_CACTVS_TAUTO_COUNT>
1

> <PUBCHEM_CONFORMER_ID>
0099A0AE00000003

> <PUBCHEM_MMFF94_ENERGY>
76.7747

> <PUBCHEM_FEATURE_SELFOVERLAP>
30.527

> <PUBCHEM_SHAPE_FINGERPRINT>
10764073 3 14999615249296397315
10940486 97 17679867007337959071
11421498 54 18202569500938685219
12553582 1 18339940220428991159
12788726 201 18343025527101990514
12954195 1 18338516477466679894
13009979 54 17896588506526837331
13134695 92 18267021644482558317
13540713 5 17772479134350349194
13583140 156 17605863497643108818
13590594 115 18339350878333734753
14068700 675 18343023268428792430
14251757 5 18340775948392824773
14347329 18 16628311872946899719
14347332 77 18338801225483380718
14713325 29 18116428335648617118
14955137 171 18267015060224541755
15219462 58 17831906582421888890
16087824 20 18267021834189996269
1813 80 18188202100857032591
18222031 100 18262525788491961247
200 152 17989204841610417866
20567600 347 9727368939107654029
20587220 17 11669282542187597471
20600515 1 17750216041910460727
21033648 29 17167872950323850499
21285901 2 17895743084536623479
21304303 172 18259981587805495657
21426921 1 18338233881561442756
22849341 161 18264191544697761619
23352939 185 18042116579644314144
23402539 116 18342733027086538414
23557571 272 18334576880091327750
23558518 356 18055626463376975602
23598288 3 18194136328347517202
23622692 88 6555410929464860842
266924 1 17988086719883931082
283562 15 18342739645683947810
4409770 3 18267591380653378797
5486654 2 18121788485163358909
6442390 28 17538827484298193473
68521 5 18410576210076405277
7164475 11 18341613767341410918

> <PUBCHEM_SHAPE_MULTIPOLES>
485.51
10.52
4.44
1.46
5.7
6.75
0.38
-12.36
-2.87
-6.46
-0.15
0.43
-0.05
-0.25

> <PUBCHEM_SHAPE_SELFOVERLAP>
1046.431

> <PUBCHEM_SHAPE_VOLUME>
272.4

> <PUBCHEM_COORDINATE_TYPE>
2
5
10

$$$$

