3630
  -OEChem-06251223333D

 38 40  0     1  0  0  0  0  0999 V2000
   -4.5584    0.2807   -0.7579 O   0  0  0  0  0  0  0  0  0  0  0  0
    0.8154    0.4955    2.5133 N   0  0  0  0  0  0  0  0  0  0  0  0
   -2.2907    0.4494   -1.1532 N   0  0  0  0  0  0  0  0  0  0  0  0
    0.7336    0.0426    1.1145 C   0  0  2  0  0  0  0  0  0  0  0  0
    1.5212    0.3805   -1.2625 C   0  0  2  0  0  0  0  0  0  0  0  0
    1.2387   -2.0290   -0.3531 C   0  0  1  0  0  0  0  0  0  0  0  0
    1.2318   -1.4304    1.0711 C   0  0  0  0  0  0  0  0  0  0  0  0
    1.9490   -1.0982   -1.3520 C   0  0  0  0  0  0  0  0  0  0  0  0
    1.6438    0.8458    0.1711 C   0  0  0  0  0  0  0  0  0  0  0  0
    0.0792    0.6437   -1.7403 C   0  0  0  0  0  0  0  0  0  0  0  0
   -0.7159    0.1084    0.5912 C   0  0  0  0  0  0  0  0  0  0  0  0
   -0.9878    0.3930   -0.7024 C   0  0  0  0  0  0  0  0  0  0  0  0
    1.8897   -3.4128   -0.3504 C   0  0  0  0  0  0  0  0  0  0  0  0
    2.4689    1.8504    0.5088 C   0  0  0  0  0  0  0  0  0  0  0  0
   -1.8356   -0.1870    1.4735 C   0  0  0  0  0  0  0  0  0  0  0  0
   -3.1059   -0.1366    1.0530 C   0  0  0  0  0  0  0  0  0  0  0  0
    3.3213    2.5861   -0.4651 C   0  0  0  0  0  0  0  0  0  0  0  0
   -3.3983    0.2179   -0.3597 C   0  0  0  0  0  0  0  0  0  0  0  0
    2.1806    0.9247   -1.9472 H   0  0  0  0  0  0  0  0  0  0  0  0
    0.2025   -2.1690   -0.6844 H   0  0  0  0  0  0  0  0  0  0  0  0
    0.6090   -2.0662    1.7160 H   0  0  0  0  0  0  0  0  0  0  0  0
    2.2506   -1.4828    1.4829 H   0  0  0  0  0  0  0  0  0  0  0  0
    1.7878   -1.4676   -2.3727 H   0  0  0  0  0  0  0  0  0  0  0  0
    3.0328   -1.1510   -1.1767 H   0  0  0  0  0  0  0  0  0  0  0  0
   -0.1222    0.0400   -2.6343 H   0  0  0  0  0  0  0  0  0  0  0  0
    0.0010    1.6956   -2.0482 H   0  0  0  0  0  0  0  0  0  0  0  0
    1.8654   -3.8544   -1.3523 H   0  0  0  0  0  0  0  0  0  0  0  0
    2.9352   -3.3617   -0.0280 H   0  0  0  0  0  0  0  0  0  0  0  0
    1.3590   -4.0893    0.3277 H   0  0  0  0  0  0  0  0  0  0  0  0
    0.4179   -0.1961    3.1460 H   0  0  0  0  0  0  0  0  0  0  0  0
    0.2913    1.3601    2.6390 H   0  0  0  0  0  0  0  0  0  0  0  0
    2.5463    2.1703    1.5436 H   0  0  0  0  0  0  0  0  0  0  0  0
   -1.6421   -0.4739    2.5009 H   0  0  0  0  0  0  0  0  0  0  0  0
   -2.4404    0.6774   -2.1321 H   0  0  0  0  0  0  0  0  0  0  0  0
   -3.9364   -0.3602    1.7117 H   0  0  0  0  0  0  0  0  0  0  0  0
    3.8697    3.3786    0.0558 H   0  0  0  0  0  0  0  0  0  0  0  0
    2.7201    3.0704   -1.2409 H   0  0  0  0  0  0  0  0  0  0  0  0
    4.0651    1.9264   -0.9224 H   0  0  0  0  0  0  0  0  0  0  0  0
  1 18  2  0  0  0  0
  2  4  1  0  0  0  0
  2 30  1  0  0  0  0
  2 31  1  0  0  0  0
  3 12  1  0  0  0  0
  3 18  1  0  0  0  0
  3 34  1  0  0  0  0
  4  7  1  0  0  0  0
  4  9  1  0  0  0  0
  4 11  1  0  0  0  0
  5  8  1  0  0  0  0
  5  9  1  0  0  0  0
  5 10  1  0  0  0  0
  5 19  1  0  0  0  0
  6  7  1  0  0  0  0
  6  8  1  0  0  0  0
  6 13  1  0  0  0  0
  6 20  1  0  0  0  0
  7 21  1  0  0  0  0
  7 22  1  0  0  0  0
  8 23  1  0  0  0  0
  8 24  1  0  0  0  0
  9 14  2  0  0  0  0
 10 12  1  0  0  0  0
 10 25  1  0  0  0  0
 10 26  1  0  0  0  0
 11 12  2  0  0  0  0
 11 15  1  0  0  0  0
 13 27  1  0  0  0  0
 13 28  1  0  0  0  0
 13 29  1  0  0  0  0
 14 17  1  0  0  0  0
 14 32  1  0  0  0  0
 15 16  2  0  0  0  0
 15 33  1  0  0  0  0
 16 18  1  0  0  0  0
 16 35  1  0  0  0  0
 17 36  1  0  0  0  0
 17 37  1  0  0  0  0
 17 38  1  0  0  0  0
M  END
> <PUBCHEM_COMPOUND_CID>
3630

> <PUBCHEM_CONFORMER_RMSD>
0.6

> <PUBCHEM_CONFORMER_DIVERSEORDER>
2
1
4
3

> <PUBCHEM_MMFF94_PARTIAL_CHARGES>
20
1 -0.57
10 0.14
11 -0.14
12 -0.03
14 -0.29
15 -0.15
16 -0.14
17 0.14
18 0.62
2 -0.99
3 -0.54
30 0.36
31 0.36
32 0.15
33 0.15
34 0.37
35 0.15
4 0.55
5 0.14
9 -0.28

> <PUBCHEM_EFFECTIVE_ROTOR_COUNT>
0.8

> <PUBCHEM_PHARMACOPHORE_FEATURES>
8
1 1 acceptor
1 17 hydrophobe
1 2 cation
1 2 donor
1 3 donor
6 3 11 12 15 16 18 rings
6 4 5 6 7 8 9 rings
6 4 5 9 10 11 12 rings

> <PUBCHEM_HEAVY_ATOM_COUNT>
18

> <PUBCHEM_ATOM_DEF_STEREO_COUNT>
0

> <PUBCHEM_ATOM_UDEF_STEREO_COUNT>
3

> <PUBCHEM_BOND_DEF_STEREO_COUNT>
0

> <PUBCHEM_BOND_UDEF_STEREO_COUNT>
1

> <PUBCHEM_ISOTOPIC_ATOM_COUNT>
0

> <PUBCHEM_COMPONENT_COUNT>
1

> <PUBCHEM_CACTVS_TAUTO_COUNT>
2

> <PUBCHEM_CONFORMER_ID>
00000E2E00000002

> <PUBCHEM_MMFF94_ENERGY>
42.887

> <PUBCHEM_FEATURE_SELFOVERLAP>
42.044

> <PUBCHEM_SHAPE_FINGERPRINT>
10863032 1 18188766124588947638
10922049 32 18270397166660285924
10948715 1 18197499528252847804
11578080 2 17534077533941804168
11680611 10 16083378443199796711
12119455 92 18271250396204874216
12138202 97 17975400327231569028
12326174 3 18186797006690478790
12423570 1 13844800059428197646
12592029 89 18410863157342643554
14817 1 14870083738770153546
15852999 172 18201431420298472666
16945 1 18336532911066267910
17980427 23 16915382083067020077
1813 80 17679571513978247846
19765921 60 17895185537788963152
19786989 88 18411702054053786009
20361792 2 17899695953297616078
20473742 2 18412545410138383134
20559304 39 16081375184616866999
20600515 1 16621272975124580894
22112679 90 16443612610159935392
232386 152 15554448461736560121
23419403 2 17322899618357064894
23493267 7 17095515150671315047
23557571 272 17560505228054678163
25 1 17896584112390268616
2748010 2 17417798561465792563
3729539 64 18196626637165526838
4340502 62 18188494571224242839
495365 180 18340499936366412629
633830 44 17824794824732617848
7364860 26 18411984697372338542
81228 2 17111854219835402362
84936 31 18336555992299683454

> <PUBCHEM_SHAPE_MULTIPOLES>
354.6
5.15
2.4
1.76
5.43
1.64
0.45
-1.85
-0.89
-3.47
-0.29
0.06
-0.15
0.43

> <PUBCHEM_SHAPE_SELFOVERLAP>
762.624

> <PUBCHEM_SHAPE_VOLUME>
193.5

> <PUBCHEM_COORDINATE_TYPE>
2
5
10

$$$$

