583440
  -OEChem-06241222452D

 28 29  0     0  0  0  0  0  0999 V2000
    4.3211   -2.7058    0.0000 O   0  0  0  0  0  0  0  0  0  0  0  0
    6.6353    1.0110    0.0000 O   0  0  0  0  0  0  0  0  0  0  0  0
    4.6783   -1.0110    0.0000 N   0  0  0  0  0  0  0  0  0  0  0  0
    4.9889    1.5490    0.0000 N   0  0  0  0  0  0  0  0  0  0  0  0
    3.7320   -0.7062    0.0000 C   0  0  0  0  0  0  0  0  0  0  0  0
    3.7320    0.2938    0.0000 C   0  0  0  0  0  0  0  0  0  0  0  0
    4.6783    0.5985    0.0000 C   0  0  0  0  0  0  0  0  0  0  0  0
    5.2619   -0.2062    0.0000 C   0  0  0  0  0  0  0  0  0  0  0  0
    2.8660    0.7938    0.0000 C   0  0  0  0  0  0  0  0  0  0  0  0
    2.8660   -1.2062    0.0000 C   0  0  0  0  0  0  0  0  0  0  0  0
    4.9889   -1.9615    0.0000 C   0  0  0  0  0  0  0  0  0  0  0  0
    2.0000    0.2938    0.0000 C   0  0  0  0  0  0  0  0  0  0  0  0
    2.0000   -0.7062    0.0000 C   0  0  0  0  0  0  0  0  0  0  0  0
    5.9674   -2.1677    0.0000 C   0  0  0  0  0  0  0  0  0  0  0  0
    5.9674    1.7552    0.0000 C   0  0  0  0  0  0  0  0  0  0  0  0
    6.2781    2.7058    0.0000 C   0  0  0  0  0  0  0  0  0  0  0  0
    5.8819   -0.2062    0.0000 H   0  0  0  0  0  0  0  0  0  0  0  0
    2.8660    1.4138    0.0000 H   0  0  0  0  0  0  0  0  0  0  0  0
    2.8660   -1.8262    0.0000 H   0  0  0  0  0  0  0  0  0  0  0  0
    4.5749    2.0105    0.0000 H   0  0  0  0  0  0  0  0  0  0  0  0
    1.4631    0.6038    0.0000 H   0  0  0  0  0  0  0  0  0  0  0  0
    1.4631   -1.0162    0.0000 H   0  0  0  0  0  0  0  0  0  0  0  0
    5.8396   -2.7744    0.0000 H   0  0  0  0  0  0  0  0  0  0  0  0
    6.5741   -2.2956    0.0000 H   0  0  0  0  0  0  0  0  0  0  0  0
    6.0953   -1.5610    0.0000 H   0  0  0  0  0  0  0  0  0  0  0  0
    6.8674    2.5132    0.0000 H   0  0  0  0  0  0  0  0  0  0  0  0
    6.4707    3.2951    0.0000 H   0  0  0  0  0  0  0  0  0  0  0  0
    5.6888    2.8984    0.0000 H   0  0  0  0  0  0  0  0  0  0  0  0
  1 11  2  0  0  0  0
  2 15  2  0  0  0  0
  3  5  1  0  0  0  0
  3  8  1  0  0  0  0
  3 11  1  0  0  0  0
  4  7  1  0  0  0  0
  4 15  1  0  0  0  0
  4 20  1  0  0  0  0
  5  6  1  0  0  0  0
  5 10  2  0  0  0  0
  6  7  1  0  0  0  0
  6  9  2  0  0  0  0
  7  8  2  0  0  0  0
  8 17  1  0  0  0  0
  9 12  1  0  0  0  0
  9 18  1  0  0  0  0
 10 13  1  0  0  0  0
 10 19  1  0  0  0  0
 11 14  1  0  0  0  0
 12 13  2  0  0  0  0
 12 21  1  0  0  0  0
 13 22  1  0  0  0  0
 14 23  1  0  0  0  0
 14 24  1  0  0  0  0
 14 25  1  0  0  0  0
 15 16  1  0  0  0  0
 16 26  1  0  0  0  0
 16 27  1  0  0  0  0
 16 28  1  0  0  0  0
M  END
> <PUBCHEM_COMPOUND_CID>
583440

> <PUBCHEM_COMPOUND_CANONICALIZED>
1

> <PUBCHEM_CACTVS_COMPLEXITY>
303

> <PUBCHEM_CACTVS_HBOND_ACCEPTOR>
2

> <PUBCHEM_CACTVS_HBOND_DONOR>
1

> <PUBCHEM_CACTVS_ROTATABLE_BOND>
1

> <PUBCHEM_CACTVS_SUBSKEYS>
AAADccBzMAAAAAAAAAAAAAAAAAAAAWAAAAAwAAAAAAAAAFgB8AAAHgAQAAAADAjBngQ+wPPMEACoAzV3VACCgCAxEiAI2CA4dJgIYOLA0dGUJAhglgDIyAcQgIAOAAAAAAACAAAAAAAAAAQAAAAAAAAAAA==

> <PUBCHEM_IUPAC_OPENEYE_NAME>
N-(1-acetylindol-3-yl)acetamide

> <PUBCHEM_IUPAC_CAS_NAME>
N-(1-acetyl-3-indolyl)acetamide

> <PUBCHEM_IUPAC_NAME>
N-(1-acetylindol-3-yl)acetamide

> <PUBCHEM_IUPAC_SYSTEMATIC_NAME>
N-(1-ethanoylindol-3-yl)ethanamide

> <PUBCHEM_IUPAC_TRADITIONAL_NAME>
N-(1-acetylindol-3-yl)acetamide

> <PUBCHEM_IUPAC_INCHI>
InChI=1S/C12H12N2O2/c1-8(15)13-11-7-14(9(2)16)12-6-4-3-5-10(11)12/h3-7H,1-2H3,(H,13,15)

> <PUBCHEM_IUPAC_INCHIKEY>
IHFCOYOJHBEVDZ-UHFFFAOYSA-N

> <PUBCHEM_XLOGP3_AA>
1.1

> <PUBCHEM_EXACT_MASS>
216.089878

> <PUBCHEM_MOLECULAR_FORMULA>
C12H12N2O2

> <PUBCHEM_MOLECULAR_WEIGHT>
216.23588

> <PUBCHEM_OPENEYE_CAN_SMILES>
CC(=O)NC1=CN(C2=CC=CC=C21)C(=O)C

> <PUBCHEM_OPENEYE_ISO_SMILES>
CC(=O)NC1=CN(C2=CC=CC=C21)C(=O)C

> <PUBCHEM_CACTVS_TPSA>
51.1

> <PUBCHEM_MONOISOTOPIC_WEIGHT>
216.089878

> <PUBCHEM_TOTAL_CHARGE>
0

> <PUBCHEM_HEAVY_ATOM_COUNT>
16

> <PUBCHEM_ATOM_DEF_STEREO_COUNT>
0

> <PUBCHEM_ATOM_UDEF_STEREO_COUNT>
0

> <PUBCHEM_BOND_DEF_STEREO_COUNT>
0

> <PUBCHEM_BOND_UDEF_STEREO_COUNT>
0

> <PUBCHEM_ISOTOPIC_ATOM_COUNT>
0

> <PUBCHEM_COMPONENT_COUNT>
1

> <PUBCHEM_CACTVS_TAUTO_COUNT>
3

> <PUBCHEM_COORDINATE_TYPE>
1
5
255

> <PUBCHEM_BONDANNOTATIONS>
10  13  8
12  13  8
3  5  8
3  8  8
5  10  8
5  6  8
6  7  8
6  9  8
7  8  8
9  12  8

$$$$

