13326
  -OEChem-06261208582D

 39 41  0     0  0  0  0  0  0999 V2000
    3.4668   -0.2505    0.0000 S   0  0  0  0  0  0  0  0  0  0  0  0
    4.4668   -0.2505    0.0000 O   0  0  0  0  0  0  0  0  0  0  0  0
    2.4668   -0.2505    0.0000 O   0  0  0  0  0  0  0  0  0  0  0  0
    4.4374    2.2441    0.0000 N   0  0  0  0  0  0  0  0  0  0  0  0
    3.4668    0.7495    0.0000 N   0  0  0  0  0  0  0  0  0  0  0  0
    5.4155    2.4520    0.0000 N   0  0  0  0  0  0  0  0  0  0  0  0
    3.4668   -4.2505    0.0000 N   0  0  0  0  0  0  0  0  0  0  0  0
    4.3328    1.2495    0.0000 C   0  0  0  0  0  0  0  0  0  0  0  0
    3.4668   -1.2505    0.0000 C   0  0  0  0  0  0  0  0  0  0  0  0
    5.2464    0.8428    0.0000 C   0  0  0  0  0  0  0  0  0  0  0  0
    3.6942    2.9132    0.0000 C   0  0  0  0  0  0  0  0  0  0  0  0
    5.9155    1.5859    0.0000 C   0  0  0  0  0  0  0  0  0  0  0  0
    2.6008   -1.7505    0.0000 C   0  0  0  0  0  0  0  0  0  0  0  0
    4.3328   -1.7505    0.0000 C   0  0  0  0  0  0  0  0  0  0  0  0
    3.9021    3.8913    0.0000 C   0  0  0  0  0  0  0  0  0  0  0  0
    2.7431    2.6042    0.0000 C   0  0  0  0  0  0  0  0  0  0  0  0
    6.9100    1.4814    0.0000 C   0  0  0  0  0  0  0  0  0  0  0  0
    2.6008   -2.7505    0.0000 C   0  0  0  0  0  0  0  0  0  0  0  0
    4.3328   -2.7505    0.0000 C   0  0  0  0  0  0  0  0  0  0  0  0
    3.4668   -3.2505    0.0000 C   0  0  0  0  0  0  0  0  0  0  0  0
    3.1590    4.5605    0.0000 C   0  0  0  0  0  0  0  0  0  0  0  0
    2.0000    3.2733    0.0000 C   0  0  0  0  0  0  0  0  0  0  0  0
    2.2079    4.2514    0.0000 C   0  0  0  0  0  0  0  0  0  0  0  0
    2.9299    1.0595    0.0000 H   0  0  0  0  0  0  0  0  0  0  0  0
    5.3753    0.2363    0.0000 H   0  0  0  0  0  0  0  0  0  0  0  0
    2.0638   -1.4405    0.0000 H   0  0  0  0  0  0  0  0  0  0  0  0
    4.8698   -1.4405    0.0000 H   0  0  0  0  0  0  0  0  0  0  0  0
    4.4918    4.0829    0.0000 H   0  0  0  0  0  0  0  0  0  0  0  0
    2.6142    1.9977    0.0000 H   0  0  0  0  0  0  0  0  0  0  0  0
    6.8452    0.8648    0.0000 H   0  0  0  0  0  0  0  0  0  0  0  0
    7.5266    1.4166    0.0000 H   0  0  0  0  0  0  0  0  0  0  0  0
    6.9748    2.0980    0.0000 H   0  0  0  0  0  0  0  0  0  0  0  0
    2.0638   -3.0605    0.0000 H   0  0  0  0  0  0  0  0  0  0  0  0
    4.8698   -3.0605    0.0000 H   0  0  0  0  0  0  0  0  0  0  0  0
    3.2879    5.1669    0.0000 H   0  0  0  0  0  0  0  0  0  0  0  0
    1.4103    3.0817    0.0000 H   0  0  0  0  0  0  0  0  0  0  0  0
    1.7472    4.6663    0.0000 H   0  0  0  0  0  0  0  0  0  0  0  0
    2.9299   -4.5605    0.0000 H   0  0  0  0  0  0  0  0  0  0  0  0
    4.0037   -4.5605    0.0000 H   0  0  0  0  0  0  0  0  0  0  0  0
  1  2  2  0  0  0  0
  1  3  2  0  0  0  0
  1  5  1  0  0  0  0
  1  9  1  0  0  0  0
  4  6  1  0  0  0  0
  4  8  1  0  0  0  0
  4 11  1  0  0  0  0
  5  8  1  0  0  0  0
  5 24  1  0  0  0  0
  6 12  2  0  0  0  0
  7 20  1  0  0  0  0
  7 38  1  0  0  0  0
  7 39  1  0  0  0  0
  8 10  2  0  0  0  0
  9 13  2  0  0  0  0
  9 14  1  0  0  0  0
 10 12  1  0  0  0  0
 10 25  1  0  0  0  0
 11 15  2  0  0  0  0
 11 16  1  0  0  0  0
 12 17  1  0  0  0  0
 13 18  1  0  0  0  0
 13 26  1  0  0  0  0
 14 19  2  0  0  0  0
 14 27  1  0  0  0  0
 15 21  1  0  0  0  0
 15 28  1  0  0  0  0
 16 22  2  0  0  0  0
 16 29  1  0  0  0  0
 17 30  1  0  0  0  0
 17 31  1  0  0  0  0
 17 32  1  0  0  0  0
 18 20  2  0  0  0  0
 18 33  1  0  0  0  0
 19 20  1  0  0  0  0
 19 34  1  0  0  0  0
 21 23  2  0  0  0  0
 21 35  1  0  0  0  0
 22 23  1  0  0  0  0
 22 36  1  0  0  0  0
 23 37  1  0  0  0  0
M  END
> <PUBCHEM_COMPOUND_CID>
13326

> <PUBCHEM_COMPOUND_CANONICALIZED>
1

> <PUBCHEM_CACTVS_COMPLEXITY>
479

> <PUBCHEM_CACTVS_HBOND_ACCEPTOR>
5

> <PUBCHEM_CACTVS_HBOND_DONOR>
2

> <PUBCHEM_CACTVS_ROTATABLE_BOND>
4

> <PUBCHEM_CACTVS_SUBSKEYS>
AAADceB7sABAAAAAAAAAAAAAAAAAAWAAAAAwYAAAAAAAAAAB0AAAHAQYQAAACAiBVgAz8ZJIAAKiASZiZHDSBDMhAgAcmDgwZJiIIGLA0dGEpAhwmALIyCcQAAAAAAQAAAAAAAAACAAAAAAAAAAAAAAAAA==

> <PUBCHEM_IUPAC_OPENEYE_NAME>
4-amino-N-(5-methyl-2-phenyl-pyrazol-3-yl)benzenesulfonamide

> <PUBCHEM_IUPAC_CAS_NAME>
4-amino-N-(5-methyl-2-phenyl-3-pyrazolyl)benzenesulfonamide

> <PUBCHEM_IUPAC_NAME>
4-amino-N-(5-methyl-2-phenylpyrazol-3-yl)benzenesulfonamide

> <PUBCHEM_IUPAC_SYSTEMATIC_NAME>
4-azanyl-N-(5-methyl-2-phenyl-pyrazol-3-yl)benzenesulfonamide

> <PUBCHEM_IUPAC_TRADITIONAL_NAME>
4-amino-N-(5-methyl-2-phenyl-pyrazol-3-yl)benzenesulfonamide

> <PUBCHEM_IUPAC_INCHI>
InChI=1S/C16H16N4O2S/c1-12-11-16(20(18-12)14-5-3-2-4-6-14)19-23(21,22)15-9-7-13(17)8-10-15/h2-11,19H,17H2,1H3

> <PUBCHEM_IUPAC_INCHIKEY>
MTERSQYMYBGZTP-UHFFFAOYSA-N

> <PUBCHEM_XLOGP3>
1.9

> <PUBCHEM_EXACT_MASS>
328.099397

> <PUBCHEM_MOLECULAR_FORMULA>
C16H16N4O2S

> <PUBCHEM_MOLECULAR_WEIGHT>
328.38884

> <PUBCHEM_OPENEYE_CAN_SMILES>
CC1=NN(C(=C1)NS(=O)(=O)C2=CC=C(C=C2)N)C3=CC=CC=C3

> <PUBCHEM_OPENEYE_ISO_SMILES>
CC1=NN(C(=C1)NS(=O)(=O)C2=CC=C(C=C2)N)C3=CC=CC=C3

> <PUBCHEM_CACTVS_TPSA>
98.4

> <PUBCHEM_MONOISOTOPIC_WEIGHT>
328.099397

> <PUBCHEM_TOTAL_CHARGE>
0

> <PUBCHEM_HEAVY_ATOM_COUNT>
23

> <PUBCHEM_ATOM_DEF_STEREO_COUNT>
0

> <PUBCHEM_ATOM_UDEF_STEREO_COUNT>
0

> <PUBCHEM_BOND_DEF_STEREO_COUNT>
0

> <PUBCHEM_BOND_UDEF_STEREO_COUNT>
0

> <PUBCHEM_ISOTOPIC_ATOM_COUNT>
0

> <PUBCHEM_COMPONENT_COUNT>
1

> <PUBCHEM_CACTVS_TAUTO_COUNT>
3

> <PUBCHEM_COORDINATE_TYPE>
1
5
255

> <PUBCHEM_BONDANNOTATIONS>
10  12  8
11  15  8
11  16  8
13  18  8
14  19  8
15  21  8
16  22  8
18  20  8
19  20  8
21  23  8
22  23  8
4  6  8
4  8  8
6  12  8
8  10  8
9  13  8
9  14  8

$$$$

