5284484
  -OEChem-07051213072D

 17 15  0     0  0  0  0  0  0999 V2000
    8.9282    0.2500    0.0000 Zn  0  2  0  0  0  0  0  0  0  0  0  0
    8.0622   -0.2500    0.0000 S   0  5  0  0  0  0  0  0  0  0  0  0
    2.0000    0.2500    0.0000 S   0  5  0  0  0  0  0  0  0  0  0  0
    7.1962    1.2500    0.0000 S   0  0  0  0  0  0  0  0  0  0  0  0
    2.8660   -1.2500    0.0000 S   0  0  0  0  0  0  0  0  0  0  0  0
    6.3301   -0.2500    0.0000 N   0  0  0  0  0  0  0  0  0  0  0  0
    3.7320    0.2500    0.0000 N   0  0  0  0  0  0  0  0  0  0  0  0
    5.4641    0.2500    0.0000 C   0  0  0  0  0  0  0  0  0  0  0  0
    4.5981   -0.2500    0.0000 C   0  0  0  0  0  0  0  0  0  0  0  0
    2.8660   -0.2500    0.0000 C   0  0  0  0  0  0  0  0  0  0  0  0
    7.1962    0.2500    0.0000 C   0  0  0  0  0  0  0  0  0  0  0  0
    4.1996   -0.7249    0.0000 H   0  0  0  0  0  0  0  0  0  0  0  0
    4.9966   -0.7249    0.0000 H   0  0  0  0  0  0  0  0  0  0  0  0
    5.8626    0.7249    0.0000 H   0  0  0  0  0  0  0  0  0  0  0  0
    5.0656    0.7249    0.0000 H   0  0  0  0  0  0  0  0  0  0  0  0
    6.3301   -0.8700    0.0000 H   0  0  0  0  0  0  0  0  0  0  0  0
    3.7320    0.8700    0.0000 H   0  0  0  0  0  0  0  0  0  0  0  0
  2 11  1  0  0  0  0
  3 10  1  0  0  0  0
  4 11  2  0  0  0  0
  5 10  2  0  0  0  0
  6  8  1  0  0  0  0
  6 11  1  0  0  0  0
  6 16  1  0  0  0  0
  7  9  1  0  0  0  0
  7 10  1  0  0  0  0
  7 17  1  0  0  0  0
  8  9  1  0  0  0  0
  8 14  1  0  0  0  0
  8 15  1  0  0  0  0
  9 12  1  0  0  0  0
  9 13  1  0  0  0  0
M  CHG  3   1   2   2  -1   3  -1
M  END
> <PUBCHEM_COMPOUND_CID>
5284484

> <PUBCHEM_COMPOUND_CANONICALIZED>
1

> <PUBCHEM_CACTVS_COMPLEXITY>
108

> <PUBCHEM_CACTVS_HBOND_ACCEPTOR>
4

> <PUBCHEM_CACTVS_HBOND_DONOR>
2

> <PUBCHEM_CACTVS_ROTATABLE_BOND>
3

> <PUBCHEM_CACTVS_SUBSKEYS>
AAADcYBjAABwAAACAAAAAAAAAAAAAAAAAAAAAAAAAAAAAAAAAAAAHAQQAAAAAADBAAQAAALAAAAEAAAAAAAAAAAAAAkAAIAIAAAAQAAAAAAQAAAAEAAAAAAAAAAAAAAAAAAAAAAAAAAAAAAAAAAAAAAAAA==

> <PUBCHEM_IUPAC_OPENEYE_NAME>
zinc N-[2-(sulfidocarbothioylamino)ethyl]carbamodithioate

> <PUBCHEM_IUPAC_CAS_NAME>
zinc N-[2-[[sulfanylidene(sulfido)methyl]amino]ethyl]carbamodithioate

> <PUBCHEM_IUPAC_NAME>
zinc N-[2-(sulfidocarbothioylamino)ethyl]carbamodithioate

> <PUBCHEM_IUPAC_SYSTEMATIC_NAME>
zinc N-[2-(sulfanidylcarbothioylamino)ethyl]carbamodithioate

> <PUBCHEM_IUPAC_TRADITIONAL_NAME>
zinc N-[2-(sulfidocarbothioylamino)ethyl]carbamodithioate

> <PUBCHEM_IUPAC_INCHI>
InChI=1S/C4H8N2S4.Zn/c7-3(8)5-1-2-6-4(9)10;/h1-2H2,(H2,5,7,8)(H2,6,9,10);/q;+2/p-2

> <PUBCHEM_IUPAC_INCHIKEY>
AMHNZOICSMBGDH-UHFFFAOYSA-L

> <PUBCHEM_EXACT_MASS>
273.870524

> <PUBCHEM_MOLECULAR_FORMULA>
C4H6N2S4Zn

> <PUBCHEM_MOLECULAR_WEIGHT>
275.74384

> <PUBCHEM_OPENEYE_CAN_SMILES>
C(CNC(=S)[S-])NC(=S)[S-].[Zn+2]

> <PUBCHEM_OPENEYE_ISO_SMILES>
C(CNC(=S)[S-])NC(=S)[S-].[Zn+2]

> <PUBCHEM_CACTVS_TPSA>
90.2

> <PUBCHEM_MONOISOTOPIC_WEIGHT>
273.870524

> <PUBCHEM_TOTAL_CHARGE>
0

> <PUBCHEM_HEAVY_ATOM_COUNT>
11

> <PUBCHEM_ATOM_DEF_STEREO_COUNT>
0

> <PUBCHEM_ATOM_UDEF_STEREO_COUNT>
0

> <PUBCHEM_BOND_DEF_STEREO_COUNT>
0

> <PUBCHEM_BOND_UDEF_STEREO_COUNT>
0

> <PUBCHEM_ISOTOPIC_ATOM_COUNT>
0

> <PUBCHEM_COMPONENT_COUNT>
2

> <PUBCHEM_CACTVS_TAUTO_COUNT>
3

> <PUBCHEM_COORDINATE_TYPE>
1
5
255

$$$$

