546
  -OEChem-07051212503D

 13 12  0     0  0  0  0  0  0999 V2000
    1.2184   -0.0156    0.0847 P   0  0  0  0  0  0  0  0  0  0  0  0
    2.3134    1.1655    0.0506 O   0  0  0  0  0  0  0  0  0  0  0  0
    1.2485   -0.6139   -1.4112 O   0  0  0  0  0  0  0  0  0  0  0  0
    1.3616   -1.0079    1.1879 O   0  0  0  0  0  0  0  0  0  0  0  0
   -2.7108    0.7439    0.0679 O   0  0  0  0  0  0  0  0  0  0  0  0
   -1.5320   -1.1904   -0.1002 O   0  0  0  0  0  0  0  0  0  0  0  0
   -0.3380    0.8897    0.1163 C   0  0  0  0  0  0  0  0  0  0  0  0
   -1.5612    0.0288    0.0039 C   0  0  0  0  0  0  0  0  0  0  0  0
   -0.3918    1.4411    1.0605 H   0  0  0  0  0  0  0  0  0  0  0  0
   -0.3454    1.6041   -0.7132 H   0  0  0  0  0  0  0  0  0  0  0  0
    3.2664    0.9334    0.0565 H   0  0  0  0  0  0  0  0  0  0  0  0
    1.9995   -1.1837   -1.6823 H   0  0  0  0  0  0  0  0  0  0  0  0
   -3.5037    0.1691    0.0104 H   0  0  0  0  0  0  0  0  0  0  0  0
  1  2  1  0  0  0  0
  1  3  1  0  0  0  0
  1  4  2  0  0  0  0
  1  7  1  0  0  0  0
  2 11  1  0  0  0  0
  3 12  1  0  0  0  0
  5  8  1  0  0  0  0
  5 13  1  0  0  0  0
  6  8  2  0  0  0  0
  7  8  1  0  0  0  0
  7  9  1  0  0  0  0
  7 10  1  0  0  0  0
M  END
> <PUBCHEM_COMPOUND_CID>
546

> <PUBCHEM_CONFORMER_RMSD>
0.4

> <PUBCHEM_CONFORMER_DIVERSEORDER>
1
2
3

> <PUBCHEM_MMFF94_PARTIAL_CHARGES>
11
1 1.24
11 0.5
12 0.5
13 0.5
2 -0.77
3 -0.77
4 -0.7
5 -0.65
6 -0.57
7 0.06
8 0.66

> <PUBCHEM_EFFECTIVE_ROTOR_COUNT>
2

> <PUBCHEM_PHARMACOPHORE_FEATURES>
7
1 2 acceptor
1 3 acceptor
1 4 acceptor
1 5 acceptor
1 6 acceptor
3 5 6 8 anion
4 1 2 3 4 anion

> <PUBCHEM_HEAVY_ATOM_COUNT>
8

> <PUBCHEM_ATOM_DEF_STEREO_COUNT>
0

> <PUBCHEM_ATOM_UDEF_STEREO_COUNT>
0

> <PUBCHEM_BOND_DEF_STEREO_COUNT>
0

> <PUBCHEM_BOND_UDEF_STEREO_COUNT>
0

> <PUBCHEM_ISOTOPIC_ATOM_COUNT>
0

> <PUBCHEM_COMPONENT_COUNT>
1

> <PUBCHEM_CACTVS_TAUTO_COUNT>
1

> <PUBCHEM_CONFORMER_ID>
0000022200000001

> <PUBCHEM_MMFF94_ENERGY>
-25.6278

> <PUBCHEM_FEATURE_SELFOVERLAP>
35.616

> <PUBCHEM_SHAPE_FINGERPRINT>
14390081 3 18334579005720662409
18185500 45 18202007628831728371
21040471 1 18336546131033393433
24536 1 17894914065574696329
29004967 10 17458616796474767488

> <PUBCHEM_SHAPE_MULTIPOLES>
139.14
3.15
1.18
0.93
0.99
0.02
-0.11
-0.57
0.06
-0.11
0.07
-0.47
0.28
-0.08

> <PUBCHEM_SHAPE_SELFOVERLAP>
247.118

> <PUBCHEM_SHAPE_VOLUME>
90.6

> <PUBCHEM_COORDINATE_TYPE>
2
5
10

$$$$

