5281594
  -OEChem-07051212582D

 63 65  0     1  0  0  0  0  0999 V2000
    4.0781    2.3869    0.0000 O   0  0  0  0  0  0  0  0  0  0  0  0
    4.5815    1.5228    0.0000 O   0  0  0  0  0  0  0  0  0  0  0  0
    4.4271   -1.4896    0.0000 O   0  0  0  0  0  0  0  0  0  0  0  0
    7.5958    1.5104    0.0000 O   0  0  0  0  0  0  0  0  0  0  0  0
    3.4090   -0.0883    0.0000 N   0  0  0  0  0  0  0  0  0  0  0  0
    5.5781   -0.2112    0.0000 N   0  0  0  0  0  0  0  0  0  0  0  0
    2.8090   -2.6651    0.0000 N   0  0  0  0  0  0  0  0  0  0  0  0
    8.0781    0.6548    0.0000 N   0  0  0  0  0  0  0  0  0  0  0  0
    4.0781    0.6548    0.0000 C   0  0  1  0  0  0  0  0  0  0  0  0
    3.5781    1.5209    0.0000 C   0  0  2  0  0  0  0  0  0  0  0  0
    2.6000    1.3130    0.0000 C   0  0  0  0  0  0  0  0  0  0  0  0
    2.4954    0.3184    0.0000 C   0  0  0  0  0  0  0  0  0  0  0  0
    5.0781    0.6548    0.0000 C   0  0  0  0  0  0  0  0  0  0  0  0
    6.5781   -0.2112    0.0000 C   0  0  1  0  0  0  0  0  0  0  0  0
    3.5135   -1.0828    0.0000 C   0  0  0  0  0  0  0  0  0  0  0  0
    7.0781   -1.0772    0.0000 C   0  0  2  0  0  0  0  0  0  0  0  0
    2.7045   -1.6706    0.0000 C   0  0  0  0  0  0  0  0  0  0  0  0
    6.5781   -1.9432    0.0000 C   0  0  0  0  0  0  0  0  0  0  0  0
    5.0781    2.3869    0.0000 C   0  0  0  0  0  0  0  0  0  0  0  0
    8.0781   -1.0772    0.0000 C   0  0  0  0  0  0  0  0  0  0  0  0
    7.0781    0.6548    0.0000 C   0  0  0  0  0  0  0  0  0  0  0  0
    7.0781   -2.8093    0.0000 C   0  0  0  0  0  0  0  0  0  0  0  0
    5.5781    1.5209    0.0000 C   0  0  0  0  0  0  0  0  0  0  0  0
    5.5781    3.2529    0.0000 C   0  0  0  0  0  0  0  0  0  0  0  0
    2.0000   -3.2529    0.0000 C   0  0  0  0  0  0  0  0  0  0  0  0
    3.7226   -3.0719    0.0000 C   0  0  0  0  0  0  0  0  0  0  0  0
    7.0781    2.3869    0.0000 C   0  0  0  0  0  0  0  0  0  0  0  0
    6.5781    1.5209    0.0000 C   0  0  0  0  0  0  0  0  0  0  0  0
    6.5781    3.2529    0.0000 C   0  0  0  0  0  0  0  0  0  0  0  0
    8.5781    1.5209    0.0000 C   0  0  0  0  0  0  0  0  0  0  0  0
    8.0781    2.3869    0.0000 C   0  0  0  0  0  0  0  0  0  0  0  0
    4.4238   -0.1217    0.0000 H   0  0  0  0  0  0  0  0  0  0  0  0
    3.0785    2.2085    0.0000 H   0  0  0  0  0  0  0  0  0  0  0  0
    2.5352    1.9296    0.0000 H   0  0  0  0  0  0  0  0  0  0  0  0
    1.9800    1.3130    0.0000 H   0  0  0  0  0  0  0  0  0  0  0  0
    1.8890    0.4473    0.0000 H   0  0  0  0  0  0  0  0  0  0  0  0
    2.3038   -0.2712    0.0000 H   0  0  0  0  0  0  0  0  0  0  0  0
    6.1531   -0.9473    0.0000 H   0  0  0  0  0  0  0  0  0  0  0  0
    5.2681   -0.7481    0.0000 H   0  0  0  0  0  0  0  0  0  0  0  0
    7.3881   -1.6141    0.0000 H   0  0  0  0  0  0  0  0  0  0  0  0
    2.4327   -1.1134    0.0000 H   0  0  0  0  0  0  0  0  0  0  0  0
    2.1085   -1.8415    0.0000 H   0  0  0  0  0  0  0  0  0  0  0  0
    6.1032   -1.5447    0.0000 H   0  0  0  0  0  0  0  0  0  0  0  0
    6.1032   -2.3418    0.0000 H   0  0  0  0  0  0  0  0  0  0  0  0
    8.0781   -1.6972    0.0000 H   0  0  0  0  0  0  0  0  0  0  0  0
    8.6981   -1.0772    0.0000 H   0  0  0  0  0  0  0  0  0  0  0  0
    8.0781   -0.4572    0.0000 H   0  0  0  0  0  0  0  0  0  0  0  0
    6.5412   -3.1193    0.0000 H   0  0  0  0  0  0  0  0  0  0  0  0
    7.3881   -3.3462    0.0000 H   0  0  0  0  0  0  0  0  0  0  0  0
    7.6150   -2.4993    0.0000 H   0  0  0  0  0  0  0  0  0  0  0  0
    5.2681    0.9839    0.0000 H   0  0  0  0  0  0  0  0  0  0  0  0
    5.2681    3.7898    0.0000 H   0  0  0  0  0  0  0  0  0  0  0  0
    8.3881    0.1179    0.0000 H   0  0  0  0  0  0  0  0  0  0  0  0
    3.4704   -3.6383    0.0000 H   0  0  0  0  0  0  0  0  0  0  0  0
    4.2890   -3.3240    0.0000 H   0  0  0  0  0  0  0  0  0  0  0  0
    3.9747   -2.5055    0.0000 H   0  0  0  0  0  0  0  0  0  0  0  0
    1.6356   -2.7513    0.0000 H   0  0  0  0  0  0  0  0  0  0  0  0
    1.4984   -3.6174    0.0000 H   0  0  0  0  0  0  0  0  0  0  0  0
    2.3644   -3.7545    0.0000 H   0  0  0  0  0  0  0  0  0  0  0  0
    6.8881    0.9839    0.0000 H   0  0  0  0  0  0  0  0  0  0  0  0
    6.8881    3.7898    0.0000 H   0  0  0  0  0  0  0  0  0  0  0  0
    9.1981    1.5209    0.0000 H   0  0  0  0  0  0  0  0  0  0  0  0
    8.3881    2.9238    0.0000 H   0  0  0  0  0  0  0  0  0  0  0  0
  1 10  1  0  0  0  0
  1 19  1  0  0  0  0
  2 13  2  0  0  0  0
  3 15  2  0  0  0  0
  4 21  2  0  0  0  0
  5  9  1  0  0  0  0
  5 12  1  0  0  0  0
  5 15  1  0  0  0  0
  6 13  1  0  0  0  0
  6 14  1  0  0  0  0
  6 39  1  0  0  0  0
  7 17  1  0  0  0  0
  7 25  1  0  0  0  0
  7 26  1  0  0  0  0
  8 21  1  0  0  0  0
  8 30  1  0  0  0  0
  8 53  1  0  0  0  0
  9 10  1  0  0  0  0
  9 13  1  0  0  0  0
  9 32  1  6  0  0  0
 10 11  1  0  0  0  0
 10 33  1  1  0  0  0
 11 12  1  0  0  0  0
 11 34  1  0  0  0  0
 11 35  1  0  0  0  0
 12 36  1  0  0  0  0
 12 37  1  0  0  0  0
 14 16  1  0  0  0  0
 14 21  1  0  0  0  0
 14 38  1  1  0  0  0
 15 17  1  0  0  0  0
 16 18  1  0  0  0  0
 16 20  1  1  0  0  0
 16 40  1  0  0  0  0
 17 41  1  0  0  0  0
 17 42  1  0  0  0  0
 18 22  1  0  0  0  0
 18 43  1  0  0  0  0
 18 44  1  0  0  0  0
 19 23  2  0  0  0  0
 19 24  1  0  0  0  0
 20 45  1  0  0  0  0
 20 46  1  0  0  0  0
 20 47  1  0  0  0  0
 22 48  1  0  0  0  0
 22 49  1  0  0  0  0
 22 50  1  0  0  0  0
 23 28  1  0  0  0  0
 23 51  1  0  0  0  0
 24 29  2  0  0  0  0
 24 52  1  0  0  0  0
 25 57  1  0  0  0  0
 25 58  1  0  0  0  0
 25 59  1  0  0  0  0
 26 54  1  0  0  0  0
 26 55  1  0  0  0  0
 26 56  1  0  0  0  0
 27 28  2  0  0  0  0
 27 29  1  0  0  0  0
 27 31  1  0  0  0  0
 28 60  1  0  0  0  0
 29 61  1  0  0  0  0
 30 31  2  0  0  0  0
 30 62  1  0  0  0  0
 31 63  1  0  0  0  0
M  END
> <PUBCHEM_COMPOUND_CID>
5281594

> <PUBCHEM_COMPOUND_CANONICALIZED>
1

> <PUBCHEM_CACTVS_COMPLEXITY>
687

> <PUBCHEM_CACTVS_HBOND_ACCEPTOR>
5

> <PUBCHEM_CACTVS_HBOND_DONOR>
2

> <PUBCHEM_CACTVS_ROTATABLE_BOND>
4

> <PUBCHEM_CACTVS_SUBSKEYS>
AAADcfB7uAAAAAAAAAAAAAAAAAAAAWAAAAAwAAAAAAAAAAABAAAAHgAQAAAADTzhmAYyBoPABACIAiFWUAACCAAgIgAIiIGOCIgOZjaEsTqXOCCm9hGYqAeYwQAOIAAAAAAAAABAAAAAAAAAAAAAAAAAAA==

> <PUBCHEM_IUPAC_INCHI>
InChI=1S/C23H32N4O4/c1-5-15(2)20-22(29)24-12-10-16-6-8-17(9-7-16)31-18-11-13-27(19(28)14-26(3)4)21(18)23(30)25-20/h6-10,12,15,18,20-21H,5,11,13-14H2,1-4H3,(H,24,29)(H,25,30)/b12-10-/t15-,18-,20-,21-/m0/s1

> <PUBCHEM_IUPAC_INCHIKEY>
JPEVGZLXTREPOA-WRFCVBCGSA-N

> <PUBCHEM_XLOGP3_AA>
2.2

> <PUBCHEM_EXACT_MASS>
428.242356

> <PUBCHEM_MOLECULAR_FORMULA>
C23H32N4O4

> <PUBCHEM_MOLECULAR_WEIGHT>
428.52458

> <PUBCHEM_OPENEYE_CAN_SMILES>
CCC(C)C1C(=O)NC=CC2=CC=C(C=C2)OC3CCN(C3C(=O)N1)C(=O)CN(C)C

> <PUBCHEM_OPENEYE_ISO_SMILES>
CC[C@H](C)[C@H]1C(=O)N/C=C\C2=CC=C(C=C2)O[C@H]3CCN([C@@H]3C(=O)N1)C(=O)CN(C)C

> <PUBCHEM_CACTVS_TPSA>
91

> <PUBCHEM_MONOISOTOPIC_WEIGHT>
428.242356

> <PUBCHEM_TOTAL_CHARGE>
0

> <PUBCHEM_HEAVY_ATOM_COUNT>
31

> <PUBCHEM_ATOM_DEF_STEREO_COUNT>
4

> <PUBCHEM_ATOM_UDEF_STEREO_COUNT>
0

> <PUBCHEM_BOND_DEF_STEREO_COUNT>
1

> <PUBCHEM_BOND_UDEF_STEREO_COUNT>
0

> <PUBCHEM_ISOTOPIC_ATOM_COUNT>
0

> <PUBCHEM_COMPONENT_COUNT>
1

> <PUBCHEM_CACTVS_TAUTO_COUNT>
6

> <PUBCHEM_COORDINATE_TYPE>
1
5
255

> <PUBCHEM_BONDANNOTATIONS>
10  33  5
14  38  5
16  20  5
19  23  8
19  24  8
23  28  8
24  29  8
27  28  8
27  29  8
9  32  6

$$$$

