14477879
  -OEChem-07051213102D

 44 44  0     1  0  0  0  0  0999 V2000
    8.5991   -0.6550    0.0000 O   0  0  0  0  0  0  0  0  0  0  0  0
    7.7331    0.8450    0.0000 O   0  0  0  0  0  0  0  0  0  0  0  0
    4.2690    4.8450    0.0000 O   0  0  0  0  0  0  0  0  0  0  0  0
    2.5369    3.8450    0.0000 O   0  0  0  0  0  0  0  0  0  0  0  0
    7.7331   -2.1550    0.0000 C   0  0  0  0  0  0  0  0  0  0  0  0
    7.7331   -1.1550    0.0000 C   0  0  3  0  0  0  0  0  0  0  0  0
    8.5991   -2.6550    0.0000 C   0  0  0  0  0  0  0  0  0  0  0  0
    6.8671   -0.6550    0.0000 C   0  0  0  0  0  0  0  0  0  0  0  0
    8.5991   -3.6550    0.0000 C   0  0  0  0  0  0  0  0  0  0  0  0
    6.8671    0.3450    0.0000 C   0  0  0  0  0  0  0  0  0  0  0  0
    9.4651   -4.1550    0.0000 C   0  0  0  0  0  0  0  0  0  0  0  0
    6.0010    0.8450    0.0000 C   0  0  0  0  0  0  0  0  0  0  0  0
    6.0010    1.8450    0.0000 C   0  0  0  0  0  0  0  0  0  0  0  0
    5.1350    2.3450    0.0000 C   0  0  0  0  0  0  0  0  0  0  0  0
    9.4651   -5.1550    0.0000 C   0  0  0  0  0  0  0  0  0  0  0  0
    5.1350    3.3450    0.0000 C   0  0  0  0  0  0  0  0  0  0  0  0
    4.2690    1.8450    0.0000 C   0  0  0  0  0  0  0  0  0  0  0  0
    4.2690    3.8450    0.0000 C   0  0  0  0  0  0  0  0  0  0  0  0
    3.4030    2.3450    0.0000 C   0  0  0  0  0  0  0  0  0  0  0  0
    3.4030    3.3450    0.0000 C   0  0  0  0  0  0  0  0  0  0  0  0
    7.1225   -2.0473    0.0000 H   0  0  0  0  0  0  0  0  0  0  0  0
    7.5210   -2.7376    0.0000 H   0  0  0  0  0  0  0  0  0  0  0  0
    7.7331   -0.5350    0.0000 H   0  0  0  0  0  0  0  0  0  0  0  0
    9.2097   -2.7627    0.0000 H   0  0  0  0  0  0  0  0  0  0  0  0
    8.8112   -2.0724    0.0000 H   0  0  0  0  0  0  0  0  0  0  0  0
    6.2565   -0.5473    0.0000 H   0  0  0  0  0  0  0  0  0  0  0  0
    6.6550   -1.2376    0.0000 H   0  0  0  0  0  0  0  0  0  0  0  0
    7.9885   -3.5473    0.0000 H   0  0  0  0  0  0  0  0  0  0  0  0
    8.3871   -4.2376    0.0000 H   0  0  0  0  0  0  0  0  0  0  0  0
   10.0757   -4.2627    0.0000 H   0  0  0  0  0  0  0  0  0  0  0  0
    9.6772   -3.5724    0.0000 H   0  0  0  0  0  0  0  0  0  0  0  0
    5.3905    0.9527    0.0000 H   0  0  0  0  0  0  0  0  0  0  0  0
    5.7890    0.2624    0.0000 H   0  0  0  0  0  0  0  0  0  0  0  0
    6.6116    1.7373    0.0000 H   0  0  0  0  0  0  0  0  0  0  0  0
    6.2131    2.4276    0.0000 H   0  0  0  0  0  0  0  0  0  0  0  0
    9.1360   -0.9650    0.0000 H   0  0  0  0  0  0  0  0  0  0  0  0
    8.8451   -5.1550    0.0000 H   0  0  0  0  0  0  0  0  0  0  0  0
    9.4651   -5.7750    0.0000 H   0  0  0  0  0  0  0  0  0  0  0  0
   10.0851   -5.1550    0.0000 H   0  0  0  0  0  0  0  0  0  0  0  0
    5.6720    3.6550    0.0000 H   0  0  0  0  0  0  0  0  0  0  0  0
    4.2690    1.2250    0.0000 H   0  0  0  0  0  0  0  0  0  0  0  0
    2.8660    2.0350    0.0000 H   0  0  0  0  0  0  0  0  0  0  0  0
    4.8059    5.1550    0.0000 H   0  0  0  0  0  0  0  0  0  0  0  0
    2.0000    3.5350    0.0000 H   0  0  0  0  0  0  0  0  0  0  0  0
  1  6  1  0  0  0  0
  1 36  1  0  0  0  0
  2 10  2  0  0  0  0
  3 18  1  0  0  0  0
  3 43  1  0  0  0  0
  4 20  1  0  0  0  0
  4 44  1  0  0  0  0
  5  6  1  0  0  0  0
  5  7  1  0  0  0  0
  5 21  1  0  0  0  0
  5 22  1  0  0  0  0
  6  8  1  0  0  0  0
  6 23  1  0  0  0  0
  7  9  1  0  0  0  0
  7 24  1  0  0  0  0
  7 25  1  0  0  0  0
  8 10  1  0  0  0  0
  8 26  1  0  0  0  0
  8 27  1  0  0  0  0
  9 11  1  0  0  0  0
  9 28  1  0  0  0  0
  9 29  1  0  0  0  0
 10 12  1  0  0  0  0
 11 15  1  0  0  0  0
 11 30  1  0  0  0  0
 11 31  1  0  0  0  0
 12 13  1  0  0  0  0
 12 32  1  0  0  0  0
 12 33  1  0  0  0  0
 13 14  1  0  0  0  0
 13 34  1  0  0  0  0
 13 35  1  0  0  0  0
 14 16  2  0  0  0  0
 14 17  1  0  0  0  0
 15 37  1  0  0  0  0
 15 38  1  0  0  0  0
 15 39  1  0  0  0  0
 16 18  1  0  0  0  0
 16 40  1  0  0  0  0
 17 19  2  0  0  0  0
 17 41  1  0  0  0  0
 18 20  2  0  0  0  0
 19 20  1  0  0  0  0
 19 42  1  0  0  0  0
M  END
> <PUBCHEM_COMPOUND_CID>
14477879

> <PUBCHEM_COMPOUND_CANONICALIZED>
1

> <PUBCHEM_CACTVS_COMPLEXITY>
280

> <PUBCHEM_CACTVS_HBOND_ACCEPTOR>
4

> <PUBCHEM_CACTVS_HBOND_DONOR>
3

> <PUBCHEM_CACTVS_ROTATABLE_BOND>
9

> <PUBCHEM_CACTVS_SUBSKEYS>
AAADceB4OAAAAAAAAAAAAAAAAAAAAAAAAAAwAAAAAAAAAAABAAAAGgAACAAADBSgmAIyBoAAAgCIAqBSAAACAAAgIAAIiAEGiIgJNjaCERKAcAEk4BEJmAeIyPCOIAABAAAAQABAAAIAAACAAAAAAAAAAA==

> <PUBCHEM_IUPAC_OPENEYE_NAME>
1-(3,4-dihydroxyphenyl)-5-hydroxy-decan-3-one

> <PUBCHEM_IUPAC_CAS_NAME>
1-(3,4-dihydroxyphenyl)-5-hydroxy-3-decanone

> <PUBCHEM_IUPAC_NAME>
1-(3,4-dihydroxyphenyl)-5-hydroxydecan-3-one

> <PUBCHEM_IUPAC_SYSTEMATIC_NAME>
1-[3,4-bis(oxidanyl)phenyl]-5-oxidanyl-decan-3-one

> <PUBCHEM_IUPAC_TRADITIONAL_NAME>
1-(3,4-dihydroxyphenyl)-5-hydroxy-decan-3-one

> <PUBCHEM_IUPAC_INCHI>
InChI=1S/C16H24O4/c1-2-3-4-5-13(17)11-14(18)8-6-12-7-9-15(19)16(20)10-12/h7,9-10,13,17,19-20H,2-6,8,11H2,1H3

> <PUBCHEM_IUPAC_INCHIKEY>
QYRSUDCXGPMNSS-UHFFFAOYSA-N

> <PUBCHEM_XLOGP3_AA>
2.8

> <PUBCHEM_EXACT_MASS>
280.167459

> <PUBCHEM_MOLECULAR_FORMULA>
C16H24O4

> <PUBCHEM_MOLECULAR_WEIGHT>
280.35936

> <PUBCHEM_OPENEYE_CAN_SMILES>
CCCCCC(CC(=O)CCC1=CC(=C(C=C1)O)O)O

> <PUBCHEM_OPENEYE_ISO_SMILES>
CCCCCC(CC(=O)CCC1=CC(=C(C=C1)O)O)O

> <PUBCHEM_CACTVS_TPSA>
77.8

> <PUBCHEM_MONOISOTOPIC_WEIGHT>
280.167459

> <PUBCHEM_TOTAL_CHARGE>
0

> <PUBCHEM_HEAVY_ATOM_COUNT>
20

> <PUBCHEM_ATOM_DEF_STEREO_COUNT>
0

> <PUBCHEM_ATOM_UDEF_STEREO_COUNT>
1

> <PUBCHEM_BOND_DEF_STEREO_COUNT>
0

> <PUBCHEM_BOND_UDEF_STEREO_COUNT>
0

> <PUBCHEM_ISOTOPIC_ATOM_COUNT>
0

> <PUBCHEM_COMPONENT_COUNT>
1

> <PUBCHEM_CACTVS_TAUTO_COUNT>
88

> <PUBCHEM_COORDINATE_TYPE>
1
5
255

> <PUBCHEM_BONDANNOTATIONS>
6  1  3
14  16  8
14  17  8
16  18  8
17  19  8
18  20  8
19  20  8

$$$$

