246161
  -OEChem-07051213073D

 56 59  0     1  0  0  0  0  0999 V2000
    1.2982    1.8345   -1.3705 O   0  0  0  0  0  0  0  0  0  0  0  0
    5.4269   -0.0203    0.5980 O   0  0  0  0  0  0  0  0  0  0  0  0
   -5.6772    0.5202   -1.6244 O   0  0  0  0  0  0  0  0  0  0  0  0
   -0.0766   -1.0689    0.3126 C   0  0  1  0  0  0  0  0  0  0  0  0
    1.2754   -0.9715   -0.4069 C   0  0  1  0  0  0  0  0  0  0  0  0
   -0.8112    0.2980    0.1962 C   0  0  1  0  0  0  0  0  0  0  0  0
    2.1925    0.1347    0.1678 C   0  0  2  0  0  0  0  0  0  0  0  0
   -2.2420    0.2903    0.8589 C   0  0  2  0  0  0  0  0  0  0  0  0
    1.4830    1.4960    0.0035 C   0  0  2  0  0  0  0  0  0  0  0  0
    0.0895    1.4786    0.6650 C   0  0  0  0  0  0  0  0  0  0  0  0
   -3.0728   -0.9578    0.3947 C   0  0  2  0  0  0  0  0  0  0  0  0
    3.4399   -0.1060   -0.7174 C   0  0  2  0  0  0  0  0  0  0  0  0
   -0.9385   -2.1880   -0.2803 C   0  0  0  0  0  0  0  0  0  0  0  0
    2.1767   -2.2036   -0.4371 C   0  0  0  0  0  0  0  0  0  0  0  0
   -2.2831   -2.2724    0.4237 C   0  0  0  0  0  0  0  0  0  0  0  0
    3.5634   -1.6416   -0.7946 C   0  0  0  0  0  0  0  0  0  0  0  0
   -2.9865    1.6078    0.4536 C   0  0  0  0  0  0  0  0  0  0  0  0
    2.5412   -0.0749    1.6686 C   0  0  0  0  0  0  0  0  0  0  0  0
   -2.1474    0.2453    2.4038 C   0  0  0  0  0  0  0  0  0  0  0  0
   -3.7268   -0.7162   -0.9737 C   0  0  0  0  0  0  0  0  0  0  0  0
   -4.4862    1.4270    0.2497 C   0  0  0  0  0  0  0  0  0  0  0  0
    4.6877    0.5446   -0.2066 C   0  0  0  0  0  0  0  0  0  0  0  0
   -4.7204    0.4217   -0.8571 C   0  0  0  0  0  0  0  0  0  0  0  0
    4.9945    1.9225   -0.7277 C   0  0  0  0  0  0  0  0  0  0  0  0
    0.0932   -1.3067    1.3684 H   0  0  0  0  0  0  0  0  0  0  0  0
    1.0555   -0.7337   -1.4609 H   0  0  0  0  0  0  0  0  0  0  0  0
   -0.9733    0.4591   -0.8808 H   0  0  0  0  0  0  0  0  0  0  0  0
    2.0726    2.3006    0.4570 H   0  0  0  0  0  0  0  0  0  0  0  0
   -0.4113    2.4255    0.4311 H   0  0  0  0  0  0  0  0  0  0  0  0
    0.2152    1.4501    1.7512 H   0  0  0  0  0  0  0  0  0  0  0  0
   -3.9017   -1.1000    1.1051 H   0  0  0  0  0  0  0  0  0  0  0  0
    3.2721    0.2474   -1.7428 H   0  0  0  0  0  0  0  0  0  0  0  0
   -0.4292   -3.1529   -0.1741 H   0  0  0  0  0  0  0  0  0  0  0  0
   -1.0882   -2.0274   -1.3549 H   0  0  0  0  0  0  0  0  0  0  0  0
    1.8445   -2.9377   -1.1782 H   0  0  0  0  0  0  0  0  0  0  0  0
    2.2042   -2.7056    0.5364 H   0  0  0  0  0  0  0  0  0  0  0  0
   -2.8777   -3.0785   -0.0232 H   0  0  0  0  0  0  0  0  0  0  0  0
   -2.1161   -2.5671    1.4676 H   0  0  0  0  0  0  0  0  0  0  0  0
    4.3192   -2.0631   -0.1237 H   0  0  0  0  0  0  0  0  0  0  0  0
    3.8452   -1.9410   -1.8111 H   0  0  0  0  0  0  0  0  0  0  0  0
   -2.5765    1.9896   -0.4913 H   0  0  0  0  0  0  0  0  0  0  0  0
   -2.8132    2.3954    1.1970 H   0  0  0  0  0  0  0  0  0  0  0  0
    3.1065   -0.9950    1.8467 H   0  0  0  0  0  0  0  0  0  0  0  0
    3.1490    0.7567    2.0439 H   0  0  0  0  0  0  0  0  0  0  0  0
    1.6555   -0.1252    2.3069 H   0  0  0  0  0  0  0  0  0  0  0  0
   -1.5855   -0.6239    2.7574 H   0  0  0  0  0  0  0  0  0  0  0  0
   -1.6667    1.1398    2.8120 H   0  0  0  0  0  0  0  0  0  0  0  0
   -3.1453    0.1957    2.8552 H   0  0  0  0  0  0  0  0  0  0  0  0
   -4.2756   -1.6084   -1.2948 H   0  0  0  0  0  0  0  0  0  0  0  0
   -2.9917   -0.4613   -1.7428 H   0  0  0  0  0  0  0  0  0  0  0  0
   -4.9361    2.3812   -0.0441 H   0  0  0  0  0  0  0  0  0  0  0  0
   -4.9785    1.0776    1.1624 H   0  0  0  0  0  0  0  0  0  0  0  0
    2.1624    2.0988   -1.7277 H   0  0  0  0  0  0  0  0  0  0  0  0
    5.0204    1.9088   -1.8201 H   0  0  0  0  0  0  0  0  0  0  0  0
    4.2452    2.6334   -0.3759 H   0  0  0  0  0  0  0  0  0  0  0  0
    5.9760    2.2391   -0.3631 H   0  0  0  0  0  0  0  0  0  0  0  0
  1  9  1  0  0  0  0
  1 53  1  0  0  0  0
  2 22  2  0  0  0  0
  3 23  2  0  0  0  0
  4  5  1  0  0  0  0
  4  6  1  0  0  0  0
  4 13  1  0  0  0  0
  4 25  1  0  0  0  0
  5  7  1  0  0  0  0
  5 14  1  0  0  0  0
  5 26  1  0  0  0  0
  6  8  1  0  0  0  0
  6 10  1  0  0  0  0
  6 27  1  0  0  0  0
  7  9  1  0  0  0  0
  7 12  1  0  0  0  0
  7 18  1  0  0  0  0
  8 11  1  0  0  0  0
  8 17  1  0  0  0  0
  8 19  1  0  0  0  0
  9 10  1  0  0  0  0
  9 28  1  0  0  0  0
 10 29  1  0  0  0  0
 10 30  1  0  0  0  0
 11 15  1  0  0  0  0
 11 20  1  0  0  0  0
 11 31  1  0  0  0  0
 12 16  1  0  0  0  0
 12 22  1  0  0  0  0
 12 32  1  0  0  0  0
 13 15  1  0  0  0  0
 13 33  1  0  0  0  0
 13 34  1  0  0  0  0
 14 16  1  0  0  0  0
 14 35  1  0  0  0  0
 14 36  1  0  0  0  0
 15 37  1  0  0  0  0
 15 38  1  0  0  0  0
 16 39  1  0  0  0  0
 16 40  1  0  0  0  0
 17 21  1  0  0  0  0
 17 41  1  0  0  0  0
 17 42  1  0  0  0  0
 18 43  1  0  0  0  0
 18 44  1  0  0  0  0
 18 45  1  0  0  0  0
 19 46  1  0  0  0  0
 19 47  1  0  0  0  0
 19 48  1  0  0  0  0
 20 23  1  0  0  0  0
 20 49  1  0  0  0  0
 20 50  1  0  0  0  0
 21 23  1  0  0  0  0
 21 51  1  0  0  0  0
 21 52  1  0  0  0  0
 22 24  1  0  0  0  0
 24 54  1  0  0  0  0
 24 55  1  0  0  0  0
 24 56  1  0  0  0  0
M  END
> <PUBCHEM_COMPOUND_CID>
246161

> <PUBCHEM_CONFORMER_RMSD>
0.6

> <PUBCHEM_CONFORMER_DIVERSEORDER>
1
4
6
2
5
3

> <PUBCHEM_MMFF94_PARTIAL_CHARGES>
11
1 -0.68
12 0.06
2 -0.57
20 0.06
21 0.06
22 0.45
23 0.45
24 0.06
3 -0.57
53 0.4
9 0.28

> <PUBCHEM_EFFECTIVE_ROTOR_COUNT>
3

> <PUBCHEM_PHARMACOPHORE_FEATURES>
8
1 1 acceptor
1 1 donor
1 2 acceptor
1 3 acceptor
5 5 7 12 14 16 rings
6 4 5 6 7 9 10 rings
6 4 6 8 11 13 15 rings
6 8 11 17 20 21 23 rings

> <PUBCHEM_HEAVY_ATOM_COUNT>
24

> <PUBCHEM_ATOM_DEF_STEREO_COUNT>
8

> <PUBCHEM_ATOM_UDEF_STEREO_COUNT>
0

> <PUBCHEM_BOND_DEF_STEREO_COUNT>
0

> <PUBCHEM_BOND_UDEF_STEREO_COUNT>
0

> <PUBCHEM_ISOTOPIC_ATOM_COUNT>
0

> <PUBCHEM_COMPONENT_COUNT>
1

> <PUBCHEM_CACTVS_TAUTO_COUNT>
9

> <PUBCHEM_CONFORMER_ID>
0003C19100000001

> <PUBCHEM_MMFF94_ENERGY>
85.2832

> <PUBCHEM_FEATURE_SELFOVERLAP>
40.701

> <PUBCHEM_SHAPE_FINGERPRINT>
10366900 7 17530964670277994714
10498660 4 18410286995763767102
11315181 36 17675922080340273512
11370993 70 18408041797104053118
11961588 58 18202010906318965015
12011746 2 18187366532333749838
12236239 1 17989491792954852042
12553582 1 18263903536611634720
12788726 201 18263371433256076873
13140716 1 18192420879627636968
13224815 77 18114174246332675866
14790565 3 18046612684580711545
15196674 1 18335978739793982022
15238133 3 15697717103105052535
15375358 24 18341607131463749850
15420108 30 16240668323017700467
15788980 27 16845572006944829864
1601671 61 18411982447215806836
16945 1 18410000031555231642
17349148 13 18333455334875037443
18608769 82 18339077078527008779
18769570 83 17060065868799177148
19862831 5 18333731334037672267
200 152 17385446527129953115
20511986 3 18189352288692852182
20715895 44 18271812379489980533
21285901 2 18200318852159975989
21304253 335 18130501934324234740
21421861 104 17773888669602264050
22182313 1 18189593030147707894
23402539 116 18187368739651625284
23402655 69 18187365449791098639
23557571 272 17677329407752800823
23559900 14 18115314362644890488
2838139 119 17560254612528973917
296302 2 18060136539703693435
3286 77 17023475277457791658
335352 9 18338229475035923070
34797466 226 15864073131163139680
34934 24 18342739615676822010
350125 39 18267011761741977379
4072396 5 18340782502449497858
5104073 3 18409160030763532434
9709674 26 18188197797368484166

> <PUBCHEM_SHAPE_MULTIPOLES>
476.3
10.44
2.21
1.37
0.67
0.59
-0.42
-2.96
3.05
0.34
0.27
-0.75
-0.24
-0.14

> <PUBCHEM_SHAPE_SELFOVERLAP>
1013.914

> <PUBCHEM_SHAPE_VOLUME>
262.5

> <PUBCHEM_COORDINATE_TYPE>
2
5
10

$$$$

