14268
  -OEChem-06241222423D

 11 11  0     0  0  0  0  0  0999 V2000
    2.8130    0.0001   -0.0002 Br  0  0  0  0  0  0  0  0  0  0  0  0
   -1.8713   -0.0001   -0.0001 N   0  0  0  0  0  0  0  0  0  0  0  0
    0.9239    0.0000    0.0002 C   0  0  0  0  0  0  0  0  0  0  0  0
    0.2257    1.2026    0.0002 C   0  0  0  0  0  0  0  0  0  0  0  0
    0.2260   -1.2025    0.0000 C   0  0  0  0  0  0  0  0  0  0  0  0
   -1.1587    1.1487   -0.0001 C   0  0  0  0  0  0  0  0  0  0  0  0
   -1.1585   -1.1488    0.0001 C   0  0  0  0  0  0  0  0  0  0  0  0
    0.7343    2.1608    0.0001 H   0  0  0  0  0  0  0  0  0  0  0  0
    0.7347   -2.1607   -0.0001 H   0  0  0  0  0  0  0  0  0  0  0  0
   -1.7500    2.0585   -0.0002 H   0  0  0  0  0  0  0  0  0  0  0  0
   -1.7496   -2.0587    0.0000 H   0  0  0  0  0  0  0  0  0  0  0  0
  1  3  1  0  0  0  0
  2  6  2  0  0  0  0
  2  7  1  0  0  0  0
  3  4  2  0  0  0  0
  3  5  1  0  0  0  0
  4  6  1  0  0  0  0
  4  8  1  0  0  0  0
  5  7  2  0  0  0  0
  5  9  1  0  0  0  0
  6 10  1  0  0  0  0
  7 11  1  0  0  0  0
M  END
> <PUBCHEM_COMPOUND_CID>
14268

> <PUBCHEM_CONFORMER_RMSD>
0.4

> <PUBCHEM_CONFORMER_DIVERSEORDER>
1

> <PUBCHEM_MMFF94_PARTIAL_CHARGES>
11
1 -0.11
10 0.15
11 0.15
2 -0.62
3 0.11
4 -0.15
5 -0.15
6 0.16
7 0.16
8 0.15
9 0.15

> <PUBCHEM_EFFECTIVE_ROTOR_COUNT>
0

> <PUBCHEM_PHARMACOPHORE_FEATURES>
3
1 1 hydrophobe
1 2 acceptor
6 2 3 4 5 6 7 rings

> <PUBCHEM_HEAVY_ATOM_COUNT>
7

> <PUBCHEM_ATOM_DEF_STEREO_COUNT>
0

> <PUBCHEM_ATOM_UDEF_STEREO_COUNT>
0

> <PUBCHEM_BOND_DEF_STEREO_COUNT>
0

> <PUBCHEM_BOND_UDEF_STEREO_COUNT>
0

> <PUBCHEM_ISOTOPIC_ATOM_COUNT>
0

> <PUBCHEM_COMPONENT_COUNT>
1

> <PUBCHEM_CACTVS_TAUTO_COUNT>
1

> <PUBCHEM_CONFORMER_ID>
000037BC00000001

> <PUBCHEM_MMFF94_ENERGY>
14.3754

> <PUBCHEM_FEATURE_SELFOVERLAP>
15.223

> <PUBCHEM_SHAPE_FINGERPRINT>
16714656 1 18410853261336995382
21040471 1 18266459995440185540
23552423 10 18272929449307981086
29004967 10 18340197514475418858
369184 2 18409172112548265554

> <PUBCHEM_SHAPE_MULTIPOLES>
145.02
2.93
1.41
0.63
2.02
0
0
0
0
-0.4
0
0.08
0
0

> <PUBCHEM_SHAPE_SELFOVERLAP>
283.226

> <PUBCHEM_SHAPE_VOLUME>
89.4

> <PUBCHEM_COORDINATE_TYPE>
2
5
10

$$$$

