9948894
  -OEChem-07051213122D

 36 38  0     1  0  0  0  0  0999 V2000
    6.3301    0.1276    0.0000 S   0  0  0  0  0  0  0  0  0  0  0  0
    8.7260   -1.8724    0.0000 O   0  0  0  0  0  0  0  0  0  0  0  0
    8.4530   -0.1171    0.0000 O   0  0  0  0  0  0  0  0  0  0  0  0
    4.5981    3.1276    0.0000 O   0  0  0  0  0  0  0  0  0  0  0  0
    2.8660    0.1276    0.0000 O   0  0  0  0  0  0  0  0  0  0  0  0
    5.4641    1.6276    0.0000 N   0  0  0  0  0  0  0  0  0  0  0  0
    4.5981    0.1276    0.0000 N   0  0  0  0  0  0  0  0  0  0  0  0
    8.1424   -2.6771    0.0000 C   0  0  3  0  0  0  0  0  0  0  0  0
    7.1962   -2.3724    0.0000 C   0  0  0  0  0  0  0  0  0  0  0  0
    7.1962   -1.3724    0.0000 C   0  0  0  0  0  0  0  0  0  0  0  0
    6.3301   -0.8724    0.0000 C   0  0  0  0  0  0  0  0  0  0  0  0
    8.1424   -1.0676    0.0000 C   0  0  0  0  0  0  0  0  0  0  0  0
    8.4530   -3.6276    0.0000 C   0  0  0  0  0  0  0  0  0  0  0  0
    6.3301   -2.8724    0.0000 C   0  0  0  0  0  0  0  0  0  0  0  0
    5.4641   -1.3724    0.0000 C   0  0  0  0  0  0  0  0  0  0  0  0
    5.4641   -2.3724    0.0000 C   0  0  0  0  0  0  0  0  0  0  0  0
    5.4641    0.6276    0.0000 C   0  0  0  0  0  0  0  0  0  0  0  0
    4.5981    2.1276    0.0000 C   0  0  0  0  0  0  0  0  0  0  0  0
    3.7320    0.6276    0.0000 C   0  0  0  0  0  0  0  0  0  0  0  0
    3.7320    1.6276    0.0000 C   0  0  0  0  0  0  0  0  0  0  0  0
    3.7320    3.6276    0.0000 C   0  0  0  0  0  0  0  0  0  0  0  0
    2.0000    0.6276    0.0000 C   0  0  0  0  0  0  0  0  0  0  0  0
    8.7549   -2.7733    0.0000 H   0  0  0  0  0  0  0  0  0  0  0  0
    7.8637   -3.8202    0.0000 H   0  0  0  0  0  0  0  0  0  0  0  0
    8.6456   -4.2170    0.0000 H   0  0  0  0  0  0  0  0  0  0  0  0
    9.0424   -3.4350    0.0000 H   0  0  0  0  0  0  0  0  0  0  0  0
    6.3301   -3.4924    0.0000 H   0  0  0  0  0  0  0  0  0  0  0  0
    4.9272   -1.0624    0.0000 H   0  0  0  0  0  0  0  0  0  0  0  0
    4.9272   -2.6824    0.0000 H   0  0  0  0  0  0  0  0  0  0  0  0
    3.1951    1.9376    0.0000 H   0  0  0  0  0  0  0  0  0  0  0  0
    4.0420    4.1646    0.0000 H   0  0  0  0  0  0  0  0  0  0  0  0
    3.1951    3.9376    0.0000 H   0  0  0  0  0  0  0  0  0  0  0  0
    3.4220    3.0907    0.0000 H   0  0  0  0  0  0  0  0  0  0  0  0
    2.3100    1.1646    0.0000 H   0  0  0  0  0  0  0  0  0  0  0  0
    1.4631    0.9376    0.0000 H   0  0  0  0  0  0  0  0  0  0  0  0
    1.6900    0.0907    0.0000 H   0  0  0  0  0  0  0  0  0  0  0  0
  1 11  1  0  0  0  0
  1 17  1  0  0  0  0
  2  8  1  0  0  0  0
  2 12  1  0  0  0  0
  3 12  2  0  0  0  0
  4 18  1  0  0  0  0
  4 21  1  0  0  0  0
  5 19  1  0  0  0  0
  5 22  1  0  0  0  0
  6 17  1  0  0  0  0
  6 18  2  0  0  0  0
  7 17  2  0  0  0  0
  7 19  1  0  0  0  0
  8  9  1  0  0  0  0
  8 13  1  0  0  0  0
  8 23  1  0  0  0  0
  9 10  2  0  0  0  0
  9 14  1  0  0  0  0
 10 11  1  0  0  0  0
 10 12  1  0  0  0  0
 11 15  2  0  0  0  0
 13 24  1  0  0  0  0
 13 25  1  0  0  0  0
 13 26  1  0  0  0  0
 14 16  2  0  0  0  0
 14 27  1  0  0  0  0
 15 16  1  0  0  0  0
 15 28  1  0  0  0  0
 16 29  1  0  0  0  0
 18 20  1  0  0  0  0
 19 20  2  0  0  0  0
 20 30  1  0  0  0  0
 21 31  1  0  0  0  0
 21 32  1  0  0  0  0
 21 33  1  0  0  0  0
 22 34  1  0  0  0  0
 22 35  1  0  0  0  0
 22 36  1  0  0  0  0
M  END
> <PUBCHEM_COMPOUND_CID>
9948894

> <PUBCHEM_COMPOUND_CANONICALIZED>
1

> <PUBCHEM_CACTVS_COMPLEXITY>
399

> <PUBCHEM_CACTVS_HBOND_ACCEPTOR>
7

> <PUBCHEM_CACTVS_HBOND_DONOR>
0

> <PUBCHEM_CACTVS_ROTATABLE_BOND>
4

> <PUBCHEM_CACTVS_SUBSKEYS>
AAADccBzOABAAAAAAAAAAAAAAAAAASAAAAA8QAAAAAAAAEgBwAAAHgQAAAAADBSh2gIznZYIFAioAiDybACC2CllKrAJmDk2bNiMLzLkfViGNSgvwA9IqSeKyKCOgAAAgAAUAAAAAAEAACgAAAAAAAAAAA==

> <PUBCHEM_IUPAC_OPENEYE_NAME>
7-(4,6-dimethoxypyrimidin-2-yl)sulfanyl-3-methyl-3H-isobenzofuran-1-one

> <PUBCHEM_IUPAC_CAS_NAME>
7-[(4,6-dimethoxy-2-pyrimidinyl)thio]-3-methyl-3H-isobenzofuran-1-one

> <PUBCHEM_IUPAC_NAME>
7-(4,6-dimethoxypyrimidin-2-yl)sulfanyl-3-methyl-3H-2-benzofuran-1-one

> <PUBCHEM_IUPAC_SYSTEMATIC_NAME>
7-(4,6-dimethoxypyrimidin-2-yl)sulfanyl-3-methyl-3H-2-benzofuran-1-one

> <PUBCHEM_IUPAC_TRADITIONAL_NAME>
7-[(4,6-dimethoxypyrimidin-2-yl)thio]-3-methyl-phthalide

> <PUBCHEM_IUPAC_INCHI>
InChI=1S/C15H14N2O4S/c1-8-9-5-4-6-10(13(9)14(18)21-8)22-15-16-11(19-2)7-12(17-15)20-3/h4-8H,1-3H3

> <PUBCHEM_IUPAC_INCHIKEY>
RRKHIAYNPVQKEF-UHFFFAOYSA-N

> <PUBCHEM_XLOGP3_AA>
3

> <PUBCHEM_EXACT_MASS>
318.067428

> <PUBCHEM_MOLECULAR_FORMULA>
C15H14N2O4S

> <PUBCHEM_MOLECULAR_WEIGHT>
318.34766

> <PUBCHEM_OPENEYE_CAN_SMILES>
CC1C2=C(C(=CC=C2)SC3=NC(=CC(=N3)OC)OC)C(=O)O1

> <PUBCHEM_OPENEYE_ISO_SMILES>
CC1C2=C(C(=CC=C2)SC3=NC(=CC(=N3)OC)OC)C(=O)O1

> <PUBCHEM_CACTVS_TPSA>
95.8

> <PUBCHEM_MONOISOTOPIC_WEIGHT>
318.067428

> <PUBCHEM_TOTAL_CHARGE>
0

> <PUBCHEM_HEAVY_ATOM_COUNT>
22

> <PUBCHEM_ATOM_DEF_STEREO_COUNT>
0

> <PUBCHEM_ATOM_UDEF_STEREO_COUNT>
1

> <PUBCHEM_BOND_DEF_STEREO_COUNT>
0

> <PUBCHEM_BOND_UDEF_STEREO_COUNT>
0

> <PUBCHEM_ISOTOPIC_ATOM_COUNT>
0

> <PUBCHEM_COMPONENT_COUNT>
1

> <PUBCHEM_CACTVS_TAUTO_COUNT>
1

> <PUBCHEM_COORDINATE_TYPE>
1
5
255

> <PUBCHEM_BONDANNOTATIONS>
10  11  8
11  15  8
14  16  8
15  16  8
18  20  8
19  20  8
6  17  8
6  18  8
7  17  8
7  19  8
8  13  3
9  10  8
9  14  8

$$$$

