17396338
  -OEChem-06241222562D

 41 43  0     0  0  0  0  0  0999 V2000
    4.2044   -2.2536    0.0000 S   0  0  0  0  0  0  0  0  0  0  0  0
    4.5704    0.7852    0.0000 O   0  0  0  0  0  0  0  0  0  0  0  0
    4.5704    3.7852    0.0000 O   0  0  0  0  0  0  0  0  0  0  0  0
    3.7044    2.2852    0.0000 O   0  0  0  0  0  0  0  0  0  0  0  0
    4.0179   -4.0807    0.0000 O   0  0  0  0  0  0  0  0  0  0  0  0
    2.8954   -1.3026    0.0000 N   0  0  0  0  0  0  0  0  0  0  0  0
    2.6166   -3.0626    0.0000 N   0  0  0  0  0  0  0  0  0  0  0  0
    7.1685    2.2852    0.0000 C   0  0  0  0  0  0  0  0  0  0  0  0
    7.1685    3.2852    0.0000 C   0  0  0  0  0  0  0  0  0  0  0  0
    5.4364    2.2852    0.0000 C   0  0  0  0  0  0  0  0  0  0  0  0
    6.3025    1.7852    0.0000 C   0  0  0  0  0  0  0  0  0  0  0  0
    5.4364    3.2852    0.0000 C   0  0  0  0  0  0  0  0  0  0  0  0
    6.3025    3.7852    0.0000 C   0  0  0  0  0  0  0  0  0  0  0  0
    8.0624    1.7506    0.0000 C   0  0  0  0  0  0  0  0  0  0  0  0
    8.0624    3.8199    0.0000 C   0  0  0  0  0  0  0  0  0  0  0  0
    4.5704    1.7852    0.0000 C   0  0  0  0  0  0  0  0  0  0  0  0
    8.9685    2.2644    0.0000 C   0  0  0  0  0  0  0  0  0  0  0  0
    8.9685    3.3060    0.0000 C   0  0  0  0  0  0  0  0  0  0  0  0
    3.7044    0.2852    0.0000 C   0  0  0  0  0  0  0  0  0  0  0  0
    3.7044   -0.7148    0.0000 C   0  0  0  0  0  0  0  0  0  0  0  0
    4.5134   -1.3026    0.0000 C   0  0  0  0  0  0  0  0  0  0  0  0
    3.2044   -2.2536    0.0000 C   0  0  0  0  0  0  0  0  0  0  0  0
    4.5704    4.7852    0.0000 C   0  0  0  0  0  0  0  0  0  0  0  0
    3.0233   -3.9762    0.0000 C   0  0  0  0  0  0  0  0  0  0  0  0
    2.4356   -4.7852    0.0000 C   0  0  0  0  0  0  0  0  0  0  0  0
    6.3025    1.1652    0.0000 H   0  0  0  0  0  0  0  0  0  0  0  0
    6.3025    4.4052    0.0000 H   0  0  0  0  0  0  0  0  0  0  0  0
    8.0553    1.1306    0.0000 H   0  0  0  0  0  0  0  0  0  0  0  0
    8.0553    4.4398    0.0000 H   0  0  0  0  0  0  0  0  0  0  0  0
    9.5042    1.9523    0.0000 H   0  0  0  0  0  0  0  0  0  0  0  0
    9.5042    3.6181    0.0000 H   0  0  0  0  0  0  0  0  0  0  0  0
    3.4923    0.8678    0.0000 H   0  0  0  0  0  0  0  0  0  0  0  0
    3.0938    0.1775    0.0000 H   0  0  0  0  0  0  0  0  0  0  0  0
    5.1031   -1.1110    0.0000 H   0  0  0  0  0  0  0  0  0  0  0  0
    5.1904    4.7852    0.0000 H   0  0  0  0  0  0  0  0  0  0  0  0
    4.5704    5.4052    0.0000 H   0  0  0  0  0  0  0  0  0  0  0  0
    3.9504    4.7852    0.0000 H   0  0  0  0  0  0  0  0  0  0  0  0
    2.0000   -2.9978    0.0000 H   0  0  0  0  0  0  0  0  0  0  0  0
    1.9340   -4.4208    0.0000 H   0  0  0  0  0  0  0  0  0  0  0  0
    2.0711   -5.2868    0.0000 H   0  0  0  0  0  0  0  0  0  0  0  0
    2.9372   -5.1496    0.0000 H   0  0  0  0  0  0  0  0  0  0  0  0
  1 21  1  0  0  0  0
  1 22  1  0  0  0  0
  2 16  1  0  0  0  0
  2 19  1  0  0  0  0
  3 12  1  0  0  0  0
  3 23  1  0  0  0  0
  4 16  2  0  0  0  0
  5 24  2  0  0  0  0
  6 20  1  0  0  0  0
  6 22  2  0  0  0  0
  7 22  1  0  0  0  0
  7 24  1  0  0  0  0
  7 38  1  0  0  0  0
  8  9  1  0  0  0  0
  8 11  1  0  0  0  0
  8 14  2  0  0  0  0
  9 13  1  0  0  0  0
  9 15  2  0  0  0  0
 10 11  2  0  0  0  0
 10 12  1  0  0  0  0
 10 16  1  0  0  0  0
 11 26  1  0  0  0  0
 12 13  2  0  0  0  0
 13 27  1  0  0  0  0
 14 17  1  0  0  0  0
 14 28  1  0  0  0  0
 15 18  1  0  0  0  0
 15 29  1  0  0  0  0
 17 18  2  0  0  0  0
 17 30  1  0  0  0  0
 18 31  1  0  0  0  0
 19 20  1  0  0  0  0
 19 32  1  0  0  0  0
 19 33  1  0  0  0  0
 20 21  2  0  0  0  0
 21 34  1  0  0  0  0
 23 35  1  0  0  0  0
 23 36  1  0  0  0  0
 23 37  1  0  0  0  0
 24 25  1  0  0  0  0
 25 39  1  0  0  0  0
 25 40  1  0  0  0  0
 25 41  1  0  0  0  0
M  END
> <PUBCHEM_COMPOUND_CID>
17396338

> <PUBCHEM_COMPOUND_CANONICALIZED>
1

> <PUBCHEM_CACTVS_COMPLEXITY>
490

> <PUBCHEM_CACTVS_HBOND_ACCEPTOR>
6

> <PUBCHEM_CACTVS_HBOND_DONOR>
1

> <PUBCHEM_CACTVS_ROTATABLE_BOND>
6

> <PUBCHEM_CACTVS_SUBSKEYS>
AAADceB7OABAAAAAAAAAAAAAAAAAAWAAAAAwYAAAAAAAAADB1AAAHgQQAAAADAyl3gKzn9LIFAisAyXyfAQC+KllKjkJiBUWKMiOJzakPRqDMWAt8RMYqaeIyPCO4AADAAAYAADAAAYAADAAAAAAAAAAAA==

> <PUBCHEM_IUPAC_OPENEYE_NAME>
(2-acetamidothiazol-4-yl)methyl 3-methoxynaphthalene-2-carboxylate

> <PUBCHEM_IUPAC_CAS_NAME>
3-methoxy-2-naphthalenecarboxylic acid (2-acetamido-4-thiazolyl)methyl ester

> <PUBCHEM_IUPAC_NAME>
(2-acetamido-1,3-thiazol-4-yl)methyl 3-methoxynaphthalene-2-carboxylate

> <PUBCHEM_IUPAC_SYSTEMATIC_NAME>
(2-acetamido-1,3-thiazol-4-yl)methyl 3-methoxynaphthalene-2-carboxylate

> <PUBCHEM_IUPAC_TRADITIONAL_NAME>
3-methoxynaphthalene-2-carboxylic acid (2-acetamidothiazol-4-yl)methyl ester

> <PUBCHEM_IUPAC_INCHI>
InChI=1S/C18H16N2O4S/c1-11(21)19-18-20-14(10-25-18)9-24-17(22)15-7-12-5-3-4-6-13(12)8-16(15)23-2/h3-8,10H,9H2,1-2H3,(H,19,20,21)

> <PUBCHEM_IUPAC_INCHIKEY>
SKSOQXPIOKJEGM-UHFFFAOYSA-N

> <PUBCHEM_XLOGP3_AA>
3.1

> <PUBCHEM_EXACT_MASS>
356.083078

> <PUBCHEM_MOLECULAR_FORMULA>
C18H16N2O4S

> <PUBCHEM_MOLECULAR_WEIGHT>
356.39564

> <PUBCHEM_OPENEYE_CAN_SMILES>
CC(=O)NC1=NC(=CS1)COC(=O)C2=CC3=CC=CC=C3C=C2OC

> <PUBCHEM_OPENEYE_ISO_SMILES>
CC(=O)NC1=NC(=CS1)COC(=O)C2=CC3=CC=CC=C3C=C2OC

> <PUBCHEM_CACTVS_TPSA>
106

> <PUBCHEM_MONOISOTOPIC_WEIGHT>
356.083078

> <PUBCHEM_TOTAL_CHARGE>
0

> <PUBCHEM_HEAVY_ATOM_COUNT>
25

> <PUBCHEM_ATOM_DEF_STEREO_COUNT>
0

> <PUBCHEM_ATOM_UDEF_STEREO_COUNT>
0

> <PUBCHEM_BOND_DEF_STEREO_COUNT>
0

> <PUBCHEM_BOND_UDEF_STEREO_COUNT>
0

> <PUBCHEM_ISOTOPIC_ATOM_COUNT>
0

> <PUBCHEM_COMPONENT_COUNT>
1

> <PUBCHEM_CACTVS_TAUTO_COUNT>
5

> <PUBCHEM_COORDINATE_TYPE>
1
5
255

> <PUBCHEM_BONDANNOTATIONS>
1  21  8
1  22  8
10  11  8
10  12  8
12  13  8
14  17  8
15  18  8
17  18  8
20  21  8
6  20  8
6  22  8
8  11  8
8  14  8
8  9  8
9  13  8
9  15  8

$$$$

