56928128
  -OEChem-07051213153D

 82 85  0     1  0  0  0  0  0999 V2000
    4.9117   -2.7202   -1.3578 O   0  0  0  0  0  0  0  0  0  0  0  0
    6.6589    3.1267    0.5845 O   0  0  0  0  0  0  0  0  0  0  0  0
    7.1982    0.5814    1.5341 O   0  0  0  0  0  0  0  0  0  0  0  0
   -3.9755   -1.3804    2.2967 O   0  0  0  0  0  0  0  0  0  0  0  0
   -6.4808   -1.2751    1.1713 O   0  0  0  0  0  0  0  0  0  0  0  0
   -6.1856    2.8481    0.0267 O   0  0  0  0  0  0  0  0  0  0  0  0
   -0.3663   -0.1322    0.0900 C   0  0  1  0  0  0  0  0  0  0  0  0
    0.6327   -1.2798    0.3537 C   0  0  2  0  0  0  0  0  0  0  0  0
    1.9877   -1.0610   -0.3270 C   0  0  1  0  0  0  0  0  0  0  0  0
    2.6094    0.2698    0.2170 C   0  0  1  0  0  0  0  0  0  0  0  0
    4.0330    0.5486   -0.4018 C   0  0  2  0  0  0  0  0  0  0  0  0
   -1.5933   -0.6948    0.8485 C   0  0  2  0  0  0  0  0  0  0  0  0
    0.2260    1.1524    0.6860 C   0  0  0  0  0  0  0  0  0  0  0  0
    1.6196    1.4597    0.1075 C   0  0  0  0  0  0  0  0  0  0  0  0
   -0.1678   -2.5361    0.0242 C   0  0  0  0  0  0  0  0  0  0  0  0
   -1.6016   -2.1947    0.4701 C   0  0  0  0  0  0  0  0  0  0  0  0
    4.9359   -0.6731   -0.0612 C   0  0  1  0  0  0  0  0  0  0  0  0
    2.9217   -2.2556   -0.1054 C   0  0  0  0  0  0  0  0  0  0  0  0
    4.6756    1.8091    0.2430 C   0  0  0  0  0  0  0  0  0  0  0  0
   -2.9280   -0.0113    0.5887 C   0  0  1  0  0  0  0  0  0  0  0  0
   -0.6924    0.0921   -1.4081 C   0  0  0  0  0  0  0  0  0  0  0  0
    4.3143   -1.9488   -0.6106 C   0  0  0  0  0  0  0  0  0  0  0  0
    6.4027   -0.4931   -0.4790 C   0  0  0  0  0  0  0  0  0  0  0  0
    3.9383    0.7708   -1.9339 C   0  0  0  0  0  0  0  0  0  0  0  0
    6.1491    2.0077   -0.1373 C   0  0  2  0  0  0  0  0  0  0  0  0
    7.0126    0.7716    0.1302 C   0  0  1  0  0  0  0  0  0  0  0  0
   -4.1128   -0.9574    0.9425 C   0  0  2  0  0  0  0  0  0  0  0  0
   -2.9774    1.3196    1.3544 C   0  0  0  0  0  0  0  0  0  0  0  0
   -5.5099   -0.3310    0.7236 C   0  0  1  0  0  0  0  0  0  0  0  0
   -5.8251    0.1104   -0.7401 C   0  0  2  0  0  0  0  0  0  0  0  0
   -7.2146    0.8297   -0.8687 C   0  0  1  0  0  0  0  0  0  0  0  0
   -5.7514   -1.0862   -1.7061 C   0  0  0  0  0  0  0  0  0  0  0  0
   -7.3605    2.0504    0.0586 C   0  0  0  0  0  0  0  0  0  0  0  0
   -7.4842    1.2826   -2.3145 C   0  0  0  0  0  0  0  0  0  0  0  0
    0.8318   -1.3242    1.4379 H   0  0  0  0  0  0  0  0  0  0  0  0
    1.8331   -0.9728   -1.4070 H   0  0  0  0  0  0  0  0  0  0  0  0
    2.7646    0.1214    1.2977 H   0  0  0  0  0  0  0  0  0  0  0  0
   -1.3820   -0.6521    1.9283 H   0  0  0  0  0  0  0  0  0  0  0  0
    0.3052    1.0673    1.7771 H   0  0  0  0  0  0  0  0  0  0  0  0
   -0.3988    2.0226    0.4770 H   0  0  0  0  0  0  0  0  0  0  0  0
    1.5119    1.7705   -0.9363 H   0  0  0  0  0  0  0  0  0  0  0  0
    2.0175    2.3259    0.6479 H   0  0  0  0  0  0  0  0  0  0  0  0
    0.2142   -3.4148    0.5540 H   0  0  0  0  0  0  0  0  0  0  0  0
   -0.1411   -2.7582   -1.0486 H   0  0  0  0  0  0  0  0  0  0  0  0
   -2.2603   -2.4203   -0.3750 H   0  0  0  0  0  0  0  0  0  0  0  0
   -1.9016   -2.8203    1.3175 H   0  0  0  0  0  0  0  0  0  0  0  0
    4.9404   -0.8100    1.0310 H   0  0  0  0  0  0  0  0  0  0  0  0
    2.5455   -3.1375   -0.6354 H   0  0  0  0  0  0  0  0  0  0  0  0
    2.9993   -2.5115    0.9575 H   0  0  0  0  0  0  0  0  0  0  0  0
    4.5960    1.7497    1.3373 H   0  0  0  0  0  0  0  0  0  0  0  0
    4.1222    2.7137   -0.0390 H   0  0  0  0  0  0  0  0  0  0  0  0
   -3.0354    0.2148   -0.4748 H   0  0  0  0  0  0  0  0  0  0  0  0
   -1.2211   -0.7554   -1.8554 H   0  0  0  0  0  0  0  0  0  0  0  0
    0.2025    0.2591   -2.0132 H   0  0  0  0  0  0  0  0  0  0  0  0
   -1.3179    0.9814   -1.5452 H   0  0  0  0  0  0  0  0  0  0  0  0
    6.4880   -0.4571   -1.5712 H   0  0  0  0  0  0  0  0  0  0  0  0
    6.9752   -1.3712   -0.1536 H   0  0  0  0  0  0  0  0  0  0  0  0
    3.4870   -0.0782   -2.4544 H   0  0  0  0  0  0  0  0  0  0  0  0
    4.9182    0.9232   -2.3946 H   0  0  0  0  0  0  0  0  0  0  0  0
    3.3432    1.6584   -2.1712 H   0  0  0  0  0  0  0  0  0  0  0  0
    6.2214    2.2618   -1.2006 H   0  0  0  0  0  0  0  0  0  0  0  0
    8.0132    0.9396   -0.2847 H   0  0  0  0  0  0  0  0  0  0  0  0
   -4.0850   -1.8795    0.3604 H   0  0  0  0  0  0  0  0  0  0  0  0
   -2.6880    1.2011    2.4035 H   0  0  0  0  0  0  0  0  0  0  0  0
   -3.9718    1.7695    1.3370 H   0  0  0  0  0  0  0  0  0  0  0  0
   -2.3321    2.0688    0.8982 H   0  0  0  0  0  0  0  0  0  0  0  0
   -5.6244    0.5187    1.4005 H   0  0  0  0  0  0  0  0  0  0  0  0
    6.1099    3.8971    0.3595 H   0  0  0  0  0  0  0  0  0  0  0  0
    7.7749   -0.1925    1.6521 H   0  0  0  0  0  0  0  0  0  0  0  0
   -5.0568    0.8258   -1.0564 H   0  0  0  0  0  0  0  0  0  0  0  0
   -4.1257   -0.6096    2.8696 H   0  0  0  0  0  0  0  0  0  0  0  0
   -8.0111    0.1211   -0.6056 H   0  0  0  0  0  0  0  0  0  0  0  0
   -6.2653   -1.5067    2.0909 H   0  0  0  0  0  0  0  0  0  0  0  0
   -6.5451   -1.8125   -1.5033 H   0  0  0  0  0  0  0  0  0  0  0  0
   -5.8381   -0.7674   -2.7488 H   0  0  0  0  0  0  0  0  0  0  0  0
   -4.7901   -1.6025   -1.6385 H   0  0  0  0  0  0  0  0  0  0  0  0
   -7.5179    1.7220    1.0913 H   0  0  0  0  0  0  0  0  0  0  0  0
   -8.2187    2.6704   -0.2215 H   0  0  0  0  0  0  0  0  0  0  0  0
   -7.6254    0.4296   -2.9844 H   0  0  0  0  0  0  0  0  0  0  0  0
   -8.4032    1.8763   -2.3739 H   0  0  0  0  0  0  0  0  0  0  0  0
   -6.6619    1.8950   -2.6992 H   0  0  0  0  0  0  0  0  0  0  0  0
   -6.3254    3.5877    0.6422 H   0  0  0  0  0  0  0  0  0  0  0  0
  1 22  2  0  0  0  0
  2 25  1  0  0  0  0
  2 68  1  0  0  0  0
  3 26  1  0  0  0  0
  3 69  1  0  0  0  0
  4 27  1  0  0  0  0
  4 71  1  0  0  0  0
  5 29  1  0  0  0  0
  5 73  1  0  0  0  0
  6 33  1  0  0  0  0
  6 82  1  0  0  0  0
  7  8  1  0  0  0  0
  7 12  1  0  0  0  0
  7 13  1  0  0  0  0
  7 21  1  0  0  0  0
  8  9  1  0  0  0  0
  8 15  1  0  0  0  0
  8 35  1  0  0  0  0
  9 10  1  0  0  0  0
  9 18  1  0  0  0  0
  9 36  1  0  0  0  0
 10 11  1  0  0  0  0
 10 14  1  0  0  0  0
 10 37  1  0  0  0  0
 11 17  1  0  0  0  0
 11 19  1  0  0  0  0
 11 24  1  0  0  0  0
 12 16  1  0  0  0  0
 12 20  1  0  0  0  0
 12 38  1  0  0  0  0
 13 14  1  0  0  0  0
 13 39  1  0  0  0  0
 13 40  1  0  0  0  0
 14 41  1  0  0  0  0
 14 42  1  0  0  0  0
 15 16  1  0  0  0  0
 15 43  1  0  0  0  0
 15 44  1  0  0  0  0
 16 45  1  0  0  0  0
 16 46  1  0  0  0  0
 17 22  1  0  0  0  0
 17 23  1  0  0  0  0
 17 47  1  0  0  0  0
 18 22  1  0  0  0  0
 18 48  1  0  0  0  0
 18 49  1  0  0  0  0
 19 25  1  0  0  0  0
 19 50  1  0  0  0  0
 19 51  1  0  0  0  0
 20 27  1  0  0  0  0
 20 28  1  0  0  0  0
 20 52  1  0  0  0  0
 21 53  1  0  0  0  0
 21 54  1  0  0  0  0
 21 55  1  0  0  0  0
 23 26  1  0  0  0  0
 23 56  1  0  0  0  0
 23 57  1  0  0  0  0
 24 58  1  0  0  0  0
 24 59  1  0  0  0  0
 24 60  1  0  0  0  0
 25 26  1  0  0  0  0
 25 61  1  0  0  0  0
 26 62  1  0  0  0  0
 27 29  1  0  0  0  0
 27 63  1  0  0  0  0
 28 64  1  0  0  0  0
 28 65  1  0  0  0  0
 28 66  1  0  0  0  0
 29 30  1  0  0  0  0
 29 67  1  0  0  0  0
 30 31  1  0  0  0  0
 30 32  1  0  0  0  0
 30 70  1  0  0  0  0
 31 33  1  0  0  0  0
 31 34  1  0  0  0  0
 31 72  1  0  0  0  0
 32 74  1  0  0  0  0
 32 75  1  0  0  0  0
 32 76  1  0  0  0  0
 33 77  1  0  0  0  0
 33 78  1  0  0  0  0
 34 79  1  0  0  0  0
 34 80  1  0  0  0  0
 34 81  1  0  0  0  0
M  END
> <PUBCHEM_COMPOUND_CID>
56928128

> <PUBCHEM_CONFORMER_RMSD>
1

> <PUBCHEM_CONFORMER_DIVERSEORDER>
1
53
48
36
37
34
20
32
28
49
33
44
27
50
23
16
18
46
7
45
24
13
6
5
30
52
22
42
4
31
15
51
11
19
47
21
41
35
10
12
14
17
2
9
39
25
29
40
43
38
3
8
26

> <PUBCHEM_MMFF94_PARTIAL_CHARGES>
19
1 -0.57
17 0.06
18 0.06
2 -0.68
22 0.45
25 0.28
26 0.28
27 0.28
29 0.28
3 -0.68
33 0.28
4 -0.68
5 -0.68
6 -0.68
68 0.4
69 0.4
71 0.4
73 0.4
82 0.4

> <PUBCHEM_EFFECTIVE_ROTOR_COUNT>
8

> <PUBCHEM_PHARMACOPHORE_FEATURES>
18
1 1 acceptor
1 2 acceptor
1 2 donor
1 28 hydrophobe
1 3 acceptor
1 3 donor
1 32 hydrophobe
1 34 hydrophobe
1 4 acceptor
1 4 donor
1 5 acceptor
1 5 donor
1 6 acceptor
1 6 donor
5 7 8 12 15 16 rings
6 11 17 19 23 25 26 rings
6 7 8 9 10 13 14 rings
6 9 10 11 17 18 22 rings

> <PUBCHEM_HEAVY_ATOM_COUNT>
34

> <PUBCHEM_ATOM_DEF_STEREO_COUNT>
12

> <PUBCHEM_ATOM_UDEF_STEREO_COUNT>
2

> <PUBCHEM_BOND_DEF_STEREO_COUNT>
0

> <PUBCHEM_BOND_UDEF_STEREO_COUNT>
0

> <PUBCHEM_ISOTOPIC_ATOM_COUNT>
0

> <PUBCHEM_COMPONENT_COUNT>
1

> <PUBCHEM_CACTVS_TAUTO_COUNT>
3

> <PUBCHEM_CONFORMER_ID>
0364A78000000001

> <PUBCHEM_MMFF94_ENERGY>
125.0555

> <PUBCHEM_FEATURE_SELFOVERLAP>
91.45

> <PUBCHEM_SHAPE_FINGERPRINT>
10 15 18200592493744118208
10554248 39 17895467132734543047
10835480 77 18413108351127654649
11135609 187 18333736788387590954
11475781 23 17989208165782781767
11719270 70 18410856560363022026
12082328 90 18259985981857434141
12166972 35 5906048162182500578
12236239 1 17385720309366887314
12838862 33 18261403217896546504
13383665 225 17916283074947221636
13533116 47 17967526900722579362
13811026 1 18412263938828859675
14117953 113 18335415773783986868
14856354 85 15285355094873642013
14931854 50 18040987437105916416
15064986 266 18333453124354588239
15142383 8 17846782910320915364
15183329 4 17022902350484882117
15328829 1 17168147806064465244
1577012 14 16515676763008693091
20157964 124 18334855035095443174
20511986 3 18409172073714796518
20715895 44 18342174458310592630
21033648 29 17917709089524387403
21150785 3 16443067187989251693
21279426 13 18340762723935240939
21298829 104 18411417319376642181
21792934 111 18338526339080811490
21859007 373 17918002701635435548
23081809 10 16950556718554935123
23522609 53 16951102046199181659
23559900 14 18189055291699261129
23576562 1 18265057933953554093
249057 25 17313659472781794714
255183 451 17606386908259680470
2838139 119 18412265004460946369
335352 9 18334850624965799382
3633792 109 18334856159854401544
404807 78 14057009260969542452
4073 2 18201995499955159947
4169191 19 18335130973437517881
4760202 170 18262246603039261633
49967989 163 15792013299515582903
504579 68 16950564385197742921
5104073 3 18339626936807936130
6009941 240 17775281647058771002
6086070 43 17676493782930784931
6328613 192 18334579053513500205
6698420 124 18198329840911924001

> <PUBCHEM_SHAPE_MULTIPOLES>
664.49
22.32
2.7
1.51
11.35
0.13
0.32
11.16
3.5
-1.34
-0.06
1.86
-0.03
1.95

> <PUBCHEM_SHAPE_SELFOVERLAP>
1381.083

> <PUBCHEM_SHAPE_VOLUME>
376

> <PUBCHEM_COORDINATE_TYPE>
2
5
10

$$$$

