533728
  -OEChem-07051213152D

 19 17  0     0  0  0  0  0  0999 V2000
    5.4641    0.0000    0.0000 S   0  5  0  0  0  0  0  0  0  0  0  0
    4.5981    1.5000    0.0000 S   0  0  0  0  0  0  0  0  0  0  0  0
    6.3301    0.5000    0.0000 Na  0  3  0  0  0  0  0  0  0  0  0  0
    3.7320    0.0000    0.0000 N   0  0  0  0  0  0  0  0  0  0  0  0
    2.8660    0.5000    0.0000 C   0  0  0  0  0  0  0  0  0  0  0  0
    3.7320   -1.0000    0.0000 C   0  0  0  0  0  0  0  0  0  0  0  0
    2.0000    0.0000    0.0000 C   0  0  0  0  0  0  0  0  0  0  0  0
    2.8660   -1.5000    0.0000 C   0  0  0  0  0  0  0  0  0  0  0  0
    4.5981    0.5000    0.0000 C   0  0  0  0  0  0  0  0  0  0  0  0
    3.9441   -1.5826    0.0000 H   0  0  0  0  0  0  0  0  0  0  0  0
    4.3426   -0.8923    0.0000 H   0  0  0  0  0  0  0  0  0  0  0  0
    3.2646    0.9749    0.0000 H   0  0  0  0  0  0  0  0  0  0  0  0
    2.4675    0.9749    0.0000 H   0  0  0  0  0  0  0  0  0  0  0  0
    1.6900    0.5369    0.0000 H   0  0  0  0  0  0  0  0  0  0  0  0
    1.4631   -0.3100    0.0000 H   0  0  0  0  0  0  0  0  0  0  0  0
    2.3100   -0.5369    0.0000 H   0  0  0  0  0  0  0  0  0  0  0  0
    2.5560   -0.9631    0.0000 H   0  0  0  0  0  0  0  0  0  0  0  0
    2.3291   -1.8100    0.0000 H   0  0  0  0  0  0  0  0  0  0  0  0
    3.1760   -2.0369    0.0000 H   0  0  0  0  0  0  0  0  0  0  0  0
  1  9  1  0  0  0  0
  2  9  2  0  0  0  0
  4  5  1  0  0  0  0
  4  6  1  0  0  0  0
  4  9  1  0  0  0  0
  5  7  1  0  0  0  0
  5 12  1  0  0  0  0
  5 13  1  0  0  0  0
  6  8  1  0  0  0  0
  6 10  1  0  0  0  0
  6 11  1  0  0  0  0
  7 14  1  0  0  0  0
  7 15  1  0  0  0  0
  7 16  1  0  0  0  0
  8 17  1  0  0  0  0
  8 18  1  0  0  0  0
  8 19  1  0  0  0  0
M  CHG  2   1  -1   3   1
M  END
> <PUBCHEM_COMPOUND_CID>
533728

> <PUBCHEM_COMPOUND_CANONICALIZED>
1

> <PUBCHEM_CACTVS_COMPLEXITY>
83

> <PUBCHEM_CACTVS_HBOND_ACCEPTOR>
2

> <PUBCHEM_CACTVS_HBOND_DONOR>
0

> <PUBCHEM_CACTVS_ROTATABLE_BOND>
2

> <PUBCHEM_CACTVS_SUBSKEYS>
AAADccBiACBgAAAAAAAAAAAAAAAAAAAAAAAAAAAAAAAAAAAAAAAAHAQAAAAAAADBAAQCAAMAAAAEAAAAAAAAAAAAAAgAAAAIAAAAAAAAAAAAAAAAAACAAAAAAAAAAAAAAAAAAAAAAAAAAAAAAAAAAAAAAA==

> <PUBCHEM_IUPAC_OPENEYE_NAME>
sodium N,N-diethylcarbamodithioate

> <PUBCHEM_IUPAC_CAS_NAME>
sodium N,N-diethylcarbamodithioate

> <PUBCHEM_IUPAC_NAME>
sodium N,N-diethylcarbamodithioate

> <PUBCHEM_IUPAC_SYSTEMATIC_NAME>
sodium N,N-diethylcarbamodithioate

> <PUBCHEM_IUPAC_TRADITIONAL_NAME>
sodium N,N-diethylcarbamodithioate

> <PUBCHEM_IUPAC_INCHI>
InChI=1S/C5H11NS2.Na/c1-3-6(4-2)5(7)8;/h3-4H2,1-2H3,(H,7,8);/q;+1/p-1

> <PUBCHEM_IUPAC_INCHIKEY>
IOEJYZSZYUROLN-UHFFFAOYSA-M

> <PUBCHEM_EXACT_MASS>
171.015236

> <PUBCHEM_MOLECULAR_FORMULA>
C5H10NNaS2

> <PUBCHEM_MOLECULAR_WEIGHT>
171.259369

> <PUBCHEM_OPENEYE_CAN_SMILES>
CCN(CC)C(=S)[S-].[Na+]

> <PUBCHEM_OPENEYE_ISO_SMILES>
CCN(CC)C(=S)[S-].[Na+]

> <PUBCHEM_CACTVS_TPSA>
36.3

> <PUBCHEM_MONOISOTOPIC_WEIGHT>
171.015236

> <PUBCHEM_TOTAL_CHARGE>
0

> <PUBCHEM_HEAVY_ATOM_COUNT>
9

> <PUBCHEM_ATOM_DEF_STEREO_COUNT>
0

> <PUBCHEM_ATOM_UDEF_STEREO_COUNT>
0

> <PUBCHEM_BOND_DEF_STEREO_COUNT>
0

> <PUBCHEM_BOND_UDEF_STEREO_COUNT>
0

> <PUBCHEM_ISOTOPIC_ATOM_COUNT>
0

> <PUBCHEM_COMPONENT_COUNT>
2

> <PUBCHEM_CACTVS_TAUTO_COUNT>
1

> <PUBCHEM_NONSTANDARDBOND>
1  3  7

> <PUBCHEM_COORDINATE_TYPE>
1
5
255

$$$$

