908
  -OEChem-07051212472D

 13 12  0     0  0  0  0  0  0999 V2000
    2.5369   -0.4400    0.0000 O   0  0  0  0  0  0  0  0  0  0  0  0
    3.4030    1.0600    0.0000 O   0  0  0  0  0  0  0  0  0  0  0  0
    5.1350    0.0600    0.0000 N   0  0  0  0  0  0  0  0  0  0  0  0
    6.8671    0.0600    0.0000 N   0  0  0  0  0  0  0  0  0  0  0  0
    4.2690   -0.4400    0.0000 C   0  0  0  0  0  0  0  0  0  0  0  0
    3.4030    0.0600    0.0000 C   0  0  0  0  0  0  0  0  0  0  0  0
    6.0010   -0.4400    0.0000 C   0  0  0  0  0  0  0  0  0  0  0  0
    3.8705   -0.9149    0.0000 H   0  0  0  0  0  0  0  0  0  0  0  0
    4.6675   -0.9149    0.0000 H   0  0  0  0  0  0  0  0  0  0  0  0
    6.0010   -1.0600    0.0000 H   0  0  0  0  0  0  0  0  0  0  0  0
    7.4040   -0.2500    0.0000 H   0  0  0  0  0  0  0  0  0  0  0  0
    6.8671    0.6800    0.0000 H   0  0  0  0  0  0  0  0  0  0  0  0
    2.0000   -0.1300    0.0000 H   0  0  0  0  0  0  0  0  0  0  0  0
  1  6  1  0  0  0  0
  1 13  1  0  0  0  0
  2  6  2  0  0  0  0
  3  5  1  0  0  0  0
  3  7  2  0  0  0  0
  4  7  1  0  0  0  0
  4 11  1  0  0  0  0
  4 12  1  0  0  0  0
  5  6  1  0  0  0  0
  5  8  1  0  0  0  0
  5  9  1  0  0  0  0
  7 10  1  0  0  0  0
M  END
> <PUBCHEM_COMPOUND_CID>
908

> <PUBCHEM_COMPOUND_CANONICALIZED>
1

> <PUBCHEM_CACTVS_COMPLEXITY>
88.9

> <PUBCHEM_CACTVS_HBOND_ACCEPTOR>
3

> <PUBCHEM_CACTVS_HBOND_DONOR>
2

> <PUBCHEM_CACTVS_ROTATABLE_BOND>
2

> <PUBCHEM_CACTVS_SUBSKEYS>
AAADcYBDMAAAAAAAAAAAAAAAAAAAAAAAAAAAAAAAAAAAAAAAAAAAHgAQCAAAAADBgAQBCAJAAgAoAACRLAAAAAEAAAAAAICAAAACAAAAAAAAAAAAAAAAAAAAAAAAAAAAAAAAAAAAAAAAAAAAAAAAAAAAAA==

> <PUBCHEM_IUPAC_OPENEYE_NAME>
2-(aminomethyleneamino)acetic acid

> <PUBCHEM_IUPAC_CAS_NAME>
2-(aminomethylideneamino)acetic acid

> <PUBCHEM_IUPAC_NAME>
2-(aminomethylideneamino)acetic acid

> <PUBCHEM_IUPAC_SYSTEMATIC_NAME>
2-(azanylmethylideneamino)ethanoic acid

> <PUBCHEM_IUPAC_TRADITIONAL_NAME>
2-(aminomethyleneamino)acetic acid

> <PUBCHEM_IUPAC_INCHI>
InChI=1S/C3H6N2O2/c4-2-5-1-3(6)7/h2H,1H2,(H2,4,5)(H,6,7)

> <PUBCHEM_IUPAC_INCHIKEY>
LLKCTZRWBHOKFF-UHFFFAOYSA-N

> <PUBCHEM_XLOGP3_AA>
-1

> <PUBCHEM_EXACT_MASS>
102.042927

> <PUBCHEM_MOLECULAR_FORMULA>
C3H6N2O2

> <PUBCHEM_MOLECULAR_WEIGHT>
102.09194

> <PUBCHEM_OPENEYE_CAN_SMILES>
C(C(=O)O)N=CN

> <PUBCHEM_OPENEYE_ISO_SMILES>
C(C(=O)O)N=CN

> <PUBCHEM_CACTVS_TPSA>
75.7

> <PUBCHEM_MONOISOTOPIC_WEIGHT>
102.042927

> <PUBCHEM_TOTAL_CHARGE>
0

> <PUBCHEM_HEAVY_ATOM_COUNT>
7

> <PUBCHEM_ATOM_DEF_STEREO_COUNT>
0

> <PUBCHEM_ATOM_UDEF_STEREO_COUNT>
0

> <PUBCHEM_BOND_DEF_STEREO_COUNT>
0

> <PUBCHEM_BOND_UDEF_STEREO_COUNT>
0

> <PUBCHEM_ISOTOPIC_ATOM_COUNT>
0

> <PUBCHEM_COMPONENT_COUNT>
1

> <PUBCHEM_CACTVS_TAUTO_COUNT>
2

> <PUBCHEM_COORDINATE_TYPE>
1
5
255

$$$$

