5359272
  -OEChem-07051212543D

 42 45  0     1  0  0  0  0  0999 V2000
    4.3672   -0.1433   -0.8989 O   0  0  0  0  0  0  0  0  0  0  0  0
   -2.2581    1.7868   -0.2222 N   0  0  1  0  0  0  0  0  0  0  0  0
   -0.5658   -0.6130   -0.7071 C   0  0  2  0  0  0  0  0  0  0  0  0
   -1.6570   -0.5757    0.3967 C   0  0  2  0  0  0  0  0  0  0  0  0
   -1.8274    0.8793    0.8699 C   0  0  1  0  0  0  0  0  0  0  0  0
   -1.0631    0.2853   -1.8730 C   0  0  0  0  0  0  0  0  0  0  0  0
   -0.4520   -2.0796   -1.2060 C   0  0  0  0  0  0  0  0  0  0  0  0
   -1.3771   -1.5655    1.5455 C   0  0  0  0  0  0  0  0  0  0  0  0
    0.7578   -0.0198   -0.1890 C   0  0  0  0  0  0  0  0  0  0  0  0
   -0.5259    1.3933    1.5204 C   0  0  0  0  0  0  0  0  0  0  0  0
   -1.4124    1.7124   -1.4221 C   0  0  0  0  0  0  0  0  0  0  0  0
   -0.1646   -3.0735   -0.0789 C   0  0  0  0  0  0  0  0  0  0  0  0
   -1.2173   -2.9903    1.0213 C   0  0  0  0  0  0  0  0  0  0  0  0
    0.7520    0.9359    0.8532 C   0  0  0  0  0  0  0  0  0  0  0  0
    1.9922   -0.3524   -0.7759 C   0  0  0  0  0  0  0  0  0  0  0  0
   -3.6718    1.6130   -0.5582 C   0  0  0  0  0  0  0  0  0  0  0  0
    1.9626    1.4843    1.3102 C   0  0  0  0  0  0  0  0  0  0  0  0
    3.1872    0.2051   -0.3163 C   0  0  0  0  0  0  0  0  0  0  0  0
    3.1735    1.1180    0.7306 C   0  0  0  0  0  0  0  0  0  0  0  0
   -2.6080   -0.9062   -0.0460 H   0  0  0  0  0  0  0  0  0  0  0  0
   -2.5958    0.9190    1.6540 H   0  0  0  0  0  0  0  0  0  0  0  0
   -1.9561   -0.1639   -2.3279 H   0  0  0  0  0  0  0  0  0  0  0  0
   -0.3082    0.3380   -2.6682 H   0  0  0  0  0  0  0  0  0  0  0  0
    0.3008   -2.1878   -1.9936 H   0  0  0  0  0  0  0  0  0  0  0  0
   -1.4018   -2.3726   -1.6756 H   0  0  0  0  0  0  0  0  0  0  0  0
   -2.2051   -1.5373    2.2640 H   0  0  0  0  0  0  0  0  0  0  0  0
   -0.4734   -1.2957    2.1021 H   0  0  0  0  0  0  0  0  0  0  0  0
   -0.4965    1.0426    2.5609 H   0  0  0  0  0  0  0  0  0  0  0  0
   -0.5426    2.4904    1.5675 H   0  0  0  0  0  0  0  0  0  0  0  0
   -0.4890    2.2723   -1.2324 H   0  0  0  0  0  0  0  0  0  0  0  0
   -1.8821    2.2493   -2.2565 H   0  0  0  0  0  0  0  0  0  0  0  0
    0.8284   -2.8887    0.3463 H   0  0  0  0  0  0  0  0  0  0  0  0
   -0.1471   -4.0906   -0.4871 H   0  0  0  0  0  0  0  0  0  0  0  0
   -2.1798   -3.3436    0.6311 H   0  0  0  0  0  0  0  0  0  0  0  0
   -0.9448   -3.6591    1.8455 H   0  0  0  0  0  0  0  0  0  0  0  0
    2.0353   -1.0467   -1.6100 H   0  0  0  0  0  0  0  0  0  0  0  0
   -3.9946    2.3940   -1.2560 H   0  0  0  0  0  0  0  0  0  0  0  0
   -4.2989    1.7228    0.3336 H   0  0  0  0  0  0  0  0  0  0  0  0
   -3.8900    0.6426   -1.0149 H   0  0  0  0  0  0  0  0  0  0  0  0
    1.9623    2.2084    2.1216 H   0  0  0  0  0  0  0  0  0  0  0  0
    4.0994    1.5549    1.0937 H   0  0  0  0  0  0  0  0  0  0  0  0
    4.1932   -0.7867   -1.6073 H   0  0  0  0  0  0  0  0  0  0  0  0
  1 18  1  0  0  0  0
  1 42  1  0  0  0  0
  2  5  1  0  0  0  0
  2 11  1  0  0  0  0
  2 16  1  0  0  0  0
  3  4  1  0  0  0  0
  3  6  1  0  0  0  0
  3  7  1  0  0  0  0
  3  9  1  0  0  0  0
  4  5  1  0  0  0  0
  4  8  1  0  0  0  0
  4 20  1  0  0  0  0
  5 10  1  0  0  0  0
  5 21  1  0  0  0  0
  6 11  1  0  0  0  0
  6 22  1  0  0  0  0
  6 23  1  0  0  0  0
  7 12  1  0  0  0  0
  7 24  1  0  0  0  0
  7 25  1  0  0  0  0
  8 13  1  0  0  0  0
  8 26  1  0  0  0  0
  8 27  1  0  0  0  0
  9 14  2  0  0  0  0
  9 15  1  0  0  0  0
 10 14  1  0  0  0  0
 10 28  1  0  0  0  0
 10 29  1  0  0  0  0
 11 30  1  0  0  0  0
 11 31  1  0  0  0  0
 12 13  1  0  0  0  0
 12 32  1  0  0  0  0
 12 33  1  0  0  0  0
 13 34  1  0  0  0  0
 13 35  1  0  0  0  0
 14 17  1  0  0  0  0
 15 18  2  0  0  0  0
 15 36  1  0  0  0  0
 16 37  1  0  0  0  0
 16 38  1  0  0  0  0
 16 39  1  0  0  0  0
 17 19  2  0  0  0  0
 17 40  1  0  0  0  0
 18 19  1  0  0  0  0
 19 41  1  0  0  0  0
M  END
> <PUBCHEM_COMPOUND_CID>
5359272

> <PUBCHEM_CONFORMER_RMSD>
0.6

> <PUBCHEM_CONFORMER_DIVERSEORDER>
1

> <PUBCHEM_MMFF94_PARTIAL_CHARGES>
17
1 -0.53
10 0.14
11 0.27
14 -0.14
15 -0.15
16 0.27
17 -0.15
18 0.08
19 -0.15
2 -0.81
3 0.14
36 0.15
40 0.15
41 0.15
42 0.45
5 0.27
9 -0.14

> <PUBCHEM_EFFECTIVE_ROTOR_COUNT>
1.6

> <PUBCHEM_PHARMACOPHORE_FEATURES>
6
1 1 donor
1 2 cation
6 2 3 4 5 6 11 rings
6 3 4 5 9 10 14 rings
6 3 4 7 8 12 13 rings
6 9 14 15 17 18 19 rings

> <PUBCHEM_HEAVY_ATOM_COUNT>
19

> <PUBCHEM_ATOM_DEF_STEREO_COUNT>
3

> <PUBCHEM_ATOM_UDEF_STEREO_COUNT>
0

> <PUBCHEM_BOND_DEF_STEREO_COUNT>
0

> <PUBCHEM_BOND_UDEF_STEREO_COUNT>
0

> <PUBCHEM_ISOTOPIC_ATOM_COUNT>
0

> <PUBCHEM_COMPONENT_COUNT>
1

> <PUBCHEM_CACTVS_TAUTO_COUNT>
3

> <PUBCHEM_CONFORMER_ID>
0051C6A800000001

> <PUBCHEM_MMFF94_ENERGY>
54.5473

> <PUBCHEM_FEATURE_SELFOVERLAP>
32.12

> <PUBCHEM_SHAPE_FINGERPRINT>
10863032 1 18341897445477900443
10922049 32 18409169943584681709
10948715 1 18270120239700442325
11322862 65 18410296878277975303
12423570 1 17123611039846533689
12592029 89 17913775186911673210
12716301 132 18412550877056848794
12730499 353 18194964269863216513
13024252 1 14189578511553472237
13464514 151 17831293166207399049
13681431 1 17043197402039862111
141345 1 7129393429529272875
14181834 199 16968914336448354717
144361 1 16083334634438385989
14817 1 12585818018043803287
15163728 17 17556564762579656557
15852999 172 18270674393602870495
16945 1 18200586991273794411
17357779 13 17901961746283524463
19765921 60 18191599746489922957
20645476 183 18343582953864170436
21330990 113 18341047420169228171
21524375 3 18266466575393269847
23419403 2 16450038139127993925
23493267 7 18342171176865933880
23557571 272 17840599093443570576
23559900 14 18187359949056187860
25 1 18189898806128162509
2748010 2 17751080215501016296
298252 57 16733265784618231269
404807 78 6083912242047813546
4340502 62 18268706289870844433
576247 118 17552079493877635258
5845 1 7450551309863047579
598444 67 18335125471552548458
81228 2 18053961562296012883
9981440 41 16593699057235165344

> <PUBCHEM_SHAPE_MULTIPOLES>
380.16
4.59
2.83
1.62
4
2.22
0.05
-2.15
0.65
-1.82
-0.39
-0.3
-0.1
1.04

> <PUBCHEM_SHAPE_SELFOVERLAP>
829.53

> <PUBCHEM_SHAPE_VOLUME>
201.5

> <PUBCHEM_COORDINATE_TYPE>
2
5
10

$$$$

