439284
  -OEChem-07051212443D

 29 29  0     1  0  0  0  0  0999 V2000
   -3.7167   -0.1894   -0.0386 P   0  0  0  0  0  0  0  0  0  0  0  0
    0.4299   -1.0147   -0.4670 O   0  0  0  0  0  0  0  0  0  0  0  0
    1.0404    2.4087    0.7561 O   0  0  0  0  0  0  0  0  0  0  0  0
    3.5549    1.6840   -0.4289 O   0  0  0  0  0  0  0  0  0  0  0  0
    4.0926   -1.1502   -0.1982 O   0  0  0  0  0  0  0  0  0  0  0  0
    1.8081   -2.0532    1.1585 O   0  0  0  0  0  0  0  0  0  0  0  0
   -2.1363   -0.4083    0.2400 O   0  0  0  0  0  0  0  0  0  0  0  0
   -3.7756    0.2393   -1.5968 O   0  0  0  0  0  0  0  0  0  0  0  0
   -4.0340    1.1922    0.7394 O   0  0  0  0  0  0  0  0  0  0  0  0
   -4.5931   -1.3468    0.3419 O   0  0  0  0  0  0  0  0  0  0  0  0
    1.2191    1.2650   -0.0760 C   0  0  1  0  0  0  0  0  0  0  0  0
    2.6410    0.7416    0.1369 C   0  0  1  0  0  0  0  0  0  0  0  0
    0.1761    0.1913    0.2627 C   0  0  1  0  0  0  0  0  0  0  0  0
    2.8252   -0.6086   -0.5528 C   0  0  2  0  0  0  0  0  0  0  0  0
    1.7086   -1.5874   -0.1860 C   0  0  2  0  0  0  0  0  0  0  0  0
   -1.2403    0.6365   -0.0912 C   0  0  0  0  0  0  0  0  0  0  0  0
    1.0987    1.5890   -1.1179 H   0  0  0  0  0  0  0  0  0  0  0  0
    2.8865    0.6777    1.2038 H   0  0  0  0  0  0  0  0  0  0  0  0
    0.1929   -0.0377    1.3364 H   0  0  0  0  0  0  0  0  0  0  0  0
    2.8311   -0.4515   -1.6383 H   0  0  0  0  0  0  0  0  0  0  0  0
    1.8033   -2.4803   -0.8127 H   0  0  0  0  0  0  0  0  0  0  0  0
   -1.3148    0.8335   -1.1658 H   0  0  0  0  0  0  0  0  0  0  0  0
   -1.5092    1.5431    0.4592 H   0  0  0  0  0  0  0  0  0  0  0  0
    1.6110    3.1167    0.4131 H   0  0  0  0  0  0  0  0  0  0  0  0
    3.5134    2.4939    0.1068 H   0  0  0  0  0  0  0  0  0  0  0  0
    4.0917   -1.3145    0.7600 H   0  0  0  0  0  0  0  0  0  0  0  0
    2.1285   -1.3269    1.7172 H   0  0  0  0  0  0  0  0  0  0  0  0
   -4.6507    0.3609   -2.0228 H   0  0  0  0  0  0  0  0  0  0  0  0
   -4.9632    1.5008    0.7990 H   0  0  0  0  0  0  0  0  0  0  0  0
  1  7  1  0  0  0  0
  1  8  1  0  0  0  0
  1  9  1  0  0  0  0
  1 10  2  0  0  0  0
  2 13  1  0  0  0  0
  2 15  1  0  0  0  0
  3 11  1  0  0  0  0
  3 24  1  0  0  0  0
  4 12  1  0  0  0  0
  4 25  1  0  0  0  0
  5 14  1  0  0  0  0
  5 26  1  0  0  0  0
  6 15  1  0  0  0  0
  6 27  1  0  0  0  0
  7 16  1  0  0  0  0
  8 28  1  0  0  0  0
  9 29  1  0  0  0  0
 11 12  1  0  0  0  0
 11 13  1  0  0  0  0
 11 17  1  0  0  0  0
 12 14  1  0  0  0  0
 12 18  1  0  0  0  0
 13 16  1  0  0  0  0
 13 19  1  0  0  0  0
 14 15  1  0  0  0  0
 14 20  1  0  0  0  0
 15 21  1  0  0  0  0
 16 22  1  0  0  0  0
 16 23  1  0  0  0  0
M  END
> <PUBCHEM_COMPOUND_CID>
439284

> <PUBCHEM_CONFORMER_RMSD>
0.6

> <PUBCHEM_CONFORMER_DIVERSEORDER>
1
24
16
26
20
15
7
22
8
23
6
17
14
28
27
5
9
21
10
18
19
4
11
3
25
13
2
12

> <PUBCHEM_MMFF94_PARTIAL_CHARGES>
22
1 1.51
10 -0.7
11 0.28
12 0.28
13 0.28
14 0.28
15 0.56
16 0.28
2 -0.56
24 0.4
25 0.4
26 0.4
27 0.4
28 0.5
29 0.5
3 -0.68
4 -0.68
5 -0.68
6 -0.68
7 -0.55
8 -0.77
9 -0.77

> <PUBCHEM_EFFECTIVE_ROTOR_COUNT>
4.2

> <PUBCHEM_PHARMACOPHORE_FEATURES>
14
1 10 acceptor
1 2 acceptor
1 3 acceptor
1 3 donor
1 4 acceptor
1 4 donor
1 5 acceptor
1 5 donor
1 6 acceptor
1 6 donor
1 8 acceptor
1 9 acceptor
4 1 8 9 10 anion
6 2 11 12 13 14 15 rings

> <PUBCHEM_HEAVY_ATOM_COUNT>
16

> <PUBCHEM_ATOM_DEF_STEREO_COUNT>
5

> <PUBCHEM_ATOM_UDEF_STEREO_COUNT>
0

> <PUBCHEM_BOND_DEF_STEREO_COUNT>
0

> <PUBCHEM_BOND_UDEF_STEREO_COUNT>
0

> <PUBCHEM_ISOTOPIC_ATOM_COUNT>
0

> <PUBCHEM_COMPONENT_COUNT>
1

> <PUBCHEM_CACTVS_TAUTO_COUNT>
1

> <PUBCHEM_CONFORMER_ID>
0006B3F400000001

> <PUBCHEM_MMFF94_ENERGY>
1.75

> <PUBCHEM_FEATURE_SELFOVERLAP>
71.132

> <PUBCHEM_SHAPE_FINGERPRINT>
10980938 120 18408042913716214348
11471102 20 18410014325217013636
11615757 297 18260261937131392667
12032990 46 18335133237101222574
12654215 9 18341339958744037156
12932764 1 17846219990311017235
13296908 3 18413107264738078199
14144814 61 18333449859171504113
14251717 144 18409169900244612142
14252887 29 17895187839986522110
15219456 202 18273501165062592581
15375462 189 18270958071766117515
15442244 35 18119804965737873425
15501101 241 18343581849793974525
15757776 16 18341050813029653698
16945 1 18202001079465407780
17834074 16 18342172216248298787
18186145 218 18272932751963492015
200 152 18186801400283799491
20279233 1 17704355463845557467
20281475 54 18341614862494676851
20645477 56 17560806589088795533
20645477 70 18409446998618227223
20871998 22 18042678597531816262
221490 88 18267015068466141419
23402539 116 18040720320046419390
23402655 69 18334295379239467765
23557571 272 16917071087941556927
23596394 208 18130241405865771727
2748010 2 17614841816962549792
5104073 3 18408600362127766809
53428517 54 18411138051923021947
581208 293 18411141316193177384
81539 233 18201441337757663164

> <PUBCHEM_SHAPE_MULTIPOLES>
280.3
8.03
1.95
0.89
7.18
0.24
0.11
-0.92
0.63
-1.34
-0.43
0.39
-0.04
-0.1

> <PUBCHEM_SHAPE_SELFOVERLAP>
546.201

> <PUBCHEM_SHAPE_VOLUME>
169.4

> <PUBCHEM_COORDINATE_TYPE>
2
5
10

$$$$

