46173998
  -OEChem-07051213113D

 72 76  0     1  0  0  0  0  0999 V2000
   -0.5434   -2.0846    0.8506 O   0  0  0  0  0  0  0  0  0  0  0  0
   -2.7968   -0.8800   -1.7777 O   0  0  0  0  0  0  0  0  0  0  0  0
   -0.5152   -1.8702   -3.2553 O   0  0  0  0  0  0  0  0  0  0  0  0
    0.7135   -4.1248   -1.9377 O   0  0  0  0  0  0  0  0  0  0  0  0
    4.8975    2.0490    0.6863 O   0  0  0  0  0  0  0  0  0  0  0  0
    2.7740    1.0228    0.9484 O   0  0  0  0  0  0  0  0  0  0  0  0
    0.8173   -3.9453    2.3325 O   0  0  0  0  0  0  0  0  0  0  0  0
   -3.8193    2.4961   -1.3238 O   0  0  0  0  0  0  0  0  0  0  0  0
    5.7266   -1.9080   -0.2393 O   0  0  0  0  0  0  0  0  0  0  0  0
    6.0106   -0.2604    1.9855 O   0  0  0  0  0  0  0  0  0  0  0  0
    5.7705    0.0684   -2.2978 O   0  0  0  0  0  0  0  0  0  0  0  0
   -1.7102    3.9676   -1.0644 O   0  0  0  0  0  0  0  0  0  0  0  0
   -6.2585    1.8127   -0.8087 O   0  0  0  0  0  0  0  0  0  0  0  0
   -1.7679   -1.6448    0.2649 C   0  0  1  0  0  0  0  0  0  0  0  0
   -2.2776   -0.4690    1.1120 C   0  0  1  0  0  0  0  0  0  0  0  0
   -1.5468   -1.2278   -1.1889 C   0  0  1  0  0  0  0  0  0  0  0  0
   -0.9150   -2.3738   -1.9794 C   0  0  2  0  0  0  0  0  0  0  0  0
    0.3079   -2.9405   -1.2566 C   0  0  1  0  0  0  0  0  0  0  0  0
   -0.0232   -3.2508    0.2069 C   0  0  1  0  0  0  0  0  0  0  0  0
   -1.4802    0.7795    0.7942 C   0  0  0  0  0  0  0  0  0  0  0  0
   -3.7720   -0.3066    0.9226 C   0  0  0  0  0  0  0  0  0  0  0  0
   -2.0103    1.8125    0.0111 C   0  0  0  0  0  0  0  0  0  0  0  0
   -4.3076    0.7239    0.1401 C   0  0  0  0  0  0  0  0  0  0  0  0
    1.2067   -3.6902    0.9954 C   0  0  0  0  0  0  0  0  0  0  0  0
   -0.1594    0.8982    1.2571 C   0  0  0  0  0  0  0  0  0  0  0  0
   -3.4121    1.7398   -0.4515 C   0  0  0  0  0  0  0  0  0  0  0  0
   -4.6523   -1.2309    1.5090 C   0  0  0  0  0  0  0  0  0  0  0  0
    0.6127    2.0155    0.9368 C   0  0  0  0  0  0  0  0  0  0  0  0
    4.9870   -0.6911   -0.1679 C   0  0  1  0  0  0  0  0  0  0  0  0
    4.7611   -0.3040    1.2946 C   0  0  2  0  0  0  0  0  0  0  0  0
    5.7490    0.4056   -0.9130 C   0  0  2  0  0  0  0  0  0  0  0  0
    4.1226    1.0797    1.4002 C   0  0  1  0  0  0  0  0  0  0  0  0
   -1.2345    2.9315   -0.3167 C   0  0  0  0  0  0  0  0  0  0  0  0
    5.0587    1.7609   -0.7063 C   0  0  2  0  0  0  0  0  0  0  0  0
   -5.6895    0.8207   -0.0666 C   0  0  0  0  0  0  0  0  0  0  0  0
    0.0764    3.0290    0.1473 C   0  0  0  0  0  0  0  0  0  0  0  0
    2.0138    2.1212    1.4367 C   0  0  0  0  0  0  0  0  0  0  0  0
   -6.0297   -1.1321    1.3093 C   0  0  0  0  0  0  0  0  0  0  0  0
   -6.5469   -0.1093    0.5190 C   0  0  0  0  0  0  0  0  0  0  0  0
    5.8625    2.9098   -1.3090 C   0  0  0  0  0  0  0  0  0  0  0  0
   -2.4832   -2.4768    0.3184 H   0  0  0  0  0  0  0  0  0  0  0  0
   -2.1157   -0.6794    2.1796 H   0  0  0  0  0  0  0  0  0  0  0  0
   -0.8767   -0.3702   -1.2975 H   0  0  0  0  0  0  0  0  0  0  0  0
   -1.6512   -3.1610   -2.1808 H   0  0  0  0  0  0  0  0  0  0  0  0
    1.1374   -2.2255   -1.3184 H   0  0  0  0  0  0  0  0  0  0  0  0
   -0.7721   -4.0514    0.2778 H   0  0  0  0  0  0  0  0  0  0  0  0
    1.6469   -4.5997    0.5754 H   0  0  0  0  0  0  0  0  0  0  0  0
    1.9618   -2.8969    1.0129 H   0  0  0  0  0  0  0  0  0  0  0  0
    0.2690    0.1179    1.8821 H   0  0  0  0  0  0  0  0  0  0  0  0
   -3.3751   -1.6609   -1.7395 H   0  0  0  0  0  0  0  0  0  0  0  0
   -4.2656   -2.0416    2.1222 H   0  0  0  0  0  0  0  0  0  0  0  0
    0.1623   -1.1872   -3.1135 H   0  0  0  0  0  0  0  0  0  0  0  0
    4.0248   -0.8747   -0.6625 H   0  0  0  0  0  0  0  0  0  0  0  0
    4.1418   -1.0667    1.7807 H   0  0  0  0  0  0  0  0  0  0  0  0
    6.7889    0.4376   -0.5670 H   0  0  0  0  0  0  0  0  0  0  0  0
   -0.0006   -4.7795   -1.8532 H   0  0  0  0  0  0  0  0  0  0  0  0
    4.1418    1.3852    2.4541 H   0  0  0  0  0  0  0  0  0  0  0  0
    4.0724    1.7638   -1.1883 H   0  0  0  0  0  0  0  0  0  0  0  0
    0.6721    3.9026   -0.1068 H   0  0  0  0  0  0  0  0  0  0  0  0
    2.0012    2.1145    2.5339 H   0  0  0  0  0  0  0  0  0  0  0  0
    2.4765    3.0600    1.1094 H   0  0  0  0  0  0  0  0  0  0  0  0
   -6.6975   -1.8557    1.7677 H   0  0  0  0  0  0  0  0  0  0  0  0
   -7.6209   -0.0393    0.3687 H   0  0  0  0  0  0  0  0  0  0  0  0
    1.6153   -4.2174    2.8169 H   0  0  0  0  0  0  0  0  0  0  0  0
    5.3561    3.8644   -1.1289 H   0  0  0  0  0  0  0  0  0  0  0  0
    6.8496    2.9842   -0.8394 H   0  0  0  0  0  0  0  0  0  0  0  0
    5.9952    2.7853   -2.3877 H   0  0  0  0  0  0  0  0  0  0  0  0
    5.2230   -2.5845    0.2450 H   0  0  0  0  0  0  0  0  0  0  0  0
    5.8232   -0.0700    2.9204 H   0  0  0  0  0  0  0  0  0  0  0  0
    4.8536    0.0664   -2.6217 H   0  0  0  0  0  0  0  0  0  0  0  0
   -2.6530    3.8468   -1.2541 H   0  0  0  0  0  0  0  0  0  0  0  0
   -5.5896    2.4557   -1.0889 H   0  0  0  0  0  0  0  0  0  0  0  0
  1 14  1  0  0  0  0
  1 19  1  0  0  0  0
  2 16  1  0  0  0  0
  2 50  1  0  0  0  0
  3 17  1  0  0  0  0
  3 52  1  0  0  0  0
  4 18  1  0  0  0  0
  4 56  1  0  0  0  0
  5 32  1  0  0  0  0
  5 34  1  0  0  0  0
  6 32  1  0  0  0  0
  6 37  1  0  0  0  0
  7 24  1  0  0  0  0
  7 64  1  0  0  0  0
  8 26  2  0  0  0  0
  9 29  1  0  0  0  0
  9 68  1  0  0  0  0
 10 30  1  0  0  0  0
 10 69  1  0  0  0  0
 11 31  1  0  0  0  0
 11 70  1  0  0  0  0
 12 33  1  0  0  0  0
 12 71  1  0  0  0  0
 13 35  1  0  0  0  0
 13 72  1  0  0  0  0
 14 15  1  0  0  0  0
 14 16  1  0  0  0  0
 14 41  1  0  0  0  0
 15 20  1  0  0  0  0
 15 21  1  0  0  0  0
 15 42  1  0  0  0  0
 16 17  1  0  0  0  0
 16 43  1  0  0  0  0
 17 18  1  0  0  0  0
 17 44  1  0  0  0  0
 18 19  1  0  0  0  0
 18 45  1  0  0  0  0
 19 24  1  0  0  0  0
 19 46  1  0  0  0  0
 20 22  2  0  0  0  0
 20 25  1  0  0  0  0
 21 23  2  0  0  0  0
 21 27  1  0  0  0  0
 22 26  1  0  0  0  0
 22 33  1  0  0  0  0
 23 26  1  0  0  0  0
 23 35  1  0  0  0  0
 24 47  1  0  0  0  0
 24 48  1  0  0  0  0
 25 28  2  0  0  0  0
 25 49  1  0  0  0  0
 27 38  2  0  0  0  0
 27 51  1  0  0  0  0
 28 36  1  0  0  0  0
 28 37  1  0  0  0  0
 29 30  1  0  0  0  0
 29 31  1  0  0  0  0
 29 53  1  0  0  0  0
 30 32  1  0  0  0  0
 30 54  1  0  0  0  0
 31 34  1  0  0  0  0
 31 55  1  0  0  0  0
 32 57  1  0  0  0  0
 33 36  2  0  0  0  0
 34 40  1  0  0  0  0
 34 58  1  0  0  0  0
 35 39  2  0  0  0  0
 36 59  1  0  0  0  0
 37 60  1  0  0  0  0
 37 61  1  0  0  0  0
 38 39  1  0  0  0  0
 38 62  1  0  0  0  0
 39 63  1  0  0  0  0
 40 65  1  0  0  0  0
 40 66  1  0  0  0  0
 40 67  1  0  0  0  0
M  END
> <PUBCHEM_COMPOUND_CID>
46173998

> <PUBCHEM_CONFORMER_RMSD>
1

> <PUBCHEM_CONFORMER_DIVERSEORDER>
1
77
48
45
35
42
62
27
11
70
65
23
57
43
58
76
14
5
41
12
78
69
38
59
72
20
17
40
39
2
50
73
67
32
44
61
36
13
10
52
47
16
68
75
55
30
4
22
74
8
53
49
71
26
37
66
56
15
25
54
18
63
51
9
21
19
28
31
29
34
3
7
46
24
60
64
6
33

> <PUBCHEM_MMFF94_PARTIAL_CHARGES>
53
1 -0.56
10 -0.68
11 -0.68
12 -0.53
13 -0.53
14 0.28
15 0.29
16 0.28
17 0.28
18 0.28
19 0.28
2 -0.68
20 -0.14
21 -0.14
22 0.09
23 0.09
24 0.28
25 -0.15
26 0.4
27 -0.15
28 -0.14
29 0.28
3 -0.68
30 0.28
31 0.28
32 0.56
33 0.08
34 0.28
35 0.08
36 -0.15
37 0.42
38 -0.15
39 -0.15
4 -0.68
49 0.15
5 -0.56
50 0.4
51 0.15
52 0.4
56 0.4
59 0.15
6 -0.56
62 0.15
63 0.15
64 0.4
68 0.4
69 0.4
7 -0.68
70 0.4
71 0.45
72 0.45
8 -0.57
9 -0.68

> <PUBCHEM_EFFECTIVE_ROTOR_COUNT>
7.6

> <PUBCHEM_PHARMACOPHORE_FEATURES>
25
1 1 acceptor
1 10 acceptor
1 10 donor
1 11 acceptor
1 11 donor
1 12 donor
1 13 donor
1 2 acceptor
1 2 donor
1 3 acceptor
1 3 donor
1 4 acceptor
1 4 donor
1 5 acceptor
1 6 acceptor
1 7 acceptor
1 7 donor
1 8 acceptor
1 9 acceptor
1 9 donor
6 1 14 16 17 18 19 rings
6 15 20 21 22 23 26 rings
6 20 22 25 28 33 36 rings
6 21 23 27 35 38 39 rings
6 5 29 30 31 32 34 rings

> <PUBCHEM_HEAVY_ATOM_COUNT>
40

> <PUBCHEM_ATOM_DEF_STEREO_COUNT>
11

> <PUBCHEM_ATOM_UDEF_STEREO_COUNT>
0

> <PUBCHEM_BOND_DEF_STEREO_COUNT>
0

> <PUBCHEM_BOND_UDEF_STEREO_COUNT>
0

> <PUBCHEM_ISOTOPIC_ATOM_COUNT>
0

> <PUBCHEM_COMPONENT_COUNT>
1

> <PUBCHEM_CACTVS_TAUTO_COUNT>
89

> <PUBCHEM_CONFORMER_ID>
02C08F2E00000001

> <PUBCHEM_MMFF94_ENERGY>
128.3786

> <PUBCHEM_FEATURE_SELFOVERLAP>
126.973

> <PUBCHEM_SHAPE_FINGERPRINT>
107951 10 18342454798994470354
11488393 25 18115862091350421363
11524674 6 17748827384757861237
11578080 2 17129879459148437759
12422481 6 18187641363133398563
13402501 40 18408601469907588096
14840074 17 18334571322118790493
14955137 171 18338796715783440633
15001296 14 18058726884683395780
15264996 154 18056197118924408386
15274700 242 17914642504513495656
19319366 153 17988932128699087034
20764821 26 18187947083358627638
21133410 230 17840832279766097115
3298306 158 18337117877053502328
3383291 50 17967527991575882878
404807 14 14423144622768345812
5265222 85 18339074865917601540
563151 248 16950841393841126015
5776283 40 18340471306879341102
6669772 16 18040433295856158422

> <PUBCHEM_SHAPE_MULTIPOLES>
746.88
14.46
4.67
2.06
7.53
2.13
0.76
-5.25
-0.41
1.05
0.94
0.96
1.26
0.49

> <PUBCHEM_SHAPE_SELFOVERLAP>
1631.985

> <PUBCHEM_SHAPE_VOLUME>
397.5

> <PUBCHEM_COORDINATE_TYPE>
2
5
10

$$$$

