232772
  -OEChem-07051213062D

 49 52  0     1  0  0  0  0  0999 V2000
    9.5141    2.1767    0.0000 O   0  0  0  0  0  0  0  0  0  0  0  0
    8.2790   -2.1100    0.0000 O   0  0  0  0  0  0  0  0  0  0  0  0
    2.8641   -2.1309    0.0000 O   0  0  0  0  0  0  0  0  0  0  0  0
    8.2572   -0.0785    0.0000 C   0  0  2  0  0  0  0  0  0  0  0  0
    6.5251   -0.0785    0.0000 C   0  0  1  0  0  0  0  0  0  0  0  0
    8.2572    0.9215    0.0000 C   0  0  2  0  0  0  0  0  0  0  0  0
    7.3912   -0.5785    0.0000 C   0  0  1  0  0  0  0  0  0  0  0  0
    5.6151   -0.5854    0.0000 C   0  0  2  0  0  0  0  0  0  0  0  0
    6.5251    0.9215    0.0000 C   0  0  0  0  0  0  0  0  0  0  0  0
    7.3912    1.4215    0.0000 C   0  0  0  0  0  0  0  0  0  0  0  0
    9.2034   -0.3833    0.0000 C   0  0  0  0  0  0  0  0  0  0  0  0
    9.2034    1.2262    0.0000 C   0  0  0  0  0  0  0  0  0  0  0  0
    9.7870    0.4215    0.0000 C   0  0  0  0  0  0  0  0  0  0  0  0
    7.4072   -1.6200    0.0000 C   0  0  0  0  0  0  0  0  0  0  0  0
    5.6071   -1.6270    0.0000 C   0  0  0  0  0  0  0  0  0  0  0  0
    4.6883   -0.0213    0.0000 C   0  0  0  0  0  0  0  0  0  0  0  0
    8.2572    1.9215    0.0000 C   0  0  0  0  0  0  0  0  0  0  0  0
    5.6228    0.4146    0.0000 C   0  0  0  0  0  0  0  0  0  0  0  0
    6.5092   -2.1478    0.0000 C   0  0  0  0  0  0  0  0  0  0  0  0
    3.7404   -0.5493    0.0000 C   0  0  0  0  0  0  0  0  0  0  0  0
    4.6717   -2.1767    0.0000 C   0  0  0  0  0  0  0  0  0  0  0  0
    3.7320   -1.6342    0.0000 C   0  0  0  0  0  0  0  0  0  0  0  0
    2.0000   -1.6275    0.0000 C   0  0  0  0  0  0  0  0  0  0  0  0
    8.3471   -0.9238    0.0000 H   0  0  0  0  0  0  0  0  0  0  0  0
    7.2612    0.3465    0.0000 H   0  0  0  0  0  0  0  0  0  0  0  0
    8.1305   -0.9979    0.0000 H   0  0  0  0  0  0  0  0  0  0  0  0
    6.3131    1.5041    0.0000 H   0  0  0  0  0  0  0  0  0  0  0  0
    5.9145    0.8138    0.0000 H   0  0  0  0  0  0  0  0  0  0  0  0
    7.7897    1.8964    0.0000 H   0  0  0  0  0  0  0  0  0  0  0  0
    6.9926    1.8964    0.0000 H   0  0  0  0  0  0  0  0  0  0  0  0
    8.9524   -0.9502    0.0000 H   0  0  0  0  0  0  0  0  0  0  0  0
    9.7408   -0.6925    0.0000 H   0  0  0  0  0  0  0  0  0  0  0  0
   10.2479    0.0067    0.0000 H   0  0  0  0  0  0  0  0  0  0  0  0
   10.2479    0.8362    0.0000 H   0  0  0  0  0  0  0  0  0  0  0  0
    5.0965    0.4454    0.0000 H   0  0  0  0  0  0  0  0  0  0  0  0
    4.2984    0.4607    0.0000 H   0  0  0  0  0  0  0  0  0  0  0  0
    8.8772    1.9215    0.0000 H   0  0  0  0  0  0  0  0  0  0  0  0
    8.2572    2.5415    0.0000 H   0  0  0  0  0  0  0  0  0  0  0  0
    7.6372    1.9215    0.0000 H   0  0  0  0  0  0  0  0  0  0  0  0
    6.2428    0.4098    0.0000 H   0  0  0  0  0  0  0  0  0  0  0  0
    5.6276    1.0346    0.0000 H   0  0  0  0  0  0  0  0  0  0  0  0
    5.0028    0.4194    0.0000 H   0  0  0  0  0  0  0  0  0  0  0  0
    6.5116   -2.7678    0.0000 H   0  0  0  0  0  0  0  0  0  0  0  0
    3.5358    0.0360    0.0000 H   0  0  0  0  0  0  0  0  0  0  0  0
    3.1288   -0.6506    0.0000 H   0  0  0  0  0  0  0  0  0  0  0  0
    4.6741   -2.7967    0.0000 H   0  0  0  0  0  0  0  0  0  0  0  0
    2.3121   -1.0918    0.0000 H   0  0  0  0  0  0  0  0  0  0  0  0
    1.4643   -1.3155    0.0000 H   0  0  0  0  0  0  0  0  0  0  0  0
    1.6879   -2.1633    0.0000 H   0  0  0  0  0  0  0  0  0  0  0  0
  1 12  2  0  0  0  0
  2 14  2  0  0  0  0
  3 22  1  0  0  0  0
  3 23  1  0  0  0  0
  4  6  1  0  0  0  0
  4  7  1  0  0  0  0
  4 11  1  0  0  0  0
  4 24  1  6  0  0  0
  5  7  1  0  0  0  0
  5  8  1  0  0  0  0
  5  9  1  0  0  0  0
  5 25  1  6  0  0  0
  6 10  1  0  0  0  0
  6 12  1  0  0  0  0
  6 17  1  1  0  0  0
  7 14  1  0  0  0  0
  7 26  1  1  0  0  0
  8 15  1  0  0  0  0
  8 16  1  0  0  0  0
  8 18  1  1  0  0  0
  9 10  1  0  0  0  0
  9 27  1  0  0  0  0
  9 28  1  0  0  0  0
 10 29  1  0  0  0  0
 10 30  1  0  0  0  0
 11 13  1  0  0  0  0
 11 31  1  0  0  0  0
 11 32  1  0  0  0  0
 12 13  1  0  0  0  0
 13 33  1  0  0  0  0
 13 34  1  0  0  0  0
 14 19  1  0  0  0  0
 15 19  2  0  0  0  0
 15 21  1  0  0  0  0
 16 20  1  0  0  0  0
 16 35  1  0  0  0  0
 16 36  1  0  0  0  0
 17 37  1  0  0  0  0
 17 38  1  0  0  0  0
 17 39  1  0  0  0  0
 18 40  1  0  0  0  0
 18 41  1  0  0  0  0
 18 42  1  0  0  0  0
 19 43  1  0  0  0  0
 20 22  1  0  0  0  0
 20 44  1  0  0  0  0
 20 45  1  0  0  0  0
 21 22  2  0  0  0  0
 21 46  1  0  0  0  0
 23 47  1  0  0  0  0
 23 48  1  0  0  0  0
 23 49  1  0  0  0  0
M  END
> <PUBCHEM_COMPOUND_CID>
232772

> <PUBCHEM_COMPOUND_CANONICALIZED>
1

> <PUBCHEM_CACTVS_COMPLEXITY>
643

> <PUBCHEM_CACTVS_HBOND_ACCEPTOR>
3

> <PUBCHEM_CACTVS_HBOND_DONOR>
0

> <PUBCHEM_CACTVS_ROTATABLE_BOND>
1

> <PUBCHEM_CACTVS_SUBSKEYS>
AAADceB4MAAAAAAAAAAAAAAAAAAAAYAAAAAwQIAAAAAAAGCAAAAAGgAAAAAADwSAgAICAAAABACIAqBSAAAACAAgIAAACAEAAEgIABIAAQAAAAAEgAAIgQOIyvCvgAAAAAAAAACAAAQAACAAAAAACAAAAA==

> <PUBCHEM_IUPAC_OPENEYE_NAME>
(8R,9S,10R,13S,14S)-3-methoxy-10,13-dimethyl-2,8,9,11,12,14,15,16-octahydro-1H-cyclopenta[a]phenanthrene-7,17-dione

> <PUBCHEM_IUPAC_CAS_NAME>
(8R,9S,10R,13S,14S)-3-methoxy-10,13-dimethyl-2,8,9,11,12,14,15,16-octahydro-1H-cyclopenta[a]phenanthrene-7,17-dione

> <PUBCHEM_IUPAC_NAME>
(8R,9S,10R,13S,14S)-3-methoxy-10,13-dimethyl-2,8,9,11,12,14,15,16-octahydro-1H-cyclopenta[a]phenanthrene-7,17-dione

> <PUBCHEM_IUPAC_SYSTEMATIC_NAME>
(8R,9S,10R,13S,14S)-3-methoxy-10,13-dimethyl-2,8,9,11,12,14,15,16-octahydro-1H-cyclopenta[a]phenanthrene-7,17-dione

> <PUBCHEM_IUPAC_TRADITIONAL_NAME>
(8R,9S,10R,13S,14S)-3-methoxy-10,13-dimethyl-2,8,9,11,12,14,15,16-octahydro-1H-cyclopenta[a]phenanthrene-7,17-quinone

> <PUBCHEM_IUPAC_INCHI>
InChI=1S/C20H26O3/c1-19-8-6-13(23-3)10-12(19)11-16(21)18-14-4-5-17(22)20(14,2)9-7-15(18)19/h10-11,14-15,18H,4-9H2,1-3H3/t14-,15-,18-,19-,20-/m0/s1

> <PUBCHEM_IUPAC_INCHIKEY>
AUFJJDNCJZQOKS-ZESOOZHZSA-N

> <PUBCHEM_XLOGP3_AA>
2.7

> <PUBCHEM_EXACT_MASS>
314.188195

> <PUBCHEM_MOLECULAR_FORMULA>
C20H26O3

> <PUBCHEM_MOLECULAR_WEIGHT>
314.41864

> <PUBCHEM_OPENEYE_CAN_SMILES>
CC12CCC3C(C1CCC2=O)C(=O)C=C4C3(CCC(=C4)OC)C

> <PUBCHEM_OPENEYE_ISO_SMILES>
C[C@]12CC[C@H]3[C@H]([C@@H]1CCC2=O)C(=O)C=C4[C@@]3(CCC(=C4)OC)C

> <PUBCHEM_CACTVS_TPSA>
43.4

> <PUBCHEM_MONOISOTOPIC_WEIGHT>
314.188195

> <PUBCHEM_TOTAL_CHARGE>
0

> <PUBCHEM_HEAVY_ATOM_COUNT>
23

> <PUBCHEM_ATOM_DEF_STEREO_COUNT>
5

> <PUBCHEM_ATOM_UDEF_STEREO_COUNT>
0

> <PUBCHEM_BOND_DEF_STEREO_COUNT>
0

> <PUBCHEM_BOND_UDEF_STEREO_COUNT>
0

> <PUBCHEM_ISOTOPIC_ATOM_COUNT>
0

> <PUBCHEM_COMPONENT_COUNT>
1

> <PUBCHEM_CACTVS_TAUTO_COUNT>
14

> <PUBCHEM_COORDINATE_TYPE>
1
5
255

> <PUBCHEM_BONDANNOTATIONS>
4  24  6
5  25  6
6  17  5
7  26  5
8  18  5

$$$$

