442199
  -OEChem-07051212572D

 37 40  0     1  0  0  0  0  0999 V2000
    4.5278    1.7049    0.0000 O   0  0  0  0  0  0  0  0  0  0  0  0
    5.7581    1.9369    0.0000 O   0  0  0  0  0  0  0  0  0  0  0  0
    4.5295   -2.1223    0.0000 O   0  0  0  0  0  0  0  0  0  0  0  0
    3.7381   -3.6937    0.0000 O   0  0  0  0  0  0  0  0  0  0  0  0
    4.6346    0.5281    0.0000 C   0  0  2  0  0  0  0  0  0  0  0  0
    4.8465   -0.4295    0.0000 C   0  0  0  0  0  0  0  0  0  0  0  0
    5.1346    2.7187    0.0000 C   0  0  2  0  0  0  0  0  0  0  0  0
    3.7337    0.9620    0.0000 C   0  0  0  0  0  0  0  0  0  0  0  0
    4.2319   -1.1939    0.0000 C   0  0  2  0  0  0  0  0  0  0  0  0
    5.5356    0.9620    0.0000 C   0  0  0  0  0  0  0  0  0  0  0  0
    3.2511   -1.1926    0.0000 C   0  0  2  0  0  0  0  0  0  0  0  0
    4.1346    2.7187    0.0000 C   0  0  0  0  0  0  0  0  0  0  0  0
    3.5112    1.9369    0.0000 C   0  0  0  0  0  0  0  0  0  0  0  0
    2.6385   -0.4266    0.0000 C   0  0  0  0  0  0  0  0  0  0  0  0
    2.8529    0.5305    0.0000 C   0  0  0  0  0  0  0  0  0  0  0  0
    5.3572    3.6937    0.0000 C   0  0  0  0  0  0  0  0  0  0  0  0
    2.9509   -2.1202    0.0000 C   0  0  0  0  0  0  0  0  0  0  0  0
    3.7394   -2.6937    0.0000 C   0  0  0  0  0  0  0  0  0  0  0  0
    2.0000   -2.4296    0.0000 C   0  0  0  0  0  0  0  0  0  0  0  0
    5.2306   -0.9162    0.0000 H   0  0  0  0  0  0  0  0  0  0  0  0
    5.4066   -0.1638    0.0000 H   0  0  0  0  0  0  0  0  0  0  0  0
    5.0676   -1.3490    0.0000 H   0  0  0  0  0  0  0  0  0  0  0  0
    5.6736    0.3575    0.0000 H   0  0  0  0  0  0  0  0  0  0  0  0
    6.1556    0.9620    0.0000 H   0  0  0  0  0  0  0  0  0  0  0  0
    2.4149   -1.3454    0.0000 H   0  0  0  0  0  0  0  0  0  0  0  0
    4.2726    3.3232    0.0000 H   0  0  0  0  0  0  0  0  0  0  0  0
    3.5760    2.9878    0.0000 H   0  0  0  0  0  0  0  0  0  0  0  0
    3.1246    2.4216    0.0000 H   0  0  0  0  0  0  0  0  0  0  0  0
    2.9526    1.6679    0.0000 H   0  0  0  0  0  0  0  0  0  0  0  0
    2.0791   -0.1593    0.0000 H   0  0  0  0  0  0  0  0  0  0  0  0
    2.2530   -0.9122    0.0000 H   0  0  0  0  0  0  0  0  0  0  0  0
    2.3661    0.9144    0.0000 H   0  0  0  0  0  0  0  0  0  0  0  0
    5.9616    3.5557    0.0000 H   0  0  0  0  0  0  0  0  0  0  0  0
    5.4951    4.2981    0.0000 H   0  0  0  0  0  0  0  0  0  0  0  0
    4.7527    3.8316    0.0000 H   0  0  0  0  0  0  0  0  0  0  0  0
    1.5391   -2.0149    0.0000 H   0  0  0  0  0  0  0  0  0  0  0  0
    1.8713   -3.0361    0.0000 H   0  0  0  0  0  0  0  0  0  0  0  0
  1  5  1  0  0  0  0
  1  7  1  0  0  0  0
  2  7  1  0  0  0  0
  2 10  1  0  0  0  0
  3  9  1  0  0  0  0
  3 18  1  0  0  0  0
  4 18  2  0  0  0  0
  5  6  1  6  0  0  0
  5  8  1  0  0  0  0
  5 10  1  0  0  0  0
  6  9  1  0  0  0  0
  6 20  1  0  0  0  0
  6 21  1  0  0  0  0
  7 12  1  0  0  0  0
  7 16  1  6  0  0  0
  8 13  1  0  0  0  0
  8 15  2  0  0  0  0
  9 11  1  0  0  0  0
  9 22  1  6  0  0  0
 10 23  1  0  0  0  0
 10 24  1  0  0  0  0
 11 14  1  0  0  0  0
 11 17  1  0  0  0  0
 11 25  1  6  0  0  0
 12 13  1  0  0  0  0
 12 26  1  0  0  0  0
 12 27  1  0  0  0  0
 13 28  1  0  0  0  0
 13 29  1  0  0  0  0
 14 15  1  0  0  0  0
 14 30  1  0  0  0  0
 14 31  1  0  0  0  0
 15 32  1  0  0  0  0
 16 33  1  0  0  0  0
 16 34  1  0  0  0  0
 16 35  1  0  0  0  0
 17 18  1  0  0  0  0
 17 19  2  0  0  0  0
 19 36  1  0  0  0  0
 19 37  1  0  0  0  0
M  END
> <PUBCHEM_COMPOUND_CID>
442199

> <PUBCHEM_COMPOUND_CANONICALIZED>
1

> <PUBCHEM_CACTVS_COMPLEXITY>
508

> <PUBCHEM_CACTVS_HBOND_ACCEPTOR>
4

> <PUBCHEM_CACTVS_HBOND_DONOR>
0

> <PUBCHEM_CACTVS_ROTATABLE_BOND>
0

> <PUBCHEM_CACTVS_SUBSKEYS>
AAADceBwOAAAAAAAAAAAAAAAAAAAASJAAAAkAAAABIgAAACAAAAAGgAAAAAADVSggAICCAAABACIAiDSCAAAAAAgAAAACAEAAEgRBBIAIQAiEAAFwAAOIIPK6PyOAAAAAAAAAAAAAAAAAAAAAAAAAAAAAA==

> <PUBCHEM_IUPAC_INCHI>
InChI=1S/C15H18O4/c1-9-11-4-3-10-5-6-14(2)17-8-15(10,19-14)7-12(11)18-13(9)16/h3,11-12H,1,4-8H2,2H3/t11-,12-,14+,15+/m1/s1

> <PUBCHEM_IUPAC_INCHIKEY>
QOWDVJAIJZLWBJ-UXOAXIEHSA-N

> <PUBCHEM_XLOGP3_AA>
1.3

> <PUBCHEM_EXACT_MASS>
262.120509

> <PUBCHEM_MOLECULAR_FORMULA>
C15H18O4

> <PUBCHEM_MOLECULAR_WEIGHT>
262.30102

> <PUBCHEM_OPENEYE_CAN_SMILES>
CC12CCC3=CCC4C(CC3(O1)CO2)OC(=O)C4=C

> <PUBCHEM_OPENEYE_ISO_SMILES>
C[C@@]12CCC3=CC[C@H]4[C@@H](C[C@]3(O1)CO2)OC(=O)C4=C

> <PUBCHEM_CACTVS_TPSA>
44.8

> <PUBCHEM_MONOISOTOPIC_WEIGHT>
262.120509

> <PUBCHEM_TOTAL_CHARGE>
0

> <PUBCHEM_HEAVY_ATOM_COUNT>
19

> <PUBCHEM_ATOM_DEF_STEREO_COUNT>
4

> <PUBCHEM_ATOM_UDEF_STEREO_COUNT>
0

> <PUBCHEM_BOND_DEF_STEREO_COUNT>
0

> <PUBCHEM_BOND_UDEF_STEREO_COUNT>
0

> <PUBCHEM_ISOTOPIC_ATOM_COUNT>
0

> <PUBCHEM_COMPONENT_COUNT>
1

> <PUBCHEM_CACTVS_TAUTO_COUNT>
1

> <PUBCHEM_COORDINATE_TYPE>
1
5
255

> <PUBCHEM_BONDANNOTATIONS>
11  25  6
5  6  6
7  16  6
9  22  6

$$$$

