5281751
  -OEChem-07051212593D

 55 62  0     0  0  0  0  0  0999 V2000
   -2.3437    4.1416   -0.0836 O   0  0  0  0  0  0  0  0  0  0  0  0
    2.6372   -4.0757    0.0121 O   0  0  0  0  0  0  0  0  0  0  0  0
   -4.5506    2.9307   -0.1701 O   0  0  0  0  0  0  0  0  0  0  0  0
    3.8276    3.5264   -0.0373 O   0  0  0  0  0  0  0  0  0  0  0  0
    4.9401    1.6793    0.2196 O   0  0  0  0  0  0  0  0  0  0  0  0
    0.5426   -5.4736   -0.0349 O   0  0  0  0  0  0  0  0  0  0  0  0
   -0.2493    5.5396   -0.0272 O   0  0  0  0  0  0  0  0  0  0  0  0
    4.8445   -2.8646    0.0853 O   0  0  0  0  0  0  0  0  0  0  0  0
   -5.4538   -1.1793    1.4113 O   0  0  0  0  0  0  0  0  0  0  0  0
   -0.2204    0.6385   -0.0444 C   0  0  0  0  0  0  0  0  0  0  0  0
    0.5137   -0.5726   -0.0295 C   0  0  0  0  0  0  0  0  0  0  0  0
   -1.6405    0.5992   -0.0841 C   0  0  0  0  0  0  0  0  0  0  0  0
   -0.1778   -1.8140   -0.0544 C   0  0  0  0  0  0  0  0  0  0  0  0
    0.4711    1.8799   -0.0196 C   0  0  0  0  0  0  0  0  0  0  0  0
    1.9339   -0.5333    0.0099 C   0  0  0  0  0  0  0  0  0  0  0  0
   -2.3357   -0.6380   -0.1093 C   0  0  0  0  0  0  0  0  0  0  0  0
   -1.5959   -1.8586   -0.0941 C   0  0  0  0  0  0  0  0  0  0  0  0
    1.8893    1.9244    0.0197 C   0  0  0  0  0  0  0  0  0  0  0  0
    2.6290    0.7039    0.0344 C   0  0  0  0  0  0  0  0  0  0  0  0
   -2.4002    1.7919   -0.0995 C   0  0  0  0  0  0  0  0  0  0  0  0
    0.5282   -3.0393   -0.0402 C   0  0  0  0  0  0  0  0  0  0  0  0
   -0.2349    3.1052   -0.0332 C   0  0  0  0  0  0  0  0  0  0  0  0
    2.6935   -1.7260    0.0259 C   0  0  0  0  0  0  0  0  0  0  0  0
   -3.7559   -0.5974   -0.1490 C   0  0  0  0  0  0  0  0  0  0  0  0
   -2.2166   -3.1370   -0.1168 C   0  0  0  0  0  0  0  0  0  0  0  0
   -1.7095    3.0950   -0.0736 C   0  0  0  0  0  0  0  0  0  0  0  0
    2.0027   -3.0292    0.0011 C   0  0  0  0  0  0  0  0  0  0  0  0
   -3.7974    1.7959   -0.1387 C   0  0  0  0  0  0  0  0  0  0  0  0
    2.5099    3.2029    0.0431 C   0  0  0  0  0  0  0  0  0  0  0  0
    4.0493    0.6633    0.0732 C   0  0  0  0  0  0  0  0  0  0  0  0
   -0.1144   -4.2804   -0.0636 C   0  0  0  0  0  0  0  0  0  0  0  0
    0.4076    4.3463   -0.0097 C   0  0  0  0  0  0  0  0  0  0  0  0
    4.0907   -1.7299    0.0644 C   0  0  0  0  0  0  0  0  0  0  0  0
   -4.4750    0.5944   -0.1635 C   0  0  0  0  0  0  0  0  0  0  0  0
   -1.4926   -4.3259   -0.1022 C   0  0  0  0  0  0  0  0  0  0  0  0
    1.7859    4.3919    0.0286 C   0  0  0  0  0  0  0  0  0  0  0  0
    4.7684   -0.5286    0.0879 C   0  0  0  0  0  0  0  0  0  0  0  0
   -4.7175   -1.6623    0.2993 C   0  0  0  0  0  0  0  0  0  0  0  0
   -3.5836   -3.4845   -0.6372 C   0  0  0  0  0  0  0  0  0  0  0  0
   -5.5637    0.6043   -0.1836 H   0  0  0  0  0  0  0  0  0  0  0  0
   -1.9883   -5.2943   -0.1475 H   0  0  0  0  0  0  0  0  0  0  0  0
    2.2698    5.3667    0.0274 H   0  0  0  0  0  0  0  0  0  0  0  0
    5.8556   -0.5249    0.1352 H   0  0  0  0  0  0  0  0  0  0  0  0
   -5.4505   -1.9867   -0.4432 H   0  0  0  0  0  0  0  0  0  0  0  0
   -4.2010   -2.3716    0.9289 H   0  0  0  0  0  0  0  0  0  0  0  0
   -4.2811   -3.9591    0.0647 H   0  0  0  0  0  0  0  0  0  0  0  0
   -3.9466   -2.8048   -1.4150 H   0  0  0  0  0  0  0  0  0  0  0  0
   -3.4563   -4.3370   -1.3350 H   0  0  0  0  0  0  0  0  0  0  0  0
   -5.4952    2.7019   -0.1988 H   0  0  0  0  0  0  0  0  0  0  0  0
    4.0016    4.4707    0.1099 H   0  0  0  0  0  0  0  0  0  0  0  0
    4.6249    2.2336    0.9536 H   0  0  0  0  0  0  0  0  0  0  0  0
   -0.0972   -6.2054   -0.0530 H   0  0  0  0  0  0  0  0  0  0  0  0
   -1.2051    5.4119   -0.1127 H   0  0  0  0  0  0  0  0  0  0  0  0
    4.2867   -3.6549    0.1233 H   0  0  0  0  0  0  0  0  0  0  0  0
   -6.0897   -1.8699    1.6667 H   0  0  0  0  0  0  0  0  0  0  0  0
  1 26  2  0  0  0  0
  2 27  2  0  0  0  0
  3 28  1  0  0  0  0
  3 49  1  0  0  0  0
  4 29  1  0  0  0  0
  4 50  1  0  0  0  0
  5 30  1  0  0  0  0
  5 51  1  0  0  0  0
  6 31  1  0  0  0  0
  6 52  1  0  0  0  0
  7 32  1  0  0  0  0
  7 53  1  0  0  0  0
  8 33  1  0  0  0  0
  8 54  1  0  0  0  0
  9 38  1  0  0  0  0
  9 55  1  0  0  0  0
 10 11  1  0  0  0  0
 10 12  2  0  0  0  0
 10 14  1  0  0  0  0
 11 13  2  0  0  0  0
 11 15  1  0  0  0  0
 12 16  1  0  0  0  0
 12 20  1  0  0  0  0
 13 17  1  0  0  0  0
 13 21  1  0  0  0  0
 14 18  2  0  0  0  0
 14 22  1  0  0  0  0
 15 19  2  0  0  0  0
 15 23  1  0  0  0  0
 16 17  2  0  0  0  0
 16 24  1  0  0  0  0
 17 25  1  0  0  0  0
 18 19  1  0  0  0  0
 18 29  1  0  0  0  0
 19 30  1  0  0  0  0
 20 26  1  0  0  0  0
 20 28  2  0  0  0  0
 21 27  1  0  0  0  0
 21 31  2  0  0  0  0
 22 26  1  0  0  0  0
 22 32  2  0  0  0  0
 23 27  1  0  0  0  0
 23 33  2  0  0  0  0
 24 34  2  0  0  0  0
 24 38  1  0  0  0  0
 25 35  2  0  0  0  0
 25 39  1  0  0  0  0
 28 34  1  0  0  0  0
 29 36  2  0  0  0  0
 30 37  2  0  0  0  0
 31 35  1  0  0  0  0
 32 36  1  0  0  0  0
 33 37  1  0  0  0  0
 34 40  1  0  0  0  0
 35 41  1  0  0  0  0
 36 42  1  0  0  0  0
 37 43  1  0  0  0  0
 38 44  1  0  0  0  0
 38 45  1  0  0  0  0
 39 46  1  0  0  0  0
 39 47  1  0  0  0  0
 39 48  1  0  0  0  0
M  END
> <PUBCHEM_COMPOUND_CID>
5281751

> <PUBCHEM_CONFORMER_RMSD>
0.8

> <PUBCHEM_CONFORMER_DIVERSEORDER>
1

> <PUBCHEM_MMFF94_PARTIAL_CHARGES>
40
1 -0.57
2 -0.57
20 0.09
21 0.09
22 0.09
23 0.09
24 -0.14
25 -0.14
26 0.4
27 0.4
28 0.08
29 0.08
3 -0.53
30 0.08
31 0.08
32 0.08
33 0.08
34 -0.15
35 -0.15
36 -0.15
37 -0.15
38 0.42
39 0.14
4 -0.53
40 0.15
41 0.15
42 0.15
43 0.15
49 0.45
5 -0.53
50 0.45
51 0.45
52 0.45
53 0.45
54 0.45
55 0.4
6 -0.53
7 -0.53
8 -0.53
9 -0.68

> <PUBCHEM_EFFECTIVE_ROTOR_COUNT>
1

> <PUBCHEM_PHARMACOPHORE_FEATURES>
18
1 1 acceptor
1 2 acceptor
1 3 donor
1 4 donor
1 5 donor
1 6 donor
1 7 donor
1 8 donor
1 9 acceptor
1 9 donor
6 10 11 12 13 16 17 rings
6 10 11 14 15 18 19 rings
6 10 12 14 20 22 26 rings
6 11 13 15 21 23 27 rings
6 12 16 20 24 28 34 rings
6 13 17 21 25 31 35 rings
6 14 18 22 29 32 36 rings
6 15 19 23 30 33 37 rings

> <PUBCHEM_HEAVY_ATOM_COUNT>
39

> <PUBCHEM_ATOM_DEF_STEREO_COUNT>
0

> <PUBCHEM_ATOM_UDEF_STEREO_COUNT>
0

> <PUBCHEM_BOND_DEF_STEREO_COUNT>
0

> <PUBCHEM_BOND_UDEF_STEREO_COUNT>
0

> <PUBCHEM_ISOTOPIC_ATOM_COUNT>
0

> <PUBCHEM_COMPONENT_COUNT>
1

> <PUBCHEM_CACTVS_TAUTO_COUNT>
978

> <PUBCHEM_CONFORMER_ID>
005097D700000001

> <PUBCHEM_MMFF94_ENERGY>
255.5018

> <PUBCHEM_FEATURE_SELFOVERLAP>
91.735

> <PUBCHEM_SHAPE_FINGERPRINT>
10411042 1 18410855503194574387
10675989 125 18051988205423494461
10967382 1 18338517443396348022
1100329 8 18194401091384380954
11513181 2 17394438109831359598
13140716 1 18409164424182350387
138480 1 17762058039696824735
144659 178 18412257367908887364
14790565 3 18410570720981639405
15320467 1 18194684761089347318
15927050 60 17977096855965746765
16112460 7 18190442888558921289
19591789 44 18410856585420142861
19930381 70 18339364183324415017
20764821 26 18411420639180178950
20775438 99 17324693957188498999
21796203 349 17981849086986675043
22311459 1 15744726297896914524
23559900 14 18266466596804919600
350125 39 18267019462164703737
3882209 13 17687792321785324374
463206 1 18339921622808402300

> <PUBCHEM_SHAPE_MULTIPOLES>
749.78
8.66
7.94
0.65
1.06
0.22
-0.04
-0.18
-0.76
-1.15
0.29
0.3
-0.02
-0.2

> <PUBCHEM_SHAPE_SELFOVERLAP>
1813.053

> <PUBCHEM_SHAPE_VOLUME>
362.2

> <PUBCHEM_COORDINATE_TYPE>
2
5
10

$$$$

