442173
  -OEChem-07051212573D

 39 41  0     1  0  0  0  0  0999 V2000
    3.5048   -0.3621   -0.2673 O   0  0  0  0  0  0  0  0  0  0  0  0
    2.1266   -2.1625   -0.4607 O   0  0  0  0  0  0  0  0  0  0  0  0
   -1.1459   -0.2070   -0.7878 C   0  0  2  0  0  0  0  0  0  0  0  0
   -0.8934   -1.2088    0.3673 C   0  0  1  0  0  0  0  0  0  0  0  0
    1.1701    0.0165    0.0968 C   0  0  2  0  0  0  0  0  0  0  0  0
    0.2959    0.2504   -1.1559 C   0  0  0  0  0  0  0  0  0  0  0  0
    0.2422   -0.5642    1.1735 C   0  0  0  0  0  0  0  0  0  0  0  0
   -2.0141    1.0086   -0.3143 C   0  0  2  0  0  0  0  0  0  0  0  0
   -2.1267   -1.5515    1.2015 C   0  0  0  0  0  0  0  0  0  0  0  0
   -3.2698    0.5650    0.4556 C   0  0  0  0  0  0  0  0  0  0  0  0
   -2.9272   -0.3321    1.6370 C   0  0  0  0  0  0  0  0  0  0  0  0
   -1.7877   -0.9331   -1.9845 C   0  0  0  0  0  0  0  0  0  0  0  0
    1.9912    1.2070    0.4896 C   0  0  0  0  0  0  0  0  0  0  0  0
    2.2841   -0.9706   -0.2317 C   0  0  0  0  0  0  0  0  0  0  0  0
   -2.4339    1.9560   -1.4472 C   0  0  0  0  0  0  0  0  0  0  0  0
    3.3796    1.0319    0.0026 C   0  0  0  0  0  0  0  0  0  0  0  0
    1.6042    2.2566    1.2256 C   0  0  0  0  0  0  0  0  0  0  0  0
   -0.5103   -2.1532   -0.0446 H   0  0  0  0  0  0  0  0  0  0  0  0
    0.3163    1.2972   -1.4769 H   0  0  0  0  0  0  0  0  0  0  0  0
    0.6761   -0.3336   -2.0044 H   0  0  0  0  0  0  0  0  0  0  0  0
   -0.1452    0.2095    1.8424 H   0  0  0  0  0  0  0  0  0  0  0  0
    0.7394   -1.3108    1.8040 H   0  0  0  0  0  0  0  0  0  0  0  0
   -1.4121    1.6095    0.3796 H   0  0  0  0  0  0  0  0  0  0  0  0
   -1.8316   -2.1300    2.0850 H   0  0  0  0  0  0  0  0  0  0  0  0
   -2.7814   -2.2038    0.6095 H   0  0  0  0  0  0  0  0  0  0  0  0
   -3.9633    0.0407   -0.2129 H   0  0  0  0  0  0  0  0  0  0  0  0
   -3.8060    1.4469    0.8275 H   0  0  0  0  0  0  0  0  0  0  0  0
   -3.8515   -0.6595    2.1270 H   0  0  0  0  0  0  0  0  0  0  0  0
   -2.3663    0.2407    2.3844 H   0  0  0  0  0  0  0  0  0  0  0  0
   -2.8082   -1.2599   -1.7634 H   0  0  0  0  0  0  0  0  0  0  0  0
   -1.8186   -0.2937   -2.8728 H   0  0  0  0  0  0  0  0  0  0  0  0
   -1.2138   -1.8263   -2.2581 H   0  0  0  0  0  0  0  0  0  0  0  0
   -1.5769    2.2918   -2.0373 H   0  0  0  0  0  0  0  0  0  0  0  0
   -3.1534    1.4853   -2.1249 H   0  0  0  0  0  0  0  0  0  0  0  0
   -2.9147    2.8500   -1.0343 H   0  0  0  0  0  0  0  0  0  0  0  0
    3.5583    1.5818   -0.9266 H   0  0  0  0  0  0  0  0  0  0  0  0
    4.1278    1.3128    0.7496 H   0  0  0  0  0  0  0  0  0  0  0  0
    0.5888    2.3580    1.5893 H   0  0  0  0  0  0  0  0  0  0  0  0
    2.3014    3.0510    1.4717 H   0  0  0  0  0  0  0  0  0  0  0  0
  1 14  1  0  0  0  0
  1 16  1  0  0  0  0
  2 14  2  0  0  0  0
  3  4  1  0  0  0  0
  3  6  1  0  0  0  0
  3  8  1  0  0  0  0
  3 12  1  0  0  0  0
  4  7  1  0  0  0  0
  4  9  1  0  0  0  0
  4 18  1  0  0  0  0
  5  6  1  0  0  0  0
  5  7  1  0  0  0  0
  5 13  1  0  0  0  0
  5 14  1  0  0  0  0
  6 19  1  0  0  0  0
  6 20  1  0  0  0  0
  7 21  1  0  0  0  0
  7 22  1  0  0  0  0
  8 10  1  0  0  0  0
  8 15  1  0  0  0  0
  8 23  1  0  0  0  0
  9 11  1  0  0  0  0
  9 24  1  0  0  0  0
  9 25  1  0  0  0  0
 10 11  1  0  0  0  0
 10 26  1  0  0  0  0
 10 27  1  0  0  0  0
 11 28  1  0  0  0  0
 11 29  1  0  0  0  0
 12 30  1  0  0  0  0
 12 31  1  0  0  0  0
 12 32  1  0  0  0  0
 13 16  1  0  0  0  0
 13 17  2  0  0  0  0
 15 33  1  0  0  0  0
 15 34  1  0  0  0  0
 15 35  1  0  0  0  0
 16 36  1  0  0  0  0
 16 37  1  0  0  0  0
 17 38  1  0  0  0  0
 17 39  1  0  0  0  0
M  END
> <PUBCHEM_COMPOUND_CID>
442173

> <PUBCHEM_CONFORMER_RMSD>
0.6

> <PUBCHEM_CONFORMER_DIVERSEORDER>
1
2
3
4

> <PUBCHEM_MMFF94_PARTIAL_CHARGES>
9
1 -0.43
13 -0.28
14 0.66
16 0.42
17 -0.3
2 -0.57
38 0.15
39 0.15
5 0.2

> <PUBCHEM_EFFECTIVE_ROTOR_COUNT>
1.6

> <PUBCHEM_PHARMACOPHORE_FEATURES>
4
1 2 acceptor
5 1 5 13 14 16 rings
5 3 4 5 6 7 rings
6 3 4 8 9 10 11 rings

> <PUBCHEM_HEAVY_ATOM_COUNT>
17

> <PUBCHEM_ATOM_DEF_STEREO_COUNT>
4

> <PUBCHEM_ATOM_UDEF_STEREO_COUNT>
0

> <PUBCHEM_BOND_DEF_STEREO_COUNT>
0

> <PUBCHEM_BOND_UDEF_STEREO_COUNT>
0

> <PUBCHEM_ISOTOPIC_ATOM_COUNT>
0

> <PUBCHEM_COMPONENT_COUNT>
1

> <PUBCHEM_CACTVS_TAUTO_COUNT>
1

> <PUBCHEM_CONFORMER_ID>
0006BF3D00000001

> <PUBCHEM_MMFF94_ENERGY>
44.7127

> <PUBCHEM_FEATURE_SELFOVERLAP>
20.458

> <PUBCHEM_SHAPE_FINGERPRINT>
10366900 7 18341609278799633369
10608611 8 18343021094700768436
11031198 65 18408876326719490652
11132069 177 17132109135068479803
12423570 1 15589636527734611075
12491281 212 18114184150532567621
12808571 1 17603860118098968369
12932764 1 18260830371525870924
13024252 1 17846504712298782575
13294875 104 17336507431760023837
13380536 127 15554455093070957158
13538477 17 16588301644532045091
13764800 53 17775574151833594853
15219456 202 18341608218180146490
15309172 13 17822001025900019999
15775835 57 18040996206885581893
15852999 172 16341212867715066831
16752209 62 16128390224717100331
16945 1 18041007283738035540
17844478 74 18201710739296591641
18186145 218 17822853070561181336
18981168 100 17774455965450463533
19049666 15 18270681011952242920
20525323 117 13973970921350292143
20645476 183 16805312280560685303
21501502 16 18334864870174801710
21524375 3 17910694368574457301
22802520 49 18270962452790917212
23175994 123 18118956125792396590
23419403 2 14462275348226408083
23526113 38 18195534924196247550
25 1 18338520866585587684
2748010 2 18131072683542216887
598444 67 18200304558698614257
6049 1 18342449357265124748
6992083 37 17530964721664582092
74978 22 16950567644782541064
77492 1 16660362601692733650
81228 2 17775281626132592707

> <PUBCHEM_SHAPE_MULTIPOLES>
338.11
5.21
1.97
1.57
1.44
0.34
-0.18
0.7
0.48
0.17
0.04
-1.09
0.01
1.07

> <PUBCHEM_SHAPE_SELFOVERLAP>
720.7

> <PUBCHEM_SHAPE_VOLUME>
191.1

> <PUBCHEM_COORDINATE_TYPE>
2
5
10

$$$$

