5281332
  -OEChem-07051212563D

 57 59  0     0  0  0  0  0  0999 V2000
    0.3909   -2.3465   -0.1658 O   0  0  0  0  0  0  0  0  0  0  0  0
   -4.3370    0.2667   -1.3069 O   0  0  0  0  0  0  0  0  0  0  0  0
   -4.2265   -2.1996    2.7674 O   0  0  0  0  0  0  0  0  0  0  0  0
    4.9060   -3.8122   -1.0406 O   0  0  0  0  0  0  0  0  0  0  0  0
   -2.2337   -0.4799   -0.4277 C   0  0  0  0  0  0  0  0  0  0  0  0
   -1.5253    0.1528   -1.5996 C   0  0  0  0  0  0  0  0  0  0  0  0
   -1.5105   -1.1457    0.5539 C   0  0  0  0  0  0  0  0  0  0  0  0
   -0.0707   -1.2549    0.4899 C   0  0  0  0  0  0  0  0  0  0  0  0
   -0.0740    2.2528   -1.8136 C   0  0  0  0  0  0  0  0  0  0  0  0
    0.2316    3.7076   -1.5243 C   0  0  0  0  0  0  0  0  0  0  0  0
   -1.1351    1.5787   -1.3279 C   0  0  0  0  0  0  0  0  0  0  0  0
   -3.6176   -0.3840   -0.3497 C   0  0  0  0  0  0  0  0  0  0  0  0
    1.6315    3.9418   -0.9414 C   0  0  0  0  0  0  0  0  0  0  0  0
   -2.1816   -1.7247    1.6310 C   0  0  0  0  0  0  0  0  0  0  0  0
    2.1536   -1.1364    0.5639 C   0  0  0  0  0  0  0  0  0  0  0  0
    0.9572   -0.4805    0.9567 C   0  0  0  0  0  0  0  0  0  0  0  0
    1.7513   -2.2774   -0.1228 C   0  0  0  0  0  0  0  0  0  0  0  0
   -4.2888   -0.9632    0.7272 C   0  0  0  0  0  0  0  0  0  0  0  0
   -3.5707   -1.6335    1.7176 C   0  0  0  0  0  0  0  0  0  0  0  0
    0.8888    1.5683   -2.7497 C   0  0  0  0  0  0  0  0  0  0  0  0
    1.7983    3.3313    0.4228 C   0  0  0  0  0  0  0  0  0  0  0  0
    3.5300   -0.8924    0.7127 C   0  0  0  0  0  0  0  0  0  0  0  0
    2.6298   -3.2048   -0.6795 C   0  0  0  0  0  0  0  0  0  0  0  0
    1.5379    3.8877    1.6209 C   0  0  0  0  0  0  0  0  0  0  0  0
    3.9937   -2.9425   -0.5201 C   0  0  0  0  0  0  0  0  0  0  0  0
    4.4383   -1.8076    0.1632 C   0  0  0  0  0  0  0  0  0  0  0  0
    1.7286    3.2167    2.9512 C   0  0  0  0  0  0  0  0  0  0  0  0
    0.9950    5.2895    1.7058 C   0  0  0  0  0  0  0  0  0  0  0  0
   -4.7910   -0.5082   -2.4146 C   0  0  0  0  0  0  0  0  0  0  0  0
   -2.1661    0.1451   -2.4876 H   0  0  0  0  0  0  0  0  0  0  0  0
   -0.6667   -0.4625   -1.8865 H   0  0  0  0  0  0  0  0  0  0  0  0
   -0.5255    4.1278   -0.8502 H   0  0  0  0  0  0  0  0  0  0  0  0
    0.1459    4.2679   -2.4641 H   0  0  0  0  0  0  0  0  0  0  0  0
   -1.8152    2.1381   -0.6856 H   0  0  0  0  0  0  0  0  0  0  0  0
    1.8348    5.0182   -0.9111 H   0  0  0  0  0  0  0  0  0  0  0  0
    2.4056    3.5337   -1.6026 H   0  0  0  0  0  0  0  0  0  0  0  0
   -1.6318   -2.2504    2.4090 H   0  0  0  0  0  0  0  0  0  0  0  0
    0.8636    0.4389    1.5163 H   0  0  0  0  0  0  0  0  0  0  0  0
   -5.3717   -0.8886    0.7900 H   0  0  0  0  0  0  0  0  0  0  0  0
    1.2259    2.2665   -3.5244 H   0  0  0  0  0  0  0  0  0  0  0  0
    0.4484    0.7228   -3.2850 H   0  0  0  0  0  0  0  0  0  0  0  0
    1.7674    1.2124   -2.2024 H   0  0  0  0  0  0  0  0  0  0  0  0
    2.1844    2.3138    0.4162 H   0  0  0  0  0  0  0  0  0  0  0  0
    3.8896   -0.0142    1.2405 H   0  0  0  0  0  0  0  0  0  0  0  0
    2.2720   -4.0815   -1.2071 H   0  0  0  0  0  0  0  0  0  0  0  0
    5.5031   -1.6181    0.2785 H   0  0  0  0  0  0  0  0  0  0  0  0
    0.7697    3.1138    3.4690 H   0  0  0  0  0  0  0  0  0  0  0  0
    2.4065    3.8025    3.5802 H   0  0  0  0  0  0  0  0  0  0  0  0
    2.1599    2.2167    2.8399 H   0  0  0  0  0  0  0  0  0  0  0  0
    0.1013    5.3033    2.3398 H   0  0  0  0  0  0  0  0  0  0  0  0
    0.6992    5.7228    0.7482 H   0  0  0  0  0  0  0  0  0  0  0  0
    1.7415    5.9515    2.1571 H   0  0  0  0  0  0  0  0  0  0  0  0
   -5.1807   -2.0405    2.6661 H   0  0  0  0  0  0  0  0  0  0  0  0
   -5.0390    0.1740   -3.2323 H   0  0  0  0  0  0  0  0  0  0  0  0
   -5.6941   -1.0572   -2.1306 H   0  0  0  0  0  0  0  0  0  0  0  0
   -4.0288   -1.2130   -2.7628 H   0  0  0  0  0  0  0  0  0  0  0  0
    5.8011   -3.4868   -0.8437 H   0  0  0  0  0  0  0  0  0  0  0  0
  1  8  1  0  0  0  0
  1 17  1  0  0  0  0
  2 12  1  0  0  0  0
  2 29  1  0  0  0  0
  3 19  1  0  0  0  0
  3 53  1  0  0  0  0
  4 25  1  0  0  0  0
  4 57  1  0  0  0  0
  5  6  1  0  0  0  0
  5  7  2  0  0  0  0
  5 12  1  0  0  0  0
  6 11  1  0  0  0  0
  6 30  1  0  0  0  0
  6 31  1  0  0  0  0
  7  8  1  0  0  0  0
  7 14  1  0  0  0  0
  8 16  2  0  0  0  0
  9 10  1  0  0  0  0
  9 11  2  0  0  0  0
  9 20  1  0  0  0  0
 10 13  1  0  0  0  0
 10 32  1  0  0  0  0
 10 33  1  0  0  0  0
 11 34  1  0  0  0  0
 12 18  2  0  0  0  0
 13 21  1  0  0  0  0
 13 35  1  0  0  0  0
 13 36  1  0  0  0  0
 14 19  2  0  0  0  0
 14 37  1  0  0  0  0
 15 16  1  0  0  0  0
 15 17  2  0  0  0  0
 15 22  1  0  0  0  0
 16 38  1  0  0  0  0
 17 23  1  0  0  0  0
 18 19  1  0  0  0  0
 18 39  1  0  0  0  0
 20 40  1  0  0  0  0
 20 41  1  0  0  0  0
 20 42  1  0  0  0  0
 21 24  2  0  0  0  0
 21 43  1  0  0  0  0
 22 26  2  0  0  0  0
 22 44  1  0  0  0  0
 23 25  2  0  0  0  0
 23 45  1  0  0  0  0
 24 27  1  0  0  0  0
 24 28  1  0  0  0  0
 25 26  1  0  0  0  0
 26 46  1  0  0  0  0
 27 47  1  0  0  0  0
 27 48  1  0  0  0  0
 27 49  1  0  0  0  0
 28 50  1  0  0  0  0
 28 51  1  0  0  0  0
 28 52  1  0  0  0  0
 29 54  1  0  0  0  0
 29 55  1  0  0  0  0
 29 56  1  0  0  0  0
M  END
> <PUBCHEM_COMPOUND_CID>
5281332

> <PUBCHEM_CONFORMER_RMSD>
1

> <PUBCHEM_CONFORMER_DIVERSEORDER>
4
25
28
417
485
134
312
518
101
155
159
166
270
305
337
468
212
297
131
191
7
466
19
573
512
229
510
31
193
378
185
13
443
32
327
194
536
184
472
279
69
479
480
540
94
186
306
246
234
143
10
167
90
401
190
514
211
231
8
49
565
215
532
195
46
245
220
18
288
531
267
48
183
3
225
76
84
227
38
366
452
406
567
296
72
437
33
276
425
382
369
73
332
542
178
17
410
210
81
6
63
187
459
121
217
481
96
206
274
448
347
419
432
391
82
139
197
74
334
209
359
99
333
251
243
51
64
122
42
552
320
388
124
146
86
66
85
521
489
346
88
173
2
59
106
15
9
259
308
242
44
56
405
319
29
165
109
115
266
158
228
261
1
70
563
204
162
232
14
5
157
107
397
60
500
376
355
23
95
575
148
20
138
373
37

> <PUBCHEM_MMFF94_PARTIAL_CHARGES>
38
1 -0.28
10 0.14
11 -0.29
12 0.08
13 0.14
14 -0.15
16 -0.15
17 0.14
18 -0.15
19 0.08
2 -0.36
20 0.14
21 -0.29
22 -0.15
23 -0.15
24 -0.28
25 0.08
26 -0.15
27 0.14
28 0.14
29 0.28
3 -0.53
34 0.15
37 0.15
38 0.15
39 0.15
4 -0.53
43 0.15
44 0.15
45 0.15
46 0.15
5 -0.14
53 0.45
57 0.45
6 0.28
7 0.05
8 0.09
9 -0.28

> <PUBCHEM_EFFECTIVE_ROTOR_COUNT>
7

> <PUBCHEM_PHARMACOPHORE_FEATURES>
10
1 1 acceptor
1 2 acceptor
1 20 hydrophobe
1 3 donor
1 4 donor
3 24 27 28 hydrophobe
4 9 10 13 21 hydrophobe
5 1 8 15 16 17 rings
6 15 17 22 23 25 26 rings
6 5 7 12 14 18 19 rings

> <PUBCHEM_HEAVY_ATOM_COUNT>
29

> <PUBCHEM_ATOM_DEF_STEREO_COUNT>
0

> <PUBCHEM_ATOM_UDEF_STEREO_COUNT>
0

> <PUBCHEM_BOND_DEF_STEREO_COUNT>
1

> <PUBCHEM_BOND_UDEF_STEREO_COUNT>
0

> <PUBCHEM_ISOTOPIC_ATOM_COUNT>
0

> <PUBCHEM_COMPONENT_COUNT>
1

> <PUBCHEM_CACTVS_TAUTO_COUNT>
15

> <PUBCHEM_CONFORMER_ID>
0050963400000004

> <PUBCHEM_MMFF94_ENERGY>
71.7519

> <PUBCHEM_FEATURE_SELFOVERLAP>
50.866

> <PUBCHEM_SHAPE_FINGERPRINT>
10006869 2 17119454036023369957
11070050 100 17400880187023040307
11115154 58 18119548754571467693
11582403 64 16156814657358040088
11763715 3 17604149238428890763
12156800 1 17175137577908562732
12160290 23 17691980674843508522
12422481 6 17840616724448293472
12741549 16 18260554471379846603
12788726 201 17764880477692858875
12839892 36 17119716290641590843
13540713 4 17702945813120253007
14363568 33 18339349757209886176
14713325 29 17833259101872692214
150020 26 18055629521520109232
15064986 96 18126583218684412192
15324884 4 18272660000139784539
17357779 13 18270688687101388999
17974551 9 18336263526707994929
20028762 73 16038536777223114939
20600515 1 18198322139012552023
22182313 1 17773884095472623175
23557571 272 18055067924576533294
23559900 14 18059856113400980419
3380486 145 18116739420451996690
35225 105 17249470138681921168
4017518 198 17760664572809621484
469060 322 16695792319625705896
6287921 2 18194684769748126643
6823239 73 17560521711907083865
84936 31 18265055717249073789
9862522 239 17408825228123301389

> <PUBCHEM_SHAPE_MULTIPOLES>
573.33
7.9
6.39
2.6
5.8
5.99
-0.34
-7.3
-0.2
-9.57
-1.17
1.43
1.86
3.28

> <PUBCHEM_SHAPE_SELFOVERLAP>
1226.358

> <PUBCHEM_SHAPE_VOLUME>
321.3

> <PUBCHEM_COORDINATE_TYPE>
2
5
10

$$$$

