91461
  -OEChem-07051213002D

 31 32  0     1  0  0  0  0  0999 V2000
    2.0000    1.4573    0.0000 O   0  0  0  0  0  0  0  0  0  0  0  0
    3.7320   -1.5427    0.0000 N   0  0  3  0  0  0  0  0  0  0  0  0
    3.7320   -0.5427    0.0000 C   0  0  1  0  0  0  0  0  0  0  0  0
    2.8660   -0.0427    0.0000 C   0  0  1  0  0  0  0  0  0  0  0  0
    4.6260   -0.0080    0.0000 C   0  0  0  0  0  0  0  0  0  0  0  0
    2.0000   -0.5427    0.0000 C   0  0  0  0  0  0  0  0  0  0  0  0
    2.8660   -2.0427    0.0000 C   0  0  0  0  0  0  0  0  0  0  0  0
    4.6260   -2.0773    0.0000 C   0  0  0  0  0  0  0  0  0  0  0  0
    2.0000   -1.5427    0.0000 C   0  0  0  0  0  0  0  0  0  0  0  0
    5.5321   -0.5219    0.0000 C   0  0  0  0  0  0  0  0  0  0  0  0
    5.5321   -1.5635    0.0000 C   0  0  0  0  0  0  0  0  0  0  0  0
    2.8660    0.9573    0.0000 C   0  0  0  0  0  0  0  0  0  0  0  0
    3.7255    0.3073    0.0000 H   0  0  0  0  0  0  0  0  0  0  0  0
    3.4030    0.2673    0.0000 H   0  0  0  0  0  0  0  0  0  0  0  0
    5.0196    0.4710    0.0000 H   0  0  0  0  0  0  0  0  0  0  0  0
    4.2214    0.4618    0.0000 H   0  0  0  0  0  0  0  0  0  0  0  0
    1.7880    0.0399    0.0000 H   0  0  0  0  0  0  0  0  0  0  0  0
    1.3894   -0.6503    0.0000 H   0  0  0  0  0  0  0  0  0  0  0  0
    2.4675   -2.5176    0.0000 H   0  0  0  0  0  0  0  0  0  0  0  0
    3.2646   -2.5176    0.0000 H   0  0  0  0  0  0  0  0  0  0  0  0
    4.2214   -2.5471    0.0000 H   0  0  0  0  0  0  0  0  0  0  0  0
    5.0196   -2.5564    0.0000 H   0  0  0  0  0  0  0  0  0  0  0  0
    1.3894   -1.4350    0.0000 H   0  0  0  0  0  0  0  0  0  0  0  0
    1.7880   -2.1253    0.0000 H   0  0  0  0  0  0  0  0  0  0  0  0
    6.1429   -0.6279    0.0000 H   0  0  0  0  0  0  0  0  0  0  0  0
    5.7411    0.0618    0.0000 H   0  0  0  0  0  0  0  0  0  0  0  0
    5.7411   -2.1472    0.0000 H   0  0  0  0  0  0  0  0  0  0  0  0
    6.1429   -1.4574    0.0000 H   0  0  0  0  0  0  0  0  0  0  0  0
    3.4766    0.8497    0.0000 H   0  0  0  0  0  0  0  0  0  0  0  0
    3.0781    1.5399    0.0000 H   0  0  0  0  0  0  0  0  0  0  0  0
    2.0000    2.0773    0.0000 H   0  0  0  0  0  0  0  0  0  0  0  0
  1 12  1  0  0  0  0
  1 31  1  0  0  0  0
  2  3  1  0  0  0  0
  2  7  1  0  0  0  0
  2  8  1  0  0  0  0
  3  4  1  0  0  0  0
  3  5  1  0  0  0  0
  3 13  1  6  0  0  0
  4  6  1  0  0  0  0
  4 12  1  1  0  0  0
  4 14  1  0  0  0  0
  5 10  1  0  0  0  0
  5 15  1  0  0  0  0
  5 16  1  0  0  0  0
  6  9  1  0  0  0  0
  6 17  1  0  0  0  0
  6 18  1  0  0  0  0
  7  9  1  0  0  0  0
  7 19  1  0  0  0  0
  7 20  1  0  0  0  0
  8 11  1  0  0  0  0
  8 21  1  0  0  0  0
  8 22  1  0  0  0  0
  9 23  1  0  0  0  0
  9 24  1  0  0  0  0
 10 11  1  0  0  0  0
 10 25  1  0  0  0  0
 10 26  1  0  0  0  0
 11 27  1  0  0  0  0
 11 28  1  0  0  0  0
 12 29  1  0  0  0  0
 12 30  1  0  0  0  0
M  END
> <PUBCHEM_COMPOUND_CID>
91461

> <PUBCHEM_COMPOUND_CANONICALIZED>
1

> <PUBCHEM_CACTVS_COMPLEXITY>
149

> <PUBCHEM_CACTVS_HBOND_ACCEPTOR>
2

> <PUBCHEM_CACTVS_HBOND_DONOR>
1

> <PUBCHEM_CACTVS_ROTATABLE_BOND>
1

> <PUBCHEM_CACTVS_SUBSKEYS>
AAADceByIAAAAAAAAAAAAAAAAAAAAAAAAAAsWAAAAAAAAACwAAAAHgAACAAADSjhgAYAAAMAAgAAAAAAAAAAAAAAAAAAAAAIAAAAEAIAgAAEQAAGAACAAAGQ0OIOAAAAAAAAAAAAAAAAAAAAAAAAAAAAAA==

> <PUBCHEM_IUPAC_OPENEYE_NAME>
[(1R,9aR)-2,3,4,6,7,8,9,9a-octahydro-1H-quinolizin-1-yl]methanol

> <PUBCHEM_IUPAC_CAS_NAME>
[(1R,9aR)-2,3,4,6,7,8,9,9a-octahydro-1H-quinolizin-1-yl]methanol

> <PUBCHEM_IUPAC_NAME>
[(1R,9aR)-2,3,4,6,7,8,9,9a-octahydro-1H-quinolizin-1-yl]methanol

> <PUBCHEM_IUPAC_SYSTEMATIC_NAME>
[(1R,9aR)-2,3,4,6,7,8,9,9a-octahydro-1H-quinolizin-1-yl]methanol

> <PUBCHEM_IUPAC_TRADITIONAL_NAME>
[(1R,9aR)-quinolizidin-1-yl]methanol

> <PUBCHEM_IUPAC_INCHI>
InChI=1S/C10H19NO/c12-8-9-4-3-7-11-6-2-1-5-10(9)11/h9-10,12H,1-8H2/t9-,10+/m0/s1

> <PUBCHEM_IUPAC_INCHIKEY>
HDVAWXXJVMJBAR-VHSXEESVSA-N

> <PUBCHEM_XLOGP3_AA>
1.2

> <PUBCHEM_EXACT_MASS>
169.146664

> <PUBCHEM_MOLECULAR_FORMULA>
C10H19NO

> <PUBCHEM_MOLECULAR_WEIGHT>
169.26396

> <PUBCHEM_OPENEYE_CAN_SMILES>
C1CCN2CCCC(C2C1)CO

> <PUBCHEM_OPENEYE_ISO_SMILES>
C1CCN2CCC[C@H]([C@H]2C1)CO

> <PUBCHEM_CACTVS_TPSA>
23.5

> <PUBCHEM_MONOISOTOPIC_WEIGHT>
169.146664

> <PUBCHEM_TOTAL_CHARGE>
0

> <PUBCHEM_HEAVY_ATOM_COUNT>
12

> <PUBCHEM_ATOM_DEF_STEREO_COUNT>
2

> <PUBCHEM_ATOM_UDEF_STEREO_COUNT>
0

> <PUBCHEM_BOND_DEF_STEREO_COUNT>
0

> <PUBCHEM_BOND_UDEF_STEREO_COUNT>
0

> <PUBCHEM_ISOTOPIC_ATOM_COUNT>
0

> <PUBCHEM_COMPONENT_COUNT>
1

> <PUBCHEM_CACTVS_TAUTO_COUNT>
1

> <PUBCHEM_COORDINATE_TYPE>
1
5
255

> <PUBCHEM_BONDANNOTATIONS>
3  13  6
4  12  5

$$$$

