188516
  -OEChem-07051212583D

 54 57  0     0  0  0  0  0  0999 V2000
    1.1870   -0.6233    1.3630 O   0  0  0  0  0  0  0  0  0  0  0  0
   -1.1979   -0.5490   -1.4119 O   0  0  0  0  0  0  0  0  0  0  0  0
    3.5918   -1.5087    1.5292 O   0  0  0  0  0  0  0  0  0  0  0  0
   -3.6096   -1.4068   -1.6190 O   0  0  0  0  0  0  0  0  0  0  0  0
    6.4431   -2.6227    0.2530 O   0  0  0  0  0  0  0  0  0  0  0  0
   -6.8974   -1.0169   -1.8004 O   0  0  0  0  0  0  0  0  0  0  0  0
    0.6953    1.0881   -0.1945 C   0  0  0  0  0  0  0  0  0  0  0  0
   -0.6933    1.0837    0.2239 C   0  0  0  0  0  0  0  0  0  0  0  0
    2.9697    0.2407   -0.0286 C   0  0  0  0  0  0  0  0  0  0  0  0
   -2.9740    0.2628    0.0188 C   0  0  0  0  0  0  0  0  0  0  0  0
    3.3717    1.1405   -1.0441 C   0  0  0  0  0  0  0  0  0  0  0  0
   -3.3693    1.1172    1.0755 C   0  0  0  0  0  0  0  0  0  0  0  0
    1.6276    0.2270    0.3850 C   0  0  0  0  0  0  0  0  0  0  0  0
   -1.6321    0.2580   -0.3951 C   0  0  0  0  0  0  0  0  0  0  0  0
    3.9214   -0.6192    0.5435 C   0  0  0  0  0  0  0  0  0  0  0  0
   -3.9325   -0.5619   -0.5927 C   0  0  0  0  0  0  0  0  0  0  0  0
    1.0908    1.9729   -1.1933 C   0  0  0  0  0  0  0  0  0  0  0  0
   -1.0819    1.9239    1.2631 C   0  0  0  0  0  0  0  0  0  0  0  0
    5.2505   -0.5921    0.1203 C   0  0  0  0  0  0  0  0  0  0  0  0
   -5.2614   -0.5443   -0.1683 C   0  0  0  0  0  0  0  0  0  0  0  0
    5.6460    0.2930   -0.8783 C   0  0  0  0  0  0  0  0  0  0  0  0
   -5.6501    0.2961    0.8707 C   0  0  0  0  0  0  0  0  0  0  0  0
    2.4198    2.0001   -1.6163 C   0  0  0  0  0  0  0  0  0  0  0  0
   -2.4108    1.9416    1.6871 C   0  0  0  0  0  0  0  0  0  0  0  0
    4.7137    1.1542   -1.4577 C   0  0  0  0  0  0  0  0  0  0  0  0
   -4.7112    1.1219    1.4896 C   0  0  0  0  0  0  0  0  0  0  0  0
    7.0626    0.3449   -1.3519 C   0  0  0  0  0  0  0  0  0  0  0  0
   -7.0663    0.3368    1.3465 C   0  0  0  0  0  0  0  0  0  0  0  0
    6.2301   -1.4909    0.7238 C   0  0  0  0  0  0  0  0  0  0  0  0
   -6.2478   -1.4062   -0.8132 C   0  0  0  0  0  0  0  0  0  0  0  0
    7.0134   -1.0515    1.9526 C   0  0  0  0  0  0  0  0  0  0  0  0
   -6.4989   -2.8096   -0.2805 C   0  0  0  0  0  0  0  0  0  0  0  0
    0.3777    2.6510   -1.6568 H   0  0  0  0  0  0  0  0  0  0  0  0
   -0.3637    2.5739    1.7577 H   0  0  0  0  0  0  0  0  0  0  0  0
    2.7064    2.6999   -2.3986 H   0  0  0  0  0  0  0  0  0  0  0  0
   -2.6920    2.6061    2.5015 H   0  0  0  0  0  0  0  0  0  0  0  0
    5.0275    1.8452   -2.2384 H   0  0  0  0  0  0  0  0  0  0  0  0
   -5.0196    1.7774    2.3024 H   0  0  0  0  0  0  0  0  0  0  0  0
    7.7281    0.6509   -0.5381 H   0  0  0  0  0  0  0  0  0  0  0  0
    7.3784   -0.6323   -1.7319 H   0  0  0  0  0  0  0  0  0  0  0  0
    7.1942    1.0646   -2.1673 H   0  0  0  0  0  0  0  0  0  0  0  0
   -7.3623   -0.6355    1.7536 H   0  0  0  0  0  0  0  0  0  0  0  0
   -7.2091    1.0784    2.1401 H   0  0  0  0  0  0  0  0  0  0  0  0
   -7.7407    0.6087    0.5278 H   0  0  0  0  0  0  0  0  0  0  0  0
    0.2370   -0.5367    1.5325 H   0  0  0  0  0  0  0  0  0  0  0  0
   -0.2473   -0.4620   -1.5774 H   0  0  0  0  0  0  0  0  0  0  0  0
    2.6761   -1.3883    1.8193 H   0  0  0  0  0  0  0  0  0  0  0  0
   -2.6557   -1.4114   -1.7839 H   0  0  0  0  0  0  0  0  0  0  0  0
    6.7925   -1.7297    2.7806 H   0  0  0  0  0  0  0  0  0  0  0  0
    6.7304   -0.0362    2.2443 H   0  0  0  0  0  0  0  0  0  0  0  0
    8.0816   -1.0656    1.7219 H   0  0  0  0  0  0  0  0  0  0  0  0
   -7.5466   -2.8989    0.0176 H   0  0  0  0  0  0  0  0  0  0  0  0
   -5.8678   -3.0073    0.5904 H   0  0  0  0  0  0  0  0  0  0  0  0
   -6.2604   -3.5375   -1.0601 H   0  0  0  0  0  0  0  0  0  0  0  0
  1 13  1  0  0  0  0
  1 45  1  0  0  0  0
  2 14  1  0  0  0  0
  2 46  1  0  0  0  0
  3 15  1  0  0  0  0
  3 47  1  0  0  0  0
  4 16  1  0  0  0  0
  4 48  1  0  0  0  0
  5 29  2  0  0  0  0
  6 30  2  0  0  0  0
  7  8  1  0  0  0  0
  7 13  2  0  0  0  0
  7 17  1  0  0  0  0
  8 14  2  0  0  0  0
  8 18  1  0  0  0  0
  9 11  2  0  0  0  0
  9 13  1  0  0  0  0
  9 15  1  0  0  0  0
 10 12  2  0  0  0  0
 10 14  1  0  0  0  0
 10 16  1  0  0  0  0
 11 23  1  0  0  0  0
 11 25  1  0  0  0  0
 12 24  1  0  0  0  0
 12 26  1  0  0  0  0
 15 19  2  0  0  0  0
 16 20  2  0  0  0  0
 17 23  2  0  0  0  0
 17 33  1  0  0  0  0
 18 24  2  0  0  0  0
 18 34  1  0  0  0  0
 19 21  1  0  0  0  0
 19 29  1  0  0  0  0
 20 22  1  0  0  0  0
 20 30  1  0  0  0  0
 21 25  2  0  0  0  0
 21 27  1  0  0  0  0
 22 26  2  0  0  0  0
 22 28  1  0  0  0  0
 23 35  1  0  0  0  0
 24 36  1  0  0  0  0
 25 37  1  0  0  0  0
 26 38  1  0  0  0  0
 27 39  1  0  0  0  0
 27 40  1  0  0  0  0
 27 41  1  0  0  0  0
 28 42  1  0  0  0  0
 28 43  1  0  0  0  0
 28 44  1  0  0  0  0
 29 31  1  0  0  0  0
 30 32  1  0  0  0  0
 31 49  1  0  0  0  0
 31 50  1  0  0  0  0
 31 51  1  0  0  0  0
 32 52  1  0  0  0  0
 32 53  1  0  0  0  0
 32 54  1  0  0  0  0
M  END
> <PUBCHEM_COMPOUND_CID>
188516

> <PUBCHEM_CONFORMER_RMSD>
0.8

> <PUBCHEM_CONFORMER_DIVERSEORDER>
2
3
1

> <PUBCHEM_MMFF94_PARTIAL_CHARGES>
36
1 -0.53
13 0.08
14 0.08
15 0.08
16 0.08
17 -0.15
18 -0.15
19 0.09
2 -0.53
20 0.09
21 -0.14
22 -0.14
23 -0.15
24 -0.15
25 -0.15
26 -0.15
27 0.14
28 0.14
29 0.42
3 -0.53
30 0.42
31 0.06
32 0.06
33 0.15
34 0.15
35 0.15
36 0.15
37 0.15
38 0.15
4 -0.53
45 0.45
46 0.45
47 0.45
48 0.45
5 -0.57
6 -0.57

> <PUBCHEM_EFFECTIVE_ROTOR_COUNT>
3

> <PUBCHEM_PHARMACOPHORE_FEATURES>
10
1 1 donor
1 2 donor
1 3 donor
1 4 donor
1 5 acceptor
1 6 acceptor
6 10 12 16 20 22 26 rings
6 7 9 11 13 17 23 rings
6 8 10 12 14 18 24 rings
6 9 11 15 19 21 25 rings

> <PUBCHEM_HEAVY_ATOM_COUNT>
32

> <PUBCHEM_ATOM_DEF_STEREO_COUNT>
0

> <PUBCHEM_ATOM_UDEF_STEREO_COUNT>
0

> <PUBCHEM_BOND_DEF_STEREO_COUNT>
0

> <PUBCHEM_BOND_UDEF_STEREO_COUNT>
0

> <PUBCHEM_ISOTOPIC_ATOM_COUNT>
0

> <PUBCHEM_COMPONENT_COUNT>
1

> <PUBCHEM_CACTVS_TAUTO_COUNT>
996

> <PUBCHEM_CONFORMER_ID>
0002E06400000002

> <PUBCHEM_MMFF94_ENERGY>
128.3003

> <PUBCHEM_FEATURE_SELFOVERLAP>
50.824

> <PUBCHEM_SHAPE_FINGERPRINT>
10 15 15936699211572795618
10299344 5 18410569587115716927
10319926 262 17095526209795364569
10673678 19 15193563423433467678
10693767 8 18059583507468647106
11963148 33 18040155106456154967
12035758 1 15647055953761793732
12166972 35 18413106134719191461
12236239 1 18410288116434148929
13533116 47 18342735204988456824
14068700 675 18334293158462294577
14294032 229 17970328520759481585
15183329 4 18273214179405509862
15188451 53 18187370930000576189
15320294 125 18333453132164009511
15324884 4 15625076639056059284
15326921 28 17462269550898481297
15419008 47 15719386261148774528
15483637 11 17415260755543637210
1577012 14 18410847767905376076
16067689 68 17900548075643028178
18681886 176 18186798046257602868
20028762 73 18341050804835968866
21033648 29 15285630015540497889
21267235 1 18059850723364327130
21792938 703 18343010087565324090
21792961 116 16056876962576924340
22061861 79 17060618901867854900
221357 26 17346886649727401676
23081809 10 18410847759294446308
23522609 53 18194651891711049101
23559900 14 16773788152458232101
23569914 152 16194571117999256407
23569943 247 18126288773244500218
2838139 119 9079114458171754603
3004659 81 18335699408132539933
3383291 50 17822857477314393359
3418910 222 17313098623721925496
34797466 226 14764051351656313108
3504750 166 18194403518304881264
397830 11 16081096943676644736
4015057 19 17631721686934038041
4098825 35 17560806571740283461
439807 62 18270397162940695363
44880568 143 15051729794050559967
46194498 28 16056594327510580390
5080951 261 17168722920072488445
5104073 3 17531801339193477305

> <PUBCHEM_SHAPE_MULTIPOLES>
623.33
20.69
2.15
1.75
0.27
0.59
-0.1
11.57
-0.17
-0.13
0
0.06
-0.17
-4.01

> <PUBCHEM_SHAPE_SELFOVERLAP>
1404.396

> <PUBCHEM_SHAPE_VOLUME>
331.1

> <PUBCHEM_COORDINATE_TYPE>
2
5
10

$$$$

