440004
  -OEChem-07051212482D

 38 40  0     1  0  0  0  0  0999 V2000
    4.4026    0.9869    0.0000 O   0  0  0  0  0  0  0  0  0  0  0  0
    6.7485   -0.1050    0.0000 O   0  0  0  0  0  0  0  0  0  0  0  0
    6.7523    2.0706    0.0000 O   0  0  0  0  0  0  0  0  0  0  0  0
    5.3548    3.4884    0.0000 O   0  0  0  0  0  0  0  0  0  0  0  0
    4.6783   -0.7737    0.0000 N   0  0  0  0  0  0  0  0  0  0  0  0
    4.6783   -2.3832    0.0000 N   0  0  0  0  0  0  0  0  0  0  0  0
    2.8660   -0.5784    0.0000 N   0  0  0  0  0  0  0  0  0  0  0  0
    2.8660   -3.5784    0.0000 N   0  0  0  0  0  0  0  0  0  0  0  0
    2.0000   -2.0784    0.0000 N   0  0  0  0  0  0  0  0  0  0  0  0
    5.9405    0.4842    0.0000 C   0  0  1  0  0  0  0  0  0  0  0  0
    4.9889    0.1768    0.0000 C   0  0  1  0  0  0  0  0  0  0  0  0
    5.9422    1.4842    0.0000 C   0  0  1  0  0  0  0  0  0  0  0  0
    4.9917    1.7949    0.0000 C   0  0  1  0  0  0  0  0  0  0  0  0
    4.6844    2.7464    0.0000 C   0  0  0  0  0  0  0  0  0  0  0  0
    3.7320   -1.0784    0.0000 C   0  0  0  0  0  0  0  0  0  0  0  0
    5.2619   -1.5784    0.0000 C   0  0  0  0  0  0  0  0  0  0  0  0
    3.7320   -2.0784    0.0000 C   0  0  0  0  0  0  0  0  0  0  0  0
    2.8660   -2.5784    0.0000 C   0  0  0  0  0  0  0  0  0  0  0  0
    2.0000   -1.0784    0.0000 C   0  0  0  0  0  0  0  0  0  0  0  0
    2.0000   -4.0784    0.0000 C   0  0  0  0  0  0  0  0  0  0  0  0
    3.7320   -4.0784    0.0000 C   0  0  0  0  0  0  0  0  0  0  0  0
    6.4934    0.7647    0.0000 H   0  0  0  0  0  0  0  0  0  0  0  0
    5.4266   -0.2623    0.0000 H   0  0  0  0  0  0  0  0  0  0  0  0
    6.4942    1.2018    0.0000 H   0  0  0  0  0  0  0  0  0  0  0  0
    4.3795    1.8929    0.0000 H   0  0  0  0  0  0  0  0  0  0  0  0
    4.3035    3.2357    0.0000 H   0  0  0  0  0  0  0  0  0  0  0  0
    4.1364    2.4563    0.0000 H   0  0  0  0  0  0  0  0  0  0  0  0
    7.3154    0.1462    0.0000 H   0  0  0  0  0  0  0  0  0  0  0  0
    7.3182    1.8174    0.0000 H   0  0  0  0  0  0  0  0  0  0  0  0
    5.8819   -1.5784    0.0000 H   0  0  0  0  0  0  0  0  0  0  0  0
    5.1642    4.0784    0.0000 H   0  0  0  0  0  0  0  0  0  0  0  0
    1.4631   -0.7684    0.0000 H   0  0  0  0  0  0  0  0  0  0  0  0
    3.4220   -4.6154    0.0000 H   0  0  0  0  0  0  0  0  0  0  0  0
    1.6900   -3.5415    0.0000 H   0  0  0  0  0  0  0  0  0  0  0  0
    1.4631   -4.3884    0.0000 H   0  0  0  0  0  0  0  0  0  0  0  0
    2.3100   -4.6154    0.0000 H   0  0  0  0  0  0  0  0  0  0  0  0
    4.2690   -4.3884    0.0000 H   0  0  0  0  0  0  0  0  0  0  0  0
    4.0420   -3.5415    0.0000 H   0  0  0  0  0  0  0  0  0  0  0  0
  1 11  1  0  0  0  0
  1 13  1  0  0  0  0
 10  2  1  1  0  0  0
  2 28  1  0  0  0  0
 12  3  1  1  0  0  0
  3 29  1  0  0  0  0
  4 14  1  0  0  0  0
  4 31  1  0  0  0  0
 11  5  1  6  0  0  0
  5 15  1  0  0  0  0
  5 16  1  0  0  0  0
  6 16  2  0  0  0  0
  6 17  1  0  0  0  0
  7 15  1  0  0  0  0
  7 19  2  0  0  0  0
  8 18  1  0  0  0  0
  8 20  1  0  0  0  0
  8 21  1  0  0  0  0
  9 18  2  0  0  0  0
  9 19  1  0  0  0  0
 10 11  1  0  0  0  0
 10 12  1  0  0  0  0
 10 22  1  0  0  0  0
 11 23  1  0  0  0  0
 12 13  1  0  0  0  0
 12 24  1  0  0  0  0
 13 14  1  6  0  0  0
 13 25  1  0  0  0  0
 14 26  1  0  0  0  0
 14 27  1  0  0  0  0
 15 17  2  0  0  0  0
 16 30  1  0  0  0  0
 17 18  1  0  0  0  0
 19 32  1  0  0  0  0
 20 34  1  0  0  0  0
 20 35  1  0  0  0  0
 20 36  1  0  0  0  0
 21 33  1  0  0  0  0
 21 37  1  0  0  0  0
 21 38  1  0  0  0  0
M  END
> <PUBCHEM_COMPOUND_CID>
440004

> <PUBCHEM_COMPOUND_CANONICALIZED>
1

> <PUBCHEM_CACTVS_COMPLEXITY>
374

> <PUBCHEM_CACTVS_HBOND_ACCEPTOR>
8

> <PUBCHEM_CACTVS_HBOND_DONOR>
3

> <PUBCHEM_CACTVS_ROTATABLE_BOND>
3

> <PUBCHEM_CACTVS_SUBSKEYS>
AAADceBzuAAAAAAAAAAAAAAAAAAAAWJAAAAsAAAAAAAAAFgB+AAAHgAACAAACBzhlwYH8L8MFgCgAQZhZACAgC0REKABUCAoVBCDWAJAyEAeRAgPAALTACDwMAIAAAAAAAAAAAAAAAAAAAAAAAAAAAAAAA==

> <PUBCHEM_IUPAC_OPENEYE_NAME>
(2R,3R,4S,5R)-2-[6-(dimethylamino)purin-9-yl]-5-(hydroxymethyl)tetrahydrofuran-3,4-diol

> <PUBCHEM_IUPAC_CAS_NAME>
(2R,3R,4S,5R)-2-[6-(dimethylamino)-9-purinyl]-5-(hydroxymethyl)oxolane-3,4-diol

> <PUBCHEM_IUPAC_NAME>
(2R,3R,4S,5R)-2-[6-(dimethylamino)purin-9-yl]-5-(hydroxymethyl)oxolane-3,4-diol

> <PUBCHEM_IUPAC_SYSTEMATIC_NAME>
(2R,3R,4S,5R)-2-[6-(dimethylamino)purin-9-yl]-5-(hydroxymethyl)oxolane-3,4-diol

> <PUBCHEM_IUPAC_TRADITIONAL_NAME>
(2R,3R,4S,5R)-2-[6-(dimethylamino)purin-9-yl]-5-methylol-tetrahydrofuran-3,4-diol

> <PUBCHEM_IUPAC_INCHI>
InChI=1S/C12H17N5O4/c1-16(2)10-7-11(14-4-13-10)17(5-15-7)12-9(20)8(19)6(3-18)21-12/h4-6,8-9,12,18-20H,3H2,1-2H3/t6-,8-,9-,12-/m1/s1

> <PUBCHEM_IUPAC_INCHIKEY>
WVGPGNPCZPYCLK-WOUKDFQISA-N

> <PUBCHEM_XLOGP3>
-0.2

> <PUBCHEM_EXACT_MASS>
295.128054

> <PUBCHEM_MOLECULAR_FORMULA>
C12H17N5O4

> <PUBCHEM_MOLECULAR_WEIGHT>
295.29448

> <PUBCHEM_OPENEYE_CAN_SMILES>
CN(C)C1=NC=NC2=C1N=CN2C3C(C(C(O3)CO)O)O

> <PUBCHEM_OPENEYE_ISO_SMILES>
CN(C)C1=NC=NC2=C1N=CN2[C@H]3[C@@H]([C@@H]([C@H](O3)CO)O)O

> <PUBCHEM_CACTVS_TPSA>
117

> <PUBCHEM_MONOISOTOPIC_WEIGHT>
295.128054

> <PUBCHEM_TOTAL_CHARGE>
0

> <PUBCHEM_HEAVY_ATOM_COUNT>
21

> <PUBCHEM_ATOM_DEF_STEREO_COUNT>
4

> <PUBCHEM_ATOM_UDEF_STEREO_COUNT>
0

> <PUBCHEM_BOND_DEF_STEREO_COUNT>
0

> <PUBCHEM_BOND_UDEF_STEREO_COUNT>
0

> <PUBCHEM_ISOTOPIC_ATOM_COUNT>
0

> <PUBCHEM_COMPONENT_COUNT>
1

> <PUBCHEM_CACTVS_TAUTO_COUNT>
1

> <PUBCHEM_COORDINATE_TYPE>
1
5
255

> <PUBCHEM_BONDANNOTATIONS>
13  14  6
15  17  8
17  18  8
10  2  5
12  3  5
11  5  6
5  15  8
5  16  8
6  16  8
6  17  8
7  15  8
7  19  8
9  18  8
9  19  8

$$$$

