656500
  -OEChem-07051212473D

 38 38  0     1  0  0  0  0  0999 V2000
   -0.3516    2.4223    1.8729 O   0  0  0  0  0  0  0  0  0  0  0  0
    1.0265    3.8068    0.7179 O   0  0  0  0  0  0  0  0  0  0  0  0
   -2.0858    0.8209   -2.0644 O   0  0  0  0  0  0  0  0  0  0  0  0
   -0.9941    0.9600   -0.0228 N   0  0  0  0  0  0  0  0  0  0  0  0
    3.9872   -0.9983    0.4280 N   0  0  0  0  0  0  0  0  0  0  0  0
    5.6718   -1.5679   -1.1867 N   0  0  0  0  0  0  0  0  0  0  0  0
    5.7897   -2.3595    0.9474 N   0  0  0  0  0  0  0  0  0  0  0  0
    1.2652    1.2459   -0.9883 C   0  0  0  0  0  0  0  0  0  0  0  0
    0.0059    1.9142   -0.4297 C   0  0  2  0  0  0  0  0  0  0  0  0
    2.0312    0.3951    0.0317 C   0  0  0  0  0  0  0  0  0  0  0  0
    3.2920   -0.2016   -0.5845 C   0  0  0  0  0  0  0  0  0  0  0  0
    0.3073    2.8167    0.7519 C   0  0  0  0  0  0  0  0  0  0  0  0
   -1.9708    0.4866   -0.8882 C   0  0  0  0  0  0  0  0  0  0  0  0
   -2.9448   -0.4737   -0.3082 C   0  0  0  0  0  0  0  0  0  0  0  0
   -4.2071   -0.5563   -0.8581 C   0  0  0  0  0  0  0  0  0  0  0  0
   -2.5557   -1.2518    0.7623 C   0  0  0  0  0  0  0  0  0  0  0  0
    5.0779   -1.5922    0.0555 C   0  0  0  0  0  0  0  0  0  0  0  0
   -5.1216   -1.4577   -0.3132 C   0  0  0  0  0  0  0  0  0  0  0  0
   -3.4701   -2.1533    1.3071 C   0  0  0  0  0  0  0  0  0  0  0  0
   -4.7530   -2.2562    0.7693 C   0  0  0  0  0  0  0  0  0  0  0  0
    1.9373    2.0261   -1.3686 H   0  0  0  0  0  0  0  0  0  0  0  0
    0.9920    0.6181   -1.8459 H   0  0  0  0  0  0  0  0  0  0  0  0
   -0.4381    2.5513   -1.2043 H   0  0  0  0  0  0  0  0  0  0  0  0
    2.3111    1.0017    0.9013 H   0  0  0  0  0  0  0  0  0  0  0  0
    1.3899   -0.4128    0.4047 H   0  0  0  0  0  0  0  0  0  0  0  0
    3.9400    0.6088   -0.9400 H   0  0  0  0  0  0  0  0  0  0  0  0
    3.0122   -0.8303   -1.4386 H   0  0  0  0  0  0  0  0  0  0  0  0
   -0.9877    0.6750    0.9506 H   0  0  0  0  0  0  0  0  0  0  0  0
   -4.5115    0.0618   -1.6975 H   0  0  0  0  0  0  0  0  0  0  0  0
   -1.5575   -1.2305    1.1866 H   0  0  0  0  0  0  0  0  0  0  0  0
   -0.1684    3.0156    2.6322 H   0  0  0  0  0  0  0  0  0  0  0  0
   -6.1208   -1.5374   -0.7313 H   0  0  0  0  0  0  0  0  0  0  0  0
   -3.1810   -2.7815    2.1446 H   0  0  0  0  0  0  0  0  0  0  0  0
   -5.4644   -2.9594    1.1925 H   0  0  0  0  0  0  0  0  0  0  0  0
    5.2799   -1.0480   -1.9637 H   0  0  0  0  0  0  0  0  0  0  0  0
    6.5321   -2.0750   -1.3645 H   0  0  0  0  0  0  0  0  0  0  0  0
    6.6454   -2.8313    0.6764 H   0  0  0  0  0  0  0  0  0  0  0  0
    5.4774   -2.4738    1.9056 H   0  0  0  0  0  0  0  0  0  0  0  0
  1 12  1  0  0  0  0
  1 31  1  0  0  0  0
  2 12  2  0  0  0  0
  3 13  2  0  0  0  0
  4  9  1  0  0  0  0
  4 13  1  0  0  0  0
  4 28  1  0  0  0  0
  5 11  1  0  0  0  0
  5 17  2  0  0  0  0
  6 17  1  0  0  0  0
  6 35  1  0  0  0  0
  6 36  1  0  0  0  0
  7 17  1  0  0  0  0
  7 37  1  0  0  0  0
  7 38  1  0  0  0  0
  8  9  1  0  0  0  0
  8 10  1  0  0  0  0
  8 21  1  0  0  0  0
  8 22  1  0  0  0  0
  9 12  1  0  0  0  0
  9 23  1  0  0  0  0
 10 11  1  0  0  0  0
 10 24  1  0  0  0  0
 10 25  1  0  0  0  0
 11 26  1  0  0  0  0
 11 27  1  0  0  0  0
 13 14  1  0  0  0  0
 14 15  2  0  0  0  0
 14 16  1  0  0  0  0
 15 18  1  0  0  0  0
 15 29  1  0  0  0  0
 16 19  2  0  0  0  0
 16 30  1  0  0  0  0
 18 20  2  0  0  0  0
 18 32  1  0  0  0  0
 19 20  1  0  0  0  0
 19 33  1  0  0  0  0
 20 34  1  0  0  0  0
M  END
> <PUBCHEM_COMPOUND_CID>
656500

> <PUBCHEM_CONFORMER_RMSD>
0.8

> <PUBCHEM_CONFORMER_DIVERSEORDER>
1
38
46
101
113
75
31
2
12
41
130
117
39
99
50
67
105
19
35
90
57
17
69
126
54
28
13
78
104
133
132
136
60
123
85
33
81
70
134
125
45
87
22
40
47
86
58
68
72
84
103
112
108
14
107
127
82
16
74
30
24
128
66
88
106
118
114
97
120
131
96
109
98
23
92
100
77
111
6
102
124
59
26
80
37
32
116
95
49
93
64
91
73
61
10
11
44
129
29
63
110
121
62
34
51
89
55
18
3
20
43
27
9
8
36
115
4
5
65
53
83
79
119
52
71
135
48
56
25
42
122
15
21
7
76
94

> <PUBCHEM_MMFF94_PARTIAL_CHARGES>
29
1 -0.65
11 0.25
12 0.66
13 0.54
14 0.09
15 -0.15
16 -0.15
17 0.55
18 -0.15
19 -0.15
2 -0.57
20 -0.15
28 0.37
29 0.15
3 -0.57
30 0.15
31 0.5
32 0.15
33 0.15
34 0.15
35 0.4
36 0.4
37 0.4
38 0.4
4 -0.73
5 -0.7
6 -0.85
7 -0.85
9 0.36

> <PUBCHEM_EFFECTIVE_ROTOR_COUNT>
8

> <PUBCHEM_PHARMACOPHORE_FEATURES>
9
1 1 acceptor
1 2 acceptor
1 3 acceptor
1 4 donor
1 6 donor
1 7 donor
3 1 2 12 anion
4 5 6 7 17 cation
6 14 15 16 18 19 20 rings

> <PUBCHEM_HEAVY_ATOM_COUNT>
20

> <PUBCHEM_ATOM_DEF_STEREO_COUNT>
1

> <PUBCHEM_ATOM_UDEF_STEREO_COUNT>
0

> <PUBCHEM_BOND_DEF_STEREO_COUNT>
0

> <PUBCHEM_BOND_UDEF_STEREO_COUNT>
0

> <PUBCHEM_ISOTOPIC_ATOM_COUNT>
0

> <PUBCHEM_COMPONENT_COUNT>
1

> <PUBCHEM_CACTVS_TAUTO_COUNT>
4

> <PUBCHEM_CONFORMER_ID>
000A047400000001

> <PUBCHEM_MMFF94_ENERGY>
48.7825

> <PUBCHEM_FEATURE_SELFOVERLAP>
45.784

> <PUBCHEM_SHAPE_FINGERPRINT>
12107183 9 18262222396839913081
12363563 72 18408314493309944726
12596602 18 15647062555243306726
12633257 1 17823961365354990295
12760667 363 18412262865161375883
12892183 10 14201390586524654103
13103583 49 18041261215268916451
13533116 47 18192990414504706355
13544592 145 18201728302055947551
13544653 18 18409731746702759236
13631057 29 18342458192725340434
13955234 65 17977660909953305041
14251740 79 17845934133929874250
14251764 30 17703209729769673987
14341114 328 14996287981198111386
14866123 147 18268709584036862089
15163728 17 9943532954644580146
15352361 1 18343301474534931430
17980427 23 6050433834671732217
1813 80 17821996602094443316
193927 3 18409724080296957846
20403669 9 18413103974471915518
20693207 138 18059864921819443349
20832881 197 18411697669498754091
23175994 123 18407761434692560357
23403322 49 18272933825441870871
23559900 14 17987523624149268805
3004659 81 17846499231873358422
3057174 1 11743845767805043936
314194 84 18335423405012671270
3286 77 18337387120237615109
329604 57 18343298172227041142
3421961 26 18336828567840438808
345986 75 17676476216493607984
437815 12 18409167714454535175
5486654 36 18342163476021253425
6327066 14 8790879670909314562
77188 2 18407760322386519952
7970288 3 18409450306134052262
9841814 1 17969489429592629092

> <PUBCHEM_SHAPE_MULTIPOLES>
374.06
11.94
3.47
1.38
9.15
2.18
-0.02
-14.87
-0.46
1.97
1.63
-0.37
0.37
0.9

> <PUBCHEM_SHAPE_SELFOVERLAP>
763.61

> <PUBCHEM_SHAPE_VOLUME>
213.6

> <PUBCHEM_COORDINATE_TYPE>
2
5
10

$$$$

