49787029
  -OEChem-07051213103D

 39 39  0     1  0  0  0  0  0999 V2000
    3.1374    1.5592    0.1501 P   0  0  0  0  0  0  0  0  0  0  0  0
    2.1230    0.4361   -0.4073 O   0  0  0  0  0  0  0  0  0  0  0  0
   -3.3042   -0.3727    0.5878 O   0  0  0  0  0  0  0  0  0  0  0  0
   -1.6002   -2.5462   -0.1260 O   0  0  0  0  0  0  0  0  0  0  0  0
    0.4306    2.6301    0.3192 O   0  0  0  0  0  0  0  0  0  0  0  0
   -2.3168    2.1913   -0.3330 O   0  0  0  0  0  0  0  0  0  0  0  0
    2.6876    2.9058   -0.6240 O   0  0  0  0  0  0  0  0  0  0  0  0
    4.5292    1.1627   -0.5714 O   0  0  0  0  0  0  0  0  0  0  0  0
    3.2078    1.6715    1.6450 O   0  0  0  0  0  0  0  0  0  0  0  0
   -4.3806    0.5263   -1.2378 O   0  0  0  0  0  0  0  0  0  0  0  0
    1.1688   -2.1151    0.5654 N   0  0  0  0  0  0  0  0  0  0  0  0
    2.5907   -2.1506   -1.3705 N   0  0  0  0  0  0  0  0  0  0  0  0
    3.0353   -3.4688    0.4351 N   0  0  0  0  0  0  0  0  0  0  0  0
   -5.5461   -0.1979    0.6071 N   0  0  0  0  0  0  0  0  0  0  0  0
    0.8648    0.2775    0.2543 C   0  0  2  0  0  0  0  0  0  0  0  0
    0.3168   -1.1081   -0.0919 C   0  0  2  0  0  0  0  0  0  0  0  0
   -1.1166   -1.3079    0.4016 C   0  0  1  0  0  0  0  0  0  0  0  0
   -2.0444   -0.1866   -0.0637 C   0  0  2  0  0  0  0  0  0  0  0  0
   -0.0709    1.3976   -0.2058 C   0  0  1  0  0  0  0  0  0  0  0  0
   -1.5010    1.1955    0.2907 C   0  0  1  0  0  0  0  0  0  0  0  0
    2.1905   -2.5297   -0.1084 C   0  0  0  0  0  0  0  0  0  0  0  0
   -4.4018    0.0300   -0.1165 C   0  0  0  0  0  0  0  0  0  0  0  0
    1.0328    0.3438    1.3369 H   0  0  0  0  0  0  0  0  0  0  0  0
    0.3032   -1.2506   -1.1796 H   0  0  0  0  0  0  0  0  0  0  0  0
   -1.1478   -1.3991    1.4943 H   0  0  0  0  0  0  0  0  0  0  0  0
   -2.1766   -0.2773   -1.1509 H   0  0  0  0  0  0  0  0  0  0  0  0
   -0.0429    1.4989   -1.2973 H   0  0  0  0  0  0  0  0  0  0  0  0
   -1.5731    1.3757    1.3697 H   0  0  0  0  0  0  0  0  0  0  0  0
   -1.5967   -2.4847   -1.0964 H   0  0  0  0  0  0  0  0  0  0  0  0
    0.4127    2.5737    1.2899 H   0  0  0  0  0  0  0  0  0  0  0  0
   -2.2913    2.0436   -1.2939 H   0  0  0  0  0  0  0  0  0  0  0  0
    5.3462    1.6460   -0.3244 H   0  0  0  0  0  0  0  0  0  0  0  0
    3.1310    3.7519   -0.4012 H   0  0  0  0  0  0  0  0  0  0  0  0
    2.8715   -3.8461    1.3622 H   0  0  0  0  0  0  0  0  0  0  0  0
    3.8445   -3.8110   -0.0713 H   0  0  0  0  0  0  0  0  0  0  0  0
    2.1241   -1.4323   -1.9109 H   0  0  0  0  0  0  0  0  0  0  0  0
    3.4159   -2.5617   -1.7941 H   0  0  0  0  0  0  0  0  0  0  0  0
   -5.5122   -0.6118    1.5326 H   0  0  0  0  0  0  0  0  0  0  0  0
   -6.4606    0.0405    0.2385 H   0  0  0  0  0  0  0  0  0  0  0  0
  1  2  1  0  0  0  0
  1  7  1  0  0  0  0
  1  8  1  0  0  0  0
  1  9  2  0  0  0  0
  2 15  1  0  0  0  0
  3 18  1  0  0  0  0
  3 22  1  0  0  0  0
  4 17  1  0  0  0  0
  4 29  1  0  0  0  0
  5 19  1  0  0  0  0
  5 30  1  0  0  0  0
  6 20  1  0  0  0  0
  6 31  1  0  0  0  0
  7 33  1  0  0  0  0
  8 32  1  0  0  0  0
 10 22  2  0  0  0  0
 11 16  1  0  0  0  0
 11 21  2  0  0  0  0
 12 21  1  0  0  0  0
 12 36  1  0  0  0  0
 12 37  1  0  0  0  0
 13 21  1  0  0  0  0
 13 34  1  0  0  0  0
 13 35  1  0  0  0  0
 14 22  1  0  0  0  0
 14 38  1  0  0  0  0
 14 39  1  0  0  0  0
 15 16  1  0  0  0  0
 15 19  1  0  0  0  0
 15 23  1  0  0  0  0
 16 17  1  0  0  0  0
 16 24  1  0  0  0  0
 17 18  1  0  0  0  0
 17 25  1  0  0  0  0
 18 20  1  0  0  0  0
 18 26  1  0  0  0  0
 19 20  1  0  0  0  0
 19 27  1  0  0  0  0
 20 28  1  0  0  0  0
M  END
> <PUBCHEM_COMPOUND_CID>
49787029

> <PUBCHEM_CONFORMER_RMSD>
0.8

> <PUBCHEM_CONFORMER_DIVERSEORDER>
1
6
7
10
3
5
4
9
8
2

> <PUBCHEM_MMFF94_PARTIAL_CHARGES>
33
1 1.51
10 -0.57
11 -0.7
12 -0.85
13 -0.85
14 -0.8
15 0.28
16 0.25
17 0.28
18 0.28
19 0.28
2 -0.55
20 0.28
21 0.55
22 0.78
29 0.4
3 -0.43
30 0.4
31 0.4
32 0.5
33 0.5
34 0.4
35 0.4
36 0.4
37 0.4
38 0.37
39 0.37
4 -0.68
5 -0.68
6 -0.68
7 -0.77
8 -0.77
9 -0.7

> <PUBCHEM_EFFECTIVE_ROTOR_COUNT>
6.2

> <PUBCHEM_PHARMACOPHORE_FEATURES>
16
1 10 acceptor
1 12 donor
1 13 donor
1 14 donor
1 4 acceptor
1 4 donor
1 5 acceptor
1 5 donor
1 6 acceptor
1 6 donor
1 7 acceptor
1 8 acceptor
1 9 acceptor
4 1 7 8 9 anion
4 11 12 13 21 cation
6 15 16 17 18 19 20 rings

> <PUBCHEM_HEAVY_ATOM_COUNT>
22

> <PUBCHEM_ATOM_DEF_STEREO_COUNT>
6

> <PUBCHEM_ATOM_UDEF_STEREO_COUNT>
0

> <PUBCHEM_BOND_DEF_STEREO_COUNT>
0

> <PUBCHEM_BOND_UDEF_STEREO_COUNT>
0

> <PUBCHEM_ISOTOPIC_ATOM_COUNT>
0

> <PUBCHEM_COMPONENT_COUNT>
1

> <PUBCHEM_CACTVS_TAUTO_COUNT>
4

> <PUBCHEM_CONFORMER_ID>
02F7B09500000001

> <PUBCHEM_MMFF94_ENERGY>
29.476

> <PUBCHEM_FEATURE_SELFOVERLAP>
81.316

> <PUBCHEM_SHAPE_FINGERPRINT>
10411042 1 18123187067647392443
10967382 1 18410854343441952600
10989021 7 18265052607714051915
11132069 177 18265902358435441944
11578080 2 17344921925780755038
11680986 33 18341885282231076395
12592029 89 18412543176133007777
13140716 1 18048881792906448961
15196674 1 18339641248139962873
15536298 74 18336264630239477707
16945 1 18410575041903563425
20600515 1 17471018446492540210
20645477 70 18334572469007155015
20691752 17 17631159964955725649
20739085 24 18195222611882015393
20905425 154 18262794211331721164
21452121 103 18337399321960173897
21501502 16 18263639743777885377
221490 88 18269551800926405803
22182313 1 18200887278444826965
2334 1 18338517555282028913
23366157 5 18059287781621090682
23419403 2 17914355686338992566
23558518 356 18198048373744938649
23559900 14 18262512569046847876
23566358 2 18337673130193615844
2748010 2 18268716180573846077
3071541 37 18412822478051347614
3286 77 18128253582873480527
33824 294 18410011018060365240
34934 24 18334858281731938439
350125 39 18266735968711671585
352729 6 18196085534613798784
42630746 31 18409449180846546803
5104073 3 18337383950878838049
6138700 20 18410566324101121702
7364860 26 18335139825691882794
81539 233 18342177730727525622
9709674 26 18342457058447539043

> <PUBCHEM_SHAPE_MULTIPOLES>
383.85
7.99
3.47
0.91
6.91
1.28
0.01
-1.11
-0.28
-3.92
-0.02
-0.28
-0.06
0.39

> <PUBCHEM_SHAPE_SELFOVERLAP>
771.74

> <PUBCHEM_SHAPE_VOLUME>
224.4

> <PUBCHEM_COORDINATE_TYPE>
2
5
10

$$$$

