47205033
  -OEChem-06241222573D

 34 35  0     1  0  0  0  0  0999 V2000
   -0.9834    1.8588   -0.4794 O   0  0  0  0  0  0  0  0  0  0  0  0
    1.4228    1.3638   -1.5157 O   0  0  0  0  0  0  0  0  0  0  0  0
    2.4635    1.3622    0.5599 N   0  0  0  0  0  0  0  0  0  0  0  0
    4.2387   -1.2020    1.0980 N   0  0  0  0  0  0  0  0  0  0  0  0
    4.4272   -2.5029    0.8180 N   0  0  0  0  0  0  0  0  0  0  0  0
   -6.0146   -2.5666    0.3467 N   0  0  0  0  0  0  0  0  0  0  0  0
    0.0857    1.7949    0.4498 C   0  0  1  0  0  0  0  0  0  0  0  0
    3.7945    1.0540    0.0912 C   0  0  0  0  0  0  0  0  0  0  0  0
    1.3790    1.4922   -0.2940 C   0  0  0  0  0  0  0  0  0  0  0  0
    4.0280   -0.4261   -0.0039 C   0  0  0  0  0  0  0  0  0  0  0  0
    0.1685    3.1303    1.1719 C   0  0  0  0  0  0  0  0  0  0  0  0
   -2.0063    0.9593   -0.3126 C   0  0  0  0  0  0  0  0  0  0  0  0
    4.0829   -1.2786   -1.0794 C   0  0  0  0  0  0  0  0  0  0  0  0
   -1.7461   -0.4100   -0.3661 C   0  0  0  0  0  0  0  0  0  0  0  0
   -3.3057    1.4143   -0.0888 C   0  0  0  0  0  0  0  0  0  0  0  0
    4.3308   -2.5436   -0.5135 C   0  0  0  0  0  0  0  0  0  0  0  0
   -2.7855   -1.3244   -0.1957 C   0  0  0  0  0  0  0  0  0  0  0  0
   -4.3451    0.4999    0.0814 C   0  0  0  0  0  0  0  0  0  0  0  0
   -4.0851   -0.8694    0.0282 C   0  0  0  0  0  0  0  0  0  0  0  0
   -5.1497   -1.8060    0.2040 C   0  0  0  0  0  0  0  0  0  0  0  0
   -0.0680    1.0056    1.1983 H   0  0  0  0  0  0  0  0  0  0  0  0
    4.5036    1.5038    0.7945 H   0  0  0  0  0  0  0  0  0  0  0  0
    3.9482    1.5206   -0.8882 H   0  0  0  0  0  0  0  0  0  0  0  0
    2.3231    1.4347    1.5631 H   0  0  0  0  0  0  0  0  0  0  0  0
   -0.7940    3.3768    1.6336 H   0  0  0  0  0  0  0  0  0  0  0  0
    0.9337    3.1344    1.9537 H   0  0  0  0  0  0  0  0  0  0  0  0
    0.3988    3.9392    0.4689 H   0  0  0  0  0  0  0  0  0  0  0  0
    3.9601   -1.0231   -2.1217 H   0  0  0  0  0  0  0  0  0  0  0  0
    4.2658   -0.9122    2.0677 H   0  0  0  0  0  0  0  0  0  0  0  0
   -0.7405   -0.7790   -0.5485 H   0  0  0  0  0  0  0  0  0  0  0  0
   -3.5135    2.4800   -0.0456 H   0  0  0  0  0  0  0  0  0  0  0  0
    4.4449   -3.4933   -1.0161 H   0  0  0  0  0  0  0  0  0  0  0  0
   -2.5674   -2.3888   -0.2417 H   0  0  0  0  0  0  0  0  0  0  0  0
   -5.3527    0.8700    0.2554 H   0  0  0  0  0  0  0  0  0  0  0  0
  1  7  1  0  0  0  0
  1 12  1  0  0  0  0
  2  9  2  0  0  0  0
  3  8  1  0  0  0  0
  3  9  1  0  0  0  0
  3 24  1  0  0  0  0
  4  5  1  0  0  0  0
  4 10  1  0  0  0  0
  4 29  1  0  0  0  0
  5 16  2  0  0  0  0
  6 20  3  0  0  0  0
  7  9  1  0  0  0  0
  7 11  1  0  0  0  0
  7 21  1  0  0  0  0
  8 10  1  0  0  0  0
  8 22  1  0  0  0  0
  8 23  1  0  0  0  0
 10 13  2  0  0  0  0
 11 25  1  0  0  0  0
 11 26  1  0  0  0  0
 11 27  1  0  0  0  0
 12 14  2  0  0  0  0
 12 15  1  0  0  0  0
 13 16  1  0  0  0  0
 13 28  1  0  0  0  0
 14 17  1  0  0  0  0
 14 30  1  0  0  0  0
 15 18  2  0  0  0  0
 15 31  1  0  0  0  0
 16 32  1  0  0  0  0
 17 19  2  0  0  0  0
 17 33  1  0  0  0  0
 18 19  1  0  0  0  0
 18 34  1  0  0  0  0
 19 20  1  0  0  0  0
M  END
> <PUBCHEM_COMPOUND_CID>
47205033

> <PUBCHEM_CONFORMER_RMSD>
0.8

> <PUBCHEM_CONFORMER_DIVERSEORDER>
2
274
189
195
238
267
91
234
188
226
271
60
28
27
280
47
177
90
72
58
143
196
99
244
74
116
82
148
277
259
113
155
10
87
63
35
264
171
218
57
235
108
1
227
119
21
200
159
13
163
83
276
273
175
252
33
292
161
80
88
59
224
197
31
240
48
101
221
22
158
225
69
42
199
172
11
95
295
142
268
97
257
279
123
16
84
44
5
81
222
214
193
50
6
94
242
243
118
178
64
76
79
288
30
245
25
141
168
284
26
135
207
129
40
71
160
55
128
230
212
127
229
100
272
120
266
246
261
285
32
66
24
179
92
62
201
140
124
126
262
115
254
211
241
255
104
180
149
51
53
247
190
253
109
263
114
136
202
4
68
134
194
282
191
15
121
170
39
206
45
185
281
112
153
131
215
275
291
249
250
258
256
98
270
73
203
14
105
52
169
223
150
75
182
286
251
204
260
181
125
8
132
78
296
152
41
65
103
146
216
265
269
34
7
93
248
70
61
77
89
187
147
102
213
12
37
20
54
151
144
293
228
167
96
208
165
9
176
43
173
198
85
192
36
139
38
166
133
186
117
137
210
49
157
145
184
236
209
287
17
232
46
138
111
162
205
18
298
174
67
19
164
106
297
56
294
3
110
237
231
283
290
278
122
156
107
217
183
233
220
86
23
239
289
29
130
219
154

> <PUBCHEM_MMFF94_PARTIAL_CHARGES>
27
1 -0.36
10 -0.33
12 0.08
13 -0.15
14 -0.15
15 -0.15
16 0.14
17 -0.15
18 -0.15
19 0.07
2 -0.57
20 0.48
24 0.37
28 0.15
29 0.27
3 -0.73
30 0.15
31 0.15
32 0.15
33 0.15
34 0.15
4 0.3
5 -0.71
6 -0.56
7 0.34
8 0.48
9 0.57

> <PUBCHEM_EFFECTIVE_ROTOR_COUNT>
6

> <PUBCHEM_PHARMACOPHORE_FEATURES>
8
1 1 acceptor
1 2 acceptor
1 3 donor
1 4 donor
1 5 acceptor
1 6 acceptor
5 4 5 10 13 16 rings
6 12 14 15 17 18 19 rings

> <PUBCHEM_HEAVY_ATOM_COUNT>
20

> <PUBCHEM_ATOM_DEF_STEREO_COUNT>
0

> <PUBCHEM_ATOM_UDEF_STEREO_COUNT>
1

> <PUBCHEM_BOND_DEF_STEREO_COUNT>
0

> <PUBCHEM_BOND_UDEF_STEREO_COUNT>
0

> <PUBCHEM_ISOTOPIC_ATOM_COUNT>
0

> <PUBCHEM_COMPONENT_COUNT>
1

> <PUBCHEM_CACTVS_TAUTO_COUNT>
4

> <PUBCHEM_CONFORMER_ID>
02D04AA900000002

> <PUBCHEM_MMFF94_ENERGY>
37.3002

> <PUBCHEM_FEATURE_SELFOVERLAP>
40.603

> <PUBCHEM_SHAPE_MULTIPOLES>
379.93
12.42
3.29
0.96
3.55
0.04
-0.04
11.93
1.16
-0.57
0.66
-0.74
-0.11
0.29

> <PUBCHEM_SHAPE_SELFOVERLAP>
800.85

> <PUBCHEM_SHAPE_VOLUME>
211.4

> <PUBCHEM_COORDINATE_TYPE>
2
5
10

$$$$

