442318
  -OEChem-07051212573D

 52 53  0     1  0  0  0  0  0999 V2000
    3.7507   -0.9369    1.3554 O   0  0  0  0  0  0  0  0  0  0  0  0
   -1.9380   -0.6973    0.3638 O   0  0  0  0  0  0  0  0  0  0  0  0
    1.4765    2.5030   -0.7293 O   0  0  0  0  0  0  0  0  0  0  0  0
    5.4797    0.3855    0.7948 O   0  0  0  0  0  0  0  0  0  0  0  0
   -2.5914    2.2328   -0.8067 O   0  0  0  0  0  0  0  0  0  0  0  0
   -2.2527    4.0329    0.5872 O   0  0  0  0  0  0  0  0  0  0  0  0
   -1.9030   -2.5393    1.7427 O   0  0  0  0  0  0  0  0  0  0  0  0
   -4.4695   -0.3089   -0.7203 O   0  0  0  0  0  0  0  0  0  0  0  0
    1.7803   -1.2332   -0.1511 C   0  0  2  0  0  0  0  0  0  0  0  0
    2.0786    0.1733   -0.7067 C   0  0  1  0  0  0  0  0  0  0  0  0
    1.2681    1.2873    0.0023 C   0  0  2  0  0  0  0  0  0  0  0  0
    0.2628   -1.4958   -0.1479 C   0  0  0  0  0  0  0  0  0  0  0  0
   -0.2434    0.9857    0.0282 C   0  0  1  0  0  0  0  0  0  0  0  0
   -0.5506   -0.4174    0.5693 C   0  0  1  0  0  0  0  0  0  0  0  0
    2.3628   -1.3348    1.2654 C   0  0  0  0  0  0  0  0  0  0  0  0
    3.5610    0.4524   -0.6087 C   0  0  0  0  0  0  0  0  0  0  0  0
    2.4115   -2.3011   -1.0229 C   0  0  0  0  0  0  0  0  0  0  0  0
   -0.9686    2.0175    0.8511 C   0  0  0  0  0  0  0  0  0  0  0  0
    4.3428   -0.0119    0.5608 C   0  0  0  0  0  0  0  0  0  0  0  0
    4.2399    1.0672   -1.5906 C   0  0  0  0  0  0  0  0  0  0  0  0
    2.1227   -2.4784   -2.3165 C   0  0  0  0  0  0  0  0  0  0  0  0
   -1.9958    2.8942    0.2228 C   0  0  0  0  0  0  0  0  0  0  0  0
   -0.7283    2.1909    2.1592 C   0  0  0  0  0  0  0  0  0  0  0  0
   -2.3671   -1.9132    0.8001 C   0  0  0  0  0  0  0  0  0  0  0  0
   -3.4988   -2.3821   -0.0488 C   0  0  0  0  0  0  0  0  0  0  0  0
   -3.9913   -1.5582   -1.2014 C   0  0  0  0  0  0  0  0  0  0  0  0
   -3.6057    2.9602   -1.5077 C   0  0  0  0  0  0  0  0  0  0  0  0
   -4.0332   -3.5742    0.2556 C   0  0  0  0  0  0  0  0  0  0  0  0
    1.7943    0.2137   -1.7690 H   0  0  0  0  0  0  0  0  0  0  0  0
    1.6684    1.4456    1.0110 H   0  0  0  0  0  0  0  0  0  0  0  0
   -0.1296   -1.5689   -1.1721 H   0  0  0  0  0  0  0  0  0  0  0  0
    0.0794   -2.4837    0.2932 H   0  0  0  0  0  0  0  0  0  0  0  0
   -0.5994    1.0378   -1.0092 H   0  0  0  0  0  0  0  0  0  0  0  0
   -0.3512   -0.4691    1.6462 H   0  0  0  0  0  0  0  0  0  0  0  0
    1.8233   -0.7154    1.9884 H   0  0  0  0  0  0  0  0  0  0  0  0
    2.3042   -2.3640    1.6401 H   0  0  0  0  0  0  0  0  0  0  0  0
    3.1374   -2.9750   -0.5731 H   0  0  0  0  0  0  0  0  0  0  0  0
    1.1002    3.2321   -0.2082 H   0  0  0  0  0  0  0  0  0  0  0  0
    5.3085    1.2475   -1.5430 H   0  0  0  0  0  0  0  0  0  0  0  0
    3.7315    1.4105   -2.4864 H   0  0  0  0  0  0  0  0  0  0  0  0
    2.6109   -3.2683   -2.8778 H   0  0  0  0  0  0  0  0  0  0  0  0
    1.4140   -1.8555   -2.8494 H   0  0  0  0  0  0  0  0  0  0  0  0
    0.0055    1.5950    2.6915 H   0  0  0  0  0  0  0  0  0  0  0  0
   -1.2596    2.9339    2.7458 H   0  0  0  0  0  0  0  0  0  0  0  0
   -3.1807   -1.3683   -1.9125 H   0  0  0  0  0  0  0  0  0  0  0  0
   -4.8036   -2.0475   -1.7492 H   0  0  0  0  0  0  0  0  0  0  0  0
   -3.9765    2.3289   -2.3196 H   0  0  0  0  0  0  0  0  0  0  0  0
   -4.4366    3.1917   -0.8347 H   0  0  0  0  0  0  0  0  0  0  0  0
   -3.1884    3.8757   -1.9377 H   0  0  0  0  0  0  0  0  0  0  0  0
   -4.8551   -3.9794   -0.3266 H   0  0  0  0  0  0  0  0  0  0  0  0
   -3.6804   -4.1822    1.0819 H   0  0  0  0  0  0  0  0  0  0  0  0
   -5.2133   -0.4885   -0.1198 H   0  0  0  0  0  0  0  0  0  0  0  0
  1 15  1  0  0  0  0
  1 19  1  0  0  0  0
  2 14  1  0  0  0  0
  2 24  1  0  0  0  0
  3 11  1  0  0  0  0
  3 38  1  0  0  0  0
  4 19  2  0  0  0  0
  5 22  1  0  0  0  0
  5 27  1  0  0  0  0
  6 22  2  0  0  0  0
  7 24  2  0  0  0  0
  8 26  1  0  0  0  0
  8 52  1  0  0  0  0
  9 10  1  0  0  0  0
  9 12  1  0  0  0  0
  9 15  1  0  0  0  0
  9 17  1  0  0  0  0
 10 11  1  0  0  0  0
 10 16  1  0  0  0  0
 10 29  1  0  0  0  0
 11 13  1  0  0  0  0
 11 30  1  0  0  0  0
 12 14  1  0  0  0  0
 12 31  1  0  0  0  0
 12 32  1  0  0  0  0
 13 14  1  0  0  0  0
 13 18  1  0  0  0  0
 13 33  1  0  0  0  0
 14 34  1  0  0  0  0
 15 35  1  0  0  0  0
 15 36  1  0  0  0  0
 16 19  1  0  0  0  0
 16 20  2  0  0  0  0
 17 21  2  0  0  0  0
 17 37  1  0  0  0  0
 18 22  1  0  0  0  0
 18 23  2  0  0  0  0
 20 39  1  0  0  0  0
 20 40  1  0  0  0  0
 21 41  1  0  0  0  0
 21 42  1  0  0  0  0
 23 43  1  0  0  0  0
 23 44  1  0  0  0  0
 24 25  1  0  0  0  0
 25 26  1  0  0  0  0
 25 28  2  0  0  0  0
 26 45  1  0  0  0  0
 26 46  1  0  0  0  0
 27 47  1  0  0  0  0
 27 48  1  0  0  0  0
 27 49  1  0  0  0  0
 28 50  1  0  0  0  0
 28 51  1  0  0  0  0
M  END
> <PUBCHEM_COMPOUND_CID>
442318

> <PUBCHEM_CONFORMER_RMSD>
1

> <PUBCHEM_CONFORMER_DIVERSEORDER>
1
39
69
40
37
50
53
42
51
33
65
66
23
20
31
55
59
62
60
47
35
5
68
57
41
21
70
28
56
16
43
14
26
61
44
48
8
54
67
10
22
18
6
45
64
19
49
24
29
63
30
27
25
34
58
13
15
52
46
12
17
9
36
32
4
38
7
11
3
2

> <PUBCHEM_MMFF94_PARTIAL_CHARGES>
38
1 -0.43
10 0.14
11 0.28
13 0.14
14 0.28
15 0.28
16 -0.12
17 -0.29
18 -0.12
19 0.71
2 -0.43
20 -0.3
21 -0.3
22 0.71
23 -0.3
24 0.71
25 -0.12
26 0.42
27 0.28
28 -0.3
3 -0.68
37 0.15
38 0.4
39 0.15
4 -0.57
40 0.15
41 0.15
42 0.15
43 0.15
44 0.15
5 -0.43
50 0.15
51 0.15
52 0.4
6 -0.57
7 -0.57
8 -0.68
9 0.14

> <PUBCHEM_EFFECTIVE_ROTOR_COUNT>
9.2

> <PUBCHEM_PHARMACOPHORE_FEATURES>
12
1 21 hydrophobe
1 23 hydrophobe
1 28 hydrophobe
1 3 acceptor
1 3 donor
1 4 acceptor
1 6 acceptor
1 7 acceptor
1 8 acceptor
1 8 donor
6 1 9 10 15 16 19 rings
6 9 10 11 12 13 14 rings

> <PUBCHEM_HEAVY_ATOM_COUNT>
28

> <PUBCHEM_ATOM_DEF_STEREO_COUNT>
5

> <PUBCHEM_ATOM_UDEF_STEREO_COUNT>
0

> <PUBCHEM_BOND_DEF_STEREO_COUNT>
0

> <PUBCHEM_BOND_UDEF_STEREO_COUNT>
0

> <PUBCHEM_ISOTOPIC_ATOM_COUNT>
0

> <PUBCHEM_COMPONENT_COUNT>
1

> <PUBCHEM_CACTVS_TAUTO_COUNT>
1

> <PUBCHEM_CONFORMER_ID>
0006BFCE00000001

> <PUBCHEM_MMFF94_ENERGY>
84.7177

> <PUBCHEM_FEATURE_SELFOVERLAP>
60.95

> <PUBCHEM_SHAPE_FINGERPRINT>
108634 29 18337678610925326303
10906281 52 18338220588252721731
11578080 2 17240489108636002715
116883 192 18335697286645457943
12160290 23 18127387133661784337
12293681 4 18340773654822395927
12553582 1 18265034865214766747
12788726 201 18411983572365181419
13140716 1 18195237815511991626
13149001 5 17467043664154691294
13782708 43 17531510058970103238
13911987 19 18052804867516291878
14178342 30 18336822095830956968
14223421 5 18335413574016899898
14363568 33 17691674598700412057
15420108 30 16536532608437912640
16752209 62 18411138026427609258
16945 1 18265318539731574014
17349148 13 18339088193400775516
17357779 13 18261115132200120167
20715895 44 18200042870762941165
20775438 99 18046082698448104887
21049683 271 17767393587959888455
21285901 2 18334851728171261231
21641784 216 18058432236567274477
22182313 1 18114450267149443870
22907989 373 18269816658411359452
23419403 2 17907623243176288856
23557571 272 18261399991574338242
23558518 356 18270109240294790570
23559900 14 18341342076131311096
23566358 2 18337390555947786053
238 59 17399245153272260871
2748010 2 18191285269137588238
283562 15 18265317448625095744
3493558 16 16842193044171757860
460360 51 17988071326457293890
6913067 236 17895485730280992486
7164475 11 18412539912364063782
81228 2 18337657728683550371
9709674 26 18263078962904228990
9981440 41 17679046986870490410

> <PUBCHEM_SHAPE_MULTIPOLES>
529.27
8.54
4.36
1.65
2.39
1.59
-0.09
-2.3
-1.36
-5.43
-0.21
0.38
-0.1
0.77

> <PUBCHEM_SHAPE_SELFOVERLAP>
1109.761

> <PUBCHEM_SHAPE_VOLUME>
294.7

> <PUBCHEM_COORDINATE_TYPE>
2
5
10

$$$$

