582880
  -OEChem-06241222443D

 38 38  0     0  0  0  0  0  0999 V2000
   -3.2031   -0.8438   -0.2391 Si  0  0  0  0  0  0  0  0  0  0  0  0
   -1.6241   -0.2781   -0.2869 O   0  0  0  0  0  0  0  0  0  0  0  0
    0.8991    0.4101    0.7926 O   0  0  0  0  0  0  0  0  0  0  0  0
   -1.3428    1.0546    0.1147 C   0  0  0  0  0  0  0  0  0  0  0  0
    0.1630    1.3065   -0.0322 C   0  0  0  0  0  0  0  0  0  0  0  0
   -2.1307    2.0009   -0.7929 C   0  0  0  0  0  0  0  0  0  0  0  0
   -1.8079    1.1992    1.5642 C   0  0  0  0  0  0  0  0  0  0  0  0
   -4.2920    0.2083   -1.3605 C   0  0  0  0  0  0  0  0  0  0  0  0
   -3.9058   -0.7540    1.5036 C   0  0  0  0  0  0  0  0  0  0  0  0
   -3.3057   -2.6249   -0.8348 C   0  0  0  0  0  0  0  0  0  0  0  0
    2.1540    0.0676    0.3636 C   0  0  0  0  0  0  0  0  0  0  0  0
    2.8935    0.9698   -0.3932 C   0  0  0  0  0  0  0  0  0  0  0  0
    2.6761   -1.1795    0.6886 C   0  0  0  0  0  0  0  0  0  0  0  0
    4.1711    0.6205   -0.8306 C   0  0  0  0  0  0  0  0  0  0  0  0
    3.9539   -1.5287    0.2513 C   0  0  0  0  0  0  0  0  0  0  0  0
    4.7013   -0.6286   -0.5084 C   0  0  0  0  0  0  0  0  0  0  0  0
    0.4153    1.1514   -1.0905 H   0  0  0  0  0  0  0  0  0  0  0  0
    0.4097    2.3363    0.2533 H   0  0  0  0  0  0  0  0  0  0  0  0
   -3.1421    2.2158   -0.4496 H   0  0  0  0  0  0  0  0  0  0  0  0
   -1.6539    2.9912   -0.7708 H   0  0  0  0  0  0  0  0  0  0  0  0
   -2.1135    1.6939   -1.8425 H   0  0  0  0  0  0  0  0  0  0  0  0
   -1.5637    0.3307    2.1826 H   0  0  0  0  0  0  0  0  0  0  0  0
   -2.8503    1.4970    1.6743 H   0  0  0  0  0  0  0  0  0  0  0  0
   -1.2685    2.0410    2.0216 H   0  0  0  0  0  0  0  0  0  0  0  0
   -5.1586   -0.4016   -1.6436 H   0  0  0  0  0  0  0  0  0  0  0  0
   -4.7129    1.0854   -0.8655 H   0  0  0  0  0  0  0  0  0  0  0  0
   -3.8013    0.4805   -2.2975 H   0  0  0  0  0  0  0  0  0  0  0  0
   -4.3596    0.2089    1.7460 H   0  0  0  0  0  0  0  0  0  0  0  0
   -4.7258   -1.4797    1.5677 H   0  0  0  0  0  0  0  0  0  0  0  0
   -3.1849   -1.0508    2.2687 H   0  0  0  0  0  0  0  0  0  0  0  0
   -4.3395   -2.9818   -0.8113 H   0  0  0  0  0  0  0  0  0  0  0  0
   -2.9357   -2.7077   -1.8609 H   0  0  0  0  0  0  0  0  0  0  0  0
   -2.7014   -3.2772   -0.1975 H   0  0  0  0  0  0  0  0  0  0  0  0
    2.5304    1.9622   -0.6418 H   0  0  0  0  0  0  0  0  0  0  0  0
    2.0971   -1.8835    1.2795 H   0  0  0  0  0  0  0  0  0  0  0  0
    4.7561    1.3234   -1.4166 H   0  0  0  0  0  0  0  0  0  0  0  0
    4.3669   -2.5013    0.5023 H   0  0  0  0  0  0  0  0  0  0  0  0
    5.6967   -0.9000   -0.8476 H   0  0  0  0  0  0  0  0  0  0  0  0
  1  2  1  0  0  0  0
  1  8  1  0  0  0  0
  1  9  1  0  0  0  0
  1 10  1  0  0  0  0
  2  4  1  0  0  0  0
  3  5  1  0  0  0  0
  3 11  1  0  0  0  0
  4  5  1  0  0  0  0
  4  6  1  0  0  0  0
  4  7  1  0  0  0  0
  5 17  1  0  0  0  0
  5 18  1  0  0  0  0
  6 19  1  0  0  0  0
  6 20  1  0  0  0  0
  6 21  1  0  0  0  0
  7 22  1  0  0  0  0
  7 23  1  0  0  0  0
  7 24  1  0  0  0  0
  8 25  1  0  0  0  0
  8 26  1  0  0  0  0
  8 27  1  0  0  0  0
  9 28  1  0  0  0  0
  9 29  1  0  0  0  0
  9 30  1  0  0  0  0
 10 31  1  0  0  0  0
 10 32  1  0  0  0  0
 10 33  1  0  0  0  0
 11 12  2  0  0  0  0
 11 13  1  0  0  0  0
 12 14  1  0  0  0  0
 12 34  1  0  0  0  0
 13 15  2  0  0  0  0
 13 35  1  0  0  0  0
 14 16  2  0  0  0  0
 14 36  1  0  0  0  0
 15 16  1  0  0  0  0
 15 37  1  0  0  0  0
 16 38  1  0  0  0  0
M  END
> <PUBCHEM_COMPOUND_CID>
582880

> <PUBCHEM_CONFORMER_RMSD>
0.6

> <PUBCHEM_CONFORMER_DIVERSEORDER>
9
25
18
11
22
5
12
27
20
26
3
14
19
23
6
15
24
13
10
21
2
17
4
7
16
8
1

> <PUBCHEM_MMFF94_PARTIAL_CHARGES>
19
1 0.54
10 -0.08
11 0.08
12 -0.15
13 -0.15
14 -0.15
15 -0.15
16 -0.15
2 -0.58
3 -0.36
34 0.15
35 0.15
36 0.15
37 0.15
38 0.15
4 0.28
5 0.28
8 -0.08
9 -0.08

> <PUBCHEM_EFFECTIVE_ROTOR_COUNT>
5

> <PUBCHEM_PHARMACOPHORE_FEATURES>
3
1 3 acceptor
3 4 6 7 hydrophobe
6 11 12 13 14 15 16 rings

> <PUBCHEM_HEAVY_ATOM_COUNT>
16

> <PUBCHEM_ATOM_DEF_STEREO_COUNT>
0

> <PUBCHEM_ATOM_UDEF_STEREO_COUNT>
0

> <PUBCHEM_BOND_DEF_STEREO_COUNT>
0

> <PUBCHEM_BOND_UDEF_STEREO_COUNT>
0

> <PUBCHEM_ISOTOPIC_ATOM_COUNT>
0

> <PUBCHEM_COMPONENT_COUNT>
1

> <PUBCHEM_CACTVS_TAUTO_COUNT>
1

> <PUBCHEM_CONFORMER_ID>
0008E4E000000009

> <PUBCHEM_MMFF94_ENERGY>
68.4584

> <PUBCHEM_FEATURE_SELFOVERLAP>
15.223

> <PUBCHEM_SHAPE_FINGERPRINT>
10366900 7 17095244717575747183
10616163 171 18407759244011871822
107951 10 17417818396147355755
11046707 91 18187085022913119087
11089746 13 11527665233733745302
11543360 7 18060702771075529996
12173636 292 15625955282575421519
12507560 40 6194841475275708240
12553582 1 18408324363055191651
12596602 18 5689588394590865062
12633257 1 17385992962865777411
128620 24 17917709076444014306
12892183 10 7060380352912876357
14004511 7 9079117747979085528
14123260 362 11095882661681245675
14576447 43 18413107252138207934
15239191 94 18261109673222911818
15375462 189 18335695005648318458
15537594 2 18410845543175860554
16752209 62 18263097642028060051
18915474 69 18410292480500561166
19422 9 18335413595534031776
19862831 5 17917999385873021209
200 152 18411139142744598817
20281407 28 18336271154310598721
20281475 54 18334295323251652091
20291156 8 18336548213886979127
20645477 70 18272656783013925282
20871999 31 18343586273605085933
21065199 12 6050440418566517692
21634736 98 18338518513265451342
221490 88 18342453686803136160
22485316 2 18409170982581586980
22646028 1 18335421279024756986
22646028 28 18409448107046603090
23402539 116 17203331117739362996
23402655 69 18131070463281566668
235170 7 16343713105322058055
23559900 14 18262813886176224320
238078 22 18188765033493174515
27216 239 9151179779103514831
2871803 45 18272091599693106986
3082319 5 18202002161591593980
351380 180 8646777677046643331
559249 180 18055364792462487050
603831 33 18202290203467792362
633830 44 16916494978203227680
83771 10 18409445860588783873

> <PUBCHEM_SHAPE_MULTIPOLES>
335.75
9.9
2.03
1.27
6.07
0.5
-0.23
3.67
1.83
-1.16
0.29
-1.13
-0.08
-0.47

> <PUBCHEM_SHAPE_SELFOVERLAP>
657.575

> <PUBCHEM_SHAPE_VOLUME>
204.3

> <PUBCHEM_COORDINATE_TYPE>
2
5
10

$$$$

