46174031
  -OEChem-07051213113D

 86 89  0     1  0  0  0  0  0999 V2000
   -0.1422    0.0632   -0.7180 O   0  0  0  0  0  0  0  0  0  0  0  0
   -3.7469    0.5155   -0.3035 O   0  0  0  0  0  0  0  0  0  0  0  0
    0.3058   -2.2395   -0.9027 O   0  0  0  0  0  0  0  0  0  0  0  0
    3.7880   -1.7460   -0.1958 O   0  0  0  0  0  0  0  0  0  0  0  0
   -2.8034    1.2448   -2.9292 O   0  0  0  0  0  0  0  0  0  0  0  0
   -4.6926   -0.9527    1.2838 O   0  0  0  0  0  0  0  0  0  0  0  0
    4.3229    0.2653    0.9009 O   0  0  0  0  0  0  0  0  0  0  0  0
    2.5878   -1.3156   -2.6278 O   0  0  0  0  0  0  0  0  0  0  0  0
    6.9393    0.8665   -1.4455 O   0  0  0  0  0  0  0  0  0  0  0  0
   -8.0755    0.4602    0.8691 O   0  0  0  0  0  0  0  0  0  0  0  0
    6.9103    0.7506    2.2017 O   0  0  0  0  0  0  0  0  0  0  0  0
    0.4149   -4.3907    0.9179 O   0  0  0  0  0  0  0  0  0  0  0  0
   -5.0374   -0.0661    3.8422 O   0  0  0  0  0  0  0  0  0  0  0  0
   -0.8899    2.2096    1.2766 N   0  0  0  0  0  0  0  0  0  0  0  0
    0.1029    2.9780   -1.4869 N   0  0  0  0  0  0  0  0  0  0  0  0
   -4.8692   -1.0357   -2.4321 N   0  0  0  0  0  0  0  0  0  0  0  0
    6.3670   -1.8759    0.9403 N   0  0  0  0  0  0  0  0  0  0  0  0
    3.1143    2.5681    1.9281 N   0  0  0  0  0  0  0  0  0  0  0  0
   -1.4860    0.2654   -1.1446 C   0  0  1  0  0  0  0  0  0  0  0  0
   -2.3697    0.6506    0.0550 C   0  0  1  0  0  0  0  0  0  0  0  0
   -2.1529    2.0931    0.5478 C   0  0  2  0  0  0  0  0  0  0  0  0
   -1.5297    1.3002   -2.2826 C   0  0  2  0  0  0  0  0  0  0  0  0
   -1.3047    2.7493   -1.8134 C   0  0  1  0  0  0  0  0  0  0  0  0
   -2.2127    3.0969   -0.6189 C   0  0  0  0  0  0  0  0  0  0  0  0
    0.4989   -0.9402   -1.4965 C   0  0  2  0  0  0  0  0  0  0  0  0
    2.4150   -1.4195   -0.2288 C   0  0  1  0  0  0  0  0  0  0  0  0
    2.0000   -0.6907   -1.4911 C   0  0  1  0  0  0  0  0  0  0  0  0
    1.5360   -2.6582   -0.2854 C   0  0  1  0  0  0  0  0  0  0  0  0
   -4.2141   -0.8004   -0.0576 C   0  0  1  0  0  0  0  0  0  0  0  0
   -5.3207   -1.1813   -1.0512 C   0  0  1  0  0  0  0  0  0  0  0  0
    4.6117   -0.5821   -0.2121 C   0  0  1  0  0  0  0  0  0  0  0  0
    6.0915   -1.0034   -0.2057 C   0  0  1  0  0  0  0  0  0  0  0  0
   -6.5724   -0.3371   -0.8101 C   0  0  0  0  0  0  0  0  0  0  0  0
    6.9983    0.2376   -0.1633 C   0  0  2  0  0  0  0  0  0  0  0  0
   -6.9977   -0.4427    0.6546 C   0  0  1  0  0  0  0  0  0  0  0  0
   -5.8224   -0.1266    1.5868 C   0  0  1  0  0  0  0  0  0  0  0  0
    6.5614    1.2448    0.9107 C   0  0  1  0  0  0  0  0  0  0  0  0
    1.2462   -3.2534    1.0811 C   0  0  0  0  0  0  0  0  0  0  0  0
    5.0461    1.5014    0.8489 C   0  0  2  0  0  0  0  0  0  0  0  0
    4.5538    2.3656    2.0046 C   0  0  0  0  0  0  0  0  0  0  0  0
   -6.1725   -0.3691    3.0523 C   0  0  0  0  0  0  0  0  0  0  0  0
   -1.8830   -0.6777   -1.5438 H   0  0  0  0  0  0  0  0  0  0  0  0
   -2.1469   -0.0170    0.9006 H   0  0  0  0  0  0  0  0  0  0  0  0
   -2.9611    2.3525    1.2439 H   0  0  0  0  0  0  0  0  0  0  0  0
   -0.7849    1.0500   -3.0474 H   0  0  0  0  0  0  0  0  0  0  0  0
   -1.5658    3.4345   -2.6300 H   0  0  0  0  0  0  0  0  0  0  0  0
   -3.2499    3.1429   -0.9785 H   0  0  0  0  0  0  0  0  0  0  0  0
   -1.9876    4.1092   -0.2566 H   0  0  0  0  0  0  0  0  0  0  0  0
    0.1148   -0.9754   -2.5228 H   0  0  0  0  0  0  0  0  0  0  0  0
    2.1408   -0.8250    0.6532 H   0  0  0  0  0  0  0  0  0  0  0  0
    2.2634    0.3713   -1.4904 H   0  0  0  0  0  0  0  0  0  0  0  0
    1.9726   -3.4318   -0.9298 H   0  0  0  0  0  0  0  0  0  0  0  0
   -3.4044   -1.5316   -0.1775 H   0  0  0  0  0  0  0  0  0  0  0  0
   -5.5894   -2.2322   -0.8808 H   0  0  0  0  0  0  0  0  0  0  0  0
    4.4287   -0.0286   -1.1407 H   0  0  0  0  0  0  0  0  0  0  0  0
   -0.9026    1.5938    2.0885 H   0  0  0  0  0  0  0  0  0  0  0  0
   -0.7862    3.1578    1.6354 H   0  0  0  0  0  0  0  0  0  0  0  0
    6.2885   -1.5817   -1.1172 H   0  0  0  0  0  0  0  0  0  0  0  0
    0.6792    2.8084   -2.3101 H   0  0  0  0  0  0  0  0  0  0  0  0
    0.2427    3.9547   -1.2320 H   0  0  0  0  0  0  0  0  0  0  0  0
   -7.3951   -0.6656   -1.4583 H   0  0  0  0  0  0  0  0  0  0  0  0
   -6.3933    0.7157   -1.0683 H   0  0  0  0  0  0  0  0  0  0  0  0
    8.0391   -0.0695   -0.0032 H   0  0  0  0  0  0  0  0  0  0  0  0
   -7.3583   -1.4606    0.8487 H   0  0  0  0  0  0  0  0  0  0  0  0
   -2.7769    1.8533   -3.6872 H   0  0  0  0  0  0  0  0  0  0  0  0
   -5.5231    0.9252    1.4864 H   0  0  0  0  0  0  0  0  0  0  0  0
    7.0843    2.1987    0.7728 H   0  0  0  0  0  0  0  0  0  0  0  0
    0.7085   -2.5388    1.7131 H   0  0  0  0  0  0  0  0  0  0  0  0
    2.1698   -3.5586    1.5823 H   0  0  0  0  0  0  0  0  0  0  0  0
    4.8001    2.0031   -0.0972 H   0  0  0  0  0  0  0  0  0  0  0  0
    2.2568   -0.8535   -3.4167 H   0  0  0  0  0  0  0  0  0  0  0  0
   -4.0651   -1.6398   -2.5961 H   0  0  0  0  0  0  0  0  0  0  0  0
   -5.6009   -1.3491   -3.0684 H   0  0  0  0  0  0  0  0  0  0  0  0
    5.0636    3.3351    1.9992 H   0  0  0  0  0  0  0  0  0  0  0  0
    4.7611    1.8801    2.9643 H   0  0  0  0  0  0  0  0  0  0  0  0
   -6.4269   -1.4205    3.2232 H   0  0  0  0  0  0  0  0  0  0  0  0
   -7.0066    0.2619    3.3737 H   0  0  0  0  0  0  0  0  0  0  0  0
    7.3310   -2.2037    0.8967 H   0  0  0  0  0  0  0  0  0  0  0  0
    5.7767   -2.7050    0.8866 H   0  0  0  0  0  0  0  0  0  0  0  0
    7.5378    1.6326   -1.4233 H   0  0  0  0  0  0  0  0  0  0  0  0
   -8.7974    0.2052    0.2696 H   0  0  0  0  0  0  0  0  0  0  0  0
    7.8739    0.6209    2.2151 H   0  0  0  0  0  0  0  0  0  0  0  0
    0.2446   -4.7505    1.8051 H   0  0  0  0  0  0  0  0  0  0  0  0
    2.8188    3.1924    2.6775 H   0  0  0  0  0  0  0  0  0  0  0  0
    2.8783    3.0377    1.0548 H   0  0  0  0  0  0  0  0  0  0  0  0
   -5.2807   -0.2300    4.7693 H   0  0  0  0  0  0  0  0  0  0  0  0
  1 19  1  0  0  0  0
  1 25  1  0  0  0  0
  2 20  1  0  0  0  0
  2 29  1  0  0  0  0
  3 25  1  0  0  0  0
  3 28  1  0  0  0  0
  4 26  1  0  0  0  0
  4 31  1  0  0  0  0
  5 22  1  0  0  0  0
  5 65  1  0  0  0  0
  6 29  1  0  0  0  0
  6 36  1  0  0  0  0
  7 31  1  0  0  0  0
  7 39  1  0  0  0  0
  8 27  1  0  0  0  0
  8 71  1  0  0  0  0
  9 34  1  0  0  0  0
  9 80  1  0  0  0  0
 10 35  1  0  0  0  0
 10 81  1  0  0  0  0
 11 37  1  0  0  0  0
 11 82  1  0  0  0  0
 12 38  1  0  0  0  0
 12 83  1  0  0  0  0
 13 41  1  0  0  0  0
 13 86  1  0  0  0  0
 14 21  1  0  0  0  0
 14 56  1  0  0  0  0
 14 57  1  0  0  0  0
 15 23  1  0  0  0  0
 15 59  1  0  0  0  0
 15 60  1  0  0  0  0
 16 30  1  0  0  0  0
 16 72  1  0  0  0  0
 16 73  1  0  0  0  0
 17 32  1  0  0  0  0
 17 78  1  0  0  0  0
 17 79  1  0  0  0  0
 18 40  1  0  0  0  0
 18 84  1  0  0  0  0
 18 85  1  0  0  0  0
 19 20  1  0  0  0  0
 19 22  1  0  0  0  0
 19 42  1  0  0  0  0
 20 21  1  0  0  0  0
 20 43  1  0  0  0  0
 21 24  1  0  0  0  0
 21 44  1  0  0  0  0
 22 23  1  0  0  0  0
 22 45  1  0  0  0  0
 23 24  1  0  0  0  0
 23 46  1  0  0  0  0
 24 47  1  0  0  0  0
 24 48  1  0  0  0  0
 25 27  1  0  0  0  0
 25 49  1  0  0  0  0
 26 27  1  0  0  0  0
 26 28  1  0  0  0  0
 26 50  1  0  0  0  0
 27 51  1  0  0  0  0
 28 38  1  0  0  0  0
 28 52  1  0  0  0  0
 29 30  1  0  0  0  0
 29 53  1  0  0  0  0
 30 33  1  0  0  0  0
 30 54  1  0  0  0  0
 31 32  1  0  0  0  0
 31 55  1  0  0  0  0
 32 34  1  0  0  0  0
 32 58  1  0  0  0  0
 33 35  1  0  0  0  0
 33 61  1  0  0  0  0
 33 62  1  0  0  0  0
 34 37  1  0  0  0  0
 34 63  1  0  0  0  0
 35 36  1  0  0  0  0
 35 64  1  0  0  0  0
 36 41  1  0  0  0  0
 36 66  1  0  0  0  0
 37 39  1  0  0  0  0
 37 67  1  0  0  0  0
 38 68  1  0  0  0  0
 38 69  1  0  0  0  0
 39 40  1  0  0  0  0
 39 70  1  0  0  0  0
 40 74  1  0  0  0  0
 40 75  1  0  0  0  0
 41 76  1  0  0  0  0
 41 77  1  0  0  0  0
M  END
> <PUBCHEM_COMPOUND_CID>
46174031

> <PUBCHEM_CONFORMER_RMSD>
1.2

> <PUBCHEM_CONFORMER_DIVERSEORDER>
1
18
25
23
8
4
26
15
45
34
21
27
22
46
37
19
14
13
12
24
39
49
44
17
48
9
16
38
5
29
11
30
32
42
41
31
6
36
20
40
28
7
10
47
35
43
3
33
2

> <PUBCHEM_MMFF94_PARTIAL_CHARGES>
56
1 -0.56
10 -0.68
11 -0.68
12 -0.68
13 -0.68
14 -0.99
15 -0.99
16 -0.99
17 -0.99
18 -0.99
19 0.28
2 -0.56
20 0.28
21 0.27
22 0.28
23 0.27
25 0.56
26 0.28
27 0.28
28 0.28
29 0.56
3 -0.56
30 0.27
31 0.56
32 0.27
34 0.28
35 0.28
36 0.28
37 0.28
38 0.28
39 0.28
4 -0.56
40 0.27
41 0.28
5 -0.68
56 0.36
57 0.36
59 0.36
6 -0.56
60 0.36
65 0.4
7 -0.56
71 0.4
72 0.36
73 0.36
78 0.36
79 0.36
8 -0.68
80 0.4
81 0.4
82 0.4
83 0.4
84 0.36
85 0.36
86 0.4
9 -0.68

> <PUBCHEM_EFFECTIVE_ROTOR_COUNT>
13.6

> <PUBCHEM_PHARMACOPHORE_FEATURES>
34
1 1 acceptor
1 10 acceptor
1 10 donor
1 11 acceptor
1 11 donor
1 12 acceptor
1 12 donor
1 13 acceptor
1 13 donor
1 14 cation
1 14 donor
1 15 cation
1 15 donor
1 16 cation
1 16 donor
1 17 cation
1 17 donor
1 18 cation
1 18 donor
1 2 acceptor
1 3 acceptor
1 4 acceptor
1 5 acceptor
1 5 donor
1 6 acceptor
1 7 acceptor
1 8 acceptor
1 8 donor
1 9 acceptor
1 9 donor
5 3 25 26 27 28 rings
6 19 20 21 22 23 24 rings
6 6 29 30 33 35 36 rings
6 7 31 32 34 37 39 rings

> <PUBCHEM_HEAVY_ATOM_COUNT>
41

> <PUBCHEM_ATOM_DEF_STEREO_COUNT>
18

> <PUBCHEM_ATOM_UDEF_STEREO_COUNT>
0

> <PUBCHEM_BOND_DEF_STEREO_COUNT>
0

> <PUBCHEM_BOND_UDEF_STEREO_COUNT>
0

> <PUBCHEM_ISOTOPIC_ATOM_COUNT>
0

> <PUBCHEM_COMPONENT_COUNT>
1

> <PUBCHEM_CACTVS_TAUTO_COUNT>
1

> <PUBCHEM_CONFORMER_ID>
02C08F4F00000001

> <PUBCHEM_MMFF94_ENERGY>
95.6246

> <PUBCHEM_FEATURE_SELFOVERLAP>
172.677

> <PUBCHEM_SHAPE_FINGERPRINT>
10673678 19 16298385717693275862
11578080 2 18197510725707803629
12422481 6 18338235964436387317
12664476 115 18333733512414318468
12758862 65 17559934564071130881
12977781 61 15049516580070769306
13782708 43 18058168513376530906
14068700 686 18129947913111696143
14394314 77 18410291437461668547
14840074 17 18335424560659645327
14856354 85 15864075330439479831
15183329 4 10303817591950043596
15328829 1 16660660514026790581
18608769 82 18336834079021710910
21458453 9 18269830921960228667
22223350 30 18052534370380621546
23576562 1 6338652103543095763
27425 322 4822627900453948846
2747138 104 18201429290137105446
392239 28 18333733511264169083
469060 322 18201710786467560925
4918855 1 16588031190578462657
6009941 240 17560802186958287773
77296 10 15051738577216078807

> <PUBCHEM_SHAPE_MULTIPOLES>
742.55
19.76
3.37
2.72
1.59
0.64
-0.83
0.17
-9.44
2
-0.19
-2.85
-0.66
1.79

> <PUBCHEM_SHAPE_SELFOVERLAP>
1537.883

> <PUBCHEM_SHAPE_VOLUME>
417.2

> <PUBCHEM_COORDINATE_TYPE>
2
5
10

$$$$

