9552
  -OEChem-06261203482D

 24 24  0     0  0  0  0  0  0999 V2000
    3.2232    0.7895    0.0000 F   0  0  0  0  0  0  0  0  0  0  0  0
    2.0000   -0.4765    0.0000 F   0  0  0  0  0  0  0  0  0  0  0  0
    2.5000    0.3895    0.0000 F   0  0  0  0  0  0  0  0  0  0  0  0
    5.7320   -0.4765    0.0000 F   0  0  0  0  0  0  0  0  0  0  0  0
    5.4981    0.1663    0.0000 F   0  0  0  0  0  0  0  0  0  0  0  0
    2.5000   -2.3426    0.0000 F   0  0  0  0  0  0  0  0  0  0  0  0
    2.0000   -1.4765    0.0000 F   0  0  0  0  0  0  0  0  0  0  0  0
    5.2320   -2.3426    0.0000 F   0  0  0  0  0  0  0  0  0  0  0  0
    5.7320   -1.4765    0.0000 F   0  0  0  0  0  0  0  0  0  0  0  0
    3.3660   -2.8426    0.0000 F   0  0  0  0  0  0  0  0  0  0  0  0
    4.3660   -2.8426    0.0000 F   0  0  0  0  0  0  0  0  0  0  0  0
    3.3420    1.4632    0.0000 F   0  0  0  0  0  0  0  0  0  0  0  0
    5.2080    0.9632    0.0000 F   0  0  0  0  0  0  0  0  0  0  0  0
    4.8921    2.8426    0.0000 F   0  0  0  0  0  0  0  0  0  0  0  0
    3.6104    2.2449    0.0000 F   0  0  0  0  0  0  0  0  0  0  0  0
    5.4898    1.5608    0.0000 F   0  0  0  0  0  0  0  0  0  0  0  0
    3.8660    0.0235    0.0000 C   0  0  0  0  0  0  0  0  0  0  0  0
    3.0000   -0.4765    0.0000 C   0  0  0  0  0  0  0  0  0  0  0  0
    4.7320   -0.4765    0.0000 C   0  0  0  0  0  0  0  0  0  0  0  0
    3.0000   -1.4765    0.0000 C   0  0  0  0  0  0  0  0  0  0  0  0
    4.7320   -1.4765    0.0000 C   0  0  0  0  0  0  0  0  0  0  0  0
    3.8660   -1.9765    0.0000 C   0  0  0  0  0  0  0  0  0  0  0  0
    4.2080    0.9632    0.0000 C   0  0  0  0  0  0  0  0  0  0  0  0
    4.5501    1.9029    0.0000 C   0  0  0  0  0  0  0  0  0  0  0  0
  1 17  1  0  0  0  0
  2 18  1  0  0  0  0
  3 18  1  0  0  0  0
  4 19  1  0  0  0  0
  5 19  1  0  0  0  0
  6 20  1  0  0  0  0
  7 20  1  0  0  0  0
  8 21  1  0  0  0  0
  9 21  1  0  0  0  0
 10 22  1  0  0  0  0
 11 22  1  0  0  0  0
 12 23  1  0  0  0  0
 13 23  1  0  0  0  0
 14 24  1  0  0  0  0
 15 24  1  0  0  0  0
 16 24  1  0  0  0  0
 17 18  1  0  0  0  0
 17 19  1  0  0  0  0
 17 23  1  0  0  0  0
 18 20  1  0  0  0  0
 19 21  1  0  0  0  0
 20 22  1  0  0  0  0
 21 22  1  0  0  0  0
 23 24  1  0  0  0  0
M  END
> <PUBCHEM_COMPOUND_CID>
9552

> <PUBCHEM_COMPOUND_CANONICALIZED>
1

> <PUBCHEM_CACTVS_COMPLEXITY>
493

> <PUBCHEM_CACTVS_HBOND_ACCEPTOR>
16

> <PUBCHEM_CACTVS_HBOND_DONOR>
0

> <PUBCHEM_CACTVS_ROTATABLE_BOND>
1

> <PUBCHEM_CACTVS_SUBSKEYS>
AAADcQBwAcAAAAAAAAAAAAAAAAAAAAAAAAAwAAAAAAAAAAAAAAAACQAAAAAADAAAABAAAAAAAAAAAAAAAAAAAAAAAAAAAAAAAAAAAAIAAAAAAAAAAAAAAAEAgIAOAAAAAAAAAAAAAAAAAAAAAAAAAAAAAA==

> <PUBCHEM_IUPAC_OPENEYE_NAME>
1,1,2,2,3,3,4,4,5,5,6-undecafluoro-6-(1,1,2,2,2-pentafluoroethyl)cyclohexane

> <PUBCHEM_IUPAC_CAS_NAME>
1,1,2,2,3,3,4,4,5,5,6-undecafluoro-6-(1,1,2,2,2-pentafluoroethyl)cyclohexane

> <PUBCHEM_IUPAC_NAME>
1,1,2,2,3,3,4,4,5,5,6-undecafluoro-6-(1,1,2,2,2-pentafluoroethyl)cyclohexane

> <PUBCHEM_IUPAC_SYSTEMATIC_NAME>
1,1,2,2,3,3,4,4,5,5,6-undecakis(fluoranyl)-6-[1,1,2,2,2-pentakis(fluoranyl)ethyl]cyclohexane

> <PUBCHEM_IUPAC_TRADITIONAL_NAME>
1,1,2,2,3,3,4,4,5,5,6-undecafluoro-6-(1,1,2,2,2-pentafluoroethyl)cyclohexane

> <PUBCHEM_IUPAC_INCHI>
InChI=1S/C8F16/c9-1(4(14,15)8(22,23)24)2(10,11)5(16,17)7(20,21)6(18,19)3(1,12)13

> <PUBCHEM_IUPAC_INCHIKEY>
SEEJHICDPXGSRQ-UHFFFAOYSA-N

> <PUBCHEM_XLOGP3_AA>
5.4

> <PUBCHEM_EXACT_MASS>
399.974452

> <PUBCHEM_MOLECULAR_FORMULA>
C8F16

> <PUBCHEM_MOLECULAR_WEIGHT>
400.060051

> <PUBCHEM_OPENEYE_CAN_SMILES>
C1(C(C(C(C(C1(F)F)(F)F)(F)F)(F)F)(F)F)(C(C(F)(F)F)(F)F)F

> <PUBCHEM_OPENEYE_ISO_SMILES>
C1(C(C(C(C(C1(F)F)(F)F)(F)F)(F)F)(F)F)(C(C(F)(F)F)(F)F)F

> <PUBCHEM_CACTVS_TPSA>
0

> <PUBCHEM_MONOISOTOPIC_WEIGHT>
399.974452

> <PUBCHEM_TOTAL_CHARGE>
0

> <PUBCHEM_HEAVY_ATOM_COUNT>
24

> <PUBCHEM_ATOM_DEF_STEREO_COUNT>
0

> <PUBCHEM_ATOM_UDEF_STEREO_COUNT>
0

> <PUBCHEM_BOND_DEF_STEREO_COUNT>
0

> <PUBCHEM_BOND_UDEF_STEREO_COUNT>
0

> <PUBCHEM_ISOTOPIC_ATOM_COUNT>
0

> <PUBCHEM_COMPONENT_COUNT>
1

> <PUBCHEM_CACTVS_TAUTO_COUNT>
1

> <PUBCHEM_COORDINATE_TYPE>
1
5
255

$$$$

