13019103
  -OEChem-07051213113D

 52 53  0     1  0  0  0  0  0999 V2000
   -0.7871   -0.2806   -0.5155 O   0  0  0  0  0  0  0  0  0  0  0  0
    3.6624    0.4694   -1.2641 O   0  0  0  0  0  0  0  0  0  0  0  0
   -2.6160    0.0241    0.9558 O   0  0  0  0  0  0  0  0  0  0  0  0
    0.8607   -1.9532    1.0935 O   0  0  0  0  0  0  0  0  0  0  0  0
    3.7366   -1.5246    0.7688 N   0  0  0  0  0  0  0  0  0  0  0  0
   -0.0884    2.5294   -0.4475 N   0  0  0  0  0  0  0  0  0  0  0  0
   -1.5948   -2.9894   -0.9758 N   0  0  0  0  0  0  0  0  0  0  0  0
   -3.5374    2.6470    1.4594 N   0  0  0  0  0  0  0  0  0  0  0  0
    0.3627    0.1980    0.1892 C   0  0  1  0  0  0  0  0  0  0  0  0
    2.7416   -0.4488    0.8147 C   0  0  2  0  0  0  0  0  0  0  0  0
    1.3993   -0.9348    0.2446 C   0  0  1  0  0  0  0  0  0  0  0  0
    0.8931    1.4424   -0.5363 C   0  0  2  0  0  0  0  0  0  0  0  0
    3.2765    0.7869    0.0732 C   0  0  2  0  0  0  0  0  0  0  0  0
    2.2349    1.9080    0.0463 C   0  0  0  0  0  0  0  0  0  0  0  0
   -1.7068   -0.9156    0.3702 C   0  0  1  0  0  0  0  0  0  0  0  0
   -2.4916   -2.0177   -0.3563 C   0  0  1  0  0  0  0  0  0  0  0  0
   -3.4275   -1.4138   -1.4065 C   0  0  0  0  0  0  0  0  0  0  0  0
   -3.4617    0.6732   -0.0008 C   0  0  1  0  0  0  0  0  0  0  0  0
   -4.3101   -0.3493   -0.7594 C   0  0  0  0  0  0  0  0  0  0  0  0
   -4.3428    1.6583    0.7561 C   0  0  0  0  0  0  0  0  0  0  0  0
    4.9720   -1.1049    1.4083 C   0  0  0  0  0  0  0  0  0  0  0  0
    4.2244    1.5957   -1.9180 C   0  0  0  0  0  0  0  0  0  0  0  0
    0.0769    0.4856    1.2126 H   0  0  0  0  0  0  0  0  0  0  0  0
    2.5690   -0.1888    1.8689 H   0  0  0  0  0  0  0  0  0  0  0  0
    1.5216   -1.3749   -0.7533 H   0  0  0  0  0  0  0  0  0  0  0  0
    1.0213    1.2095   -1.6010 H   0  0  0  0  0  0  0  0  0  0  0  0
    4.1506    1.1851    0.6036 H   0  0  0  0  0  0  0  0  0  0  0  0
    2.5846    2.8000   -0.4834 H   0  0  0  0  0  0  0  0  0  0  0  0
    2.0706    2.2356    1.0833 H   0  0  0  0  0  0  0  0  0  0  0  0
   -1.2166   -1.3804    1.2259 H   0  0  0  0  0  0  0  0  0  0  0  0
   -3.1146   -2.5392    0.3825 H   0  0  0  0  0  0  0  0  0  0  0  0
    3.9233   -1.7896   -0.1977 H   0  0  0  0  0  0  0  0  0  0  0  0
   -4.0586   -2.1914   -1.8534 H   0  0  0  0  0  0  0  0  0  0  0  0
   -2.8507   -0.9608   -2.2231 H   0  0  0  0  0  0  0  0  0  0  0  0
   -2.8403    1.2248   -0.7156 H   0  0  0  0  0  0  0  0  0  0  0  0
   -4.9198    0.1464   -1.5231 H   0  0  0  0  0  0  0  0  0  0  0  0
   -4.9973   -0.8476   -0.0635 H   0  0  0  0  0  0  0  0  0  0  0  0
   -0.9437    2.2526   -0.9256 H   0  0  0  0  0  0  0  0  0  0  0  0
    0.2626    3.3477   -0.9436 H   0  0  0  0  0  0  0  0  0  0  0  0
    1.5217   -2.6647    1.1450 H   0  0  0  0  0  0  0  0  0  0  0  0
   -4.9526    1.1319    1.4989 H   0  0  0  0  0  0  0  0  0  0  0  0
   -5.0248    2.1722    0.0703 H   0  0  0  0  0  0  0  0  0  0  0  0
    4.8008   -0.6570    2.3930 H   0  0  0  0  0  0  0  0  0  0  0  0
    5.5603   -0.4212    0.7891 H   0  0  0  0  0  0  0  0  0  0  0  0
    5.5974   -1.9896    1.5692 H   0  0  0  0  0  0  0  0  0  0  0  0
   -2.1392   -3.7427   -1.3937 H   0  0  0  0  0  0  0  0  0  0  0  0
   -1.0074   -3.4181   -0.2619 H   0  0  0  0  0  0  0  0  0  0  0  0
    4.8198    1.2249   -2.7581 H   0  0  0  0  0  0  0  0  0  0  0  0
    4.8915    2.1695   -1.2664 H   0  0  0  0  0  0  0  0  0  0  0  0
    3.4435    2.2326   -2.3428 H   0  0  0  0  0  0  0  0  0  0  0  0
   -2.9580    3.1536    0.7907 H   0  0  0  0  0  0  0  0  0  0  0  0
   -2.8875    2.1731    2.0861 H   0  0  0  0  0  0  0  0  0  0  0  0
  1  9  1  0  0  0  0
  1 15  1  0  0  0  0
  2 13  1  0  0  0  0
  2 22  1  0  0  0  0
  3 15  1  0  0  0  0
  3 18  1  0  0  0  0
  4 11  1  0  0  0  0
  4 40  1  0  0  0  0
  5 10  1  0  0  0  0
  5 21  1  0  0  0  0
  5 32  1  0  0  0  0
  6 12  1  0  0  0  0
  6 38  1  0  0  0  0
  6 39  1  0  0  0  0
  7 16  1  0  0  0  0
  7 46  1  0  0  0  0
  7 47  1  0  0  0  0
  8 20  1  0  0  0  0
  8 51  1  0  0  0  0
  8 52  1  0  0  0  0
  9 11  1  0  0  0  0
  9 12  1  0  0  0  0
  9 23  1  0  0  0  0
 10 11  1  0  0  0  0
 10 13  1  0  0  0  0
 10 24  1  0  0  0  0
 11 25  1  0  0  0  0
 12 14  1  0  0  0  0
 12 26  1  0  0  0  0
 13 14  1  0  0  0  0
 13 27  1  0  0  0  0
 14 28  1  0  0  0  0
 14 29  1  0  0  0  0
 15 16  1  0  0  0  0
 15 30  1  0  0  0  0
 16 17  1  0  0  0  0
 16 31  1  0  0  0  0
 17 19  1  0  0  0  0
 17 33  1  0  0  0  0
 17 34  1  0  0  0  0
 18 19  1  0  0  0  0
 18 20  1  0  0  0  0
 18 35  1  0  0  0  0
 19 36  1  0  0  0  0
 19 37  1  0  0  0  0
 20 41  1  0  0  0  0
 20 42  1  0  0  0  0
 21 43  1  0  0  0  0
 21 44  1  0  0  0  0
 21 45  1  0  0  0  0
 22 48  1  0  0  0  0
 22 49  1  0  0  0  0
 22 50  1  0  0  0  0
M  END
> <PUBCHEM_COMPOUND_CID>
13019103

> <PUBCHEM_CONFORMER_RMSD>
0.8

> <PUBCHEM_CONFORMER_DIVERSEORDER>
5
20
12
16
14
15
28
21
29
25
26
2
22
18
27
10
7
24
4
19
23
6
8
3
11
9
17
1
13

> <PUBCHEM_MMFF94_PARTIAL_CHARGES>
27
1 -0.56
10 0.27
11 0.28
12 0.27
13 0.28
15 0.56
16 0.27
18 0.28
2 -0.56
20 0.27
21 0.27
22 0.28
3 -0.56
32 0.36
38 0.36
39 0.36
4 -0.68
40 0.4
46 0.36
47 0.36
5 -0.9
51 0.36
52 0.36
6 -0.99
7 -0.99
8 -0.99
9 0.28

> <PUBCHEM_EFFECTIVE_ROTOR_COUNT>
7.4

> <PUBCHEM_PHARMACOPHORE_FEATURES>
15
1 1 acceptor
1 2 acceptor
1 3 acceptor
1 4 acceptor
1 4 donor
1 5 cation
1 5 donor
1 6 cation
1 6 donor
1 7 cation
1 7 donor
1 8 cation
1 8 donor
6 3 15 16 17 18 19 rings
6 9 10 11 12 13 14 rings

> <PUBCHEM_HEAVY_ATOM_COUNT>
22

> <PUBCHEM_ATOM_DEF_STEREO_COUNT>
8

> <PUBCHEM_ATOM_UDEF_STEREO_COUNT>
0

> <PUBCHEM_BOND_DEF_STEREO_COUNT>
0

> <PUBCHEM_BOND_UDEF_STEREO_COUNT>
0

> <PUBCHEM_ISOTOPIC_ATOM_COUNT>
0

> <PUBCHEM_COMPONENT_COUNT>
1

> <PUBCHEM_CACTVS_TAUTO_COUNT>
1

> <PUBCHEM_CONFORMER_ID>
00C6A7DF00000005

> <PUBCHEM_MMFF94_ENERGY>
45.5994

> <PUBCHEM_FEATURE_SELFOVERLAP>
76.157

> <PUBCHEM_SHAPE_FINGERPRINT>
10062212 137 18412832364997829106
10369192 42 14977672085825558398
10906281 52 18272360980822751178
12236239 1 18410582790108961563
12553582 1 18412542098344155380
12596599 1 18042113293725176942
12788726 201 18187080621083083737
13140716 1 18342460330990942930
13760787 5 17988925574082925460
14178342 30 18265349317066310434
14739800 52 17970643900213009416
15238133 3 18188486994670136392
15442244 35 18410016532803758505
16752209 62 18113345184943855263
17492 89 18195254316708732162
17818456 19 18116716424658705640
1813 80 17702663410082485950
18186145 218 18263921034218500352
19078846 21 18409168814076926008
192875 21 18189916257028250615
20281475 54 18201160962039418150
20612939 158 17917997165881416102
20645477 70 17560809822671765322
20739085 24 17845924221519914188
21267235 1 18412263934708511467
21634736 98 18121502349460589397
23402539 116 18261408774629399655
23557571 272 17240489086902631465
23559900 14 17240753013207550740
23598291 2 18412549807647122783
25147074 1 18343018904910973728
2748010 2 16904675984007908706
2838139 119 17487639622241763429
312423 11 18271806795889921122
474 4 17989207005893639771
5104073 3 18341896268451159809
543358 83 18342453742780343796
633830 44 18273204309813503478
6992083 37 18411982472953922997
7064713 232 18188781663569634824
74978 22 18265899064327017911
7832392 63 18409164376922080601
9981440 41 17404033521710239048

> <PUBCHEM_SHAPE_MULTIPOLES>
409.35
9.46
2.75
1.38
1.51
0.14
-0.23
0.87
0.18
-1.09
0.01
0.58
0.15
-2.9

> <PUBCHEM_SHAPE_SELFOVERLAP>
821.823

> <PUBCHEM_SHAPE_VOLUME>
238.2

> <PUBCHEM_COORDINATE_TYPE>
2
5
10

$$$$

