25245435
  -OEChem-07051213103D

 57 59  0     1  0  0  0  0  0999 V2000
   -1.2892    2.5250    0.4628 P   0  0  2  0  0  0  0  0  0  0  0  0
   -4.1586    2.0215    0.0497 P   0  0  1  0  0  0  0  0  0  0  0  0
    2.4397    1.4397   -1.4298 O   0  0  0  0  0  0  0  0  0  0  0  0
    2.2222   -0.0257   -4.0365 O   0  0  0  0  0  0  0  0  0  0  0  0
    3.2880   -1.9124   -2.3802 O   0  0  0  0  0  0  0  0  0  0  0  0
   -0.1055    2.3168   -0.6201 O   0  0  0  0  0  0  0  0  0  0  0  0
   -2.4828   -1.0598    0.9121 O   0  0  0  0  0  0  0  0  0  0  0  0
   -4.1331    0.6044    0.8226 O   0  0  0  0  0  0  0  0  0  0  0  0
   -2.6272    2.2666   -0.4067 O   0  0  0  0  0  0  0  0  0  0  0  0
   -5.1578   -1.9410    1.3834 O   0  0  0  0  0  0  0  0  0  0  0  0
    5.8156   -0.7222   -0.5701 O   0  0  0  0  0  0  0  0  0  0  0  0
   -1.3168    4.1239    0.7063 O   0  0  0  0  0  0  0  0  0  0  0  0
   -2.5635   -4.4542    0.2442 O   0  0  0  0  0  0  0  0  0  0  0  0
   -1.1846    1.6957    1.7093 O   0  0  0  0  0  0  0  0  0  0  0  0
   -4.9160    1.7108   -1.3456 O   0  0  0  0  0  0  0  0  0  0  0  0
   -4.7539    3.1511    0.8393 O   0  0  0  0  0  0  0  0  0  0  0  0
    3.7640    0.1603    0.0105 N   0  0  0  0  0  0  0  0  0  0  0  0
    5.4202   -0.4654    1.6502 N   0  0  0  0  0  0  0  0  0  0  0  0
    5.0085   -0.2002    3.9234 N   0  0  0  0  0  0  0  0  0  0  0  0
    1.5454   -0.2702   -2.8038 C   0  0  1  0  0  0  0  0  0  0  0  0
    2.4899   -0.8999   -1.8020 C   0  0  2  0  0  0  0  0  0  0  0  0
    1.2463    1.0758   -2.1577 C   0  0  1  0  0  0  0  0  0  0  0  0
    3.3056    0.2962   -1.3427 C   0  0  1  0  0  0  0  0  0  0  0  0
    0.0862    1.0262   -1.1726 C   0  0  0  0  0  0  0  0  0  0  0  0
    2.9237    0.5537    1.0407 C   0  0  0  0  0  0  0  0  0  0  0  0
   -4.6867   -1.6070    0.0756 C   0  0  1  0  0  0  0  0  0  0  0  0
    5.0446   -0.3629    0.3216 C   0  0  0  0  0  0  0  0  0  0  0  0
   -3.5920   -0.5438    0.1764 C   0  0  2  0  0  0  0  0  0  0  0  0
   -4.1680   -2.8806   -0.5774 C   0  0  0  0  0  0  0  0  0  0  0  0
   -1.8421   -2.1418    0.2469 C   0  0  2  0  0  0  0  0  0  0  0  0
   -2.8396   -3.2743    0.0332 C   0  0  0  0  0  0  0  0  0  0  0  0
    3.2660    0.4627    2.3244 C   0  0  0  0  0  0  0  0  0  0  0  0
   -0.6641   -2.5793    1.1030 C   0  0  0  0  0  0  0  0  0  0  0  0
    4.6158   -0.0898    2.6097 C   0  0  0  0  0  0  0  0  0  0  0  0
    0.6646   -0.8827   -3.0170 H   0  0  0  0  0  0  0  0  0  0  0  0
    1.9225   -1.3386   -0.9722 H   0  0  0  0  0  0  0  0  0  0  0  0
    1.0746    1.8677   -2.8955 H   0  0  0  0  0  0  0  0  0  0  0  0
    4.1651    0.4679   -2.0019 H   0  0  0  0  0  0  0  0  0  0  0  0
    0.2567    0.3149   -0.3611 H   0  0  0  0  0  0  0  0  0  0  0  0
   -0.8289    0.7289   -1.6958 H   0  0  0  0  0  0  0  0  0  0  0  0
    1.5906    0.4118   -4.6327 H   0  0  0  0  0  0  0  0  0  0  0  0
    2.6876   -2.5848   -2.7450 H   0  0  0  0  0  0  0  0  0  0  0  0
    1.9516    0.9529    0.7975 H   0  0  0  0  0  0  0  0  0  0  0  0
   -5.5452   -1.2109   -0.4780 H   0  0  0  0  0  0  0  0  0  0  0  0
   -3.2463   -0.2687   -0.8277 H   0  0  0  0  0  0  0  0  0  0  0  0
   -4.0054   -2.7268   -1.6495 H   0  0  0  0  0  0  0  0  0  0  0  0
   -4.8730   -3.7075   -0.4403 H   0  0  0  0  0  0  0  0  0  0  0  0
   -1.4748   -1.8121   -0.7321 H   0  0  0  0  0  0  0  0  0  0  0  0
    2.6157    0.7683    3.1331 H   0  0  0  0  0  0  0  0  0  0  0  0
    0.0176   -1.7396    1.2764 H   0  0  0  0  0  0  0  0  0  0  0  0
   -0.1042   -3.3913    0.6286 H   0  0  0  0  0  0  0  0  0  0  0  0
   -1.0008   -2.9235    2.0875 H   0  0  0  0  0  0  0  0  0  0  0  0
   -5.8845   -2.5789    1.2800 H   0  0  0  0  0  0  0  0  0  0  0  0
   -1.4130    4.7193   -0.0673 H   0  0  0  0  0  0  0  0  0  0  0  0
    4.4071    0.0824    4.6902 H   0  0  0  0  0  0  0  0  0  0  0  0
    5.9210   -0.5718    4.1645 H   0  0  0  0  0  0  0  0  0  0  0  0
   -5.1690    2.4607   -1.9251 H   0  0  0  0  0  0  0  0  0  0  0  0
  1  6  1  0  0  0  0
  1  9  1  0  0  0  0
  1 12  1  0  0  0  0
  1 14  2  0  0  0  0
  2  8  1  0  0  0  0
  2  9  1  0  0  0  0
  2 15  1  0  0  0  0
  2 16  2  0  0  0  0
  3 22  1  0  0  0  0
  3 23  1  0  0  0  0
  4 20  1  0  0  0  0
  4 41  1  0  0  0  0
  5 21  1  0  0  0  0
  5 42  1  0  0  0  0
  6 24  1  0  0  0  0
  7 28  1  0  0  0  0
  7 30  1  0  0  0  0
  8 28  1  0  0  0  0
 10 26  1  0  0  0  0
 10 53  1  0  0  0  0
 11 27  2  0  0  0  0
 12 54  1  0  0  0  0
 13 31  2  0  0  0  0
 15 57  1  0  0  0  0
 17 23  1  0  0  0  0
 17 25  1  0  0  0  0
 17 27  1  0  0  0  0
 18 27  1  0  0  0  0
 18 34  2  0  0  0  0
 19 34  1  0  0  0  0
 19 55  1  0  0  0  0
 19 56  1  0  0  0  0
 20 21  1  0  0  0  0
 20 22  1  0  0  0  0
 20 35  1  0  0  0  0
 21 23  1  0  0  0  0
 21 36  1  0  0  0  0
 22 24  1  0  0  0  0
 22 37  1  0  0  0  0
 23 38  1  0  0  0  0
 24 39  1  0  0  0  0
 24 40  1  0  0  0  0
 25 32  2  0  0  0  0
 25 43  1  0  0  0  0
 26 28  1  0  0  0  0
 26 29  1  0  0  0  0
 26 44  1  0  0  0  0
 28 45  1  0  0  0  0
 29 31  1  0  0  0  0
 29 46  1  0  0  0  0
 29 47  1  0  0  0  0
 30 31  1  0  0  0  0
 30 33  1  0  0  0  0
 30 48  1  0  0  0  0
 32 34  1  0  0  0  0
 32 49  1  0  0  0  0
 33 50  1  0  0  0  0
 33 51  1  0  0  0  0
 33 52  1  0  0  0  0
M  END
> <PUBCHEM_COMPOUND_CID>
25245435

> <PUBCHEM_CONFORMER_RMSD>
1.6

> <PUBCHEM_CONFORMER_DIVERSEORDER>
1
69
23
91
78
25
59
82
29
94
72
35
62
44
26
83
55
37
56
68
40
74
51
42
103
65
100
30
87
10
31
101
19
90
84
76
81
80
48
71
88
20
13
86
41
45
28
33
57
18
4
85
96
5
58
12
95
34
22
54
60
21
67
52
14
2
46
39
36
47
79
43
38
73
24
63
16
93
3
49
15
92
89
32
9
70
66
75
27
99
53
104
98
17
50
97
11
8
61
102
77
64
7
6

> <PUBCHEM_MMFF94_PARTIAL_CHARGES>
42
1 1.51
10 -0.68
11 -0.57
12 -0.77
13 -0.57
14 -0.7
15 -0.77
16 -0.7
17 -0.47
18 -0.66
19 -0.85
2 1.51
20 0.28
21 0.28
22 0.28
23 0.58
24 0.28
25 -0.04
26 0.28
27 0.84
28 0.56
29 0.06
3 -0.56
30 0.34
31 0.45
32 -0.14
34 0.49
4 -0.68
41 0.4
42 0.4
43 0.15
49 0.15
5 -0.68
53 0.4
54 0.5
55 0.4
56 0.4
57 0.5
6 -0.55
7 -0.56
8 -0.55
9 -0.54

> <PUBCHEM_EFFECTIVE_ROTOR_COUNT>
10

> <PUBCHEM_PHARMACOPHORE_FEATURES>
19
1 10 acceptor
1 10 donor
1 11 acceptor
1 12 acceptor
1 13 acceptor
1 14 acceptor
1 15 acceptor
1 16 acceptor
1 18 donor
1 19 donor
1 3 acceptor
1 4 acceptor
1 4 donor
1 5 acceptor
1 5 donor
1 7 acceptor
5 3 20 21 22 23 rings
6 17 18 25 27 32 34 rings
6 7 26 28 29 30 31 rings

> <PUBCHEM_HEAVY_ATOM_COUNT>
34

> <PUBCHEM_ATOM_DEF_STEREO_COUNT>
7

> <PUBCHEM_ATOM_UDEF_STEREO_COUNT>
0

> <PUBCHEM_BOND_DEF_STEREO_COUNT>
0

> <PUBCHEM_BOND_UDEF_STEREO_COUNT>
0

> <PUBCHEM_ISOTOPIC_ATOM_COUNT>
0

> <PUBCHEM_COMPONENT_COUNT>
1

> <PUBCHEM_CACTVS_TAUTO_COUNT>
9

> <PUBCHEM_CONFORMER_ID>
018136FB00000001

> <PUBCHEM_MMFF94_ENERGY>
44.8149

> <PUBCHEM_FEATURE_SELFOVERLAP>
96.497

> <PUBCHEM_SHAPE_FINGERPRINT>
11135926 11 15482661378552114542
11513181 2 18190478236130185415
11828532 37 18123479276633702971
12128747 34 18187926261447561838
12166972 35 17488749964949007115
12422481 6 17558842916301613242
12712778 12 18341066137557167137
12788726 201 18198322010179227269
13726171 33 18122030192357601733
14081887 123 18334856147074987981
14508693 111 18199463273189615970
14705955 166 17603576469652496537
15297060 5 18263080079843646403
15320294 125 17988370368171992411
15484559 13 14106325965258308830
161222 619 17241057474649159696
17809404 112 17967525770782105959
17818456 19 18272370836754706942
20511986 3 17632577141329441908
20554085 129 18192720166578314881
20600515 1 18408608088685228689
21033648 29 17967536774324540898
21458453 9 17534075072851209618
23557571 272 18260823791430556819
23559900 14 18116420613160457676
3052486 1 18343577456242728166
3383291 50 18408887326874878419
3459 110 16950855691059403334
3882209 13 17465967964089861839
4394409 98 18129402478794900823
508706 21 18335415764434845095

> <PUBCHEM_SHAPE_MULTIPOLES>
610.29
12.26
4.04
3.02
3.3
0.38
0.66
2.64
-5.19
-7.49
-0.58
5.71
0.1
0.2

> <PUBCHEM_SHAPE_SELFOVERLAP>
1246.795

> <PUBCHEM_SHAPE_VOLUME>
355

> <PUBCHEM_COORDINATE_TYPE>
2
5
10

$$$$

