17396424
  -OEChem-06241222562D

 44 46  0     1  0  0  0  0  0999 V2000
    3.4782   -2.1168    0.0000 S   0  0  0  0  0  0  0  0  0  0  0  0
    9.5972    1.3768    0.0000 S   0  0  0  0  0  0  0  0  0  0  0  0
    6.4167   -0.3216    0.0000 O   0  0  0  0  0  0  0  0  0  0  0  0
    5.3147   -1.1222    0.0000 O   0  0  0  0  0  0  0  0  0  0  0  0
   11.6004    0.7858    0.0000 O   0  0  0  0  0  0  0  0  0  0  0  0
    4.4487    0.3778    0.0000 N   0  0  0  0  0  0  0  0  0  0  0  0
    6.9519    1.3257    0.0000 N   0  0  0  0  0  0  0  0  0  0  0  0
    5.2577    0.9656    0.0000 C   0  0  1  0  0  0  0  0  0  0  0  0
    4.9487    1.9166    0.0000 C   0  0  0  0  0  0  0  0  0  0  0  0
    3.9487    1.9166    0.0000 C   0  0  0  0  0  0  0  0  0  0  0  0
    3.6397    0.9656    0.0000 C   0  0  0  0  0  0  0  0  0  0  0  0
    6.2088    0.6565    0.0000 C   0  0  0  0  0  0  0  0  0  0  0  0
    4.4487   -0.6222    0.0000 C   0  0  0  0  0  0  0  0  0  0  0  0
    3.5827   -1.1222    0.0000 C   0  0  0  0  0  0  0  0  0  0  0  0
    7.9030    1.0166    0.0000 C   0  0  0  0  0  0  0  0  0  0  0  0
    8.6461    1.6858    0.0000 C   0  0  0  0  0  0  0  0  0  0  0  0
    2.6691   -0.7155    0.0000 C   0  0  0  0  0  0  0  0  0  0  0  0
    2.0000   -1.4586    0.0000 C   0  0  0  0  0  0  0  0  0  0  0  0
    2.5000   -2.3247    0.0000 C   0  0  0  0  0  0  0  0  0  0  0  0
   10.3403    2.0459    0.0000 C   0  0  0  0  0  0  0  0  0  0  0  0
   11.2914    1.7369    0.0000 C   0  0  0  0  0  0  0  0  0  0  0  0
   12.1004    2.3247    0.0000 C   0  0  0  0  0  0  0  0  0  0  0  0
   12.9094    1.7369    0.0000 C   0  0  0  0  0  0  0  0  0  0  0  0
   12.6004    0.7858    0.0000 C   0  0  0  0  0  0  0  0  0  0  0  0
    5.3547    0.3532    0.0000 H   0  0  0  0  0  0  0  0  0  0  0  0
    5.5552    2.0455    0.0000 H   0  0  0  0  0  0  0  0  0  0  0  0
    4.8839    2.5332    0.0000 H   0  0  0  0  0  0  0  0  0  0  0  0
    4.0135    2.5332    0.0000 H   0  0  0  0  0  0  0  0  0  0  0  0
    3.3422    2.0455    0.0000 H   0  0  0  0  0  0  0  0  0  0  0  0
    3.0733    1.2177    0.0000 H   0  0  0  0  0  0  0  0  0  0  0  0
    3.3297    0.4286    0.0000 H   0  0  0  0  0  0  0  0  0  0  0  0
    6.8230    1.9321    0.0000 H   0  0  0  0  0  0  0  0  0  0  0  0
    7.6119    0.4692    0.0000 H   0  0  0  0  0  0  0  0  0  0  0  0
    8.3915    0.6349    0.0000 H   0  0  0  0  0  0  0  0  0  0  0  0
    8.9372    2.2332    0.0000 H   0  0  0  0  0  0  0  0  0  0  0  0
    8.1576    2.0675    0.0000 H   0  0  0  0  0  0  0  0  0  0  0  0
    2.5402   -0.1090    0.0000 H   0  0  0  0  0  0  0  0  0  0  0  0
    1.3834   -1.3938    0.0000 H   0  0  0  0  0  0  0  0  0  0  0  0
    2.2478   -2.8911    0.0000 H   0  0  0  0  0  0  0  0  0  0  0  0
   10.6314    2.5933    0.0000 H   0  0  0  0  0  0  0  0  0  0  0  0
    9.8518    2.4276    0.0000 H   0  0  0  0  0  0  0  0  0  0  0  0
   12.1004    2.9447    0.0000 H   0  0  0  0  0  0  0  0  0  0  0  0
   13.4991    1.9285    0.0000 H   0  0  0  0  0  0  0  0  0  0  0  0
   12.9648    0.2842    0.0000 H   0  0  0  0  0  0  0  0  0  0  0  0
  1 14  1  0  0  0  0
  1 19  1  0  0  0  0
  2 16  1  0  0  0  0
  2 20  1  0  0  0  0
  3 12  2  0  0  0  0
  4 13  2  0  0  0  0
  5 21  1  0  0  0  0
  5 24  1  0  0  0  0
  6  8  1  0  0  0  0
  6 11  1  0  0  0  0
  6 13  1  0  0  0  0
  7 12  1  0  0  0  0
  7 15  1  0  0  0  0
  7 32  1  0  0  0  0
  8  9  1  0  0  0  0
  8 12  1  1  0  0  0
  8 25  1  0  0  0  0
  9 10  1  0  0  0  0
  9 26  1  0  0  0  0
  9 27  1  0  0  0  0
 10 11  1  0  0  0  0
 10 28  1  0  0  0  0
 10 29  1  0  0  0  0
 11 30  1  0  0  0  0
 11 31  1  0  0  0  0
 13 14  1  0  0  0  0
 14 17  2  0  0  0  0
 15 16  1  0  0  0  0
 15 33  1  0  0  0  0
 15 34  1  0  0  0  0
 16 35  1  0  0  0  0
 16 36  1  0  0  0  0
 17 18  1  0  0  0  0
 17 37  1  0  0  0  0
 18 19  2  0  0  0  0
 18 38  1  0  0  0  0
 19 39  1  0  0  0  0
 20 21  1  0  0  0  0
 20 40  1  0  0  0  0
 20 41  1  0  0  0  0
 21 22  2  0  0  0  0
 22 23  1  0  0  0  0
 22 42  1  0  0  0  0
 23 24  2  0  0  0  0
 23 43  1  0  0  0  0
 24 44  1  0  0  0  0
M  END
> <PUBCHEM_COMPOUND_CID>
17396424

> <PUBCHEM_COMPOUND_CANONICALIZED>
1

> <PUBCHEM_CACTVS_COMPLEXITY>
450

> <PUBCHEM_CACTVS_HBOND_ACCEPTOR>
5

> <PUBCHEM_CACTVS_HBOND_DONOR>
1

> <PUBCHEM_CACTVS_ROTATABLE_BOND>
7

> <PUBCHEM_CACTVS_SUBSKEYS>
AAADceB7MABgAAAAAAAAAAAAAAAAAWJEgAAAAAAAAAAAAAAB4AAAHgQQAAAACCzl0AawBYPABEiMAKlSkACDCIAkKBBIiJmODMgMZjKktTuWGSjk1hGoqYaYAQAAAAAAAAAAAAAAAAAAAAAAAAAAAAAAAA==

> <PUBCHEM_IUPAC_OPENEYE_NAME>
(2S)-N-[2-(2-furylmethylsulfanyl)ethyl]-1-(thiophene-2-carbonyl)pyrrolidine-2-carboxamide

> <PUBCHEM_IUPAC_CAS_NAME>
(2S)-N-[2-(2-furanylmethylthio)ethyl]-1-[oxo(thiophen-2-yl)methyl]-2-pyrrolidinecarboxamide

> <PUBCHEM_IUPAC_NAME>
(2S)-N-[2-(furan-2-ylmethylsulfanyl)ethyl]-1-(thiophene-2-carbonyl)pyrrolidine-2-carboxamide

> <PUBCHEM_IUPAC_SYSTEMATIC_NAME>
(2S)-N-[2-(furan-2-ylmethylsulfanyl)ethyl]-1-thiophen-2-ylcarbonyl-pyrrolidine-2-carboxamide

> <PUBCHEM_IUPAC_TRADITIONAL_NAME>
(2S)-N-[2-(2-furfurylthio)ethyl]-1-(2-thenoyl)pyrrolidine-2-carboxamide

> <PUBCHEM_IUPAC_INCHI>
InChI=1S/C17H20N2O3S2/c20-16(18-7-11-23-12-13-4-2-9-22-13)14-5-1-8-19(14)17(21)15-6-3-10-24-15/h2-4,6,9-10,14H,1,5,7-8,11-12H2,(H,18,20)/t14-/m0/s1

> <PUBCHEM_IUPAC_INCHIKEY>
CJCVZCZDMQBXAM-AWEZNQCLSA-N

> <PUBCHEM_XLOGP3_AA>
2.5

> <PUBCHEM_EXACT_MASS>
364.091535

> <PUBCHEM_MOLECULAR_FORMULA>
C17H20N2O3S2

> <PUBCHEM_MOLECULAR_WEIGHT>
364.4823

> <PUBCHEM_OPENEYE_CAN_SMILES>
C1CC(N(C1)C(=O)C2=CC=CS2)C(=O)NCCSCC3=CC=CO3

> <PUBCHEM_OPENEYE_ISO_SMILES>
C1C[C@H](N(C1)C(=O)C2=CC=CS2)C(=O)NCCSCC3=CC=CO3

> <PUBCHEM_CACTVS_TPSA>
116

> <PUBCHEM_MONOISOTOPIC_WEIGHT>
364.091535

> <PUBCHEM_TOTAL_CHARGE>
0

> <PUBCHEM_HEAVY_ATOM_COUNT>
24

> <PUBCHEM_ATOM_DEF_STEREO_COUNT>
1

> <PUBCHEM_ATOM_UDEF_STEREO_COUNT>
0

> <PUBCHEM_BOND_DEF_STEREO_COUNT>
0

> <PUBCHEM_BOND_UDEF_STEREO_COUNT>
0

> <PUBCHEM_ISOTOPIC_ATOM_COUNT>
0

> <PUBCHEM_COMPONENT_COUNT>
1

> <PUBCHEM_CACTVS_TAUTO_COUNT>
2

> <PUBCHEM_COORDINATE_TYPE>
1
5
255

> <PUBCHEM_BONDANNOTATIONS>
1  14  8
1  19  8
14  17  8
17  18  8
18  19  8
21  22  8
22  23  8
23  24  8
5  21  8
5  24  8
8  12  5

$$$$

