44224033
  -OEChem-07051213152D

 82 82  0     0  0  0  0  0  0999 V2000
   13.3923    9.2500    0.0000 O   0  0  0  0  0  0  0  0  0  0  0  0
    3.0000   -7.7500    0.0000 C   0  0  0  0  0  0  0  0  0  0  0  0
    3.0000   -8.7500    0.0000 C   0  0  0  0  0  0  0  0  0  0  0  0
    3.8660   -9.2500    0.0000 C   0  0  0  0  0  0  0  0  0  0  0  0
    3.8660   -7.2500    0.0000 C   0  0  0  0  0  0  0  0  0  0  0  0
    4.7320   -8.7500    0.0000 C   0  0  0  0  0  0  0  0  0  0  0  0
    4.7320   -7.7500    0.0000 C   0  0  0  0  0  0  0  0  0  0  0  0
    2.0000   -7.7500    0.0000 C   0  0  0  0  0  0  0  0  0  0  0  0
    2.5000   -6.8840    0.0000 C   0  0  0  0  0  0  0  0  0  0  0  0
    3.8660   -6.2500    0.0000 C   0  0  0  0  0  0  0  0  0  0  0  0
    5.5981   -7.2500    0.0000 C   0  0  0  0  0  0  0  0  0  0  0  0
    4.7320   -5.7500    0.0000 C   0  0  0  0  0  0  0  0  0  0  0  0
    4.7320   -4.7500    0.0000 C   0  0  0  0  0  0  0  0  0  0  0  0
    3.8660   -4.2500    0.0000 C   0  0  0  0  0  0  0  0  0  0  0  0
    5.5981   -4.2500    0.0000 C   0  0  0  0  0  0  0  0  0  0  0  0
    5.5981   -3.2500    0.0000 C   0  0  0  0  0  0  0  0  0  0  0  0
    6.4641   -2.7500    0.0000 C   0  0  0  0  0  0  0  0  0  0  0  0
    6.4641   -1.7500    0.0000 C   0  0  0  0  0  0  0  0  0  0  0  0
    5.5981   -1.2500    0.0000 C   0  0  0  0  0  0  0  0  0  0  0  0
    7.3301   -1.2500    0.0000 C   0  0  0  0  0  0  0  0  0  0  0  0
    7.3301   -0.2500    0.0000 C   0  0  0  0  0  0  0  0  0  0  0  0
    8.1962    0.2500    0.0000 C   0  0  0  0  0  0  0  0  0  0  0  0
    8.1962    1.2500    0.0000 C   0  0  0  0  0  0  0  0  0  0  0  0
    9.0622    1.7500    0.0000 C   0  0  0  0  0  0  0  0  0  0  0  0
    9.0622    2.7500    0.0000 C   0  0  0  0  0  0  0  0  0  0  0  0
    9.9282    1.2500    0.0000 C   0  0  0  0  0  0  0  0  0  0  0  0
    9.9282    3.2500    0.0000 C   0  0  0  0  0  0  0  0  0  0  0  0
   10.7942    4.7500    0.0000 C   0  0  0  0  0  0  0  0  0  0  0  0
    9.9282    4.2500    0.0000 C   0  0  0  0  0  0  0  0  0  0  0  0
   10.7942    5.7500    0.0000 C   0  0  0  0  0  0  0  0  0  0  0  0
   11.6603    4.2500    0.0000 C   0  0  0  0  0  0  0  0  0  0  0  0
   11.6603    6.2500    0.0000 C   0  0  0  0  0  0  0  0  0  0  0  0
   11.6603    7.2500    0.0000 C   0  0  0  0  0  0  0  0  0  0  0  0
   12.5263    7.7500    0.0000 C   0  0  0  0  0  0  0  0  0  0  0  0
   13.3923    7.2500    0.0000 C   0  0  0  0  0  0  0  0  0  0  0  0
   12.5263    8.7500    0.0000 C   0  0  0  0  0  0  0  0  0  0  0  0
    2.3894   -8.6423    0.0000 H   0  0  0  0  0  0  0  0  0  0  0  0
    2.7880   -9.3326    0.0000 H   0  0  0  0  0  0  0  0  0  0  0  0
    3.4675   -9.7250    0.0000 H   0  0  0  0  0  0  0  0  0  0  0  0
    4.2646   -9.7250    0.0000 H   0  0  0  0  0  0  0  0  0  0  0  0
    4.9441   -9.3326    0.0000 H   0  0  0  0  0  0  0  0  0  0  0  0
    5.3426   -8.6423    0.0000 H   0  0  0  0  0  0  0  0  0  0  0  0
    2.0000   -7.1300    0.0000 H   0  0  0  0  0  0  0  0  0  0  0  0
    1.3800   -7.7500    0.0000 H   0  0  0  0  0  0  0  0  0  0  0  0
    2.0000   -8.3700    0.0000 H   0  0  0  0  0  0  0  0  0  0  0  0
    3.0369   -6.5740    0.0000 H   0  0  0  0  0  0  0  0  0  0  0  0
    2.1900   -6.3470    0.0000 H   0  0  0  0  0  0  0  0  0  0  0  0
    1.9631   -7.1940    0.0000 H   0  0  0  0  0  0  0  0  0  0  0  0
    3.3291   -5.9400    0.0000 H   0  0  0  0  0  0  0  0  0  0  0  0
    5.9081   -7.7869    0.0000 H   0  0  0  0  0  0  0  0  0  0  0  0
    6.1350   -6.9400    0.0000 H   0  0  0  0  0  0  0  0  0  0  0  0
    5.2881   -6.7131    0.0000 H   0  0  0  0  0  0  0  0  0  0  0  0
    5.2690   -6.0600    0.0000 H   0  0  0  0  0  0  0  0  0  0  0  0
    4.1760   -3.7131    0.0000 H   0  0  0  0  0  0  0  0  0  0  0  0
    3.3291   -3.9400    0.0000 H   0  0  0  0  0  0  0  0  0  0  0  0
    3.5560   -4.7869    0.0000 H   0  0  0  0  0  0  0  0  0  0  0  0
    6.1350   -4.5600    0.0000 H   0  0  0  0  0  0  0  0  0  0  0  0
    5.0611   -2.9400    0.0000 H   0  0  0  0  0  0  0  0  0  0  0  0
    7.0010   -3.0600    0.0000 H   0  0  0  0  0  0  0  0  0  0  0  0
    5.9081   -0.7131    0.0000 H   0  0  0  0  0  0  0  0  0  0  0  0
    5.0611   -0.9400    0.0000 H   0  0  0  0  0  0  0  0  0  0  0  0
    5.2881   -1.7869    0.0000 H   0  0  0  0  0  0  0  0  0  0  0  0
    7.8671   -1.5600    0.0000 H   0  0  0  0  0  0  0  0  0  0  0  0
    6.7932    0.0600    0.0000 H   0  0  0  0  0  0  0  0  0  0  0  0
    8.7331   -0.0600    0.0000 H   0  0  0  0  0  0  0  0  0  0  0  0
    7.6592    1.5600    0.0000 H   0  0  0  0  0  0  0  0  0  0  0  0
    8.5252    3.0600    0.0000 H   0  0  0  0  0  0  0  0  0  0  0  0
    9.6182    0.7131    0.0000 H   0  0  0  0  0  0  0  0  0  0  0  0
   10.4651    0.9400    0.0000 H   0  0  0  0  0  0  0  0  0  0  0  0
   10.2382    1.7869    0.0000 H   0  0  0  0  0  0  0  0  0  0  0  0
   10.4651    2.9400    0.0000 H   0  0  0  0  0  0  0  0  0  0  0  0
    9.3913    4.5600    0.0000 H   0  0  0  0  0  0  0  0  0  0  0  0
   10.2573    6.0600    0.0000 H   0  0  0  0  0  0  0  0  0  0  0  0
   11.3503    3.7131    0.0000 H   0  0  0  0  0  0  0  0  0  0  0  0
   12.1972    3.9400    0.0000 H   0  0  0  0  0  0  0  0  0  0  0  0
   11.9703    4.7869    0.0000 H   0  0  0  0  0  0  0  0  0  0  0  0
   12.1972    5.9400    0.0000 H   0  0  0  0  0  0  0  0  0  0  0  0
   11.1233    7.5600    0.0000 H   0  0  0  0  0  0  0  0  0  0  0  0
   13.0823    6.7131    0.0000 H   0  0  0  0  0  0  0  0  0  0  0  0
   13.9292    6.9400    0.0000 H   0  0  0  0  0  0  0  0  0  0  0  0
   13.7023    7.7869    0.0000 H   0  0  0  0  0  0  0  0  0  0  0  0
   11.9893    9.0600    0.0000 H   0  0  0  0  0  0  0  0  0  0  0  0
  1 36  2  0  0  0  0
  2  3  1  0  0  0  0
  2  5  1  0  0  0  0
  2  8  1  0  0  0  0
  2  9  1  0  0  0  0
  3  4  1  0  0  0  0
  3 37  1  0  0  0  0
  3 38  1  0  0  0  0
  4  6  1  0  0  0  0
  4 39  1  0  0  0  0
  4 40  1  0  0  0  0
  5  7  2  0  0  0  0
  5 10  1  0  0  0  0
  6  7  1  0  0  0  0
  6 41  1  0  0  0  0
  6 42  1  0  0  0  0
  7 11  1  0  0  0  0
  8 43  1  0  0  0  0
  8 44  1  0  0  0  0
  8 45  1  0  0  0  0
  9 46  1  0  0  0  0
  9 47  1  0  0  0  0
  9 48  1  0  0  0  0
 10 12  2  0  0  0  0
 10 49  1  0  0  0  0
 11 50  1  0  0  0  0
 11 51  1  0  0  0  0
 11 52  1  0  0  0  0
 12 13  1  0  0  0  0
 12 53  1  0  0  0  0
 13 14  1  0  0  0  0
 13 15  2  0  0  0  0
 14 54  1  0  0  0  0
 14 55  1  0  0  0  0
 14 56  1  0  0  0  0
 15 16  1  0  0  0  0
 15 57  1  0  0  0  0
 16 17  2  0  0  0  0
 16 58  1  0  0  0  0
 17 18  1  0  0  0  0
 17 59  1  0  0  0  0
 18 19  1  0  0  0  0
 18 20  2  0  0  0  0
 19 60  1  0  0  0  0
 19 61  1  0  0  0  0
 19 62  1  0  0  0  0
 20 21  1  0  0  0  0
 20 63  1  0  0  0  0
 21 22  2  0  0  0  0
 21 64  1  0  0  0  0
 22 23  1  0  0  0  0
 22 65  1  0  0  0  0
 23 24  2  0  0  0  0
 23 66  1  0  0  0  0
 24 25  1  0  0  0  0
 24 26  1  0  0  0  0
 25 27  2  0  0  0  0
 25 67  1  0  0  0  0
 26 68  1  0  0  0  0
 26 69  1  0  0  0  0
 26 70  1  0  0  0  0
 27 29  1  0  0  0  0
 27 71  1  0  0  0  0
 28 29  2  0  0  0  0
 28 30  1  0  0  0  0
 28 31  1  0  0  0  0
 29 72  1  0  0  0  0
 30 32  2  0  0  0  0
 30 73  1  0  0  0  0
 31 74  1  0  0  0  0
 31 75  1  0  0  0  0
 31 76  1  0  0  0  0
 32 33  1  0  0  0  0
 32 77  1  0  0  0  0
 33 34  2  0  0  0  0
 33 78  1  0  0  0  0
 34 35  1  0  0  0  0
 34 36  1  0  0  0  0
 35 79  1  0  0  0  0
 35 80  1  0  0  0  0
 35 81  1  0  0  0  0
 36 82  1  0  0  0  0
M  END
> <PUBCHEM_COMPOUND_CID>
44224033

> <PUBCHEM_COMPOUND_CANONICALIZED>
1

> <PUBCHEM_CACTVS_COMPLEXITY>
1080

> <PUBCHEM_CACTVS_HBOND_ACCEPTOR>
1

> <PUBCHEM_CACTVS_HBOND_DONOR>
0

> <PUBCHEM_CACTVS_ROTATABLE_BOND>
11

> <PUBCHEM_CACTVS_SUBSKEYS>
AAADcfB8IAAAAAAAAAAAAAAAAAAAAAAAAAAgAAAAAAAAAAAAAAAAGgAAAAAADgCggAICAAAAAACIAihSgAAAAAAgAAAICAEAAEgIAAIAAQAAAAAAgAAIgYMAgMAPAAAAAAAAAAAAAAAAAAAAAAAAAAAAAA==

> <PUBCHEM_IUPAC_OPENEYE_NAME>
(2E,4E,6E,8E,10E,12E,14E,16E,18E,20E)-2,6,10,15,19-pentamethyl-21-(2,6,6-trimethylcyclohexen-1-yl)henicosa-2,4,6,8,10,12,14,16,18,20-decaenal

> <PUBCHEM_IUPAC_CAS_NAME>
(2E,4E,6E,8E,10E,12E,14E,16E,18E,20E)-2,6,10,15,19-pentamethyl-21-(2,6,6-trimethyl-1-cyclohexenyl)heneicosa-2,4,6,8,10,12,14,16,18,20-decaenal

> <PUBCHEM_IUPAC_NAME>
(2E,4E,6E,8E,10E,12E,14E,16E,18E,20E)-2,6,10,15,19-pentamethyl-21-(2,6,6-trimethylcyclohexen-1-yl)henicosa-2,4,6,8,10,12,14,16,18,20-decaenal

> <PUBCHEM_IUPAC_SYSTEMATIC_NAME>
(2E,4E,6E,8E,10E,12E,14E,16E,18E,20E)-2,6,10,15,19-pentamethyl-21-(2,6,6-trimethylcyclohexen-1-yl)henicosa-2,4,6,8,10,12,14,16,18,20-decaenal

> <PUBCHEM_IUPAC_TRADITIONAL_NAME>
(2E,4E,6E,8E,10E,12E,14E,16E,18E,20E)-2,6,10,15,19-pentamethyl-21-(2,6,6-trimethylcyclohexen-1-yl)heneicosa-2,4,6,8,10,12,14,16,18,20-decaenal

> <PUBCHEM_IUPAC_INCHI>
InChI=1S/C35H46O/c1-28(17-11-19-30(3)20-13-22-32(5)27-36)15-9-10-16-29(2)18-12-21-31(4)24-25-34-33(6)23-14-26-35(34,7)8/h9-13,15-22,24-25,27H,14,23,26H2,1-8H3/b10-9+,17-11+,18-12+,20-13+,25-24+,28-15+,29-16+,30-19+,31-21+,32-22+

> <PUBCHEM_IUPAC_INCHIKEY>
FTQSFEZUHZHOAT-BRZOAGJPSA-N

> <PUBCHEM_XLOGP3>
11.3

> <PUBCHEM_EXACT_MASS>
482.354866

> <PUBCHEM_MOLECULAR_FORMULA>
C35H46O

> <PUBCHEM_MOLECULAR_WEIGHT>
482.73914

> <PUBCHEM_OPENEYE_CAN_SMILES>
CC1=C(C(CCC1)(C)C)C=CC(=CC=CC(=CC=CC=C(C)C=CC=C(C)C=CC=C(C)C=O)C)C

> <PUBCHEM_OPENEYE_ISO_SMILES>
CC1=C(C(CCC1)(C)C)/C=C/C(=C/C=C/C(=C/C=C/C=C(\C)/C=C/C=C(\C)/C=C/C=C(\C)/C=O)/C)/C

> <PUBCHEM_CACTVS_TPSA>
17.1

> <PUBCHEM_MONOISOTOPIC_WEIGHT>
482.354866

> <PUBCHEM_TOTAL_CHARGE>
0

> <PUBCHEM_HEAVY_ATOM_COUNT>
36

> <PUBCHEM_ATOM_DEF_STEREO_COUNT>
0

> <PUBCHEM_ATOM_UDEF_STEREO_COUNT>
0

> <PUBCHEM_BOND_DEF_STEREO_COUNT>
10

> <PUBCHEM_BOND_UDEF_STEREO_COUNT>
0

> <PUBCHEM_ISOTOPIC_ATOM_COUNT>
0

> <PUBCHEM_COMPONENT_COUNT>
1

> <PUBCHEM_CACTVS_TAUTO_COUNT>
1

> <PUBCHEM_COORDINATE_TYPE>
1
5
255

$$$$

