5937
  -OEChem-06261200593D

 34 33  0     1  0  0  0  0  0999 V2000
   -3.8993    0.2907    0.4286 S   0  0  0  0  0  0  0  0  0  0  0  0
    3.9035   -0.2757    0.4323 S   0  0  0  0  0  0  0  0  0  0  0  0
   -2.2969    0.0601    0.2300 O   0  0  0  0  0  0  0  0  0  0  0  0
    2.2991   -0.0524    0.2406 O   0  0  0  0  0  0  0  0  0  0  0  0
   -4.5384   -0.9788    0.7090 O   0  0  0  0  0  0  0  0  0  0  0  0
   -4.3891    1.1868   -0.5993 O   0  0  0  0  0  0  0  0  0  0  0  0
    4.5442    1.0030    0.6637 O   0  0  0  0  0  0  0  0  0  0  0  0
    4.3845   -1.2060   -0.5688 O   0  0  0  0  0  0  0  0  0  0  0  0
   -0.3180   -0.7168   -0.9059 C   0  0  0  0  0  0  0  0  0  0  0  0
    0.3096    0.6848   -0.9032 C   0  0  0  0  0  0  0  0  0  0  0  0
   -1.8490   -0.6618   -0.9138 C   0  0  1  0  0  0  0  0  0  0  0  0
    1.8405    0.6299   -0.9230 C   0  0  1  0  0  0  0  0  0  0  0  0
   -2.4508   -2.0601   -0.8794 C   0  0  0  0  0  0  0  0  0  0  0  0
    2.4418    2.0289   -0.9416 C   0  0  0  0  0  0  0  0  0  0  0  0
   -3.7871    1.2008    1.9480 C   0  0  0  0  0  0  0  0  0  0  0  0
    3.8056   -1.1335    1.9829 C   0  0  0  0  0  0  0  0  0  0  0  0
    0.0377   -1.2770   -1.7789 H   0  0  0  0  0  0  0  0  0  0  0  0
    0.0154   -1.2558   -0.0102 H   0  0  0  0  0  0  0  0  0  0  0  0
   -0.0165    1.2206   -0.0032 H   0  0  0  0  0  0  0  0  0  0  0  0
   -0.0529    1.2469   -1.7721 H   0  0  0  0  0  0  0  0  0  0  0  0
   -2.1811   -0.1388   -1.8189 H   0  0  0  0  0  0  0  0  0  0  0  0
    2.1658    0.0779   -1.8133 H   0  0  0  0  0  0  0  0  0  0  0  0
   -3.4999   -2.0556   -1.1896 H   0  0  0  0  0  0  0  0  0  0  0  0
   -1.9329   -2.7214   -1.5830 H   0  0  0  0  0  0  0  0  0  0  0  0
   -2.3865   -2.5061    0.1188 H   0  0  0  0  0  0  0  0  0  0  0  0
    2.3853    2.5087    0.0414 H   0  0  0  0  0  0  0  0  0  0  0  0
    3.4882    2.0141   -1.2600 H   0  0  0  0  0  0  0  0  0  0  0  0
    1.9181    2.6658   -1.6631 H   0  0  0  0  0  0  0  0  0  0  0  0
   -3.3116    0.5718    2.7028 H   0  0  0  0  0  0  0  0  0  0  0  0
   -3.2047    2.1078    1.7750 H   0  0  0  0  0  0  0  0  0  0  0  0
   -4.7995    1.4617    2.2632 H   0  0  0  0  0  0  0  0  0  0  0  0
    4.8210   -1.3832    2.2976 H   0  0  0  0  0  0  0  0  0  0  0  0
    3.3364   -0.4793    2.7202 H   0  0  0  0  0  0  0  0  0  0  0  0
    3.2222   -2.0461    1.8460 H   0  0  0  0  0  0  0  0  0  0  0  0
  1  3  1  0  0  0  0
  1  5  2  0  0  0  0
  1  6  2  0  0  0  0
  1 15  1  0  0  0  0
  2  4  1  0  0  0  0
  2  7  2  0  0  0  0
  2  8  2  0  0  0  0
  2 16  1  0  0  0  0
  3 11  1  0  0  0  0
  4 12  1  0  0  0  0
  9 10  1  0  0  0  0
  9 11  1  0  0  0  0
  9 17  1  0  0  0  0
  9 18  1  0  0  0  0
 10 12  1  0  0  0  0
 10 19  1  0  0  0  0
 10 20  1  0  0  0  0
 11 13  1  0  0  0  0
 11 21  1  0  0  0  0
 12 14  1  0  0  0  0
 12 22  1  0  0  0  0
 13 23  1  0  0  0  0
 13 24  1  0  0  0  0
 13 25  1  0  0  0  0
 14 26  1  0  0  0  0
 14 27  1  0  0  0  0
 14 28  1  0  0  0  0
 15 29  1  0  0  0  0
 15 30  1  0  0  0  0
 15 31  1  0  0  0  0
 16 32  1  0  0  0  0
 16 33  1  0  0  0  0
 16 34  1  0  0  0  0
M  END
> <PUBCHEM_COMPOUND_CID>
5937

> <PUBCHEM_CONFORMER_RMSD>
0.8

> <PUBCHEM_CONFORMER_DIVERSEORDER>
1
105
17
116
18
130
94
45
114
2
71
69
102
118
117
62
56
34
3
110
129
31
124
64
19
81
123
5
109
100
99
38
121
122
87
77
15
113
49
76
13
78
60
55
50
14
32
103
10
106
115
96
84
101
29
112
53
54
74
6
79
90
41
70
33
21
40
24
63
42
27
120
80
44
37
8
89
9
111
59
57
91
85
20
104
126
4
131
128
66
125
22
36
93
65
43
52
28
16
119
67
83
72
98
108
48
86
47
30
23
132
75
88
107
82
127
25
73
68
95
46
39
35
92
97
26
51
58
7
61
11
12

> <PUBCHEM_MMFF94_PARTIAL_CHARGES>
12
1 1.38
11 0.28
12 0.28
15 0.11
16 0.11
2 1.38
3 -0.46
4 -0.46
5 -0.65
6 -0.65
7 -0.65
8 -0.65

> <PUBCHEM_EFFECTIVE_ROTOR_COUNT>
7

> <PUBCHEM_PHARMACOPHORE_FEATURES>
4
1 5 acceptor
1 6 acceptor
1 7 acceptor
1 8 acceptor

> <PUBCHEM_HEAVY_ATOM_COUNT>
16

> <PUBCHEM_ATOM_DEF_STEREO_COUNT>
0

> <PUBCHEM_ATOM_UDEF_STEREO_COUNT>
2

> <PUBCHEM_BOND_DEF_STEREO_COUNT>
0

> <PUBCHEM_BOND_UDEF_STEREO_COUNT>
0

> <PUBCHEM_ISOTOPIC_ATOM_COUNT>
0

> <PUBCHEM_COMPONENT_COUNT>
1

> <PUBCHEM_CACTVS_TAUTO_COUNT>
1

> <PUBCHEM_CONFORMER_ID>
0000173100000001

> <PUBCHEM_MMFF94_ENERGY>
20.3905

> <PUBCHEM_FEATURE_SELFOVERLAP>
20.33

> <PUBCHEM_SHAPE_FINGERPRINT>
11046707 91 13614234854996303945
11615756 56 15791450430670680465
12251169 10 18410856542465195495
12553582 1 18060148652065648502
12596602 18 18410855434368921264
13533116 47 17846212195019332339
13675066 3 18410855455833201086
14123255 352 17240482541610193337
14251764 38 15791731909974085537
14252887 29 18202285823144417306
14386348 63 15698283304295865017
15375358 24 15719111361656034897
15375462 189 17988652895542108770
17041 49 18408322159789924180
17834074 16 15697997448463068680
17959699 21 5978121115255561091
18915474 69 11887666260746366360
20279233 1 15719385114281541247
20281475 54 17132119052243061174
20432913 95 17418095407713581347
20645477 56 15719387313790164775
20645477 70 17060069098756851966
20871999 31 10015578360309133553
212916 134 17676775348223218611
22094290 60 12463577283142946679
22926399 37 6411293546470688995
23402539 116 17676213476907748285
23503953 91 18336271158457820972
23532345 12 18334856099756495013
23557571 272 15936970709013534047
23559900 14 17168129136348031868
23590187 39 15697996357530819369
23598291 2 18269556048517193422
238078 22 9799392452575080021
328317 168 15430040958937317429
341906 21 17385726885024991408
351380 180 15502378962752613386
42 15 18131350812549532325
53428517 58 6483351131591427036
5352402 22 16988555822919404506
548570 60 15719393940434059523
573450 72 18261397719573529383
6049 1 15625951901803138127
7615 1 18263930929765232621

> <PUBCHEM_SHAPE_MULTIPOLES>
301.76
10.72
1.72
1.57
0.06
0.02
-0.76
-0.09
-4.17
-0.07
0.27
0.06
-0.03
-1.47

> <PUBCHEM_SHAPE_SELFOVERLAP>
549.112

> <PUBCHEM_SHAPE_VOLUME>
194.1

> <PUBCHEM_COORDINATE_TYPE>
2
5
10

$$$$

