46174031
  -OEChem-07051213112D

 86 89  0     1  0  0  0  0  0999 V2000
    8.0420   -0.5533    0.0000 O   0  0  0  0  0  0  0  0  0  0  0  0
    6.3100   -1.5532    0.0000 O   0  0  0  0  0  0  0  0  0  0  0  0
    9.8216   -0.4600    0.0000 O   0  0  0  0  0  0  0  0  0  0  0  0
   10.3975    2.0627    0.0000 O   0  0  0  0  0  0  0  0  0  0  0  0
    9.7741   -1.5532    0.0000 O   0  0  0  0  0  0  0  0  0  0  0  0
    4.8100   -2.4193    0.0000 O   0  0  0  0  0  0  0  0  0  0  0  0
   11.9798    1.3582    0.0000 O   0  0  0  0  0  0  0  0  0  0  0  0
    8.2695    1.6104    0.0000 O   0  0  0  0  0  0  0  0  0  0  0  0
   13.2000    4.0989    0.0000 O   0  0  0  0  0  0  0  0  0  0  0  0
    2.3100   -1.5532    0.0000 O   0  0  0  0  0  0  0  0  0  0  0  0
   11.8920   -0.7349    0.0000 O   0  0  0  0  0  0  0  0  0  0  0  0
   14.3756    2.4808    0.0000 O   0  0  0  0  0  0  0  0  0  0  0  0
    2.3100   -3.2853    0.0000 O   0  0  0  0  0  0  0  0  0  0  0  0
    6.6760   -3.9193    0.0000 N   0  0  0  0  0  0  0  0  0  0  0  0
    9.7741   -3.5532    0.0000 N   0  0  0  0  0  0  0  0  0  0  0  0
    5.3100    0.1788    0.0000 N   0  0  0  0  0  0  0  0  0  0  0  0
   11.2110    3.8898    0.0000 N   0  0  0  0  0  0  0  0  0  0  0  0
   14.5566    0.7583    0.0000 N   0  0  0  0  0  0  0  0  0  0  0  0
    8.0420   -1.5532    0.0000 C   0  0  1  0  0  0  0  0  0  0  0  0
    7.1760   -2.0532    0.0000 C   0  0  1  0  0  0  0  0  0  0  0  0
    7.1760   -3.0532    0.0000 C   0  0  2  0  0  0  0  0  0  0  0  0
    8.9081   -2.0532    0.0000 C   0  0  2  0  0  0  0  0  0  0  0  0
    8.9081   -3.0532    0.0000 C   0  0  1  0  0  0  0  0  0  0  0  0
    8.0420   -3.5532    0.0000 C   0  0  0  0  0  0  0  0  0  0  0  0
    8.9081   -0.0533    0.0000 C   0  0  2  0  0  0  0  0  0  0  0  0
    9.9908    1.1492    0.0000 C   0  0  1  0  0  0  0  0  0  0  0  0
    9.0126    0.9413    0.0000 C   0  0  1  0  0  0  0  0  0  0  0  0
   10.4907    0.2832    0.0000 C   0  0  1  0  0  0  0  0  0  0  0  0
    5.3100   -1.5532    0.0000 C   0  0  1  0  0  0  0  0  0  0  0  0
    4.8100   -0.6871    0.0000 C   0  0  1  0  0  0  0  0  0  0  0  0
   11.3920    2.1673    0.0000 C   0  0  1  0  0  0  0  0  0  0  0  0
   11.7987    3.0808    0.0000 C   0  0  1  0  0  0  0  0  0  0  0  0
    3.8100   -0.6872    0.0000 C   0  0  0  0  0  0  0  0  0  0  0  0
   12.7933    3.1853    0.0000 C   0  0  2  0  0  0  0  0  0  0  0  0
    3.3100   -1.5532    0.0000 C   0  0  1  0  0  0  0  0  0  0  0  0
    3.8100   -2.4193    0.0000 C   0  0  1  0  0  0  0  0  0  0  0  0
   11.4853    0.1786    0.0000 C   0  0  0  0  0  0  0  0  0  0  0  0
   13.3810    2.3763    0.0000 C   0  0  1  0  0  0  0  0  0  0  0  0
   12.9743    1.4628    0.0000 C   0  0  2  0  0  0  0  0  0  0  0  0
   13.5621    0.6538    0.0000 C   0  0  0  0  0  0  0  0  0  0  0  0
    3.3100   -3.2853    0.0000 C   0  0  0  0  0  0  0  0  0  0  0  0
    8.5790   -1.2432    0.0000 H   0  0  0  0  0  0  0  0  0  0  0  0
    7.1760   -1.4332    0.0000 H   0  0  0  0  0  0  0  0  0  0  0  0
    6.5772   -2.8928    0.0000 H   0  0  0  0  0  0  0  0  0  0  0  0
    9.4450   -2.3632    0.0000 H   0  0  0  0  0  0  0  0  0  0  0  0
    9.4450   -2.7433    0.0000 H   0  0  0  0  0  0  0  0  0  0  0  0
    7.6435   -4.0282    0.0000 H   0  0  0  0  0  0  0  0  0  0  0  0
    8.4406   -4.0282    0.0000 H   0  0  0  0  0  0  0  0  0  0  0  0
    8.3881    0.2844    0.0000 H   0  0  0  0  0  0  0  0  0  0  0  0
   10.6099    1.1816    0.0000 H   0  0  0  0  0  0  0  0  0  0  0  0
    9.1731    1.5401    0.0000 H   0  0  0  0  0  0  0  0  0  0  0  0
   10.7129   -0.2957    0.0000 H   0  0  0  0  0  0  0  0  0  0  0  0
    5.6200   -1.0163    0.0000 H   0  0  0  0  0  0  0  0  0  0  0  0
    5.4300   -0.6872    0.0000 H   0  0  0  0  0  0  0  0  0  0  0  0
   11.0276    2.6688    0.0000 H   0  0  0  0  0  0  0  0  0  0  0  0
    6.9860   -4.4562    0.0000 H   0  0  0  0  0  0  0  0  0  0  0  0
    6.0560   -3.9192    0.0000 H   0  0  0  0  0  0  0  0  0  0  0  0
   12.0509    3.6472    0.0000 H   0  0  0  0  0  0  0  0  0  0  0  0
    9.7741   -4.1732    0.0000 H   0  0  0  0  0  0  0  0  0  0  0  0
   10.3110   -3.2433    0.0000 H   0  0  0  0  0  0  0  0  0  0  0  0
    3.9177   -0.0766    0.0000 H   0  0  0  0  0  0  0  0  0  0  0  0
    3.2274   -0.4751    0.0000 H   0  0  0  0  0  0  0  0  0  0  0  0
   12.4288    3.6869    0.0000 H   0  0  0  0  0  0  0  0  0  0  0  0
    3.0000   -1.0163    0.0000 H   0  0  0  0  0  0  0  0  0  0  0  0
   10.3110   -1.8632    0.0000 H   0  0  0  0  0  0  0  0  0  0  0  0
    4.1200   -2.9562    0.0000 H   0  0  0  0  0  0  0  0  0  0  0  0
   12.0869    0.3286    0.0000 H   0  0  0  0  0  0  0  0  0  0  0  0
   11.4420    0.7971    0.0000 H   0  0  0  0  0  0  0  0  0  0  0  0
   13.6332    2.9427    0.0000 H   0  0  0  0  0  0  0  0  0  0  0  0
   12.7221    0.8964    0.0000 H   0  0  0  0  0  0  0  0  0  0  0  0
    8.3984    2.2168    0.0000 H   0  0  0  0  0  0  0  0  0  0  0  0
    5.0000    0.7157    0.0000 H   0  0  0  0  0  0  0  0  0  0  0  0
    5.9300    0.1788    0.0000 H   0  0  0  0  0  0  0  0  0  0  0  0
   13.0048    0.3820    0.0000 H   0  0  0  0  0  0  0  0  0  0  0  0
   13.7330    0.0578    0.0000 H   0  0  0  0  0  0  0  0  0  0  0  0
    3.2024   -3.8959    0.0000 H   0  0  0  0  0  0  0  0  0  0  0  0
    3.8926   -3.4974    0.0000 H   0  0  0  0  0  0  0  0  0  0  0  0
   11.4631    4.4562    0.0000 H   0  0  0  0  0  0  0  0  0  0  0  0
   10.5944    3.8250    0.0000 H   0  0  0  0  0  0  0  0  0  0  0  0
   13.8166    4.1637    0.0000 H   0  0  0  0  0  0  0  0  0  0  0  0
    2.0000   -1.0163    0.0000 H   0  0  0  0  0  0  0  0  0  0  0  0
   14.7400    1.9792    0.0000 H   0  0  0  0  0  0  0  0  0  0  0  0
   12.5086   -0.7997    0.0000 H   0  0  0  0  0  0  0  0  0  0  0  0
   14.9210    0.2567    0.0000 H   0  0  0  0  0  0  0  0  0  0  0  0
   14.8088    1.3247    0.0000 H   0  0  0  0  0  0  0  0  0  0  0  0
    2.0000   -3.8223    0.0000 H   0  0  0  0  0  0  0  0  0  0  0  0
 19  1  1  6  0  0  0
 25  1  1  1  0  0  0
 20  2  1  1  0  0  0
 29  2  1  1  0  0  0
  3 25  1  0  0  0  0
  3 28  1  0  0  0  0
 26  4  1  6  0  0  0
 31  4  1  6  0  0  0
 22  5  1  1  0  0  0
  5 65  1  0  0  0  0
  6 29  1  0  0  0  0
  6 36  1  0  0  0  0
  7 31  1  0  0  0  0
  7 39  1  0  0  0  0
 27  8  1  6  0  0  0
  8 71  1  0  0  0  0
 34  9  1  1  0  0  0
  9 80  1  0  0  0  0
 35 10  1  1  0  0  0
 10 81  1  0  0  0  0
 11 37  1  0  0  0  0
 11 83  1  0  0  0  0
 38 12  1  6  0  0  0
 12 82  1  0  0  0  0
 13 41  1  0  0  0  0
 13 86  1  0  0  0  0
 21 14  1  6  0  0  0
 14 56  1  0  0  0  0
 14 57  1  0  0  0  0
 23 15  1  6  0  0  0
 15 59  1  0  0  0  0
 15 60  1  0  0  0  0
 30 16  1  1  0  0  0
 16 72  1  0  0  0  0
 16 73  1  0  0  0  0
 32 17  1  6  0  0  0
 17 78  1  0  0  0  0
 17 79  1  0  0  0  0
 18 40  1  0  0  0  0
 18 84  1  0  0  0  0
 18 85  1  0  0  0  0
 19 20  1  0  0  0  0
 19 22  1  0  0  0  0
 19 42  1  0  0  0  0
 20 21  1  0  0  0  0
 20 43  1  0  0  0  0
 21 24  1  0  0  0  0
 21 44  1  0  0  0  0
 22 23  1  0  0  0  0
 22 45  1  0  0  0  0
 23 24  1  0  0  0  0
 23 46  1  0  0  0  0
 24 47  1  0  0  0  0
 24 48  1  0  0  0  0
 25 27  1  0  0  0  0
 25 49  1  0  0  0  0
 26 27  1  0  0  0  0
 26 28  1  0  0  0  0
 26 50  1  0  0  0  0
 27 51  1  0  0  0  0
 28 37  1  1  0  0  0
 28 52  1  0  0  0  0
 29 30  1  0  0  0  0
 29 53  1  0  0  0  0
 30 33  1  0  0  0  0
 30 54  1  0  0  0  0
 31 32  1  0  0  0  0
 31 55  1  0  0  0  0
 32 34  1  0  0  0  0
 32 58  1  0  0  0  0
 33 35  1  0  0  0  0
 33 61  1  0  0  0  0
 33 62  1  0  0  0  0
 34 38  1  0  0  0  0
 34 63  1  0  0  0  0
 35 36  1  0  0  0  0
 35 64  1  0  0  0  0
 36 41  1  6  0  0  0
 36 66  1  0  0  0  0
 37 67  1  0  0  0  0
 37 68  1  0  0  0  0
 38 39  1  0  0  0  0
 38 69  1  0  0  0  0
 39 40  1  6  0  0  0
 39 70  1  0  0  0  0
 40 74  1  0  0  0  0
 40 75  1  0  0  0  0
 41 76  1  0  0  0  0
 41 77  1  0  0  0  0
M  END
> <PUBCHEM_COMPOUND_CID>
46174031

> <PUBCHEM_COMPOUND_CANONICALIZED>
1

> <PUBCHEM_CACTVS_COMPLEXITY>
839

> <PUBCHEM_CACTVS_HBOND_ACCEPTOR>
18

> <PUBCHEM_CACTVS_HBOND_DONOR>
12

> <PUBCHEM_CACTVS_ROTATABLE_BOND>
9

> <PUBCHEM_CACTVS_SUBSKEYS>
AAADcfB7vAAAAAAAAAAAAAAAAAAAASAAAAA0SIAAAAAAAAAAAAAAHgAQCAAACDzxgAcACABABgAAAAAAAAAAAAAAAAAAAIAAAAATEAIAwAAjQAAHEAAHAAHwcA0AAAAAAAAAAAAAgAAUCACgAAAAAAAAAA==

> <PUBCHEM_IUPAC_OPENEYE_NAME>
(2S,3S,4R,5R,6R)-5-amino-2-(aminomethyl)-6-[(2R,3S,4R,5S)-5-[(1R,2R,3S,5R,6S)-3,5-diamino-2-[(2S,3R,5S,6R)-3-amino-5-hydroxy-6-(hydroxymethyl)tetrahydropyran-2-yl]oxy-6-hydroxy-cyclohexoxy]-4-hydroxy-2-(hydroxymethyl)tetrahydrofuran-3-yl]oxy-tetrahydropyran-3,4-diol

> <PUBCHEM_IUPAC_CAS_NAME>
(2S,3S,4R,5R,6R)-5-amino-2-(aminomethyl)-6-[[(2R,3S,4R,5S)-5-[(1R,2R,3S,5R,6S)-3,5-diamino-2-[[(2S,3R,5S,6R)-3-amino-5-hydroxy-6-(hydroxymethyl)-2-oxanyl]oxy]-6-hydroxycyclohexyl]oxy-4-hydroxy-2-(hydroxymethyl)-3-oxolanyl]oxy]oxane-3,4-diol

> <PUBCHEM_IUPAC_NAME>
(2S,3S,4R,5R,6R)-5-amino-2-(aminomethyl)-6-[(2R,3S,4R,5S)-5-[(1R,2R,3S,5R,6S)-3,5-diamino-2-[(2S,3R,5S,6R)-3-amino-5-hydroxy-6-(hydroxymethyl)oxan-2-yl]oxy-6-hydroxycyclohexyl]oxy-4-hydroxy-2-(hydroxymethyl)oxolan-3-yl]oxyoxane-3,4-diol

> <PUBCHEM_IUPAC_SYSTEMATIC_NAME>
(2S,3S,4R,5R,6R)-2-(aminomethyl)-5-azanyl-6-[(2R,3S,4R,5S)-5-[(1R,2R,3S,5R,6S)-3,5-bis(azanyl)-2-[(2S,3R,5S,6R)-3-azanyl-6-(hydroxymethyl)-5-oxidanyl-oxan-2-yl]oxy-6-oxidanyl-cyclohexyl]oxy-2-(hydroxymethyl)-4-oxidanyl-oxolan-3-yl]oxy-oxane-3,4-diol

> <PUBCHEM_IUPAC_TRADITIONAL_NAME>
(2S,3S,4R,5R,6R)-5-amino-2-(aminomethyl)-6-[(2R,3S,4R,5S)-5-[(1R,2R,3S,5R,6S)-3,5-diamino-2-[(2S,3R,5S,6R)-3-amino-5-hydroxy-6-methylol-tetrahydropyran-2-yl]oxy-6-hydroxy-cyclohexoxy]-4-hydroxy-2-methylol-tetrahydrofuran-3-yl]oxy-tetrahydropyran-3,4-diol

> <PUBCHEM_IUPAC_INCHI>
InChI=1S/C23H45N5O13/c24-3-10-15(33)16(34)13(28)22(36-10)40-19-12(5-30)38-23(17(19)35)41-20-14(32)6(25)1-7(26)18(20)39-21-8(27)2-9(31)11(4-29)37-21/h6-23,29-35H,1-5,24-28H2/t6-,7+,8-,9+,10+,11-,12-,13-,14+,15-,16-,17-,18-,19-,20-,21-,22-,23+/m1/s1

> <PUBCHEM_IUPAC_INCHIKEY>
BRSBFYLXCMGALM-CDEWKRIDSA-N

> <PUBCHEM_XLOGP3_AA>
-7.8

> <PUBCHEM_EXACT_MASS>
599.301387

> <PUBCHEM_MOLECULAR_FORMULA>
C23H45N5O13

> <PUBCHEM_MOLECULAR_WEIGHT>
599.6291

> <PUBCHEM_OPENEYE_CAN_SMILES>
C1C(C(C(C(C1N)OC2C(CC(C(O2)CO)O)N)OC3C(C(C(O3)CO)OC4C(C(C(C(O4)CN)O)O)N)O)O)N

> <PUBCHEM_OPENEYE_ISO_SMILES>
C1[C@H]([C@@H]([C@H]([C@@H]([C@H]1N)O[C@@H]2[C@@H](C[C@@H]([C@H](O2)CO)O)N)O[C@H]3[C@@H]([C@@H]([C@H](O3)CO)O[C@@H]4[C@@H]([C@H]([C@@H]([C@@H](O4)CN)O)O)N)O)O)N

> <PUBCHEM_CACTVS_TPSA>
327

> <PUBCHEM_MONOISOTOPIC_WEIGHT>
599.301387

> <PUBCHEM_TOTAL_CHARGE>
0

> <PUBCHEM_HEAVY_ATOM_COUNT>
41

> <PUBCHEM_ATOM_DEF_STEREO_COUNT>
18

> <PUBCHEM_ATOM_UDEF_STEREO_COUNT>
0

> <PUBCHEM_BOND_DEF_STEREO_COUNT>
0

> <PUBCHEM_BOND_UDEF_STEREO_COUNT>
0

> <PUBCHEM_ISOTOPIC_ATOM_COUNT>
0

> <PUBCHEM_COMPONENT_COUNT>
1

> <PUBCHEM_CACTVS_TAUTO_COUNT>
1

> <PUBCHEM_COORDINATE_TYPE>
1
5
255

> <PUBCHEM_BONDANNOTATIONS>
19  1  6
25  1  5
35  10  5
38  12  6
21  14  6
23  15  6
30  16  5
32  17  6
20  2  5
29  2  5
28  37  5
36  41  6
39  40  6
26  4  6
31  4  6
22  5  5
27  8  6
34  9  5

$$$$

