69925
  -OEChem-07051213053D

 36 38  0     0  0  0  0  0  0999 V2000
   -0.0536   -0.0018    0.9145 Si  0  0  0  0  0  0  0  0  0  0  0  0
   -0.0932    0.0029    2.5679 O   0  0  0  0  0  0  0  0  0  0  0  0
    0.8615    1.4942    0.2846 C   0  0  0  0  0  0  0  0  0  0  0  0
    0.8810   -1.4757    0.2879 C   0  0  0  0  0  0  0  0  0  0  0  0
   -1.7897   -0.0143    0.2767 C   0  0  0  0  0  0  0  0  0  0  0  0
    0.5254    2.0487   -0.9504 C   0  0  0  0  0  0  0  0  0  0  0  0
    1.5839   -1.4055   -0.9201 C   0  0  0  0  0  0  0  0  0  0  0  0
   -2.0977   -0.6465   -0.9360 C   0  0  0  0  0  0  0  0  0  0  0  0
    1.8826    2.0595    1.0484 C   0  0  0  0  0  0  0  0  0  0  0  0
    0.8901   -2.6690    1.0186 C   0  0  0  0  0  0  0  0  0  0  0  0
   -2.8170    0.6083    0.9992 C   0  0  0  0  0  0  0  0  0  0  0  0
    1.2105    3.1686   -1.4217 C   0  0  0  0  0  0  0  0  0  0  0  0
    2.2870   -2.5143   -1.3913 C   0  0  0  0  0  0  0  0  0  0  0  0
   -3.4071   -0.6559   -1.4167 C   0  0  0  0  0  0  0  0  0  0  0  0
    2.5677    3.1795    0.5771 C   0  0  0  0  0  0  0  0  0  0  0  0
    1.5932   -3.7779    0.5476 C   0  0  0  0  0  0  0  0  0  0  0  0
   -4.1265    0.5989    0.5185 C   0  0  0  0  0  0  0  0  0  0  0  0
    2.2316    3.7340   -0.6579 C   0  0  0  0  0  0  0  0  0  0  0  0
    2.2917   -3.7004   -0.6574 C   0  0  0  0  0  0  0  0  0  0  0  0
   -4.4214   -0.0333   -0.6895 C   0  0  0  0  0  0  0  0  0  0  0  0
   -0.2595    1.6333   -1.5763 H   0  0  0  0  0  0  0  0  0  0  0  0
    1.5995   -0.5087   -1.5320 H   0  0  0  0  0  0  0  0  0  0  0  0
   -1.3358   -1.1375   -1.5359 H   0  0  0  0  0  0  0  0  0  0  0  0
    2.1678    1.6472    2.0134 H   0  0  0  0  0  0  0  0  0  0  0  0
    0.3531   -2.7617    1.9600 H   0  0  0  0  0  0  0  0  0  0  0  0
   -2.6187    1.1121    1.9429 H   0  0  0  0  0  0  0  0  0  0  0  0
   -0.5752   -0.7072    3.0241 H   0  0  0  0  0  0  0  0  0  0  0  0
    0.9503    3.5998   -2.3841 H   0  0  0  0  0  0  0  0  0  0  0  0
    2.8286   -2.4555   -2.3309 H   0  0  0  0  0  0  0  0  0  0  0  0
   -3.6369   -1.1466   -2.3580 H   0  0  0  0  0  0  0  0  0  0  0  0
    3.3633    3.6195    1.1712 H   0  0  0  0  0  0  0  0  0  0  0  0
    1.5963   -4.7020    1.1182 H   0  0  0  0  0  0  0  0  0  0  0  0
   -4.9165    1.0844    1.0840 H   0  0  0  0  0  0  0  0  0  0  0  0
    2.7654    4.6057   -1.0251 H   0  0  0  0  0  0  0  0  0  0  0  0
    2.8383   -4.5641   -1.0246 H   0  0  0  0  0  0  0  0  0  0  0  0
   -5.4408   -0.0400   -1.0641 H   0  0  0  0  0  0  0  0  0  0  0  0
  1  2  1  0  0  0  0
  1  3  1  0  0  0  0
  1  4  1  0  0  0  0
  1  5  1  0  0  0  0
  2 27  1  0  0  0  0
  3  6  2  0  0  0  0
  3  9  1  0  0  0  0
  4  7  2  0  0  0  0
  4 10  1  0  0  0  0
  5  8  2  0  0  0  0
  5 11  1  0  0  0  0
  6 12  1  0  0  0  0
  6 21  1  0  0  0  0
  7 13  1  0  0  0  0
  7 22  1  0  0  0  0
  8 14  1  0  0  0  0
  8 23  1  0  0  0  0
  9 15  2  0  0  0  0
  9 24  1  0  0  0  0
 10 16  2  0  0  0  0
 10 25  1  0  0  0  0
 11 17  2  0  0  0  0
 11 26  1  0  0  0  0
 12 18  2  0  0  0  0
 12 28  1  0  0  0  0
 13 19  2  0  0  0  0
 13 29  1  0  0  0  0
 14 20  2  0  0  0  0
 14 30  1  0  0  0  0
 15 18  1  0  0  0  0
 15 31  1  0  0  0  0
 16 19  1  0  0  0  0
 16 32  1  0  0  0  0
 17 20  1  0  0  0  0
 17 33  1  0  0  0  0
 18 34  1  0  0  0  0
 19 35  1  0  0  0  0
 20 36  1  0  0  0  0
M  END
> <PUBCHEM_COMPOUND_CID>
69925

> <PUBCHEM_CONFORMER_RMSD>
0.6

> <PUBCHEM_CONFORMER_DIVERSEORDER>
1
2
5
4
3

> <PUBCHEM_MMFF94_PARTIAL_CHARGES>
36
1 0.96
10 -0.15
11 -0.15
12 -0.15
13 -0.15
14 -0.15
15 -0.15
16 -0.15
17 -0.15
18 -0.15
19 -0.15
2 -0.7
20 -0.15
21 0.15
22 0.15
23 0.15
24 0.15
25 0.15
26 0.15
27 0.4
28 0.15
29 0.15
3 -0.22
30 0.15
31 0.15
32 0.15
33 0.15
34 0.15
35 0.15
36 0.15
4 -0.22
5 -0.22
6 -0.15
7 -0.15
8 -0.15
9 -0.15

> <PUBCHEM_EFFECTIVE_ROTOR_COUNT>
3

> <PUBCHEM_PHARMACOPHORE_FEATURES>
3
6 3 6 9 12 15 18 rings
6 4 7 10 13 16 19 rings
6 5 8 11 14 17 20 rings

> <PUBCHEM_HEAVY_ATOM_COUNT>
20

> <PUBCHEM_ATOM_DEF_STEREO_COUNT>
0

> <PUBCHEM_ATOM_UDEF_STEREO_COUNT>
0

> <PUBCHEM_BOND_DEF_STEREO_COUNT>
0

> <PUBCHEM_BOND_UDEF_STEREO_COUNT>
0

> <PUBCHEM_ISOTOPIC_ATOM_COUNT>
0

> <PUBCHEM_COMPONENT_COUNT>
1

> <PUBCHEM_CACTVS_TAUTO_COUNT>
1

> <PUBCHEM_CONFORMER_ID>
0001112500000001

> <PUBCHEM_MMFF94_ENERGY>
50.959

> <PUBCHEM_FEATURE_SELFOVERLAP>
15.223

> <PUBCHEM_SHAPE_FINGERPRINT>
10165383 225 16974142187620792733
11045515 52 18052528061026281902
11069576 57 17825986695722464527
11101153 10 18053085510161234822
11578080 2 17683547377904154904
11833330 49 17620478342846630624
12054548 360 17978793737536355188
121448 382 17610627414509860545
12553582 1 18049440636945299747
12643181 29 18122615065185040316
12714826 92 17468766637292893979
12788726 201 17262715989542135203
13004483 165 17760931036068192291
13149001 5 18199163183613849203
133893 2 18408328787140479759
13681431 1 18338797921940646114
13911987 19 17913170352917729806
13931106 250 17111859712682225578
14004458 79 17616813679054723918
14181834 199 18187367657393654639
14817 1 16400060022507246666
14863182 85 17753361723450792955
14955137 171 17538523946058100115
15502722 9 18337949000554333931
15852999 172 17827345584619667076
15906896 17 17264694616497794648
1813 80 18045493377305859855
18785283 64 18270946965117580265
20361792 2 18120660385958616135
20567600 347 18044943363593227375
20600515 1 17462280553886299679
20602899 9 17756688755288817856
21285901 2 17034730067711326493
21304303 282 17108794892760415085
21524375 3 17698455329616213761
22112679 90 17684906374022760762
2255824 54 18408605868265679671
22907989 373 17042875799041423340
23419403 2 17555407904500421771
23557571 272 17473003051805981210
23566358 27 18337381670072290059
25222932 49 14668177493816085196
266924 78 18120904322899593579
298252 57 17909562657117875329
3091708 16 9184245361555972498
404807 78 16759492118202940375
4409770 3 17042049533464815231
474 4 18340493253260260329
6786 2 17909524204222653606
6992083 37 17610046138105041513
7164475 11 17404857541308879686
7364860 26 18333734615292316697
81228 2 17617938479370674634
84936 31 18335710416117602853
90316 7 17686899831722598003

> <PUBCHEM_SHAPE_MULTIPOLES>
423.93
5.42
5.1
1.64
7.9
0.43
0.31
-0.4
-1.21
-7.6
-1.02
0.01
-0.02
-0.04

> <PUBCHEM_SHAPE_SELFOVERLAP>
908.497

> <PUBCHEM_SHAPE_VOLUME>
232.8

> <PUBCHEM_COORDINATE_TYPE>
2
5
10

$$$$

