4114
  -OEChem-07051212463D

 24 26  0     0  0  0  0  0  0999 V2000
    2.9262   -0.6841    0.1847 O   0  0  0  0  0  0  0  0  0  0  0  0
   -1.9069   -0.9016    0.1373 O   0  0  0  0  0  0  0  0  0  0  0  0
    0.4864   -2.2724    0.3179 O   0  0  0  0  0  0  0  0  0  0  0  0
   -4.1969   -0.8986    0.1036 O   0  0  0  0  0  0  0  0  0  0  0  0
    1.7101    1.2076   -0.0344 C   0  0  0  0  0  0  0  0  0  0  0  0
    1.6637   -0.1757    0.1122 C   0  0  0  0  0  0  0  0  0  0  0  0
   -0.7108    1.2100   -0.0701 C   0  0  0  0  0  0  0  0  0  0  0  0
   -0.6938   -0.1768    0.0777 C   0  0  0  0  0  0  0  0  0  0  0  0
    0.4872   -0.9183    0.1740 C   0  0  0  0  0  0  0  0  0  0  0  0
    0.4985    1.9204   -0.1282 C   0  0  0  0  0  0  0  0  0  0  0  0
    3.0889    1.5473   -0.0501 C   0  0  0  0  0  0  0  0  0  0  0  0
   -1.9943    1.8883   -0.1608 C   0  0  0  0  0  0  0  0  0  0  0  0
    3.7813    0.3666    0.0859 C   0  0  0  0  0  0  0  0  0  0  0  0
   -3.1326    1.1929   -0.1035 C   0  0  0  0  0  0  0  0  0  0  0  0
   -3.1441   -0.2725    0.0521 C   0  0  0  0  0  0  0  0  0  0  0  0
    1.1371   -3.0330   -0.6985 C   0  0  0  0  0  0  0  0  0  0  0  0
    0.5090    3.0009   -0.2431 H   0  0  0  0  0  0  0  0  0  0  0  0
    3.5237    2.5320   -0.1485 H   0  0  0  0  0  0  0  0  0  0  0  0
   -2.0115    2.9666   -0.2757 H   0  0  0  0  0  0  0  0  0  0  0  0
    4.8317    0.1183    0.1278 H   0  0  0  0  0  0  0  0  0  0  0  0
   -4.0913    1.6956   -0.1708 H   0  0  0  0  0  0  0  0  0  0  0  0
    0.9594   -2.6084   -1.6924 H   0  0  0  0  0  0  0  0  0  0  0  0
    0.7266   -4.0466   -0.6781 H   0  0  0  0  0  0  0  0  0  0  0  0
    2.2102   -3.0942   -0.4973 H   0  0  0  0  0  0  0  0  0  0  0  0
  1  6  1  0  0  0  0
  1 13  1  0  0  0  0
  2  8  1  0  0  0  0
  2 15  1  0  0  0  0
  3  9  1  0  0  0  0
  3 16  1  0  0  0  0
  4 15  2  0  0  0  0
  5  6  2  0  0  0  0
  5 10  1  0  0  0  0
  5 11  1  0  0  0  0
  6  9  1  0  0  0  0
  7  8  1  0  0  0  0
  7 10  2  0  0  0  0
  7 12  1  0  0  0  0
  8  9  2  0  0  0  0
 10 17  1  0  0  0  0
 11 13  2  0  0  0  0
 11 18  1  0  0  0  0
 12 14  2  0  0  0  0
 12 19  1  0  0  0  0
 13 20  1  0  0  0  0
 14 15  1  0  0  0  0
 14 21  1  0  0  0  0
 16 22  1  0  0  0  0
 16 23  1  0  0  0  0
 16 24  1  0  0  0  0
M  END
> <PUBCHEM_COMPOUND_CID>
4114

> <PUBCHEM_CONFORMER_RMSD>
0.6

> <PUBCHEM_CONFORMER_DIVERSEORDER>
1

> <PUBCHEM_MMFF94_PARTIAL_CHARGES>
20
1 -0.28
10 -0.15
11 -0.15
12 -0.18
13 -0.01
14 -0.14
15 0.71
16 0.28
17 0.15
18 0.15
19 0.15
2 -0.23
20 0.15
21 0.15
3 -0.36
4 -0.57
6 0.14
7 0.03
8 0.08
9 0.08

> <PUBCHEM_EFFECTIVE_ROTOR_COUNT>
1

> <PUBCHEM_PHARMACOPHORE_FEATURES>
6
1 1 acceptor
1 3 acceptor
1 4 acceptor
5 1 5 6 11 13 rings
6 2 7 8 12 14 15 rings
6 5 6 7 8 9 10 rings

> <PUBCHEM_HEAVY_ATOM_COUNT>
16

> <PUBCHEM_ATOM_DEF_STEREO_COUNT>
0

> <PUBCHEM_ATOM_UDEF_STEREO_COUNT>
0

> <PUBCHEM_BOND_DEF_STEREO_COUNT>
0

> <PUBCHEM_BOND_UDEF_STEREO_COUNT>
0

> <PUBCHEM_ISOTOPIC_ATOM_COUNT>
0

> <PUBCHEM_COMPONENT_COUNT>
1

> <PUBCHEM_CACTVS_TAUTO_COUNT>
1

> <PUBCHEM_CONFORMER_ID>
0000101200000001

> <PUBCHEM_MMFF94_ENERGY>
49.7203

> <PUBCHEM_FEATURE_SELFOVERLAP>
30.579

> <PUBCHEM_SHAPE_FINGERPRINT>
10608611 8 18341054128554755525
108231 29 18261111816206254313
10967382 1 18411138004572841178
10980938 120 18410574015221549019
11132069 177 18412550915695931224
11471102 20 18411706478297505317
11578080 2 16627157500942514478
11680986 33 18049161360674690415
11806522 49 18339083670921499679
12032990 46 18411133645291980924
13140716 1 18123183511698704179
13380535 21 18265888253894528601
13380535 76 18413672413287571755
14178342 30 18265339588860188816
14251717 144 18410296882741728199
14325111 11 18412263934634580368
15042514 8 18196092136342770082
15196674 1 18412263943113556800
15219456 202 18338515364864291863
15309172 13 18337383855492829465
15442244 35 17904199583142426561
15536298 74 18261955266331361798
16945 1 18194400228222899208
17990270 104 18194684993054757955
18186145 218 18261104184349906424
193761 8 17906453577658123560
19591789 44 18409446981681178350
200 152 18187938257311727309
20201158 50 18413109489362228553
20510252 161 18261391126598673072
20645476 183 17702367460944311382
20645477 70 18338805623381536415
21267235 1 18412255129845790818
21501502 16 18267869565210165849
21524375 3 18412546479300539618
221490 88 18339352093071182698
2334 1 18411702041417102728
23402539 116 18335149643960624508
23419403 2 16036975955736300720
23463225 33 18343305898451063944
23559900 14 18193565699287567034
2748010 2 18412263917639184676
2871803 45 18413114952761115295
335352 9 18051414264305657060
43471831 8 18341054094258190890
5104073 3 18412265051331275121
528886 8 18410862027175440072
54173680 148 18053099515099618130
69090 78 18263366901917327250
7364860 26 18191306189627874822
81228 2 17543648430210440258
8809292 202 18130783404815865827
9709674 26 18340201985826848931

> <PUBCHEM_SHAPE_MULTIPOLES>
305.8
5.8
2.57
0.64
1.83
1.48
-0.03
-0.74
0.17
-0.62
-0.39
-0.05
0.07
0.2

> <PUBCHEM_SHAPE_SELFOVERLAP>
686.462

> <PUBCHEM_SHAPE_VOLUME>
163.1

> <PUBCHEM_COORDINATE_TYPE>
2
5
10

$$$$

