108012
  -OEChem-07051212463D

 41 40  0     1  0  0  0  0  0999 V2000
    0.3386   -3.8436    0.0492 O   0  0  0  0  0  0  0  0  0  0  0  0
   -2.2031    0.1823   -2.9556 O   0  0  0  0  0  0  0  0  0  0  0  0
    0.2254   -2.7955    2.0585 O   0  0  0  0  0  0  0  0  0  0  0  0
   -2.1596   -1.8301   -1.9125 O   0  0  0  0  0  0  0  0  0  0  0  0
   -5.6151    1.3920    1.5573 O   0  0  0  0  0  0  0  0  0  0  0  0
   -4.2120    3.0457    0.8796 O   0  0  0  0  0  0  0  0  0  0  0  0
   -1.0104   -0.8075    0.3186 N   0  0  0  0  0  0  0  0  0  0  0  0
    3.9245    0.9470   -0.2889 N   0  0  0  0  0  0  0  0  0  0  0  0
    5.9296    1.7233    0.7822 N   0  0  0  0  0  0  0  0  0  0  0  0
    4.9276    2.9599   -0.8494 N   0  0  0  0  0  0  0  0  0  0  0  0
    0.2646   -1.4564    0.0229 C   0  0  1  0  0  0  0  0  0  0  0  0
   -1.3585    0.1464   -0.7237 C   0  0  2  0  0  0  0  0  0  0  0  0
    1.4251   -0.5182    0.3874 C   0  0  0  0  0  0  0  0  0  0  0  0
   -2.3142    1.2380   -0.2137 C   0  0  0  0  0  0  0  0  0  0  0  0
    2.7945   -1.1761    0.1639 C   0  0  0  0  0  0  0  0  0  0  0  0
   -3.6363    0.7523    0.3869 C   0  0  0  0  0  0  0  0  0  0  0  0
    0.2809   -2.7372    0.8369 C   0  0  0  0  0  0  0  0  0  0  0  0
    3.9505   -0.2565    0.5440 C   0  0  0  0  0  0  0  0  0  0  0  0
   -1.9415   -0.6256   -1.8940 C   0  0  0  0  0  0  0  0  0  0  0  0
   -4.4911    1.8562    0.9571 C   0  0  0  0  0  0  0  0  0  0  0  0
    4.8806    1.8037   -0.1065 C   0  0  0  0  0  0  0  0  0  0  0  0
    0.3460   -1.7361   -1.0350 H   0  0  0  0  0  0  0  0  0  0  0  0
   -0.4729    0.6654   -1.1070 H   0  0  0  0  0  0  0  0  0  0  0  0
    1.3528   -0.2271    1.4442 H   0  0  0  0  0  0  0  0  0  0  0  0
    1.3779    0.4059   -0.1971 H   0  0  0  0  0  0  0  0  0  0  0  0
   -0.9521   -0.3375    1.2218 H   0  0  0  0  0  0  0  0  0  0  0  0
   -1.7851    1.8355    0.5417 H   0  0  0  0  0  0  0  0  0  0  0  0
   -2.5400    1.9347   -1.0320 H   0  0  0  0  0  0  0  0  0  0  0  0
    2.8878   -1.4635   -0.8907 H   0  0  0  0  0  0  0  0  0  0  0  0
    2.8762   -2.0932    0.7582 H   0  0  0  0  0  0  0  0  0  0  0  0
   -4.2245    0.2398   -0.3822 H   0  0  0  0  0  0  0  0  0  0  0  0
   -3.4367    0.0475    1.2015 H   0  0  0  0  0  0  0  0  0  0  0  0
    3.8682    0.0090    1.6050 H   0  0  0  0  0  0  0  0  0  0  0  0
    4.8888   -0.8039    0.3933 H   0  0  0  0  0  0  0  0  0  0  0  0
    0.3379   -4.6692    0.5789 H   0  0  0  0  0  0  0  0  0  0  0  0
   -2.5793   -0.3179   -3.7110 H   0  0  0  0  0  0  0  0  0  0  0  0
   -6.1647    2.1198    1.9185 H   0  0  0  0  0  0  0  0  0  0  0  0
    6.6248    2.4597    0.8378 H   0  0  0  0  0  0  0  0  0  0  0  0
    6.0473    0.9365    1.4106 H   0  0  0  0  0  0  0  0  0  0  0  0
    5.6662    3.6429   -0.7215 H   0  0  0  0  0  0  0  0  0  0  0  0
    4.2206    3.1625   -1.5477 H   0  0  0  0  0  0  0  0  0  0  0  0
  1 17  1  0  0  0  0
  1 35  1  0  0  0  0
  2 19  1  0  0  0  0
  2 36  1  0  0  0  0
  3 17  2  0  0  0  0
  4 19  2  0  0  0  0
  5 20  1  0  0  0  0
  5 37  1  0  0  0  0
  6 20  2  0  0  0  0
  7 11  1  0  0  0  0
  7 12  1  0  0  0  0
  7 26  1  0  0  0  0
  8 18  1  0  0  0  0
  8 21  2  0  0  0  0
  9 21  1  0  0  0  0
  9 38  1  0  0  0  0
  9 39  1  0  0  0  0
 10 21  1  0  0  0  0
 10 40  1  0  0  0  0
 10 41  1  0  0  0  0
 11 13  1  0  0  0  0
 11 17  1  0  0  0  0
 11 22  1  0  0  0  0
 12 14  1  0  0  0  0
 12 19  1  0  0  0  0
 12 23  1  0  0  0  0
 13 15  1  0  0  0  0
 13 24  1  0  0  0  0
 13 25  1  0  0  0  0
 14 16  1  0  0  0  0
 14 27  1  0  0  0  0
 14 28  1  0  0  0  0
 15 18  1  0  0  0  0
 15 29  1  0  0  0  0
 15 30  1  0  0  0  0
 16 20  1  0  0  0  0
 16 31  1  0  0  0  0
 16 32  1  0  0  0  0
 18 33  1  0  0  0  0
 18 34  1  0  0  0  0
M  END
> <PUBCHEM_COMPOUND_CID>
108012

> <PUBCHEM_CONFORMER_RMSD>
1

> <PUBCHEM_CONFORMER_DIVERSEORDER>
3
71
72
27
5
39
65
61
38
69
33
43
62
73
34
60
45
58
47
41
77
10
40
67
74
25
23
76
46
59
6
28
18
49
4
24
68
20
64
17
42
26
12
30
66
14
19
15
53
29
52
54
13
32
35
9
63
57
22
36
75
50
21
44
51
56
55
31
16
1
48
2
7
37
8
70
11

> <PUBCHEM_MMFF94_PARTIAL_CHARGES>
26
1 -0.65
10 -0.85
11 0.33
12 0.33
16 0.06
17 0.66
18 0.25
19 0.66
2 -0.65
20 0.66
21 0.55
26 0.36
3 -0.57
35 0.5
36 0.5
37 0.5
38 0.4
39 0.4
4 -0.57
40 0.4
41 0.4
5 -0.65
6 -0.57
7 -0.9
8 -0.7
9 -0.85

> <PUBCHEM_EFFECTIVE_ROTOR_COUNT>
11

> <PUBCHEM_PHARMACOPHORE_FEATURES>
14
1 1 acceptor
1 10 donor
1 2 acceptor
1 3 acceptor
1 4 acceptor
1 5 acceptor
1 6 acceptor
1 7 cation
1 7 donor
1 9 donor
3 1 3 17 anion
3 2 4 19 anion
3 5 6 20 anion
4 8 9 10 21 cation

> <PUBCHEM_HEAVY_ATOM_COUNT>
21

> <PUBCHEM_ATOM_DEF_STEREO_COUNT>
2

> <PUBCHEM_ATOM_UDEF_STEREO_COUNT>
0

> <PUBCHEM_BOND_DEF_STEREO_COUNT>
0

> <PUBCHEM_BOND_UDEF_STEREO_COUNT>
0

> <PUBCHEM_ISOTOPIC_ATOM_COUNT>
0

> <PUBCHEM_COMPONENT_COUNT>
1

> <PUBCHEM_CACTVS_TAUTO_COUNT>
2

> <PUBCHEM_CONFORMER_ID>
0001A5EC00000003

> <PUBCHEM_MMFF94_ENERGY>
32.8882

> <PUBCHEM_FEATURE_SELFOVERLAP>
71.273

> <PUBCHEM_SHAPE_FINGERPRINT>
10493431 412 18412822473656517352
12390115 104 18338499868617026288
12633257 1 16343405246408396064
12788726 201 18119545240370736550
12895836 83 17167866361105214873
12895837 130 17750799844463373664
13583140 156 17553769847477307485
13828863 39 18410848876439546057
14787075 74 18409446977765597217
15163728 17 16879892270437860921
15188451 53 12463295769580465768
15342168 16 18342171163722750932
15534591 1 18260553328939936143
15842332 3 17971784256689483127
18186145 218 18343029921359825742
18785283 64 18198339752884728450
20621476 91 15984812689232037377
21618674 53 18260837024493717199
21756936 100 18335985277161156368
22079108 93 18271800224811264201
22182937 141 18199185088447549552
22620623 9 16298964056134496757
38570 142 18263907960739179444
474 4 18411422851336295130
5924683 9 11383842570831065868
621550 34 17774438425109942807
633830 44 18336550507663512894
7288768 16 18272646831553212242
960060 61 6627460822562954912

> <PUBCHEM_SHAPE_MULTIPOLES>
377.03
11.13
3.69
1.76
6.27
1.35
1.06
-14.01
-2.99
1.02
-1.03
-2.02
0.43
-2.19

> <PUBCHEM_SHAPE_SELFOVERLAP>
735.568

> <PUBCHEM_SHAPE_VOLUME>
223.6

> <PUBCHEM_COORDINATE_TYPE>
2
5
10

$$$$

