4132
  -OEChem-06251223543D

 64 68  0     1  0  0  0  0  0999 V2000
   -0.1033   -0.4893    1.1289 O   0  0  0  0  0  0  0  0  0  0  0  0
   -0.3992   -1.3112   -2.2770 O   0  0  0  0  0  0  0  0  0  0  0  0
   -0.5463    1.2699   -3.0089 O   0  0  0  0  0  0  0  0  0  0  0  0
   -1.9808    3.7435   -1.5841 O   0  0  0  0  0  0  0  0  0  0  0  0
   -3.4183   -1.5914   -2.0072 O   0  0  0  0  0  0  0  0  0  0  0  0
    0.2703    4.0563   -1.1700 O   0  0  0  0  0  0  0  0  0  0  0  0
   -4.1262   -2.6748    2.5925 O   0  0  0  0  0  0  0  0  0  0  0  0
    5.2701   -2.9368   -1.1351 O   0  0  0  0  0  0  0  0  0  0  0  0
    0.4197   -0.1290   -0.1948 C   0  0  1  0  0  0  0  0  0  0  0  0
   -0.7283   -0.4037   -1.2433 C   0  0  1  0  0  0  0  0  0  0  0  0
    0.5932    1.4364   -0.2054 C   0  0  1  0  0  0  0  0  0  0  0  0
   -1.1897    0.9683   -1.7724 C   0  0  1  0  0  0  0  0  0  0  0  0
   -0.7884    1.9541   -0.6642 C   0  0  2  0  0  0  0  0  0  0  0  0
   -1.7514   -1.0527   -0.3767 C   0  0  0  0  0  0  0  0  0  0  0  0
    1.7260   -0.8850   -0.4479 C   0  0  0  0  0  0  0  0  0  0  0  0
   -1.3267   -1.0623    0.9364 C   0  0  0  0  0  0  0  0  0  0  0  0
    1.1463    2.0191    1.0845 C   0  0  0  0  0  0  0  0  0  0  0  0
   -0.7410    3.3674   -1.1597 C   0  0  0  0  0  0  0  0  0  0  0  0
   -2.9829   -1.5897   -0.7206 C   0  0  0  0  0  0  0  0  0  0  0  0
    2.2190   -1.7699    0.5125 C   0  0  0  0  0  0  0  0  0  0  0  0
    2.4265   -0.6912   -1.6393 C   0  0  0  0  0  0  0  0  0  0  0  0
   -2.0972   -1.5942    1.9537 C   0  0  0  0  0  0  0  0  0  0  0  0
    0.2747    2.4398    2.0880 C   0  0  0  0  0  0  0  0  0  0  0  0
    2.5244    2.1323    1.2621 C   0  0  0  0  0  0  0  0  0  0  0  0
   -3.7783   -2.1375    0.2885 C   0  0  0  0  0  0  0  0  0  0  0  0
   -3.3372   -2.1393    1.6200 C   0  0  0  0  0  0  0  0  0  0  0  0
    3.4095   -2.4591    0.2819 C   0  0  0  0  0  0  0  0  0  0  0  0
    3.6169   -1.3804   -1.8700 C   0  0  0  0  0  0  0  0  0  0  0  0
    0.7827    2.9749    3.2717 C   0  0  0  0  0  0  0  0  0  0  0  0
    3.0321    2.6673    2.4459 C   0  0  0  0  0  0  0  0  0  0  0  0
    4.1087   -2.2644   -0.9094 C   0  0  0  0  0  0  0  0  0  0  0  0
    2.1614    3.0886    3.4507 C   0  0  0  0  0  0  0  0  0  0  0  0
   -2.0798    5.0802   -2.0857 C   0  0  0  0  0  0  0  0  0  0  0  0
   -4.7003   -2.1672   -2.2610 C   0  0  0  0  0  0  0  0  0  0  0  0
   -3.6220   -2.6441    3.9264 C   0  0  0  0  0  0  0  0  0  0  0  0
    5.7159   -3.8249   -0.1112 C   0  0  0  0  0  0  0  0  0  0  0  0
    1.3040    1.7124   -0.9983 H   0  0  0  0  0  0  0  0  0  0  0  0
   -2.2685    0.9988   -1.9631 H   0  0  0  0  0  0  0  0  0  0  0  0
   -1.5283    1.8976    0.1406 H   0  0  0  0  0  0  0  0  0  0  0  0
    0.0160   -0.8102   -2.9989 H   0  0  0  0  0  0  0  0  0  0  0  0
   -0.9412    2.0875   -3.3561 H   0  0  0  0  0  0  0  0  0  0  0  0
    1.7070   -1.9488    1.4530 H   0  0  0  0  0  0  0  0  0  0  0  0
    2.0685   -0.0027   -2.3991 H   0  0  0  0  0  0  0  0  0  0  0  0
   -1.6941   -1.5579    2.9584 H   0  0  0  0  0  0  0  0  0  0  0  0
   -0.8021    2.3526    2.0022 H   0  0  0  0  0  0  0  0  0  0  0  0
    3.2147    1.8099    0.4874 H   0  0  0  0  0  0  0  0  0  0  0  0
   -4.7533   -2.5781    0.1054 H   0  0  0  0  0  0  0  0  0  0  0  0
    3.7349   -3.1299    1.0698 H   0  0  0  0  0  0  0  0  0  0  0  0
    4.1579   -1.2234   -2.7991 H   0  0  0  0  0  0  0  0  0  0  0  0
    0.1053    3.2988    4.0565 H   0  0  0  0  0  0  0  0  0  0  0  0
    4.1056    2.7558    2.5852 H   0  0  0  0  0  0  0  0  0  0  0  0
    2.5568    3.5040    4.3730 H   0  0  0  0  0  0  0  0  0  0  0  0
   -1.8158    5.7987   -1.3039 H   0  0  0  0  0  0  0  0  0  0  0  0
   -3.1160    5.2542   -2.3874 H   0  0  0  0  0  0  0  0  0  0  0  0
   -1.4337    5.2047   -2.9600 H   0  0  0  0  0  0  0  0  0  0  0  0
   -4.8852   -2.0813   -3.3367 H   0  0  0  0  0  0  0  0  0  0  0  0
   -4.7165   -3.2349   -2.0176 H   0  0  0  0  0  0  0  0  0  0  0  0
   -5.4972   -1.6128   -1.7539 H   0  0  0  0  0  0  0  0  0  0  0  0
   -2.7071   -3.2382    4.0248 H   0  0  0  0  0  0  0  0  0  0  0  0
   -3.4899   -1.6170    4.2832 H   0  0  0  0  0  0  0  0  0  0  0  0
   -4.3765   -3.1107    4.5682 H   0  0  0  0  0  0  0  0  0  0  0  0
    6.6526   -4.2737   -0.4578 H   0  0  0  0  0  0  0  0  0  0  0  0
    5.9425   -3.2883    0.8163 H   0  0  0  0  0  0  0  0  0  0  0  0
    5.0074   -4.6453    0.0463 H   0  0  0  0  0  0  0  0  0  0  0  0
  1  9  1  0  0  0  0
  1 16  1  0  0  0  0
  2 10  1  0  0  0  0
  2 40  1  0  0  0  0
  3 12  1  0  0  0  0
  3 41  1  0  0  0  0
  4 18  1  0  0  0  0
  4 33  1  0  0  0  0
  5 19  1  0  0  0  0
  5 34  1  0  0  0  0
  6 18  2  0  0  0  0
  7 26  1  0  0  0  0
  7 35  1  0  0  0  0
  8 31  1  0  0  0  0
  8 36  1  0  0  0  0
  9 10  1  0  0  0  0
  9 11  1  0  0  0  0
  9 15  1  0  0  0  0
 10 12  1  0  0  0  0
 10 14  1  0  0  0  0
 11 13  1  0  0  0  0
 11 17  1  0  0  0  0
 11 37  1  0  0  0  0
 12 13  1  0  0  0  0
 12 38  1  0  0  0  0
 13 18  1  0  0  0  0
 13 39  1  0  0  0  0
 14 16  2  0  0  0  0
 14 19  1  0  0  0  0
 15 20  2  0  0  0  0
 15 21  1  0  0  0  0
 16 22  1  0  0  0  0
 17 23  2  0  0  0  0
 17 24  1  0  0  0  0
 19 25  2  0  0  0  0
 20 27  1  0  0  0  0
 20 42  1  0  0  0  0
 21 28  2  0  0  0  0
 21 43  1  0  0  0  0
 22 26  2  0  0  0  0
 22 44  1  0  0  0  0
 23 29  1  0  0  0  0
 23 45  1  0  0  0  0
 24 30  2  0  0  0  0
 24 46  1  0  0  0  0
 25 26  1  0  0  0  0
 25 47  1  0  0  0  0
 27 31  2  0  0  0  0
 27 48  1  0  0  0  0
 28 31  1  0  0  0  0
 28 49  1  0  0  0  0
 29 32  2  0  0  0  0
 29 50  1  0  0  0  0
 30 32  1  0  0  0  0
 30 51  1  0  0  0  0
 32 52  1  0  0  0  0
 33 53  1  0  0  0  0
 33 54  1  0  0  0  0
 33 55  1  0  0  0  0
 34 56  1  0  0  0  0
 34 57  1  0  0  0  0
 34 58  1  0  0  0  0
 35 59  1  0  0  0  0
 35 60  1  0  0  0  0
 35 61  1  0  0  0  0
 36 62  1  0  0  0  0
 36 63  1  0  0  0  0
 36 64  1  0  0  0  0
M  END
> <PUBCHEM_COMPOUND_CID>
4132

> <PUBCHEM_CONFORMER_RMSD>
1

> <PUBCHEM_CONFORMER_DIVERSEORDER>
1
16
47
57
51
37
12
4
28
70
27
36
61
64
46
44
52
55
32
23
67
65
35
25
10
41
22
62
21
18
6
33
58
24
69
66
20
72
17
50
63
14
9
68
54
34
2
43
60
30
29
53
13
42
59
3
71
15
49
8
31
26
19
38
48
45
7
5
40
39
56
11

> <PUBCHEM_MMFF94_PARTIAL_CHARGES>
49
1 -0.36
10 0.42
11 0.14
12 0.28
13 0.06
14 -0.14
15 -0.14
16 0.08
17 -0.14
18 0.66
19 0.08
2 -0.68
20 -0.15
21 -0.15
22 -0.15
23 -0.15
24 -0.15
25 -0.15
26 0.08
27 -0.15
28 -0.15
29 -0.15
3 -0.68
30 -0.15
31 0.08
32 -0.15
33 0.28
34 0.28
35 0.28
36 0.28
4 -0.43
40 0.4
41 0.4
42 0.15
43 0.15
44 0.15
45 0.15
46 0.15
47 0.15
48 0.15
49 0.15
5 -0.36
50 0.15
51 0.15
52 0.15
6 -0.57
7 -0.36
8 -0.36
9 0.42

> <PUBCHEM_EFFECTIVE_ROTOR_COUNT>
7.8

> <PUBCHEM_PHARMACOPHORE_FEATURES>
14
1 1 acceptor
1 2 acceptor
1 2 donor
1 3 acceptor
1 3 donor
1 5 acceptor
1 6 acceptor
1 7 acceptor
1 8 acceptor
5 1 9 10 14 16 rings
5 9 10 11 12 13 rings
6 14 16 19 22 25 26 rings
6 15 20 21 27 28 31 rings
6 17 23 24 29 30 32 rings

> <PUBCHEM_HEAVY_ATOM_COUNT>
36

> <PUBCHEM_ATOM_DEF_STEREO_COUNT>
0

> <PUBCHEM_ATOM_UDEF_STEREO_COUNT>
5

> <PUBCHEM_BOND_DEF_STEREO_COUNT>
0

> <PUBCHEM_BOND_UDEF_STEREO_COUNT>
0

> <PUBCHEM_ISOTOPIC_ATOM_COUNT>
0

> <PUBCHEM_COMPONENT_COUNT>
1

> <PUBCHEM_CACTVS_TAUTO_COUNT>
1

> <PUBCHEM_CONFORMER_ID>
0000102400000001

> <PUBCHEM_MMFF94_ENERGY>
155.6458

> <PUBCHEM_FEATURE_SELFOVERLAP>
71.758

> <PUBCHEM_SHAPE_FINGERPRINT>
10305334 12 16682391437214007265
11578080 2 18409726253160512881
12156800 1 17908736120889711027
12160290 23 17759214664046875078
12293681 160 17251199683520838448
12788726 201 18056487376908083583
13149001 5 17901413360659331044
133893 2 18045490916305371703
13583140 156 17608066695300930723
13965767 371 17244387887111561273
14415361 192 18337936910823575636
14856354 85 17053918414085820704
14955137 171 17245500630922178854
15775530 1 18191611776662131708
19319366 153 17192367032531829397
22440779 20 18268973410333713209
229495 10 17389136414901221949
23419403 2 18333732416090044473
23559900 14 17202784630311581002
244849 19 18270124500788398827
24941158 1 16835670741354156897
3380486 145 17968112931803440368
35225 105 17621002771222706034
3552219 110 17904999847825326614
42626532 9 17987497282940678443
469060 322 17841675648967314388
5171179 24 18188228553375680196

> <PUBCHEM_SHAPE_MULTIPOLES>
693.91
7.73
5.99
3.71
2.68
5.46
2.56
-11.72
0.36
2.07
-0.18
-2.48
1.54
5.09

> <PUBCHEM_SHAPE_SELFOVERLAP>
1537.32

> <PUBCHEM_SHAPE_VOLUME>
372.1

> <PUBCHEM_COORDINATE_TYPE>
2
5
10

$$$$

