25912
  -OEChem-07051213003D

 25 25  0     0  0  0  0  0  0999 V2000
    5.0266   -0.8128    0.2095 Br  0  0  0  0  0  0  0  0  0  0  0  0
    3.7249    2.2451   -0.2082 Cl  0  0  0  0  0  0  0  0  0  0  0  0
   -3.4642    1.2639   -0.3668 O   0  0  0  0  0  0  0  0  0  0  0  0
   -1.8388   -1.9038    0.0599 O   0  0  0  0  0  0  0  0  0  0  0  0
   -0.9529    0.2425   -0.1707 N   0  0  0  0  0  0  0  0  0  0  0  0
   -3.2472   -0.1178   -0.1959 N   0  0  0  0  0  0  0  0  0  0  0  0
    0.4405    0.0167   -0.0856 C   0  0  0  0  0  0  0  0  0  0  0  0
    1.3091    1.0925   -0.1750 C   0  0  0  0  0  0  0  0  0  0  0  0
    0.9092   -1.2758    0.0861 C   0  0  0  0  0  0  0  0  0  0  0  0
   -1.9864   -0.6902   -0.0887 C   0  0  0  0  0  0  0  0  0  0  0  0
    2.6835    0.8697   -0.0903 C   0  0  0  0  0  0  0  0  0  0  0  0
    2.2835   -1.4986    0.1706 C   0  0  0  0  0  0  0  0  0  0  0  0
    3.1707   -0.4258    0.0825 C   0  0  0  0  0  0  0  0  0  0  0  0
   -4.4820   -0.8791   -0.1440 C   0  0  0  0  0  0  0  0  0  0  0  0
   -3.5766    1.8735    0.9167 C   0  0  0  0  0  0  0  0  0  0  0  0
   -1.2320    1.2102   -0.3105 H   0  0  0  0  0  0  0  0  0  0  0  0
    0.9219    2.0999   -0.3095 H   0  0  0  0  0  0  0  0  0  0  0  0
    0.2906   -2.1574    0.1617 H   0  0  0  0  0  0  0  0  0  0  0  0
    2.6441   -2.5155    0.3052 H   0  0  0  0  0  0  0  0  0  0  0  0
   -5.0765   -0.6439   -1.0313 H   0  0  0  0  0  0  0  0  0  0  0  0
   -5.0418   -0.5977    0.7516 H   0  0  0  0  0  0  0  0  0  0  0  0
   -4.2828   -1.9532   -0.1150 H   0  0  0  0  0  0  0  0  0  0  0  0
   -3.5723    2.9581    0.7763 H   0  0  0  0  0  0  0  0  0  0  0  0
   -2.7368    1.6088    1.5669 H   0  0  0  0  0  0  0  0  0  0  0  0
   -4.5217    1.5947    1.3916 H   0  0  0  0  0  0  0  0  0  0  0  0
  1 13  1  0  0  0  0
  2 11  1  0  0  0  0
  3  6  1  0  0  0  0
  3 15  1  0  0  0  0
  4 10  2  0  0  0  0
  5  7  1  0  0  0  0
  5 10  1  0  0  0  0
  5 16  1  0  0  0  0
  6 10  1  0  0  0  0
  6 14  1  0  0  0  0
  7  8  2  0  0  0  0
  7  9  1  0  0  0  0
  8 11  1  0  0  0  0
  8 17  1  0  0  0  0
  9 12  2  0  0  0  0
  9 18  1  0  0  0  0
 11 13  2  0  0  0  0
 12 13  1  0  0  0  0
 12 19  1  0  0  0  0
 14 20  1  0  0  0  0
 14 21  1  0  0  0  0
 14 22  1  0  0  0  0
 15 23  1  0  0  0  0
 15 24  1  0  0  0  0
 15 25  1  0  0  0  0
M  END
> <PUBCHEM_COMPOUND_CID>
25912

> <PUBCHEM_CONFORMER_RMSD>
0.6

> <PUBCHEM_CONFORMER_DIVERSEORDER>
1
39
35
47
22
44
41
7
40
45
19
31
46
43
48
10
24
29
11
26
38
4
2
30
27
32
42
6
28
37
14
3
15
21
23
5
34
36
13
20
33
16
12
8
17
25
18
9

> <PUBCHEM_MMFF94_PARTIAL_CHARGES>
19
1 -0.11
10 0.69
11 0.18
12 -0.15
13 0.11
14 0.3
15 0.28
16 0.37
17 0.15
18 0.15
19 0.15
2 -0.18
3 -0.32
4 -0.57
5 -0.55
6 -0.32
7 0.12
8 -0.15
9 -0.15

> <PUBCHEM_EFFECTIVE_ROTOR_COUNT>
4

> <PUBCHEM_PHARMACOPHORE_FEATURES>
4
1 1 hydrophobe
1 4 acceptor
1 5 donor
6 7 8 9 11 12 13 rings

> <PUBCHEM_HEAVY_ATOM_COUNT>
15

> <PUBCHEM_ATOM_DEF_STEREO_COUNT>
0

> <PUBCHEM_ATOM_UDEF_STEREO_COUNT>
0

> <PUBCHEM_BOND_DEF_STEREO_COUNT>
0

> <PUBCHEM_BOND_UDEF_STEREO_COUNT>
0

> <PUBCHEM_ISOTOPIC_ATOM_COUNT>
0

> <PUBCHEM_COMPONENT_COUNT>
1

> <PUBCHEM_CACTVS_TAUTO_COUNT>
2

> <PUBCHEM_CONFORMER_ID>
0000653800000001

> <PUBCHEM_MMFF94_ENERGY>
42.7929

> <PUBCHEM_FEATURE_SELFOVERLAP>
20.297

> <PUBCHEM_SHAPE_FINGERPRINT>
10465860 228 18411695500303178260
10608611 8 18412548699534939485
11471102 20 18413111641320153086
12162725 195 18408886239382644877
12251169 10 18411702092703392310
12346645 44 18339080389134092212
12932764 1 17313394387542248551
13675066 3 18040440988348001546
13922767 16 18408326592575578920
14144814 61 18412545427006983353
14325111 11 18340206289241239028
14415576 193 18410571773607336276
15196674 1 18411419505361826477
15442244 35 18266178511873410482
15536298 74 18409167680295055292
17834072 32 18121216743322205169
17834072 33 18409169874474873543
18186145 218 18341895233321777685
200 152 18187368731056500298
20645477 70 18409729552143477598
21267235 1 18411130338056633559
21452121 103 18262529096233789168
21501502 16 18411420591930250749
23402539 116 18259994764696406319
23402655 69 18408611370260840661
23559900 14 18336836311639852880
29717793 49 18113340820977105399
4214541 1 18410856572688280269
474 4 17845651426603595484
4990 188 18187071854901839294
5104073 3 18412544301403916216
77779 3 18411135822708368831
9709674 26 18409162220922805887

> <PUBCHEM_SHAPE_MULTIPOLES>
294.8
9.55
2.07
0.69
2.05
0.68
-0.06
0.74
-0.46
-0.36
-0.13
0.1
0.12
-0.69

> <PUBCHEM_SHAPE_SELFOVERLAP>
578.951

> <PUBCHEM_SHAPE_VOLUME>
182.2

> <PUBCHEM_COORDINATE_TYPE>
2
5
10

$$$$

