184959
  -OEChem-07051212553D

 55 57  0     1  0  0  0  0  0999 V2000
    0.5637   -1.1981    0.2447 O   0  0  0  0  0  0  0  0  0  0  0  0
   -2.0105   -0.3680   -0.1888 O   0  0  0  0  0  0  0  0  0  0  0  0
   -4.3167   -0.7243   -0.2691 O   0  0  0  0  0  0  0  0  0  0  0  0
   -0.9570   -4.4442   -0.5061 O   0  0  0  0  0  0  0  0  0  0  0  0
    2.7776   -0.4631    0.2952 O   0  0  0  0  0  0  0  0  0  0  0  0
    1.7333   -5.1346    0.2946 O   0  0  0  0  0  0  0  0  0  0  0  0
    3.6266   -3.0333   -0.5305 O   0  0  0  0  0  0  0  0  0  0  0  0
   -2.4901    2.3796    0.4129 O   0  0  0  0  0  0  0  0  0  0  0  0
   -5.0091    3.3094   -0.6491 O   0  0  0  0  0  0  0  0  0  0  0  0
   -7.1897    1.4869    0.1369 O   0  0  0  0  0  0  0  0  0  0  0  0
    0.7250    1.7641    1.8261 N   0  0  0  0  0  0  0  0  0  0  0  0
   -0.3943   -2.1084   -0.2979 C   0  0  1  0  0  0  0  0  0  0  0  0
   -0.0429   -3.5410    0.1102 C   0  0  2  0  0  0  0  0  0  0  0  0
    1.3819   -3.8931   -0.3181 C   0  0  1  0  0  0  0  0  0  0  0  0
    2.3729   -2.8129    0.1155 C   0  0  2  0  0  0  0  0  0  0  0  0
    1.8769   -1.4180   -0.2652 C   0  0  1  0  0  0  0  0  0  0  0  0
   -1.7676   -1.6942    0.2211 C   0  0  0  0  0  0  0  0  0  0  0  0
   -3.2814    0.1045    0.2559 C   0  0  2  0  0  0  0  0  0  0  0  0
   -3.4462    1.5427   -0.2378 C   0  0  1  0  0  0  0  0  0  0  0  0
   -4.8436    2.0834    0.0643 C   0  0  2  0  0  0  0  0  0  0  0  0
   -5.9208    1.0905   -0.3709 C   0  0  1  0  0  0  0  0  0  0  0  0
   -5.6088   -0.3036    0.1544 C   0  0  0  0  0  0  0  0  0  0  0  0
    2.3784    0.8639   -0.0105 C   0  0  2  0  0  0  0  0  0  0  0  0
    3.6088    1.7320   -0.1362 C   0  0  0  0  0  0  0  0  0  0  0  0
    1.4554    1.3658    1.0171 C   0  0  0  0  0  0  0  0  0  0  0  0
    3.6005    2.7951   -1.0242 C   0  0  0  0  0  0  0  0  0  0  0  0
    4.7210    1.4482    0.6393 C   0  0  0  0  0  0  0  0  0  0  0  0
    4.7361    3.5967   -1.1403 C   0  0  0  0  0  0  0  0  0  0  0  0
    5.8566    2.2499    0.5233 C   0  0  0  0  0  0  0  0  0  0  0  0
    5.8641    3.3242   -0.3665 C   0  0  0  0  0  0  0  0  0  0  0  0
   -0.3981   -2.0025   -1.3913 H   0  0  0  0  0  0  0  0  0  0  0  0
   -0.1314   -3.6655    1.1974 H   0  0  0  0  0  0  0  0  0  0  0  0
    1.4339   -4.0597   -1.4005 H   0  0  0  0  0  0  0  0  0  0  0  0
    2.5555   -2.8670    1.1959 H   0  0  0  0  0  0  0  0  0  0  0  0
    1.8848   -1.3019   -1.3580 H   0  0  0  0  0  0  0  0  0  0  0  0
   -1.7842   -1.7386    1.3169 H   0  0  0  0  0  0  0  0  0  0  0  0
   -2.5375   -2.3616   -0.1783 H   0  0  0  0  0  0  0  0  0  0  0  0
   -3.2942    0.0696    1.3538 H   0  0  0  0  0  0  0  0  0  0  0  0
   -3.2392    1.6050   -1.3129 H   0  0  0  0  0  0  0  0  0  0  0  0
   -4.9450    2.3261    1.1294 H   0  0  0  0  0  0  0  0  0  0  0  0
   -5.9875    1.0702   -1.4657 H   0  0  0  0  0  0  0  0  0  0  0  0
   -6.3438   -1.0198   -0.2291 H   0  0  0  0  0  0  0  0  0  0  0  0
   -5.6784   -0.3491    1.2488 H   0  0  0  0  0  0  0  0  0  0  0  0
   -1.8010   -4.3863   -0.0278 H   0  0  0  0  0  0  0  0  0  0  0  0
    1.7184   -5.0111    1.2590 H   0  0  0  0  0  0  0  0  0  0  0  0
    3.9190   -3.9310   -0.2973 H   0  0  0  0  0  0  0  0  0  0  0  0
    1.8732    0.8778   -0.9867 H   0  0  0  0  0  0  0  0  0  0  0  0
   -2.6379    2.3165    1.3719 H   0  0  0  0  0  0  0  0  0  0  0  0
   -5.8660    3.6879   -0.3900 H   0  0  0  0  0  0  0  0  0  0  0  0
   -7.4161    2.3411   -0.2675 H   0  0  0  0  0  0  0  0  0  0  0  0
    2.7270    3.0179   -1.6303 H   0  0  0  0  0  0  0  0  0  0  0  0
    4.7353    0.6256    1.3481 H   0  0  0  0  0  0  0  0  0  0  0  0
    4.7418    4.4336   -1.8325 H   0  0  0  0  0  0  0  0  0  0  0  0
    6.7341    2.0397    1.1278 H   0  0  0  0  0  0  0  0  0  0  0  0
    6.7480    3.9489   -0.4560 H   0  0  0  0  0  0  0  0  0  0  0  0
  1 12  1  0  0  0  0
  1 16  1  0  0  0  0
  2 17  1  0  0  0  0
  2 18  1  0  0  0  0
  3 18  1  0  0  0  0
  3 22  1  0  0  0  0
  4 13  1  0  0  0  0
  4 44  1  0  0  0  0
  5 16  1  0  0  0  0
  5 23  1  0  0  0  0
  6 14  1  0  0  0  0
  6 45  1  0  0  0  0
  7 15  1  0  0  0  0
  7 46  1  0  0  0  0
  8 19  1  0  0  0  0
  8 48  1  0  0  0  0
  9 20  1  0  0  0  0
  9 49  1  0  0  0  0
 10 21  1  0  0  0  0
 10 50  1  0  0  0  0
 11 25  3  0  0  0  0
 12 13  1  0  0  0  0
 12 17  1  0  0  0  0
 12 31  1  0  0  0  0
 13 14  1  0  0  0  0
 13 32  1  0  0  0  0
 14 15  1  0  0  0  0
 14 33  1  0  0  0  0
 15 16  1  0  0  0  0
 15 34  1  0  0  0  0
 16 35  1  0  0  0  0
 17 36  1  0  0  0  0
 17 37  1  0  0  0  0
 18 19  1  0  0  0  0
 18 38  1  0  0  0  0
 19 20  1  0  0  0  0
 19 39  1  0  0  0  0
 20 21  1  0  0  0  0
 20 40  1  0  0  0  0
 21 22  1  0  0  0  0
 21 41  1  0  0  0  0
 22 42  1  0  0  0  0
 22 43  1  0  0  0  0
 23 24  1  0  0  0  0
 23 25  1  0  0  0  0
 23 47  1  0  0  0  0
 24 26  2  0  0  0  0
 24 27  1  0  0  0  0
 26 28  1  0  0  0  0
 26 51  1  0  0  0  0
 27 29  2  0  0  0  0
 27 52  1  0  0  0  0
 28 30  2  0  0  0  0
 28 53  1  0  0  0  0
 29 30  1  0  0  0  0
 29 54  1  0  0  0  0
 30 55  1  0  0  0  0
M  END
> <PUBCHEM_COMPOUND_CID>
184959

> <PUBCHEM_CONFORMER_RMSD>
1

> <PUBCHEM_CONFORMER_DIVERSEORDER>
1
102
220
177
149
254
179
9
214
157
246
132
112
38
216
261
252
135
170
14
144
86
238
37
41
22
6
109
195
212
183
29
20
154
245
184
36
146
166
108
47
106
42
78
247
161
205
81
98
25
65
39
18
211
75
88
70
171
71
217
196
131
73
207
49
87
187
137
100
120
143
60
159
173
61
172
256
74
56
45
119
158
156
239
72
122
169
185
234
227
249
253
145
186
203
44
113
163
2
204
51
213
165
228
153
63
34
231
89
223
139
62
110
15
189
125
121
84
225
134
130
19
43
126
155
250
208
64
99
215
5
136
33
194
77
57
251
7
95
244
118
27
210
53
92
69
182
167
68
260
198
93
24
240
222
257
140
90
107
13
151
141
221
229
180
52
224
48
101
50
76
197
199
193
59
241
91
8
21
10
226
236
3
85
168
255
111
32
152
16
160
142
248
11
206
200
138
192
201
97
233
103
188
174
94
162
123
105
127
96
237
67
150
55
17
83
175
4
66
12
230
176
116
40
218
258
58
46
31
219
232
235
147
115
82
178
80
129
79
26
259
35
181
133
124
23
28
243
30
209
114
164
202
54
190
128
242
191
148
117
104

> <PUBCHEM_MMFF94_PARTIAL_CHARGES>
41
1 -0.56
10 -0.68
11 -0.56
12 0.28
13 0.28
14 0.28
15 0.28
16 0.56
17 0.28
18 0.56
19 0.28
2 -0.56
20 0.28
21 0.28
22 0.28
23 0.62
24 -0.14
25 0.36
26 -0.15
27 -0.15
28 -0.15
29 -0.15
3 -0.56
30 -0.15
4 -0.68
44 0.4
45 0.4
46 0.4
48 0.4
49 0.4
5 -0.56
50 0.4
51 0.15
52 0.15
53 0.15
54 0.15
55 0.15
6 -0.68
7 -0.68
8 -0.68
9 -0.68

> <PUBCHEM_EFFECTIVE_ROTOR_COUNT>
8.4

> <PUBCHEM_PHARMACOPHORE_FEATURES>
20
1 1 acceptor
1 10 acceptor
1 10 donor
1 11 acceptor
1 2 acceptor
1 3 acceptor
1 4 acceptor
1 4 donor
1 5 acceptor
1 6 acceptor
1 6 donor
1 7 acceptor
1 7 donor
1 8 acceptor
1 8 donor
1 9 acceptor
1 9 donor
6 1 12 13 14 15 16 rings
6 24 26 27 28 29 30 rings
6 3 18 19 20 21 22 rings

> <PUBCHEM_HEAVY_ATOM_COUNT>
30

> <PUBCHEM_ATOM_DEF_STEREO_COUNT>
10

> <PUBCHEM_ATOM_UDEF_STEREO_COUNT>
0

> <PUBCHEM_BOND_DEF_STEREO_COUNT>
0

> <PUBCHEM_BOND_UDEF_STEREO_COUNT>
0

> <PUBCHEM_ISOTOPIC_ATOM_COUNT>
0

> <PUBCHEM_COMPONENT_COUNT>
1

> <PUBCHEM_CACTVS_TAUTO_COUNT>
1

> <PUBCHEM_CONFORMER_ID>
0002D27F00000001

> <PUBCHEM_MMFF94_ENERGY>
83.2429

> <PUBCHEM_FEATURE_SELFOVERLAP>
101.605

> <PUBCHEM_SHAPE_FINGERPRINT>
10050765 1 18411136892509738246
10165383 225 18337669707189225929
10411042 1 17689717888710331878
10483366 6 18339065108679774710
10675989 125 18337103570697060336
10937287 8 18410854322210105630
11136131 41 18342748433171445386
11719270 70 18410581690829793296
12107183 9 18270695190725879914
12293681 160 17895186663244657032
12788726 201 17694512442412282754
138480 1 17978228588633648206
14251757 5 17977096865078265056
14251764 75 18335973229804823601
14294032 229 18119521047078050891
14790565 3 18339360747678093548
14849402 71 18267862963930373514
15198563 99 17615406961475948975
15320467 1 18339079293923564093
15400415 2 18411137995984037005
15439362 3 18410008837050506782
15890870 6 18339360768878870452
15927050 60 18335703801990195982
16993438 75 18055066562802868875
18608769 82 18265893554438060171
18785283 64 18269560592608643514
19053607 189 18339092552630019049
19319366 153 18334019405751749525
20715895 44 18410292480891022528
21033650 10 17624676983492036980
21133410 127 18059574727986341429
21133410 221 16884159183034352008
23559900 14 18122913298506135843
244849 19 17773854519636740426
245318 6 17845356761497729772
3298306 158 18260549978796672096
3411729 13 18342177777755985586
4058900 60 18410847763578468307
5219985 13 18337391535205584636
5265222 85 18193553359393598552
5283173 99 17831014625368773368
6058803 2 18043537320983076199
6327066 14 18341052900020009820
6700243 42 17039183691215344358
7288768 16 18059577932041771659
7808743 9 18267586801632632944
9849439 229 18341326691526672116
9981440 41 18341609261641188483

> <PUBCHEM_SHAPE_MULTIPOLES>
553.71
14.27
6.29
0.89
9.84
7.23
0.13
-18.95
-1.21
-3.73
-1.04
-0.58
-0.47
-0.37

> <PUBCHEM_SHAPE_SELFOVERLAP>
1161.053

> <PUBCHEM_SHAPE_VOLUME>
304.8

> <PUBCHEM_COORDINATE_TYPE>
2
5
10

$$$$

