188955
  -OEChem-07051212453D

 33 36  0     1  0  0  0  0  0999 V2000
   -4.5744   -0.1401   -0.6680 P   0  0  2  0  0  0  0  0  0  0  0  0
   -0.9172    0.2575    1.6118 O   0  0  0  0  0  0  0  0  0  0  0  0
   -3.2557    0.7437   -1.0369 O   0  0  0  0  0  0  0  0  0  0  0  0
   -4.4929   -0.3540    0.9419 O   0  0  0  0  0  0  0  0  0  0  0  0
   -4.2363   -1.6050   -1.2700 O   0  0  0  0  0  0  0  0  0  0  0  0
   -5.8661    0.4425   -1.1631 O   0  0  0  0  0  0  0  0  0  0  0  0
    1.1152    0.0512    0.3934 N   0  0  0  0  0  0  0  0  0  0  0  0
    2.3006   -1.8148    0.1031 N   0  0  0  0  0  0  0  0  0  0  0  0
    2.8522    1.7092    0.0265 N   0  0  0  0  0  0  0  0  0  0  0  0
    4.9958    0.6529   -0.4685 N   0  0  0  0  0  0  0  0  0  0  0  0
    5.2658   -1.7231   -0.5633 N   0  0  0  0  0  0  0  0  0  0  0  0
   -2.0595    0.3356   -0.4112 C   0  0  2  0  0  0  0  0  0  0  0  0
   -2.2355    0.3996    1.0908 C   0  0  1  0  0  0  0  0  0  0  0  0
   -0.8671    1.2426   -0.5871 C   0  0  0  0  0  0  0  0  0  0  0  0
   -0.0367    0.9117    0.6629 C   0  0  1  0  0  0  0  0  0  0  0  0
   -3.2316   -0.6461    1.5469 C   0  0  0  0  0  0  0  0  0  0  0  0
    2.3904    0.4527    0.1130 C   0  0  0  0  0  0  0  0  0  0  0  0
    1.1120   -1.3187    0.3767 C   0  0  0  0  0  0  0  0  0  0  0  0
    3.1093   -0.7188   -0.0642 C   0  0  0  0  0  0  0  0  0  0  0  0
    4.4611   -0.5877   -0.3657 C   0  0  0  0  0  0  0  0  0  0  0  0
    4.1704    1.7087   -0.2689 C   0  0  0  0  0  0  0  0  0  0  0  0
   -1.7947   -0.6748   -0.7474 H   0  0  0  0  0  0  0  0  0  0  0  0
   -2.6191    1.3882    1.3831 H   0  0  0  0  0  0  0  0  0  0  0  0
   -1.1833    2.2929   -0.5711 H   0  0  0  0  0  0  0  0  0  0  0  0
   -0.3411    1.0801   -1.5331 H   0  0  0  0  0  0  0  0  0  0  0  0
    0.3477    1.8238    1.1334 H   0  0  0  0  0  0  0  0  0  0  0  0
   -2.9183   -1.6602    1.2770 H   0  0  0  0  0  0  0  0  0  0  0  0
   -3.3492   -0.6208    2.6346 H   0  0  0  0  0  0  0  0  0  0  0  0
    0.2219   -1.9038    0.5646 H   0  0  0  0  0  0  0  0  0  0  0  0
   -4.3567   -1.7612   -2.2309 H   0  0  0  0  0  0  0  0  0  0  0  0
    4.6320    2.6862   -0.3590 H   0  0  0  0  0  0  0  0  0  0  0  0
    6.2455   -1.6019   -0.7811 H   0  0  0  0  0  0  0  0  0  0  0  0
    4.8692   -2.6499   -0.4869 H   0  0  0  0  0  0  0  0  0  0  0  0
  1  3  1  0  0  0  0
  1  4  1  0  0  0  0
  1  5  1  0  0  0  0
  1  6  2  0  0  0  0
  2 13  1  0  0  0  0
  2 15  1  0  0  0  0
  3 12  1  0  0  0  0
  4 16  1  0  0  0  0
  5 30  1  0  0  0  0
  7 15  1  0  0  0  0
  7 17  1  0  0  0  0
  7 18  1  0  0  0  0
  8 18  2  0  0  0  0
  8 19  1  0  0  0  0
  9 17  2  0  0  0  0
  9 21  1  0  0  0  0
 10 20  1  0  0  0  0
 10 21  2  0  0  0  0
 11 20  1  0  0  0  0
 11 32  1  0  0  0  0
 11 33  1  0  0  0  0
 12 13  1  0  0  0  0
 12 14  1  0  0  0  0
 12 22  1  0  0  0  0
 13 16  1  0  0  0  0
 13 23  1  0  0  0  0
 14 15  1  0  0  0  0
 14 24  1  0  0  0  0
 14 25  1  0  0  0  0
 15 26  1  0  0  0  0
 16 27  1  0  0  0  0
 16 28  1  0  0  0  0
 17 19  1  0  0  0  0
 18 29  1  0  0  0  0
 19 20  2  0  0  0  0
 21 31  1  0  0  0  0
M  END
> <PUBCHEM_COMPOUND_CID>
188955

> <PUBCHEM_CONFORMER_RMSD>
0.6

> <PUBCHEM_CONFORMER_DIVERSEORDER>
1
5
4
6
3
2
7

> <PUBCHEM_MMFF94_PARTIAL_CHARGES>
25
1 1.51
10 -0.62
11 -0.9
12 0.28
13 0.28
15 0.54
16 0.28
17 0.11
18 0.04
19 0.23
2 -0.56
20 0.41
21 0.47
29 0.15
3 -0.55
30 0.5
31 0.15
32 0.4
33 0.4
4 -0.55
5 -0.77
6 -0.7
7 0.05
8 -0.57
9 -0.57

> <PUBCHEM_EFFECTIVE_ROTOR_COUNT>
2.2

> <PUBCHEM_PHARMACOPHORE_FEATURES>
12
1 11 cation
1 11 donor
1 2 acceptor
1 5 acceptor
1 6 acceptor
3 7 8 18 cation
3 7 9 17 cation
3 9 10 21 cation
5 2 12 13 14 15 rings
5 7 8 17 18 19 rings
6 1 3 4 12 13 16 rings
6 9 10 17 19 20 21 rings

> <PUBCHEM_HEAVY_ATOM_COUNT>
21

> <PUBCHEM_ATOM_DEF_STEREO_COUNT>
3

> <PUBCHEM_ATOM_UDEF_STEREO_COUNT>
0

> <PUBCHEM_BOND_DEF_STEREO_COUNT>
0

> <PUBCHEM_BOND_UDEF_STEREO_COUNT>
0

> <PUBCHEM_ISOTOPIC_ATOM_COUNT>
0

> <PUBCHEM_COMPONENT_COUNT>
1

> <PUBCHEM_CACTVS_TAUTO_COUNT>
3

> <PUBCHEM_CONFORMER_ID>
0002E21B00000001

> <PUBCHEM_MMFF94_ENERGY>
32.2335

> <PUBCHEM_FEATURE_SELFOVERLAP>
61.598

> <PUBCHEM_SHAPE_FINGERPRINT>
10366900 7 17989200486581703376
11045515 52 18409450288901364113
11046707 91 16950565476214375307
11089746 13 13254790214667945974
11471102 20 18411696587145987192
11615757 297 18260827107361411912
12236239 1 17603583040804927801
12403259 415 17703779302287929704
12616971 3 18114168752979606417
12670546 177 18409733949778343711
12730499 353 17988921197553598603
128620 24 18342454828963756492
13760787 5 18260260850114354633
13862211 1 18266176313926931838
14004511 7 11167942450405179513
14386348 63 17917986179154586803
14528608 73 18411983529051738868
15183329 4 18261966240933042157
15188451 53 5111707108415241365
15375358 24 17847062168683064273
15788980 27 18413108359464030903
15961568 22 16486402175915190812
17834072 33 18040998423194117149
1813 80 15213018241376612232
18186145 218 17346599690161765033
18222031 100 15719681987238578473
19422 9 17748820826063192696
19489759 90 15985104089445353169
19784866 240 17895192246564679366
200 152 18334011704954522025
20028762 73 18041000678643649494
20279233 1 17846493742372072976
20281475 54 17967816050251589715
20645477 56 16558751230749357529
20645477 70 18410014377115362934
221357 26 18341617048343257252
22393880 68 18131354115395674994
22646028 1 17966968335450297088
23402539 116 16774081743399956515
23402655 69 18411138056101905701
23557571 272 17060046043625367995
23559900 14 17132113559211836082
23596394 208 18060138773424447010
2871803 45 18271807951510196464
29717793 49 17967249831764876284
3268164 11 16271930372485523331
465052 167 17167866310087405549
474 4 17387988477960704824
5104073 3 18340766039634300056
5283173 99 17632303418826664413
542803 24 13183018514452602424
602551 16 15068629266225633318
7495541 125 15574719080024141522

> <PUBCHEM_SHAPE_MULTIPOLES>
381.77
11.91
1.58
1.19
1.78
0.15
0.2
1.3
-3.8
-1.55
-0.2
1.54
0.1
0.29

> <PUBCHEM_SHAPE_SELFOVERLAP>
828.264

> <PUBCHEM_SHAPE_VOLUME>
210.2

> <PUBCHEM_COORDINATE_TYPE>
2
5
10

$$$$

