5282353
  -OEChem-07051213042D

 77 80  0     1  0  0  0  0  0999 V2000
    7.9506   -2.9973    0.0000 O   0  0  0  0  0  0  0  0  0  0  0  0
    6.1847   -4.0351    0.0000 O   0  0  0  0  0  0  0  0  0  0  0  0
    2.5357   -3.0182    0.0000 O   0  0  0  0  0  0  0  0  0  0  0  0
    7.9288    0.0341    0.0000 C   0  0  1  0  0  0  0  0  0  0  0  0
    7.9288   -0.9659    0.0000 C   0  0  2  0  0  0  0  0  0  0  0  0
    7.0628   -1.4659    0.0000 C   0  0  1  0  0  0  0  0  0  0  0  0
    6.1968   -0.9659    0.0000 C   0  0  1  0  0  0  0  0  0  0  0  0
    8.8750    0.3389    0.0000 C   0  0  2  0  0  0  0  0  0  0  0  0
    5.2868   -1.4727    0.0000 C   0  0  2  0  0  0  0  0  0  0  0  0
    7.0628    0.5341    0.0000 C   0  0  0  0  0  0  0  0  0  0  0  0
    8.8750   -1.2706    0.0000 C   0  0  0  0  0  0  0  0  0  0  0  0
    6.1968    0.0341    0.0000 C   0  0  0  0  0  0  0  0  0  0  0  0
    9.4586   -0.4659    0.0000 C   0  0  0  0  0  0  0  0  0  0  0  0
    7.0789   -2.5074    0.0000 C   0  0  1  0  0  0  0  0  0  0  0  0
    5.2787   -2.5143    0.0000 C   0  0  0  0  0  0  0  0  0  0  0  0
    7.9288    1.0341    0.0000 C   0  0  0  0  0  0  0  0  0  0  0  0
    6.1808   -3.0351    0.0000 C   0  0  2  0  0  0  0  0  0  0  0  0
    9.1857    1.2894    0.0000 C   0  0  2  0  0  0  0  0  0  0  0  0
    4.3599   -0.9086    0.0000 C   0  0  0  0  0  0  0  0  0  0  0  0
    5.2945   -0.4727    0.0000 C   0  0  0  0  0  0  0  0  0  0  0  0
    3.4120   -1.4366    0.0000 C   0  0  0  0  0  0  0  0  0  0  0  0
    4.3433   -3.0640    0.0000 C   0  0  0  0  0  0  0  0  0  0  0  0
    3.4037   -2.5215    0.0000 C   0  0  1  0  0  0  0  0  0  0  0  0
    8.5179    2.0337    0.0000 C   0  0  0  0  0  0  0  0  0  0  0  0
   10.1642    1.4956    0.0000 C   0  0  0  0  0  0  0  0  0  0  0  0
   10.4749    2.4461    0.0000 C   0  0  0  0  0  0  0  0  0  0  0  0
   11.4534    2.6524    0.0000 C   0  0  3  0  0  0  0  0  0  0  0  0
   11.7640    3.6029    0.0000 C   0  0  0  0  0  0  0  0  0  0  0  0
   12.1212    1.9080    0.0000 C   0  0  0  0  0  0  0  0  0  0  0  0
   12.7425    3.8091    0.0000 C   0  0  0  0  0  0  0  0  0  0  0  0
   11.0962    4.3472    0.0000 C   0  0  0  0  0  0  0  0  0  0  0  0
    8.0188   -1.8111    0.0000 H   0  0  0  0  0  0  0  0  0  0  0  0
    7.8022   -1.8852    0.0000 H   0  0  0  0  0  0  0  0  0  0  0  0
    6.9329   -0.5409    0.0000 H   0  0  0  0  0  0  0  0  0  0  0  0
    9.7148    0.4708    0.0000 H   0  0  0  0  0  0  0  0  0  0  0  0
    7.4613    1.0091    0.0000 H   0  0  0  0  0  0  0  0  0  0  0  0
    6.6643    1.0091    0.0000 H   0  0  0  0  0  0  0  0  0  0  0  0
    8.6240   -1.8375    0.0000 H   0  0  0  0  0  0  0  0  0  0  0  0
    9.4124   -1.5798    0.0000 H   0  0  0  0  0  0  0  0  0  0  0  0
    5.9847    0.6168    0.0000 H   0  0  0  0  0  0  0  0  0  0  0  0
    5.5862   -0.0735    0.0000 H   0  0  0  0  0  0  0  0  0  0  0  0
    9.9195   -0.8806    0.0000 H   0  0  0  0  0  0  0  0  0  0  0  0
    9.9195   -0.0511    0.0000 H   0  0  0  0  0  0  0  0  0  0  0  0
    7.6116   -2.1902    0.0000 H   0  0  0  0  0  0  0  0  0  0  0  0
    8.5488    1.0341    0.0000 H   0  0  0  0  0  0  0  0  0  0  0  0
    7.9288    1.6541    0.0000 H   0  0  0  0  0  0  0  0  0  0  0  0
    7.3088    1.0341    0.0000 H   0  0  0  0  0  0  0  0  0  0  0  0
    6.7195   -3.3420    0.0000 H   0  0  0  0  0  0  0  0  0  0  0  0
    9.3783    1.8787    0.0000 H   0  0  0  0  0  0  0  0  0  0  0  0
    4.7681   -0.4420    0.0000 H   0  0  0  0  0  0  0  0  0  0  0  0
    3.9700   -0.4266    0.0000 H   0  0  0  0  0  0  0  0  0  0  0  0
    5.9145   -0.4775    0.0000 H   0  0  0  0  0  0  0  0  0  0  0  0
    5.2993    0.1472    0.0000 H   0  0  0  0  0  0  0  0  0  0  0  0
    4.6745   -0.4680    0.0000 H   0  0  0  0  0  0  0  0  0  0  0  0
    3.2075   -0.8513    0.0000 H   0  0  0  0  0  0  0  0  0  0  0  0
    2.8004   -1.5380    0.0000 H   0  0  0  0  0  0  0  0  0  0  0  0
    4.3457   -3.6840    0.0000 H   0  0  0  0  0  0  0  0  0  0  0  0
    3.4025   -3.1415    0.0000 H   0  0  0  0  0  0  0  0  0  0  0  0
    7.9578   -3.6173    0.0000 H   0  0  0  0  0  0  0  0  0  0  0  0
    8.9793    2.4478    0.0000 H   0  0  0  0  0  0  0  0  0  0  0  0
    8.1038    2.4952    0.0000 H   0  0  0  0  0  0  0  0  0  0  0  0
    8.0564    1.6196    0.0000 H   0  0  0  0  0  0  0  0  0  0  0  0
   10.5783    1.0341    0.0000 H   0  0  0  0  0  0  0  0  0  0  0  0
    5.6489   -4.3472    0.0000 H   0  0  0  0  0  0  0  0  0  0  0  0
   10.0608    2.9076    0.0000 H   0  0  0  0  0  0  0  0  0  0  0  0
    2.0000   -2.7061    0.0000 H   0  0  0  0  0  0  0  0  0  0  0  0
   12.2851    2.8276    0.0000 H   0  0  0  0  0  0  0  0  0  0  0  0
   12.1781    3.1414    0.0000 H   0  0  0  0  0  0  0  0  0  0  0  0
   11.6598    1.4940    0.0000 H   0  0  0  0  0  0  0  0  0  0  0  0
   12.5353    1.4466    0.0000 H   0  0  0  0  0  0  0  0  0  0  0  0
   12.5827    2.3221    0.0000 H   0  0  0  0  0  0  0  0  0  0  0  0
   12.8704    3.2024    0.0000 H   0  0  0  0  0  0  0  0  0  0  0  0
   13.3492    3.9370    0.0000 H   0  0  0  0  0  0  0  0  0  0  0  0
   12.6147    4.4158    0.0000 H   0  0  0  0  0  0  0  0  0  0  0  0
   11.5577    4.7612    0.0000 H   0  0  0  0  0  0  0  0  0  0  0  0
   10.6821    4.8086    0.0000 H   0  0  0  0  0  0  0  0  0  0  0  0
   10.6347    3.9331    0.0000 H   0  0  0  0  0  0  0  0  0  0  0  0
 14  1  1  6  0  0  0
  1 59  1  0  0  0  0
 17  2  1  1  0  0  0
  2 64  1  0  0  0  0
 23  3  1  1  0  0  0
  3 66  1  0  0  0  0
  4  5  1  0  0  0  0
  4  8  1  0  0  0  0
  4 10  1  0  0  0  0
  4 16  1  1  0  0  0
  5  6  1  0  0  0  0
  5 11  1  0  0  0  0
  5 32  1  6  0  0  0
  6  7  1  0  0  0  0
  6 14  1  0  0  0  0
  6 33  1  1  0  0  0
  7  9  1  0  0  0  0
  7 12  1  0  0  0  0
  7 34  1  6  0  0  0
  8 13  1  0  0  0  0
  8 18  1  0  0  0  0
  8 35  1  6  0  0  0
  9 15  1  0  0  0  0
  9 19  1  0  0  0  0
  9 20  1  1  0  0  0
 10 12  1  0  0  0  0
 10 36  1  0  0  0  0
 10 37  1  0  0  0  0
 11 13  1  0  0  0  0
 11 38  1  0  0  0  0
 11 39  1  0  0  0  0
 12 40  1  0  0  0  0
 12 41  1  0  0  0  0
 13 42  1  0  0  0  0
 13 43  1  0  0  0  0
 14 17  1  0  0  0  0
 14 44  1  0  0  0  0
 15 17  1  0  0  0  0
 15 22  2  0  0  0  0
 16 45  1  0  0  0  0
 16 46  1  0  0  0  0
 16 47  1  0  0  0  0
 17 48  1  0  0  0  0
 18 24  1  6  0  0  0
 18 25  1  0  0  0  0
 18 49  1  0  0  0  0
 19 21  1  0  0  0  0
 19 50  1  0  0  0  0
 19 51  1  0  0  0  0
 20 52  1  0  0  0  0
 20 53  1  0  0  0  0
 20 54  1  0  0  0  0
 21 23  1  0  0  0  0
 21 55  1  0  0  0  0
 21 56  1  0  0  0  0
 22 23  1  0  0  0  0
 22 57  1  0  0  0  0
 23 58  1  0  0  0  0
 24 60  1  0  0  0  0
 24 61  1  0  0  0  0
 24 62  1  0  0  0  0
 25 26  2  0  0  0  0
 25 63  1  0  0  0  0
 26 27  1  0  0  0  0
 26 65  1  0  0  0  0
 27 28  1  0  0  0  0
 27 29  1  0  0  0  0
 27 67  1  0  0  0  0
 28 30  1  0  0  0  0
 28 31  1  0  0  0  0
 28 68  1  0  0  0  0
 29 69  1  0  0  0  0
 29 70  1  0  0  0  0
 29 71  1  0  0  0  0
 30 72  1  0  0  0  0
 30 73  1  0  0  0  0
 30 74  1  0  0  0  0
 31 75  1  0  0  0  0
 31 76  1  0  0  0  0
 31 77  1  0  0  0  0
M  END
> <PUBCHEM_COMPOUND_CID>
5282353

> <PUBCHEM_COMPOUND_CANONICALIZED>
1

> <PUBCHEM_CACTVS_COMPLEXITY>
726

> <PUBCHEM_CACTVS_HBOND_ACCEPTOR>
3

> <PUBCHEM_CACTVS_HBOND_DONOR>
3

> <PUBCHEM_CACTVS_ROTATABLE_BOND>
4

> <PUBCHEM_CACTVS_SUBSKEYS>
AAADcfB4MAAAAAAAAAAAAAAAAAAAAYAAAAAwYIAAAAAAAGDAAAAAGgAACAAADxSggAICAAAAAgCAAiBCAAAAAAAgAAAICAAAAAgBFAIAAQAAUAAEwAAJEAOAwPAPgAAAAAAAAADAAAYAADCAAQAACAAAAA==

> <PUBCHEM_IUPAC_OPENEYE_NAME>
(3S,6S,7S,8S,9S,10R,13R,14S,17R)-10,13-dimethyl-17-[(E,1R)-1,4,5-trimethylhex-2-enyl]-2,3,6,7,8,9,11,12,14,15,16,17-dodecahydro-1H-cyclopenta[a]phenanthrene-3,6,7-triol

> <PUBCHEM_IUPAC_CAS_NAME>
(3S,6S,7S,8S,9S,10R,13R,14S,17R)-17-[(E,2R)-5,6-dimethylhept-3-en-2-yl]-10,13-dimethyl-2,3,6,7,8,9,11,12,14,15,16,17-dodecahydro-1H-cyclopenta[a]phenanthrene-3,6,7-triol

> <PUBCHEM_IUPAC_NAME>
(3S,6S,7S,8S,9S,10R,13R,14S,17R)-17-[(E,2R)-5,6-dimethylhept-3-en-2-yl]-10,13-dimethyl-2,3,6,7,8,9,11,12,14,15,16,17-dodecahydro-1H-cyclopenta[a]phenanthrene-3,6,7-triol

> <PUBCHEM_IUPAC_SYSTEMATIC_NAME>
(3S,6S,7S,8S,9S,10R,13R,14S,17R)-17-[(E,2R)-5,6-dimethylhept-3-en-2-yl]-10,13-dimethyl-2,3,6,7,8,9,11,12,14,15,16,17-dodecahydro-1H-cyclopenta[a]phenanthrene-3,6,7-triol

> <PUBCHEM_IUPAC_TRADITIONAL_NAME>
(3S,6S,7S,8S,9S,10R,13R,14S,17R)-10,13-dimethyl-17-[(E,1R)-1,4,5-trimethylhex-2-enyl]-2,3,6,7,8,9,11,12,14,15,16,17-dodecahydro-1H-cyclopenta[a]phenanthrene-3,6,7-triol

> <PUBCHEM_IUPAC_INCHI>
InChI=1S/C28H46O3/c1-16(2)17(3)7-8-18(4)20-9-10-21-24-22(12-14-27(20,21)5)28(6)13-11-19(29)15-23(28)25(30)26(24)31/h7-8,15-22,24-26,29-31H,9-14H2,1-6H3/b8-7+/t17?,18-,19+,20-,21+,22+,24+,25+,26+,27-,28-/m1/s1

> <PUBCHEM_IUPAC_INCHIKEY>
DMGVMSPIKNEWJI-DFSZRRHNSA-N

> <PUBCHEM_XLOGP3_AA>
5.8

> <PUBCHEM_EXACT_MASS>
430.344695

> <PUBCHEM_MOLECULAR_FORMULA>
C28H46O3

> <PUBCHEM_MOLECULAR_WEIGHT>
430.66304

> <PUBCHEM_OPENEYE_CAN_SMILES>
CC(C)C(C)C=CC(C)C1CCC2C1(CCC3C2C(C(C4=CC(CCC34C)O)O)O)C

> <PUBCHEM_OPENEYE_ISO_SMILES>
C[C@H](/C=C/C(C)C(C)C)[C@H]1CC[C@@H]2[C@@]1(CC[C@H]3[C@H]2[C@@H]([C@H](C4=C[C@H](CC[C@]34C)O)O)O)C

> <PUBCHEM_CACTVS_TPSA>
60.7

> <PUBCHEM_MONOISOTOPIC_WEIGHT>
430.344695

> <PUBCHEM_TOTAL_CHARGE>
0

> <PUBCHEM_HEAVY_ATOM_COUNT>
31

> <PUBCHEM_ATOM_DEF_STEREO_COUNT>
10

> <PUBCHEM_ATOM_UDEF_STEREO_COUNT>
1

> <PUBCHEM_BOND_DEF_STEREO_COUNT>
1

> <PUBCHEM_BOND_UDEF_STEREO_COUNT>
0

> <PUBCHEM_ISOTOPIC_ATOM_COUNT>
0

> <PUBCHEM_COMPONENT_COUNT>
1

> <PUBCHEM_CACTVS_TAUTO_COUNT>
1

> <PUBCHEM_COORDINATE_TYPE>
1
5
255

> <PUBCHEM_BONDANNOTATIONS>
14  1  6
18  24  6
17  2  5
27  67  3
23  3  5
4  16  5
5  32  6
6  33  5
7  34  6
8  35  6
9  20  5

$$$$

