441070
  -OEChem-07051212512D

 40 41  0     1  0  0  0  0  0999 V2000
    5.1043    1.0248    0.0000 O   0  0  0  0  0  0  0  0  0  0  0  0
    2.8090   -0.9013    0.0000 N   0  0  3  0  0  0  0  0  0  0  0  0
    6.9019    1.4013    0.0000 N   0  0  3  0  0  0  0  0  0  0  0  0
    3.6180   -0.3135    0.0000 C   0  0  3  0  0  0  0  0  0  0  0  0
    7.0064    0.4067    0.0000 C   0  0  3  0  0  0  0  0  0  0  0  0
    3.3090    0.6376    0.0000 C   0  0  0  0  0  0  0  0  0  0  0  0
    7.9846    0.1988    0.0000 C   0  0  0  0  0  0  0  0  0  0  0  0
    4.5691   -0.6225    0.0000 C   0  0  0  0  0  0  0  0  0  0  0  0
    6.2633   -0.2624    0.0000 C   0  0  0  0  0  0  0  0  0  0  0  0
    2.3090    0.6376    0.0000 C   0  0  0  0  0  0  0  0  0  0  0  0
    8.4846    1.0649    0.0000 C   0  0  0  0  0  0  0  0  0  0  0  0
    2.0000   -0.3135    0.0000 C   0  0  0  0  0  0  0  0  0  0  0  0
    7.8154    1.8080    0.0000 C   0  0  0  0  0  0  0  0  0  0  0  0
    5.3122    0.0466    0.0000 C   0  0  0  0  0  0  0  0  0  0  0  0
    2.8090   -1.9013    0.0000 C   0  0  0  0  0  0  0  0  0  0  0  0
    6.0359    1.9013    0.0000 C   0  0  0  0  0  0  0  0  0  0  0  0
    6.4276    0.6289    0.0000 H   0  0  0  0  0  0  0  0  0  0  0  0
    3.7150   -0.9258    0.0000 H   0  0  0  0  0  0  0  0  0  0  0  0
    7.7930   -0.3908    0.0000 H   0  0  0  0  0  0  0  0  0  0  0  0
    8.5510   -0.0533    0.0000 H   0  0  0  0  0  0  0  0  0  0  0  0
    3.9155    0.7665    0.0000 H   0  0  0  0  0  0  0  0  0  0  0  0
    3.2442    1.2542    0.0000 H   0  0  0  0  0  0  0  0  0  0  0  0
    4.2780   -1.1699    0.0000 H   0  0  0  0  0  0  0  0  0  0  0  0
    5.0577   -1.0042    0.0000 H   0  0  0  0  0  0  0  0  0  0  0  0
    5.9722   -0.8098    0.0000 H   0  0  0  0  0  0  0  0  0  0  0  0
    6.7519   -0.6441    0.0000 H   0  0  0  0  0  0  0  0  0  0  0  0
    2.3738    1.2542    0.0000 H   0  0  0  0  0  0  0  0  0  0  0  0
    1.7026    0.7665    0.0000 H   0  0  0  0  0  0  0  0  0  0  0  0
    8.9862    0.7004    0.0000 H   0  0  0  0  0  0  0  0  0  0  0  0
    8.8994    1.5256    0.0000 H   0  0  0  0  0  0  0  0  0  0  0  0
    1.4336   -0.0613    0.0000 H   0  0  0  0  0  0  0  0  0  0  0  0
    1.6900   -0.8504    0.0000 H   0  0  0  0  0  0  0  0  0  0  0  0
    8.3170    2.1724    0.0000 H   0  0  0  0  0  0  0  0  0  0  0  0
    7.5054    2.3449    0.0000 H   0  0  0  0  0  0  0  0  0  0  0  0
    2.1890   -1.9013    0.0000 H   0  0  0  0  0  0  0  0  0  0  0  0
    2.8090   -2.5213    0.0000 H   0  0  0  0  0  0  0  0  0  0  0  0
    3.4290   -1.9013    0.0000 H   0  0  0  0  0  0  0  0  0  0  0  0
    6.3459    2.4382    0.0000 H   0  0  0  0  0  0  0  0  0  0  0  0
    5.4990    2.2113    0.0000 H   0  0  0  0  0  0  0  0  0  0  0  0
    5.7259    1.3643    0.0000 H   0  0  0  0  0  0  0  0  0  0  0  0
  1 14  2  0  0  0  0
  2  4  1  0  0  0  0
  2 12  1  0  0  0  0
  2 15  1  0  0  0  0
  3  5  1  0  0  0  0
  3 13  1  0  0  0  0
  3 16  1  0  0  0  0
  4  6  1  0  0  0  0
  4  8  1  0  0  0  0
  4 18  1  0  0  0  0
  5  7  1  0  0  0  0
  5  9  1  0  0  0  0
  5 17  1  0  0  0  0
  6 10  1  0  0  0  0
  6 21  1  0  0  0  0
  6 22  1  0  0  0  0
  7 11  1  0  0  0  0
  7 19  1  0  0  0  0
  7 20  1  0  0  0  0
  8 14  1  0  0  0  0
  8 23  1  0  0  0  0
  8 24  1  0  0  0  0
  9 14  1  0  0  0  0
  9 25  1  0  0  0  0
  9 26  1  0  0  0  0
 10 12  1  0  0  0  0
 10 27  1  0  0  0  0
 10 28  1  0  0  0  0
 11 13  1  0  0  0  0
 11 29  1  0  0  0  0
 11 30  1  0  0  0  0
 12 31  1  0  0  0  0
 12 32  1  0  0  0  0
 13 33  1  0  0  0  0
 13 34  1  0  0  0  0
 15 35  1  0  0  0  0
 15 36  1  0  0  0  0
 15 37  1  0  0  0  0
 16 38  1  0  0  0  0
 16 39  1  0  0  0  0
 16 40  1  0  0  0  0
M  END
> <PUBCHEM_COMPOUND_CID>
441070

> <PUBCHEM_COMPOUND_CANONICALIZED>
1

> <PUBCHEM_CACTVS_COMPLEXITY>
230

> <PUBCHEM_CACTVS_HBOND_ACCEPTOR>
3

> <PUBCHEM_CACTVS_HBOND_DONOR>
0

> <PUBCHEM_CACTVS_ROTATABLE_BOND>
4

> <PUBCHEM_CACTVS_SUBSKEYS>
AAADceBzIAAAAAAAAAAAAAAAAAAAAWLAAAAAAAAAAAAAAAAAAAAAHgAAAAAACCzBgAQCAAMAAAAIAIAQAAAAAAAAAAAAAAEIAAAAABoAgAAEAAAAAACAAAEYiIAAAAAAAAAAAAAAAAAAAAAAAAAAAAAAAA==

> <PUBCHEM_IUPAC_OPENEYE_NAME>
1,3-bis(1-methylpyrrolidin-2-yl)propan-2-one

> <PUBCHEM_IUPAC_CAS_NAME>
1,3-bis(1-methyl-2-pyrrolidinyl)-2-propanone

> <PUBCHEM_IUPAC_NAME>
1,3-bis(1-methylpyrrolidin-2-yl)propan-2-one

> <PUBCHEM_IUPAC_SYSTEMATIC_NAME>
1,3-bis(1-methylpyrrolidin-2-yl)propan-2-one

> <PUBCHEM_IUPAC_TRADITIONAL_NAME>
1,3-bis(1-methylpyrrolidin-2-yl)acetone

> <PUBCHEM_IUPAC_INCHI>
InChI=1S/C13H24N2O/c1-14-7-3-5-11(14)9-13(16)10-12-6-4-8-15(12)2/h11-12H,3-10H2,1-2H3

> <PUBCHEM_IUPAC_INCHIKEY>
ZEBIACKKLGVLFZ-UHFFFAOYSA-N

> <PUBCHEM_XLOGP3_AA>
1

> <PUBCHEM_EXACT_MASS>
224.188863

> <PUBCHEM_MOLECULAR_FORMULA>
C13H24N2O

> <PUBCHEM_MOLECULAR_WEIGHT>
224.34246

> <PUBCHEM_OPENEYE_CAN_SMILES>
CN1CCCC1CC(=O)CC2CCCN2C

> <PUBCHEM_OPENEYE_ISO_SMILES>
CN1CCCC1CC(=O)CC2CCCN2C

> <PUBCHEM_CACTVS_TPSA>
23.6

> <PUBCHEM_MONOISOTOPIC_WEIGHT>
224.188863

> <PUBCHEM_TOTAL_CHARGE>
0

> <PUBCHEM_HEAVY_ATOM_COUNT>
16

> <PUBCHEM_ATOM_DEF_STEREO_COUNT>
0

> <PUBCHEM_ATOM_UDEF_STEREO_COUNT>
2

> <PUBCHEM_BOND_DEF_STEREO_COUNT>
0

> <PUBCHEM_BOND_UDEF_STEREO_COUNT>
0

> <PUBCHEM_ISOTOPIC_ATOM_COUNT>
0

> <PUBCHEM_COMPONENT_COUNT>
1

> <PUBCHEM_CACTVS_TAUTO_COUNT>
2

> <PUBCHEM_COORDINATE_TYPE>
1
5
255

> <PUBCHEM_BONDANNOTATIONS>
4  8  3
5  9  3

$$$$

