5281583
  -OEChem-07051212582D

 81 84  0     1  0  0  0  0  0999 V2000
    3.4044    0.3100    0.0000 O   0  0  0  0  0  0  0  0  0  0  0  0
    5.6604    2.7497    0.0000 O   0  0  0  0  0  0  0  0  0  0  0  0
    4.2610   -0.2067    0.0000 O   0  0  0  0  0  0  0  0  0  0  0  0
    6.8685   -3.6900    0.0000 O   0  0  0  0  0  0  0  0  0  0  0  0
    4.2502   -3.1532    0.0000 O   0  0  0  0  0  0  0  0  0  0  0  0
    7.7345    1.8100    0.0000 N   0  0  0  0  0  0  0  0  0  0  0  0
    6.0024    0.8100    0.0000 N   0  0  0  0  0  0  0  0  0  0  0  0
    6.0024   -1.1900    0.0000 N   0  0  0  0  0  0  0  0  0  0  0  0
    5.1364   -3.6900    0.0000 N   0  0  0  0  0  0  0  0  0  0  0  0
    6.8685    3.3100    0.0000 C   0  0  2  0  0  0  0  0  0  0  0  0
    6.8685    2.3100    0.0000 C   0  0  1  0  0  0  0  0  0  0  0  0
    7.7345    3.8100    0.0000 C   0  0  0  0  0  0  0  0  0  0  0  0
    6.0024    1.8100    0.0000 C   0  0  0  0  0  0  0  0  0  0  0  0
    5.1364    0.3100    0.0000 C   0  0  1  0  0  0  0  0  0  0  0  0
    6.0024    3.8100    0.0000 C   0  0  0  0  0  0  0  0  0  0  0  0
    4.2704    0.8100    0.0000 C   0  0  1  0  0  0  0  0  0  0  0  0
    7.7345    4.8100    0.0000 C   0  0  0  0  0  0  0  0  0  0  0  0
    8.6005    2.3100    0.0000 C   0  0  0  0  0  0  0  0  0  0  0  0
    7.7345    0.8100    0.0000 C   0  0  0  0  0  0  0  0  0  0  0  0
    5.1364   -0.6900    0.0000 C   0  0  0  0  0  0  0  0  0  0  0  0
    3.6276    1.5760    0.0000 C   0  0  0  0  0  0  0  0  0  0  0  0
    6.0024   -2.1900    0.0000 C   0  0  1  0  0  0  0  0  0  0  0  0
    3.9696    2.5157    0.0000 C   0  0  0  0  0  0  0  0  0  0  0  0
    2.6428    1.4024    0.0000 C   0  0  0  0  0  0  0  0  0  0  0  0
    3.4044   -0.6900    0.0000 C   0  0  0  0  0  0  0  0  0  0  0  0
    3.3268    3.2818    0.0000 C   0  0  0  0  0  0  0  0  0  0  0  0
    2.0000    2.1684    0.0000 C   0  0  0  0  0  0  0  0  0  0  0  0
    6.8685   -2.6900    0.0000 C   0  0  0  0  0  0  0  0  0  0  0  0
    5.1364   -2.6900    0.0000 C   0  0  0  0  0  0  0  0  0  0  0  0
    2.3420    3.1081    0.0000 C   0  0  0  0  0  0  0  0  0  0  0  0
    4.2704   -1.1900    0.0000 C   0  0  0  0  0  0  0  0  0  0  0  0
    2.5383   -1.1900    0.0000 C   0  0  0  0  0  0  0  0  0  0  0  0
    7.7345   -2.1900    0.0000 C   0  0  0  0  0  0  0  0  0  0  0  0
    3.4044   -2.6900    0.0000 C   0  0  0  0  0  0  0  0  0  0  0  0
    4.2704   -2.1900    0.0000 C   0  0  0  0  0  0  0  0  0  0  0  0
    2.5383   -2.1900    0.0000 C   0  0  0  0  0  0  0  0  0  0  0  0
    3.4044   -3.6900    0.0000 C   0  0  0  0  0  0  0  0  0  0  0  0
    4.2704   -4.1900    0.0000 C   0  0  0  0  0  0  0  0  0  0  0  0
    8.6005   -2.6900    0.0000 C   0  0  0  0  0  0  0  0  0  0  0  0
    7.7345   -1.1900    0.0000 C   0  0  0  0  0  0  0  0  0  0  0  0
    9.4665   -2.1900    0.0000 C   0  0  0  0  0  0  0  0  0  0  0  0
    8.6005   -0.6900    0.0000 C   0  0  0  0  0  0  0  0  0  0  0  0
    9.4665   -1.1900    0.0000 C   0  0  0  0  0  0  0  0  0  0  0  0
    6.3315    3.0000    0.0000 H   0  0  0  0  0  0  0  0  0  0  0  0
    6.8685    1.6900    0.0000 H   0  0  0  0  0  0  0  0  0  0  0  0
    7.9465    3.2274    0.0000 H   0  0  0  0  0  0  0  0  0  0  0  0
    8.3451    3.9177    0.0000 H   0  0  0  0  0  0  0  0  0  0  0  0
    5.6734    0.0000    0.0000 H   0  0  0  0  0  0  0  0  0  0  0  0
    6.3124    4.3469    0.0000 H   0  0  0  0  0  0  0  0  0  0  0  0
    5.4655    4.1200    0.0000 H   0  0  0  0  0  0  0  0  0  0  0  0
    5.6924    3.2731    0.0000 H   0  0  0  0  0  0  0  0  0  0  0  0
    4.6689    1.2850    0.0000 H   0  0  0  0  0  0  0  0  0  0  0  0
    6.5394    0.5000    0.0000 H   0  0  0  0  0  0  0  0  0  0  0  0
    8.3545    4.8100    0.0000 H   0  0  0  0  0  0  0  0  0  0  0  0
    7.7345    5.4300    0.0000 H   0  0  0  0  0  0  0  0  0  0  0  0
    7.1145    4.8100    0.0000 H   0  0  0  0  0  0  0  0  0  0  0  0
    8.9105    1.7731    0.0000 H   0  0  0  0  0  0  0  0  0  0  0  0
    9.1374    2.6200    0.0000 H   0  0  0  0  0  0  0  0  0  0  0  0
    8.2905    2.8469    0.0000 H   0  0  0  0  0  0  0  0  0  0  0  0
    7.1145    0.8100    0.0000 H   0  0  0  0  0  0  0  0  0  0  0  0
    7.7345    0.1900    0.0000 H   0  0  0  0  0  0  0  0  0  0  0  0
    8.3545    0.8100    0.0000 H   0  0  0  0  0  0  0  0  0  0  0  0
    6.5394   -0.8800    0.0000 H   0  0  0  0  0  0  0  0  0  0  0  0
    6.5394   -1.8800    0.0000 H   0  0  0  0  0  0  0  0  0  0  0  0
    4.5802    2.6234    0.0000 H   0  0  0  0  0  0  0  0  0  0  0  0
    2.4307    0.8198    0.0000 H   0  0  0  0  0  0  0  0  0  0  0  0
    3.5389    3.8644    0.0000 H   0  0  0  0  0  0  0  0  0  0  0  0
    1.3894    2.0608    0.0000 H   0  0  0  0  0  0  0  0  0  0  0  0
    1.9435    3.5831    0.0000 H   0  0  0  0  0  0  0  0  0  0  0  0
    4.8073   -0.8800    0.0000 H   0  0  0  0  0  0  0  0  0  0  0  0
    2.0014   -0.8800    0.0000 H   0  0  0  0  0  0  0  0  0  0  0  0
    4.8073   -2.5000    0.0000 H   0  0  0  0  0  0  0  0  0  0  0  0
    2.0014   -2.5000    0.0000 H   0  0  0  0  0  0  0  0  0  0  0  0
    5.6734   -4.0000    0.0000 H   0  0  0  0  0  0  0  0  0  0  0  0
    2.8674   -4.0000    0.0000 H   0  0  0  0  0  0  0  0  0  0  0  0
    4.2704   -4.8100    0.0000 H   0  0  0  0  0  0  0  0  0  0  0  0
    8.6005   -3.3100    0.0000 H   0  0  0  0  0  0  0  0  0  0  0  0
    7.1976   -0.8800    0.0000 H   0  0  0  0  0  0  0  0  0  0  0  0
   10.0035   -2.5000    0.0000 H   0  0  0  0  0  0  0  0  0  0  0  0
    8.6005   -0.0700    0.0000 H   0  0  0  0  0  0  0  0  0  0  0  0
   10.0035   -0.8800    0.0000 H   0  0  0  0  0  0  0  0  0  0  0  0
  1 16  1  0  0  0  0
  1 25  1  0  0  0  0
  2 13  2  0  0  0  0
  3 20  2  0  0  0  0
  4 28  2  0  0  0  0
  5 29  2  0  0  0  0
 11  6  1  6  0  0  0
  6 18  1  0  0  0  0
  6 19  1  0  0  0  0
  7 13  1  0  0  0  0
 14  7  1  6  0  0  0
  7 53  1  0  0  0  0
  8 20  1  0  0  0  0
  8 22  1  0  0  0  0
  8 63  1  0  0  0  0
  9 29  1  0  0  0  0
  9 38  1  0  0  0  0
  9 74  1  0  0  0  0
 10 11  1  0  0  0  0
 10 12  1  0  0  0  0
 10 15  1  1  0  0  0
 10 44  1  0  0  0  0
 11 13  1  0  0  0  0
 11 45  1  0  0  0  0
 12 17  1  0  0  0  0
 12 46  1  0  0  0  0
 12 47  1  0  0  0  0
 14 16  1  0  0  0  0
 14 20  1  0  0  0  0
 14 48  1  0  0  0  0
 15 49  1  0  0  0  0
 15 50  1  0  0  0  0
 15 51  1  0  0  0  0
 16 21  1  6  0  0  0
 16 52  1  0  0  0  0
 17 54  1  0  0  0  0
 17 55  1  0  0  0  0
 17 56  1  0  0  0  0
 18 57  1  0  0  0  0
 18 58  1  0  0  0  0
 18 59  1  0  0  0  0
 19 60  1  0  0  0  0
 19 61  1  0  0  0  0
 19 62  1  0  0  0  0
 21 23  2  0  0  0  0
 21 24  1  0  0  0  0
 22 28  1  1  0  0  0
 22 29  1  0  0  0  0
 22 64  1  0  0  0  0
 23 26  1  0  0  0  0
 23 65  1  0  0  0  0
 24 27  2  0  0  0  0
 24 66  1  0  0  0  0
 25 31  2  0  0  0  0
 25 32  1  0  0  0  0
 26 30  2  0  0  0  0
 26 67  1  0  0  0  0
 27 30  1  0  0  0  0
 27 68  1  0  0  0  0
 28 33  1  0  0  0  0
 30 69  1  0  0  0  0
 31 35  1  0  0  0  0
 31 70  1  0  0  0  0
 32 36  2  0  0  0  0
 32 71  1  0  0  0  0
 33 39  2  0  0  0  0
 33 40  1  0  0  0  0
 34 35  2  0  0  0  0
 34 36  1  0  0  0  0
 34 37  1  0  0  0  0
 35 72  1  0  0  0  0
 36 73  1  0  0  0  0
 37 38  2  0  0  0  0
 37 75  1  0  0  0  0
 38 76  1  0  0  0  0
 39 41  1  0  0  0  0
 39 77  1  0  0  0  0
 40 42  2  0  0  0  0
 40 78  1  0  0  0  0
 41 43  2  0  0  0  0
 41 79  1  0  0  0  0
 42 43  1  0  0  0  0
 42 80  1  0  0  0  0
 43 81  1  0  0  0  0
M  END
> <PUBCHEM_COMPOUND_CID>
5281583

> <PUBCHEM_COMPOUND_CANONICALIZED>
1

> <PUBCHEM_CACTVS_COMPLEXITY>
979

> <PUBCHEM_CACTVS_HBOND_ACCEPTOR>
6

> <PUBCHEM_CACTVS_HBOND_DONOR>
3

> <PUBCHEM_CACTVS_ROTATABLE_BOND>
8

> <PUBCHEM_CACTVS_SUBSKEYS>
AAADcfB/uAAAAAAAAAAAAAAAAAAAAAAAAAAwYMAAAAAAAAABUAAAHgAQAAAADTzhmAYyBoPABACIAqFWUAACCAAkIgAIiIGOCMgOZj6MtTuXOSCm9hGYqYeYyKCOIAAAAAAAAABAAAAAAAAAAAAAAAAAAA==

> <PUBCHEM_IUPAC_OPENEYE_NAME>
(2S,3S)-N-[(2Z,6S,9S,10R)-6-benzoyl-5,8-dioxo-10-phenyl-11-oxa-4,7-diazabicyclo[10.2.2]hexadeca-1(14),2,12,15-tetraen-9-yl]-2-(dimethylamino)-3-methyl-pentanamide

> <PUBCHEM_IUPAC_CAS_NAME>
(2S,3S)-N-[(2Z,6S,9S,10R)-6-benzoyl-5,8-dioxo-10-phenyl-11-oxa-4,7-diazabicyclo[10.2.2]hexadeca-1(14),2,12,15-tetraen-9-yl]-2-(dimethylamino)-3-methylpentanamide

> <PUBCHEM_IUPAC_NAME>
(2S,3S)-N-[(2Z,6S,9S,10R)-6-benzoyl-5,8-dioxo-10-phenyl-11-oxa-4,7-diazabicyclo[10.2.2]hexadeca-1(14),2,12,15-tetraen-9-yl]-2-(dimethylamino)-3-methylpentanamide

> <PUBCHEM_IUPAC_SYSTEMATIC_NAME>
(2S,3S)-N-[(2Z,6S,9S,10R)-5,8-bis(oxidanylidene)-10-phenyl-6-(phenylcarbonyl)-11-oxa-4,7-diazabicyclo[10.2.2]hexadeca-1(14),2,12,15-tetraen-9-yl]-2-(dimethylamino)-3-methyl-pentanamide

> <PUBCHEM_IUPAC_TRADITIONAL_NAME>
(2S,3S)-N-[(2Z,6S,9S,10R)-6-benzoyl-5,8-diketo-10-phenyl-11-oxa-4,7-diazabicyclo[10.2.2]hexadeca-1(14),2,12,15-tetraen-9-yl]-2-(dimethylamino)-3-methyl-valeramide

> <PUBCHEM_IUPAC_INCHI>
InChI=1S/C34H38N4O5/c1-5-22(2)29(38(3)4)34(42)37-28-31(25-14-10-7-11-15-25)43-26-18-16-23(17-19-26)20-21-35-32(40)27(36-33(28)41)30(39)24-12-8-6-9-13-24/h6-22,27-29,31H,5H2,1-4H3,(H,35,40)(H,36,41)(H,37,42)/b21-20-/t22-,27-,28-,29-,31+/m0/s1

> <PUBCHEM_IUPAC_INCHIKEY>
JGTFUPZKTHJDJO-NLPARSELSA-N

> <PUBCHEM_XLOGP3_AA>
5

> <PUBCHEM_EXACT_MASS>
582.28422

> <PUBCHEM_MOLECULAR_FORMULA>
C34H38N4O5

> <PUBCHEM_MOLECULAR_WEIGHT>
582.68932

> <PUBCHEM_OPENEYE_CAN_SMILES>
CCC(C)C(C(=O)NC1C(OC2=CC=C(C=C2)C=CNC(=O)C(NC1=O)C(=O)C3=CC=CC=C3)C4=CC=CC=C4)N(C)C

> <PUBCHEM_OPENEYE_ISO_SMILES>
CC[C@H](C)[C@@H](C(=O)N[C@H]1[C@H](OC2=CC=C(C=C2)/C=C\NC(=O)[C@@H](NC1=O)C(=O)C3=CC=CC=C3)C4=CC=CC=C4)N(C)C

> <PUBCHEM_CACTVS_TPSA>
117

> <PUBCHEM_MONOISOTOPIC_WEIGHT>
582.28422

> <PUBCHEM_TOTAL_CHARGE>
0

> <PUBCHEM_HEAVY_ATOM_COUNT>
43

> <PUBCHEM_ATOM_DEF_STEREO_COUNT>
5

> <PUBCHEM_ATOM_UDEF_STEREO_COUNT>
0

> <PUBCHEM_BOND_DEF_STEREO_COUNT>
1

> <PUBCHEM_BOND_UDEF_STEREO_COUNT>
0

> <PUBCHEM_ISOTOPIC_ATOM_COUNT>
0

> <PUBCHEM_COMPONENT_COUNT>
1

> <PUBCHEM_CACTVS_TAUTO_COUNT>
30

> <PUBCHEM_COORDINATE_TYPE>
1
5
255

> <PUBCHEM_BONDANNOTATIONS>
10  15  5
16  21  6
21  23  8
21  24  8
22  28  5
23  26  8
24  27  8
25  31  8
25  32  8
26  30  8
27  30  8
31  35  8
32  36  8
33  39  8
33  40  8
34  35  8
34  36  8
39  41  8
40  42  8
41  43  8
42  43  8
11  6  6
14  7  6

$$$$

