51090888
  -OEChem-06241223003D

 50 52  0     0  0  0  0  0  0999 V2000
    6.0578   -2.0606   -0.5037 O   0  0  0  0  0  0  0  0  0  0  0  0
    3.9154    1.8634    0.3865 O   0  0  0  0  0  0  0  0  0  0  0  0
   -2.4694    2.7758    1.2543 O   0  0  0  0  0  0  0  0  0  0  0  0
   -4.7844   -2.0791    0.3040 O   0  0  0  0  0  0  0  0  0  0  0  0
    1.9506    0.6932    0.6567 N   0  0  0  0  0  0  0  0  0  0  0  0
   -0.6646    1.6948    0.2338 N   0  0  0  0  0  0  0  0  0  0  0  0
    3.8576   -0.3066   -0.3808 N   0  0  0  0  0  0  0  0  0  0  0  0
    0.9490   -0.1711    0.0154 C   0  0  0  0  0  0  0  0  0  0  0  0
    1.3895    1.6839    1.5774 C   0  0  0  0  0  0  0  0  0  0  0  0
   -0.1268    0.6722   -0.6755 C   0  0  0  0  0  0  0  0  0  0  0  0
    0.3466    2.5413    0.8717 C   0  0  0  0  0  0  0  0  0  0  0  0
    3.2795    0.8136    0.2291 C   0  0  0  0  0  0  0  0  0  0  0  0
    3.7346   -1.6835    0.1144 C   0  0  0  0  0  0  0  0  0  0  0  0
    4.8985   -0.1358   -1.3937 C   0  0  0  0  0  0  0  0  0  0  0  0
    6.2199   -0.6897   -0.8816 C   0  0  0  0  0  0  0  0  0  0  0  0
    5.1043   -2.1955    0.5542 C   0  0  0  0  0  0  0  0  0  0  0  0
   -2.0180    1.9207    0.4939 C   0  0  0  0  0  0  0  0  0  0  0  0
   -3.0045    1.0785   -0.1941 C   0  0  0  0  0  0  0  0  0  0  0  0
   -3.4307   -0.1149    0.3889 C   0  0  0  0  0  0  0  0  0  0  0  0
   -3.5155    1.4720   -1.4310 C   0  0  0  0  0  0  0  0  0  0  0  0
   -4.3680   -0.9149   -0.2647 C   0  0  0  0  0  0  0  0  0  0  0  0
   -4.4526    0.6719   -2.0849 C   0  0  0  0  0  0  0  0  0  0  0  0
   -4.8790   -0.5214   -1.5016 C   0  0  0  0  0  0  0  0  0  0  0  0
   -3.8534   -2.7610    1.1433 C   0  0  0  0  0  0  0  0  0  0  0  0
   -4.1363   -4.2471    1.0881 C   0  0  0  0  0  0  0  0  0  0  0  0
    0.5029   -0.7896    0.8025 H   0  0  0  0  0  0  0  0  0  0  0  0
    1.4040   -0.8275   -0.7291 H   0  0  0  0  0  0  0  0  0  0  0  0
    2.1781    2.3138    2.0007 H   0  0  0  0  0  0  0  0  0  0  0  0
    0.9291    1.1281    2.4031 H   0  0  0  0  0  0  0  0  0  0  0  0
    0.3079    1.2100   -1.5269 H   0  0  0  0  0  0  0  0  0  0  0  0
    0.8121    3.1385    0.0786 H   0  0  0  0  0  0  0  0  0  0  0  0
   -0.1150    3.2331    1.5830 H   0  0  0  0  0  0  0  0  0  0  0  0
   -0.9084    0.0180   -1.0666 H   0  0  0  0  0  0  0  0  0  0  0  0
    4.9979    0.9178   -1.6726 H   0  0  0  0  0  0  0  0  0  0  0  0
    4.5702   -0.6959   -2.2769 H   0  0  0  0  0  0  0  0  0  0  0  0
    3.3525   -2.2893   -0.7146 H   0  0  0  0  0  0  0  0  0  0  0  0
    3.0345   -1.7327    0.9529 H   0  0  0  0  0  0  0  0  0  0  0  0
    6.9781   -0.6457   -1.6694 H   0  0  0  0  0  0  0  0  0  0  0  0
    6.5913   -0.1185   -0.0226 H   0  0  0  0  0  0  0  0  0  0  0  0
    5.4672   -1.6523    1.4351 H   0  0  0  0  0  0  0  0  0  0  0  0
    5.0411   -3.2558    0.8176 H   0  0  0  0  0  0  0  0  0  0  0  0
   -3.0342   -0.3804    1.3653 H   0  0  0  0  0  0  0  0  0  0  0  0
   -3.1898    2.3996   -1.8945 H   0  0  0  0  0  0  0  0  0  0  0  0
   -4.8503    0.9779   -3.0481 H   0  0  0  0  0  0  0  0  0  0  0  0
   -5.6092   -1.1405   -2.0157 H   0  0  0  0  0  0  0  0  0  0  0  0
   -3.9650   -2.4007    2.1718 H   0  0  0  0  0  0  0  0  0  0  0  0
   -2.8183   -2.6110    0.8112 H   0  0  0  0  0  0  0  0  0  0  0  0
   -3.4459   -4.8014    1.7301 H   0  0  0  0  0  0  0  0  0  0  0  0
   -4.0422   -4.6200    0.0628 H   0  0  0  0  0  0  0  0  0  0  0  0
   -5.1620   -4.4564    1.4094 H   0  0  0  0  0  0  0  0  0  0  0  0
  1 15  1  0  0  0  0
  1 16  1  0  0  0  0
  2 12  2  0  0  0  0
  3 17  2  0  0  0  0
  4 21  1  0  0  0  0
  4 24  1  0  0  0  0
  5  8  1  0  0  0  0
  5  9  1  0  0  0  0
  5 12  1  0  0  0  0
  6 10  1  0  0  0  0
  6 11  1  0  0  0  0
  6 17  1  0  0  0  0
  7 12  1  0  0  0  0
  7 13  1  0  0  0  0
  7 14  1  0  0  0  0
  8 10  1  0  0  0  0
  8 26  1  0  0  0  0
  8 27  1  0  0  0  0
  9 11  1  0  0  0  0
  9 28  1  0  0  0  0
  9 29  1  0  0  0  0
 10 30  1  0  0  0  0
 10 33  1  0  0  0  0
 11 31  1  0  0  0  0
 11 32  1  0  0  0  0
 13 16  1  0  0  0  0
 13 36  1  0  0  0  0
 13 37  1  0  0  0  0
 14 15  1  0  0  0  0
 14 34  1  0  0  0  0
 14 35  1  0  0  0  0
 15 38  1  0  0  0  0
 15 39  1  0  0  0  0
 16 40  1  0  0  0  0
 16 41  1  0  0  0  0
 17 18  1  0  0  0  0
 18 19  2  0  0  0  0
 18 20  1  0  0  0  0
 19 21  1  0  0  0  0
 19 42  1  0  0  0  0
 20 22  2  0  0  0  0
 20 43  1  0  0  0  0
 21 23  2  0  0  0  0
 22 23  1  0  0  0  0
 22 44  1  0  0  0  0
 23 45  1  0  0  0  0
 24 25  1  0  0  0  0
 24 46  1  0  0  0  0
 24 47  1  0  0  0  0
 25 48  1  0  0  0  0
 25 49  1  0  0  0  0
 25 50  1  0  0  0  0
M  END
> <PUBCHEM_COMPOUND_CID>
51090888

> <PUBCHEM_CONFORMER_RMSD>
1

> <PUBCHEM_CONFORMER_DIVERSEORDER>
1
70
67
62
21
4
50
55
41
20
39
32
47
57
33
64
42
36
37
59
66
10
11
24
46
71
65
43
44
49
26
15
19
30
51
22
17
53
61
13
48
25
12
18
14
38
58
52
60
56
54
27
3
63
5
16
2
35
29
34
28
23
7
69
45
6
8
31
40
68
9

> <PUBCHEM_MMFF94_PARTIAL_CHARGES>
28
1 -0.56
10 0.3
11 0.3
12 0.69
13 0.3
14 0.3
15 0.28
16 0.28
17 0.54
18 0.09
19 -0.15
2 -0.57
20 -0.15
21 0.08
22 -0.15
23 -0.15
24 0.28
3 -0.57
4 -0.36
42 0.15
43 0.15
44 0.15
45 0.15
5 -0.66
6 -0.66
7 -0.66
8 0.3
9 0.3

> <PUBCHEM_EFFECTIVE_ROTOR_COUNT>
8.4

> <PUBCHEM_PHARMACOPHORE_FEATURES>
7
1 1 acceptor
1 2 acceptor
1 3 acceptor
1 4 acceptor
6 1 7 13 14 15 16 rings
6 18 19 20 21 22 23 rings
6 5 6 8 9 10 11 rings

> <PUBCHEM_HEAVY_ATOM_COUNT>
25

> <PUBCHEM_ATOM_DEF_STEREO_COUNT>
0

> <PUBCHEM_ATOM_UDEF_STEREO_COUNT>
0

> <PUBCHEM_BOND_DEF_STEREO_COUNT>
0

> <PUBCHEM_BOND_UDEF_STEREO_COUNT>
0

> <PUBCHEM_ISOTOPIC_ATOM_COUNT>
0

> <PUBCHEM_COMPONENT_COUNT>
1

> <PUBCHEM_CACTVS_TAUTO_COUNT>
1

> <PUBCHEM_CONFORMER_ID>
030B95C800000001

> <PUBCHEM_MMFF94_ENERGY>
75.7362

> <PUBCHEM_FEATURE_SELFOVERLAP>
35.52

> <PUBCHEM_SHAPE_FINGERPRINT>
105312 117 14476949117031068272
10763959 59 9583522036438347106
11089746 13 15267340713422905148
11186622 123 18201446852259081010
11796584 16 18201172012921647322
12633257 1 16153705375870794813
12760667 363 18260831510098340611
12892183 10 6483353339268381973
12969540 114 14548730703764890504
13103583 49 14562525176251368104
13402501 40 18338794520891693155
1361 87 18410293597018264135
13690498 29 17917709068149803735
14251740 79 18202841063173022643
14251757 5 18059005077862500691
14910302 57 18059590095341304525
14950920 106 17241875494357895219
15188451 53 14924528368012847941
15250474 111 18200317761523716778
15510800 12 18266471918644413571
1601671 61 11167929278410551638
17627616 140 17988369281256097643
17857418 61 18337114578734838262
17870717 6 18201725054992158645
18927931 339 17968093153094115813
19246450 95 8789778970213641764
193927 3 18040148539650845484
20028762 73 16950860131939641262
20693207 138 18270408187593944181
20775530 9 18127692630723644571
21033650 10 17131560556055246749
21196832 93 18340476760997625318
21307412 95 18270971125243180479
21315764 119 17987805244732809685
221490 88 18337110068650295752
22393880 68 17989218048418127057
22849339 104 17916881127652436863
23379529 103 18126561215883381059
23466295 7 18201146651878730027
23559900 14 18412553088975893081
25025965 108 17461746148645465574
2838139 119 14692575420617890172
3089732 80 18410290272550170050
314194 84 17822296747304383012
329604 57 18410569583184714174
3459 39 11239710843210530716
4073 2 18410575080801063952
439807 62 18272647952619284627
484985 159 18410283719305425843
5104073 3 17894632582330188640
531348 171 17345200097484541599
5365585 94 18408880746162061075
5486654 36 18113891684908847737
6371380 46 18335702784815695713
6431902 208 18260547848677724142
7808743 9 9583515400054329087
8863177 126 18336825273674648506
9862522 239 9799688182299917033
9862886 166 18342176661455073466

> <PUBCHEM_SHAPE_MULTIPOLES>
476.07
14.45
3.6
1.47
12.4
2.93
0.34
10.35
4.67
-3.45
-1.94
-1.06
-0.33
1.96

> <PUBCHEM_SHAPE_SELFOVERLAP>
991.327

> <PUBCHEM_SHAPE_VOLUME>
267.4

> <PUBCHEM_COORDINATE_TYPE>
2
5
10

$$$$

