119359
  -OEChem-07051213043D

 30 30  0     1  0  0  0  0  0999 V2000
    4.0200    2.8805    0.2226 Cl  0  0  0  0  0  0  0  0  0  0  0  0
    5.3341   -2.3320   -0.2598 Cl  0  0  0  0  0  0  0  0  0  0  0  0
   -1.7729   -0.7011    0.0693 O   0  0  0  0  0  0  0  0  0  0  0  0
   -5.3655   -0.4540   -0.0085 O   0  0  0  0  0  0  0  0  0  0  0  0
   -3.9445   -2.2149   -0.0838 O   0  0  0  0  0  0  0  0  0  0  0  0
   -0.6255    1.2723    0.2087 O   0  0  0  0  0  0  0  0  0  0  0  0
    0.4615   -0.7907    0.0021 N   0  0  0  0  0  0  0  0  0  0  0  0
   -3.0043    0.0202    0.1647 C   0  0  1  0  0  0  0  0  0  0  0  0
   -3.0313    0.6297    1.5675 C   0  0  0  0  0  0  0  0  0  0  0  0
   -3.0767    0.9794   -0.9974 C   0  0  0  0  0  0  0  0  0  0  0  0
   -4.1247   -1.0068    0.0167 C   0  0  0  0  0  0  0  0  0  0  0  0
    1.8319   -0.4442   -0.0047 C   0  0  0  0  0  0  0  0  0  0  0  0
   -0.6285    0.0518    0.1034 C   0  0  0  0  0  0  0  0  0  0  0  0
    2.7843   -1.4445   -0.1158 C   0  0  0  0  0  0  0  0  0  0  0  0
    2.1965    0.8888    0.0997 C   0  0  0  0  0  0  0  0  0  0  0  0
    3.5490    1.2303    0.0929 C   0  0  0  0  0  0  0  0  0  0  0  0
    4.1369   -1.1032   -0.1228 C   0  0  0  0  0  0  0  0  0  0  0  0
   -3.2594    2.3042   -0.9363 C   0  0  0  0  0  0  0  0  0  0  0  0
    4.5192    0.2342   -0.0185 C   0  0  0  0  0  0  0  0  0  0  0  0
   -2.8003   -0.1330    2.3219 H   0  0  0  0  0  0  0  0  0  0  0  0
   -2.3270    1.4496    1.7295 H   0  0  0  0  0  0  0  0  0  0  0  0
   -4.0268    1.0234    1.8056 H   0  0  0  0  0  0  0  0  0  0  0  0
   -2.9660    0.5408   -1.9885 H   0  0  0  0  0  0  0  0  0  0  0  0
    0.2550   -1.7835   -0.0777 H   0  0  0  0  0  0  0  0  0  0  0  0
    2.4828   -2.4861   -0.1970 H   0  0  0  0  0  0  0  0  0  0  0  0
    1.4918    1.7032    0.1883 H   0  0  0  0  0  0  0  0  0  0  0  0
   -3.2919    2.8914   -1.8481 H   0  0  0  0  0  0  0  0  0  0  0  0
   -3.3833    2.8308    0.0023 H   0  0  0  0  0  0  0  0  0  0  0  0
    5.5740    0.5005   -0.0236 H   0  0  0  0  0  0  0  0  0  0  0  0
   -6.0661   -1.1330   -0.1104 H   0  0  0  0  0  0  0  0  0  0  0  0
  1 16  1  0  0  0  0
  2 17  1  0  0  0  0
  3  8  1  0  0  0  0
  3 13  1  0  0  0  0
  4 11  1  0  0  0  0
  4 30  1  0  0  0  0
  5 11  2  0  0  0  0
  6 13  2  0  0  0  0
  7 12  1  0  0  0  0
  7 13  1  0  0  0  0
  7 24  1  0  0  0  0
  8  9  1  0  0  0  0
  8 10  1  0  0  0  0
  8 11  1  0  0  0  0
  9 20  1  0  0  0  0
  9 21  1  0  0  0  0
  9 22  1  0  0  0  0
 10 18  2  0  0  0  0
 10 23  1  0  0  0  0
 12 14  2  0  0  0  0
 12 15  1  0  0  0  0
 14 17  1  0  0  0  0
 14 25  1  0  0  0  0
 15 16  2  0  0  0  0
 15 26  1  0  0  0  0
 16 19  1  0  0  0  0
 17 19  2  0  0  0  0
 18 27  1  0  0  0  0
 18 28  1  0  0  0  0
 19 29  1  0  0  0  0
M  END
> <PUBCHEM_COMPOUND_CID>
119359

> <PUBCHEM_CONFORMER_RMSD>
0.8

> <PUBCHEM_CONFORMER_DIVERSEORDER>
1
37
36
35
43
39
23
6
41
18
45
44
40
16
34
5
28
27
32
47
38
8
46
12
26
49
15
48
17
13
31
2
22
25
30
10
11
21
9
33
19
42
7
24
4
20
3
29
14

> <PUBCHEM_MMFF94_PARTIAL_CHARGES>
26
1 -0.18
10 -0.29
11 0.66
12 0.12
13 0.78
14 -0.15
15 -0.15
16 0.18
17 0.18
18 -0.3
19 -0.15
2 -0.18
23 0.15
24 0.37
25 0.15
26 0.15
27 0.15
28 0.15
29 0.15
3 -0.43
30 0.5
4 -0.65
5 -0.57
6 -0.57
7 -0.55
8 0.48

> <PUBCHEM_EFFECTIVE_ROTOR_COUNT>
6

> <PUBCHEM_PHARMACOPHORE_FEATURES>
7
1 18 hydrophobe
1 4 acceptor
1 5 acceptor
1 6 acceptor
1 7 donor
3 4 5 11 anion
6 12 14 15 16 17 19 rings

> <PUBCHEM_HEAVY_ATOM_COUNT>
19

> <PUBCHEM_ATOM_DEF_STEREO_COUNT>
0

> <PUBCHEM_ATOM_UDEF_STEREO_COUNT>
1

> <PUBCHEM_BOND_DEF_STEREO_COUNT>
0

> <PUBCHEM_BOND_UDEF_STEREO_COUNT>
0

> <PUBCHEM_ISOTOPIC_ATOM_COUNT>
0

> <PUBCHEM_COMPONENT_COUNT>
1

> <PUBCHEM_CACTVS_TAUTO_COUNT>
2

> <PUBCHEM_CONFORMER_ID>
0001D23F00000001

> <PUBCHEM_MMFF94_ENERGY>
47.5366

> <PUBCHEM_FEATURE_SELFOVERLAP>
35.58

> <PUBCHEM_SHAPE_FINGERPRINT>
10366900 7 17417808474128810698
10608611 8 18413674616790612236
10680689 15 18130499825146787779
10912923 1 17822003186199952867
11405975 8 18340488975135217160
11471102 20 18409449207043384620
11615757 297 18261107482768446600
12107183 9 17901374920564317234
12403259 226 18412268367462920580
12403259 415 18272654553704235925
12507557 5 18335987557704563376
12507560 40 18412267241991273260
12616971 3 17894635854704474815
12916754 54 18408884036011687611
13081056 2 18413389825930162124
13167823 11 18408605850837994502
13955234 65 18335140848358044136
14341114 176 18411695482890927717
15196674 1 18411138052012965604
15788980 27 18201435921751298194
15961568 22 17488744459260215044
17492 89 18410576180196913134
17834072 33 18335138657154738742
17844677 252 18410568517832416540
18186145 218 18335414699208693130
200 152 18114186362319139386
20281475 54 18260265256882539232
20645477 56 18129380574340105413
20645477 70 18335417993849854198
20681677 76 18341338841889308692
21065198 57 18411702122915700612
21065201 7 17775570857392978520
21267235 1 18409721880915174694
21709351 56 18336269032728792542
221357 26 18411984680066135269
221490 88 18411415107805743922
22393880 68 18129952281109311798
2306618 200 18335418023846105657
23402539 116 18342461495101348054
23557571 272 18342172293415188085
23559900 14 18337680827154636154
29717793 49 18040434416631210167
312423 11 18041546010397777936
3268164 11 17274833454068099207
3545911 37 18336827503294976832
4214541 1 18411419557006721213
474 4 18196651796630784888
5104073 3 18410292518875549720
5281201 14 18412824703082024372
633830 44 17203603809312676964
7495541 125 17676774171407376658
77779 3 18410292501590080654
90127 26 18060413642704643584
9709674 26 18343016658089183634

> <PUBCHEM_SHAPE_MULTIPOLES>
366.29
12.06
2.51
0.85
0.12
0.8
0.11
-2.85
-0.55
2.07
-0.24
-0.7
0.24
0.8

> <PUBCHEM_SHAPE_SELFOVERLAP>
747.118

> <PUBCHEM_SHAPE_VOLUME>
212.9

> <PUBCHEM_COORDINATE_TYPE>
2
5
10

$$$$

