36606
  -OEChem-07051213133D

 45 45  0     0  0  0  0  0  0999 V2000
    0.8752    3.3872   -0.3699 O   0  5  0  0  0  0  0  0  0  0  0  0
    0.0790   -3.5797    0.0982 O   0  5  0  0  0  0  0  0  0  0  0  0
   -1.1560    2.5632   -0.2514 O   0  0  0  0  0  0  0  0  0  0  0  0
   -1.7131   -2.3120    0.0765 O   0  0  0  0  0  0  0  0  0  0  0  0
   -1.6101    0.1452   -0.0816 N   0  0  0  0  0  0  0  0  0  0  0  0
    0.0880    2.4163   -0.2823 N   0  3  0  0  0  0  0  0  0  0  0  0
   -0.4683   -2.4537    0.0446 N   0  3  0  0  0  0  0  0  0  0  0  0
   -0.2177   -0.0157   -0.1179 C   0  0  0  0  0  0  0  0  0  0  0  0
   -2.3769    0.1625   -1.3289 C   0  0  0  0  0  0  0  0  0  0  0  0
   -2.3168    0.3096    1.1658 C   0  0  0  0  0  0  0  0  0  0  0  0
    2.5669   -0.3384   -0.1883 C   0  0  0  0  0  0  0  0  0  0  0  0
    4.0483   -0.5098   -0.2248 C   0  0  0  0  0  0  0  0  0  0  0  0
    0.6260    1.0999   -0.2160 C   0  0  0  0  0  0  0  0  0  0  0  0
    0.3525   -1.2951   -0.0556 C   0  0  0  0  0  0  0  0  0  0  0  0
   -3.8568   -0.0856   -1.0564 C   0  0  0  0  0  0  0  0  0  0  0  0
   -1.3422    0.3408    2.3384 C   0  0  0  0  0  0  0  0  0  0  0  0
    2.0111    0.9394   -0.2510 C   0  0  0  0  0  0  0  0  0  0  0  0
    1.7376   -1.4557   -0.0905 C   0  0  0  0  0  0  0  0  0  0  0  0
    4.6674   -0.0023   -1.5407 C   0  0  0  0  0  0  0  0  0  0  0  0
    4.7477    0.1586    0.9739 C   0  0  0  0  0  0  0  0  0  0  0  0
   -4.7065   -0.0328   -2.3186 C   0  0  0  0  0  0  0  0  0  0  0  0
   -2.0353    0.5581    3.6765 C   0  0  0  0  0  0  0  0  0  0  0  0
   -2.2543    1.1178   -1.8501 H   0  0  0  0  0  0  0  0  0  0  0  0
   -2.0046   -0.6116   -2.0120 H   0  0  0  0  0  0  0  0  0  0  0  0
   -2.8841    1.2480    1.1690 H   0  0  0  0  0  0  0  0  0  0  0  0
   -3.0258   -0.5069    1.3428 H   0  0  0  0  0  0  0  0  0  0  0  0
    4.2845   -1.5809   -0.1638 H   0  0  0  0  0  0  0  0  0  0  0  0
   -4.2705    0.6702   -0.3801 H   0  0  0  0  0  0  0  0  0  0  0  0
   -4.0071   -1.0659   -0.5903 H   0  0  0  0  0  0  0  0  0  0  0  0
   -0.6128    1.1506    2.2336 H   0  0  0  0  0  0  0  0  0  0  0  0
   -0.7866   -0.6004    2.4164 H   0  0  0  0  0  0  0  0  0  0  0  0
    2.6734    1.7981   -0.3267 H   0  0  0  0  0  0  0  0  0  0  0  0
    2.1939   -2.4418   -0.0428 H   0  0  0  0  0  0  0  0  0  0  0  0
    4.1943   -0.4833   -2.4040 H   0  0  0  0  0  0  0  0  0  0  0  0
    5.7383   -0.2306   -1.5737 H   0  0  0  0  0  0  0  0  0  0  0  0
    4.5544    1.0810   -1.6565 H   0  0  0  0  0  0  0  0  0  0  0  0
    4.6384    1.2482    0.9576 H   0  0  0  0  0  0  0  0  0  0  0  0
    5.8193   -0.0685    0.9679 H   0  0  0  0  0  0  0  0  0  0  0  0
    4.3321   -0.2064    1.9197 H   0  0  0  0  0  0  0  0  0  0  0  0
   -4.6325    0.9479   -2.7991 H   0  0  0  0  0  0  0  0  0  0  0  0
   -4.3843   -0.7930   -3.0373 H   0  0  0  0  0  0  0  0  0  0  0  0
   -5.7585   -0.2159   -2.0778 H   0  0  0  0  0  0  0  0  0  0  0  0
   -2.5730    1.5116    3.6880 H   0  0  0  0  0  0  0  0  0  0  0  0
   -2.7524   -0.2436    3.8795 H   0  0  0  0  0  0  0  0  0  0  0  0
   -1.3011    0.5717    4.4882 H   0  0  0  0  0  0  0  0  0  0  0  0
  1  6  1  0  0  0  0
  2  7  1  0  0  0  0
  3  6  2  0  0  0  0
  4  7  2  0  0  0  0
  5  8  1  0  0  0  0
  5  9  1  0  0  0  0
  5 10  1  0  0  0  0
  6 13  1  0  0  0  0
  7 14  1  0  0  0  0
  8 13  2  0  0  0  0
  8 14  1  0  0  0  0
  9 15  1  0  0  0  0
  9 23  1  0  0  0  0
  9 24  1  0  0  0  0
 10 16  1  0  0  0  0
 10 25  1  0  0  0  0
 10 26  1  0  0  0  0
 11 12  1  0  0  0  0
 11 17  2  0  0  0  0
 11 18  1  0  0  0  0
 12 19  1  0  0  0  0
 12 20  1  0  0  0  0
 12 27  1  0  0  0  0
 13 17  1  0  0  0  0
 14 18  2  0  0  0  0
 15 21  1  0  0  0  0
 15 28  1  0  0  0  0
 15 29  1  0  0  0  0
 16 22  1  0  0  0  0
 16 30  1  0  0  0  0
 16 31  1  0  0  0  0
 17 32  1  0  0  0  0
 18 33  1  0  0  0  0
 19 34  1  0  0  0  0
 19 35  1  0  0  0  0
 19 36  1  0  0  0  0
 20 37  1  0  0  0  0
 20 38  1  0  0  0  0
 20 39  1  0  0  0  0
 21 40  1  0  0  0  0
 21 41  1  0  0  0  0
 21 42  1  0  0  0  0
 22 43  1  0  0  0  0
 22 44  1  0  0  0  0
 22 45  1  0  0  0  0
M  CHG  4   1  -1   2  -1   6   1   7   1
M  END
> <PUBCHEM_COMPOUND_CID>
36606

> <PUBCHEM_CONFORMER_RMSD>
0.8

> <PUBCHEM_CONFORMER_DIVERSEORDER>
2
5
7
6
8
4
1
3

> <PUBCHEM_MMFF94_PARTIAL_CHARGES>
18
1 -0.52
10 0.37
11 -0.14
12 0.14
13 0.13
14 0.13
17 -0.15
18 -0.15
2 -0.52
3 -0.52
32 0.15
33 0.15
4 -0.52
5 -0.84
6 0.91
7 0.91
8 0.1
9 0.37

> <PUBCHEM_EFFECTIVE_ROTOR_COUNT>
8

> <PUBCHEM_PHARMACOPHORE_FEATURES>
11
1 1 acceptor
1 1 anion
1 2 acceptor
1 2 anion
1 21 hydrophobe
1 22 hydrophobe
1 3 acceptor
1 4 acceptor
1 5 cation
3 12 19 20 hydrophobe
6 8 11 13 14 17 18 rings

> <PUBCHEM_HEAVY_ATOM_COUNT>
22

> <PUBCHEM_ATOM_DEF_STEREO_COUNT>
0

> <PUBCHEM_ATOM_UDEF_STEREO_COUNT>
0

> <PUBCHEM_BOND_DEF_STEREO_COUNT>
0

> <PUBCHEM_BOND_UDEF_STEREO_COUNT>
0

> <PUBCHEM_ISOTOPIC_ATOM_COUNT>
0

> <PUBCHEM_COMPONENT_COUNT>
1

> <PUBCHEM_CACTVS_TAUTO_COUNT>
1

> <PUBCHEM_CONFORMER_ID>
00008EFE00000002

> <PUBCHEM_MMFF94_ENERGY>
96.5939

> <PUBCHEM_FEATURE_SELFOVERLAP>
55.981

> <PUBCHEM_SHAPE_FINGERPRINT>
10498660 4 18341326696433491164
10693767 8 18115610247369170935
10967382 1 18411985784168044990
11578080 2 17701265728729273404
11680986 33 18119817902205690540
12236239 1 17821447980531333021
12553582 1 18339346514425162324
12592029 89 18201726179730777899
12633257 1 17626902540126993193
13140716 1 18267581313144294888
13583140 156 16988554672506595684
13911987 19 18271799112457011078
14142880 1 18114460175211669305
14289901 80 16370442259390233094
14787075 74 17386585551966346408
14790565 3 18267562737147982972
15309172 13 18267003090086903834
16752209 62 18342177829860050092
16945 1 18411974776414551246
17492 54 18342749519750172231
19010151 120 18261116282977282852
200 152 17676214550074598271
20600515 1 18119839957063040520
229495 10 17757818310249603777
2334 1 17979350863967557014
23402539 116 18335153006724747726
23419403 2 17607823694255960131
23493267 7 16988840600963588976
23557571 272 14923936864868558729
23558518 356 17554331706235066536
23559900 14 18409163282839284380
23566358 2 17977660909963179300
2748010 2 18121779431165713046
298252 57 18130523984411979651
3060560 45 18197245627298370631
81228 2 18261385663911357868

> <PUBCHEM_SHAPE_MULTIPOLES>
414.33
7.27
2.66
2.19
3.99
0.29
-2.04
0.47
3.37
-0.11
0.06
-2.76
-0.71
-0.57

> <PUBCHEM_SHAPE_SELFOVERLAP>
847.702

> <PUBCHEM_SHAPE_VOLUME>
240.3

> <PUBCHEM_COORDINATE_TYPE>
2
5
10

$$$$

