3335
  -OEChem-06251223213D

 33 34  0     0  0  0  0  0  0999 V2000
    2.6782    2.1539   -0.0068 O   0  0  0  0  0  0  0  0  0  0  0  0
    6.9721   -0.5121    0.0146 O   0  0  0  0  0  0  0  0  0  0  0  0
    5.3067   -2.0593   -0.0083 O   0  0  0  0  0  0  0  0  0  0  0  0
    0.8345    0.6940    0.0013 C   0  0  0  0  0  0  0  0  0  0  0  0
   -1.8643    0.1590    0.0011 C   0  0  0  0  0  0  0  0  0  0  0  0
    3.2751   -0.1805    0.0135 C   0  0  0  0  0  0  0  0  0  0  0  0
    2.2986    0.9851    0.0013 C   0  0  0  0  0  0  0  0  0  0  0  0
   -3.2838   -0.1216    0.0005 C   0  0  0  0  0  0  0  0  0  0  0  0
    0.4228   -0.6190    0.0125 C   0  0  0  0  0  0  0  0  0  0  0  0
   -0.0468    1.7509   -0.0098 C   0  0  0  0  0  0  0  0  0  0  0  0
   -0.9454   -0.8902    0.0123 C   0  0  0  0  0  0  0  0  0  0  0  0
   -1.4151    1.4796   -0.0099 C   0  0  0  0  0  0  0  0  0  0  0  0
    4.7266    0.2846   -0.0128 C   0  0  0  0  0  0  0  0  0  0  0  0
   -3.9651   -0.2680   -1.2079 C   0  0  0  0  0  0  0  0  0  0  0  0
   -3.9708   -0.2465    1.2080 C   0  0  0  0  0  0  0  0  0  0  0  0
   -5.3334   -0.5388   -1.2088 C   0  0  0  0  0  0  0  0  0  0  0  0
   -5.3392   -0.5174    1.2071 C   0  0  0  0  0  0  0  0  0  0  0  0
    5.6698   -0.8902   -0.0063 C   0  0  0  0  0  0  0  0  0  0  0  0
   -6.0204   -0.6636   -0.0014 C   0  0  0  0  0  0  0  0  0  0  0  0
    3.1049   -0.7721    0.9207 H   0  0  0  0  0  0  0  0  0  0  0  0
    3.0873   -0.8049   -0.8678 H   0  0  0  0  0  0  0  0  0  0  0  0
    1.1001   -1.4650    0.0227 H   0  0  0  0  0  0  0  0  0  0  0  0
    0.2816    2.7854   -0.0186 H   0  0  0  0  0  0  0  0  0  0  0  0
   -1.2794   -1.9252    0.0212 H   0  0  0  0  0  0  0  0  0  0  0  0
   -2.1183    2.3093   -0.0188 H   0  0  0  0  0  0  0  0  0  0  0  0
    4.9185    0.8761   -0.9150 H   0  0  0  0  0  0  0  0  0  0  0  0
    4.9392    0.9033    0.8662 H   0  0  0  0  0  0  0  0  0  0  0  0
   -3.4448   -0.1739   -2.1582 H   0  0  0  0  0  0  0  0  0  0  0  0
   -3.4551   -0.1356    2.1590 H   0  0  0  0  0  0  0  0  0  0  0  0
   -5.8640   -0.6527   -2.1496 H   0  0  0  0  0  0  0  0  0  0  0  0
   -5.8743   -0.6146    2.1471 H   0  0  0  0  0  0  0  0  0  0  0  0
   -7.0857   -0.8746   -0.0021 H   0  0  0  0  0  0  0  0  0  0  0  0
    7.5773   -1.2841    0.0243 H   0  0  0  0  0  0  0  0  0  0  0  0
  1  7  2  0  0  0  0
  2 18  1  0  0  0  0
  2 33  1  0  0  0  0
  3 18  2  0  0  0  0
  4  7  1  0  0  0  0
  4  9  2  0  0  0  0
  4 10  1  0  0  0  0
  5  8  1  0  0  0  0
  5 11  2  0  0  0  0
  5 12  1  0  0  0  0
  6  7  1  0  0  0  0
  6 13  1  0  0  0  0
  6 20  1  0  0  0  0
  6 21  1  0  0  0  0
  8 14  2  0  0  0  0
  8 15  1  0  0  0  0
  9 11  1  0  0  0  0
  9 22  1  0  0  0  0
 10 12  2  0  0  0  0
 10 23  1  0  0  0  0
 11 24  1  0  0  0  0
 12 25  1  0  0  0  0
 13 18  1  0  0  0  0
 13 26  1  0  0  0  0
 13 27  1  0  0  0  0
 14 16  1  0  0  0  0
 14 28  1  0  0  0  0
 15 17  2  0  0  0  0
 15 29  1  0  0  0  0
 16 19  2  0  0  0  0
 16 30  1  0  0  0  0
 17 19  1  0  0  0  0
 17 31  1  0  0  0  0
 19 32  1  0  0  0  0
M  END
> <PUBCHEM_COMPOUND_CID>
3335

> <PUBCHEM_CONFORMER_RMSD>
0.8

> <PUBCHEM_CONFORMER_DIVERSEORDER>
1
15
11
12
8
3
9
13
14
4
7
17
10
5
2
16
6

> <PUBCHEM_MMFF94_PARTIAL_CHARGES>
27
1 -0.57
10 -0.15
11 -0.15
12 -0.15
13 0.06
14 -0.15
15 -0.15
16 -0.15
17 -0.15
18 0.66
19 -0.15
2 -0.65
22 0.15
23 0.15
24 0.15
25 0.15
28 0.15
29 0.15
3 -0.57
30 0.15
31 0.15
32 0.15
33 0.5
4 0.09
6 0.06
7 0.42
9 -0.15

> <PUBCHEM_EFFECTIVE_ROTOR_COUNT>
5

> <PUBCHEM_PHARMACOPHORE_FEATURES>
6
1 1 acceptor
1 2 acceptor
1 3 acceptor
3 2 3 18 anion
6 4 5 9 10 11 12 rings
6 8 14 15 16 17 19 rings

> <PUBCHEM_HEAVY_ATOM_COUNT>
19

> <PUBCHEM_ATOM_DEF_STEREO_COUNT>
0

> <PUBCHEM_ATOM_UDEF_STEREO_COUNT>
0

> <PUBCHEM_BOND_DEF_STEREO_COUNT>
0

> <PUBCHEM_BOND_UDEF_STEREO_COUNT>
0

> <PUBCHEM_ISOTOPIC_ATOM_COUNT>
0

> <PUBCHEM_COMPONENT_COUNT>
1

> <PUBCHEM_CACTVS_TAUTO_COUNT>
2

> <PUBCHEM_CONFORMER_ID>
00000D0700000001

> <PUBCHEM_MMFF94_ENERGY>
52.2857

> <PUBCHEM_FEATURE_SELFOVERLAP>
30.503

> <PUBCHEM_SHAPE_FINGERPRINT>
10 15 5689585109125278502
106641 1 16805333163213956858
10912923 1 17458622259900281249
11315181 36 17418369194862544125
12236239 1 17894349956481135089
12555020 224 18412550881768949911
12596602 18 16153430549825750970
12616971 3 18113897131095923821
12670543 26 18130796689038767125
12760667 363 18408885156776592784
13288520 33 18408886239641231237
13403585 85 14996281431404465107
13533116 47 18259704476431278760
13551218 46 18114742737021074454
13685833 64 18413386531959089634
13760787 5 18337952299105333997
13862211 1 18408324384366543175
13955234 65 18264772061052190520
1420 363 18273210902350783010
14251764 18 17822010891909273896
14350574 20 18272932721851339228
15048467 5 10807938171406054639
15183329 4 16343708759057156532
15188451 53 16226342421622290013
15348495 7 13984675719625207774
17834072 8 17846784000604428463
17834076 25 10879992458403411062
17857418 61 18187367631597730718
17862501 102 17821445751063647673
17870717 6 17060619993311865635
1813 80 18335405885704206884
18222031 100 18411146826699664744
19141452 34 18040999505457590206
19489759 90 16415480463050190583
19784866 140 18201723976264309840
200 152 18333734619597963417
20645477 70 18343303647888038344
21150785 3 16271921602104107382
21236236 1 18338234972409841449
21267235 1 18411695487011802171
21682296 61 18337667624019479974
22224240 67 17458070357336059238
2297311 6 16702583823004398589
23175994 123 18131350778860090293
23198884 109 14405186178976483924
23402539 116 18040155128120108325
23522609 53 18117527726775677328
23559900 14 17775286019298879352
2767999 5 9727631696332175438
2916195 48 6844204233862801747
3004659 81 17989207045413495724
335352 9 18410856547250740791
345986 75 18041850639564320066
34797466 226 16486964055788206069
351380 3 18408044017781545158
465052 167 18409725154017754142
5104073 3 17313664816084906403
559249 180 18040720251907243535

> <PUBCHEM_SHAPE_MULTIPOLES>
373.4
15.61
1.51
0.92
10.48
0.41
0
-7.14
0
1.59
-0.01
-1.5
-0.11
-0.01

> <PUBCHEM_SHAPE_SELFOVERLAP>
801.524

> <PUBCHEM_SHAPE_VOLUME>
205.8

> <PUBCHEM_COORDINATE_TYPE>
2
5
10

$$$$

