17396123
  -OEChem-06241222543D

 45 48  0     0  0  0  0  0  0999 V2000
    2.8129   -1.0722   -1.9660 S   0  0  0  0  0  0  0  0  0  0  0  0
   -1.3364   -0.5489    0.1781 O   0  0  0  0  0  0  0  0  0  0  0  0
    1.0569    3.8715   -0.6797 O   0  0  0  0  0  0  0  0  0  0  0  0
    0.1538    1.7040   -0.6245 N   0  0  0  0  0  0  0  0  0  0  0  0
    3.0169    0.4766    0.0863 N   0  0  0  0  0  0  0  0  0  0  0  0
    3.0651    1.6668   -2.0775 C   0  0  0  0  0  0  0  0  0  0  0  0
    1.6848    2.2797   -2.3759 C   0  0  0  0  0  0  0  0  0  0  0  0
    2.9773    0.4609   -1.2256 C   0  0  0  0  0  0  0  0  0  0  0  0
    0.9391    2.7364   -1.1295 C   0  0  0  0  0  0  0  0  0  0  0  0
    2.7896   -1.8110   -0.4083 C   0  0  0  0  0  0  0  0  0  0  0  0
    2.9103   -0.8193    0.5699 C   0  0  0  0  0  0  0  0  0  0  0  0
   -0.6825    1.7352    0.5165 C   0  0  0  0  0  0  0  0  0  0  0  0
   -1.4114    0.6077    0.8954 C   0  0  0  0  0  0  0  0  0  0  0  0
    2.6729   -3.1702   -0.0758 C   0  0  0  0  0  0  0  0  0  0  0  0
    2.9141   -1.2043    1.9282 C   0  0  0  0  0  0  0  0  0  0  0  0
   -0.7740    2.9087    1.2650 C   0  0  0  0  0  0  0  0  0  0  0  0
    2.6794   -3.5242    1.2757 C   0  0  0  0  0  0  0  0  0  0  0  0
    2.7983   -2.5557    2.2663 C   0  0  0  0  0  0  0  0  0  0  0  0
   -2.2316    0.6540    2.0228 C   0  0  0  0  0  0  0  0  0  0  0  0
   -1.5944    2.9548    2.3924 C   0  0  0  0  0  0  0  0  0  0  0  0
   -2.3231    1.8276    2.7712 C   0  0  0  0  0  0  0  0  0  0  0  0
   -2.5065   -1.0374   -0.3761 C   0  0  0  0  0  0  0  0  0  0  0  0
   -2.8138   -2.3940   -0.2727 C   0  0  0  0  0  0  0  0  0  0  0  0
   -3.3790   -0.1731   -1.0377 C   0  0  0  0  0  0  0  0  0  0  0  0
   -3.9937   -2.8864   -0.8308 C   0  0  0  0  0  0  0  0  0  0  0  0
   -4.5589   -0.6654   -1.5955 C   0  0  0  0  0  0  0  0  0  0  0  0
   -4.8661   -2.0220   -1.4922 C   0  0  0  0  0  0  0  0  0  0  0  0
    3.6808    2.4149   -1.5618 H   0  0  0  0  0  0  0  0  0  0  0  0
    3.5749    1.4485   -3.0236 H   0  0  0  0  0  0  0  0  0  0  0  0
    1.0645    1.5736   -2.9420 H   0  0  0  0  0  0  0  0  0  0  0  0
    1.8137    3.1588   -3.0192 H   0  0  0  0  0  0  0  0  0  0  0  0
    0.1636    0.8134   -1.1168 H   0  0  0  0  0  0  0  0  0  0  0  0
    2.5793   -3.9317   -0.8438 H   0  0  0  0  0  0  0  0  0  0  0  0
    3.0056   -0.4558    2.7100 H   0  0  0  0  0  0  0  0  0  0  0  0
   -0.2442    3.8230    1.0406 H   0  0  0  0  0  0  0  0  0  0  0  0
    2.5898   -4.5709    1.5546 H   0  0  0  0  0  0  0  0  0  0  0  0
    2.8009   -2.8498    3.3123 H   0  0  0  0  0  0  0  0  0  0  0  0
   -2.7979   -0.2180    2.3392 H   0  0  0  0  0  0  0  0  0  0  0  0
   -1.6660    3.8678    2.9766 H   0  0  0  0  0  0  0  0  0  0  0  0
   -2.9597    1.8629    3.6504 H   0  0  0  0  0  0  0  0  0  0  0  0
   -2.1377   -3.0715    0.2415 H   0  0  0  0  0  0  0  0  0  0  0  0
   -3.1565    0.8845   -1.1487 H   0  0  0  0  0  0  0  0  0  0  0  0
   -4.2329   -3.9427   -0.7505 H   0  0  0  0  0  0  0  0  0  0  0  0
   -5.2365    0.0066   -2.1141 H   0  0  0  0  0  0  0  0  0  0  0  0
   -5.7842   -2.4056   -1.9275 H   0  0  0  0  0  0  0  0  0  0  0  0
  1  8  1  0  0  0  0
  1 10  1  0  0  0  0
  2 13  1  0  0  0  0
  2 22  1  0  0  0  0
  3  9  2  0  0  0  0
  4  9  1  0  0  0  0
  4 12  1  0  0  0  0
  4 32  1  0  0  0  0
  5  8  2  0  0  0  0
  5 11  1  0  0  0  0
  6  7  1  0  0  0  0
  6  8  1  0  0  0  0
  6 28  1  0  0  0  0
  6 29  1  0  0  0  0
  7  9  1  0  0  0  0
  7 30  1  0  0  0  0
  7 31  1  0  0  0  0
 10 11  1  0  0  0  0
 10 14  2  0  0  0  0
 11 15  2  0  0  0  0
 12 13  1  0  0  0  0
 12 16  2  0  0  0  0
 13 19  2  0  0  0  0
 14 17  1  0  0  0  0
 14 33  1  0  0  0  0
 15 18  1  0  0  0  0
 15 34  1  0  0  0  0
 16 20  1  0  0  0  0
 16 35  1  0  0  0  0
 17 18  2  0  0  0  0
 17 36  1  0  0  0  0
 18 37  1  0  0  0  0
 19 21  1  0  0  0  0
 19 38  1  0  0  0  0
 20 21  2  0  0  0  0
 20 39  1  0  0  0  0
 21 40  1  0  0  0  0
 22 23  2  0  0  0  0
 22 24  1  0  0  0  0
 23 25  1  0  0  0  0
 23 41  1  0  0  0  0
 24 26  2  0  0  0  0
 24 42  1  0  0  0  0
 25 27  2  0  0  0  0
 25 43  1  0  0  0  0
 26 27  1  0  0  0  0
 26 44  1  0  0  0  0
 27 45  1  0  0  0  0
M  END
> <PUBCHEM_COMPOUND_CID>
17396123

> <PUBCHEM_CONFORMER_RMSD>
1

> <PUBCHEM_CONFORMER_DIVERSEORDER>
1
61
32
45
12
88
128
15
180
82
170
114
119
7
17
97
157
31
182
184
103
100
9
161
36
26
60
137
142
20
122
68
166
59
134
190
3
55
38
192
130
95
8
14
127
150
69
85
19
111
92
58
94
196
6
116
23
81
76
133
99
40
173
109
43
132
120
67
18
144
5
105
96
186
93
123
57
53
79
74
178
49
50
155
34
64
22
187
52
33
77
11
171
125
174
72
146
65
83
24
179
28
188
44
152
21
113
29
13
2
63
139
46
73
112
156
110
167
98
90
10
158
138
118
66
115
145
189
56
195
101
104
135
35
51
183
136
129
151
124
87
175
62
176
4
84
159
165
78
148
141
89
154
30
48
102
91
126
172
194
106
80
47
39
149
16
168
37
131
147
169
107
160
121
191
54
185
163
42
140
177
164
25
181
70
27
197
71
153
162
41
75
143
108
86
198
117
193

> <PUBCHEM_MMFF94_PARTIAL_CHARGES>
41
1 -0.08
10 0.04
11 0.23
12 0.12
13 0.08
14 -0.15
15 -0.15
16 -0.15
17 -0.15
18 -0.15
19 -0.15
2 -0.17
20 -0.15
21 -0.15
22 0.08
23 -0.15
24 -0.15
25 -0.15
26 -0.15
27 -0.15
3 -0.57
32 0.37
33 0.15
34 0.15
35 0.15
36 0.15
37 0.15
38 0.15
39 0.15
4 -0.55
40 0.15
41 0.15
42 0.15
43 0.15
44 0.15
45 0.15
5 -0.57
6 0.18
7 0.06
8 0.2
9 0.57

> <PUBCHEM_EFFECTIVE_ROTOR_COUNT>
7

> <PUBCHEM_PHARMACOPHORE_FEATURES>
8
1 2 acceptor
1 3 acceptor
1 4 donor
1 5 acceptor
5 1 5 8 10 11 rings
6 10 11 14 15 17 18 rings
6 12 13 16 19 20 21 rings
6 22 23 24 25 26 27 rings

> <PUBCHEM_HEAVY_ATOM_COUNT>
27

> <PUBCHEM_ATOM_DEF_STEREO_COUNT>
0

> <PUBCHEM_ATOM_UDEF_STEREO_COUNT>
0

> <PUBCHEM_BOND_DEF_STEREO_COUNT>
0

> <PUBCHEM_BOND_UDEF_STEREO_COUNT>
0

> <PUBCHEM_ISOTOPIC_ATOM_COUNT>
0

> <PUBCHEM_COMPONENT_COUNT>
1

> <PUBCHEM_CACTVS_TAUTO_COUNT>
4

> <PUBCHEM_CONFORMER_ID>
0109719B00000001

> <PUBCHEM_MMFF94_ENERGY>
76.8383

> <PUBCHEM_FEATURE_SELFOVERLAP>
40.666

> <PUBCHEM_SHAPE_FINGERPRINT>
10721379 63 18271254807188801077
11427363 43 18055376857178452967
11578080 2 18337971059233164184
12156800 1 15680918854861271662
12403259 327 16663741555628082442
12539773 59 17904454626832622976
12553582 1 17915159438134435690
12788726 201 18114450232805191595
14068700 675 18057629718213473178
14251757 17 17844554234363245725
14468879 13 16056311705324199471
14856354 85 16764746013971982738
15403338 16 16840471535565005769
15664445 248 17896323506306027057
17138139 8 17686619048161828206
19026451 147 18043809784190108926
20600515 1 18193585408612913627
23419403 2 17685547226103981753
238 59 17488458585798388694
238918 7 15377964394342343794
3380486 77 18199763577303159907
35225 105 17096644503273141981
6438754 60 18412833464920543429

> <PUBCHEM_SHAPE_MULTIPOLES>
537.8
7.85
4.76
2.74
4.69
0.67
-0.8
-6.88
2.48
-0.45
-0.62
-0.36
1.11
-4.59

> <PUBCHEM_SHAPE_SELFOVERLAP>
1166.026

> <PUBCHEM_SHAPE_VOLUME>
293.3

> <PUBCHEM_COORDINATE_TYPE>
2
5
10

$$$$

