11954092
  -OEChem-07051213063D

 26 27  0     0  0  0  0  0  0999 V2000
    2.1418    3.1297    0.4365 Br  0  0  0  0  0  0  0  0  0  0  0  0
    1.5241    0.2270   -2.5335 Cl  0  0  0  0  0  0  0  0  0  0  0  0
   -5.3484   -1.0254   -0.1158 Cl  0  0  0  0  0  0  0  0  0  0  0  0
    0.2928    0.8830    0.2298 C   0  0  0  0  0  0  0  0  0  0  0  0
   -1.0825    0.4168    0.1459 C   0  0  0  0  0  0  0  0  0  0  0  0
    1.4745   -0.0370    0.1898 C   0  0  0  0  0  0  0  0  0  0  0  0
   -1.7812    0.0909    1.3082 C   0  0  0  0  0  0  0  0  0  0  0  0
   -1.7032    0.2967   -1.0976 C   0  0  0  0  0  0  0  0  0  0  0  0
    2.0683   -0.3689   -1.0041 C   0  0  0  0  0  0  0  0  0  0  0  0
    1.9163   -0.5163    1.4025 C   0  0  0  0  0  0  0  0  0  0  0  0
   -3.1004   -0.3550    1.2273 C   0  0  0  0  0  0  0  0  0  0  0  0
   -3.0223   -0.1494   -1.1785 C   0  0  0  0  0  0  0  0  0  0  0  0
    3.1663   -1.2290   -0.9872 C   0  0  0  0  0  0  0  0  0  0  0  0
    3.0144   -1.3762    1.4194 C   0  0  0  0  0  0  0  0  0  0  0  0
   -3.7209   -0.4754   -0.0161 C   0  0  0  0  0  0  0  0  0  0  0  0
    3.6393   -1.7326    0.2245 C   0  0  0  0  0  0  0  0  0  0  0  0
    0.5211    2.2209    0.3489 C   0  0  0  0  0  0  0  0  0  0  0  0
   -1.3133    0.1799    2.2858 H   0  0  0  0  0  0  0  0  0  0  0  0
   -1.1965    0.5668   -2.0177 H   0  0  0  0  0  0  0  0  0  0  0  0
    1.4396   -0.2459    2.3404 H   0  0  0  0  0  0  0  0  0  0  0  0
   -3.6325   -0.6051    2.1415 H   0  0  0  0  0  0  0  0  0  0  0  0
   -3.4952   -0.2327   -2.1538 H   0  0  0  0  0  0  0  0  0  0  0  0
    3.6655   -1.5168   -1.9092 H   0  0  0  0  0  0  0  0  0  0  0  0
    3.3830   -1.7680    2.3629 H   0  0  0  0  0  0  0  0  0  0  0  0
    4.4944   -2.4020    0.2377 H   0  0  0  0  0  0  0  0  0  0  0  0
   -0.3095    2.9198    0.3845 H   0  0  0  0  0  0  0  0  0  0  0  0
  1 17  1  0  0  0  0
  2  9  1  0  0  0  0
  3 15  1  0  0  0  0
  4  5  1  0  0  0  0
  4  6  1  0  0  0  0
  4 17  2  0  0  0  0
  5  7  2  0  0  0  0
  5  8  1  0  0  0  0
  6  9  1  0  0  0  0
  6 10  2  0  0  0  0
  7 11  1  0  0  0  0
  7 18  1  0  0  0  0
  8 12  2  0  0  0  0
  8 19  1  0  0  0  0
  9 13  2  0  0  0  0
 10 14  1  0  0  0  0
 10 20  1  0  0  0  0
 11 15  2  0  0  0  0
 11 21  1  0  0  0  0
 12 15  1  0  0  0  0
 12 22  1  0  0  0  0
 13 16  1  0  0  0  0
 13 23  1  0  0  0  0
 14 16  2  0  0  0  0
 14 24  1  0  0  0  0
 16 25  1  0  0  0  0
 17 26  1  0  0  0  0
M  END
> <PUBCHEM_COMPOUND_CID>
11954092

> <PUBCHEM_CONFORMER_RMSD>
0.6

> <PUBCHEM_CONFORMER_DIVERSEORDER>
1
4
2
3

> <PUBCHEM_MMFF94_PARTIAL_CHARGES>
26
1 -0.11
10 -0.15
11 -0.15
12 -0.15
13 -0.15
14 -0.15
15 0.18
16 -0.15
17 -0.04
18 0.15
19 0.15
2 -0.18
20 0.15
21 0.15
22 0.15
23 0.15
24 0.15
25 0.15
26 0.15
3 -0.18
4 -0.06
5 0.03
6 0.03
7 -0.15
8 -0.15
9 0.18

> <PUBCHEM_EFFECTIVE_ROTOR_COUNT>
2

> <PUBCHEM_PHARMACOPHORE_FEATURES>
3
1 1 hydrophobe
6 5 7 8 11 12 15 rings
6 6 9 10 13 14 16 rings

> <PUBCHEM_HEAVY_ATOM_COUNT>
17

> <PUBCHEM_ATOM_DEF_STEREO_COUNT>
0

> <PUBCHEM_ATOM_UDEF_STEREO_COUNT>
0

> <PUBCHEM_BOND_DEF_STEREO_COUNT>
1

> <PUBCHEM_BOND_UDEF_STEREO_COUNT>
0

> <PUBCHEM_ISOTOPIC_ATOM_COUNT>
0

> <PUBCHEM_COMPONENT_COUNT>
1

> <PUBCHEM_CACTVS_TAUTO_COUNT>
1

> <PUBCHEM_CONFORMER_ID>
00B667AC00000001

> <PUBCHEM_MMFF94_ENERGY>
55.0425

> <PUBCHEM_FEATURE_SELFOVERLAP>
15.223

> <PUBCHEM_SHAPE_FINGERPRINT>
11578080 2 17917163791855431036
12251169 10 15213025963611745835
12363563 72 18409449232016882819
12553582 1 18336817697283487314
12644460 14 18114734915742872089
12707595 3 18413108376654599090
13294875 104 12607403248432404300
13296908 3 18337680800941785688
13581323 91 16443061712180210467
13675066 3 16877657972847514775
14115302 16 17918268757880071531
14178342 30 17604980602062723603
15210252 30 11167943588662243351
1813 80 18041266768756432588
18186145 218 14117516537113236455
19078846 21 18336536231113099641
19862831 5 14261351366655926259
200 152 17917427674234126762
20361792 2 18335703879050862092
20369508 70 18341899575808040083
20559304 39 16805598136314497201
20645477 70 18337958887732657607
20671657 53 18412267263175946497
21524375 3 17610906686126852120
21731516 1 18336820987228221592
22112679 90 18049414201484714672
2255824 54 18261951851842807028
23402655 69 15195282066353384247
23419403 2 17699889269210090164
276578 36 9871745793428212008
3082319 5 16056594399834238763
31174 14 18339367366043264245
312423 11 18335127679709122721
3286 77 18343025480247174727
394222 165 17607251947877200737
4028521 119 13542463176768071807
465052 167 18337102389887346743
474 4 18046062649251070720
5374978 207 15430034353652357451
549884 4 14189574160793858166
7364860 26 18263082132727464280
7970288 3 18336261357238138878
81228 2 17902231453155540456
81539 233 18196373607013989708
93112 12 16271920523872306027
9981440 41 14185869760644861870

> <PUBCHEM_SHAPE_MULTIPOLES>
359.53
7.63
2.17
1.73
8.91
2.01
0.68
-4.14
-0.34
-2.78
-0.42
-0.71
-0.3
-0.11

> <PUBCHEM_SHAPE_SELFOVERLAP>
743.098

> <PUBCHEM_SHAPE_VOLUME>
208

> <PUBCHEM_COORDINATE_TYPE>
2
5
10

$$$$

