55185
  -OEChem-07051212522D

124126  0     1  0  0  0  0  0999 V2000
    5.9461    1.3651    0.0000 O   0  0  0  0  0  0  0  0  0  0  0  0
    8.1869   -0.2629    0.0000 O   0  0  0  0  0  0  0  0  0  0  0  0
    4.0069    1.0689    0.0000 O   0  0  0  0  0  0  0  0  0  0  0  0
    7.5934    1.9003    0.0000 O   0  0  0  0  0  0  0  0  0  0  0  0
    9.6869   -1.1290    0.0000 O   0  0  0  0  0  0  0  0  0  0  0  0
    7.0254   -3.5745    0.0000 O   0  0  0  0  0  0  0  0  0  0  0  0
   11.5529    1.1031    0.0000 O   0  0  0  0  0  0  0  0  0  0  0  0
    5.3281    3.2672    0.0000 O   0  0  0  0  0  0  0  0  0  0  0  0
   12.1869   -0.2629    0.0000 O   0  0  0  0  0  0  0  0  0  0  0  0
    4.9794   -5.3362    0.0000 O   0  0  0  0  0  0  0  0  0  0  0  0
    3.8533   -5.0759    0.0000 O   0  0  0  0  0  0  0  0  0  0  0  0
    8.4764   -3.0175    0.0000 O   0  0  0  0  0  0  0  0  0  0  0  0
    2.9511   -2.7085    0.0000 N   0  0  3  0  0  0  0  0  0  0  0  0
    6.6664    4.7535    0.0000 N   0  0  0  0  0  0  0  0  0  0  0  0
    5.7382    0.3869    0.0000 C   0  0  2  0  0  0  0  0  0  0  0  0
    6.6518   -0.0198    0.0000 C   0  0  3  0  0  0  0  0  0  0  0  0
    4.7382    0.3869    0.0000 C   0  0  1  0  0  0  0  0  0  0  0  0
    7.3209   -0.7629    0.0000 C   0  0  1  0  0  0  0  0  0  0  0  0
    3.8247   -0.0198    0.0000 C   0  0  0  0  0  0  0  0  0  0  0  0
    3.1555   -0.7629    0.0000 C   0  0  2  0  0  0  0  0  0  0  0  0
    7.6299   -1.7140    0.0000 C   0  0  2  0  0  0  0  0  0  0  0  0
    6.6153    2.1082    0.0000 C   0  0  2  0  0  0  0  0  0  0  0  0
    7.2396    0.7892    0.0000 C   0  0  0  0  0  0  0  0  0  0  0  0
    9.1869   -0.2629    0.0000 C   0  0  2  0  0  0  0  0  0  0  0  0
    4.7906    1.3856    0.0000 C   0  0  0  0  0  0  0  0  0  0  0  0
   10.6869    0.6031    0.0000 C   0  0  2  0  0  0  0  0  0  0  0  0
    6.3062    3.0593    0.0000 C   0  0  1  0  0  0  0  0  0  0  0  0
    2.8465   -1.7140    0.0000 C   0  0  0  0  0  0  0  0  0  0  0  0
    6.9754    3.8024    0.0000 C   0  0  2  0  0  0  0  0  0  0  0  0
    9.6869    0.6031    0.0000 C   0  0  0  0  0  0  0  0  0  0  0  0
   11.1869   -0.2629    0.0000 C   0  0  2  0  0  0  0  0  0  0  0  0
    3.4511   -3.5745    0.0000 C   0  0  1  0  0  0  0  0  0  0  0  0
    5.2382   -4.3702    0.0000 C   0  0  1  0  0  0  0  0  0  0  0  0
    7.9535    3.5945    0.0000 C   0  0  0  0  0  0  0  0  0  0  0  0
    4.2601   -4.1623    0.0000 C   0  0  2  0  0  0  0  0  0  0  0  0
   10.6869   -1.1290    0.0000 C   0  0  2  0  0  0  0  0  0  0  0  0
    8.2625    2.6435    0.0000 C   0  0  1  0  0  0  0  0  0  0  0  0
    6.2164   -4.1623    0.0000 C   0  0  1  0  0  0  0  0  0  0  0  0
    2.2895   -0.2629    0.0000 C   0  0  0  0  0  0  0  0  0  0  0  0
    7.5254   -2.7085    0.0000 C   0  0  0  0  0  0  0  0  0  0  0  0
    8.6244   -1.6095    0.0000 C   0  0  0  0  0  0  0  0  0  0  0  0
   10.6869    1.6031    0.0000 C   0  0  0  0  0  0  0  0  0  0  0  0
    2.7079   -4.2437    0.0000 C   0  0  0  0  0  0  0  0  0  0  0  0
    5.8118   -5.1894    0.0000 C   0  0  0  0  0  0  0  0  0  0  0  0
    6.6231   -5.0759    0.0000 C   0  0  0  0  0  0  0  0  0  0  0  0
    2.0000   -3.0175    0.0000 C   0  0  0  0  0  0  0  0  0  0  0  0
   11.1869   -1.9950    0.0000 C   0  0  0  0  0  0  0  0  0  0  0  0
    9.2407    2.4356    0.0000 C   0  0  0  0  0  0  0  0  0  0  0  0
    7.3355    5.4966    0.0000 C   0  0  0  0  0  0  0  0  0  0  0  0
    5.6882    4.9614    0.0000 C   0  0  0  0  0  0  0  0  0  0  0  0
    7.6176   -5.1804    0.0000 C   0  0  0  0  0  0  0  0  0  0  0  0
   12.4190    0.6031    0.0000 C   0  0  0  0  0  0  0  0  0  0  0  0
    6.2906    0.6684    0.0000 H   0  0  0  0  0  0  0  0  0  0  0  0
    7.5006    0.0247    0.0000 H   0  0  0  0  0  0  0  0  0  0  0  0
    7.4179   -0.1506    0.0000 H   0  0  0  0  0  0  0  0  0  0  0  0
    3.8030    0.5998    0.0000 H   0  0  0  0  0  0  0  0  0  0  0  0
    4.1891   -0.5214    0.0000 H   0  0  0  0  0  0  0  0  0  0  0  0
    2.5767   -0.9851    0.0000 H   0  0  0  0  0  0  0  0  0  0  0  0
    7.9676   -1.1940    0.0000 H   0  0  0  0  0  0  0  0  0  0  0  0
    6.8068    1.5186    0.0000 H   0  0  0  0  0  0  0  0  0  0  0  0
    7.7411    0.4248    0.0000 H   0  0  0  0  0  0  0  0  0  0  0  0
    7.6040    1.2908    0.0000 H   0  0  0  0  0  0  0  0  0  0  0  0
    6.7380    1.1536    0.0000 H   0  0  0  0  0  0  0  0  0  0  0  0
    8.8769   -0.7999    0.0000 H   0  0  0  0  0  0  0  0  0  0  0  0
    5.4097    1.3531    0.0000 H   0  0  0  0  0  0  0  0  0  0  0  0
    4.8230    2.0047    0.0000 H   0  0  0  0  0  0  0  0  0  0  0  0
    4.1714    1.4180    0.0000 H   0  0  0  0  0  0  0  0  0  0  0  0
    5.8914    2.5985    0.0000 H   0  0  0  0  0  0  0  0  0  0  0  0
    2.3716   -1.3155    0.0000 H   0  0  0  0  0  0  0  0  0  0  0  0
    3.4631   -1.7788    0.0000 H   0  0  0  0  0  0  0  0  0  0  0  0
    7.3902    4.2632    0.0000 H   0  0  0  0  0  0  0  0  0  0  0  0
    9.7946    1.2137    0.0000 H   0  0  0  0  0  0  0  0  0  0  0  0
    9.1043    0.8151    0.0000 H   0  0  0  0  0  0  0  0  0  0  0  0
   11.4969   -0.7999    0.0000 H   0  0  0  0  0  0  0  0  0  0  0  0
    2.8387   -3.4776    0.0000 H   0  0  0  0  0  0  0  0  0  0  0  0
    8.5675    3.6808    0.0000 H   0  0  0  0  0  0  0  0  0  0  0  0
    7.9752    4.2141    0.0000 H   0  0  0  0  0  0  0  0  0  0  0  0
    4.5416   -4.7148    0.0000 H   0  0  0  0  0  0  0  0  0  0  0  0
   10.3769   -1.6659    0.0000 H   0  0  0  0  0  0  0  0  0  0  0  0
    8.4541    2.0538    0.0000 H   0  0  0  0  0  0  0  0  0  0  0  0
    6.8152   -4.3228    0.0000 H   0  0  0  0  0  0  0  0  0  0  0  0
    3.4140    0.8877    0.0000 H   0  0  0  0  0  0  0  0  0  0  0  0
    2.5995    0.2740    0.0000 H   0  0  0  0  0  0  0  0  0  0  0  0
    1.7526    0.0471    0.0000 H   0  0  0  0  0  0  0  0  0  0  0  0
    1.9795   -0.7999    0.0000 H   0  0  0  0  0  0  0  0  0  0  0  0
    8.6892   -2.2261    0.0000 H   0  0  0  0  0  0  0  0  0  0  0  0
    9.2410   -1.5447    0.0000 H   0  0  0  0  0  0  0  0  0  0  0  0
    8.5596   -0.9929    0.0000 H   0  0  0  0  0  0  0  0  0  0  0  0
   11.3069    1.6031    0.0000 H   0  0  0  0  0  0  0  0  0  0  0  0
   10.6869    2.2231    0.0000 H   0  0  0  0  0  0  0  0  0  0  0  0
   10.0669    1.6031    0.0000 H   0  0  0  0  0  0  0  0  0  0  0  0
    2.2930   -3.7829    0.0000 H   0  0  0  0  0  0  0  0  0  0  0  0
    2.2472   -4.6585    0.0000 H   0  0  0  0  0  0  0  0  0  0  0  0
    3.1228   -4.7044    0.0000 H   0  0  0  0  0  0  0  0  0  0  0  0
    5.3039   -5.5450    0.0000 H   0  0  0  0  0  0  0  0  0  0  0  0
    6.1674   -5.6973    0.0000 H   0  0  0  0  0  0  0  0  0  0  0  0
    6.3197   -4.8338    0.0000 H   0  0  0  0  0  0  0  0  0  0  0  0
    6.0215   -5.2259    0.0000 H   0  0  0  0  0  0  0  0  0  0  0  0
    6.6664   -5.6944    0.0000 H   0  0  0  0  0  0  0  0  0  0  0  0
    1.8084   -2.4279    0.0000 H   0  0  0  0  0  0  0  0  0  0  0  0
    1.4103   -3.2091    0.0000 H   0  0  0  0  0  0  0  0  0  0  0  0
    2.1916   -3.6072    0.0000 H   0  0  0  0  0  0  0  0  0  0  0  0
   10.6500   -2.3050    0.0000 H   0  0  0  0  0  0  0  0  0  0  0  0
   11.4969   -2.5319    0.0000 H   0  0  0  0  0  0  0  0  0  0  0  0
   11.7239   -1.6850    0.0000 H   0  0  0  0  0  0  0  0  0  0  0  0
    9.1118    1.8291    0.0000 H   0  0  0  0  0  0  0  0  0  0  0  0
    9.8471    2.3066    0.0000 H   0  0  0  0  0  0  0  0  0  0  0  0
    9.3696    3.0420    0.0000 H   0  0  0  0  0  0  0  0  0  0  0  0
    5.1365    3.8569    0.0000 H   0  0  0  0  0  0  0  0  0  0  0  0
   12.4969   -0.7999    0.0000 H   0  0  0  0  0  0  0  0  0  0  0  0
    4.3805   -5.4966    0.0000 H   0  0  0  0  0  0  0  0  0  0  0  0
    3.2367   -5.1407    0.0000 H   0  0  0  0  0  0  0  0  0  0  0  0
    5.8171    5.5678    0.0000 H   0  0  0  0  0  0  0  0  0  0  0  0
    5.0818    5.0903    0.0000 H   0  0  0  0  0  0  0  0  0  0  0  0
    5.5593    4.3550    0.0000 H   0  0  0  0  0  0  0  0  0  0  0  0
    7.7962    5.0818    0.0000 H   0  0  0  0  0  0  0  0  0  0  0  0
    7.7504    5.9574    0.0000 H   0  0  0  0  0  0  0  0  0  0  0  0
    6.8747    5.9115    0.0000 H   0  0  0  0  0  0  0  0  0  0  0  0
    7.5528   -5.7970    0.0000 H   0  0  0  0  0  0  0  0  0  0  0  0
    8.2342   -5.2452    0.0000 H   0  0  0  0  0  0  0  0  0  0  0  0
    7.6824   -4.5638    0.0000 H   0  0  0  0  0  0  0  0  0  0  0  0
   12.1090    0.0661    0.0000 H   0  0  0  0  0  0  0  0  0  0  0  0
   12.9559    0.2931    0.0000 H   0  0  0  0  0  0  0  0  0  0  0  0
   12.7290    1.1400    0.0000 H   0  0  0  0  0  0  0  0  0  0  0  0
 15  1  1  6  0  0  0
 22  1  1  1  0  0  0
 18  2  1  6  0  0  0
 24  2  1  1  0  0  0
 17  3  1  1  0  0  0
  3 82  1  0  0  0  0
  4 22  1  0  0  0  0
  4 37  1  0  0  0  0
  5 24  1  0  0  0  0
  5 36  1  0  0  0  0
  6 38  1  0  0  0  0
  6 40  1  0  0  0  0
 26  7  1  1  0  0  0
  7 52  1  0  0  0  0
 27  8  1  6  0  0  0
  8109  1  0  0  0  0
 31  9  1  1  0  0  0
  9110  1  0  0  0  0
 33 10  1  1  0  0  0
 10111  1  0  0  0  0
 35 11  1  6  0  0  0
 11112  1  0  0  0  0
 12 40  2  0  0  0  0
 13 28  1  0  0  0  0
 13 32  1  0  0  0  0
 13 46  1  0  0  0  0
 29 14  1  1  0  0  0
 14 49  1  0  0  0  0
 14 50  1  0  0  0  0
 15 16  1  0  0  0  0
 15 17  1  0  0  0  0
 15 53  1  0  0  0  0
 16 18  1  0  0  0  0
 16 23  1  0  0  0  0
 16 54  1  0  0  0  0
 17 19  1  0  0  0  0
 17 25  1  0  0  0  0
 18 21  1  0  0  0  0
 18 55  1  0  0  0  0
 19 20  1  0  0  0  0
 19 56  1  0  0  0  0
 19 57  1  0  0  0  0
 20 28  1  0  0  0  0
 20 39  1  6  0  0  0
 20 58  1  0  0  0  0
 21 40  1  0  0  0  0
 21 41  1  1  0  0  0
 21 59  1  0  0  0  0
 22 27  1  0  0  0  0
 22 60  1  0  0  0  0
 23 61  1  0  0  0  0
 23 62  1  0  0  0  0
 23 63  1  0  0  0  0
 24 30  1  0  0  0  0
 24 64  1  0  0  0  0
 25 65  1  0  0  0  0
 25 66  1  0  0  0  0
 25 67  1  0  0  0  0
 26 30  1  0  0  0  0
 26 31  1  0  0  0  0
 26 42  1  0  0  0  0
 27 29  1  0  0  0  0
 27 68  1  0  0  0  0
 28 69  1  0  0  0  0
 28 70  1  0  0  0  0
 29 34  1  0  0  0  0
 29 71  1  0  0  0  0
 30 72  1  0  0  0  0
 30 73  1  0  0  0  0
 31 36  1  0  0  0  0
 31 74  1  0  0  0  0
 32 35  1  0  0  0  0
 32 43  1  1  0  0  0
 32 75  1  0  0  0  0
 33 35  1  0  0  0  0
 33 38  1  0  0  0  0
 33 44  1  0  0  0  0
 34 37  1  0  0  0  0
 34 76  1  0  0  0  0
 34 77  1  0  0  0  0
 35 78  1  0  0  0  0
 36 47  1  6  0  0  0
 36 79  1  0  0  0  0
 37 48  1  1  0  0  0
 37 80  1  0  0  0  0
 38 45  1  6  0  0  0
 38 81  1  0  0  0  0
 39 83  1  0  0  0  0
 39 84  1  0  0  0  0
 39 85  1  0  0  0  0
 41 86  1  0  0  0  0
 41 87  1  0  0  0  0
 41 88  1  0  0  0  0
 42 89  1  0  0  0  0
 42 90  1  0  0  0  0
 42 91  1  0  0  0  0
 43 92  1  0  0  0  0
 43 93  1  0  0  0  0
 43 94  1  0  0  0  0
 44 95  1  0  0  0  0
 44 96  1  0  0  0  0
 44 97  1  0  0  0  0
 45 51  1  0  0  0  0
 45 98  1  0  0  0  0
 45 99  1  0  0  0  0
 46100  1  0  0  0  0
 46101  1  0  0  0  0
 46102  1  0  0  0  0
 47103  1  0  0  0  0
 47104  1  0  0  0  0
 47105  1  0  0  0  0
 48106  1  0  0  0  0
 48107  1  0  0  0  0
 48108  1  0  0  0  0
 49116  1  0  0  0  0
 49117  1  0  0  0  0
 49118  1  0  0  0  0
 50113  1  0  0  0  0
 50114  1  0  0  0  0
 50115  1  0  0  0  0
 51119  1  0  0  0  0
 51120  1  0  0  0  0
 51121  1  0  0  0  0
 52122  1  0  0  0  0
 52123  1  0  0  0  0
 52124  1  0  0  0  0
M  END
> <PUBCHEM_COMPOUND_CID>
55185

> <PUBCHEM_COMPOUND_CANONICALIZED>
1

> <PUBCHEM_CACTVS_COMPLEXITY>
1150

> <PUBCHEM_CACTVS_HBOND_ACCEPTOR>
14

> <PUBCHEM_CACTVS_HBOND_DONOR>
5

> <PUBCHEM_CACTVS_ROTATABLE_BOND>
7

> <PUBCHEM_CACTVS_SUBSKEYS>
AAADcfB/PAAAAAAAAAAAAAAAAAAAAAAAAAAkSAAAAAAAAAAAAAAAHgAACAAADXzxgAcCCAMABgAIAACQCAAAAAAAAAAAAAEIAAATEBYAgAAmQAAHIACXAAH4/P7OAAAAAAAAAAAAAAAAAAAAAAAAAAAAAA==

> <PUBCHEM_IUPAC_OPENEYE_NAME>
(2R,3S,4R,5R,8R,10R,11R,13S,14R)-11-[(2S,3R,4S,6R)-4-(dimethylamino)-3-hydroxy-6-methyl-tetrahydropyran-2-yl]oxy-2-ethyl-3,4,10-trihydroxy-13-[(2R,4R,5S,6S)-5-hydroxy-4-methoxy-4,6-dimethyl-tetrahydropyran-2-yl]oxy-3,5,6,8,10,12,14-heptamethyl-1-oxa-6-azacyclopentadecan-15-one

> <PUBCHEM_IUPAC_CAS_NAME>
(2R,3S,4R,5R,8R,10R,11R,13S,14R)-11-[[(2S,3R,4S,6R)-4-(dimethylamino)-3-hydroxy-6-methyl-2-oxanyl]oxy]-2-ethyl-3,4,10-trihydroxy-13-[[(2R,4R,5S,6S)-5-hydroxy-4-methoxy-4,6-dimethyl-2-oxanyl]oxy]-3,5,6,8,10,12,14-heptamethyl-1-oxa-6-azacyclopentadecan-15-one

> <PUBCHEM_IUPAC_NAME>
(2R,3S,4R,5R,8R,10R,11R,13S,14R)-11-[(2S,3R,4S,6R)-4-(dimethylamino)-3-hydroxy-6-methyloxan-2-yl]oxy-2-ethyl-3,4,10-trihydroxy-13-[(2R,4R,5S,6S)-5-hydroxy-4-methoxy-4,6-dimethyloxan-2-yl]oxy-3,5,6,8,10,12,14-heptamethyl-1-oxa-6-azacyclopentadecan-15-one

> <PUBCHEM_IUPAC_SYSTEMATIC_NAME>
(2R,3S,4R,5R,8R,10R,11R,13S,14R)-11-[(2S,3R,4S,6R)-4-(dimethylamino)-6-methyl-3-oxidanyl-oxan-2-yl]oxy-2-ethyl-13-[(2R,4R,5S,6S)-4-methoxy-4,6-dimethyl-5-oxidanyl-oxan-2-yl]oxy-3,5,6,8,10,12,14-heptamethyl-3,4,10-tris(oxidanyl)-1-oxa-6-azacyclopentadecan-15-one

> <PUBCHEM_IUPAC_TRADITIONAL_NAME>
(2R,3S,4R,5R,8R,10R,11R,13S,14R)-11-[(2S,3R,4S,6R)-4-(dimethylamino)-3-hydroxy-6-methyl-tetrahydropyran-2-yl]oxy-2-ethyl-3,4,10-trihydroxy-13-[(2R,4R,5S,6S)-5-hydroxy-4-methoxy-4,6-dimethyl-tetrahydropyran-2-yl]oxy-3,5,6,8,10,12,14-heptamethyl-1-oxa-6-azacyclopentadecan-15-one

> <PUBCHEM_IUPAC_INCHI>
InChI=1S/C38H72N2O12/c1-15-27-38(10,46)31(42)24(6)40(13)19-20(2)17-36(8,45)33(52-35-29(41)26(39(11)12)16-21(3)48-35)22(4)30(23(5)34(44)50-27)51-28-18-37(9,47-14)32(43)25(7)49-28/h20-33,35,41-43,45-46H,15-19H2,1-14H3/t20-,21-,22?,23-,24-,25+,26+,27-,28+,29-,30+,31-,32+,33-,35+,36-,37-,38-/m1/s1

> <PUBCHEM_IUPAC_INCHIKEY>
MQTOSJVFKKJCRP-OHJWJPDZSA-N

> <PUBCHEM_XLOGP3>
4

> <PUBCHEM_EXACT_MASS>
748.508526

> <PUBCHEM_MOLECULAR_FORMULA>
C38H72N2O12

> <PUBCHEM_MOLECULAR_WEIGHT>
748.98448

> <PUBCHEM_OPENEYE_CAN_SMILES>
CCC1C(C(C(N(CC(CC(C(C(C(C(C(=O)O1)C)OC2CC(C(C(O2)C)O)(C)OC)C)OC3C(C(CC(O3)C)N(C)C)O)(C)O)C)C)C)O)(C)O

> <PUBCHEM_OPENEYE_ISO_SMILES>
CC[C@@H]1[C@@]([C@@H]([C@H](N(C[C@@H](C[C@@]([C@@H](C([C@@H]([C@H](C(=O)O1)C)O[C@H]2C[C@@]([C@H]([C@@H](O2)C)O)(C)OC)C)O[C@H]3[C@@H]([C@H](C[C@H](O3)C)N(C)C)O)(C)O)C)C)C)O)(C)O

> <PUBCHEM_CACTVS_TPSA>
180

> <PUBCHEM_MONOISOTOPIC_WEIGHT>
748.508526

> <PUBCHEM_TOTAL_CHARGE>
0

> <PUBCHEM_HEAVY_ATOM_COUNT>
52

> <PUBCHEM_ATOM_DEF_STEREO_COUNT>
17

> <PUBCHEM_ATOM_UDEF_STEREO_COUNT>
1

> <PUBCHEM_BOND_DEF_STEREO_COUNT>
0

> <PUBCHEM_BOND_UDEF_STEREO_COUNT>
0

> <PUBCHEM_ISOTOPIC_ATOM_COUNT>
0

> <PUBCHEM_COMPONENT_COUNT>
1

> <PUBCHEM_CACTVS_TAUTO_COUNT>
2

> <PUBCHEM_COORDINATE_TYPE>
1
5
255

> <PUBCHEM_BONDANNOTATIONS>
15  1  6
22  1  5
33  10  5
35  11  6
29  14  5
16  54  3
18  2  6
24  2  5
20  39  6
21  41  5
17  3  5
32  43  5
36  47  6
37  48  5
38  45  6
26  7  5
27  8  6
31  9  5

$$$$

