23724626
  -OEChem-07051213082D

 58 59  0     1  0  0  0  0  0999 V2000
    6.2177    1.5480    0.0000 S   0  0  0  0  0  0  0  0  0  0  0  0
    9.8823    2.0910    0.0000 P   0  0  3  0  0  0  0  0  0  0  0  0
   11.4646    2.7955    0.0000 P   0  0  0  0  0  0  0  0  0  0  0  0
    3.5453    1.7002    0.0000 O   0  0  0  0  0  0  0  0  0  0  0  0
    9.2945    1.2820    0.0000 O   0  0  0  0  0  0  0  0  0  0  0  0
   10.4701    2.9000    0.0000 O   0  0  0  0  0  0  0  0  0  0  0  0
   10.6913    1.5032    0.0000 O   0  0  0  0  0  0  0  0  0  0  0  0
    9.0733    2.6788    0.0000 O   0  0  0  0  0  0  0  0  0  0  0  0
   12.4591    2.6909    0.0000 O   0  0  0  0  0  0  0  0  0  0  0  0
   11.5691    3.7900    0.0000 O   0  0  0  0  0  0  0  0  0  0  0  0
   11.3601    1.8009    0.0000 O   0  0  0  0  0  0  0  0  0  0  0  0
    5.1350    0.3456    0.0000 N   0  3  0  0  0  0  0  0  0  0  0  0
    3.4030   -2.6544    0.0000 N   0  0  0  0  0  0  0  0  0  0  0  0
    5.1350   -2.6544    0.0000 N   0  0  0  0  0  0  0  0  0  0  0  0
    2.5369   -1.1544    0.0000 N   0  0  0  0  0  0  0  0  0  0  0  0
    4.4964    2.0092    0.0000 C   0  0  3  0  0  0  0  0  0  0  0  0
    5.2395    1.3401    0.0000 C   0  0  0  0  0  0  0  0  0  0  0  0
    4.7043    2.9874    0.0000 C   0  0  0  0  0  0  0  0  0  0  0  0
    6.0486   -0.0611    0.0000 C   0  0  0  0  0  0  0  0  0  0  0  0
    6.7177    0.6820    0.0000 C   0  0  0  0  0  0  0  0  0  0  0  0
    4.2690   -0.1544    0.0000 C   0  0  0  0  0  0  0  0  0  0  0  0
    7.7122    0.5775    0.0000 C   0  0  0  0  0  0  0  0  0  0  0  0
    3.9612    3.6565    0.0000 C   0  0  0  0  0  0  0  0  0  0  0  0
    5.6554    3.2964    0.0000 C   0  0  0  0  0  0  0  0  0  0  0  0
    6.2565   -1.0393    0.0000 C   0  0  0  0  0  0  0  0  0  0  0  0
    4.2690   -1.1544    0.0000 C   0  0  0  0  0  0  0  0  0  0  0  0
    8.3000    1.3865    0.0000 C   0  0  0  0  0  0  0  0  0  0  0  0
    3.4030   -1.6544    0.0000 C   0  0  0  0  0  0  0  0  0  0  0  0
    5.1350   -1.6544    0.0000 C   0  0  0  0  0  0  0  0  0  0  0  0
    4.2690   -3.1544    0.0000 C   0  0  0  0  0  0  0  0  0  0  0  0
    4.2690   -4.1544    0.0000 C   0  0  0  0  0  0  0  0  0  0  0  0
    4.3675    1.4028    0.0000 H   0  0  0  0  0  0  0  0  0  0  0  0
    4.1146    2.7958    0.0000 H   0  0  0  0  0  0  0  0  0  0  0  0
    4.0569    0.4282    0.0000 H   0  0  0  0  0  0  0  0  0  0  0  0
    3.6584   -0.2621    0.0000 H   0  0  0  0  0  0  0  0  0  0  0  0
    7.5413   -0.0185    0.0000 H   0  0  0  0  0  0  0  0  0  0  0  0
    8.2695    0.3057    0.0000 H   0  0  0  0  0  0  0  0  0  0  0  0
    5.8470    2.7068    0.0000 H   0  0  0  0  0  0  0  0  0  0  0  0
    6.2450    3.4880    0.0000 H   0  0  0  0  0  0  0  0  0  0  0  0
    5.4638    3.8861    0.0000 H   0  0  0  0  0  0  0  0  0  0  0  0
    4.3760    4.1173    0.0000 H   0  0  0  0  0  0  0  0  0  0  0  0
    3.5004    4.0714    0.0000 H   0  0  0  0  0  0  0  0  0  0  0  0
    3.5463    3.1958    0.0000 H   0  0  0  0  0  0  0  0  0  0  0  0
    5.6500   -1.1682    0.0000 H   0  0  0  0  0  0  0  0  0  0  0  0
    6.3854   -1.6458    0.0000 H   0  0  0  0  0  0  0  0  0  0  0  0
    6.8629   -0.9104    0.0000 H   0  0  0  0  0  0  0  0  0  0  0  0
    8.4709    1.9825    0.0000 H   0  0  0  0  0  0  0  0  0  0  0  0
    7.7427    1.6583    0.0000 H   0  0  0  0  0  0  0  0  0  0  0  0
    3.0846    2.1151    0.0000 H   0  0  0  0  0  0  0  0  0  0  0  0
    5.6720   -1.3444    0.0000 H   0  0  0  0  0  0  0  0  0  0  0  0
    2.0000   -1.4644    0.0000 H   0  0  0  0  0  0  0  0  0  0  0  0
    2.5369   -0.5344    0.0000 H   0  0  0  0  0  0  0  0  0  0  0  0
    3.6490   -4.1544    0.0000 H   0  0  0  0  0  0  0  0  0  0  0  0
    4.2690   -4.7744    0.0000 H   0  0  0  0  0  0  0  0  0  0  0  0
    4.8890   -4.1544    0.0000 H   0  0  0  0  0  0  0  0  0  0  0  0
   10.6265    0.8866    0.0000 H   0  0  0  0  0  0  0  0  0  0  0  0
   12.8236    3.1925    0.0000 H   0  0  0  0  0  0  0  0  0  0  0  0
   11.0675    4.1544    0.0000 H   0  0  0  0  0  0  0  0  0  0  0  0
  1 17  1  0  0  0  0
  1 20  1  0  0  0  0
  2  5  1  0  0  0  0
  2  6  1  0  0  0  0
  2  7  1  0  0  0  0
  2  8  2  0  0  0  0
  3  6  1  0  0  0  0
  3  9  1  0  0  0  0
  3 10  1  0  0  0  0
  3 11  2  0  0  0  0
  4 16  1  0  0  0  0
  4 49  1  0  0  0  0
  5 27  1  0  0  0  0
  7 56  1  0  0  0  0
  9 57  1  0  0  0  0
 10 58  1  0  0  0  0
 12 17  2  0  0  0  0
 12 19  1  0  0  0  0
 12 21  1  0  0  0  0
 13 28  2  0  0  0  0
 13 30  1  0  0  0  0
 14 29  1  0  0  0  0
 14 30  2  0  0  0  0
 15 28  1  0  0  0  0
 15 51  1  0  0  0  0
 15 52  1  0  0  0  0
 16 17  1  0  0  0  0
 16 18  1  0  0  0  0
 16 32  1  0  0  0  0
 18 23  1  0  0  0  0
 18 24  1  0  0  0  0
 18 33  1  0  0  0  0
 19 20  2  0  0  0  0
 19 25  1  0  0  0  0
 20 22  1  0  0  0  0
 21 26  1  0  0  0  0
 21 34  1  0  0  0  0
 21 35  1  0  0  0  0
 22 27  1  0  0  0  0
 22 36  1  0  0  0  0
 22 37  1  0  0  0  0
 23 41  1  0  0  0  0
 23 42  1  0  0  0  0
 23 43  1  0  0  0  0
 24 38  1  0  0  0  0
 24 39  1  0  0  0  0
 24 40  1  0  0  0  0
 25 44  1  0  0  0  0
 25 45  1  0  0  0  0
 25 46  1  0  0  0  0
 26 28  1  0  0  0  0
 26 29  2  0  0  0  0
 27 47  1  0  0  0  0
 27 48  1  0  0  0  0
 29 50  1  0  0  0  0
 30 31  1  0  0  0  0
 31 53  1  0  0  0  0
 31 54  1  0  0  0  0
 31 55  1  0  0  0  0
M  CHG  1  12   1
M  END
> <PUBCHEM_COMPOUND_CID>
23724626

> <PUBCHEM_COMPOUND_CANONICALIZED>
1

> <PUBCHEM_CACTVS_COMPLEXITY>
686

> <PUBCHEM_CACTVS_HBOND_ACCEPTOR>
12

> <PUBCHEM_CACTVS_HBOND_DONOR>
5

> <PUBCHEM_CACTVS_ROTATABLE_BOND>
10

> <PUBCHEM_CACTVS_SUBSKEYS>
AAADceB7vANAAAAAAAAAAAAAAAAAAWAAAAAsAAAAAAAAAAAB4AAAHgQQCCAADRzh3wYvsZdMExikQxZnZISA8KlxCLgBWDQ4RBiCOIJgyUAERAgsQAP4SCKgAAAIAAAAAAAAAAAAAAAAAAAAAAAAAAAAAA==

> <PUBCHEM_IUPAC_OPENEYE_NAME>
2-[3-[(4-amino-2-methyl-pyrimidin-5-yl)methyl]-2-(1-hydroxy-2-methyl-propyl)-4-methyl-thiazol-3-ium-5-yl]ethyl phosphono hydrogen phosphate

> <PUBCHEM_IUPAC_CAS_NAME>
2-[3-[(4-amino-2-methyl-5-pyrimidinyl)methyl]-2-(1-hydroxy-2-methylpropyl)-4-methyl-5-thiazol-3-iumyl]ethyl phosphono hydrogen phosphate

> <PUBCHEM_IUPAC_NAME>
2-[3-[(4-amino-2-methylpyrimidin-5-yl)methyl]-2-(1-hydroxy-2-methylpropyl)-4-methyl-1,3-thiazol-3-ium-5-yl]ethyl phosphono hydrogen phosphate

> <PUBCHEM_IUPAC_SYSTEMATIC_NAME>
2-[3-[(4-azanyl-2-methyl-pyrimidin-5-yl)methyl]-4-methyl-2-(2-methyl-1-oxidanyl-propyl)-1,3-thiazol-3-ium-5-yl]ethyl phosphono hydrogen phosphate

> <PUBCHEM_IUPAC_TRADITIONAL_NAME>
2-[3-[(4-amino-2-methyl-pyrimidin-5-yl)methyl]-2-(1-hydroxy-2-methyl-propyl)-4-methyl-thiazol-3-ium-5-yl]ethyl phosphono hydrogen phosphate

> <PUBCHEM_IUPAC_INCHI>
InChI=1S/C16H26N4O8P2S/c1-9(2)14(21)16-20(8-12-7-18-11(4)19-15(12)17)10(3)13(31-16)5-6-27-30(25,26)28-29(22,23)24/h7,9,14,21H,5-6,8H2,1-4H3,(H4-,17,18,19,22,23,24,25,26)/p+1

> <PUBCHEM_IUPAC_INCHIKEY>
SSYCSHKTIOHFEZ-UHFFFAOYSA-O

> <PUBCHEM_XLOGP3_AA>
-0.7

> <PUBCHEM_EXACT_MASS>
497.102483

> <PUBCHEM_MOLECULAR_FORMULA>
C16H27N4O8P2S+

> <PUBCHEM_MOLECULAR_WEIGHT>
497.420104

> <PUBCHEM_OPENEYE_CAN_SMILES>
CC1=C(SC(=[N+]1CC2=CN=C(N=C2N)C)C(C(C)C)O)CCOP(=O)(O)OP(=O)(O)O

> <PUBCHEM_OPENEYE_ISO_SMILES>
CC1=C(SC(=[N+]1CC2=CN=C(N=C2N)C)C(C(C)C)O)CCOP(=O)(O)OP(=O)(O)O

> <PUBCHEM_CACTVS_TPSA>
217

> <PUBCHEM_MONOISOTOPIC_WEIGHT>
497.102483

> <PUBCHEM_TOTAL_CHARGE>
1

> <PUBCHEM_HEAVY_ATOM_COUNT>
31

> <PUBCHEM_ATOM_DEF_STEREO_COUNT>
0

> <PUBCHEM_ATOM_UDEF_STEREO_COUNT>
1

> <PUBCHEM_BOND_DEF_STEREO_COUNT>
0

> <PUBCHEM_BOND_UDEF_STEREO_COUNT>
0

> <PUBCHEM_ISOTOPIC_ATOM_COUNT>
0

> <PUBCHEM_COMPONENT_COUNT>
1

> <PUBCHEM_CACTVS_TAUTO_COUNT>
3

> <PUBCHEM_COORDINATE_TYPE>
1
5
255

> <PUBCHEM_BONDANNOTATIONS>
1  17  8
1  20  8
12  17  8
12  19  8
13  28  8
13  30  8
14  29  8
14  30  8
19  20  8
26  28  8
26  29  8
16  4  3

$$$$

