5283996
  -OEChem-07051213072D

 65 68  0     1  0  0  0  0  0999 V2000
    6.5271    1.4774    0.0000 O   0  0  0  0  0  0  0  0  0  0  0  0
    7.4149   -3.0540    0.0000 O   0  0  0  0  0  0  0  0  0  0  0  0
    2.0000   -3.0749    0.0000 O   0  0  0  0  0  0  0  0  0  0  0  0
   11.2283    3.5462    0.0000 O   0  0  0  0  0  0  0  0  0  0  0  0
   11.5855    1.8513    0.0000 O   0  0  0  0  0  0  0  0  0  0  0  0
    7.3931   -0.0226    0.0000 C   0  0  1  0  0  0  0  0  0  0  0  0
    7.3931   -1.0226    0.0000 C   0  0  2  0  0  0  0  0  0  0  0  0
    6.5271   -1.5226    0.0000 C   0  0  1  0  0  0  0  0  0  0  0  0
    5.6610   -1.0226    0.0000 C   0  0  1  0  0  0  0  0  0  0  0  0
    8.3393    0.2821    0.0000 C   0  0  2  0  0  0  0  0  0  0  0  0
    6.5271    0.4774    0.0000 C   0  0  2  0  0  0  0  0  0  0  0  0
    8.3393   -1.3273    0.0000 C   0  0  0  0  0  0  0  0  0  0  0  0
    4.7510   -1.5294    0.0000 C   0  0  2  0  0  0  0  0  0  0  0  0
    5.6610   -0.0226    0.0000 C   0  0  0  0  0  0  0  0  0  0  0  0
    8.9229   -0.5226    0.0000 C   0  0  0  0  0  0  0  0  0  0  0  0
    6.5431   -2.5641    0.0000 C   0  0  1  0  0  0  0  0  0  0  0  0
    7.3931    0.9774    0.0000 C   0  0  0  0  0  0  0  0  0  0  0  0
    8.6500    1.2327    0.0000 C   0  0  1  0  0  0  0  0  0  0  0  0
    4.7430   -2.5710    0.0000 C   0  0  0  0  0  0  0  0  0  0  0  0
    5.6451   -3.0918    0.0000 C   0  0  0  0  0  0  0  0  0  0  0  0
    3.8242   -0.9653    0.0000 C   0  0  0  0  0  0  0  0  0  0  0  0
    4.7587   -0.5295    0.0000 C   0  0  0  0  0  0  0  0  0  0  0  0
    9.6285    1.4389    0.0000 C   0  0  0  0  0  0  0  0  0  0  0  0
    2.8763   -1.4933    0.0000 C   0  0  0  0  0  0  0  0  0  0  0  0
    7.9821    1.9770    0.0000 C   0  0  0  0  0  0  0  0  0  0  0  0
    3.8076   -3.1208    0.0000 C   0  0  0  0  0  0  0  0  0  0  0  0
    2.8680   -2.5783    0.0000 C   0  0  0  0  0  0  0  0  0  0  0  0
    9.9391    2.3894    0.0000 C   0  0  0  0  0  0  0  0  0  0  0  0
   10.9176    2.5956    0.0000 C   0  0  0  0  0  0  0  0  0  0  0  0
    7.4830   -1.8678    0.0000 H   0  0  0  0  0  0  0  0  0  0  0  0
    7.2664   -1.9419    0.0000 H   0  0  0  0  0  0  0  0  0  0  0  0
    6.3972   -0.5976    0.0000 H   0  0  0  0  0  0  0  0  0  0  0  0
    9.1790    0.4140    0.0000 H   0  0  0  0  0  0  0  0  0  0  0  0
    7.0640    0.7874    0.0000 H   0  0  0  0  0  0  0  0  0  0  0  0
    8.0883   -1.8942    0.0000 H   0  0  0  0  0  0  0  0  0  0  0  0
    8.8767   -1.6365    0.0000 H   0  0  0  0  0  0  0  0  0  0  0  0
    5.4490    0.5600    0.0000 H   0  0  0  0  0  0  0  0  0  0  0  0
    5.0504   -0.1302    0.0000 H   0  0  0  0  0  0  0  0  0  0  0  0
    9.3838   -0.9373    0.0000 H   0  0  0  0  0  0  0  0  0  0  0  0
    9.3838   -0.1079    0.0000 H   0  0  0  0  0  0  0  0  0  0  0  0
    6.5491   -3.1841    0.0000 H   0  0  0  0  0  0  0  0  0  0  0  0
    8.0131    0.9774    0.0000 H   0  0  0  0  0  0  0  0  0  0  0  0
    7.3931    1.5974    0.0000 H   0  0  0  0  0  0  0  0  0  0  0  0
    6.7731    0.9774    0.0000 H   0  0  0  0  0  0  0  0  0  0  0  0
    8.0433    1.1048    0.0000 H   0  0  0  0  0  0  0  0  0  0  0  0
    5.2478   -3.5678    0.0000 H   0  0  0  0  0  0  0  0  0  0  0  0
    6.0460   -3.5647    0.0000 H   0  0  0  0  0  0  0  0  0  0  0  0
    4.2324   -0.4987    0.0000 H   0  0  0  0  0  0  0  0  0  0  0  0
    3.4343   -0.4833    0.0000 H   0  0  0  0  0  0  0  0  0  0  0  0
    5.3787   -0.5342    0.0000 H   0  0  0  0  0  0  0  0  0  0  0  0
    4.7635    0.0905    0.0000 H   0  0  0  0  0  0  0  0  0  0  0  0
    4.1388   -0.5247    0.0000 H   0  0  0  0  0  0  0  0  0  0  0  0
    5.9901    1.7874    0.0000 H   0  0  0  0  0  0  0  0  0  0  0  0
    9.6490    0.8192    0.0000 H   0  0  0  0  0  0  0  0  0  0  0  0
   10.2423    1.3515    0.0000 H   0  0  0  0  0  0  0  0  0  0  0  0
    2.6718   -0.9080    0.0000 H   0  0  0  0  0  0  0  0  0  0  0  0
    2.2647   -1.5947    0.0000 H   0  0  0  0  0  0  0  0  0  0  0  0
    8.4436    2.3910    0.0000 H   0  0  0  0  0  0  0  0  0  0  0  0
    7.5681    2.4384    0.0000 H   0  0  0  0  0  0  0  0  0  0  0  0
    7.5207    1.5629    0.0000 H   0  0  0  0  0  0  0  0  0  0  0  0
    3.8100   -3.7408    0.0000 H   0  0  0  0  0  0  0  0  0  0  0  0
    7.4220   -3.6740    0.0000 H   0  0  0  0  0  0  0  0  0  0  0  0
    9.9186    3.0091    0.0000 H   0  0  0  0  0  0  0  0  0  0  0  0
    9.3253    2.4768    0.0000 H   0  0  0  0  0  0  0  0  0  0  0  0
   11.8350    3.6740    0.0000 H   0  0  0  0  0  0  0  0  0  0  0  0
 11  1  1  6  0  0  0
  1 53  1  0  0  0  0
 16  2  1  6  0  0  0
  2 62  1  0  0  0  0
  3 27  2  0  0  0  0
  4 29  1  0  0  0  0
  4 65  1  0  0  0  0
  5 29  2  0  0  0  0
  6  7  1  0  0  0  0
  6 10  1  0  0  0  0
  6 11  1  0  0  0  0
  6 17  1  1  0  0  0
  7  8  1  0  0  0  0
  7 12  1  0  0  0  0
  7 30  1  6  0  0  0
  8  9  1  0  0  0  0
  8 16  1  0  0  0  0
  8 31  1  1  0  0  0
  9 13  1  0  0  0  0
  9 14  1  0  0  0  0
  9 32  1  6  0  0  0
 10 15  1  0  0  0  0
 10 18  1  0  0  0  0
 10 33  1  6  0  0  0
 11 14  1  0  0  0  0
 11 34  1  0  0  0  0
 12 15  1  0  0  0  0
 12 35  1  0  0  0  0
 12 36  1  0  0  0  0
 13 19  1  0  0  0  0
 13 21  1  0  0  0  0
 13 22  1  1  0  0  0
 14 37  1  0  0  0  0
 14 38  1  0  0  0  0
 15 39  1  0  0  0  0
 15 40  1  0  0  0  0
 16 20  1  0  0  0  0
 16 41  1  0  0  0  0
 17 42  1  0  0  0  0
 17 43  1  0  0  0  0
 17 44  1  0  0  0  0
 18 23  1  0  0  0  0
 18 25  1  6  0  0  0
 18 45  1  0  0  0  0
 19 20  1  0  0  0  0
 19 26  2  0  0  0  0
 20 46  1  0  0  0  0
 20 47  1  0  0  0  0
 21 24  1  0  0  0  0
 21 48  1  0  0  0  0
 21 49  1  0  0  0  0
 22 50  1  0  0  0  0
 22 51  1  0  0  0  0
 22 52  1  0  0  0  0
 23 28  1  0  0  0  0
 23 54  1  0  0  0  0
 23 55  1  0  0  0  0
 24 27  1  0  0  0  0
 24 56  1  0  0  0  0
 24 57  1  0  0  0  0
 25 58  1  0  0  0  0
 25 59  1  0  0  0  0
 25 60  1  0  0  0  0
 26 27  1  0  0  0  0
 26 61  1  0  0  0  0
 28 29  1  0  0  0  0
 28 63  1  0  0  0  0
 28 64  1  0  0  0  0
M  END
> <PUBCHEM_COMPOUND_CID>
5283996

> <PUBCHEM_COMPOUND_CANONICALIZED>
1

> <PUBCHEM_CACTVS_COMPLEXITY>
729

> <PUBCHEM_CACTVS_HBOND_ACCEPTOR>
5

> <PUBCHEM_CACTVS_HBOND_DONOR>
3

> <PUBCHEM_CACTVS_ROTATABLE_BOND>
4

> <PUBCHEM_CACTVS_SUBSKEYS>
AAADcfB4OAAAAAAAAAAAAAAAAAAAAYAAAAAwYIAAAAAAAGDAAAAAGgAACAAADxSggAICCAAAAgCIAqDSCAAAAAAgAAAACAEAAEgAEBIAAQAAQAAEwAAIAQOI6PSPgAAAAAAAAADAAAYAADAAAQAACAAAAA==

> <PUBCHEM_IUPAC_OPENEYE_NAME>
(4R)-4-[(7R,8R,9S,10R,12S,13R,14S,17R)-7,12-dihydroxy-10,13-dimethyl-3-oxo-1,2,6,7,8,9,11,12,14,15,16,17-dodecahydrocyclopenta[a]phenanthren-17-yl]pentanoic acid

> <PUBCHEM_IUPAC_CAS_NAME>
(4R)-4-[(7R,8R,9S,10R,12S,13R,14S,17R)-7,12-dihydroxy-10,13-dimethyl-3-oxo-1,2,6,7,8,9,11,12,14,15,16,17-dodecahydrocyclopenta[a]phenanthren-17-yl]pentanoic acid

> <PUBCHEM_IUPAC_NAME>
(4R)-4-[(7R,8R,9S,10R,12S,13R,14S,17R)-7,12-dihydroxy-10,13-dimethyl-3-oxo-1,2,6,7,8,9,11,12,14,15,16,17-dodecahydrocyclopenta[a]phenanthren-17-yl]pentanoic acid

> <PUBCHEM_IUPAC_SYSTEMATIC_NAME>
(4R)-4-[(7R,8R,9S,10R,12S,13R,14S,17R)-10,13-dimethyl-7,12-bis(oxidanyl)-3-oxidanylidene-1,2,6,7,8,9,11,12,14,15,16,17-dodecahydrocyclopenta[a]phenanthren-17-yl]pentanoic acid

> <PUBCHEM_IUPAC_TRADITIONAL_NAME>
(4R)-4-[(7R,8R,9S,10R,12S,13R,14S,17R)-7,12-dihydroxy-3-keto-10,13-dimethyl-1,2,6,7,8,9,11,12,14,15,16,17-dodecahydrocyclopenta[a]phenanthren-17-yl]valeric acid

> <PUBCHEM_IUPAC_INCHI>
InChI=1S/C24H36O5/c1-13(4-7-21(28)29)16-5-6-17-22-18(12-20(27)24(16,17)3)23(2)9-8-15(25)10-14(23)11-19(22)26/h10,13,16-20,22,26-27H,4-9,11-12H2,1-3H3,(H,28,29)/t13-,16-,17+,18+,19-,20+,22+,23+,24-/m1/s1

> <PUBCHEM_IUPAC_INCHIKEY>
ZZUMXQCSMJCDDC-DFQOQHGMSA-N

> <PUBCHEM_XLOGP3_AA>
2.9

> <PUBCHEM_EXACT_MASS>
404.256274

> <PUBCHEM_MOLECULAR_FORMULA>
C24H36O5

> <PUBCHEM_MOLECULAR_WEIGHT>
404.53964

> <PUBCHEM_OPENEYE_CAN_SMILES>
CC(CCC(=O)O)C1CCC2C1(C(CC3C2C(CC4=CC(=O)CCC34C)O)O)C

> <PUBCHEM_OPENEYE_ISO_SMILES>
C[C@H](CCC(=O)O)[C@H]1CC[C@@H]2[C@@]1([C@H](C[C@H]3[C@H]2[C@@H](CC4=CC(=O)CC[C@]34C)O)O)C

> <PUBCHEM_CACTVS_TPSA>
94.8

> <PUBCHEM_MONOISOTOPIC_WEIGHT>
404.256274

> <PUBCHEM_TOTAL_CHARGE>
0

> <PUBCHEM_HEAVY_ATOM_COUNT>
29

> <PUBCHEM_ATOM_DEF_STEREO_COUNT>
9

> <PUBCHEM_ATOM_UDEF_STEREO_COUNT>
0

> <PUBCHEM_BOND_DEF_STEREO_COUNT>
0

> <PUBCHEM_BOND_UDEF_STEREO_COUNT>
0

> <PUBCHEM_ISOTOPIC_ATOM_COUNT>
0

> <PUBCHEM_COMPONENT_COUNT>
1

> <PUBCHEM_CACTVS_TAUTO_COUNT>
5

> <PUBCHEM_COORDINATE_TYPE>
1
5
255

> <PUBCHEM_BONDANNOTATIONS>
11  1  6
10  33  6
13  22  5
18  25  6
16  2  6
6  17  5
7  30  6
8  31  5
9  32  6

$$$$

