440659
  -OEChem-07051212502D

 43 44  0     1  0  0  0  0  0999 V2000
    4.2690    0.6550    0.0000 O   0  0  0  0  0  0  0  0  0  0  0  0
    5.1350   -1.8450    0.0000 O   0  0  0  0  0  0  0  0  0  0  0  0
    6.0010    0.6550    0.0000 O   0  0  0  0  0  0  0  0  0  0  0  0
    2.5369   -0.3450    0.0000 O   0  0  0  0  0  0  0  0  0  0  0  0
    2.5369   -2.3450    0.0000 O   0  0  0  0  0  0  0  0  0  0  0  0
    4.2690   -3.3450    0.0000 O   0  0  0  0  0  0  0  0  0  0  0  0
    4.2690    2.6550    0.0000 O   0  0  0  0  0  0  0  0  0  0  0  0
    6.8671   -0.8450    0.0000 O   0  0  0  0  0  0  0  0  0  0  0  0
    7.7331    2.6550    0.0000 O   0  0  0  0  0  0  0  0  0  0  0  0
    6.0010    3.6550    0.0000 O   0  0  0  0  0  0  0  0  0  0  0  0
    7.7331   -0.3450    0.0000 O   0  0  0  0  0  0  0  0  0  0  0  0
    4.2690   -0.3450    0.0000 C   0  0  1  0  0  0  0  0  0  0  0  0
    3.4030   -0.8450    0.0000 C   0  0  1  0  0  0  0  0  0  0  0  0
    5.1350   -0.8450    0.0000 C   0  0  1  0  0  0  0  0  0  0  0  0
    3.4030   -1.8450    0.0000 C   0  0  2  0  0  0  0  0  0  0  0  0
    5.1350    1.1550    0.0000 C   0  0  2  0  0  0  0  0  0  0  0  0
    4.2690   -2.3450    0.0000 C   0  0  3  0  0  0  0  0  0  0  0  0
    5.1350    2.1550    0.0000 C   0  0  1  0  0  0  0  0  0  0  0  0
    6.8671    1.1550    0.0000 C   0  0  1  0  0  0  0  0  0  0  0  0
    6.0010   -0.3450    0.0000 C   0  0  0  0  0  0  0  0  0  0  0  0
    6.8671    2.1550    0.0000 C   0  0  1  0  0  0  0  0  0  0  0  0
    6.0010    2.6550    0.0000 C   0  0  0  0  0  0  0  0  0  0  0  0
    7.7331    0.6550    0.0000 C   0  0  0  0  0  0  0  0  0  0  0  0
    4.8059   -0.0350    0.0000 H   0  0  0  0  0  0  0  0  0  0  0  0
    3.4030   -0.2250    0.0000 H   0  0  0  0  0  0  0  0  0  0  0  0
    5.6720   -1.1550    0.0000 H   0  0  0  0  0  0  0  0  0  0  0  0
    3.4030   -2.4650    0.0000 H   0  0  0  0  0  0  0  0  0  0  0  0
    5.1350    0.5350    0.0000 H   0  0  0  0  0  0  0  0  0  0  0  0
    3.7320   -2.6550    0.0000 H   0  0  0  0  0  0  0  0  0  0  0  0
    5.1350    2.7750    0.0000 H   0  0  0  0  0  0  0  0  0  0  0  0
    6.8671    0.5350    0.0000 H   0  0  0  0  0  0  0  0  0  0  0  0
    6.3996    0.1299    0.0000 H   0  0  0  0  0  0  0  0  0  0  0  0
    5.6025    0.1299    0.0000 H   0  0  0  0  0  0  0  0  0  0  0  0
    7.4040    1.8450    0.0000 H   0  0  0  0  0  0  0  0  0  0  0  0
    2.0000   -0.6550    0.0000 H   0  0  0  0  0  0  0  0  0  0  0  0
    8.3437    0.5473    0.0000 H   0  0  0  0  0  0  0  0  0  0  0  0
    7.9451    1.2376    0.0000 H   0  0  0  0  0  0  0  0  0  0  0  0
    2.5369   -2.9650    0.0000 H   0  0  0  0  0  0  0  0  0  0  0  0
    4.8059   -3.6550    0.0000 H   0  0  0  0  0  0  0  0  0  0  0  0
    4.2690    3.2750    0.0000 H   0  0  0  0  0  0  0  0  0  0  0  0
    6.8671   -1.4650    0.0000 H   0  0  0  0  0  0  0  0  0  0  0  0
    8.2700    2.3450    0.0000 H   0  0  0  0  0  0  0  0  0  0  0  0
    8.2700   -0.6550    0.0000 H   0  0  0  0  0  0  0  0  0  0  0  0
 12  1  1  6  0  0  0
 16  1  1  1  0  0  0
  2 14  1  0  0  0  0
  2 17  1  0  0  0  0
  3 16  1  0  0  0  0
  3 19  1  0  0  0  0
 13  4  1  1  0  0  0
  4 35  1  0  0  0  0
 15  5  1  6  0  0  0
  5 38  1  0  0  0  0
  6 17  1  0  0  0  0
  6 39  1  0  0  0  0
 18  7  1  6  0  0  0
  7 40  1  0  0  0  0
  8 20  1  0  0  0  0
  8 41  1  0  0  0  0
 21  9  1  1  0  0  0
  9 42  1  0  0  0  0
 10 22  2  0  0  0  0
 11 23  1  0  0  0  0
 11 43  1  0  0  0  0
 12 13  1  0  0  0  0
 12 14  1  0  0  0  0
 12 24  1  0  0  0  0
 13 15  1  0  0  0  0
 13 25  1  0  0  0  0
 14 20  1  1  0  0  0
 14 26  1  0  0  0  0
 15 17  1  0  0  0  0
 15 27  1  0  0  0  0
 16 18  1  0  0  0  0
 16 28  1  0  0  0  0
 17 29  1  0  0  0  0
 18 22  1  0  0  0  0
 18 30  1  0  0  0  0
 19 21  1  0  0  0  0
 19 23  1  1  0  0  0
 19 31  1  0  0  0  0
 20 32  1  0  0  0  0
 20 33  1  0  0  0  0
 21 22  1  0  0  0  0
 21 34  1  0  0  0  0
 23 36  1  0  0  0  0
 23 37  1  0  0  0  0
M  END
> <PUBCHEM_COMPOUND_CID>
440659

> <PUBCHEM_COMPOUND_CANONICALIZED>
1

> <PUBCHEM_CACTVS_COMPLEXITY>
418

> <PUBCHEM_CACTVS_HBOND_ACCEPTOR>
11

> <PUBCHEM_CACTVS_HBOND_DONOR>
7

> <PUBCHEM_CACTVS_ROTATABLE_BOND>
4

> <PUBCHEM_CACTVS_SUBSKEYS>
AAADceBwPAAAAAAAAAAAAAAAAAAAAAAAAAAkSAAAAAAAAAAAAAAAGgAACAAACBSwgAMACAAABgAIAIAQAAIAAAAAAAAAAAFAAAAREBYAAAAiQAAFIAAHAAHCYAwAAAAAAAAAAAAAAAAAAAAAAAAAAAAAAA==

> <PUBCHEM_IUPAC_OPENEYE_NAME>
(2R,3S,5S,6S)-3,5-dihydroxy-2-(hydroxymethyl)-6-[(2R,3S,4R,5R)-4,5,6-trihydroxy-2-(hydroxymethyl)tetrahydropyran-3-yl]oxy-tetrahydropyran-4-one

> <PUBCHEM_IUPAC_CAS_NAME>
(2R,3S,5S,6S)-3,5-dihydroxy-2-(hydroxymethyl)-6-[[(2R,3S,4R,5R)-4,5,6-trihydroxy-2-(hydroxymethyl)-3-oxanyl]oxy]-4-oxanone

> <PUBCHEM_IUPAC_NAME>
(2R,3S,5S,6S)-3,5-dihydroxy-2-(hydroxymethyl)-6-[(2R,3S,4R,5R)-4,5,6-trihydroxy-2-(hydroxymethyl)oxan-3-yl]oxyoxan-4-one

> <PUBCHEM_IUPAC_SYSTEMATIC_NAME>
(2R,3S,5S,6S)-2-(hydroxymethyl)-6-[(2R,3S,4R,5R)-2-(hydroxymethyl)-4,5,6-tris(oxidanyl)oxan-3-yl]oxy-3,5-bis(oxidanyl)oxan-4-one

> <PUBCHEM_IUPAC_TRADITIONAL_NAME>
(2R,3S,5S,6S)-3,5-dihydroxy-2-methylol-6-[(2R,3S,4R,5R)-4,5,6-trihydroxy-2-methylol-tetrahydropyran-3-yl]oxy-tetrahydropyran-4-one

> <PUBCHEM_IUPAC_INCHI>
InChI=1S/C12H20O11/c13-1-3-5(15)6(16)9(19)12(22-3)23-10-4(2-14)21-11(20)8(18)7(10)17/h3-5,7-15,17-20H,1-2H2/t3-,4-,5+,7-,8-,9-,10-,11?,12+/m1/s1

> <PUBCHEM_IUPAC_INCHIKEY>
HKKHTABTHSUDBP-ILXILVFVSA-N

> <PUBCHEM_XLOGP3_AA>
-4.3

> <PUBCHEM_EXACT_MASS>
340.100561

> <PUBCHEM_MOLECULAR_FORMULA>
C12H20O11

> <PUBCHEM_MOLECULAR_WEIGHT>
340.2806

> <PUBCHEM_OPENEYE_CAN_SMILES>
C(C1C(C(C(C(O1)O)O)O)OC2C(C(=O)C(C(O2)CO)O)O)O

> <PUBCHEM_OPENEYE_ISO_SMILES>
C([C@@H]1[C@H]([C@@H]([C@H](C(O1)O)O)O)O[C@H]2[C@@H](C(=O)[C@H]([C@H](O2)CO)O)O)O

> <PUBCHEM_CACTVS_TPSA>
186

> <PUBCHEM_MONOISOTOPIC_WEIGHT>
340.100561

> <PUBCHEM_TOTAL_CHARGE>
0

> <PUBCHEM_HEAVY_ATOM_COUNT>
23

> <PUBCHEM_ATOM_DEF_STEREO_COUNT>
8

> <PUBCHEM_ATOM_UDEF_STEREO_COUNT>
1

> <PUBCHEM_BOND_DEF_STEREO_COUNT>
0

> <PUBCHEM_BOND_UDEF_STEREO_COUNT>
0

> <PUBCHEM_ISOTOPIC_ATOM_COUNT>
0

> <PUBCHEM_COMPONENT_COUNT>
1

> <PUBCHEM_CACTVS_TAUTO_COUNT>
7

> <PUBCHEM_COORDINATE_TYPE>
1
5
255

> <PUBCHEM_BONDANNOTATIONS>
12  1  6
16  1  5
14  20  5
19  23  5
13  4  5
15  5  6
17  6  3
18  7  6
21  9  5

$$$$

