7435
  -OEChem-06261202053D

 21 21  0     0  0  0  0  0  0999 V2000
    2.4565   -0.5203    0.3518 O   0  0  0  0  0  0  0  0  0  0  0  0
    1.9649    1.5373   -0.5559 O   0  0  0  0  0  0  0  0  0  0  0  0
   -2.1368    0.4723    0.1122 C   0  0  0  0  0  0  0  0  0  0  0  0
    0.2198   -0.0197   -0.0920 C   0  0  0  0  0  0  0  0  0  0  0  0
   -0.8114    0.9053    0.0721 C   0  0  0  0  0  0  0  0  0  0  0  0
   -2.4309   -0.8857   -0.0119 C   0  0  0  0  0  0  0  0  0  0  0  0
   -0.0745   -1.3776   -0.2160 C   0  0  0  0  0  0  0  0  0  0  0  0
   -1.3998   -1.8106   -0.1760 C   0  0  0  0  0  0  0  0  0  0  0  0
   -3.2399    1.4607    0.2867 C   0  0  0  0  0  0  0  0  0  0  0  0
    1.6019    0.4311   -0.1345 C   0  0  0  0  0  0  0  0  0  0  0  0
    3.8501   -0.1929    0.3634 C   0  0  0  0  0  0  0  0  0  0  0  0
   -0.5867    1.9646    0.1739 H   0  0  0  0  0  0  0  0  0  0  0  0
   -3.4592   -1.2360    0.0188 H   0  0  0  0  0  0  0  0  0  0  0  0
    0.7066   -2.1200   -0.3574 H   0  0  0  0  0  0  0  0  0  0  0  0
   -1.6292   -2.8676   -0.2750 H   0  0  0  0  0  0  0  0  0  0  0  0
   -2.9933    2.4143   -0.1925 H   0  0  0  0  0  0  0  0  0  0  0  0
   -4.1690    1.1037   -0.1706 H   0  0  0  0  0  0  0  0  0  0  0  0
   -3.4201    1.6382    1.3516 H   0  0  0  0  0  0  0  0  0  0  0  0
    4.2022   -0.0077   -0.6556 H   0  0  0  0  0  0  0  0  0  0  0  0
    4.3967   -1.0449    0.7759 H   0  0  0  0  0  0  0  0  0  0  0  0
    4.0268    0.6805    0.9982 H   0  0  0  0  0  0  0  0  0  0  0  0
  1 10  1  0  0  0  0
  1 11  1  0  0  0  0
  2 10  2  0  0  0  0
  3  5  2  0  0  0  0
  3  6  1  0  0  0  0
  3  9  1  0  0  0  0
  4  5  1  0  0  0  0
  4  7  2  0  0  0  0
  4 10  1  0  0  0  0
  5 12  1  0  0  0  0
  6  8  2  0  0  0  0
  6 13  1  0  0  0  0
  7  8  1  0  0  0  0
  7 14  1  0  0  0  0
  8 15  1  0  0  0  0
  9 16  1  0  0  0  0
  9 17  1  0  0  0  0
  9 18  1  0  0  0  0
 11 19  1  0  0  0  0
 11 20  1  0  0  0  0
 11 21  1  0  0  0  0
M  END
> <PUBCHEM_COMPOUND_CID>
7435

> <PUBCHEM_CONFORMER_RMSD>
0.4

> <PUBCHEM_CONFORMER_DIVERSEORDER>
1
6
3
4
5
2

> <PUBCHEM_MMFF94_PARTIAL_CHARGES>
15
1 -0.43
10 0.63
11 0.28
12 0.15
13 0.15
14 0.15
15 0.15
2 -0.57
3 -0.14
4 0.09
5 -0.15
6 -0.15
7 -0.15
8 -0.15
9 0.14

> <PUBCHEM_EFFECTIVE_ROTOR_COUNT>
2

> <PUBCHEM_PHARMACOPHORE_FEATURES>
2
1 2 acceptor
6 3 4 5 6 7 8 rings

> <PUBCHEM_HEAVY_ATOM_COUNT>
11

> <PUBCHEM_ATOM_DEF_STEREO_COUNT>
0

> <PUBCHEM_ATOM_UDEF_STEREO_COUNT>
0

> <PUBCHEM_BOND_DEF_STEREO_COUNT>
0

> <PUBCHEM_BOND_UDEF_STEREO_COUNT>
0

> <PUBCHEM_ISOTOPIC_ATOM_COUNT>
0

> <PUBCHEM_COMPONENT_COUNT>
1

> <PUBCHEM_CACTVS_TAUTO_COUNT>
1

> <PUBCHEM_CONFORMER_ID>
00001D0B00000001

> <PUBCHEM_MMFF94_ENERGY>
30.4401

> <PUBCHEM_FEATURE_SELFOVERLAP>
10.148

> <PUBCHEM_SHAPE_FINGERPRINT>
12251169 10 18342454859044436377
12932764 1 17750230297001471658
13024252 1 14548743910741976223
13380535 76 18336547217855545071
14144814 61 18413392033785828498
14325111 11 18410011030961227720
14897335 6 18263085564616920983
15775835 57 18342734139277118912
16945 1 18340200886061669359
18511873 20 18341333374532688192
20645464 45 17894346678862055455
207724 885 18202003248117950186
20871998 184 18114460033514866543
21040471 1 18335978740104900087
21501502 16 18338796689396016260
21524375 3 18337110167893219401
23235685 24 18335426823737956305
23402539 116 18187940473393331501
23402655 69 18118136990236690125
23463225 33 18341896328860399290
23552423 10 18128538167532743478
23559900 14 18113620110574993688
2748010 2 18337388245149885461
369184 2 18261675870087108923
5084963 1 17988650653115473743

> <PUBCHEM_SHAPE_MULTIPOLES>
214.64
5.2
1.68
0.66
3.02
0.25
0
-1.11
-0.74
-0.9
0.12
0.07
-0.03
-0.33

> <PUBCHEM_SHAPE_SELFOVERLAP>
443.343

> <PUBCHEM_SHAPE_VOLUME>
124.7

> <PUBCHEM_COORDINATE_TYPE>
2
5
10

$$$$

