46173822
  -OEChem-07051213092D

 85 91  0     1  0  0  0  0  0999 V2000
    9.7627   -4.9474    0.0000 Br  0  0  0  0  0  0  0  0  0  0  0  0
   10.3940   -0.9093    0.0000 O   0  0  0  0  0  0  0  0  0  0  0  0
    6.3431   -0.9087    0.0000 O   0  0  0  0  0  0  0  0  0  0  0  0
    6.7098   -0.6116    0.0000 O   0  0  0  0  0  0  0  0  0  0  0  0
    6.5727    0.8080    0.0000 O   0  0  0  0  0  0  0  0  0  0  0  0
    5.5815    0.9406    0.0000 O   0  0  0  0  0  0  0  0  0  0  0  0
    5.1224   -2.4930    0.0000 O   0  0  0  0  0  0  0  0  0  0  0  0
    3.5991    1.2056    0.0000 O   0  0  0  0  0  0  0  0  0  0  0  0
    3.1401   -2.2280    0.0000 O   0  0  0  0  0  0  0  0  0  0  0  0
    2.3784   -0.3787    0.0000 O   0  0  0  0  0  0  0  0  0  0  0  0
    4.2095    1.9977    0.0000 O   0  0  0  0  0  0  0  0  0  0  0  0
   12.3009    0.7965    0.0000 O   0  0  0  0  0  0  0  0  0  0  0  0
    6.8022    2.5248    0.0000 O   0  0  0  0  0  0  0  0  0  0  0  0
    6.0406    4.3741    0.0000 O   0  0  0  0  0  0  0  0  0  0  0  0
    4.0582    4.6392    0.0000 O   0  0  0  0  0  0  0  0  0  0  0  0
   11.7868    4.2988    0.0000 O   0  0  0  0  0  0  0  0  0  0  0  0
    7.2983   -2.2936    0.0000 N   0  0  0  0  0  0  0  0  0  0  0  0
   10.4317    0.4712    0.0000 N   0  0  0  0  0  0  0  0  0  0  0  0
    9.0308    2.2279    0.0000 N   0  0  0  0  0  0  0  0  0  0  0  0
   10.3963    3.2033    0.0000 N   0  0  0  0  0  0  0  0  0  0  0  0
   12.0745    2.5521    0.0000 N   0  0  0  0  0  0  0  0  0  0  0  0
    8.4165   -1.1241    0.0000 C   0  0  2  0  0  0  0  0  0  0  0  0
    7.9447   -0.2491    0.0000 C   0  0  2  0  0  0  0  0  0  0  0  0
    9.3948   -0.9474    0.0000 C   0  0  1  0  0  0  0  0  0  0  0  0
    8.6298    0.4712    0.0000 C   0  0  1  0  0  0  0  0  0  0  0  0
    9.5308    0.0373    0.0000 C   0  0  0  0  0  0  0  0  0  0  0  0
    8.8904   -2.0047    0.0000 C   0  0  0  0  0  0  0  0  0  0  0  0
    7.4326   -1.3026    0.0000 C   0  0  0  0  0  0  0  0  0  0  0  0
    8.4073    1.4461    0.0000 C   0  0  0  0  0  0  0  0  0  0  0  0
   10.1629   -1.5877    0.0000 C   0  0  0  0  0  0  0  0  0  0  0  0
    6.9535   -0.1166    0.0000 C   0  0  0  0  0  0  0  0  0  0  0  0
    8.1993   -2.7275    0.0000 C   0  0  0  0  0  0  0  0  0  0  0  0
    5.3520   -0.7762    0.0000 C   0  0  1  0  0  0  0  0  0  0  0  0
    9.9060   -2.2360    0.0000 C   0  0  0  0  0  0  0  0  0  0  0  0
    4.9711    0.1484    0.0000 C   0  0  1  0  0  0  0  0  0  0  0  0
    4.7416   -1.5683    0.0000 C   0  0  2  0  0  0  0  0  0  0  0  0
    3.9800    0.2810    0.0000 C   0  0  2  0  0  0  0  0  0  0  0  0
    3.7504   -1.4358    0.0000 C   0  0  2  0  0  0  0  0  0  0  0  0
    8.4760   -3.7317    0.0000 C   0  0  0  0  0  0  0  0  0  0  0  0
   10.6542    1.4461    0.0000 C   0  0  0  0  0  0  0  0  0  0  0  0
    3.3696   -0.5112    0.0000 C   0  0  1  0  0  0  0  0  0  0  0  0
   10.0307    2.2279    0.0000 C   0  0  0  0  0  0  0  0  0  0  0  0
   10.2058   -3.2336    0.0000 C   0  0  0  0  0  0  0  0  0  0  0  0
    9.4860   -3.9864    0.0000 C   0  0  0  0  0  0  0  0  0  0  0  0
    5.2007    1.8652    0.0000 C   0  0  2  0  0  0  0  0  0  0  0  0
   11.6865    1.5854    0.0000 C   0  0  0  0  0  0  0  0  0  0  0  0
    5.8110    2.6573    0.0000 C   0  0  1  0  0  0  0  0  0  0  0  0
    5.4302    3.5820    0.0000 C   0  0  2  0  0  0  0  0  0  0  0  0
   11.4251    3.3665    0.0000 C   0  0  0  0  0  0  0  0  0  0  0  0
    4.4390    3.7145    0.0000 C   0  0  1  0  0  0  0  0  0  0  0  0
    3.8287    2.9224    0.0000 C   0  0  0  0  0  0  0  0  0  0  0  0
    7.7386    0.3356    0.0000 H   0  0  0  0  0  0  0  0  0  0  0  0
    7.8101    0.6962    0.0000 H   0  0  0  0  0  0  0  0  0  0  0  0
    8.0207    1.9308    0.0000 H   0  0  0  0  0  0  0  0  0  0  0  0
    7.8487    1.1771    0.0000 H   0  0  0  0  0  0  0  0  0  0  0  0
    9.7659   -2.0640    0.0000 H   0  0  0  0  0  0  0  0  0  0  0  0
   10.6391   -1.9847    0.0000 H   0  0  0  0  0  0  0  0  0  0  0  0
   10.5599   -1.1115    0.0000 H   0  0  0  0  0  0  0  0  0  0  0  0
    6.7524   -2.5874    0.0000 H   0  0  0  0  0  0  0  0  0  0  0  0
   10.6833   -0.3609    0.0000 H   0  0  0  0  0  0  0  0  0  0  0  0
    5.7304   -0.2851    0.0000 H   0  0  0  0  0  0  0  0  0  0  0  0
   10.3292   -1.7830    0.0000 H   0  0  0  0  0  0  0  0  0  0  0  0
    4.7350    0.7217    0.0000 H   0  0  0  0  0  0  0  0  0  0  0  0
    8.7617    2.7865    0.0000 H   0  0  0  0  0  0  0  0  0  0  0  0
    5.3561   -1.6505    0.0000 H   0  0  0  0  0  0  0  0  0  0  0  0
    3.3654    0.3631    0.0000 H   0  0  0  0  0  0  0  0  0  0  0  0
    3.9865   -2.0091    0.0000 H   0  0  0  0  0  0  0  0  0  0  0  0
    8.0423   -4.1748    0.0000 H   0  0  0  0  0  0  0  0  0  0  0  0
    2.9912   -1.0023    0.0000 H   0  0  0  0  0  0  0  0  0  0  0  0
   10.8087   -3.3782    0.0000 H   0  0  0  0  0  0  0  0  0  0  0  0
    5.8152    1.7830    0.0000 H   0  0  0  0  0  0  0  0  0  0  0  0
   10.0042    3.6836    0.0000 H   0  0  0  0  0  0  0  0  0  0  0  0
    4.7440   -2.9841    0.0000 H   0  0  0  0  0  0  0  0  0  0  0  0
    6.0471    2.0841    0.0000 H   0  0  0  0  0  0  0  0  0  0  0  0
    2.9846    1.2878    0.0000 H   0  0  0  0  0  0  0  0  0  0  0  0
    2.5255   -2.1458    0.0000 H   0  0  0  0  0  0  0  0  0  0  0  0
    2.0000   -0.8698    0.0000 H   0  0  0  0  0  0  0  0  0  0  0  0
    6.0447    3.4998    0.0000 H   0  0  0  0  0  0  0  0  0  0  0  0
   12.6879    2.6422    0.0000 H   0  0  0  0  0  0  0  0  0  0  0  0
    3.8245    3.7967    0.0000 H   0  0  0  0  0  0  0  0  0  0  0  0
    3.4107    3.3803    0.0000 H   0  0  0  0  0  0  0  0  0  0  0  0
    3.3051    2.5903    0.0000 H   0  0  0  0  0  0  0  0  0  0  0  0
    7.1806    3.0159    0.0000 H   0  0  0  0  0  0  0  0  0  0  0  0
    5.8044    4.9474    0.0000 H   0  0  0  0  0  0  0  0  0  0  0  0
    3.4436    4.7213    0.0000 H   0  0  0  0  0  0  0  0  0  0  0  0
  1 44  1  0  0  0  0
 24  2  1  1  0  0  0
  2 60  1  0  0  0  0
  3 31  1  0  0  0  0
 33  3  1  6  0  0  0
  4 28  2  0  0  0  0
  5 31  2  0  0  0  0
 35  6  1  1  0  0  0
 45  6  1  6  0  0  0
 36  7  1  1  0  0  0
  7 73  1  0  0  0  0
 37  8  1  6  0  0  0
  8 75  1  0  0  0  0
 38  9  1  1  0  0  0
  9 76  1  0  0  0  0
 41 10  1  1  0  0  0
 10 77  1  0  0  0  0
 11 45  1  0  0  0  0
 11 51  1  0  0  0  0
 12 46  2  0  0  0  0
 47 13  1  1  0  0  0
 13 83  1  0  0  0  0
 48 14  1  6  0  0  0
 14 84  1  0  0  0  0
 50 15  1  1  0  0  0
 15 85  1  0  0  0  0
 16 49  2  0  0  0  0
 17 28  1  0  0  0  0
 17 32  1  0  0  0  0
 17 59  1  0  0  0  0
 18 26  2  0  0  0  0
 18 40  1  0  0  0  0
 19 29  1  0  0  0  0
 19 42  1  0  0  0  0
 19 64  1  0  0  0  0
 20 42  1  0  0  0  0
 20 49  1  0  0  0  0
 20 72  1  0  0  0  0
 21 46  1  0  0  0  0
 21 49  1  0  0  0  0
 21 79  1  0  0  0  0
 22 23  1  0  0  0  0
 22 24  1  0  0  0  0
 22 27  1  0  0  0  0
 22 28  1  1  0  0  0
 23 25  1  0  0  0  0
 23 31  1  1  0  0  0
 23 52  1  0  0  0  0
 24 26  1  0  0  0  0
 24 30  1  0  0  0  0
 25 26  1  0  0  0  0
 25 29  1  0  0  0  0
 25 53  1  1  0  0  0
 27 32  2  0  0  0  0
 27 34  1  0  0  0  0
 29 54  1  0  0  0  0
 29 55  1  0  0  0  0
 30 56  1  0  0  0  0
 30 57  1  0  0  0  0
 30 58  1  0  0  0  0
 32 39  1  0  0  0  0
 33 35  1  0  0  0  0
 33 36  1  0  0  0  0
 33 61  1  0  0  0  0
 34 43  2  0  0  0  0
 34 62  1  0  0  0  0
 35 37  1  0  0  0  0
 35 63  1  0  0  0  0
 36 38  1  0  0  0  0
 36 65  1  0  0  0  0
 37 41  1  0  0  0  0
 37 66  1  0  0  0  0
 38 41  1  0  0  0  0
 38 67  1  0  0  0  0
 39 44  2  0  0  0  0
 39 68  1  0  0  0  0
 40 42  2  0  0  0  0
 40 46  1  0  0  0  0
 41 69  1  0  0  0  0
 43 44  1  0  0  0  0
 43 70  1  0  0  0  0
 45 47  1  0  0  0  0
 45 71  1  0  0  0  0
 47 48  1  0  0  0  0
 47 74  1  0  0  0  0
 48 50  1  0  0  0  0
 48 78  1  0  0  0  0
 50 51  1  0  0  0  0
 50 80  1  0  0  0  0
 51 81  1  0  0  0  0
 51 82  1  0  0  0  0
M  END
> <PUBCHEM_COMPOUND_CID>
46173822

> <PUBCHEM_COMPOUND_CANONICALIZED>
1

> <PUBCHEM_CACTVS_COMPLEXITY>
1570

> <PUBCHEM_CACTVS_HBOND_ACCEPTOR>
17

> <PUBCHEM_CACTVS_HBOND_DONOR>
12

> <PUBCHEM_CACTVS_ROTATABLE_BOND>
5

> <PUBCHEM_CACTVS_SUBSKEYS>
AAADcfB7vAAAEAAAAAAAAAAAAAAAAeIAAAA0YIEABAAAAFiBAAAAHgBQCAABr1zxmAczyILABgCoAyXyXASCAAAhAgQIiIG4ZOiZcDbAlZG2YAhv9SPPylf//f/fggAAAAECAAAGAAAQAgSAAYAADAAAAA==

> <PUBCHEM_IUPAC_INCHI>
InChI=1S/C30H34BrN5O15/c1-29(48)22-8(5-32-23-13(34-22)24(44)36-28(47)35-23)12(30(29)9-3-2-7(31)4-10(9)33-27(30)46)25(45)50-20-17(41)15(39)16(40)18(42)21(20)51-26-19(43)14(38)11(37)6-49-26/h2-4,8,11-12,14-21,26,37-43,48H,5-6H2,1H3,(H,33,46)(H3,32,35,36,44,47)/t8-,11+,12+,14-,15-,16+,17-,18-,19+,20+,21+,26-,29+,30+/m0/s1

> <PUBCHEM_IUPAC_INCHIKEY>
BQGIDCZWFREXJV-FERWQKPKSA-N

> <PUBCHEM_XLOGP3_AA>
-5.6

> <PUBCHEM_EXACT_MASS>
783.123478

> <PUBCHEM_MOLECULAR_FORMULA>
C30H34BrN5O15

> <PUBCHEM_MOLECULAR_WEIGHT>
784.51946

> <PUBCHEM_OPENEYE_CAN_SMILES>
CC1(C2=NC3=C(NCC2C(C14C5=C(C=C(C=C5)Br)NC4=O)C(=O)OC6C(C(C(C(C6OC7C(C(C(CO7)O)O)O)O)O)O)O)NC(=O)NC3=O)O

> <PUBCHEM_OPENEYE_ISO_SMILES>
C[C@]1(C2=NC3=C(NC[C@H]2[C@@H]([C@@]14C5=C(C=C(C=C5)Br)NC4=O)C(=O)O[C@@H]6[C@H]([C@H]([C@H]([C@@H]([C@H]6O[C@H]7[C@@H]([C@H]([C@@H](CO7)O)O)O)O)O)O)O)NC(=O)NC3=O)O

> <PUBCHEM_CACTVS_TPSA>
318

> <PUBCHEM_MONOISOTOPIC_WEIGHT>
783.123478

> <PUBCHEM_TOTAL_CHARGE>
0

> <PUBCHEM_HEAVY_ATOM_COUNT>
51

> <PUBCHEM_ATOM_DEF_STEREO_COUNT>
14

> <PUBCHEM_ATOM_UDEF_STEREO_COUNT>
0

> <PUBCHEM_BOND_DEF_STEREO_COUNT>
0

> <PUBCHEM_BOND_UDEF_STEREO_COUNT>
0

> <PUBCHEM_ISOTOPIC_ATOM_COUNT>
0

> <PUBCHEM_COMPONENT_COUNT>
1

> <PUBCHEM_CACTVS_TAUTO_COUNT>
68

> <PUBCHEM_COORDINATE_TYPE>
1
5
255

> <PUBCHEM_BONDANNOTATIONS>
41  10  5
47  13  5
48  14  6
50  15  5
24  2  5
20  42  8
20  49  8
21  46  8
21  49  8
22  28  5
23  31  5
25  53  5
27  32  8
27  34  8
33  3  6
32  39  8
34  43  8
39  44  8
40  42  8
40  46  8
43  44  8
35  6  5
45  6  6
36  7  5
37  8  6
38  9  5

$$$$

