5378303
  -OEChem-07051213042D

 29 31  0     0  0  0  0  0  0999 V2000
    7.4489   -1.2930    0.0000 O   0  0  0  0  0  0  0  0  0  0  0  0
    6.6195    2.6088    0.0000 O   0  0  0  0  0  0  0  0  0  0  0  0
    4.2208    0.6664    0.0000 O   0  0  0  0  0  0  0  0  0  0  0  0
   10.0312   -1.9975    0.0000 O   0  5  0  0  0  0  0  0  0  0  0  0
    8.6299   -3.0156    0.0000 O   0  0  0  0  0  0  0  0  0  0  0  0
    4.7208    2.2053    0.0000 N   0  0  0  0  0  0  0  0  0  0  0  0
    9.0367   -2.1020    0.0000 N   0  3  0  0  0  0  0  0  0  0  0  0
    3.7208    2.2053    0.0000 N   0  0  0  0  0  0  0  0  0  0  0  0
    2.4608    0.9452    0.0000 N   0  0  0  0  0  0  0  0  0  0  0  0
    5.9809    0.9452    0.0000 C   0  0  0  0  0  0  0  0  0  0  0  0
    6.7240    1.6143    0.0000 C   0  0  0  0  0  0  0  0  0  0  0  0
    6.1888   -0.0330    0.0000 C   0  0  0  0  0  0  0  0  0  0  0  0
    7.1399   -0.3420    0.0000 C   0  0  0  0  0  0  0  0  0  0  0  0
    5.0298    1.2542    0.0000 C   0  0  0  0  0  0  0  0  0  0  0  0
    7.9489    0.2458    0.0000 C   0  0  0  0  0  0  0  0  0  0  0  0
    7.7022    1.4064    0.0000 C   0  0  0  0  0  0  0  0  0  0  0  0
    8.4489   -1.2930    0.0000 C   0  0  0  0  0  0  0  0  0  0  0  0
    8.7579   -0.3420    0.0000 C   0  0  0  0  0  0  0  0  0  0  0  0
    8.2022    2.2724    0.0000 C   0  0  0  0  0  0  0  0  0  0  0  0
    7.5331    3.0156    0.0000 C   0  0  0  0  0  0  0  0  0  0  0  0
    3.4118    1.2542    0.0000 C   0  0  0  0  0  0  0  0  0  0  0  0
    5.7281   -0.4478    0.0000 H   0  0  0  0  0  0  0  0  0  0  0  0
    7.9489    0.8658    0.0000 H   0  0  0  0  0  0  0  0  0  0  0  0
    7.9544    0.8400    0.0000 H   0  0  0  0  0  0  0  0  0  0  0  0
    9.3476   -0.1504    0.0000 H   0  0  0  0  0  0  0  0  0  0  0  0
    8.8188    2.3372    0.0000 H   0  0  0  0  0  0  0  0  0  0  0  0
    7.6620    3.6220    0.0000 H   0  0  0  0  0  0  0  0  0  0  0  0
    2.0000    1.3601    0.0000 H   0  0  0  0  0  0  0  0  0  0  0  0
    2.3318    0.3387    0.0000 H   0  0  0  0  0  0  0  0  0  0  0  0
  1 13  1  0  0  0  0
  1 17  1  0  0  0  0
  2 11  1  0  0  0  0
  2 20  1  0  0  0  0
  3 14  1  0  0  0  0
  3 21  1  0  0  0  0
  4  7  1  0  0  0  0
  5  7  2  0  0  0  0
  6  8  1  0  0  0  0
  6 14  2  0  0  0  0
  7 17  1  0  0  0  0
  8 21  2  0  0  0  0
  9 21  1  0  0  0  0
  9 28  1  0  0  0  0
  9 29  1  0  0  0  0
 10 11  1  0  0  0  0
 10 12  2  0  0  0  0
 10 14  1  0  0  0  0
 11 16  2  0  0  0  0
 12 13  1  0  0  0  0
 12 22  1  0  0  0  0
 13 15  2  0  0  0  0
 15 18  1  0  0  0  0
 15 23  1  0  0  0  0
 16 19  1  0  0  0  0
 16 24  1  0  0  0  0
 17 18  2  0  0  0  0
 18 25  1  0  0  0  0
 19 20  2  0  0  0  0
 19 26  1  0  0  0  0
 20 27  1  0  0  0  0
M  CHG  2   4  -1   7   1
M  END
> <PUBCHEM_COMPOUND_CID>
5378303

> <PUBCHEM_COMPOUND_CANONICALIZED>
1

> <PUBCHEM_CACTVS_COMPLEXITY>
426

> <PUBCHEM_CACTVS_HBOND_ACCEPTOR>
8

> <PUBCHEM_CACTVS_HBOND_DONOR>
1

> <PUBCHEM_CACTVS_ROTATABLE_BOND>
3

> <PUBCHEM_CACTVS_SUBSKEYS>
AAADccBzuAAAAAAAAAAAAAAAAAAAAWJEgAAAAAAAAAAAAAAB+AAAHgAcAAAADAShkgIxlIBQRECrAqly8wCSCAIsIgA+iAEmbNsMJj6MtZuKGSD36BEI6Ye8SAAAAAAAAAAAAAAAAAAAAAAAAAAAAAAAAA==

> <PUBCHEM_IUPAC_OPENEYE_NAME>
5-[(E)-1-(2-furyl)-2-(5-nitro-2-furyl)vinyl]-1,3,4-oxadiazol-2-amine

> <PUBCHEM_IUPAC_CAS_NAME>
5-[(E)-1-(2-furanyl)-2-(5-nitro-2-furanyl)ethenyl]-1,3,4-oxadiazol-2-amine

> <PUBCHEM_IUPAC_NAME>
5-[(E)-1-(furan-2-yl)-2-(5-nitrofuran-2-yl)ethenyl]-1,3,4-oxadiazol-2-amine

> <PUBCHEM_IUPAC_SYSTEMATIC_NAME>
5-[(E)-1-(furan-2-yl)-2-(5-nitrofuran-2-yl)ethenyl]-1,3,4-oxadiazol-2-amine

> <PUBCHEM_IUPAC_TRADITIONAL_NAME>
[5-[(E)-1-(2-furyl)-2-(5-nitro-2-furyl)vinyl]-1,3,4-oxadiazol-2-yl]amine

> <PUBCHEM_IUPAC_INCHI>
InChI=1S/C12H8N4O5/c13-12-15-14-11(21-12)8(9-2-1-5-19-9)6-7-3-4-10(20-7)16(17)18/h1-6H,(H2,13,15)/b8-6+

> <PUBCHEM_IUPAC_INCHIKEY>
YOWVEYCZVUOQAB-SOFGYWHQSA-N

> <PUBCHEM_XLOGP3_AA>
2

> <PUBCHEM_EXACT_MASS>
288.049469

> <PUBCHEM_MOLECULAR_FORMULA>
C12H8N4O5

> <PUBCHEM_MOLECULAR_WEIGHT>
288.21572

> <PUBCHEM_OPENEYE_CAN_SMILES>
C1=COC(=C1)C(=CC2=CC=C(O2)[N+](=O)[O-])C3=NN=C(O3)N

> <PUBCHEM_OPENEYE_ISO_SMILES>
C1=COC(=C1)/C(=C\C2=CC=C(O2)[N+](=O)[O-])/C3=NN=C(O3)N

> <PUBCHEM_CACTVS_TPSA>
137

> <PUBCHEM_MONOISOTOPIC_WEIGHT>
288.049469

> <PUBCHEM_TOTAL_CHARGE>
0

> <PUBCHEM_HEAVY_ATOM_COUNT>
21

> <PUBCHEM_ATOM_DEF_STEREO_COUNT>
0

> <PUBCHEM_ATOM_UDEF_STEREO_COUNT>
0

> <PUBCHEM_BOND_DEF_STEREO_COUNT>
1

> <PUBCHEM_BOND_UDEF_STEREO_COUNT>
0

> <PUBCHEM_ISOTOPIC_ATOM_COUNT>
0

> <PUBCHEM_COMPONENT_COUNT>
1

> <PUBCHEM_CACTVS_TAUTO_COUNT>
3

> <PUBCHEM_COORDINATE_TYPE>
1
5
255

> <PUBCHEM_BONDANNOTATIONS>
1  13  8
1  17  8
11  16  8
13  15  8
15  18  8
16  19  8
17  18  8
19  20  8
2  11  8
2  20  8
3  14  8
3  21  8
6  14  8
6  8  8
8  21  8

$$$$

