10570
  -OEChem-06261204422D

 52 55  0     1  0  0  0  0  0999 V2000
    5.3307    1.4215    0.0000 O   0  0  0  0  0  0  0  0  0  0  0  0
    2.5357   -2.1309    0.0000 O   0  0  0  0  0  0  0  0  0  0  0  0
    9.1857    2.1767    0.0000 O   0  0  0  0  0  0  0  0  0  0  0  0
    6.1968   -0.0785    0.0000 C   0  0  3  0  0  0  0  0  0  0  0  0
    5.2868   -0.5854    0.0000 C   0  0  3  0  0  0  0  0  0  0  0  0
    7.0628   -0.5785    0.0000 C   0  0  3  0  0  0  0  0  0  0  0  0
    7.9288   -0.0785    0.0000 C   0  0  3  0  0  0  0  0  0  0  0  0
    7.9288    0.9215    0.0000 C   0  0  3  0  0  0  0  0  0  0  0  0
    5.2787   -1.6270    0.0000 C   0  0  3  0  0  0  0  0  0  0  0  0
    6.1968    0.9215    0.0000 C   0  0  3  0  0  0  0  0  0  0  0  0
    7.0789   -1.6200    0.0000 C   0  0  0  0  0  0  0  0  0  0  0  0
    7.0628    1.4215    0.0000 C   0  0  0  0  0  0  0  0  0  0  0  0
    6.1808   -2.1478    0.0000 C   0  0  0  0  0  0  0  0  0  0  0  0
    4.3599   -0.0213    0.0000 C   0  0  0  0  0  0  0  0  0  0  0  0
    8.8750   -0.3833    0.0000 C   0  0  0  0  0  0  0  0  0  0  0  0
    4.3433   -2.1767    0.0000 C   0  0  0  0  0  0  0  0  0  0  0  0
    5.2945    0.4146    0.0000 C   0  0  0  0  0  0  0  0  0  0  0  0
    8.8750    1.2262    0.0000 C   0  0  0  0  0  0  0  0  0  0  0  0
    9.4586    0.4215    0.0000 C   0  0  0  0  0  0  0  0  0  0  0  0
    3.4120   -0.5493    0.0000 C   0  0  0  0  0  0  0  0  0  0  0  0
    3.4037   -1.6342    0.0000 C   0  0  2  0  0  0  0  0  0  0  0  0
    7.9288    1.9215    0.0000 C   0  0  0  0  0  0  0  0  0  0  0  0
    6.9329    0.3465    0.0000 H   0  0  0  0  0  0  0  0  0  0  0  0
    7.8022   -0.9979    0.0000 H   0  0  0  0  0  0  0  0  0  0  0  0
    8.0188   -0.9238    0.0000 H   0  0  0  0  0  0  0  0  0  0  0  0
    5.2820   -2.4770    0.0000 H   0  0  0  0  0  0  0  0  0  0  0  0
    6.1968    1.7715    0.0000 H   0  0  0  0  0  0  0  0  0  0  0  0
    7.2969   -2.2004    0.0000 H   0  0  0  0  0  0  0  0  0  0  0  0
    7.6880   -1.5046    0.0000 H   0  0  0  0  0  0  0  0  0  0  0  0
    7.4613    1.8964    0.0000 H   0  0  0  0  0  0  0  0  0  0  0  0
    6.6643    1.8964    0.0000 H   0  0  0  0  0  0  0  0  0  0  0  0
    5.7835   -2.6238    0.0000 H   0  0  0  0  0  0  0  0  0  0  0  0
    6.5818   -2.6207    0.0000 H   0  0  0  0  0  0  0  0  0  0  0  0
    4.7681    0.4454    0.0000 H   0  0  0  0  0  0  0  0  0  0  0  0
    3.9700    0.4607    0.0000 H   0  0  0  0  0  0  0  0  0  0  0  0
    8.6240   -0.9502    0.0000 H   0  0  0  0  0  0  0  0  0  0  0  0
    9.4124   -0.6925    0.0000 H   0  0  0  0  0  0  0  0  0  0  0  0
    3.9460   -2.6527    0.0000 H   0  0  0  0  0  0  0  0  0  0  0  0
    4.7443   -2.6496    0.0000 H   0  0  0  0  0  0  0  0  0  0  0  0
    5.9145    0.4098    0.0000 H   0  0  0  0  0  0  0  0  0  0  0  0
    5.2993    1.0346    0.0000 H   0  0  0  0  0  0  0  0  0  0  0  0
    4.6745    0.4194    0.0000 H   0  0  0  0  0  0  0  0  0  0  0  0
    9.9195    0.0067    0.0000 H   0  0  0  0  0  0  0  0  0  0  0  0
    9.9195    0.8362    0.0000 H   0  0  0  0  0  0  0  0  0  0  0  0
    3.2075    0.0360    0.0000 H   0  0  0  0  0  0  0  0  0  0  0  0
    2.8004   -0.6506    0.0000 H   0  0  0  0  0  0  0  0  0  0  0  0
    2.8686   -1.3211    0.0000 H   0  0  0  0  0  0  0  0  0  0  0  0
    8.5488    1.9215    0.0000 H   0  0  0  0  0  0  0  0  0  0  0  0
    7.9288    2.5415    0.0000 H   0  0  0  0  0  0  0  0  0  0  0  0
    7.3088    1.9215    0.0000 H   0  0  0  0  0  0  0  0  0  0  0  0
    5.3307    2.0415    0.0000 H   0  0  0  0  0  0  0  0  0  0  0  0
    2.0000   -1.8188    0.0000 H   0  0  0  0  0  0  0  0  0  0  0  0
  1 10  1  0  0  0  0
  1 51  1  0  0  0  0
 21  2  1  1  0  0  0
  2 52  1  0  0  0  0
  3 18  2  0  0  0  0
  4  5  1  0  0  0  0
  4  6  1  0  0  0  0
  4 10  1  0  0  0  0
  4 23  1  0  0  0  0
  5  9  1  0  0  0  0
  5 14  1  0  0  0  0
  5 17  1  0  0  0  0
  6  7  1  0  0  0  0
  6 11  1  0  0  0  0
  6 24  1  0  0  0  0
  7  8  1  0  0  0  0
  7 15  1  0  0  0  0
  7 25  1  0  0  0  0
  8 12  1  0  0  0  0
  8 18  1  0  0  0  0
  8 22  1  0  0  0  0
  9 13  1  0  0  0  0
  9 16  1  0  0  0  0
  9 26  1  0  0  0  0
 10 12  1  0  0  0  0
 10 27  1  0  0  0  0
 11 13  1  0  0  0  0
 11 28  1  0  0  0  0
 11 29  1  0  0  0  0
 12 30  1  0  0  0  0
 12 31  1  0  0  0  0
 13 32  1  0  0  0  0
 13 33  1  0  0  0  0
 14 20  1  0  0  0  0
 14 34  1  0  0  0  0
 14 35  1  0  0  0  0
 15 19  1  0  0  0  0
 15 36  1  0  0  0  0
 15 37  1  0  0  0  0
 16 21  1  0  0  0  0
 16 38  1  0  0  0  0
 16 39  1  0  0  0  0
 17 40  1  0  0  0  0
 17 41  1  0  0  0  0
 17 42  1  0  0  0  0
 18 19  1  0  0  0  0
 19 43  1  0  0  0  0
 19 44  1  0  0  0  0
 20 21  1  0  0  0  0
 20 45  1  0  0  0  0
 20 46  1  0  0  0  0
 21 47  1  0  0  0  0
 22 48  1  0  0  0  0
 22 49  1  0  0  0  0
 22 50  1  0  0  0  0
M  END
> <PUBCHEM_COMPOUND_CID>
10570

> <PUBCHEM_COMPOUND_CANONICALIZED>
1

> <PUBCHEM_CACTVS_COMPLEXITY>
489

> <PUBCHEM_CACTVS_HBOND_ACCEPTOR>
3

> <PUBCHEM_CACTVS_HBOND_DONOR>
2

> <PUBCHEM_CACTVS_ROTATABLE_BOND>
0

> <PUBCHEM_CACTVS_SUBSKEYS>
AAADceB4MAAAAAAAAAAAAAAAAAAAAYAAAAAwYMAAAAAAAGDAAAAAGgAACAAADxSggAICAAAAAgAIAIAQAAAAAAAAAAAAAAEAAAAAEBIAAAAAQAAEAAAAAAGKyPCPgAAAAAAAAADAAAYAADAAAAAACAAAAA==

> <PUBCHEM_IUPAC_OPENEYE_NAME>
(3S)-3,11-dihydroxy-10,13-dimethyl-1,2,3,4,5,6,7,8,9,11,12,14,15,16-tetradecahydrocyclopenta[a]phenanthren-17-one

> <PUBCHEM_IUPAC_CAS_NAME>
(3S)-3,11-dihydroxy-10,13-dimethyl-1,2,3,4,5,6,7,8,9,11,12,14,15,16-tetradecahydrocyclopenta[a]phenanthren-17-one

> <PUBCHEM_IUPAC_NAME>
(3S)-3,11-dihydroxy-10,13-dimethyl-1,2,3,4,5,6,7,8,9,11,12,14,15,16-tetradecahydrocyclopenta[a]phenanthren-17-one

> <PUBCHEM_IUPAC_SYSTEMATIC_NAME>
(3S)-10,13-dimethyl-3,11-bis(oxidanyl)-1,2,3,4,5,6,7,8,9,11,12,14,15,16-tetradecahydrocyclopenta[a]phenanthren-17-one

> <PUBCHEM_IUPAC_TRADITIONAL_NAME>
(3S)-3,11-dihydroxy-10,13-dimethyl-1,2,3,4,5,6,7,8,9,11,12,14,15,16-tetradecahydrocyclopenta[a]phenanthren-17-one

> <PUBCHEM_IUPAC_INCHI>
InChI=1S/C19H30O3/c1-18-8-7-12(20)9-11(18)3-4-13-14-5-6-16(22)19(14,2)10-15(21)17(13)18/h11-15,17,20-21H,3-10H2,1-2H3/t11?,12-,13?,14?,15?,17?,18?,19?/m0/s1

> <PUBCHEM_IUPAC_INCHIKEY>
PIXFHVWJOVNKQK-HJJNUGAVSA-N

> <PUBCHEM_XLOGP3>
2.5

> <PUBCHEM_EXACT_MASS>
306.219495

> <PUBCHEM_MOLECULAR_FORMULA>
C19H30O3

> <PUBCHEM_MOLECULAR_WEIGHT>
306.4397

> <PUBCHEM_OPENEYE_CAN_SMILES>
CC12CCC(CC1CCC3C2C(CC4(C3CCC4=O)C)O)O

> <PUBCHEM_OPENEYE_ISO_SMILES>
CC12CC[C@@H](CC1CCC3C2C(CC4(C3CCC4=O)C)O)O

> <PUBCHEM_CACTVS_TPSA>
57.5

> <PUBCHEM_MONOISOTOPIC_WEIGHT>
306.219495

> <PUBCHEM_TOTAL_CHARGE>
0

> <PUBCHEM_HEAVY_ATOM_COUNT>
22

> <PUBCHEM_ATOM_DEF_STEREO_COUNT>
1

> <PUBCHEM_ATOM_UDEF_STEREO_COUNT>
7

> <PUBCHEM_BOND_DEF_STEREO_COUNT>
0

> <PUBCHEM_BOND_UDEF_STEREO_COUNT>
0

> <PUBCHEM_ISOTOPIC_ATOM_COUNT>
0

> <PUBCHEM_COMPONENT_COUNT>
1

> <PUBCHEM_CACTVS_TAUTO_COUNT>
2

> <PUBCHEM_COORDINATE_TYPE>
1
5
255

> <PUBCHEM_BONDANNOTATIONS>
10  27  3
21  2  5
4  23  3
5  17  3
6  24  3
7  25  3
8  22  3
9  26  3

$$$$

