72725
  -OEChem-07051212463D

 24 26  0     0  0  0  0  0  0999 V2000
    0.6426   -1.4463    0.0000 O   0  0  0  0  0  0  0  0  0  0  0  0
   -4.0650   -1.3945   -0.0011 O   0  0  0  0  0  0  0  0  0  0  0  0
    0.5416    1.4217   -0.0003 N   0  0  0  0  0  0  0  0  0  0  0  0
   -4.2565    1.3453    0.0006 N   0  0  0  0  0  0  0  0  0  0  0  0
   -0.5510    0.7213   -0.0003 C   0  0  0  0  0  0  0  0  0  0  0  0
   -0.5627   -0.7628    0.0000 C   0  0  0  0  0  0  0  0  0  0  0  0
    1.7527    0.7101    0.0000 C   0  0  0  0  0  0  0  0  0  0  0  0
    1.7895   -0.6893    0.0002 C   0  0  0  0  0  0  0  0  0  0  0  0
   -1.8642    1.4060   -0.0001 C   0  0  0  0  0  0  0  0  0  0  0  0
   -1.7180   -1.4317    0.0004 C   0  0  0  0  0  0  0  0  0  0  0  0
   -3.0299    0.7472    0.0003 C   0  0  0  0  0  0  0  0  0  0  0  0
   -3.0249   -0.7422    0.0002 C   0  0  0  0  0  0  0  0  0  0  0  0
    2.9603    1.4159   -0.0001 C   0  0  0  0  0  0  0  0  0  0  0  0
    3.0053   -1.3751    0.0005 C   0  0  0  0  0  0  0  0  0  0  0  0
    4.1790    0.7341   -0.0002 C   0  0  0  0  0  0  0  0  0  0  0  0
    4.2011   -0.6598   -0.0001 C   0  0  0  0  0  0  0  0  0  0  0  0
   -1.8444    2.4923   -0.0002 H   0  0  0  0  0  0  0  0  0  0  0  0
   -1.7342   -2.5168    0.0006 H   0  0  0  0  0  0  0  0  0  0  0  0
    2.9596    2.5032   -0.0003 H   0  0  0  0  0  0  0  0  0  0  0  0
    3.0272   -2.4613    0.0006 H   0  0  0  0  0  0  0  0  0  0  0  0
    5.1114    1.2913   -0.0005 H   0  0  0  0  0  0  0  0  0  0  0  0
    5.1502   -1.1879   -0.0001 H   0  0  0  0  0  0  0  0  0  0  0  0
   -5.0951    0.7783    0.0004 H   0  0  0  0  0  0  0  0  0  0  0  0
   -4.3268    2.3552    0.0003 H   0  0  0  0  0  0  0  0  0  0  0  0
  1  6  1  0  0  0  0
  1  8  1  0  0  0  0
  2 12  2  0  0  0  0
  3  5  2  0  0  0  0
  3  7  1  0  0  0  0
  4 11  1  0  0  0  0
  4 23  1  0  0  0  0
  4 24  1  0  0  0  0
  5  6  1  0  0  0  0
  5  9  1  0  0  0  0
  6 10  2  0  0  0  0
  7  8  1  0  0  0  0
  7 13  2  0  0  0  0
  8 14  2  0  0  0  0
  9 11  2  0  0  0  0
  9 17  1  0  0  0  0
 10 12  1  0  0  0  0
 10 18  1  0  0  0  0
 11 12  1  0  0  0  0
 13 15  1  0  0  0  0
 13 19  1  0  0  0  0
 14 16  1  0  0  0  0
 14 20  1  0  0  0  0
 15 16  2  0  0  0  0
 15 21  1  0  0  0  0
 16 22  1  0  0  0  0
M  END
> <PUBCHEM_COMPOUND_CID>
72725

> <PUBCHEM_CONFORMER_RMSD>
0.4

> <PUBCHEM_CONFORMER_DIVERSEORDER>
1

> <PUBCHEM_MMFF94_PARTIAL_CHARGES>
24
1 -0.16
10 -0.14
11 0.11
12 0.54
13 -0.15
14 -0.15
15 -0.15
16 -0.15
17 0.15
18 0.15
19 0.15
2 -0.57
20 0.15
21 0.15
22 0.15
23 0.4
24 0.4
3 -0.63
4 -0.9
5 0.42
6 0.09
7 0.18
8 0.08
9 -0.14

> <PUBCHEM_EFFECTIVE_ROTOR_COUNT>
0

> <PUBCHEM_PHARMACOPHORE_FEATURES>
8
1 1 acceptor
1 2 acceptor
1 3 acceptor
1 4 cation
1 4 donor
6 1 3 5 6 7 8 rings
6 5 6 9 10 11 12 rings
6 7 8 13 14 15 16 rings

> <PUBCHEM_HEAVY_ATOM_COUNT>
16

> <PUBCHEM_ATOM_DEF_STEREO_COUNT>
0

> <PUBCHEM_ATOM_UDEF_STEREO_COUNT>
0

> <PUBCHEM_BOND_DEF_STEREO_COUNT>
0

> <PUBCHEM_BOND_UDEF_STEREO_COUNT>
0

> <PUBCHEM_ISOTOPIC_ATOM_COUNT>
0

> <PUBCHEM_COMPONENT_COUNT>
1

> <PUBCHEM_CACTVS_TAUTO_COUNT>
3

> <PUBCHEM_CONFORMER_ID>
00011C1500000001

> <PUBCHEM_MMFF94_ENERGY>
44.5269

> <PUBCHEM_FEATURE_SELFOVERLAP>
40.665

> <PUBCHEM_SHAPE_FINGERPRINT>
10062212 137 18409457993882217243
10411042 1 15672666501310845024
10608611 8 18410296899763562584
10616163 171 18408884001452125870
10967382 1 18338516460033518470
11132069 177 18410296925496209344
11471102 20 18410015459410029196
11806522 49 18339926996065963599
12032990 46 18409726266245251214
13221675 6 18410576197202156822
13296908 3 18410855460175770982
13380535 76 18409729586017815070
14144814 61 18410856564114150530
14325111 11 18410855455865044384
15196674 1 18410855460186190566
15219456 202 18408603664635876142
15442244 35 18194402418946123826
15536298 74 18335138691888822022
16945 1 18194965368693660750
17802600 8 18410297986289756376
17804303 29 18408600361901094444
18186145 218 18060705013095963678
18522853 276 18408041797030044233
19422 9 18411697681771738940
200 152 18040443178855000301
20510252 161 18260827107250694329
20645477 70 18334859467005937718
21267235 1 18410846646892635406
21501502 16 18410856555350097028
221490 88 18340478981152449122
23402539 116 18334021591947995564
23402655 69 18335703861976611564
23463225 33 18412826893425440428
23559900 14 18335423512887915762
2748010 2 18410573981125528838
2871803 45 18343309141119886279
3312278 4 18408321094669416913
335352 9 18266741470411491966
4214541 1 18410855468749816353
474 4 17130419087340076396
4990 188 18113889477569476820
5104073 3 18410856559703094072
69090 78 18335425676934183143
7364860 26 18264489675267904646
77779 3 18410854360627083524
8809292 202 18343860009124575867
9709674 26 18410287004232993062

> <PUBCHEM_SHAPE_MULTIPOLES>
307.57
7.98
1.79
0.59
0.13
0.02
0
-0.19
0
0.34
0
-0.04
0
0

> <PUBCHEM_SHAPE_SELFOVERLAP>
689.008

> <PUBCHEM_SHAPE_VOLUME>
160.2

> <PUBCHEM_COORDINATE_TYPE>
2
5
10

$$$$

