13559439
  -OEChem-07051212583D

 54 55  0     1  0  0  0  0  0999 V2000
   -3.1791   -0.0924    0.3267 O   0  0  0  0  0  0  0  0  0  0  0  0
   -0.6278   -2.2109    0.1785 O   0  0  0  0  0  0  0  0  0  0  0  0
    2.4095   -0.8002    0.2218 O   0  0  0  0  0  0  0  0  0  0  0  0
   -2.8626   -2.6741    0.5358 O   0  0  0  0  0  0  0  0  0  0  0  0
    3.1165   -0.1178    2.3126 O   0  0  0  0  0  0  0  0  0  0  0  0
   -2.4528    1.1206    0.0930 C   0  0  2  0  0  0  0  0  0  0  0  0
   -1.7605   -0.1540    0.5286 C   0  0  2  0  0  0  0  0  0  0  0  0
   -0.9749   -0.9808   -0.4519 C   0  0  1  0  0  0  0  0  0  0  0  0
    0.2983   -0.2348   -0.9421 C   0  0  1  0  0  0  0  0  0  0  0  0
   -2.6502    2.2224    1.0965 C   0  0  0  0  0  0  0  0  0  0  0  0
   -2.5426    1.5188   -1.3423 C   0  0  0  0  0  0  0  0  0  0  0  0
    1.2969    0.0940    0.2163 C   0  0  2  0  0  0  0  0  0  0  0  0
    0.9660   -0.9867   -2.1010 C   0  0  0  0  0  0  0  0  0  0  0  0
   -1.5220    3.2741    1.0390 C   0  0  0  0  0  0  0  0  0  0  0  0
    1.8555    1.5381    0.1469 C   0  0  0  0  0  0  0  0  0  0  0  0
   -0.0591   -1.3103   -3.1815 C   0  0  0  0  0  0  0  0  0  0  0  0
    2.1163   -0.1651   -2.6712 C   0  0  0  0  0  0  0  0  0  0  0  0
   -0.1750    2.6065    1.0954 C   0  0  0  0  0  0  0  0  0  0  0  0
    0.7755    2.6076    0.1395 C   0  0  0  0  0  0  0  0  0  0  0  0
   -1.6767   -2.9612    0.6270 C   0  0  0  0  0  0  0  0  0  0  0  0
    0.7905    3.5200   -1.0549 C   0  0  0  0  0  0  0  0  0  0  0  0
    3.3340   -0.5849    1.2028 C   0  0  0  0  0  0  0  0  0  0  0  0
   -1.1639   -4.2181    1.2623 C   0  0  0  0  0  0  0  0  0  0  0  0
    4.6882   -1.0108    0.7222 C   0  0  0  0  0  0  0  0  0  0  0  0
   -1.4087   -0.2279    1.5500 H   0  0  0  0  0  0  0  0  0  0  0  0
   -1.6345   -1.2137   -1.2919 H   0  0  0  0  0  0  0  0  0  0  0  0
   -0.0576    0.7086   -1.3598 H   0  0  0  0  0  0  0  0  0  0  0  0
   -2.6987    1.8045    2.1108 H   0  0  0  0  0  0  0  0  0  0  0  0
   -3.6134    2.7172    0.9228 H   0  0  0  0  0  0  0  0  0  0  0  0
   -1.7244    2.1786   -1.6370 H   0  0  0  0  0  0  0  0  0  0  0  0
   -2.5517    0.6665   -2.0278 H   0  0  0  0  0  0  0  0  0  0  0  0
   -3.4763    2.0657   -1.5174 H   0  0  0  0  0  0  0  0  0  0  0  0
    0.7901   -0.0378    1.1778 H   0  0  0  0  0  0  0  0  0  0  0  0
    1.3736   -1.9435   -1.7507 H   0  0  0  0  0  0  0  0  0  0  0  0
   -1.6210    3.9578    1.8897 H   0  0  0  0  0  0  0  0  0  0  0  0
   -1.6483    3.8767    0.1359 H   0  0  0  0  0  0  0  0  0  0  0  0
    2.4993    1.6522   -0.7315 H   0  0  0  0  0  0  0  0  0  0  0  0
    2.5170    1.7717    0.9882 H   0  0  0  0  0  0  0  0  0  0  0  0
    0.4424   -1.6439   -4.0976 H   0  0  0  0  0  0  0  0  0  0  0  0
   -0.6667   -0.4382   -3.4452 H   0  0  0  0  0  0  0  0  0  0  0  0
   -0.7187   -2.1342   -2.8925 H   0  0  0  0  0  0  0  0  0  0  0  0
    2.4919   -0.6293   -3.5909 H   0  0  0  0  0  0  0  0  0  0  0  0
    1.7966    0.8488   -2.9339 H   0  0  0  0  0  0  0  0  0  0  0  0
    2.9776   -0.1020   -2.0041 H   0  0  0  0  0  0  0  0  0  0  0  0
   -0.0496    1.9343    1.9430 H   0  0  0  0  0  0  0  0  0  0  0  0
    0.0625    4.3316   -0.9898 H   0  0  0  0  0  0  0  0  0  0  0  0
    0.5973    2.9598   -1.9744 H   0  0  0  0  0  0  0  0  0  0  0  0
    1.7748    3.9928   -1.1447 H   0  0  0  0  0  0  0  0  0  0  0  0
   -0.5251   -3.9686    2.1133 H   0  0  0  0  0  0  0  0  0  0  0  0
   -0.6118   -4.8068    0.5254 H   0  0  0  0  0  0  0  0  0  0  0  0
   -2.0080   -4.8130    1.6227 H   0  0  0  0  0  0  0  0  0  0  0  0
    4.9850   -0.4010   -0.1347 H   0  0  0  0  0  0  0  0  0  0  0  0
    4.6704   -2.0701    0.4537 H   0  0  0  0  0  0  0  0  0  0  0  0
    5.4190   -0.8677    1.5233 H   0  0  0  0  0  0  0  0  0  0  0  0
  1  6  1  0  0  0  0
  1  7  1  0  0  0  0
  2  8  1  0  0  0  0
  2 20  1  0  0  0  0
  3 12  1  0  0  0  0
  3 22  1  0  0  0  0
  4 20  2  0  0  0  0
  5 22  2  0  0  0  0
  6  7  1  0  0  0  0
  6 10  1  0  0  0  0
  6 11  1  0  0  0  0
  7  8  1  0  0  0  0
  7 25  1  0  0  0  0
  8  9  1  0  0  0  0
  8 26  1  0  0  0  0
  9 12  1  0  0  0  0
  9 13  1  0  0  0  0
  9 27  1  0  0  0  0
 10 14  1  0  0  0  0
 10 28  1  0  0  0  0
 10 29  1  0  0  0  0
 11 30  1  0  0  0  0
 11 31  1  0  0  0  0
 11 32  1  0  0  0  0
 12 15  1  0  0  0  0
 12 33  1  0  0  0  0
 13 16  1  0  0  0  0
 13 17  1  0  0  0  0
 13 34  1  0  0  0  0
 14 18  1  0  0  0  0
 14 35  1  0  0  0  0
 14 36  1  0  0  0  0
 15 19  1  0  0  0  0
 15 37  1  0  0  0  0
 15 38  1  0  0  0  0
 16 39  1  0  0  0  0
 16 40  1  0  0  0  0
 16 41  1  0  0  0  0
 17 42  1  0  0  0  0
 17 43  1  0  0  0  0
 17 44  1  0  0  0  0
 18 19  2  0  0  0  0
 18 45  1  0  0  0  0
 19 21  1  0  0  0  0
 20 23  1  0  0  0  0
 21 46  1  0  0  0  0
 21 47  1  0  0  0  0
 21 48  1  0  0  0  0
 22 24  1  0  0  0  0
 23 49  1  0  0  0  0
 23 50  1  0  0  0  0
 23 51  1  0  0  0  0
 24 52  1  0  0  0  0
 24 53  1  0  0  0  0
 24 54  1  0  0  0  0
M  END
> <PUBCHEM_COMPOUND_CID>
13559439

> <PUBCHEM_CONFORMER_RMSD>
0.8

> <PUBCHEM_CONFORMER_DIVERSEORDER>
1
6
4
5
7
3
2

> <PUBCHEM_MMFF94_PARTIAL_CHARGES>
22
1 -0.3
10 0.09
11 0.09
12 0.28
14 0.14
15 0.14
18 -0.29
19 -0.28
2 -0.43
20 0.66
21 0.14
22 0.66
23 0.06
24 0.06
25 0.1
3 -0.43
4 -0.57
45 0.15
5 -0.57
6 -0.04
7 -0.05
8 0.38

> <PUBCHEM_EFFECTIVE_ROTOR_COUNT>
6.4

> <PUBCHEM_PHARMACOPHORE_FEATURES>
4
1 1 acceptor
1 4 acceptor
1 5 acceptor
3 13 16 17 hydrophobe

> <PUBCHEM_HEAVY_ATOM_COUNT>
24

> <PUBCHEM_ATOM_DEF_STEREO_COUNT>
5

> <PUBCHEM_ATOM_UDEF_STEREO_COUNT>
0

> <PUBCHEM_BOND_DEF_STEREO_COUNT>
1

> <PUBCHEM_BOND_UDEF_STEREO_COUNT>
0

> <PUBCHEM_ISOTOPIC_ATOM_COUNT>
0

> <PUBCHEM_COMPONENT_COUNT>
1

> <PUBCHEM_CACTVS_TAUTO_COUNT>
1

> <PUBCHEM_CONFORMER_ID>
00CEE68F00000001

> <PUBCHEM_MMFF94_ENERGY>
69.1225

> <PUBCHEM_FEATURE_SELFOVERLAP>
20.308

> <PUBCHEM_SHAPE_FINGERPRINT>
10382601 240 17613426066708114617
10906281 52 18187072975556688873
1100329 8 18411703149845511875
11578080 2 17415303644711683413
12633257 1 18336815404150675363
12716301 132 18122312861482251019
13140716 1 18336260133577543825
14178342 30 18120082038647639841
14223421 5 17909836426907217954
14251745 187 17681249372811336324
14713325 29 17612825463003444540
16728300 4 17414453975864236867
16945 1 18335415798425103613
20511035 2 18116725014393265833
20600515 1 18337385045600080200
20691752 17 18049145954616807597
20905425 154 17905596714492198397
21421861 104 17769372725742908787
229495 10 14965381555344520112
23184049 29 18268429027444642011
23419403 2 15018059350478073393
25222932 49 16680905537444536287
2748010 2 17822274786893739454
3380486 77 18342736355712501745
394222 165 16840739717512401044
484985 159 17196050314859817818
5845 1 15002422366827491734
81228 2 18116694395713597169

> <PUBCHEM_SHAPE_MULTIPOLES>
464.56
5.02
4.49
2.26
3.59
2.04
1.83
-0.6
-2.19
-2.83
-1.59
1.37
0.54
0.11

> <PUBCHEM_SHAPE_SELFOVERLAP>
940.404

> <PUBCHEM_SHAPE_VOLUME>
268.6

> <PUBCHEM_COORDINATE_TYPE>
2
5
10

$$$$

