15385747
  -OEChem-07051213102D

 42 45  0     1  0  0  0  0  0999 V2000
    5.5986    1.6828    0.0000 Br  0  0  0  0  0  0  0  0  0  0  0  0
    2.0005   -1.8172    0.0000 Br  0  0  0  0  0  0  0  0  0  0  0  0
    3.2326   -2.6832    0.0000 Cl  0  0  0  0  0  0  0  0  0  0  0  0
    2.0000    1.1828    0.0000 O   0  0  0  0  0  0  0  0  0  0  0  0
    4.5988    2.6832    0.0000 O   0  0  0  0  0  0  0  0  0  0  0  0
    5.5383   -0.6592    0.0000 O   0  0  0  0  0  0  0  0  0  0  0  0
    3.7326    0.1828    0.0000 C   0  0  2  0  0  0  0  0  0  0  0  0
    2.8665    0.6828    0.0000 C   0  0  1  0  0  0  0  0  0  0  0  0
    2.8665    1.6828    0.0000 C   0  0  1  0  0  0  0  0  0  0  0  0
    4.5986    0.6828    0.0000 C   0  0  0  0  0  0  0  0  0  0  0  0
    3.7326    2.1828    0.0000 C   0  0  2  0  0  0  0  0  0  0  0  0
    4.5986    1.6828    0.0000 C   0  0  2  0  0  0  0  0  0  0  0  0
    4.5986   -0.3172    0.0000 C   0  0  2  0  0  0  0  0  0  0  0  0
    2.8665   -0.3172    0.0000 C   0  0  0  0  0  0  0  0  0  0  0  0
    2.0006    0.1827    0.0000 C   0  0  0  0  0  0  0  0  0  0  0  0
    5.5986    0.6828    0.0000 C   0  0  0  0  0  0  0  0  0  0  0  0
    5.3646    0.0400    0.0000 C   0  0  0  0  0  0  0  0  0  0  0  0
    4.5986   -1.3172    0.0000 C   0  0  0  0  0  0  0  0  0  0  0  0
    2.8665   -1.3172    0.0000 C   0  0  1  0  0  0  0  0  0  0  0  0
    3.7326   -1.8172    0.0000 C   0  0  1  0  0  0  0  0  0  0  0  0
    4.2326   -2.6832    0.0000 C   0  0  0  0  0  0  0  0  0  0  0  0
    2.4416    2.4190    0.0000 H   0  0  0  0  0  0  0  0  0  0  0  0
    3.4225    2.7197    0.0000 H   0  0  0  0  0  0  0  0  0  0  0  0
    4.8606    0.2447    0.0000 H   0  0  0  0  0  0  0  0  0  0  0  0
    2.6545    0.2654    0.0000 H   0  0  0  0  0  0  0  0  0  0  0  0
    2.2560   -0.4249    0.0000 H   0  0  0  0  0  0  0  0  0  0  0  0
    1.6905    0.7196    0.0000 H   0  0  0  0  0  0  0  0  0  0  0  0
    1.4637   -0.1273    0.0000 H   0  0  0  0  0  0  0  0  0  0  0  0
    2.3106   -0.3542    0.0000 H   0  0  0  0  0  0  0  0  0  0  0  0
    5.5986    0.0628    0.0000 H   0  0  0  0  0  0  0  0  0  0  0  0
    6.2186    0.6828    0.0000 H   0  0  0  0  0  0  0  0  0  0  0  0
    5.5986    1.3028    0.0000 H   0  0  0  0  0  0  0  0  0  0  0  0
    4.9661   -0.4349    0.0000 H   0  0  0  0  0  0  0  0  0  0  0  0
    5.8396   -0.3585    0.0000 H   0  0  0  0  0  0  0  0  0  0  0  0
    5.7632    0.5150    0.0000 H   0  0  0  0  0  0  0  0  0  0  0  0
    4.8106   -1.8998    0.0000 H   0  0  0  0  0  0  0  0  0  0  0  0
    5.2092   -1.2095    0.0000 H   0  0  0  0  0  0  0  0  0  0  0  0
    2.8665   -1.9372    0.0000 H   0  0  0  0  0  0  0  0  0  0  0  0
    5.6459   -1.2698    0.0000 H   0  0  0  0  0  0  0  0  0  0  0  0
    3.6956   -2.9932    0.0000 H   0  0  0  0  0  0  0  0  0  0  0  0
    4.5426   -3.2202    0.0000 H   0  0  0  0  0  0  0  0  0  0  0  0
    4.7695   -2.3732    0.0000 H   0  0  0  0  0  0  0  0  0  0  0  0
 12  1  1  6  0  0  0
 19  2  1  1  0  0  0
 20  3  1  6  0  0  0
  4  8  1  0  0  0  0
  4  9  1  0  0  0  0
 11  5  1  1  0  0  0
  5 12  1  0  0  0  0
 13  6  1  1  0  0  0
  6 39  1  0  0  0  0
  7  8  1  0  0  0  0
  7 10  1  0  0  0  0
  7 13  1  0  0  0  0
  7 14  1  1  0  0  0
  8  9  1  0  0  0  0
  8 15  1  1  0  0  0
  9 11  1  0  0  0  0
  9 22  1  1  0  0  0
 10 12  1  0  0  0  0
 10 16  1  0  0  0  0
 10 17  1  0  0  0  0
 11 12  1  0  0  0  0
 11 23  1  0  0  0  0
 13 18  1  0  0  0  0
 13 24  1  0  0  0  0
 14 19  1  0  0  0  0
 14 25  1  0  0  0  0
 14 26  1  0  0  0  0
 15 27  1  0  0  0  0
 15 28  1  0  0  0  0
 15 29  1  0  0  0  0
 16 30  1  0  0  0  0
 16 31  1  0  0  0  0
 16 32  1  0  0  0  0
 17 33  1  0  0  0  0
 17 34  1  0  0  0  0
 17 35  1  0  0  0  0
 18 20  1  0  0  0  0
 18 36  1  0  0  0  0
 18 37  1  0  0  0  0
 19 20  1  0  0  0  0
 19 38  1  0  0  0  0
 20 21  1  0  0  0  0
 21 40  1  0  0  0  0
 21 41  1  0  0  0  0
 21 42  1  0  0  0  0
M  END
> <PUBCHEM_COMPOUND_CID>
15385747

> <PUBCHEM_COMPOUND_CANONICALIZED>
1

> <PUBCHEM_CACTVS_COMPLEXITY>
531

> <PUBCHEM_CACTVS_HBOND_ACCEPTOR>
3

> <PUBCHEM_CACTVS_HBOND_DONOR>
1

> <PUBCHEM_CACTVS_ROTATABLE_BOND>
0

> <PUBCHEM_CACTVS_SUBSKEYS>
AAADceBwMAAEGAAAAAAAAAAAEiQAAAAAAAAwYAAABIkAAAAAAAAAGgJACAABzlaggAICAAAABgAAAAAAAAAAAAAAAAAAAAAAAiABEAIBAAACQAAFAAACAAHA4PwPgAAAAAAAAADOIAYzADGIBAAAAAAAAA==

> <PUBCHEM_IUPAC_INCHI>
InChI=1S/C15H21Br2ClO3/c1-11(2)14(5-7(16)12(3,18)6-8(14)19)13(4)9(20-13)10-15(11,17)21-10/h7-10,19H,5-6H2,1-4H3/t7-,8-,9+,10+,12-,13+,14-,15+/m0/s1

> <PUBCHEM_IUPAC_INCHIKEY>
AHEAISCIGHPMGI-WJZNTHCVSA-N

> <PUBCHEM_XLOGP3_AA>
3.2

> <PUBCHEM_EXACT_MASS>
443.95255

> <PUBCHEM_MOLECULAR_FORMULA>
C15H21Br2ClO3

> <PUBCHEM_MOLECULAR_WEIGHT>
444.58644

> <PUBCHEM_OPENEYE_CAN_SMILES>
CC1(C2(CC(C(CC2O)(C)Cl)Br)C3(C(O3)C4C1(O4)Br)C)C

> <PUBCHEM_OPENEYE_ISO_SMILES>
C[C@@]1(C[C@@H]([C@]2(C[C@@H]1Br)[C@]3([C@H](O3)[C@@H]4[C@](C2(C)C)(O4)Br)C)O)Cl

> <PUBCHEM_CACTVS_TPSA>
45.3

> <PUBCHEM_MONOISOTOPIC_WEIGHT>
441.954596

> <PUBCHEM_TOTAL_CHARGE>
0

> <PUBCHEM_HEAVY_ATOM_COUNT>
21

> <PUBCHEM_ATOM_DEF_STEREO_COUNT>
8

> <PUBCHEM_ATOM_UDEF_STEREO_COUNT>
0

> <PUBCHEM_BOND_DEF_STEREO_COUNT>
0

> <PUBCHEM_BOND_UDEF_STEREO_COUNT>
0

> <PUBCHEM_ISOTOPIC_ATOM_COUNT>
0

> <PUBCHEM_COMPONENT_COUNT>
1

> <PUBCHEM_CACTVS_TAUTO_COUNT>
1

> <PUBCHEM_COORDINATE_TYPE>
1
5
255

> <PUBCHEM_BONDANNOTATIONS>
12  1  6
19  2  5
20  3  6
11  5  5
13  6  5
7  14  5
8  15  5
9  22  5

$$$$

