8442
  -OEChem-07051213133D

 50 51  0     1  0  0  0  0  0999 V2000
   -0.4167    2.7050   -0.2386 S   0  0  1  0  0  0  0  0  0  0  0  0
   -0.7916    3.6869    0.8275 O   0  0  0  0  0  0  0  0  0  0  0  0
    6.3143   -0.4395   -0.1605 O   0  0  0  0  0  0  0  0  0  0  0  0
    5.5657   -2.6145    0.5585 O   0  0  0  0  0  0  0  0  0  0  0  0
   -3.5951    0.0687    0.1102 C   0  0  0  0  0  0  0  0  0  0  0  0
    1.2097    2.0349    0.1794 C   0  0  1  0  0  0  0  0  0  0  0  0
   -2.8184    1.3606   -0.1539 C   0  0  0  0  0  0  0  0  0  0  0  0
   -5.0962    0.2704   -0.1082 C   0  0  0  0  0  0  0  0  0  0  0  0
   -1.3294    1.1688    0.1020 C   0  0  0  0  0  0  0  0  0  0  0  0
   -5.9205   -1.0007    0.1209 C   0  0  0  0  0  0  0  0  0  0  0  0
    1.6958    1.1501   -0.9787 C   0  0  0  0  0  0  0  0  0  0  0  0
   -7.4245   -0.7901   -0.0727 C   0  0  0  0  0  0  0  0  0  0  0  0
    2.7089    0.1136   -0.5581 C   0  0  0  0  0  0  0  0  0  0  0  0
    2.1566    3.1947    0.4770 C   0  0  0  0  0  0  0  0  0  0  0  0
   -8.2394   -2.0750    0.0968 C   0  0  0  0  0  0  0  0  0  0  0  0
    4.0708    0.4228   -0.5885 C   0  0  0  0  0  0  0  0  0  0  0  0
    2.2723   -1.1553   -0.1387 C   0  0  0  0  0  0  0  0  0  0  0  0
    4.9589   -0.5572   -0.1949 C   0  0  0  0  0  0  0  0  0  0  0  0
   -9.7372   -1.8687   -0.0682 C   0  0  0  0  0  0  0  0  0  0  0  0
    4.5315   -1.7992    0.2156 C   0  0  0  0  0  0  0  0  0  0  0  0
    3.1926   -2.1298    0.2550 C   0  0  0  0  0  0  0  0  0  0  0  0
    6.6921   -1.7464    0.3182 C   0  0  0  0  0  0  0  0  0  0  0  0
    1.1008    1.4464    1.0981 H   0  0  0  0  0  0  0  0  0  0  0  0
   -3.2307   -0.7233   -0.5550 H   0  0  0  0  0  0  0  0  0  0  0  0
   -3.4185   -0.2657    1.1396 H   0  0  0  0  0  0  0  0  0  0  0  0
   -2.9820    1.6809   -1.1907 H   0  0  0  0  0  0  0  0  0  0  0  0
   -3.2080    2.1600    0.4889 H   0  0  0  0  0  0  0  0  0  0  0  0
   -5.2687    0.6276   -1.1311 H   0  0  0  0  0  0  0  0  0  0  0  0
   -5.4566    1.0567    0.5667 H   0  0  0  0  0  0  0  0  0  0  0  0
   -1.1581    0.8895    1.1470 H   0  0  0  0  0  0  0  0  0  0  0  0
   -0.9552    0.3668   -0.5372 H   0  0  0  0  0  0  0  0  0  0  0  0
   -5.7375   -1.3719    1.1368 H   0  0  0  0  0  0  0  0  0  0  0  0
   -5.5734   -1.7802   -0.5686 H   0  0  0  0  0  0  0  0  0  0  0  0
    0.8811    0.6215   -1.4856 H   0  0  0  0  0  0  0  0  0  0  0  0
    2.1310    1.7773   -1.7698 H   0  0  0  0  0  0  0  0  0  0  0  0
   -7.6061   -0.3810   -1.0742 H   0  0  0  0  0  0  0  0  0  0  0  0
   -7.7778   -0.0396    0.6450 H   0  0  0  0  0  0  0  0  0  0  0  0
    3.1453    2.8303    0.7718 H   0  0  0  0  0  0  0  0  0  0  0  0
    1.7866    3.8131    1.3022 H   0  0  0  0  0  0  0  0  0  0  0  0
    2.2835    3.8468   -0.3946 H   0  0  0  0  0  0  0  0  0  0  0  0
   -7.9013   -2.8188   -0.6344 H   0  0  0  0  0  0  0  0  0  0  0  0
   -8.0488   -2.4969    1.0909 H   0  0  0  0  0  0  0  0  0  0  0  0
    4.4256    1.3950   -0.9130 H   0  0  0  0  0  0  0  0  0  0  0  0
    1.2108   -1.3896   -0.1144 H   0  0  0  0  0  0  0  0  0  0  0  0
   -9.9700   -1.4814   -1.0652 H   0  0  0  0  0  0  0  0  0  0  0  0
  -10.1174   -1.1592    0.6734 H   0  0  0  0  0  0  0  0  0  0  0  0
  -10.2686   -2.8166    0.0624 H   0  0  0  0  0  0  0  0  0  0  0  0
    2.8599   -3.1093    0.5794 H   0  0  0  0  0  0  0  0  0  0  0  0
    7.2508   -1.6294    1.2540 H   0  0  0  0  0  0  0  0  0  0  0  0
    7.3455   -2.2172   -0.4252 H   0  0  0  0  0  0  0  0  0  0  0  0
  1  2  2  0  0  0  0
  1  6  1  0  0  0  0
  1  9  1  0  0  0  0
  3 18  1  0  0  0  0
  3 22  1  0  0  0  0
  4 20  1  0  0  0  0
  4 22  1  0  0  0  0
  5  7  1  0  0  0  0
  5  8  1  0  0  0  0
  5 24  1  0  0  0  0
  5 25  1  0  0  0  0
  6 11  1  0  0  0  0
  6 14  1  0  0  0  0
  6 23  1  0  0  0  0
  7  9  1  0  0  0  0
  7 26  1  0  0  0  0
  7 27  1  0  0  0  0
  8 10  1  0  0  0  0
  8 28  1  0  0  0  0
  8 29  1  0  0  0  0
  9 30  1  0  0  0  0
  9 31  1  0  0  0  0
 10 12  1  0  0  0  0
 10 32  1  0  0  0  0
 10 33  1  0  0  0  0
 11 13  1  0  0  0  0
 11 34  1  0  0  0  0
 11 35  1  0  0  0  0
 12 15  1  0  0  0  0
 12 36  1  0  0  0  0
 12 37  1  0  0  0  0
 13 16  2  0  0  0  0
 13 17  1  0  0  0  0
 14 38  1  0  0  0  0
 14 39  1  0  0  0  0
 14 40  1  0  0  0  0
 15 19  1  0  0  0  0
 15 41  1  0  0  0  0
 15 42  1  0  0  0  0
 16 18  1  0  0  0  0
 16 43  1  0  0  0  0
 17 21  2  0  0  0  0
 17 44  1  0  0  0  0
 18 20  2  0  0  0  0
 19 45  1  0  0  0  0
 19 46  1  0  0  0  0
 19 47  1  0  0  0  0
 20 21  1  0  0  0  0
 21 48  1  0  0  0  0
 22 49  1  0  0  0  0
 22 50  1  0  0  0  0
M  END
> <PUBCHEM_COMPOUND_CID>
8442

> <PUBCHEM_CONFORMER_RMSD>
1.4

> <PUBCHEM_CONFORMER_DIVERSEORDER>
1
41
34
14
94
47
8
3
74
7
61
73
37
5
29
69
55
11
50
56
93
2
45
24
90
82
87
51
75
17
31
91
60
76
35
42
15
70
80
26
13
16
63
59
57
65
33
53
19
68
43
22
72
25
12
38
71
84
62
21
30
66
86
64
23
20
27
28
49
81
48
52
6
67
44
10
83
40
89
58
9
18
54
79
39
32
46
77
92
78
4
85
88
36

> <PUBCHEM_MMFF94_PARTIAL_CHARGES>
17
1 0.11
11 0.14
13 -0.14
16 -0.15
17 -0.15
18 0.08
2 -0.5
20 0.08
21 -0.15
22 0.56
3 -0.36
4 -0.36
43 0.15
44 0.15
48 0.15
6 0.19
9 0.19

> <PUBCHEM_EFFECTIVE_ROTOR_COUNT>
10.6

> <PUBCHEM_PHARMACOPHORE_FEATURES>
8
1 19 hydrophobe
1 2 acceptor
1 3 acceptor
1 4 acceptor
3 10 12 15 hydrophobe
3 5 7 8 hydrophobe
5 3 4 18 20 22 rings
6 13 16 17 18 20 21 rings

> <PUBCHEM_HEAVY_ATOM_COUNT>
22

> <PUBCHEM_ATOM_DEF_STEREO_COUNT>
0

> <PUBCHEM_ATOM_UDEF_STEREO_COUNT>
2

> <PUBCHEM_BOND_DEF_STEREO_COUNT>
0

> <PUBCHEM_BOND_UDEF_STEREO_COUNT>
0

> <PUBCHEM_ISOTOPIC_ATOM_COUNT>
0

> <PUBCHEM_COMPONENT_COUNT>
1

> <PUBCHEM_CACTVS_TAUTO_COUNT>
1

> <PUBCHEM_CONFORMER_ID>
000020FA00000001

> <PUBCHEM_MMFF94_ENERGY>
29.2286

> <PUBCHEM_FEATURE_SELFOVERLAP>
40.761

> <PUBCHEM_SHAPE_FINGERPRINT>
10 15 6699811991133319431
10411042 1 18410011065427045792
10753850 27 18412546513723555473
11409948 8 18335433323067974472
12166972 35 18060134353544462204
12592606 108 18410013226792114631
12838863 1 18130514127742046138
13533116 47 18261955129615406889
13631057 29 18341048631444736744
13685833 64 18410573972899668897
13955234 65 18117843200666017561
14216079 64 18411982447606138423
14919807 6 17774177786053340183
15019793 15 17905888077143890931
15183329 4 16200436888110589573
15927050 60 17901671462956702004
17134984 74 17418096511541704659
17492 89 18050287269799819254
20028762 73 18337390543068983566
20165401 70 18263647261121199127
20526848 3 9151173156168959607
20771845 171 17988358149365283356
21049683 271 18412540982017545564
21197605 99 18408885161599938342
21267235 1 18408318899735270518
21344244 78 16660637441251447681
21360443 89 18201446935002786586
23522609 53 18123151755033381485
23524908 199 12247411120032494648
23569914 152 10591203643159204426
3004659 81 18060702796797886825
33532 11 18339079286461880663
3421961 26 18408605829431957289
397830 11 7637120403842382669
439807 62 18343299254653621775
46194498 28 17274542023209848117
465052 167 18333448746474515373
5104073 3 18040998474739766792
5718773 13 18412263947920097087
6438161 24 18411984633670664955
96874 4 18335424548112639039

> <PUBCHEM_SHAPE_MULTIPOLES>
438.99
23.6
3.63
0.75
53.41
2.33
0.04
-26.33
-0.45
-1.78
-0.81
-0.26
0.16
-0.54

> <PUBCHEM_SHAPE_SELFOVERLAP>
869.3

> <PUBCHEM_SHAPE_VOLUME>
264.7

> <PUBCHEM_COORDINATE_TYPE>
2
5
10

$$$$

