443602
  -OEChem-07051213023D

 61 63  0     1  0  0  0  0  0999 V2000
   -2.7181   -0.6890   -1.6583 O   0  0  0  0  0  0  0  0  0  0  0  0
   -0.6164    2.4533    1.5946 O   0  0  0  0  0  0  0  0  0  0  0  0
   -2.6506    0.3282    0.4223 N   0  0  0  0  0  0  0  0  0  0  0  0
    0.2388    1.2084   -0.2016 N   0  0  0  0  0  0  0  0  0  0  0  0
   -4.9015   -1.9300    0.1696 N   0  0  0  0  0  0  0  0  0  0  0  0
   -3.5705    6.2434   -1.1674 N   0  0  0  0  0  0  0  0  0  0  0  0
   -2.1382    1.5837   -0.0642 C   0  0  1  0  0  0  0  0  0  0  0  0
   -3.0693    2.7525    0.2734 C   0  0  0  0  0  0  0  0  0  0  0  0
   -2.8427    3.9630   -0.6390 C   0  0  0  0  0  0  0  0  0  0  0  0
   -3.4428   -2.0493    0.1817 C   0  0  2  0  0  0  0  0  0  0  0  0
   -2.9119   -0.7528   -0.4396 C   0  0  0  0  0  0  0  0  0  0  0  0
   -0.7618    1.7980    0.5665 C   0  0  0  0  0  0  0  0  0  0  0  0
   -3.0385   -3.2868   -0.6409 C   0  0  0  0  0  0  0  0  0  0  0  0
   -2.8844    0.2416    1.8676 C   0  0  0  0  0  0  0  0  0  0  0  0
   -3.8148    5.0939   -0.3044 C   0  0  0  0  0  0  0  0  0  0  0  0
   -1.6521   -3.7823   -0.2971 C   0  0  0  0  0  0  0  0  0  0  0  0
    1.6303    1.1943    0.0563 C   0  0  0  0  0  0  0  0  0  0  0  0
    2.4976    0.5538   -0.8290 C   0  0  0  0  0  0  0  0  0  0  0  0
   -0.5448   -3.2920   -0.9893 C   0  0  0  0  0  0  0  0  0  0  0  0
   -1.4802   -4.7294    0.7125 C   0  0  0  0  0  0  0  0  0  0  0  0
    3.8806    0.5300   -0.5864 C   0  0  0  0  0  0  0  0  0  0  0  0
    2.1326    1.8191    1.1940 C   0  0  0  0  0  0  0  0  0  0  0  0
    4.3915    1.1654    0.5704 C   0  0  0  0  0  0  0  0  0  0  0  0
    3.5040    1.8057    1.4506 C   0  0  0  0  0  0  0  0  0  0  0  0
    0.7344   -3.7489   -0.6722 C   0  0  0  0  0  0  0  0  0  0  0  0
   -0.2009   -5.1862    1.0296 C   0  0  0  0  0  0  0  0  0  0  0  0
    4.7680   -0.1100   -1.4670 C   0  0  0  0  0  0  0  0  0  0  0  0
    5.7747    1.1416    0.8129 C   0  0  0  0  0  0  0  0  0  0  0  0
    0.9063   -4.6959    0.3373 C   0  0  0  0  0  0  0  0  0  0  0  0
    6.1392   -0.1240   -1.2104 C   0  0  0  0  0  0  0  0  0  0  0  0
    6.6415    0.5005   -0.0725 C   0  0  0  0  0  0  0  0  0  0  0  0
   -2.0282    1.5320   -1.1537 H   0  0  0  0  0  0  0  0  0  0  0  0
   -2.9760    3.0770    1.3162 H   0  0  0  0  0  0  0  0  0  0  0  0
   -4.1107    2.4263    0.1468 H   0  0  0  0  0  0  0  0  0  0  0  0
   -1.8100    4.3170   -0.5297 H   0  0  0  0  0  0  0  0  0  0  0  0
   -2.9727    3.6621   -1.6862 H   0  0  0  0  0  0  0  0  0  0  0  0
   -3.0976   -2.1719    1.2116 H   0  0  0  0  0  0  0  0  0  0  0  0
   -3.7374   -4.1126   -0.4446 H   0  0  0  0  0  0  0  0  0  0  0  0
   -3.1096   -3.1098   -1.7219 H   0  0  0  0  0  0  0  0  0  0  0  0
   -2.8274    1.2100    2.3669 H   0  0  0  0  0  0  0  0  0  0  0  0
   -3.8706   -0.1788    2.0714 H   0  0  0  0  0  0  0  0  0  0  0  0
   -2.1210   -0.4146    2.2974 H   0  0  0  0  0  0  0  0  0  0  0  0
   -3.6914    5.4004    0.7398 H   0  0  0  0  0  0  0  0  0  0  0  0
   -4.8489    4.7560   -0.4334 H   0  0  0  0  0  0  0  0  0  0  0  0
   -0.0446    0.7136   -1.0446 H   0  0  0  0  0  0  0  0  0  0  0  0
   -5.3171   -2.7614    0.5882 H   0  0  0  0  0  0  0  0  0  0  0  0
   -5.2000   -1.1451    0.7451 H   0  0  0  0  0  0  0  0  0  0  0  0
   -3.7099    5.9774   -2.1414 H   0  0  0  0  0  0  0  0  0  0  0  0
   -4.2587    6.9681   -0.9679 H   0  0  0  0  0  0  0  0  0  0  0  0
    2.0956    0.0664   -1.7161 H   0  0  0  0  0  0  0  0  0  0  0  0
   -0.6625   -2.5566   -1.7801 H   0  0  0  0  0  0  0  0  0  0  0  0
   -2.3344   -5.1172    1.2612 H   0  0  0  0  0  0  0  0  0  0  0  0
    1.5260    2.3312    1.9273 H   0  0  0  0  0  0  0  0  0  0  0  0
    3.8757    2.2994    2.3462 H   0  0  0  0  0  0  0  0  0  0  0  0
    1.5966   -3.3665   -1.2108 H   0  0  0  0  0  0  0  0  0  0  0  0
   -0.0668   -5.9229    1.8162 H   0  0  0  0  0  0  0  0  0  0  0  0
    4.3976   -0.6050   -2.3624 H   0  0  0  0  0  0  0  0  0  0  0  0
    6.1895    1.6233    1.6958 H   0  0  0  0  0  0  0  0  0  0  0  0
    1.9024   -5.0511    0.5847 H   0  0  0  0  0  0  0  0  0  0  0  0
    6.8148   -0.6227   -1.8993 H   0  0  0  0  0  0  0  0  0  0  0  0
    7.7092    0.4892    0.1266 H   0  0  0  0  0  0  0  0  0  0  0  0
  1 11  2  0  0  0  0
  2 12  2  0  0  0  0
  3  7  1  0  0  0  0
  3 11  1  0  0  0  0
  3 14  1  0  0  0  0
  4 12  1  0  0  0  0
  4 17  1  0  0  0  0
  4 45  1  0  0  0  0
  5 10  1  0  0  0  0
  5 46  1  0  0  0  0
  5 47  1  0  0  0  0
  6 15  1  0  0  0  0
  6 48  1  0  0  0  0
  6 49  1  0  0  0  0
  7  8  1  0  0  0  0
  7 12  1  0  0  0  0
  7 32  1  0  0  0  0
  8  9  1  0  0  0  0
  8 33  1  0  0  0  0
  8 34  1  0  0  0  0
  9 15  1  0  0  0  0
  9 35  1  0  0  0  0
  9 36  1  0  0  0  0
 10 11  1  0  0  0  0
 10 13  1  0  0  0  0
 10 37  1  0  0  0  0
 13 16  1  0  0  0  0
 13 38  1  0  0  0  0
 13 39  1  0  0  0  0
 14 40  1  0  0  0  0
 14 41  1  0  0  0  0
 14 42  1  0  0  0  0
 15 43  1  0  0  0  0
 15 44  1  0  0  0  0
 16 19  2  0  0  0  0
 16 20  1  0  0  0  0
 17 18  2  0  0  0  0
 17 22  1  0  0  0  0
 18 21  1  0  0  0  0
 18 50  1  0  0  0  0
 19 25  1  0  0  0  0
 19 51  1  0  0  0  0
 20 26  2  0  0  0  0
 20 52  1  0  0  0  0
 21 23  1  0  0  0  0
 21 27  2  0  0  0  0
 22 24  2  0  0  0  0
 22 53  1  0  0  0  0
 23 24  1  0  0  0  0
 23 28  2  0  0  0  0
 24 54  1  0  0  0  0
 25 29  2  0  0  0  0
 25 55  1  0  0  0  0
 26 29  1  0  0  0  0
 26 56  1  0  0  0  0
 27 30  1  0  0  0  0
 27 57  1  0  0  0  0
 28 31  1  0  0  0  0
 28 58  1  0  0  0  0
 29 59  1  0  0  0  0
 30 31  2  0  0  0  0
 30 60  1  0  0  0  0
 31 61  1  0  0  0  0
M  END
> <PUBCHEM_COMPOUND_CID>
443602

> <PUBCHEM_CONFORMER_RMSD>
1.2

> <PUBCHEM_CONFORMER_DIVERSEORDER>
1
64
136
85
128
72
16
124
27
38
119
55
98
65
95
118
46
92
134
3
139
114
138
63
21
80
37
125
117
107
133
47
77
110
112
113
131
78
48
126
24
11
137
83
23
39
61
9
43
130
45
67
132
41
60
101
44
25
116
29
127
94
50
7
108
14
57
54
87
22
88
129
36
96
135
42
13
105
19
121
40
90
70
102
53
4
97
73
51
122
109
26
17
76
6
32
49
103
66
8
86
34
31
68
111
20
35
56
104
91
75
18
12
84
30
81
120
93
74
58
52
100
10
115
15
28
123
79
106
62
89
99
5
2
71
82
33
59
69

> <PUBCHEM_MMFF94_PARTIAL_CHARGES>
44
1 -0.57
10 0.33
11 0.57
12 0.57
13 0.14
14 0.3
15 0.27
16 -0.14
17 0.12
18 -0.15
19 -0.15
2 -0.57
20 -0.15
22 -0.15
24 -0.15
25 -0.15
26 -0.15
27 -0.15
28 -0.15
29 -0.15
3 -0.66
30 -0.15
31 -0.15
4 -0.55
45 0.37
46 0.36
47 0.36
48 0.36
49 0.36
5 -0.99
50 0.15
51 0.15
52 0.15
53 0.15
54 0.15
55 0.15
56 0.15
57 0.15
58 0.15
59 0.15
6 -0.99
60 0.15
61 0.15
7 0.36

> <PUBCHEM_EFFECTIVE_ROTOR_COUNT>
11

> <PUBCHEM_PHARMACOPHORE_FEATURES>
10
1 1 acceptor
1 2 acceptor
1 4 donor
1 5 cation
1 5 donor
1 6 cation
1 6 donor
6 16 19 20 25 26 29 rings
6 17 18 21 22 23 24 rings
6 21 23 27 28 30 31 rings

> <PUBCHEM_HEAVY_ATOM_COUNT>
31

> <PUBCHEM_ATOM_DEF_STEREO_COUNT>
2

> <PUBCHEM_ATOM_UDEF_STEREO_COUNT>
0

> <PUBCHEM_BOND_DEF_STEREO_COUNT>
0

> <PUBCHEM_BOND_UDEF_STEREO_COUNT>
0

> <PUBCHEM_ISOTOPIC_ATOM_COUNT>
0

> <PUBCHEM_COMPONENT_COUNT>
1

> <PUBCHEM_CACTVS_TAUTO_COUNT>
2

> <PUBCHEM_CONFORMER_ID>
0006C4D200000001

> <PUBCHEM_MMFF94_ENERGY>
85.1401

> <PUBCHEM_FEATURE_SELFOVERLAP>
50.769

> <PUBCHEM_SHAPE_FINGERPRINT>
10675989 125 17544754994243516636
11056379 131 18411417285059244660
11756154 5 18125158234619671818
11828532 37 17549546206166511786
13402501 40 18115864105737530086
14114206 34 18193577587240214807
14251757 5 18124586488815743342
14363568 33 16539593000597009638
14659021 117 18266747883135528408
14725015 67 18335704888474210847
15230672 131 18196367238316020294
15351339 4 18409737291337311642
15361156 5 18043528305540598676
15439362 3 17692535923989984237
15927050 60 18191308380667604077
15968369 26 18043242643361210342
16719943 64 18410856529918637490
167882 2 17763182840562096693
17627616 140 18267017435478872922
19311894 1 18123471579240075114
19611394 137 18043540405001964288
20771845 165 17767960201015005348
21033648 29 18335148634929121136
24771750 20 17762056945166707565
3027735 51 18408608076115999747
3298306 158 18120090838528902060
3383291 50 18121501245971759227
4058900 60 18048304833060046540
4435113 14 17678990809036044638
508706 21 18335129865800094542
5265222 85 18339626911354987084
613672 6 17688891742938712330
9961470 85 18048329026610773186

> <PUBCHEM_SHAPE_MULTIPOLES>
606.3
11.4
8.43
1.36
18.91
0.54
-0.15
-5.65
1.48
-13.2
0.63
0.35
-0.23
1.58

> <PUBCHEM_SHAPE_SELFOVERLAP>
1283.094

> <PUBCHEM_SHAPE_VOLUME>
337.3

> <PUBCHEM_COORDINATE_TYPE>
2
5
10

$$$$

