440343
  -OEChem-07051212493D

 25 25  0     1  0  0  0  0  0999 V2000
   -2.3468    1.9649    0.7427 O   0  0  0  0  0  0  0  0  0  0  0  0
    1.3815    1.0988   -1.4629 O   0  0  0  0  0  0  0  0  0  0  0  0
   -3.8641    0.0629   -0.6200 O   0  0  0  0  0  0  0  0  0  0  0  0
    2.9012    1.6888    0.1227 O   0  0  0  0  0  0  0  0  0  0  0  0
   -0.0395   -0.7648    0.4957 N   0  3  0  0  0  0  0  0  0  0  0  0
    3.7032   -0.9652    0.2006 N   0  0  0  0  0  0  0  0  0  0  0  0
    1.3545   -1.0703    0.8989 C   0  0  0  0  0  0  0  0  0  0  0  0
    2.3295   -0.6626   -0.2045 C   0  0  1  0  0  0  0  0  0  0  0  0
   -0.5295    0.4318    0.8035 C   0  0  0  0  0  0  0  0  0  0  0  0
   -0.7203   -1.7044   -0.1526 C   0  0  0  0  0  0  0  0  0  0  0  0
   -1.8303    0.7456    0.4364 C   0  0  0  0  0  0  0  0  0  0  0  0
    2.2697    0.8268   -0.4721 C   0  0  0  0  0  0  0  0  0  0  0  0
   -2.0261   -1.4460   -0.5441 C   0  0  0  0  0  0  0  0  0  0  0  0
   -2.5830   -0.2064   -0.2444 C   0  0  0  0  0  0  0  0  0  0  0  0
    1.4161   -2.1436    1.1179 H   0  0  0  0  0  0  0  0  0  0  0  0
    1.5517   -0.5393    1.8393 H   0  0  0  0  0  0  0  0  0  0  0  0
    2.1159   -1.2018   -1.1346 H   0  0  0  0  0  0  0  0  0  0  0  0
    0.1092    1.1194    1.3447 H   0  0  0  0  0  0  0  0  0  0  0  0
   -0.2258   -2.6454   -0.3593 H   0  0  0  0  0  0  0  0  0  0  0  0
   -2.5969   -2.2008   -1.0754 H   0  0  0  0  0  0  0  0  0  0  0  0
    4.3380   -0.7748   -0.5741 H   0  0  0  0  0  0  0  0  0  0  0  0
    3.7886   -1.9616    0.3984 H   0  0  0  0  0  0  0  0  0  0  0  0
   -1.6720    2.4839    1.2133 H   0  0  0  0  0  0  0  0  0  0  0  0
    1.3152    2.0612   -1.6406 H   0  0  0  0  0  0  0  0  0  0  0  0
   -4.0845    0.9655   -0.3309 H   0  0  0  0  0  0  0  0  0  0  0  0
  1 11  1  0  0  0  0
  1 23  1  0  0  0  0
  2 12  1  0  0  0  0
  2 24  1  0  0  0  0
  3 14  1  0  0  0  0
  3 25  1  0  0  0  0
  4 12  2  0  0  0  0
  5  7  1  0  0  0  0
  5  9  2  0  0  0  0
  5 10  1  0  0  0  0
  6  8  1  0  0  0  0
  6 21  1  0  0  0  0
  6 22  1  0  0  0  0
  7  8  1  0  0  0  0
  7 15  1  0  0  0  0
  7 16  1  0  0  0  0
  8 12  1  0  0  0  0
  8 17  1  0  0  0  0
  9 11  1  0  0  0  0
  9 18  1  0  0  0  0
 10 13  2  0  0  0  0
 10 19  1  0  0  0  0
 11 14  2  0  0  0  0
 13 14  1  0  0  0  0
 13 20  1  0  0  0  0
M  CHG  1   5   1
M  END
> <PUBCHEM_COMPOUND_CID>
440343

> <PUBCHEM_CONFORMER_RMSD>
0.6

> <PUBCHEM_CONFORMER_DIVERSEORDER>
1
7
4
9
5
8
3
10
2
6

> <PUBCHEM_MMFF94_PARTIAL_CHARGES>
22
1 -0.53
10 0.21
11 0.08
12 0.66
13 -0.15
14 0.08
18 0.15
19 0.15
2 -0.65
20 0.15
21 0.36
22 0.36
23 0.45
24 0.5
25 0.45
3 -0.53
4 -0.57
5 -0.21
6 -0.99
7 0.49
8 0.33
9 0.21

> <PUBCHEM_EFFECTIVE_ROTOR_COUNT>
3

> <PUBCHEM_PHARMACOPHORE_FEATURES>
8
1 1 donor
1 2 acceptor
1 3 donor
1 4 acceptor
1 6 cation
1 6 donor
3 2 4 12 anion
6 5 9 10 11 13 14 rings

> <PUBCHEM_HEAVY_ATOM_COUNT>
14

> <PUBCHEM_ATOM_DEF_STEREO_COUNT>
1

> <PUBCHEM_ATOM_UDEF_STEREO_COUNT>
0

> <PUBCHEM_BOND_DEF_STEREO_COUNT>
0

> <PUBCHEM_BOND_UDEF_STEREO_COUNT>
0

> <PUBCHEM_ISOTOPIC_ATOM_COUNT>
0

> <PUBCHEM_COMPONENT_COUNT>
1

> <PUBCHEM_CACTVS_TAUTO_COUNT>
8

> <PUBCHEM_CONFORMER_ID>
0006B81700000001

> <PUBCHEM_MMFF94_ENERGY>
28.5726

> <PUBCHEM_FEATURE_SELFOVERLAP>
40.656

> <PUBCHEM_SHAPE_FINGERPRINT>
12162725 195 18335420175138988668
12491281 212 18339912779644923696
12897270 3 18187922807660118686
14250199 8 18341327816781853100
14993402 34 18342738571857578142
15775835 57 18341888576180705580
16945 1 18335976545081524555
18186145 218 17988651787140151967
20645476 183 18342749528535759295
20653085 51 18337940285728171443
23402539 116 17968390021175501781
23552423 10 18411142449854034330
23557571 272 17825381890842750422
23559900 14 18113341895320374178
353137 74 18410858724625203193
5084963 1 18131070432800024963
7364860 26 18334860528411401234
8030462 33 18340194203192705636
9939556 21 18409166619142928926
9981440 41 17765158268094467768

> <PUBCHEM_SHAPE_MULTIPOLES>
254.67
5.4
1.77
0.96
0.53
0.23
-0.09
0.59
-0.65
-0.02
0.07
0.06
0.13
-0.69

> <PUBCHEM_SHAPE_SELFOVERLAP>
530.169

> <PUBCHEM_SHAPE_VOLUME>
145.1

> <PUBCHEM_COORDINATE_TYPE>
2
5
10

$$$$

