3032417
  -OEChem-07051213092D

 16 17  0     0  0  0  0  0  0999 V2000
    3.7320   -1.8100    0.0000 S   0  0  0  0  0  0  0  0  0  0  0  0
    7.1279    0.1900    0.0000 O   0  0  0  0  0  0  0  0  0  0  0  0
    2.0000    1.1900    0.0000 O   0  0  0  0  0  0  0  0  0  0  0  0
    5.5443   -0.6147    0.0000 N   0  0  0  0  0  0  0  0  0  0  0  0
    5.5443    0.9947    0.0000 N   0  0  0  0  0  0  0  0  0  0  0  0
    3.7320    1.1900    0.0000 N   0  0  0  0  0  0  0  0  0  0  0  0
    2.8660   -0.3100    0.0000 N   0  0  0  0  0  0  0  0  0  0  0  0
    4.5981   -0.3100    0.0000 C   0  0  0  0  0  0  0  0  0  0  0  0
    4.5981    0.6900    0.0000 C   0  0  0  0  0  0  0  0  0  0  0  0
    3.7320   -0.8100    0.0000 C   0  0  0  0  0  0  0  0  0  0  0  0
    6.1279    0.1900    0.0000 C   0  0  0  0  0  0  0  0  0  0  0  0
    2.8660    0.6900    0.0000 C   0  0  0  0  0  0  0  0  0  0  0  0
    5.7369   -1.2040    0.0000 H   0  0  0  0  0  0  0  0  0  0  0  0
    5.7369    1.5840    0.0000 H   0  0  0  0  0  0  0  0  0  0  0  0
    3.7320    1.8100    0.0000 H   0  0  0  0  0  0  0  0  0  0  0  0
    2.3291   -0.6200    0.0000 H   0  0  0  0  0  0  0  0  0  0  0  0
  1 10  2  0  0  0  0
  2 11  2  0  0  0  0
  3 12  2  0  0  0  0
  4  8  1  0  0  0  0
  4 11  1  0  0  0  0
  4 13  1  0  0  0  0
  5  9  1  0  0  0  0
  5 11  1  0  0  0  0
  5 14  1  0  0  0  0
  6  9  1  0  0  0  0
  6 12  1  0  0  0  0
  6 15  1  0  0  0  0
  7 10  1  0  0  0  0
  7 12  1  0  0  0  0
  7 16  1  0  0  0  0
  8  9  2  0  0  0  0
  8 10  1  0  0  0  0
M  END
> <PUBCHEM_COMPOUND_CID>
3032417

> <PUBCHEM_COMPOUND_CANONICALIZED>
1

> <PUBCHEM_CACTVS_COMPLEXITY>
334

> <PUBCHEM_CACTVS_HBOND_ACCEPTOR>
3

> <PUBCHEM_CACTVS_HBOND_DONOR>
4

> <PUBCHEM_CACTVS_ROTATABLE_BOND>
0

> <PUBCHEM_CACTVS_SUBSKEYS>
AAADcYBjsABAAAAAAAAAAAAAAAAAAQAAAAAgAAAAAAAAAFgAAAAADgQQAAAACAgBQAABAALAAACMAARAUACAAAAAAAkAAAAAAACAQAAAAAAQAAAIBQIAAAAAAAAAAAAAAAAAAAAAAAAAAAAAAAAAAAAAAA==

> <PUBCHEM_IUPAC_OPENEYE_NAME>
6-thioxo-7,9-dihydro-3H-purine-2,8-dione

> <PUBCHEM_IUPAC_CAS_NAME>
6-sulfanylidene-7,9-dihydro-3H-purine-2,8-dione

> <PUBCHEM_IUPAC_NAME>
6-sulfanylidene-7,9-dihydro-3H-purine-2,8-dione

> <PUBCHEM_IUPAC_SYSTEMATIC_NAME>
6-sulfanylidene-7,9-dihydro-3H-purine-2,8-dione

> <PUBCHEM_IUPAC_TRADITIONAL_NAME>
6-thioxo-7,9-dihydro-3H-purine-2,8-quinone

> <PUBCHEM_IUPAC_INCHI>
InChI=1S/C5H4N4O2S/c10-4-6-1-2(7-4)8-5(11)9-3(1)12/h(H4,6,7,8,9,10,11,12)

> <PUBCHEM_IUPAC_INCHIKEY>
SXHQUGJSTGOXMD-UHFFFAOYSA-N

> <PUBCHEM_XLOGP3_AA>
-1.3

> <PUBCHEM_EXACT_MASS>
184.005496

> <PUBCHEM_MOLECULAR_FORMULA>
C5H4N4O2S

> <PUBCHEM_MOLECULAR_WEIGHT>
184.17586

> <PUBCHEM_OPENEYE_CAN_SMILES>
C12=C(NC(=O)N1)NC(=O)NC2=S

> <PUBCHEM_OPENEYE_ISO_SMILES>
C12=C(NC(=O)N1)NC(=O)NC2=S

> <PUBCHEM_CACTVS_TPSA>
114

> <PUBCHEM_MONOISOTOPIC_WEIGHT>
184.005496

> <PUBCHEM_TOTAL_CHARGE>
0

> <PUBCHEM_HEAVY_ATOM_COUNT>
12

> <PUBCHEM_ATOM_DEF_STEREO_COUNT>
0

> <PUBCHEM_ATOM_UDEF_STEREO_COUNT>
0

> <PUBCHEM_BOND_DEF_STEREO_COUNT>
0

> <PUBCHEM_BOND_UDEF_STEREO_COUNT>
0

> <PUBCHEM_ISOTOPIC_ATOM_COUNT>
0

> <PUBCHEM_COMPONENT_COUNT>
1

> <PUBCHEM_CACTVS_TAUTO_COUNT>
43

> <PUBCHEM_COORDINATE_TYPE>
1
5
255

> <PUBCHEM_BONDANNOTATIONS>
4  11  8
4  8  8
5  11  8
5  9  8
6  12  8
6  9  8
7  10  8
7  12  8
8  10  8
8  9  8

$$$$

