439972
  -OEChem-07051212483D

 51 54  0     1  0  0  0  0  0999 V2000
   -4.0251    0.2316   -1.8138 O   0  0  0  0  0  0  0  0  0  0  0  0
   -4.4917    2.4987   -1.5798 O   0  0  0  0  0  0  0  0  0  0  0  0
   -2.1814   -3.0920   -0.7887 O   0  0  0  0  0  0  0  0  0  0  0  0
   -1.9018   -2.4653    1.4222 O   0  0  0  0  0  0  0  0  0  0  0  0
    0.1156   -0.8260    1.9508 N   0  0  0  0  0  0  0  0  0  0  0  0
    2.0896   -0.1584   -1.1585 N   0  0  0  0  0  0  0  0  0  0  0  0
    0.1929   -0.5123    0.5037 C   0  0  1  0  0  0  0  0  0  0  0  0
   -2.1973    0.3240    0.5027 C   0  0  1  0  0  0  0  0  0  0  0  0
   -0.7412    0.6413    0.1333 C   0  0  0  0  0  0  0  0  0  0  0  0
    1.6053   -0.2205    0.1166 C   0  0  0  0  0  0  0  0  0  0  0  0
   -3.1952    1.4633    0.1727 C   0  0  2  0  0  0  0  0  0  0  0  0
    2.6402    0.0367    0.9892 C   0  0  0  0  0  0  0  0  0  0  0  0
    2.4274    0.0103    2.4616 C   0  0  0  0  0  0  0  0  0  0  0  0
    0.9217    0.0751    2.7952 C   0  0  0  0  0  0  0  0  0  0  0  0
   -2.6395   -0.9188   -0.2152 C   0  0  0  0  0  0  0  0  0  0  0  0
   -3.5123    1.4861   -1.3387 C   0  0  1  0  0  0  0  0  0  0  0  0
    3.8081    0.2711    0.2144 C   0  0  0  0  0  0  0  0  0  0  0  0
    3.4350    0.1448   -1.1288 C   0  0  0  0  0  0  0  0  0  0  0  0
   -2.7361    2.7983    0.6808 C   0  0  0  0  0  0  0  0  0  0  0  0
   -3.4810   -0.8923   -1.2544 C   0  0  0  0  0  0  0  0  0  0  0  0
    5.1503    0.5742    0.5190 C   0  0  0  0  0  0  0  0  0  0  0  0
   -2.1972   -2.2312    0.2606 C   0  0  0  0  0  0  0  0  0  0  0  0
    4.3425    0.3123   -2.1811 C   0  0  0  0  0  0  0  0  0  0  0  0
    6.0670    0.7434   -0.5249 C   0  0  0  0  0  0  0  0  0  0  0  0
    5.6671    0.6145   -1.8532 C   0  0  0  0  0  0  0  0  0  0  0  0
   -3.3953    3.5183    1.5949 C   0  0  0  0  0  0  0  0  0  0  0  0
   -1.7677   -4.4272   -0.4809 C   0  0  0  0  0  0  0  0  0  0  0  0
   -0.0473   -1.4098   -0.0695 H   0  0  0  0  0  0  0  0  0  0  0  0
   -2.2687    0.1607    1.5866 H   0  0  0  0  0  0  0  0  0  0  0  0
   -0.4038    1.5540    0.6381 H   0  0  0  0  0  0  0  0  0  0  0  0
   -0.6594    0.8472   -0.9425 H   0  0  0  0  0  0  0  0  0  0  0  0
   -4.1362    1.2101    0.6879 H   0  0  0  0  0  0  0  0  0  0  0  0
    0.4554   -1.7785    2.0914 H   0  0  0  0  0  0  0  0  0  0  0  0
    2.8516   -0.9183    2.8626 H   0  0  0  0  0  0  0  0  0  0  0  0
    2.9458    0.8478    2.9411 H   0  0  0  0  0  0  0  0  0  0  0  0
    0.7746   -0.1973    3.8464 H   0  0  0  0  0  0  0  0  0  0  0  0
    0.5563    1.1039    2.6922 H   0  0  0  0  0  0  0  0  0  0  0  0
   -2.6288    1.7417   -1.9351 H   0  0  0  0  0  0  0  0  0  0  0  0
    1.5476   -0.3061   -1.9990 H   0  0  0  0  0  0  0  0  0  0  0  0
   -1.8410    3.2338    0.2443 H   0  0  0  0  0  0  0  0  0  0  0  0
   -3.8791   -1.7567   -1.7697 H   0  0  0  0  0  0  0  0  0  0  0  0
    5.4772    0.6775    1.5498 H   0  0  0  0  0  0  0  0  0  0  0  0
    4.0335    0.2104   -3.2160 H   0  0  0  0  0  0  0  0  0  0  0  0
   -5.1515    2.4588   -0.8674 H   0  0  0  0  0  0  0  0  0  0  0  0
    7.1029    0.9780   -0.2948 H   0  0  0  0  0  0  0  0  0  0  0  0
    6.3960    0.7499   -2.6481 H   0  0  0  0  0  0  0  0  0  0  0  0
   -3.0232    4.4899    1.9010 H   0  0  0  0  0  0  0  0  0  0  0  0
   -4.3096    3.1571    2.0523 H   0  0  0  0  0  0  0  0  0  0  0  0
   -2.4532   -4.8783    0.2428 H   0  0  0  0  0  0  0  0  0  0  0  0
   -0.7437   -4.4261   -0.0950 H   0  0  0  0  0  0  0  0  0  0  0  0
   -1.7950   -5.0129   -1.4035 H   0  0  0  0  0  0  0  0  0  0  0  0
  1 16  1  0  0  0  0
  1 20  1  0  0  0  0
  2 16  1  0  0  0  0
  2 44  1  0  0  0  0
  3 22  1  0  0  0  0
  3 27  1  0  0  0  0
  4 22  2  0  0  0  0
  5  7  1  0  0  0  0
  5 14  1  0  0  0  0
  5 33  1  0  0  0  0
  6 10  1  0  0  0  0
  6 18  1  0  0  0  0
  6 39  1  0  0  0  0
  7  9  1  0  0  0  0
  7 10  1  0  0  0  0
  7 28  1  0  0  0  0
  8  9  1  0  0  0  0
  8 11  1  0  0  0  0
  8 15  1  0  0  0  0
  8 29  1  0  0  0  0
  9 30  1  0  0  0  0
  9 31  1  0  0  0  0
 10 12  2  0  0  0  0
 11 16  1  0  0  0  0
 11 19  1  0  0  0  0
 11 32  1  0  0  0  0
 12 13  1  0  0  0  0
 12 17  1  0  0  0  0
 13 14  1  0  0  0  0
 13 34  1  0  0  0  0
 13 35  1  0  0  0  0
 14 36  1  0  0  0  0
 14 37  1  0  0  0  0
 15 20  2  0  0  0  0
 15 22  1  0  0  0  0
 16 38  1  0  0  0  0
 17 18  1  0  0  0  0
 17 21  2  0  0  0  0
 18 23  2  0  0  0  0
 19 26  2  0  0  0  0
 19 40  1  0  0  0  0
 20 41  1  0  0  0  0
 21 24  1  0  0  0  0
 21 42  1  0  0  0  0
 23 25  1  0  0  0  0
 23 43  1  0  0  0  0
 24 25  2  0  0  0  0
 24 45  1  0  0  0  0
 25 46  1  0  0  0  0
 26 47  1  0  0  0  0
 26 48  1  0  0  0  0
 27 49  1  0  0  0  0
 27 50  1  0  0  0  0
 27 51  1  0  0  0  0
M  END
> <PUBCHEM_COMPOUND_CID>
439972

> <PUBCHEM_CONFORMER_RMSD>
0.8

> <PUBCHEM_CONFORMER_DIVERSEORDER>
1
2
5
3
6
4

> <PUBCHEM_MMFF94_PARTIAL_CHARGES>
36
1 -0.36
10 -0.33
11 0.14
12 -0.18
13 0.18
14 0.27
15 -0.12
16 0.56
18 -0.15
19 -0.29
2 -0.68
20 -0.07
21 -0.15
22 0.71
23 -0.15
24 -0.15
25 -0.15
26 -0.3
27 0.28
3 -0.43
33 0.36
39 0.27
4 -0.57
40 0.15
41 0.15
42 0.15
43 0.15
44 0.4
45 0.15
46 0.15
47 0.15
48 0.15
5 -0.9
6 0.03
7 0.45
8 0.14

> <PUBCHEM_EFFECTIVE_ROTOR_COUNT>
6.6

> <PUBCHEM_PHARMACOPHORE_FEATURES>
13
1 1 acceptor
1 2 acceptor
1 2 donor
1 26 hydrophobe
1 4 acceptor
1 5 cation
1 5 donor
1 6 cation
1 6 donor
5 6 10 12 17 18 rings
6 1 8 11 15 16 20 rings
6 17 18 21 23 24 25 rings
6 5 7 10 12 13 14 rings

> <PUBCHEM_HEAVY_ATOM_COUNT>
27

> <PUBCHEM_ATOM_DEF_STEREO_COUNT>
4

> <PUBCHEM_ATOM_UDEF_STEREO_COUNT>
0

> <PUBCHEM_BOND_DEF_STEREO_COUNT>
0

> <PUBCHEM_BOND_UDEF_STEREO_COUNT>
0

> <PUBCHEM_ISOTOPIC_ATOM_COUNT>
0

> <PUBCHEM_COMPONENT_COUNT>
1

> <PUBCHEM_CACTVS_TAUTO_COUNT>
1

> <PUBCHEM_CONFORMER_ID>
0006B6A400000001

> <PUBCHEM_MMFF94_ENERGY>
63.5344

> <PUBCHEM_FEATURE_SELFOVERLAP>
66.188

> <PUBCHEM_SHAPE_FINGERPRINT>
10366900 7 17821738225203553630
10369192 42 14619355651685825174
107951 10 18042673061376838263
11049842 53 18047764968271037690
11640471 11 17703239489323331867
11796584 16 18261947540656329134
12236239 1 17704079481873627034
12788726 201 18129671785870968075
133893 2 17620769705418487323
13544653 18 16298373653077101424
14114211 68 18191026918713360965
14251757 5 18338798910173793671
14713325 29 18268692979160864115
15064981 113 18266188399494846846
15163728 17 18126288786160511213
15324884 4 17462309940306142947
15463212 79 18273219685569680306
16752209 62 18269576999869017443
20511986 3 17488482843863562148
21033650 10 17604706806398179640
21756936 100 17417799630960160968
22122407 14 16701184247386621997
22907989 373 18337669703173710503
23366157 5 17619074271426255531
23557571 272 18116728325844452961
23559900 14 18116162086093821368
444769 64 16630530657325672936
46194498 28 17168443570513953312
469060 322 15840689787400120889
474 4 16486981699856768640
4921388 177 18261103045898509038
497634 4 16343419488467461930
5104073 3 15194716789646312436
5252454 2 17609778956933349809
6034566 193 18129096900324808701
633830 44 16917067768027081034

> <PUBCHEM_SHAPE_MULTIPOLES>
522.21
11.08
3.33
2.25
13.04
2.11
-0.6
-5.08
6.1
-6.84
-0.32
0.93
-0.43
-0.21

> <PUBCHEM_SHAPE_SELFOVERLAP>
1135.799

> <PUBCHEM_SHAPE_VOLUME>
279.1

> <PUBCHEM_COORDINATE_TYPE>
2
5
10

$$$$

