439882
  -OEChem-07051212472D

 65 68  0     1  0  0  0  0  0999 V2000
    3.5026   -1.5118    0.0000 O   0  0  0  0  0  0  0  0  0  0  0  0
    2.5576   -1.0503    0.0000 O   0  0  0  0  0  0  0  0  0  0  0  0
    3.2847    1.5564    0.0000 O   0  0  0  0  0  0  0  0  0  0  0  0
    5.2102    3.6611    0.0000 O   0  0  0  0  0  0  0  0  0  0  0  0
    4.3867    4.6444    0.0000 O   0  0  0  0  0  0  0  0  0  0  0  0
    4.4893   -2.9353    0.0000 O   0  0  0  0  0  0  0  0  0  0  0  0
    7.8653    1.5869    0.0000 O   0  0  0  0  0  0  0  0  0  0  0  0
    5.1805   -0.3487    0.0000 C   0  0  1  0  0  0  0  0  0  0  0  0
    4.3244   -0.9421    0.0000 C   0  0  1  0  0  0  0  0  0  0  0  0
    5.2667   -1.3873    0.0000 C   0  0  0  0  0  0  0  0  0  0  0  0
    5.0867    0.6887    0.0000 C   0  0  1  0  0  0  0  0  0  0  0  0
    3.3860   -0.4902    0.0000 C   0  0  1  0  0  0  0  0  0  0  0  0
    4.1857    1.1225    0.0000 C   0  0  1  0  0  0  0  0  0  0  0  0
    3.3161    0.5491    0.0000 C   0  0  2  0  0  0  0  0  0  0  0  0
    6.2633   -1.3048    0.0000 C   0  0  0  0  0  0  0  0  0  0  0  0
    4.8398   -2.2916    0.0000 C   0  0  0  0  0  0  0  0  0  0  0  0
    3.9632    2.0975    0.0000 C   0  0  1  0  0  0  0  0  0  0  0  0
    5.9876    1.1225    0.0000 C   0  0  0  0  0  0  0  0  0  0  0  0
    4.5867    2.8793    0.0000 C   0  0  1  0  0  0  0  0  0  0  0  0
    2.3181    0.4859    0.0000 C   0  0  0  0  0  0  0  0  0  0  0  0
    6.2102    2.0975    0.0000 C   0  0  0  0  0  0  0  0  0  0  0  0
    5.5867    2.8793    0.0000 C   0  0  0  0  0  0  0  0  0  0  0  0
    3.0334    2.4492    0.0000 C   0  0  0  0  0  0  0  0  0  0  0  0
    4.0369    3.7075    0.0000 C   0  0  0  0  0  0  0  0  0  0  0  0
    3.5850   -2.5084    0.0000 C   0  0  0  0  0  0  0  0  0  0  0  0
    3.0789    3.4422    0.0000 C   0  0  0  0  0  0  0  0  0  0  0  0
    7.1851    2.3200    0.0000 C   0  0  0  0  0  0  0  0  0  0  0  0
    2.7631   -3.0781    0.0000 C   0  0  0  0  0  0  0  0  0  0  0  0
    2.2970    4.0657    0.0000 C   0  0  0  0  0  0  0  0  0  0  0  0
    2.8455   -4.0747    0.0000 C   0  0  0  0  0  0  0  0  0  0  0  0
    2.0237   -4.6444    0.0000 C   0  0  0  0  0  0  0  0  0  0  0  0
    6.0274   -0.2753    0.0000 H   0  0  0  0  0  0  0  0  0  0  0  0
    5.8261    0.2693    0.0000 H   0  0  0  0  0  0  0  0  0  0  0  0
    2.8289   -0.2180    0.0000 H   0  0  0  0  0  0  0  0  0  0  0  0
    3.1193    1.1370    0.0000 H   0  0  0  0  0  0  0  0  0  0  0  0
    6.3144   -1.9227    0.0000 H   0  0  0  0  0  0  0  0  0  0  0  0
    6.8812   -1.2538    0.0000 H   0  0  0  0  0  0  0  0  0  0  0  0
    6.2122   -0.6870    0.0000 H   0  0  0  0  0  0  0  0  0  0  0  0
    4.2791   -2.0269    0.0000 H   0  0  0  0  0  0  0  0  0  0  0  0
    4.5751   -2.8522    0.0000 H   0  0  0  0  0  0  0  0  0  0  0  0
    5.4004   -2.5562    0.0000 H   0  0  0  0  0  0  0  0  0  0  0  0
    3.3224    1.5390    0.0000 H   0  0  0  0  0  0  0  0  0  0  0  0
    6.4724    0.7360    0.0000 H   0  0  0  0  0  0  0  0  0  0  0  0
    2.2790    1.1047    0.0000 H   0  0  0  0  0  0  0  0  0  0  0  0
    1.6994    0.4467    0.0000 H   0  0  0  0  0  0  0  0  0  0  0  0
    2.3573   -0.1329    0.0000 H   0  0  0  0  0  0  0  0  0  0  0  0
    2.0000   -0.7792    0.0000 H   0  0  0  0  0  0  0  0  0  0  0  0
    2.6665    1.5101    0.0000 H   0  0  0  0  0  0  0  0  0  0  0  0
    6.1453    3.1483    0.0000 H   0  0  0  0  0  0  0  0  0  0  0  0
    5.4487    3.4838    0.0000 H   0  0  0  0  0  0  0  0  0  0  0  0
    2.5154    2.1085    0.0000 H   0  0  0  0  0  0  0  0  0  0  0  0
    5.8232    3.5687    0.0000 H   0  0  0  0  0  0  0  0  0  0  0  0
    7.7059    2.6564    0.0000 H   0  0  0  0  0  0  0  0  0  0  0  0
    6.9443    2.8913    0.0000 H   0  0  0  0  0  0  0  0  0  0  0  0
    2.5038   -2.5149    0.0000 H   0  0  0  0  0  0  0  0  0  0  0  0
    2.1635   -3.2357    0.0000 H   0  0  0  0  0  0  0  0  0  0  0  0
    2.6836    4.5504    0.0000 H   0  0  0  0  0  0  0  0  0  0  0  0
    1.8123    4.4523    0.0000 H   0  0  0  0  0  0  0  0  0  0  0  0
    1.9105    3.5810    0.0000 H   0  0  0  0  0  0  0  0  0  0  0  0
    3.1049   -4.6378    0.0000 H   0  0  0  0  0  0  0  0  0  0  0  0
    3.4452   -3.9171    0.0000 H   0  0  0  0  0  0  0  0  0  0  0  0
    8.4697    1.7249    0.0000 H   0  0  0  0  0  0  0  0  0  0  0  0
    1.6705   -4.1348    0.0000 H   0  0  0  0  0  0  0  0  0  0  0  0
    1.5141   -4.9975    0.0000 H   0  0  0  0  0  0  0  0  0  0  0  0
    2.3768   -5.1539    0.0000 H   0  0  0  0  0  0  0  0  0  0  0  0
  9  1  1  1  0  0  0
  1 25  1  0  0  0  0
 12  2  1  6  0  0  0
  2 47  1  0  0  0  0
 13  3  1  1  0  0  0
  3 48  1  0  0  0  0
 19  4  1  6  0  0  0
  4 52  1  0  0  0  0
  5 24  2  0  0  0  0
  6 25  2  0  0  0  0
  7 27  1  0  0  0  0
  7 62  1  0  0  0  0
  8  9  1  0  0  0  0
  8 10  1  0  0  0  0
  8 11  1  0  0  0  0
  8 32  1  1  0  0  0
  9 10  1  0  0  0  0
  9 12  1  0  0  0  0
 10 15  1  0  0  0  0
 10 16  1  0  0  0  0
 11 13  1  0  0  0  0
 11 18  1  0  0  0  0
 11 33  1  6  0  0  0
 12 14  1  0  0  0  0
 12 34  1  0  0  0  0
 13 14  1  0  0  0  0
 13 17  1  0  0  0  0
 14 20  1  1  0  0  0
 14 35  1  0  0  0  0
 15 36  1  0  0  0  0
 15 37  1  0  0  0  0
 15 38  1  0  0  0  0
 16 39  1  0  0  0  0
 16 40  1  0  0  0  0
 16 41  1  0  0  0  0
 17 19  1  0  0  0  0
 17 23  1  0  0  0  0
 17 42  1  1  0  0  0
 18 21  2  0  0  0  0
 18 43  1  0  0  0  0
 19 22  1  0  0  0  0
 19 24  1  0  0  0  0
 20 44  1  0  0  0  0
 20 45  1  0  0  0  0
 20 46  1  0  0  0  0
 21 22  1  0  0  0  0
 21 27  1  0  0  0  0
 22 49  1  0  0  0  0
 22 50  1  0  0  0  0
 23 26  2  0  0  0  0
 23 51  1  0  0  0  0
 24 26  1  0  0  0  0
 25 28  1  0  0  0  0
 26 29  1  0  0  0  0
 27 53  1  0  0  0  0
 27 54  1  0  0  0  0
 28 30  1  0  0  0  0
 28 55  1  0  0  0  0
 28 56  1  0  0  0  0
 29 57  1  0  0  0  0
 29 58  1  0  0  0  0
 29 59  1  0  0  0  0
 30 31  1  0  0  0  0
 30 60  1  0  0  0  0
 30 61  1  0  0  0  0
 31 63  1  0  0  0  0
 31 64  1  0  0  0  0
 31 65  1  0  0  0  0
M  END
> <PUBCHEM_COMPOUND_CID>
439882

> <PUBCHEM_COMPOUND_CANONICALIZED>
1

> <PUBCHEM_CACTVS_COMPLEXITY>
888

> <PUBCHEM_CACTVS_HBOND_ACCEPTOR>
7

> <PUBCHEM_CACTVS_HBOND_DONOR>
4

> <PUBCHEM_CACTVS_ROTATABLE_BOND>
5

> <PUBCHEM_CACTVS_SUBSKEYS>
AAADcfB4OAAAAAAAAAAAAAAAGAAAAQAAAAAwAAAABggAAACAAAAAGgAACAAAD1SggAICCAAABgCIAqDSCAIAAAAgAAAACAFAAEgBFBIAAQACUAAFwAALEYPK7PyPgAAAAAAAAADCAAYQADCAAAAAAAAAAA==

> <PUBCHEM_IUPAC_INCHI>
InChI=1S/C24H34O7/c1-6-7-17(26)31-24-18(21(24,4)5)15-9-14(11-25)10-22(29)16(8-12(2)19(22)27)23(15,30)13(3)20(24)28/h8-9,13,15-16,18,20,25,28-30H,6-7,10-11H2,1-5H3/t13-,15+,16-,18-,20-,22-,23-,24-/m1/s1

> <PUBCHEM_IUPAC_INCHIKEY>
FZXHDWWEDNRATG-JUDMOCROSA-N

> <PUBCHEM_XLOGP3_AA>
0.6

> <PUBCHEM_EXACT_MASS>
434.230453

> <PUBCHEM_MOLECULAR_FORMULA>
C24H34O7

> <PUBCHEM_MOLECULAR_WEIGHT>
434.52256

> <PUBCHEM_OPENEYE_CAN_SMILES>
CCCC(=O)OC12C(C1(C)C)C3C=C(CC4(C(C3(C(C2O)C)O)C=C(C4=O)C)O)CO

> <PUBCHEM_OPENEYE_ISO_SMILES>
CCCC(=O)O[C@@]12[C@@H](C1(C)C)[C@@H]3C=C(C[C@]4([C@H]([C@]3([C@@H]([C@H]2O)C)O)C=C(C4=O)C)O)CO

> <PUBCHEM_CACTVS_TPSA>
124

> <PUBCHEM_MONOISOTOPIC_WEIGHT>
434.230453

> <PUBCHEM_TOTAL_CHARGE>
0

> <PUBCHEM_HEAVY_ATOM_COUNT>
31

> <PUBCHEM_ATOM_DEF_STEREO_COUNT>
8

> <PUBCHEM_ATOM_UDEF_STEREO_COUNT>
0

> <PUBCHEM_BOND_DEF_STEREO_COUNT>
0

> <PUBCHEM_BOND_UDEF_STEREO_COUNT>
0

> <PUBCHEM_ISOTOPIC_ATOM_COUNT>
0

> <PUBCHEM_COMPONENT_COUNT>
1

> <PUBCHEM_CACTVS_TAUTO_COUNT>
3

> <PUBCHEM_COORDINATE_TYPE>
1
5
255

> <PUBCHEM_BONDANNOTATIONS>
9  1  5
11  33  6
14  20  5
17  42  5
12  2  6
13  3  5
19  4  6
8  32  5

$$$$

