13077
  -OEChem-06261207443D

 30 31  0     0  0  0  0  0  0999 V2000
    5.0862    0.2887    0.6374 O   0  0  0  0  0  0  0  0  0  0  0  0
    3.2964    1.5274   -0.0021 O   0  0  0  0  0  0  0  0  0  0  0  0
    1.1282   -0.8959    0.4249 C   0  0  0  0  0  0  0  0  0  0  0  0
   -0.3554   -1.0105    0.2580 C   0  0  0  0  0  0  0  0  0  0  0  0
    1.9276   -0.8899   -0.8904 C   0  0  0  0  0  0  0  0  0  0  0  0
   -1.1797    0.1191    0.1284 C   0  0  0  0  0  0  0  0  0  0  0  0
   -2.5755   -0.0567   -0.0259 C   0  0  0  0  0  0  0  0  0  0  0  0
    3.4441   -0.8022   -0.6928 C   0  0  0  0  0  0  0  0  0  0  0  0
   -0.8994   -2.2950    0.2358 C   0  0  0  0  0  0  0  0  0  0  0  0
   -0.6494    1.4194    0.1486 C   0  0  0  0  0  0  0  0  0  0  0  0
   -3.1058   -1.3570   -0.0461 C   0  0  0  0  0  0  0  0  0  0  0  0
   -2.2720   -2.4679    0.0841 C   0  0  0  0  0  0  0  0  0  0  0  0
   -3.3998    1.0729   -0.1555 C   0  0  0  0  0  0  0  0  0  0  0  0
   -1.4832    2.5303    0.0185 C   0  0  0  0  0  0  0  0  0  0  0  0
   -2.8558    2.3574   -0.1332 C   0  0  0  0  0  0  0  0  0  0  0  0
    3.8934    0.4598    0.0102 C   0  0  0  0  0  0  0  0  0  0  0  0
    1.4758   -1.7522    1.0216 H   0  0  0  0  0  0  0  0  0  0  0  0
    1.3862   -0.0394    1.0560 H   0  0  0  0  0  0  0  0  0  0  0  0
    1.7015   -1.8016   -1.4577 H   0  0  0  0  0  0  0  0  0  0  0  0
    1.5960   -0.0486   -1.5119 H   0  0  0  0  0  0  0  0  0  0  0  0
    3.7732   -1.6659   -0.1032 H   0  0  0  0  0  0  0  0  0  0  0  0
    3.9479   -0.8396   -1.6646 H   0  0  0  0  0  0  0  0  0  0  0  0
   -0.2653   -3.1727    0.3323 H   0  0  0  0  0  0  0  0  0  0  0  0
    0.4130    1.6175    0.2491 H   0  0  0  0  0  0  0  0  0  0  0  0
   -4.1757   -1.5158   -0.1638 H   0  0  0  0  0  0  0  0  0  0  0  0
   -2.6949   -3.4681    0.0659 H   0  0  0  0  0  0  0  0  0  0  0  0
   -4.4755    0.9616   -0.2753 H   0  0  0  0  0  0  0  0  0  0  0  0
   -1.0606    3.5308    0.0323 H   0  0  0  0  0  0  0  0  0  0  0  0
   -3.5043    3.2227   -0.2353 H   0  0  0  0  0  0  0  0  0  0  0  0
    5.3889    1.1115    1.0776 H   0  0  0  0  0  0  0  0  0  0  0  0
  1 16  1  0  0  0  0
  1 30  1  0  0  0  0
  2 16  2  0  0  0  0
  3  4  1  0  0  0  0
  3  5  1  0  0  0  0
  3 17  1  0  0  0  0
  3 18  1  0  0  0  0
  4  6  1  0  0  0  0
  4  9  2  0  0  0  0
  5  8  1  0  0  0  0
  5 19  1  0  0  0  0
  5 20  1  0  0  0  0
  6  7  1  0  0  0  0
  6 10  2  0  0  0  0
  7 11  1  0  0  0  0
  7 13  2  0  0  0  0
  8 16  1  0  0  0  0
  8 21  1  0  0  0  0
  8 22  1  0  0  0  0
  9 12  1  0  0  0  0
  9 23  1  0  0  0  0
 10 14  1  0  0  0  0
 10 24  1  0  0  0  0
 11 12  2  0  0  0  0
 11 25  1  0  0  0  0
 12 26  1  0  0  0  0
 13 15  1  0  0  0  0
 13 27  1  0  0  0  0
 14 15  2  0  0  0  0
 14 28  1  0  0  0  0
 15 29  1  0  0  0  0
M  END
> <PUBCHEM_COMPOUND_CID>
13077

> <PUBCHEM_CONFORMER_RMSD>
0.6

> <PUBCHEM_CONFORMER_DIVERSEORDER>
1
23
14
24
20
25
28
11
18
22
15
26
29
30
9
7
10
13
4
16
12
19
8
6
27
5
17
21
2
3

> <PUBCHEM_MMFF94_PARTIAL_CHARGES>
21
1 -0.65
10 -0.15
11 -0.15
12 -0.15
13 -0.15
14 -0.15
15 -0.15
16 0.66
2 -0.57
23 0.15
24 0.15
25 0.15
26 0.15
27 0.15
28 0.15
29 0.15
3 0.14
30 0.5
4 -0.14
8 0.06
9 -0.15

> <PUBCHEM_EFFECTIVE_ROTOR_COUNT>
4

> <PUBCHEM_PHARMACOPHORE_FEATURES>
5
1 1 acceptor
1 2 acceptor
3 1 2 16 anion
6 4 6 7 9 11 12 rings
6 6 7 10 13 14 15 rings

> <PUBCHEM_HEAVY_ATOM_COUNT>
16

> <PUBCHEM_ATOM_DEF_STEREO_COUNT>
0

> <PUBCHEM_ATOM_UDEF_STEREO_COUNT>
0

> <PUBCHEM_BOND_DEF_STEREO_COUNT>
0

> <PUBCHEM_BOND_UDEF_STEREO_COUNT>
0

> <PUBCHEM_ISOTOPIC_ATOM_COUNT>
0

> <PUBCHEM_COMPONENT_COUNT>
1

> <PUBCHEM_CACTVS_TAUTO_COUNT>
1

> <PUBCHEM_CONFORMER_ID>
0000331500000001

> <PUBCHEM_MMFF94_ENERGY>
38.9912

> <PUBCHEM_FEATURE_SELFOVERLAP>
25.457

> <PUBCHEM_SHAPE_FINGERPRINT>
10411042 1 17907015080345443827
10493431 412 18263916804198505785
10608611 8 18407758144868839830
10646746 165 18410854387035197414
11132069 177 18410008849196988644
12173636 292 18339361988875734541
13140716 1 18196081145557817899
13403585 85 18336558110298731632
13583140 156 16988846107148741833
14123255 52 18124315162524876101
14614273 12 18131074891392790559
14790565 3 18337100285406333617
15196674 1 18410855426333218152
16945 1 18266465497889260835
17134986 127 17835803375762700653
1741750 31 18337670939760125683
17492 89 18412825798331125794
18186145 218 18115012138833795854
20510252 161 18408036329816361923
20645477 56 18338791311980709215
20671657 1 17836364117886926707
21029758 11 18336551495848641735
21524375 3 17912637196597954531
22182937 141 18261662791970066089
22213442 358 18191866717293678639
2306618 200 18260539013613336219
23227448 37 18410012130520575525
23402539 116 18337681836124044654
23557571 272 18261659407598925902
23559900 14 18261955262717194894
2748010 2 18266189327276346955
4028521 119 18411984701656841021
526903 126 18337109085260910449
573450 72 18272382974970388026
6333449 129 18410009944439912463
7097593 13 17914634979625473082
7364860 26 17690560105826034231
81228 2 18268972263614180107
9709674 26 18334289877454972470

> <PUBCHEM_SHAPE_MULTIPOLES>
317.53
7.35
2.77
0.73
9.38
0.2
-0.05
1.86
0.02
-2.49
0.06
0.27
-0.07
0.38

> <PUBCHEM_SHAPE_SELFOVERLAP>
677.599

> <PUBCHEM_SHAPE_VOLUME>
176.5

> <PUBCHEM_COORDINATE_TYPE>
2
5
10

$$$$

