100231
  -OEChem-07051212573D

 88 94  0     1  0  0  0  0  0999 V2000
    1.0848    0.2257   -0.4796 O   0  0  0  0  0  0  0  0  0  0  0  0
    1.3081    1.5127    2.0654 O   0  0  0  0  0  0  0  0  0  0  0  0
    2.3080    2.8456   -0.7593 O   0  0  0  0  0  0  0  0  0  0  0  0
    3.6548    1.3990    3.4298 O   0  0  0  0  0  0  0  0  0  0  0  0
   -2.4357   -3.2805    1.0371 O   0  0  0  0  0  0  0  0  0  0  0  0
   -4.7806   -4.0370   -0.1869 O   0  0  0  0  0  0  0  0  0  0  0  0
    4.5177   -1.2786   -2.2833 N   0  0  1  0  0  0  0  0  0  0  0  0
   -4.1112    3.5673   -0.4713 N   0  0  1  0  0  0  0  0  0  0  0  0
    3.2364   -1.3489   -1.5402 C   0  0  2  0  0  0  0  0  0  0  0  0
   -3.3808    2.2652   -0.4824 C   0  0  1  0  0  0  0  0  0  0  0  0
    3.3472   -0.5108   -0.2680 C   0  0  0  0  0  0  0  0  0  0  0  0
   -1.8519    2.4119   -0.5705 C   0  0  0  0  0  0  0  0  0  0  0  0
    5.6319   -1.8209   -1.5008 C   0  0  0  0  0  0  0  0  0  0  0  0
    4.5733   -0.4842    0.4250 C   0  0  0  0  0  0  0  0  0  0  0  0
    5.8289   -1.0559   -0.1866 C   0  0  0  0  0  0  0  0  0  0  0  0
    2.7822   -2.8035   -1.1992 C   0  0  0  0  0  0  0  0  0  0  0  0
   -3.4805    4.5717   -1.3356 C   0  0  0  0  0  0  0  0  0  0  0  0
   -1.2471    3.6727   -0.7150 C   0  0  0  0  0  0  0  0  0  0  0  0
   -2.0946    4.9082   -0.8009 C   0  0  0  0  0  0  0  0  0  0  0  0
   -3.7824    1.4741    0.8068 C   0  0  0  0  0  0  0  0  0  0  0  0
    2.2524    0.2043    0.2558 C   0  0  0  0  0  0  0  0  0  0  0  0
   -1.0185    1.2826   -0.5530 C   0  0  0  0  0  0  0  0  0  0  0  0
    4.4536   -1.8873   -3.6085 C   0  0  0  0  0  0  0  0  0  0  0  0
    0.3741    1.4032   -0.5593 C   0  0  0  0  0  0  0  0  0  0  0  0
    4.6594    0.1652    1.6649 C   0  0  0  0  0  0  0  0  0  0  0  0
    0.1512    3.7888   -0.7683 C   0  0  0  0  0  0  0  0  0  0  0  0
    1.3890   -2.9301   -0.6237 C   0  0  0  0  0  0  0  0  0  0  0  0
   -5.5121    3.4020   -0.8825 C   0  0  0  0  0  0  0  0  0  0  0  0
    2.3412    0.8122    1.5146 C   0  0  0  0  0  0  0  0  0  0  0  0
   -4.0517    0.0029    0.5682 C   0  0  0  0  0  0  0  0  0  0  0  0
    0.9621    2.6584   -0.6956 C   0  0  0  0  0  0  0  0  0  0  0  0
    3.5430    0.7891    2.2161 C   0  0  0  0  0  0  0  0  0  0  0  0
    1.2043   -3.1764    0.7455 C   0  0  0  0  0  0  0  0  0  0  0  0
    0.2645   -2.8121   -1.4505 C   0  0  0  0  0  0  0  0  0  0  0  0
   -3.1435   -0.9709    1.0012 C   0  0  0  0  0  0  0  0  0  0  0  0
   -5.2133   -0.4092   -0.1021 C   0  0  0  0  0  0  0  0  0  0  0  0
   -3.3601   -2.3184    0.6957 C   0  0  0  0  0  0  0  0  0  0  0  0
   -0.0796   -3.2892    1.2817 C   0  0  0  0  0  0  0  0  0  0  0  0
   -1.0213   -2.9251   -0.9179 C   0  0  0  0  0  0  0  0  0  0  0  0
   -1.1917   -3.1442    0.4533 C   0  0  0  0  0  0  0  0  0  0  0  0
   -5.4557   -1.7636   -0.3450 C   0  0  0  0  0  0  0  0  0  0  0  0
   -4.5286   -2.7233    0.0535 C   0  0  0  0  0  0  0  0  0  0  0  0
    0.3887    0.7800    2.8696 C   0  0  0  0  0  0  0  0  0  0  0  0
    2.9068    2.8182   -2.0534 C   0  0  0  0  0  0  0  0  0  0  0  0
    4.0635    2.7654    3.4329 C   0  0  0  0  0  0  0  0  0  0  0  0
   -5.4860   -4.7565    0.8222 C   0  0  0  0  0  0  0  0  0  0  0  0
    2.4807   -0.8796   -2.1833 H   0  0  0  0  0  0  0  0  0  0  0  0
   -3.6725    1.7158   -1.3891 H   0  0  0  0  0  0  0  0  0  0  0  0
    6.5673   -1.7529   -2.0715 H   0  0  0  0  0  0  0  0  0  0  0  0
    5.4891   -2.8879   -1.2917 H   0  0  0  0  0  0  0  0  0  0  0  0
    6.5043   -0.2119   -0.3808 H   0  0  0  0  0  0  0  0  0  0  0  0
    6.3236   -1.7139    0.5380 H   0  0  0  0  0  0  0  0  0  0  0  0
   -4.0710    5.4965   -1.3383 H   0  0  0  0  0  0  0  0  0  0  0  0
   -3.4226    4.2178   -2.3740 H   0  0  0  0  0  0  0  0  0  0  0  0
    3.4833   -3.2728   -0.4974 H   0  0  0  0  0  0  0  0  0  0  0  0
    2.8048   -3.4305   -2.0987 H   0  0  0  0  0  0  0  0  0  0  0  0
   -2.1645    5.3629    0.1950 H   0  0  0  0  0  0  0  0  0  0  0  0
   -1.6281    5.6401   -1.4711 H   0  0  0  0  0  0  0  0  0  0  0  0
   -4.6960    1.8778    1.2628 H   0  0  0  0  0  0  0  0  0  0  0  0
   -3.0206    1.5963    1.5894 H   0  0  0  0  0  0  0  0  0  0  0  0
   -1.4457    0.2879   -0.5280 H   0  0  0  0  0  0  0  0  0  0  0  0
    5.3563   -1.6405   -4.1788 H   0  0  0  0  0  0  0  0  0  0  0  0
    3.6075   -1.4903   -4.1798 H   0  0  0  0  0  0  0  0  0  0  0  0
    4.3701   -2.9783   -3.5745 H   0  0  0  0  0  0  0  0  0  0  0  0
    5.6069    0.1868    2.1990 H   0  0  0  0  0  0  0  0  0  0  0  0
    0.6065    4.7717   -0.8705 H   0  0  0  0  0  0  0  0  0  0  0  0
   -6.0574    2.7327   -0.2114 H   0  0  0  0  0  0  0  0  0  0  0  0
   -5.5974    3.0115   -1.9031 H   0  0  0  0  0  0  0  0  0  0  0  0
   -6.0393    4.3621   -0.8393 H   0  0  0  0  0  0  0  0  0  0  0  0
    2.0621   -3.2779    1.4059 H   0  0  0  0  0  0  0  0  0  0  0  0
    0.3843   -2.6322   -2.5160 H   0  0  0  0  0  0  0  0  0  0  0  0
   -2.2486   -0.6766    1.5428 H   0  0  0  0  0  0  0  0  0  0  0  0
   -5.9420    0.3229   -0.4393 H   0  0  0  0  0  0  0  0  0  0  0  0
   -0.2033   -3.4782    2.3444 H   0  0  0  0  0  0  0  0  0  0  0  0
   -1.8747   -2.8425   -1.5849 H   0  0  0  0  0  0  0  0  0  0  0  0
   -6.3683   -2.0600   -0.8555 H   0  0  0  0  0  0  0  0  0  0  0  0
    0.0366   -0.1159    2.3493 H   0  0  0  0  0  0  0  0  0  0  0  0
   -0.4706    1.4222    3.0813 H   0  0  0  0  0  0  0  0  0  0  0  0
    0.8583    0.4983    3.8169 H   0  0  0  0  0  0  0  0  0  0  0  0
    2.5764    3.6794   -2.6422 H   0  0  0  0  0  0  0  0  0  0  0  0
    2.6612    1.8893   -2.5780 H   0  0  0  0  0  0  0  0  0  0  0  0
    3.9918    2.8731   -1.9296 H   0  0  0  0  0  0  0  0  0  0  0  0
    5.0702    2.8647    3.0149 H   0  0  0  0  0  0  0  0  0  0  0  0
    4.0787    3.1159    4.4685 H   0  0  0  0  0  0  0  0  0  0  0  0
    3.3590    3.3817    2.8654 H   0  0  0  0  0  0  0  0  0  0  0  0
   -5.6001   -5.7916    0.4886 H   0  0  0  0  0  0  0  0  0  0  0  0
   -6.4809   -4.3265    0.9755 H   0  0  0  0  0  0  0  0  0  0  0  0
   -4.9254   -4.7518    1.7624 H   0  0  0  0  0  0  0  0  0  0  0  0
  1 21  1  0  0  0  0
  1 24  1  0  0  0  0
  2 29  1  0  0  0  0
  2 43  1  0  0  0  0
  3 31  1  0  0  0  0
  3 44  1  0  0  0  0
  4 32  1  0  0  0  0
  4 45  1  0  0  0  0
  5 37  1  0  0  0  0
  5 40  1  0  0  0  0
  6 42  1  0  0  0  0
  6 46  1  0  0  0  0
  7  9  1  0  0  0  0
  7 13  1  0  0  0  0
  7 23  1  0  0  0  0
  8 10  1  0  0  0  0
  8 17  1  0  0  0  0
  8 28  1  0  0  0  0
  9 11  1  0  0  0  0
  9 16  1  0  0  0  0
  9 47  1  0  0  0  0
 10 12  1  0  0  0  0
 10 20  1  0  0  0  0
 10 48  1  0  0  0  0
 11 14  1  0  0  0  0
 11 21  2  0  0  0  0
 12 18  1  0  0  0  0
 12 22  2  0  0  0  0
 13 15  1  0  0  0  0
 13 49  1  0  0  0  0
 13 50  1  0  0  0  0
 14 15  1  0  0  0  0
 14 25  2  0  0  0  0
 15 51  1  0  0  0  0
 15 52  1  0  0  0  0
 16 27  1  0  0  0  0
 16 55  1  0  0  0  0
 16 56  1  0  0  0  0
 17 19  1  0  0  0  0
 17 53  1  0  0  0  0
 17 54  1  0  0  0  0
 18 19  1  0  0  0  0
 18 26  2  0  0  0  0
 19 57  1  0  0  0  0
 19 58  1  0  0  0  0
 20 30  1  0  0  0  0
 20 59  1  0  0  0  0
 20 60  1  0  0  0  0
 21 29  1  0  0  0  0
 22 24  1  0  0  0  0
 22 61  1  0  0  0  0
 23 62  1  0  0  0  0
 23 63  1  0  0  0  0
 23 64  1  0  0  0  0
 24 31  2  0  0  0  0
 25 32  1  0  0  0  0
 25 65  1  0  0  0  0
 26 31  1  0  0  0  0
 26 66  1  0  0  0  0
 27 33  2  0  0  0  0
 27 34  1  0  0  0  0
 28 67  1  0  0  0  0
 28 68  1  0  0  0  0
 28 69  1  0  0  0  0
 29 32  2  0  0  0  0
 30 35  2  0  0  0  0
 30 36  1  0  0  0  0
 33 38  1  0  0  0  0
 33 70  1  0  0  0  0
 34 39  2  0  0  0  0
 34 71  1  0  0  0  0
 35 37  1  0  0  0  0
 35 72  1  0  0  0  0
 36 41  2  0  0  0  0
 36 73  1  0  0  0  0
 37 42  2  0  0  0  0
 38 40  2  0  0  0  0
 38 74  1  0  0  0  0
 39 40  1  0  0  0  0
 39 75  1  0  0  0  0
 41 42  1  0  0  0  0
 41 76  1  0  0  0  0
 43 77  1  0  0  0  0
 43 78  1  0  0  0  0
 43 79  1  0  0  0  0
 44 80  1  0  0  0  0
 44 81  1  0  0  0  0
 44 82  1  0  0  0  0
 45 83  1  0  0  0  0
 45 84  1  0  0  0  0
 45 85  1  0  0  0  0
 46 86  1  0  0  0  0
 46 87  1  0  0  0  0
 46 88  1  0  0  0  0
M  END
> <PUBCHEM_COMPOUND_CID>
100231

> <PUBCHEM_CONFORMER_RMSD>
1

> <PUBCHEM_CONFORMER_DIVERSEORDER>
1
5
4
3
2
6

> <PUBCHEM_MMFF94_PARTIAL_CHARGES>
56
1 -0.17
10 0.41
11 -0.14
12 -0.14
13 0.27
14 -0.14
15 0.14
16 0.14
17 0.27
18 -0.14
19 0.14
2 -0.36
20 0.14
21 0.08
22 -0.15
23 0.27
24 0.08
25 -0.15
26 -0.15
27 -0.14
28 0.27
29 0.08
3 -0.36
30 -0.14
31 0.08
32 0.08
33 -0.15
34 -0.15
35 -0.15
36 -0.15
37 0.08
38 -0.15
39 -0.15
4 -0.36
40 0.08
41 -0.15
42 0.08
43 0.28
44 0.28
45 0.28
46 0.28
5 -0.17
6 -0.36
61 0.15
65 0.15
66 0.15
7 -0.81
70 0.15
71 0.15
72 0.15
73 0.15
74 0.15
75 0.15
76 0.15
8 -0.81
9 0.41

> <PUBCHEM_EFFECTIVE_ROTOR_COUNT>
6

> <PUBCHEM_PHARMACOPHORE_FEATURES>
14
1 1 acceptor
1 2 acceptor
1 3 acceptor
1 4 acceptor
1 5 acceptor
1 6 acceptor
1 7 cation
1 8 cation
6 11 14 21 25 29 32 rings
6 12 18 22 24 26 31 rings
6 27 33 34 38 39 40 rings
6 30 35 36 37 41 42 rings
6 7 9 11 13 14 15 rings
6 8 10 12 17 18 19 rings

> <PUBCHEM_HEAVY_ATOM_COUNT>
46

> <PUBCHEM_ATOM_DEF_STEREO_COUNT>
2

> <PUBCHEM_ATOM_UDEF_STEREO_COUNT>
0

> <PUBCHEM_BOND_DEF_STEREO_COUNT>
0

> <PUBCHEM_BOND_UDEF_STEREO_COUNT>
0

> <PUBCHEM_ISOTOPIC_ATOM_COUNT>
0

> <PUBCHEM_COMPONENT_COUNT>
1

> <PUBCHEM_CACTVS_TAUTO_COUNT>
1

> <PUBCHEM_CONFORMER_ID>
0001878700000001

> <PUBCHEM_MMFF94_ENERGY>
205.4645

> <PUBCHEM_FEATURE_SELFOVERLAP>
71.101

> <PUBCHEM_SHAPE_FINGERPRINT>
10864689 126 17907007731375877727
10974685 15 18413387652592399162
11513181 2 17973998458185262847
12156800 1 18201165429016500130
12422481 6 18047487629932830408
12788726 201 18201141175468185022
13617811 41 17985825071884991893
13782708 43 18187087256401887298
14040221 97 18187366468922499720
14117953 113 18411704284144080935
14725015 67 18412268298569409731
14932702 115 18120360210641005774
15001296 14 18199740367341753045
15320467 1 18341327898834637671
15400415 2 17692810806028365628
15406563 190 17485348291074857181
15968369 153 18189061910781888951
15968369 26 17760393349628916030
16067690 210 17988916730618643296
16112460 7 18265873823036731009
20764821 26 18269821074022302727
23559900 14 18408319982520722493
25223398 141 18270680991105127932
27425 322 16555904697618060789
3383291 50 18340488980496145321
3882209 13 17544787546074654295
45266715 3 17835276645817905805
508706 21 18410293635899667095
563151 74 16516540885001944258
613672 6 18267318534397899327
653340 110 18340219556421564417
86090 222 18118694454646377492

> <PUBCHEM_SHAPE_MULTIPOLES>
901.48
12.04
6.95
2.55
2.16
1.11
-1.08
-3.91
1.17
9.03
1.45
-4.78
0.86
4.53

> <PUBCHEM_SHAPE_SELFOVERLAP>
1981.01

> <PUBCHEM_SHAPE_VOLUME>
486.5

> <PUBCHEM_COORDINATE_TYPE>
2
5
10

$$$$

