5281588
  -OEChem-07051212583D

 81 83  0     1  0  0  0  0  0999 V2000
   -0.4278   -2.4503   -0.9174 O   0  0  0  0  0  0  0  0  0  0  0  0
   -2.3438    1.8442    0.9335 O   0  0  0  0  0  0  0  0  0  0  0  0
    0.6061    1.1704   -0.9878 O   0  0  0  0  0  0  0  0  0  0  0  0
    5.1385    1.5915    0.5605 O   0  0  0  0  0  0  0  0  0  0  0  0
   -4.9094    1.0855   -0.3467 N   0  0  0  0  0  0  0  0  0  0  0  0
   -1.7078    0.0085   -0.3356 N   0  0  0  0  0  0  0  0  0  0  0  0
    1.6677    0.4867    0.9555 N   0  0  0  0  0  0  0  0  0  0  0  0
    3.9170    0.0333   -0.6319 N   0  0  0  0  0  0  0  0  0  0  0  0
   -3.6401    1.2876   -1.0453 C   0  0  1  0  0  0  0  0  0  0  0  0
   -3.5458    2.6615   -1.7627 C   0  0  1  0  0  0  0  0  0  0  0  0
   -0.5726   -0.3875    0.4647 C   0  0  1  0  0  0  0  0  0  0  0  0
   -3.6732    3.8515   -0.7841 C   0  0  0  0  0  0  0  0  0  0  0  0
   -2.5088    1.1026   -0.0333 C   0  0  0  0  0  0  0  0  0  0  0  0
   -0.3216   -1.9159    0.4271 C   0  0  1  0  0  0  0  0  0  0  0  0
   -2.2550    2.7513   -2.5888 C   0  0  0  0  0  0  0  0  0  0  0  0
    2.7488    1.4809    0.9489 C   0  0  1  0  0  0  0  0  0  0  0  0
    2.9777    1.9913    2.3690 C   0  0  0  0  0  0  0  0  0  0  0  0
    0.6188    0.4909    0.0384 C   0  0  0  0  0  0  0  0  0  0  0  0
    3.5957    3.3975    2.4210 C   0  0  0  0  0  0  0  0  0  0  0  0
   -3.7013    5.2076   -1.4780 C   0  0  0  0  0  0  0  0  0  0  0  0
   -1.3105   -2.6536    1.3216 C   0  0  0  0  0  0  0  0  0  0  0  0
   -6.0334    1.3088   -1.2549 C   0  0  0  0  0  0  0  0  0  0  0  0
   -4.9707   -0.2604    0.2218 C   0  0  0  0  0  0  0  0  0  0  0  0
    4.0762    1.0170    0.3221 C   0  0  0  0  0  0  0  0  0  0  0  0
    3.8433    3.7984    3.8771 C   0  0  0  0  0  0  0  0  0  0  0  0
    2.7177    4.4471    1.7380 C   0  0  0  0  0  0  0  0  0  0  0  0
   -2.5276   -3.0940    0.8015 C   0  0  0  0  0  0  0  0  0  0  0  0
   -0.9988   -2.8881    2.6610 C   0  0  0  0  0  0  0  0  0  0  0  0
    0.7920   -2.5130   -1.5377 C   0  0  0  0  0  0  0  0  0  0  0  0
   -3.4327   -3.7690    1.6206 C   0  0  0  0  0  0  0  0  0  0  0  0
   -1.9039   -3.5631    3.4800 C   0  0  0  0  0  0  0  0  0  0  0  0
    1.8130   -3.3229   -1.0376 C   0  0  0  0  0  0  0  0  0  0  0  0
    1.0090   -1.6679   -2.6244 C   0  0  0  0  0  0  0  0  0  0  0  0
   -3.1208   -4.0035    2.9599 C   0  0  0  0  0  0  0  0  0  0  0  0
    4.8992   -0.4441   -1.4777 C   0  0  0  0  0  0  0  0  0  0  0  0
    3.3710   -2.0898   -2.3969 C   0  0  0  0  0  0  0  0  0  0  0  0
    3.1160   -3.1041   -1.4639 C   0  0  0  0  0  0  0  0  0  0  0  0
    2.3122   -1.4484   -3.0561 C   0  0  0  0  0  0  0  0  0  0  0  0
    4.6858   -1.4383   -2.3613 C   0  0  0  0  0  0  0  0  0  0  0  0
   -3.5477    0.5202   -1.8280 H   0  0  0  0  0  0  0  0  0  0  0  0
   -4.3517    2.7385   -2.5026 H   0  0  0  0  0  0  0  0  0  0  0  0
   -0.7849   -0.0905    1.5019 H   0  0  0  0  0  0  0  0  0  0  0  0
   -4.5869    3.7568   -0.1874 H   0  0  0  0  0  0  0  0  0  0  0  0
   -2.8328    3.8787   -0.0850 H   0  0  0  0  0  0  0  0  0  0  0  0
    0.6739   -2.1153    0.8453 H   0  0  0  0  0  0  0  0  0  0  0  0
   -1.8778   -0.5128   -1.1904 H   0  0  0  0  0  0  0  0  0  0  0  0
   -2.2831    3.6042   -3.2744 H   0  0  0  0  0  0  0  0  0  0  0  0
   -2.1181    1.8534   -3.2011 H   0  0  0  0  0  0  0  0  0  0  0  0
   -1.3750    2.8656   -1.9483 H   0  0  0  0  0  0  0  0  0  0  0  0
    2.3977    2.2874    0.2993 H   0  0  0  0  0  0  0  0  0  0  0  0
    2.0209    2.0167    2.9092 H   0  0  0  0  0  0  0  0  0  0  0  0
    3.6158    1.2859    2.9181 H   0  0  0  0  0  0  0  0  0  0  0  0
    4.5713    3.4086    1.9268 H   0  0  0  0  0  0  0  0  0  0  0  0
    1.6607   -0.1952    1.7084 H   0  0  0  0  0  0  0  0  0  0  0  0
   -2.7450    5.4370   -1.9567 H   0  0  0  0  0  0  0  0  0  0  0  0
   -4.4898    5.2443   -2.2363 H   0  0  0  0  0  0  0  0  0  0  0  0
   -3.8995    5.9980   -0.7465 H   0  0  0  0  0  0  0  0  0  0  0  0
   -6.1639    2.3672   -1.4995 H   0  0  0  0  0  0  0  0  0  0  0  0
   -6.9754    1.0192   -0.7728 H   0  0  0  0  0  0  0  0  0  0  0  0
   -5.9471    0.7292   -2.1814 H   0  0  0  0  0  0  0  0  0  0  0  0
   -4.2373   -0.4037    1.0216 H   0  0  0  0  0  0  0  0  0  0  0  0
   -4.8287   -1.0401   -0.5355 H   0  0  0  0  0  0  0  0  0  0  0  0
   -5.9454   -0.4299    0.6951 H   0  0  0  0  0  0  0  0  0  0  0  0
    2.9058    3.8463    4.4416 H   0  0  0  0  0  0  0  0  0  0  0  0
    4.3234    4.7811    3.9354 H   0  0  0  0  0  0  0  0  0  0  0  0
    4.5021    3.0775    4.3728 H   0  0  0  0  0  0  0  0  0  0  0  0
    1.6842    4.3971    2.0971 H   0  0  0  0  0  0  0  0  0  0  0  0
    2.7123    4.3305    0.6508 H   0  0  0  0  0  0  0  0  0  0  0  0
    3.0927    5.4566    1.9405 H   0  0  0  0  0  0  0  0  0  0  0  0
   -2.7982   -2.9154   -0.2354 H   0  0  0  0  0  0  0  0  0  0  0  0
   -0.0553   -2.5476    3.0792 H   0  0  0  0  0  0  0  0  0  0  0  0
    2.9920   -0.3754   -0.7094 H   0  0  0  0  0  0  0  0  0  0  0  0
   -4.3818   -4.1090    1.2164 H   0  0  0  0  0  0  0  0  0  0  0  0
   -1.6616   -3.7448    4.5230 H   0  0  0  0  0  0  0  0  0  0  0  0
    1.6235   -4.0252   -0.2309 H   0  0  0  0  0  0  0  0  0  0  0  0
    0.1973   -1.0765   -3.0383 H   0  0  0  0  0  0  0  0  0  0  0  0
   -3.8261   -4.5280    3.5979 H   0  0  0  0  0  0  0  0  0  0  0  0
    5.8714    0.0302   -1.4041 H   0  0  0  0  0  0  0  0  0  0  0  0
    3.9307   -3.6139   -0.9552 H   0  0  0  0  0  0  0  0  0  0  0  0
    2.5019   -0.6638   -3.7847 H   0  0  0  0  0  0  0  0  0  0  0  0
    5.4633   -1.8021   -3.0217 H   0  0  0  0  0  0  0  0  0  0  0  0
  1 14  1  0  0  0  0
  1 29  1  0  0  0  0
  2 13  2  0  0  0  0
  3 18  2  0  0  0  0
  4 24  2  0  0  0  0
  5  9  1  0  0  0  0
  5 22  1  0  0  0  0
  5 23  1  0  0  0  0
  6 11  1  0  0  0  0
  6 13  1  0  0  0  0
  6 46  1  0  0  0  0
  7 16  1  0  0  0  0
  7 18  1  0  0  0  0
  7 54  1  0  0  0  0
  8 24  1  0  0  0  0
  8 35  1  0  0  0  0
  8 72  1  0  0  0  0
  9 10  1  0  0  0  0
  9 13  1  0  0  0  0
  9 40  1  0  0  0  0
 10 12  1  0  0  0  0
 10 15  1  0  0  0  0
 10 41  1  0  0  0  0
 11 14  1  0  0  0  0
 11 18  1  0  0  0  0
 11 42  1  0  0  0  0
 12 20  1  0  0  0  0
 12 43  1  0  0  0  0
 12 44  1  0  0  0  0
 14 21  1  0  0  0  0
 14 45  1  0  0  0  0
 15 47  1  0  0  0  0
 15 48  1  0  0  0  0
 15 49  1  0  0  0  0
 16 17  1  0  0  0  0
 16 24  1  0  0  0  0
 16 50  1  0  0  0  0
 17 19  1  0  0  0  0
 17 51  1  0  0  0  0
 17 52  1  0  0  0  0
 19 25  1  0  0  0  0
 19 26  1  0  0  0  0
 19 53  1  0  0  0  0
 20 55  1  0  0  0  0
 20 56  1  0  0  0  0
 20 57  1  0  0  0  0
 21 27  2  0  0  0  0
 21 28  1  0  0  0  0
 22 58  1  0  0  0  0
 22 59  1  0  0  0  0
 22 60  1  0  0  0  0
 23 61  1  0  0  0  0
 23 62  1  0  0  0  0
 23 63  1  0  0  0  0
 25 64  1  0  0  0  0
 25 65  1  0  0  0  0
 25 66  1  0  0  0  0
 26 67  1  0  0  0  0
 26 68  1  0  0  0  0
 26 69  1  0  0  0  0
 27 30  1  0  0  0  0
 27 70  1  0  0  0  0
 28 31  2  0  0  0  0
 28 71  1  0  0  0  0
 29 32  2  0  0  0  0
 29 33  1  0  0  0  0
 30 34  2  0  0  0  0
 30 73  1  0  0  0  0
 31 34  1  0  0  0  0
 31 74  1  0  0  0  0
 32 37  1  0  0  0  0
 32 75  1  0  0  0  0
 33 38  2  0  0  0  0
 33 76  1  0  0  0  0
 34 77  1  0  0  0  0
 35 39  2  0  0  0  0
 35 78  1  0  0  0  0
 36 37  2  0  0  0  0
 36 38  1  0  0  0  0
 36 39  1  0  0  0  0
 37 79  1  0  0  0  0
 38 80  1  0  0  0  0
 39 81  1  0  0  0  0
M  END
> <PUBCHEM_COMPOUND_CID>
5281588

> <PUBCHEM_CONFORMER_RMSD>
1.2

> <PUBCHEM_CONFORMER_DIVERSEORDER>
1
11
15
9
2
10
16
14
19
18
17
7
6
12
8
3
4
5
13

> <PUBCHEM_MMFF94_PARTIAL_CHARGES>
45
1 -0.36
11 0.36
13 0.57
14 0.42
16 0.36
18 0.57
2 -0.57
21 -0.14
22 0.27
23 0.27
24 0.57
27 -0.15
28 -0.15
29 0.08
3 -0.57
30 -0.15
31 -0.15
32 -0.15
33 -0.15
34 -0.15
35 -0.04
36 0.03
37 -0.15
38 -0.15
39 -0.18
4 -0.57
46 0.37
5 -0.81
54 0.37
6 -0.73
7 -0.73
70 0.15
71 0.15
72 0.37
73 0.15
74 0.15
75 0.15
76 0.15
77 0.15
78 0.15
79 0.15
8 -0.54
80 0.15
81 0.15
9 0.33

> <PUBCHEM_EFFECTIVE_ROTOR_COUNT>
10.2

> <PUBCHEM_PHARMACOPHORE_FEATURES>
13
1 1 acceptor
1 15 hydrophobe
1 2 acceptor
1 20 hydrophobe
1 3 acceptor
1 4 acceptor
1 5 cation
1 6 donor
1 7 donor
1 8 donor
3 19 25 26 hydrophobe
6 21 27 28 30 31 34 rings
6 29 32 33 36 37 38 rings

> <PUBCHEM_HEAVY_ATOM_COUNT>
39

> <PUBCHEM_ATOM_DEF_STEREO_COUNT>
5

> <PUBCHEM_ATOM_UDEF_STEREO_COUNT>
0

> <PUBCHEM_BOND_DEF_STEREO_COUNT>
1

> <PUBCHEM_BOND_UDEF_STEREO_COUNT>
0

> <PUBCHEM_ISOTOPIC_ATOM_COUNT>
0

> <PUBCHEM_COMPONENT_COUNT>
1

> <PUBCHEM_CACTVS_TAUTO_COUNT>
8

> <PUBCHEM_CONFORMER_ID>
0050973400000001

> <PUBCHEM_MMFF94_ENERGY>
132.4237

> <PUBCHEM_FEATURE_SELFOVERLAP>
65.971

> <PUBCHEM_SHAPE_FINGERPRINT>
10032420 55 18196648721096136903
10675989 125 17689149437193331284
11578080 2 18119498047348735323
12128747 34 18343312457130402210
12293681 160 17761482999621780102
12788726 201 17414694493700599866
14415360 78 16375799959881515273
14705955 166 18201158741831574058
15219462 58 18128273211317342890
15324884 4 18192420883943923642
15351339 4 17615695471625011504
15775530 1 18266155323382441979
16067690 210 17702655528210479012
16114785 44 17685805439563710506
19319366 153 17042855445555378393
21033648 29 17914882365182608484
22182313 1 18263625321436363862
238 59 17748834029183031534
376196 1 18118714151202931856
4015057 19 18042957860220912022
508706 21 18342443855502033943
6608658 132 16464763542373677192

> <PUBCHEM_SHAPE_MULTIPOLES>
759.2
10.45
6.97
3.79
1.49
2.86
-1.89
6.53
1.87
3.41
-3.65
-2.47
-0.62
10.5

> <PUBCHEM_SHAPE_SELFOVERLAP>
1577.898

> <PUBCHEM_SHAPE_VOLUME>
430

> <PUBCHEM_COORDINATE_TYPE>
2
5
10

$$$$

