4776
  -OEChem-06261200202D

 45 45  0     1  0  0  0  0  0999 V2000
    3.7320   -1.0600    0.0000 P   0  0  3  0  0  0  0  0  0  0  0  0
    2.8660   -1.5600    0.0000 O   0  0  0  0  0  0  0  0  0  0  0  0
    3.2320   -0.1940    0.0000 O   0  0  0  0  0  0  0  0  0  0  0  0
    4.2320   -1.9260    0.0000 O   0  0  0  0  0  0  0  0  0  0  0  0
    6.3301    0.4400    0.0000 O   0  0  0  0  0  0  0  0  0  0  0  0
    7.1962    3.9400    0.0000 O   0  0  0  0  0  0  0  0  0  0  0  0
    5.4641    3.9400    0.0000 O   0  0  0  0  0  0  0  0  0  0  0  0
    4.5981    0.4400    0.0000 N   0  0  0  0  0  0  0  0  0  0  0  0
    4.5981   -0.5600    0.0000 C   0  0  3  0  0  0  0  0  0  0  0  0
    5.4641   -1.0600    0.0000 C   0  0  0  0  0  0  0  0  0  0  0  0
    6.3301   -0.5600    0.0000 C   0  0  0  0  0  0  0  0  0  0  0  0
    7.1962   -1.0600    0.0000 C   0  0  0  0  0  0  0  0  0  0  0  0
    5.4641    0.9400    0.0000 C   0  0  0  0  0  0  0  0  0  0  0  0
    8.0622   -0.5600    0.0000 C   0  0  0  0  0  0  0  0  0  0  0  0
    5.4641    1.9400    0.0000 C   0  0  0  0  0  0  0  0  0  0  0  0
    2.8660   -2.5600    0.0000 C   0  0  0  0  0  0  0  0  0  0  0  0
    6.3301    2.4400    0.0000 C   0  0  0  0  0  0  0  0  0  0  0  0
    2.0000   -3.0600    0.0000 C   0  0  0  0  0  0  0  0  0  0  0  0
    3.7320   -3.0600    0.0000 C   0  0  0  0  0  0  0  0  0  0  0  0
    6.3301    3.4400    0.0000 C   0  0  0  0  0  0  0  0  0  0  0  0
    2.0000   -4.0600    0.0000 C   0  0  0  0  0  0  0  0  0  0  0  0
    3.7320   -4.0600    0.0000 C   0  0  0  0  0  0  0  0  0  0  0  0
    2.8660   -4.5600    0.0000 C   0  0  0  0  0  0  0  0  0  0  0  0
    5.3342   -0.1350    0.0000 H   0  0  0  0  0  0  0  0  0  0  0  0
    5.0656   -1.5350    0.0000 H   0  0  0  0  0  0  0  0  0  0  0  0
    5.8626   -1.5350    0.0000 H   0  0  0  0  0  0  0  0  0  0  0  0
    6.7287   -0.0851    0.0000 H   0  0  0  0  0  0  0  0  0  0  0  0
    5.9316   -0.0851    0.0000 H   0  0  0  0  0  0  0  0  0  0  0  0
    4.0611    0.7500    0.0000 H   0  0  0  0  0  0  0  0  0  0  0  0
    6.7976   -1.5350    0.0000 H   0  0  0  0  0  0  0  0  0  0  0  0
    7.5947   -1.5350    0.0000 H   0  0  0  0  0  0  0  0  0  0  0  0
    8.3722   -1.0969    0.0000 H   0  0  0  0  0  0  0  0  0  0  0  0
    8.5991   -0.2500    0.0000 H   0  0  0  0  0  0  0  0  0  0  0  0
    7.7522   -0.0231    0.0000 H   0  0  0  0  0  0  0  0  0  0  0  0
    5.2520    2.5226    0.0000 H   0  0  0  0  0  0  0  0  0  0  0  0
    4.8535    1.8323    0.0000 H   0  0  0  0  0  0  0  0  0  0  0  0
    2.6120   -0.1940    0.0000 H   0  0  0  0  0  0  0  0  0  0  0  0
    6.5422    1.8574    0.0000 H   0  0  0  0  0  0  0  0  0  0  0  0
    6.9407    2.5477    0.0000 H   0  0  0  0  0  0  0  0  0  0  0  0
    1.4631   -2.7500    0.0000 H   0  0  0  0  0  0  0  0  0  0  0  0
    4.2690   -2.7500    0.0000 H   0  0  0  0  0  0  0  0  0  0  0  0
    1.4631   -4.3700    0.0000 H   0  0  0  0  0  0  0  0  0  0  0  0
    4.2690   -4.3700    0.0000 H   0  0  0  0  0  0  0  0  0  0  0  0
    2.8660   -5.1800    0.0000 H   0  0  0  0  0  0  0  0  0  0  0  0
    7.1962    4.5600    0.0000 H   0  0  0  0  0  0  0  0  0  0  0  0
  1  2  1  0  0  0  0
  1  3  1  0  0  0  0
  1  4  2  0  0  0  0
  1  9  1  0  0  0  0
  2 16  1  0  0  0  0
  3 37  1  0  0  0  0
  5 13  2  0  0  0  0
  6 20  1  0  0  0  0
  6 45  1  0  0  0  0
  7 20  2  0  0  0  0
  8  9  1  0  0  0  0
  8 13  1  0  0  0  0
  8 29  1  0  0  0  0
  9 10  1  0  0  0  0
  9 24  1  0  0  0  0
 10 11  1  0  0  0  0
 10 25  1  0  0  0  0
 10 26  1  0  0  0  0
 11 12  1  0  0  0  0
 11 27  1  0  0  0  0
 11 28  1  0  0  0  0
 12 14  1  0  0  0  0
 12 30  1  0  0  0  0
 12 31  1  0  0  0  0
 13 15  1  0  0  0  0
 14 32  1  0  0  0  0
 14 33  1  0  0  0  0
 14 34  1  0  0  0  0
 15 17  1  0  0  0  0
 15 35  1  0  0  0  0
 15 36  1  0  0  0  0
 16 18  2  0  0  0  0
 16 19  1  0  0  0  0
 17 20  1  0  0  0  0
 17 38  1  0  0  0  0
 17 39  1  0  0  0  0
 18 21  1  0  0  0  0
 18 40  1  0  0  0  0
 19 22  2  0  0  0  0
 19 41  1  0  0  0  0
 21 23  2  0  0  0  0
 21 42  1  0  0  0  0
 22 23  1  0  0  0  0
 22 43  1  0  0  0  0
 23 44  1  0  0  0  0
M  END
> <PUBCHEM_COMPOUND_CID>
4776

> <PUBCHEM_COMPOUND_CANONICALIZED>
1

> <PUBCHEM_CACTVS_COMPLEXITY>
436

> <PUBCHEM_CACTVS_HBOND_ACCEPTOR>
6

> <PUBCHEM_CACTVS_HBOND_DONOR>
3

> <PUBCHEM_CACTVS_ROTATABLE_BOND>
10

> <PUBCHEM_CACTVS_SUBSKEYS>
AAADceByOAIAAAAAAAAAAAAAAAAAAAAAAAAwAAAAAAAAAAABAAAAHggQCCAACATJkAQyDoLAAxCIQCHSGIACAAAgIAAIiIEOCIgIJjKAkRKEcAAk1hGIiAe3QAAAAAAAAAAAAAAAAAAAAAAAAAAAAAAAAA==

> <PUBCHEM_IUPAC_OPENEYE_NAME>
4-[1-[hydroxy(phenoxy)phosphoryl]pentylamino]-4-oxo-butanoic acid

> <PUBCHEM_IUPAC_CAS_NAME>
4-[1-[hydroxy(phenoxy)phosphoryl]pentylamino]-4-oxobutanoic acid

> <PUBCHEM_IUPAC_NAME>
4-[1-[hydroxy(phenoxy)phosphoryl]pentylamino]-4-oxobutanoic acid

> <PUBCHEM_IUPAC_SYSTEMATIC_NAME>
4-oxidanylidene-4-[1-[oxidanyl(phenoxy)phosphoryl]pentylamino]butanoic acid

> <PUBCHEM_IUPAC_TRADITIONAL_NAME>
4-[1-[hydroxy(phenoxy)phosphoryl]pentylamino]-4-keto-butyric acid

> <PUBCHEM_IUPAC_INCHI>
InChI=1S/C15H22NO6P/c1-2-3-9-14(16-13(17)10-11-15(18)19)23(20,21)22-12-7-5-4-6-8-12/h4-8,14H,2-3,9-11H2,1H3,(H,16,17)(H,18,19)(H,20,21)

> <PUBCHEM_IUPAC_INCHIKEY>
FJQWWGCHPFSERW-UHFFFAOYSA-N

> <PUBCHEM_XLOGP3_AA>
1.5

> <PUBCHEM_EXACT_MASS>
343.118474

> <PUBCHEM_MOLECULAR_FORMULA>
C15H22NO6P

> <PUBCHEM_MOLECULAR_WEIGHT>
343.312042

> <PUBCHEM_OPENEYE_CAN_SMILES>
CCCCC(NC(=O)CCC(=O)O)P(=O)(O)OC1=CC=CC=C1

> <PUBCHEM_OPENEYE_ISO_SMILES>
CCCCC(NC(=O)CCC(=O)O)P(=O)(O)OC1=CC=CC=C1

> <PUBCHEM_CACTVS_TPSA>
113

> <PUBCHEM_MONOISOTOPIC_WEIGHT>
343.118474

> <PUBCHEM_TOTAL_CHARGE>
0

> <PUBCHEM_HEAVY_ATOM_COUNT>
23

> <PUBCHEM_ATOM_DEF_STEREO_COUNT>
0

> <PUBCHEM_ATOM_UDEF_STEREO_COUNT>
1

> <PUBCHEM_BOND_DEF_STEREO_COUNT>
0

> <PUBCHEM_BOND_UDEF_STEREO_COUNT>
0

> <PUBCHEM_ISOTOPIC_ATOM_COUNT>
0

> <PUBCHEM_COMPONENT_COUNT>
1

> <PUBCHEM_CACTVS_TAUTO_COUNT>
2

> <PUBCHEM_COORDINATE_TYPE>
1
5
255

> <PUBCHEM_BONDANNOTATIONS>
16  18  8
16  19  8
18  21  8
19  22  8
21  23  8
22  23  8
9  24  3

$$$$

