439987
  -OEChem-07051212483D

 22 22  0     1  0  0  0  0  0999 V2000
    0.4608   -1.0897   -0.6859 O   0  0  0  0  0  0  0  0  0  0  0  0
    1.4651    1.6509   -0.6250 O   0  0  0  0  0  0  0  0  0  0  0  0
   -2.7008    0.6900   -0.1196 O   0  0  0  0  0  0  0  0  0  0  0  0
   -1.4299   -1.6999    0.6077 O   0  0  0  0  0  0  0  0  0  0  0  0
    0.9951    0.9652    0.5353 C   0  0  1  0  0  0  0  0  0  0  0  0
   -0.4949    1.2494    0.7144 C   0  0  0  0  0  0  0  0  0  0  0  0
    1.2509   -0.5406    0.3779 C   0  0  2  0  0  0  0  0  0  0  0  0
   -1.3100    0.5534   -0.3760 C   0  0  1  0  0  0  0  0  0  0  0  0
   -0.9468   -0.9288   -0.4909 C   0  0  1  0  0  0  0  0  0  0  0  0
    2.7106   -0.8500    0.0622 C   0  0  0  0  0  0  0  0  0  0  0  0
    1.5566    1.3522    1.3930 H   0  0  0  0  0  0  0  0  0  0  0  0
   -0.8248    0.9174    1.7063 H   0  0  0  0  0  0  0  0  0  0  0  0
   -0.6944    2.3273    0.6738 H   0  0  0  0  0  0  0  0  0  0  0  0
    0.9884   -1.0570    1.3096 H   0  0  0  0  0  0  0  0  0  0  0  0
   -1.0978    1.0453   -1.3328 H   0  0  0  0  0  0  0  0  0  0  0  0
   -1.4394   -1.3435   -1.3766 H   0  0  0  0  0  0  0  0  0  0  0  0
    2.8632   -1.9337    0.0099 H   0  0  0  0  0  0  0  0  0  0  0  0
    3.0040   -0.4500   -0.9143 H   0  0  0  0  0  0  0  0  0  0  0  0
    3.3777   -0.4426    0.8277 H   0  0  0  0  0  0  0  0  0  0  0  0
    1.3087    2.6007   -0.4875 H   0  0  0  0  0  0  0  0  0  0  0  0
   -2.8942    0.2529    0.7270 H   0  0  0  0  0  0  0  0  0  0  0  0
   -1.3668   -1.1658    1.4157 H   0  0  0  0  0  0  0  0  0  0  0  0
  1  7  1  0  0  0  0
  1  9  1  0  0  0  0
  2  5  1  0  0  0  0
  2 20  1  0  0  0  0
  3  8  1  0  0  0  0
  3 21  1  0  0  0  0
  4  9  1  0  0  0  0
  4 22  1  0  0  0  0
  5  6  1  0  0  0  0
  5  7  1  0  0  0  0
  5 11  1  0  0  0  0
  6  8  1  0  0  0  0
  6 12  1  0  0  0  0
  6 13  1  0  0  0  0
  7 10  1  0  0  0  0
  7 14  1  0  0  0  0
  8  9  1  0  0  0  0
  8 15  1  0  0  0  0
  9 16  1  0  0  0  0
 10 17  1  0  0  0  0
 10 18  1  0  0  0  0
 10 19  1  0  0  0  0
M  END
> <PUBCHEM_COMPOUND_CID>
439987

> <PUBCHEM_CONFORMER_RMSD>
0.4

> <PUBCHEM_CONFORMER_DIVERSEORDER>
1
3
4
2

> <PUBCHEM_MMFF94_PARTIAL_CHARGES>
11
1 -0.56
2 -0.68
20 0.4
21 0.4
22 0.4
3 -0.68
4 -0.68
5 0.28
7 0.28
8 0.28
9 0.56

> <PUBCHEM_EFFECTIVE_ROTOR_COUNT>
1.2

> <PUBCHEM_PHARMACOPHORE_FEATURES>
8
1 1 acceptor
1 2 acceptor
1 2 donor
1 3 acceptor
1 3 donor
1 4 acceptor
1 4 donor
6 1 5 6 7 8 9 rings

> <PUBCHEM_HEAVY_ATOM_COUNT>
10

> <PUBCHEM_ATOM_DEF_STEREO_COUNT>
4

> <PUBCHEM_ATOM_UDEF_STEREO_COUNT>
0

> <PUBCHEM_BOND_DEF_STEREO_COUNT>
0

> <PUBCHEM_BOND_UDEF_STEREO_COUNT>
0

> <PUBCHEM_ISOTOPIC_ATOM_COUNT>
0

> <PUBCHEM_COMPONENT_COUNT>
1

> <PUBCHEM_CACTVS_TAUTO_COUNT>
1

> <PUBCHEM_CONFORMER_ID>
0006B6B300000001

> <PUBCHEM_MMFF94_ENERGY>
19.2367

> <PUBCHEM_FEATURE_SELFOVERLAP>
40.641

> <PUBCHEM_SHAPE_FINGERPRINT>
12423570 1 15944010692892884756
15310529 11 16773235226931475738
16945 1 18340773740056616416
18185500 45 18409455812128144394
207724 885 18270399520022496922
21040471 1 18262526896408504481
21922407 69 16125597408968146593
23235685 24 18262525917008170521
23552423 10 18270966730562441726
241688 4 17397536988437248690
24536 1 18055376663609382388
2748010 2 18263932046403851588
29004967 10 17988359402919895464
5084963 1 18337120054575670885

> <PUBCHEM_SHAPE_MULTIPOLES>
182.32
2.96
1.69
0.82
0.26
0.03
0.02
-0.26
-0.07
-0.02
0.05
0
0.03
-0.01

> <PUBCHEM_SHAPE_SELFOVERLAP>
358.982

> <PUBCHEM_SHAPE_VOLUME>
106.2

> <PUBCHEM_COORDINATE_TYPE>
2
5
10

$$$$

