67221
  -OEChem-07051213013D

 28 29  0     0  0  0  0  0  0999 V2000
   -3.9441   -1.1517    0.0846 S   0  0  0  0  0  0  0  0  0  0  0  0
    3.9441   -1.1515   -0.0850 S   0  0  0  0  0  0  0  0  0  0  0  0
    1.3061    3.1745   -0.0278 O   0  0  0  0  0  0  0  0  0  0  0  0
   -1.3057    3.1749    0.0280 O   0  0  0  0  0  0  0  0  0  0  0  0
   -4.3491   -1.3657   -1.4848 O   0  0  0  0  0  0  0  0  0  0  0  0
    4.3504   -1.3656    1.4841 O   0  0  0  0  0  0  0  0  0  0  0  0
   -3.6891   -2.4723    0.6411 O   0  0  0  0  0  0  0  0  0  0  0  0
   -4.9303   -0.2698    0.6891 O   0  0  0  0  0  0  0  0  0  0  0  0
    3.6894   -2.4723   -0.6414 O   0  0  0  0  0  0  0  0  0  0  0  0
    4.9296   -0.2692   -0.6902 O   0  0  0  0  0  0  0  0  0  0  0  0
   -0.0001   -0.2908    0.0008 C   0  0  0  0  0  0  0  0  0  0  0  0
   -0.0001    1.1245    0.0001 C   0  0  0  0  0  0  0  0  0  0  0  0
    1.2244   -0.9777   -0.0257 C   0  0  0  0  0  0  0  0  0  0  0  0
   -1.2250   -0.9774    0.0272 C   0  0  0  0  0  0  0  0  0  0  0  0
   -2.4322   -0.2787    0.0529 C   0  0  0  0  0  0  0  0  0  0  0  0
    2.4319   -0.2792   -0.0523 C   0  0  0  0  0  0  0  0  0  0  0  0
    1.2248    1.8111   -0.0267 C   0  0  0  0  0  0  0  0  0  0  0  0
   -1.2247    1.8114    0.0262 C   0  0  0  0  0  0  0  0  0  0  0  0
   -2.4322    1.1130    0.0523 C   0  0  0  0  0  0  0  0  0  0  0  0
    2.4322    1.1124   -0.0527 C   0  0  0  0  0  0  0  0  0  0  0  0
    1.2241   -2.0659   -0.0177 H   0  0  0  0  0  0  0  0  0  0  0  0
   -1.2248   -2.0656    0.0196 H   0  0  0  0  0  0  0  0  0  0  0  0
   -3.3653    1.6706    0.0642 H   0  0  0  0  0  0  0  0  0  0  0  0
    3.3710    1.6604   -0.0646 H   0  0  0  0  0  0  0  0  0  0  0  0
    2.2388    3.4485   -0.0490 H   0  0  0  0  0  0  0  0  0  0  0  0
   -0.4232    3.5738    0.0091 H   0  0  0  0  0  0  0  0  0  0  0  0
   -3.7121   -1.8981   -2.0170 H   0  0  0  0  0  0  0  0  0  0  0  0
    3.7138   -1.8981    2.0168 H   0  0  0  0  0  0  0  0  0  0  0  0
  1  5  1  0  0  0  0
  1  7  2  0  0  0  0
  1  8  2  0  0  0  0
  1 15  1  0  0  0  0
  2  6  1  0  0  0  0
  2  9  2  0  0  0  0
  2 10  2  0  0  0  0
  2 16  1  0  0  0  0
  3 17  1  0  0  0  0
  3 25  1  0  0  0  0
  4 18  1  0  0  0  0
  4 26  1  0  0  0  0
  5 27  1  0  0  0  0
  6 28  1  0  0  0  0
 11 12  1  0  0  0  0
 11 13  2  0  0  0  0
 11 14  1  0  0  0  0
 12 17  2  0  0  0  0
 12 18  1  0  0  0  0
 13 16  1  0  0  0  0
 13 21  1  0  0  0  0
 14 15  2  0  0  0  0
 14 22  1  0  0  0  0
 15 19  1  0  0  0  0
 16 20  2  0  0  0  0
 17 20  1  0  0  0  0
 18 19  2  0  0  0  0
 19 23  1  0  0  0  0
 20 24  1  0  0  0  0
M  END
> <PUBCHEM_COMPOUND_CID>
67221

> <PUBCHEM_CONFORMER_RMSD>
0.6

> <PUBCHEM_CONFORMER_DIVERSEORDER>
1
2

> <PUBCHEM_MMFF94_PARTIAL_CHARGES>
26
1 1.49
10 -0.65
13 -0.15
14 -0.15
15 -0.01
16 -0.01
17 0.08
18 0.08
19 -0.15
2 1.49
20 -0.15
21 0.15
22 0.15
23 0.15
24 0.15
25 0.45
26 0.45
27 0.5
28 0.5
3 -0.53
4 -0.53
5 -0.68
6 -0.68
7 -0.65
8 -0.65
9 -0.65

> <PUBCHEM_EFFECTIVE_ROTOR_COUNT>
2

> <PUBCHEM_PHARMACOPHORE_FEATURES>
12
1 10 acceptor
1 3 donor
1 4 donor
1 5 acceptor
1 6 acceptor
1 7 acceptor
1 8 acceptor
1 9 acceptor
4 1 5 7 8 anion
4 2 6 9 10 anion
6 11 12 13 16 17 20 rings
6 11 12 14 15 18 19 rings

> <PUBCHEM_HEAVY_ATOM_COUNT>
20

> <PUBCHEM_ATOM_DEF_STEREO_COUNT>
0

> <PUBCHEM_ATOM_UDEF_STEREO_COUNT>
0

> <PUBCHEM_BOND_DEF_STEREO_COUNT>
0

> <PUBCHEM_BOND_UDEF_STEREO_COUNT>
0

> <PUBCHEM_ISOTOPIC_ATOM_COUNT>
0

> <PUBCHEM_COMPONENT_COUNT>
1

> <PUBCHEM_CACTVS_TAUTO_COUNT>
10

> <PUBCHEM_CONFORMER_ID>
0001069500000001

> <PUBCHEM_MMFF94_ENERGY>
40.6194

> <PUBCHEM_FEATURE_SELFOVERLAP>
61.044

> <PUBCHEM_SHAPE_FINGERPRINT>
10319926 262 17976847560023975666
10967382 1 18194399987662428684
10989021 7 18409729538783711304
11543360 7 15697709329167033066
11806522 49 18413387627228445572
12032990 46 18410852165888356195
12553582 1 18410856563940518830
13140716 1 18338516326984738059
138480 1 14880595636514492896
13862211 1 18410862061493454406
14178342 30 18052832621969335922
15042514 8 18123187072073578960
15196674 1 18410572885640193636
15352361 1 18410572889961541214
15442244 35 18408598146072581185
15536298 74 18262518091614849440
15848700 24 18407763629531644358
16945 1 18410855464423460389
17357779 13 18341908384786055589
17804303 29 18335979852206348968
1813 80 17917701426880426804
18186145 218 17703236113832490955
18222031 100 18260554406929235342
19141452 34 18113334224303295487
200 152 18187369813889386455
20645477 70 18268718207988359383
21029758 11 18410576179911569817
21029758 27 18412537704371052613
21267235 1 18410844469307156643
21296965 67 18409729577680945136
21501502 16 18410565189069543588
21501925 9 18409737252908712050
221490 88 18269548334829795275
22182313 1 18268170723927750172
23366157 5 18058729087743409116
23402539 116 18335708260181423727
23557571 272 18043239335576807350
23559900 14 18339929207857992152
2748010 2 18337403724397019756
3091708 16 9497779919800644585
335352 9 18410853309062041141
5104073 3 18408603656024986337
54173680 148 18194399115958173392
7364860 26 18264205812389526248
8809292 202 18272645719325766747
8863177 126 17772453609428528027
9709674 26 18126845993589572611

> <PUBCHEM_SHAPE_MULTIPOLES>
372.34
8.89
2.88
0.83
0
1.67
0
-6.5
0
0
0
0
-0.33
-0.16

> <PUBCHEM_SHAPE_SELFOVERLAP>
790.065

> <PUBCHEM_SHAPE_VOLUME>
208.9

> <PUBCHEM_COORDINATE_TYPE>
2
5
10

$$$$

