5281864
  -OEChem-07051213003D

 39 40  0     1  0  0  0  0  0999 V2000
    4.3343   -0.3058   -1.2533 O   0  0  0  0  0  0  0  0  0  0  0  0
    3.8371    1.8820    0.0111 O   0  0  0  0  0  0  0  0  0  0  0  0
   -1.3674   -0.6078   -0.3737 O   0  0  0  0  0  0  0  0  0  0  0  0
   -1.9938    1.6077   -0.3955 O   0  0  0  0  0  0  0  0  0  0  0  0
    2.4995   -0.5833    1.1233 N   0  0  0  0  0  0  0  0  0  0  0  0
    2.3482   -1.2215   -0.1918 C   0  0  2  0  0  0  0  0  0  0  0  0
    1.9021    0.7480    0.9498 C   0  0  1  0  0  0  0  0  0  0  0  0
    2.9348   -0.1134   -1.0861 C   0  0  1  0  0  0  0  0  0  0  0  0
    2.6369    1.1974   -0.3270 C   0  0  2  0  0  0  0  0  0  0  0  0
    0.8688   -1.4951   -0.5265 C   0  0  0  0  0  0  0  0  0  0  0  0
    0.3796    0.6654    0.7259 C   0  0  0  0  0  0  0  0  0  0  0  0
    0.0023   -0.2319   -0.4598 C   0  0  0  0  0  0  0  0  0  0  0  0
    2.0255   -1.3497    2.2605 C   0  0  0  0  0  0  0  0  0  0  0  0
   -2.2688    0.4171   -0.3497 C   0  0  0  0  0  0  0  0  0  0  0  0
   -3.6554   -0.1318   -0.2520 C   0  0  0  0  0  0  0  0  0  0  0  0
   -3.9431   -1.4570   -0.8932 C   0  0  0  0  0  0  0  0  0  0  0  0
   -4.5495    0.6423    0.3902 C   0  0  0  0  0  0  0  0  0  0  0  0
   -5.9911    0.3372    0.6479 C   0  0  0  0  0  0  0  0  0  0  0  0
    2.9346   -2.1450   -0.2515 H   0  0  0  0  0  0  0  0  0  0  0  0
    2.1353    1.3993    1.7997 H   0  0  0  0  0  0  0  0  0  0  0  0
    2.4757   -0.1038   -2.0807 H   0  0  0  0  0  0  0  0  0  0  0  0
    2.0257    1.8773   -0.9294 H   0  0  0  0  0  0  0  0  0  0  0  0
    0.7900   -1.9248   -1.5336 H   0  0  0  0  0  0  0  0  0  0  0  0
    0.4623   -2.2653    0.1410 H   0  0  0  0  0  0  0  0  0  0  0  0
   -0.1227    0.3226    1.6391 H   0  0  0  0  0  0  0  0  0  0  0  0
    0.0338    1.6921    0.5697 H   0  0  0  0  0  0  0  0  0  0  0  0
    0.1389    0.3237   -1.3971 H   0  0  0  0  0  0  0  0  0  0  0  0
    0.9561   -1.5768    2.2373 H   0  0  0  0  0  0  0  0  0  0  0  0
    2.2315   -0.8077    3.1900 H   0  0  0  0  0  0  0  0  0  0  0  0
    2.5674   -2.2997    2.3248 H   0  0  0  0  0  0  0  0  0  0  0  0
    4.4591   -1.1561   -1.7082 H   0  0  0  0  0  0  0  0  0  0  0  0
    4.3892    1.2717    0.5294 H   0  0  0  0  0  0  0  0  0  0  0  0
   -5.0070   -1.6106   -1.0904 H   0  0  0  0  0  0  0  0  0  0  0  0
   -3.4355   -1.5308   -1.8614 H   0  0  0  0  0  0  0  0  0  0  0  0
   -3.5897   -2.2731   -0.2552 H   0  0  0  0  0  0  0  0  0  0  0  0
   -4.2269    1.5973    0.8025 H   0  0  0  0  0  0  0  0  0  0  0  0
   -6.2055    0.4637    1.7141 H   0  0  0  0  0  0  0  0  0  0  0  0
   -6.2765   -0.6817    0.3778 H   0  0  0  0  0  0  0  0  0  0  0  0
   -6.6237    1.0335    0.0890 H   0  0  0  0  0  0  0  0  0  0  0  0
  1  8  1  0  0  0  0
  1 31  1  0  0  0  0
  2  9  1  0  0  0  0
  2 32  1  0  0  0  0
  3 12  1  0  0  0  0
  3 14  1  0  0  0  0
  4 14  2  0  0  0  0
  5  6  1  0  0  0  0
  5  7  1  0  0  0  0
  5 13  1  0  0  0  0
  6  8  1  0  0  0  0
  6 10  1  0  0  0  0
  6 19  1  0  0  0  0
  7  9  1  0  0  0  0
  7 11  1  0  0  0  0
  7 20  1  0  0  0  0
  8  9  1  0  0  0  0
  8 21  1  0  0  0  0
  9 22  1  0  0  0  0
 10 12  1  0  0  0  0
 10 23  1  0  0  0  0
 10 24  1  0  0  0  0
 11 12  1  0  0  0  0
 11 25  1  0  0  0  0
 11 26  1  0  0  0  0
 12 27  1  0  0  0  0
 13 28  1  0  0  0  0
 13 29  1  0  0  0  0
 13 30  1  0  0  0  0
 14 15  1  0  0  0  0
 15 16  1  0  0  0  0
 15 17  2  0  0  0  0
 16 33  1  0  0  0  0
 16 34  1  0  0  0  0
 16 35  1  0  0  0  0
 17 18  1  0  0  0  0
 17 36  1  0  0  0  0
 18 37  1  0  0  0  0
 18 38  1  0  0  0  0
 18 39  1  0  0  0  0
M  END
> <PUBCHEM_COMPOUND_CID>
5281864

> <PUBCHEM_CONFORMER_RMSD>
0.6

> <PUBCHEM_CONFORMER_DIVERSEORDER>
1
46
61
67
26
56
50
18
32
72
70
68
55
49
39
52
60
21
65
11
64
29
41
20
57
62
69
25
51
38
43
63
37
16
71
31
24
35
59
5
17
53
48
2
42
15
30
34
54
40
36
23
7
13
33
22
47
10
44
45
66
19
6
58
4
3
27
14
12
9
8
28

> <PUBCHEM_MMFF94_PARTIAL_CHARGES>
19
1 -0.68
12 0.28
13 0.27
14 0.71
15 -0.12
16 0.14
17 -0.29
18 0.14
2 -0.68
3 -0.43
31 0.4
32 0.4
36 0.15
4 -0.57
5 -0.81
6 0.27
7 0.27
8 0.28
9 0.28

> <PUBCHEM_EFFECTIVE_ROTOR_COUNT>
4.2

> <PUBCHEM_PHARMACOPHORE_FEATURES>
9
1 1 acceptor
1 1 donor
1 16 hydrophobe
1 18 hydrophobe
1 2 acceptor
1 2 donor
1 4 acceptor
1 5 cation
8 5 6 7 8 9 10 11 12 rings

> <PUBCHEM_HEAVY_ATOM_COUNT>
18

> <PUBCHEM_ATOM_DEF_STEREO_COUNT>
2

> <PUBCHEM_ATOM_UDEF_STEREO_COUNT>
2

> <PUBCHEM_BOND_DEF_STEREO_COUNT>
1

> <PUBCHEM_BOND_UDEF_STEREO_COUNT>
0

> <PUBCHEM_ISOTOPIC_ATOM_COUNT>
0

> <PUBCHEM_COMPONENT_COUNT>
1

> <PUBCHEM_CACTVS_TAUTO_COUNT>
1

> <PUBCHEM_CONFORMER_ID>
0050984800000001

> <PUBCHEM_MMFF94_ENERGY>
51.5578

> <PUBCHEM_FEATURE_SELFOVERLAP>
45.696

> <PUBCHEM_SHAPE_FINGERPRINT>
11089746 13 15430323585350255481
12553582 1 18409456890534350309
128620 24 15769773559472466435
12932764 1 18201729474117880199
13224815 77 18409738335324879815
13296908 3 16298395634429630391
13533116 47 17560805493687499355
13675066 3 16298394552245597451
13760787 19 18202563973558198891
13955234 65 18408882975229170914
14252887 29 15051728728829760139
15196674 1 18187364294640074943
15375358 24 12247676067415880437
16945 1 18261970638003405598
17349148 13 10952054446509556373
18186145 218 18408328787003167445
19050596 39 18412833490542887763
20279233 1 11599716298835788349
20281475 54 18334301976515014679
20559304 39 18271254922983983170
20645477 70 16128661898166926651
212847 35 16950279624418102777
21452121 103 17822301141398961512
21503847 285 18260543424687245025
22854114 111 18131639980002554516
23402655 69 17822290162976970117
23557571 272 17132112493848982933
23559900 14 18113899406969960406
300161 21 18412553093882393877
3060560 45 18408601466055810702
312423 11 17845090847339927889
4047638 21 18413385423868109116
4340502 62 17632577128127541802
474 4 17631165286642070180
4990 188 17676198065852810422
5104073 3 18260832566455035523
522135 26 18040713688321281229
5374978 207 18201722881591163009
633830 44 18259989253847235687
74978 22 13840275744904559325
77779 3 18186517692282745687

> <PUBCHEM_SHAPE_MULTIPOLES>
341.97
9.8
1.54
1.32
12.24
0.05
-0.65
1.22
0.21
-0.59
0.02
-1.1
-0.43
-0.63

> <PUBCHEM_SHAPE_SELFOVERLAP>
706.315

> <PUBCHEM_SHAPE_VOLUME>
197.3

> <PUBCHEM_COORDINATE_TYPE>
2
5
10

$$$$

