23724657
  -OEChem-07051213083D

 62 65  0     1  0  0  0  0  0999 V2000
   -3.3259   -0.3810    0.0439 O   0  0  0  0  0  0  0  0  0  0  0  0
   -2.4705   -2.5025    0.5041 O   0  0  0  0  0  0  0  0  0  0  0  0
   -6.3490    0.7546   -1.6838 O   0  0  0  0  0  0  0  0  0  0  0  0
   -7.0299   -1.9230   -0.8337 O   0  0  0  0  0  0  0  0  0  0  0  0
   -4.6492   -3.6581   -0.8837 O   0  0  0  0  0  0  0  0  0  0  0  0
   -2.5974    2.2321   -0.3997 O   0  0  0  0  0  0  0  0  0  0  0  0
   -1.4166   -1.7197    2.9537 O   0  0  0  0  0  0  0  0  0  0  0  0
    1.7104   -1.7238   -1.5978 O   0  0  0  0  0  0  0  0  0  0  0  0
   -3.0849    4.3441    0.3859 O   0  0  0  0  0  0  0  0  0  0  0  0
    3.4037   -0.5147    1.9120 O   0  0  0  0  0  0  0  0  0  0  0  0
    1.0690    5.1323    0.0632 O   0  0  0  0  0  0  0  0  0  0  0  0
   -0.9401    6.0240    0.6456 O   0  0  0  0  0  0  0  0  0  0  0  0
    9.1371    0.4120   -0.6397 O   0  0  0  0  0  0  0  0  0  0  0  0
   -5.5823   -0.0183   -0.7640 C   0  0  1  0  0  0  0  0  0  0  0  0
   -5.6980   -1.4986   -1.1280 C   0  0  1  0  0  0  0  0  0  0  0  0
   -4.1228    0.4401   -0.8116 C   0  0  1  0  0  0  0  0  0  0  0  0
   -4.7061   -2.3441   -0.3291 C   0  0  2  0  0  0  0  0  0  0  0  0
   -3.3010   -1.7438   -0.3743 C   0  0  1  0  0  0  0  0  0  0  0  0
   -3.9682    1.8823   -0.3391 C   0  0  0  0  0  0  0  0  0  0  0  0
   -1.1677   -2.1098    0.6037 C   0  0  0  0  0  0  0  0  0  0  0  0
   -0.6387   -1.7172    1.8338 C   0  0  0  0  0  0  0  0  0  0  0  0
   -0.3646   -2.1057   -0.5366 C   0  0  0  0  0  0  0  0  0  0  0  0
    0.9695   -1.7081   -0.4439 C   0  0  0  0  0  0  0  0  0  0  0  0
   -2.2812    3.5095   -0.0047 C   0  0  0  0  0  0  0  0  0  0  0  0
    1.4981   -1.3154    0.7852 C   0  0  0  0  0  0  0  0  0  0  0  0
    0.6953   -1.3184    1.9289 C   0  0  0  0  0  0  0  0  0  0  0  0
    2.9095   -0.8948    0.8585 C   0  0  0  0  0  0  0  0  0  0  0  0
   -0.7925    3.7182   -0.1392 C   0  0  0  0  0  0  0  0  0  0  0  0
    3.6825   -0.9460   -0.4130 C   0  0  0  0  0  0  0  0  0  0  0  0
    3.0296   -1.3500   -1.5131 C   0  0  0  0  0  0  0  0  0  0  0  0
    5.1097   -0.5903   -0.4719 C   0  0  0  0  0  0  0  0  0  0  0  0
   -2.1289   -0.5202    3.2493 C   0  0  0  0  0  0  0  0  0  0  0  0
   -0.2779    5.0829    0.2364 C   0  0  0  0  0  0  0  0  0  0  0  0
    5.4937    0.7241   -0.7450 C   0  0  0  0  0  0  0  0  0  0  0  0
    6.0843   -1.5668   -0.2552 C   0  0  0  0  0  0  0  0  0  0  0  0
    6.8463    1.0607   -0.8013 C   0  0  0  0  0  0  0  0  0  0  0  0
    7.4368   -1.2302   -0.3114 C   0  0  0  0  0  0  0  0  0  0  0  0
    7.8178    0.0835   -0.5845 C   0  0  0  0  0  0  0  0  0  0  0  0
   -6.0061    0.1346    0.2371 H   0  0  0  0  0  0  0  0  0  0  0  0
   -5.5538   -1.6511   -2.2047 H   0  0  0  0  0  0  0  0  0  0  0  0
   -3.7236    0.3733   -1.8328 H   0  0  0  0  0  0  0  0  0  0  0  0
   -5.0519   -2.4472    0.7071 H   0  0  0  0  0  0  0  0  0  0  0  0
   -2.9095   -1.8153   -1.3975 H   0  0  0  0  0  0  0  0  0  0  0  0
   -4.5420    2.5658   -0.9740 H   0  0  0  0  0  0  0  0  0  0  0  0
   -4.3084    1.9748    0.6995 H   0  0  0  0  0  0  0  0  0  0  0  0
   -6.4771    1.6368   -1.2969 H   0  0  0  0  0  0  0  0  0  0  0  0
   -7.6349   -1.3585   -1.3446 H   0  0  0  0  0  0  0  0  0  0  0  0
   -4.0007   -4.1650   -0.3655 H   0  0  0  0  0  0  0  0  0  0  0  0
   -0.7589   -2.4274   -1.4969 H   0  0  0  0  0  0  0  0  0  0  0  0
    1.0946   -1.0151    2.8931 H   0  0  0  0  0  0  0  0  0  0  0  0
   -0.2964    2.9859    0.5073 H   0  0  0  0  0  0  0  0  0  0  0  0
   -0.5271    3.5410   -1.1873 H   0  0  0  0  0  0  0  0  0  0  0  0
    3.4900   -1.4302   -2.4902 H   0  0  0  0  0  0  0  0  0  0  0  0
   -2.3511   -0.5104    4.3200 H   0  0  0  0  0  0  0  0  0  0  0  0
   -1.5406    0.3713    3.0073 H   0  0  0  0  0  0  0  0  0  0  0  0
   -3.0740   -0.5060    2.7005 H   0  0  0  0  0  0  0  0  0  0  0  0
    4.7484    1.4975   -0.9153 H   0  0  0  0  0  0  0  0  0  0  0  0
    5.8034   -2.5952   -0.0404 H   0  0  0  0  0  0  0  0  0  0  0  0
    7.1301    2.0877   -1.0148 H   0  0  0  0  0  0  0  0  0  0  0  0
    8.1890   -1.9957   -0.1415 H   0  0  0  0  0  0  0  0  0  0  0  0
    1.4364    6.0095    0.3036 H   0  0  0  0  0  0  0  0  0  0  0  0
    9.2177    1.3606   -0.8391 H   0  0  0  0  0  0  0  0  0  0  0  0
  1 16  1  0  0  0  0
  1 18  1  0  0  0  0
  2 18  1  0  0  0  0
  2 20  1  0  0  0  0
  3 14  1  0  0  0  0
  3 46  1  0  0  0  0
  4 15  1  0  0  0  0
  4 47  1  0  0  0  0
  5 17  1  0  0  0  0
  5 48  1  0  0  0  0
  6 19  1  0  0  0  0
  6 24  1  0  0  0  0
  7 21  1  0  0  0  0
  7 32  1  0  0  0  0
  8 23  1  0  0  0  0
  8 30  1  0  0  0  0
  9 24  2  0  0  0  0
 10 27  2  0  0  0  0
 11 33  1  0  0  0  0
 11 61  1  0  0  0  0
 12 33  2  0  0  0  0
 13 38  1  0  0  0  0
 13 62  1  0  0  0  0
 14 15  1  0  0  0  0
 14 16  1  0  0  0  0
 14 39  1  0  0  0  0
 15 17  1  0  0  0  0
 15 40  1  0  0  0  0
 16 19  1  0  0  0  0
 16 41  1  0  0  0  0
 17 18  1  0  0  0  0
 17 42  1  0  0  0  0
 18 43  1  0  0  0  0
 19 44  1  0  0  0  0
 19 45  1  0  0  0  0
 20 21  2  0  0  0  0
 20 22  1  0  0  0  0
 21 26  1  0  0  0  0
 22 23  2  0  0  0  0
 22 49  1  0  0  0  0
 23 25  1  0  0  0  0
 24 28  1  0  0  0  0
 25 26  2  0  0  0  0
 25 27  1  0  0  0  0
 26 50  1  0  0  0  0
 27 29  1  0  0  0  0
 28 33  1  0  0  0  0
 28 51  1  0  0  0  0
 28 52  1  0  0  0  0
 29 30  2  0  0  0  0
 29 31  1  0  0  0  0
 30 53  1  0  0  0  0
 31 34  2  0  0  0  0
 31 35  1  0  0  0  0
 32 54  1  0  0  0  0
 32 55  1  0  0  0  0
 32 56  1  0  0  0  0
 34 36  1  0  0  0  0
 34 57  1  0  0  0  0
 35 37  2  0  0  0  0
 35 58  1  0  0  0  0
 36 38  2  0  0  0  0
 36 59  1  0  0  0  0
 37 38  1  0  0  0  0
 37 60  1  0  0  0  0
M  END
> <PUBCHEM_COMPOUND_CID>
23724657

> <PUBCHEM_CONFORMER_RMSD>
1.2

> <PUBCHEM_CONFORMER_DIVERSEORDER>
1
6
33
28
3
5
14
10
26
23
40
17
12
41
32
38
19
24
15
27
18
39
44
31
36
16
9
4
43
45
25
29
2
8
20
37
21
11
42
13
35
30
7
34
46
22

> <PUBCHEM_MMFF94_PARTIAL_CHARGES>
50
1 -0.56
10 -0.57
11 -0.65
12 -0.57
13 -0.53
14 0.28
15 0.28
16 0.28
17 0.28
18 0.56
19 0.28
2 -0.36
20 0.08
21 0.08
22 -0.15
23 0.08
24 0.66
25 0.09
26 -0.15
27 0.47
28 0.12
29 -0.01
3 -0.68
30 -0.07
31 0.03
32 0.28
33 0.66
34 -0.15
35 -0.15
36 -0.15
37 -0.15
38 0.08
4 -0.68
46 0.4
47 0.4
48 0.4
49 0.15
5 -0.68
50 0.15
53 0.15
57 0.15
58 0.15
59 0.15
6 -0.43
60 0.15
61 0.5
62 0.45
7 -0.36
8 -0.16
9 -0.57

> <PUBCHEM_EFFECTIVE_ROTOR_COUNT>
10.2

> <PUBCHEM_PHARMACOPHORE_FEATURES>
21
1 1 acceptor
1 10 acceptor
1 11 acceptor
1 12 acceptor
1 13 donor
1 2 acceptor
1 28 anion
1 3 acceptor
1 3 donor
1 4 acceptor
1 4 donor
1 5 acceptor
1 5 donor
1 7 acceptor
1 8 acceptor
1 9 acceptor
3 11 12 33 anion
6 1 14 15 16 17 18 rings
6 20 21 22 23 25 26 rings
6 31 34 35 36 37 38 rings
6 8 23 25 27 29 30 rings

> <PUBCHEM_HEAVY_ATOM_COUNT>
38

> <PUBCHEM_ATOM_DEF_STEREO_COUNT>
5

> <PUBCHEM_ATOM_UDEF_STEREO_COUNT>
0

> <PUBCHEM_BOND_DEF_STEREO_COUNT>
0

> <PUBCHEM_BOND_UDEF_STEREO_COUNT>
0

> <PUBCHEM_ISOTOPIC_ATOM_COUNT>
0

> <PUBCHEM_COMPONENT_COUNT>
1

> <PUBCHEM_CACTVS_TAUTO_COUNT>
2

> <PUBCHEM_CONFORMER_ID>
016A027100000001

> <PUBCHEM_MMFF94_ENERGY>
121.098

> <PUBCHEM_FEATURE_SELFOVERLAP>
106.984

> <PUBCHEM_SHAPE_FINGERPRINT>
10 15 12751238095498393694
10032420 55 17774461446393313901
100830 39 18338797918500351324
10291535 26 18343010108032013842
10454371 7 18411696617184462836
10670039 82 18412267267760849444
11476731 118 18265612092552765404
11477941 20 18261402117350931220
12107698 1 18411702058754981054
12788726 201 18270685375612869617
13726171 33 18126569153584421381
14020679 6 12031788045981925942
14394314 77 18339356496040811453
15183329 4 18410855473741648634
15400415 2 17472417029579311668
15419008 47 18040440975383920592
15876981 60 18342452608634697807
15961568 22 18408040727572703508
15968369 153 18115603556263575872
16090146 7 17274809273619104610
19611394 137 18128245684924826859
21033650 10 18125699404783281534
21133410 230 16404194787581232010
21344244 246 17831589674176060759
21859007 373 18187942694355627880
23516275 100 18193568766259571288
24204213 62 17117772882159932845
373842 8 18341046299573628436
44802255 64 18261108548295766582
4616759 239 17345752981026457184
484985 159 9006765441928339497
5104073 3 14763773098116571110
550186 7 18189060952534683438
6201320 215 18335147544465707624
6608658 132 18342459295735376561

> <PUBCHEM_SHAPE_MULTIPOLES>
705.72
18.34
5.77
1.8
27.76
13.14
1.65
-5.13
-9.34
-6.51
0.62
-1.08
-1.08
-0.61

> <PUBCHEM_SHAPE_SELFOVERLAP>
1527.176

> <PUBCHEM_SHAPE_VOLUME>
382.4

> <PUBCHEM_COORDINATE_TYPE>
2
5
10

$$$$

