443274
  -OEChem-07051213012D

 42 45  0     0  0  0  0  0  0999 V2000
    4.5274    0.3142    0.0000 S   0  0  0  0  0  0  0  0  0  0  0  0
    8.0321   -0.5983    0.0000 S   0  0  0  0  0  0  0  0  0  0  0  0
    6.3518   -0.0413    0.0000 N   0  0  0  0  0  0  0  0  0  0  0  0
    6.7328   -1.8007    0.0000 N   0  0  0  0  0  0  0  0  0  0  0  0
    5.3923   -2.9568    0.0000 N   0  0  0  0  0  0  0  0  0  0  0  0
    3.3424   -2.0094    0.0000 C   0  0  0  0  0  0  0  0  0  0  0  0
    2.3219   -1.8007    0.0000 C   0  0  0  0  0  0  0  0  0  0  0  0
    4.0274   -1.2246    0.0000 C   0  0  0  0  0  0  0  0  0  0  0  0
    2.0000   -0.8100    0.0000 C   0  0  0  0  0  0  0  0  0  0  0  0
    2.7029   -0.0413    0.0000 C   0  0  0  0  0  0  0  0  0  0  0  0
    3.7183   -0.2736    0.0000 C   0  0  0  0  0  0  0  0  0  0  0  0
    5.0274   -1.2246    0.0000 C   0  0  0  0  0  0  0  0  0  0  0  0
    5.3364   -0.2736    0.0000 C   0  0  0  0  0  0  0  0  0  0  0  0
    5.7123   -2.0094    0.0000 C   0  0  0  0  0  0  0  0  0  0  0  0
    7.0547   -0.8100    0.0000 C   0  0  0  0  0  0  0  0  0  0  0  0
    8.3374    0.3539    0.0000 C   0  0  0  0  0  0  0  0  0  0  0  0
    9.3148    0.5656    0.0000 C   0  0  0  0  0  0  0  0  0  0  0  0
    9.6201    1.5178    0.0000 C   0  0  0  0  0  0  0  0  0  0  0  0
    8.9481    2.2584    0.0000 C   0  0  0  0  0  0  0  0  0  0  0  0
   10.5974    1.7295    0.0000 C   0  0  0  0  0  0  0  0  0  0  0  0
    9.2535    3.2106    0.0000 C   0  0  0  0  0  0  0  0  0  0  0  0
   10.9028    2.6818    0.0000 C   0  0  0  0  0  0  0  0  0  0  0  0
   10.2308    3.4223    0.0000 C   0  0  0  0  0  0  0  0  0  0  0  0
    3.1160   -2.5866    0.0000 H   0  0  0  0  0  0  0  0  0  0  0  0
    3.8724   -2.3311    0.0000 H   0  0  0  0  0  0  0  0  0  0  0  0
    1.7081   -1.8885    0.0000 H   0  0  0  0  0  0  0  0  0  0  0  0
    2.3034   -2.4204    0.0000 H   0  0  0  0  0  0  0  0  0  0  0  0
    1.6208   -0.3195    0.0000 H   0  0  0  0  0  0  0  0  0  0  0  0
    1.4518   -1.0997    0.0000 H   0  0  0  0  0  0  0  0  0  0  0  0
    2.9426    0.5305    0.0000 H   0  0  0  0  0  0  0  0  0  0  0  0
    2.1806    0.2926    0.0000 H   0  0  0  0  0  0  0  0  0  0  0  0
    5.8018   -3.4223    0.0000 H   0  0  0  0  0  0  0  0  0  0  0  0
    4.7844   -3.0787    0.0000 H   0  0  0  0  0  0  0  0  0  0  0  0
    8.3134    0.9734    0.0000 H   0  0  0  0  0  0  0  0  0  0  0  0
    7.7231    0.4378    0.0000 H   0  0  0  0  0  0  0  0  0  0  0  0
    9.3388   -0.0539    0.0000 H   0  0  0  0  0  0  0  0  0  0  0  0
    9.9290    0.4817    0.0000 H   0  0  0  0  0  0  0  0  0  0  0  0
    8.3422    2.1271    0.0000 H   0  0  0  0  0  0  0  0  0  0  0  0
   11.0141    1.2704    0.0000 H   0  0  0  0  0  0  0  0  0  0  0  0
    8.8368    3.6698    0.0000 H   0  0  0  0  0  0  0  0  0  0  0  0
   11.5087    2.8130    0.0000 H   0  0  0  0  0  0  0  0  0  0  0  0
   10.4201    4.0127    0.0000 H   0  0  0  0  0  0  0  0  0  0  0  0
  1 11  1  0  0  0  0
  1 13  1  0  0  0  0
  2 15  1  0  0  0  0
  2 16  1  0  0  0  0
  3 13  2  0  0  0  0
  3 15  1  0  0  0  0
  4 14  1  0  0  0  0
  4 15  2  0  0  0  0
  5 14  1  0  0  0  0
  5 32  1  0  0  0  0
  5 33  1  0  0  0  0
  6  7  1  0  0  0  0
  6  8  1  0  0  0  0
  6 24  1  0  0  0  0
  6 25  1  0  0  0  0
  7  9  1  0  0  0  0
  7 26  1  0  0  0  0
  7 27  1  0  0  0  0
  8 11  2  0  0  0  0
  8 12  1  0  0  0  0
  9 10  1  0  0  0  0
  9 28  1  0  0  0  0
  9 29  1  0  0  0  0
 10 11  1  0  0  0  0
 10 30  1  0  0  0  0
 10 31  1  0  0  0  0
 12 13  1  0  0  0  0
 12 14  2  0  0  0  0
 16 17  1  0  0  0  0
 16 34  1  0  0  0  0
 16 35  1  0  0  0  0
 17 18  1  0  0  0  0
 17 36  1  0  0  0  0
 17 37  1  0  0  0  0
 18 19  2  0  0  0  0
 18 20  1  0  0  0  0
 19 21  1  0  0  0  0
 19 38  1  0  0  0  0
 20 22  2  0  0  0  0
 20 39  1  0  0  0  0
 21 23  2  0  0  0  0
 21 40  1  0  0  0  0
 22 23  1  0  0  0  0
 22 41  1  0  0  0  0
 23 42  1  0  0  0  0
M  END
> <PUBCHEM_COMPOUND_CID>
443274

> <PUBCHEM_COMPOUND_CANONICALIZED>
1

> <PUBCHEM_CACTVS_COMPLEXITY>
389

> <PUBCHEM_CACTVS_HBOND_ACCEPTOR>
5

> <PUBCHEM_CACTVS_HBOND_DONOR>
1

> <PUBCHEM_CACTVS_ROTATABLE_BOND>
4

> <PUBCHEM_CACTVS_SUBSKEYS>
AAADceB7AABgAAAAAAAAAAAAAAAAASAAAAA8YIAAAAAAAFgB/AAAHAQQAAAADACFWgCxsdZIEAikAiJiZACD0KlhCLgJmDAgRJiIKCLg2dGEJAxogAJoyCcQgMAOgAAAAAAAAAAAAAAAAAgAAAAAAAAAAA==

> <PUBCHEM_IUPAC_OPENEYE_NAME>
2-(2-phenylethylsulfanyl)-5,6,7,8-tetrahydrobenzothiopheno[2,3-d]pyrimidin-4-amine

> <PUBCHEM_IUPAC_CAS_NAME>
2-(2-phenylethylthio)-5,6,7,8-tetrahydro-[1]benzothiolo[2,3-d]pyrimidin-4-amine

> <PUBCHEM_IUPAC_NAME>
2-(2-phenylethylsulfanyl)-5,6,7,8-tetrahydro-[1]benzothiolo[2,3-d]pyrimidin-4-amine

> <PUBCHEM_IUPAC_SYSTEMATIC_NAME>
2-(2-phenylethylsulfanyl)-5,6,7,8-tetrahydro-[1]benzothiolo[2,3-d]pyrimidin-4-amine

> <PUBCHEM_IUPAC_TRADITIONAL_NAME>
[2-(phenethylthio)-5,6,7,8-tetrahydrobenzothiopheno[2,3-d]pyrimidin-4-yl]amine

> <PUBCHEM_IUPAC_INCHI>
InChI=1S/C18H19N3S2/c19-16-15-13-8-4-5-9-14(13)23-17(15)21-18(20-16)22-11-10-12-6-2-1-3-7-12/h1-3,6-7H,4-5,8-11H2,(H2,19,20,21)

> <PUBCHEM_IUPAC_INCHIKEY>
SGJOGZCAZRQAMZ-UHFFFAOYSA-N

> <PUBCHEM_XLOGP3_AA>
5.2

> <PUBCHEM_EXACT_MASS>
341.10204

> <PUBCHEM_MOLECULAR_FORMULA>
C18H19N3S2

> <PUBCHEM_MOLECULAR_WEIGHT>
341.49356

> <PUBCHEM_OPENEYE_CAN_SMILES>
C1CCC2=C(C1)C3=C(N=C(N=C3S2)SCCC4=CC=CC=C4)N

> <PUBCHEM_OPENEYE_ISO_SMILES>
C1CCC2=C(C1)C3=C(N=C(N=C3S2)SCCC4=CC=CC=C4)N

> <PUBCHEM_CACTVS_TPSA>
105

> <PUBCHEM_MONOISOTOPIC_WEIGHT>
341.10204

> <PUBCHEM_TOTAL_CHARGE>
0

> <PUBCHEM_HEAVY_ATOM_COUNT>
23

> <PUBCHEM_ATOM_DEF_STEREO_COUNT>
0

> <PUBCHEM_ATOM_UDEF_STEREO_COUNT>
0

> <PUBCHEM_BOND_DEF_STEREO_COUNT>
0

> <PUBCHEM_BOND_UDEF_STEREO_COUNT>
0

> <PUBCHEM_ISOTOPIC_ATOM_COUNT>
0

> <PUBCHEM_COMPONENT_COUNT>
1

> <PUBCHEM_CACTVS_TAUTO_COUNT>
4

> <PUBCHEM_COORDINATE_TYPE>
1
5
255

> <PUBCHEM_BONDANNOTATIONS>
1  11  8
1  13  8
12  13  8
12  14  8
18  19  8
18  20  8
19  21  8
20  22  8
21  23  8
22  23  8
3  13  8
3  15  8
4  14  8
4  15  8
8  11  8
8  12  8

$$$$

