64968
  -OEChem-07051212443D

 46 47  0     1  0  0  0  0  0999 V2000
    2.4841   -1.4785   -1.5787 P   0  0  1  0  0  0  0  0  0  0  0  0
    3.8686    0.6031   -0.0247 P   0  0  2  0  0  0  0  0  0  0  0  0
    2.1047    1.6316    2.1048 P   0  0  0  0  0  0  0  0  0  0  0  0
   -0.9528   -1.3752    1.0309 O   0  0  0  0  0  0  0  0  0  0  0  0
   -2.2888   -4.0778    1.5632 O   0  0  0  0  0  0  0  0  0  0  0  0
    1.4182   -1.8031   -0.4053 O   0  0  0  0  0  0  0  0  0  0  0  0
   -4.6213    0.5014    1.2197 O   0  0  0  0  0  0  0  0  0  0  0  0
    3.7344   -0.7986   -0.8145 O   0  0  0  0  0  0  0  0  0  0  0  0
    3.0586   -2.9275   -2.0117 O   0  0  0  0  0  0  0  0  0  0  0  0
    1.9408   -0.6625   -2.7156 O   0  0  0  0  0  0  0  0  0  0  0  0
   -3.0110    3.6475   -1.7227 O   0  0  0  0  0  0  0  0  0  0  0  0
    2.6705    0.5387    1.0573 O   0  0  0  0  0  0  0  0  0  0  0  0
    3.3522    1.7006   -1.0933 O   0  0  0  0  0  0  0  0  0  0  0  0
    5.2227    0.8810    0.5588 O   0  0  0  0  0  0  0  0  0  0  0  0
    1.4916    2.7770    1.1431 O   0  0  0  0  0  0  0  0  0  0  0  0
    0.7936    0.9193    2.7254 O   0  0  0  0  0  0  0  0  0  0  0  0
    3.1092    2.1135    3.1098 O   0  0  0  0  0  0  0  0  0  0  0  0
   -2.5724    0.0841    0.1811 N   0  0  0  0  0  0  0  0  0  0  0  0
   -3.8068    2.0619   -0.2506 N   0  0  0  0  0  0  0  0  0  0  0  0
   -1.8813   -3.4479    0.3506 C   0  0  2  0  0  0  0  0  0  0  0  0
   -0.5802   -2.6892    0.5727 C   0  0  1  0  0  0  0  0  0  0  0  0
   -2.8590   -2.3528   -0.0079 C   0  0  0  0  0  0  0  0  0  0  0  0
   -2.3587   -1.1810    0.8209 C   0  0  1  0  0  0  0  0  0  0  0  0
    0.2360   -2.5264   -0.7029 C   0  0  0  0  0  0  0  0  0  0  0  0
   -1.6119    0.5467   -0.7091 C   0  0  0  0  0  0  0  0  0  0  0  0
   -3.7292    0.8490    0.4431 C   0  0  0  0  0  0  0  0  0  0  0  0
   -1.6891    1.7076   -1.3713 C   0  0  0  0  0  0  0  0  0  0  0  0
   -2.8794    2.5705   -1.1473 C   0  0  0  0  0  0  0  0  0  0  0  0
   -0.6431    2.1869   -2.3258 C   0  0  0  0  0  0  0  0  0  0  0  0
   -1.8016   -4.2260   -0.4144 H   0  0  0  0  0  0  0  0  0  0  0  0
    0.0354   -3.1391    1.3595 H   0  0  0  0  0  0  0  0  0  0  0  0
   -3.9023   -2.5906    0.2221 H   0  0  0  0  0  0  0  0  0  0  0  0
   -2.7918   -2.1348   -1.0806 H   0  0  0  0  0  0  0  0  0  0  0  0
   -2.8383   -1.1842    1.8069 H   0  0  0  0  0  0  0  0  0  0  0  0
   -0.3125   -2.0133   -1.4964 H   0  0  0  0  0  0  0  0  0  0  0  0
    0.5223   -3.5131   -1.0827 H   0  0  0  0  0  0  0  0  0  0  0  0
   -3.1488   -4.5003    1.3966 H   0  0  0  0  0  0  0  0  0  0  0  0
   -0.7407   -0.0674   -0.8698 H   0  0  0  0  0  0  0  0  0  0  0  0
   -4.6313    2.6301   -0.0775 H   0  0  0  0  0  0  0  0  0  0  0  0
   -1.0660    2.3066   -3.3284 H   0  0  0  0  0  0  0  0  0  0  0  0
    0.1961    1.4886   -2.3987 H   0  0  0  0  0  0  0  0  0  0  0  0
   -0.2414    3.1518   -1.9993 H   0  0  0  0  0  0  0  0  0  0  0  0
    2.5334   -3.4822   -2.6270 H   0  0  0  0  0  0  0  0  0  0  0  0
    3.9563    1.9850   -1.8118 H   0  0  0  0  0  0  0  0  0  0  0  0
    1.1604    3.6080    1.5453 H   0  0  0  0  0  0  0  0  0  0  0  0
    0.3107    1.3644    3.4540 H   0  0  0  0  0  0  0  0  0  0  0  0
  1  6  1  0  0  0  0
  1  8  1  0  0  0  0
  1  9  1  0  0  0  0
  1 10  2  0  0  0  0
  2  8  1  0  0  0  0
  2 12  1  0  0  0  0
  2 13  1  0  0  0  0
  2 14  2  0  0  0  0
  3 12  1  0  0  0  0
  3 15  1  0  0  0  0
  3 16  1  0  0  0  0
  3 17  2  0  0  0  0
  4 21  1  0  0  0  0
  4 23  1  0  0  0  0
  5 20  1  0  0  0  0
  5 37  1  0  0  0  0
  6 24  1  0  0  0  0
  7 26  2  0  0  0  0
  9 43  1  0  0  0  0
 11 28  2  0  0  0  0
 13 44  1  0  0  0  0
 15 45  1  0  0  0  0
 16 46  1  0  0  0  0
 18 23  1  0  0  0  0
 18 25  1  0  0  0  0
 18 26  1  0  0  0  0
 19 26  1  0  0  0  0
 19 28  1  0  0  0  0
 19 39  1  0  0  0  0
 20 21  1  0  0  0  0
 20 22  1  0  0  0  0
 20 30  1  0  0  0  0
 21 24  1  0  0  0  0
 21 31  1  0  0  0  0
 22 23  1  0  0  0  0
 22 32  1  0  0  0  0
 22 33  1  0  0  0  0
 23 34  1  0  0  0  0
 24 35  1  0  0  0  0
 24 36  1  0  0  0  0
 25 27  2  0  0  0  0
 25 38  1  0  0  0  0
 27 28  1  0  0  0  0
 27 29  1  0  0  0  0
 29 40  1  0  0  0  0
 29 41  1  0  0  0  0
 29 42  1  0  0  0  0
M  END
> <PUBCHEM_COMPOUND_CID>
64968

> <PUBCHEM_CONFORMER_RMSD>
1.2

> <PUBCHEM_CONFORMER_DIVERSEORDER>
1
253
193
107
274
214
12
190
235
72
210
173
21
104
93
44
293
183
16
308
113
52
229
145
290
148
11
166
181
158
236
69
237
164
221
57
191
304
63
227
95
209
285
45
41
267
202
154
195
64
55
225
248
3
281
42
66
309
301
242
102
298
215
226
73
18
19
291
116
100
169
87
302
22
305
300
37
196
149
79
58
115
187
194
46
123
212
170
110
172
219
280
68
261
289
171
252
144
92
205
122
70
67
199
142
182
244
4
168
61
189
306
303
109
137
105
311
140
129
130
265
65
90
184
27
249
56
176
264
151
271
192
167
76
126
124
7
286
17
31
239
29
14
268
51
117
270
228
127
49
310
98
99
161
263
30
200
260
34
259
156
211
307
160
138
295
245
111
232
121
83
157
36
75
238
84
186
10
178
273
85
250
50
282
101
234
272
143
180
118
256
40
133
6
276
254
39
255
82
47
217
33
112
89
312
262
81
177
203
162
278
277
222
135
8
120
206
208
5
150
54
218
174
251
24
213
59
246
15
297
2
207
275
201
60
43
128
62
299
292
147
131
163
152
188
258
28
119
231
23
257
91
134
266
294
185
106
288
74
220
26
141
25
224
71
108
243
204
88
230
132
139
146
136
80
125
247
13
296
165
198
114
175
32
216
96
240
153
159
279
94
48
86
241
223
20
283
197
233
269
77
287
97
38
53
78
155
35
9
103
179
284

> <PUBCHEM_MMFF94_PARTIAL_CHARGES>
35
1 1.51
10 -0.7
11 -0.57
12 -0.54
13 -0.77
14 -0.7
15 -0.77
16 -0.77
17 -0.7
18 -0.47
19 -0.49
2 1.51
20 0.28
21 0.28
23 0.58
24 0.28
25 -0.04
26 0.69
27 -0.12
28 0.62
29 0.14
3 1.51
37 0.4
38 0.15
39 0.37
4 -0.56
43 0.5
44 0.5
45 0.5
46 0.5
5 -0.68
6 -0.55
7 -0.57
8 -0.54
9 -0.77

> <PUBCHEM_EFFECTIVE_ROTOR_COUNT>
9

> <PUBCHEM_PHARMACOPHORE_FEATURES>
16
1 10 acceptor
1 11 acceptor
1 13 acceptor
1 14 acceptor
1 15 acceptor
1 16 acceptor
1 17 acceptor
1 19 donor
1 4 acceptor
1 5 acceptor
1 5 donor
1 7 acceptor
1 9 acceptor
4 3 15 16 17 anion
5 4 20 21 22 23 rings
6 18 19 25 26 27 28 rings

> <PUBCHEM_HEAVY_ATOM_COUNT>
29

> <PUBCHEM_ATOM_DEF_STEREO_COUNT>
3

> <PUBCHEM_ATOM_UDEF_STEREO_COUNT>
0

> <PUBCHEM_BOND_DEF_STEREO_COUNT>
0

> <PUBCHEM_BOND_UDEF_STEREO_COUNT>
0

> <PUBCHEM_ISOTOPIC_ATOM_COUNT>
0

> <PUBCHEM_COMPONENT_COUNT>
1

> <PUBCHEM_CACTVS_TAUTO_COUNT>
3

> <PUBCHEM_CONFORMER_ID>
0000FDC800000001

> <PUBCHEM_MMFF94_ENERGY>
-13.0527

> <PUBCHEM_FEATURE_SELFOVERLAP>
81.25

> <PUBCHEM_SHAPE_FINGERPRINT>
10165383 225 18409439319538462009
11370993 70 18270682107174444932
11595378 159 17775571931208714227
12633257 1 18410859836926897968
13402501 40 18334290959538486130
14251757 17 18266451199579265508
144659 39 18268736977417722464
19930381 70 17459743920732406047
23536364 44 17254536713995665774
23557571 272 18270120085192824643
238 59 17458925772311742804
3187 122 18053389790606769171
35225 105 17271766933022689052
3524813 1 18267573774923081799
508706 21 18410856538455428622
7399639 24 17754465551320105378
7808743 9 18271517620411323892

> <PUBCHEM_SHAPE_MULTIPOLES>
516.22
7.77
4.62
2.51
3.2
1.97
-0.49
-2.92
-0.78
-3.05
0.42
1.93
-1.2
3.73

> <PUBCHEM_SHAPE_SELFOVERLAP>
1022.222

> <PUBCHEM_SHAPE_VOLUME>
308.2

> <PUBCHEM_COORDINATE_TYPE>
2
5
10

$$$$

