10162877
  -OEChem-07051213093D

 78 81  0     1  0  0  0  0  0999 V2000
   -0.2043   -1.2952   -0.7246 O   0  0  0  0  0  0  0  0  0  0  0  0
   -2.6683    2.9840    0.2639 O   0  0  0  0  0  0  0  0  0  0  0  0
    6.2444   -2.4041    1.0935 O   0  0  0  0  0  0  0  0  0  0  0  0
   -5.3642    2.3622    0.5804 O   0  0  0  0  0  0  0  0  0  0  0  0
    4.5633    1.7114   -1.9307 O   0  0  0  0  0  0  0  0  0  0  0  0
    7.7245   -0.8836   -0.6288 O   0  0  0  0  0  0  0  0  0  0  0  0
   -6.7042   -4.0016   -0.1762 O   0  0  0  0  0  0  0  0  0  0  0  0
   -0.5562    0.9159    0.3018 C   0  0  1  0  0  0  0  0  0  0  0  0
    0.1521    0.0991   -0.8227 C   0  0  1  0  0  0  0  0  0  0  0  0
   -2.0400    0.7025   -0.0921 C   0  0  2  0  0  0  0  0  0  0  0  0
    2.1086   -0.4234    0.7058 C   0  0  2  0  0  0  0  0  0  0  0  0
    3.6759   -0.5542    0.8368 C   0  0  2  0  0  0  0  0  0  0  0  0
   -0.1646    0.3391    1.6767 C   0  0  0  0  0  0  0  0  0  0  0  0
    1.6480    0.1899   -0.6167 C   0  0  0  0  0  0  0  0  0  0  0  0
   -0.5573    0.6112   -2.0829 C   0  0  0  0  0  0  0  0  0  0  0  0
   -2.0259    0.8018   -1.6377 C   0  0  0  0  0  0  0  0  0  0  0  0
    1.3708    0.2956    1.8689 C   0  0  0  0  0  0  0  0  0  0  0  0
    4.3944    0.6978    0.2670 C   0  0  1  0  0  0  0  0  0  0  0  0
   -3.0590    1.6341    0.5504 C   0  0  2  0  0  0  0  0  0  0  0  0
   -0.1989    2.4306    0.2824 C   0  0  0  0  0  0  0  0  0  0  0  0
    4.1296   -1.8259    0.0337 C   0  0  0  0  0  0  0  0  0  0  0  0
    2.4604    0.8346   -1.4617 C   0  0  0  0  0  0  0  0  0  0  0  0
    5.9234    0.5071    0.1963 C   0  0  0  0  0  0  0  0  0  0  0  0
    4.0518   -0.7366    2.3295 C   0  0  0  0  0  0  0  0  0  0  0  0
    3.8721    1.0996   -1.1152 C   0  0  0  0  0  0  0  0  0  0  0  0
    5.6459   -1.9991   -0.1347 C   0  0  1  0  0  0  0  0  0  0  0  0
   -4.4918    1.3907   -0.0038 C   0  0  1  0  0  0  0  0  0  0  0  0
    6.3095   -0.7184   -0.6364 C   0  0  2  0  0  0  0  0  0  0  0  0
   -3.0106    1.4761    2.0769 C   0  0  0  0  0  0  0  0  0  0  0  0
   -5.0546   -0.0133    0.2861 C   0  0  0  0  0  0  0  0  0  0  0  0
   -6.4905   -0.1928   -0.2298 C   0  0  0  0  0  0  0  0  0  0  0  0
   -7.0607   -1.6031    0.0304 C   0  0  2  0  0  0  0  0  0  0  0  0
   -6.1628   -2.7288   -0.4998 C   0  0  0  0  0  0  0  0  0  0  0  0
   -8.4607   -1.7032   -0.5865 C   0  0  0  0  0  0  0  0  0  0  0  0
   -2.3069   -0.3308    0.1677 H   0  0  0  0  0  0  0  0  0  0  0  0
    1.7498   -1.4611    0.7378 H   0  0  0  0  0  0  0  0  0  0  0  0
   -0.5850   -0.6595    1.8382 H   0  0  0  0  0  0  0  0  0  0  0  0
   -0.5423    0.9488    2.4990 H   0  0  0  0  0  0  0  0  0  0  0  0
   -0.1574    1.5690   -2.4316 H   0  0  0  0  0  0  0  0  0  0  0  0
   -0.5008   -0.1005   -2.9139 H   0  0  0  0  0  0  0  0  0  0  0  0
   -2.6618    0.0218   -2.0722 H   0  0  0  0  0  0  0  0  0  0  0  0
   -2.3888    1.7649   -2.0125 H   0  0  0  0  0  0  0  0  0  0  0  0
    1.5537   -0.2264    2.8149 H   0  0  0  0  0  0  0  0  0  0  0  0
    1.7634    1.3123    1.9905 H   0  0  0  0  0  0  0  0  0  0  0  0
    4.1891    1.5594    0.9174 H   0  0  0  0  0  0  0  0  0  0  0  0
   -0.5638    2.9603    1.1677 H   0  0  0  0  0  0  0  0  0  0  0  0
    0.8865    2.5791    0.3085 H   0  0  0  0  0  0  0  0  0  0  0  0
   -0.5268    2.9461   -0.6253 H   0  0  0  0  0  0  0  0  0  0  0  0
    3.7213   -2.7189    0.5253 H   0  0  0  0  0  0  0  0  0  0  0  0
    3.6892   -1.7976   -0.9710 H   0  0  0  0  0  0  0  0  0  0  0  0
    2.1048    1.2677   -2.3892 H   0  0  0  0  0  0  0  0  0  0  0  0
    6.4036    1.3968   -0.2317 H   0  0  0  0  0  0  0  0  0  0  0  0
    6.3512    0.4255    1.2026 H   0  0  0  0  0  0  0  0  0  0  0  0
    3.7886    0.1484    2.9189 H   0  0  0  0  0  0  0  0  0  0  0  0
    3.5356   -1.6022    2.7597 H   0  0  0  0  0  0  0  0  0  0  0  0
    5.1201   -0.8849    2.4935 H   0  0  0  0  0  0  0  0  0  0  0  0
    5.8473   -2.8084   -0.8465 H   0  0  0  0  0  0  0  0  0  0  0  0
   -0.1834   -1.6016    0.1927 H   0  0  0  0  0  0  0  0  0  0  0  0
   -4.5238    1.5769   -1.0831 H   0  0  0  0  0  0  0  0  0  0  0  0
    6.0143   -0.5603   -1.6802 H   0  0  0  0  0  0  0  0  0  0  0  0
   -2.9366    0.4303    2.3906 H   0  0  0  0  0  0  0  0  0  0  0  0
   -3.9214    1.8771    2.5380 H   0  0  0  0  0  0  0  0  0  0  0  0
   -2.2130    2.0682    2.5319 H   0  0  0  0  0  0  0  0  0  0  0  0
   -3.2198    3.5789    0.7993 H   0  0  0  0  0  0  0  0  0  0  0  0
   -5.0590   -0.2048    1.3650 H   0  0  0  0  0  0  0  0  0  0  0  0
   -4.4013   -0.7490   -0.1872 H   0  0  0  0  0  0  0  0  0  0  0  0
    5.8114   -3.2286    1.3735 H   0  0  0  0  0  0  0  0  0  0  0  0
   -5.1199    3.2310    0.2193 H   0  0  0  0  0  0  0  0  0  0  0  0
    8.1175   -0.0628   -0.9716 H   0  0  0  0  0  0  0  0  0  0  0  0
   -6.5053    0.0117   -1.3082 H   0  0  0  0  0  0  0  0  0  0  0  0
   -7.1493    0.5467    0.2416 H   0  0  0  0  0  0  0  0  0  0  0  0
   -7.1736   -1.7367    1.1145 H   0  0  0  0  0  0  0  0  0  0  0  0
   -5.1637   -2.6987   -0.0587 H   0  0  0  0  0  0  0  0  0  0  0  0
   -6.0563   -2.6690   -1.5878 H   0  0  0  0  0  0  0  0  0  0  0  0
   -9.1104   -0.9080   -0.2054 H   0  0  0  0  0  0  0  0  0  0  0  0
   -8.4209   -1.6139   -1.6776 H   0  0  0  0  0  0  0  0  0  0  0  0
   -8.9351   -2.6590   -0.3415 H   0  0  0  0  0  0  0  0  0  0  0  0
   -6.7856   -4.0483    0.7917 H   0  0  0  0  0  0  0  0  0  0  0  0
  1  9  1  0  0  0  0
  1 58  1  0  0  0  0
  2 19  1  0  0  0  0
  2 64  1  0  0  0  0
  3 26  1  0  0  0  0
  3 67  1  0  0  0  0
  4 27  1  0  0  0  0
  4 68  1  0  0  0  0
  5 25  2  0  0  0  0
  6 28  1  0  0  0  0
  6 69  1  0  0  0  0
  7 33  1  0  0  0  0
  7 78  1  0  0  0  0
  8  9  1  0  0  0  0
  8 10  1  0  0  0  0
  8 13  1  0  0  0  0
  8 20  1  0  0  0  0
  9 14  1  0  0  0  0
  9 15  1  0  0  0  0
 10 16  1  0  0  0  0
 10 19  1  0  0  0  0
 10 35  1  0  0  0  0
 11 12  1  0  0  0  0
 11 14  1  0  0  0  0
 11 17  1  0  0  0  0
 11 36  1  0  0  0  0
 12 18  1  0  0  0  0
 12 21  1  0  0  0  0
 12 24  1  0  0  0  0
 13 17  1  0  0  0  0
 13 37  1  0  0  0  0
 13 38  1  0  0  0  0
 14 22  2  0  0  0  0
 15 16  1  0  0  0  0
 15 39  1  0  0  0  0
 15 40  1  0  0  0  0
 16 41  1  0  0  0  0
 16 42  1  0  0  0  0
 17 43  1  0  0  0  0
 17 44  1  0  0  0  0
 18 23  1  0  0  0  0
 18 25  1  0  0  0  0
 18 45  1  0  0  0  0
 19 27  1  0  0  0  0
 19 29  1  0  0  0  0
 20 46  1  0  0  0  0
 20 47  1  0  0  0  0
 20 48  1  0  0  0  0
 21 26  1  0  0  0  0
 21 49  1  0  0  0  0
 21 50  1  0  0  0  0
 22 25  1  0  0  0  0
 22 51  1  0  0  0  0
 23 28  1  0  0  0  0
 23 52  1  0  0  0  0
 23 53  1  0  0  0  0
 24 54  1  0  0  0  0
 24 55  1  0  0  0  0
 24 56  1  0  0  0  0
 26 28  1  0  0  0  0
 26 57  1  0  0  0  0
 27 30  1  0  0  0  0
 27 59  1  0  0  0  0
 28 60  1  0  0  0  0
 29 61  1  0  0  0  0
 29 62  1  0  0  0  0
 29 63  1  0  0  0  0
 30 31  1  0  0  0  0
 30 65  1  0  0  0  0
 30 66  1  0  0  0  0
 31 32  1  0  0  0  0
 31 70  1  0  0  0  0
 31 71  1  0  0  0  0
 32 33  1  0  0  0  0
 32 34  1  0  0  0  0
 32 72  1  0  0  0  0
 33 73  1  0  0  0  0
 33 74  1  0  0  0  0
 34 75  1  0  0  0  0
 34 76  1  0  0  0  0
 34 77  1  0  0  0  0
M  END
> <PUBCHEM_COMPOUND_CID>
10162877

> <PUBCHEM_CONFORMER_RMSD>
1

> <PUBCHEM_CONFORMER_DIVERSEORDER>
8
11
2
6
13
1
7
10
12
3
9
14
4
5

> <PUBCHEM_MMFF94_PARTIAL_CHARGES>
25
1 -0.68
11 0.14
14 -0.28
18 0.06
19 0.28
2 -0.68
22 -0.14
25 0.49
26 0.28
27 0.28
28 0.28
3 -0.68
33 0.28
4 -0.68
5 -0.57
51 0.15
58 0.4
6 -0.68
64 0.4
67 0.4
68 0.4
69 0.4
7 -0.68
78 0.4
9 0.42

> <PUBCHEM_EFFECTIVE_ROTOR_COUNT>
7.8

> <PUBCHEM_PHARMACOPHORE_FEATURES>
18
1 1 acceptor
1 1 donor
1 2 acceptor
1 2 donor
1 3 acceptor
1 3 donor
1 34 hydrophobe
1 4 acceptor
1 4 donor
1 5 acceptor
1 6 acceptor
1 6 donor
1 7 acceptor
1 7 donor
5 8 9 10 15 16 rings
6 11 12 14 18 22 25 rings
6 12 18 21 23 26 28 rings
6 8 9 11 13 14 17 rings

> <PUBCHEM_HEAVY_ATOM_COUNT>
34

> <PUBCHEM_ATOM_DEF_STEREO_COUNT>
9

> <PUBCHEM_ATOM_UDEF_STEREO_COUNT>
2

> <PUBCHEM_BOND_DEF_STEREO_COUNT>
0

> <PUBCHEM_BOND_UDEF_STEREO_COUNT>
0

> <PUBCHEM_ISOTOPIC_ATOM_COUNT>
0

> <PUBCHEM_COMPONENT_COUNT>
1

> <PUBCHEM_CACTVS_TAUTO_COUNT>
5

> <PUBCHEM_CONFORMER_ID>
009B12BD00000008

> <PUBCHEM_MMFF94_ENERGY>
131.8595

> <PUBCHEM_FEATURE_SELFOVERLAP>
91.52

> <PUBCHEM_SHAPE_FINGERPRINT>
10 15 16877946014291085913
10366900 7 15912754103141345304
11456790 92 13840257148350899894
11497681 19 18272650117055637007
11646440 116 15285359530857655322
11963148 33 18334863818188344423
12035758 1 16009037189074987972
12166972 35 18410571808131299912
12236239 1 18341048609753849676
12596602 18 18335421283072110192
12838862 33 15985104077499519508
13165053 68 18193838133479458622
13690498 29 18202008725151091573
13726171 33 15504083047500193168
13782708 43 17894354358785956587
14068700 675 18335137549881514017
14856354 85 18333447651938239341
14955137 171 17748831799884534761
15183329 4 15985109604879569851
16992727 255 10952058861931564151
18335252 98 18260267430521184226
18608769 82 18113340794959907542
19611394 137 17822292353895471105
20028762 73 18343023319510275970
20105231 36 16732979839076503438
21033648 29 15719672160358667217
21223535 225 15625959668211804927
21424621 283 8286200556905383231
21781051 124 17458616809686990614
22149856 69 18259977193890233723
23522609 53 18126253511046171308
23569914 152 14974666248574123987
23569943 247 17835798978450296394
23576562 1 14476377289544392967
249057 25 18341880918360109572
3009799 131 14476962281306290101
3178227 256 16515684433435213683
3633792 109 17632861936563382637
392239 28 15719400495482561515
4015057 19 17417801804346066109
439807 62 18410291381558625903
465052 167 17967533462741283753
504579 68 17632578262436835279
5385378 56 4823222688478047572
6086070 43 17345769610501991148
6700243 42 17824513444303698229
7495541 125 18186803577737708577
9896288 288 17677606626959681601

> <PUBCHEM_SHAPE_MULTIPOLES>
658.62
20
2.77
1.69
14.81
1.31
0.26
15.44
-1.6
4.21
0.07
-1.18
-0.43
-1.93

> <PUBCHEM_SHAPE_SELFOVERLAP>
1389.806

> <PUBCHEM_SHAPE_VOLUME>
366.1

> <PUBCHEM_COORDINATE_TYPE>
2
5
10

$$$$

