6438572
  -OEChem-07051213112D

 71 74  0     1  0  0  0  0  0999 V2000
    6.7303    2.0015    0.0000 O   0  0  0  0  0  0  0  0  0  0  0  0
    4.7166    1.4020    0.0000 O   0  0  0  0  0  0  0  0  0  0  0  0
    8.6500   -3.5970    0.0000 O   0  0  0  0  0  0  0  0  0  0  0  0
    5.4506   -3.2330    0.0000 O   0  0  0  0  0  0  0  0  0  0  0  0
    7.1011   -4.2385    0.0000 O   0  0  0  0  0  0  0  0  0  0  0  0
    4.8576   -2.9874    0.0000 O   0  0  0  0  0  0  0  0  0  0  0  0
    2.3791   -0.7642    0.0000 O   0  0  0  0  0  0  0  0  0  0  0  0
    3.1630   -2.6566    0.0000 O   0  0  0  0  0  0  0  0  0  0  0  0
    5.9413    2.6268    0.0000 O   0  0  0  0  0  0  0  0  0  0  0  0
    6.3476    1.0776    0.0000 C   0  0  1  0  0  0  0  0  0  0  0  0
    7.2714    0.6949    0.0000 C   0  0  2  0  0  0  0  0  0  0  0  0
    5.4237    0.6949    0.0000 C   0  0  2  0  0  0  0  0  0  0  0  0
    7.6541   -0.2290    0.0000 C   0  0  0  0  0  0  0  0  0  0  0  0
    5.0410   -0.2290    0.0000 C   0  0  0  0  0  0  0  0  0  0  0  0
    7.2714   -1.1528    0.0000 C   0  0  0  0  0  0  0  0  0  0  0  0
    5.9649    2.0015    0.0000 C   0  0  0  0  0  0  0  0  0  0  0  0
    7.9786    1.4020    0.0000 C   0  0  0  0  0  0  0  0  0  0  0  0
    5.4237   -1.1528    0.0000 C   0  0  0  0  0  0  0  0  0  0  0  0
    6.3476   -1.5355    0.0000 C   0  0  0  0  0  0  0  0  0  0  0  0
    4.0105   -0.0771    0.0000 C   0  0  0  0  0  0  0  0  0  0  0  0
    8.1075   -1.7741    0.0000 C   0  0  0  0  0  0  0  0  0  0  0  0
    6.1957   -2.5660    0.0000 C   0  0  0  0  0  0  0  0  0  0  0  0
    4.8024   -1.9889    0.0000 C   0  0  0  0  0  0  0  0  0  0  0  0
    7.9795   -2.8079    0.0000 C   0  0  0  0  0  0  0  0  0  0  0  0
    7.0172   -3.2065    0.0000 C   0  0  0  0  0  0  0  0  0  0  0  0
    3.3700   -0.8986    0.0000 C   0  0  0  0  0  0  0  0  0  0  0  0
    3.7687   -1.8609    0.0000 C   0  0  0  0  0  0  0  0  0  0  0  0
    4.9754    2.3680    0.0000 C   0  0  0  0  0  0  0  0  0  0  0  0
    8.1082   -4.4794    0.0000 C   0  0  0  0  0  0  0  0  0  0  0  0
    4.2683    3.0751    0.0000 C   0  0  0  0  0  0  0  0  0  0  0  0
    5.6558   -4.2118    0.0000 C   0  0  0  0  0  0  0  0  0  0  0  0
    4.0205   -3.5344    0.0000 C   0  0  0  0  0  0  0  0  0  0  0  0
    2.0000    0.1611    0.0000 C   0  0  0  0  0  0  0  0  0  0  0  0
    2.1710   -2.5299    0.0000 C   0  0  0  0  0  0  0  0  0  0  0  0
    3.3024    2.8162    0.0000 C   0  0  0  0  0  0  0  0  0  0  0  0
    4.5271    4.0410    0.0000 C   0  0  0  0  0  0  0  0  0  0  0  0
    5.4930    4.2998    0.0000 C   0  0  0  0  0  0  0  0  0  0  0  0
    7.8795    0.5740    0.0000 H   0  0  0  0  0  0  0  0  0  0  0  0
    4.8156    0.5740    0.0000 H   0  0  0  0  0  0  0  0  0  0  0  0
    8.1460   -0.6064    0.0000 H   0  0  0  0  0  0  0  0  0  0  0  0
    8.1460    0.1485    0.0000 H   0  0  0  0  0  0  0  0  0  0  0  0
    6.5377    2.2388    0.0000 H   0  0  0  0  0  0  0  0  0  0  0  0
    5.7276    2.5743    0.0000 H   0  0  0  0  0  0  0  0  0  0  0  0
    5.3921    1.7642    0.0000 H   0  0  0  0  0  0  0  0  0  0  0  0
    8.4170    0.9636    0.0000 H   0  0  0  0  0  0  0  0  0  0  0  0
    8.4170    1.8404    0.0000 H   0  0  0  0  0  0  0  0  0  0  0  0
    7.5402    1.8404    0.0000 H   0  0  0  0  0  0  0  0  0  0  0  0
    7.3450    2.0824    0.0000 H   0  0  0  0  0  0  0  0  0  0  0  0
    3.7799    0.4984    0.0000 H   0  0  0  0  0  0  0  0  0  0  0  0
    8.6775   -1.5303    0.0000 H   0  0  0  0  0  0  0  0  0  0  0  0
    7.9014   -5.0639    0.0000 H   0  0  0  0  0  0  0  0  0  0  0  0
    8.6677   -4.7465    0.0000 H   0  0  0  0  0  0  0  0  0  0  0  0
    5.0490   -4.3390    0.0000 H   0  0  0  0  0  0  0  0  0  0  0  0
    5.7830   -4.8186    0.0000 H   0  0  0  0  0  0  0  0  0  0  0  0
    6.2626   -4.0846    0.0000 H   0  0  0  0  0  0  0  0  0  0  0  0
    3.6813   -3.0154    0.0000 H   0  0  0  0  0  0  0  0  0  0  0  0
    3.5015   -3.8736    0.0000 H   0  0  0  0  0  0  0  0  0  0  0  0
    4.3597   -4.0534    0.0000 H   0  0  0  0  0  0  0  0  0  0  0  0
    2.5737    0.3962    0.0000 H   0  0  0  0  0  0  0  0  0  0  0  0
    1.7650    0.7348    0.0000 H   0  0  0  0  0  0  0  0  0  0  0  0
    1.4263   -0.0739    0.0000 H   0  0  0  0  0  0  0  0  0  0  0  0
    2.2496   -1.9149    0.0000 H   0  0  0  0  0  0  0  0  0  0  0  0
    1.5560   -2.4513    0.0000 H   0  0  0  0  0  0  0  0  0  0  0  0
    2.0925   -3.1449    0.0000 H   0  0  0  0  0  0  0  0  0  0  0  0
    3.1419    3.4151    0.0000 H   0  0  0  0  0  0  0  0  0  0  0  0
    2.7035    2.6558    0.0000 H   0  0  0  0  0  0  0  0  0  0  0  0
    3.4628    2.2174    0.0000 H   0  0  0  0  0  0  0  0  0  0  0  0
    4.0887    4.4794    0.0000 H   0  0  0  0  0  0  0  0  0  0  0  0
    5.6535    3.7009    0.0000 H   0  0  0  0  0  0  0  0  0  0  0  0
    6.0919    4.4603    0.0000 H   0  0  0  0  0  0  0  0  0  0  0  0
    5.3326    4.8987    0.0000 H   0  0  0  0  0  0  0  0  0  0  0  0
 10  1  1  1  0  0  0
  1 48  1  0  0  0  0
 12  2  1  6  0  0  0
  2 28  1  0  0  0  0
  3 24  1  0  0  0  0
  3 29  1  0  0  0  0
  4 22  1  0  0  0  0
  4 31  1  0  0  0  0
  5 25  1  0  0  0  0
  5 29  1  0  0  0  0
  6 23  1  0  0  0  0
  6 32  1  0  0  0  0
  7 26  1  0  0  0  0
  7 33  1  0  0  0  0
  8 27  1  0  0  0  0
  8 34  1  0  0  0  0
  9 28  2  0  0  0  0
 10 11  1  0  0  0  0
 10 12  1  0  0  0  0
 10 16  1  0  0  0  0
 11 13  1  0  0  0  0
 11 17  1  1  0  0  0
 11 38  1  0  0  0  0
 12 14  1  0  0  0  0
 12 39  1  0  0  0  0
 13 15  1  0  0  0  0
 13 40  1  0  0  0  0
 13 41  1  0  0  0  0
 14 18  1  0  0  0  0
 14 20  2  0  0  0  0
 15 19  1  0  0  0  0
 15 21  2  0  0  0  0
 16 42  1  0  0  0  0
 16 43  1  0  0  0  0
 16 44  1  0  0  0  0
 17 45  1  0  0  0  0
 17 46  1  0  0  0  0
 17 47  1  0  0  0  0
 18 19  1  0  0  0  0
 18 23  2  0  0  0  0
 19 22  2  0  0  0  0
 20 26  1  0  0  0  0
 20 49  1  0  0  0  0
 21 24  1  0  0  0  0
 21 50  1  0  0  0  0
 22 25  1  0  0  0  0
 23 27  1  0  0  0  0
 24 25  2  0  0  0  0
 26 27  2  0  0  0  0
 28 30  1  0  0  0  0
 29 51  1  0  0  0  0
 29 52  1  0  0  0  0
 30 35  1  0  0  0  0
 30 36  2  0  0  0  0
 31 53  1  0  0  0  0
 31 54  1  0  0  0  0
 31 55  1  0  0  0  0
 32 56  1  0  0  0  0
 32 57  1  0  0  0  0
 32 58  1  0  0  0  0
 33 59  1  0  0  0  0
 33 60  1  0  0  0  0
 33 61  1  0  0  0  0
 34 62  1  0  0  0  0
 34 63  1  0  0  0  0
 34 64  1  0  0  0  0
 35 65  1  0  0  0  0
 35 66  1  0  0  0  0
 35 67  1  0  0  0  0
 36 37  1  0  0  0  0
 36 68  1  0  0  0  0
 37 69  1  0  0  0  0
 37 70  1  0  0  0  0
 37 71  1  0  0  0  0
M  END
> <PUBCHEM_COMPOUND_CID>
6438572

> <PUBCHEM_COMPOUND_CANONICALIZED>
1

> <PUBCHEM_CACTVS_COMPLEXITY>
833

> <PUBCHEM_CACTVS_HBOND_ACCEPTOR>
9

> <PUBCHEM_CACTVS_HBOND_DONOR>
1

> <PUBCHEM_CACTVS_ROTATABLE_BOND>
7

> <PUBCHEM_CACTVS_SUBSKEYS>
AAADcfB4PAAAAAAAAAAAAAAAAAAAASAAAAAwYAAAAAAYAEgBQAAAGgAACAAADVSgmAMyDoAABgCIAiDSCAACCAAgIAAAiAEGiMgdJyKEMRqicCIlwBUPqYfA4PwOoAABCAAYQABAAAIQADCAAAAAAAAAAA==

> <PUBCHEM_IUPAC_INCHI>
InChI=1S/C28H34O9/c1-9-14(2)27(29)37-26-17-12-18(31-5)22(32-6)25(34-8)21(17)20-16(10-15(3)28(26,4)30)11-19-23(24(20)33-7)36-13-35-19/h9,11-12,15,26,30H,10,13H2,1-8H3/b14-9-/t15-,26-,28-/m0/s1

> <PUBCHEM_IUPAC_INCHIKEY>
BKGUPIVDQHHVMV-RZGKOBFOSA-N

> <PUBCHEM_XLOGP3_AA>
4.6

> <PUBCHEM_EXACT_MASS>
514.220283

> <PUBCHEM_MOLECULAR_FORMULA>
C28H34O9

> <PUBCHEM_MOLECULAR_WEIGHT>
514.56416

> <PUBCHEM_OPENEYE_CAN_SMILES>
CC=C(C)C(=O)OC1C2=CC(=C(C(=C2C3=C(C4=C(C=C3CC(C1(C)O)C)OCO4)OC)OC)OC)OC

> <PUBCHEM_OPENEYE_ISO_SMILES>
C/C=C(/C)\C(=O)O[C@H]1C2=CC(=C(C(=C2C3=C(C4=C(C=C3C[C@@H]([C@]1(C)O)C)OCO4)OC)OC)OC)OC

> <PUBCHEM_CACTVS_TPSA>
102

> <PUBCHEM_MONOISOTOPIC_WEIGHT>
514.220283

> <PUBCHEM_TOTAL_CHARGE>
0

> <PUBCHEM_HEAVY_ATOM_COUNT>
37

> <PUBCHEM_ATOM_DEF_STEREO_COUNT>
3

> <PUBCHEM_ATOM_UDEF_STEREO_COUNT>
0

> <PUBCHEM_BOND_DEF_STEREO_COUNT>
1

> <PUBCHEM_BOND_UDEF_STEREO_COUNT>
0

> <PUBCHEM_ISOTOPIC_ATOM_COUNT>
0

> <PUBCHEM_COMPONENT_COUNT>
1

> <PUBCHEM_CACTVS_TAUTO_COUNT>
1

> <PUBCHEM_COORDINATE_TYPE>
1
5
255

> <PUBCHEM_BONDANNOTATIONS>
10  1  5
11  17  5
14  18  8
14  20  8
15  19  8
15  21  8
18  23  8
19  22  8
12  2  6
20  26  8
21  24  8
22  25  8
23  27  8
24  25  8
26  27  8

$$$$

