260437
  -OEChem-07051213002D

 70 74  0     1  0  0  0  0  0999 V2000
   10.7716    0.2984    0.0000 O   0  0  0  0  0  0  0  0  0  0  0  0
    2.8680   -2.2334    0.0000 N   0  0  0  0  0  0  0  0  0  0  0  0
   10.4682    2.2958    0.0000 N   0  0  0  0  0  0  0  0  0  0  0  0
    6.3981   -0.2093    0.0000 C   0  0  1  0  0  0  0  0  0  0  0  0
    5.5320   -0.7093    0.0000 C   0  0  2  0  0  0  0  0  0  0  0  0
    5.5318    0.2912    0.0000 C   0  0  0  0  0  0  0  0  0  0  0  0
    7.2641   -0.7093    0.0000 C   0  0  2  0  0  0  0  0  0  0  0  0
    8.1741   -0.2024    0.0000 C   0  0  1  0  0  0  0  0  0  0  0  0
    5.5320   -1.7093    0.0000 C   0  0  1  0  0  0  0  0  0  0  0  0
    6.3820    0.8322    0.0000 C   0  0  0  0  0  0  0  0  0  0  0  0
    8.1821    0.8392    0.0000 C   0  0  2  0  0  0  0  0  0  0  0  0
    4.6381   -0.1746    0.0000 C   0  0  0  0  0  0  0  0  0  0  0  0
    7.2641   -1.7093    0.0000 C   0  0  0  0  0  0  0  0  0  0  0  0
    7.2800    1.3600    0.0000 C   0  0  0  0  0  0  0  0  0  0  0  0
    6.3981   -2.2093    0.0000 C   0  0  0  0  0  0  0  0  0  0  0  0
    9.1702    1.1490    0.0000 C   0  0  2  0  0  0  0  0  0  0  0  0
    9.1572   -0.5274    0.0000 C   0  0  0  0  0  0  0  0  0  0  0  0
    9.7716    0.3061    0.0000 C   0  0  1  0  0  0  0  0  0  0  0  0
    4.6381   -2.2439    0.0000 C   0  0  0  0  0  0  0  0  0  0  0  0
    8.1664   -1.2024    0.0000 C   0  0  0  0  0  0  0  0  0  0  0  0
    3.7320   -0.6884    0.0000 C   0  0  0  0  0  0  0  0  0  0  0  0
    8.1898    1.8392    0.0000 C   0  0  0  0  0  0  0  0  0  0  0  0
    3.7320   -1.7301    0.0000 C   0  0  2  0  0  0  0  0  0  0  0  0
    9.4881    2.0971    0.0000 C   0  0  2  0  0  0  0  0  0  0  0  0
    4.6497   -3.2439    0.0000 C   0  0  0  0  0  0  0  0  0  0  0  0
    8.8260    2.8465    0.0000 C   0  0  0  0  0  0  0  0  0  0  0  0
    2.0000   -1.7368    0.0000 C   0  0  0  0  0  0  0  0  0  0  0  0
   10.7862    3.2439    0.0000 C   0  0  0  0  0  0  0  0  0  0  0  0
    5.7439    0.8738    0.0000 H   0  0  0  0  0  0  0  0  0  0  0  0
    4.9212    0.3988    0.0000 H   0  0  0  0  0  0  0  0  0  0  0  0
    7.9969   -1.1399    0.0000 H   0  0  0  0  0  0  0  0  0  0  0  0
    5.5386   -2.5592    0.0000 H   0  0  0  0  0  0  0  0  0  0  0  0
    6.1640    1.4126    0.0000 H   0  0  0  0  0  0  0  0  0  0  0  0
    5.7729    0.7167    0.0000 H   0  0  0  0  0  0  0  0  0  0  0  0
    5.0427    0.2952    0.0000 H   0  0  0  0  0  0  0  0  0  0  0  0
    4.2445    0.3044    0.0000 H   0  0  0  0  0  0  0  0  0  0  0  0
    7.4762   -2.2919    0.0000 H   0  0  0  0  0  0  0  0  0  0  0  0
    7.8747   -1.6016    0.0000 H   0  0  0  0  0  0  0  0  0  0  0  0
    7.6774    1.8360    0.0000 H   0  0  0  0  0  0  0  0  0  0  0  0
    6.8791    1.8329    0.0000 H   0  0  0  0  0  0  0  0  0  0  0  0
    5.9995   -2.6842    0.0000 H   0  0  0  0  0  0  0  0  0  0  0  0
    6.7966   -2.6842    0.0000 H   0  0  0  0  0  0  0  0  0  0  0  0
   10.0109    1.2744    0.0000 H   0  0  0  0  0  0  0  0  0  0  0  0
    8.9018   -1.0924    0.0000 H   0  0  0  0  0  0  0  0  0  0  0  0
    9.6922   -0.8408    0.0000 H   0  0  0  0  0  0  0  0  0  0  0  0
   10.0490   -0.2484    0.0000 H   0  0  0  0  0  0  0  0  0  0  0  0
    7.5464   -1.1976    0.0000 H   0  0  0  0  0  0  0  0  0  0  0  0
    8.1616   -1.8224    0.0000 H   0  0  0  0  0  0  0  0  0  0  0  0
    8.7864   -1.2072    0.0000 H   0  0  0  0  0  0  0  0  0  0  0  0
    3.5230   -0.1048    0.0000 H   0  0  0  0  0  0  0  0  0  0  0  0
    3.1212   -0.7945    0.0000 H   0  0  0  0  0  0  0  0  0  0  0  0
    8.8098    1.8344    0.0000 H   0  0  0  0  0  0  0  0  0  0  0  0
    8.1946    2.4591    0.0000 H   0  0  0  0  0  0  0  0  0  0  0  0
    7.5699    1.8439    0.0000 H   0  0  0  0  0  0  0  0  0  0  0  0
    3.7356   -2.3501    0.0000 H   0  0  0  0  0  0  0  0  0  0  0  0
    9.6853    2.6849    0.0000 H   0  0  0  0  0  0  0  0  0  0  0  0
    4.1164   -3.5600    0.0000 H   0  0  0  0  0  0  0  0  0  0  0  0
    5.1902   -3.5476    0.0000 H   0  0  0  0  0  0  0  0  0  0  0  0
   11.0774   -0.2409    0.0000 H   0  0  0  0  0  0  0  0  0  0  0  0
    2.8703   -2.8534    0.0000 H   0  0  0  0  0  0  0  0  0  0  0  0
    9.2907    3.2570    0.0000 H   0  0  0  0  0  0  0  0  0  0  0  0
    8.4156    3.3112    0.0000 H   0  0  0  0  0  0  0  0  0  0  0  0
    8.3614    2.4360    0.0000 H   0  0  0  0  0  0  0  0  0  0  0  0
   10.8787    1.8311    0.0000 H   0  0  0  0  0  0  0  0  0  0  0  0
    2.3079   -1.1986    0.0000 H   0  0  0  0  0  0  0  0  0  0  0  0
    1.4619   -1.4288    0.0000 H   0  0  0  0  0  0  0  0  0  0  0  0
    1.6921   -2.2749    0.0000 H   0  0  0  0  0  0  0  0  0  0  0  0
   11.3740    3.0467    0.0000 H   0  0  0  0  0  0  0  0  0  0  0  0
   10.9833    3.8317    0.0000 H   0  0  0  0  0  0  0  0  0  0  0  0
   10.1984    3.4410    0.0000 H   0  0  0  0  0  0  0  0  0  0  0  0
 18  1  1  6  0  0  0
  1 59  1  0  0  0  0
 23  2  1  1  0  0  0
  2 27  1  0  0  0  0
  2 60  1  0  0  0  0
 24  3  1  6  0  0  0
  3 28  1  0  0  0  0
  3 64  1  0  0  0  0
  4  5  1  0  0  0  0
  4  6  1  1  0  0  0
  4  7  1  0  0  0  0
  4 10  1  0  0  0  0
  5  6  1  1  0  0  0
  5  9  1  0  0  0  0
  5 12  1  0  0  0  0
  6 29  1  0  0  0  0
  6 30  1  0  0  0  0
  7  8  1  0  0  0  0
  7 13  1  0  0  0  0
  7 31  1  1  0  0  0
  8 11  1  0  0  0  0
  8 17  1  0  0  0  0
  8 20  1  6  0  0  0
  9 15  1  0  0  0  0
  9 19  1  0  0  0  0
  9 32  1  6  0  0  0
 10 14  1  0  0  0  0
 10 33  1  0  0  0  0
 10 34  1  0  0  0  0
 11 14  1  0  0  0  0
 11 16  1  0  0  0  0
 11 22  1  1  0  0  0
 12 21  1  0  0  0  0
 12 35  1  0  0  0  0
 12 36  1  0  0  0  0
 13 15  1  0  0  0  0
 13 37  1  0  0  0  0
 13 38  1  0  0  0  0
 14 39  1  0  0  0  0
 14 40  1  0  0  0  0
 15 41  1  0  0  0  0
 15 42  1  0  0  0  0
 16 18  1  0  0  0  0
 16 24  1  0  0  0  0
 16 43  1  6  0  0  0
 17 18  1  0  0  0  0
 17 44  1  0  0  0  0
 17 45  1  0  0  0  0
 18 46  1  0  0  0  0
 19 23  1  0  0  0  0
 19 25  2  0  0  0  0
 20 47  1  0  0  0  0
 20 48  1  0  0  0  0
 20 49  1  0  0  0  0
 21 23  1  0  0  0  0
 21 50  1  0  0  0  0
 21 51  1  0  0  0  0
 22 52  1  0  0  0  0
 22 53  1  0  0  0  0
 22 54  1  0  0  0  0
 23 55  1  0  0  0  0
 24 26  1  0  0  0  0
 24 56  1  0  0  0  0
 25 57  1  0  0  0  0
 25 58  1  0  0  0  0
 26 61  1  0  0  0  0
 26 62  1  0  0  0  0
 26 63  1  0  0  0  0
 27 65  1  0  0  0  0
 27 66  1  0  0  0  0
 27 67  1  0  0  0  0
 28 68  1  0  0  0  0
 28 69  1  0  0  0  0
 28 70  1  0  0  0  0
M  END
> <PUBCHEM_COMPOUND_CID>
260437

> <PUBCHEM_COMPOUND_CANONICALIZED>
1

> <PUBCHEM_CACTVS_COMPLEXITY>
692

> <PUBCHEM_CACTVS_HBOND_ACCEPTOR>
3

> <PUBCHEM_CACTVS_HBOND_DONOR>
3

> <PUBCHEM_CACTVS_ROTATABLE_BOND>
3

> <PUBCHEM_CACTVS_SUBSKEYS>
AAADcfB7IAAAAAAAAAAAAAAAGAAAAYAAAAAwYMAABgAAAGDAAAAAHgAQCAAADzzhgAYCAALAAgCAAgBCAACAAAAgAAAAAIAIAAgAEAIAgQAEQAAGkAAAAAGQwPAPgAAAAAAAAACQAASAACAAAYAADAAAAA==

> <PUBCHEM_IUPAC_INCHI>
InChI=1S/C25H42N2O/c1-15-17-7-8-20-23(4)13-19(28)21(16(2)26-5)22(23,3)11-12-25(20)14-24(17,25)10-9-18(15)27-6/h16-21,26-28H,1,7-14H2,2-6H3/t16-,17-,18-,19+,20-,21-,22+,23-,24+,25-/m0/s1

> <PUBCHEM_IUPAC_INCHIKEY>
BSNZFQANPMIOIU-WZBMPAQFSA-N

> <PUBCHEM_XLOGP3_AA>
4.8

> <PUBCHEM_EXACT_MASS>
386.329714

> <PUBCHEM_MOLECULAR_FORMULA>
C25H42N2O

> <PUBCHEM_MOLECULAR_WEIGHT>
386.61378

> <PUBCHEM_OPENEYE_CAN_SMILES>
CC(C1C(CC2(C1(CCC34C2CCC5C3(C4)CCC(C5=C)NC)C)C)O)NC

> <PUBCHEM_OPENEYE_ISO_SMILES>
C[C@@H]([C@H]1[C@@H](C[C@@]2([C@@]1(CC[C@]34[C@H]2CC[C@@H]5[C@]3(C4)CC[C@@H](C5=C)NC)C)C)O)NC

> <PUBCHEM_CACTVS_TPSA>
44.3

> <PUBCHEM_MONOISOTOPIC_WEIGHT>
386.329714

> <PUBCHEM_TOTAL_CHARGE>
0

> <PUBCHEM_HEAVY_ATOM_COUNT>
28

> <PUBCHEM_ATOM_DEF_STEREO_COUNT>
10

> <PUBCHEM_ATOM_UDEF_STEREO_COUNT>
0

> <PUBCHEM_BOND_DEF_STEREO_COUNT>
0

> <PUBCHEM_BOND_UDEF_STEREO_COUNT>
0

> <PUBCHEM_ISOTOPIC_ATOM_COUNT>
0

> <PUBCHEM_COMPONENT_COUNT>
1

> <PUBCHEM_CACTVS_TAUTO_COUNT>
1

> <PUBCHEM_COORDINATE_TYPE>
1
5
255

> <PUBCHEM_BONDANNOTATIONS>
18  1  6
11  22  5
16  43  6
23  2  5
24  3  6
4  6  5
5  6  5
7  31  5
8  20  6
9  32  6

$$$$

