13725
  -OEChem-06241222403D

 21 21  0     0  0  0  0  0  0999 V2000
   -5.5211   -0.1104   -0.2609 Br  0  0  0  0  0  0  0  0  0  0  0  0
    0.7447   -3.3769   -1.4344 Cl  0  0  0  0  0  0  0  0  0  0  0  0
    3.1456   -2.1946   -0.3647 Cl  0  0  0  0  0  0  0  0  0  0  0  0
    1.2318   -3.3635    1.4513 Cl  0  0  0  0  0  0  0  0  0  0  0  0
    1.0561    3.4222    1.4535 Cl  0  0  0  0  0  0  0  0  0  0  0  0
    3.0171    2.3611   -0.3727 Cl  0  0  0  0  0  0  0  0  0  0  0  0
    0.5433    3.4071   -1.4278 Cl  0  0  0  0  0  0  0  0  0  0  0  0
   -0.7828    1.1757    0.2962 N   0  0  0  0  0  0  0  0  0  0  0  0
   -0.7160   -1.2229    0.2963 N   0  0  0  0  0  0  0  0  0  0  0  0
    1.2973    0.0334   -0.0587 N   0  0  0  0  0  0  0  0  0  0  0  0
   -2.8118   -0.0812    0.6538 C   0  0  0  0  0  0  0  0  0  0  0  0
   -1.3434   -0.0402    0.3993 C   0  0  0  0  0  0  0  0  0  0  0  0
    0.5396    1.1349    0.0672 C   0  0  0  0  0  0  0  0  0  0  0  0
    0.6022   -1.1084    0.0672 C   0  0  0  0  0  0  0  0  0  0  0  0
   -3.6127   -0.1035   -0.6445 C   0  0  0  0  0  0  0  0  0  0  0  0
    1.3723   -2.3786   -0.0605 C   0  0  0  0  0  0  0  0  0  0  0  0
    1.2377    2.4459   -0.0605 C   0  0  0  0  0  0  0  0  0  0  0  0
   -3.0969    0.7887    1.2592 H   0  0  0  0  0  0  0  0  0  0  0  0
   -3.0510   -0.9642    1.2600 H   0  0  0  0  0  0  0  0  0  0  0  0
   -3.4213    0.7812   -1.2592 H   0  0  0  0  0  0  0  0  0  0  0  0
   -3.4070   -1.0001   -1.2370 H   0  0  0  0  0  0  0  0  0  0  0  0
  1 15  1  0  0  0  0
  2 16  1  0  0  0  0
  3 16  1  0  0  0  0
  4 16  1  0  0  0  0
  5 17  1  0  0  0  0
  6 17  1  0  0  0  0
  7 17  1  0  0  0  0
  8 12  2  0  0  0  0
  8 13  1  0  0  0  0
  9 12  1  0  0  0  0
  9 14  2  0  0  0  0
 10 13  2  0  0  0  0
 10 14  1  0  0  0  0
 11 12  1  0  0  0  0
 11 15  1  0  0  0  0
 11 18  1  0  0  0  0
 11 19  1  0  0  0  0
 13 17  1  0  0  0  0
 14 16  1  0  0  0  0
 15 20  1  0  0  0  0
 15 21  1  0  0  0  0
M  END
> <PUBCHEM_COMPOUND_CID>
13725

> <PUBCHEM_CONFORMER_RMSD>
0.6

> <PUBCHEM_CONFORMER_DIVERSEORDER>
1
13
12
16
11
9
17
2
10
6
15
3
14
7
4
18
5
8

> <PUBCHEM_MMFF94_PARTIAL_CHARGES>
17
1 -0.23
10 -0.62
11 0.14
12 0.48
13 0.48
14 0.48
15 0.23
16 1.01
17 1.01
2 -0.29
3 -0.29
4 -0.29
5 -0.29
6 -0.29
7 -0.29
8 -0.62
9 -0.62

> <PUBCHEM_EFFECTIVE_ROTOR_COUNT>
4

> <PUBCHEM_PHARMACOPHORE_FEATURES>
5
1 1 hydrophobe
3 8 10 13 cation
3 8 9 12 cation
3 9 10 14 cation
6 8 9 10 12 13 14 rings

> <PUBCHEM_HEAVY_ATOM_COUNT>
17

> <PUBCHEM_ATOM_DEF_STEREO_COUNT>
0

> <PUBCHEM_ATOM_UDEF_STEREO_COUNT>
0

> <PUBCHEM_BOND_DEF_STEREO_COUNT>
0

> <PUBCHEM_BOND_UDEF_STEREO_COUNT>
0

> <PUBCHEM_ISOTOPIC_ATOM_COUNT>
0

> <PUBCHEM_COMPONENT_COUNT>
1

> <PUBCHEM_CACTVS_TAUTO_COUNT>
3

> <PUBCHEM_CONFORMER_ID>
0000359D00000001

> <PUBCHEM_MMFF94_ENERGY>
26.114

> <PUBCHEM_FEATURE_SELFOVERLAP>
28.144

> <PUBCHEM_SHAPE_FINGERPRINT>
1 1 18338519612544918533
116883 192 17614282594982407615
12500047 106 17688308989044498520
12553582 1 18122899000254468291
12730499 353 18267017268306580859
13140716 1 18194972846273915099
13681431 1 18338225080909670155
13955234 65 18409451350253294859
15490181 7 17832136130716404778
15502722 9 18412261701842014487
15906896 17 17547291099279625879
16945 1 18338504292248679339
17134986 127 18053660283193887485
17980427 26 17679043520400073325
20645476 183 17767402383620738196
20645477 70 18409732855284525439
20671657 53 18268151049214959739
21524375 3 18122623851579318531
2255824 54 18408321073405674335
23419403 2 17772499973077585902
23557571 272 17399257711466535882
23598291 2 18115293601173505057
257057 1 17981332497057977963
2748010 2 17979620256731823979
3060560 45 18339361846899473981
3071541 37 18340483374677133085
3091708 16 8856269839310345419
352729 6 17762329223979418984
6025842 7 18335989684283184727
6443956 14 18335702788219132017
7164475 11 17478050917888950259
7364860 26 18408040706319308593
81228 2 17545598315271218347
81539 233 18271247114765074375
8272917 22 18409443679336117781
84936 182 18187646847859825201
9841814 1 18199754803064484107

> <PUBCHEM_SHAPE_MULTIPOLES>
352.07
6.05
5.18
1.24
12.03
0.33
-0.02
-0.43
0.87
-5.69
0.17
-0.34
0
-0.01

> <PUBCHEM_SHAPE_SELFOVERLAP>
644.778

> <PUBCHEM_SHAPE_VOLUME>
234.1

> <PUBCHEM_COORDINATE_TYPE>
2
5
10

$$$$

