47205461
  -OEChem-06241222583D

 37 38  0     0  0  0  0  0  0999 V2000
   -4.9640   -0.5628   -0.3761 S   0  0  0  0  0  0  0  0  0  0  0  0
   -5.8807   -1.5712    0.1175 O   0  0  0  0  0  0  0  0  0  0  0  0
   -5.2934    0.2443   -1.5345 O   0  0  0  0  0  0  0  0  0  0  0  0
    0.2771   -0.5049    1.3320 O   0  0  0  0  0  0  0  0  0  0  0  0
   -2.1332    0.5011    0.4422 N   0  0  0  0  0  0  0  0  0  0  0  0
    1.3896    0.9914   -0.0945 N   0  0  0  0  0  0  0  0  0  0  0  0
   -3.3918   -1.3395   -0.6619 C   0  0  0  0  0  0  0  0  0  0  0  0
   -4.5643    0.5256    0.9703 C   0  0  0  0  0  0  0  0  0  0  0  0
   -2.2718   -0.3124   -0.7780 C   0  0  0  0  0  0  0  0  0  0  0  0
   -3.3159    1.3480    0.6746 C   0  0  0  0  0  0  0  0  0  0  0  0
   -0.9331    1.3367    0.3496 C   0  0  0  0  0  0  0  0  0  0  0  0
    0.2973    0.4840    0.6063 C   0  0  0  0  0  0  0  0  0  0  0  0
    2.7108    0.4845   -0.1190 C   0  0  0  0  0  0  0  0  0  0  0  0
    3.6890    1.1227   -0.8816 C   0  0  0  0  0  0  0  0  0  0  0  0
    3.0346   -0.6534    0.6199 C   0  0  0  0  0  0  0  0  0  0  0  0
    5.3148   -0.5150   -0.1663 C   0  0  0  0  0  0  0  0  0  0  0  0
    4.9910    0.6229   -0.9052 C   0  0  0  0  0  0  0  0  0  0  0  0
    4.3365   -1.1532    0.5961 C   0  0  0  0  0  0  0  0  0  0  0  0
    6.7074   -1.0486   -0.1914 C   0  0  0  0  0  0  0  0  0  0  0  0
   -3.2091   -2.0292    0.1690 H   0  0  0  0  0  0  0  0  0  0  0  0
   -3.4814   -1.9236   -1.5830 H   0  0  0  0  0  0  0  0  0  0  0  0
   -5.4300    1.1756    1.1303 H   0  0  0  0  0  0  0  0  0  0  0  0
   -4.4262   -0.0931    1.8635 H   0  0  0  0  0  0  0  0  0  0  0  0
   -1.3478   -0.8703   -0.9712 H   0  0  0  0  0  0  0  0  0  0  0  0
   -2.4432    0.3301   -1.6518 H   0  0  0  0  0  0  0  0  0  0  0  0
   -3.1420    1.9912    1.5463 H   0  0  0  0  0  0  0  0  0  0  0  0
   -3.4912    2.0096   -0.1837 H   0  0  0  0  0  0  0  0  0  0  0  0
   -0.9241    2.0978    1.1406 H   0  0  0  0  0  0  0  0  0  0  0  0
   -0.8793    1.8604   -0.6125 H   0  0  0  0  0  0  0  0  0  0  0  0
    1.2449    1.8277   -0.6559 H   0  0  0  0  0  0  0  0  0  0  0  0
    3.4501    2.0105   -1.4616 H   0  0  0  0  0  0  0  0  0  0  0  0
    2.3341   -1.2015    1.2338 H   0  0  0  0  0  0  0  0  0  0  0  0
    5.7449    1.1300   -1.5016 H   0  0  0  0  0  0  0  0  0  0  0  0
    4.5783   -2.0394    1.1771 H   0  0  0  0  0  0  0  0  0  0  0  0
    7.1920   -0.8432   -1.1520 H   0  0  0  0  0  0  0  0  0  0  0  0
    6.7168   -2.1353   -0.0542 H   0  0  0  0  0  0  0  0  0  0  0  0
    7.3000   -0.5893    0.6060 H   0  0  0  0  0  0  0  0  0  0  0  0
  1  2  2  0  0  0  0
  1  3  2  0  0  0  0
  1  7  1  0  0  0  0
  1  8  1  0  0  0  0
  4 12  2  0  0  0  0
  5  9  1  0  0  0  0
  5 10  1  0  0  0  0
  5 11  1  0  0  0  0
  6 12  1  0  0  0  0
  6 13  1  0  0  0  0
  6 30  1  0  0  0  0
  7  9  1  0  0  0  0
  7 20  1  0  0  0  0
  7 21  1  0  0  0  0
  8 10  1  0  0  0  0
  8 22  1  0  0  0  0
  8 23  1  0  0  0  0
  9 24  1  0  0  0  0
  9 25  1  0  0  0  0
 10 26  1  0  0  0  0
 10 27  1  0  0  0  0
 11 12  1  0  0  0  0
 11 28  1  0  0  0  0
 11 29  1  0  0  0  0
 13 14  2  0  0  0  0
 13 15  1  0  0  0  0
 14 17  1  0  0  0  0
 14 31  1  0  0  0  0
 15 18  2  0  0  0  0
 15 32  1  0  0  0  0
 16 17  2  0  0  0  0
 16 18  1  0  0  0  0
 16 19  1  0  0  0  0
 17 33  1  0  0  0  0
 18 34  1  0  0  0  0
 19 35  1  0  0  0  0
 19 36  1  0  0  0  0
 19 37  1  0  0  0  0
M  END
> <PUBCHEM_COMPOUND_CID>
47205461

> <PUBCHEM_CONFORMER_RMSD>
0.6

> <PUBCHEM_CONFORMER_DIVERSEORDER>
2
43
11
44
47
42
41
25
17
22
40
50
37
54
6
18
45
53
16
27
13
52
26
5
29
55
36
51
21
38
3
34
4
39
28
57
19
31
1
46
49
12
33
35
15
7
32
30
8
23
56
14
24
48
20
9
10

> <PUBCHEM_MMFF94_PARTIAL_CHARGES>
24
1 1.09
10 0.27
11 0.33
12 0.57
13 0.12
14 -0.15
15 -0.15
16 -0.14
17 -0.15
18 -0.15
19 0.14
2 -0.65
3 -0.65
30 0.37
31 0.15
32 0.15
33 0.15
34 0.15
4 -0.57
5 -0.81
6 -0.55
7 0.11
8 0.11
9 0.27

> <PUBCHEM_EFFECTIVE_ROTOR_COUNT>
5

> <PUBCHEM_PHARMACOPHORE_FEATURES>
7
1 2 acceptor
1 3 acceptor
1 4 acceptor
1 5 cation
1 6 donor
6 1 5 7 8 9 10 rings
6 13 14 15 16 17 18 rings

> <PUBCHEM_HEAVY_ATOM_COUNT>
19

> <PUBCHEM_ATOM_DEF_STEREO_COUNT>
0

> <PUBCHEM_ATOM_UDEF_STEREO_COUNT>
0

> <PUBCHEM_BOND_DEF_STEREO_COUNT>
0

> <PUBCHEM_BOND_UDEF_STEREO_COUNT>
0

> <PUBCHEM_ISOTOPIC_ATOM_COUNT>
0

> <PUBCHEM_COMPONENT_COUNT>
1

> <PUBCHEM_CACTVS_TAUTO_COUNT>
2

> <PUBCHEM_CONFORMER_ID>
02D04C5500000002

> <PUBCHEM_MMFF94_ENERGY>
41.8566

> <PUBCHEM_FEATURE_SELFOVERLAP>
35.537

> <PUBCHEM_SHAPE_MULTIPOLES>
367.29
16.02
1.4
1.08
3.72
0.06
0.08
5.32
2.46
-0.49
-0.03
-0.4
-0.04
-1.06

> <PUBCHEM_SHAPE_SELFOVERLAP>
747.485

> <PUBCHEM_SHAPE_VOLUME>
213.1

> <PUBCHEM_COORDINATE_TYPE>
2
5
10

$$$$

