7006530
  -OEChem-07051213153D

 20 20  0     1  0  0  0  0  0999 V2000
   -2.0738    0.8594    0.9139 O   0  0  0  0  0  0  0  0  0  0  0  0
    0.2475   -1.1591    0.3905 N   0  0  0  0  0  0  0  0  0  0  0  0
    1.8870    1.0828   -0.4711 N   0  0  0  0  0  0  0  0  0  0  0  0
   -2.6030   -0.7156   -0.6779 N   0  0  0  0  0  0  0  0  0  0  0  0
   -0.3057   -0.0578   -0.4022 C   0  0  2  0  0  0  0  0  0  0  0  0
    0.4618    1.2448   -0.1686 C   0  0  0  0  0  0  0  0  0  0  0  0
    1.6727   -1.3232    0.0873 C   0  0  0  0  0  0  0  0  0  0  0  0
    2.4471   -0.0232    0.3111 C   0  0  0  0  0  0  0  0  0  0  0  0
   -1.7337    0.0919    0.0169 C   0  0  0  0  0  0  0  0  0  0  0  0
   -0.2689   -0.3130   -1.4702 H   0  0  0  0  0  0  0  0  0  0  0  0
    0.0528    2.0334   -0.8112 H   0  0  0  0  0  0  0  0  0  0  0  0
    0.3512    1.5977    0.8654 H   0  0  0  0  0  0  0  0  0  0  0  0
    1.7975   -1.6665   -0.9475 H   0  0  0  0  0  0  0  0  0  0  0  0
    2.0838   -2.1044    0.7361 H   0  0  0  0  0  0  0  0  0  0  0  0
    2.4484    0.2381    1.3770 H   0  0  0  0  0  0  0  0  0  0  0  0
    3.4918   -0.1704    0.0160 H   0  0  0  0  0  0  0  0  0  0  0  0
   -0.2434   -2.0252    0.1686 H   0  0  0  0  0  0  0  0  0  0  0  0
    2.3836    1.9445   -0.2475 H   0  0  0  0  0  0  0  0  0  0  0  0
   -3.5975   -0.7044   -0.4776 H   0  0  0  0  0  0  0  0  0  0  0  0
   -2.2931   -1.3515   -1.4058 H   0  0  0  0  0  0  0  0  0  0  0  0
  1  9  2  0  0  0  0
  2  5  1  0  0  0  0
  2  7  1  0  0  0  0
  2 17  1  0  0  0  0
  3  6  1  0  0  0  0
  3  8  1  0  0  0  0
  3 18  1  0  0  0  0
  4  9  1  0  0  0  0
  4 19  1  0  0  0  0
  4 20  1  0  0  0  0
  5  6  1  0  0  0  0
  5  9  1  0  0  0  0
  5 10  1  0  0  0  0
  6 11  1  0  0  0  0
  6 12  1  0  0  0  0
  7  8  1  0  0  0  0
  7 13  1  0  0  0  0
  7 14  1  0  0  0  0
  8 15  1  0  0  0  0
  8 16  1  0  0  0  0
M  END
> <PUBCHEM_COMPOUND_CID>
7006530

> <PUBCHEM_CONFORMER_RMSD>
0.4

> <PUBCHEM_CONFORMER_DIVERSEORDER>
1
16
12
3
6
13
20
2
4
5
19
7
11
14
8
17
9
21
15
18
10

> <PUBCHEM_MMFF94_PARTIAL_CHARGES>
13
1 -0.57
17 0.36
18 0.36
19 0.37
2 -0.9
20 0.37
3 -0.9
4 -0.8
5 0.33
6 0.27
7 0.27
8 0.27
9 0.57

> <PUBCHEM_EFFECTIVE_ROTOR_COUNT>
2.2

> <PUBCHEM_PHARMACOPHORE_FEATURES>
7
1 1 acceptor
1 2 cation
1 2 donor
1 3 cation
1 3 donor
1 4 donor
6 2 3 5 6 7 8 rings

> <PUBCHEM_HEAVY_ATOM_COUNT>
9

> <PUBCHEM_ATOM_DEF_STEREO_COUNT>
1

> <PUBCHEM_ATOM_UDEF_STEREO_COUNT>
0

> <PUBCHEM_BOND_DEF_STEREO_COUNT>
0

> <PUBCHEM_BOND_UDEF_STEREO_COUNT>
0

> <PUBCHEM_ISOTOPIC_ATOM_COUNT>
0

> <PUBCHEM_COMPONENT_COUNT>
1

> <PUBCHEM_CACTVS_TAUTO_COUNT>
2

> <PUBCHEM_CONFORMER_ID>
006AE94200000001

> <PUBCHEM_MMFF94_ENERGY>
10.5753

> <PUBCHEM_FEATURE_SELFOVERLAP>
35.525

> <PUBCHEM_SHAPE_FINGERPRINT>
18185500 45 18408606984661368177
21040471 1 18268988687801059564
23552423 10 18340766039227935430
29004967 10 17846211198101512272
5084963 1 18410864243352138860

> <PUBCHEM_SHAPE_MULTIPOLES>
164.4
3.46
1.34
0.77
0.71
0.02
0.04
0.2
0.06
-0.41
-0.01
0.2
-0.05
-0.39

> <PUBCHEM_SHAPE_SELFOVERLAP>
322.129

> <PUBCHEM_SHAPE_VOLUME>
97.8

> <PUBCHEM_COORDINATE_TYPE>
2
5
10

$$$$

