17395892
  -OEChem-06241222533D

 53 55  0     1  0  0  0  0  0999 V2000
    2.8130   -2.3914   -0.3943 O   0  0  0  0  0  0  0  0  0  0  0  0
   -5.8778    0.8135   -0.2008 O   0  0  0  0  0  0  0  0  0  0  0  0
    1.2206    2.4558   -0.4341 O   0  0  0  0  0  0  0  0  0  0  0  0
   -1.8582   -2.1105   -0.1280 O   0  0  0  0  0  0  0  0  0  0  0  0
    2.4589   -0.0642   -0.4364 N   0  0  0  0  0  0  0  0  0  0  0  0
   -3.0978    0.4078   -0.1252 N   0  0  0  0  0  0  0  0  0  0  0  0
    5.3560   -0.1362    0.4877 C   0  0  1  0  0  0  0  0  0  0  0  0
    4.6912   -1.0031   -0.5412 C   0  0  1  0  0  0  0  0  0  0  0  0
    5.5932   -1.6179    0.4886 C   0  0  0  0  0  0  0  0  0  0  0  0
    6.4527    0.7717    0.0699 C   0  0  0  0  0  0  0  0  0  0  0  0
    3.2157   -1.2375   -0.4485 C   0  0  0  0  0  0  0  0  0  0  0  0
    1.0699    0.0621   -0.3587 C   0  0  0  0  0  0  0  0  0  0  0  0
    0.4690    1.3210   -0.3591 C   0  0  0  0  0  0  0  0  0  0  0  0
   -1.7069    0.2827   -0.2027 C   0  0  0  0  0  0  0  0  0  0  0  0
    0.2823   -1.0865   -0.2804 C   0  0  0  0  0  0  0  0  0  0  0  0
   -3.6919    1.5882    0.5116 C   0  0  0  0  0  0  0  0  0  0  0  0
   -3.9095   -0.2065   -1.1849 C   0  0  0  0  0  0  0  0  0  0  0  0
   -1.1061   -0.9763   -0.2026 C   0  0  0  0  0  0  0  0  0  0  0  0
   -0.9194    1.4315   -0.2807 C   0  0  0  0  0  0  0  0  0  0  0  0
   -5.1294    1.2851    0.9192 C   0  0  0  0  0  0  0  0  0  0  0  0
   -5.3351   -0.4142   -0.6864 C   0  0  0  0  0  0  0  0  0  0  0  0
    1.1130    3.3762    0.6496 C   0  0  0  0  0  0  0  0  0  0  0  0
   -1.6231   -2.9712    0.9842 C   0  0  0  0  0  0  0  0  0  0  0  0
    2.4318    4.1011    0.8137 C   0  0  0  0  0  0  0  0  0  0  0  0
   -2.9121   -3.6811    1.3395 C   0  0  0  0  0  0  0  0  0  0  0  0
    4.7656    0.2766    1.2961 H   0  0  0  0  0  0  0  0  0  0  0  0
    5.0729   -0.9771   -1.5571 H   0  0  0  0  0  0  0  0  0  0  0  0
    6.5548   -1.9911    0.1569 H   0  0  0  0  0  0  0  0  0  0  0  0
    5.1507   -2.1947    1.2922 H   0  0  0  0  0  0  0  0  0  0  0  0
    7.0607    0.3510   -0.7380 H   0  0  0  0  0  0  0  0  0  0  0  0
    6.0397    1.7237   -0.2785 H   0  0  0  0  0  0  0  0  0  0  0  0
    7.1136    0.9797    0.9173 H   0  0  0  0  0  0  0  0  0  0  0  0
    2.9692    0.8146   -0.4952 H   0  0  0  0  0  0  0  0  0  0  0  0
    0.6848   -2.0889   -0.2898 H   0  0  0  0  0  0  0  0  0  0  0  0
   -3.1298    1.8845    1.4052 H   0  0  0  0  0  0  0  0  0  0  0  0
   -3.6886    2.4232   -0.2000 H   0  0  0  0  0  0  0  0  0  0  0  0
   -3.9204    0.4765   -2.0440 H   0  0  0  0  0  0  0  0  0  0  0  0
   -3.5168   -1.1632   -1.5396 H   0  0  0  0  0  0  0  0  0  0  0  0
   -1.3676    2.4210   -0.3075 H   0  0  0  0  0  0  0  0  0  0  0  0
   -5.1677    0.5395    1.7226 H   0  0  0  0  0  0  0  0  0  0  0  0
   -5.6129    2.1951    1.2884 H   0  0  0  0  0  0  0  0  0  0  0  0
   -5.3748   -1.1707    0.1066 H   0  0  0  0  0  0  0  0  0  0  0  0
   -5.9709   -0.7601   -1.5075 H   0  0  0  0  0  0  0  0  0  0  0  0
    0.8688    2.8574    1.5851 H   0  0  0  0  0  0  0  0  0  0  0  0
    0.3180    4.0961    0.4272 H   0  0  0  0  0  0  0  0  0  0  0  0
   -0.8583   -3.7059    0.7102 H   0  0  0  0  0  0  0  0  0  0  0  0
   -1.2728   -2.4037    1.8555 H   0  0  0  0  0  0  0  0  0  0  0  0
    2.3817    4.8246    1.6321 H   0  0  0  0  0  0  0  0  0  0  0  0
    2.6997    4.6281   -0.1080 H   0  0  0  0  0  0  0  0  0  0  0  0
    3.2389    3.3897    1.0191 H   0  0  0  0  0  0  0  0  0  0  0  0
   -2.7648   -4.3614    2.1830 H   0  0  0  0  0  0  0  0  0  0  0  0
   -3.2856   -4.2537    0.4842 H   0  0  0  0  0  0  0  0  0  0  0  0
   -3.6906   -2.9566    1.6010 H   0  0  0  0  0  0  0  0  0  0  0  0
  1 11  2  0  0  0  0
  2 20  1  0  0  0  0
  2 21  1  0  0  0  0
  3 13  1  0  0  0  0
  3 22  1  0  0  0  0
  4 18  1  0  0  0  0
  4 23  1  0  0  0  0
  5 11  1  0  0  0  0
  5 12  1  0  0  0  0
  5 33  1  0  0  0  0
  6 14  1  0  0  0  0
  6 16  1  0  0  0  0
  6 17  1  0  0  0  0
  7  8  1  0  0  0  0
  7  9  1  0  0  0  0
  7 10  1  0  0  0  0
  7 26  1  0  0  0  0
  8  9  1  0  0  0  0
  8 11  1  0  0  0  0
  8 27  1  0  0  0  0
  9 28  1  0  0  0  0
  9 29  1  0  0  0  0
 10 30  1  0  0  0  0
 10 31  1  0  0  0  0
 10 32  1  0  0  0  0
 12 13  1  0  0  0  0
 12 15  2  0  0  0  0
 13 19  2  0  0  0  0
 14 18  2  0  0  0  0
 14 19  1  0  0  0  0
 15 18  1  0  0  0  0
 15 34  1  0  0  0  0
 16 20  1  0  0  0  0
 16 35  1  0  0  0  0
 16 36  1  0  0  0  0
 17 21  1  0  0  0  0
 17 37  1  0  0  0  0
 17 38  1  0  0  0  0
 19 39  1  0  0  0  0
 20 40  1  0  0  0  0
 20 41  1  0  0  0  0
 21 42  1  0  0  0  0
 21 43  1  0  0  0  0
 22 24  1  0  0  0  0
 22 44  1  0  0  0  0
 22 45  1  0  0  0  0
 23 25  1  0  0  0  0
 23 46  1  0  0  0  0
 23 47  1  0  0  0  0
 24 48  1  0  0  0  0
 24 49  1  0  0  0  0
 24 50  1  0  0  0  0
 25 51  1  0  0  0  0
 25 52  1  0  0  0  0
 25 53  1  0  0  0  0
M  END
> <PUBCHEM_COMPOUND_CID>
17395892

> <PUBCHEM_CONFORMER_RMSD>
1

> <PUBCHEM_CONFORMER_DIVERSEORDER>
1
19
20
3
17
12
21
13
11
7
9
14
6
5
8
18
16
4
10
15
2

> <PUBCHEM_MMFF94_PARTIAL_CHARGES>
30
1 -0.57
10 0.09
11 0.63
12 0.12
13 0.08
14 0.1
15 -0.15
16 0.37
17 0.37
18 0.08
19 -0.15
2 -0.56
20 0.28
21 0.28
22 0.28
23 0.28
26 0.1
27 0.1
28 0.1
29 0.1
3 -0.36
33 0.37
34 0.15
39 0.15
4 -0.36
5 -0.55
6 -0.84
7 -0.19
8 -0.1
9 -0.2

> <PUBCHEM_EFFECTIVE_ROTOR_COUNT>
9.8

> <PUBCHEM_PHARMACOPHORE_FEATURES>
8
1 1 acceptor
1 2 acceptor
1 3 acceptor
1 4 acceptor
1 5 donor
1 6 cation
6 12 13 14 15 18 19 rings
6 2 6 16 17 20 21 rings

> <PUBCHEM_HEAVY_ATOM_COUNT>
25

> <PUBCHEM_ATOM_DEF_STEREO_COUNT>
0

> <PUBCHEM_ATOM_UDEF_STEREO_COUNT>
2

> <PUBCHEM_BOND_DEF_STEREO_COUNT>
0

> <PUBCHEM_BOND_UDEF_STEREO_COUNT>
0

> <PUBCHEM_ISOTOPIC_ATOM_COUNT>
0

> <PUBCHEM_COMPONENT_COUNT>
1

> <PUBCHEM_CACTVS_TAUTO_COUNT>
2

> <PUBCHEM_CONFORMER_ID>
010970B400000001

> <PUBCHEM_MMFF94_ENERGY>
91.7139

> <PUBCHEM_FEATURE_SELFOVERLAP>
40.594

> <PUBCHEM_SHAPE_FINGERPRINT>
10906281 52 18262783151321195252
1100329 8 18411697677450430577
11578080 2 17097224826733519955
11680986 33 18266742381045005957
12035758 1 18341882009566003043
12236239 1 17967817188523398855
12516196 113 18334859441615733908
12788726 201 18196373843452910522
12930653 34 17905890279849398029
13140716 1 18339638923892736337
13862211 1 18340208586795781783
14020679 6 18273210872370330770
14466204 15 18193836170521701017
14787075 74 18341895225211994860
14790565 3 18196366146291773733
14849402 71 18336260141915154057
15209289 33 18410571825516189319
15927050 60 17756432556944120324
17980427 23 17603577556448591769
19319366 153 17632587088621568530
20510252 161 18120375625447721712
20600515 1 18341598352466279348
20642791 105 17912090744120923788
20642791 178 18128244607024860756
21029758 11 18336269028096377220
21033648 29 17917165948050125013
21267235 1 18338512066920544742
22224240 67 18341042026169923835
23366157 5 18057324981598941636
23402539 116 18261960759583847789
23557571 272 18190172563813111612
23558518 356 17913484645391018667
23559900 14 18335991865182247384
23569943 247 17754727553026742823
3178227 256 18270665563799073921
335352 9 18411700988938768413
34797466 226 16226047756706359516
34934 24 18410858776291892006
350125 39 18268982090826524299
3680242 22 18342177817080545994
4015057 19 18335992960636375489
404807 14 15725830687688560407
4073 2 18343299237532288210
4340502 62 16415471700926815930
5104073 3 18339921502617955408
7226269 152 18410857702127509549
9709674 26 18194688068652171151
9981440 41 17612892404247688473

> <PUBCHEM_SHAPE_MULTIPOLES>
481.05
12.92
3.97
0.97
5.56
1.09
0.12
-1.02
0.46
0.5
1.85
-0.55
-0.21
0.85

> <PUBCHEM_SHAPE_SELFOVERLAP>
995.288

> <PUBCHEM_SHAPE_VOLUME>
276.7

> <PUBCHEM_COORDINATE_TYPE>
2
5
10

$$$$

