6506548
  -OEChem-07051213093D

 35 36  0     0  0  0  0  0  0999 V2000
    2.3798   -1.8466   -0.1065 O   0  0  0  0  0  0  0  0  0  0  0  0
    0.9067    2.4995    0.0538 O   0  0  0  0  0  0  0  0  0  0  0  0
    0.0330   -2.1100   -0.4394 C   0  0  0  0  0  0  0  0  0  0  0  0
    1.1958   -1.1708   -0.2532 C   0  0  0  0  0  0  0  0  0  0  0  0
   -3.5086   -0.5953   -0.1437 C   0  0  0  0  0  0  0  0  0  0  0  0
   -3.2569    0.8518   -0.6371 C   0  0  0  0  0  0  0  0  0  0  0  0
    1.4319    0.2076   -0.1897 C   0  0  0  0  0  0  0  0  0  0  0  0
   -1.2717   -1.7440    0.2332 C   0  0  0  0  0  0  0  0  0  0  0  0
   -2.3395   -1.4581   -0.5409 C   0  0  0  0  0  0  0  0  0  0  0  0
   -1.9303    1.4054   -0.1265 C   0  0  0  0  0  0  0  0  0  0  0  0
    2.8433    0.3289    0.0345 C   0  0  0  0  0  0  0  0  0  0  0  0
    0.5482    1.3713   -0.2684 C   0  0  0  0  0  0  0  0  0  0  0  0
   -0.8010    1.1283   -0.8117 C   0  0  0  0  0  0  0  0  0  0  0  0
   -1.2206   -1.5957    1.7287 C   0  0  0  0  0  0  0  0  0  0  0  0
    3.3616   -0.9374    0.0679 C   0  0  0  0  0  0  0  0  0  0  0  0
   -2.0053    2.0973    1.2062 C   0  0  0  0  0  0  0  0  0  0  0  0
    3.6336    1.5677    0.1928 C   0  0  0  0  0  0  0  0  0  0  0  0
   -0.1064   -2.2284   -1.5224 H   0  0  0  0  0  0  0  0  0  0  0  0
    0.3179   -3.1069   -0.0756 H   0  0  0  0  0  0  0  0  0  0  0  0
   -4.4202   -0.9892   -0.6071 H   0  0  0  0  0  0  0  0  0  0  0  0
   -3.6825   -0.5964    0.9359 H   0  0  0  0  0  0  0  0  0  0  0  0
   -4.0825    1.4997   -0.3187 H   0  0  0  0  0  0  0  0  0  0  0  0
   -3.2683    0.8705   -1.7354 H   0  0  0  0  0  0  0  0  0  0  0  0
   -2.2642   -1.6288   -1.6146 H   0  0  0  0  0  0  0  0  0  0  0  0
   -0.8407    0.5800   -1.7491 H   0  0  0  0  0  0  0  0  0  0  0  0
   -2.2107   -1.4958    2.1799 H   0  0  0  0  0  0  0  0  0  0  0  0
   -0.6253   -0.7251    2.0188 H   0  0  0  0  0  0  0  0  0  0  0  0
   -0.7646   -2.4864    2.1745 H   0  0  0  0  0  0  0  0  0  0  0  0
    4.3554   -1.3394    0.2022 H   0  0  0  0  0  0  0  0  0  0  0  0
   -2.5663    3.0324    1.1086 H   0  0  0  0  0  0  0  0  0  0  0  0
   -1.0276    2.3392    1.6285 H   0  0  0  0  0  0  0  0  0  0  0  0
   -2.5197    1.4633    1.9360 H   0  0  0  0  0  0  0  0  0  0  0  0
    4.7049    1.3512    0.2676 H   0  0  0  0  0  0  0  0  0  0  0  0
    3.4937    2.2327   -0.6656 H   0  0  0  0  0  0  0  0  0  0  0  0
    3.3414    2.1004    1.1034 H   0  0  0  0  0  0  0  0  0  0  0  0
  1  4  1  0  0  0  0
  1 15  1  0  0  0  0
  2 12  2  0  0  0  0
  3  4  1  0  0  0  0
  3  8  1  0  0  0  0
  3 18  1  0  0  0  0
  3 19  1  0  0  0  0
  4  7  2  0  0  0  0
  5  6  1  0  0  0  0
  5  9  1  0  0  0  0
  5 20  1  0  0  0  0
  5 21  1  0  0  0  0
  6 10  1  0  0  0  0
  6 22  1  0  0  0  0
  6 23  1  0  0  0  0
  7 11  1  0  0  0  0
  7 12  1  0  0  0  0
  8  9  2  0  0  0  0
  8 14  1  0  0  0  0
  9 24  1  0  0  0  0
 10 13  2  0  0  0  0
 10 16  1  0  0  0  0
 11 15  2  0  0  0  0
 11 17  1  0  0  0  0
 12 13  1  0  0  0  0
 13 25  1  0  0  0  0
 14 26  1  0  0  0  0
 14 27  1  0  0  0  0
 14 28  1  0  0  0  0
 15 29  1  0  0  0  0
 16 30  1  0  0  0  0
 16 31  1  0  0  0  0
 16 32  1  0  0  0  0
 17 33  1  0  0  0  0
 17 34  1  0  0  0  0
 17 35  1  0  0  0  0
M  END
> <PUBCHEM_COMPOUND_CID>
6506548

> <PUBCHEM_CONFORMER_RMSD>
0.6

> <PUBCHEM_CONFORMER_DIVERSEORDER>
4
5
6
1
3
2

> <PUBCHEM_MMFF94_PARTIAL_CHARGES>
20
1 -0.28
10 -0.28
11 -0.18
12 0.64
13 -0.14
14 0.14
15 -0.01
16 0.14
17 0.18
2 -0.57
24 0.15
25 0.15
29 0.15
3 0.32
4 -0.04
5 0.14
6 0.14
7 -0.09
8 -0.28
9 -0.29

> <PUBCHEM_EFFECTIVE_ROTOR_COUNT>
0.6

> <PUBCHEM_PHARMACOPHORE_FEATURES>
3
1 1 acceptor
1 2 acceptor
5 1 4 7 11 15 rings

> <PUBCHEM_HEAVY_ATOM_COUNT>
17

> <PUBCHEM_ATOM_DEF_STEREO_COUNT>
0

> <PUBCHEM_ATOM_UDEF_STEREO_COUNT>
0

> <PUBCHEM_BOND_DEF_STEREO_COUNT>
2

> <PUBCHEM_BOND_UDEF_STEREO_COUNT>
0

> <PUBCHEM_ISOTOPIC_ATOM_COUNT>
0

> <PUBCHEM_COMPONENT_COUNT>
1

> <PUBCHEM_CACTVS_TAUTO_COUNT>
5

> <PUBCHEM_CONFORMER_ID>
0063483400000004

> <PUBCHEM_MMFF94_ENERGY>
40.3235

> <PUBCHEM_FEATURE_SELFOVERLAP>
15.223

> <PUBCHEM_SHAPE_FINGERPRINT>
10863032 1 18335704961445878711
10967382 1 18338519638156310908
11132069 177 18411146860906240276
11680986 33 18341327790869507384
12011746 2 18411138013263035484
12382932 28 18192430989980807121
12491281 212 18263354944485736779
13027679 85 18118684314465734545
13140716 1 18339078319149720906
14251745 187 18339651044211279200
15196674 1 18411140233956345047
15442244 35 18337392772246089722
15775835 57 18058449979335285415
16945 1 18267015059844233478
20201158 50 18339928121289223455
20510252 161 18334576823998238145
21267235 1 18410287029865523454
21501502 16 18410292536324397870
22721475 48 18340203003316996525
22802520 49 18044923804222847902
2334 1 18411136943932287974
23402539 116 18262816140875753791
23419403 2 16463126553598673837
23463225 33 18340771536923120478
23559900 14 18337680818934051026
238 59 17192956306197650357
2748010 2 18410568500837118422
353137 74 18340777021875925715
69090 78 18408330994790612799
8809292 202 18344144795589552330
9709674 26 18411135818572053462

> <PUBCHEM_SHAPE_MULTIPOLES>
338.11
5.53
2.71
0.99
1.65
0.23
0.36
0.57
-0.14
-0.17
0.31
-0.54
-0.08
0.07

> <PUBCHEM_SHAPE_SELFOVERLAP>
710.096

> <PUBCHEM_SHAPE_VOLUME>
191.3

> <PUBCHEM_COORDINATE_TYPE>
2
5
10

$$$$

