108179
  -OEChem-07051213043D

 54 58  0     1  0  0  0  0  0999 V2000
    1.0488   -3.1760   -0.2795 O   0  0  0  0  0  0  0  0  0  0  0  0
   -1.1542   -1.5069   -1.0695 O   0  0  0  0  0  0  0  0  0  0  0  0
   -4.3366   -0.6178    1.3286 O   0  0  0  0  0  0  0  0  0  0  0  0
    3.0798   -0.7443    0.0069 O   0  0  0  0  0  0  0  0  0  0  0  0
    0.6212   -0.3071   -1.9202 O   0  0  0  0  0  0  0  0  0  0  0  0
   -1.7583    1.1560    0.9773 O   0  0  0  0  0  0  0  0  0  0  0  0
    3.7358   -2.9250   -0.3818 O   0  0  0  0  0  0  0  0  0  0  0  0
   -1.1077    4.0792   -2.5335 O   0  0  0  0  0  0  0  0  0  0  0  0
    0.9128   -1.7659   -0.0501 C   0  0  1  0  0  0  0  0  0  0  0  0
   -0.0161   -2.7522    0.5768 C   0  0  1  0  0  0  0  0  0  0  0  0
   -1.3553   -2.5081   -0.0395 C   0  0  1  0  0  0  0  0  0  0  0  0
   -3.6136   -1.4659    0.4244 C   0  0  2  0  0  0  0  0  0  0  0  0
   -2.3373   -1.9809    1.0117 C   0  0  0  0  0  0  0  0  0  0  0  0
    1.9696   -1.1316    0.8076 C   0  0  2  0  0  0  0  0  0  0  0  0
   -3.8951   -0.0073    0.1073 C   0  0  2  0  0  0  0  0  0  0  0  0
    0.1484   -1.0888   -1.1114 C   0  0  0  0  0  0  0  0  0  0  0  0
    1.4158    0.0634    1.6148 C   0  0  0  0  0  0  0  0  0  0  0  0
   -4.4920   -2.4879   -0.2154 C   0  0  0  0  0  0  0  0  0  0  0  0
    1.4877    1.4430    0.9137 C   0  0  1  0  0  0  0  0  0  0  0  0
   -2.7420    1.0230    0.0429 C   0  0  0  0  0  0  0  0  0  0  0  0
    0.3220    2.3651    1.3342 C   0  0  0  0  0  0  0  0  0  0  0  0
   -0.8970    2.1058    0.5182 C   0  0  0  0  0  0  0  0  0  0  0  0
   -2.5436    1.9209   -0.9840 C   0  0  0  0  0  0  0  0  0  0  0  0
    2.7955    2.1207    1.2143 C   0  0  0  0  0  0  0  0  0  0  0  0
   -1.3544    2.6227   -0.6754 C   0  0  0  0  0  0  0  0  0  0  0  0
    3.6777   -1.7465   -0.7057 C   0  0  0  0  0  0  0  0  0  0  0  0
    3.6670    2.4299    0.0333 C   0  0  0  0  0  0  0  0  0  0  0  0
    3.1617    2.4313    2.4666 C   0  0  0  0  0  0  0  0  0  0  0  0
   -0.7068    3.6444   -1.4444 C   0  0  0  0  0  0  0  0  0  0  0  0
    4.2661   -1.1932   -1.9681 C   0  0  0  0  0  0  0  0  0  0  0  0
    0.0217   -2.9986    1.6249 H   0  0  0  0  0  0  0  0  0  0  0  0
   -1.7362   -3.4146   -0.5211 H   0  0  0  0  0  0  0  0  0  0  0  0
   -2.5617   -2.7852    1.7249 H   0  0  0  0  0  0  0  0  0  0  0  0
   -1.8555   -1.2005    1.6104 H   0  0  0  0  0  0  0  0  0  0  0  0
    2.3257   -1.8668    1.5432 H   0  0  0  0  0  0  0  0  0  0  0  0
   -4.6780    0.1959   -0.6180 H   0  0  0  0  0  0  0  0  0  0  0  0
    1.9672    0.0925    2.5631 H   0  0  0  0  0  0  0  0  0  0  0  0
    0.3837   -0.1637    1.9067 H   0  0  0  0  0  0  0  0  0  0  0  0
   -5.4921   -2.0960   -0.4320 H   0  0  0  0  0  0  0  0  0  0  0  0
   -4.0605   -2.8264   -1.1627 H   0  0  0  0  0  0  0  0  0  0  0  0
   -4.6162   -3.3595    0.4359 H   0  0  0  0  0  0  0  0  0  0  0  0
    1.4229    1.2969   -0.1700 H   0  0  0  0  0  0  0  0  0  0  0  0
    0.5951    3.4214    1.2132 H   0  0  0  0  0  0  0  0  0  0  0  0
    0.0859    2.2330    2.3980 H   0  0  0  0  0  0  0  0  0  0  0  0
   -3.1698    2.0386   -1.8576 H   0  0  0  0  0  0  0  0  0  0  0  0
    3.9649    1.5233   -0.4960 H   0  0  0  0  0  0  0  0  0  0  0  0
    3.1330    3.0795   -0.6685 H   0  0  0  0  0  0  0  0  0  0  0  0
    4.5836    2.9518    0.3289 H   0  0  0  0  0  0  0  0  0  0  0  0
    4.1096    2.9196    2.6684 H   0  0  0  0  0  0  0  0  0  0  0  0
    2.5281    2.2199    3.3212 H   0  0  0  0  0  0  0  0  0  0  0  0
    0.2226    4.0562   -1.0167 H   0  0  0  0  0  0  0  0  0  0  0  0
    5.0975   -0.5267   -1.7268 H   0  0  0  0  0  0  0  0  0  0  0  0
    3.4984   -0.6610   -2.5355 H   0  0  0  0  0  0  0  0  0  0  0  0
    4.6398   -2.0159   -2.5844 H   0  0  0  0  0  0  0  0  0  0  0  0
  1  9  1  0  0  0  0
  1 10  1  0  0  0  0
  2 11  1  0  0  0  0
  2 16  1  0  0  0  0
  3 12  1  0  0  0  0
  3 15  1  0  0  0  0
  4 14  1  0  0  0  0
  4 26  1  0  0  0  0
  5 16  2  0  0  0  0
  6 20  1  0  0  0  0
  6 22  1  0  0  0  0
  7 26  2  0  0  0  0
  8 29  2  0  0  0  0
  9 10  1  0  0  0  0
  9 14  1  0  0  0  0
  9 16  1  0  0  0  0
 10 11  1  0  0  0  0
 10 31  1  0  0  0  0
 11 13  1  0  0  0  0
 11 32  1  0  0  0  0
 12 13  1  0  0  0  0
 12 15  1  0  0  0  0
 12 18  1  0  0  0  0
 13 33  1  0  0  0  0
 13 34  1  0  0  0  0
 14 17  1  0  0  0  0
 14 35  1  0  0  0  0
 15 20  1  0  0  0  0
 15 36  1  0  0  0  0
 17 19  1  0  0  0  0
 17 37  1  0  0  0  0
 17 38  1  0  0  0  0
 18 39  1  0  0  0  0
 18 40  1  0  0  0  0
 18 41  1  0  0  0  0
 19 21  1  0  0  0  0
 19 24  1  0  0  0  0
 19 42  1  0  0  0  0
 20 23  2  0  0  0  0
 21 22  1  0  0  0  0
 21 43  1  0  0  0  0
 21 44  1  0  0  0  0
 22 25  2  0  0  0  0
 23 25  1  0  0  0  0
 23 45  1  0  0  0  0
 24 27  1  0  0  0  0
 24 28  2  0  0  0  0
 25 29  1  0  0  0  0
 26 30  1  0  0  0  0
 27 46  1  0  0  0  0
 27 47  1  0  0  0  0
 27 48  1  0  0  0  0
 28 49  1  0  0  0  0
 28 50  1  0  0  0  0
 29 51  1  0  0  0  0
 30 52  1  0  0  0  0
 30 53  1  0  0  0  0
 30 54  1  0  0  0  0
M  END
> <PUBCHEM_COMPOUND_CID>
108179

> <PUBCHEM_CONFORMER_RMSD>
0.8

> <PUBCHEM_CONFORMER_DIVERSEORDER>
1
9
19
6
2
14
18
11
20
10
15
8
13
16
17
4
3
5
7
12

> <PUBCHEM_MMFF94_PARTIAL_CHARGES>
35
1 -0.3
10 -0.05
11 0.38
12 -0.04
13 0.09
14 0.38
15 0.13
16 0.72
18 0.09
19 0.14
2 -0.43
20 0.05
21 0.18
22 -0.04
23 -0.15
24 -0.28
25 -0.09
26 0.66
27 0.14
28 -0.3
29 0.6
3 -0.3
30 0.06
31 0.1
36 0.1
4 -0.43
45 0.15
49 0.15
5 -0.57
50 0.15
51 0.06
6 -0.28
7 -0.57
8 -0.57
9 0.05

> <PUBCHEM_EFFECTIVE_ROTOR_COUNT>
5.6

> <PUBCHEM_PHARMACOPHORE_FEATURES>
8
1 1 acceptor
1 3 acceptor
1 5 acceptor
1 6 acceptor
1 7 acceptor
1 8 acceptor
5 6 20 22 23 25 rings
6 1 2 9 10 11 16 rings

> <PUBCHEM_HEAVY_ATOM_COUNT>
30

> <PUBCHEM_ATOM_DEF_STEREO_COUNT>
7

> <PUBCHEM_ATOM_UDEF_STEREO_COUNT>
0

> <PUBCHEM_BOND_DEF_STEREO_COUNT>
0

> <PUBCHEM_BOND_UDEF_STEREO_COUNT>
0

> <PUBCHEM_ISOTOPIC_ATOM_COUNT>
0

> <PUBCHEM_COMPONENT_COUNT>
1

> <PUBCHEM_CACTVS_TAUTO_COUNT>
1

> <PUBCHEM_CONFORMER_ID>
0001A69300000001

> <PUBCHEM_MMFF94_ENERGY>
59.1514

> <PUBCHEM_FEATURE_SELFOVERLAP>
40.602

> <PUBCHEM_SHAPE_FINGERPRINT>
10675989 125 15963162626660983540
1100329 8 18044646744546110960
11370993 70 17120859198407558669
11513181 2 16960692820225946740
11578080 2 17702409362159863796
12011746 2 18122352281034621203
12403259 226 18337107964005739131
12422481 6 18190481393172923296
12553582 1 17323247381801064688
12633257 1 18263362654368784563
13140716 1 18335995236778976441
13149001 5 18116724095929407040
13402501 40 18262518087810213456
14223421 5 18410862087421052611
15840311 113 18040702651458312579
17357779 13 18335712649859572335
19591789 44 18335419062711051026
20691752 17 18343018857297042731
20739085 24 18268124536323559977
20775438 99 17759855551252394751
20905425 154 18334572400044798997
22182313 1 18339936943331553441
23419403 2 18186514401884493188
23559900 14 18411703213663235940
23566358 2 18333444340391846796
238 59 17834431129427341125
2748010 2 18337682935572154465
3380486 77 16972020104441023522
350125 39 18408884023427557224
35225 105 18123487225937004223
469060 322 17912043370393687627
6287921 2 18192425273495387465
9862522 239 17901705629157583664

> <PUBCHEM_SHAPE_MULTIPOLES>
570.43
7.11
4.83
1.83
1.14
1.68
0.32
-2.58
-0.64
-0.9
1.59
-1.09
1.29
2.38

> <PUBCHEM_SHAPE_SELFOVERLAP>
1232.254

> <PUBCHEM_SHAPE_VOLUME>
314.2

> <PUBCHEM_COORDINATE_TYPE>
2
5
10

$$$$

