5281099
  -OEChem-07051212543D

 94 97  0     1  0  0  0  0  0999 V2000
    1.1478    2.0559    0.8475 O   0  0  0  0  0  0  0  0  0  0  0  0
   -4.8896    0.9210    3.3281 O   0  0  0  0  0  0  0  0  0  0  0  0
    0.2847    4.2358    1.1544 O   0  0  0  0  0  0  0  0  0  0  0  0
    0.7555    3.2042   -3.1034 O   0  0  0  0  0  0  0  0  0  0  0  0
    4.4921   -0.7136    0.8320 O   0  0  0  0  0  0  0  0  0  0  0  0
   -3.0984    3.2881    0.2521 O   0  0  0  0  0  0  0  0  0  0  0  0
    5.8745   -1.3440   -0.9907 O   0  0  0  0  0  0  0  0  0  0  0  0
    3.9729    2.0718   -2.8215 O   0  0  0  0  0  0  0  0  0  0  0  0
    3.9575    4.0788   -1.7408 O   0  0  0  0  0  0  0  0  0  0  0  0
    5.6238   -4.0666   -0.0161 O   0  0  0  0  0  0  0  0  0  0  0  0
    8.9476   -1.4339    1.0122 O   0  0  0  0  0  0  0  0  0  0  0  0
   -7.4311   -1.5100   -0.3370 O   0  0  0  0  0  0  0  0  0  0  0  0
   -8.0322    0.1096   -1.8641 O   0  0  0  0  0  0  0  0  0  0  0  0
    7.4166   -3.6835    2.1443 N   0  0  0  0  0  0  0  0  0  0  0  0
    0.0448    2.9425    0.5978 C   0  0  1  0  0  0  0  0  0  0  0  0
    2.3758    2.4275    0.2146 C   0  0  2  0  0  0  0  0  0  0  0  0
    2.2130    2.4586   -1.3116 C   0  0  1  0  0  0  0  0  0  0  0  0
   -0.2185    3.0193   -0.9106 C   0  0  0  0  0  0  0  0  0  0  0  0
    1.0400    3.3592   -1.7131 C   0  0  2  0  0  0  0  0  0  0  0  0
   -1.1473    2.3232    1.3715 C   0  0  0  0  0  0  0  0  0  0  0  0
   -2.4115    3.1924    1.4935 C   0  0  2  0  0  0  0  0  0  0  0  0
   -4.0628    1.4033    2.2585 C   0  0  2  0  0  0  0  0  0  0  0  0
   -3.3675    2.6938    2.5875 C   0  0  0  0  0  0  0  0  0  0  0  0
    3.4814    1.4713    0.7132 C   0  0  0  0  0  0  0  0  0  0  0  0
   -5.5727    1.3487    2.1395 C   0  0  1  0  0  0  0  0  0  0  0  0
    3.3947    0.0018    0.2600 C   0  0  2  0  0  0  0  0  0  0  0  0
    3.4625    2.9826   -1.9570 C   0  0  0  0  0  0  0  0  0  0  0  0
    4.9162   -1.7733   -0.0188 C   0  0  1  0  0  0  0  0  0  0  0  0
    5.4803   -2.9198    0.8240 C   0  0  2  0  0  0  0  0  0  0  0  0
    6.8292   -2.5342    1.4513 C   0  0  2  0  0  0  0  0  0  0  0  0
    7.7924   -1.9877    0.3870 C   0  0  1  0  0  0  0  0  0  0  0  0
   -6.1856    0.3926    1.2070 C   0  0  0  0  0  0  0  0  0  0  0  0
    7.1051   -0.8826   -0.4286 C   0  0  1  0  0  0  0  0  0  0  0  0
    2.1365   -0.6803    0.7112 C   0  0  0  0  0  0  0  0  0  0  0  0
    7.9830   -0.4122   -1.5855 C   0  0  0  0  0  0  0  0  0  0  0  0
   -6.8793    0.7266    0.1080 C   0  0  0  0  0  0  0  0  0  0  0  0
    1.2074   -1.1458   -0.1365 C   0  0  0  0  0  0  0  0  0  0  0  0
   -7.5125   -0.2433   -0.8142 C   0  0  0  0  0  0  0  0  0  0  0  0
   -0.0480   -1.7088    0.3022 C   0  0  0  0  0  0  0  0  0  0  0  0
   -1.0043   -2.0997   -0.5526 C   0  0  0  0  0  0  0  0  0  0  0  0
   -7.9165   -2.5860   -1.1739 C   0  0  1  0  0  0  0  0  0  0  0  0
   -7.0165   -3.8037   -0.9246 C   0  0  0  0  0  0  0  0  0  0  0  0
   -2.2962   -2.5803   -0.1181 C   0  0  0  0  0  0  0  0  0  0  0  0
   -9.3600   -2.8806   -0.7862 C   0  0  0  0  0  0  0  0  0  0  0  0
   -5.6124   -3.5176   -1.3828 C   0  0  0  0  0  0  0  0  0  0  0  0
   -3.2762   -2.9057   -0.9738 C   0  0  0  0  0  0  0  0  0  0  0  0
   -4.5961   -3.2953   -0.5363 C   0  0  0  0  0  0  0  0  0  0  0  0
    2.6473    3.4279    0.5785 H   0  0  0  0  0  0  0  0  0  0  0  0
    1.9994    1.4540   -1.6956 H   0  0  0  0  0  0  0  0  0  0  0  0
   -0.9848    3.7693   -1.1376 H   0  0  0  0  0  0  0  0  0  0  0  0
   -0.6031    2.0559   -1.2718 H   0  0  0  0  0  0  0  0  0  0  0  0
    1.2979    4.4134   -1.5509 H   0  0  0  0  0  0  0  0  0  0  0  0
   -1.3942    1.3580    0.9112 H   0  0  0  0  0  0  0  0  0  0  0  0
   -0.7958    2.0903    2.3867 H   0  0  0  0  0  0  0  0  0  0  0  0
   -2.1156    4.2103    1.7710 H   0  0  0  0  0  0  0  0  0  0  0  0
   -3.4438    0.6667    1.7668 H   0  0  0  0  0  0  0  0  0  0  0  0
   -2.8182    2.5786    3.5297 H   0  0  0  0  0  0  0  0  0  0  0  0
   -4.1246    3.4695    2.7603 H   0  0  0  0  0  0  0  0  0  0  0  0
    4.4626    1.8628    0.4136 H   0  0  0  0  0  0  0  0  0  0  0  0
    3.4890    1.4912    1.8124 H   0  0  0  0  0  0  0  0  0  0  0  0
   -6.1186    2.2833    2.2266 H   0  0  0  0  0  0  0  0  0  0  0  0
    3.4849   -0.0125   -0.8334 H   0  0  0  0  0  0  0  0  0  0  0  0
    0.1717    4.1793    2.1181 H   0  0  0  0  0  0  0  0  0  0  0  0
    4.0696   -2.1773   -0.5886 H   0  0  0  0  0  0  0  0  0  0  0  0
    4.7703   -3.1832    1.6171 H   0  0  0  0  0  0  0  0  0  0  0  0
    6.6635   -1.7528    2.2048 H   0  0  0  0  0  0  0  0  0  0  0  0
    0.0118    3.7929   -3.3176 H   0  0  0  0  0  0  0  0  0  0  0  0
    8.1150   -2.8038   -0.2725 H   0  0  0  0  0  0  0  0  0  0  0  0
   -6.0597   -0.6550    1.4681 H   0  0  0  0  0  0  0  0  0  0  0  0
    6.9053   -0.0089    0.2054 H   0  0  0  0  0  0  0  0  0  0  0  0
   -3.8780    3.8529    0.3888 H   0  0  0  0  0  0  0  0  0  0  0  0
    1.9742   -0.7502    1.7849 H   0  0  0  0  0  0  0  0  0  0  0  0
    7.4446    0.3233   -2.1939 H   0  0  0  0  0  0  0  0  0  0  0  0
    8.2323   -1.2457   -2.2514 H   0  0  0  0  0  0  0  0  0  0  0  0
    8.9106    0.0494   -1.2358 H   0  0  0  0  0  0  0  0  0  0  0  0
    4.7921    2.3953   -3.2533 H   0  0  0  0  0  0  0  0  0  0  0  0
    6.7919   -3.9901    2.8889 H   0  0  0  0  0  0  0  0  0  0  0  0
    8.2870   -3.4023    2.5936 H   0  0  0  0  0  0  0  0  0  0  0  0
   -6.9995    1.7727   -0.1593 H   0  0  0  0  0  0  0  0  0  0  0  0
    6.1465   -3.8087   -0.7939 H   0  0  0  0  0  0  0  0  0  0  0  0
    1.3696   -1.0608   -1.2080 H   0  0  0  0  0  0  0  0  0  0  0  0
    9.6277   -1.3147    0.3283 H   0  0  0  0  0  0  0  0  0  0  0  0
   -0.2174   -1.7690    1.3750 H   0  0  0  0  0  0  0  0  0  0  0  0
   -0.8390   -2.0247   -1.6252 H   0  0  0  0  0  0  0  0  0  0  0  0
   -7.8684   -2.3026   -2.2331 H   0  0  0  0  0  0  0  0  0  0  0  0
   -7.3930   -4.6769   -1.4696 H   0  0  0  0  0  0  0  0  0  0  0  0
   -7.0196   -4.0584    0.1429 H   0  0  0  0  0  0  0  0  0  0  0  0
   -2.4703   -2.6323    0.9544 H   0  0  0  0  0  0  0  0  0  0  0  0
   -9.7669   -3.7099   -1.3727 H   0  0  0  0  0  0  0  0  0  0  0  0
   -9.9890   -1.9988   -0.9487 H   0  0  0  0  0  0  0  0  0  0  0  0
   -9.4377   -3.1300    0.2777 H   0  0  0  0  0  0  0  0  0  0  0  0
   -5.4563   -3.4427   -2.4565 H   0  0  0  0  0  0  0  0  0  0  0  0
   -3.1086   -2.8377   -2.0464 H   0  0  0  0  0  0  0  0  0  0  0  0
   -4.7707   -3.3509    0.5354 H   0  0  0  0  0  0  0  0  0  0  0  0
  1 15  1  0  0  0  0
  1 16  1  0  0  0  0
  2 22  1  0  0  0  0
  2 25  1  0  0  0  0
  3 15  1  0  0  0  0
  3 63  1  0  0  0  0
  4 19  1  0  0  0  0
  4 67  1  0  0  0  0
  5 26  1  0  0  0  0
  5 28  1  0  0  0  0
  6 21  1  0  0  0  0
  6 71  1  0  0  0  0
  7 28  1  0  0  0  0
  7 33  1  0  0  0  0
  8 27  1  0  0  0  0
  8 76  1  0  0  0  0
  9 27  2  0  0  0  0
 10 29  1  0  0  0  0
 10 80  1  0  0  0  0
 11 31  1  0  0  0  0
 11 82  1  0  0  0  0
 12 38  1  0  0  0  0
 12 41  1  0  0  0  0
 13 38  2  0  0  0  0
 14 30  1  0  0  0  0
 14 77  1  0  0  0  0
 14 78  1  0  0  0  0
 15 18  1  0  0  0  0
 15 20  1  0  0  0  0
 16 17  1  0  0  0  0
 16 24  1  0  0  0  0
 16 48  1  0  0  0  0
 17 19  1  0  0  0  0
 17 27  1  0  0  0  0
 17 49  1  0  0  0  0
 18 19  1  0  0  0  0
 18 50  1  0  0  0  0
 18 51  1  0  0  0  0
 19 52  1  0  0  0  0
 20 21  1  0  0  0  0
 20 53  1  0  0  0  0
 20 54  1  0  0  0  0
 21 23  1  0  0  0  0
 21 55  1  0  0  0  0
 22 23  1  0  0  0  0
 22 25  1  0  0  0  0
 22 56  1  0  0  0  0
 23 57  1  0  0  0  0
 23 58  1  0  0  0  0
 24 26  1  0  0  0  0
 24 59  1  0  0  0  0
 24 60  1  0  0  0  0
 25 32  1  0  0  0  0
 25 61  1  0  0  0  0
 26 34  1  0  0  0  0
 26 62  1  0  0  0  0
 28 29  1  0  0  0  0
 28 64  1  0  0  0  0
 29 30  1  0  0  0  0
 29 65  1  0  0  0  0
 30 31  1  0  0  0  0
 30 66  1  0  0  0  0
 31 33  1  0  0  0  0
 31 68  1  0  0  0  0
 32 36  2  0  0  0  0
 32 69  1  0  0  0  0
 33 35  1  0  0  0  0
 33 70  1  0  0  0  0
 34 37  2  0  0  0  0
 34 72  1  0  0  0  0
 35 73  1  0  0  0  0
 35 74  1  0  0  0  0
 35 75  1  0  0  0  0
 36 38  1  0  0  0  0
 36 79  1  0  0  0  0
 37 39  1  0  0  0  0
 37 81  1  0  0  0  0
 39 40  2  0  0  0  0
 39 83  1  0  0  0  0
 40 43  1  0  0  0  0
 40 84  1  0  0  0  0
 41 42  1  0  0  0  0
 41 44  1  0  0  0  0
 41 85  1  0  0  0  0
 42 45  1  0  0  0  0
 42 86  1  0  0  0  0
 42 87  1  0  0  0  0
 43 46  2  0  0  0  0
 43 88  1  0  0  0  0
 44 89  1  0  0  0  0
 44 90  1  0  0  0  0
 44 91  1  0  0  0  0
 45 47  2  0  0  0  0
 45 92  1  0  0  0  0
 46 47  1  0  0  0  0
 46 93  1  0  0  0  0
 47 94  1  0  0  0  0
M  END
> <PUBCHEM_COMPOUND_CID>
5281099

> <PUBCHEM_CONFORMER_RMSD>
1

> <PUBCHEM_CONFORMER_DIVERSEORDER>
1
7
6
3
8
10
9
4
5
2

> <PUBCHEM_MMFF94_PARTIAL_CHARGES>
62
1 -0.56
10 -0.68
11 -0.68
12 -0.43
13 -0.57
14 -0.99
15 0.56
16 0.28
17 0.06
19 0.28
2 -0.3
21 0.28
22 -0.05
23 0.09
25 0.09
26 0.42
27 0.66
28 0.56
29 0.28
3 -0.68
30 0.27
31 0.28
32 -0.19
33 0.28
34 -0.29
36 -0.14
37 -0.15
38 0.71
39 -0.15
4 -0.68
40 -0.15
41 0.28
42 0.14
43 -0.15
45 -0.29
46 -0.15
47 -0.15
5 -0.56
56 0.1
6 -0.68
61 0.1
63 0.4
67 0.4
69 0.15
7 -0.56
71 0.4
72 0.15
76 0.5
77 0.36
78 0.36
79 0.15
8 -0.65
80 0.4
81 0.15
82 0.4
83 0.15
84 0.15
88 0.15
9 -0.57
92 0.15
93 0.15
94 0.15

> <PUBCHEM_EFFECTIVE_ROTOR_COUNT>
6.8

> <PUBCHEM_PHARMACOPHORE_FEATURES>
22
1 1 acceptor
1 10 acceptor
1 10 donor
1 11 acceptor
1 11 donor
1 13 acceptor
1 14 cation
1 14 donor
1 2 acceptor
1 3 acceptor
1 3 donor
1 4 acceptor
1 4 donor
1 5 acceptor
1 6 acceptor
1 6 donor
1 7 acceptor
1 8 acceptor
1 9 acceptor
3 8 9 27 anion
6 1 15 16 17 18 19 rings
6 7 28 29 30 31 33 rings

> <PUBCHEM_HEAVY_ATOM_COUNT>
47

> <PUBCHEM_ATOM_DEF_STEREO_COUNT>
13

> <PUBCHEM_ATOM_UDEF_STEREO_COUNT>
1

> <PUBCHEM_BOND_DEF_STEREO_COUNT>
5

> <PUBCHEM_BOND_UDEF_STEREO_COUNT>
0

> <PUBCHEM_ISOTOPIC_ATOM_COUNT>
0

> <PUBCHEM_COMPONENT_COUNT>
1

> <PUBCHEM_CACTVS_TAUTO_COUNT>
1

> <PUBCHEM_CONFORMER_ID>
0050954B00000001

> <PUBCHEM_MMFF94_ENERGY>
94.9564

> <PUBCHEM_FEATURE_SELFOVERLAP>
111.776

> <PUBCHEM_SHAPE_FINGERPRINT>
10079526 769 18272358763875646462
10677394 325 18200581494127268636
12758862 65 16226052150615990625
13347071 3 18186804686493398311
14017579 151 16732990804454940839
14068700 675 18335139795379172713
14400156 266 18188196659587214382
14415361 349 18263909073288911246
15406563 228 18413673513722944181
15807756 48 18270678668061122899
21792965 169 18200300157117493134
21814621 53 14418955428112127929
4144715 1 18056760919360169683
4440575 13 18336547114306591166
45377200 153 18041266777747910950
9511036 111 18334577962038263395

> <PUBCHEM_SHAPE_MULTIPOLES>
885.96
26.14
6.45
2.39
8.17
0.87
-0.08
-30.01
1.57
0.29
0.82
0.39
2.1
-8.3

> <PUBCHEM_SHAPE_SELFOVERLAP>
1818.37

> <PUBCHEM_SHAPE_VOLUME>
503.3

> <PUBCHEM_COORDINATE_TYPE>
2
5
10

$$$$

