5281776
  -OEChem-07051212592D

 58 60  0     1  0  0  0  0  0999 V2000
    4.5981   -1.5950    0.0000 O   0  0  0  0  0  0  0  0  0  0  0  0
    5.4641   -3.0950    0.0000 O   0  0  0  0  0  0  0  0  0  0  0  0
    6.3301   -0.5950    0.0000 O   0  0  0  0  0  0  0  0  0  0  0  0
    2.8660   -0.5950    0.0000 O   0  0  0  0  0  0  0  0  0  0  0  0
    8.0622   -1.5950    0.0000 O   0  0  0  0  0  0  0  0  0  0  0  0
    8.0622   -3.5950    0.0000 O   0  0  0  0  0  0  0  0  0  0  0  0
    7.1962   -5.0950    0.0000 O   0  0  0  0  0  0  0  0  0  0  0  0
    8.0622   -0.5950    0.0000 O   0  0  0  0  0  0  0  0  0  0  0  0
    8.0622    5.4050    0.0000 O   0  0  0  0  0  0  0  0  0  0  0  0
    3.7320   -2.0950    0.0000 C   0  0  1  0  0  0  0  0  0  0  0  0
    5.4641   -2.0950    0.0000 C   0  0  2  0  0  0  0  0  0  0  0  0
    2.8660   -1.5950    0.0000 C   0  0  2  0  0  0  0  0  0  0  0  0
    6.3301   -1.5950    0.0000 C   0  0  1  0  0  0  0  0  0  0  0  0
    3.7320   -3.0950    0.0000 C   0  0  0  0  0  0  0  0  0  0  0  0
    7.1962   -2.0950    0.0000 C   0  0  2  0  0  0  0  0  0  0  0  0
    7.1962   -3.0950    0.0000 C   0  0  1  0  0  0  0  0  0  0  0  0
    2.0000   -2.0950    0.0000 C   0  0  0  0  0  0  0  0  0  0  0  0
    6.3301   -3.5950    0.0000 C   0  0  1  0  0  0  0  0  0  0  0  0
    2.8660   -3.5950    0.0000 C   0  0  0  0  0  0  0  0  0  0  0  0
    2.0000   -3.0950    0.0000 C   0  0  0  0  0  0  0  0  0  0  0  0
    6.3301   -4.5950    0.0000 C   0  0  0  0  0  0  0  0  0  0  0  0
    7.1962   -0.0950    0.0000 C   0  0  0  0  0  0  0  0  0  0  0  0
    7.1962    0.9050    0.0000 C   0  0  0  0  0  0  0  0  0  0  0  0
    8.0622    1.4050    0.0000 C   0  0  0  0  0  0  0  0  0  0  0  0
    8.0622    2.4050    0.0000 C   0  0  0  0  0  0  0  0  0  0  0  0
    8.9282    2.9050    0.0000 C   0  0  0  0  0  0  0  0  0  0  0  0
    7.1962    2.9050    0.0000 C   0  0  0  0  0  0  0  0  0  0  0  0
    8.9282    3.9050    0.0000 C   0  0  0  0  0  0  0  0  0  0  0  0
    7.1962    3.9050    0.0000 C   0  0  0  0  0  0  0  0  0  0  0  0
    8.0622    4.4050    0.0000 C   0  0  0  0  0  0  0  0  0  0  0  0
    3.7320   -1.4750    0.0000 H   0  0  0  0  0  0  0  0  0  0  0  0
    5.4641   -1.4750    0.0000 H   0  0  0  0  0  0  0  0  0  0  0  0
    3.4030   -1.2850    0.0000 H   0  0  0  0  0  0  0  0  0  0  0  0
    6.8671   -1.2850    0.0000 H   0  0  0  0  0  0  0  0  0  0  0  0
    3.9441   -3.6776    0.0000 H   0  0  0  0  0  0  0  0  0  0  0  0
    4.3426   -2.9873    0.0000 H   0  0  0  0  0  0  0  0  0  0  0  0
    7.7331   -2.4050    0.0000 H   0  0  0  0  0  0  0  0  0  0  0  0
    7.7331   -2.7850    0.0000 H   0  0  0  0  0  0  0  0  0  0  0  0
    1.7880   -1.5124    0.0000 H   0  0  0  0  0  0  0  0  0  0  0  0
    1.3894   -2.2027    0.0000 H   0  0  0  0  0  0  0  0  0  0  0  0
    5.7932   -3.9050    0.0000 H   0  0  0  0  0  0  0  0  0  0  0  0
    2.4675   -4.0700    0.0000 H   0  0  0  0  0  0  0  0  0  0  0  0
    3.2646   -4.0700    0.0000 H   0  0  0  0  0  0  0  0  0  0  0  0
    1.3894   -2.9873    0.0000 H   0  0  0  0  0  0  0  0  0  0  0  0
    1.7880   -3.6776    0.0000 H   0  0  0  0  0  0  0  0  0  0  0  0
    5.7196   -4.4873    0.0000 H   0  0  0  0  0  0  0  0  0  0  0  0
    6.1181   -5.1776    0.0000 H   0  0  0  0  0  0  0  0  0  0  0  0
    2.3291   -0.2850    0.0000 H   0  0  0  0  0  0  0  0  0  0  0  0
    8.5991   -1.9050    0.0000 H   0  0  0  0  0  0  0  0  0  0  0  0
    8.5991   -3.2850    0.0000 H   0  0  0  0  0  0  0  0  0  0  0  0
    7.1962   -5.7150    0.0000 H   0  0  0  0  0  0  0  0  0  0  0  0
    6.6592    1.2150    0.0000 H   0  0  0  0  0  0  0  0  0  0  0  0
    8.5991    1.0950    0.0000 H   0  0  0  0  0  0  0  0  0  0  0  0
    9.4651    2.5950    0.0000 H   0  0  0  0  0  0  0  0  0  0  0  0
    6.6592    2.5950    0.0000 H   0  0  0  0  0  0  0  0  0  0  0  0
    9.4651    4.2150    0.0000 H   0  0  0  0  0  0  0  0  0  0  0  0
    6.6592    4.2150    0.0000 H   0  0  0  0  0  0  0  0  0  0  0  0
    8.5991    5.7150    0.0000 H   0  0  0  0  0  0  0  0  0  0  0  0
 10  1  1  6  0  0  0
 11  1  1  1  0  0  0
  2 11  1  0  0  0  0
  2 18  1  0  0  0  0
 13  3  1  6  0  0  0
  3 22  1  0  0  0  0
 12  4  1  6  0  0  0
  4 48  1  0  0  0  0
 15  5  1  1  0  0  0
  5 49  1  0  0  0  0
 16  6  1  6  0  0  0
  6 50  1  0  0  0  0
  7 21  1  0  0  0  0
  7 51  1  0  0  0  0
  8 22  2  0  0  0  0
  9 30  1  0  0  0  0
  9 58  1  0  0  0  0
 10 12  1  0  0  0  0
 10 14  1  0  0  0  0
 10 31  1  0  0  0  0
 11 13  1  0  0  0  0
 11 32  1  0  0  0  0
 12 17  1  0  0  0  0
 12 33  1  0  0  0  0
 13 15  1  0  0  0  0
 13 34  1  0  0  0  0
 14 19  1  0  0  0  0
 14 35  1  0  0  0  0
 14 36  1  0  0  0  0
 15 16  1  0  0  0  0
 15 37  1  0  0  0  0
 16 18  1  0  0  0  0
 16 38  1  0  0  0  0
 17 20  1  0  0  0  0
 17 39  1  0  0  0  0
 17 40  1  0  0  0  0
 18 21  1  1  0  0  0
 18 41  1  0  0  0  0
 19 20  1  0  0  0  0
 19 42  1  0  0  0  0
 19 43  1  0  0  0  0
 20 44  1  0  0  0  0
 20 45  1  0  0  0  0
 21 46  1  0  0  0  0
 21 47  1  0  0  0  0
 22 23  1  0  0  0  0
 23 24  2  0  0  0  0
 23 52  1  0  0  0  0
 24 25  1  0  0  0  0
 24 53  1  0  0  0  0
 25 26  2  0  0  0  0
 25 27  1  0  0  0  0
 26 28  1  0  0  0  0
 26 54  1  0  0  0  0
 27 29  2  0  0  0  0
 27 55  1  0  0  0  0
 28 30  2  0  0  0  0
 28 56  1  0  0  0  0
 29 30  1  0  0  0  0
 29 57  1  0  0  0  0
M  END
> <PUBCHEM_COMPOUND_CID>
5281776

> <PUBCHEM_COMPOUND_CANONICALIZED>
1

> <PUBCHEM_CACTVS_COMPLEXITY>
575

> <PUBCHEM_CACTVS_HBOND_ACCEPTOR>
9

> <PUBCHEM_CACTVS_HBOND_DONOR>
5

> <PUBCHEM_CACTVS_ROTATABLE_BOND>
7

> <PUBCHEM_CACTVS_SUBSKEYS>
AAADceB4PAAAAAAAAAAAAAAAAAAAAAAAAAA0YIAAAAAAAAABAAAAGgAACAAADBSwmAMwDoAABgCIAiDSCAACAAAgIAAIiAAGCMgZNiKCMRKicAAlwBEPuYfA4AwOIAAAAAAAAABAAAAAAACAAAAAAAAAAA==

> <PUBCHEM_IUPAC_OPENEYE_NAME>
[(2R,3R,4S,5S,6R)-4,5-dihydroxy-2-[(1R,2S)-2-hydroxycyclohexoxy]-6-(hydroxymethyl)tetrahydropyran-3-yl] (E)-3-(4-hydroxyphenyl)prop-2-enoate

> <PUBCHEM_IUPAC_CAS_NAME>
(E)-3-(4-hydroxyphenyl)-2-propenoic acid [(2R,3R,4S,5S,6R)-4,5-dihydroxy-2-[(1R,2S)-2-hydroxycyclohexyl]oxy-6-(hydroxymethyl)-3-oxanyl] ester

> <PUBCHEM_IUPAC_NAME>
[(2R,3R,4S,5S,6R)-4,5-dihydroxy-2-[(1R,2S)-2-hydroxycyclohexyl]oxy-6-(hydroxymethyl)oxan-3-yl] (E)-3-(4-hydroxyphenyl)prop-2-enoate

> <PUBCHEM_IUPAC_SYSTEMATIC_NAME>
[(2R,3R,4S,5S,6R)-6-(hydroxymethyl)-4,5-bis(oxidanyl)-2-[(1R,2S)-2-oxidanylcyclohexyl]oxy-oxan-3-yl] (E)-3-(4-hydroxyphenyl)prop-2-enoate

> <PUBCHEM_IUPAC_TRADITIONAL_NAME>
(E)-3-(4-hydroxyphenyl)acrylic acid [(2R,3R,4S,5S,6R)-4,5-dihydroxy-2-[(1R,2S)-2-hydroxycyclohexoxy]-6-methylol-tetrahydropyran-3-yl] ester

> <PUBCHEM_IUPAC_INCHI>
InChI=1S/C21H28O9/c22-11-16-18(26)19(27)20(21(29-16)28-15-4-2-1-3-14(15)24)30-17(25)10-7-12-5-8-13(23)9-6-12/h5-10,14-16,18-24,26-27H,1-4,11H2/b10-7+/t14-,15+,16+,18+,19-,20+,21+/m0/s1

> <PUBCHEM_IUPAC_INCHIKEY>
ZTMPDTJBTNGZJH-QMZLQNRASA-N

> <PUBCHEM_XLOGP3_AA>
0.9

> <PUBCHEM_EXACT_MASS>
424.173332

> <PUBCHEM_MOLECULAR_FORMULA>
C21H28O9

> <PUBCHEM_MOLECULAR_WEIGHT>
424.44162

> <PUBCHEM_OPENEYE_CAN_SMILES>
C1CCC(C(C1)O)OC2C(C(C(C(O2)CO)O)O)OC(=O)C=CC3=CC=C(C=C3)O

> <PUBCHEM_OPENEYE_ISO_SMILES>
C1CC[C@H]([C@H](C1)O)O[C@H]2[C@@H]([C@H]([C@@H]([C@H](O2)CO)O)O)OC(=O)/C=C/C3=CC=C(C=C3)O

> <PUBCHEM_CACTVS_TPSA>
146

> <PUBCHEM_MONOISOTOPIC_WEIGHT>
424.173332

> <PUBCHEM_TOTAL_CHARGE>
0

> <PUBCHEM_HEAVY_ATOM_COUNT>
30

> <PUBCHEM_ATOM_DEF_STEREO_COUNT>
7

> <PUBCHEM_ATOM_UDEF_STEREO_COUNT>
0

> <PUBCHEM_BOND_DEF_STEREO_COUNT>
1

> <PUBCHEM_BOND_UDEF_STEREO_COUNT>
0

> <PUBCHEM_ISOTOPIC_ATOM_COUNT>
0

> <PUBCHEM_COMPONENT_COUNT>
1

> <PUBCHEM_CACTVS_TAUTO_COUNT>
4

> <PUBCHEM_COORDINATE_TYPE>
1
5
255

> <PUBCHEM_BONDANNOTATIONS>
10  1  6
11  1  5
18  21  5
25  26  8
25  27  8
26  28  8
27  29  8
28  30  8
29  30  8
13  3  6
12  4  6
15  5  5
16  6  6

$$$$

