2905
  -OEChem-07051212523D

 46 47  0     1  0  0  0  0  0999 V2000
    2.2917   -1.0492    1.3768 O   0  0  0  0  0  0  0  0  0  0  0  0
   -1.5573   -0.0964   -0.2814 O   0  0  0  0  0  0  0  0  0  0  0  0
   -0.5392   -0.9251    1.6109 O   0  0  0  0  0  0  0  0  0  0  0  0
   -5.2330    0.0767   -0.0322 N   0  0  0  0  0  0  0  0  0  0  0  0
    1.8615   -1.2738    0.0351 C   0  0  0  0  0  0  0  0  0  0  0  0
    3.0777   -1.2262   -0.8862 C   0  0  0  0  0  0  0  0  0  0  0  0
    1.3843   -2.7162   -0.1186 C   0  0  0  0  0  0  0  0  0  0  0  0
    3.7584   -2.5798   -0.6835 C   0  0  0  0  0  0  0  0  0  0  0  0
    2.6749   -3.5319   -0.1753 C   0  0  0  0  0  0  0  0  0  0  0  0
    0.8011   -0.2441   -0.3214 C   0  0  2  0  0  0  0  0  0  0  0  0
    1.2974    1.1881   -0.1612 C   0  0  0  0  0  0  0  0  0  0  0  0
   -0.4825   -0.4793    0.4721 C   0  0  0  0  0  0  0  0  0  0  0  0
    1.9980    1.7688   -1.1972 C   0  0  0  0  0  0  0  0  0  0  0  0
    1.0300    1.8567    1.0146 C   0  0  0  0  0  0  0  0  0  0  0  0
   -2.8357   -0.2432    0.3454 C   0  0  0  0  0  0  0  0  0  0  0  0
    2.4526    3.0794   -1.0504 C   0  0  0  0  0  0  0  0  0  0  0  0
    1.4845    3.1673    1.1614 C   0  0  0  0  0  0  0  0  0  0  0  0
    2.1958    3.7785    0.1289 C   0  0  0  0  0  0  0  0  0  0  0  0
   -3.9110    0.2245   -0.6224 C   0  0  0  0  0  0  0  0  0  0  0  0
   -6.2687    0.5431   -0.9572 C   0  0  0  0  0  0  0  0  0  0  0  0
   -5.4804   -1.3180    0.3419 C   0  0  0  0  0  0  0  0  0  0  0  0
    3.7782   -0.4204   -0.6445 H   0  0  0  0  0  0  0  0  0  0  0  0
    2.7790   -1.1360   -1.9375 H   0  0  0  0  0  0  0  0  0  0  0  0
    0.8282   -2.8505   -1.0544 H   0  0  0  0  0  0  0  0  0  0  0  0
    0.7604   -3.0616    0.7115 H   0  0  0  0  0  0  0  0  0  0  0  0
    4.2074   -2.9387   -1.6154 H   0  0  0  0  0  0  0  0  0  0  0  0
    4.5640   -2.5013    0.0556 H   0  0  0  0  0  0  0  0  0  0  0  0
    2.9410   -3.9034    0.8212 H   0  0  0  0  0  0  0  0  0  0  0  0
    2.5634   -4.4043   -0.8274 H   0  0  0  0  0  0  0  0  0  0  0  0
    0.5257   -0.3942   -1.3769 H   0  0  0  0  0  0  0  0  0  0  0  0
    2.9692   -1.7025    1.6151 H   0  0  0  0  0  0  0  0  0  0  0  0
    2.1922    1.2412   -2.1255 H   0  0  0  0  0  0  0  0  0  0  0  0
    0.4977    1.4101    1.8467 H   0  0  0  0  0  0  0  0  0  0  0  0
   -2.9409   -1.3028    0.5969 H   0  0  0  0  0  0  0  0  0  0  0  0
   -2.8586    0.3552    1.2643 H   0  0  0  0  0  0  0  0  0  0  0  0
    3.0039    3.5565   -1.8554 H   0  0  0  0  0  0  0  0  0  0  0  0
    1.2885    3.7108    2.0811 H   0  0  0  0  0  0  0  0  0  0  0  0
    2.5500    4.7988    0.2433 H   0  0  0  0  0  0  0  0  0  0  0  0
   -3.8205   -0.3286   -1.5672 H   0  0  0  0  0  0  0  0  0  0  0  0
   -3.7197    1.2767   -0.8701 H   0  0  0  0  0  0  0  0  0  0  0  0
   -7.2575    0.4899   -0.4879 H   0  0  0  0  0  0  0  0  0  0  0  0
   -6.1041    1.5941   -1.2200 H   0  0  0  0  0  0  0  0  0  0  0  0
   -6.2919   -0.0448   -1.8820 H   0  0  0  0  0  0  0  0  0  0  0  0
   -6.5298   -1.4540    0.6316 H   0  0  0  0  0  0  0  0  0  0  0  0
   -5.2707   -2.0157   -0.4771 H   0  0  0  0  0  0  0  0  0  0  0  0
   -4.9074   -1.6112    1.2268 H   0  0  0  0  0  0  0  0  0  0  0  0
  1  5  1  0  0  0  0
  1 31  1  0  0  0  0
  2 12  1  0  0  0  0
  2 15  1  0  0  0  0
  3 12  2  0  0  0  0
  4 19  1  0  0  0  0
  4 20  1  0  0  0  0
  4 21  1  0  0  0  0
  5  6  1  0  0  0  0
  5  7  1  0  0  0  0
  5 10  1  0  0  0  0
  6  8  1  0  0  0  0
  6 22  1  0  0  0  0
  6 23  1  0  0  0  0
  7  9  1  0  0  0  0
  7 24  1  0  0  0  0
  7 25  1  0  0  0  0
  8  9  1  0  0  0  0
  8 26  1  0  0  0  0
  8 27  1  0  0  0  0
  9 28  1  0  0  0  0
  9 29  1  0  0  0  0
 10 11  1  0  0  0  0
 10 12  1  0  0  0  0
 10 30  1  0  0  0  0
 11 13  2  0  0  0  0
 11 14  1  0  0  0  0
 13 16  1  0  0  0  0
 13 32  1  0  0  0  0
 14 17  2  0  0  0  0
 14 33  1  0  0  0  0
 15 19  1  0  0  0  0
 15 34  1  0  0  0  0
 15 35  1  0  0  0  0
 16 18  2  0  0  0  0
 16 36  1  0  0  0  0
 17 18  1  0  0  0  0
 17 37  1  0  0  0  0
 18 38  1  0  0  0  0
 19 39  1  0  0  0  0
 19 40  1  0  0  0  0
 20 41  1  0  0  0  0
 20 42  1  0  0  0  0
 20 43  1  0  0  0  0
 21 44  1  0  0  0  0
 21 45  1  0  0  0  0
 21 46  1  0  0  0  0
M  END
> <PUBCHEM_COMPOUND_CID>
2905

> <PUBCHEM_CONFORMER_RMSD>
0.8

> <PUBCHEM_CONFORMER_DIVERSEORDER>
1
40
48
131
123
6
44
135
107
151
2
124
52
100
125
31
96
114
136
105
15
158
144
152
133
157
73
33
47
122
77
116
154
41
121
43
12
113
112
92
99
13
115
68
108
134
139
7
46
34
85
106
109
80
101
60
55
120
10
45
78
36
87
75
146
79
104
24
4
26
28
39
149
148
58
137
160
156
38
64
111
35
126
88
86
130
72
11
145
93
51
18
150
97
8
59
159
102
50
143
117
3
62
76
95
153
29
140
61
142
16
138
9
69
54
17
53
5
81
91
127
132
119
128
57
118
63
84
25
129
56
19
32
74
30
71
147
27
20
82
90
66
21
37
89
14
23
70
110
42
155
65
161
22
141
67
103
49
83
98
94

> <PUBCHEM_MMFF94_PARTIAL_CHARGES>
23
1 -0.68
10 0.2
11 -0.14
12 0.66
13 -0.15
14 -0.15
15 0.28
16 -0.15
17 -0.15
18 -0.15
19 0.27
2 -0.43
20 0.27
21 0.27
3 -0.57
31 0.4
32 0.15
33 0.15
36 0.15
37 0.15
38 0.15
4 -0.81
5 0.28

> <PUBCHEM_EFFECTIVE_ROTOR_COUNT>
8

> <PUBCHEM_PHARMACOPHORE_FEATURES>
6
1 1 acceptor
1 1 donor
1 3 acceptor
1 4 cation
5 5 6 7 8 9 rings
6 11 13 14 16 17 18 rings

> <PUBCHEM_HEAVY_ATOM_COUNT>
21

> <PUBCHEM_ATOM_DEF_STEREO_COUNT>
0

> <PUBCHEM_ATOM_UDEF_STEREO_COUNT>
1

> <PUBCHEM_BOND_DEF_STEREO_COUNT>
0

> <PUBCHEM_BOND_UDEF_STEREO_COUNT>
0

> <PUBCHEM_ISOTOPIC_ATOM_COUNT>
0

> <PUBCHEM_COMPONENT_COUNT>
1

> <PUBCHEM_CACTVS_TAUTO_COUNT>
1

> <PUBCHEM_CONFORMER_ID>
00000B5900000001

> <PUBCHEM_MMFF94_ENERGY>
57.4051

> <PUBCHEM_FEATURE_SELFOVERLAP>
30.449

> <PUBCHEM_SHAPE_FINGERPRINT>
10693767 8 18113606907445158838
11045515 52 18125995211796352756
11265709 11 18192425488344095726
11405975 8 18410854378798697259
11475781 23 17058680429595622895
12617007 42 18335698398815147422
12730499 353 18194951960169740267
13004483 165 18048888677744636686
13009979 54 17677597838786655251
13134695 92 18335426814979216940
13294875 104 17970068842588284176
13533116 47 18408319965894838667
13590594 115 18195234753501743433
13681431 1 18411974802078944456
13878862 14 18268733709169266845
13911987 19 18126255685127350286
13955234 65 18336825299665466043
14170010 4 18409172103541833417
14178000 15 18335701701571216208
14955137 171 18408609141336435250
15502722 9 18337951186660961137
16988056 13 18343310296456150893
17134986 127 18122903123206664564
17539 30 17617939574919735294
17844677 252 18410287035162342677
17868525 174 18266463294561021177
1813 80 17969213619603805702
18785283 64 18342460279287934596
18915476 22 18195789813462520491
20369508 70 18411419539916802311
20388580 30 18335699498200096575
20645477 70 18341613694453502287
21304303 282 17031940121190566660
21478907 32 17762899170392919511
221357 26 18270685402126407021
221490 88 18341040840311226067
22289505 5 18269842067664099159
2255824 54 18408040697566155615
23419403 2 17628956488504805612
23526113 38 18059284478306197194
23559900 14 18410299125131518163
238 59 18265881489120369633
283562 15 17908981351081236370
312423 11 18114731699376727057
46194498 28 18201438095125933591
495365 180 18337676295711145697
5281201 14 18412546535514877341
5895379 119 17242434230769109417
6025842 7 18337391539706377719
633830 44 18201449069252833311
6442390 28 17906167348199907221
6443956 14 18337391646679620238
7164475 11 17763456619062979534
7364860 26 18409448063986147332
7471813 234 18114465659985093633
77188 2 18265052621015574788
81228 2 17837481222301646898
84936 182 18189610557914270777
9841814 1 18201165441642920091
9971528 1 18261681479398865139
9981440 41 17977392629052447945

> <PUBCHEM_SHAPE_MULTIPOLES>
409.58
9.43
4.38
1.17
23.95
1.58
-0.15
-2.48
2.57
-7.23
0.02
-0.28
0.36
0.56

> <PUBCHEM_SHAPE_SELFOVERLAP>
848.773

> <PUBCHEM_SHAPE_VOLUME>
235.6

> <PUBCHEM_COORDINATE_TYPE>
2
5
10

$$$$

