8023
  -OEChem-06261202333D

 13 12  0     0  0  0  0  0  0999 V2000
    0.0129   -0.3410   -0.1819 O   0  0  0  0  0  0  0  0  0  0  0  0
    1.1090    0.5191    0.0910 C   0  0  0  0  0  0  0  0  0  0  0  0
    2.3886   -0.2892    0.0635 C   0  0  0  0  0  0  0  0  0  0  0  0
   -1.1689    0.3237   -0.1586 C   0  0  0  0  0  0  0  0  0  0  0  0
   -2.3416   -0.2126    0.1860 C   0  0  0  0  0  0  0  0  0  0  0  0
    1.1711    1.3098   -0.6673 H   0  0  0  0  0  0  0  0  0  0  0  0
    0.9899    0.9802    1.0793 H   0  0  0  0  0  0  0  0  0  0  0  0
    3.2559    0.3441    0.2702 H   0  0  0  0  0  0  0  0  0  0  0  0
    2.3533   -1.0927    0.8065 H   0  0  0  0  0  0  0  0  0  0  0  0
    2.5238   -0.7650   -0.9134 H   0  0  0  0  0  0  0  0  0  0  0  0
   -1.1036    1.3595   -0.4651 H   0  0  0  0  0  0  0  0  0  0  0  0
   -3.2469    0.3838    0.1721 H   0  0  0  0  0  0  0  0  0  0  0  0
   -2.4142   -1.2519    0.4866 H   0  0  0  0  0  0  0  0  0  0  0  0
  1  2  1  0  0  0  0
  1  4  1  0  0  0  0
  2  3  1  0  0  0  0
  2  6  1  0  0  0  0
  2  7  1  0  0  0  0
  3  8  1  0  0  0  0
  3  9  1  0  0  0  0
  3 10  1  0  0  0  0
  4  5  2  0  0  0  0
  4 11  1  0  0  0  0
  5 12  1  0  0  0  0
  5 13  1  0  0  0  0
M  END
> <PUBCHEM_COMPOUND_CID>
8023

> <PUBCHEM_CONFORMER_RMSD>
0.4

> <PUBCHEM_CONFORMER_DIVERSEORDER>
1
6
3
5
2
4

> <PUBCHEM_MMFF94_PARTIAL_CHARGES>
7
1 -0.36
11 0.15
12 0.15
13 0.15
2 0.28
4 -0.07
5 -0.3

> <PUBCHEM_EFFECTIVE_ROTOR_COUNT>
2

> <PUBCHEM_PHARMACOPHORE_FEATURES>
1
1 1 acceptor

> <PUBCHEM_HEAVY_ATOM_COUNT>
5

> <PUBCHEM_ATOM_DEF_STEREO_COUNT>
0

> <PUBCHEM_ATOM_UDEF_STEREO_COUNT>
0

> <PUBCHEM_BOND_DEF_STEREO_COUNT>
0

> <PUBCHEM_BOND_UDEF_STEREO_COUNT>
0

> <PUBCHEM_ISOTOPIC_ATOM_COUNT>
0

> <PUBCHEM_COMPONENT_COUNT>
1

> <PUBCHEM_CACTVS_TAUTO_COUNT>
1

> <PUBCHEM_CONFORMER_ID>
00001F5700000001

> <PUBCHEM_MMFF94_ENERGY>
7.6579

> <PUBCHEM_FEATURE_SELFOVERLAP>
5.074

> <PUBCHEM_SHAPE_FINGERPRINT>
139733 1 7637400735170602476
14390081 3 9511457814400906238
16714656 1 16343701040816309163
20096714 4 17967535623167881928
29004967 10 18411417323681678234
5460574 1 9223232948760475684

> <PUBCHEM_SHAPE_MULTIPOLES>
97.03
3.52
0.72
0.62
0.12
0.04
0.01
-0.43
0.23
0.05
0
-0.02
0.01
0.04

> <PUBCHEM_SHAPE_SELFOVERLAP>
164.941

> <PUBCHEM_SHAPE_VOLUME>
66

> <PUBCHEM_COORDINATE_TYPE>
2
5
10

$$$$

