586263
  -OEChem-06241222462D

 65 65  0     0  0  0  0  0  0999 V2000
    2.8090   -1.5945    0.0000 N   0  0  0  0  0  0  0  0  0  0  0  0
    3.3090   -0.0556    0.0000 N   0  0  0  0  0  0  0  0  0  0  0  0
    2.0000   -1.0067    0.0000 C   0  0  0  0  0  0  0  0  0  0  0  0
    3.6180   -1.0067    0.0000 C   0  0  0  0  0  0  0  0  0  0  0  0
    2.3090   -0.0556    0.0000 C   0  0  0  0  0  0  0  0  0  0  0  0
    4.5691   -1.3157    0.0000 C   0  0  0  0  0  0  0  0  0  0  0  0
    5.3122   -0.6466    0.0000 C   0  0  0  0  0  0  0  0  0  0  0  0
    2.8090   -2.5945    0.0000 C   0  0  0  0  0  0  0  0  0  0  0  0
    6.2633   -0.9556    0.0000 C   0  0  0  0  0  0  0  0  0  0  0  0
    7.0064   -0.2864    0.0000 C   0  0  0  0  0  0  0  0  0  0  0  0
    7.9575   -0.5955    0.0000 C   0  0  0  0  0  0  0  0  0  0  0  0
    8.7006    0.0737    0.0000 C   0  0  0  0  0  0  0  0  0  0  0  0
    9.6517   -0.2354    0.0000 C   0  0  0  0  0  0  0  0  0  0  0  0
   10.3948    0.4338    0.0000 C   0  0  0  0  0  0  0  0  0  0  0  0
   11.3459    0.1248    0.0000 C   0  0  0  0  0  0  0  0  0  0  0  0
   13.0401    0.4849    0.0000 C   0  0  0  0  0  0  0  0  0  0  0  0
   12.0890    0.7939    0.0000 C   0  0  0  0  0  0  0  0  0  0  0  0
   15.4774    1.5141    0.0000 C   0  0  0  0  0  0  0  0  0  0  0  0
   13.7832    1.1540    0.0000 C   0  0  0  0  0  0  0  0  0  0  0  0
   14.7343    0.8450    0.0000 C   0  0  0  0  0  0  0  0  0  0  0  0
   18.1227    1.5652    0.0000 C   0  0  0  0  0  0  0  0  0  0  0  0
   16.4285    1.2051    0.0000 C   0  0  0  0  0  0  0  0  0  0  0  0
   17.1716    1.8742    0.0000 C   0  0  0  0  0  0  0  0  0  0  0  0
   18.8658    2.2343    0.0000 C   0  0  0  0  0  0  0  0  0  0  0  0
   20.5600    2.5945    0.0000 C   0  0  0  0  0  0  0  0  0  0  0  0
   19.8169    1.9253    0.0000 C   0  0  0  0  0  0  0  0  0  0  0  0
   21.5111    2.2854    0.0000 C   0  0  0  0  0  0  0  0  0  0  0  0
    1.4336   -0.7545    0.0000 H   0  0  0  0  0  0  0  0  0  0  0  0
    1.6900   -1.5436    0.0000 H   0  0  0  0  0  0  0  0  0  0  0  0
    2.3738    0.5610    0.0000 H   0  0  0  0  0  0  0  0  0  0  0  0
    1.7026    0.0733    0.0000 H   0  0  0  0  0  0  0  0  0  0  0  0
    4.2780   -1.8631    0.0000 H   0  0  0  0  0  0  0  0  0  0  0  0
    5.0577   -1.6974    0.0000 H   0  0  0  0  0  0  0  0  0  0  0  0
    5.6033   -0.0991    0.0000 H   0  0  0  0  0  0  0  0  0  0  0  0
    4.8237   -0.2649    0.0000 H   0  0  0  0  0  0  0  0  0  0  0  0
    2.1890   -2.5945    0.0000 H   0  0  0  0  0  0  0  0  0  0  0  0
    2.8090   -3.2145    0.0000 H   0  0  0  0  0  0  0  0  0  0  0  0
    3.4290   -2.5945    0.0000 H   0  0  0  0  0  0  0  0  0  0  0  0
    6.3922   -1.5620    0.0000 H   0  0  0  0  0  0  0  0  0  0  0  0
    6.8775    0.3200    0.0000 H   0  0  0  0  0  0  0  0  0  0  0  0
    7.6664   -1.1429    0.0000 H   0  0  0  0  0  0  0  0  0  0  0  0
    8.4461   -0.9772    0.0000 H   0  0  0  0  0  0  0  0  0  0  0  0
    8.5717    0.6801    0.0000 H   0  0  0  0  0  0  0  0  0  0  0  0
    9.7806   -0.8418    0.0000 H   0  0  0  0  0  0  0  0  0  0  0  0
   10.6859    0.9812    0.0000 H   0  0  0  0  0  0  0  0  0  0  0  0
    9.9063    0.8155    0.0000 H   0  0  0  0  0  0  0  0  0  0  0  0
   11.4748   -0.4817    0.0000 H   0  0  0  0  0  0  0  0  0  0  0  0
   12.7490   -0.0626    0.0000 H   0  0  0  0  0  0  0  0  0  0  0  0
   13.5287    0.1032    0.0000 H   0  0  0  0  0  0  0  0  0  0  0  0
   11.9601    1.4003    0.0000 H   0  0  0  0  0  0  0  0  0  0  0  0
   15.7685    2.0615    0.0000 H   0  0  0  0  0  0  0  0  0  0  0  0
   14.9889    1.8958    0.0000 H   0  0  0  0  0  0  0  0  0  0  0  0
   13.6543    1.7605    0.0000 H   0  0  0  0  0  0  0  0  0  0  0  0
   14.8632    0.2385    0.0000 H   0  0  0  0  0  0  0  0  0  0  0  0
   17.8316    1.0178    0.0000 H   0  0  0  0  0  0  0  0  0  0  0  0
   18.6113    1.1835    0.0000 H   0  0  0  0  0  0  0  0  0  0  0  0
   16.5574    0.5987    0.0000 H   0  0  0  0  0  0  0  0  0  0  0  0
   17.0427    2.4807    0.0000 H   0  0  0  0  0  0  0  0  0  0  0  0
   18.7369    2.8408    0.0000 H   0  0  0  0  0  0  0  0  0  0  0  0
   20.8511    3.1419    0.0000 H   0  0  0  0  0  0  0  0  0  0  0  0
   20.0715    2.9762    0.0000 H   0  0  0  0  0  0  0  0  0  0  0  0
   19.9458    1.3189    0.0000 H   0  0  0  0  0  0  0  0  0  0  0  0
   21.3195    1.6958    0.0000 H   0  0  0  0  0  0  0  0  0  0  0  0
   22.1008    2.0939    0.0000 H   0  0  0  0  0  0  0  0  0  0  0  0
   21.7027    2.8751    0.0000 H   0  0  0  0  0  0  0  0  0  0  0  0
  1  3  1  0  0  0  0
  1  4  1  0  0  0  0
  1  8  1  0  0  0  0
  2  4  2  0  0  0  0
  2  5  1  0  0  0  0
  3  5  1  0  0  0  0
  3 28  1  0  0  0  0
  3 29  1  0  0  0  0
  4  6  1  0  0  0  0
  5 30  1  0  0  0  0
  5 31  1  0  0  0  0
  6  7  1  0  0  0  0
  6 32  1  0  0  0  0
  6 33  1  0  0  0  0
  7  9  1  0  0  0  0
  7 34  1  0  0  0  0
  7 35  1  0  0  0  0
  8 36  1  0  0  0  0
  8 37  1  0  0  0  0
  8 38  1  0  0  0  0
  9 10  2  3  0  0  0
  9 39  1  0  0  0  0
 10 11  1  0  0  0  0
 10 40  1  0  0  0  0
 11 12  1  0  0  0  0
 11 41  1  0  0  0  0
 11 42  1  0  0  0  0
 12 13  2  3  0  0  0
 12 43  1  0  0  0  0
 13 14  1  0  0  0  0
 13 44  1  0  0  0  0
 14 15  1  0  0  0  0
 14 45  1  0  0  0  0
 14 46  1  0  0  0  0
 15 17  2  3  0  0  0
 15 47  1  0  0  0  0
 16 17  1  0  0  0  0
 16 19  1  0  0  0  0
 16 48  1  0  0  0  0
 16 49  1  0  0  0  0
 17 50  1  0  0  0  0
 18 20  1  0  0  0  0
 18 22  1  0  0  0  0
 18 51  1  0  0  0  0
 18 52  1  0  0  0  0
 19 20  2  3  0  0  0
 19 53  1  0  0  0  0
 20 54  1  0  0  0  0
 21 23  1  0  0  0  0
 21 24  1  0  0  0  0
 21 55  1  0  0  0  0
 21 56  1  0  0  0  0
 22 23  2  3  0  0  0
 22 57  1  0  0  0  0
 23 58  1  0  0  0  0
 24 26  2  3  0  0  0
 24 59  1  0  0  0  0
 25 26  1  0  0  0  0
 25 27  1  0  0  0  0
 25 60  1  0  0  0  0
 25 61  1  0  0  0  0
 26 62  1  0  0  0  0
 27 63  1  0  0  0  0
 27 64  1  0  0  0  0
 27 65  1  0  0  0  0
M  END
> <PUBCHEM_COMPOUND_CID>
586263

> <PUBCHEM_COMPOUND_CANONICALIZED>
1

> <PUBCHEM_CACTVS_COMPLEXITY>
559

> <PUBCHEM_CACTVS_HBOND_ACCEPTOR>
1

> <PUBCHEM_CACTVS_HBOND_DONOR>
0

> <PUBCHEM_CACTVS_ROTATABLE_BOND>
14

> <PUBCHEM_CACTVS_SUBSKEYS>
AAADcfB7AAAAAAAAAAAAAAAAAAAAAQAAAAAAAAAAAAAAAAAAAAAAHAAAAAAACADBAAQDAAMAAACgACJiJAAAAAEgAAAJCAA4AAgAQAAAiQAUAAAAgACIAAIAAAAAAAAAAAAAAAAAAAAAAAAAAAAAAAAAAA==

> <PUBCHEM_IUPAC_OPENEYE_NAME>
2-henicosa-3,6,9,12,15,18-hexaenyl-1-methyl-4,5-dihydroimidazole

> <PUBCHEM_IUPAC_CAS_NAME>
2-heneicosa-3,6,9,12,15,18-hexaenyl-1-methyl-4,5-dihydroimidazole

> <PUBCHEM_IUPAC_NAME>
2-henicosa-3,6,9,12,15,18-hexaenyl-1-methyl-4,5-dihydroimidazole

> <PUBCHEM_IUPAC_SYSTEMATIC_NAME>
2-henicosa-3,6,9,12,15,18-hexaenyl-1-methyl-4,5-dihydroimidazole

> <PUBCHEM_IUPAC_TRADITIONAL_NAME>
2-heneicosa-3,6,9,12,15,18-hexaenyl-1-methyl-2-imidazoline

> <PUBCHEM_IUPAC_INCHI>
InChI=1S/C25H38N2/c1-3-4-5-6-7-8-9-10-11-12-13-14-15-16-17-18-19-20-21-22-25-26-23-24-27(25)2/h4-5,7-8,10-11,13-14,16-17,19-20H,3,6,9,12,15,18,21-24H2,1-2H3

> <PUBCHEM_IUPAC_INCHIKEY>
VBHANKCMFRXNHW-UHFFFAOYSA-N

> <PUBCHEM_XLOGP3_AA>
5.8

> <PUBCHEM_EXACT_MASS>
366.303499

> <PUBCHEM_MOLECULAR_FORMULA>
C25H38N2

> <PUBCHEM_MOLECULAR_WEIGHT>
366.58262

> <PUBCHEM_OPENEYE_CAN_SMILES>
CCC=CCC=CCC=CCC=CCC=CCC=CCCC1=NCCN1C

> <PUBCHEM_OPENEYE_ISO_SMILES>
CCC=CCC=CCC=CCC=CCC=CCC=CCCC1=NCCN1C

> <PUBCHEM_CACTVS_TPSA>
15.6

> <PUBCHEM_MONOISOTOPIC_WEIGHT>
366.303499

> <PUBCHEM_TOTAL_CHARGE>
0

> <PUBCHEM_HEAVY_ATOM_COUNT>
27

> <PUBCHEM_ATOM_DEF_STEREO_COUNT>
0

> <PUBCHEM_ATOM_UDEF_STEREO_COUNT>
0

> <PUBCHEM_BOND_DEF_STEREO_COUNT>
0

> <PUBCHEM_BOND_UDEF_STEREO_COUNT>
6

> <PUBCHEM_ISOTOPIC_ATOM_COUNT>
0

> <PUBCHEM_COMPONENT_COUNT>
1

> <PUBCHEM_CACTVS_TAUTO_COUNT>
1

> <PUBCHEM_COORDINATE_TYPE>
1
5
255

> <PUBCHEM_BONDANNOTATIONS>
12  13  1
15  17  1
19  20  1
22  23  1
24  26  1
9  10  1

$$$$

