161234
  -OEChem-07051212503D

 32 33  0     1  0  0  0  0  0999 V2000
    1.4953    0.5217    1.0724 O   0  0  0  0  0  0  0  0  0  0  0  0
    2.0952   -2.2025   -1.1927 O   0  0  0  0  0  0  0  0  0  0  0  0
    4.0423   -0.8772    0.1620 O   0  0  0  0  0  0  0  0  0  0  0  0
    1.7139    3.2562    0.4879 O   0  0  0  0  0  0  0  0  0  0  0  0
   -2.5775    2.2679   -0.3958 O   0  0  0  0  0  0  0  0  0  0  0  0
   -4.5198    1.0882   -0.4410 O   0  0  0  0  0  0  0  0  0  0  0  0
   -0.3039   -0.9594    0.3909 N   0  3  0  0  0  0  0  0  0  0  0  0
    1.8468   -0.8640   -0.8160 C   0  0  2  0  0  0  0  0  0  0  0  0
    3.1148   -0.0724   -0.5663 C   0  0  1  0  0  0  0  0  0  0  0  0
    1.1619   -0.7721    0.5356 C   0  0  1  0  0  0  0  0  0  0  0  0
    2.6230    1.0523    0.3391 C   0  0  1  0  0  0  0  0  0  0  0  0
    2.1591    2.2780   -0.4354 C   0  0  0  0  0  0  0  0  0  0  0  0
   -1.0805    0.1072    0.1277 C   0  0  0  0  0  0  0  0  0  0  0  0
   -0.8247   -2.1927    0.5257 C   0  0  0  0  0  0  0  0  0  0  0  0
   -2.4531   -0.0387   -0.0136 C   0  0  0  0  0  0  0  0  0  0  0  0
   -2.1907   -2.3983    0.3951 C   0  0  0  0  0  0  0  0  0  0  0  0
   -3.0100   -1.3068    0.1225 C   0  0  0  0  0  0  0  0  0  0  0  0
   -3.2922    1.1128   -0.2980 C   0  0  0  0  0  0  0  0  0  0  0  0
    1.2484   -0.3859   -1.5996 H   0  0  0  0  0  0  0  0  0  0  0  0
    3.6080    0.2598   -1.4842 H   0  0  0  0  0  0  0  0  0  0  0  0
    1.5186   -1.5279    1.2463 H   0  0  0  0  0  0  0  0  0  0  0  0
    3.3715    1.3443    1.0844 H   0  0  0  0  0  0  0  0  0  0  0  0
    1.3291    2.0534   -1.1119 H   0  0  0  0  0  0  0  0  0  0  0  0
    2.9793    2.7057   -1.0194 H   0  0  0  0  0  0  0  0  0  0  0  0
    2.6675   -2.6039   -0.5168 H   0  0  0  0  0  0  0  0  0  0  0  0
    4.8223   -0.3262    0.3456 H   0  0  0  0  0  0  0  0  0  0  0  0
   -0.5748    1.0568    0.0225 H   0  0  0  0  0  0  0  0  0  0  0  0
   -0.1361   -3.0028    0.7336 H   0  0  0  0  0  0  0  0  0  0  0  0
   -2.6120   -3.3921    0.5023 H   0  0  0  0  0  0  0  0  0  0  0  0
    0.9901    2.8635    1.0054 H   0  0  0  0  0  0  0  0  0  0  0  0
   -4.0802   -1.4644    0.0192 H   0  0  0  0  0  0  0  0  0  0  0  0
   -3.1538    3.0383   -0.5874 H   0  0  0  0  0  0  0  0  0  0  0  0
  1 10  1  0  0  0  0
  1 11  1  0  0  0  0
  2  8  1  0  0  0  0
  2 25  1  0  0  0  0
  3  9  1  0  0  0  0
  3 26  1  0  0  0  0
  4 12  1  0  0  0  0
  4 30  1  0  0  0  0
  5 18  1  0  0  0  0
  5 32  1  0  0  0  0
  6 18  2  0  0  0  0
  7 10  1  0  0  0  0
  7 13  1  0  0  0  0
  7 14  2  0  0  0  0
  8  9  1  0  0  0  0
  8 10  1  0  0  0  0
  8 19  1  0  0  0  0
  9 11  1  0  0  0  0
  9 20  1  0  0  0  0
 10 21  1  0  0  0  0
 11 12  1  0  0  0  0
 11 22  1  0  0  0  0
 12 23  1  0  0  0  0
 12 24  1  0  0  0  0
 13 15  2  0  0  0  0
 13 27  1  0  0  0  0
 14 16  1  0  0  0  0
 14 28  1  0  0  0  0
 15 17  1  0  0  0  0
 15 18  1  0  0  0  0
 16 17  2  0  0  0  0
 16 29  1  0  0  0  0
 17 31  1  0  0  0  0
M  CHG  1   7   1
M  END
> <PUBCHEM_COMPOUND_CID>
161234

> <PUBCHEM_CONFORMER_RMSD>
0.6

> <PUBCHEM_CONFORMER_DIVERSEORDER>
1
27
19
30
37
5
2
24
11
36
21
34
15
3
31
28
7
33
23
14
20
12
29
35
32
10
18
25
16
4
9
22
13
26
38
17
8
6

> <PUBCHEM_MMFF94_PARTIAL_CHARGES>
26
1 -0.56
10 0.77
11 0.28
12 0.28
13 0.21
14 0.21
15 0.09
16 -0.15
17 -0.15
18 0.63
2 -0.68
25 0.4
26 0.4
27 0.15
28 0.15
29 0.15
3 -0.68
30 0.4
31 0.15
32 0.5
4 -0.68
5 -0.65
6 -0.57
7 -0.21
8 0.28
9 0.28

> <PUBCHEM_EFFECTIVE_ROTOR_COUNT>
4

> <PUBCHEM_PHARMACOPHORE_FEATURES>
12
1 1 acceptor
1 2 acceptor
1 2 donor
1 3 acceptor
1 3 donor
1 4 acceptor
1 4 donor
1 5 acceptor
1 6 acceptor
3 5 6 18 anion
5 1 8 9 10 11 rings
6 7 13 14 15 16 17 rings

> <PUBCHEM_HEAVY_ATOM_COUNT>
18

> <PUBCHEM_ATOM_DEF_STEREO_COUNT>
4

> <PUBCHEM_ATOM_UDEF_STEREO_COUNT>
0

> <PUBCHEM_BOND_DEF_STEREO_COUNT>
0

> <PUBCHEM_BOND_UDEF_STEREO_COUNT>
0

> <PUBCHEM_ISOTOPIC_ATOM_COUNT>
0

> <PUBCHEM_COMPONENT_COUNT>
1

> <PUBCHEM_CACTVS_TAUTO_COUNT>
1

> <PUBCHEM_CONFORMER_ID>
000275D200000001

> <PUBCHEM_MMFF94_ENERGY>
54.9302

> <PUBCHEM_FEATURE_SELFOVERLAP>
60.967

> <PUBCHEM_SHAPE_FINGERPRINT>
10608611 8 18338797805976535537
10922523 26 18334292063208178014
10967382 1 18267867357438713579
11615756 256 18340480058946803141
116883 192 18046619286087019086
11715629 250 18120091676163692688
13134695 92 17385730239795213760
13764800 53 18131343112274589955
14250199 8 18335140890806920493
14648413 74 18338514145119927640
15219456 202 18335417920207558650
15375462 6 18050846615805713110
15442244 35 18342461434971591514
15775835 57 17917430964247432827
16945 1 18263346101406751394
17041 50 18335973234067642054
17134986 127 18270407225473381375
18186145 218 18261663865748631115
18219364 16 18270954765068755689
20233049 118 18200593717371953852
20304884 271 18339925913712956521
20361792 2 14923936838771843787
20510252 161 18268144267371799035
20645477 56 18341609330603056351
21501502 16 18339077069050376422
21524375 3 18130227180897332707
21618674 68 18121496852219097831
22802520 49 18409159983260025795
23114952 82 18117252818961224038
23402539 116 18336557109054432062
23557571 272 18268420240099809791
23558518 356 18129098914220767563
23559900 14 18335701685293563466
25 1 18267020738033695767
2748010 2 18121496856244877384
3060560 45 18267031741808428279
3524813 1 18129668620173940325
5939293 188 18411427197996725056
6049 1 18266720437988629411
6333272 397 18342178886448326529
7097593 13 17915769572350645282
7364860 26 18264203609023447400
74978 22 18413110549902743674
7832392 63 18413393137328776768
81228 2 17915170231345234611
93112 12 18410291406431481503
9709674 26 18408880711697100783

> <PUBCHEM_SHAPE_MULTIPOLES>
330.23
6.6
2.94
0.86
1.74
1.09
0.05
1.54
0.79
0.08
0.03
-0.33
-0.14
0.91

> <PUBCHEM_SHAPE_SELFOVERLAP>
700.132

> <PUBCHEM_SHAPE_VOLUME>
185

> <PUBCHEM_COORDINATE_TYPE>
2
5
10

$$$$

