14031
  -OEChem-06241222413D

 24 23  0     0  0  0  0  0  0999 V2000
    0.8438   -0.6693   -0.0233 P   0  0  0  0  0  0  0  0  0  0  0  0
   -1.8268    0.4131    0.6558 P   0  0  0  0  0  0  0  0  0  0  0  0
   -0.3128   -0.0808    0.9437 O   0  0  0  0  0  0  0  0  0  0  0  0
    2.1474   -0.7944    0.9308 O   0  0  0  0  0  0  0  0  0  0  0  0
    1.1980    0.5772   -0.9965 O   0  0  0  0  0  0  0  0  0  0  0  0
   -1.4906    1.6026   -0.3937 O   0  0  0  0  0  0  0  0  0  0  0  0
   -2.2332   -0.7271   -0.4240 O   0  0  0  0  0  0  0  0  0  0  0  0
    0.4817   -1.9388   -0.7405 O   0  0  0  0  0  0  0  0  0  0  0  0
    2.6002    0.3291    1.6668 C   0  0  0  0  0  0  0  0  0  0  0  0
    2.2806    0.4404   -1.9006 C   0  0  0  0  0  0  0  0  0  0  0  0
   -1.0751    2.8367    0.1740 C   0  0  0  0  0  0  0  0  0  0  0  0
   -2.6132   -1.9888    0.1076 C   0  0  0  0  0  0  0  0  0  0  0  0
    1.8398    0.6316    2.3911 H   0  0  0  0  0  0  0  0  0  0  0  0
    2.8273    1.1622    0.9976 H   0  0  0  0  0  0  0  0  0  0  0  0
    3.5095    0.0498    2.2046 H   0  0  0  0  0  0  0  0  0  0  0  0
    2.3838    1.3697   -2.4662 H   0  0  0  0  0  0  0  0  0  0  0  0
    2.0813   -0.3796   -2.5954 H   0  0  0  0  0  0  0  0  0  0  0  0
    3.2094    0.2488   -1.3578 H   0  0  0  0  0  0  0  0  0  0  0  0
   -0.8931    3.5407   -0.6439 H   0  0  0  0  0  0  0  0  0  0  0  0
   -0.1403    2.7246    0.7352 H   0  0  0  0  0  0  0  0  0  0  0  0
   -1.8555    3.2601    0.8165 H   0  0  0  0  0  0  0  0  0  0  0  0
   -1.8299   -2.4218    0.7398 H   0  0  0  0  0  0  0  0  0  0  0  0
   -2.7857   -2.6709   -0.7304 H   0  0  0  0  0  0  0  0  0  0  0  0
   -3.5481   -1.9059    0.6733 H   0  0  0  0  0  0  0  0  0  0  0  0
  1  3  1  0  0  0  0
  1  4  1  0  0  0  0
  1  5  1  0  0  0  0
  1  8  2  0  0  0  0
  2  3  1  0  0  0  0
  2  6  1  0  0  0  0
  2  7  1  0  0  0  0
  4  9  1  0  0  0  0
  5 10  1  0  0  0  0
  6 11  1  0  0  0  0
  7 12  1  0  0  0  0
  9 13  1  0  0  0  0
  9 14  1  0  0  0  0
  9 15  1  0  0  0  0
 10 16  1  0  0  0  0
 10 17  1  0  0  0  0
 10 18  1  0  0  0  0
 11 19  1  0  0  0  0
 11 20  1  0  0  0  0
 11 21  1  0  0  0  0
 12 22  1  0  0  0  0
 12 23  1  0  0  0  0
 12 24  1  0  0  0  0
M  END
> <PUBCHEM_COMPOUND_CID>
14031

> <PUBCHEM_CONFORMER_RMSD>
0.6

> <PUBCHEM_CONFORMER_DIVERSEORDER>
1
27
43
61
10
59
51
52
28
66
24
56
8
4
41
15
63
9
18
22
21
19
47
12
37
48
6
20
57
53
17
46
2
62
13
3
16
73
39
68
45
44
14
67
29
74
70
26
49
31
71
5
11
55
72
25
35
7
50
38
34
33
58
69
32
65
40
42
64
23
60
36
54
30

> <PUBCHEM_MMFF94_PARTIAL_CHARGES>
12
1 1.51
10 0.28
11 0.28
12 0.28
2 0.3
3 -0.37
4 -0.55
5 -0.55
6 -0.38
7 -0.38
8 -0.7
9 0.28

> <PUBCHEM_EFFECTIVE_ROTOR_COUNT>
6

> <PUBCHEM_PHARMACOPHORE_FEATURES>
1
1 8 acceptor

> <PUBCHEM_HEAVY_ATOM_COUNT>
12

> <PUBCHEM_ATOM_DEF_STEREO_COUNT>
0

> <PUBCHEM_ATOM_UDEF_STEREO_COUNT>
0

> <PUBCHEM_BOND_DEF_STEREO_COUNT>
0

> <PUBCHEM_BOND_UDEF_STEREO_COUNT>
0

> <PUBCHEM_ISOTOPIC_ATOM_COUNT>
0

> <PUBCHEM_COMPONENT_COUNT>
1

> <PUBCHEM_CACTVS_TAUTO_COUNT>
1

> <PUBCHEM_CONFORMER_ID>
000036CF00000001

> <PUBCHEM_MMFF94_ENERGY>
16.2489

> <PUBCHEM_FEATURE_SELFOVERLAP>
5.074

> <PUBCHEM_SHAPE_FINGERPRINT>
1 1 17184191085547817553
12423570 1 16387025875096219610
12897270 3 18337654344164775671
13839132 238 17975147739830539928
16945 1 18337387240238353305
20653091 64 16988549234845799528
20711978 78 15719385140156950002
20711985 344 18262221301174917405
21922407 69 17988913483570736587
228727 97 17914872293262700853
23211744 41 17459490925567569322
23419403 2 17265026797705797845
23557571 272 18334017185317032409
5084963 1 18041823074184508846
528862 383 17544760023923799251
81228 2 18335979857070879345

> <PUBCHEM_SHAPE_MULTIPOLES>
219.44
3.82
2.33
1.48
0.16
1.16
-0.09
-0.86
0.28
-1.71
-0.18
1.56
0.11
-0.17

> <PUBCHEM_SHAPE_SELFOVERLAP>
376.739

> <PUBCHEM_SHAPE_VOLUME>
147.7

> <PUBCHEM_COORDINATE_TYPE>
2
5
10

$$$$

