442282
  -OEChem-07051212573D

 35 39  0     1  0  0  0  0  0999 V2000
   -1.8109    2.6870   -0.8816 O   0  0  0  0  0  0  0  0  0  0  0  0
   -3.4782    0.3990    1.6212 O   0  0  0  0  0  0  0  0  0  0  0  0
    2.7145    1.5479    0.4159 O   0  0  0  0  0  0  0  0  0  0  0  0
   -0.0008   -2.3372   -0.3726 O   0  0  0  0  0  0  0  0  0  0  0  0
   -2.0530   -2.6315   -1.3662 O   0  0  0  0  0  0  0  0  0  0  0  0
    4.8302    0.6745    0.3001 O   0  0  0  0  0  0  0  0  0  0  0  0
   -1.9613    1.8497    0.2774 C   0  0  2  0  0  0  0  0  0  0  0  0
   -0.8586    1.6284   -0.7417 C   0  0  2  0  0  0  0  0  0  0  0  0
   -3.1908    0.9418    0.3218 C   0  0  1  0  0  0  0  0  0  0  0  0
   -3.1181   -0.5601    0.6204 C   0  0  1  0  0  0  0  0  0  0  0  0
    0.5494    2.0448   -0.4717 C   0  0  0  0  0  0  0  0  0  0  0  0
    1.3532    1.0590    0.4017 C   0  0  1  0  0  0  0  0  0  0  0  0
   -1.0424    0.6963   -1.8979 C   0  0  0  0  0  0  0  0  0  0  0  0
    1.4044   -0.3860   -0.1263 C   0  0  2  0  0  0  0  0  0  0  0  0
   -1.7976   -1.1762    0.5197 C   0  0  0  0  0  0  0  0  0  0  0  0
    0.5240   -1.4325    0.6162 C   0  0  1  0  0  0  0  0  0  0  0  0
   -0.7057   -0.8984    1.2330 C   0  0  0  0  0  0  0  0  0  0  0  0
    2.8673   -0.6832   -0.0312 C   0  0  0  0  0  0  0  0  0  0  0  0
   -1.3413   -2.1183   -0.5197 C   0  0  0  0  0  0  0  0  0  0  0  0
    3.6198    0.5503    0.2459 C   0  0  0  0  0  0  0  0  0  0  0  0
    3.4961   -1.8553   -0.1643 C   0  0  0  0  0  0  0  0  0  0  0  0
   -1.6751    2.2984    1.2243 H   0  0  0  0  0  0  0  0  0  0  0  0
   -4.0460    1.2748   -0.2587 H   0  0  0  0  0  0  0  0  0  0  0  0
   -3.9266   -1.1760    0.2412 H   0  0  0  0  0  0  0  0  0  0  0  0
    0.5669    3.0264    0.0215 H   0  0  0  0  0  0  0  0  0  0  0  0
    1.0790    2.2068   -1.4203 H   0  0  0  0  0  0  0  0  0  0  0  0
    1.0027    1.1129    1.4377 H   0  0  0  0  0  0  0  0  0  0  0  0
   -0.5142   -0.2429   -1.8625 H   0  0  0  0  0  0  0  0  0  0  0  0
   -2.0982    0.4619   -2.0760 H   0  0  0  0  0  0  0  0  0  0  0  0
   -0.6959    1.1965   -2.8117 H   0  0  0  0  0  0  0  0  0  0  0  0
    1.2370   -0.4096   -1.2050 H   0  0  0  0  0  0  0  0  0  0  0  0
    1.0859   -2.0189    1.3513 H   0  0  0  0  0  0  0  0  0  0  0  0
   -0.6986   -0.2213    2.0766 H   0  0  0  0  0  0  0  0  0  0  0  0
    2.9428   -2.7639   -0.3766 H   0  0  0  0  0  0  0  0  0  0  0  0
    4.5734   -1.9427   -0.0720 H   0  0  0  0  0  0  0  0  0  0  0  0
  1  7  1  0  0  0  0
  1  8  1  0  0  0  0
  2  9  1  0  0  0  0
  2 10  1  0  0  0  0
  3 12  1  0  0  0  0
  3 20  1  0  0  0  0
  4 16  1  0  0  0  0
  4 19  1  0  0  0  0
  5 19  2  0  0  0  0
  6 20  2  0  0  0  0
  7  8  1  0  0  0  0
  7  9  1  0  0  0  0
  7 22  1  0  0  0  0
  8 11  1  0  0  0  0
  8 13  1  0  0  0  0
  9 10  1  0  0  0  0
  9 23  1  0  0  0  0
 10 15  1  0  0  0  0
 10 24  1  0  0  0  0
 11 12  1  0  0  0  0
 11 25  1  0  0  0  0
 11 26  1  0  0  0  0
 12 14  1  0  0  0  0
 12 27  1  0  0  0  0
 13 28  1  0  0  0  0
 13 29  1  0  0  0  0
 13 30  1  0  0  0  0
 14 16  1  0  0  0  0
 14 18  1  0  0  0  0
 14 31  1  0  0  0  0
 15 17  2  0  0  0  0
 15 19  1  0  0  0  0
 16 17  1  0  0  0  0
 16 32  1  0  0  0  0
 17 33  1  0  0  0  0
 18 20  1  0  0  0  0
 18 21  2  0  0  0  0
 21 34  1  0  0  0  0
 21 35  1  0  0  0  0
M  END
> <PUBCHEM_COMPOUND_CID>
442282

> <PUBCHEM_CONFORMER_RMSD>
0.6

> <PUBCHEM_CONFORMER_DIVERSEORDER>
1

> <PUBCHEM_MMFF94_PARTIAL_CHARGES>
27
1 -0.3
10 0.09
11 0.09
12 0.28
13 0.09
14 0.14
15 -0.03
16 0.42
17 -0.29
18 -0.12
19 0.71
2 -0.3
20 0.71
21 -0.3
22 0.1
23 0.1
24 0.1
3 -0.43
33 0.15
34 0.15
35 0.15
4 -0.43
5 -0.57
6 -0.57
7 0.05
8 -0.04
9 0.05

> <PUBCHEM_EFFECTIVE_ROTOR_COUNT>
1

> <PUBCHEM_PHARMACOPHORE_FEATURES>
6
1 1 acceptor
1 2 acceptor
1 5 acceptor
1 6 acceptor
5 3 12 14 18 20 rings
5 4 15 16 17 19 rings

> <PUBCHEM_HEAVY_ATOM_COUNT>
21

> <PUBCHEM_ATOM_DEF_STEREO_COUNT>
7

> <PUBCHEM_ATOM_UDEF_STEREO_COUNT>
0

> <PUBCHEM_BOND_DEF_STEREO_COUNT>
0

> <PUBCHEM_BOND_UDEF_STEREO_COUNT>
0

> <PUBCHEM_ISOTOPIC_ATOM_COUNT>
0

> <PUBCHEM_COMPONENT_COUNT>
1

> <PUBCHEM_CACTVS_TAUTO_COUNT>
1

> <PUBCHEM_CONFORMER_ID>
0006BFAA00000001

> <PUBCHEM_MMFF94_ENERGY>
55.3044

> <PUBCHEM_FEATURE_SELFOVERLAP>
30.446

> <PUBCHEM_SHAPE_FINGERPRINT>
10863032 1 18040997315092509403
10922523 26 18410287038755910922
10948715 1 18121502611828406829
10967382 1 18411417327992502192
11132069 177 18343016713723246377
11578080 2 17242471420489342971
12011746 2 18270397325494753397
12035759 4 18265360394145864407
12403814 3 18413108359712106931
13140716 1 18196927769099950169
13583140 156 15213018224555672394
15196674 1 18340764939779546313
15309172 13 18336823194994308273
15881359 60 17917164796834917037
16945 1 18201424905160002217
17357779 13 18129116545188040583
17492 54 17984174602014956695
18981168 100 18117586039556119922
19591789 44 18267019642653790794
20261772 1 18411129217111964899
20905425 154 17839455936110102355
21501502 16 18265897960726287404
23184049 59 18337659884614623643
2334 1 17908418061154686497
23402539 116 18263371287153328879
23419403 2 17247556602007684997
23559900 14 18192717967897684186
238 59 17049399695587531213
2748010 2 18125158487679343933
3380486 77 17053630281476530146
69090 78 18335703857692031299
6992083 37 18265322920244827155
81228 2 18199197204239068208
8272917 22 17472425821055054917
9862522 239 18198078043083386360

> <PUBCHEM_SHAPE_MULTIPOLES>
396.95
6.03
2.78
1.19
4.81
0.25
0.23
-0.52
-1.34
-0.82
0.77
-0.84
0.07
0.13

> <PUBCHEM_SHAPE_SELFOVERLAP>
879.859

> <PUBCHEM_SHAPE_VOLUME>
212.3

> <PUBCHEM_COORDINATE_TYPE>
2
5
10

$$$$

