7846974
  -OEChem-06241222483D

 53 55  0     1  0  0  0  0  0999 V2000
    0.4234   -3.6279    1.4284 S   0  0  0  0  0  0  0  0  0  0  0  0
   -0.8127    3.9640   -0.5019 O   0  0  0  0  0  0  0  0  0  0  0  0
   -3.2210   -0.2289    0.4735 O   0  0  0  0  0  0  0  0  0  0  0  0
   -3.4083    2.9195   -0.7247 O   0  0  0  0  0  0  0  0  0  0  0  0
   -3.3446   -2.2051   -0.7105 O   0  0  0  0  0  0  0  0  0  0  0  0
    0.7958    2.2980   -0.3077 N   0  0  0  0  0  0  0  0  0  0  0  0
   -1.4244    1.7144   -0.5051 N   0  0  0  0  0  0  0  0  0  0  0  0
    0.0615   -1.3451    0.2839 N   0  0  0  0  0  0  0  0  0  0  0  0
    1.9544    3.1588   -0.2182 C   0  0  0  0  0  0  0  0  0  0  0  0
    2.2251    3.5686    1.2334 C   0  0  0  0  0  0  0  0  0  0  0  0
    3.1842    2.4945   -0.8464 C   0  0  0  0  0  0  0  0  0  0  0  0
    2.7649    2.4133    2.0764 C   0  0  0  0  0  0  0  0  0  0  0  0
    3.7223    1.3408    0.0001 C   0  0  0  0  0  0  0  0  0  0  0  0
    3.9946    1.7759    1.4368 C   0  0  0  0  0  0  0  0  0  0  0  0
   -0.5070    2.7742   -0.4433 C   0  0  0  0  0  0  0  0  0  0  0  0
   -2.8067    1.8512   -0.6409 C   0  0  0  0  0  0  0  0  0  0  0  0
   -3.5169    0.5058   -0.7036 C   0  0  2  0  0  0  0  0  0  0  0  0
   -1.4804   -1.7606    2.2014 C   0  0  0  0  0  0  0  0  0  0  0  0
   -2.8382   -2.2203    1.6685 C   0  0  0  0  0  0  0  0  0  0  0  0
   -5.0239    0.6695   -0.8298 C   0  0  0  0  0  0  0  0  0  0  0  0
   -0.3637   -2.1194    1.2548 C   0  0  0  0  0  0  0  0  0  0  0  0
   -3.1635   -1.5920    0.3325 C   0  0  0  0  0  0  0  0  0  0  0  0
    1.4385   -3.2411    0.0894 C   0  0  0  0  0  0  0  0  0  0  0  0
    1.0953   -1.9748   -0.3937 C   0  0  0  0  0  0  0  0  0  0  0  0
    2.4647   -4.0034   -0.4916 C   0  0  0  0  0  0  0  0  0  0  0  0
    1.8059   -1.4553   -1.4976 C   0  0  0  0  0  0  0  0  0  0  0  0
    3.1521   -3.4660   -1.5828 C   0  0  0  0  0  0  0  0  0  0  0  0
    2.8286   -2.2088   -2.0809 C   0  0  0  0  0  0  0  0  0  0  0  0
    1.7263    4.0665   -0.7906 H   0  0  0  0  0  0  0  0  0  0  0  0
    1.3135    3.9620    1.6991 H   0  0  0  0  0  0  0  0  0  0  0  0
    2.9609    4.3829    1.2413 H   0  0  0  0  0  0  0  0  0  0  0  0
    3.9757    3.2459   -0.9619 H   0  0  0  0  0  0  0  0  0  0  0  0
    2.9456    2.1261   -1.8514 H   0  0  0  0  0  0  0  0  0  0  0  0
    3.0198    2.7784    3.0778 H   0  0  0  0  0  0  0  0  0  0  0  0
    1.9844    1.6534    2.2056 H   0  0  0  0  0  0  0  0  0  0  0  0
    3.0066    0.5155    0.0130 H   0  0  0  0  0  0  0  0  0  0  0  0
    4.6443    0.9548   -0.4492 H   0  0  0  0  0  0  0  0  0  0  0  0
    4.3125    0.9111    2.0300 H   0  0  0  0  0  0  0  0  0  0  0  0
    4.8244    2.4934    1.4486 H   0  0  0  0  0  0  0  0  0  0  0  0
    0.9239    1.2982   -0.1889 H   0  0  0  0  0  0  0  0  0  0  0  0
   -1.0456    0.7727   -0.4471 H   0  0  0  0  0  0  0  0  0  0  0  0
   -3.1298    0.0001   -1.5985 H   0  0  0  0  0  0  0  0  0  0  0  0
   -1.4752   -0.6733    2.3471 H   0  0  0  0  0  0  0  0  0  0  0  0
   -1.3060   -2.2057    3.1883 H   0  0  0  0  0  0  0  0  0  0  0  0
   -2.8561   -3.3093    1.5425 H   0  0  0  0  0  0  0  0  0  0  0  0
   -3.6377   -1.9652    2.3729 H   0  0  0  0  0  0  0  0  0  0  0  0
   -5.2905    1.2518   -1.7175 H   0  0  0  0  0  0  0  0  0  0  0  0
   -5.5181   -0.3055   -0.8944 H   0  0  0  0  0  0  0  0  0  0  0  0
   -5.4377    1.1754    0.0500 H   0  0  0  0  0  0  0  0  0  0  0  0
    2.7227   -4.9857   -0.1080 H   0  0  0  0  0  0  0  0  0  0  0  0
    1.5581   -0.4767   -1.8988 H   0  0  0  0  0  0  0  0  0  0  0  0
    3.9499   -4.0396   -2.0474 H   0  0  0  0  0  0  0  0  0  0  0  0
    3.3736   -1.8071   -2.9308 H   0  0  0  0  0  0  0  0  0  0  0  0
  1 21  1  0  0  0  0
  1 23  1  0  0  0  0
  2 15  2  0  0  0  0
  3 17  1  0  0  0  0
  3 22  1  0  0  0  0
  4 16  2  0  0  0  0
  5 22  2  0  0  0  0
  6  9  1  0  0  0  0
  6 15  1  0  0  0  0
  6 40  1  0  0  0  0
  7 15  1  0  0  0  0
  7 16  1  0  0  0  0
  7 41  1  0  0  0  0
  8 21  2  0  0  0  0
  8 24  1  0  0  0  0
  9 10  1  0  0  0  0
  9 11  1  0  0  0  0
  9 29  1  0  0  0  0
 10 12  1  0  0  0  0
 10 30  1  0  0  0  0
 10 31  1  0  0  0  0
 11 13  1  0  0  0  0
 11 32  1  0  0  0  0
 11 33  1  0  0  0  0
 12 14  1  0  0  0  0
 12 34  1  0  0  0  0
 12 35  1  0  0  0  0
 13 14  1  0  0  0  0
 13 36  1  0  0  0  0
 13 37  1  0  0  0  0
 14 38  1  0  0  0  0
 14 39  1  0  0  0  0
 16 17  1  0  0  0  0
 17 20  1  0  0  0  0
 17 42  1  0  0  0  0
 18 19  1  0  0  0  0
 18 21  1  0  0  0  0
 18 43  1  0  0  0  0
 18 44  1  0  0  0  0
 19 22  1  0  0  0  0
 19 45  1  0  0  0  0
 19 46  1  0  0  0  0
 20 47  1  0  0  0  0
 20 48  1  0  0  0  0
 20 49  1  0  0  0  0
 23 24  1  0  0  0  0
 23 25  2  0  0  0  0
 24 26  2  0  0  0  0
 25 27  1  0  0  0  0
 25 50  1  0  0  0  0
 26 28  1  0  0  0  0
 26 51  1  0  0  0  0
 27 28  2  0  0  0  0
 27 52  1  0  0  0  0
 28 53  1  0  0  0  0
M  END
> <PUBCHEM_COMPOUND_CID>
7846974

> <PUBCHEM_CONFORMER_RMSD>
1.2

> <PUBCHEM_CONFORMER_DIVERSEORDER>
1
112
180
130
136
124
8
111
79
55
186
148
75
103
25
171
110
81
149
98
6
77
57
108
10
153
140
104
114
120
159
155
4
128
106
47
158
30
84
86
127
157
144
44
152
59
67
72
165
63
102
51
60
170
35
99
33
137
15
43
65
163
95
119
41
135
107
71
53
145
39
168
56
121
64
147
42
132
61
24
105
88
101
179
36
76
134
146
17
48
12
92
177
109
28
166
150
173
184
9
22
122
80
178
46
115
187
74
188
139
118
83
116
40
68
131
96
174
156
129
91
161
90
54
87
133
58
13
34
50
138
190
100
185
20
21
117
142
164
18
125
2
31
182
62
113
89
73
172
78
167
181
66
85
143
141
52
27
49
29
3
5
160
175
169
26
94
162
37
176
14
93
38
191
19
69
192
183
151
45
7
82
97
126
70
16
23
189
11
32
154
123

> <PUBCHEM_MMFF94_PARTIAL_CHARGES>
28
1 -0.08
15 0.69
16 0.57
17 0.34
18 0.18
19 0.06
2 -0.57
21 0.2
22 0.66
23 0.04
24 0.23
25 -0.15
26 -0.15
27 -0.15
28 -0.15
3 -0.43
4 -0.57
40 0.37
41 0.37
5 -0.57
50 0.15
51 0.15
52 0.15
53 0.15
6 -0.73
7 -0.49
8 -0.57
9 0.3

> <PUBCHEM_EFFECTIVE_ROTOR_COUNT>
11.2

> <PUBCHEM_PHARMACOPHORE_FEATURES>
9
1 2 acceptor
1 4 acceptor
1 5 acceptor
1 6 donor
1 7 donor
1 8 acceptor
5 1 8 21 23 24 rings
6 23 24 25 26 27 28 rings
6 9 10 11 12 13 14 rings

> <PUBCHEM_HEAVY_ATOM_COUNT>
28

> <PUBCHEM_ATOM_DEF_STEREO_COUNT>
1

> <PUBCHEM_ATOM_UDEF_STEREO_COUNT>
0

> <PUBCHEM_BOND_DEF_STEREO_COUNT>
0

> <PUBCHEM_BOND_UDEF_STEREO_COUNT>
0

> <PUBCHEM_ISOTOPIC_ATOM_COUNT>
0

> <PUBCHEM_COMPONENT_COUNT>
1

> <PUBCHEM_CACTVS_TAUTO_COUNT>
10

> <PUBCHEM_CONFORMER_ID>
0077BC3E00000001

> <PUBCHEM_MMFF94_ENERGY>
35.6634

> <PUBCHEM_FEATURE_SELFOVERLAP>
45.794

> <PUBCHEM_SHAPE_FINGERPRINT>
1100329 8 17543631284643374889
12100795 323 17614837414657877784
12156800 1 12890046172294297502
12788726 201 17328578939137273878
13402501 40 18411979135590332164
14931854 50 17839731904944190655
15403338 16 16911750357458583379
16728300 4 17627263089704678074
17921350 177 17838613362690800068
19319366 153 16760834037330058281
20028762 73 17974016046334497303
20531524 4 18342444933628222990
20600515 1 17108784348684178008
20642791 35 18195531626352636061
20764821 26 18341881996496315484
20775438 99 18193303887040942607
21141583 151 17833547173338531103
21860390 5 18335427906423591126
22113638 7 17257940290962080039
238918 7 18336273336354503672
3298306 158 18337393742555140996
5265222 85 18195236716449737660

> <PUBCHEM_SHAPE_MULTIPOLES>
541.66
7.41
6.67
1.85
4.19
0.92
0.54
-3.21
-0.67
-4.06
-0.47
-0.76
0.87
3.6

> <PUBCHEM_SHAPE_SELFOVERLAP>
1120.595

> <PUBCHEM_SHAPE_VOLUME>
309.7

> <PUBCHEM_COORDINATE_TYPE>
2
5
10

$$$$

