443463
  -OEChem-07051213023D

 48 51  0     1  0  0  0  0  0999 V2000
   -3.3984    1.9111    1.6931 O   0  0  0  0  0  0  0  0  0  0  0  0
    4.0445   -0.3031   -1.0859 O   0  0  0  0  0  0  0  0  0  0  0  0
   -0.3868   -3.8111    0.3219 O   0  0  0  0  0  0  0  0  0  0  0  0
   -0.5131   -2.8561   -1.7514 O   0  0  0  0  0  0  0  0  0  0  0  0
    2.3982    1.3693    2.0449 O   0  0  0  0  0  0  0  0  0  0  0  0
    3.4435    2.6016   -1.0395 O   0  0  0  0  0  0  0  0  0  0  0  0
    0.9626   -0.3243    2.5905 O   0  0  0  0  0  0  0  0  0  0  0  0
   -1.3264   -0.4732   -0.1145 C   0  0  1  0  0  0  0  0  0  0  0  0
   -0.8751    0.3153   -1.3745 C   0  0  2  0  0  0  0  0  0  0  0  0
   -0.1653   -1.4510    0.1558 C   0  0  2  0  0  0  0  0  0  0  0  0
    1.1047   -0.7590   -0.4108 C   0  0  1  0  0  0  0  0  0  0  0  0
   -1.5588    0.4860    1.0706 C   0  0  0  0  0  0  0  0  0  0  0  0
   -2.8000    1.2377    0.6021 C   0  0  2  0  0  0  0  0  0  0  0  0
   -2.7388   -1.0727   -0.2724 C   0  0  0  0  0  0  0  0  0  0  0  0
    0.5872    0.5107   -1.0542 C   0  0  0  0  0  0  0  0  0  0  0  0
   -1.7535    1.5332   -1.7116 C   0  0  0  0  0  0  0  0  0  0  0  0
   -2.3799    2.2266   -0.4973 C   0  0  0  0  0  0  0  0  0  0  0  0
   -3.6414    0.0933    0.0726 C   0  0  0  0  0  0  0  0  0  0  0  0
    2.2640   -0.5063    0.5789 C   0  0  2  0  0  0  0  0  0  0  0  0
   -0.3744   -2.7667   -0.5408 C   0  0  0  0  0  0  0  0  0  0  0  0
    3.3273    0.4018   -0.0804 C   0  0  2  0  0  0  0  0  0  0  0  0
    1.3236    1.6153   -1.2108 C   0  0  0  0  0  0  0  0  0  0  0  0
    2.8906   -1.8475    1.0057 C   0  0  0  0  0  0  0  0  0  0  0  0
    2.7446    1.6208   -0.7832 C   0  0  0  0  0  0  0  0  0  0  0  0
    1.7940    0.1731    1.8462 C   0  0  0  0  0  0  0  0  0  0  0  0
   -4.9730    0.0752   -0.0549 C   0  0  0  0  0  0  0  0  0  0  0  0
   -0.9096   -0.3417   -2.2552 H   0  0  0  0  0  0  0  0  0  0  0  0
   -0.1058   -1.6876    1.2188 H   0  0  0  0  0  0  0  0  0  0  0  0
    1.5092   -1.3698   -1.2321 H   0  0  0  0  0  0  0  0  0  0  0  0
   -0.7310    1.1741    1.2683 H   0  0  0  0  0  0  0  0  0  0  0  0
   -1.7501   -0.0573    2.0066 H   0  0  0  0  0  0  0  0  0  0  0  0
   -2.9017   -1.8836    0.4472 H   0  0  0  0  0  0  0  0  0  0  0  0
   -2.9237   -1.4426   -1.2859 H   0  0  0  0  0  0  0  0  0  0  0  0
   -2.5785    1.1772   -2.3445 H   0  0  0  0  0  0  0  0  0  0  0  0
   -1.2199    2.2631   -2.3296 H   0  0  0  0  0  0  0  0  0  0  0  0
   -1.6645    2.9489   -0.0819 H   0  0  0  0  0  0  0  0  0  0  0  0
   -3.2414    2.8264   -0.8178 H   0  0  0  0  0  0  0  0  0  0  0  0
    4.0766    0.7358    0.6477 H   0  0  0  0  0  0  0  0  0  0  0  0
    0.9334    2.5247   -1.6496 H   0  0  0  0  0  0  0  0  0  0  0  0
    3.2320   -2.4286    0.1421 H   0  0  0  0  0  0  0  0  0  0  0  0
    3.7530   -1.6845    1.6629 H   0  0  0  0  0  0  0  0  0  0  0  0
    2.1811   -2.4721    1.5599 H   0  0  0  0  0  0  0  0  0  0  0  0
   -2.7517    2.5470    2.0439 H   0  0  0  0  0  0  0  0  0  0  0  0
   -5.5744    0.9364    0.2146 H   0  0  0  0  0  0  0  0  0  0  0  0
   -5.4853   -0.8019   -0.4355 H   0  0  0  0  0  0  0  0  0  0  0  0
    4.7875    0.2578   -1.3679 H   0  0  0  0  0  0  0  0  0  0  0  0
   -0.5229   -4.6659   -0.1397 H   0  0  0  0  0  0  0  0  0  0  0  0
    2.0872    1.8046    2.8670 H   0  0  0  0  0  0  0  0  0  0  0  0
  1 13  1  0  0  0  0
  1 43  1  0  0  0  0
  2 21  1  0  0  0  0
  2 46  1  0  0  0  0
  3 20  1  0  0  0  0
  3 47  1  0  0  0  0
  4 20  2  0  0  0  0
  5 25  1  0  0  0  0
  5 48  1  0  0  0  0
  6 24  2  0  0  0  0
  7 25  2  0  0  0  0
  8  9  1  0  0  0  0
  8 10  1  0  0  0  0
  8 12  1  0  0  0  0
  8 14  1  0  0  0  0
  9 15  1  0  0  0  0
  9 16  1  0  0  0  0
  9 27  1  0  0  0  0
 10 11  1  0  0  0  0
 10 20  1  0  0  0  0
 10 28  1  0  0  0  0
 11 15  1  0  0  0  0
 11 19  1  0  0  0  0
 11 29  1  0  0  0  0
 12 13  1  0  0  0  0
 12 30  1  0  0  0  0
 12 31  1  0  0  0  0
 13 17  1  0  0  0  0
 13 18  1  0  0  0  0
 14 18  1  0  0  0  0
 14 32  1  0  0  0  0
 14 33  1  0  0  0  0
 15 22  2  0  0  0  0
 16 17  1  0  0  0  0
 16 34  1  0  0  0  0
 16 35  1  0  0  0  0
 17 36  1  0  0  0  0
 17 37  1  0  0  0  0
 18 26  2  0  0  0  0
 19 21  1  0  0  0  0
 19 23  1  0  0  0  0
 19 25  1  0  0  0  0
 21 24  1  0  0  0  0
 21 38  1  0  0  0  0
 22 24  1  0  0  0  0
 22 39  1  0  0  0  0
 23 40  1  0  0  0  0
 23 41  1  0  0  0  0
 23 42  1  0  0  0  0
 26 44  1  0  0  0  0
 26 45  1  0  0  0  0
M  END
> <PUBCHEM_COMPOUND_CID>
443463

> <PUBCHEM_CONFORMER_RMSD>
0.8

> <PUBCHEM_CONFORMER_DIVERSEORDER>
1
4
2
3

> <PUBCHEM_MMFF94_PARTIAL_CHARGES>
28
1 -0.68
10 0.06
11 0.14
13 0.42
14 0.14
15 -0.28
18 -0.28
19 0.06
2 -0.68
20 0.66
21 0.34
22 -0.14
24 0.49
25 0.66
26 -0.3
3 -0.65
39 0.15
4 -0.57
43 0.4
44 0.15
45 0.15
46 0.4
47 0.5
48 0.5
5 -0.65
6 -0.57
7 -0.57
9 0.14

> <PUBCHEM_EFFECTIVE_ROTOR_COUNT>
3.4

> <PUBCHEM_PHARMACOPHORE_FEATURES>
14
1 1 acceptor
1 1 donor
1 2 acceptor
1 2 donor
1 3 acceptor
1 4 acceptor
1 5 acceptor
1 6 acceptor
1 7 acceptor
3 3 4 20 anion
3 5 7 25 anion
5 8 9 10 11 15 rings
6 11 15 19 21 22 24 rings
8 8 9 12 13 14 16 17 18 rings

> <PUBCHEM_HEAVY_ATOM_COUNT>
26

> <PUBCHEM_ATOM_DEF_STEREO_COUNT>
7

> <PUBCHEM_ATOM_UDEF_STEREO_COUNT>
0

> <PUBCHEM_BOND_DEF_STEREO_COUNT>
0

> <PUBCHEM_BOND_UDEF_STEREO_COUNT>
0

> <PUBCHEM_ISOTOPIC_ATOM_COUNT>
0

> <PUBCHEM_COMPONENT_COUNT>
1

> <PUBCHEM_CACTVS_TAUTO_COUNT>
13

> <PUBCHEM_CONFORMER_ID>
0006C44700000001

> <PUBCHEM_MMFF94_ENERGY>
89.828

> <PUBCHEM_FEATURE_SELFOVERLAP>
71.306

> <PUBCHEM_SHAPE_FINGERPRINT>
10165383 225 18334563668328865480
10863032 1 18263349318379415156
10948715 1 18411691080401834252
1100329 8 17549248238914843191
11370993 70 18335133193861282415
11578080 2 17534337839061259040
11640471 11 18270394980057767028
12011746 2 17489583484793072895
12173636 292 18260552203674218453
12633257 1 17128468823783742065
12788726 201 17836648517694460330
128993 33 18412830204666130896
13140716 1 17912660282300371620
13224815 77 18273217503963579701
13583140 156 16701482103283534141
13681431 1 17395296175319121311
14022347 108 10014745101871919531
14223421 5 17561363993358644481
14787075 74 17751096729834573827
15238133 3 17460586159287015417
15309172 13 18342173384136206663
16945 1 17774989181308300108
17349148 13 18342181085671905885
18981168 100 18262536792155819728
20600515 1 17116124263230890342
20691752 17 18115326487590566449
20715895 44 17842293737848142477
21524375 3 18333730238699887543
23419403 2 15594755810691833042
23557571 272 17828777144384520706
23559900 14 18197222666403134127
2748010 2 17261598885791378037
296302 2 15697995232571303325
3286 77 18041011668878493995
34934 24 17916024564337410245
350125 39 18410013268670986887
35225 105 17968384442065946095
474 4 18339352063459540169
484985 159 14109414463012991824
633830 44 17530692030196906161
7364860 26 17753044188018225599
7832392 63 18270115687361961572
81228 2 17975151845845888855
90525 40 18412829113675645359

> <PUBCHEM_SHAPE_MULTIPOLES>
493.98
6.39
2.9
1.78
2.12
1.76
0.72
-2.37
0.66
-0.4
-0.83
-0.51
-0.28
-0.82

> <PUBCHEM_SHAPE_SELFOVERLAP>
1098.926

> <PUBCHEM_SHAPE_VOLUME>
261.9

> <PUBCHEM_COORDINATE_TYPE>
2
5
10

$$$$

