13997
  -OEChem-06241222413D

 51 54  0     0  0  0  0  0  0999 V2000
    1.9862   -4.6096    0.1934 Cl  0  0  0  0  0  0  0  0  0  0  0  0
   -0.5172    2.5753   -2.5766 O   0  0  0  0  0  0  0  0  0  0  0  0
   -3.7294    0.7362    0.5241 N   0  0  0  0  0  0  0  0  0  0  0  0
   -0.6238    0.4954   -1.5312 N   0  0  0  0  0  0  0  0  0  0  0  0
    2.2804    1.3807   -1.5945 N   0  0  0  0  0  0  0  0  0  0  0  0
   -4.5109   -0.3417   -0.0984 C   0  0  0  0  0  0  0  0  0  0  0  0
   -3.9584    0.7888    1.9748 C   0  0  0  0  0  0  0  0  0  0  0  0
   -6.0079   -0.1528    0.1515 C   0  0  0  0  0  0  0  0  0  0  0  0
   -5.4374    1.0149    2.2923 C   0  0  0  0  0  0  0  0  0  0  0  0
   -6.3130   -0.0498    1.6415 C   0  0  0  0  0  0  0  0  0  0  0  0
   -2.3053    0.5670    0.2366 C   0  0  0  0  0  0  0  0  0  0  0  0
   -2.0550    0.6384   -1.2643 C   0  0  0  0  0  0  0  0  0  0  0  0
    0.0317   -0.7015   -1.0787 C   0  0  0  0  0  0  0  0  0  0  0  0
    0.0105    1.5043   -2.2654 C   0  0  0  0  0  0  0  0  0  0  0  0
    1.3985   -0.7481   -0.7335 C   0  0  0  0  0  0  0  0  0  0  0  0
    1.4108    1.2053   -2.7386 C   0  0  0  0  0  0  0  0  0  0  0  0
    2.2553    0.4738   -0.6774 C   0  0  0  0  0  0  0  0  0  0  0  0
   -0.7124   -1.8918   -0.9543 C   0  0  0  0  0  0  0  0  0  0  0  0
    1.9986   -1.9641   -0.3584 C   0  0  0  0  0  0  0  0  0  0  0  0
    3.1309    0.6864    0.5113 C   0  0  0  0  0  0  0  0  0  0  0  0
   -0.1136   -3.0913   -0.5610 C   0  0  0  0  0  0  0  0  0  0  0  0
    1.2440   -3.1302   -0.2754 C   0  0  0  0  0  0  0  0  0  0  0  0
    2.7414    0.1890    1.7488 C   0  0  0  0  0  0  0  0  0  0  0  0
    4.3271    1.3790    0.3679 C   0  0  0  0  0  0  0  0  0  0  0  0
    3.5604    0.3876    2.8604 C   0  0  0  0  0  0  0  0  0  0  0  0
    5.1460    1.5774    1.4795 C   0  0  0  0  0  0  0  0  0  0  0  0
    4.7626    1.0817    2.7257 C   0  0  0  0  0  0  0  0  0  0  0  0
   -4.1942   -1.3242    0.2760 H   0  0  0  0  0  0  0  0  0  0  0  0
   -4.4052   -0.3528   -1.1859 H   0  0  0  0  0  0  0  0  0  0  0  0
   -3.3864    1.6163    2.4119 H   0  0  0  0  0  0  0  0  0  0  0  0
   -3.6164   -0.1356    2.4589 H   0  0  0  0  0  0  0  0  0  0  0  0
   -6.5650   -0.9916   -0.2812 H   0  0  0  0  0  0  0  0  0  0  0  0
   -6.3542    0.7568   -0.3558 H   0  0  0  0  0  0  0  0  0  0  0  0
   -5.7422    2.0070    1.9356 H   0  0  0  0  0  0  0  0  0  0  0  0
   -5.5888    1.0052    3.3776 H   0  0  0  0  0  0  0  0  0  0  0  0
   -7.3714    0.1886    1.7935 H   0  0  0  0  0  0  0  0  0  0  0  0
   -6.1282   -1.0189    2.1209 H   0  0  0  0  0  0  0  0  0  0  0  0
   -1.9454   -0.3597    0.6944 H   0  0  0  0  0  0  0  0  0  0  0  0
   -1.7416    1.3810    0.7128 H   0  0  0  0  0  0  0  0  0  0  0  0
   -2.4159    1.6028   -1.6415 H   0  0  0  0  0  0  0  0  0  0  0  0
   -2.5621   -0.1195   -1.8654 H   0  0  0  0  0  0  0  0  0  0  0  0
    1.4865    0.2187   -3.2089 H   0  0  0  0  0  0  0  0  0  0  0  0
    1.6818    1.9355   -3.5090 H   0  0  0  0  0  0  0  0  0  0  0  0
   -1.7687   -1.9410   -1.2026 H   0  0  0  0  0  0  0  0  0  0  0  0
    3.0621   -2.0061   -0.1310 H   0  0  0  0  0  0  0  0  0  0  0  0
   -0.7224   -3.9897   -0.4971 H   0  0  0  0  0  0  0  0  0  0  0  0
    1.7967   -0.3254    1.8981 H   0  0  0  0  0  0  0  0  0  0  0  0
    4.6509    1.7664   -0.5941 H   0  0  0  0  0  0  0  0  0  0  0  0
    3.2585    0.0086    3.8324 H   0  0  0  0  0  0  0  0  0  0  0  0
    6.0830    2.1164    1.3747 H   0  0  0  0  0  0  0  0  0  0  0  0
    5.3997    1.2375    3.5915 H   0  0  0  0  0  0  0  0  0  0  0  0
  1 22  1  0  0  0  0
  2 14  2  0  0  0  0
  3  6  1  0  0  0  0
  3  7  1  0  0  0  0
  3 11  1  0  0  0  0
  4 12  1  0  0  0  0
  4 13  1  0  0  0  0
  4 14  1  0  0  0  0
  5 16  1  0  0  0  0
  5 17  2  0  0  0  0
  6  8  1  0  0  0  0
  6 28  1  0  0  0  0
  6 29  1  0  0  0  0
  7  9  1  0  0  0  0
  7 30  1  0  0  0  0
  7 31  1  0  0  0  0
  8 10  1  0  0  0  0
  8 32  1  0  0  0  0
  8 33  1  0  0  0  0
  9 10  1  0  0  0  0
  9 34  1  0  0  0  0
  9 35  1  0  0  0  0
 10 36  1  0  0  0  0
 10 37  1  0  0  0  0
 11 12  1  0  0  0  0
 11 38  1  0  0  0  0
 11 39  1  0  0  0  0
 12 40  1  0  0  0  0
 12 41  1  0  0  0  0
 13 15  2  0  0  0  0
 13 18  1  0  0  0  0
 14 16  1  0  0  0  0
 15 17  1  0  0  0  0
 15 19  1  0  0  0  0
 16 42  1  0  0  0  0
 16 43  1  0  0  0  0
 17 20  1  0  0  0  0
 18 21  2  0  0  0  0
 18 44  1  0  0  0  0
 19 22  2  0  0  0  0
 19 45  1  0  0  0  0
 20 23  2  0  0  0  0
 20 24  1  0  0  0  0
 21 22  1  0  0  0  0
 21 46  1  0  0  0  0
 23 25  1  0  0  0  0
 23 47  1  0  0  0  0
 24 26  2  0  0  0  0
 24 48  1  0  0  0  0
 25 27  2  0  0  0  0
 25 49  1  0  0  0  0
 26 27  1  0  0  0  0
 26 50  1  0  0  0  0
 27 51  1  0  0  0  0
M  END
> <PUBCHEM_COMPOUND_CID>
13997

> <PUBCHEM_CONFORMER_RMSD>
0.8

> <PUBCHEM_CONFORMER_DIVERSEORDER>
2
9
21
22
7
12
4
5
13
16
25
1
14
24
20
19
11
18
3
17
10
6
23
15
8

> <PUBCHEM_MMFF94_PARTIAL_CHARGES>
32
1 -0.18
11 0.27
12 0.3
13 0.12
14 0.57
15 0.09
16 0.31
17 0.28
18 -0.15
19 -0.15
2 -0.57
20 0.09
21 -0.15
22 0.18
23 -0.15
24 -0.15
25 -0.15
26 -0.15
27 -0.15
3 -0.81
4 -0.48
44 0.15
45 0.15
46 0.15
47 0.15
48 0.15
49 0.15
5 -0.7
50 0.15
51 0.15
6 0.27
7 0.27

> <PUBCHEM_EFFECTIVE_ROTOR_COUNT>
5.6

> <PUBCHEM_PHARMACOPHORE_FEATURES>
7
1 2 acceptor
1 3 cation
1 5 acceptor
6 13 15 18 19 21 22 rings
6 20 23 24 25 26 27 rings
6 3 6 7 8 9 10 rings
7 4 5 13 14 15 16 17 rings

> <PUBCHEM_HEAVY_ATOM_COUNT>
27

> <PUBCHEM_ATOM_DEF_STEREO_COUNT>
0

> <PUBCHEM_ATOM_UDEF_STEREO_COUNT>
0

> <PUBCHEM_BOND_DEF_STEREO_COUNT>
0

> <PUBCHEM_BOND_UDEF_STEREO_COUNT>
0

> <PUBCHEM_ISOTOPIC_ATOM_COUNT>
0

> <PUBCHEM_COMPONENT_COUNT>
1

> <PUBCHEM_CACTVS_TAUTO_COUNT>
1

> <PUBCHEM_CONFORMER_ID>
000036AD00000002

> <PUBCHEM_MMFF94_ENERGY>
87.8813

> <PUBCHEM_FEATURE_SELFOVERLAP>
35.532

> <PUBCHEM_SHAPE_FINGERPRINT>
10165383 225 18408595960282088406
10928967 22 14832976407150143345
11070050 100 18260553320423835738
11578080 2 18190469457549120537
12035758 1 18265349451012585074
12293681 25 17486793027873131231
12422481 6 18272664470799449027
12549972 3 17693676104578027364
12633257 1 18263944145744027536
12788726 201 17544184983353064911
12839892 36 18270961233279044687
12895837 130 15649047053946859160
13965767 371 18340778108286380426
14020679 6 17823712858183189128
14251751 18 14476967783085582345
14341114 328 17676210173761301939
14739800 52 17603872225627834403
14840074 17 18059860502482965308
14848178 5 14692577623688316561
14849402 71 18113333141981956762
15142526 21 17750527186404831393
15475509 84 17539961093322867553
15961568 22 16877937240027030593
17980427 26 17458915928357503358
19438510 23 16660938677303660738
1979834 28 18343575261699056115
20771845 35 18126574641756079811
21033648 29 18338237171691468953
21315764 371 18041267795554510947
21475661 188 17386008308525554216
21756936 100 17096104484461103770
22182313 1 18057900227531762846
23419403 2 17907030821452590606
23536364 44 7997432502024017899
23559900 14 17914888979748651279
2838139 119 16226054366191750872
427121 178 18187078447249480742
4340502 62 18187081741452584011
4616759 239 15969655203884168154
465052 167 17346876736800210204
469060 322 18269014019718632197
484985 159 14329236438821177488
5104073 3 18189599714144917075
563151 74 18044962274450574845
56616090 13 16660651712994761384
7064713 232 18337391543700605935
7288768 16 17534368663888626864
7808743 9 15647061438915280229
9841814 1 16916202452112238293
9981440 41 17619963642735784484

> <PUBCHEM_SHAPE_MULTIPOLES>
536.7
11.47
3.33
2.87
15.41
5.25
-0.96
-7.75
10.02
-3.21
1.21
-1.07
-2.05
-0.08

> <PUBCHEM_SHAPE_SELFOVERLAP>
1148.114

> <PUBCHEM_SHAPE_VOLUME>
296.4

> <PUBCHEM_COORDINATE_TYPE>
2
5
10

$$$$

