18752
  -OEChem-07051213112D

 25 25  0     0  0  0  0  0  0999 V2000
    3.0000    0.6550    0.0000 S   0  0  0  0  0  0  0  0  0  0  0  0
    4.0000    0.6550    0.0000 O   0  0  0  0  0  0  0  0  0  0  0  0
    2.0000    0.6550    0.0000 O   0  0  0  0  0  0  0  0  0  0  0  0
    3.8660    3.1550    0.0000 O   0  0  0  0  0  0  0  0  0  0  0  0
    4.7320    1.6550    0.0000 O   0  0  0  0  0  0  0  0  0  0  0  0
    3.0000    1.6550    0.0000 N   0  0  0  0  0  0  0  0  0  0  0  0
    3.0000   -3.3450    0.0000 N   0  0  0  0  0  0  0  0  0  0  0  0
    3.0000   -0.3450    0.0000 C   0  0  0  0  0  0  0  0  0  0  0  0
    2.1340   -0.8450    0.0000 C   0  0  0  0  0  0  0  0  0  0  0  0
    3.8660   -0.8450    0.0000 C   0  0  0  0  0  0  0  0  0  0  0  0
    3.0000   -2.3450    0.0000 C   0  0  0  0  0  0  0  0  0  0  0  0
    2.1340   -1.8450    0.0000 C   0  0  0  0  0  0  0  0  0  0  0  0
    3.8660   -1.8450    0.0000 C   0  0  0  0  0  0  0  0  0  0  0  0
    3.8660    2.1550    0.0000 C   0  0  0  0  0  0  0  0  0  0  0  0
    4.7320    3.6550    0.0000 C   0  0  0  0  0  0  0  0  0  0  0  0
    1.5970   -0.5350    0.0000 H   0  0  0  0  0  0  0  0  0  0  0  0
    4.4030   -0.5350    0.0000 H   0  0  0  0  0  0  0  0  0  0  0  0
    1.5970   -2.1550    0.0000 H   0  0  0  0  0  0  0  0  0  0  0  0
    4.4030   -2.1550    0.0000 H   0  0  0  0  0  0  0  0  0  0  0  0
    2.4631    1.9650    0.0000 H   0  0  0  0  0  0  0  0  0  0  0  0
    2.4631   -3.6550    0.0000 H   0  0  0  0  0  0  0  0  0  0  0  0
    3.5369   -3.6550    0.0000 H   0  0  0  0  0  0  0  0  0  0  0  0
    5.0420    3.1181    0.0000 H   0  0  0  0  0  0  0  0  0  0  0  0
    5.2690    3.9650    0.0000 H   0  0  0  0  0  0  0  0  0  0  0  0
    4.4220    4.1919    0.0000 H   0  0  0  0  0  0  0  0  0  0  0  0
  1  2  2  0  0  0  0
  1  3  2  0  0  0  0
  1  6  1  0  0  0  0
  1  8  1  0  0  0  0
  4 14  1  0  0  0  0
  4 15  1  0  0  0  0
  5 14  2  0  0  0  0
  6 14  1  0  0  0  0
  6 20  1  0  0  0  0
  7 11  1  0  0  0  0
  7 21  1  0  0  0  0
  7 22  1  0  0  0  0
  8  9  2  0  0  0  0
  8 10  1  0  0  0  0
  9 12  1  0  0  0  0
  9 16  1  0  0  0  0
 10 13  2  0  0  0  0
 10 17  1  0  0  0  0
 11 12  2  0  0  0  0
 11 13  1  0  0  0  0
 12 18  1  0  0  0  0
 13 19  1  0  0  0  0
 15 23  1  0  0  0  0
 15 24  1  0  0  0  0
 15 25  1  0  0  0  0
M  END
> <PUBCHEM_COMPOUND_CID>
18752

> <PUBCHEM_COMPOUND_CANONICALIZED>
1

> <PUBCHEM_CACTVS_COMPLEXITY>
314

> <PUBCHEM_CACTVS_HBOND_ACCEPTOR>
5

> <PUBCHEM_CACTVS_HBOND_DONOR>
2

> <PUBCHEM_CACTVS_ROTATABLE_BOND>
3

> <PUBCHEM_CACTVS_SUBSKEYS>
AAADccBzOABAAAAAAAAAAAAAAAAAAAAAAAAwAAAAAAAAAAABAAAAHgQQQAAACAiBUAIyyYBABAKIACRCWHDCABAgAgAIiBgAZIkIICKAkZGAIABgkAAIyAcQAAAAAAQAAAAAAAAACAAAAAAAAAAAAAAAAA==

> <PUBCHEM_IUPAC_OPENEYE_NAME>
methyl N-(4-aminophenyl)sulfonylcarbamate

> <PUBCHEM_IUPAC_CAS_NAME>
N-(4-aminophenyl)sulfonylcarbamic acid methyl ester

> <PUBCHEM_IUPAC_NAME>
methyl N-(4-aminophenyl)sulfonylcarbamate

> <PUBCHEM_IUPAC_SYSTEMATIC_NAME>
methyl N-(4-aminophenyl)sulfonylcarbamate

> <PUBCHEM_IUPAC_TRADITIONAL_NAME>
N-sulfanilylcarbamic acid methyl ester

> <PUBCHEM_IUPAC_INCHI>
InChI=1S/C8H10N2O4S/c1-14-8(11)10-15(12,13)7-4-2-6(9)3-5-7/h2-5H,9H2,1H3,(H,10,11)

> <PUBCHEM_IUPAC_INCHIKEY>
VGPYEHKOIGNJKV-UHFFFAOYSA-N

> <PUBCHEM_XLOGP3>
-0.3

> <PUBCHEM_EXACT_MASS>
230.036128

> <PUBCHEM_MOLECULAR_FORMULA>
C8H10N2O4S

> <PUBCHEM_MOLECULAR_WEIGHT>
230.241

> <PUBCHEM_OPENEYE_CAN_SMILES>
COC(=O)NS(=O)(=O)C1=CC=C(C=C1)N

> <PUBCHEM_OPENEYE_ISO_SMILES>
COC(=O)NS(=O)(=O)C1=CC=C(C=C1)N

> <PUBCHEM_CACTVS_TPSA>
107

> <PUBCHEM_MONOISOTOPIC_WEIGHT>
230.036128

> <PUBCHEM_TOTAL_CHARGE>
0

> <PUBCHEM_HEAVY_ATOM_COUNT>
15

> <PUBCHEM_ATOM_DEF_STEREO_COUNT>
0

> <PUBCHEM_ATOM_UDEF_STEREO_COUNT>
0

> <PUBCHEM_BOND_DEF_STEREO_COUNT>
0

> <PUBCHEM_BOND_UDEF_STEREO_COUNT>
0

> <PUBCHEM_ISOTOPIC_ATOM_COUNT>
0

> <PUBCHEM_COMPONENT_COUNT>
1

> <PUBCHEM_CACTVS_TAUTO_COUNT>
2

> <PUBCHEM_COORDINATE_TYPE>
1
5
255

> <PUBCHEM_BONDANNOTATIONS>
10  13  8
11  12  8
11  13  8
8  10  8
8  9  8
9  12  8

$$$$

