12782
  -OEChem-06261207212D

 26 26  0     0  0  0  0  0  0999 V2000
    2.8090   -0.4594    0.0000 N   0  0  0  0  0  0  0  0  0  0  0  0
    3.3090    1.0794    0.0000 N   0  0  0  0  0  0  0  0  0  0  0  0
    5.3122    0.4885    0.0000 C   0  0  0  0  0  0  0  0  0  0  0  0
    4.5691   -0.1807    0.0000 C   0  0  0  0  0  0  0  0  0  0  0  0
    6.2633    0.1795    0.0000 C   0  0  0  0  0  0  0  0  0  0  0  0
    3.6180    0.1284    0.0000 C   0  0  0  0  0  0  0  0  0  0  0  0
    2.0000    0.1284    0.0000 C   0  0  0  0  0  0  0  0  0  0  0  0
    7.0064    0.8486    0.0000 C   0  0  0  0  0  0  0  0  0  0  0  0
    2.3090    1.0794    0.0000 C   0  0  0  0  0  0  0  0  0  0  0  0
    7.9575    0.5396    0.0000 C   0  0  0  0  0  0  0  0  0  0  0  0
    5.6033    1.0359    0.0000 H   0  0  0  0  0  0  0  0  0  0  0  0
    4.8237    0.8702    0.0000 H   0  0  0  0  0  0  0  0  0  0  0  0
    4.2780   -0.7281    0.0000 H   0  0  0  0  0  0  0  0  0  0  0  0
    5.0577   -0.5624    0.0000 H   0  0  0  0  0  0  0  0  0  0  0  0
    5.9722   -0.3680    0.0000 H   0  0  0  0  0  0  0  0  0  0  0  0
    6.7519   -0.2022    0.0000 H   0  0  0  0  0  0  0  0  0  0  0  0
    1.4336    0.3805    0.0000 H   0  0  0  0  0  0  0  0  0  0  0  0
    1.6900   -0.4086    0.0000 H   0  0  0  0  0  0  0  0  0  0  0  0
    7.2975    1.3960    0.0000 H   0  0  0  0  0  0  0  0  0  0  0  0
    6.5179    1.2303    0.0000 H   0  0  0  0  0  0  0  0  0  0  0  0
    2.3738    1.6960    0.0000 H   0  0  0  0  0  0  0  0  0  0  0  0
    1.7026    1.2083    0.0000 H   0  0  0  0  0  0  0  0  0  0  0  0
    2.8090   -1.0794    0.0000 H   0  0  0  0  0  0  0  0  0  0  0  0
    7.7659   -0.0501    0.0000 H   0  0  0  0  0  0  0  0  0  0  0  0
    8.5472    0.3480    0.0000 H   0  0  0  0  0  0  0  0  0  0  0  0
    8.1491    1.1292    0.0000 H   0  0  0  0  0  0  0  0  0  0  0  0
  1  6  1  0  0  0  0
  1  7  1  0  0  0  0
  1 23  1  0  0  0  0
  2  6  2  0  0  0  0
  2  9  1  0  0  0  0
  3  4  1  0  0  0  0
  3  5  1  0  0  0  0
  3 11  1  0  0  0  0
  3 12  1  0  0  0  0
  4  6  1  0  0  0  0
  4 13  1  0  0  0  0
  4 14  1  0  0  0  0
  5  8  1  0  0  0  0
  5 15  1  0  0  0  0
  5 16  1  0  0  0  0
  7  9  1  0  0  0  0
  7 17  1  0  0  0  0
  7 18  1  0  0  0  0
  8 10  1  0  0  0  0
  8 19  1  0  0  0  0
  8 20  1  0  0  0  0
  9 21  1  0  0  0  0
  9 22  1  0  0  0  0
 10 24  1  0  0  0  0
 10 25  1  0  0  0  0
 10 26  1  0  0  0  0
M  END
> <PUBCHEM_COMPOUND_CID>
12782

> <PUBCHEM_COMPOUND_CANONICALIZED>
1

> <PUBCHEM_CACTVS_COMPLEXITY>
118

> <PUBCHEM_CACTVS_HBOND_ACCEPTOR>
1

> <PUBCHEM_CACTVS_HBOND_DONOR>
1

> <PUBCHEM_CACTVS_ROTATABLE_BOND>
4

> <PUBCHEM_CACTVS_SUBSKEYS>
AAADceBzAAAAAAAAAAAAAAAAAAAAAQAAAAAAAAAAAAAAAAAAAAAAHAAQAAAACADBAAQDAALAAAAgAAIgJAAAAAEAAAABAIA4AAAAQAIAiAAUAAAAEACAAAEQAAAAAAAAAAAAAAAAAAAAAAAAAAAAAAAAAA==

> <PUBCHEM_IUPAC_OPENEYE_NAME>
2-pentyl-4,5-dihydro-1H-imidazole

> <PUBCHEM_IUPAC_CAS_NAME>
2-pentyl-4,5-dihydro-1H-imidazole

> <PUBCHEM_IUPAC_NAME>
2-pentyl-4,5-dihydro-1H-imidazole

> <PUBCHEM_IUPAC_SYSTEMATIC_NAME>
2-pentyl-4,5-dihydro-1H-imidazole

> <PUBCHEM_IUPAC_TRADITIONAL_NAME>
2-amyl-2-imidazoline

> <PUBCHEM_IUPAC_INCHI>
InChI=1S/C8H16N2/c1-2-3-4-5-8-9-6-7-10-8/h2-7H2,1H3,(H,9,10)

> <PUBCHEM_IUPAC_INCHIKEY>
RBRDDDOKFJWHNR-UHFFFAOYSA-N

> <PUBCHEM_XLOGP3_AA>
1.1

> <PUBCHEM_EXACT_MASS>
140.131349

> <PUBCHEM_MOLECULAR_FORMULA>
C8H16N2

> <PUBCHEM_MOLECULAR_WEIGHT>
140.22604

> <PUBCHEM_OPENEYE_CAN_SMILES>
CCCCCC1=NCCN1

> <PUBCHEM_OPENEYE_ISO_SMILES>
CCCCCC1=NCCN1

> <PUBCHEM_CACTVS_TPSA>
24.4

> <PUBCHEM_MONOISOTOPIC_WEIGHT>
140.131349

> <PUBCHEM_TOTAL_CHARGE>
0

> <PUBCHEM_HEAVY_ATOM_COUNT>
10

> <PUBCHEM_ATOM_DEF_STEREO_COUNT>
0

> <PUBCHEM_ATOM_UDEF_STEREO_COUNT>
0

> <PUBCHEM_BOND_DEF_STEREO_COUNT>
0

> <PUBCHEM_BOND_UDEF_STEREO_COUNT>
0

> <PUBCHEM_ISOTOPIC_ATOM_COUNT>
0

> <PUBCHEM_COMPONENT_COUNT>
1

> <PUBCHEM_CACTVS_TAUTO_COUNT>
1

> <PUBCHEM_COORDINATE_TYPE>
1
5
255

$$$$

