5281996
  -OEChem-07051213023D

 28 27  0     0  0  0  0  0  0999 V2000
   -2.9397    0.4482    1.3038 O   0  0  0  0  0  0  0  0  0  0  0  0
   -1.8033    1.8308   -0.0920 O   0  0  0  0  0  0  0  0  0  0  0  0
    1.9590    0.5954   -0.4307 C   0  0  0  0  0  0  0  0  0  0  0  0
    1.7004   -0.5232    0.5704 C   0  0  0  0  0  0  0  0  0  0  0  0
    0.2759   -0.6910    1.0560 C   0  0  0  0  0  0  0  0  0  0  0  0
    2.5032    0.0485   -1.7531 C   0  0  0  0  0  0  0  0  0  0  0  0
    2.8875    1.6821    0.1224 C   0  0  0  0  0  0  0  0  0  0  0  0
   -0.6477   -1.1540   -0.0389 C   0  0  0  0  0  0  0  0  0  0  0  0
    2.6776   -1.3186    1.0392 C   0  0  0  0  0  0  0  0  0  0  0  0
   -1.7779   -0.5585   -0.4653 C   0  0  0  0  0  0  0  0  0  0  0  0
   -2.6858   -1.0655   -1.5466 C   0  0  0  0  0  0  0  0  0  0  0  0
   -2.1492    0.7058    0.2347 C   0  0  0  0  0  0  0  0  0  0  0  0
    1.0054    1.0886   -0.6582 H   0  0  0  0  0  0  0  0  0  0  0  0
   -0.0421    0.2522    1.5128 H   0  0  0  0  0  0  0  0  0  0  0  0
    0.2306   -1.4372    1.8598 H   0  0  0  0  0  0  0  0  0  0  0  0
    1.8405   -0.7210   -2.1641 H   0  0  0  0  0  0  0  0  0  0  0  0
    2.5802    0.8500   -2.4960 H   0  0  0  0  0  0  0  0  0  0  0  0
    3.5003   -0.3897   -1.6359 H   0  0  0  0  0  0  0  0  0  0  0  0
    2.4969    2.0866    1.0627 H   0  0  0  0  0  0  0  0  0  0  0  0
    2.9742    2.5119   -0.5876 H   0  0  0  0  0  0  0  0  0  0  0  0
    3.8960    1.2988    0.3113 H   0  0  0  0  0  0  0  0  0  0  0  0
   -0.3649   -2.0913   -0.5171 H   0  0  0  0  0  0  0  0  0  0  0  0
    3.7059   -1.2052    0.7135 H   0  0  0  0  0  0  0  0  0  0  0  0
    2.4722   -2.1029    1.7603 H   0  0  0  0  0  0  0  0  0  0  0  0
   -2.7590   -0.3305   -2.3543 H   0  0  0  0  0  0  0  0  0  0  0  0
   -2.3187   -2.0035   -1.9751 H   0  0  0  0  0  0  0  0  0  0  0  0
   -3.6890   -1.2456   -1.1476 H   0  0  0  0  0  0  0  0  0  0  0  0
   -3.1946    1.2684    1.7778 H   0  0  0  0  0  0  0  0  0  0  0  0
  1 12  1  0  0  0  0
  1 28  1  0  0  0  0
  2 12  2  0  0  0  0
  3  4  1  0  0  0  0
  3  6  1  0  0  0  0
  3  7  1  0  0  0  0
  3 13  1  0  0  0  0
  4  5  1  0  0  0  0
  4  9  2  0  0  0  0
  5  8  1  0  0  0  0
  5 14  1  0  0  0  0
  5 15  1  0  0  0  0
  6 16  1  0  0  0  0
  6 17  1  0  0  0  0
  6 18  1  0  0  0  0
  7 19  1  0  0  0  0
  7 20  1  0  0  0  0
  7 21  1  0  0  0  0
  8 10  2  0  0  0  0
  8 22  1  0  0  0  0
  9 23  1  0  0  0  0
  9 24  1  0  0  0  0
 10 11  1  0  0  0  0
 10 12  1  0  0  0  0
 11 25  1  0  0  0  0
 11 26  1  0  0  0  0
 11 27  1  0  0  0  0
M  END
> <PUBCHEM_COMPOUND_CID>
5281996

> <PUBCHEM_CONFORMER_RMSD>
0.6

> <PUBCHEM_CONFORMER_DIVERSEORDER>
1
86
77
28
64
70
87
95
33
16
34
69
93
82
22
76
42
75
55
63
32
83
47
61
66
51
73
60
24
21
74
7
18
85
67
54
81
84
44
80
10
30
56
57
46
5
92
23
59
52
78
62
53
45
12
79
31
88
50
4
20
71
58
35
13
27
14
15
89
49
3
39
43
17
29
25
9
2
37
48
94
72
8
41
26
90
11
65
68
36
91
38
40
19
6

> <PUBCHEM_MMFF94_PARTIAL_CHARGES>
14
1 -0.65
10 -0.12
11 0.14
12 0.71
2 -0.57
22 0.15
23 0.15
24 0.15
28 0.5
3 0.14
4 -0.28
5 0.28
8 -0.29
9 -0.3

> <PUBCHEM_EFFECTIVE_ROTOR_COUNT>
4

> <PUBCHEM_PHARMACOPHORE_FEATURES>
7
1 1 acceptor
1 11 hydrophobe
1 2 acceptor
1 9 hydrophobe
3 1 2 12 anion
3 3 6 7 hydrophobe
4 3 4 5 8 hydrophobe

> <PUBCHEM_HEAVY_ATOM_COUNT>
12

> <PUBCHEM_ATOM_DEF_STEREO_COUNT>
0

> <PUBCHEM_ATOM_UDEF_STEREO_COUNT>
0

> <PUBCHEM_BOND_DEF_STEREO_COUNT>
1

> <PUBCHEM_BOND_UDEF_STEREO_COUNT>
0

> <PUBCHEM_ISOTOPIC_ATOM_COUNT>
0

> <PUBCHEM_COMPONENT_COUNT>
1

> <PUBCHEM_CACTVS_TAUTO_COUNT>
1

> <PUBCHEM_CONFORMER_ID>
005098CC00000001

> <PUBCHEM_MMFF94_ENERGY>
20.7899

> <PUBCHEM_FEATURE_SELFOVERLAP>
35.733

> <PUBCHEM_SHAPE_FINGERPRINT>
10857977 72 14476952389754092155
12716758 59 16733260248405360655
12932741 1 15841277033566901387
12932764 1 18410288125108213252
13296908 3 4750875961373000570
13693222 7 17917991642215791734
14251711 518 18411981377257493948
15775835 57 18411979169649520096
16945 1 18130222653648134412
17357990 137 18189605215053679736
17834069 17 17203034244788080843
18522853 303 18334299734109361780
20653085 51 18041823091205992515
20715346 28 16415483752641925690
21028194 46 17202765882620558578
22802520 49 18188468229915445166
230 275 17988924436159276036
23235687 12 18040156218730357236
23557571 272 17386019346459356562
3248919 1 18336555953318131546
5084963 1 16845568742379535306
8030462 33 18272090482890710446

> <PUBCHEM_SHAPE_MULTIPOLES>
235.22
5.19
1.6
1.44
0.26
0.39
0.48
0.76
0.41
-0.42
-0.24
0.12
-0.21
-0.91

> <PUBCHEM_SHAPE_SELFOVERLAP>
448.17

> <PUBCHEM_SHAPE_VOLUME>
145.6

> <PUBCHEM_COORDINATE_TYPE>
2
5
10

$$$$

