12830
  -OEChem-06261207253D

 28 29  0     0  0  0  0  0  0999 V2000
   -0.6864    2.1405   -0.3751 O   0  0  0  0  0  0  0  0  0  0  0  0
   -1.9517   -2.2681   -0.0035 O   0  0  0  0  0  0  0  0  0  0  0  0
   -3.6394    0.6771    0.8734 O   0  0  0  0  0  0  0  0  0  0  0  0
    0.1230   -1.2086    0.0474 N   0  0  0  0  0  0  0  0  0  0  0  0
   -1.6957    0.0426   -0.2485 N   0  0  0  0  0  0  0  0  0  0  0  0
    0.6632    0.1326   -0.0549 C   0  0  0  0  0  0  0  0  0  0  0  0
    1.3612    0.5597    1.2399 C   0  0  0  0  0  0  0  0  0  0  0  0
    1.5669    0.2843   -1.2824 C   0  0  0  0  0  0  0  0  0  0  0  0
    2.7168   -0.1244    1.4158 C   0  0  0  0  0  0  0  0  0  0  0  0
    2.9210   -0.3974   -1.0883 C   0  0  0  0  0  0  0  0  0  0  0  0
    3.6083    0.0677    0.1922 C   0  0  0  0  0  0  0  0  0  0  0  0
   -0.6361    0.9232   -0.2478 C   0  0  0  0  0  0  0  0  0  0  0  0
   -1.2662   -1.2557   -0.0644 C   0  0  0  0  0  0  0  0  0  0  0  0
   -3.0848    0.4264   -0.4036 C   0  0  0  0  0  0  0  0  0  0  0  0
    0.7303    0.3439    2.1116 H   0  0  0  0  0  0  0  0  0  0  0  0
    1.5151    1.6468    1.2343 H   0  0  0  0  0  0  0  0  0  0  0  0
    1.7365    1.3501   -1.4853 H   0  0  0  0  0  0  0  0  0  0  0  0
    1.0800   -0.1243   -2.1772 H   0  0  0  0  0  0  0  0  0  0  0  0
    2.5696   -1.1960    1.5968 H   0  0  0  0  0  0  0  0  0  0  0  0
    3.2183    0.2799    2.3024 H   0  0  0  0  0  0  0  0  0  0  0  0
    3.5650   -0.1837   -1.9490 H   0  0  0  0  0  0  0  0  0  0  0  0
    2.7861   -1.4854   -1.0568 H   0  0  0  0  0  0  0  0  0  0  0  0
    3.8744    1.1278    0.0983 H   0  0  0  0  0  0  0  0  0  0  0  0
    4.5445   -0.4852    0.3288 H   0  0  0  0  0  0  0  0  0  0  0  0
    0.6935   -2.0363    0.1894 H   0  0  0  0  0  0  0  0  0  0  0  0
   -3.6407   -0.3873   -0.8783 H   0  0  0  0  0  0  0  0  0  0  0  0
   -3.1502    1.3381   -1.0044 H   0  0  0  0  0  0  0  0  0  0  0  0
   -4.5681    0.9313    0.7375 H   0  0  0  0  0  0  0  0  0  0  0  0
  1 12  2  0  0  0  0
  2 13  2  0  0  0  0
  3 14  1  0  0  0  0
  3 28  1  0  0  0  0
  4  6  1  0  0  0  0
  4 13  1  0  0  0  0
  4 25  1  0  0  0  0
  5 12  1  0  0  0  0
  5 13  1  0  0  0  0
  5 14  1  0  0  0  0
  6  7  1  0  0  0  0
  6  8  1  0  0  0  0
  6 12  1  0  0  0  0
  7  9  1  0  0  0  0
  7 15  1  0  0  0  0
  7 16  1  0  0  0  0
  8 10  1  0  0  0  0
  8 17  1  0  0  0  0
  8 18  1  0  0  0  0
  9 11  1  0  0  0  0
  9 19  1  0  0  0  0
  9 20  1  0  0  0  0
 10 11  1  0  0  0  0
 10 21  1  0  0  0  0
 10 22  1  0  0  0  0
 11 23  1  0  0  0  0
 11 24  1  0  0  0  0
 14 26  1  0  0  0  0
 14 27  1  0  0  0  0
M  END
> <PUBCHEM_COMPOUND_CID>
12830

> <PUBCHEM_CONFORMER_RMSD>
0.6

> <PUBCHEM_CONFORMER_DIVERSEORDER>
1
3
2
4

> <PUBCHEM_MMFF94_PARTIAL_CHARGES>
11
1 -0.57
12 0.57
13 0.69
14 0.58
2 -0.57
25 0.37
28 0.4
3 -0.68
4 -0.73
5 -0.42
6 0.36

> <PUBCHEM_EFFECTIVE_ROTOR_COUNT>
2.4

> <PUBCHEM_PHARMACOPHORE_FEATURES>
7
1 1 acceptor
1 2 acceptor
1 3 acceptor
1 3 donor
1 4 donor
5 4 5 6 12 13 rings
6 6 7 8 9 10 11 rings

> <PUBCHEM_HEAVY_ATOM_COUNT>
14

> <PUBCHEM_ATOM_DEF_STEREO_COUNT>
0

> <PUBCHEM_ATOM_UDEF_STEREO_COUNT>
0

> <PUBCHEM_BOND_DEF_STEREO_COUNT>
0

> <PUBCHEM_BOND_UDEF_STEREO_COUNT>
0

> <PUBCHEM_ISOTOPIC_ATOM_COUNT>
0

> <PUBCHEM_COMPONENT_COUNT>
1

> <PUBCHEM_CACTVS_TAUTO_COUNT>
2

> <PUBCHEM_CONFORMER_ID>
0000321E00000001

> <PUBCHEM_MMFF94_ENERGY>
17.8269

> <PUBCHEM_FEATURE_SELFOVERLAP>
35.526

> <PUBCHEM_SHAPE_FINGERPRINT>
12423570 1 12500692882765218638
12716758 59 18335982090179475502
12932764 1 17703797993911735892
13538477 17 17989208126906581682
13581323 91 18272938236436217112
14993402 34 18343586239672394685
15219456 202 17822294526980123922
15310529 11 16343705447558217645
15775835 57 18412267250475589482
16945 1 18340775917642023788
18175812 5 17822295647898087860
18186145 218 17822009864937427289
20201158 50 17676486164001556494
20588541 1 18260826029076648710
20645464 45 18041006128286247035
20645476 183 17632570539574232998
20715346 28 17677050127314162294
21501502 16 18192713341115106436
23402539 116 18335433394879787485
23552423 10 17772468993288523476
23557571 272 18191296092581547172
23559900 14 18334290977573047286
2748010 2 18194129516449751381
276578 36 18339355387410903563
528886 8 18412255138483185286
53812653 166 18259703414856795243
53812653 8 18201152260314578085
77492 1 17561368370172710894

> <PUBCHEM_SHAPE_MULTIPOLES>
260.54
5.29
1.5
1.16
0.39
0.3
0.1
-0.12
0.54
1.08
-0.06
-0.82
-0.11
0.08

> <PUBCHEM_SHAPE_SELFOVERLAP>
543.675

> <PUBCHEM_SHAPE_VOLUME>
148.4

> <PUBCHEM_COORDINATE_TYPE>
2
5
10

$$$$

