9543400
  -OEChem-07051213083D

 16 15  0     0  0  0  0  0  0999 V2000
    1.9489    1.8767   -0.0174 F   0  0  0  0  0  0  0  0  0  0  0  0
    3.5797   -0.0645    0.6075 O   0  0  0  0  0  0  0  0  0  0  0  0
   -3.9786   -0.2433    0.5990 O   0  0  0  0  0  0  0  0  0  0  0  0
    2.2611   -1.5296   -0.5295 O   0  0  0  0  0  0  0  0  0  0  0  0
   -2.5893    1.1550   -0.5369 O   0  0  0  0  0  0  0  0  0  0  0  0
    0.0988    0.4443   -0.0197 C   0  0  0  0  0  0  0  0  0  0  0  0
   -0.5174   -0.8664   -0.0212 C   0  0  0  0  0  0  0  0  0  0  0  0
    1.4246    0.6318   -0.0181 C   0  0  0  0  0  0  0  0  0  0  0  0
   -1.8469   -1.0396   -0.0228 C   0  0  0  0  0  0  0  0  0  0  0  0
    2.4404   -0.4345   -0.0173 C   0  0  0  0  0  0  0  0  0  0  0  0
   -2.8214    0.0701   -0.0235 C   0  0  0  0  0  0  0  0  0  0  0  0
   -0.4884    1.3506    0.0157 H   0  0  0  0  0  0  0  0  0  0  0  0
    0.0821   -1.7659    0.0259 H   0  0  0  0  0  0  0  0  0  0  0  0
   -2.2556   -2.0445    0.0317 H   0  0  0  0  0  0  0  0  0  0  0  0
    4.2508   -0.7800    0.6035 H   0  0  0  0  0  0  0  0  0  0  0  0
   -4.6148    0.5034    0.5911 H   0  0  0  0  0  0  0  0  0  0  0  0
  1  8  1  0  0  0  0
  2 10  1  0  0  0  0
  2 15  1  0  0  0  0
  3 11  1  0  0  0  0
  3 16  1  0  0  0  0
  4 10  2  0  0  0  0
  5 11  2  0  0  0  0
  6  7  1  0  0  0  0
  6  8  2  0  0  0  0
  6 12  1  0  0  0  0
  7  9  2  0  0  0  0
  7 13  1  0  0  0  0
  8 10  1  0  0  0  0
  9 11  1  0  0  0  0
  9 14  1  0  0  0  0
M  END
> <PUBCHEM_COMPOUND_CID>
9543400

> <PUBCHEM_CONFORMER_RMSD>
0.6

> <PUBCHEM_CONFORMER_DIVERSEORDER>
2
3
1

> <PUBCHEM_MMFF94_PARTIAL_CHARGES>
16
1 -0.15
10 0.71
11 0.71
12 0.15
13 0.15
14 0.15
15 0.5
16 0.5
2 -0.65
3 -0.65
4 -0.57
5 -0.57
6 -0.15
7 -0.15
8 0.16
9 -0.14

> <PUBCHEM_EFFECTIVE_ROTOR_COUNT>
3

> <PUBCHEM_PHARMACOPHORE_FEATURES>
6
1 2 acceptor
1 3 acceptor
1 4 acceptor
1 5 acceptor
3 2 4 10 anion
3 3 5 11 anion

> <PUBCHEM_HEAVY_ATOM_COUNT>
11

> <PUBCHEM_ATOM_DEF_STEREO_COUNT>
0

> <PUBCHEM_ATOM_UDEF_STEREO_COUNT>
0

> <PUBCHEM_BOND_DEF_STEREO_COUNT>
2

> <PUBCHEM_BOND_UDEF_STEREO_COUNT>
0

> <PUBCHEM_ISOTOPIC_ATOM_COUNT>
0

> <PUBCHEM_COMPONENT_COUNT>
1

> <PUBCHEM_CACTVS_TAUTO_COUNT>
1

> <PUBCHEM_CONFORMER_ID>
00919EE800000002

> <PUBCHEM_MMFF94_ENERGY>
27.7579

> <PUBCHEM_FEATURE_SELFOVERLAP>
30.56

> <PUBCHEM_SHAPE_FINGERPRINT>
11062470 55 15430036560743113235
12932764 1 18335980878808748551
14144814 61 18409729594654949715
14325111 11 18410855443354493997
17844478 74 18130781270338341101
190213 19 14836402536288507011
19973954 147 18411980234991248621
20201158 50 18409168822324008222
20871998 22 18044370763328658038
21501502 16 18193840344780999927
23402539 116 18041008349464873245
23552423 10 18270964544223744991
3248919 1 18337116670035927167

> <PUBCHEM_SHAPE_MULTIPOLES>
195.62
5.93
1.36
0.67
1.66
0.19
-0.01
-0.08
-0.8
-0.48
0.16
0.03
-0.03
0.27

> <PUBCHEM_SHAPE_SELFOVERLAP>
388.897

> <PUBCHEM_SHAPE_VOLUME>
114.5

> <PUBCHEM_COORDINATE_TYPE>
2
5
10

$$$$

