5281229
  -OEChem-07051212553D

100101  0     1  0  0  0  0  0999 V2000
   16.0941   -1.3656   -0.1435 O   0  0  0  0  0  0  0  0  0  0  0  0
  -16.1974   -0.5425    0.8168 O   0  0  0  0  0  0  0  0  0  0  0  0
   11.5001   -0.1728   -2.1294 O   0  0  0  0  0  0  0  0  0  0  0  0
  -11.6695    1.8839    0.5466 O   0  0  0  0  0  0  0  0  0  0  0  0
   12.6620   -1.2066    0.9501 C   0  0  0  0  0  0  0  0  0  0  0  0
  -12.6987   -1.4052    0.6963 C   0  0  0  0  0  0  0  0  0  0  0  0
   12.8785   -0.1515   -0.1805 C   0  0  2  0  0  0  0  0  0  0  0  0
  -12.9110   -0.0599   -0.0674 C   0  0  2  0  0  0  0  0  0  0  0  0
   14.0982   -1.7103    1.1871 C   0  0  0  0  0  0  0  0  0  0  0  0
  -14.1492   -1.8247    1.0003 C   0  0  0  0  0  0  0  0  0  0  0  0
   13.9337   -0.8144   -1.0944 C   0  0  0  0  0  0  0  0  0  0  0  0
  -14.0695    0.6126    0.7031 C   0  0  0  0  0  0  0  0  0  0  0  0
   14.7348   -1.7691   -0.2014 C   0  0  1  0  0  0  0  0  0  0  0  0
  -14.8780   -0.5243    1.3389 C   0  0  1  0  0  0  0  0  0  0  0  0
   11.7735   -2.3913    0.5019 C   0  0  0  0  0  0  0  0  0  0  0  0
   12.0685   -0.6356    2.2451 C   0  0  0  0  0  0  0  0  0  0  0  0
  -11.9304   -1.2240    2.0270 C   0  0  0  0  0  0  0  0  0  0  0  0
  -11.9814   -2.4902   -0.1183 C   0  0  0  0  0  0  0  0  0  0  0  0
   13.4084    1.2067    0.3120 C   0  0  0  0  0  0  0  0  0  0  0  0
  -13.3067   -0.2246   -1.5454 C   0  0  0  0  0  0  0  0  0  0  0  0
   11.6060    0.1220   -0.9412 C   0  0  0  0  0  0  0  0  0  0  0  0
  -11.6746    0.8021   -0.0362 C   0  0  0  0  0  0  0  0  0  0  0  0
   10.4871    0.7335   -0.1713 C   0  0  0  0  0  0  0  0  0  0  0  0
  -10.4652    0.2611   -0.7174 C   0  0  0  0  0  0  0  0  0  0  0  0
    9.2132    0.4834   -0.5072 C   0  0  0  0  0  0  0  0  0  0  0  0
   -9.2385    0.5836   -0.2826 C   0  0  0  0  0  0  0  0  0  0  0  0
    8.0483    1.0180    0.1946 C   0  0  0  0  0  0  0  0  0  0  0  0
   -7.9928    0.1221   -0.8915 C   0  0  0  0  0  0  0  0  0  0  0  0
    8.4180    1.8580    1.3889 C   0  0  0  0  0  0  0  0  0  0  0  0
   -8.2180   -0.7318   -2.1117 C   0  0  0  0  0  0  0  0  0  0  0  0
    6.7954    0.7193   -0.2058 C   0  0  0  0  0  0  0  0  0  0  0  0
   -6.7949    0.4920   -0.3938 C   0  0  0  0  0  0  0  0  0  0  0  0
    5.5523    1.1545    0.4016 C   0  0  0  0  0  0  0  0  0  0  0  0
   -5.4843    0.1332   -0.9019 C   0  0  0  0  0  0  0  0  0  0  0  0
    4.3485    0.7976   -0.0790 C   0  0  0  0  0  0  0  0  0  0  0  0
   -4.3440    0.5574   -0.3287 C   0  0  0  0  0  0  0  0  0  0  0  0
    3.0381    1.1811    0.4592 C   0  0  0  0  0  0  0  0  0  0  0  0
   -2.9831    0.2476   -0.7693 C   0  0  0  0  0  0  0  0  0  0  0  0
    3.0256    2.0683    1.6791 C   0  0  0  0  0  0  0  0  0  0  0  0
   -2.8284   -0.6355   -1.9864 C   0  0  0  0  0  0  0  0  0  0  0  0
    1.9322    0.7206   -0.1646 C   0  0  0  0  0  0  0  0  0  0  0  0
   -1.8670    0.6999   -0.1572 C   0  0  0  0  0  0  0  0  0  0  0  0
    0.5471    0.9673    0.1871 C   0  0  0  0  0  0  0  0  0  0  0  0
   -0.4811    0.4544   -0.5094 C   0  0  0  0  0  0  0  0  0  0  0  0
   14.1257   -2.6914    1.6747 H   0  0  0  0  0  0  0  0  0  0  0  0
   14.6583   -1.0264    1.8375 H   0  0  0  0  0  0  0  0  0  0  0  0
  -14.2163   -2.5406    1.8275 H   0  0  0  0  0  0  0  0  0  0  0  0
  -14.6140   -2.3105    0.1328 H   0  0  0  0  0  0  0  0  0  0  0  0
   14.5729   -0.0761   -1.5929 H   0  0  0  0  0  0  0  0  0  0  0  0
   13.4722   -1.4133   -1.8886 H   0  0  0  0  0  0  0  0  0  0  0  0
  -14.6842    1.2486    0.0552 H   0  0  0  0  0  0  0  0  0  0  0  0
  -13.7062    1.2541    1.5149 H   0  0  0  0  0  0  0  0  0  0  0  0
   14.6997   -2.7852   -0.6099 H   0  0  0  0  0  0  0  0  0  0  0  0
  -14.9442   -0.3788    2.4229 H   0  0  0  0  0  0  0  0  0  0  0  0
   10.7268   -2.0964    0.3799 H   0  0  0  0  0  0  0  0  0  0  0  0
   12.1076   -2.8299   -0.4439 H   0  0  0  0  0  0  0  0  0  0  0  0
   11.7908   -3.1909    1.2522 H   0  0  0  0  0  0  0  0  0  0  0  0
   11.0268   -0.3273    2.1425 H   0  0  0  0  0  0  0  0  0  0  0  0
   12.0805   -1.4052    3.0276 H   0  0  0  0  0  0  0  0  0  0  0  0
   12.6468    0.2035    2.6421 H   0  0  0  0  0  0  0  0  0  0  0  0
  -10.8751   -0.9854    1.8624 H   0  0  0  0  0  0  0  0  0  0  0  0
  -12.3567   -0.4321    2.6511 H   0  0  0  0  0  0  0  0  0  0  0  0
  -11.9571   -2.1487    2.6158 H   0  0  0  0  0  0  0  0  0  0  0  0
  -10.9306   -2.2636   -0.3073 H   0  0  0  0  0  0  0  0  0  0  0  0
  -11.9924   -3.4372    0.4366 H   0  0  0  0  0  0  0  0  0  0  0  0
  -12.4735   -2.6970   -1.0730 H   0  0  0  0  0  0  0  0  0  0  0  0
   12.7710    1.7031    1.0474 H   0  0  0  0  0  0  0  0  0  0  0  0
   13.5163    1.9050   -0.5277 H   0  0  0  0  0  0  0  0  0  0  0  0
   14.3989    1.1055    0.7695 H   0  0  0  0  0  0  0  0  0  0  0  0
  -12.5886   -0.7865   -2.1472 H   0  0  0  0  0  0  0  0  0  0  0  0
  -13.4162    0.7558   -2.0261 H   0  0  0  0  0  0  0  0  0  0  0  0
  -14.2707   -0.7361   -1.6449 H   0  0  0  0  0  0  0  0  0  0  0  0
   16.5508   -1.9680    0.4681 H   0  0  0  0  0  0  0  0  0  0  0  0
  -16.6559   -1.3043    1.2106 H   0  0  0  0  0  0  0  0  0  0  0  0
   10.7519    1.3644    0.6638 H   0  0  0  0  0  0  0  0  0  0  0  0
  -10.6275   -0.3927   -1.5611 H   0  0  0  0  0  0  0  0  0  0  0  0
    9.0044   -0.1663   -1.3550 H   0  0  0  0  0  0  0  0  0  0  0  0
   -9.1353    1.2371    0.5815 H   0  0  0  0  0  0  0  0  0  0  0  0
    8.9939    2.7415    1.0902 H   0  0  0  0  0  0  0  0  0  0  0  0
    8.9876    1.2786    2.1245 H   0  0  0  0  0  0  0  0  0  0  0  0
    7.5466    2.2412    1.9258 H   0  0  0  0  0  0  0  0  0  0  0  0
   -8.7534   -1.6538   -1.8572 H   0  0  0  0  0  0  0  0  0  0  0  0
   -8.7716   -0.1865   -2.8848 H   0  0  0  0  0  0  0  0  0  0  0  0
   -7.2866   -1.0515   -2.5857 H   0  0  0  0  0  0  0  0  0  0  0  0
    6.6761    0.0819   -1.0824 H   0  0  0  0  0  0  0  0  0  0  0  0
   -6.7817    1.1307    0.4897 H   0  0  0  0  0  0  0  0  0  0  0  0
    5.6169    1.7919    1.2750 H   0  0  0  0  0  0  0  0  0  0  0  0
   -5.4452   -0.5035   -1.7772 H   0  0  0  0  0  0  0  0  0  0  0  0
    4.3213    0.1557   -0.9598 H   0  0  0  0  0  0  0  0  0  0  0  0
   -4.4056    1.1964    0.5516 H   0  0  0  0  0  0  0  0  0  0  0  0
    2.0234    2.3192    2.0322 H   0  0  0  0  0  0  0  0  0  0  0  0
    3.5371    1.5780    2.5151 H   0  0  0  0  0  0  0  0  0  0  0  0
    3.5285    3.0186    1.4674 H   0  0  0  0  0  0  0  0  0  0  0  0
   -1.8110   -0.8584   -2.3038 H   0  0  0  0  0  0  0  0  0  0  0  0
   -3.3051   -1.6066   -1.8064 H   0  0  0  0  0  0  0  0  0  0  0  0
   -3.3158   -0.1689   -2.8509 H   0  0  0  0  0  0  0  0  0  0  0  0
    2.0613    0.0841   -1.0410 H   0  0  0  0  0  0  0  0  0  0  0  0
   -2.0032    1.3350    0.7191 H   0  0  0  0  0  0  0  0  0  0  0  0
    0.3387    1.5917    1.0492 H   0  0  0  0  0  0  0  0  0  0  0  0
   -0.2501   -0.1662   -1.3662 H   0  0  0  0  0  0  0  0  0  0  0  0
  1 13  1  0  0  0  0
  1 73  1  0  0  0  0
  2 14  1  0  0  0  0
  2 74  1  0  0  0  0
  3 21  2  0  0  0  0
  4 22  2  0  0  0  0
  5  7  1  0  0  0  0
  5  9  1  0  0  0  0
  5 15  1  0  0  0  0
  5 16  1  0  0  0  0
  6  8  1  0  0  0  0
  6 10  1  0  0  0  0
  6 17  1  0  0  0  0
  6 18  1  0  0  0  0
  7 11  1  0  0  0  0
  7 19  1  0  0  0  0
  7 21  1  0  0  0  0
  8 12  1  0  0  0  0
  8 20  1  0  0  0  0
  8 22  1  0  0  0  0
  9 13  1  0  0  0  0
  9 45  1  0  0  0  0
  9 46  1  0  0  0  0
 10 14  1  0  0  0  0
 10 47  1  0  0  0  0
 10 48  1  0  0  0  0
 11 13  1  0  0  0  0
 11 49  1  0  0  0  0
 11 50  1  0  0  0  0
 12 14  1  0  0  0  0
 12 51  1  0  0  0  0
 12 52  1  0  0  0  0
 13 53  1  0  0  0  0
 14 54  1  0  0  0  0
 15 55  1  0  0  0  0
 15 56  1  0  0  0  0
 15 57  1  0  0  0  0
 16 58  1  0  0  0  0
 16 59  1  0  0  0  0
 16 60  1  0  0  0  0
 17 61  1  0  0  0  0
 17 62  1  0  0  0  0
 17 63  1  0  0  0  0
 18 64  1  0  0  0  0
 18 65  1  0  0  0  0
 18 66  1  0  0  0  0
 19 67  1  0  0  0  0
 19 68  1  0  0  0  0
 19 69  1  0  0  0  0
 20 70  1  0  0  0  0
 20 71  1  0  0  0  0
 20 72  1  0  0  0  0
 21 23  1  0  0  0  0
 22 24  1  0  0  0  0
 23 25  2  0  0  0  0
 23 75  1  0  0  0  0
 24 26  2  0  0  0  0
 24 76  1  0  0  0  0
 25 27  1  0  0  0  0
 25 77  1  0  0  0  0
 26 28  1  0  0  0  0
 26 78  1  0  0  0  0
 27 29  1  0  0  0  0
 27 31  2  0  0  0  0
 28 30  1  0  0  0  0
 28 32  2  0  0  0  0
 29 79  1  0  0  0  0
 29 80  1  0  0  0  0
 29 81  1  0  0  0  0
 30 82  1  0  0  0  0
 30 83  1  0  0  0  0
 30 84  1  0  0  0  0
 31 33  1  0  0  0  0
 31 85  1  0  0  0  0
 32 34  1  0  0  0  0
 32 86  1  0  0  0  0
 33 35  2  0  0  0  0
 33 87  1  0  0  0  0
 34 36  2  0  0  0  0
 34 88  1  0  0  0  0
 35 37  1  0  0  0  0
 35 89  1  0  0  0  0
 36 38  1  0  0  0  0
 36 90  1  0  0  0  0
 37 39  1  0  0  0  0
 37 41  2  0  0  0  0
 38 40  1  0  0  0  0
 38 42  2  0  0  0  0
 39 91  1  0  0  0  0
 39 92  1  0  0  0  0
 39 93  1  0  0  0  0
 40 94  1  0  0  0  0
 40 95  1  0  0  0  0
 40 96  1  0  0  0  0
 41 43  1  0  0  0  0
 41 97  1  0  0  0  0
 42 44  1  0  0  0  0
 42 98  1  0  0  0  0
 43 44  2  0  0  0  0
 43 99  1  0  0  0  0
 44100  1  0  0  0  0
M  END
> <PUBCHEM_COMPOUND_CID>
5281229

> <PUBCHEM_CONFORMER_RMSD>
1.8

> <PUBCHEM_CONFORMER_DIVERSEORDER>
5
15
1
22
23
19
16
17
27
13
9
28
7
3
18
26
6
21
2
25
20
12
11
4
14
24
10
8

> <PUBCHEM_MMFF94_PARTIAL_CHARGES>
48
1 -0.68
100 0.15
13 0.28
14 0.28
2 -0.68
21 0.49
22 0.49
23 -0.14
24 -0.14
25 -0.15
26 -0.15
27 -0.14
28 -0.14
29 0.14
3 -0.57
30 0.14
31 -0.15
32 -0.15
33 -0.15
34 -0.15
35 -0.15
36 -0.15
37 -0.14
38 -0.14
39 0.14
4 -0.57
40 0.14
41 -0.15
42 -0.15
43 -0.15
44 -0.15
7 0.06
73 0.4
74 0.4
75 0.15
76 0.15
77 0.15
78 0.15
8 0.06
85 0.15
86 0.15
87 0.15
88 0.15
89 0.15
90 0.15
97 0.15
98 0.15
99 0.15

> <PUBCHEM_EFFECTIVE_ROTOR_COUNT>
14

> <PUBCHEM_PHARMACOPHORE_FEATURES>
14
1 1 acceptor
1 1 donor
1 2 acceptor
1 2 donor
1 29 hydrophobe
1 3 acceptor
1 30 hydrophobe
1 39 hydrophobe
1 4 acceptor
1 40 hydrophobe
3 5 15 16 hydrophobe
3 6 17 18 hydrophobe
5 5 7 9 11 13 rings
5 6 8 10 12 14 rings

> <PUBCHEM_HEAVY_ATOM_COUNT>
44

> <PUBCHEM_ATOM_DEF_STEREO_COUNT>
4

> <PUBCHEM_ATOM_UDEF_STEREO_COUNT>
0

> <PUBCHEM_BOND_DEF_STEREO_COUNT>
9

> <PUBCHEM_BOND_UDEF_STEREO_COUNT>
0

> <PUBCHEM_ISOTOPIC_ATOM_COUNT>
0

> <PUBCHEM_COMPONENT_COUNT>
1

> <PUBCHEM_CACTVS_TAUTO_COUNT>
1

> <PUBCHEM_CONFORMER_ID>
005095CD00000005

> <PUBCHEM_MMFF94_ENERGY>
152.4107

> <PUBCHEM_FEATURE_SELFOVERLAP>
71.041

> <PUBCHEM_SHAPE_FINGERPRINT>
12559415 90 6627755478456549910
14251920 1 18410856564008967365
14251920 17 12247679370493962748
15061470 23 7853576815930052453
15219723 13 18411138043291331307
15274700 256 5761655876751180323
15343295 29 17385444329030214669
3092352 35 18130787862633255093
54131252 152 17603305930939433543
9663363 56 6483354430126414149

> <PUBCHEM_SHAPE_MULTIPOLES>
882.02
106.47
1.82
1.57
7.28
0.67
0.01
48.04
17.07
-1.96
0.61
0.55
0.25
1.08

> <PUBCHEM_SHAPE_SELFOVERLAP>
1806.428

> <PUBCHEM_SHAPE_VOLUME>
513.9

> <PUBCHEM_COORDINATE_TYPE>
2
5
10

$$$$

