440073
  -OEChem-07051212482D

 35 37  0     1  0  0  0  0  0999 V2000
    6.3301    0.6154    0.0000 O   0  0  0  0  0  0  0  0  0  0  0  0
    4.5981   -1.3846    0.0000 O   0  0  0  0  0  0  0  0  0  0  0  0
    6.3301   -2.3846    0.0000 O   0  0  0  0  0  0  0  0  0  0  0  0
    8.0785   -2.4192    0.0000 O   0  0  0  0  0  0  0  0  0  0  0  0
    9.8602    0.6395    0.0000 O   0  0  0  0  0  0  0  0  0  0  0  0
    2.0000    2.1154    0.0000 O   0  0  0  0  0  0  0  0  0  0  0  0
    5.4641   -0.8846    0.0000 C   0  0  2  0  0  0  0  0  0  0  0  0
    5.4641    0.1154    0.0000 C   0  0  1  0  0  0  0  0  0  0  0  0
    6.3301   -1.3846    0.0000 C   0  0  2  0  0  0  0  0  0  0  0  0
    7.1962   -0.8846    0.0000 C   0  0  0  0  0  0  0  0  0  0  0  0
    7.1962    0.1154    0.0000 C   0  0  0  0  0  0  0  0  0  0  0  0
    4.5981    0.6154    0.0000 C   0  0  0  0  0  0  0  0  0  0  0  0
    8.0901   -1.4193    0.0000 C   0  0  0  0  0  0  0  0  0  0  0  0
    8.0901    0.6501    0.0000 C   0  0  0  0  0  0  0  0  0  0  0  0
    4.5981    1.6154    0.0000 C   0  0  0  0  0  0  0  0  0  0  0  0
    3.7320    0.1154    0.0000 C   0  0  0  0  0  0  0  0  0  0  0  0
    8.9962   -0.9054    0.0000 C   0  0  0  0  0  0  0  0  0  0  0  0
    8.9962    0.1362    0.0000 C   0  0  0  0  0  0  0  0  0  0  0  0
    3.7320    2.1154    0.0000 C   0  0  0  0  0  0  0  0  0  0  0  0
    2.8660    0.6154    0.0000 C   0  0  0  0  0  0  0  0  0  0  0  0
    2.8660    1.6154    0.0000 C   0  0  0  0  0  0  0  0  0  0  0  0
    5.4641   -1.5046    0.0000 H   0  0  0  0  0  0  0  0  0  0  0  0
    5.4641    0.7354    0.0000 H   0  0  0  0  0  0  0  0  0  0  0  0
    6.8671   -1.6946    0.0000 H   0  0  0  0  0  0  0  0  0  0  0  0
    8.0829    1.2700    0.0000 H   0  0  0  0  0  0  0  0  0  0  0  0
    4.5981   -2.0046    0.0000 H   0  0  0  0  0  0  0  0  0  0  0  0
    5.1350    1.9254    0.0000 H   0  0  0  0  0  0  0  0  0  0  0  0
    3.7320   -0.5046    0.0000 H   0  0  0  0  0  0  0  0  0  0  0  0
    5.7932   -2.6946    0.0000 H   0  0  0  0  0  0  0  0  0  0  0  0
    9.5319   -1.2175    0.0000 H   0  0  0  0  0  0  0  0  0  0  0  0
    3.7320    2.7354    0.0000 H   0  0  0  0  0  0  0  0  0  0  0  0
    2.3291    0.3054    0.0000 H   0  0  0  0  0  0  0  0  0  0  0  0
    8.6118   -2.7354    0.0000 H   0  0  0  0  0  0  0  0  0  0  0  0
   10.3984    0.3316    0.0000 H   0  0  0  0  0  0  0  0  0  0  0  0
    2.0000    2.7354    0.0000 H   0  0  0  0  0  0  0  0  0  0  0  0
  1  8  1  0  0  0  0
  1 11  1  0  0  0  0
  7  2  1  6  0  0  0
  2 26  1  0  0  0  0
  9  3  1  6  0  0  0
  3 29  1  0  0  0  0
  4 13  1  0  0  0  0
  4 33  1  0  0  0  0
  5 18  1  0  0  0  0
  5 34  1  0  0  0  0
  6 21  1  0  0  0  0
  6 35  1  0  0  0  0
  7  8  1  0  0  0  0
  7  9  1  0  0  0  0
  7 22  1  0  0  0  0
  8 12  1  1  0  0  0
  8 23  1  0  0  0  0
  9 10  1  0  0  0  0
  9 24  1  0  0  0  0
 10 11  1  0  0  0  0
 10 13  2  0  0  0  0
 11 14  2  0  0  0  0
 12 15  2  0  0  0  0
 12 16  1  0  0  0  0
 13 17  1  0  0  0  0
 14 18  1  0  0  0  0
 14 25  1  0  0  0  0
 15 19  1  0  0  0  0
 15 27  1  0  0  0  0
 16 20  2  0  0  0  0
 16 28  1  0  0  0  0
 17 18  2  0  0  0  0
 17 30  1  0  0  0  0
 19 21  2  0  0  0  0
 19 31  1  0  0  0  0
 20 21  1  0  0  0  0
 20 32  1  0  0  0  0
M  END
> <PUBCHEM_COMPOUND_CID>
440073

> <PUBCHEM_COMPOUND_CANONICALIZED>
1

> <PUBCHEM_CACTVS_COMPLEXITY>
356

> <PUBCHEM_CACTVS_HBOND_ACCEPTOR>
6

> <PUBCHEM_CACTVS_HBOND_DONOR>
5

> <PUBCHEM_CACTVS_ROTATABLE_BOND>
1

> <PUBCHEM_CACTVS_SUBSKEYS>
AAADccBwOAAAAAAAAAAAAAAAAAAAAAAAAAA0YIAAAAAAAACRQAAAGgAACAAADBSgmAIwBoAABgCAAiBCAAACCAAgIAAIiAAGCIgNNyKGMRqCeCClwBULuAfA4OwOIAAACAAIAABAAAAQABAAAAAAAAAAAA==

> <PUBCHEM_IUPAC_OPENEYE_NAME>
(2R,3S,4S)-2-(4-hydroxyphenyl)chromane-3,4,5,7-tetrol

> <PUBCHEM_IUPAC_CAS_NAME>
(2R,3S,4S)-2-(4-hydroxyphenyl)-3,4-dihydro-2H-1-benzopyran-3,4,5,7-tetrol

> <PUBCHEM_IUPAC_NAME>
(2R,3S,4S)-2-(4-hydroxyphenyl)-3,4-dihydro-2H-chromene-3,4,5,7-tetrol

> <PUBCHEM_IUPAC_SYSTEMATIC_NAME>
(2R,3S,4S)-2-(4-hydroxyphenyl)-3,4-dihydro-2H-chromene-3,4,5,7-tetrol

> <PUBCHEM_IUPAC_TRADITIONAL_NAME>
(2R,3S,4S)-2-(4-hydroxyphenyl)chroman-3,4,5,7-tetrol

> <PUBCHEM_IUPAC_INCHI>
InChI=1S/C15H14O6/c16-8-3-1-7(2-4-8)15-14(20)13(19)12-10(18)5-9(17)6-11(12)21-15/h1-6,13-20H/t13-,14-,15+/m0/s1

> <PUBCHEM_IUPAC_INCHIKEY>
FSVMLWOLZHGCQX-SOUVJXGZSA-N

> <PUBCHEM_XLOGP3_AA>
0.7

> <PUBCHEM_EXACT_MASS>
290.079038

> <PUBCHEM_MOLECULAR_FORMULA>
C15H14O6

> <PUBCHEM_MOLECULAR_WEIGHT>
290.26806

> <PUBCHEM_OPENEYE_CAN_SMILES>
C1=CC(=CC=C1C2C(C(C3=C(C=C(C=C3O2)O)O)O)O)O

> <PUBCHEM_OPENEYE_ISO_SMILES>
C1=CC(=CC=C1[C@@H]2[C@H]([C@H](C3=C(C=C(C=C3O2)O)O)O)O)O

> <PUBCHEM_CACTVS_TPSA>
110

> <PUBCHEM_MONOISOTOPIC_WEIGHT>
290.079038

> <PUBCHEM_TOTAL_CHARGE>
0

> <PUBCHEM_HEAVY_ATOM_COUNT>
21

> <PUBCHEM_ATOM_DEF_STEREO_COUNT>
3

> <PUBCHEM_ATOM_UDEF_STEREO_COUNT>
0

> <PUBCHEM_BOND_DEF_STEREO_COUNT>
0

> <PUBCHEM_BOND_UDEF_STEREO_COUNT>
0

> <PUBCHEM_ISOTOPIC_ATOM_COUNT>
0

> <PUBCHEM_COMPONENT_COUNT>
1

> <PUBCHEM_CACTVS_TAUTO_COUNT>
18

> <PUBCHEM_COORDINATE_TYPE>
1
5
255

> <PUBCHEM_BONDANNOTATIONS>
10  11  8
10  13  8
11  14  8
12  15  8
12  16  8
13  17  8
14  18  8
15  19  8
16  20  8
17  18  8
19  21  8
7  2  6
20  21  8
9  3  6
8  12  5

$$$$

