441730
  -OEChem-07051212553D

100108  0     1  0  0  0  0  0999 V2000
    1.8981    1.8619    1.4656 O   0  0  0  0  0  0  0  0  0  0  0  0
    3.4652    2.7422   -0.0540 O   0  0  0  0  0  0  0  0  0  0  0  0
    1.4988    1.8975   -1.7504 O   0  0  0  0  0  0  0  0  0  0  0  0
    2.9071   -3.4588    0.2486 O   0  0  0  0  0  0  0  0  0  0  0  0
    6.2090    1.8128   -1.2525 O   0  0  0  0  0  0  0  0  0  0  0  0
    7.0276    0.5298    1.4406 O   0  0  0  0  0  0  0  0  0  0  0  0
   -2.7138   -0.9144   -0.7595 O   0  0  0  0  0  0  0  0  0  0  0  0
   -4.0452    0.4732   -2.0253 O   0  0  0  0  0  0  0  0  0  0  0  0
   -3.8581    1.0993    1.5836 O   0  0  0  0  0  0  0  0  0  0  0  0
   -7.8891    1.7074   -0.6573 O   0  0  0  0  0  0  0  0  0  0  0  0
    0.9274   -1.0690    1.5648 N   0  0  2  0  0  0  0  0  0  0  0  0
   -5.8978    0.9640    0.3887 N   0  0  0  0  0  0  0  0  0  0  0  0
    2.2180   -1.2228   -0.5632 C   0  0  1  0  0  0  0  0  0  0  0  0
    2.2080    0.8999    0.4631 C   0  0  2  0  0  0  0  0  0  0  0  0
    2.1408   -0.6008    0.8658 C   0  0  1  0  0  0  0  0  0  0  0  0
    1.0101   -0.4425   -1.2074 C   0  0  2  0  0  0  0  0  0  0  0  0
    3.5980   -0.8366   -1.2692 C   0  0  1  0  0  0  0  0  0  0  0  0
    3.6382    1.3125    0.0699 C   0  0  1  0  0  0  0  0  0  0  0  0
    4.0314    0.6567   -1.2602 C   0  0  1  0  0  0  0  0  0  0  0  0
    1.1649    1.0126   -0.6945 C   0  0  2  0  0  0  0  0  0  0  0  0
   -0.3297   -1.0159   -0.6470 C   0  0  2  0  0  0  0  0  0  0  0  0
    2.0386   -2.7793   -0.6564 C   0  0  2  0  0  0  0  0  0  0  0  0
    4.8590   -1.5631   -0.7304 C   0  0  0  0  0  0  0  0  0  0  0  0
    5.9088   -0.4800   -0.4473 C   0  0  1  0  0  0  0  0  0  0  0  0
    5.5455    0.5853   -1.4677 C   0  0  2  0  0  0  0  0  0  0  0  0
    4.7123    1.1385    1.1903 C   0  0  0  0  0  0  0  0  0  0  0  0
   -0.3583   -0.8026    0.9013 C   0  0  0  0  0  0  0  0  0  0  0  0
    5.7604    0.0331    0.9949 C   0  0  2  0  0  0  0  0  0  0  0  0
   -0.4408   -2.5069   -1.0189 C   0  0  0  0  0  0  0  0  0  0  0  0
    0.6481   -3.3451   -0.3974 C   0  0  0  0  0  0  0  0  0  0  0  0
   -1.5508   -0.3184   -1.2881 C   0  0  0  0  0  0  0  0  0  0  0  0
    2.5196    3.0657    0.9838 C   0  0  0  0  0  0  0  0  0  0  0  0
    0.8946   -0.6989    2.9741 C   0  0  0  0  0  0  0  0  0  0  0  0
    0.3538    2.2624   -2.5110 C   0  0  0  0  0  0  0  0  0  0  0  0
   -0.1732   -1.4792    3.7219 C   0  0  0  0  0  0  0  0  0  0  0  0
    3.2523   -4.7472   -0.2361 C   0  0  0  0  0  0  0  0  0  0  0  0
    7.5437    1.7897   -1.7502 C   0  0  0  0  0  0  0  0  0  0  0  0
    7.1350    0.4617    2.8521 C   0  0  0  0  0  0  0  0  0  0  0  0
   -3.9083   -0.4265   -1.2109 C   0  0  0  0  0  0  0  0  0  0  0  0
   -5.0507   -1.1340   -0.5794 C   0  0  0  0  0  0  0  0  0  0  0  0
   -5.9961   -0.4504    0.1856 C   0  0  0  0  0  0  0  0  0  0  0  0
   -5.1677   -2.5116   -0.7646 C   0  0  0  0  0  0  0  0  0  0  0  0
   -7.0583   -1.1447    0.7649 C   0  0  0  0  0  0  0  0  0  0  0  0
   -6.2298   -3.2056   -0.1852 C   0  0  0  0  0  0  0  0  0  0  0  0
   -7.1750   -2.5223    0.5797 C   0  0  0  0  0  0  0  0  0  0  0  0
   -4.8193    1.5882    1.0044 C   0  0  0  0  0  0  0  0  0  0  0  0
   -6.8708    1.8761   -0.0002 C   0  0  0  0  0  0  0  0  0  0  0  0
   -5.0004    3.0786    0.8588 C   0  0  2  0  0  0  0  0  0  0  0  0
   -6.4773    3.2230    0.5364 C   0  0  0  0  0  0  0  0  0  0  0  0
   -4.1039    3.6044   -0.2547 C   0  0  0  0  0  0  0  0  0  0  0  0
    3.0086   -0.9085    1.4563 H   0  0  0  0  0  0  0  0  0  0  0  0
    1.0421   -0.5192   -2.3003 H   0  0  0  0  0  0  0  0  0  0  0  0
    3.4960   -1.1271   -2.3259 H   0  0  0  0  0  0  0  0  0  0  0  0
    3.6188    1.2032   -2.1120 H   0  0  0  0  0  0  0  0  0  0  0  0
    0.2518    1.4172   -0.2493 H   0  0  0  0  0  0  0  0  0  0  0  0
    2.3000   -3.0474   -1.6908 H   0  0  0  0  0  0  0  0  0  0  0  0
    4.6983   -2.1559    0.1676 H   0  0  0  0  0  0  0  0  0  0  0  0
    5.2315   -2.2461   -1.5043 H   0  0  0  0  0  0  0  0  0  0  0  0
    6.9206   -0.8707   -0.6014 H   0  0  0  0  0  0  0  0  0  0  0  0
    5.7437    0.2289   -2.4890 H   0  0  0  0  0  0  0  0  0  0  0  0
    4.2280    0.9893    2.1644 H   0  0  0  0  0  0  0  0  0  0  0  0
    5.2431    2.0949    1.3116 H   0  0  0  0  0  0  0  0  0  0  0  0
   -0.7001    0.2119    1.1427 H   0  0  0  0  0  0  0  0  0  0  0  0
   -1.1251   -1.4748    1.3056 H   0  0  0  0  0  0  0  0  0  0  0  0
    5.4955   -0.8215    1.6313 H   0  0  0  0  0  0  0  0  0  0  0  0
   -0.3990   -2.6182   -2.1109 H   0  0  0  0  0  0  0  0  0  0  0  0
   -1.4029   -2.9297   -0.7050 H   0  0  0  0  0  0  0  0  0  0  0  0
    0.4709   -3.4786    0.6768 H   0  0  0  0  0  0  0  0  0  0  0  0
    0.5722   -4.3584   -0.8110 H   0  0  0  0  0  0  0  0  0  0  0  0
   -1.5346   -0.4452   -2.3776 H   0  0  0  0  0  0  0  0  0  0  0  0
   -1.5786    0.7506   -1.0607 H   0  0  0  0  0  0  0  0  0  0  0  0
    1.7579    3.7381    0.5778 H   0  0  0  0  0  0  0  0  0  0  0  0
    3.0354    3.5607    1.8119 H   0  0  0  0  0  0  0  0  0  0  0  0
    0.7236    0.3736    3.1155 H   0  0  0  0  0  0  0  0  0  0  0  0
    1.8595   -0.9359    3.4388 H   0  0  0  0  0  0  0  0  0  0  0  0
    0.6732    2.9853   -3.2672 H   0  0  0  0  0  0  0  0  0  0  0  0
   -0.4010    2.7458   -1.8831 H   0  0  0  0  0  0  0  0  0  0  0  0
   -0.0675    1.4006   -3.0333 H   0  0  0  0  0  0  0  0  0  0  0  0
   -0.0996   -2.5543    3.5251 H   0  0  0  0  0  0  0  0  0  0  0  0
   -1.1850   -1.1430    3.4746 H   0  0  0  0  0  0  0  0  0  0  0  0
   -0.0466   -1.3339    4.8005 H   0  0  0  0  0  0  0  0  0  0  0  0
    2.3904   -5.4188   -0.2536 H   0  0  0  0  0  0  0  0  0  0  0  0
    3.7120   -4.6876   -1.2277 H   0  0  0  0  0  0  0  0  0  0  0  0
    3.9900   -5.1748    0.4494 H   0  0  0  0  0  0  0  0  0  0  0  0
    8.1430    1.0319   -1.2383 H   0  0  0  0  0  0  0  0  0  0  0  0
    7.5488    1.6118   -2.8299 H   0  0  0  0  0  0  0  0  0  0  0  0
    7.9927    2.7684   -1.5600 H   0  0  0  0  0  0  0  0  0  0  0  0
    6.3666    1.0651    3.3439 H   0  0  0  0  0  0  0  0  0  0  0  0
    7.0797   -0.5757    3.1969 H   0  0  0  0  0  0  0  0  0  0  0  0
    8.1125    0.8610    3.1374 H   0  0  0  0  0  0  0  0  0  0  0  0
   -4.4402   -3.0571   -1.3605 H   0  0  0  0  0  0  0  0  0  0  0  0
   -7.8005   -0.6265    1.3667 H   0  0  0  0  0  0  0  0  0  0  0  0
   -6.3211   -4.2781   -0.3298 H   0  0  0  0  0  0  0  0  0  0  0  0
   -8.0015   -3.0629    1.0315 H   0  0  0  0  0  0  0  0  0  0  0  0
   -4.7619    3.5774    1.8038 H   0  0  0  0  0  0  0  0  0  0  0  0
   -6.6811    4.0093   -0.1957 H   0  0  0  0  0  0  0  0  0  0  0  0
   -7.0629    3.4117    1.4428 H   0  0  0  0  0  0  0  0  0  0  0  0
   -3.0499    3.4070   -0.0300 H   0  0  0  0  0  0  0  0  0  0  0  0
   -4.2296    4.6854   -0.3739 H   0  0  0  0  0  0  0  0  0  0  0  0
   -4.3280    3.1293   -1.2158 H   0  0  0  0  0  0  0  0  0  0  0  0
  1 14  1  0  0  0  0
  1 32  1  0  0  0  0
  2 18  1  0  0  0  0
  2 32  1  0  0  0  0
  3 20  1  0  0  0  0
  3 34  1  0  0  0  0
  4 22  1  0  0  0  0
  4 36  1  0  0  0  0
  5 25  1  0  0  0  0
  5 37  1  0  0  0  0
  6 28  1  0  0  0  0
  6 38  1  0  0  0  0
  7 31  1  0  0  0  0
  7 39  1  0  0  0  0
  8 39  2  0  0  0  0
  9 46  2  0  0  0  0
 10 47  2  0  0  0  0
 11 15  1  0  0  0  0
 11 27  1  0  0  0  0
 11 33  1  0  0  0  0
 12 41  1  0  0  0  0
 12 46  1  0  0  0  0
 12 47  1  0  0  0  0
 13 15  1  0  0  0  0
 13 16  1  0  0  0  0
 13 17  1  0  0  0  0
 13 22  1  0  0  0  0
 14 15  1  0  0  0  0
 14 18  1  0  0  0  0
 14 20  1  0  0  0  0
 15 51  1  0  0  0  0
 16 20  1  0  0  0  0
 16 21  1  0  0  0  0
 16 52  1  0  0  0  0
 17 19  1  0  0  0  0
 17 23  1  0  0  0  0
 17 53  1  0  0  0  0
 18 19  1  0  0  0  0
 18 26  1  0  0  0  0
 19 25  1  0  0  0  0
 19 54  1  0  0  0  0
 20 55  1  0  0  0  0
 21 27  1  0  0  0  0
 21 29  1  0  0  0  0
 21 31  1  0  0  0  0
 22 30  1  0  0  0  0
 22 56  1  0  0  0  0
 23 24  1  0  0  0  0
 23 57  1  0  0  0  0
 23 58  1  0  0  0  0
 24 25  1  0  0  0  0
 24 28  1  0  0  0  0
 24 59  1  0  0  0  0
 25 60  1  0  0  0  0
 26 28  1  0  0  0  0
 26 61  1  0  0  0  0
 26 62  1  0  0  0  0
 27 63  1  0  0  0  0
 27 64  1  0  0  0  0
 28 65  1  0  0  0  0
 29 30  1  0  0  0  0
 29 66  1  0  0  0  0
 29 67  1  0  0  0  0
 30 68  1  0  0  0  0
 30 69  1  0  0  0  0
 31 70  1  0  0  0  0
 31 71  1  0  0  0  0
 32 72  1  0  0  0  0
 32 73  1  0  0  0  0
 33 35  1  0  0  0  0
 33 74  1  0  0  0  0
 33 75  1  0  0  0  0
 34 76  1  0  0  0  0
 34 77  1  0  0  0  0
 34 78  1  0  0  0  0
 35 79  1  0  0  0  0
 35 80  1  0  0  0  0
 35 81  1  0  0  0  0
 36 82  1  0  0  0  0
 36 83  1  0  0  0  0
 36 84  1  0  0  0  0
 37 85  1  0  0  0  0
 37 86  1  0  0  0  0
 37 87  1  0  0  0  0
 38 88  1  0  0  0  0
 38 89  1  0  0  0  0
 38 90  1  0  0  0  0
 39 40  1  0  0  0  0
 40 41  1  0  0  0  0
 40 42  2  0  0  0  0
 41 43  2  0  0  0  0
 42 44  1  0  0  0  0
 42 91  1  0  0  0  0
 43 45  1  0  0  0  0
 43 92  1  0  0  0  0
 44 45  2  0  0  0  0
 44 93  1  0  0  0  0
 45 94  1  0  0  0  0
 46 48  1  0  0  0  0
 47 49  1  0  0  0  0
 48 49  1  0  0  0  0
 48 50  1  0  0  0  0
 48 95  1  0  0  0  0
 49 96  1  0  0  0  0
 49 97  1  0  0  0  0
 50 98  1  0  0  0  0
 50 99  1  0  0  0  0
 50100  1  0  0  0  0
M  END
> <PUBCHEM_COMPOUND_CID>
441730

> <PUBCHEM_CONFORMER_RMSD>
1.4

> <PUBCHEM_CONFORMER_DIVERSEORDER>
1
16
14
7
3
8
13
12
10
6
9
15
11
5
4
2

> <PUBCHEM_MMFF94_PARTIAL_CHARGES>
42
1 -0.56
10 -0.57
11 -0.81
12 -0.24
14 0.28
15 0.27
18 0.28
2 -0.56
20 0.28
22 0.28
25 0.28
27 0.27
28 0.28
3 -0.56
31 0.28
32 0.56
33 0.27
34 0.28
36 0.28
37 0.28
38 0.28
39 0.63
4 -0.56
40 0.09
41 0.12
42 -0.15
43 -0.15
44 -0.15
45 -0.15
46 0.57
47 0.57
48 0.06
49 0.06
5 -0.56
6 -0.56
7 -0.43
8 -0.57
9 -0.57
91 0.15
92 0.15
93 0.15
94 0.15

> <PUBCHEM_EFFECTIVE_ROTOR_COUNT>
13.2

> <PUBCHEM_PHARMACOPHORE_FEATURES>
17
1 1 acceptor
1 10 acceptor
1 11 cation
1 2 acceptor
1 3 acceptor
1 4 acceptor
1 5 acceptor
1 6 acceptor
1 8 acceptor
1 9 acceptor
5 1 2 14 18 32 rings
5 12 46 47 48 49 rings
6 13 16 21 22 29 30 rings
6 40 41 42 43 44 45 rings
8 11 13 14 15 16 20 21 27 rings
8 13 14 15 16 17 18 19 20 rings
8 17 18 19 23 24 25 26 28 rings

> <PUBCHEM_HEAVY_ATOM_COUNT>
50

> <PUBCHEM_ATOM_DEF_STEREO_COUNT>
12

> <PUBCHEM_ATOM_UDEF_STEREO_COUNT>
2

> <PUBCHEM_BOND_DEF_STEREO_COUNT>
0

> <PUBCHEM_BOND_UDEF_STEREO_COUNT>
0

> <PUBCHEM_ISOTOPIC_ATOM_COUNT>
0

> <PUBCHEM_COMPONENT_COUNT>
1

> <PUBCHEM_CACTVS_TAUTO_COUNT>
4

> <PUBCHEM_CONFORMER_ID>
0006BD8200000001

> <PUBCHEM_MMFF94_ENERGY>
251.937

> <PUBCHEM_FEATURE_SELFOVERLAP>
87.901

> <PUBCHEM_SHAPE_FINGERPRINT>
11456790 92 18261968401201294290
12107698 1 18341048519627712061
13782708 43 15697729202323629546
13811026 1 18335703874750607075
14118638 360 18408039620257527031
14295345 954 18412821370166173675
14849402 71 18267578022635694924
15001296 14 18411142424785941441
15183329 4 18040713666751850253
16112460 7 18340769359739113963
18608769 82 18187083906786475247
21814621 53 18040997375227469234
22121540 332 17386868255699732512
3178227 256 18337956693004583698
4073 2 18343574145182256147
4144715 1 18337659915281326903
5776283 40 18191577554616223568
6086070 43 16298688135056810331
6703917 75 18198046007233659910
77296 10 18261667160194203995

> <PUBCHEM_SHAPE_MULTIPOLES>
960.32
20.21
4.3
2.24
15.15
1.38
1.51
-6.18
1.09
2.98
-0.3
-2.35
-0.22
-0.58

> <PUBCHEM_SHAPE_SELFOVERLAP>
2128.081

> <PUBCHEM_SHAPE_VOLUME>
504.6

> <PUBCHEM_COORDINATE_TYPE>
2
5
10

$$$$

