6915739
  -OEChem-07051212573D

 35 38  0     1  0  0  0  0  0999 V2000
    1.6505    2.0625    1.2940 O   0  0  0  0  0  0  0  0  0  0  0  0
    0.2629    1.2824   -1.1242 O   0  0  0  0  0  0  0  0  0  0  0  0
    2.4431    1.2778   -1.8874 O   0  0  0  0  0  0  0  0  0  0  0  0
   -3.0285   -1.4237    0.1431 O   0  0  0  0  0  0  0  0  0  0  0  0
    1.9668    0.9645    0.4307 C   0  0  2  0  0  0  0  0  0  0  0  0
    0.6710    1.0194    1.1824 C   0  0  2  0  0  0  0  0  0  0  0  0
   -0.4036    1.2471    0.1703 C   0  0  2  0  0  0  0  0  0  0  0  0
    3.0913    0.0828    0.9011 C   0  0  0  0  0  0  0  0  0  0  0  0
    1.6251    1.1949   -0.9855 C   0  0  0  0  0  0  0  0  0  0  0  0
   -1.5918    0.3249    0.1469 C   0  0  0  0  0  0  0  0  0  0  0  0
    2.9793   -1.3589    0.3733 C   0  0  0  0  0  0  0  0  0  0  0  0
   -1.7104   -1.0632    0.2223 C   0  0  0  0  0  0  0  0  0  0  0  0
   -2.9353    0.8015    0.0035 C   0  0  0  0  0  0  0  0  0  0  0  0
    1.6166   -1.8962    0.6944 C   0  0  0  0  0  0  0  0  0  0  0  0
   -0.7960   -2.2385    0.3900 C   0  0  0  0  0  0  0  0  0  0  0  0
    0.5986   -2.0897   -0.1655 C   0  0  0  0  0  0  0  0  0  0  0  0
   -3.7572   -0.2942    0.0091 C   0  0  0  0  0  0  0  0  0  0  0  0
   -3.3836    2.2025   -0.1329 C   0  0  0  0  0  0  0  0  0  0  0  0
    0.7012   -2.0958   -1.6656 C   0  0  0  0  0  0  0  0  0  0  0  0
    0.4502    0.4206    2.0482 H   0  0  0  0  0  0  0  0  0  0  0  0
   -0.7675    2.2692    0.3319 H   0  0  0  0  0  0  0  0  0  0  0  0
    3.1226    0.0665    1.9986 H   0  0  0  0  0  0  0  0  0  0  0  0
    4.0449    0.5107    0.5701 H   0  0  0  0  0  0  0  0  0  0  0  0
    3.7408   -1.9874    0.8483 H   0  0  0  0  0  0  0  0  0  0  0  0
    3.1903   -1.3685   -0.6989 H   0  0  0  0  0  0  0  0  0  0  0  0
    1.4075   -1.9551    1.7625 H   0  0  0  0  0  0  0  0  0  0  0  0
   -0.7620   -2.4685    1.4636 H   0  0  0  0  0  0  0  0  0  0  0  0
   -1.2537   -3.1220   -0.0755 H   0  0  0  0  0  0  0  0  0  0  0  0
   -4.8258   -0.4320   -0.0701 H   0  0  0  0  0  0  0  0  0  0  0  0
   -2.8833    2.6889   -0.9766 H   0  0  0  0  0  0  0  0  0  0  0  0
   -4.4631    2.2636   -0.3075 H   0  0  0  0  0  0  0  0  0  0  0  0
   -3.1604    2.7686    0.7772 H   0  0  0  0  0  0  0  0  0  0  0  0
    1.7268   -2.0182   -2.0317 H   0  0  0  0  0  0  0  0  0  0  0  0
    0.1272   -1.2741   -2.1029 H   0  0  0  0  0  0  0  0  0  0  0  0
    0.2972   -3.0354   -2.0582 H   0  0  0  0  0  0  0  0  0  0  0  0
  1  5  1  0  0  0  0
  1  6  1  0  0  0  0
  2  7  1  0  0  0  0
  2  9  1  0  0  0  0
  3  9  2  0  0  0  0
  4 12  1  0  0  0  0
  4 17  1  0  0  0  0
  5  6  1  0  0  0  0
  5  8  1  0  0  0  0
  5  9  1  0  0  0  0
  6  7  1  0  0  0  0
  6 20  1  0  0  0  0
  7 10  1  0  0  0  0
  7 21  1  0  0  0  0
  8 11  1  0  0  0  0
  8 22  1  0  0  0  0
  8 23  1  0  0  0  0
 10 12  2  0  0  0  0
 10 13  1  0  0  0  0
 11 14  1  0  0  0  0
 11 24  1  0  0  0  0
 11 25  1  0  0  0  0
 12 15  1  0  0  0  0
 13 17  2  0  0  0  0
 13 18  1  0  0  0  0
 14 16  2  0  0  0  0
 14 26  1  0  0  0  0
 15 16  1  0  0  0  0
 15 27  1  0  0  0  0
 15 28  1  0  0  0  0
 16 19  1  0  0  0  0
 17 29  1  0  0  0  0
 18 30  1  0  0  0  0
 18 31  1  0  0  0  0
 18 32  1  0  0  0  0
 19 33  1  0  0  0  0
 19 34  1  0  0  0  0
 19 35  1  0  0  0  0
M  END
> <PUBCHEM_COMPOUND_CID>
6915739

> <PUBCHEM_CONFORMER_RMSD>
0.6

> <PUBCHEM_CONFORMER_DIVERSEORDER>
1
3
2

> <PUBCHEM_MMFF94_PARTIAL_CHARGES>
22
1 -0.3
10 -0.18
11 0.14
12 -0.04
13 -0.18
14 -0.29
15 0.32
16 -0.28
17 -0.01
18 0.18
19 0.14
2 -0.43
20 0.1
26 0.15
29 0.15
3 -0.57
4 -0.28
5 0.05
6 -0.05
7 0.56
8 0.09
9 0.72

> <PUBCHEM_EFFECTIVE_ROTOR_COUNT>
1

> <PUBCHEM_PHARMACOPHORE_FEATURES>
5
1 1 acceptor
1 3 acceptor
1 4 acceptor
5 4 10 12 13 17 rings
6 1 2 5 6 7 9 rings

> <PUBCHEM_HEAVY_ATOM_COUNT>
19

> <PUBCHEM_ATOM_DEF_STEREO_COUNT>
3

> <PUBCHEM_ATOM_UDEF_STEREO_COUNT>
0

> <PUBCHEM_BOND_DEF_STEREO_COUNT>
1

> <PUBCHEM_BOND_UDEF_STEREO_COUNT>
0

> <PUBCHEM_ISOTOPIC_ATOM_COUNT>
0

> <PUBCHEM_COMPONENT_COUNT>
1

> <PUBCHEM_CACTVS_TAUTO_COUNT>
1

> <PUBCHEM_CONFORMER_ID>
0069869B00000001

> <PUBCHEM_MMFF94_ENERGY>
32.776

> <PUBCHEM_FEATURE_SELFOVERLAP>
25.372

> <PUBCHEM_SHAPE_FINGERPRINT>
10863032 1 18411704309085774266
10948715 1 18337955584792056728
10967382 1 18049728713185855211
11132069 177 18263937694449727186
12011746 2 18339086007120315566
12382932 28 18262805205957271619
13132413 78 18267307706014900846
13140716 1 18339358699173404923
14181834 199 18337401555174551031
144361 1 18267561586159284374
14817 1 11726596977180137198
15196674 1 18338523039934206114
15775835 57 18262237690369276930
15881359 60 17840910388130102790
16945 1 18126001559821235275
17093844 170 17193774389792947925
20233049 118 18408886243814833912
20473742 2 16773794762818608502
20511035 2 18338802212808510882
20600515 1 17908140237006049446
20645476 183 17771619053657469022
20691752 17 17560794485422503455
20905425 154 18336820884260244167
21501502 16 18412823607928426751
22721475 48 18268147741456872787
2334 1 18411697686499313923
23419403 2 17765189380441413684
23463225 33 18343304777237668451
23526113 38 17534308259484335084
23559900 14 18188760658024462516
238 59 17619675604948637381
2748010 2 18411978104945835135
350125 39 18412539947019181849
495365 180 17751671894332587689
5939293 188 18263936590521481544
7364860 26 18187364393345331151
81228 2 17181091020813353851
84936 31 16589153912056954294
90525 40 18271518685383813197

> <PUBCHEM_SHAPE_MULTIPOLES>
367.53
5.21
2.7
1.25
3.26
0.61
-0.46
-0.76
0.37
-0.21
-0.14
-0.91
-0.21
0.05

> <PUBCHEM_SHAPE_SELFOVERLAP>
804.498

> <PUBCHEM_SHAPE_VOLUME>
201.8

> <PUBCHEM_COORDINATE_TYPE>
2
5
10

$$$$

