6436726
  -OEChem-07051213052D

 95 98  0     1  0  0  0  0  0999 V2000
    7.1311   -2.4346    0.0000 O   0  0  0  0  0  0  0  0  0  0  0  0
    5.1514   -0.0887    0.0000 O   0  0  0  0  0  0  0  0  0  0  0  0
    2.9106   -2.6008    0.0000 O   0  0  0  0  0  0  0  0  0  0  0  0
    8.8592   -2.5522    0.0000 O   0  0  0  0  0  0  0  0  0  0  0  0
   11.2925   -1.2484    0.0000 O   0  0  0  0  0  0  0  0  0  0  0  0
   11.7655    0.6571    0.0000 O   0  0  0  0  0  0  0  0  0  0  0  0
    5.8260   -3.5733    0.0000 O   0  0  0  0  0  0  0  0  0  0  0  0
   10.6824   -1.0982    0.0000 O   0  0  0  0  0  0  0  0  0  0  0  0
   10.1625    3.8242    0.0000 O   0  0  0  0  0  0  0  0  0  0  0  0
    9.2743    0.2996    0.0000 O   0  0  0  0  0  0  0  0  0  0  0  0
    8.4141    3.8588    0.0000 O   0  0  0  0  0  0  0  0  0  0  0  0
    6.5367    0.3728    0.0000 O   0  0  0  0  0  0  0  0  0  0  0  0
    6.5985    1.9049    0.0000 N   0  0  0  0  0  0  0  0  0  0  0  0
    6.1084   -0.8957    0.0000 C   0  0  2  0  0  0  0  0  0  0  0  0
    5.1271   -1.0884    0.0000 C   0  0  1  0  0  0  0  0  0  0  0  0
    6.9385   -1.4533    0.0000 C   0  0  1  0  0  0  0  0  0  0  0  0
    4.5695   -1.9184    0.0000 C   0  0  1  0  0  0  0  0  0  0  0  0
    7.8364   -1.0133    0.0000 C   0  0  1  0  0  0  0  0  0  0  0  0
    3.5718   -1.8506    0.0000 C   0  0  2  0  0  0  0  0  0  0  0  0
    6.9412   -0.3422    0.0000 C   0  0  0  0  0  0  0  0  0  0  0  0
    8.6665   -1.5709    0.0000 C   0  0  2  0  0  0  0  0  0  0  0  0
    2.9143   -1.0971    0.0000 C   0  0  1  0  0  0  0  0  0  0  0  0
    4.4149   -2.9064    0.0000 C   0  0  0  0  0  0  0  0  0  0  0  0
    8.8177   -0.8206    0.0000 C   0  0  0  0  0  0  0  0  0  0  0  0
    2.0000   -0.6921    0.0000 C   0  0  0  0  0  0  0  0  0  0  0  0
    9.5645   -1.1308    0.0000 C   0  0  0  0  0  0  0  0  0  0  0  0
    3.2381   -0.1510    0.0000 C   0  0  0  0  0  0  0  0  0  0  0  0
    6.8073   -3.3807    0.0000 C   0  0  0  0  0  0  0  0  0  0  0  0
   10.3946   -1.6884    0.0000 C   0  0  0  0  0  0  0  0  0  0  0  0
    4.1361    0.2891    0.0000 C   0  0  0  0  0  0  0  0  0  0  0  0
    9.8053   -2.8759    0.0000 C   0  0  0  0  0  0  0  0  0  0  0  0
   11.3604   -0.2507    0.0000 C   0  0  1  0  0  0  0  0  0  0  0  0
    7.4649   -4.1342    0.0000 C   0  0  0  0  0  0  0  0  0  0  0  0
   10.1625    0.8242    0.0000 C   0  0  0  0  0  0  0  0  0  0  0  0
   10.3717   -0.1476    0.0000 C   0  0  0  0  0  0  0  0  0  0  0  0
   11.0285    1.3242    0.0000 C   0  0  0  0  0  0  0  0  0  0  0  0
    9.2965    1.3242    0.0000 C   0  0  0  0  0  0  0  0  0  0  0  0
   12.3308   -0.4921    0.0000 C   0  0  0  0  0  0  0  0  0  0  0  0
    4.2039    1.2868    0.0000 C   0  0  0  0  0  0  0  0  0  0  0  0
   11.0285    2.3242    0.0000 C   0  0  0  0  0  0  0  0  0  0  0  0
    9.2965    2.3242    0.0000 C   0  0  0  0  0  0  0  0  0  0  0  0
   10.1625    2.8242    0.0000 C   0  0  0  0  0  0  0  0  0  0  0  0
    5.1019    1.7269    0.0000 C   0  0  0  0  0  0  0  0  0  0  0  0
    8.4025    0.7895    0.0000 C   0  0  0  0  0  0  0  0  0  0  0  0
    8.4025    2.8588    0.0000 C   0  0  0  0  0  0  0  0  0  0  0  0
    7.4965    2.3450    0.0000 C   0  0  0  0  0  0  0  0  0  0  0  0
   11.8945    2.8242    0.0000 C   0  0  0  0  0  0  0  0  0  0  0  0
    7.4965    1.3034    0.0000 C   0  0  0  0  0  0  0  0  0  0  0  0
    5.9320    1.1692    0.0000 C   0  0  0  0  0  0  0  0  0  0  0  0
    5.1698    2.7245    0.0000 C   0  0  0  0  0  0  0  0  0  0  0  0
    6.0694   -0.2769    0.0000 H   0  0  0  0  0  0  0  0  0  0  0  0
    4.5193   -0.9659    0.0000 H   0  0  0  0  0  0  0  0  0  0  0  0
    6.4714   -1.8610    0.0000 H   0  0  0  0  0  0  0  0  0  0  0  0
    4.9771   -2.3856    0.0000 H   0  0  0  0  0  0  0  0  0  0  0  0
    7.7170   -0.4049    0.0000 H   0  0  0  0  0  0  0  0  0  0  0  0
    3.6647   -2.4636    0.0000 H   0  0  0  0  0  0  0  0  0  0  0  0
    7.2844   -0.8586    0.0000 H   0  0  0  0  0  0  0  0  0  0  0  0
    7.4576    0.0010    0.0000 H   0  0  0  0  0  0  0  0  0  0  0  0
    6.5980    0.1742    0.0000 H   0  0  0  0  0  0  0  0  0  0  0  0
    8.2773   -2.0535    0.0000 H   0  0  0  0  0  0  0  0  0  0  0  0
    2.3576   -1.3699    0.0000 H   0  0  0  0  0  0  0  0  0  0  0  0
    3.8024   -2.8106    0.0000 H   0  0  0  0  0  0  0  0  0  0  0  0
    4.3191   -3.5190    0.0000 H   0  0  0  0  0  0  0  0  0  0  0  0
    5.0275   -3.0023    0.0000 H   0  0  0  0  0  0  0  0  0  0  0  0
    8.9372   -1.4290    0.0000 H   0  0  0  0  0  0  0  0  0  0  0  0
    9.4261   -0.7012    0.0000 H   0  0  0  0  0  0  0  0  0  0  0  0
    8.6982   -0.2122    0.0000 H   0  0  0  0  0  0  0  0  0  0  0  0
    5.6957    0.2082    0.0000 H   0  0  0  0  0  0  0  0  0  0  0  0
    2.2511   -0.1252    0.0000 H   0  0  0  0  0  0  0  0  0  0  0  0
    1.4331   -0.4410    0.0000 H   0  0  0  0  0  0  0  0  0  0  0  0
    1.7489   -1.2590    0.0000 H   0  0  0  0  0  0  0  0  0  0  0  0
    9.6066   -0.5123    0.0000 H   0  0  0  0  0  0  0  0  0  0  0  0
    2.3028   -2.4783    0.0000 H   0  0  0  0  0  0  0  0  0  0  0  0
    2.7730    0.2590    0.0000 H   0  0  0  0  0  0  0  0  0  0  0  0
   10.3525   -2.3070    0.0000 H   0  0  0  0  0  0  0  0  0  0  0  0
    4.5014   -0.2118    0.0000 H   0  0  0  0  0  0  0  0  0  0  0  0
    9.6046   -3.4625    0.0000 H   0  0  0  0  0  0  0  0  0  0  0  0
   10.3919   -3.0767    0.0000 H   0  0  0  0  0  0  0  0  0  0  0  0
   10.0061   -2.2893    0.0000 H   0  0  0  0  0  0  0  0  0  0  0  0
    6.9978   -4.5418    0.0000 H   0  0  0  0  0  0  0  0  0  0  0  0
    7.8726   -4.6013    0.0000 H   0  0  0  0  0  0  0  0  0  0  0  0
    7.9320   -3.7265    0.0000 H   0  0  0  0  0  0  0  0  0  0  0  0
   12.1812   -1.0938    0.0000 H   0  0  0  0  0  0  0  0  0  0  0  0
   12.9325   -0.6418    0.0000 H   0  0  0  0  0  0  0  0  0  0  0  0
   12.4805    0.1095    0.0000 H   0  0  0  0  0  0  0  0  0  0  0  0
    3.6893    1.6325    0.0000 H   0  0  0  0  0  0  0  0  0  0  0  0
   12.2045    2.2872    0.0000 H   0  0  0  0  0  0  0  0  0  0  0  0
   12.4315    3.1342    0.0000 H   0  0  0  0  0  0  0  0  0  0  0  0
   11.5845    3.3611    0.0000 H   0  0  0  0  0  0  0  0  0  0  0  0
    6.9607    0.9913    0.0000 H   0  0  0  0  0  0  0  0  0  0  0  0
    6.2163    2.3931    0.0000 H   0  0  0  0  0  0  0  0  0  0  0  0
    5.7884    2.6825    0.0000 H   0  0  0  0  0  0  0  0  0  0  0  0
    5.2119    3.3431    0.0000 H   0  0  0  0  0  0  0  0  0  0  0  0
    4.5512    2.7666    0.0000 H   0  0  0  0  0  0  0  0  0  0  0  0
   10.6994    4.1342    0.0000 H   0  0  0  0  0  0  0  0  0  0  0  0
 16  1  1  1  0  0  0
  1 28  1  0  0  0  0
 15  2  1  1  0  0  0
  2 68  1  0  0  0  0
 19  3  1  1  0  0  0
  3 73  1  0  0  0  0
 21  4  1  6  0  0  0
  4 31  1  0  0  0  0
  5 29  1  0  0  0  0
  5 32  1  0  0  0  0
  6 32  1  0  0  0  0
  6 36  1  0  0  0  0
  7 28  2  0  0  0  0
  8 35  2  0  0  0  0
  9 42  1  0  0  0  0
  9 95  1  0  0  0  0
 10 44  2  0  0  0  0
 11 45  2  0  0  0  0
 12 49  2  0  0  0  0
 13 46  1  0  0  0  0
 13 49  1  0  0  0  0
 13 91  1  0  0  0  0
 14 15  1  0  0  0  0
 14 16  1  0  0  0  0
 14 20  1  1  0  0  0
 14 51  1  0  0  0  0
 15 17  1  0  0  0  0
 15 52  1  0  0  0  0
 16 18  1  0  0  0  0
 16 53  1  0  0  0  0
 17 19  1  0  0  0  0
 17 23  1  6  0  0  0
 17 54  1  0  0  0  0
 18 21  1  0  0  0  0
 18 24  1  6  0  0  0
 18 55  1  0  0  0  0
 19 22  1  0  0  0  0
 19 56  1  0  0  0  0
 20 57  1  0  0  0  0
 20 58  1  0  0  0  0
 20 59  1  0  0  0  0
 21 26  1  0  0  0  0
 21 60  1  0  0  0  0
 22 25  1  1  0  0  0
 22 27  1  0  0  0  0
 22 61  1  0  0  0  0
 23 62  1  0  0  0  0
 23 63  1  0  0  0  0
 23 64  1  0  0  0  0
 24 65  1  0  0  0  0
 24 66  1  0  0  0  0
 24 67  1  0  0  0  0
 25 69  1  0  0  0  0
 25 70  1  0  0  0  0
 25 71  1  0  0  0  0
 26 29  2  0  0  0  0
 26 72  1  0  0  0  0
 27 30  2  0  0  0  0
 27 74  1  0  0  0  0
 28 33  1  0  0  0  0
 29 75  1  0  0  0  0
 30 39  1  0  0  0  0
 30 76  1  0  0  0  0
 31 77  1  0  0  0  0
 31 78  1  0  0  0  0
 31 79  1  0  0  0  0
 32 35  1  0  0  0  0
 32 38  1  1  0  0  0
 33 80  1  0  0  0  0
 33 81  1  0  0  0  0
 33 82  1  0  0  0  0
 34 35  1  0  0  0  0
 34 36  2  0  0  0  0
 34 37  1  0  0  0  0
 36 40  1  0  0  0  0
 37 41  2  0  0  0  0
 37 44  1  0  0  0  0
 38 83  1  0  0  0  0
 38 84  1  0  0  0  0
 38 85  1  0  0  0  0
 39 43  2  0  0  0  0
 39 86  1  0  0  0  0
 40 42  2  0  0  0  0
 40 47  1  0  0  0  0
 41 42  1  0  0  0  0
 41 45  1  0  0  0  0
 43 49  1  0  0  0  0
 43 50  1  0  0  0  0
 44 48  1  0  0  0  0
 45 46  1  0  0  0  0
 46 48  2  0  0  0  0
 47 87  1  0  0  0  0
 47 88  1  0  0  0  0
 47 89  1  0  0  0  0
 48 90  1  0  0  0  0
 50 92  1  0  0  0  0
 50 93  1  0  0  0  0
 50 94  1  0  0  0  0
M  END
> <PUBCHEM_COMPOUND_CID>
6436726

> <PUBCHEM_COMPOUND_CANONICALIZED>
1

> <PUBCHEM_CACTVS_COMPLEXITY>
1480

> <PUBCHEM_CACTVS_HBOND_ACCEPTOR>
12

> <PUBCHEM_CACTVS_HBOND_DONOR>
4

> <PUBCHEM_CACTVS_ROTATABLE_BOND>
3

> <PUBCHEM_CACTVS_SUBSKEYS>
AAADcfB+PAAAAAAAAAAAAAAAAAAAASAAAAAwQAAAAAAAAEiBAAAAHgAQCAAADRyhmAICDoLABgCIAqXSWAKCCAAkIgAIiAHECMgcNzaGtT+meWCl5BWMucf77/zu4AADCAAYAADAAAYQADAAAAAAAAAAAA==

> <PUBCHEM_IUPAC_INCHI>
InChI=1S/C37H45NO12/c1-16-11-10-12-17(2)36(46)38-23-15-24(40)26-27(32(23)44)31(43)21(6)34-28(26)35(45)37(8,50-34)48-14-13-25(47-9)18(3)33(49-22(7)39)20(5)30(42)19(4)29(16)41/h10-16,18-20,25,29-30,33,41-43H,1-9H3,(H,38,46)/b11-10+,14-13+,17-12-/t16-,18+,19+,20+,25-,29-,30+,33+,37-/m0/s1

> <PUBCHEM_IUPAC_INCHIKEY>
BTVYFIMKUHNOBZ-ODRIEIDWSA-N

> <PUBCHEM_XLOGP3_AA>
4.1

> <PUBCHEM_EXACT_MASS>
695.294176

> <PUBCHEM_MOLECULAR_FORMULA>
C37H45NO12

> <PUBCHEM_MOLECULAR_WEIGHT>
695.7527

> <PUBCHEM_OPENEYE_CAN_SMILES>
CC1C=CC=C(C(=O)NC2=CC(=O)C3=C4C(=C(C(=C3C2=O)O)C)OC(C4=O)(OC=CC(C(C(C(C(C(C1O)C)O)C)OC(=O)C)C)OC)C)C

> <PUBCHEM_OPENEYE_ISO_SMILES>
C[C@H]1/C=C/C=C(\C(=O)NC2=CC(=O)C3=C4C(=C(C(=C3C2=O)O)C)O[C@@](C4=O)(O/C=C/[C@@H]([C@H]([C@H]([C@@H]([C@@H]([C@@H]([C@H]1O)C)O)C)OC(=O)C)C)OC)C)/C

> <PUBCHEM_CACTVS_TPSA>
195

> <PUBCHEM_MONOISOTOPIC_WEIGHT>
695.294176

> <PUBCHEM_TOTAL_CHARGE>
0

> <PUBCHEM_HEAVY_ATOM_COUNT>
50

> <PUBCHEM_ATOM_DEF_STEREO_COUNT>
9

> <PUBCHEM_ATOM_UDEF_STEREO_COUNT>
0

> <PUBCHEM_BOND_DEF_STEREO_COUNT>
3

> <PUBCHEM_BOND_UDEF_STEREO_COUNT>
0

> <PUBCHEM_ISOTOPIC_ATOM_COUNT>
0

> <PUBCHEM_COMPONENT_COUNT>
1

> <PUBCHEM_CACTVS_TAUTO_COUNT>
339

> <PUBCHEM_COORDINATE_TYPE>
1
5
255

> <PUBCHEM_BONDANNOTATIONS>
16  1  5
14  20  5
17  23  6
18  24  6
15  2  5
22  25  5
19  3  5
32  38  5
34  36  8
34  37  8
36  40  8
37  41  8
21  4  6
40  42  8
41  42  8

$$$$

