262097
  -OEChem-07051212593D

 32 34  0     1  0  0  0  0  0999 V2000
   -1.0725   -1.8574    0.0656 O   0  0  0  0  0  0  0  0  0  0  0  0
   -0.9183    2.8084   -0.0497 O   0  0  0  0  0  0  0  0  0  0  0  0
    1.7558    2.8007    0.0010 O   0  0  0  0  0  0  0  0  0  0  0  0
   -2.4666    0.1380    0.0216 C   0  0  0  0  0  0  0  0  0  0  0  0
   -2.3903   -1.3667    0.4262 C   0  0  1  0  0  0  0  0  0  0  0  0
   -1.0069    0.4385    0.0464 C   0  0  0  0  0  0  0  0  0  0  0  0
   -0.3126   -0.6951    0.0581 C   0  0  0  0  0  0  0  0  0  0  0  0
   -3.2809    0.9249    1.0538 C   0  0  0  0  0  0  0  0  0  0  0  0
   -3.0268    0.3844   -1.3865 C   0  0  0  0  0  0  0  0  0  0  0  0
   -3.4385   -2.2814   -0.1908 C   0  0  0  0  0  0  0  0  0  0  0  0
    1.1435   -0.7667    0.0222 C   0  0  0  0  0  0  0  0  0  0  0  0
   -0.3347    1.7382   -0.0020 C   0  0  0  0  0  0  0  0  0  0  0  0
    1.8855    0.4268   -0.0034 C   0  0  0  0  0  0  0  0  0  0  0  0
    1.1746    1.7268   -0.0004 C   0  0  0  0  0  0  0  0  0  0  0  0
    1.8295   -1.9872    0.0183 C   0  0  0  0  0  0  0  0  0  0  0  0
    3.2831    0.4022   -0.0324 C   0  0  0  0  0  0  0  0  0  0  0  0
    3.2259   -2.0126   -0.0114 C   0  0  0  0  0  0  0  0  0  0  0  0
    3.9500   -0.8218   -0.0366 C   0  0  0  0  0  0  0  0  0  0  0  0
   -2.4615   -1.4664    1.5197 H   0  0  0  0  0  0  0  0  0  0  0  0
   -2.8403    0.8539    2.0551 H   0  0  0  0  0  0  0  0  0  0  0  0
   -3.3379    1.9880    0.7958 H   0  0  0  0  0  0  0  0  0  0  0  0
   -4.3068    0.5444    1.1131 H   0  0  0  0  0  0  0  0  0  0  0  0
   -2.9470    1.4420   -1.6646 H   0  0  0  0  0  0  0  0  0  0  0  0
   -2.4891   -0.1936   -2.1472 H   0  0  0  0  0  0  0  0  0  0  0  0
   -4.0867    0.1139   -1.4464 H   0  0  0  0  0  0  0  0  0  0  0  0
   -3.3161   -2.3599   -1.2758 H   0  0  0  0  0  0  0  0  0  0  0  0
   -3.3237   -3.2985    0.2006 H   0  0  0  0  0  0  0  0  0  0  0  0
   -4.4519   -1.9376    0.0350 H   0  0  0  0  0  0  0  0  0  0  0  0
    1.2930   -2.9326    0.0389 H   0  0  0  0  0  0  0  0  0  0  0  0
    3.8641    1.3198   -0.0527 H   0  0  0  0  0  0  0  0  0  0  0  0
    3.7493   -2.9645   -0.0143 H   0  0  0  0  0  0  0  0  0  0  0  0
    5.0356   -0.8479   -0.0594 H   0  0  0  0  0  0  0  0  0  0  0  0
  1  5  1  0  0  0  0
  1  7  1  0  0  0  0
  2 12  2  0  0  0  0
  3 14  2  0  0  0  0
  4  5  1  0  0  0  0
  4  6  1  0  0  0  0
  4  8  1  0  0  0  0
  4  9  1  0  0  0  0
  5 10  1  0  0  0  0
  5 19  1  0  0  0  0
  6  7  2  0  0  0  0
  6 12  1  0  0  0  0
  7 11  1  0  0  0  0
  8 20  1  0  0  0  0
  8 21  1  0  0  0  0
  8 22  1  0  0  0  0
  9 23  1  0  0  0  0
  9 24  1  0  0  0  0
  9 25  1  0  0  0  0
 10 26  1  0  0  0  0
 10 27  1  0  0  0  0
 10 28  1  0  0  0  0
 11 13  1  0  0  0  0
 11 15  2  0  0  0  0
 12 14  1  0  0  0  0
 13 14  1  0  0  0  0
 13 16  2  0  0  0  0
 15 17  1  0  0  0  0
 15 29  1  0  0  0  0
 16 18  1  0  0  0  0
 16 30  1  0  0  0  0
 17 18  2  0  0  0  0
 17 31  1  0  0  0  0
 18 32  1  0  0  0  0
M  END
> <PUBCHEM_COMPOUND_CID>
262097

> <PUBCHEM_CONFORMER_RMSD>
0.6

> <PUBCHEM_CONFORMER_DIVERSEORDER>
1

> <PUBCHEM_MMFF94_PARTIAL_CHARGES>
19
1 -0.36
11 0.03
12 0.56
13 0.09
14 0.48
15 -0.15
16 -0.15
17 -0.15
18 -0.15
2 -0.57
29 0.15
3 -0.57
30 0.15
31 0.15
32 0.15
4 0.14
5 0.28
6 -0.12
7 0.05

> <PUBCHEM_EFFECTIVE_ROTOR_COUNT>
0.6

> <PUBCHEM_PHARMACOPHORE_FEATURES>
7
1 1 acceptor
1 2 acceptor
1 3 acceptor
3 4 8 9 hydrophobe
5 1 4 5 6 7 rings
6 11 13 15 16 17 18 rings
6 6 7 11 12 13 14 rings

> <PUBCHEM_HEAVY_ATOM_COUNT>
18

> <PUBCHEM_ATOM_DEF_STEREO_COUNT>
0

> <PUBCHEM_ATOM_UDEF_STEREO_COUNT>
1

> <PUBCHEM_BOND_DEF_STEREO_COUNT>
0

> <PUBCHEM_BOND_UDEF_STEREO_COUNT>
0

> <PUBCHEM_ISOTOPIC_ATOM_COUNT>
0

> <PUBCHEM_COMPONENT_COUNT>
1

> <PUBCHEM_CACTVS_TAUTO_COUNT>
1

> <PUBCHEM_CONFORMER_ID>
0003FFD100000001

> <PUBCHEM_MMFF94_ENERGY>
53.3078

> <PUBCHEM_FEATURE_SELFOVERLAP>
35.63

> <PUBCHEM_SHAPE_FINGERPRINT>
10967382 1 18266739267125099130
11132069 177 18410860992388995586
11578080 2 17345497997049364468
12251169 10 18335691767606948123
12382932 28 18408318908330570770
12553582 1 18338513144403168530
13140716 1 18410571747505197352
13221675 6 18411416249950553034
13583140 156 13985239854767978638
14144814 61 18409448115515341954
14178342 30 18336273374560855826
14790565 3 17979342076370686516
15001771 113 18409725153595637552
15196674 1 18410572873214019810
15375462 189 18201996659522385890
15442244 35 18409162229427662387
15536298 74 18261671459366770520
16752209 62 18053677042002925049
16945 1 18411702114273122352
19591789 44 16611373521740995562
200 152 18114471054875591263
20510252 161 18045783656886276384
20645477 70 18125169242710320519
21029758 11 18263655111223858176
21267235 1 18410281510848495626
21501502 16 18338227159694894873
221490 88 18197495125769288923
22721475 48 18411415128958729508
2334 1 18051131393596430608
23402539 116 18191317167611717366
23463225 33 18410570669584456650
23493267 7 17059496377905897569
23559900 14 18265623250713646554
25 1 17912661386376089909
2748010 2 18195529181941004188
335352 9 18266739262745560757
34934 24 18340214084543759658
350125 39 18339354159329649643
352729 6 17258781945559437936
427121 178 15579738535035390881
5104073 3 18409730660123649866
6992083 37 18263065747484921265
7364860 26 18192430775443374008
74978 22 18410294705172119059
7832392 63 18336261327309316017
81228 2 18048592909163627224
8809292 202 18272083915859614042
9709674 26 18190743240001780710

> <PUBCHEM_SHAPE_MULTIPOLES>
352.82
6.13
2.82
0.79
1
0.75
-0.08
-2.39
-0.1
0.04
0.02
-0.59
0.06
-0.09

> <PUBCHEM_SHAPE_SELFOVERLAP>
783.246

> <PUBCHEM_SHAPE_VOLUME>
191

> <PUBCHEM_COORDINATE_TYPE>
2
5
10

$$$$

