854018
  -OEChem-06241222463D

 42 45  0     1  0  0  0  0  0999 V2000
    4.4754   -1.2531    0.8515 O   0  0  0  0  0  0  0  0  0  0  0  0
    2.4796   -0.2713    0.1082 N   0  0  0  0  0  0  0  0  0  0  0  0
    0.4949   -1.2731   -0.0259 N   0  0  0  0  0  0  0  0  0  0  0  0
    1.7707    2.0471    0.2533 N   0  0  0  0  0  0  0  0  0  0  0  0
   -2.0926    0.3234    0.0120 N   0  0  0  0  0  0  0  0  0  0  0  0
   -0.6619    2.2334    0.1919 N   0  0  0  0  0  0  0  0  0  0  0  0
    3.9370   -0.1186    0.1647 C   0  0  2  0  0  0  0  0  0  0  0  0
    4.5542    0.0263   -1.2298 C   0  0  0  0  0  0  0  0  0  0  0  0
    6.0754    0.0887   -1.1344 C   0  0  0  0  0  0  0  0  0  0  0  0
    6.6075   -1.0725   -0.3014 C   0  0  0  0  0  0  0  0  0  0  0  0
    5.8869   -1.1512    1.0383 C   0  0  0  0  0  0  0  0  0  0  0  0
    1.5510    0.7276    0.1516 C   0  0  0  0  0  0  0  0  0  0  0  0
    1.7989   -1.4536    0.0010 C   0  0  0  0  0  0  0  0  0  0  0  0
    0.3259    0.0856    0.0676 C   0  0  0  0  0  0  0  0  0  0  0  0
   -0.8088    0.8903    0.0909 C   0  0  0  0  0  0  0  0  0  0  0  0
   -3.2940    1.1038    0.0315 C   0  0  0  0  0  0  0  0  0  0  0  0
    0.6001    2.7211    0.2658 C   0  0  0  0  0  0  0  0  0  0  0  0
   -4.5030    0.2121   -0.0314 C   0  0  0  0  0  0  0  0  0  0  0  0
   -5.0354   -0.1347   -1.2665 C   0  0  0  0  0  0  0  0  0  0  0  0
   -5.0731   -0.2539    1.1462 C   0  0  0  0  0  0  0  0  0  0  0  0
   -6.1572   -0.9617   -1.3250 C   0  0  0  0  0  0  0  0  0  0  0  0
   -6.1949   -1.0810    1.0878 C   0  0  0  0  0  0  0  0  0  0  0  0
   -6.7369   -1.4347   -0.1478 C   0  0  0  0  0  0  0  0  0  0  0  0
    4.1302    0.7757    0.7712 H   0  0  0  0  0  0  0  0  0  0  0  0
    4.1691    0.9189   -1.7356 H   0  0  0  0  0  0  0  0  0  0  0  0
    4.2792   -0.8384   -1.8478 H   0  0  0  0  0  0  0  0  0  0  0  0
    6.3730    1.0372   -0.6709 H   0  0  0  0  0  0  0  0  0  0  0  0
    6.5167    0.0669   -2.1368 H   0  0  0  0  0  0  0  0  0  0  0  0
    6.4403   -2.0051   -0.8543 H   0  0  0  0  0  0  0  0  0  0  0  0
    7.6865   -0.9669   -0.1477 H   0  0  0  0  0  0  0  0  0  0  0  0
    6.2153   -2.0403    1.5860 H   0  0  0  0  0  0  0  0  0  0  0  0
    6.1092   -0.2774    1.6620 H   0  0  0  0  0  0  0  0  0  0  0  0
    2.2958   -2.4124   -0.0603 H   0  0  0  0  0  0  0  0  0  0  0  0
   -2.1456   -0.6868   -0.0656 H   0  0  0  0  0  0  0  0  0  0  0  0
   -3.3106    1.8042   -0.8133 H   0  0  0  0  0  0  0  0  0  0  0  0
   -3.3406    1.7165    0.9410 H   0  0  0  0  0  0  0  0  0  0  0  0
    0.6801    3.7999    0.3457 H   0  0  0  0  0  0  0  0  0  0  0  0
   -4.5906    0.2266   -2.1894 H   0  0  0  0  0  0  0  0  0  0  0  0
   -4.6579    0.0139    2.1137 H   0  0  0  0  0  0  0  0  0  0  0  0
   -6.5790   -1.2377   -2.2871 H   0  0  0  0  0  0  0  0  0  0  0  0
   -6.6460   -1.4498    2.0043 H   0  0  0  0  0  0  0  0  0  0  0  0
   -7.6101   -2.0788   -0.1933 H   0  0  0  0  0  0  0  0  0  0  0  0
  1  7  1  0  0  0  0
  1 11  1  0  0  0  0
  2  7  1  0  0  0  0
  2 12  1  0  0  0  0
  2 13  1  0  0  0  0
  3 13  2  0  0  0  0
  3 14  1  0  0  0  0
  4 12  2  0  0  0  0
  4 17  1  0  0  0  0
  5 15  1  0  0  0  0
  5 16  1  0  0  0  0
  5 34  1  0  0  0  0
  6 15  1  0  0  0  0
  6 17  2  0  0  0  0
  7  8  1  0  0  0  0
  7 24  1  0  0  0  0
  8  9  1  0  0  0  0
  8 25  1  0  0  0  0
  8 26  1  0  0  0  0
  9 10  1  0  0  0  0
  9 27  1  0  0  0  0
  9 28  1  0  0  0  0
 10 11  1  0  0  0  0
 10 29  1  0  0  0  0
 10 30  1  0  0  0  0
 11 31  1  0  0  0  0
 11 32  1  0  0  0  0
 12 14  1  0  0  0  0
 13 33  1  0  0  0  0
 14 15  2  0  0  0  0
 16 18  1  0  0  0  0
 16 35  1  0  0  0  0
 16 36  1  0  0  0  0
 17 37  1  0  0  0  0
 18 19  2  0  0  0  0
 18 20  1  0  0  0  0
 19 21  1  0  0  0  0
 19 38  1  0  0  0  0
 20 22  2  0  0  0  0
 20 39  1  0  0  0  0
 21 23  2  0  0  0  0
 21 40  1  0  0  0  0
 22 23  1  0  0  0  0
 22 41  1  0  0  0  0
 23 42  1  0  0  0  0
M  END
> <PUBCHEM_COMPOUND_CID>
854018

> <PUBCHEM_CONFORMER_RMSD>
0.8

> <PUBCHEM_CONFORMER_DIVERSEORDER>
1
30
11
2
53
37
46
36
40
49
51
50
34
9
18
22
27
55
57
5
24
15
26
16
52
10
48
38
20
31
17
6
41
56
19
29
33
32
44
54
4
47
43
13
12
3
28
21
8
42
25
39
45
7
14
35
23

> <PUBCHEM_MMFF94_PARTIAL_CHARGES>
28
1 -0.56
11 0.28
12 0.11
13 0.04
14 0.23
15 0.41
16 0.51
17 0.47
18 -0.14
19 -0.15
2 0.05
20 -0.15
21 -0.15
22 -0.15
23 -0.15
3 -0.57
33 0.15
34 0.4
37 0.15
38 0.15
39 0.15
4 -0.57
40 0.15
41 0.15
42 0.15
5 -0.87
6 -0.62
7 0.54

> <PUBCHEM_EFFECTIVE_ROTOR_COUNT>
5.2

> <PUBCHEM_PHARMACOPHORE_FEATURES>
10
1 1 acceptor
1 5 cation
1 5 donor
3 2 3 13 cation
3 2 4 12 cation
3 4 6 17 cation
5 2 3 12 13 14 rings
6 1 7 8 9 10 11 rings
6 18 19 20 21 22 23 rings
6 4 6 12 14 15 17 rings

> <PUBCHEM_HEAVY_ATOM_COUNT>
23

> <PUBCHEM_ATOM_DEF_STEREO_COUNT>
1

> <PUBCHEM_ATOM_UDEF_STEREO_COUNT>
0

> <PUBCHEM_BOND_DEF_STEREO_COUNT>
0

> <PUBCHEM_BOND_UDEF_STEREO_COUNT>
0

> <PUBCHEM_ISOTOPIC_ATOM_COUNT>
0

> <PUBCHEM_COMPONENT_COUNT>
1

> <PUBCHEM_CACTVS_TAUTO_COUNT>
3

> <PUBCHEM_CONFORMER_ID>
000D080200000001

> <PUBCHEM_MMFF94_ENERGY>
48.4855

> <PUBCHEM_FEATURE_SELFOVERLAP>
51.349

> <PUBCHEM_SHAPE_FINGERPRINT>
10 15 6411012084705681167
11963148 33 18409454699685454574
12166972 35 17989201551749800900
12236239 1 18060134388642470380
12516196 113 18333449845833116577
12616971 3 17822569418178385429
13464513 79 18333169461772720208
13685833 64 18409728443904342755
13862211 1 18409451401223228578
14123256 34 18408037416247895743
14767858 380 18343293765352965564
14849402 71 17023475114212255120
15183329 4 18408886222045144015
15188451 53 16298959658826353501
15348495 7 14490484044986986543
15716309 27 17967532372310155443
15927050 60 17758114800769961116
17492 89 18051696839506723434
18222031 100 18334862718369864656
20028762 73 17967817123925472671
21049683 271 18200303329985449564
21150785 3 17561079190082732726
21267235 1 18335698334706908455
21521721 280 18113898217817407096
21641784 216 18058997493087315676
23035841 295 18040433291587415095
23081809 10 18273210936800257040
23198884 109 15051736395926625811
23522609 53 18122311731880225409
23536379 177 16200433584848111738
23559900 14 17845935113915646841
23569943 247 17461142521051463278
249999 5 18117565015866331824
2767999 5 10447929455869028863
2838139 119 10231755565875566435
3004659 81 17846780719840245242
3009799 131 14045739322307909774
312425 54 16153421757927300535
314194 84 18410575106444293003
3178227 256 18411409592946598835
329604 57 18273212014715794212
351380 3 18333452040967580191
3737641 26 17532362252578350871
38695281 34 12031789166863194585
397830 11 15936990542872118810
465052 167 18408037407842525646
484989 97 18058434422895603154
4938544 92 17458617986988304993
7495541 125 18201436956558854701
8863177 126 18127966417655894667

> <PUBCHEM_SHAPE_MULTIPOLES>
442.55
18.6
1.91
1.09
5.45
1.15
0.15
-10.61
1.83
-0.23
-0.27
0.41
-0.23
-0.48

> <PUBCHEM_SHAPE_SELFOVERLAP>
962.677

> <PUBCHEM_SHAPE_VOLUME>
238.1

> <PUBCHEM_COORDINATE_TYPE>
2
5
10

$$$$

