13510
  -OEChem-06241222392D

  4  2  0     0  0  0  0  0  0999 V2000
    0.0000    0.5000    0.0000 Na  0  3  0  0  0  0  0  0  0  0  0  0
    0.8660    0.0000    0.0000 O   0  5  0  0  0  0  0  0  0  0  0  0
    2.5981    1.0000    0.0000 N   0  0  0  0  0  0  0  0  0  0  0  0
    1.7321    0.5000    0.0000 C   0  0  0  0  0  0  0  0  0  0  0  0
  2  4  1  0  0  0  0
  3  4  3  0  0  0  0
M  CHG  2   1   1   2  -1
M  END
> <PUBCHEM_COMPOUND_CID>
13510

> <PUBCHEM_COMPOUND_CANONICALIZED>
1

> <PUBCHEM_CACTVS_COMPLEXITY>
31.3

> <PUBCHEM_CACTVS_HBOND_ACCEPTOR>
2

> <PUBCHEM_CACTVS_HBOND_DONOR>
0

> <PUBCHEM_CACTVS_ROTATABLE_BOND>
0

> <PUBCHEM_CACTVS_SUBSKEYS>
AAADcQACICAAAAAAAAAAAAAAAAAAAAAAAAAAAAAAAAAAAAAAAAAABgAAAAAAAAAAAAAAAAAAAAAQAAAAAAAAAAAAAAAAAAAAAAAAAAAAAAAAAAAAAAAAAAAAAAAAAAAAAAAAAAAAAAAAAAAAAAAAAAAAAA==

> <PUBCHEM_IUPAC_OPENEYE_NAME>
sodium cyanate

> <PUBCHEM_IUPAC_CAS_NAME>
sodium cyanate

> <PUBCHEM_IUPAC_NAME>
sodium cyanate

> <PUBCHEM_IUPAC_SYSTEMATIC_NAME>
sodium cyanate

> <PUBCHEM_IUPAC_TRADITIONAL_NAME>
sodium cyanate

> <PUBCHEM_IUPAC_INCHI>
InChI=1S/CHNO.Na/c2-1-3;/h3H;/q;+1/p-1

> <PUBCHEM_IUPAC_INCHIKEY>
ZVCDLGYNFYZZOK-UHFFFAOYSA-M

> <PUBCHEM_EXACT_MASS>
64.987758

> <PUBCHEM_MOLECULAR_FORMULA>
CNNaO

> <PUBCHEM_MOLECULAR_WEIGHT>
65.006569

> <PUBCHEM_OPENEYE_CAN_SMILES>
C(#N)[O-].[Na+]

> <PUBCHEM_OPENEYE_ISO_SMILES>
C(#N)[O-].[Na+]

> <PUBCHEM_CACTVS_TPSA>
46.8

> <PUBCHEM_MONOISOTOPIC_WEIGHT>
64.987758

> <PUBCHEM_TOTAL_CHARGE>
0

> <PUBCHEM_HEAVY_ATOM_COUNT>
4

> <PUBCHEM_ATOM_DEF_STEREO_COUNT>
0

> <PUBCHEM_ATOM_UDEF_STEREO_COUNT>
0

> <PUBCHEM_BOND_DEF_STEREO_COUNT>
0

> <PUBCHEM_BOND_UDEF_STEREO_COUNT>
0

> <PUBCHEM_ISOTOPIC_ATOM_COUNT>
0

> <PUBCHEM_COMPONENT_COUNT>
2

> <PUBCHEM_CACTVS_TAUTO_COUNT>
1

> <PUBCHEM_COORDINATE_TYPE>
1
5
255

$$$$

