439924
  -OEChem-07051212483D

 33 34  0     1  0  0  0  0  0999 V2000
    1.5002    0.5224    1.0730 O   0  0  0  0  0  0  0  0  0  0  0  0
    2.1035   -2.1995   -1.1940 O   0  0  0  0  0  0  0  0  0  0  0  0
    4.0488   -0.8731    0.1620 O   0  0  0  0  0  0  0  0  0  0  0  0
    1.7158    3.2575    0.4905 O   0  0  0  0  0  0  0  0  0  0  0  0
   -4.5220    1.0003   -0.4121 O   0  0  0  0  0  0  0  0  0  0  0  0
   -0.2973   -0.9602    0.3899 N   0  3  0  0  0  0  0  0  0  0  0  0
   -2.6685    2.3506   -0.4210 N   0  0  0  0  0  0  0  0  0  0  0  0
    1.8535   -0.8615   -0.8165 C   0  0  2  0  0  0  0  0  0  0  0  0
    3.1206   -0.0687   -0.5659 C   0  0  1  0  0  0  0  0  0  0  0  0
    1.1682   -0.7714    0.5351 C   0  0  1  0  0  0  0  0  0  0  0  0
    2.6274    1.0547    0.3402 C   0  0  1  0  0  0  0  0  0  0  0  0
    2.1624    2.2805   -0.4334 C   0  0  0  0  0  0  0  0  0  0  0  0
   -1.0750    0.1059    0.1274 C   0  0  0  0  0  0  0  0  0  0  0  0
   -0.8168   -2.1941    0.5238 C   0  0  0  0  0  0  0  0  0  0  0  0
   -2.4475   -0.0415   -0.0143 C   0  0  0  0  0  0  0  0  0  0  0  0
   -2.1826   -2.4011    0.3926 C   0  0  0  0  0  0  0  0  0  0  0  0
   -3.0030   -1.3103    0.1207 C   0  0  0  0  0  0  0  0  0  0  0  0
   -3.2877    1.1093   -0.2981 C   0  0  0  0  0  0  0  0  0  0  0  0
    1.2547   -0.3834   -1.5998 H   0  0  0  0  0  0  0  0  0  0  0  0
    3.6136    0.2647   -1.4835 H   0  0  0  0  0  0  0  0  0  0  0  0
    1.5256   -1.5273    1.2453 H   0  0  0  0  0  0  0  0  0  0  0  0
    3.3754    1.3470    1.0860 H   0  0  0  0  0  0  0  0  0  0  0  0
    1.3329    2.0558   -1.1105 H   0  0  0  0  0  0  0  0  0  0  0  0
    2.9824    2.7096   -1.0168 H   0  0  0  0  0  0  0  0  0  0  0  0
    2.6762   -2.6007   -0.5183 H   0  0  0  0  0  0  0  0  0  0  0  0
    4.8282   -0.3213    0.3462 H   0  0  0  0  0  0  0  0  0  0  0  0
   -0.5516    1.0417    0.0253 H   0  0  0  0  0  0  0  0  0  0  0  0
   -0.1274   -3.0036    0.7312 H   0  0  0  0  0  0  0  0  0  0  0  0
   -2.6029   -3.3954    0.4991 H   0  0  0  0  0  0  0  0  0  0  0  0
    0.9905    2.8645    1.0054 H   0  0  0  0  0  0  0  0  0  0  0  0
   -4.0725   -1.4732    0.0176 H   0  0  0  0  0  0  0  0  0  0  0  0
   -1.6753    2.5263   -0.3367 H   0  0  0  0  0  0  0  0  0  0  0  0
   -3.2332    3.1721   -0.6127 H   0  0  0  0  0  0  0  0  0  0  0  0
  1 10  1  0  0  0  0
  1 11  1  0  0  0  0
  2  8  1  0  0  0  0
  2 25  1  0  0  0  0
  3  9  1  0  0  0  0
  3 26  1  0  0  0  0
  4 12  1  0  0  0  0
  4 30  1  0  0  0  0
  5 18  2  0  0  0  0
  6 10  1  0  0  0  0
  6 13  1  0  0  0  0
  6 14  2  0  0  0  0
  7 18  1  0  0  0  0
  7 32  1  0  0  0  0
  7 33  1  0  0  0  0
  8  9  1  0  0  0  0
  8 10  1  0  0  0  0
  8 19  1  0  0  0  0
  9 11  1  0  0  0  0
  9 20  1  0  0  0  0
 10 21  1  0  0  0  0
 11 12  1  0  0  0  0
 11 22  1  0  0  0  0
 12 23  1  0  0  0  0
 12 24  1  0  0  0  0
 13 15  2  0  0  0  0
 13 27  1  0  0  0  0
 14 16  1  0  0  0  0
 14 28  1  0  0  0  0
 15 17  1  0  0  0  0
 15 18  1  0  0  0  0
 16 17  2  0  0  0  0
 16 29  1  0  0  0  0
 17 31  1  0  0  0  0
M  CHG  1   6   1
M  END
> <PUBCHEM_COMPOUND_CID>
439924

> <PUBCHEM_CONFORMER_RMSD>
0.6

> <PUBCHEM_CONFORMER_DIVERSEORDER>
1
31
21
10
24
4
25
33
16
6
17
35
27
8
19
5
29
18
26
7
36
14
12
2
20
22
28
3
30
34
15
11
23
32
13
9

> <PUBCHEM_MMFF94_PARTIAL_CHARGES>
27
1 -0.56
10 0.77
11 0.28
12 0.28
13 0.21
14 0.21
15 0.09
16 -0.15
17 -0.15
18 0.54
2 -0.68
25 0.4
26 0.4
27 0.15
28 0.15
29 0.15
3 -0.68
30 0.4
31 0.15
32 0.37
33 0.37
4 -0.68
5 -0.57
6 -0.21
7 -0.8
8 0.28
9 0.28

> <PUBCHEM_EFFECTIVE_ROTOR_COUNT>
4

> <PUBCHEM_PHARMACOPHORE_FEATURES>
11
1 1 acceptor
1 2 acceptor
1 2 donor
1 3 acceptor
1 3 donor
1 4 acceptor
1 4 donor
1 5 acceptor
1 7 donor
5 1 8 9 10 11 rings
6 6 13 14 15 16 17 rings

> <PUBCHEM_HEAVY_ATOM_COUNT>
18

> <PUBCHEM_ATOM_DEF_STEREO_COUNT>
4

> <PUBCHEM_ATOM_UDEF_STEREO_COUNT>
0

> <PUBCHEM_BOND_DEF_STEREO_COUNT>
0

> <PUBCHEM_BOND_UDEF_STEREO_COUNT>
0

> <PUBCHEM_ISOTOPIC_ATOM_COUNT>
0

> <PUBCHEM_COMPONENT_COUNT>
1

> <PUBCHEM_CACTVS_TAUTO_COUNT>
2

> <PUBCHEM_CONFORMER_ID>
0006B67400000001

> <PUBCHEM_MMFF94_ENERGY>
56.0321

> <PUBCHEM_FEATURE_SELFOVERLAP>
55.835

> <PUBCHEM_SHAPE_FINGERPRINT>
10498660 4 18272094911550657933
10608611 8 18338797805976535537
10922523 26 18334292063192340774
10967382 1 18267867357443988331
11615756 256 18340198588270334525
116883 192 17974562795850469934
11715629 250 18120091676163686192
13134695 92 17385730239795220256
13764800 53 18131624587246032355
14250199 8 18335140886517221445
14648413 74 18338232670159047736
15219456 202 18335417920212839906
15375462 6 18050846615800438366
15442244 35 18342461434961035514
15775835 57 17917430964236889819
16945 1 18262783147189998306
17041 50 18335974337863681126
17134986 127 18270407229773603943
18186145 218 18261945349346944347
18219364 16 18270955868875363737
20233049 118 18200593717366679100
20304884 271 18339925913707681769
20361792 2 14923936838777118539
20510252 161 18268144267377073787
20645477 56 18413666924630428263
21501502 16 18339077064755409126
21524375 3 18130227180897332699
21618674 68 18121497956036235919
22802520 49 18337102389237928579
23114952 82 18117252823240367086
23402539 116 18336557113370472374
23557571 272 18268984285296291295
23558518 356 18129098914231323555
23559900 14 18335701689588537258
25 1 18266740366858318431
2748010 2 18121778331184599763
3060560 45 18266750266826455871
3524813 1 18201444739240438837
5939293 188 18411144619213419344
6049 1 18266720437993897667
6333272 397 18342178882153352729
7097593 13 17915768472833736250
7364860 26 18264203613313139944
74978 22 18413109450391115898
7832392 63 18413393137328776776
81228 2 17915170227050267315
93112 12 18410572881408192151
9709674 26 18408881811229814567

> <PUBCHEM_SHAPE_MULTIPOLES>
331.12
6.63
2.96
0.86
1.71
1.15
0.05
1.54
0.79
0.12
0.03
-0.34
-0.13
0.91

> <PUBCHEM_SHAPE_SELFOVERLAP>
700.793

> <PUBCHEM_SHAPE_VOLUME>
185.9

> <PUBCHEM_COORDINATE_TYPE>
2
5
10

$$$$

