2543
  -OEChem-07051212533D

 49 51  0     0  0  0  0  0  0999 V2000
   -0.4682   -1.9432   -0.4990 O   0  0  0  0  0  0  0  0  0  0  0  0
   -0.5365    2.8526    0.3238 O   0  0  0  0  0  0  0  0  0  0  0  0
   -1.7631   -2.1528    0.1112 C   0  0  0  0  0  0  0  0  0  0  0  0
   -2.6892   -0.9409    0.0392 C   0  0  0  0  0  0  0  0  0  0  0  0
   -2.1184    0.3450   -0.0694 C   0  0  0  0  0  0  0  0  0  0  0  0
   -0.6526    0.4517   -0.1311 C   0  0  0  0  0  0  0  0  0  0  0  0
    0.1032   -0.7089   -0.3486 C   0  0  0  0  0  0  0  0  0  0  0  0
   -2.3281   -3.3646   -0.6536 C   0  0  0  0  0  0  0  0  0  0  0  0
   -1.5359   -2.5544    1.5790 C   0  0  0  0  0  0  0  0  0  0  0  0
    2.1673    0.5463   -0.3376 C   0  0  0  0  0  0  0  0  0  0  0  0
    3.6528    0.5958   -0.4512 C   0  0  0  0  0  0  0  0  0  0  0  0
    1.4964   -0.6643   -0.4697 C   0  0  0  0  0  0  0  0  0  0  0  0
   -4.0867   -1.0738    0.1373 C   0  0  0  0  0  0  0  0  0  0  0  0
    0.0504    1.6614    0.0086 C   0  0  0  0  0  0  0  0  0  0  0  0
   -2.9784    1.4578   -0.1226 C   0  0  0  0  0  0  0  0  0  0  0  0
    4.4003    0.3959    0.8803 C   0  0  0  0  0  0  0  0  0  0  0  0
    1.4448    1.7082   -0.0924 C   0  0  0  0  0  0  0  0  0  0  0  0
   -4.3639    1.3080   -0.0455 C   0  0  0  0  0  0  0  0  0  0  0  0
    5.9200    0.5192    0.7324 C   0  0  0  0  0  0  0  0  0  0  0  0
   -4.9176    0.0430    0.0906 C   0  0  0  0  0  0  0  0  0  0  0  0
    6.4707   -0.5399   -0.2234 C   0  0  0  0  0  0  0  0  0  0  0  0
   -5.2505    2.5056   -0.1133 C   0  0  0  0  0  0  0  0  0  0  0  0
    7.9835   -0.4477   -0.3447 C   0  0  0  0  0  0  0  0  0  0  0  0
   -3.2411   -3.7656   -0.2025 H   0  0  0  0  0  0  0  0  0  0  0  0
   -2.5463   -3.0999   -1.6953 H   0  0  0  0  0  0  0  0  0  0  0  0
   -1.5931   -4.1783   -0.6890 H   0  0  0  0  0  0  0  0  0  0  0  0
   -1.0875   -1.7349    2.1530 H   0  0  0  0  0  0  0  0  0  0  0  0
   -2.4718   -2.8354    2.0742 H   0  0  0  0  0  0  0  0  0  0  0  0
   -0.8398   -3.3983    1.6490 H   0  0  0  0  0  0  0  0  0  0  0  0
    3.9558   -0.1663   -1.1784 H   0  0  0  0  0  0  0  0  0  0  0  0
    3.9521    1.5545   -0.8953 H   0  0  0  0  0  0  0  0  0  0  0  0
    2.0506   -1.5815   -0.6551 H   0  0  0  0  0  0  0  0  0  0  0  0
   -4.5486   -2.0492    0.2600 H   0  0  0  0  0  0  0  0  0  0  0  0
   -2.6142    2.4666   -0.2746 H   0  0  0  0  0  0  0  0  0  0  0  0
    4.1485   -0.5853    1.3023 H   0  0  0  0  0  0  0  0  0  0  0  0
    4.0578    1.1436    1.6067 H   0  0  0  0  0  0  0  0  0  0  0  0
    1.9752    2.6504    0.0296 H   0  0  0  0  0  0  0  0  0  0  0  0
    6.1763    1.5215    0.3693 H   0  0  0  0  0  0  0  0  0  0  0  0
    6.3833    0.4047    1.7195 H   0  0  0  0  0  0  0  0  0  0  0  0
   -5.9936   -0.0915    0.1600 H   0  0  0  0  0  0  0  0  0  0  0  0
    6.0553   -0.4168   -1.2280 H   0  0  0  0  0  0  0  0  0  0  0  0
    6.1961   -1.5415    0.1269 H   0  0  0  0  0  0  0  0  0  0  0  0
   -6.2364    2.3007    0.3178 H   0  0  0  0  0  0  0  0  0  0  0  0
   -4.8211    3.3404    0.4510 H   0  0  0  0  0  0  0  0  0  0  0  0
   -5.3859    2.8144   -1.1547 H   0  0  0  0  0  0  0  0  0  0  0  0
    0.1321    3.5562    0.3777 H   0  0  0  0  0  0  0  0  0  0  0  0
    8.4646   -0.6017    0.6264 H   0  0  0  0  0  0  0  0  0  0  0  0
    8.3565   -1.2126   -1.0331 H   0  0  0  0  0  0  0  0  0  0  0  0
    8.2877    0.5317   -0.7276 H   0  0  0  0  0  0  0  0  0  0  0  0
  1  3  1  0  0  0  0
  1  7  1  0  0  0  0
  2 14  1  0  0  0  0
  2 46  1  0  0  0  0
  3  4  1  0  0  0  0
  3  8  1  0  0  0  0
  3  9  1  0  0  0  0
  4  5  2  0  0  0  0
  4 13  1  0  0  0  0
  5  6  1  0  0  0  0
  5 15  1  0  0  0  0
  6  7  1  0  0  0  0
  6 14  2  0  0  0  0
  7 12  2  0  0  0  0
  8 24  1  0  0  0  0
  8 25  1  0  0  0  0
  8 26  1  0  0  0  0
  9 27  1  0  0  0  0
  9 28  1  0  0  0  0
  9 29  1  0  0  0  0
 10 11  1  0  0  0  0
 10 12  1  0  0  0  0
 10 17  2  0  0  0  0
 11 16  1  0  0  0  0
 11 30  1  0  0  0  0
 11 31  1  0  0  0  0
 12 32  1  0  0  0  0
 13 20  2  0  0  0  0
 13 33  1  0  0  0  0
 14 17  1  0  0  0  0
 15 18  2  0  0  0  0
 15 34  1  0  0  0  0
 16 19  1  0  0  0  0
 16 35  1  0  0  0  0
 16 36  1  0  0  0  0
 17 37  1  0  0  0  0
 18 20  1  0  0  0  0
 18 22  1  0  0  0  0
 19 21  1  0  0  0  0
 19 38  1  0  0  0  0
 19 39  1  0  0  0  0
 20 40  1  0  0  0  0
 21 23  1  0  0  0  0
 21 41  1  0  0  0  0
 21 42  1  0  0  0  0
 22 43  1  0  0  0  0
 22 44  1  0  0  0  0
 22 45  1  0  0  0  0
 23 47  1  0  0  0  0
 23 48  1  0  0  0  0
 23 49  1  0  0  0  0
M  END
> <PUBCHEM_COMPOUND_CID>
2543

> <PUBCHEM_CONFORMER_RMSD>
0.8

> <PUBCHEM_CONFORMER_DIVERSEORDER>
7
3
15
4
16
10
9
12
6
11
14
5
13
2
1
8

> <PUBCHEM_MMFF94_PARTIAL_CHARGES>
21
1 -0.36
10 -0.14
11 0.14
12 -0.15
13 -0.15
14 0.08
15 -0.15
17 -0.15
18 -0.14
2 -0.53
20 -0.15
22 0.14
3 0.42
32 0.15
33 0.15
34 0.15
37 0.15
4 -0.14
40 0.15
46 0.45
7 0.08

> <PUBCHEM_EFFECTIVE_ROTOR_COUNT>
4.4

> <PUBCHEM_PHARMACOPHORE_FEATURES>
8
1 1 acceptor
1 2 donor
1 23 hydrophobe
3 3 8 9 hydrophobe
4 11 16 19 21 hydrophobe
6 1 3 4 5 6 7 rings
6 4 5 13 15 18 20 rings
6 6 7 10 12 14 17 rings

> <PUBCHEM_HEAVY_ATOM_COUNT>
23

> <PUBCHEM_ATOM_DEF_STEREO_COUNT>
0

> <PUBCHEM_ATOM_UDEF_STEREO_COUNT>
0

> <PUBCHEM_BOND_DEF_STEREO_COUNT>
0

> <PUBCHEM_BOND_UDEF_STEREO_COUNT>
0

> <PUBCHEM_ISOTOPIC_ATOM_COUNT>
0

> <PUBCHEM_COMPONENT_COUNT>
1

> <PUBCHEM_CACTVS_TAUTO_COUNT>
9

> <PUBCHEM_CONFORMER_ID>
000009EF00000007

> <PUBCHEM_MMFF94_ENERGY>
71.7595

> <PUBCHEM_FEATURE_SELFOVERLAP>
40.645

> <PUBCHEM_SHAPE_FINGERPRINT>
10319926 262 18262532416095335458
10411042 1 17977947887321425743
10906281 52 18261657255725728564
10967382 1 18410007758881723143
11045977 3 18114187415240670760
11315181 36 18130506353644725300
11524674 6 17385446523004194566
11578080 2 5110913161607965745
12035758 1 18336815417151446443
12236239 1 17989485217439192500
12403260 363 18338239237612553253
12788726 201 18341054120376128888
12838862 33 18338815506302367885
13140716 1 18265614281999019329
13288520 33 18410855451886497340
13402501 40 18260547844640836358
13914758 101 15357968019202735122
14420673 8 18410854374272063018
14840074 17 16558754525021318626
14856354 85 16343693331281655778
14866123 147 18341332189201700043
15042514 8 18268146470658626315
15131766 46 15982831287246892511
15196674 1 18410011078564479735
15537594 2 17632302285318937890
15927050 60 18411984688852125611
16945 1 18336549292593696447
17093844 174 18335987489385850978
1813 80 17132115767015105926
20642791 35 18195525020329483434
20681677 155 18343867714680715096
21033648 29 17749405723763578024
21236236 1 18335986389304660303
21267235 1 18341045229229303571
21279426 13 18264766747628337062
22182313 1 18115845495480615575
2297311 6 18408035213699819236
23035841 295 18273216413674525586
23366157 5 17769379314202219372
23402539 116 18333739013106933933
23559900 14 18334298656747965880
2748010 2 18265879415331888071
3004659 81 18273494560115210116
335352 9 18410856564014287885
3383291 50 18270681961330881563
34934 24 18410860983540786314
4015057 19 17968956179243302481
4073 2 18129941179679122746
5104073 3 18268140032744860243
5265222 85 18339633427125894886
5364581 5 17975431126669604408
5385378 56 18194393614605987153
559249 180 18341896298821885034
6138700 20 18410575110459308439
6328613 192 18271522018753669404
7226269 152 18334294292291261480
9981440 41 18411414021100546803

> <PUBCHEM_SHAPE_MULTIPOLES>
461.59
14.08
2.91
0.85
28.26
1.04
-0.18
-1.98
-0.1
-4.07
-0.1
0.19
0.33
0.33

> <PUBCHEM_SHAPE_SELFOVERLAP>
988.375

> <PUBCHEM_SHAPE_VOLUME>
257.6

> <PUBCHEM_COORDINATE_TYPE>
2
5
10

$$$$

