47205179
  -OEChem-06241222583D

 33 34  0     1  0  0  0  0  0999 V2000
    6.7395   -1.6306    0.7543 Br  0  0  0  0  0  0  0  0  0  0  0  0
   -5.0689    0.6214    0.0464 S   0  0  0  0  0  0  0  0  0  0  0  0
    5.7426    1.3797    0.4827 S   0  0  0  0  0  0  0  0  0  0  0  0
   -6.3627    0.5506    0.6932 O   0  0  0  0  0  0  0  0  0  0  0  0
   -4.8326    1.4431   -1.1223 O   0  0  0  0  0  0  0  0  0  0  0  0
   -0.3599   -2.0174    0.2124 O   0  0  0  0  0  0  0  0  0  0  0  0
    1.2627    1.6731   -0.1556 O   0  0  0  0  0  0  0  0  0  0  0  0
   -2.0922   -0.6650   -0.5449 N   0  0  0  0  0  0  0  0  0  0  0  0
    1.4147   -0.4069   -1.1726 N   0  0  0  0  0  0  0  0  0  0  0  0
   -3.1221   -1.1524    0.3421 C   0  0  2  0  0  0  0  0  0  0  0  0
   -4.5083   -1.0434   -0.2952 C   0  0  0  0  0  0  0  0  0  0  0  0
   -3.1869   -0.3281    1.6327 C   0  0  0  0  0  0  0  0  0  0  0  0
   -3.8319    1.0085    1.2749 C   0  0  0  0  0  0  0  0  0  0  0  0
   -0.7881   -1.1419   -0.5353 C   0  0  0  0  0  0  0  0  0  0  0  0
    0.0525   -0.4863   -1.6103 C   0  0  0  0  0  0  0  0  0  0  0  0
    1.9194    0.6836   -0.4690 C   0  0  0  0  0  0  0  0  0  0  0  0
    3.3597    0.6248   -0.1100 C   0  0  0  0  0  0  0  0  0  0  0  0
    4.1139   -0.5676    0.0880 C   0  0  0  0  0  0  0  0  0  0  0  0
    4.1232    1.7566    0.0735 C   0  0  0  0  0  0  0  0  0  0  0  0
    5.4255   -0.3017    0.4150 C   0  0  0  0  0  0  0  0  0  0  0  0
   -2.8981   -2.1999    0.5730 H   0  0  0  0  0  0  0  0  0  0  0  0
   -4.5111   -1.2153   -1.3742 H   0  0  0  0  0  0  0  0  0  0  0  0
   -5.2118   -1.7247    0.1937 H   0  0  0  0  0  0  0  0  0  0  0  0
   -2.2029   -0.1793    2.0891 H   0  0  0  0  0  0  0  0  0  0  0  0
   -3.8180   -0.8501    2.3629 H   0  0  0  0  0  0  0  0  0  0  0  0
   -4.3029    1.4873    2.1359 H   0  0  0  0  0  0  0  0  0  0  0  0
   -3.1065    1.6894    0.8204 H   0  0  0  0  0  0  0  0  0  0  0  0
   -2.3357    0.0890   -1.1809 H   0  0  0  0  0  0  0  0  0  0  0  0
   -0.3155    0.5173   -1.8457 H   0  0  0  0  0  0  0  0  0  0  0  0
    0.0139   -1.1041   -2.5124 H   0  0  0  0  0  0  0  0  0  0  0  0
    2.0266   -1.1817   -1.4086 H   0  0  0  0  0  0  0  0  0  0  0  0
    3.7187   -1.5728    0.0052 H   0  0  0  0  0  0  0  0  0  0  0  0
    3.8171    2.7902   -0.0118 H   0  0  0  0  0  0  0  0  0  0  0  0
  1 20  1  0  0  0  0
  2  4  2  0  0  0  0
  2  5  2  0  0  0  0
  2 11  1  0  0  0  0
  2 13  1  0  0  0  0
  3 19  1  0  0  0  0
  3 20  1  0  0  0  0
  6 14  2  0  0  0  0
  7 16  2  0  0  0  0
  8 10  1  0  0  0  0
  8 14  1  0  0  0  0
  8 28  1  0  0  0  0
  9 15  1  0  0  0  0
  9 16  1  0  0  0  0
  9 31  1  0  0  0  0
 10 11  1  0  0  0  0
 10 12  1  0  0  0  0
 10 21  1  0  0  0  0
 11 22  1  0  0  0  0
 11 23  1  0  0  0  0
 12 13  1  0  0  0  0
 12 24  1  0  0  0  0
 12 25  1  0  0  0  0
 13 26  1  0  0  0  0
 13 27  1  0  0  0  0
 14 15  1  0  0  0  0
 15 29  1  0  0  0  0
 15 30  1  0  0  0  0
 16 17  1  0  0  0  0
 17 18  1  0  0  0  0
 17 19  2  0  0  0  0
 18 20  2  0  0  0  0
 18 32  1  0  0  0  0
 19 33  1  0  0  0  0
M  END
> <PUBCHEM_COMPOUND_CID>
47205179

> <PUBCHEM_CONFORMER_RMSD>
0.8

> <PUBCHEM_CONFORMER_DIVERSEORDER>
1
128
29
337
292
216
107
32
55
198
171
323
23
332
64
49
99
201
234
130
117
241
80
17
31
74
25
87
300
2
150
93
181
316
90
106
116
315
199
19
132
321
145
98
336
281
69
26
5
27
178
12
330
219
37
170
100
318
245
297
231
333
3
41
304
152
176
197
9
119
254
65
331
16
328
75
35
325
46
286
166
335
186
294
265
4
268
251
143
118
57
138
43
114
255
126
289
246
10
131
129
217
7
89
70
51
213
184
214
59
56
153
272
299
66
237
151
68
244
235
63
313
148
258
122
11
334
39
233
77
210
202
33
253
218
34
285
240
180
45
40
319
322
127
61
81
193
15
88
20
211
60
104
124
111
52
146
260
302
92
6
144
42
283
96
149
225
28
264
121
156
168
157
86
67
229
169
115
154
310
163
250
259
73
54
223
288
183
247
91
103
326
282
275
48
8
30
179
276
190
18
280
123
203
161
108
109
44
320
291
110
236
135
83
249
314
204
134
85
105
209
140
24
189
317
113
191
72
147
36
267
221
279
307
284
82
101
38
182
200
242
252
224
165
261
79
238
84
232
22
248
293
155
192
298
309
306
76
175
239
112
141
277
78
50
296
139
195
329
136
21
97
278
177
287
208
160
303
62
174
13
311
207
196
95
270
125
71
222
47
327
53
167
102
206
220
188
162
262
230
243
266
269
290
159
271
164
257
58
301
295
226
94
312
273
172
305
158
324
185
142
187
14
256
215
133
274
212
173
120
228
263
137
308
205
194
227

> <PUBCHEM_MMFF94_PARTIAL_CHARGES>
23
1 -0.06
10 0.3
11 0.11
13 0.11
14 0.57
15 0.36
16 0.72
17 -0.09
18 -0.15
19 -0.11
2 1.09
20 0.1
28 0.37
3 -0.08
31 0.37
32 0.15
33 0.15
4 -0.65
5 -0.65
6 -0.57
7 -0.57
8 -0.73
9 -0.73

> <PUBCHEM_EFFECTIVE_ROTOR_COUNT>
6.8

> <PUBCHEM_PHARMACOPHORE_FEATURES>
9
1 1 hydrophobe
1 4 acceptor
1 5 acceptor
1 6 acceptor
1 7 acceptor
1 8 donor
1 9 donor
5 2 10 11 12 13 rings
5 3 17 18 19 20 rings

> <PUBCHEM_HEAVY_ATOM_COUNT>
20

> <PUBCHEM_ATOM_DEF_STEREO_COUNT>
0

> <PUBCHEM_ATOM_UDEF_STEREO_COUNT>
1

> <PUBCHEM_BOND_DEF_STEREO_COUNT>
0

> <PUBCHEM_BOND_UDEF_STEREO_COUNT>
0

> <PUBCHEM_ISOTOPIC_ATOM_COUNT>
0

> <PUBCHEM_COMPONENT_COUNT>
1

> <PUBCHEM_CACTVS_TAUTO_COUNT>
4

> <PUBCHEM_CONFORMER_ID>
02D04B3B00000001

> <PUBCHEM_MMFF94_ENERGY>
25.7116

> <PUBCHEM_FEATURE_SELFOVERLAP>
45.685

> <PUBCHEM_SHAPE_FINGERPRINT>
10299344 5 11455891377824718349
11089746 13 17167869651587889576
11128504 68 8502658108246349506
11287383 113 7709459433363148820
12107183 9 18408887369281187186
12236239 1 18260552199463686114
12507557 5 18260825960895313601
12596602 18 18411419466981350114
12670546 177 5761651486350000283
13533116 47 18409169931227502098
13785724 45 18045778159998713030
13914758 101 17846228756703265599
14123255 352 18040431066488283545
14123256 10 7348884481716506427
14251732 17 18342176695614027045
14251758 9 17918278666390527718
14251764 18 18411418384332910926
14251764 30 15841550777887114978
14341114 176 17989204841531147476
14347424 109 18334583456319111594
14466204 15 18411983597882296905
14528608 73 8862944992041488858
14617045 38 12391513087824888929
15142383 8 18201164325726999620
15183329 4 18186514419581008634
15188451 53 17345465978210863851
15348495 7 17988639640967189064
15461852 350 15792023238265161932
15475509 84 18113901602716555608
15537594 2 13686301257611431328
17844677 252 13110964218892029983
1813 80 16343706521774906246
19489759 90 16443063893728340586
20281389 69 18410576175690676424
20871999 31 7132442302580470191
21315759 148 17274812503117500096
21315764 268 18409735040653239528
21403212 168 18338805610117222402
22950370 63 12175625070310640414
23035841 295 13039189212401057760
23402539 116 17968100793824954967
23559900 14 14852150790679947364
2767999 5 16660082209079339394
2838139 119 17748831829938541633
314173 85 16271933692241795694
345986 75 18128272253639194120
351380 180 18187643587615247457
351380 3 13039190290353498504
4072396 5 17748827428002881254
4325135 7 9727630609816128706
5104073 3 18337674105567969050
5207 217 7565333250382187006
5312625 73 9799401227188036350
6328613 192 18336256835438890108
8217 86 8574416639385244021
9965369 4 18335703874961668810
9981440 41 18114452431908296131

> <PUBCHEM_SHAPE_MULTIPOLES>
391.79
17.01
1.8
1.2
4.33
0.03
0.02
1.15
4.79
1.28
0.1
-0.79
-0.04
-0.43

> <PUBCHEM_SHAPE_SELFOVERLAP>
772.989

> <PUBCHEM_SHAPE_VOLUME>
235.9

> <PUBCHEM_COORDINATE_TYPE>
2
5
10

$$$$

