2966
  -OEChem-07051213042D

 26 27  0     0  0  0  0  0  0999 V2000
    4.2690    0.1377    0.0000 N   0  0  0  0  0  0  0  0  0  0  0  0
    2.5369    0.1377    0.0000 N   0  0  0  0  0  0  0  0  0  0  0  0
    3.4030   -1.3623    0.0000 N   0  0  0  0  0  0  0  0  0  0  0  0
    5.1350    1.6377    0.0000 C   0  0  0  0  0  0  0  0  0  0  0  0
    4.2690    1.1377    0.0000 C   0  0  0  0  0  0  0  0  0  0  0  0
    5.1350   -0.3623    0.0000 C   0  0  0  0  0  0  0  0  0  0  0  0
    6.0010    1.1377    0.0000 C   0  0  0  0  0  0  0  0  0  0  0  0
    6.0010    0.1377    0.0000 C   0  0  0  0  0  0  0  0  0  0  0  0
    6.8950    1.6723    0.0000 C   0  0  0  0  0  0  0  0  0  0  0  0
    6.8950   -0.3970    0.0000 C   0  0  0  0  0  0  0  0  0  0  0  0
    3.4030   -0.3623    0.0000 C   0  0  0  0  0  0  0  0  0  0  0  0
    7.8010    1.1585    0.0000 C   0  0  0  0  0  0  0  0  0  0  0  0
    7.8010    0.1169    0.0000 C   0  0  0  0  0  0  0  0  0  0  0  0
    5.5335    2.1126    0.0000 H   0  0  0  0  0  0  0  0  0  0  0  0
    4.7365    2.1126    0.0000 H   0  0  0  0  0  0  0  0  0  0  0  0
    4.0569    1.7203    0.0000 H   0  0  0  0  0  0  0  0  0  0  0  0
    3.6584    1.0300    0.0000 H   0  0  0  0  0  0  0  0  0  0  0  0
    4.7365   -0.8373    0.0000 H   0  0  0  0  0  0  0  0  0  0  0  0
    5.5335   -0.8373    0.0000 H   0  0  0  0  0  0  0  0  0  0  0  0
    6.8878    2.2923    0.0000 H   0  0  0  0  0  0  0  0  0  0  0  0
    6.8878   -1.0170    0.0000 H   0  0  0  0  0  0  0  0  0  0  0  0
    8.3368    1.4706    0.0000 H   0  0  0  0  0  0  0  0  0  0  0  0
    8.3368   -0.1952    0.0000 H   0  0  0  0  0  0  0  0  0  0  0  0
    2.0000   -0.1723    0.0000 H   0  0  0  0  0  0  0  0  0  0  0  0
    2.5369    0.7577    0.0000 H   0  0  0  0  0  0  0  0  0  0  0  0
    2.8660   -1.6723    0.0000 H   0  0  0  0  0  0  0  0  0  0  0  0
  1  5  1  0  0  0  0
  1  6  1  0  0  0  0
  1 11  1  0  0  0  0
  2 11  1  0  0  0  0
  2 24  1  0  0  0  0
  2 25  1  0  0  0  0
  3 11  2  0  0  0  0
  3 26  1  0  0  0  0
  4  5  1  0  0  0  0
  4  7  1  0  0  0  0
  4 14  1  0  0  0  0
  4 15  1  0  0  0  0
  5 16  1  0  0  0  0
  5 17  1  0  0  0  0
  6  8  1  0  0  0  0
  6 18  1  0  0  0  0
  6 19  1  0  0  0  0
  7  8  1  0  0  0  0
  7  9  2  0  0  0  0
  8 10  2  0  0  0  0
  9 12  1  0  0  0  0
  9 20  1  0  0  0  0
 10 13  1  0  0  0  0
 10 21  1  0  0  0  0
 12 13  2  0  0  0  0
 12 22  1  0  0  0  0
 13 23  1  0  0  0  0
M  END
> <PUBCHEM_COMPOUND_CID>
2966

> <PUBCHEM_COMPOUND_CANONICALIZED>
1

> <PUBCHEM_CACTVS_COMPLEXITY>
202

> <PUBCHEM_CACTVS_HBOND_ACCEPTOR>
1

> <PUBCHEM_CACTVS_HBOND_DONOR>
2

> <PUBCHEM_CACTVS_ROTATABLE_BOND>
1

> <PUBCHEM_CACTVS_SUBSKEYS>
AAADccBzAAAAAAAAAAAAAAAAAAAAAAAAAAA8QAAAAAAAAACxAAAAHAAQAAAADADBGAQxAINAAACgAiBCIACCAACgAAAJiAAIBIiIICKAmRGEIAhggAKIiAcQgIAOgAAAAAAQAAAAAAAAACAAAAAAAAAAAA==

> <PUBCHEM_IUPAC_OPENEYE_NAME>
3,4-dihydro-1H-isoquinoline-2-carboxamidine

> <PUBCHEM_IUPAC_CAS_NAME>
3,4-dihydro-1H-isoquinoline-2-carboximidamide

> <PUBCHEM_IUPAC_NAME>
3,4-dihydro-1H-isoquinoline-2-carboximidamide

> <PUBCHEM_IUPAC_SYSTEMATIC_NAME>
3,4-dihydro-1H-isoquinoline-2-carboximidamide

> <PUBCHEM_IUPAC_TRADITIONAL_NAME>
3,4-dihydro-1H-isoquinoline-2-carboxamidine

> <PUBCHEM_IUPAC_INCHI>
InChI=1S/C10H13N3/c11-10(12)13-6-5-8-3-1-2-4-9(8)7-13/h1-4H,5-7H2,(H3,11,12)

> <PUBCHEM_IUPAC_INCHIKEY>
JWPGJSVJDAJRLW-UHFFFAOYSA-N

> <PUBCHEM_XLOGP3>
0.8

> <PUBCHEM_EXACT_MASS>
175.110947

> <PUBCHEM_MOLECULAR_FORMULA>
C10H13N3

> <PUBCHEM_MOLECULAR_WEIGHT>
175.23032

> <PUBCHEM_OPENEYE_CAN_SMILES>
C1CN(CC2=CC=CC=C21)C(=N)N

> <PUBCHEM_OPENEYE_ISO_SMILES>
C1CN(CC2=CC=CC=C21)C(=N)N

> <PUBCHEM_CACTVS_TPSA>
53.1

> <PUBCHEM_MONOISOTOPIC_WEIGHT>
175.110947

> <PUBCHEM_TOTAL_CHARGE>
0

> <PUBCHEM_HEAVY_ATOM_COUNT>
13

> <PUBCHEM_ATOM_DEF_STEREO_COUNT>
0

> <PUBCHEM_ATOM_UDEF_STEREO_COUNT>
0

> <PUBCHEM_BOND_DEF_STEREO_COUNT>
0

> <PUBCHEM_BOND_UDEF_STEREO_COUNT>
0

> <PUBCHEM_ISOTOPIC_ATOM_COUNT>
0

> <PUBCHEM_COMPONENT_COUNT>
1

> <PUBCHEM_CACTVS_TAUTO_COUNT>
1

> <PUBCHEM_COORDINATE_TYPE>
1
5
255

> <PUBCHEM_BONDANNOTATIONS>
10  13  8
12  13  8
7  8  8
7  9  8
8  10  8
9  12  8

$$$$

