23724788
  -OEChem-07051212542D

 44 46  0     1  0  0  0  0  0999 V2000
    7.0468   -1.7307    0.0000 S   0  0  0  0  0  0  0  0  0  0  0  0
    4.4487   -0.2307    0.0000 S   0  0  0  0  0  0  0  0  0  0  0  0
    3.4782    1.2638    0.0000 S   0  0  0  0  0  0  0  0  0  0  0  0
    6.1808    2.7693    0.0000 Na  0  3  0  0  0  0  0  0  0  0  0  0
    9.6267    0.4820    0.0000 O   0  0  0  0  0  0  0  0  0  0  0  0
    6.1808    1.7693    0.0000 O   0  5  0  0  0  0  0  0  0  0  0  0
   10.8540   -0.7212    0.0000 O   0  0  0  0  0  0  0  0  0  0  0  0
    7.9128    1.7693    0.0000 O   0  0  0  0  0  0  0  0  0  0  0  0
    7.9128   -0.2307    0.0000 N   0  0  0  0  0  0  0  0  0  0  0  0
    9.6267   -1.9434    0.0000 N   0  0  0  0  0  0  0  0  0  0  0  0
   12.2653   -2.1383    0.0000 N   0  3  0  0  0  0  0  0  0  0  0  0
   13.0412   -2.7693    0.0000 N   0  0  0  0  0  0  0  0  0  0  0  0
   13.6241   -1.2599    0.0000 N   0  0  0  0  0  0  0  0  0  0  0  0
   13.8809   -2.2263    0.0000 N   0  0  0  0  0  0  0  0  0  0  0  0
    2.6691   -0.1375    0.0000 N   0  0  0  0  0  0  0  0  0  0  0  0
    2.5000    1.4717    0.0000 N   0  3  0  0  0  0  0  0  0  0  0  0
    2.0000    0.6057    0.0000 N   0  0  0  0  0  0  0  0  0  0  0  0
    7.9128   -1.2307    0.0000 C   0  0  1  0  0  0  0  0  0  0  0  0
    8.9211   -1.2349    0.0000 C   0  0  1  0  0  0  0  0  0  0  0  0
    8.9211   -0.2266    0.0000 C   0  0  0  0  0  0  0  0  0  0  0  0
    7.0468    0.2693    0.0000 C   0  0  0  0  0  0  0  0  0  0  0  0
    6.1808   -0.2307    0.0000 C   0  0  0  0  0  0  0  0  0  0  0  0
    6.1808   -1.2307    0.0000 C   0  0  0  0  0  0  0  0  0  0  0  0
    5.3147    0.2693    0.0000 C   0  0  0  0  0  0  0  0  0  0  0  0
   10.5932   -1.6866    0.0000 C   0  0  0  0  0  0  0  0  0  0  0  0
    7.0468    1.2693    0.0000 C   0  0  0  0  0  0  0  0  0  0  0  0
   11.2988   -2.3952    0.0000 C   0  0  0  0  0  0  0  0  0  0  0  0
   12.6256   -1.2055    0.0000 C   0  0  0  0  0  0  0  0  0  0  0  0
    3.5827    0.2693    0.0000 C   0  0  0  0  0  0  0  0  0  0  0  0
    2.0933    2.3852    0.0000 C   0  0  0  0  0  0  0  0  0  0  0  0
    8.1311   -2.0522    0.0000 H   0  0  0  0  0  0  0  0  0  0  0  0
    8.6821   -1.8070    0.0000 H   0  0  0  0  0  0  0  0  0  0  0  0
    5.5702   -1.1231    0.0000 H   0  0  0  0  0  0  0  0  0  0  0  0
    5.9687   -1.8134    0.0000 H   0  0  0  0  0  0  0  0  0  0  0  0
    9.4650   -2.5420    0.0000 H   0  0  0  0  0  0  0  0  0  0  0  0
    5.7133    0.7442    0.0000 H   0  0  0  0  0  0  0  0  0  0  0  0
    4.9162    0.7442    0.0000 H   0  0  0  0  0  0  0  0  0  0  0  0
   10.7902   -2.7498    0.0000 H   0  0  0  0  0  0  0  0  0  0  0  0
   11.5597   -2.9576    0.0000 H   0  0  0  0  0  0  0  0  0  0  0  0
   12.7238   -0.5933    0.0000 H   0  0  0  0  0  0  0  0  0  0  0  0
   12.0270   -1.0438    0.0000 H   0  0  0  0  0  0  0  0  0  0  0  0
    2.6597    2.6374    0.0000 H   0  0  0  0  0  0  0  0  0  0  0  0
    1.8411    2.9516    0.0000 H   0  0  0  0  0  0  0  0  0  0  0  0
    1.5269    2.1331    0.0000 H   0  0  0  0  0  0  0  0  0  0  0  0
  1 18  1  0  0  0  0
  1 23  1  0  0  0  0
  2 24  1  0  0  0  0
  2 29  1  0  0  0  0
  3 16  1  0  0  0  0
  3 29  1  0  0  0  0
  5 20  2  0  0  0  0
  6 26  1  0  0  0  0
  7 25  2  0  0  0  0
  8 26  2  0  0  0  0
  9 18  1  0  0  0  0
  9 20  1  0  0  0  0
  9 21  1  0  0  0  0
 19 10  1  1  0  0  0
 10 25  1  0  0  0  0
 10 35  1  0  0  0  0
 11 12  2  0  0  0  0
 11 27  1  0  0  0  0
 11 28  1  0  0  0  0
 12 14  1  0  0  0  0
 13 14  2  0  0  0  0
 13 28  1  0  0  0  0
 15 17  1  0  0  0  0
 15 29  2  0  0  0  0
 16 17  2  0  0  0  0
 16 30  1  0  0  0  0
 18 19  1  0  0  0  0
 18 31  1  6  0  0  0
 19 20  1  0  0  0  0
 19 32  1  0  0  0  0
 21 22  2  0  0  0  0
 21 26  1  0  0  0  0
 22 23  1  0  0  0  0
 22 24  1  0  0  0  0
 23 33  1  0  0  0  0
 23 34  1  0  0  0  0
 24 36  1  0  0  0  0
 24 37  1  0  0  0  0
 25 27  1  0  0  0  0
 27 38  1  0  0  0  0
 27 39  1  0  0  0  0
 28 40  1  0  0  0  0
 28 41  1  0  0  0  0
 30 42  1  0  0  0  0
 30 43  1  0  0  0  0
 30 44  1  0  0  0  0
M  CHG  4   4   1   6  -1  11   1  16   1
M  END
> <PUBCHEM_COMPOUND_CID>
23724788

> <PUBCHEM_COMPOUND_CANONICALIZED>
1

> <PUBCHEM_CACTVS_COMPLEXITY>
841

> <PUBCHEM_CACTVS_HBOND_ACCEPTOR>
12

> <PUBCHEM_CACTVS_HBOND_DONOR>
1

> <PUBCHEM_CACTVS_ROTATABLE_BOND>
7

> <PUBCHEM_CACTVS_SUBSKEYS>
AAADccBz+CBgAAAAAAAAAAAAAABYAWIAAAAgAAAAAAAQAAABgAAAHgQYQAAADCjFwASDCAPAAAiuAgXQWAAAAQBAgBAACIGIAECCRAggACAUEAAAFgKwAQAAAAAAAAAAAAAAAAAAAAAAAAAAAAAAAAAAAA==

> <PUBCHEM_IUPAC_OPENEYE_NAME>
sodium (6R,7R)-3-[(2-methylthiatriazol-2-ium-5-yl)sulfanylmethyl]-8-oxo-7-[[2-(5H-tetrazol-1-ium-1-yl)acetyl]amino]-5-thia-1-azabicyclo[4.2.0]oct-2-ene-2-carboxylate

> <PUBCHEM_IUPAC_CAS_NAME>
sodium (6R,7R)-3-[[(2-methyl-5-thiatriazol-2-iumyl)thio]methyl]-8-oxo-7-[[1-oxo-2-(5H-tetrazol-1-ium-1-yl)ethyl]amino]-5-thia-1-azabicyclo[4.2.0]oct-2-ene-2-carboxylate

> <PUBCHEM_IUPAC_NAME>
sodium (6R,7R)-3-[(2-methylthiatriazol-2-ium-5-yl)sulfanylmethyl]-8-oxo-7-[[2-(5H-tetrazol-1-ium-1-yl)acetyl]amino]-5-thia-1-azabicyclo[4.2.0]oct-2-ene-2-carboxylate

> <PUBCHEM_IUPAC_SYSTEMATIC_NAME>
sodium (6R,7R)-3-[(2-methyl-1,2,3,4-thiatriazol-2-ium-5-yl)sulfanylmethyl]-8-oxidanylidene-7-[2-(5H-1,2,3,4-tetrazol-1-ium-1-yl)ethanoylamino]-5-thia-1-azabicyclo[4.2.0]oct-2-ene-2-carboxylate

> <PUBCHEM_IUPAC_TRADITIONAL_NAME>
sodium (6R,7R)-8-keto-3-[[(2-methylthiatriazol-2-ium-5-yl)thio]methyl]-7-[[2-(5H-tetrazol-1-ium-1-yl)acetyl]amino]-5-thia-1-azabicyclo[4.2.0]oct-2-ene-2-carboxylate

> <PUBCHEM_IUPAC_INCHI>
InChI=1S/C13H13N9O4S3.Na/c1-20-18-16-13(29-20)28-4-6-3-27-11-8(10(24)22(11)9(6)12(25)26)15-7(23)2-21-5-14-17-19-21;/h8,11H,2-5H2,1H3;/q;+1/p+1/t8-,11-;/m1./s1

> <PUBCHEM_IUPAC_INCHIKEY>
XVFXFKSFWINCFE-JHQAJZDGSA-O

> <PUBCHEM_EXACT_MASS>
479.022857

> <PUBCHEM_MOLECULAR_FORMULA>
C13H14N9NaO4S3+2

> <PUBCHEM_MOLECULAR_WEIGHT>
479.492929

> <PUBCHEM_OPENEYE_CAN_SMILES>
C[N+]1=NN=C(S1)SCC2=C(N3C(C(C3=O)NC(=O)C[N+]4=NN=NC4)SC2)C(=O)[O-].[Na+]

> <PUBCHEM_OPENEYE_ISO_SMILES>
C[N+]1=NN=C(S1)SCC2=C(N3[C@@H]([C@@H](C3=O)NC(=O)C[N+]4=NN=NC4)SC2)C(=O)[O-].[Na+]

> <PUBCHEM_CACTVS_TPSA>
238

> <PUBCHEM_MONOISOTOPIC_WEIGHT>
479.022857

> <PUBCHEM_TOTAL_CHARGE>
2

> <PUBCHEM_HEAVY_ATOM_COUNT>
30

> <PUBCHEM_ATOM_DEF_STEREO_COUNT>
2

> <PUBCHEM_ATOM_UDEF_STEREO_COUNT>
0

> <PUBCHEM_BOND_DEF_STEREO_COUNT>
0

> <PUBCHEM_BOND_UDEF_STEREO_COUNT>
0

> <PUBCHEM_ISOTOPIC_ATOM_COUNT>
0

> <PUBCHEM_COMPONENT_COUNT>
2

> <PUBCHEM_CACTVS_TAUTO_COUNT>
4

> <PUBCHEM_NONSTANDARDBOND>
4  6  7

> <PUBCHEM_COORDINATE_TYPE>
1
5
255

> <PUBCHEM_BONDANNOTATIONS>
19  10  5
15  17  8
15  29  8
16  17  8
18  31  6
3  16  8
3  29  8

$$$$

