1028
  -OEChem-07051212442D

 26 26  0     0  0  0  0  0  0999 V2000
    5.3100   -2.6440    0.0000 O   0  0  0  0  0  0  0  0  0  0  0  0
    6.8100    1.2220    0.0000 O   0  0  0  0  0  0  0  0  0  0  0  0
    5.3100    2.0880    0.0000 O   0  0  0  0  0  0  0  0  0  0  0  0
    3.3100    0.3560    0.0000 O   0  0  0  0  0  0  0  0  0  0  0  0
    2.3100    2.0880    0.0000 O   0  0  0  0  0  0  0  0  0  0  0  0
    3.8100    2.9540    0.0000 O   0  0  0  0  0  0  0  0  0  0  0  0
    5.3100    0.3560    0.0000 C   0  0  0  0  0  0  0  0  0  0  0  0
    4.8100    1.2220    0.0000 C   0  0  0  0  0  0  0  0  0  0  0  0
    4.4440   -0.1440    0.0000 C   0  0  0  0  0  0  0  0  0  0  0  0
    6.1760   -0.1440    0.0000 C   0  0  0  0  0  0  0  0  0  0  0  0
    5.3100   -1.6440    0.0000 C   0  0  0  0  0  0  0  0  0  0  0  0
    6.1760   -1.1440    0.0000 C   0  0  0  0  0  0  0  0  0  0  0  0
    4.4440   -1.1440    0.0000 C   0  0  0  0  0  0  0  0  0  0  0  0
    5.8100    1.2220    0.0000 C   0  0  0  0  0  0  0  0  0  0  0  0
    3.8100    1.2220    0.0000 C   0  0  0  0  0  0  0  0  0  0  0  0
    3.3100    2.0880    0.0000 C   0  0  0  0  0  0  0  0  0  0  0  0
    5.3926    1.4340    0.0000 H   0  0  0  0  0  0  0  0  0  0  0  0
    4.7023    1.8326    0.0000 H   0  0  0  0  0  0  0  0  0  0  0  0
    6.7130    0.1660    0.0000 H   0  0  0  0  0  0  0  0  0  0  0  0
    3.9070    0.1660    0.0000 H   0  0  0  0  0  0  0  0  0  0  0  0
    5.8469   -1.9540    0.0000 H   0  0  0  0  0  0  0  0  0  0  0  0
    6.7130   -1.4540    0.0000 H   0  0  0  0  0  0  0  0  0  0  0  0
    3.9070   -1.4540    0.0000 H   0  0  0  0  0  0  0  0  0  0  0  0
    4.7731   -2.9540    0.0000 H   0  0  0  0  0  0  0  0  0  0  0  0
    7.1200    1.7589    0.0000 H   0  0  0  0  0  0  0  0  0  0  0  0
    2.0000    2.6250    0.0000 H   0  0  0  0  0  0  0  0  0  0  0  0
  1 11  1  0  0  0  0
  1 24  1  0  0  0  0
  2 14  1  0  0  0  0
  2 25  1  0  0  0  0
  3 14  2  0  0  0  0
  4 15  2  0  0  0  0
  5 16  1  0  0  0  0
  5 26  1  0  0  0  0
  6 16  2  0  0  0  0
  7  8  1  0  0  0  0
  7  9  1  0  0  0  0
  7 10  1  0  0  0  0
  7 14  1  0  0  0  0
  8 15  1  0  0  0  0
  8 17  1  0  0  0  0
  8 18  1  0  0  0  0
  9 13  2  0  0  0  0
  9 20  1  0  0  0  0
 10 12  2  0  0  0  0
 10 19  1  0  0  0  0
 11 12  1  0  0  0  0
 11 13  1  0  0  0  0
 11 21  1  0  0  0  0
 12 22  1  0  0  0  0
 13 23  1  0  0  0  0
 15 16  1  0  0  0  0
M  END
> <PUBCHEM_COMPOUND_CID>
1028

> <PUBCHEM_COMPOUND_CANONICALIZED>
1

> <PUBCHEM_CACTVS_COMPLEXITY>
378

> <PUBCHEM_CACTVS_HBOND_ACCEPTOR>
6

> <PUBCHEM_CACTVS_HBOND_DONOR>
3

> <PUBCHEM_CACTVS_ROTATABLE_BOND>
4

> <PUBCHEM_CACTVS_SUBSKEYS>
AAADccBwOAAAAAAAAAAAAAAAAAAAAAAAAAAgAAAAAAAAAAAAAAAAGgAACAAADhSggAIACAAAAgCIAKDSCAIAAAAgAAAICAFAAAgAFBIAAQAAUAAEwAAIEAKLJgANAAAAAAAAAAAAAAAAAAAAAAAAAAAAAA==

> <PUBCHEM_IUPAC_OPENEYE_NAME>
1-(2-carboxy-2-oxo-ethyl)-4-hydroxy-cyclohexa-2,5-diene-1-carboxylic acid

> <PUBCHEM_IUPAC_CAS_NAME>
1-(2-carboxy-2-oxoethyl)-4-hydroxy-1-cyclohexa-2,5-dienecarboxylic acid

> <PUBCHEM_IUPAC_NAME>
1-(2-carboxy-2-oxoethyl)-4-hydroxycyclohexa-2,5-diene-1-carboxylic acid

> <PUBCHEM_IUPAC_SYSTEMATIC_NAME>
4-oxidanyl-1-[3-oxidanyl-2,3-bis(oxidanylidene)propyl]cyclohexa-2,5-diene-1-carboxylic acid

> <PUBCHEM_IUPAC_TRADITIONAL_NAME>
1-(2-carboxy-2-keto-ethyl)-4-hydroxy-cyclohexa-2,5-diene-1-carboxylic acid

> <PUBCHEM_IUPAC_INCHI>
InChI=1S/C10H10O6/c11-6-1-3-10(4-2-6,9(15)16)5-7(12)8(13)14/h1-4,6,11H,5H2,(H,13,14)(H,15,16)

> <PUBCHEM_IUPAC_INCHIKEY>
FPWMCUPFBRFMLH-UHFFFAOYSA-N

> <PUBCHEM_XLOGP3_AA>
-0.5

> <PUBCHEM_EXACT_MASS>
226.047738

> <PUBCHEM_MOLECULAR_FORMULA>
C10H10O6

> <PUBCHEM_MOLECULAR_WEIGHT>
226.1828

> <PUBCHEM_OPENEYE_CAN_SMILES>
C1=CC(C=CC1O)(CC(=O)C(=O)O)C(=O)O

> <PUBCHEM_OPENEYE_ISO_SMILES>
C1=CC(C=CC1O)(CC(=O)C(=O)O)C(=O)O

> <PUBCHEM_CACTVS_TPSA>
112

> <PUBCHEM_MONOISOTOPIC_WEIGHT>
226.047738

> <PUBCHEM_TOTAL_CHARGE>
0

> <PUBCHEM_HEAVY_ATOM_COUNT>
16

> <PUBCHEM_ATOM_DEF_STEREO_COUNT>
0

> <PUBCHEM_ATOM_UDEF_STEREO_COUNT>
0

> <PUBCHEM_BOND_DEF_STEREO_COUNT>
0

> <PUBCHEM_BOND_UDEF_STEREO_COUNT>
0

> <PUBCHEM_ISOTOPIC_ATOM_COUNT>
0

> <PUBCHEM_COMPONENT_COUNT>
1

> <PUBCHEM_CACTVS_TAUTO_COUNT>
2

> <PUBCHEM_COORDINATE_TYPE>
1
5
255

$$$$

