5281385
  -OEChem-07051212562D

 77 80  0     1  0  0  0  0  0999 V2000
    7.5832   -2.2949    0.0000 O   0  0  0  0  0  0  0  0  0  0  0  0
    6.6382   -1.8334    0.0000 O   0  0  0  0  0  0  0  0  0  0  0  0
    7.3654    0.7733    0.0000 O   0  0  0  0  0  0  0  0  0  0  0  0
    8.5699   -3.7185    0.0000 O   0  0  0  0  0  0  0  0  0  0  0  0
    8.4673    3.8612    0.0000 O   0  0  0  0  0  0  0  0  0  0  0  0
   11.5605    2.4924    0.0000 O   0  0  0  0  0  0  0  0  0  0  0  0
    5.6680   -0.3986    0.0000 O   0  0  0  0  0  0  0  0  0  0  0  0
    9.2612   -1.1319    0.0000 C   0  0  1  0  0  0  0  0  0  0  0  0
    8.4051   -1.7253    0.0000 C   0  0  1  0  0  0  0  0  0  0  0  0
    9.3473   -2.1704    0.0000 C   0  0  0  0  0  0  0  0  0  0  0  0
    9.1673   -0.0945    0.0000 C   0  0  1  0  0  0  0  0  0  0  0  0
    7.4666   -1.2733    0.0000 C   0  0  1  0  0  0  0  0  0  0  0  0
    8.2664    0.3394    0.0000 C   0  0  1  0  0  0  0  0  0  0  0  0
    7.3968   -0.2340    0.0000 C   0  0  2  0  0  0  0  0  0  0  0  0
   10.3439   -2.0880    0.0000 C   0  0  0  0  0  0  0  0  0  0  0  0
    8.9204   -3.0747    0.0000 C   0  0  0  0  0  0  0  0  0  0  0  0
    8.0439    1.3143    0.0000 C   0  0  1  0  0  0  0  0  0  0  0  0
   10.0683    0.3394    0.0000 C   0  0  0  0  0  0  0  0  0  0  0  0
    8.6673    2.0962    0.0000 C   0  0  2  0  0  0  0  0  0  0  0  0
    6.3988   -0.2972    0.0000 C   0  0  0  0  0  0  0  0  0  0  0  0
   10.2908    1.3143    0.0000 C   0  0  0  0  0  0  0  0  0  0  0  0
    9.6673    2.0962    0.0000 C   0  0  0  0  0  0  0  0  0  0  0  0
    7.1141    1.6660    0.0000 C   0  0  0  0  0  0  0  0  0  0  0  0
    7.6656   -3.2915    0.0000 C   0  0  0  0  0  0  0  0  0  0  0  0
    8.1176    2.9244    0.0000 C   0  0  0  0  0  0  0  0  0  0  0  0
    7.1595    2.6591    0.0000 C   0  0  0  0  0  0  0  0  0  0  0  0
    5.7389   -1.3961    0.0000 C   0  0  0  0  0  0  0  0  0  0  0  0
   11.2658    1.5368    0.0000 C   0  0  0  0  0  0  0  0  0  0  0  0
    6.8438   -3.8612    0.0000 C   0  0  0  0  0  0  0  0  0  0  0  0
    6.3777    3.2826    0.0000 C   0  0  0  0  0  0  0  0  0  0  0  0
    4.9105   -1.9562    0.0000 C   0  0  0  0  0  0  0  0  0  0  0  0
    4.0112   -1.5189    0.0000 C   0  0  0  0  0  0  0  0  0  0  0  0
    3.9404   -0.5214    0.0000 C   0  0  0  0  0  0  0  0  0  0  0  0
    3.0411   -0.0840    0.0000 C   0  0  0  0  0  0  0  0  0  0  0  0
    2.9702    0.9134    0.0000 C   0  0  0  0  0  0  0  0  0  0  0  0
    2.0709    1.3508    0.0000 C   0  0  0  0  0  0  0  0  0  0  0  0
    2.0000    2.3483    0.0000 C   0  0  0  0  0  0  0  0  0  0  0  0
   10.1080   -1.0584    0.0000 H   0  0  0  0  0  0  0  0  0  0  0  0
    9.9067   -0.5138    0.0000 H   0  0  0  0  0  0  0  0  0  0  0  0
    7.5118   -1.8917    0.0000 H   0  0  0  0  0  0  0  0  0  0  0  0
    7.1999    0.3539    0.0000 H   0  0  0  0  0  0  0  0  0  0  0  0
    8.3598   -2.8100    0.0000 H   0  0  0  0  0  0  0  0  0  0  0  0
   10.3950   -2.7059    0.0000 H   0  0  0  0  0  0  0  0  0  0  0  0
   10.9618   -2.0369    0.0000 H   0  0  0  0  0  0  0  0  0  0  0  0
   10.2928   -1.4701    0.0000 H   0  0  0  0  0  0  0  0  0  0  0  0
    8.6557   -3.6354    0.0000 H   0  0  0  0  0  0  0  0  0  0  0  0
    9.4811   -3.3394    0.0000 H   0  0  0  0  0  0  0  0  0  0  0  0
    7.4030    0.7559    0.0000 H   0  0  0  0  0  0  0  0  0  0  0  0
   10.5530   -0.0472    0.0000 H   0  0  0  0  0  0  0  0  0  0  0  0
    9.0692    2.8452    0.0000 H   0  0  0  0  0  0  0  0  0  0  0  0
    6.3596    0.3215    0.0000 H   0  0  0  0  0  0  0  0  0  0  0  0
    5.7800   -0.3364    0.0000 H   0  0  0  0  0  0  0  0  0  0  0  0
    6.4380   -0.9160    0.0000 H   0  0  0  0  0  0  0  0  0  0  0  0
    6.7471    0.7270    0.0000 H   0  0  0  0  0  0  0  0  0  0  0  0
   10.2259    2.3652    0.0000 H   0  0  0  0  0  0  0  0  0  0  0  0
    9.5294    2.7006    0.0000 H   0  0  0  0  0  0  0  0  0  0  0  0
    6.5960    1.3254    0.0000 H   0  0  0  0  0  0  0  0  0  0  0  0
   11.2967    0.9176    0.0000 H   0  0  0  0  0  0  0  0  0  0  0  0
   11.8809    1.4598    0.0000 H   0  0  0  0  0  0  0  0  0  0  0  0
    6.4906   -3.3516    0.0000 H   0  0  0  0  0  0  0  0  0  0  0  0
    6.3342   -4.2144    0.0000 H   0  0  0  0  0  0  0  0  0  0  0  0
    7.1970   -4.3708    0.0000 H   0  0  0  0  0  0  0  0  0  0  0  0
    6.7643    3.7673    0.0000 H   0  0  0  0  0  0  0  0  0  0  0  0
    5.8930    3.6691    0.0000 H   0  0  0  0  0  0  0  0  0  0  0  0
    5.9911    2.7978    0.0000 H   0  0  0  0  0  0  0  0  0  0  0  0
    4.9545   -2.5747    0.0000 H   0  0  0  0  0  0  0  0  0  0  0  0
   12.1650    2.6304    0.0000 H   0  0  0  0  0  0  0  0  0  0  0  0
    3.4976   -1.8662    0.0000 H   0  0  0  0  0  0  0  0  0  0  0  0
    4.4540   -0.1741    0.0000 H   0  0  0  0  0  0  0  0  0  0  0  0
    2.5274   -0.4313    0.0000 H   0  0  0  0  0  0  0  0  0  0  0  0
    3.5868    0.8493    0.0000 H   0  0  0  0  0  0  0  0  0  0  0  0
    3.1404    1.5096    0.0000 H   0  0  0  0  0  0  0  0  0  0  0  0
    1.4542    1.4149    0.0000 H   0  0  0  0  0  0  0  0  0  0  0  0
    1.9007    0.7546    0.0000 H   0  0  0  0  0  0  0  0  0  0  0  0
    2.6184    2.3922    0.0000 H   0  0  0  0  0  0  0  0  0  0  0  0
    1.9560    2.9667    0.0000 H   0  0  0  0  0  0  0  0  0  0  0  0
    1.3816    2.3043    0.0000 H   0  0  0  0  0  0  0  0  0  0  0  0
  9  1  1  1  0  0  0
  1 24  1  0  0  0  0
 12  2  1  6  0  0  0
  2 27  1  0  0  0  0
 13  3  1  1  0  0  0
  3 54  1  0  0  0  0
  4 24  2  0  0  0  0
  5 25  2  0  0  0  0
  6 28  1  0  0  0  0
  6 67  1  0  0  0  0
  7 27  2  0  0  0  0
  8  9  1  0  0  0  0
  8 10  1  0  0  0  0
  8 11  1  0  0  0  0
  8 38  1  1  0  0  0
  9 10  1  0  0  0  0
  9 12  1  0  0  0  0
 10 15  1  0  0  0  0
 10 16  1  0  0  0  0
 11 13  1  0  0  0  0
 11 18  1  0  0  0  0
 11 39  1  6  0  0  0
 12 14  1  0  0  0  0
 12 40  1  0  0  0  0
 13 14  1  0  0  0  0
 13 17  1  0  0  0  0
 14 20  1  1  0  0  0
 14 41  1  0  0  0  0
 15 43  1  0  0  0  0
 15 44  1  0  0  0  0
 15 45  1  0  0  0  0
 16 42  1  0  0  0  0
 16 46  1  0  0  0  0
 16 47  1  0  0  0  0
 17 19  1  0  0  0  0
 17 23  1  0  0  0  0
 17 48  1  1  0  0  0
 18 21  2  0  0  0  0
 18 49  1  0  0  0  0
 19 22  1  0  0  0  0
 19 25  1  0  0  0  0
 19 50  1  6  0  0  0
 20 51  1  0  0  0  0
 20 52  1  0  0  0  0
 20 53  1  0  0  0  0
 21 22  1  0  0  0  0
 21 28  1  0  0  0  0
 22 55  1  0  0  0  0
 22 56  1  0  0  0  0
 23 26  2  0  0  0  0
 23 57  1  0  0  0  0
 24 29  1  0  0  0  0
 25 26  1  0  0  0  0
 26 30  1  0  0  0  0
 27 31  1  0  0  0  0
 28 58  1  0  0  0  0
 28 59  1  0  0  0  0
 29 60  1  0  0  0  0
 29 61  1  0  0  0  0
 29 62  1  0  0  0  0
 30 63  1  0  0  0  0
 30 64  1  0  0  0  0
 30 65  1  0  0  0  0
 31 32  2  0  0  0  0
 31 66  1  0  0  0  0
 32 33  1  0  0  0  0
 32 68  1  0  0  0  0
 33 34  2  0  0  0  0
 33 69  1  0  0  0  0
 34 35  1  0  0  0  0
 34 70  1  0  0  0  0
 35 36  1  0  0  0  0
 35 71  1  0  0  0  0
 35 72  1  0  0  0  0
 36 37  1  0  0  0  0
 36 73  1  0  0  0  0
 36 74  1  0  0  0  0
 37 75  1  0  0  0  0
 37 76  1  0  0  0  0
 37 77  1  0  0  0  0
M  END
> <PUBCHEM_COMPOUND_CID>
5281385

> <PUBCHEM_COMPOUND_CANONICALIZED>
1

> <PUBCHEM_CACTVS_COMPLEXITY>
1100

> <PUBCHEM_CACTVS_HBOND_ACCEPTOR>
7

> <PUBCHEM_CACTVS_HBOND_DONOR>
2

> <PUBCHEM_CACTVS_ROTATABLE_BOND>
9

> <PUBCHEM_CACTVS_SUBSKEYS>
AAADcfB4OAAAAAAAAAAAAAAAGAAAAQAAAAAwAAAABggAAACAAAAAGgAACAAAD1SggAICCAAABgCIAqDSCAAAAAAgAAAICAEAAEgJFBIAIQACUAAFwAAKsYPK7PyPgAAAAAAAAADCAAYQADCAAAAAAAAAAA==

> <PUBCHEM_IUPAC_INCHI>
InChI=1S/C30H40O7/c1-7-8-9-10-11-12-24(33)36-27-18(3)29(35)22-13-17(2)25(34)21(22)14-20(16-31)15-23(29)26-28(5,6)30(26,27)37-19(4)32/h9-13,15,18,21-23,26-27,31,35H,7-8,14,16H2,1-6H3/b10-9+,12-11-/t18-,21+,22-,23+,26-,27-,29+,30-/m1/s1

> <PUBCHEM_IUPAC_INCHIKEY>
ALKHEZOKTHCOBM-MGZHOKCZSA-N

> <PUBCHEM_XLOGP3_AA>
3.5

> <PUBCHEM_EXACT_MASS>
512.277404

> <PUBCHEM_MOLECULAR_FORMULA>
C30H40O7

> <PUBCHEM_MOLECULAR_WEIGHT>
512.6344

> <PUBCHEM_OPENEYE_CAN_SMILES>
CCCC=CC=CC(=O)OC1C(C2(C3C=C(C(=O)C3CC(=CC2C4C1(C4(C)C)OC(=O)C)CO)C)O)C

> <PUBCHEM_OPENEYE_ISO_SMILES>
CCC/C=C/C=C\C(=O)O[C@@H]1[C@H]([C@@]2([C@@H]3C=C(C(=O)[C@H]3CC(=C[C@H]2[C@H]4[C@@]1(C4(C)C)OC(=O)C)CO)C)O)C

> <PUBCHEM_CACTVS_TPSA>
110

> <PUBCHEM_MONOISOTOPIC_WEIGHT>
512.277404

> <PUBCHEM_TOTAL_CHARGE>
0

> <PUBCHEM_HEAVY_ATOM_COUNT>
37

> <PUBCHEM_ATOM_DEF_STEREO_COUNT>
8

> <PUBCHEM_ATOM_UDEF_STEREO_COUNT>
0

> <PUBCHEM_BOND_DEF_STEREO_COUNT>
2

> <PUBCHEM_BOND_UDEF_STEREO_COUNT>
0

> <PUBCHEM_ISOTOPIC_ATOM_COUNT>
0

> <PUBCHEM_COMPONENT_COUNT>
1

> <PUBCHEM_CACTVS_TAUTO_COUNT>
21

> <PUBCHEM_COORDINATE_TYPE>
1
5
255

> <PUBCHEM_BONDANNOTATIONS>
9  1  5
11  39  6
14  20  5
17  48  5
19  50  6
12  2  6
13  3  5
8  38  5

$$$$

