5815
  -OEChem-06261200532D

 42 41  0     1  0  0  0  0  0999 V2000
    1.8360    4.8100    0.0000 O   0  0  0  0  0  0  0  0  0  0  0  0
    0.9699    1.3100    0.0000 O   0  0  0  0  0  0  0  0  0  0  0  0
    2.7020    0.3100    0.0000 O   0  0  0  0  0  0  0  0  0  0  0  0
    3.1350   11.6569    0.0000 O   0  0  0  0  0  0  0  0  0  0  0  0
    2.2690    9.1569    0.0000 O   0  0  0  0  0  0  0  0  0  0  0  0
    4.8671   10.6569    0.0000 O   0  0  0  0  0  0  0  0  0  0  0  0
    0.5369   10.1569    0.0000 O   0  0  0  0  0  0  0  0  0  0  0  0
    4.0010    9.1569    0.0000 O   0  0  0  0  0  0  0  0  0  0  0  0
    1.4030   11.6569    0.0000 O   0  0  0  0  0  0  0  0  0  0  0  0
    3.5680    5.8100    0.0000 N   0  0  0  0  0  0  0  0  0  0  0  0
    2.7020    4.3100    0.0000 C   0  0  2  0  0  0  0  0  0  0  0  0
    2.7020    3.3100    0.0000 C   0  0  0  0  0  0  0  0  0  0  0  0
    3.5680    4.8100    0.0000 C   0  0  0  0  0  0  0  0  0  0  0  0
    1.8360    2.8100    0.0000 C   0  0  0  0  0  0  0  0  0  0  0  0
    3.5680    2.8100    0.0000 C   0  0  0  0  0  0  0  0  0  0  0  0
    1.8360    1.8100    0.0000 C   0  0  0  0  0  0  0  0  0  0  0  0
    3.5680    1.8100    0.0000 C   0  0  0  0  0  0  0  0  0  0  0  0
    2.7020    1.3100    0.0000 C   0  0  0  0  0  0  0  0  0  0  0  0
    2.2690   10.1569    0.0000 C   0  0  2  0  0  0  0  0  0  0  0  0
    3.1350   10.6569    0.0000 C   0  0  2  0  0  0  0  0  0  0  0  0
    4.4340    6.3100    0.0000 C   0  0  0  0  0  0  0  0  0  0  0  0
    4.0010   10.1569    0.0000 C   0  0  0  0  0  0  0  0  0  0  0  0
    1.4030   10.6569    0.0000 C   0  0  0  0  0  0  0  0  0  0  0  0
    2.7020    4.9300    0.0000 H   0  0  0  0  0  0  0  0  0  0  0  0
    3.7801    4.2274    0.0000 H   0  0  0  0  0  0  0  0  0  0  0  0
    4.1786    4.9177    0.0000 H   0  0  0  0  0  0  0  0  0  0  0  0
    1.2990    3.1200    0.0000 H   0  0  0  0  0  0  0  0  0  0  0  0
    4.1050    3.1200    0.0000 H   0  0  0  0  0  0  0  0  0  0  0  0
    3.0311    6.1200    0.0000 H   0  0  0  0  0  0  0  0  0  0  0  0
    4.1050    1.5000    0.0000 H   0  0  0  0  0  0  0  0  0  0  0  0
    1.8360    5.4300    0.0000 H   0  0  0  0  0  0  0  0  0  0  0  0
    2.8059    9.8469    0.0000 H   0  0  0  0  0  0  0  0  0  0  0  0
    2.5981   10.9669    0.0000 H   0  0  0  0  0  0  0  0  0  0  0  0
    4.7440    5.7731    0.0000 H   0  0  0  0  0  0  0  0  0  0  0  0
    4.9710    6.6200    0.0000 H   0  0  0  0  0  0  0  0  0  0  0  0
    4.1241    6.8469    0.0000 H   0  0  0  0  0  0  0  0  0  0  0  0
    0.4330    1.6200    0.0000 H   0  0  0  0  0  0  0  0  0  0  0  0
    3.2389    0.0000    0.0000 H   0  0  0  0  0  0  0  0  0  0  0  0
    3.6720   11.9669    0.0000 H   0  0  0  0  0  0  0  0  0  0  0  0
    1.7320    8.8469    0.0000 H   0  0  0  0  0  0  0  0  0  0  0  0
    5.4040   10.3469    0.0000 H   0  0  0  0  0  0  0  0  0  0  0  0
    0.0000   10.4669    0.0000 H   0  0  0  0  0  0  0  0  0  0  0  0
 11  1  1  1  0  0  0
  1 31  1  0  0  0  0
  2 16  1  0  0  0  0
  2 37  1  0  0  0  0
  3 18  1  0  0  0  0
  3 38  1  0  0  0  0
 20  4  1  1  0  0  0
  4 39  1  0  0  0  0
 19  5  1  1  0  0  0
  5 40  1  0  0  0  0
  6 22  1  0  0  0  0
  6 41  1  0  0  0  0
  7 23  1  0  0  0  0
  7 42  1  0  0  0  0
  8 22  2  0  0  0  0
  9 23  2  0  0  0  0
 10 13  1  0  0  0  0
 10 21  1  0  0  0  0
 10 29  1  0  0  0  0
 11 12  1  0  0  0  0
 11 13  1  0  0  0  0
 11 24  1  0  0  0  0
 12 14  2  0  0  0  0
 12 15  1  0  0  0  0
 13 25  1  0  0  0  0
 13 26  1  0  0  0  0
 14 16  1  0  0  0  0
 14 27  1  0  0  0  0
 15 17  2  0  0  0  0
 15 28  1  0  0  0  0
 16 18  2  0  0  0  0
 17 18  1  0  0  0  0
 17 30  1  0  0  0  0
 19 20  1  0  0  0  0
 19 23  1  0  0  0  0
 19 32  1  0  0  0  0
 20 22  1  0  0  0  0
 20 33  1  0  0  0  0
 21 34  1  0  0  0  0
 21 35  1  0  0  0  0
 21 36  1  0  0  0  0
M  END
> <PUBCHEM_COMPOUND_CID>
5815

> <PUBCHEM_COMPOUND_CANONICALIZED>
1

> <PUBCHEM_CACTVS_COMPLEXITY>
288

> <PUBCHEM_CACTVS_HBOND_ACCEPTOR>
10

> <PUBCHEM_CACTVS_HBOND_DONOR>
8

> <PUBCHEM_CACTVS_ROTATABLE_BOND>
6

> <PUBCHEM_CACTVS_SUBSKEYS>
AAADceByPAAAAAAAAAAAAAAAAAAAAAAAAAAwAAAAAAAAAAABAAAAHgAQCAAADBThmAYyDoLAAgCIAiDSCAICAAAgIAAIiIFOiIgLNjaCkROEcAEl8BEZmAfT8LYOIAABAAAAQABAAAIAAACAAAAAAAAAAA==

> <PUBCHEM_IUPAC_OPENEYE_NAME>
(2R,3R)-2,3-dihydroxybutanedioic acid; 4-[(1R)-1-hydroxy-2-(methylamino)ethyl]benzene-1,2-diol

> <PUBCHEM_IUPAC_CAS_NAME>
(2R,3R)-2,3-dihydroxybutanedioic acid; 4-[(1R)-1-hydroxy-2-(methylamino)ethyl]benzene-1,2-diol

> <PUBCHEM_IUPAC_NAME>
(2R,3R)-2,3-dihydroxybutanedioic acid; 4-[(1R)-1-hydroxy-2-(methylamino)ethyl]benzene-1,2-diol

> <PUBCHEM_IUPAC_SYSTEMATIC_NAME>
(2R,3R)-2,3-bis(oxidanyl)butanedioic acid; 4-[(1R)-2-(methylamino)-1-oxidanyl-ethyl]benzene-1,2-diol

> <PUBCHEM_IUPAC_TRADITIONAL_NAME>
(2R,3R)-2,3-dihydroxysuccinic acid; 4-[(1R)-1-hydroxy-2-(methylamino)ethyl]pyrocatechol

> <PUBCHEM_IUPAC_INCHI>
InChI=1S/C9H13NO3.C4H6O6/c1-10-5-9(13)6-2-3-7(11)8(12)4-6;5-1(3(7)8)2(6)4(9)10/h2-4,9-13H,5H2,1H3;1-2,5-6H,(H,7,8)(H,9,10)/t9-;1-,2-/m01/s1

> <PUBCHEM_IUPAC_INCHIKEY>
YLXIPWWIOISBDD-NDAAPVSOSA-N

> <PUBCHEM_EXACT_MASS>
333.105981

> <PUBCHEM_MOLECULAR_FORMULA>
C13H19NO9

> <PUBCHEM_MOLECULAR_WEIGHT>
333.29126

> <PUBCHEM_OPENEYE_CAN_SMILES>
CNCC(C1=CC(=C(C=C1)O)O)O.C(C(C(=O)O)O)(C(=O)O)O

> <PUBCHEM_OPENEYE_ISO_SMILES>
CNC[C@@H](C1=CC(=C(C=C1)O)O)O.[C@@H]([C@H](C(=O)O)O)(C(=O)O)O

> <PUBCHEM_CACTVS_TPSA>
188

> <PUBCHEM_MONOISOTOPIC_WEIGHT>
333.105981

> <PUBCHEM_TOTAL_CHARGE>
0

> <PUBCHEM_HEAVY_ATOM_COUNT>
23

> <PUBCHEM_ATOM_DEF_STEREO_COUNT>
3

> <PUBCHEM_ATOM_UDEF_STEREO_COUNT>
0

> <PUBCHEM_BOND_DEF_STEREO_COUNT>
0

> <PUBCHEM_BOND_UDEF_STEREO_COUNT>
0

> <PUBCHEM_ISOTOPIC_ATOM_COUNT>
0

> <PUBCHEM_COMPONENT_COUNT>
2

> <PUBCHEM_CACTVS_TAUTO_COUNT>
10

> <PUBCHEM_COORDINATE_TYPE>
1
5
255

> <PUBCHEM_BONDANNOTATIONS>
11  1  5
12  14  8
12  15  8
14  16  8
15  17  8
16  18  8
17  18  8
20  4  5
19  5  5

$$$$

