443390
  -OEChem-07051213023D

 48 51  0     0  0  0  0  0  0999 V2000
   -4.8529    2.6971   -0.0060 F   0  0  0  0  0  0  0  0  0  0  0  0
   -6.4523    1.6367   -1.0165 F   0  0  0  0  0  0  0  0  0  0  0  0
   -6.4059    1.7141    1.1561 F   0  0  0  0  0  0  0  0  0  0  0  0
    3.2828    3.8207   -0.1872 F   0  0  0  0  0  0  0  0  0  0  0  0
   -6.8043   -1.0204    0.1897 O   0  0  0  0  0  0  0  0  0  0  0  0
   -0.6058    1.2693   -0.0150 O   0  0  0  0  0  0  0  0  0  0  0  0
   -1.2661   -0.9532    0.0959 N   0  0  0  0  0  0  0  0  0  0  0  0
    1.0088   -0.4006    0.0371 N   0  0  0  0  0  0  0  0  0  0  0  0
    8.2396   -0.2072    0.5564 N   0  0  0  0  0  0  0  0  0  0  0  0
   -2.3323   -3.1416    0.2045 C   0  0  0  0  0  0  0  0  0  0  0  0
   -0.9894   -2.4073    0.1579 C   0  0  0  0  0  0  0  0  0  0  0  0
   -3.3093   -2.0134    0.1742 C   0  0  0  0  0  0  0  0  0  0  0  0
   -2.6685   -0.7740    0.1104 C   0  0  0  0  0  0  0  0  0  0  0  0
   -3.4105    0.3981    0.0722 C   0  0  0  0  0  0  0  0  0  0  0  0
   -4.6927   -2.1123    0.2012 C   0  0  0  0  0  0  0  0  0  0  0  0
   -4.8063    0.3076    0.0994 C   0  0  0  0  0  0  0  0  0  0  0  0
   -5.4437   -0.9385    0.1635 C   0  0  0  0  0  0  0  0  0  0  0  0
   -0.3085    0.0759    0.0347 C   0  0  0  0  0  0  0  0  0  0  0  0
   -5.6129    1.5655    0.0569 C   0  0  0  0  0  0  0  0  0  0  0  0
    2.2089    0.3520   -0.0134 C   0  0  0  0  0  0  0  0  0  0  0  0
    3.4387   -0.3016   -0.0003 C   0  0  0  0  0  0  0  0  0  0  0  0
    4.6193    0.4392   -0.0501 C   0  0  0  0  0  0  0  0  0  0  0  0
    2.1526    1.7422   -0.0761 C   0  0  0  0  0  0  0  0  0  0  0  0
   -7.4713   -1.1138   -1.0670 C   0  0  0  0  0  0  0  0  0  0  0  0
    4.5667    1.8317   -0.1128 C   0  0  0  0  0  0  0  0  0  0  0  0
    3.3334    2.4833   -0.1259 C   0  0  0  0  0  0  0  0  0  0  0  0
    5.8989   -0.2357   -0.0384 C   0  0  0  0  0  0  0  0  0  0  0  0
    6.0412   -1.5067   -0.5803 C   0  0  0  0  0  0  0  0  0  0  0  0
    7.0163    0.3669    0.5131 C   0  0  0  0  0  0  0  0  0  0  0  0
    7.2839   -2.1301   -0.5544 C   0  0  0  0  0  0  0  0  0  0  0  0
    8.3417   -1.4440    0.0201 C   0  0  0  0  0  0  0  0  0  0  0  0
   -2.4294   -3.7286    1.1230 H   0  0  0  0  0  0  0  0  0  0  0  0
   -2.4541   -3.7960   -0.6642 H   0  0  0  0  0  0  0  0  0  0  0  0
   -0.3897   -2.6169    1.0511 H   0  0  0  0  0  0  0  0  0  0  0  0
   -0.4074   -2.6976   -0.7244 H   0  0  0  0  0  0  0  0  0  0  0  0
   -2.9363    1.3700    0.0226 H   0  0  0  0  0  0  0  0  0  0  0  0
   -5.1775   -3.0823    0.2509 H   0  0  0  0  0  0  0  0  0  0  0  0
    1.1501   -1.4044    0.0809 H   0  0  0  0  0  0  0  0  0  0  0  0
    3.4471   -1.3861    0.0771 H   0  0  0  0  0  0  0  0  0  0  0  0
    1.2441    2.3254   -0.0909 H   0  0  0  0  0  0  0  0  0  0  0  0
   -8.4615   -0.6614   -0.9663 H   0  0  0  0  0  0  0  0  0  0  0  0
   -7.5923   -2.1686   -1.3310 H   0  0  0  0  0  0  0  0  0  0  0  0
   -6.9273   -0.6008   -1.8668 H   0  0  0  0  0  0  0  0  0  0  0  0
    5.4594    2.4474   -0.1796 H   0  0  0  0  0  0  0  0  0  0  0  0
    5.2208   -2.0359   -1.0566 H   0  0  0  0  0  0  0  0  0  0  0  0
    6.9903    1.3450    0.9829 H   0  0  0  0  0  0  0  0  0  0  0  0
    7.4221   -3.1189   -0.9767 H   0  0  0  0  0  0  0  0  0  0  0  0
    9.3317   -1.8857    0.0636 H   0  0  0  0  0  0  0  0  0  0  0  0
  1 19  1  0  0  0  0
  2 19  1  0  0  0  0
  3 19  1  0  0  0  0
  4 26  1  0  0  0  0
  5 17  1  0  0  0  0
  5 24  1  0  0  0  0
  6 18  2  0  0  0  0
  7 11  1  0  0  0  0
  7 13  1  0  0  0  0
  7 18  1  0  0  0  0
  8 18  1  0  0  0  0
  8 20  1  0  0  0  0
  8 38  1  0  0  0  0
  9 29  1  0  0  0  0
  9 31  2  0  0  0  0
 10 11  1  0  0  0  0
 10 12  1  0  0  0  0
 10 32  1  0  0  0  0
 10 33  1  0  0  0  0
 11 34  1  0  0  0  0
 11 35  1  0  0  0  0
 12 13  1  0  0  0  0
 12 15  2  0  0  0  0
 13 14  2  0  0  0  0
 14 16  1  0  0  0  0
 14 36  1  0  0  0  0
 15 17  1  0  0  0  0
 15 37  1  0  0  0  0
 16 17  2  0  0  0  0
 16 19  1  0  0  0  0
 20 21  1  0  0  0  0
 20 23  2  0  0  0  0
 21 22  2  0  0  0  0
 21 39  1  0  0  0  0
 22 25  1  0  0  0  0
 22 27  1  0  0  0  0
 23 26  1  0  0  0  0
 23 40  1  0  0  0  0
 24 41  1  0  0  0  0
 24 42  1  0  0  0  0
 24 43  1  0  0  0  0
 25 26  2  0  0  0  0
 25 44  1  0  0  0  0
 27 28  1  0  0  0  0
 27 29  2  0  0  0  0
 28 30  2  0  0  0  0
 28 45  1  0  0  0  0
 29 46  1  0  0  0  0
 30 31  1  0  0  0  0
 30 47  1  0  0  0  0
 31 48  1  0  0  0  0
M  END
> <PUBCHEM_COMPOUND_CID>
443390

> <PUBCHEM_CONFORMER_RMSD>
0.8

> <PUBCHEM_CONFORMER_DIVERSEORDER>
1
73
38
151
78
157
136
160
49
72
128
85
123
29
74
156
158
23
130
79
129
71
161
86
44
52
127
104
2
100
67
75
154
30
20
118
62
124
13
80
134
88
141
76
148
70
27
56
54
112
84
113
48
142
34
95
146
3
15
98
133
155
143
159
58
116
139
93
18
145
37
90
32
132
117
152
109
69
87
150
11
94
92
6
46
14
135
82
59
120
119
65
51
17
101
106
57
60
43
55
140
115
26
147
99
153
66
45
61
63
77
97
28
121
25
81
105
89
31
53
107
16
91
122
83
39
110
111
131
7
103
24
108
125
12
47
102
96
22
40
126
8
149
138
42
35
64
144
137
114
68
50
10
9
19
5
36
4
41
21
33

> <PUBCHEM_MMFF94_PARTIAL_CHARGES>
39
1 -0.34
10 0.14
11 0.3
12 -0.14
13 0.12
14 -0.15
15 -0.15
16 -0.14
17 0.08
18 0.69
19 1.16
2 -0.34
20 0.12
21 -0.15
23 -0.15
24 0.28
25 -0.15
26 0.19
28 -0.15
29 0.16
3 -0.34
30 -0.15
31 0.16
36 0.15
37 0.15
38 0.37
39 0.15
4 -0.19
40 0.15
44 0.15
45 0.15
46 0.15
47 0.15
48 0.15
5 -0.36
6 -0.57
7 -0.48
8 -0.55
9 -0.62

> <PUBCHEM_EFFECTIVE_ROTOR_COUNT>
6.6

> <PUBCHEM_PHARMACOPHORE_FEATURES>
8
1 5 acceptor
1 6 acceptor
1 8 donor
1 9 acceptor
5 7 10 11 12 13 rings
6 12 13 14 15 16 17 rings
6 20 21 22 23 25 26 rings
6 9 27 28 29 30 31 rings

> <PUBCHEM_HEAVY_ATOM_COUNT>
31

> <PUBCHEM_ATOM_DEF_STEREO_COUNT>
0

> <PUBCHEM_ATOM_UDEF_STEREO_COUNT>
0

> <PUBCHEM_BOND_DEF_STEREO_COUNT>
0

> <PUBCHEM_BOND_UDEF_STEREO_COUNT>
0

> <PUBCHEM_ISOTOPIC_ATOM_COUNT>
0

> <PUBCHEM_COMPONENT_COUNT>
1

> <PUBCHEM_CACTVS_TAUTO_COUNT>
2

> <PUBCHEM_CONFORMER_ID>
0006C3FE00000001

> <PUBCHEM_MMFF94_ENERGY>
108.0838

> <PUBCHEM_FEATURE_SELFOVERLAP>
40.68

> <PUBCHEM_SHAPE_FINGERPRINT>
10050765 1 18195525883664531722
100830 39 18412545431471177973
10299344 5 18060699494580030826
10580692 12 18410575046662683000
10670039 82 18411987979339451361
10674148 151 18131071533403754482
10835480 77 18334581192502704904
11297010 23 18265064690068830367
11315181 36 18202562848387355227
11456790 92 18114449094849842771
11524674 6 17530965774043015838
11719270 70 18040996250653335614
11991303 11 13973956576760878864
12107183 9 18411133662646014672
12592606 108 18409450284785296614
12645989 146 18334577889514079247
12758862 56 18341897403245795818
13811026 1 18407760348055460398
13885169 127 18409730681461036506
14856354 85 15554440791336588907
15021287 119 17561075899932426197
15183329 4 18343867727212364314
15361156 5 18059565846515042398
15461852 350 16805327673554805804
15510794 2 18186518835572728278
17844677 252 18339916005054632145
21130935 74 18334576811667653034
21236236 1 18409729543964655053
21267235 1 18342453720793810858
21315763 28 18410012105045943119
22224240 67 7060372618547149028
23522609 53 17845066576923493652
23559900 14 18335707104961704872
23569917 315 18341607071847053947
249057 25 17895461549377603433
249057 3 18412824698639305284
2838139 119 18409168792760280431
3004659 81 18343865503057374514
335352 9 18411981352014918830
3383291 50 18411419479708736931
4073 2 17987233335973753666
4144715 1 18199462165229991426
5104073 3 18270964522865077216
531348 171 18260548888360776119
559249 180 18410292505885457251
6138700 20 18412261748612128411
6371380 46 18272933804415466530
99344 41 18333731346659259039

> <PUBCHEM_SHAPE_MULTIPOLES>
582.19
24.54
3.12
0.73
13.31
0.92
-0.04
-4.24
-1.04
-0.46
-0.09
-0.36
-0.02
0.25

> <PUBCHEM_SHAPE_SELFOVERLAP>
1288.148

> <PUBCHEM_SHAPE_VOLUME>
314.9

> <PUBCHEM_COORDINATE_TYPE>
2
5
10

$$$$

