5281772
  -OEChem-07051212593D

 35 36  0     0  0  0  0  0  0999 V2000
   -3.7526   -1.9423    0.4605 O   0  0  0  0  0  0  0  0  0  0  0  0
   -5.2858   -0.3138   -0.4367 O   0  0  0  0  0  0  0  0  0  0  0  0
    2.7133    1.9624    0.6028 O   0  0  0  0  0  0  0  0  0  0  0  0
    3.3333   -0.2789    0.6313 N   0  0  0  0  0  0  0  0  0  0  0  0
    5.5651   -0.6899   -0.3400 C   0  0  0  0  0  0  0  0  0  0  0  0
    4.7475   -0.0900    0.8092 C   0  0  0  0  0  0  0  0  0  0  0  0
    5.1889   -0.0145   -1.6592 C   0  0  0  0  0  0  0  0  0  0  0  0
    5.3585   -2.2022   -0.4506 C   0  0  0  0  0  0  0  0  0  0  0  0
   -3.1460   -0.7539    0.1922 C   0  0  0  0  0  0  0  0  0  0  0  0
   -1.3884    0.8139    0.0496 C   0  0  0  0  0  0  0  0  0  0  0  0
   -4.0215    0.1759   -0.3202 C   0  0  0  0  0  0  0  0  0  0  0  0
   -1.8119   -0.4629    0.3907 C   0  0  0  0  0  0  0  0  0  0  0  0
    2.4280    0.7709    0.5424 C   0  0  0  0  0  0  0  0  0  0  0  0
   -2.2651    1.7684   -0.4716 C   0  0  0  0  0  0  0  0  0  0  0  0
   -3.6113    1.4480   -0.6626 C   0  0  0  0  0  0  0  0  0  0  0  0
    0.0274    1.1745    0.2424 C   0  0  0  0  0  0  0  0  0  0  0  0
    1.0288    0.2901    0.3596 C   0  0  0  0  0  0  0  0  0  0  0  0
   -5.1083   -1.6559    0.0601 C   0  0  0  0  0  0  0  0  0  0  0  0
    6.6267   -0.5000   -0.1392 H   0  0  0  0  0  0  0  0  0  0  0  0
    5.0167   -0.5759    1.7537 H   0  0  0  0  0  0  0  0  0  0  0  0
    4.9741    0.9766    0.9158 H   0  0  0  0  0  0  0  0  0  0  0  0
    5.8377   -0.3696   -2.4675 H   0  0  0  0  0  0  0  0  0  0  0  0
    5.3108    1.0718   -1.5905 H   0  0  0  0  0  0  0  0  0  0  0  0
    4.1546   -0.2245   -1.9515 H   0  0  0  0  0  0  0  0  0  0  0  0
    4.3335   -2.4600   -0.7360 H   0  0  0  0  0  0  0  0  0  0  0  0
    5.5838   -2.6959    0.5006 H   0  0  0  0  0  0  0  0  0  0  0  0
    6.0268   -2.6230   -1.2098 H   0  0  0  0  0  0  0  0  0  0  0  0
    2.9876   -1.2339    0.6204 H   0  0  0  0  0  0  0  0  0  0  0  0
   -1.1665   -1.2224    0.8156 H   0  0  0  0  0  0  0  0  0  0  0  0
   -1.9192    2.7647   -0.7361 H   0  0  0  0  0  0  0  0  0  0  0  0
   -4.3041    2.1773   -1.0666 H   0  0  0  0  0  0  0  0  0  0  0  0
    0.2334    2.2418    0.2778 H   0  0  0  0  0  0  0  0  0  0  0  0
   -5.7673   -1.8005    0.9240 H   0  0  0  0  0  0  0  0  0  0  0  0
   -5.3986   -2.3624   -0.7260 H   0  0  0  0  0  0  0  0  0  0  0  0
    0.8796   -0.7820    0.3033 H   0  0  0  0  0  0  0  0  0  0  0  0
  1  9  1  0  0  0  0
  1 18  1  0  0  0  0
  2 11  1  0  0  0  0
  2 18  1  0  0  0  0
  3 13  2  0  0  0  0
  4  6  1  0  0  0  0
  4 13  1  0  0  0  0
  4 28  1  0  0  0  0
  5  6  1  0  0  0  0
  5  7  1  0  0  0  0
  5  8  1  0  0  0  0
  5 19  1  0  0  0  0
  6 20  1  0  0  0  0
  6 21  1  0  0  0  0
  7 22  1  0  0  0  0
  7 23  1  0  0  0  0
  7 24  1  0  0  0  0
  8 25  1  0  0  0  0
  8 26  1  0  0  0  0
  8 27  1  0  0  0  0
  9 11  2  0  0  0  0
  9 12  1  0  0  0  0
 10 12  2  0  0  0  0
 10 14  1  0  0  0  0
 10 16  1  0  0  0  0
 11 15  1  0  0  0  0
 12 29  1  0  0  0  0
 13 17  1  0  0  0  0
 14 15  2  0  0  0  0
 14 30  1  0  0  0  0
 15 31  1  0  0  0  0
 16 17  2  0  0  0  0
 16 32  1  0  0  0  0
 17 35  1  0  0  0  0
 18 33  1  0  0  0  0
 18 34  1  0  0  0  0
M  END
> <PUBCHEM_COMPOUND_CID>
5281772

> <PUBCHEM_CONFORMER_RMSD>
0.8

> <PUBCHEM_CONFORMER_DIVERSEORDER>
1
8
4
6
5
7
2
3

> <PUBCHEM_MMFF94_PARTIAL_CHARGES>
21
1 -0.36
10 0.03
11 0.08
12 -0.15
13 0.62
14 -0.15
15 -0.15
16 -0.18
17 -0.14
18 0.56
2 -0.36
28 0.37
29 0.15
3 -0.57
30 0.15
31 0.15
32 0.15
35 0.15
4 -0.73
6 0.3
9 0.08

> <PUBCHEM_EFFECTIVE_ROTOR_COUNT>
5.6

> <PUBCHEM_PHARMACOPHORE_FEATURES>
7
1 1 acceptor
1 2 acceptor
1 3 acceptor
1 4 donor
3 5 7 8 hydrophobe
5 1 2 9 11 18 rings
6 9 10 11 12 14 15 rings

> <PUBCHEM_HEAVY_ATOM_COUNT>
18

> <PUBCHEM_ATOM_DEF_STEREO_COUNT>
0

> <PUBCHEM_ATOM_UDEF_STEREO_COUNT>
0

> <PUBCHEM_BOND_DEF_STEREO_COUNT>
1

> <PUBCHEM_BOND_UDEF_STEREO_COUNT>
0

> <PUBCHEM_ISOTOPIC_ATOM_COUNT>
0

> <PUBCHEM_COMPONENT_COUNT>
1

> <PUBCHEM_CACTVS_TAUTO_COUNT>
2

> <PUBCHEM_CONFORMER_ID>
005097EC00000001

> <PUBCHEM_MMFF94_ENERGY>
37.0953

> <PUBCHEM_FEATURE_SELFOVERLAP>
35.677

> <PUBCHEM_SHAPE_FINGERPRINT>
11128504 68 16917345931356906268
12236239 1 16917351445894532109
12596602 18 4751150822316665534
12616971 3 15068628158182372401
12916754 54 18408603634766719385
12969540 114 13542466436362899800
13167823 11 18412830178996268114
13288520 33 18411420609716846341
13533116 47 17603868871374121760
13914758 101 16081367514348770929
13955234 65 17823425899039857936
14251718 22 18343863303955121036
14455015 7 17894628171440537542
14528608 73 17346311592772505196
17834072 33 17846497024159727244
17844677 252 18333447651564232072
17870717 6 18342174492438274495
193927 3 17894622669656184976
200 152 17821733835900107417
20374829 77 18413674612247309432
20645477 70 18408043996686374000
20871999 31 17988923383597064728
21065201 7 18342469165717935520
21267235 1 18272649009924667707
21623969 137 17530964700891593374
21682296 61 17677042568425221934
2215653 11 18336274512953866885
22849339 104 17489007293651534458
2297311 6 18412822486894645669
23175994 123 17676490536167806217
23403322 49 18408886251998534523
23559900 14 18340215102446097937
239999 70 18333733507966123578
300161 21 8862948264379268049
3004659 81 18201719613596057826
335352 9 18342744010198635909
4214541 1 18412831304278115473
465052 167 18113051636914101222
5104073 3 17895197753024015856
542803 24 16128659668978607657
543368 44 16415187949817755556
960060 61 17917988391542785502
9709674 26 18270401559952653715

> <PUBCHEM_SHAPE_MULTIPOLES>
347.84
14.52
1.92
0.95
9.29
0.33
0.22
7
2.92
-0.58
0.02
1.01
-0.07
0.97

> <PUBCHEM_SHAPE_SELFOVERLAP>
729.576

> <PUBCHEM_SHAPE_VOLUME>
197.5

> <PUBCHEM_COORDINATE_TYPE>
2
5
10

$$$$

