586222
  -OEChem-06241222452D

 24 23  0     1  0  0  0  0  0999 V2000
    2.3660    1.1830    0.0000 Cl  0  0  0  0  0  0  0  0  0  0  0  0
    2.8660    0.3170    0.0000 Si  0  0  3  0  0  0  0  0  0  0  0  0
    3.7321    0.8170    0.0000 O   0  0  0  0  0  0  0  0  0  0  0  0
    5.4641    0.8170    0.0000 C   0  0  0  0  0  0  0  0  0  0  0  0
    4.5981    0.3170    0.0000 C   0  0  0  0  0  0  0  0  0  0  0  0
    6.3301    0.3170    0.0000 C   0  0  0  0  0  0  0  0  0  0  0  0
    2.0000   -0.1830    0.0000 C   0  0  0  0  0  0  0  0  0  0  0  0
    7.1962    0.8170    0.0000 C   0  0  0  0  0  0  0  0  0  0  0  0
    2.0000   -1.1830    0.0000 C   0  0  0  0  0  0  0  0  0  0  0  0
    5.0656    1.2919    0.0000 H   0  0  0  0  0  0  0  0  0  0  0  0
    5.8626    1.2919    0.0000 H   0  0  0  0  0  0  0  0  0  0  0  0
    4.1995   -0.1580    0.0000 H   0  0  0  0  0  0  0  0  0  0  0  0
    4.9966   -0.1580    0.0000 H   0  0  0  0  0  0  0  0  0  0  0  0
    6.7287   -0.1580    0.0000 H   0  0  0  0  0  0  0  0  0  0  0  0
    5.9316   -0.1580    0.0000 H   0  0  0  0  0  0  0  0  0  0  0  0
    3.1760   -0.2199    0.0000 H   0  0  0  0  0  0  0  0  0  0  0  0
    1.7879    0.3996    0.0000 H   0  0  0  0  0  0  0  0  0  0  0  0
    1.3894   -0.2907    0.0000 H   0  0  0  0  0  0  0  0  0  0  0  0
    7.5062    0.2801    0.0000 H   0  0  0  0  0  0  0  0  0  0  0  0
    7.7331    1.1270    0.0000 H   0  0  0  0  0  0  0  0  0  0  0  0
    6.8862    1.3539    0.0000 H   0  0  0  0  0  0  0  0  0  0  0  0
    2.6200   -1.1830    0.0000 H   0  0  0  0  0  0  0  0  0  0  0  0
    2.0000   -1.8030    0.0000 H   0  0  0  0  0  0  0  0  0  0  0  0
    1.3800   -1.1830    0.0000 H   0  0  0  0  0  0  0  0  0  0  0  0
  1  2  1  0  0  0  0
  2  3  1  0  0  0  0
  2  7  1  0  0  0  0
  2 16  1  0  0  0  0
  3  5  1  0  0  0  0
  4  5  1  0  0  0  0
  4  6  1  0  0  0  0
  4 10  1  0  0  0  0
  4 11  1  0  0  0  0
  5 12  1  0  0  0  0
  5 13  1  0  0  0  0
  6  8  1  0  0  0  0
  6 14  1  0  0  0  0
  6 15  1  0  0  0  0
  7  9  1  0  0  0  0
  7 17  1  0  0  0  0
  7 18  1  0  0  0  0
  8 19  1  0  0  0  0
  8 20  1  0  0  0  0
  8 21  1  0  0  0  0
  9 22  1  0  0  0  0
  9 23  1  0  0  0  0
  9 24  1  0  0  0  0
M  END
> <PUBCHEM_COMPOUND_CID>
586222

> <PUBCHEM_COMPOUND_CANONICALIZED>
1

> <PUBCHEM_CACTVS_COMPLEXITY>
61

> <PUBCHEM_CACTVS_HBOND_ACCEPTOR>
1

> <PUBCHEM_CACTVS_HBOND_DONOR>
0

> <PUBCHEM_CACTVS_ROTATABLE_BOND>
5

> <PUBCHEM_CACTVS_SUBSKEYS>
AAADccBgIAgEAAAAAAAAAAAAAAAAAAAAAAAAAAAAAAAAAAAAAAAAGhAAAECgCACgoAJCAAAAAAAAAAAAAAAAAAAAAAAAAAAAAAAAAAAAAAAAAAAEAAAAAAAAAAAAAAAAAAAAAAAAAAAAAAAAAAAAAAAAAA==

> <PUBCHEM_IUPAC_OPENEYE_NAME>
butoxy-chloro-ethyl-silane

> <PUBCHEM_IUPAC_CAS_NAME>
butoxy-chloro-ethylsilane

> <PUBCHEM_IUPAC_NAME>
butoxy-chloro-ethylsilane

> <PUBCHEM_IUPAC_SYSTEMATIC_NAME>
butoxy-chloranyl-ethyl-silane

> <PUBCHEM_IUPAC_TRADITIONAL_NAME>
butoxy-chloro-ethyl-silane

> <PUBCHEM_IUPAC_INCHI>
InChI=1S/C6H15ClOSi/c1-3-5-6-8-9(7)4-2/h9H,3-6H2,1-2H3

> <PUBCHEM_IUPAC_INCHIKEY>
HSBRNEMTEFTIBU-UHFFFAOYSA-N

> <PUBCHEM_EXACT_MASS>
166.058069

> <PUBCHEM_MOLECULAR_FORMULA>
C6H15ClOSi

> <PUBCHEM_MOLECULAR_WEIGHT>
166.7212

> <PUBCHEM_OPENEYE_CAN_SMILES>
CCCCO[SiH](CC)Cl

> <PUBCHEM_OPENEYE_ISO_SMILES>
CCCCO[SiH](CC)Cl

> <PUBCHEM_CACTVS_TPSA>
9.2

> <PUBCHEM_MONOISOTOPIC_WEIGHT>
166.058069

> <PUBCHEM_TOTAL_CHARGE>
0

> <PUBCHEM_HEAVY_ATOM_COUNT>
9

> <PUBCHEM_ATOM_DEF_STEREO_COUNT>
0

> <PUBCHEM_ATOM_UDEF_STEREO_COUNT>
0

> <PUBCHEM_BOND_DEF_STEREO_COUNT>
0

> <PUBCHEM_BOND_UDEF_STEREO_COUNT>
0

> <PUBCHEM_ISOTOPIC_ATOM_COUNT>
0

> <PUBCHEM_COMPONENT_COUNT>
1

> <PUBCHEM_CACTVS_TAUTO_COUNT>
1

> <PUBCHEM_COORDINATE_TYPE>
1
5
255

$$$$

