46173982
  -OEChem-07051213102D

 28 28  0     0  0  0  0  0  0999 V2000
    3.0000    0.8038    0.0000 S   0  0  0  0  0  0  0  0  0  0  0  0
    2.1340    2.3038    0.0000 Na  0  3  0  0  0  0  0  0  0  0  0  0
    4.0000    0.8038    0.0000 O   0  0  0  0  0  0  0  0  0  0  0  0
    2.0000    0.8038    0.0000 O   0  0  0  0  0  0  0  0  0  0  0  0
    4.9487    3.5062    0.0000 O   0  0  0  0  0  0  0  0  0  0  0  0
    3.0000    1.8038    0.0000 N   0  5  0  0  0  0  0  0  0  0  0  0
    3.9706    3.2983    0.0000 N   0  0  0  0  0  0  0  0  0  0  0  0
    3.0000   -3.1962    0.0000 N   0  0  0  0  0  0  0  0  0  0  0  0
    3.0000   -0.1962    0.0000 C   0  0  0  0  0  0  0  0  0  0  0  0
    3.8660    2.3038    0.0000 C   0  0  0  0  0  0  0  0  0  0  0  0
    2.1340   -0.6962    0.0000 C   0  0  0  0  0  0  0  0  0  0  0  0
    3.8660   -0.6962    0.0000 C   0  0  0  0  0  0  0  0  0  0  0  0
    4.7796    1.8970    0.0000 C   0  0  0  0  0  0  0  0  0  0  0  0
    2.1340   -1.6962    0.0000 C   0  0  0  0  0  0  0  0  0  0  0  0
    3.8660   -1.6962    0.0000 C   0  0  0  0  0  0  0  0  0  0  0  0
    3.0000   -2.1962    0.0000 C   0  0  0  0  0  0  0  0  0  0  0  0
    4.9875    0.9189    0.0000 C   0  0  0  0  0  0  0  0  0  0  0  0
    5.4487    2.6402    0.0000 C   0  0  0  0  0  0  0  0  0  0  0  0
    1.5970   -0.3862    0.0000 H   0  0  0  0  0  0  0  0  0  0  0  0
    4.4030   -0.3862    0.0000 H   0  0  0  0  0  0  0  0  0  0  0  0
    1.5970   -2.0062    0.0000 H   0  0  0  0  0  0  0  0  0  0  0  0
    4.4030   -2.0062    0.0000 H   0  0  0  0  0  0  0  0  0  0  0  0
    4.3810    0.7900    0.0000 H   0  0  0  0  0  0  0  0  0  0  0  0
    5.1164    0.3124    0.0000 H   0  0  0  0  0  0  0  0  0  0  0  0
    5.5939    1.0478    0.0000 H   0  0  0  0  0  0  0  0  0  0  0  0
    6.0653    2.5754    0.0000 H   0  0  0  0  0  0  0  0  0  0  0  0
    2.4631   -3.5062    0.0000 H   0  0  0  0  0  0  0  0  0  0  0  0
    3.5369   -3.5062    0.0000 H   0  0  0  0  0  0  0  0  0  0  0  0
  1  3  2  0  0  0  0
  1  4  2  0  0  0  0
  1  6  1  0  0  0  0
  1  9  1  0  0  0  0
  5  7  1  0  0  0  0
  5 18  1  0  0  0  0
  6 10  1  0  0  0  0
  7 10  2  0  0  0  0
  8 16  1  0  0  0  0
  8 27  1  0  0  0  0
  8 28  1  0  0  0  0
  9 11  2  0  0  0  0
  9 12  1  0  0  0  0
 10 13  1  0  0  0  0
 11 14  1  0  0  0  0
 11 19  1  0  0  0  0
 12 15  2  0  0  0  0
 12 20  1  0  0  0  0
 13 17  1  0  0  0  0
 13 18  2  0  0  0  0
 14 16  2  0  0  0  0
 14 21  1  0  0  0  0
 15 16  1  0  0  0  0
 15 22  1  0  0  0  0
 17 23  1  0  0  0  0
 17 24  1  0  0  0  0
 17 25  1  0  0  0  0
 18 26  1  0  0  0  0
M  CHG  2   2   1   6  -1
M  END
> <PUBCHEM_COMPOUND_CID>
46173982

> <PUBCHEM_COMPOUND_CANONICALIZED>
1

> <PUBCHEM_CACTVS_COMPLEXITY>
352

> <PUBCHEM_CACTVS_HBOND_ACCEPTOR>
6

> <PUBCHEM_CACTVS_HBOND_DONOR>
1

> <PUBCHEM_CACTVS_ROTATABLE_BOND>
3

> <PUBCHEM_CACTVS_SUBSKEYS>
AAADccBzMCBAAAAAAAAAAAAAAAAAAWAAAAAwAAAAAAAAAAABwAAAHgQUQAAADAih2gIz9ZBQAAKpAi5y4nDCABAkIgAomDkkbNoIJKqAkZGAIIBikAgIyEcQAAAAAAQAAAAAAAAACAAAAAAAAAAAAAAAAA==

> <PUBCHEM_IUPAC_OPENEYE_NAME>
sodium (4-aminophenyl)sulfonyl-(4-methylisoxazol-3-yl)azanide

> <PUBCHEM_IUPAC_CAS_NAME>
sodium (4-aminophenyl)sulfonyl-(4-methyl-3-isoxazolyl)azanide

> <PUBCHEM_IUPAC_NAME>
sodium (4-aminophenyl)sulfonyl-(4-methyl-1,2-oxazol-3-yl)azanide

> <PUBCHEM_IUPAC_SYSTEMATIC_NAME>
sodium (4-aminophenyl)sulfonyl-(4-methyl-1,2-oxazol-3-yl)azanide

> <PUBCHEM_IUPAC_TRADITIONAL_NAME>
sodium (4-methylisoxazol-3-yl)-sulfanilyl-azanide

> <PUBCHEM_IUPAC_INCHI>
InChI=1S/C10H10N3O3S.Na/c1-7-6-16-12-10(7)13-17(14,15)9-4-2-8(11)3-5-9;/h2-6H,11H2,1H3;/q-1;+1

> <PUBCHEM_IUPAC_INCHIKEY>
WDTODOXBYLKKKB-UHFFFAOYSA-N

> <PUBCHEM_EXACT_MASS>
275.034056

> <PUBCHEM_MOLECULAR_FORMULA>
C10H10N3NaO3S

> <PUBCHEM_MOLECULAR_WEIGHT>
275.259469

> <PUBCHEM_OPENEYE_CAN_SMILES>
CC1=CON=C1[N-]S(=O)(=O)C2=CC=C(C=C2)N.[Na+]

> <PUBCHEM_OPENEYE_ISO_SMILES>
CC1=CON=C1[N-]S(=O)(=O)C2=CC=C(C=C2)N.[Na+]

> <PUBCHEM_CACTVS_TPSA>
95.6

> <PUBCHEM_MONOISOTOPIC_WEIGHT>
275.034056

> <PUBCHEM_TOTAL_CHARGE>
0

> <PUBCHEM_HEAVY_ATOM_COUNT>
18

> <PUBCHEM_ATOM_DEF_STEREO_COUNT>
0

> <PUBCHEM_ATOM_UDEF_STEREO_COUNT>
0

> <PUBCHEM_BOND_DEF_STEREO_COUNT>
0

> <PUBCHEM_BOND_UDEF_STEREO_COUNT>
0

> <PUBCHEM_ISOTOPIC_ATOM_COUNT>
0

> <PUBCHEM_COMPONENT_COUNT>
2

> <PUBCHEM_CACTVS_TAUTO_COUNT>
1

> <PUBCHEM_NONSTANDARDBOND>
2  6  7

> <PUBCHEM_COORDINATE_TYPE>
1
5
255

> <PUBCHEM_BONDANNOTATIONS>
10  13  8
11  14  8
12  15  8
13  18  8
14  16  8
15  16  8
5  18  8
5  7  8
7  10  8
9  11  8
9  12  8

$$$$

