3082406
  -OEChem-07051213022D

 27 27  0     0  0  0  0  0  0999 V2000
    8.1654   -0.8064    0.0000 S   0  0  0  0  0  0  0  0  0  0  0  0
    7.0064    0.4807    0.0000 N   0  0  0  0  0  0  0  0  0  0  0  0
    2.8090   -0.8273    0.0000 N   0  0  0  0  0  0  0  0  0  0  0  0
    2.3090    0.7116    0.0000 N   0  0  0  0  0  0  0  0  0  0  0  0
    8.7006    0.8408    0.0000 N   0  0  0  0  0  0  0  0  0  0  0  0
    5.3122    0.1206    0.0000 C   0  0  0  0  0  0  0  0  0  0  0  0
    4.5691   -0.5485    0.0000 C   0  0  0  0  0  0  0  0  0  0  0  0
    6.2633   -0.1884    0.0000 C   0  0  0  0  0  0  0  0  0  0  0  0
    3.6180   -0.2395    0.0000 C   0  0  0  0  0  0  0  0  0  0  0  0
    3.3090    0.7116    0.0000 C   0  0  0  0  0  0  0  0  0  0  0  0
    7.9575    0.1717    0.0000 C   0  0  0  0  0  0  0  0  0  0  0  0
    2.0000   -0.2395    0.0000 C   0  0  0  0  0  0  0  0  0  0  0  0
    9.6517    0.5318    0.0000 C   0  0  0  0  0  0  0  0  0  0  0  0
    5.6033    0.6680    0.0000 H   0  0  0  0  0  0  0  0  0  0  0  0
    4.8237    0.5023    0.0000 H   0  0  0  0  0  0  0  0  0  0  0  0
    4.2780   -1.0960    0.0000 H   0  0  0  0  0  0  0  0  0  0  0  0
    5.0577   -0.9302    0.0000 H   0  0  0  0  0  0  0  0  0  0  0  0
    5.9722   -0.7358    0.0000 H   0  0  0  0  0  0  0  0  0  0  0  0
    6.7519   -0.5701    0.0000 H   0  0  0  0  0  0  0  0  0  0  0  0
    6.8775    1.0872    0.0000 H   0  0  0  0  0  0  0  0  0  0  0  0
    2.8090   -1.4473    0.0000 H   0  0  0  0  0  0  0  0  0  0  0  0
    3.6734    1.2131    0.0000 H   0  0  0  0  0  0  0  0  0  0  0  0
    1.4103   -0.4311    0.0000 H   0  0  0  0  0  0  0  0  0  0  0  0
    8.5717    1.4473    0.0000 H   0  0  0  0  0  0  0  0  0  0  0  0
    9.4601   -0.0578    0.0000 H   0  0  0  0  0  0  0  0  0  0  0  0
   10.2413    0.3402    0.0000 H   0  0  0  0  0  0  0  0  0  0  0  0
    9.8433    1.1215    0.0000 H   0  0  0  0  0  0  0  0  0  0  0  0
  1 11  2  0  0  0  0
  2  8  1  0  0  0  0
  2 11  1  0  0  0  0
  2 20  1  0  0  0  0
  3  9  1  0  0  0  0
  3 12  1  0  0  0  0
  3 21  1  0  0  0  0
  4 10  1  0  0  0  0
  4 12  2  0  0  0  0
  5 11  1  0  0  0  0
  5 13  1  0  0  0  0
  5 24  1  0  0  0  0
  6  7  1  0  0  0  0
  6  8  1  0  0  0  0
  6 14  1  0  0  0  0
  6 15  1  0  0  0  0
  7  9  1  0  0  0  0
  7 16  1  0  0  0  0
  7 17  1  0  0  0  0
  8 18  1  0  0  0  0
  8 19  1  0  0  0  0
  9 10  2  0  0  0  0
 10 22  1  0  0  0  0
 12 23  1  0  0  0  0
 13 25  1  0  0  0  0
 13 26  1  0  0  0  0
 13 27  1  0  0  0  0
M  END
> <PUBCHEM_COMPOUND_CID>
3082406

> <PUBCHEM_COMPOUND_CANONICALIZED>
1

> <PUBCHEM_CACTVS_COMPLEXITY>
162

> <PUBCHEM_CACTVS_HBOND_ACCEPTOR>
2

> <PUBCHEM_CACTVS_HBOND_DONOR>
3

> <PUBCHEM_CACTVS_ROTATABLE_BOND>
4

> <PUBCHEM_CACTVS_SUBSKEYS>
AAADccBzgABAAAAAAAAAAAAAAAAAAWAAAAAAAAAAAAAAAAABgAAAHAQQAAAACAjBFgQvkBbJkACkARRnZAAAgC2xEqkBUYA4cAiAaAJAmQCUAAAIkAJAQCAQAAAAAAAAAAAAAAAAAAAAAAAAAAAAAAAAAA==

> <PUBCHEM_IUPAC_OPENEYE_NAME>
1-[3-(1H-imidazol-5-yl)propyl]-3-methyl-thiourea

> <PUBCHEM_IUPAC_CAS_NAME>
1-[3-(1H-imidazol-5-yl)propyl]-3-methylthiourea

> <PUBCHEM_IUPAC_NAME>
1-[3-(1H-imidazol-5-yl)propyl]-3-methylthiourea

> <PUBCHEM_IUPAC_SYSTEMATIC_NAME>
1-[3-(1H-imidazol-5-yl)propyl]-3-methyl-thiourea

> <PUBCHEM_IUPAC_TRADITIONAL_NAME>
1-[3-(1H-imidazol-5-yl)propyl]-3-methyl-thiourea

> <PUBCHEM_IUPAC_INCHI>
InChI=1S/C8H14N4S/c1-9-8(13)11-4-2-3-7-5-10-6-12-7/h5-6H,2-4H2,1H3,(H,10,12)(H2,9,11,13)

> <PUBCHEM_IUPAC_INCHIKEY>
RGIDMSNTKAZSFO-UHFFFAOYSA-N

> <PUBCHEM_XLOGP3>
0

> <PUBCHEM_EXACT_MASS>
198.093917

> <PUBCHEM_MOLECULAR_FORMULA>
C8H14N4S

> <PUBCHEM_MOLECULAR_WEIGHT>
198.28856

> <PUBCHEM_OPENEYE_CAN_SMILES>
CNC(=S)NCCCC1=CN=CN1

> <PUBCHEM_OPENEYE_ISO_SMILES>
CNC(=S)NCCCC1=CN=CN1

> <PUBCHEM_CACTVS_TPSA>
84.8

> <PUBCHEM_MONOISOTOPIC_WEIGHT>
198.093917

> <PUBCHEM_TOTAL_CHARGE>
0

> <PUBCHEM_HEAVY_ATOM_COUNT>
13

> <PUBCHEM_ATOM_DEF_STEREO_COUNT>
0

> <PUBCHEM_ATOM_UDEF_STEREO_COUNT>
0

> <PUBCHEM_BOND_DEF_STEREO_COUNT>
0

> <PUBCHEM_BOND_UDEF_STEREO_COUNT>
0

> <PUBCHEM_ISOTOPIC_ATOM_COUNT>
0

> <PUBCHEM_COMPONENT_COUNT>
1

> <PUBCHEM_CACTVS_TAUTO_COUNT>
6

> <PUBCHEM_COORDINATE_TYPE>
1
5
255

> <PUBCHEM_BONDANNOTATIONS>
3  12  8
3  9  8
4  10  8
4  12  8
9  10  8

$$$$

