439534
  -OEChem-07051212462D

 51 53  0     1  0  0  0  0  0999 V2000
    7.8175    2.3518    0.0000 O   0  0  0  0  0  0  0  0  0  0  0  0
    2.0000   -1.5849    0.0000 O   0  0  0  0  0  0  0  0  0  0  0  0
    9.0034   -2.5737    0.0000 O   0  0  0  0  0  0  0  0  0  0  0  0
    9.8867   -1.0838    0.0000 O   0  0  0  0  0  0  0  0  0  0  0  0
    5.5301    0.4393    0.0000 C   0  0  1  0  0  0  0  0  0  0  0  0
    6.3961   -0.0607    0.0000 C   0  0  2  0  0  0  0  0  0  0  0  0
    4.6641   -0.0607    0.0000 C   0  0  2  0  0  0  0  0  0  0  0  0
    7.3062    0.4461    0.0000 C   0  0  1  0  0  0  0  0  0  0  0  0
    7.3142    1.4877    0.0000 C   0  0  2  0  0  0  0  0  0  0  0  0
    5.5141    1.4808    0.0000 C   0  0  0  0  0  0  0  0  0  0  0  0
    6.3961   -1.0608    0.0000 C   0  0  0  0  0  0  0  0  0  0  0  0
    6.4121    2.0085    0.0000 C   0  0  0  0  0  0  0  0  0  0  0  0
    4.6641   -1.0608    0.0000 C   0  0  0  0  0  0  0  0  0  0  0  0
    5.5301   -1.5608    0.0000 C   0  0  0  0  0  0  0  0  0  0  0  0
    3.7702    0.4739    0.0000 C   0  0  0  0  0  0  0  0  0  0  0  0
    8.1663   -0.0639    0.0000 C   0  0  0  0  0  0  0  0  0  0  0  0
    4.6641    0.9393    0.0000 C   0  0  0  0  0  0  0  0  0  0  0  0
    8.3142    1.4838    0.0000 C   0  0  0  0  0  0  0  0  0  0  0  0
    2.8641   -0.0399    0.0000 C   0  0  0  0  0  0  0  0  0  0  0  0
    3.7702   -1.5954    0.0000 C   0  0  0  0  0  0  0  0  0  0  0  0
    8.1548   -1.0638    0.0000 C   0  0  0  0  0  0  0  0  0  0  0  0
    2.8641   -1.0816    0.0000 C   0  0  0  0  0  0  0  0  0  0  0  0
    9.0150   -1.5738    0.0000 C   0  0  0  0  0  0  0  0  0  0  0  0
    6.2630    0.8699    0.0000 H   0  0  0  0  0  0  0  0  0  0  0  0
    7.1290   -0.4914    0.0000 H   0  0  0  0  0  0  0  0  0  0  0  0
    7.8460    0.7509    0.0000 H   0  0  0  0  0  0  0  0  0  0  0  0
    5.2960    2.0612    0.0000 H   0  0  0  0  0  0  0  0  0  0  0  0
    4.9049    1.3653    0.0000 H   0  0  0  0  0  0  0  0  0  0  0  0
    6.6082   -1.6434    0.0000 H   0  0  0  0  0  0  0  0  0  0  0  0
    7.0067   -0.9531    0.0000 H   0  0  0  0  0  0  0  0  0  0  0  0
    6.8094    2.4845    0.0000 H   0  0  0  0  0  0  0  0  0  0  0  0
    6.0111    2.4814    0.0000 H   0  0  0  0  0  0  0  0  0  0  0  0
    5.1316   -2.0357    0.0000 H   0  0  0  0  0  0  0  0  0  0  0  0
    5.9286   -2.0357    0.0000 H   0  0  0  0  0  0  0  0  0  0  0  0
    4.1748    0.9437    0.0000 H   0  0  0  0  0  0  0  0  0  0  0  0
    3.3765    0.9529    0.0000 H   0  0  0  0  0  0  0  0  0  0  0  0
    8.7756   -0.1786    0.0000 H   0  0  0  0  0  0  0  0  0  0  0  0
    8.3851    0.5162    0.0000 H   0  0  0  0  0  0  0  0  0  0  0  0
    5.2841    0.9393    0.0000 H   0  0  0  0  0  0  0  0  0  0  0  0
    4.6641    1.5592    0.0000 H   0  0  0  0  0  0  0  0  0  0  0  0
    4.0441    0.9393    0.0000 H   0  0  0  0  0  0  0  0  0  0  0  0
    8.3118    0.8638    0.0000 H   0  0  0  0  0  0  0  0  0  0  0  0
    8.9342    1.4814    0.0000 H   0  0  0  0  0  0  0  0  0  0  0  0
    8.3166    2.1038    0.0000 H   0  0  0  0  0  0  0  0  0  0  0  0
    2.6550    0.5438    0.0000 H   0  0  0  0  0  0  0  0  0  0  0  0
    2.2532   -0.1460    0.0000 H   0  0  0  0  0  0  0  0  0  0  0  0
    3.7773   -2.2154    0.0000 H   0  0  0  0  0  0  0  0  0  0  0  0
    7.5096    2.8899    0.0000 H   0  0  0  0  0  0  0  0  0  0  0  0
    7.5455   -0.9491    0.0000 H   0  0  0  0  0  0  0  0  0  0  0  0
    7.9360   -1.6439    0.0000 H   0  0  0  0  0  0  0  0  0  0  0  0
    9.5367   -2.8899    0.0000 H   0  0  0  0  0  0  0  0  0  0  0  0
  9  1  1  6  0  0  0
  1 48  1  0  0  0  0
  2 22  2  0  0  0  0
  3 23  1  0  0  0  0
  3 51  1  0  0  0  0
  4 23  2  0  0  0  0
  5  6  1  0  0  0  0
  5  7  1  0  0  0  0
  5 10  1  0  0  0  0
  5 24  1  6  0  0  0
  6  8  1  0  0  0  0
  6 11  1  0  0  0  0
  6 25  1  1  0  0  0
  7 13  1  0  0  0  0
  7 15  1  0  0  0  0
  7 17  1  1  0  0  0
  8  9  1  0  0  0  0
  8 16  1  1  0  0  0
  8 26  1  0  0  0  0
  9 12  1  0  0  0  0
  9 18  1  0  0  0  0
 10 12  1  0  0  0  0
 10 27  1  0  0  0  0
 10 28  1  0  0  0  0
 11 14  1  0  0  0  0
 11 29  1  0  0  0  0
 11 30  1  0  0  0  0
 12 31  1  0  0  0  0
 12 32  1  0  0  0  0
 13 14  1  0  0  0  0
 13 20  2  0  0  0  0
 14 33  1  0  0  0  0
 14 34  1  0  0  0  0
 15 19  1  0  0  0  0
 15 35  1  0  0  0  0
 15 36  1  0  0  0  0
 16 21  1  0  0  0  0
 16 37  1  0  0  0  0
 16 38  1  0  0  0  0
 17 39  1  0  0  0  0
 17 40  1  0  0  0  0
 17 41  1  0  0  0  0
 18 42  1  0  0  0  0
 18 43  1  0  0  0  0
 18 44  1  0  0  0  0
 19 22  1  0  0  0  0
 19 45  1  0  0  0  0
 19 46  1  0  0  0  0
 20 22  1  0  0  0  0
 20 47  1  0  0  0  0
 21 23  1  0  0  0  0
 21 49  1  0  0  0  0
 21 50  1  0  0  0  0
M  END
> <PUBCHEM_COMPOUND_CID>
439534

> <PUBCHEM_COMPOUND_CANONICALIZED>
1

> <PUBCHEM_CACTVS_COMPLEXITY>
552

> <PUBCHEM_CACTVS_HBOND_ACCEPTOR>
4

> <PUBCHEM_CACTVS_HBOND_DONOR>
2

> <PUBCHEM_CACTVS_ROTATABLE_BOND>
3

> <PUBCHEM_CACTVS_SUBSKEYS>
AAADceB4OAAAAAAAAAAAAAAAAAAAAAAAAAAwYIAAAAAAAADAAAAAGgAACAAAD0SAgAACCAAAAgCIAqDSCAAAAAAgAAAACAEAAEgAABIAAQAAQAAEgAAIAQOI7PTPgAAAAAAAAADAAAYAADAAAAAAAAAAAA==

> <PUBCHEM_IUPAC_OPENEYE_NAME>
3-[(1S,2S,4aS,4bR,10aR)-2-hydroxy-2,4b-dimethyl-7-oxo-3,4,4a,5,6,9,10,10a-octahydro-1H-phenanthren-1-yl]propanoic acid

> <PUBCHEM_IUPAC_CAS_NAME>
3-[(1S,2S,4aS,4bR,10aR)-2-hydroxy-2,4b-dimethyl-7-oxo-3,4,4a,5,6,9,10,10a-octahydro-1H-phenanthren-1-yl]propanoic acid

> <PUBCHEM_IUPAC_NAME>
3-[(1S,2S,4aS,4bR,10aR)-2-hydroxy-2,4b-dimethyl-7-oxo-3,4,4a,5,6,9,10,10a-octahydro-1H-phenanthren-1-yl]propanoic acid

> <PUBCHEM_IUPAC_SYSTEMATIC_NAME>
3-[(1S,2S,4aS,4bR,10aR)-2,4b-dimethyl-2-oxidanyl-7-oxidanylidene-3,4,4a,5,6,9,10,10a-octahydro-1H-phenanthren-1-yl]propanoic acid

> <PUBCHEM_IUPAC_TRADITIONAL_NAME>
3-[(1S,2S,4aS,4bR,10aR)-2-hydroxy-7-keto-2,4b-dimethyl-3,4,4a,5,6,9,10,10a-octahydro-1H-phenanthren-1-yl]propionic acid

> <PUBCHEM_IUPAC_INCHI>
InChI=1S/C19H28O4/c1-18-9-7-13(20)11-12(18)3-4-14-15(18)8-10-19(2,23)16(14)5-6-17(21)22/h11,14-16,23H,3-10H2,1-2H3,(H,21,22)/t14-,15+,16+,18+,19+/m1/s1

> <PUBCHEM_IUPAC_INCHIKEY>
KMUJXIPRPXRPTP-DZBHQSCQSA-N

> <PUBCHEM_XLOGP3_AA>
2

> <PUBCHEM_EXACT_MASS>
320.198759

> <PUBCHEM_MOLECULAR_FORMULA>
C19H28O4

> <PUBCHEM_MOLECULAR_WEIGHT>
320.42322

> <PUBCHEM_OPENEYE_CAN_SMILES>
CC12CCC(=O)C=C1CCC3C2CCC(C3CCC(=O)O)(C)O

> <PUBCHEM_OPENEYE_ISO_SMILES>
C[C@]12CCC(=O)C=C1CC[C@@H]3[C@@H]2CC[C@]([C@H]3CCC(=O)O)(C)O

> <PUBCHEM_CACTVS_TPSA>
74.6

> <PUBCHEM_MONOISOTOPIC_WEIGHT>
320.198759

> <PUBCHEM_TOTAL_CHARGE>
0

> <PUBCHEM_HEAVY_ATOM_COUNT>
23

> <PUBCHEM_ATOM_DEF_STEREO_COUNT>
5

> <PUBCHEM_ATOM_UDEF_STEREO_COUNT>
0

> <PUBCHEM_BOND_DEF_STEREO_COUNT>
0

> <PUBCHEM_BOND_UDEF_STEREO_COUNT>
0

> <PUBCHEM_ISOTOPIC_ATOM_COUNT>
0

> <PUBCHEM_COMPONENT_COUNT>
1

> <PUBCHEM_CACTVS_TAUTO_COUNT>
5

> <PUBCHEM_COORDINATE_TYPE>
1
5
255

> <PUBCHEM_BONDANNOTATIONS>
9  1  6
5  24  6
6  25  5
7  17  5
8  16  5

$$$$

