5460646
  -OEChem-07051213072D

 41 42  0     1  0  0  0  0  0999 V2000
    5.4897   -3.5975    0.0000 P   0  0  0  0  0  0  0  0  0  0  0  0
    5.0298   -0.1149    0.0000 O   0  0  0  0  0  0  0  0  0  0  0  0
    3.1330   -1.8749    0.0000 O   0  0  0  0  0  0  0  0  0  0  0  0
    2.4608    0.1942    0.0000 O   0  0  0  0  0  0  0  0  0  0  0  0
    4.9019   -2.7885    0.0000 O   0  0  0  0  0  0  0  0  0  0  0  0
    6.0774   -4.4065    0.0000 O   0  0  0  0  0  0  0  0  0  0  0  0
    4.6806   -4.1853    0.0000 O   0  0  0  0  0  0  0  0  0  0  0  0
    6.2987   -3.0097    0.0000 O   0  0  0  0  0  0  0  0  0  0  0  0
    5.9529    4.4729    0.0000 O   0  0  0  0  0  0  0  0  0  0  0  0
    3.3548    4.9729    0.0000 O   0  0  0  0  0  0  0  0  0  0  0  0
    4.2208    1.4729    0.0000 N   0  0  0  0  0  0  0  0  0  0  0  0
    5.9529    1.4729    0.0000 N   0  0  0  0  0  0  0  0  0  0  0  0
    4.2208    3.4729    0.0000 N   0  0  0  0  0  0  0  0  0  0  0  0
    6.8189    2.9729    0.0000 N   0  0  0  0  0  0  0  0  0  0  0  0
    7.6849    1.4729    0.0000 N   0  0  0  0  0  0  0  0  0  0  0  0
    3.7208   -1.0659    0.0000 C   0  0  1  0  0  0  0  0  0  0  0  0
    3.4118   -0.1149    0.0000 C   0  0  2  0  0  0  0  0  0  0  0  0
    4.7208   -1.0659    0.0000 C   0  0  1  0  0  0  0  0  0  0  0  0
    4.2208    0.4729    0.0000 C   0  0  1  0  0  0  0  0  0  0  0  0
    5.3086   -1.8749    0.0000 C   0  0  0  0  0  0  0  0  0  0  0  0
    5.0868    1.9729    0.0000 C   0  0  0  0  0  0  0  0  0  0  0  0
    5.0868    2.9729    0.0000 C   0  0  0  0  0  0  0  0  0  0  0  0
    6.8189    1.9729    0.0000 C   0  0  0  0  0  0  0  0  0  0  0  0
    5.9529    3.4729    0.0000 C   0  0  0  0  0  0  0  0  0  0  0  0
    4.2208    4.4729    0.0000 C   0  0  0  0  0  0  0  0  0  0  0  0
    3.1085   -0.9689    0.0000 H   0  0  0  0  0  0  0  0  0  0  0  0
    2.9734   -0.5533    0.0000 H   0  0  0  0  0  0  0  0  0  0  0  0
    5.3332   -0.9689    0.0000 H   0  0  0  0  0  0  0  0  0  0  0  0
    3.6684    0.7544    0.0000 H   0  0  0  0  0  0  0  0  0  0  0  0
    5.8226   -2.2216    0.0000 H   0  0  0  0  0  0  0  0  0  0  0  0
    5.7393   -1.4290    0.0000 H   0  0  0  0  0  0  0  0  0  0  0  0
    3.6839    1.7829    0.0000 H   0  0  0  0  0  0  0  0  0  0  0  0
    2.5164   -1.8101    0.0000 H   0  0  0  0  0  0  0  0  0  0  0  0
    2.0000   -0.2207    0.0000 H   0  0  0  0  0  0  0  0  0  0  0  0
    5.9529    0.8529    0.0000 H   0  0  0  0  0  0  0  0  0  0  0  0
    3.6839    3.1629    0.0000 H   0  0  0  0  0  0  0  0  0  0  0  0
    5.8253   -4.9729    0.0000 H   0  0  0  0  0  0  0  0  0  0  0  0
    4.7454   -4.8019    0.0000 H   0  0  0  0  0  0  0  0  0  0  0  0
    8.2219    1.7829    0.0000 H   0  0  0  0  0  0  0  0  0  0  0  0
    7.6849    0.8529    0.0000 H   0  0  0  0  0  0  0  0  0  0  0  0
    4.7578    4.7829    0.0000 H   0  0  0  0  0  0  0  0  0  0  0  0
  1  5  1  0  0  0  0
  1  6  1  0  0  0  0
  1  7  1  0  0  0  0
  1  8  2  0  0  0  0
  2 18  1  0  0  0  0
  2 19  1  0  0  0  0
 16  3  1  1  0  0  0
  3 33  1  0  0  0  0
 17  4  1  1  0  0  0
  4 34  1  0  0  0  0
  5 20  1  0  0  0  0
  6 37  1  0  0  0  0
  7 38  1  0  0  0  0
  9 24  2  0  0  0  0
 10 25  2  0  0  0  0
 19 11  1  6  0  0  0
 11 21  1  0  0  0  0
 11 32  1  0  0  0  0
 12 21  1  0  0  0  0
 12 23  1  0  0  0  0
 12 35  1  0  0  0  0
 13 22  1  0  0  0  0
 13 25  1  0  0  0  0
 13 36  1  0  0  0  0
 14 23  2  0  0  0  0
 14 24  1  0  0  0  0
 15 23  1  0  0  0  0
 15 39  1  0  0  0  0
 15 40  1  0  0  0  0
 16 17  1  0  0  0  0
 16 18  1  0  0  0  0
 16 26  1  0  0  0  0
 17 19  1  0  0  0  0
 17 27  1  0  0  0  0
 18 20  1  6  0  0  0
 18 28  1  0  0  0  0
 19 29  1  0  0  0  0
 20 30  1  0  0  0  0
 20 31  1  0  0  0  0
 21 22  2  0  0  0  0
 22 24  1  0  0  0  0
 25 41  1  0  0  0  0
M  END
> <PUBCHEM_COMPOUND_CID>
5460646

> <PUBCHEM_COMPOUND_CANONICALIZED>
1

> <PUBCHEM_CACTVS_COMPLEXITY>
661

> <PUBCHEM_CACTVS_HBOND_ACCEPTOR>
10

> <PUBCHEM_CACTVS_HBOND_DONOR>
8

> <PUBCHEM_CACTVS_ROTATABLE_BOND>
6

> <PUBCHEM_CACTVS_SUBSKEYS>
AAADceBzvAIAAAAAAAAAAAAAAAAAASAAAAAgAAAAAAAAAAAAAAAAHgAQCCAACBzhgAYBAALABxCoQAVQ9ICAAAEAAAABAICIAEGDUAIAgCAeQAAPFAITAEDwMAIAAAAAAAAAAAAAAAAAAAAAAAAAAAAAAA==

> <PUBCHEM_IUPAC_OPENEYE_NAME>
[(2R,3S,4R,5R)-5-[(2-amino-5-formamido-4-oxo-1H-pyrimidin-6-yl)amino]-3,4-dihydroxy-tetrahydrofuran-2-yl]methyl dihydrogen phosphate

> <PUBCHEM_IUPAC_CAS_NAME>
[(2R,3S,4R,5R)-5-[(2-amino-5-formamido-4-oxo-1H-pyrimidin-6-yl)amino]-3,4-dihydroxy-2-oxolanyl]methyl dihydrogen phosphate

> <PUBCHEM_IUPAC_NAME>
[(2R,3S,4R,5R)-5-[(2-amino-5-formamido-4-oxo-1H-pyrimidin-6-yl)amino]-3,4-dihydroxyoxolan-2-yl]methyl dihydrogen phosphate

> <PUBCHEM_IUPAC_SYSTEMATIC_NAME>
[(2R,3S,4R,5R)-5-[(2-azanyl-5-formamido-4-oxidanylidene-1H-pyrimidin-6-yl)amino]-3,4-bis(oxidanyl)oxolan-2-yl]methyl dihydrogen phosphate

> <PUBCHEM_IUPAC_TRADITIONAL_NAME>
[(2R,3S,4R,5R)-5-[(2-amino-5-formamido-4-keto-1H-pyrimidin-6-yl)amino]-3,4-dihydroxy-tetrahydrofuran-2-yl]methyl dihydrogen phosphate

> <PUBCHEM_IUPAC_INCHI>
InChI=1S/C10H16N5O9P/c11-10-14-7(4(12-2-16)8(19)15-10)13-9-6(18)5(17)3(24-9)1-23-25(20,21)22/h2-3,5-6,9,17-18H,1H2,(H,12,16)(H2,20,21,22)(H4,11,13,14,15,19)/t3-,5-,6-,9-/m1/s1

> <PUBCHEM_IUPAC_INCHIKEY>
VKMYTDDVUBGBDH-UUOKFMHZSA-N

> <PUBCHEM_XLOGP3_AA>
-4.9

> <PUBCHEM_EXACT_MASS>
381.068564

> <PUBCHEM_MOLECULAR_FORMULA>
C10H16N5O9P

> <PUBCHEM_MOLECULAR_WEIGHT>
381.235902

> <PUBCHEM_OPENEYE_CAN_SMILES>
C(C1C(C(C(O1)NC2=C(C(=O)N=C(N2)N)NC=O)O)O)OP(=O)(O)O

> <PUBCHEM_OPENEYE_ISO_SMILES>
C([C@@H]1[C@H]([C@H]([C@@H](O1)NC2=C(C(=O)N=C(N2)N)NC=O)O)O)OP(=O)(O)O

> <PUBCHEM_CACTVS_TPSA>
225

> <PUBCHEM_MONOISOTOPIC_WEIGHT>
381.068564

> <PUBCHEM_TOTAL_CHARGE>
0

> <PUBCHEM_HEAVY_ATOM_COUNT>
25

> <PUBCHEM_ATOM_DEF_STEREO_COUNT>
4

> <PUBCHEM_ATOM_UDEF_STEREO_COUNT>
0

> <PUBCHEM_BOND_DEF_STEREO_COUNT>
0

> <PUBCHEM_BOND_UDEF_STEREO_COUNT>
0

> <PUBCHEM_ISOTOPIC_ATOM_COUNT>
0

> <PUBCHEM_COMPONENT_COUNT>
1

> <PUBCHEM_CACTVS_TAUTO_COUNT>
34

> <PUBCHEM_COORDINATE_TYPE>
1
5
255

> <PUBCHEM_BONDANNOTATIONS>
19  11  6
12  21  8
12  23  8
14  23  8
14  24  8
18  20  6
21  22  8
22  24  8
16  3  5
17  4  5

$$$$

