4806
  -OEChem-06261200213D

 40 42  0     0  0  0  0  0  0999 V2000
    4.4050    1.5517    0.1814 S   0  0  0  0  0  0  0  0  0  0  0  0
    4.0878   -2.5710    1.1412 S   0  0  0  0  0  0  0  0  0  0  0  0
    4.7596    2.5975    1.1338 O   0  0  0  0  0  0  0  0  0  0  0  0
    4.8388    1.6873   -1.2038 O   0  0  0  0  0  0  0  0  0  0  0  0
   -1.9561    0.0243   -1.8326 O   0  0  0  0  0  0  0  0  0  0  0  0
   -4.1085   -2.4650    1.6609 O   0  0  0  0  0  0  0  0  0  0  0  0
   -2.5999   -2.2523   -0.0260 O   0  0  0  0  0  0  0  0  0  0  0  0
   -1.4934    0.9445    0.2756 N   0  0  0  0  0  0  0  0  0  0  0  0
    4.9540    0.0453    0.8123 N   0  0  0  0  0  0  0  0  0  0  0  0
    4.2403   -1.2755   -1.0907 N   0  0  0  0  0  0  0  0  0  0  0  0
    2.6687    1.3734    0.2088 C   0  0  0  0  0  0  0  0  0  0  0  0
   -0.0846    1.0902    0.2529 C   0  0  0  0  0  0  0  0  0  0  0  0
    2.0041    0.8448   -0.8978 C   0  0  0  0  0  0  0  0  0  0  0  0
    1.9459    1.7594    1.3375 C   0  0  0  0  0  0  0  0  0  0  0  0
    0.6166    0.7022   -0.8757 C   0  0  0  0  0  0  0  0  0  0  0  0
    0.5585    1.6167    1.3598 C   0  0  0  0  0  0  0  0  0  0  0  0
   -3.7566    0.4392   -0.4193 C   0  0  0  0  0  0  0  0  0  0  0  0
   -2.3320    0.4392   -0.7260 C   0  0  0  0  0  0  0  0  0  0  0  0
   -4.3642   -0.6524    0.2009 C   0  0  0  0  0  0  0  0  0  0  0  0
   -4.5146    1.5602   -0.7576 C   0  0  0  0  0  0  0  0  0  0  0  0
    4.4542   -1.1623    0.2123 C   0  0  0  0  0  0  0  0  0  0  0  0
   -5.7300   -0.6230    0.4828 C   0  0  0  0  0  0  0  0  0  0  0  0
   -5.8805    1.5894   -0.4757 C   0  0  0  0  0  0  0  0  0  0  0  0
   -6.4881    0.4979    0.1445 C   0  0  0  0  0  0  0  0  0  0  0  0
   -3.5996   -1.8377    0.5664 C   0  0  0  0  0  0  0  0  0  0  0  0
    3.6127   -3.3836   -0.2925 C   0  0  0  0  0  0  0  0  0  0  0  0
    3.7619   -2.5402   -1.3733 C   0  0  0  0  0  0  0  0  0  0  0  0
    2.5396    0.5586   -1.7979 H   0  0  0  0  0  0  0  0  0  0  0  0
    2.4427    2.1663    2.2136 H   0  0  0  0  0  0  0  0  0  0  0  0
    0.1765    0.2905   -1.7714 H   0  0  0  0  0  0  0  0  0  0  0  0
    0.0049    1.9183    2.2446 H   0  0  0  0  0  0  0  0  0  0  0  0
   -1.9427    1.2536    1.1354 H   0  0  0  0  0  0  0  0  0  0  0  0
    5.1324   -0.0100    1.8226 H   0  0  0  0  0  0  0  0  0  0  0  0
   -4.0529    2.4172   -1.2413 H   0  0  0  0  0  0  0  0  0  0  0  0
   -6.2364   -1.4622    0.9528 H   0  0  0  0  0  0  0  0  0  0  0  0
   -6.4709    2.4619   -0.7399 H   0  0  0  0  0  0  0  0  0  0  0  0
   -7.5523    0.5198    0.3609 H   0  0  0  0  0  0  0  0  0  0  0  0
    3.2585   -4.4043   -0.2772 H   0  0  0  0  0  0  0  0  0  0  0  0
    3.5330   -2.7999   -2.3979 H   0  0  0  0  0  0  0  0  0  0  0  0
   -3.5878   -3.2612    1.9004 H   0  0  0  0  0  0  0  0  0  0  0  0
  1  3  2  0  0  0  0
  1  4  2  0  0  0  0
  1  9  1  0  0  0  0
  1 11  1  0  0  0  0
  2 21  1  0  0  0  0
  2 26  1  0  0  0  0
  5 18  2  0  0  0  0
  6 25  1  0  0  0  0
  6 40  1  0  0  0  0
  7 25  2  0  0  0  0
  8 12  1  0  0  0  0
  8 18  1  0  0  0  0
  8 32  1  0  0  0  0
  9 21  1  0  0  0  0
  9 33  1  0  0  0  0
 10 21  2  0  0  0  0
 10 27  1  0  0  0  0
 11 13  2  0  0  0  0
 11 14  1  0  0  0  0
 12 15  2  0  0  0  0
 12 16  1  0  0  0  0
 13 15  1  0  0  0  0
 13 28  1  0  0  0  0
 14 16  2  0  0  0  0
 14 29  1  0  0  0  0
 15 30  1  0  0  0  0
 16 31  1  0  0  0  0
 17 18  1  0  0  0  0
 17 19  1  0  0  0  0
 17 20  2  0  0  0  0
 19 22  2  0  0  0  0
 19 25  1  0  0  0  0
 20 23  1  0  0  0  0
 20 34  1  0  0  0  0
 22 24  1  0  0  0  0
 22 35  1  0  0  0  0
 23 24  2  0  0  0  0
 23 36  1  0  0  0  0
 24 37  1  0  0  0  0
 26 27  2  0  0  0  0
 26 38  1  0  0  0  0
 27 39  1  0  0  0  0
M  END
> <PUBCHEM_COMPOUND_CID>
4806

> <PUBCHEM_CONFORMER_RMSD>
0.8

> <PUBCHEM_CONFORMER_DIVERSEORDER>
1
84
107
83
92
118
129
128
38
135
2
140
125
131
23
134
106
47
141
28
109
24
70
80
14
85
117
139
144
116
124
12
130
137
132
63
33
77
71
114
15
143
65
86
53
97
146
89
62
3
66
121
61
138
115
110
120
99
43
74
81
52
69
76
102
13
142
26
127
82
90
37
95
8
98
93
126
111
100
46
42
22
60
103
79
67
27
41
58
101
36
54
73
105
51
78
91
9
59
108
72
119
35
57
5
122
56
75
21
49
147
4
88
25
55
34
19
68
133
39
112
7
16
45
10
30
123
87
64
113
136
6
96
48
145
94
44
104
29
18
32
17
20
31
40
11
50

> <PUBCHEM_MMFF94_PARTIAL_CHARGES>
40
1 1.45
10 -0.57
11 -0.01
12 0.12
13 -0.15
14 -0.15
15 -0.15
16 -0.15
17 0.09
18 0.54
19 0.09
2 -0.08
20 -0.15
21 0.52
22 -0.15
23 -0.15
24 -0.15
25 0.63
26 -0.11
27 0.08
28 0.15
29 0.15
3 -0.65
30 0.15
31 0.15
32 0.37
33 0.42
34 0.15
35 0.15
36 0.15
37 0.15
38 0.15
39 0.15
4 -0.65
40 0.5
5 -0.57
6 -0.65
7 -0.57
8 -0.55
9 -0.7

> <PUBCHEM_EFFECTIVE_ROTOR_COUNT>
7

> <PUBCHEM_PHARMACOPHORE_FEATURES>
12
1 10 acceptor
1 3 acceptor
1 4 acceptor
1 5 acceptor
1 6 acceptor
1 7 acceptor
1 8 donor
1 9 donor
3 6 7 25 anion
5 2 10 21 26 27 rings
6 11 12 13 14 15 16 rings
6 17 19 20 22 23 24 rings

> <PUBCHEM_HEAVY_ATOM_COUNT>
27

> <PUBCHEM_ATOM_DEF_STEREO_COUNT>
0

> <PUBCHEM_ATOM_UDEF_STEREO_COUNT>
0

> <PUBCHEM_BOND_DEF_STEREO_COUNT>
0

> <PUBCHEM_BOND_UDEF_STEREO_COUNT>
0

> <PUBCHEM_ISOTOPIC_ATOM_COUNT>
0

> <PUBCHEM_COMPONENT_COUNT>
1

> <PUBCHEM_CACTVS_TAUTO_COUNT>
4

> <PUBCHEM_CONFORMER_ID>
000012C600000001

> <PUBCHEM_MMFF94_ENERGY>
66.5742

> <PUBCHEM_FEATURE_SELFOVERLAP>
60.971

> <PUBCHEM_SHAPE_FINGERPRINT>
10670039 82 12750960000570878166
10673678 19 18127399052550537276
11595378 159 15430308170085311714
117089 54 17464239909995233566
11796584 16 18341895211841790026
12128747 34 18337392750792261629
12236239 1 14129048202291595813
12596602 18 16081659872123977242
12788726 201 17313095375971748832
13533116 47 18261111902110400384
13583140 156 18115309964682508517
13617811 41 16845854607604133095
13782708 43 18411135840780152039
14251757 17 18342739645578433466
14910302 57 18060423538266790551
15183329 4 18335979852696790593
15250474 111 18189630357734695647
15419008 42 17980780529251504829
15537594 2 17894910698726538196
15664445 248 17917424299054717580
15799311 1 18270945904086577907
16067689 134 17399510620742777017
17349148 13 15863791694788399953
17844677 252 18202562903768899277
1813 80 16630525137522551605
1979834 28 17459196338304319174
19958102 18 18130796719546558973
20645477 70 18410856586021549040
21279426 13 18337954627209483237
21315759 148 18273209768933117305
21421861 104 18186811300842760740
21623969 137 18335701616030495090
21859007 373 17701835486432692701
23522609 53 13398056708658136071
23559900 14 18411981360098652412
239999 70 18408601479347063070
25222932 49 18042125349688042430
25269216 80 16629661961119224123
3004659 81 18341611555559659006
345986 75 17532660229093595930
34797466 226 17561076995244116509
3633792 109 18269002041609062413
3680242 22 18197497530893056762
394071 54 16732991890575238416
4073 2 18271804575444492481
4144715 1 18272082782616423977
4340502 62 18410299078045113824
460360 51 18264188344456522065
5104073 3 18409163333666982449
5265222 85 17979908316548047108
8509985 295 17822015327924779412
9995097 60 18410575076141910979

> <PUBCHEM_SHAPE_MULTIPOLES>
519.06
15.42
3.22
1.34
11.13
2.04
-0.02
1.5
0.43
-3.84
0.56
-0.6
0.11
1.73

> <PUBCHEM_SHAPE_SELFOVERLAP>
1103.294

> <PUBCHEM_SHAPE_VOLUME>
288.3

> <PUBCHEM_COORDINATE_TYPE>
2
5
10

$$$$

