235557
  -OEChem-07051213073D

 51 54  0     1  0  0  0  0  0999 V2000
    0.7134    0.3761    2.0441 Br  0  0  0  0  0  0  0  0  0  0  0  0
   -5.0403    0.7675   -0.2370 O   0  0  0  0  0  0  0  0  0  0  0  0
    0.0192    2.6609   -0.6604 O   0  0  0  0  0  0  0  0  0  0  0  0
    5.7477   -0.2022    0.8645 O   0  0  0  0  0  0  0  0  0  0  0  0
   -2.6102    0.3614   -0.1867 C   0  0  1  0  0  0  0  0  0  0  0  0
   -1.8179   -0.8882    0.2647 C   0  0  2  0  0  0  0  0  0  0  0  0
   -0.4029   -0.9247   -0.3318 C   0  0  1  0  0  0  0  0  0  0  0  0
    0.4347    0.3506    0.0538 C   0  0  2  0  0  0  0  0  0  0  0  0
   -4.0064    0.0538    0.4373 C   0  0  2  0  0  0  0  0  0  0  0  0
   -2.7669   -2.0408   -0.0567 C   0  0  0  0  0  0  0  0  0  0  0  0
    1.8605    0.3380   -0.6510 C   0  0  2  0  0  0  0  0  0  0  0  0
   -1.8825    1.6089    0.3222 C   0  0  0  0  0  0  0  0  0  0  0  0
   -4.1739   -1.4696    0.1955 C   0  0  0  0  0  0  0  0  0  0  0  0
    0.3466   -2.2338   -0.0398 C   0  0  0  0  0  0  0  0  0  0  0  0
   -0.4287    1.6265   -0.1637 C   0  0  0  0  0  0  0  0  0  0  0  0
   -2.7486    0.4939   -1.7339 C   0  0  0  0  0  0  0  0  0  0  0  0
    2.5284   -1.0268   -0.3925 C   0  0  0  0  0  0  0  0  0  0  0  0
    1.7110   -2.2551   -0.7286 C   0  0  0  0  0  0  0  0  0  0  0  0
    2.8087    1.5266   -0.2578 C   0  0  0  0  0  0  0  0  0  0  0  0
   -4.1442    0.3863    1.9288 C   0  0  0  0  0  0  0  0  0  0  0  0
    1.6812    0.4735   -2.1967 C   0  0  0  0  0  0  0  0  0  0  0  0
    3.8548    1.2578    0.8139 C   0  0  0  0  0  0  0  0  0  0  0  0
    3.7561   -1.1933    0.1239 C   0  0  0  0  0  0  0  0  0  0  0  0
    4.5602   -0.0474    0.5882 C   0  0  0  0  0  0  0  0  0  0  0  0
   -1.7177   -0.8854    1.3571 H   0  0  0  0  0  0  0  0  0  0  0  0
   -0.5421   -0.9197   -1.4180 H   0  0  0  0  0  0  0  0  0  0  0  0
   -2.5749   -2.9135    0.5762 H   0  0  0  0  0  0  0  0  0  0  0  0
   -2.6702   -2.3642   -1.0993 H   0  0  0  0  0  0  0  0  0  0  0  0
   -1.8670    1.6681    1.4142 H   0  0  0  0  0  0  0  0  0  0  0  0
   -2.3838    2.5162   -0.0355 H   0  0  0  0  0  0  0  0  0  0  0  0
   -4.8203   -1.6741   -0.6662 H   0  0  0  0  0  0  0  0  0  0  0  0
   -4.6356   -1.9656    1.0571 H   0  0  0  0  0  0  0  0  0  0  0  0
   -0.2340   -3.0889   -0.4058 H   0  0  0  0  0  0  0  0  0  0  0  0
    0.4664   -2.3862    1.0389 H   0  0  0  0  0  0  0  0  0  0  0  0
   -1.7849    0.6218   -2.2356 H   0  0  0  0  0  0  0  0  0  0  0  0
   -3.2367   -0.3742   -2.1874 H   0  0  0  0  0  0  0  0  0  0  0  0
   -3.3468    1.3751   -1.9945 H   0  0  0  0  0  0  0  0  0  0  0  0
    1.5790   -2.3209   -1.8149 H   0  0  0  0  0  0  0  0  0  0  0  0
    2.2319   -3.1750   -0.4349 H   0  0  0  0  0  0  0  0  0  0  0  0
    2.2426    2.4133    0.0397 H   0  0  0  0  0  0  0  0  0  0  0  0
    3.3707    1.8423   -1.1492 H   0  0  0  0  0  0  0  0  0  0  0  0
   -3.3889   -0.1046    2.5480 H   0  0  0  0  0  0  0  0  0  0  0  0
   -4.0873    1.4677    2.0952 H   0  0  0  0  0  0  0  0  0  0  0  0
   -5.1301    0.0806    2.2996 H   0  0  0  0  0  0  0  0  0  0  0  0
    2.6428    0.3549   -2.7129 H   0  0  0  0  0  0  0  0  0  0  0  0
    1.0094   -0.2709   -2.6301 H   0  0  0  0  0  0  0  0  0  0  0  0
    1.2896    1.4581   -2.4722 H   0  0  0  0  0  0  0  0  0  0  0  0
   -5.8947    0.4401    0.0928 H   0  0  0  0  0  0  0  0  0  0  0  0
    3.4314    1.2520    1.8206 H   0  0  0  0  0  0  0  0  0  0  0  0
    4.6009    2.0609    0.7861 H   0  0  0  0  0  0  0  0  0  0  0  0
    4.1924   -2.1775    0.2588 H   0  0  0  0  0  0  0  0  0  0  0  0
  1  8  1  0  0  0  0
  2  9  1  0  0  0  0
  2 48  1  0  0  0  0
  3 15  2  0  0  0  0
  4 24  2  0  0  0  0
  5  6  1  0  0  0  0
  5  9  1  0  0  0  0
  5 12  1  0  0  0  0
  5 16  1  0  0  0  0
  6  7  1  0  0  0  0
  6 10  1  0  0  0  0
  6 25  1  0  0  0  0
  7  8  1  0  0  0  0
  7 14  1  0  0  0  0
  7 26  1  0  0  0  0
  8 11  1  0  0  0  0
  8 15  1  0  0  0  0
  9 13  1  0  0  0  0
  9 20  1  0  0  0  0
 10 13  1  0  0  0  0
 10 27  1  0  0  0  0
 10 28  1  0  0  0  0
 11 17  1  0  0  0  0
 11 19  1  0  0  0  0
 11 21  1  0  0  0  0
 12 15  1  0  0  0  0
 12 29  1  0  0  0  0
 12 30  1  0  0  0  0
 13 31  1  0  0  0  0
 13 32  1  0  0  0  0
 14 18  1  0  0  0  0
 14 33  1  0  0  0  0
 14 34  1  0  0  0  0
 16 35  1  0  0  0  0
 16 36  1  0  0  0  0
 16 37  1  0  0  0  0
 17 18  1  0  0  0  0
 17 23  2  0  0  0  0
 18 38  1  0  0  0  0
 18 39  1  0  0  0  0
 19 22  1  0  0  0  0
 19 40  1  0  0  0  0
 19 41  1  0  0  0  0
 20 42  1  0  0  0  0
 20 43  1  0  0  0  0
 20 44  1  0  0  0  0
 21 45  1  0  0  0  0
 21 46  1  0  0  0  0
 21 47  1  0  0  0  0
 22 24  1  0  0  0  0
 22 49  1  0  0  0  0
 22 50  1  0  0  0  0
 23 24  1  0  0  0  0
 23 51  1  0  0  0  0
M  END
> <PUBCHEM_COMPOUND_CID>
235557

> <PUBCHEM_CONFORMER_RMSD>
0.6

> <PUBCHEM_CONFORMER_DIVERSEORDER>
1

> <PUBCHEM_MMFF94_PARTIAL_CHARGES>
16
1 -0.23
11 0.14
12 0.06
15 0.45
17 -0.28
18 0.14
2 -0.68
22 0.06
23 -0.14
24 0.49
3 -0.57
4 -0.57
48 0.4
51 0.15
8 0.29
9 0.28

> <PUBCHEM_EFFECTIVE_ROTOR_COUNT>
1.6

> <PUBCHEM_PHARMACOPHORE_FEATURES>
9
1 1 hydrophobe
1 2 acceptor
1 2 donor
1 3 acceptor
1 4 acceptor
5 5 6 9 10 13 rings
6 11 17 19 22 23 24 rings
6 5 6 7 8 12 15 rings
6 7 8 11 14 17 18 rings

> <PUBCHEM_HEAVY_ATOM_COUNT>
24

> <PUBCHEM_ATOM_DEF_STEREO_COUNT>
6

> <PUBCHEM_ATOM_UDEF_STEREO_COUNT>
0

> <PUBCHEM_BOND_DEF_STEREO_COUNT>
0

> <PUBCHEM_BOND_UDEF_STEREO_COUNT>
0

> <PUBCHEM_ISOTOPIC_ATOM_COUNT>
0

> <PUBCHEM_COMPONENT_COUNT>
1

> <PUBCHEM_CACTVS_TAUTO_COUNT>
10

> <PUBCHEM_CONFORMER_ID>
0003982500000001

> <PUBCHEM_MMFF94_ENERGY>
96.0992

> <PUBCHEM_FEATURE_SELFOVERLAP>
45.764

> <PUBCHEM_SHAPE_FINGERPRINT>
10062212 137 18341334388166419695
10675989 125 16757497027993601812
10863032 1 18334573503788038534
10967382 1 18410570703796671006
11132069 177 18413385432458089207
11370993 70 18410016562879241510
11578080 2 17606144963518370705
12236239 1 17704355468077227696
12403259 226 18338520862860319588
12403259 415 18409174320378240108
12403814 3 17917991664191729855
12422481 6 18265612259153500930
12553582 1 18339059554574871597
12592029 89 18342738542061904338
12633257 1 18413103939942689784
13140716 1 18338514119102217096
13224815 77 18260828193792932823
13675066 3 17917710184366319577
14178342 30 18335128774719918299
14223421 5 18263362667179982278
14341114 328 17458347446480890544
14787075 74 17894921689526723306
14790565 3 17764863598857475740
15163728 17 14419233621918077363
15196674 1 18410575046024314454
15375358 24 18408886248072864815
15536298 74 18260541255697137974
15788980 27 17989207036121980225
16945 1 18266739267188454798
17349148 13 18059852857361679958
1813 80 17346881165507526790
18186145 218 18334002904629777582
19784866 9 18333168383905052666
19862831 5 17203891872510756947
200 152 18186811266319635255
20600515 1 18261103037530367300
20691752 17 18273210880960426923
20715895 44 18057050314213960789
20775438 99 11955460898233454377
21033648 29 18270983300578483408
21267235 1 18411973646321648826
21421861 104 18129101310775836394
21857420 4 14038096363812317059
22182313 1 18198343051033898943
23184049 59 18411136918188753934
23402539 116 18410020917975930302
23557571 272 18413672417529557528
23559900 14 18334574672731585526
26918003 58 18411422816718132849
2748010 2 18410847767842079311
2838139 119 15358561640002843330
296302 2 15791727516269974299
335352 9 18411981390511239117
34934 24 18410862100659629167
350125 39 18409167693486334576
392239 28 18334579031759089264
4340502 62 18259696805345218955
474 4 18113900438046506104
5104073 3 18338514136282093459
633830 44 17821723914757807788
9709674 26 18262516021435435710

> <PUBCHEM_SHAPE_MULTIPOLES>
482.24
8.97
2.16
1.49
0.96
0.35
-0.02
0.17
-2.34
0.03
0.26
-0.13
-0.38
0.14

> <PUBCHEM_SHAPE_SELFOVERLAP>
1025.163

> <PUBCHEM_SHAPE_VOLUME>
275.1

> <PUBCHEM_COORDINATE_TYPE>
2
5
10

$$$$

