11973
  -OEChem-06261206212D

 56 56  0     0  0  0  0  0  0999 V2000
    6.5380    7.3100    0.0000 Br  0  0  0  0  0  0  0  0  0  0  0  0
   11.7341    4.3100    0.0000 Br  0  0  0  0  0  0  0  0  0  0  0  0
    1.4030    5.6605    0.0000 S   0  0  0  0  0  0  0  0  0  0  0  0
    8.2700    6.3100    0.0000 O   0  0  0  0  0  0  0  0  0  0  0  0
   10.0021    3.3100    0.0000 O   0  0  0  0  0  0  0  0  0  0  0  0
    0.5369    5.1605    0.0000 O   0  0  0  0  0  0  0  0  0  0  0  0
    4.0010    6.1605    0.0000 O   0  0  0  0  0  0  0  0  0  0  0  0
    0.9030    6.5266    0.0000 O   0  0  0  0  0  0  0  0  0  0  0  0
    1.9030    4.7945    0.0000 O   0  0  0  0  0  0  0  0  0  0  0  0
    9.1360   10.8100    0.0000 N   0  0  0  0  0  0  0  0  0  0  0  0
   13.4662    0.3100    0.0000 N   0  0  0  0  0  0  0  0  0  0  0  0
    7.4040   10.8100    0.0000 N   0  0  0  0  0  0  0  0  0  0  0  0
   14.3322    1.8100    0.0000 N   0  0  0  0  0  0  0  0  0  0  0  0
    9.1360    4.8100    0.0000 C   0  0  0  0  0  0  0  0  0  0  0  0
    9.1360    5.8100    0.0000 C   0  0  0  0  0  0  0  0  0  0  0  0
   10.0021    4.3100    0.0000 C   0  0  0  0  0  0  0  0  0  0  0  0
    8.2700    7.3100    0.0000 C   0  0  0  0  0  0  0  0  0  0  0  0
   10.8681    2.8100    0.0000 C   0  0  0  0  0  0  0  0  0  0  0  0
    7.4040    7.8100    0.0000 C   0  0  0  0  0  0  0  0  0  0  0  0
   11.7341    3.3100    0.0000 C   0  0  0  0  0  0  0  0  0  0  0  0
    9.1360    7.8100    0.0000 C   0  0  0  0  0  0  0  0  0  0  0  0
   10.8681    1.8100    0.0000 C   0  0  0  0  0  0  0  0  0  0  0  0
    8.2700    9.3100    0.0000 C   0  0  0  0  0  0  0  0  0  0  0  0
   12.6002    1.8100    0.0000 C   0  0  0  0  0  0  0  0  0  0  0  0
    7.4040    8.8100    0.0000 C   0  0  0  0  0  0  0  0  0  0  0  0
   12.6002    2.8100    0.0000 C   0  0  0  0  0  0  0  0  0  0  0  0
    9.1360    8.8100    0.0000 C   0  0  0  0  0  0  0  0  0  0  0  0
   11.7341    1.3100    0.0000 C   0  0  0  0  0  0  0  0  0  0  0  0
    8.2700   10.3100    0.0000 C   0  0  0  0  0  0  0  0  0  0  0  0
   13.4662    1.3100    0.0000 C   0  0  0  0  0  0  0  0  0  0  0  0
    2.2690    6.1605    0.0000 C   0  0  0  0  0  0  0  0  0  0  0  0
    3.1350    5.6605    0.0000 C   0  0  0  0  0  0  0  0  0  0  0  0
    8.5255    4.9177    0.0000 H   0  0  0  0  0  0  0  0  0  0  0  0
    8.9240    4.2274    0.0000 H   0  0  0  0  0  0  0  0  0  0  0  0
    9.7466    5.7023    0.0000 H   0  0  0  0  0  0  0  0  0  0  0  0
    9.3481    6.3926    0.0000 H   0  0  0  0  0  0  0  0  0  0  0  0
   10.6127    4.2023    0.0000 H   0  0  0  0  0  0  0  0  0  0  0  0
   10.2141    4.8926    0.0000 H   0  0  0  0  0  0  0  0  0  0  0  0
    9.6730    7.5000    0.0000 H   0  0  0  0  0  0  0  0  0  0  0  0
   10.3312    1.5000    0.0000 H   0  0  0  0  0  0  0  0  0  0  0  0
    6.8671    9.1200    0.0000 H   0  0  0  0  0  0  0  0  0  0  0  0
   13.1371    3.1200    0.0000 H   0  0  0  0  0  0  0  0  0  0  0  0
    9.6730    9.1200    0.0000 H   0  0  0  0  0  0  0  0  0  0  0  0
   11.7341    0.6900    0.0000 H   0  0  0  0  0  0  0  0  0  0  0  0
    2.6675    6.6355    0.0000 H   0  0  0  0  0  0  0  0  0  0  0  0
    1.8705    6.6355    0.0000 H   0  0  0  0  0  0  0  0  0  0  0  0
    2.7365    5.1856    0.0000 H   0  0  0  0  0  0  0  0  0  0  0  0
    3.5335    5.1856    0.0000 H   0  0  0  0  0  0  0  0  0  0  0  0
    9.1360   11.4300    0.0000 H   0  0  0  0  0  0  0  0  0  0  0  0
    9.6730   10.5000    0.0000 H   0  0  0  0  0  0  0  0  0  0  0  0
   14.0031    0.0000    0.0000 H   0  0  0  0  0  0  0  0  0  0  0  0
   12.9292    0.0000    0.0000 H   0  0  0  0  0  0  0  0  0  0  0  0
    7.4040   11.4300    0.0000 H   0  0  0  0  0  0  0  0  0  0  0  0
   14.8691    1.5000    0.0000 H   0  0  0  0  0  0  0  0  0  0  0  0
    0.0000    5.4705    0.0000 H   0  0  0  0  0  0  0  0  0  0  0  0
    4.5380    5.8505    0.0000 H   0  0  0  0  0  0  0  0  0  0  0  0
  1 19  1  0  0  0  0
  2 20  1  0  0  0  0
  3  6  1  0  0  0  0
  3  8  2  0  0  0  0
  3  9  2  0  0  0  0
  3 31  1  0  0  0  0
  4 15  1  0  0  0  0
  4 17  1  0  0  0  0
  5 16  1  0  0  0  0
  5 18  1  0  0  0  0
  6 55  1  0  0  0  0
  7 32  1  0  0  0  0
  7 56  1  0  0  0  0
 10 29  1  0  0  0  0
 10 49  1  0  0  0  0
 10 50  1  0  0  0  0
 11 30  1  0  0  0  0
 11 51  1  0  0  0  0
 11 52  1  0  0  0  0
 12 29  2  0  0  0  0
 12 53  1  0  0  0  0
 13 30  2  0  0  0  0
 13 54  1  0  0  0  0
 14 15  1  0  0  0  0
 14 16  1  0  0  0  0
 14 33  1  0  0  0  0
 14 34  1  0  0  0  0
 15 35  1  0  0  0  0
 15 36  1  0  0  0  0
 16 37  1  0  0  0  0
 16 38  1  0  0  0  0
 17 19  2  0  0  0  0
 17 21  1  0  0  0  0
 18 20  2  0  0  0  0
 18 22  1  0  0  0  0
 19 25  1  0  0  0  0
 20 26  1  0  0  0  0
 21 27  2  0  0  0  0
 21 39  1  0  0  0  0
 22 28  2  0  0  0  0
 22 40  1  0  0  0  0
 23 25  2  0  0  0  0
 23 27  1  0  0  0  0
 23 29  1  0  0  0  0
 24 26  2  0  0  0  0
 24 28  1  0  0  0  0
 24 30  1  0  0  0  0
 25 41  1  0  0  0  0
 26 42  1  0  0  0  0
 27 43  1  0  0  0  0
 28 44  1  0  0  0  0
 31 32  1  0  0  0  0
 31 45  1  0  0  0  0
 31 46  1  0  0  0  0
 32 47  1  0  0  0  0
 32 48  1  0  0  0  0
M  END
> <PUBCHEM_COMPOUND_CID>
11973

> <PUBCHEM_COMPOUND_CANONICALIZED>
1

> <PUBCHEM_CACTVS_COMPLEXITY>
543

> <PUBCHEM_CACTVS_HBOND_ACCEPTOR>
8

> <PUBCHEM_CACTVS_HBOND_DONOR>
6

> <PUBCHEM_CACTVS_ROTATABLE_BOND>
10

> <PUBCHEM_CACTVS_SUBSKEYS>
AAADceB7uABAGAAAAAAAAAAAAAAAAAAAAAAwYAAAAAAAAAABQAAAHgRQCAABrASl2AKxBoBABoKgAiJiIHDCCACgIAQIiAAmDLgMNqKEsRuCOCDlwBEIqheQ0AAOIAAAEAAABABAAAAgAAAIAAAAAAAAAA==

> <PUBCHEM_IUPAC_OPENEYE_NAME>
3-bromo-4-[3-(2-bromo-4-carbamimidoyl-phenoxy)propoxy]benzamidine; 2-hydroxyethanesulfonic acid

> <PUBCHEM_IUPAC_CAS_NAME>
3-bromo-4-[3-(2-bromo-4-carbamimidoylphenoxy)propoxy]benzenecarboximidamide; 2-hydroxyethanesulfonic acid

> <PUBCHEM_IUPAC_NAME>
3-bromo-4-[3-(2-bromo-4-carbamimidoylphenoxy)propoxy]benzenecarboximidamide; 2-hydroxyethanesulfonic acid

> <PUBCHEM_IUPAC_SYSTEMATIC_NAME>
3-bromanyl-4-[3-(2-bromanyl-4-carbamimidoyl-phenoxy)propoxy]benzenecarboximidamide; 2-oxidanylethanesulfonic acid

> <PUBCHEM_IUPAC_TRADITIONAL_NAME>
4-[3-(4-amidino-2-bromo-phenoxy)propoxy]-3-bromo-benzamidine; 2-hydroxyethanesulfonic acid

> <PUBCHEM_IUPAC_INCHI>
InChI=1S/C17H18Br2N4O2.C2H6O4S/c18-12-8-10(16(20)21)2-4-14(12)24-6-1-7-25-15-5-3-11(17(22)23)9-13(15)19;3-1-2-7(4,5)6/h2-5,8-9H,1,6-7H2,(H3,20,21)(H3,22,23);3H,1-2H2,(H,4,5,6)

> <PUBCHEM_IUPAC_INCHIKEY>
BZACJASHKPPTKX-UHFFFAOYSA-N

> <PUBCHEM_EXACT_MASS>
595.976283

> <PUBCHEM_MOLECULAR_FORMULA>
C19H24Br2N4O6S

> <PUBCHEM_MOLECULAR_WEIGHT>
596.29006

> <PUBCHEM_OPENEYE_CAN_SMILES>
C1=CC(=C(C=C1C(=N)N)Br)OCCCOC2=C(C=C(C=C2)C(=N)N)Br.C(CS(=O)(=O)O)O

> <PUBCHEM_OPENEYE_ISO_SMILES>
C1=CC(=C(C=C1C(=N)N)Br)OCCCOC2=C(C=C(C=C2)C(=N)N)Br.C(CS(=O)(=O)O)O

> <PUBCHEM_CACTVS_TPSA>
201

> <PUBCHEM_MONOISOTOPIC_WEIGHT>
593.97833

> <PUBCHEM_TOTAL_CHARGE>
0

> <PUBCHEM_HEAVY_ATOM_COUNT>
32

> <PUBCHEM_ATOM_DEF_STEREO_COUNT>
0

> <PUBCHEM_ATOM_UDEF_STEREO_COUNT>
0

> <PUBCHEM_BOND_DEF_STEREO_COUNT>
0

> <PUBCHEM_BOND_UDEF_STEREO_COUNT>
0

> <PUBCHEM_ISOTOPIC_ATOM_COUNT>
0

> <PUBCHEM_COMPONENT_COUNT>
2

> <PUBCHEM_CACTVS_TAUTO_COUNT>
1

> <PUBCHEM_COORDINATE_TYPE>
1
5
255

> <PUBCHEM_BONDANNOTATIONS>
17  19  8
17  21  8
18  20  8
18  22  8
19  25  8
20  26  8
21  27  8
22  28  8
23  25  8
23  27  8
24  26  8
24  28  8

$$$$

