5281916
  -OEChem-07051213013D

 28 29  0     0  0  0  0  0  0999 V2000
   -0.8847    2.2421    0.1404 O   0  0  0  0  0  0  0  0  0  0  0  0
    3.9457    1.5053   -0.5360 O   0  0  0  0  0  0  0  0  0  0  0  0
    6.0294    0.1750    0.1580 O   0  0  0  0  0  0  0  0  0  0  0  0
    4.7402   -1.6233    0.7318 O   0  0  0  0  0  0  0  0  0  0  0  0
   -2.4772    0.4432    0.0551 C   0  0  0  0  0  0  0  0  0  0  0  0
   -2.7350   -0.9373   -0.1201 C   0  0  0  0  0  0  0  0  0  0  0  0
   -1.1552    0.9104   -0.0236 C   0  0  0  0  0  0  0  0  0  0  0  0
   -0.1023    0.0291   -0.2711 C   0  0  0  0  0  0  0  0  0  0  0  0
   -1.6631   -1.8099   -0.3688 C   0  0  0  0  0  0  0  0  0  0  0  0
   -0.3558   -1.3285   -0.4434 C   0  0  0  0  0  0  0  0  0  0  0  0
   -3.5491    1.3158    0.3038 C   0  0  0  0  0  0  0  0  0  0  0  0
   -4.0571   -1.4046   -0.0415 C   0  0  0  0  0  0  0  0  0  0  0  0
   -4.8564    0.8343    0.3786 C   0  0  0  0  0  0  0  0  0  0  0  0
   -5.1099   -0.5233    0.2064 C   0  0  0  0  0  0  0  0  0  0  0  0
    1.2742    0.5000   -0.3553 C   0  0  0  0  0  0  0  0  0  0  0  0
    2.3634   -0.2152   -0.0026 C   0  0  0  0  0  0  0  0  0  0  0  0
    3.7179    0.3788   -0.1238 C   0  0  0  0  0  0  0  0  0  0  0  0
    4.8750   -0.4918    0.3122 C   0  0  0  0  0  0  0  0  0  0  0  0
   -1.8389   -2.8743   -0.5108 H   0  0  0  0  0  0  0  0  0  0  0  0
    0.4344   -2.0435   -0.6575 H   0  0  0  0  0  0  0  0  0  0  0  0
   -3.4127    2.3862    0.4292 H   0  0  0  0  0  0  0  0  0  0  0  0
   -4.2786   -2.4616   -0.1732 H   0  0  0  0  0  0  0  0  0  0  0  0
   -5.6774    1.5199    0.5676 H   0  0  0  0  0  0  0  0  0  0  0  0
   -6.1280   -0.8973    0.2638 H   0  0  0  0  0  0  0  0  0  0  0  0
    1.4021    1.5135   -0.7286 H   0  0  0  0  0  0  0  0  0  0  0  0
    2.2881   -1.2203    0.3956 H   0  0  0  0  0  0  0  0  0  0  0  0
   -1.5040    2.6294    0.7790 H   0  0  0  0  0  0  0  0  0  0  0  0
    6.8056   -0.3594    0.4301 H   0  0  0  0  0  0  0  0  0  0  0  0
  1  7  1  0  0  0  0
  1 27  1  0  0  0  0
  2 17  2  0  0  0  0
  3 18  1  0  0  0  0
  3 28  1  0  0  0  0
  4 18  2  0  0  0  0
  5  6  1  0  0  0  0
  5  7  1  0  0  0  0
  5 11  2  0  0  0  0
  6  9  1  0  0  0  0
  6 12  2  0  0  0  0
  7  8  2  0  0  0  0
  8 10  1  0  0  0  0
  8 15  1  0  0  0  0
  9 10  2  0  0  0  0
  9 19  1  0  0  0  0
 10 20  1  0  0  0  0
 11 13  1  0  0  0  0
 11 21  1  0  0  0  0
 12 14  1  0  0  0  0
 12 22  1  0  0  0  0
 13 14  2  0  0  0  0
 13 23  1  0  0  0  0
 14 24  1  0  0  0  0
 15 16  2  0  0  0  0
 15 25  1  0  0  0  0
 16 17  1  0  0  0  0
 16 26  1  0  0  0  0
 17 18  1  0  0  0  0
M  END
> <PUBCHEM_COMPOUND_CID>
5281916

> <PUBCHEM_CONFORMER_RMSD>
0.6

> <PUBCHEM_CONFORMER_DIVERSEORDER>
1
6
4
7
2
5
3
8

> <PUBCHEM_MMFF94_PARTIAL_CHARGES>
26
1 -0.53
10 -0.15
11 -0.15
12 -0.15
13 -0.15
14 -0.15
15 -0.18
16 -0.14
17 0.56
18 0.72
19 0.15
2 -0.57
20 0.15
21 0.15
22 0.15
23 0.15
24 0.15
25 0.15
26 0.15
27 0.45
28 0.5
3 -0.65
4 -0.57
7 0.08
8 0.03
9 -0.15

> <PUBCHEM_EFFECTIVE_ROTOR_COUNT>
3

> <PUBCHEM_PHARMACOPHORE_FEATURES>
7
1 1 donor
1 2 acceptor
1 3 acceptor
1 4 acceptor
3 3 4 18 anion
6 5 6 11 12 13 14 rings
6 5 6 7 8 9 10 rings

> <PUBCHEM_HEAVY_ATOM_COUNT>
18

> <PUBCHEM_ATOM_DEF_STEREO_COUNT>
0

> <PUBCHEM_ATOM_UDEF_STEREO_COUNT>
0

> <PUBCHEM_BOND_DEF_STEREO_COUNT>
1

> <PUBCHEM_BOND_UDEF_STEREO_COUNT>
0

> <PUBCHEM_ISOTOPIC_ATOM_COUNT>
0

> <PUBCHEM_COMPONENT_COUNT>
1

> <PUBCHEM_CACTVS_TAUTO_COUNT>
5

> <PUBCHEM_CONFORMER_ID>
0050987C00000001

> <PUBCHEM_MMFF94_ENERGY>
53.8833

> <PUBCHEM_FEATURE_SELFOVERLAP>
35.615

> <PUBCHEM_SHAPE_FINGERPRINT>
11315181 36 18409446968801271960
12107183 9 17692254449228642480
12119455 92 16950002538776604015
12236239 1 18131632279047065060
13140716 1 18118956989544962451
13167823 11 18343022198676097234
13214271 11 18259704502079386477
13288520 33 18409446985754099343
13533116 47 18131073770607130826
13551218 46 18339644550321512754
13862211 1 18335985277398942407
14341114 176 18410853291871355770
14420673 8 17977664535422914130
15042514 8 18264767662963474527
15048467 5 6194566580806151803
15196674 1 18410292484420832477
17804303 29 18260547784279393513
1813 80 17275098475009502134
19489759 90 17240199949925894979
200 152 18272373070142514408
21267235 1 18411973650611191958
2297311 6 18187353347048109716
23175994 123 15051728690412341087
23366157 5 17982174413569609525
23402539 116 18187370917606142095
23559900 14 18333452015461650376
26918003 58 17846497019463768362
3004659 81 18412822495848395388
335352 9 18409449168489068533
3545911 37 18408322194745345588
42 15 18343020003974111182
4214541 1 18410856568303765612
474 4 17487892299093690068
5104073 3 18409446955752678024
5374978 207 18408326566800643408
542803 24 17561360677991752948
559249 180 18342745164400223458
573450 72 18410298007754186411
77779 3 18411981347514079918
9709674 26 18409160026484648550

> <PUBCHEM_SHAPE_MULTIPOLES>
346.95
12.12
1.75
0.69
11.25
0.05
0
-0.67
1.96
-0.69
-0.01
0.1
-0.05
-0.69

> <PUBCHEM_SHAPE_SELFOVERLAP>
756.695

> <PUBCHEM_SHAPE_VOLUME>
188

> <PUBCHEM_COORDINATE_TYPE>
2
5
10

$$$$

