37464
  -OEChem-07051212533D

 50 51  0     1  0  0  0  0  0999 V2000
   -0.1434   -0.6152    0.1628 O   0  0  0  0  0  0  0  0  0  0  0  0
   -0.7840    1.5115    1.8850 O   0  0  0  0  0  0  0  0  0  0  0  0
   -3.6636   -0.2732    0.4001 N   0  0  0  0  0  0  0  0  0  0  0  0
    2.1930    1.0028   -0.2197 C   0  0  0  0  0  0  0  0  0  0  0  0
    3.0374    1.6576    0.8881 C   0  0  0  0  0  0  0  0  0  0  0  0
    2.7062    1.6028   -1.5452 C   0  0  0  0  0  0  0  0  0  0  0  0
    3.6204    2.9055    0.2426 C   0  0  0  0  0  0  0  0  0  0  0  0
    3.9184    2.4499   -1.1749 C   0  0  0  0  0  0  0  0  0  0  0  0
    2.2296   -0.5080   -0.1592 C   0  0  0  0  0  0  0  0  0  0  0  0
    1.0647   -1.2454    0.0284 C   0  0  0  0  0  0  0  0  0  0  0  0
    3.4518   -1.1665   -0.2943 C   0  0  0  0  0  0  0  0  0  0  0  0
   -4.6037    0.1097   -0.6585 C   0  0  0  0  0  0  0  0  0  0  0  0
   -1.6738    0.4058    1.7059 C   0  0  1  0  0  0  0  0  0  0  0  0
   -2.6763    0.7723    0.6091 C   0  0  0  0  0  0  0  0  0  0  0  0
   -0.8493   -0.8376    1.3797 C   0  0  0  0  0  0  0  0  0  0  0  0
    1.1102   -2.6353    0.0823 C   0  0  0  0  0  0  0  0  0  0  0  0
    3.5032   -2.5594   -0.2409 C   0  0  0  0  0  0  0  0  0  0  0  0
   -3.8346    0.3301   -1.9665 C   0  0  0  0  0  0  0  0  0  0  0  0
   -5.3107    1.4029   -0.2390 C   0  0  0  0  0  0  0  0  0  0  0  0
   -5.6279   -1.0166   -0.8333 C   0  0  0  0  0  0  0  0  0  0  0  0
    2.3324   -3.2938   -0.0526 C   0  0  0  0  0  0  0  0  0  0  0  0
    1.1618    1.3556   -0.0987 H   0  0  0  0  0  0  0  0  0  0  0  0
    2.4293    1.9035    1.7654 H   0  0  0  0  0  0  0  0  0  0  0  0
    3.8538    1.0149    1.2372 H   0  0  0  0  0  0  0  0  0  0  0  0
    2.9525    0.8578   -2.3088 H   0  0  0  0  0  0  0  0  0  0  0  0
    1.9296    2.2517   -1.9700 H   0  0  0  0  0  0  0  0  0  0  0  0
    2.8783    3.7126    0.2364 H   0  0  0  0  0  0  0  0  0  0  0  0
    4.5136    3.2636    0.7622 H   0  0  0  0  0  0  0  0  0  0  0  0
    4.8270    1.8369   -1.1927 H   0  0  0  0  0  0  0  0  0  0  0  0
    4.0614    3.2896   -1.8611 H   0  0  0  0  0  0  0  0  0  0  0  0
    4.3754   -0.6156   -0.4486 H   0  0  0  0  0  0  0  0  0  0  0  0
   -2.1950    0.2478    2.6577 H   0  0  0  0  0  0  0  0  0  0  0  0
   -2.0998    1.0113   -0.2902 H   0  0  0  0  0  0  0  0  0  0  0  0
   -3.1396    1.7088    0.9369 H   0  0  0  0  0  0  0  0  0  0  0  0
   -0.1360   -1.0042    2.1981 H   0  0  0  0  0  0  0  0  0  0  0  0
   -1.4774   -1.7291    1.2842 H   0  0  0  0  0  0  0  0  0  0  0  0
   -3.2013   -1.1433    0.1402 H   0  0  0  0  0  0  0  0  0  0  0  0
    0.2053   -3.2205    0.2190 H   0  0  0  0  0  0  0  0  0  0  0  0
    4.4544   -3.0724   -0.3480 H   0  0  0  0  0  0  0  0  0  0  0  0
   -3.2567    1.2598   -1.9852 H   0  0  0  0  0  0  0  0  0  0  0  0
   -4.5350    0.3986   -2.8084 H   0  0  0  0  0  0  0  0  0  0  0  0
   -3.1580   -0.5044   -2.1858 H   0  0  0  0  0  0  0  0  0  0  0  0
   -6.1736    1.5887   -0.8910 H   0  0  0  0  0  0  0  0  0  0  0  0
   -5.6977    1.3413    0.7852 H   0  0  0  0  0  0  0  0  0  0  0  0
   -4.6809    2.2950   -0.3213 H   0  0  0  0  0  0  0  0  0  0  0  0
   -5.1437   -1.9557   -1.1256 H   0  0  0  0  0  0  0  0  0  0  0  0
   -6.3612   -0.7685   -1.6091 H   0  0  0  0  0  0  0  0  0  0  0  0
   -6.1802   -1.2010    0.0957 H   0  0  0  0  0  0  0  0  0  0  0  0
    2.3722   -4.3785   -0.0135 H   0  0  0  0  0  0  0  0  0  0  0  0
   -1.3175    2.2777    2.1568 H   0  0  0  0  0  0  0  0  0  0  0  0
  1 10  1  0  0  0  0
  1 15  1  0  0  0  0
  2 13  1  0  0  0  0
  2 50  1  0  0  0  0
  3 12  1  0  0  0  0
  3 14  1  0  0  0  0
  3 37  1  0  0  0  0
  4  5  1  0  0  0  0
  4  6  1  0  0  0  0
  4  9  1  0  0  0  0
  4 22  1  0  0  0  0
  5  7  1  0  0  0  0
  5 23  1  0  0  0  0
  5 24  1  0  0  0  0
  6  8  1  0  0  0  0
  6 25  1  0  0  0  0
  6 26  1  0  0  0  0
  7  8  1  0  0  0  0
  7 27  1  0  0  0  0
  7 28  1  0  0  0  0
  8 29  1  0  0  0  0
  8 30  1  0  0  0  0
  9 10  1  0  0  0  0
  9 11  2  0  0  0  0
 10 16  2  0  0  0  0
 11 17  1  0  0  0  0
 11 31  1  0  0  0  0
 12 18  1  0  0  0  0
 12 19  1  0  0  0  0
 12 20  1  0  0  0  0
 13 14  1  0  0  0  0
 13 15  1  0  0  0  0
 13 32  1  0  0  0  0
 14 33  1  0  0  0  0
 14 34  1  0  0  0  0
 15 35  1  0  0  0  0
 15 36  1  0  0  0  0
 16 21  1  0  0  0  0
 16 38  1  0  0  0  0
 17 21  2  0  0  0  0
 17 39  1  0  0  0  0
 18 40  1  0  0  0  0
 18 41  1  0  0  0  0
 18 42  1  0  0  0  0
 19 43  1  0  0  0  0
 19 44  1  0  0  0  0
 19 45  1  0  0  0  0
 20 46  1  0  0  0  0
 20 47  1  0  0  0  0
 20 48  1  0  0  0  0
 21 49  1  0  0  0  0
M  END
> <PUBCHEM_COMPOUND_CID>
37464

> <PUBCHEM_CONFORMER_RMSD>
0.8

> <PUBCHEM_CONFORMER_DIVERSEORDER>
1
114
84
110
57
77
24
56
153
39
164
6
137
93
63
41
165
16
90
47
70
23
159
38
170
46
167
168
85
66
111
156
92
145
54
161
158
157
131
49
69
116
4
132
89
112
95
148
53
79
87
76
82
30
115
151
62
60
31
55
28
44
37
11
152
113
5
150
140
72
127
123
134
117
13
48
101
108
144
18
171
71
9
22
78
135
160
86
155
61
36
99
17
98
122
3
109
29
20
8
139
73
118
81
149
80
10
138
45
15
68
32
14
147
102
173
50
12
25
126
136
125
58
104
59
146
27
124
51
154
2
91
19
107
26
174
142
7
128
34
35
100
40
74
105
121
96
141
33
97
143
21
106
130
172
88
120
65
166
64
52
67
83
169
119
43
133
94
42
129
75
162
163
103

> <PUBCHEM_MMFF94_PARTIAL_CHARGES>
20
1 -0.36
10 0.08
11 -0.15
12 0.27
13 0.28
14 0.27
15 0.28
16 -0.15
17 -0.15
2 -0.68
21 -0.15
3 -0.9
31 0.15
37 0.36
38 0.15
39 0.15
4 0.14
49 0.15
50 0.4
9 -0.14

> <PUBCHEM_EFFECTIVE_ROTOR_COUNT>
8

> <PUBCHEM_PHARMACOPHORE_FEATURES>
8
1 1 acceptor
1 2 acceptor
1 2 donor
1 3 cation
1 3 donor
4 12 18 19 20 hydrophobe
5 4 5 6 7 8 rings
6 9 10 11 16 17 21 rings

> <PUBCHEM_HEAVY_ATOM_COUNT>
21

> <PUBCHEM_ATOM_DEF_STEREO_COUNT>
1

> <PUBCHEM_ATOM_UDEF_STEREO_COUNT>
0

> <PUBCHEM_BOND_DEF_STEREO_COUNT>
0

> <PUBCHEM_BOND_UDEF_STEREO_COUNT>
0

> <PUBCHEM_ISOTOPIC_ATOM_COUNT>
0

> <PUBCHEM_COMPONENT_COUNT>
1

> <PUBCHEM_CACTVS_TAUTO_COUNT>
1

> <PUBCHEM_CONFORMER_ID>
0000925800000001

> <PUBCHEM_MMFF94_ENERGY>
55.2311

> <PUBCHEM_FEATURE_SELFOVERLAP>
40.598

> <PUBCHEM_SHAPE_FINGERPRINT>
10498660 4 18193545680223824664
10759866 29 18261395511981763519
11140007 195 14476698437128281272
11582403 64 17700994157693737984
11725454 13 17631465483285920985
12403259 415 17845638309825824851
12616971 3 18115296891139436259
12633257 1 14978844160551720724
12730499 353 18340476773322903259
12788726 201 17168132469316526241
13009979 54 17533491489854227746
13134695 92 18127123298227008606
13583140 156 17489584567230755859
13726171 33 17023455331983012721
13911987 19 18123737665232834869
14251764 38 17988931088811118485
14957384 54 17842558436260594644
15537594 2 17749673979105543615
15842332 3 17751057310086739657
15961568 22 17203042976535943445
17134986 127 18196922289454877364
17959699 21 18340769346991303681
17980427 23 17970628704328091066
18186145 218 17846497084421008259
18222031 100 18192147320883054314
18681886 176 18187652448381270618
192875 21 18263078967294077042
200 152 18188493600466805515
20642791 105 17906458719140100642
20645477 70 18342737429169209794
21304303 282 17537181159283218822
21639500 275 18411410735196766242
22393880 68 18261947470833721327
23419403 2 14976629911578744898
235170 7 18130799945008969533
23557571 272 17202463564431324531
23559900 14 18336831982250047978
238 59 18334564725154454042
25147074 1 17896303878532324753
3004659 81 18188215419909391359
312423 11 17968084374196747715
341906 21 15482670178365065391
43658 37 18338235947113709880
46194498 28 18271248326141258631
469060 322 17766548063492398107
474 4 18342458110355693926
495365 180 18412545392726340368
5281201 14 18271527602004808789
6327066 14 18055070952686985892
7471813 234 18115028644429842976
7615 1 17969210304047023009

> <PUBCHEM_SHAPE_MULTIPOLES>
415.45
10.7
3.32
1.48
14.97
0.99
0.08
-2.94
-3.89
-5.51
-0.26
0.79
-0.63
-0.4

> <PUBCHEM_SHAPE_SELFOVERLAP>
847.721

> <PUBCHEM_SHAPE_VOLUME>
243.8

> <PUBCHEM_COORDINATE_TYPE>
2
5
10

$$$$

