439905
  -OEChem-07051212482D

 26 26  0     1  0  0  0  0  0999 V2000
    7.1399    1.4213    0.0000 P   0  0  0  0  0  0  0  0  0  0  0  0
    4.2208    0.4129    0.0000 O   0  0  0  0  0  0  0  0  0  0  0  0
    5.3086   -1.9349    0.0000 O   0  0  0  0  0  0  0  0  0  0  0  0
    3.1330   -1.9349    0.0000 O   0  0  0  0  0  0  0  0  0  0  0  0
    6.1888    1.1123    0.0000 O   0  0  0  0  0  0  0  0  0  0  0  0
    8.0909    1.7304    0.0000 O   0  0  0  0  0  0  0  0  0  0  0  0
    6.8308    2.3724    0.0000 O   0  0  0  0  0  0  0  0  0  0  0  0
    7.4489    0.4703    0.0000 O   0  0  0  0  0  0  0  0  0  0  0  0
    2.4608    0.1342    0.0000 N   0  0  0  0  0  0  0  0  0  0  0  0
    4.7208   -1.1259    0.0000 C   0  0  2  0  0  0  0  0  0  0  0  0
    5.0298   -0.1748    0.0000 C   0  0  1  0  0  0  0  0  0  0  0  0
    3.7208   -1.1259    0.0000 C   0  0  2  0  0  0  0  0  0  0  0  0
    3.4118   -0.1748    0.0000 C   0  0  1  0  0  0  0  0  0  0  0  0
    5.9809    0.1342    0.0000 C   0  0  0  0  0  0  0  0  0  0  0  0
    4.4394   -1.6783    0.0000 H   0  0  0  0  0  0  0  0  0  0  0  0
    5.1268    0.4375    0.0000 H   0  0  0  0  0  0  0  0  0  0  0  0
    3.1085   -1.0289    0.0000 H   0  0  0  0  0  0  0  0  0  0  0  0
    3.3148    0.4375    0.0000 H   0  0  0  0  0  0  0  0  0  0  0  0
    6.0672   -0.4798    0.0000 H   0  0  0  0  0  0  0  0  0  0  0  0
    6.6005    0.1125    0.0000 H   0  0  0  0  0  0  0  0  0  0  0  0
    2.3318    0.7406    0.0000 H   0  0  0  0  0  0  0  0  0  0  0  0
    2.0000   -0.2807    0.0000 H   0  0  0  0  0  0  0  0  0  0  0  0
    5.9252   -1.8701    0.0000 H   0  0  0  0  0  0  0  0  0  0  0  0
    3.3852   -2.5013    0.0000 H   0  0  0  0  0  0  0  0  0  0  0  0
    8.2198    2.3368    0.0000 H   0  0  0  0  0  0  0  0  0  0  0  0
    6.2244    2.5013    0.0000 H   0  0  0  0  0  0  0  0  0  0  0  0
  1  5  1  0  0  0  0
  1  6  1  0  0  0  0
  1  7  1  0  0  0  0
  1  8  2  0  0  0  0
  2 11  1  0  0  0  0
  2 13  1  0  0  0  0
 10  3  1  1  0  0  0
  3 23  1  0  0  0  0
 12  4  1  1  0  0  0
  4 24  1  0  0  0  0
  5 14  1  0  0  0  0
  6 25  1  0  0  0  0
  7 26  1  0  0  0  0
 13  9  1  6  0  0  0
  9 21  1  0  0  0  0
  9 22  1  0  0  0  0
 10 11  1  0  0  0  0
 10 12  1  0  0  0  0
 10 15  1  0  0  0  0
 11 14  1  6  0  0  0
 11 16  1  0  0  0  0
 12 13  1  0  0  0  0
 12 17  1  0  0  0  0
 13 18  1  0  0  0  0
 14 19  1  0  0  0  0
 14 20  1  0  0  0  0
M  END
> <PUBCHEM_COMPOUND_CID>
439905

> <PUBCHEM_COMPOUND_CANONICALIZED>
1

> <PUBCHEM_CACTVS_COMPLEXITY>
242

> <PUBCHEM_CACTVS_HBOND_ACCEPTOR>
8

> <PUBCHEM_CACTVS_HBOND_DONOR>
5

> <PUBCHEM_CACTVS_ROTATABLE_BOND>
3

> <PUBCHEM_CACTVS_SUBSKEYS>
AAADccBiOAIAAAAAAAAAAAAAAAAAASAAAAAAAAAAAAAAAAAAAAAAHgAQCCAACBThgAYAAABABxAAQAAAAIAAAAAAAAAAAIAAAAEDEAIAgAAKQAAHEAADAADwMAAAAAAAAAAAAAAAAAAAAAAAAAAAAAAAAA==

> <PUBCHEM_IUPAC_OPENEYE_NAME>
[(2R,3S,4R,5R)-5-amino-3,4-dihydroxy-tetrahydrofuran-2-yl]methyl dihydrogen phosphate

> <PUBCHEM_IUPAC_CAS_NAME>
[(2R,3S,4R,5R)-5-amino-3,4-dihydroxy-2-oxolanyl]methyl dihydrogen phosphate

> <PUBCHEM_IUPAC_NAME>
[(2R,3S,4R,5R)-5-amino-3,4-dihydroxyoxolan-2-yl]methyl dihydrogen phosphate

> <PUBCHEM_IUPAC_SYSTEMATIC_NAME>
[(2R,3S,4R,5R)-5-azanyl-3,4-bis(oxidanyl)oxolan-2-yl]methyl dihydrogen phosphate

> <PUBCHEM_IUPAC_TRADITIONAL_NAME>
[(2R,3S,4R,5R)-5-amino-3,4-dihydroxy-tetrahydrofuran-2-yl]methyl dihydrogen phosphate

> <PUBCHEM_IUPAC_INCHI>
InChI=1S/C5H12NO7P/c6-5-4(8)3(7)2(13-5)1-12-14(9,10)11/h2-5,7-8H,1,6H2,(H2,9,10,11)/t2-,3-,4-,5-/m1/s1

> <PUBCHEM_IUPAC_INCHIKEY>
SKCBPEVYGOQGJN-TXICZTDVSA-N

> <PUBCHEM_XLOGP3_AA>
-6.2

> <PUBCHEM_EXACT_MASS>
229.035138

> <PUBCHEM_MOLECULAR_FORMULA>
C5H12NO7P

> <PUBCHEM_MOLECULAR_WEIGHT>
229.125042

> <PUBCHEM_OPENEYE_CAN_SMILES>
C(C1C(C(C(O1)N)O)O)OP(=O)(O)O

> <PUBCHEM_OPENEYE_ISO_SMILES>
C([C@@H]1[C@H]([C@H]([C@@H](O1)N)O)O)OP(=O)(O)O

> <PUBCHEM_CACTVS_TPSA>
143

> <PUBCHEM_MONOISOTOPIC_WEIGHT>
229.035138

> <PUBCHEM_TOTAL_CHARGE>
0

> <PUBCHEM_HEAVY_ATOM_COUNT>
14

> <PUBCHEM_ATOM_DEF_STEREO_COUNT>
4

> <PUBCHEM_ATOM_UDEF_STEREO_COUNT>
0

> <PUBCHEM_BOND_DEF_STEREO_COUNT>
0

> <PUBCHEM_BOND_UDEF_STEREO_COUNT>
0

> <PUBCHEM_ISOTOPIC_ATOM_COUNT>
0

> <PUBCHEM_COMPONENT_COUNT>
1

> <PUBCHEM_CACTVS_TAUTO_COUNT>
1

> <PUBCHEM_COORDINATE_TYPE>
1
5
255

> <PUBCHEM_BONDANNOTATIONS>
11  14  6
10  3  5
12  4  5
13  9  6

$$$$

