173708
  -OEChem-07051213043D

 61 64  0     1  0  0  0  0  0999 V2000
    1.1438   -1.0372    3.1017 Cl  0  0  0  0  0  0  0  0  0  0  0  0
   -2.6461    0.0933    1.1262 O   0  0  0  0  0  0  0  0  0  0  0  0
    3.5408    1.8922    1.1069 O   0  0  0  0  0  0  0  0  0  0  0  0
   -2.1532    1.6763    2.7419 O   0  0  0  0  0  0  0  0  0  0  0  0
   -0.1676    2.9560   -1.0569 N   0  0  0  0  0  0  0  0  0  0  0  0
    3.3253    0.2366   -0.5540 N   0  0  0  0  0  0  0  0  0  0  0  0
   -6.2887   -0.8091    0.0188 N   0  0  0  0  0  0  0  0  0  0  0  0
    0.4410    0.9585    0.8599 C   0  0  1  0  0  0  0  0  0  0  0  0
    1.5012    1.6473   -0.0055 C   0  0  0  0  0  0  0  0  0  0  0  0
   -0.9507    1.5789    0.7017 C   0  0  0  0  0  0  0  0  0  0  0  0
    0.3892   -0.5071    0.5371 C   0  0  0  0  0  0  0  0  0  0  0  0
    1.1589    2.5778   -0.9253 C   0  0  0  0  0  0  0  0  0  0  0  0
   -1.1988    2.5121   -0.2449 C   0  0  0  0  0  0  0  0  0  0  0  0
    2.9032    1.2814    0.2539 C   0  0  0  0  0  0  0  0  0  0  0  0
   -1.9781    1.1434    1.6616 C   0  0  0  0  0  0  0  0  0  0  0  0
    2.1130    3.2758   -1.8566 C   0  0  0  0  0  0  0  0  0  0  0  0
   -2.5374    3.1445   -0.5152 C   0  0  0  0  0  0  0  0  0  0  0  0
    0.6921   -1.4711    1.4935 C   0  0  0  0  0  0  0  0  0  0  0  0
    0.0274   -0.8817   -0.7533 C   0  0  0  0  0  0  0  0  0  0  0  0
    0.6324   -2.8233    1.1561 C   0  0  0  0  0  0  0  0  0  0  0  0
   -0.0321   -2.2339   -1.0904 C   0  0  0  0  0  0  0  0  0  0  0  0
    0.2705   -3.2046   -0.1358 C   0  0  0  0  0  0  0  0  0  0  0  0
   -3.6867   -0.4465    1.9475 C   0  0  0  0  0  0  0  0  0  0  0  0
    4.6044   -0.3710   -0.5768 C   0  0  0  0  0  0  0  0  0  0  0  0
   -4.3542   -1.6157    1.2318 C   0  0  0  0  0  0  0  0  0  0  0  0
   -5.0048   -1.1989   -0.0649 C   0  0  0  0  0  0  0  0  0  0  0  0
    4.8436   -1.4107   -1.4594 C   0  0  0  0  0  0  0  0  0  0  0  0
    5.5873    0.0884    0.2833 C   0  0  0  0  0  0  0  0  0  0  0  0
    6.1034   -2.0091   -1.4824 C   0  0  0  0  0  0  0  0  0  0  0  0
    6.8471   -0.5099    0.2602 C   0  0  0  0  0  0  0  0  0  0  0  0
   -4.2603   -1.2434   -1.2230 C   0  0  0  0  0  0  0  0  0  0  0  0
    7.1051   -1.5587   -0.6226 C   0  0  0  0  0  0  0  0  0  0  0  0
   -4.8889   -0.8530   -2.4002 C   0  0  0  0  0  0  0  0  0  0  0  0
   -6.8662   -0.4369   -1.1456 C   0  0  0  0  0  0  0  0  0  0  0  0
   -6.2165   -0.4406   -2.3693 C   0  0  0  0  0  0  0  0  0  0  0  0
    0.7337    1.1622    1.8955 H   0  0  0  0  0  0  0  0  0  0  0  0
   -0.3893    3.6546   -1.7573 H   0  0  0  0  0  0  0  0  0  0  0  0
    3.1522    2.9648   -1.7186 H   0  0  0  0  0  0  0  0  0  0  0  0
    1.8429    3.0687   -2.8976 H   0  0  0  0  0  0  0  0  0  0  0  0
    2.0708    4.3589   -1.6982 H   0  0  0  0  0  0  0  0  0  0  0  0
   -2.8433    2.9526   -1.5493 H   0  0  0  0  0  0  0  0  0  0  0  0
   -3.3292    2.7635    0.1360 H   0  0  0  0  0  0  0  0  0  0  0  0
   -2.4805    4.2282   -0.3672 H   0  0  0  0  0  0  0  0  0  0  0  0
   -0.2152   -0.1505   -1.5190 H   0  0  0  0  0  0  0  0  0  0  0  0
    2.6599   -0.1450   -1.2227 H   0  0  0  0  0  0  0  0  0  0  0  0
    0.8650   -3.5923    1.8885 H   0  0  0  0  0  0  0  0  0  0  0  0
   -0.3150   -2.5310   -2.0961 H   0  0  0  0  0  0  0  0  0  0  0  0
    0.2238   -4.2574   -0.3985 H   0  0  0  0  0  0  0  0  0  0  0  0
   -4.4219    0.3389    2.1614 H   0  0  0  0  0  0  0  0  0  0  0  0
   -3.2537   -0.7986    2.8912 H   0  0  0  0  0  0  0  0  0  0  0  0
   -5.1126   -2.0601    1.8874 H   0  0  0  0  0  0  0  0  0  0  0  0
   -3.6143   -2.4001    1.0278 H   0  0  0  0  0  0  0  0  0  0  0  0
    4.0699   -1.7692   -2.1325 H   0  0  0  0  0  0  0  0  0  0  0  0
    5.4638    0.8929    0.9931 H   0  0  0  0  0  0  0  0  0  0  0  0
    6.3043   -2.8259   -2.1696 H   0  0  0  0  0  0  0  0  0  0  0  0
    7.6282   -0.1604    0.9292 H   0  0  0  0  0  0  0  0  0  0  0  0
   -3.2264   -1.5678   -1.2361 H   0  0  0  0  0  0  0  0  0  0  0  0
    8.0860   -2.0246   -0.6405 H   0  0  0  0  0  0  0  0  0  0  0  0
   -4.3450   -0.8699   -3.3399 H   0  0  0  0  0  0  0  0  0  0  0  0
   -7.9021   -0.1238   -1.0677 H   0  0  0  0  0  0  0  0  0  0  0  0
   -6.7264   -0.1319   -3.2746 H   0  0  0  0  0  0  0  0  0  0  0  0
  1 18  1  0  0  0  0
  2 15  1  0  0  0  0
  2 23  1  0  0  0  0
  3 14  2  0  0  0  0
  4 15  2  0  0  0  0
  5 12  1  0  0  0  0
  5 13  1  0  0  0  0
  5 37  1  0  0  0  0
  6 14  1  0  0  0  0
  6 24  1  0  0  0  0
  6 45  1  0  0  0  0
  7 26  1  0  0  0  0
  7 34  2  0  0  0  0
  8  9  1  0  0  0  0
  8 10  1  0  0  0  0
  8 11  1  0  0  0  0
  8 36  1  0  0  0  0
  9 12  2  0  0  0  0
  9 14  1  0  0  0  0
 10 13  2  0  0  0  0
 10 15  1  0  0  0  0
 11 18  1  0  0  0  0
 11 19  2  0  0  0  0
 12 16  1  0  0  0  0
 13 17  1  0  0  0  0
 16 38  1  0  0  0  0
 16 39  1  0  0  0  0
 16 40  1  0  0  0  0
 17 41  1  0  0  0  0
 17 42  1  0  0  0  0
 17 43  1  0  0  0  0
 18 20  2  0  0  0  0
 19 21  1  0  0  0  0
 19 44  1  0  0  0  0
 20 22  1  0  0  0  0
 20 46  1  0  0  0  0
 21 22  2  0  0  0  0
 21 47  1  0  0  0  0
 22 48  1  0  0  0  0
 23 25  1  0  0  0  0
 23 49  1  0  0  0  0
 23 50  1  0  0  0  0
 24 27  2  0  0  0  0
 24 28  1  0  0  0  0
 25 26  1  0  0  0  0
 25 51  1  0  0  0  0
 25 52  1  0  0  0  0
 26 31  2  0  0  0  0
 27 29  1  0  0  0  0
 27 53  1  0  0  0  0
 28 30  2  0  0  0  0
 28 54  1  0  0  0  0
 29 32  2  0  0  0  0
 29 55  1  0  0  0  0
 30 32  1  0  0  0  0
 30 56  1  0  0  0  0
 31 33  1  0  0  0  0
 31 57  1  0  0  0  0
 32 58  1  0  0  0  0
 33 35  2  0  0  0  0
 33 59  1  0  0  0  0
 34 35  1  0  0  0  0
 34 60  1  0  0  0  0
 35 61  1  0  0  0  0
M  END
> <PUBCHEM_COMPOUND_CID>
173708

> <PUBCHEM_CONFORMER_RMSD>
1

> <PUBCHEM_CONFORMER_DIVERSEORDER>
4
105
218
131
120
221
301
233
154
160
69
240
316
383
252
157
181
96
173
123
132
275
145
356
175
379
260
241
288
139
309
320
77
349
298
199
133
155
338
262
214
335
71
67
148
315
203
190
230
313
125
119
245
197
106
220
296
121
326
207
339
195
40
171
279
216
378
37
179
62
184
66
68
91
351
192
323
377
156
361
343
150
310
280
112
348
276
138
257
370
308
342
89
23
227
80
226
380
277
244
231
274
215
209
76
79
163
158
166
33
374
265
247
258
369
63
8
152
211
304
328
83
56
367
70
165
217
246
263
111
6
251
254
22
248
182
340
355
382
140
357
372
19
13
234
193
376
100
249
103
303
14
201
267
44
237
321
325
333
151
101
191
337
228
188
250
282
229
35
45
136
290
330
99
42
146
50
297
264
36
176
129
346
213
223
354
109
94
292
360
294
141
272
18
51
336
331
291
177
21
278
256
88
345
204
174
126
115
10
26
186
41
341
189
49
28
344
322
178
110
198
27
332
224
170
293
39
55
78
48
3
271
172
58
358
86
194
65
286
352
73
289
149
300
362
147
180
306
185
202
54
347
222
299
9
81
283
363
365
353
206
287
205
7
183
82
225
162
327
219
102
31
364
29
52
34
12
366
243
285
255
57
200
242
238
116
235
74
168
329
261
239
359
266
92
311
64
5
273
122
259
159
324
90
24
208
85
72
368
84
381
53
317
25
113
334
15
135
281
107
17
104
16
46
270
2
153
117
20
11
314
61
143
59
269
318
124
114
196
47
312
43
38
137
1
97
375
232
128
302
130
161
32
93
373
142
187
268
169
212
30
60
350
127
236
87
307
284
305
371
319
167
144
108
164
210
95
295
253
134
118
98
75

> <PUBCHEM_MMFF94_PARTIAL_CHARGES>
50
1 -0.18
10 -0.12
11 -0.14
12 -0.04
13 -0.04
14 0.62
15 0.71
16 0.14
17 0.14
18 0.18
19 -0.15
2 -0.43
20 -0.15
21 -0.15
22 -0.15
23 0.28
24 0.12
25 0.14
26 0.17
27 -0.15
28 -0.15
29 -0.15
3 -0.57
30 -0.15
31 -0.15
32 -0.15
33 -0.15
34 0.16
35 -0.15
37 0.4
4 -0.57
44 0.15
45 0.37
46 0.15
47 0.15
48 0.15
5 -0.6
53 0.15
54 0.15
55 0.15
56 0.15
57 0.15
58 0.15
59 0.15
6 -0.55
60 0.15
61 0.15
7 -0.62
8 0.42
9 -0.12

> <PUBCHEM_EFFECTIVE_ROTOR_COUNT>
9.4

> <PUBCHEM_PHARMACOPHORE_FEATURES>
10
1 3 acceptor
1 4 acceptor
1 5 cation
1 5 donor
1 6 donor
1 7 acceptor
6 11 18 19 20 21 22 rings
6 24 27 28 29 30 32 rings
6 5 8 9 10 12 13 rings
6 7 26 31 33 34 35 rings

> <PUBCHEM_HEAVY_ATOM_COUNT>
35

> <PUBCHEM_ATOM_DEF_STEREO_COUNT>
0

> <PUBCHEM_ATOM_UDEF_STEREO_COUNT>
1

> <PUBCHEM_BOND_DEF_STEREO_COUNT>
0

> <PUBCHEM_BOND_UDEF_STEREO_COUNT>
0

> <PUBCHEM_ISOTOPIC_ATOM_COUNT>
0

> <PUBCHEM_COMPONENT_COUNT>
1

> <PUBCHEM_CACTVS_TAUTO_COUNT>
14

> <PUBCHEM_CONFORMER_ID>
0002A68C00000004

> <PUBCHEM_MMFF94_ENERGY>
100.0186

> <PUBCHEM_FEATURE_SELFOVERLAP>
50.743

> <PUBCHEM_SHAPE_FINGERPRINT>
10190108 129 18339632434635099491
10483366 6 18412829109550113182
10930396 42 18269296611983218272
11578080 2 16198745946137100367
11607047 403 15868609591273978019
12422481 6 17895175732178341630
13782708 43 18188203317029187290
14068700 675 18040158413685817337
14747281 78 17132116866384419229
15420108 30 17827907748203586009
19311894 1 18265897952284799519
20028762 73 17822008713854992454
22393880 68 18339089296896621557
23536364 44 18131075956592529701
3380486 145 18053922215927281905
3459 83 18114463366362048055
6081469 158 17095251319947757637

> <PUBCHEM_SHAPE_MULTIPOLES>
689.6
15.03
3.52
2.32
2.72
1.81
0.75
-8.03
-7.97
0.85
-0.72
-1.87
-0.35
0

> <PUBCHEM_SHAPE_SELFOVERLAP>
1487.788

> <PUBCHEM_SHAPE_VOLUME>
378.6

> <PUBCHEM_COORDINATE_TYPE>
2
5
10

$$$$

