442746
  -OEChem-07051212592D

 51 54  0     1  0  0  0  0  0999 V2000
    6.3948   -0.7903    0.0000 O   0  0  0  0  0  0  0  0  0  0  0  0
    5.3352    2.0645    0.0000 O   0  0  0  0  0  0  0  0  0  0  0  0
    3.8229   -1.6454    0.0000 O   0  0  0  0  0  0  0  0  0  0  0  0
    5.2218   -2.6667    0.0000 O   0  0  0  0  0  0  0  0  0  0  0  0
    7.0906    2.6667    0.0000 O   0  0  0  0  0  0  0  0  0  0  0  0
    2.8027    1.6598    0.0000 N   0  0  3  0  0  0  0  0  0  0  0  0
    3.6117    1.0721    0.0000 C   0  0  2  0  0  0  0  0  0  0  0  0
    3.3021    0.1274    0.0000 C   0  0  2  0  0  0  0  0  0  0  0  0
    4.4207    1.6598    0.0000 C   0  0  1  0  0  0  0  0  0  0  0  0
    2.3080    0.1283    0.0000 C   0  0  0  0  0  0  0  0  0  0  0  0
    2.0000    1.0735    0.0000 C   0  0  0  0  0  0  0  0  0  0  0  0
    3.1117    2.6109    0.0000 C   0  0  0  0  0  0  0  0  0  0  0  0
    4.1117    2.6109    0.0000 C   0  0  0  0  0  0  0  0  0  0  0  0
    6.2406    0.1977    0.0000 C   0  0  2  0  0  0  0  0  0  0  0  0
    5.4068   -0.9445    0.0000 C   0  0  2  0  0  0  0  0  0  0  0  0
    4.7507   -0.2030    0.0000 C   0  0  3  0  0  0  0  0  0  0  0  0
    3.1953   -0.8668    0.0000 C   0  0  0  0  0  0  0  0  0  0  0  0
    5.3345    0.5966    0.0000 C   0  0  0  0  0  0  0  0  0  0  0  0
    6.8302    1.0054    0.0000 C   0  0  0  0  0  0  0  0  0  0  0  0
    4.8172   -1.7522    0.0000 C   0  0  0  0  0  0  0  0  0  0  0  0
    7.1558   -0.2052    0.0000 C   0  0  0  0  0  0  0  0  0  0  0  0
    6.4255    1.9199    0.0000 C   0  0  0  0  0  0  0  0  0  0  0  0
    6.0694   -1.6934    0.0000 C   0  0  0  0  0  0  0  0  0  0  0  0
    3.9090   -0.7430    0.0000 C   0  0  0  0  0  0  0  0  0  0  0  0
    4.2994    0.5724    0.0000 H   0  0  0  0  0  0  0  0  0  0  0  0
    4.1331   -0.0513    0.0000 H   0  0  0  0  0  0  0  0  0  0  0  0
    4.6834    0.8515    0.0000 H   0  0  0  0  0  0  0  0  0  0  0  0
    1.7016   -0.0008    0.0000 H   0  0  0  0  0  0  0  0  0  0  0  0
    2.3726   -0.4883    0.0000 H   0  0  0  0  0  0  0  0  0  0  0  0
    1.6889    1.6098    0.0000 H   0  0  0  0  0  0  0  0  0  0  0  0
    1.4340    0.8205    0.0000 H   0  0  0  0  0  0  0  0  0  0  0  0
    3.1765    3.2275    0.0000 H   0  0  0  0  0  0  0  0  0  0  0  0
    2.5053    2.7398    0.0000 H   0  0  0  0  0  0  0  0  0  0  0  0
    4.7182    2.7398    0.0000 H   0  0  0  0  0  0  0  0  0  0  0  0
    4.0469    3.2275    0.0000 H   0  0  0  0  0  0  0  0  0  0  0  0
    4.1680    0.4158    0.0000 H   0  0  0  0  0  0  0  0  0  0  0  0
    2.6170   -0.6434    0.0000 H   0  0  0  0  0  0  0  0  0  0  0  0
    2.8298   -1.3676    0.0000 H   0  0  0  0  0  0  0  0  0  0  0  0
    5.6244    1.1447    0.0000 H   0  0  0  0  0  0  0  0  0  0  0  0
    4.8087    0.9252    0.0000 H   0  0  0  0  0  0  0  0  0  0  0  0
    7.2599    0.5585    0.0000 H   0  0  0  0  0  0  0  0  0  0  0  0
    7.3450    1.3510    0.0000 H   0  0  0  0  0  0  0  0  0  0  0  0
    6.9060   -0.7726    0.0000 H   0  0  0  0  0  0  0  0  0  0  0  0
    7.7233   -0.4550    0.0000 H   0  0  0  0  0  0  0  0  0  0  0  0
    7.4056    0.3623    0.0000 H   0  0  0  0  0  0  0  0  0  0  0  0
    5.6051   -2.1043    0.0000 H   0  0  0  0  0  0  0  0  0  0  0  0
    6.4802   -2.1578    0.0000 H   0  0  0  0  0  0  0  0  0  0  0  0
    6.5338   -1.2826    0.0000 H   0  0  0  0  0  0  0  0  0  0  0  0
    3.5743   -0.2211    0.0000 H   0  0  0  0  0  0  0  0  0  0  0  0
    3.3872   -1.0777    0.0000 H   0  0  0  0  0  0  0  0  0  0  0  0
    4.2438   -1.2648    0.0000 H   0  0  0  0  0  0  0  0  0  0  0  0
  1 14  1  0  0  0  0
  1 15  1  0  0  0  0
  2  9  1  0  0  0  0
  2 22  1  0  0  0  0
  3 17  1  0  0  0  0
  3 20  1  0  0  0  0
  4 20  2  0  0  0  0
  5 22  2  0  0  0  0
  6  7  1  0  0  0  0
  6 11  1  0  0  0  0
  6 12  1  0  0  0  0
  7  8  1  0  0  0  0
  7  9  1  0  0  0  0
  7 25  1  6  0  0  0
  8 10  1  0  0  0  0
  8 17  1  0  0  0  0
  8 26  1  6  0  0  0
  9 13  1  0  0  0  0
  9 27  1  6  0  0  0
 10 11  1  0  0  0  0
 10 28  1  0  0  0  0
 10 29  1  0  0  0  0
 11 30  1  0  0  0  0
 11 31  1  0  0  0  0
 12 13  1  0  0  0  0
 12 32  1  0  0  0  0
 12 33  1  0  0  0  0
 13 34  1  0  0  0  0
 13 35  1  0  0  0  0
 14 18  1  0  0  0  0
 14 19  1  0  0  0  0
 14 21  1  1  0  0  0
 15 16  1  0  0  0  0
 15 20  1  0  0  0  0
 15 23  1  6  0  0  0
 16 18  1  0  0  0  0
 16 24  1  0  0  0  0
 16 36  1  0  0  0  0
 17 37  1  0  0  0  0
 17 38  1  0  0  0  0
 18 39  1  0  0  0  0
 18 40  1  0  0  0  0
 19 22  1  0  0  0  0
 19 41  1  0  0  0  0
 19 42  1  0  0  0  0
 21 43  1  0  0  0  0
 21 44  1  0  0  0  0
 21 45  1  0  0  0  0
 23 46  1  0  0  0  0
 23 47  1  0  0  0  0
 23 48  1  0  0  0  0
 24 49  1  0  0  0  0
 24 50  1  0  0  0  0
 24 51  1  0  0  0  0
M  END
> <PUBCHEM_COMPOUND_CID>
442746

> <PUBCHEM_COMPOUND_CANONICALIZED>
1

> <PUBCHEM_CACTVS_COMPLEXITY>
566

> <PUBCHEM_CACTVS_HBOND_ACCEPTOR>
6

> <PUBCHEM_CACTVS_HBOND_DONOR>
0

> <PUBCHEM_CACTVS_ROTATABLE_BOND>
0

> <PUBCHEM_CACTVS_SUBSKEYS>
AAADceB6OAAAAAAAAAAAAAAAAAAAAWLEgAAAAAAAAAAWAAAAAAAAHgAAAAAADXzhgAYCCAMABAAIAACQCAIAAAAAAAAAAAFIAAADABYAgAQHAAAHIACSAAH4/H7OgAAAAAAAAAAAAAAAAAAAAAAAAAAAAA==

> <PUBCHEM_IUPAC_INCHI>
InChI=1S/C18H27NO5/c1-11-8-17(2)9-14(20)23-13-5-7-19-6-4-12(15(13)19)10-22-16(21)18(11,3)24-17/h11-13,15H,4-10H2,1-3H3/t11?,12-,13-,15-,17-,18-/m1/s1

> <PUBCHEM_IUPAC_INCHIKEY>
DNEINKNDPRUHLP-NDBJNJODSA-N

> <PUBCHEM_XLOGP3_AA>
1.7

> <PUBCHEM_EXACT_MASS>
337.188923

> <PUBCHEM_MOLECULAR_FORMULA>
C18H27NO5

> <PUBCHEM_MOLECULAR_WEIGHT>
337.41068

> <PUBCHEM_OPENEYE_CAN_SMILES>
CC1CC2(CC(=O)OC3CCN4C3C(CC4)COC(=O)C1(O2)C)C

> <PUBCHEM_OPENEYE_ISO_SMILES>
CC1C[C@@]2(CC(=O)O[C@@H]3CCN4[C@@H]3[C@H](CC4)COC(=O)[C@@]1(O2)C)C

> <PUBCHEM_CACTVS_TPSA>
65.1

> <PUBCHEM_MONOISOTOPIC_WEIGHT>
337.188923

> <PUBCHEM_TOTAL_CHARGE>
0

> <PUBCHEM_HEAVY_ATOM_COUNT>
24

> <PUBCHEM_ATOM_DEF_STEREO_COUNT>
5

> <PUBCHEM_ATOM_UDEF_STEREO_COUNT>
1

> <PUBCHEM_BOND_DEF_STEREO_COUNT>
0

> <PUBCHEM_BOND_UDEF_STEREO_COUNT>
0

> <PUBCHEM_ISOTOPIC_ATOM_COUNT>
0

> <PUBCHEM_COMPONENT_COUNT>
1

> <PUBCHEM_CACTVS_TAUTO_COUNT>
2

> <PUBCHEM_COORDINATE_TYPE>
1
5
255

> <PUBCHEM_BONDANNOTATIONS>
14  21  5
15  23  6
16  36  3
7  25  6
8  26  6
9  27  6

$$$$

