164787
  -OEChem-07051213042D

 29 29  0     0  0  0  0  0  0999 V2000
    7.7331   -0.1900    0.0000 Cl  0  0  0  0  0  0  0  0  0  0  0  0
    3.4030   -0.6900    0.0000 O   0  0  0  0  0  0  0  0  0  0  0  0
    3.4030    2.3100    0.0000 N   0  0  0  0  0  0  0  0  0  0  0  0
    4.2690    0.8100    0.0000 N   0  0  0  0  0  0  0  0  0  0  0  0
    6.0010   -0.1900    0.0000 N   0  0  0  0  0  0  0  0  0  0  0  0
    6.0010   -2.1900    0.0000 N   0  0  0  0  0  0  0  0  0  0  0  0
    2.5369    0.8100    0.0000 N   0  0  0  0  0  0  0  0  0  0  0  0
    4.2690   -2.1900    0.0000 N   0  0  0  0  0  0  0  0  0  0  0  0
    7.7331   -2.1900    0.0000 N   0  0  0  0  0  0  0  0  0  0  0  0
    5.1350   -0.6900    0.0000 C   0  0  0  0  0  0  0  0  0  0  0  0
    3.4030    1.3100    0.0000 C   0  0  0  0  0  0  0  0  0  0  0  0
    5.1350   -1.6900    0.0000 C   0  0  0  0  0  0  0  0  0  0  0  0
    2.5369    2.8100    0.0000 C   0  0  0  0  0  0  0  0  0  0  0  0
    4.2690    2.8100    0.0000 C   0  0  0  0  0  0  0  0  0  0  0  0
    4.2690   -0.1900    0.0000 C   0  0  0  0  0  0  0  0  0  0  0  0
    6.8671   -1.6900    0.0000 C   0  0  0  0  0  0  0  0  0  0  0  0
    6.8671   -0.6900    0.0000 C   0  0  0  0  0  0  0  0  0  0  0  0
    4.5790    2.2731    0.0000 H   0  0  0  0  0  0  0  0  0  0  0  0
    2.8469    3.3469    0.0000 H   0  0  0  0  0  0  0  0  0  0  0  0
    2.0000    3.1200    0.0000 H   0  0  0  0  0  0  0  0  0  0  0  0
    2.2269    2.2731    0.0000 H   0  0  0  0  0  0  0  0  0  0  0  0
    4.8059    3.1200    0.0000 H   0  0  0  0  0  0  0  0  0  0  0  0
    3.9590    3.3469    0.0000 H   0  0  0  0  0  0  0  0  0  0  0  0
    2.0000    1.1200    0.0000 H   0  0  0  0  0  0  0  0  0  0  0  0
    2.5369    0.1900    0.0000 H   0  0  0  0  0  0  0  0  0  0  0  0
    4.2690   -2.8100    0.0000 H   0  0  0  0  0  0  0  0  0  0  0  0
    3.7320   -1.8800    0.0000 H   0  0  0  0  0  0  0  0  0  0  0  0
    7.7331   -2.8100    0.0000 H   0  0  0  0  0  0  0  0  0  0  0  0
    8.2700   -1.8800    0.0000 H   0  0  0  0  0  0  0  0  0  0  0  0
  1 17  1  0  0  0  0
  2 15  2  0  0  0  0
  3 11  1  0  0  0  0
  3 13  1  0  0  0  0
  3 14  1  0  0  0  0
  4 11  2  0  0  0  0
  4 15  1  0  0  0  0
  5 10  1  0  0  0  0
  5 17  2  0  0  0  0
  6 12  1  0  0  0  0
  6 16  2  0  0  0  0
  7 11  1  0  0  0  0
  7 24  1  0  0  0  0
  7 25  1  0  0  0  0
  8 12  1  0  0  0  0
  8 26  1  0  0  0  0
  8 27  1  0  0  0  0
  9 16  1  0  0  0  0
  9 28  1  0  0  0  0
  9 29  1  0  0  0  0
 10 12  2  0  0  0  0
 10 15  1  0  0  0  0
 13 19  1  0  0  0  0
 13 20  1  0  0  0  0
 13 21  1  0  0  0  0
 14 18  1  0  0  0  0
 14 22  1  0  0  0  0
 14 23  1  0  0  0  0
 16 17  1  0  0  0  0
M  END
> <PUBCHEM_COMPOUND_CID>
164787

> <PUBCHEM_COMPOUND_CANONICALIZED>
1

> <PUBCHEM_CACTVS_COMPLEXITY>
321

> <PUBCHEM_CACTVS_HBOND_ACCEPTOR>
5

> <PUBCHEM_CACTVS_HBOND_DONOR>
3

> <PUBCHEM_CACTVS_ROTATABLE_BOND>
2

> <PUBCHEM_CACTVS_SUBSKEYS>
AAADccBzoAAEAAAAAAAAAAAAAAAAAAAAAAAsAAAAAAAAAAABgAAAHgIQAAAACAoBliQDsBNIEACoAQdwdACAgC0HECABEAGoVECAQEhAQCBUAIAAAALAAGAAAAAAAAAAAAAAAAAAAAAAAAAAAAAAAAAAAA==

> <PUBCHEM_IUPAC_OPENEYE_NAME>
3,5-diamino-N-[amino(dimethylamino)methylene]-6-chloro-pyrazine-2-carboxamide

> <PUBCHEM_IUPAC_CAS_NAME>
3,5-diamino-N-[amino(dimethylamino)methylidene]-6-chloro-2-pyrazinecarboxamide

> <PUBCHEM_IUPAC_NAME>
3,5-diamino-N-[amino(dimethylamino)methylidene]-6-chloropyrazine-2-carboxamide

> <PUBCHEM_IUPAC_SYSTEMATIC_NAME>
3,5-bis(azanyl)-N-[azanyl(dimethylamino)methylidene]-6-chloranyl-pyrazine-2-carboxamide

> <PUBCHEM_IUPAC_TRADITIONAL_NAME>
3,5-diamino-N-[amino(dimethylamino)methylene]-6-chloro-pyrazinamide

> <PUBCHEM_IUPAC_INCHI>
InChI=1S/C8H12ClN7O/c1-16(2)8(12)15-7(17)3-5(10)14-6(11)4(9)13-3/h1-2H3,(H4,10,11,14)(H2,12,15,17)

> <PUBCHEM_IUPAC_INCHIKEY>
AZRZBCASYOBNKQ-UHFFFAOYSA-N

> <PUBCHEM_XLOGP3_AA>
-0.1

> <PUBCHEM_EXACT_MASS>
257.079186

> <PUBCHEM_MOLECULAR_FORMULA>
C8H12ClN7O

> <PUBCHEM_MOLECULAR_WEIGHT>
257.68018

> <PUBCHEM_OPENEYE_CAN_SMILES>
CN(C)C(=NC(=O)C1=C(N=C(C(=N1)Cl)N)N)N

> <PUBCHEM_OPENEYE_ISO_SMILES>
CN(C)C(=NC(=O)C1=C(N=C(C(=N1)Cl)N)N)N

> <PUBCHEM_CACTVS_TPSA>
137

> <PUBCHEM_MONOISOTOPIC_WEIGHT>
257.079186

> <PUBCHEM_TOTAL_CHARGE>
0

> <PUBCHEM_HEAVY_ATOM_COUNT>
17

> <PUBCHEM_ATOM_DEF_STEREO_COUNT>
0

> <PUBCHEM_ATOM_UDEF_STEREO_COUNT>
0

> <PUBCHEM_BOND_DEF_STEREO_COUNT>
0

> <PUBCHEM_BOND_UDEF_STEREO_COUNT>
0

> <PUBCHEM_ISOTOPIC_ATOM_COUNT>
0

> <PUBCHEM_COMPONENT_COUNT>
1

> <PUBCHEM_CACTVS_TAUTO_COUNT>
33

> <PUBCHEM_COORDINATE_TYPE>
1
5
255

> <PUBCHEM_BONDANNOTATIONS>
10  12  8
16  17  8
5  10  8
5  17  8
6  12  8
6  16  8

$$$$

