17396087
  -OEChem-06241222543D

 56 60  0     1  0  0  0  0  0999 V2000
    1.6723    1.7076   -0.9516 Cl  0  0  0  0  0  0  0  0  0  0  0  0
   -7.6830    3.0719   -2.2724 Cl  0  0  0  0  0  0  0  0  0  0  0  0
   -4.4168   -0.5756   -0.4151 O   0  0  0  0  0  0  0  0  0  0  0  0
    4.5091    2.2532   -0.9417 O   0  0  0  0  0  0  0  0  0  0  0  0
   -1.2916   -2.0592   -0.2707 N   0  0  0  0  0  0  0  0  0  0  0  0
    1.3941   -1.1944    0.1326 N   0  0  0  0  0  0  0  0  0  0  0  0
   -4.1328   -2.2236    1.0708 N   0  0  0  0  0  0  0  0  0  0  0  0
    5.3022    0.2846    0.0522 N   0  0  0  0  0  0  0  0  0  0  0  0
    5.0122   -0.9863    0.4745 N   0  0  0  0  0  0  0  0  0  0  0  0
   -5.1913   -1.4428    1.4961 N   0  0  0  0  0  0  0  0  0  0  0  0
   -0.2135   -2.5291   -1.1528 C   0  0  0  0  0  0  0  0  0  0  0  0
   -1.0070   -0.6968    0.2023 C   0  0  0  0  0  0  0  0  0  0  0  0
    1.1313   -2.5212   -0.4235 C   0  0  0  0  0  0  0  0  0  0  0  0
    0.3203   -0.6486    0.9617 C   0  0  0  0  0  0  0  0  0  0  0  0
   -2.5786   -2.1047   -0.9631 C   0  0  1  0  0  0  0  0  0  0  0  0
    2.6155   -0.5938    0.0356 C   0  0  0  0  0  0  0  0  0  0  0  0
   -2.8074   -3.5057   -1.5329 C   0  0  0  0  0  0  0  0  0  0  0  0
   -3.7122   -1.6807   -0.0478 C   0  0  0  0  0  0  0  0  0  0  0  0
    2.9119    0.6316   -0.4016 C   0  0  0  0  0  0  0  0  0  0  0  0
    3.7844   -1.3753    0.4580 C   0  0  0  0  0  0  0  0  0  0  0  0
    4.3154    1.1412   -0.4510 C   0  0  0  0  0  0  0  0  0  0  0  0
   -5.3209   -0.4935    0.5990 C   0  0  0  0  0  0  0  0  0  0  0  0
   -6.2518    0.5949    0.5239 C   0  0  0  0  0  0  0  0  0  0  0  0
    6.7021    0.6167    0.1635 C   0  0  0  0  0  0  0  0  0  0  0  0
    7.0910    1.9400    0.3712 C   0  0  0  0  0  0  0  0  0  0  0  0
    7.6665   -0.3862    0.0642 C   0  0  0  0  0  0  0  0  0  0  0  0
   -6.4868    1.2295   -0.6958 C   0  0  0  0  0  0  0  0  0  0  0  0
   -6.9225    1.0185    1.6713 C   0  0  0  0  0  0  0  0  0  0  0  0
    8.4442    2.2606    0.4797 C   0  0  0  0  0  0  0  0  0  0  0  0
    9.0197   -0.0657    0.1730 C   0  0  0  0  0  0  0  0  0  0  0  0
   -7.3927    2.2876   -0.7682 C   0  0  0  0  0  0  0  0  0  0  0  0
   -7.8283    2.0767    1.5988 C   0  0  0  0  0  0  0  0  0  0  0  0
    9.4085    1.2577    0.3807 C   0  0  0  0  0  0  0  0  0  0  0  0
   -8.0634    2.7113    0.3791 C   0  0  0  0  0  0  0  0  0  0  0  0
   -0.3582   -3.5671   -1.4669 H   0  0  0  0  0  0  0  0  0  0  0  0
   -0.1481   -1.9076   -2.0559 H   0  0  0  0  0  0  0  0  0  0  0  0
   -0.9768    0.0065   -0.6404 H   0  0  0  0  0  0  0  0  0  0  0  0
   -1.7774   -0.3424    0.8962 H   0  0  0  0  0  0  0  0  0  0  0  0
    1.9152   -2.8142   -1.1332 H   0  0  0  0  0  0  0  0  0  0  0  0
    1.1310   -3.2614    0.3866 H   0  0  0  0  0  0  0  0  0  0  0  0
    0.2454   -1.2481    1.8786 H   0  0  0  0  0  0  0  0  0  0  0  0
    0.5236    0.3781    1.2859 H   0  0  0  0  0  0  0  0  0  0  0  0
   -2.5705   -1.4086   -1.8148 H   0  0  0  0  0  0  0  0  0  0  0  0
   -3.8519   -3.6183   -1.8502 H   0  0  0  0  0  0  0  0  0  0  0  0
   -2.2013   -3.7063   -2.4222 H   0  0  0  0  0  0  0  0  0  0  0  0
   -2.6225   -4.2881   -0.7870 H   0  0  0  0  0  0  0  0  0  0  0  0
    3.5783   -2.3987    0.8131 H   0  0  0  0  0  0  0  0  0  0  0  0
    6.3701    2.7423    0.4914 H   0  0  0  0  0  0  0  0  0  0  0  0
    7.3988   -1.4245   -0.1122 H   0  0  0  0  0  0  0  0  0  0  0  0
   -5.9785    0.9079   -1.6025 H   0  0  0  0  0  0  0  0  0  0  0  0
   -6.7527    0.5389    2.6324 H   0  0  0  0  0  0  0  0  0  0  0  0
    8.7471    3.2896    0.6501 H   0  0  0  0  0  0  0  0  0  0  0  0
    9.7711   -0.8459    0.0929 H   0  0  0  0  0  0  0  0  0  0  0  0
   -8.3503    2.4070    2.4922 H   0  0  0  0  0  0  0  0  0  0  0  0
   10.4621    1.5070    0.4667 H   0  0  0  0  0  0  0  0  0  0  0  0
   -8.7718    3.5347    0.3378 H   0  0  0  0  0  0  0  0  0  0  0  0
  1 19  1  0  0  0  0
  2 31  1  0  0  0  0
  3 18  1  0  0  0  0
  3 22  1  0  0  0  0
  4 21  2  0  0  0  0
  5 11  1  0  0  0  0
  5 12  1  0  0  0  0
  5 15  1  0  0  0  0
  6 13  1  0  0  0  0
  6 14  1  0  0  0  0
  6 16  1  0  0  0  0
  7 10  1  0  0  0  0
  7 18  2  0  0  0  0
  8  9  1  0  0  0  0
  8 21  1  0  0  0  0
  8 24  1  0  0  0  0
  9 20  2  0  0  0  0
 10 22  2  0  0  0  0
 11 13  1  0  0  0  0
 11 35  1  0  0  0  0
 11 36  1  0  0  0  0
 12 14  1  0  0  0  0
 12 37  1  0  0  0  0
 12 38  1  0  0  0  0
 13 39  1  0  0  0  0
 13 40  1  0  0  0  0
 14 41  1  0  0  0  0
 14 42  1  0  0  0  0
 15 17  1  0  0  0  0
 15 18  1  0  0  0  0
 15 43  1  0  0  0  0
 16 19  2  0  0  0  0
 16 20  1  0  0  0  0
 17 44  1  0  0  0  0
 17 45  1  0  0  0  0
 17 46  1  0  0  0  0
 19 21  1  0  0  0  0
 20 47  1  0  0  0  0
 22 23  1  0  0  0  0
 23 27  2  0  0  0  0
 23 28  1  0  0  0  0
 24 25  2  0  0  0  0
 24 26  1  0  0  0  0
 25 29  1  0  0  0  0
 25 48  1  0  0  0  0
 26 30  2  0  0  0  0
 26 49  1  0  0  0  0
 27 31  1  0  0  0  0
 27 50  1  0  0  0  0
 28 32  2  0  0  0  0
 28 51  1  0  0  0  0
 29 33  2  0  0  0  0
 29 52  1  0  0  0  0
 30 33  1  0  0  0  0
 30 53  1  0  0  0  0
 31 34  2  0  0  0  0
 32 34  1  0  0  0  0
 32 54  1  0  0  0  0
 33 55  1  0  0  0  0
 34 56  1  0  0  0  0
M  END
> <PUBCHEM_COMPOUND_CID>
17396087

> <PUBCHEM_CONFORMER_RMSD>
1

> <PUBCHEM_CONFORMER_DIVERSEORDER>
9
93
131
55
97
148
78
19
138
83
32
94
114
115
119
159
136
134
5
107
100
82
154
34
113
22
53
143
90
81
77
1
106
110
146
160
26
104
118
91
128
139
129
48
101
141
13
73
102
30
8
75
116
112
47
40
3
142
29
46
147
36
149
2
150
103
85
156
71
144
87
33
92
130
4
127
59
72
105
14
74
140
60
123
51
95
96
145
42
27
12
50
152
7
54
76
151
17
132
56
86
39
6
52
67
58
121
25
11
28
153
37
137
89
80
125
133
15
23
10
65
99
18
155
70
135
79
44
24
109
126
41
45
88
158
38
43
64
68
66
157
122
57
111
124
63
62
108
16
31
20
49
120
35
98
21
117
61
84
69

> <PUBCHEM_MMFF94_PARTIAL_CHARGES>
43
1 -0.14
10 -0.34
11 0.27
12 0.27
13 0.37
14 0.37
15 0.45
16 0.11
18 0.3
19 0.15
2 -0.18
20 0.38
21 0.62
22 0.43
23 0.05
24 0.12
25 -0.15
26 -0.15
27 -0.15
28 -0.15
29 -0.15
3 -0.28
30 -0.15
31 0.18
32 -0.15
33 -0.15
34 -0.15
4 -0.57
47 0.06
48 0.15
49 0.15
5 -0.81
50 0.15
51 0.15
52 0.15
53 0.15
54 0.15
55 0.15
56 0.15
6 -0.84
7 -0.34
8 -0.11
9 -0.51

> <PUBCHEM_EFFECTIVE_ROTOR_COUNT>
6.2

> <PUBCHEM_PHARMACOPHORE_FEATURES>
9
1 4 acceptor
1 5 cation
1 6 cation
1 9 acceptor
5 3 7 10 18 22 rings
6 23 27 28 31 32 34 rings
6 24 25 26 29 30 33 rings
6 5 6 11 12 13 14 rings
6 8 9 16 19 20 21 rings

> <PUBCHEM_HEAVY_ATOM_COUNT>
34

> <PUBCHEM_ATOM_DEF_STEREO_COUNT>
0

> <PUBCHEM_ATOM_UDEF_STEREO_COUNT>
1

> <PUBCHEM_BOND_DEF_STEREO_COUNT>
0

> <PUBCHEM_BOND_UDEF_STEREO_COUNT>
0

> <PUBCHEM_ISOTOPIC_ATOM_COUNT>
0

> <PUBCHEM_COMPONENT_COUNT>
1

> <PUBCHEM_CACTVS_TAUTO_COUNT>
1

> <PUBCHEM_CONFORMER_ID>
0109717700000009

> <PUBCHEM_MMFF94_ENERGY>
98.8673

> <PUBCHEM_FEATURE_SELFOVERLAP>
45.672

> <PUBCHEM_SHAPE_FINGERPRINT>
10076449 9 10879988068957364708
10190108 129 17275387621156271548
10554248 39 17749952292627940351
10930396 42 17132113555682240373
11135609 99 9439109962151722073
11181472 205 18114455773513554682
11475781 23 17822280276405353764
11578821 258 18190182274840910032
12120059 9 5184349586978404316
12236239 1 18189054197421869678
12373685 5 15719109189019977006
12422481 6 17917989482501565117
12539765 74 18337664232134799598
12664476 115 18333727993249228113
13248334 5 17973436899912950479
13530399 1 18201149946414643164
13560911 23 17987802895591816803
14394314 77 18411140195660517280
15274700 208 17605014554059456208
15350500 55 18342461482364009445
15439362 3 18114737243658137599
15461852 350 17385447583628890743
15604295 49 18262806155625930104
1577012 14 18410017640874127083
15890870 6 18334577967155890353
16087824 20 18339079393045311509
16991971 28 9655575214775036954
19246450 95 12463294774276305173
19302320 297 18272925012164094557
19315958 150 18260259776673535870
20105231 36 12535631583616374280
21095123 293 18131345289944789940
21298829 104 18408039606675948420
21362267 313 18334862707146529800
21927370 108 13542468695579566862
23389318 12 7348884504040656466
23516275 100 18053950825680932813
23522609 53 17559380359230306430
23576562 1 16951426333547457265
25269216 80 15864364541317143365
2747138 104 11671784836476988222
2835820 83 10303511902988001049
3633792 109 18040990770327611466
3711267 37 18341040865975716652
393628 194 18261106422782735769
406291 66 10303809878336694049
4169191 19 18334575780859287953
4330586 98 6843621518881665633
44802255 64 18040998432449333879
5372103 7 18270127958859571301
54039377 194 10231751189398571417
6009941 240 18273210885350281947
6086070 43 17240494567434317107
636775 8 10231760006934742640
99344 41 18408602556861608190
9962374 69 12535334658750606787
9980921 7 18342182172657607749
999808 66 9295282851250688825

> <PUBCHEM_SHAPE_MULTIPOLES>
661.82
31.23
3.58
1.35
17.71
0.66
0.18
-29.57
-4.49
-4.91
1.31
-3.3
-0.36
0.79

> <PUBCHEM_SHAPE_SELFOVERLAP>
1425.682

> <PUBCHEM_SHAPE_VOLUME>
365.7

> <PUBCHEM_COORDINATE_TYPE>
2
5
10

$$$$

