98192
  -OEChem-07051213013D

 44 46  0     1  0  0  0  0  0999 V2000
    0.1595   -1.1393   -0.2336 O   0  0  0  0  0  0  0  0  0  0  0  0
    0.2116   -0.8137    2.0734 O   0  0  0  0  0  0  0  0  0  0  0  0
    4.5950   -2.7110    0.1475 O   0  0  0  0  0  0  0  0  0  0  0  0
    2.7574   -1.4015   -0.4272 N   0  0  0  0  0  0  0  0  0  0  0  0
    2.3140   -1.0837    0.9068 C   0  0  1  0  0  0  0  0  0  0  0  0
    3.0046    0.1814    1.4374 C   0  0  0  0  0  0  0  0  0  0  0  0
    2.6833    1.4441    0.6699 C   0  0  0  0  0  0  0  0  0  0  0  0
    0.7962   -0.9849    1.0081 C   0  0  0  0  0  0  0  0  0  0  0  0
   -3.2277    0.2799   -0.2920 C   0  0  0  0  0  0  0  0  0  0  0  0
    3.4784    1.8031   -0.4055 C   0  0  0  0  0  0  0  0  0  0  0  0
    1.6006    2.2152    1.0579 C   0  0  0  0  0  0  0  0  0  0  0  0
   -1.1982   -1.0573   -0.1847 C   0  0  0  0  0  0  0  0  0  0  0  0
   -3.9999   -0.8873   -0.0824 C   0  0  0  0  0  0  0  0  0  0  0  0
   -1.8278    0.1779   -0.3409 C   0  0  0  0  0  0  0  0  0  0  0  0
   -1.9576   -2.2050    0.0216 C   0  0  0  0  0  0  0  0  0  0  0  0
    3.8652   -2.1917   -0.6930 C   0  0  0  0  0  0  0  0  0  0  0  0
   -3.3494   -2.1222    0.0726 C   0  0  0  0  0  0  0  0  0  0  0  0
    3.1821    2.9677   -1.1137 C   0  0  0  0  0  0  0  0  0  0  0  0
    1.3043    3.3797    0.3495 C   0  0  0  0  0  0  0  0  0  0  0  0
   -3.8780    1.5150   -0.4475 C   0  0  0  0  0  0  0  0  0  0  0  0
   -5.3998   -0.7851   -0.0336 C   0  0  0  0  0  0  0  0  0  0  0  0
    2.0950    3.7559   -0.7363 C   0  0  0  0  0  0  0  0  0  0  0  0
   -5.2697    1.5982   -0.3961 C   0  0  0  0  0  0  0  0  0  0  0  0
   -6.0291    0.4504   -0.1894 C   0  0  0  0  0  0  0  0  0  0  0  0
    4.0901   -2.3857   -2.1686 C   0  0  0  0  0  0  0  0  0  0  0  0
    2.5983   -1.9285    1.5474 H   0  0  0  0  0  0  0  0  0  0  0  0
    4.0934    0.0353    1.4410 H   0  0  0  0  0  0  0  0  0  0  0  0
    2.7319    0.3325    2.4908 H   0  0  0  0  0  0  0  0  0  0  0  0
    2.2300   -1.0185   -1.2069 H   0  0  0  0  0  0  0  0  0  0  0  0
    4.3281    1.1976   -0.7070 H   0  0  0  0  0  0  0  0  0  0  0  0
    0.9803    1.9361    1.9043 H   0  0  0  0  0  0  0  0  0  0  0  0
   -1.2204    1.0665   -0.5033 H   0  0  0  0  0  0  0  0  0  0  0  0
   -1.4731   -3.1700    0.1434 H   0  0  0  0  0  0  0  0  0  0  0  0
   -3.9228   -3.0326    0.2348 H   0  0  0  0  0  0  0  0  0  0  0  0
    3.7978    3.2608   -1.9590 H   0  0  0  0  0  0  0  0  0  0  0  0
    0.4580    3.9936    0.6435 H   0  0  0  0  0  0  0  0  0  0  0  0
   -3.3043    2.4252   -0.6099 H   0  0  0  0  0  0  0  0  0  0  0  0
   -6.0135   -1.6692    0.1267 H   0  0  0  0  0  0  0  0  0  0  0  0
    1.8642    4.6626   -1.2878 H   0  0  0  0  0  0  0  0  0  0  0  0
   -5.7603    2.5595   -0.5175 H   0  0  0  0  0  0  0  0  0  0  0  0
   -7.1125    0.5158   -0.1495 H   0  0  0  0  0  0  0  0  0  0  0  0
    5.0636   -2.8551   -2.3348 H   0  0  0  0  0  0  0  0  0  0  0  0
    3.3056   -3.0293   -2.5760 H   0  0  0  0  0  0  0  0  0  0  0  0
    4.0740   -1.4204   -2.6830 H   0  0  0  0  0  0  0  0  0  0  0  0
  1  8  1  0  0  0  0
  1 12  1  0  0  0  0
  2  8  2  0  0  0  0
  3 16  2  0  0  0  0
  4  5  1  0  0  0  0
  4 16  1  0  0  0  0
  4 29  1  0  0  0  0
  5  6  1  0  0  0  0
  5  8  1  0  0  0  0
  5 26  1  0  0  0  0
  6  7  1  0  0  0  0
  6 27  1  0  0  0  0
  6 28  1  0  0  0  0
  7 10  2  0  0  0  0
  7 11  1  0  0  0  0
  9 13  1  0  0  0  0
  9 14  1  0  0  0  0
  9 20  2  0  0  0  0
 10 18  1  0  0  0  0
 10 30  1  0  0  0  0
 11 19  2  0  0  0  0
 11 31  1  0  0  0  0
 12 14  2  0  0  0  0
 12 15  1  0  0  0  0
 13 17  1  0  0  0  0
 13 21  2  0  0  0  0
 14 32  1  0  0  0  0
 15 17  2  0  0  0  0
 15 33  1  0  0  0  0
 16 25  1  0  0  0  0
 17 34  1  0  0  0  0
 18 22  2  0  0  0  0
 18 35  1  0  0  0  0
 19 22  1  0  0  0  0
 19 36  1  0  0  0  0
 20 23  1  0  0  0  0
 20 37  1  0  0  0  0
 21 24  1  0  0  0  0
 21 38  1  0  0  0  0
 22 39  1  0  0  0  0
 23 24  2  0  0  0  0
 23 40  1  0  0  0  0
 24 41  1  0  0  0  0
 25 42  1  0  0  0  0
 25 43  1  0  0  0  0
 25 44  1  0  0  0  0
M  END
> <PUBCHEM_COMPOUND_CID>
98192

> <PUBCHEM_CONFORMER_RMSD>
1

> <PUBCHEM_CONFORMER_DIVERSEORDER>
1
268
162
10
236
300
60
15
319
98
273
145
243
199
107
187
18
150
77
94
310
277
125
286
281
242
276
149
123
198
13
103
329
6
3
143
304
155
9
301
126
231
307
230
41
257
207
92
193
249
4
76
265
290
35
141
16
81
255
194
51
296
232
53
223
217
23
320
309
297
327
63
49
14
200
29
275
292
131
73
24
42
190
132
226
184
152
252
20
197
82
140
86
71
48
165
27
34
247
106
299
288
178
36
115
314
262
278
240
47
291
283
318
185
7
205
203
204
11
315
108
50
79
305
39
324
282
65
161
166
175
186
57
116
99
69
208
62
225
104
267
85
260
289
138
206
21
237
8
210
43
294
211
264
156
31
90
167
227
303
173
271
253
202
46
119
68
32
37
182
12
93
222
239
137
44
139
109
188
321
105
246
215
75
54
220
158
328
129
274
124
221
322
84
153
312
180
172
168
254
157
164
130
89
317
195
326
52
311
127
159
263
19
191
74
251
330
101
179
250
144
78
64
295
228
118
88
256
17
212
160
219
176
120
25
266
147
112
66
279
80
233
95
40
117
201
2
169
248
91
96
302
261
26
87
313
58
171
229
22
146
55
111
114
224
331
61
269
30
72
163
287
284
244
192
113
270
308
28
148
181
280
38
83
241
218
306
196
272
259
128
133
59
45
258
5
122
134
214
33
110
174
234
136
70
238
209
245
316
170
235
154
56
151
325
293
102
97
323
213
189
121
135
67
100
142
177
216
183
298
285

> <PUBCHEM_MMFF94_PARTIAL_CHARGES>
36
1 -0.23
10 -0.15
11 -0.15
12 0.08
14 -0.15
15 -0.15
16 0.57
17 -0.15
18 -0.15
19 -0.15
2 -0.57
20 -0.15
21 -0.15
22 -0.15
23 -0.15
24 -0.15
25 0.06
29 0.37
3 -0.57
30 0.15
31 0.15
32 0.15
33 0.15
34 0.15
35 0.15
36 0.15
37 0.15
38 0.15
39 0.15
4 -0.73
40 0.15
41 0.15
5 0.36
6 0.14
7 -0.14
8 0.66

> <PUBCHEM_EFFECTIVE_ROTOR_COUNT>
7

> <PUBCHEM_PHARMACOPHORE_FEATURES>
6
1 2 acceptor
1 3 acceptor
1 4 donor
6 7 10 11 18 19 22 rings
6 9 12 13 14 15 17 rings
6 9 13 20 21 23 24 rings

> <PUBCHEM_HEAVY_ATOM_COUNT>
25

> <PUBCHEM_ATOM_DEF_STEREO_COUNT>
0

> <PUBCHEM_ATOM_UDEF_STEREO_COUNT>
1

> <PUBCHEM_BOND_DEF_STEREO_COUNT>
0

> <PUBCHEM_BOND_UDEF_STEREO_COUNT>
0

> <PUBCHEM_ISOTOPIC_ATOM_COUNT>
0

> <PUBCHEM_COMPONENT_COUNT>
1

> <PUBCHEM_CACTVS_TAUTO_COUNT>
2

> <PUBCHEM_CONFORMER_ID>
00017F9000000001

> <PUBCHEM_MMFF94_ENERGY>
71.6094

> <PUBCHEM_FEATURE_SELFOVERLAP>
30.472

> <PUBCHEM_SHAPE_FINGERPRINT>
10763959 59 18268999850774756501
11513181 2 18262518074693508943
12422481 6 18122097314886596072
12596602 18 13470112069329316029
12617007 42 18337107964569624462
12633257 1 17916046597403730624
12788726 201 17910107250972248514
15163728 17 17557124126815224996
15210252 30 18059845199888990780
15238133 3 17701548521907034736
15338160 23 10443360925523080070
15806764 133 18268971172740219787
17844677 252 18411414017000381211
17980427 23 17976857248973913592
20691752 17 16916797244573117524
21133410 127 17916033356463748013
21285901 2 17752483432866952542
21365058 113 18265880509994518244
21503847 285 18271810141811655305
21860390 5 18410016507376853124
22289505 5 18408886235256625700
23227448 37 18339932515589348063
23559900 14 18333736827274736475
2637199 183 18128817443470835584
340366 18 18186805789677657670
4280585 95 18266175214135378526
46194498 28 18410851040680921022
474 4 17774167781924896649
5081480 168 18410577318325908548
513532 50 17748824086402702940
5281201 14 18409168809507658615
54076057 255 17916853733448852445
6287921 2 18127411155144884477
633830 44 18343310249406318259
6823239 73 18411419539900672570
9709674 26 18339364059187614619
9981440 41 17836369246383742872

> <PUBCHEM_SHAPE_MULTIPOLES>
491.9
11.49
4.04
1.3
12.87
2.2
-0.03
-0.95
2.68
-5.19
1.08
-1.58
-0.32
0.88

> <PUBCHEM_SHAPE_SELFOVERLAP>
1064.526

> <PUBCHEM_SHAPE_VOLUME>
267.5

> <PUBCHEM_COORDINATE_TYPE>
2
5
10

$$$$

