13462
  -OEChem-07051213053D

 28 31  0     0  0  0  0  0  0999 V2000
    4.4280    1.5472    0.0007 O   0  5  0  0  0  0  0  0  0  0  0  0
    4.2330   -0.6393    0.0004 O   0  0  0  0  0  0  0  0  0  0  0  0
    3.7277    0.5077    0.0000 N   0  3  0  0  0  0  0  0  0  0  0  0
    0.1076   -0.2503    0.0002 C   0  0  0  0  0  0  0  0  0  0  0  0
   -0.4663    1.0133    0.0005 C   0  0  0  0  0  0  0  0  0  0  0  0
   -0.8780   -1.2277    0.0004 C   0  0  0  0  0  0  0  0  0  0  0  0
   -1.9130    0.8450    0.0006 C   0  0  0  0  0  0  0  0  0  0  0  0
   -2.1703   -0.5564    0.0003 C   0  0  0  0  0  0  0  0  0  0  0  0
    1.4778   -0.5020   -0.0004 C   0  0  0  0  0  0  0  0  0  0  0  0
    0.3546    2.1255   -0.0002 C   0  0  0  0  0  0  0  0  0  0  0  0
    2.3105    0.6341   -0.0008 C   0  0  0  0  0  0  0  0  0  0  0  0
   -0.5058   -2.5589    0.0003 C   0  0  0  0  0  0  0  0  0  0  0  0
    1.8523   -1.8598   -0.0006 C   0  0  0  0  0  0  0  0  0  0  0  0
   -2.9468    1.7617    0.0003 C   0  0  0  0  0  0  0  0  0  0  0  0
   -3.4622   -1.0463   -0.0001 C   0  0  0  0  0  0  0  0  0  0  0  0
    1.7472    1.9287   -0.0007 C   0  0  0  0  0  0  0  0  0  0  0  0
    0.8657   -2.8696   -0.0002 C   0  0  0  0  0  0  0  0  0  0  0  0
   -4.2540    1.2663   -0.0003 C   0  0  0  0  0  0  0  0  0  0  0  0
   -4.5083   -0.1191   -0.0005 C   0  0  0  0  0  0  0  0  0  0  0  0
   -0.0533    3.1308   -0.0003 H   0  0  0  0  0  0  0  0  0  0  0  0
   -1.2438   -3.3541    0.0005 H   0  0  0  0  0  0  0  0  0  0  0  0
    2.8653   -2.2353   -0.0014 H   0  0  0  0  0  0  0  0  0  0  0  0
   -2.7631    2.8303    0.0004 H   0  0  0  0  0  0  0  0  0  0  0  0
   -3.6699   -2.1105   -0.0002 H   0  0  0  0  0  0  0  0  0  0  0  0
    2.3715    2.8201   -0.0010 H   0  0  0  0  0  0  0  0  0  0  0  0
    1.1729   -3.9131   -0.0004 H   0  0  0  0  0  0  0  0  0  0  0  0
   -5.0904    1.9607   -0.0007 H   0  0  0  0  0  0  0  0  0  0  0  0
   -5.5368   -0.4714   -0.0009 H   0  0  0  0  0  0  0  0  0  0  0  0
  1  3  1  0  0  0  0
  2  3  2  0  0  0  0
  3 11  1  0  0  0  0
  4  5  2  0  0  0  0
  4  6  1  0  0  0  0
  4  9  1  0  0  0  0
  5  7  1  0  0  0  0
  5 10  1  0  0  0  0
  6  8  1  0  0  0  0
  6 12  2  0  0  0  0
  7  8  1  0  0  0  0
  7 14  2  0  0  0  0
  8 15  2  0  0  0  0
  9 11  2  0  0  0  0
  9 13  1  0  0  0  0
 10 16  2  0  0  0  0
 10 20  1  0  0  0  0
 11 16  1  0  0  0  0
 12 17  1  0  0  0  0
 12 21  1  0  0  0  0
 13 17  2  0  0  0  0
 13 22  1  0  0  0  0
 14 18  1  0  0  0  0
 14 23  1  0  0  0  0
 15 19  1  0  0  0  0
 15 24  1  0  0  0  0
 16 25  1  0  0  0  0
 17 26  1  0  0  0  0
 18 19  2  0  0  0  0
 18 27  1  0  0  0  0
 19 28  1  0  0  0  0
M  CHG  2   1  -1   3   1
M  END
> <PUBCHEM_COMPOUND_CID>
13462

> <PUBCHEM_CONFORMER_RMSD>
0.6

> <PUBCHEM_CONFORMER_DIVERSEORDER>
1

> <PUBCHEM_MMFF94_PARTIAL_CHARGES>
22
1 -0.52
10 -0.15
11 0.13
12 -0.15
13 -0.15
14 -0.15
15 -0.15
16 -0.15
17 -0.15
18 -0.15
19 -0.15
2 -0.52
20 0.15
21 0.15
22 0.15
23 0.15
24 0.15
25 0.15
26 0.15
27 0.15
28 0.15
3 0.91

> <PUBCHEM_EFFECTIVE_ROTOR_COUNT>
1

> <PUBCHEM_PHARMACOPHORE_FEATURES>
7
1 1 acceptor
1 1 anion
1 2 acceptor
5 4 5 6 7 8 rings
6 4 5 9 10 11 16 rings
6 4 6 9 12 13 17 rings
6 7 8 14 15 18 19 rings

> <PUBCHEM_HEAVY_ATOM_COUNT>
19

> <PUBCHEM_ATOM_DEF_STEREO_COUNT>
0

> <PUBCHEM_ATOM_UDEF_STEREO_COUNT>
0

> <PUBCHEM_BOND_DEF_STEREO_COUNT>
0

> <PUBCHEM_BOND_UDEF_STEREO_COUNT>
0

> <PUBCHEM_ISOTOPIC_ATOM_COUNT>
0

> <PUBCHEM_COMPONENT_COUNT>
1

> <PUBCHEM_CACTVS_TAUTO_COUNT>
1

> <PUBCHEM_CONFORMER_ID>
0000349600000001

> <PUBCHEM_MMFF94_ENERGY>
89.8571

> <PUBCHEM_FEATURE_SELFOVERLAP>
35.908

> <PUBCHEM_SHAPE_FINGERPRINT>
10062212 137 18410866463934867355
10411042 1 17185876091502788834
10493431 412 18337673014398387984
10608611 8 18269275832361584261
10616163 171 18410572851823871679
10948715 1 18410293609723421446
10967382 1 18338799025773653767
10980938 120 18411418457510917699
11132069 177 18411142436973932952
11471102 20 18410860992383649325
11578080 2 16770991205140423815
12011746 2 18412262839311996454
12236239 1 17821445768786764233
12553582 1 17545879794854736459
12592029 89 18412823603206419435
12644460 14 18199181965589730867
13132413 78 18408323315194071101
13140716 1 17978785714737991107
13380535 76 18412825776491571235
13583140 156 16844746230483239313
138480 1 17906453577595177314
13862211 1 18410862078973867530
14790565 3 18339633469411631036
15196674 1 18410575089005538468
15309172 13 18410284796798553529
15442244 35 18048878795145506377
15536298 74 18261955257625486638
16945 1 18338516322605205447
193761 8 17762338415315063748
19591789 44 18411136900750460814
200 152 18113905936016198965
20028762 73 17971190327353701479
20510252 161 18260827085654830880
20645477 70 18263086685793458607
20905425 154 18192148424034748964
21267235 1 18410284843684841670
21421861 104 17842559831596692329
21501502 16 18337956817584723267
21524375 3 18341613694005193843
221490 88 18340196509780645291
2334 1 18410575132103086379
23366157 5 17986948746671259074
23402539 116 18261682506001407622
23463225 33 18341615953062753730
23558518 356 17695352473568998490
23559900 14 18120660390206169066
25 1 18412547625909049583
2748010 2 18339077210905798535
3091708 16 9191563698171679475
335352 9 18338799021837383038
34934 24 18336834181826593445
350125 39 18195240027805328985
352729 6 18194957448726760503
43471831 8 18341053007515465922
5104073 3 18411419518188447192
53812653 166 18408042913695284393
54173680 148 17979916012443639059
6138700 20 18266454490083890222
69090 78 18336267846895643343
7364860 26 18263925612580116239
81228 2 17474123002987719051
8272917 22 18264202677078672341
9709674 26 18411131446575070247

> <PUBCHEM_SHAPE_MULTIPOLES>
374.29
7.22
2.73
0.6
0.51
1.02
0
-2.32
0
-0.75
0
0.06
0.01
0

> <PUBCHEM_SHAPE_SELFOVERLAP>
871.303

> <PUBCHEM_SHAPE_VOLUME>
193.4

> <PUBCHEM_COORDINATE_TYPE>
2
5
10

$$$$

