234454
  -OEChem-07051213053D

 52 55  0     1  0  0  0  0  0999 V2000
    5.3423    1.3381   -0.1922 O   0  0  0  0  0  0  0  0  0  0  0  0
   -5.5385   -0.3880   -0.4255 O   0  0  0  0  0  0  0  0  0  0  0  0
    2.2827   -0.6501   -0.4497 C   0  0  1  0  0  0  0  0  0  0  0  0
    0.9049   -0.8720    0.1838 C   0  0  1  0  0  0  0  0  0  0  0  0
    2.9804    0.6201    0.0729 C   0  0  2  0  0  0  0  0  0  0  0  0
   -0.0072    0.3571   -0.1541 C   0  0  1  0  0  0  0  0  0  0  0  0
   -1.4634    0.1725    0.4219 C   0  0  1  0  0  0  0  0  0  0  0  0
    2.1188    1.8279   -0.3143 C   0  0  0  0  0  0  0  0  0  0  0  0
    0.6837    1.6972    0.2294 C   0  0  0  0  0  0  0  0  0  0  0  0
   -2.0144   -1.1708   -0.1477 C   0  0  1  0  0  0  0  0  0  0  0  0
    0.2793   -2.1894   -0.2941 C   0  0  0  0  0  0  0  0  0  0  0  0
    4.3129    0.5071   -0.6926 C   0  0  2  0  0  0  0  0  0  0  0  0
    3.3532   -1.7289   -0.3043 C   0  0  0  0  0  0  0  0  0  0  0  0
   -1.1442   -2.3746    0.2214 C   0  0  0  0  0  0  0  0  0  0  0  0
    4.6703   -0.9894   -0.6017 C   0  0  0  0  0  0  0  0  0  0  0  0
    3.2297    0.6356    1.6028 C   0  0  0  0  0  0  0  0  0  0  0  0
   -1.4633    0.2081    1.9687 C   0  0  0  0  0  0  0  0  0  0  0  0
   -2.4112    1.2769   -0.0306 C   0  0  0  0  0  0  0  0  0  0  0  0
   -3.4772   -1.4018    0.2268 C   0  0  0  0  0  0  0  0  0  0  0  0
   -3.7095    1.1155   -0.3388 C   0  0  0  0  0  0  0  0  0  0  0  0
   -4.3353   -0.2362   -0.2147 C   0  0  0  0  0  0  0  0  0  0  0  0
   -4.5937    2.2452   -0.7675 C   0  0  0  0  0  0  0  0  0  0  0  0
    2.1155   -0.5346   -1.5340 H   0  0  0  0  0  0  0  0  0  0  0  0
    1.0232   -0.9491    1.2699 H   0  0  0  0  0  0  0  0  0  0  0  0
   -0.1058    0.3846   -1.2514 H   0  0  0  0  0  0  0  0  0  0  0  0
    2.0693    1.9207   -1.4070 H   0  0  0  0  0  0  0  0  0  0  0  0
    2.5689    2.7578    0.0535 H   0  0  0  0  0  0  0  0  0  0  0  0
    0.7023    1.8204    1.3163 H   0  0  0  0  0  0  0  0  0  0  0  0
    0.1115    2.5432   -0.1650 H   0  0  0  0  0  0  0  0  0  0  0  0
   -1.9887   -1.0962   -1.2478 H   0  0  0  0  0  0  0  0  0  0  0  0
    0.8877   -3.0388    0.0376 H   0  0  0  0  0  0  0  0  0  0  0  0
    0.2698   -2.2186   -1.3914 H   0  0  0  0  0  0  0  0  0  0  0  0
    4.1631    0.7734   -1.7470 H   0  0  0  0  0  0  0  0  0  0  0  0
    3.1973   -2.5584   -1.0013 H   0  0  0  0  0  0  0  0  0  0  0  0
    3.3692   -2.1454    0.7090 H   0  0  0  0  0  0  0  0  0  0  0  0
   -1.5625   -3.2870   -0.2211 H   0  0  0  0  0  0  0  0  0  0  0  0
   -1.1345   -2.5330    1.3057 H   0  0  0  0  0  0  0  0  0  0  0  0
    5.4128   -1.1872    0.1796 H   0  0  0  0  0  0  0  0  0  0  0  0
    5.1054   -1.3303   -1.5478 H   0  0  0  0  0  0  0  0  0  0  0  0
    3.7215    1.5688    1.9012 H   0  0  0  0  0  0  0  0  0  0  0  0
    2.3084    0.5614    2.1859 H   0  0  0  0  0  0  0  0  0  0  0  0
    3.8778   -0.1846    1.9276 H   0  0  0  0  0  0  0  0  0  0  0  0
   -1.1273    1.1787    2.3500 H   0  0  0  0  0  0  0  0  0  0  0  0
   -2.4662    0.0529    2.3822 H   0  0  0  0  0  0  0  0  0  0  0  0
   -0.8166   -0.5557    2.4078 H   0  0  0  0  0  0  0  0  0  0  0  0
   -2.0116    2.2863   -0.0724 H   0  0  0  0  0  0  0  0  0  0  0  0
   -3.6129   -1.5539    1.3020 H   0  0  0  0  0  0  0  0  0  0  0  0
   -3.8446   -2.2978   -0.2881 H   0  0  0  0  0  0  0  0  0  0  0  0
    6.1538    1.1261   -0.6841 H   0  0  0  0  0  0  0  0  0  0  0  0
   -4.0514    3.1954   -0.8167 H   0  0  0  0  0  0  0  0  0  0  0  0
   -5.4222    2.3723   -0.0631 H   0  0  0  0  0  0  0  0  0  0  0  0
   -5.0081    2.0486   -1.7617 H   0  0  0  0  0  0  0  0  0  0  0  0
  1 12  1  0  0  0  0
  1 49  1  0  0  0  0
  2 21  2  0  0  0  0
  3  4  1  0  0  0  0
  3  5  1  0  0  0  0
  3 13  1  0  0  0  0
  3 23  1  0  0  0  0
  4  6  1  0  0  0  0
  4 11  1  0  0  0  0
  4 24  1  0  0  0  0
  5  8  1  0  0  0  0
  5 12  1  0  0  0  0
  5 16  1  0  0  0  0
  6  7  1  0  0  0  0
  6  9  1  0  0  0  0
  6 25  1  0  0  0  0
  7 10  1  0  0  0  0
  7 17  1  0  0  0  0
  7 18  1  0  0  0  0
  8  9  1  0  0  0  0
  8 26  1  0  0  0  0
  8 27  1  0  0  0  0
  9 28  1  0  0  0  0
  9 29  1  0  0  0  0
 10 14  1  0  0  0  0
 10 19  1  0  0  0  0
 10 30  1  0  0  0  0
 11 14  1  0  0  0  0
 11 31  1  0  0  0  0
 11 32  1  0  0  0  0
 12 15  1  0  0  0  0
 12 33  1  0  0  0  0
 13 15  1  0  0  0  0
 13 34  1  0  0  0  0
 13 35  1  0  0  0  0
 14 36  1  0  0  0  0
 14 37  1  0  0  0  0
 15 38  1  0  0  0  0
 15 39  1  0  0  0  0
 16 40  1  0  0  0  0
 16 41  1  0  0  0  0
 16 42  1  0  0  0  0
 17 43  1  0  0  0  0
 17 44  1  0  0  0  0
 17 45  1  0  0  0  0
 18 20  2  0  0  0  0
 18 46  1  0  0  0  0
 19 21  1  0  0  0  0
 19 47  1  0  0  0  0
 19 48  1  0  0  0  0
 20 21  1  0  0  0  0
 20 22  1  0  0  0  0
 22 50  1  0  0  0  0
 22 51  1  0  0  0  0
 22 52  1  0  0  0  0
M  END
> <PUBCHEM_COMPOUND_CID>
234454

> <PUBCHEM_CONFORMER_RMSD>
0.6

> <PUBCHEM_CONFORMER_DIVERSEORDER>
1

> <PUBCHEM_MMFF94_PARTIAL_CHARGES>
11
1 -0.68
12 0.28
18 -0.29
19 0.06
2 -0.57
20 -0.12
21 0.49
22 0.14
46 0.15
49 0.4
7 0.14

> <PUBCHEM_EFFECTIVE_ROTOR_COUNT>
1.6

> <PUBCHEM_PHARMACOPHORE_FEATURES>
7
1 1 acceptor
1 1 donor
1 2 acceptor
5 3 5 12 13 15 rings
6 3 4 5 6 8 9 rings
6 4 6 7 10 11 14 rings
6 7 10 18 19 20 21 rings

> <PUBCHEM_HEAVY_ATOM_COUNT>
22

> <PUBCHEM_ATOM_DEF_STEREO_COUNT>
7

> <PUBCHEM_ATOM_UDEF_STEREO_COUNT>
0

> <PUBCHEM_BOND_DEF_STEREO_COUNT>
0

> <PUBCHEM_BOND_UDEF_STEREO_COUNT>
0

> <PUBCHEM_ISOTOPIC_ATOM_COUNT>
0

> <PUBCHEM_COMPONENT_COUNT>
1

> <PUBCHEM_CACTVS_TAUTO_COUNT>
2

> <PUBCHEM_CONFORMER_ID>
000393D600000001

> <PUBCHEM_MMFF94_ENERGY>
72.3497

> <PUBCHEM_FEATURE_SELFOVERLAP>
35.613

> <PUBCHEM_SHAPE_FINGERPRINT>
10366900 7 17167856448752913842
10411042 1 17042608089994643027
10498660 4 18411416241339701364
10646746 165 18413108372428060629
10967382 1 18410009944429531846
11315181 36 17822284679042146312
11370993 70 18409453578713683911
12011746 2 18334570244445931438
12236239 1 17675919906854647833
12403259 226 18336830767354187737
12403259 415 18334016077358102809
12500047 106 18409451354068161670
12592029 89 18343303686664466667
12670546 56 16558760043384081909
13224815 77 17967249797378582082
13533116 47 17749105621129101734
14790565 3 17688303908551972009
15099037 51 18411417319196832839
15196674 1 18410855490198240262
15375358 24 18411417302460023188
15420108 30 16240384644907350880
15536298 74 18333452049235774222
1601671 61 18343021107802058828
16752209 62 18338242565611080659
16945 1 18192716639649996218
17349148 13 17821443573341051243
18186145 218 18260261971290612475
19862831 5 18113899385484086735
200 152 17603303756572579403
20645477 70 18187078499100558886
21033648 29 18336273383193326137
21267235 1 18409438194051360247
21279426 13 18265894837873503182
21421861 104 17631185250156055138
21521239 73 18114197358073844823
221357 26 18335425668893004765
221490 88 18339354146017642267
22393880 68 18337676420344338223
23227448 37 18408887300419266375
23402539 116 18335144219058175125
23402655 69 18261393377087137253
23559900 14 18334013917379461988
2748010 2 18336254691479699294
2838139 119 16485598557690286405
296302 2 18059853956836365000
3004659 81 18271523195759006342
3286 77 17385726945634458034
335352 9 18267303312237087654
34934 24 18413110546319770264
350125 39 18410849950423839713
3545911 37 18335699416848756452
4028521 119 18335419075506178023
4214541 1 18411699906849862397
474 4 17417807309897404172
495365 180 17386299713899013690
5104073 3 18411136965238222691
5283173 99 18340490074652502829
542803 24 17489864942637516996
6138700 20 18267019655939866302
633830 44 17704351082525319266
69090 78 18334859398460462527
9709674 26 18338796689369824307

> <PUBCHEM_SHAPE_MULTIPOLES>
441.01
10.2
2.27
1.03
0.7
0.31
0.49
-2.26
-2.26
0.47
-0.27
-0.13
-0.16
0.65

> <PUBCHEM_SHAPE_SELFOVERLAP>
943.338

> <PUBCHEM_SHAPE_VOLUME>
243.3

> <PUBCHEM_COORDINATE_TYPE>
2
5
10

$$$$

