10227
  -OEChem-07051213003D

 32 34  0     0  0  0  0  0  0999 V2000
   -3.4269   -1.8469    0.2460 O   0  0  0  0  0  0  0  0  0  0  0  0
   -1.4941    2.3067   -0.5584 O   0  0  0  0  0  0  0  0  0  0  0  0
    3.4654    1.3561   -0.2627 O   0  0  0  0  0  0  0  0  0  0  0  0
    3.6662   -1.3597    0.2909 O   0  0  0  0  0  0  0  0  0  0  0  0
   -1.0449   -1.7924    0.2835 N   0  0  0  0  0  0  0  0  0  0  0  0
   -0.0712    0.3940   -0.1402 C   0  0  0  0  0  0  0  0  0  0  0  0
    0.0202   -0.9895    0.1421 C   0  0  0  0  0  0  0  0  0  0  0  0
   -1.3404    0.9754   -0.2843 C   0  0  0  0  0  0  0  0  0  0  0  0
   -2.4635    0.1526   -0.1401 C   0  0  0  0  0  0  0  0  0  0  0  0
   -2.2364   -1.1893    0.1371 C   0  0  0  0  0  0  0  0  0  0  0  0
    1.0925    1.1692   -0.2735 C   0  0  0  0  0  0  0  0  0  0  0  0
    1.2903   -1.5397    0.2793 C   0  0  0  0  0  0  0  0  0  0  0  0
    2.3490    0.5888   -0.1304 C   0  0  0  0  0  0  0  0  0  0  0  0
    2.4477   -0.7680    0.1461 C   0  0  0  0  0  0  0  0  0  0  0  0
   -3.8699    0.3127   -0.2018 C   0  0  0  0  0  0  0  0  0  0  0  0
   -4.4075   -0.9298    0.0401 C   0  0  0  0  0  0  0  0  0  0  0  0
   -2.2198    3.0789    0.3924 C   0  0  0  0  0  0  0  0  0  0  0  0
    3.9721    1.9741    0.9193 C   0  0  0  0  0  0  0  0  0  0  0  0
    4.2713   -1.8933   -0.8853 C   0  0  0  0  0  0  0  0  0  0  0  0
    1.0322    2.2338   -0.4912 H   0  0  0  0  0  0  0  0  0  0  0  0
    1.3914   -2.6024    0.4977 H   0  0  0  0  0  0  0  0  0  0  0  0
   -4.4336    1.2115   -0.4046 H   0  0  0  0  0  0  0  0  0  0  0  0
   -5.4180   -1.3078    0.0940 H   0  0  0  0  0  0  0  0  0  0  0  0
   -2.1655    2.6551    1.4013 H   0  0  0  0  0  0  0  0  0  0  0  0
   -3.2615    3.1786    0.0768 H   0  0  0  0  0  0  0  0  0  0  0  0
   -1.7789    4.0798    0.4206 H   0  0  0  0  0  0  0  0  0  0  0  0
    4.8651    2.5453    0.6512 H   0  0  0  0  0  0  0  0  0  0  0  0
    4.2494    1.2181    1.6607 H   0  0  0  0  0  0  0  0  0  0  0  0
    3.2307    2.6603    1.3407 H   0  0  0  0  0  0  0  0  0  0  0  0
    3.6456   -2.6824   -1.3141 H   0  0  0  0  0  0  0  0  0  0  0  0
    5.2371   -2.3244   -0.6081 H   0  0  0  0  0  0  0  0  0  0  0  0
    4.4397   -1.1036   -1.6243 H   0  0  0  0  0  0  0  0  0  0  0  0
  1 10  1  0  0  0  0
  1 16  1  0  0  0  0
  2  8  1  0  0  0  0
  2 17  1  0  0  0  0
  3 13  1  0  0  0  0
  3 18  1  0  0  0  0
  4 14  1  0  0  0  0
  4 19  1  0  0  0  0
  5  7  1  0  0  0  0
  5 10  2  0  0  0  0
  6  7  1  0  0  0  0
  6  8  1  0  0  0  0
  6 11  2  0  0  0  0
  7 12  2  0  0  0  0
  8  9  2  0  0  0  0
  9 10  1  0  0  0  0
  9 15  1  0  0  0  0
 11 13  1  0  0  0  0
 11 20  1  0  0  0  0
 12 14  1  0  0  0  0
 12 21  1  0  0  0  0
 13 14  2  0  0  0  0
 15 16  2  0  0  0  0
 15 22  1  0  0  0  0
 16 23  1  0  0  0  0
 17 24  1  0  0  0  0
 17 25  1  0  0  0  0
 17 26  1  0  0  0  0
 18 27  1  0  0  0  0
 18 28  1  0  0  0  0
 18 29  1  0  0  0  0
 19 30  1  0  0  0  0
 19 31  1  0  0  0  0
 19 32  1  0  0  0  0
M  END
> <PUBCHEM_COMPOUND_CID>
10227

> <PUBCHEM_CONFORMER_RMSD>
0.6

> <PUBCHEM_CONFORMER_DIVERSEORDER>
1
3
4
2

> <PUBCHEM_MMFF94_PARTIAL_CHARGES>
21
1 -0.28
10 0.4
11 -0.15
12 -0.15
13 0.08
14 0.08
15 -0.15
16 -0.01
17 0.28
18 0.28
19 0.28
2 -0.36
20 0.15
21 0.15
22 0.15
23 0.15
3 -0.36
4 -0.36
5 -0.57
7 0.31
8 0.08

> <PUBCHEM_EFFECTIVE_ROTOR_COUNT>
3

> <PUBCHEM_PHARMACOPHORE_FEATURES>
6
1 2 acceptor
1 3 acceptor
1 4 acceptor
5 1 9 10 15 16 rings
6 5 6 7 8 9 10 rings
6 6 7 11 12 13 14 rings

> <PUBCHEM_HEAVY_ATOM_COUNT>
19

> <PUBCHEM_ATOM_DEF_STEREO_COUNT>
0

> <PUBCHEM_ATOM_UDEF_STEREO_COUNT>
0

> <PUBCHEM_BOND_DEF_STEREO_COUNT>
0

> <PUBCHEM_BOND_UDEF_STEREO_COUNT>
0

> <PUBCHEM_ISOTOPIC_ATOM_COUNT>
0

> <PUBCHEM_COMPONENT_COUNT>
1

> <PUBCHEM_CACTVS_TAUTO_COUNT>
1

> <PUBCHEM_CONFORMER_ID>
000027F300000001

> <PUBCHEM_MMFF94_ENERGY>
78.5566

> <PUBCHEM_FEATURE_SELFOVERLAP>
30.601

> <PUBCHEM_SHAPE_FINGERPRINT>
10608611 8 18410015459294153424
10967382 1 18268429036050166717
1100329 8 17404587069985302803
11132069 177 18342742871082619273
12032990 46 18342170038662995243
12236239 1 18040433275130193227
12403259 226 18409453608836626592
12916754 54 18334572468737999459
13140716 1 18267311013467175880
13583140 156 14635154585377378951
14178342 30 18124894592335994666
14223421 5 18409452483534141544
14787075 74 17984985886449930585
14866123 147 16386758234510323826
15196674 1 18412263926350250103
15219456 202 18410858737299153878
15442244 35 18268712877849393098
15536298 74 18410012122120323726
16945 1 18340490079221289323
17804303 29 18338231677947911742
18186145 218 18131636689873281927
200 152 18113625594647162335
20510252 161 18408888434111290769
20645477 70 18407761434545322198
20871999 31 18268412707281288278
21029758 11 18338242540531977053
21267235 1 18341040883186915931
21501502 16 18340483469103174924
221490 88 18411412925857070338
2334 1 18413110584442063852
23402539 116 18265625290010378277
23463225 33 18342738481689372367
23558518 356 18271237308996418305
23559900 14 18409735066839098948
2748010 2 18341337764063234732
2871803 45 18271812332324305303
3286 77 18340488958493229814
335352 9 18268148832726654503
34934 24 18266467516154839167
350125 39 18339075003271639184
5104073 3 18411699885348516507
7097593 13 17555189303545299843
7364860 26 18334295353854519246
81228 2 18201431471970319145
8809292 202 18201714055143563819
9709674 26 18340484478478667706

> <PUBCHEM_SHAPE_MULTIPOLES>
362.55
7.95
2.72
0.74
1.73
1.36
0
-1.36
-0.01
0.06
0.2
0.31
0.05
0.71

> <PUBCHEM_SHAPE_SELFOVERLAP>
804.941

> <PUBCHEM_SHAPE_VOLUME>
196.4

> <PUBCHEM_COORDINATE_TYPE>
2
5
10

$$$$

