5182
  -OEChem-06261200342D

 87 90  0     1  0  0  0  0  0999 V2000
   15.9185    1.6488    0.0000 O   0  0  0  0  0  0  0  0  0  0  0  0
   19.4486   -0.3754    0.0000 O   0  0  0  0  0  0  0  0  0  0  0  0
   19.4486    1.6729    0.0000 O   0  0  0  0  0  0  0  0  0  0  0  0
   14.1701    2.6833    0.0000 O   0  0  0  0  0  0  0  0  0  0  0  0
    8.0564    0.1079    0.0000 O   0  0  0  0  0  0  0  0  0  0  0  0
    9.8000   -2.8854    0.0000 O   0  0  0  0  0  0  0  0  0  0  0  0
   16.7845    0.1487    0.0000 C   0  0  3  0  0  0  0  0  0  0  0  0
   17.6785   -0.3859    0.0000 C   0  0  0  0  0  0  0  0  0  0  0  0
   16.7845    1.1488    0.0000 C   0  0  3  0  0  0  0  0  0  0  0  0
   18.5845    0.1279    0.0000 C   0  0  3  0  0  0  0  0  0  0  0  0
   17.6785    1.6834    0.0000 C   0  0  0  0  0  0  0  0  0  0  0  0
   18.5845    1.1696    0.0000 C   0  0  3  0  0  0  0  0  0  0  0  0
   15.9185   -0.3513    0.0000 C   0  0  0  0  0  0  0  0  0  0  0  0
   18.1684   -1.2577    0.0000 C   0  0  0  0  0  0  0  0  0  0  0  0
   17.1685   -1.2461    0.0000 C   0  0  0  0  0  0  0  0  0  0  0  0
   16.7845    2.1488    0.0000 C   0  0  0  0  0  0  0  0  0  0  0  0
   15.0525    0.1487    0.0000 C   0  0  0  0  0  0  0  0  0  0  0  0
   15.0525    1.1488    0.0000 C   0  0  0  0  0  0  0  0  0  0  0  0
   14.1585   -0.3859    0.0000 C   0  0  0  0  0  0  0  0  0  0  0  0
   14.1585    1.6834    0.0000 C   0  0  0  0  0  0  0  0  0  0  0  0
   13.2525    0.1279    0.0000 C   0  0  0  0  0  0  0  0  0  0  0  0
   13.2525    1.1696    0.0000 C   0  0  0  0  0  0  0  0  0  0  0  0
   12.3884   -0.3754    0.0000 C   0  0  0  0  0  0  0  0  0  0  0  0
   13.3099    3.1933    0.0000 C   0  0  0  0  0  0  0  0  0  0  0  0
   11.5204    0.1213    0.0000 C   0  0  0  0  0  0  0  0  0  0  0  0
   10.6563   -0.3821    0.0000 C   0  0  0  0  0  0  0  0  0  0  0  0
   10.6602   -1.3821    0.0000 C   0  0  0  0  0  0  0  0  0  0  0  0
    9.7884    0.1146    0.0000 C   0  0  0  0  0  0  0  0  0  0  0  0
    8.9243   -0.3888    0.0000 C   0  0  0  0  0  0  0  0  0  0  0  0
    9.7961   -1.8854    0.0000 C   0  0  0  0  0  0  0  0  0  0  0  0
    8.9282   -1.3888    0.0000 C   0  0  0  0  0  0  0  0  0  0  0  0
    8.0641   -1.8921    0.0000 C   0  0  0  0  0  0  0  0  0  0  0  0
    7.1961   -1.3954    0.0000 C   0  0  0  0  0  0  0  0  0  0  0  0
    6.3320   -1.8988    0.0000 C   0  0  0  0  0  0  0  0  0  0  0  0
    5.4641   -1.4021    0.0000 C   0  0  0  0  0  0  0  0  0  0  0  0
    4.6000   -1.9054    0.0000 C   0  0  0  0  0  0  0  0  0  0  0  0
    6.3359   -2.8988    0.0000 C   0  0  0  0  0  0  0  0  0  0  0  0
    3.7320   -1.4088    0.0000 C   0  0  0  0  0  0  0  0  0  0  0  0
    2.8680   -1.9121    0.0000 C   0  0  0  0  0  0  0  0  0  0  0  0
    2.0000   -1.4155    0.0000 C   0  0  0  0  0  0  0  0  0  0  0  0
    2.8718   -2.9121    0.0000 C   0  0  0  0  0  0  0  0  0  0  0  0
   16.7797   -0.4712    0.0000 H   0  0  0  0  0  0  0  0  0  0  0  0
   18.5809   -0.4921    0.0000 H   0  0  0  0  0  0  0  0  0  0  0  0
   18.0721    2.1624    0.0000 H   0  0  0  0  0  0  0  0  0  0  0  0
   17.2739    2.1532    0.0000 H   0  0  0  0  0  0  0  0  0  0  0  0
   18.5809    1.7896    0.0000 H   0  0  0  0  0  0  0  0  0  0  0  0
   15.5200   -0.8262    0.0000 H   0  0  0  0  0  0  0  0  0  0  0  0
   16.3170   -0.8262    0.0000 H   0  0  0  0  0  0  0  0  0  0  0  0
   17.6279   -1.5614    0.0000 H   0  0  0  0  0  0  0  0  0  0  0  0
   18.4722   -1.7982    0.0000 H   0  0  0  0  0  0  0  0  0  0  0  0
   18.7089   -0.9539    0.0000 H   0  0  0  0  0  0  0  0  0  0  0  0
   16.6352   -0.9299    0.0000 H   0  0  0  0  0  0  0  0  0  0  0  0
   16.8523   -1.7794    0.0000 H   0  0  0  0  0  0  0  0  0  0  0  0
   17.7018   -1.5623    0.0000 H   0  0  0  0  0  0  0  0  0  0  0  0
   17.4045    2.1488    0.0000 H   0  0  0  0  0  0  0  0  0  0  0  0
   16.7845    2.7688    0.0000 H   0  0  0  0  0  0  0  0  0  0  0  0
   16.1645    2.1488    0.0000 H   0  0  0  0  0  0  0  0  0  0  0  0
   19.9868   -0.0675    0.0000 H   0  0  0  0  0  0  0  0  0  0  0  0
   19.4462    2.2929    0.0000 H   0  0  0  0  0  0  0  0  0  0  0  0
   14.1657   -1.0059    0.0000 H   0  0  0  0  0  0  0  0  0  0  0  0
   12.7167    1.4816    0.0000 H   0  0  0  0  0  0  0  0  0  0  0  0
   12.3908   -0.9954    0.0000 H   0  0  0  0  0  0  0  0  0  0  0  0
   13.6261    3.7266    0.0000 H   0  0  0  0  0  0  0  0  0  0  0  0
   12.7766    3.5095    0.0000 H   0  0  0  0  0  0  0  0  0  0  0  0
   12.9937    2.6600    0.0000 H   0  0  0  0  0  0  0  0  0  0  0  0
   11.5180    0.7413    0.0000 H   0  0  0  0  0  0  0  0  0  0  0  0
   11.1983   -1.6900    0.0000 H   0  0  0  0  0  0  0  0  0  0  0  0
    9.7860    0.7346    0.0000 H   0  0  0  0  0  0  0  0  0  0  0  0
    7.6674   -2.3686    0.0000 H   0  0  0  0  0  0  0  0  0  0  0  0
    8.4644   -2.3655    0.0000 H   0  0  0  0  0  0  0  0  0  0  0  0
    8.0540    0.7279    0.0000 H   0  0  0  0  0  0  0  0  0  0  0  0
   10.3381   -3.1933    0.0000 H   0  0  0  0  0  0  0  0  0  0  0  0
    7.1937   -0.7754    0.0000 H   0  0  0  0  0  0  0  0  0  0  0  0
    5.8608   -0.9256    0.0000 H   0  0  0  0  0  0  0  0  0  0  0  0
    5.0637   -0.9287    0.0000 H   0  0  0  0  0  0  0  0  0  0  0  0
    4.2033   -2.3819    0.0000 H   0  0  0  0  0  0  0  0  0  0  0  0
    5.0003   -2.3788    0.0000 H   0  0  0  0  0  0  0  0  0  0  0  0
    5.7159   -2.9011    0.0000 H   0  0  0  0  0  0  0  0  0  0  0  0
    6.3383   -3.5187    0.0000 H   0  0  0  0  0  0  0  0  0  0  0  0
    6.9559   -2.8964    0.0000 H   0  0  0  0  0  0  0  0  0  0  0  0
    3.7296   -0.7888    0.0000 H   0  0  0  0  0  0  0  0  0  0  0  0
    2.2518   -2.9145    0.0000 H   0  0  0  0  0  0  0  0  0  0  0  0
    2.8742   -3.5321    0.0000 H   0  0  0  0  0  0  0  0  0  0  0  0
    3.4918   -2.9097    0.0000 H   0  0  0  0  0  0  0  0  0  0  0  0
    2.3079   -0.8773    0.0000 H   0  0  0  0  0  0  0  0  0  0  0  0
    1.4619   -1.1075    0.0000 H   0  0  0  0  0  0  0  0  0  0  0  0
    1.6921   -1.9536    0.0000 H   0  0  0  0  0  0  0  0  0  0  0  0
  1  9  1  0  0  0  0
  1 18  1  0  0  0  0
  2 10  1  0  0  0  0
  2 58  1  0  0  0  0
  3 12  1  0  0  0  0
  3 59  1  0  0  0  0
  4 20  1  0  0  0  0
  4 24  1  0  0  0  0
  5 29  1  0  0  0  0
  5 71  1  0  0  0  0
  6 30  1  0  0  0  0
  6 72  1  0  0  0  0
  7  8  1  0  0  0  0
  7  9  1  0  0  0  0
  7 13  1  0  0  0  0
  7 42  1  0  0  0  0
  8 10  1  0  0  0  0
  8 14  1  0  0  0  0
  8 15  1  0  0  0  0
  9 11  1  0  0  0  0
  9 16  1  0  0  0  0
 10 12  1  0  0  0  0
 10 43  1  0  0  0  0
 11 12  1  0  0  0  0
 11 44  1  0  0  0  0
 11 45  1  0  0  0  0
 12 46  1  0  0  0  0
 13 17  1  0  0  0  0
 13 47  1  0  0  0  0
 13 48  1  0  0  0  0
 14 49  1  0  0  0  0
 14 50  1  0  0  0  0
 14 51  1  0  0  0  0
 15 52  1  0  0  0  0
 15 53  1  0  0  0  0
 15 54  1  0  0  0  0
 16 55  1  0  0  0  0
 16 56  1  0  0  0  0
 16 57  1  0  0  0  0
 17 18  2  0  0  0  0
 17 19  1  0  0  0  0
 18 20  1  0  0  0  0
 19 21  2  0  0  0  0
 19 60  1  0  0  0  0
 20 22  2  0  0  0  0
 21 22  1  0  0  0  0
 21 23  1  0  0  0  0
 22 61  1  0  0  0  0
 23 25  2  3  0  0  0
 23 62  1  0  0  0  0
 24 63  1  0  0  0  0
 24 64  1  0  0  0  0
 24 65  1  0  0  0  0
 25 26  1  0  0  0  0
 25 66  1  0  0  0  0
 26 27  2  0  0  0  0
 26 28  1  0  0  0  0
 27 30  1  0  0  0  0
 27 67  1  0  0  0  0
 28 29  2  0  0  0  0
 28 68  1  0  0  0  0
 29 31  1  0  0  0  0
 30 31  2  0  0  0  0
 31 32  1  0  0  0  0
 32 33  1  0  0  0  0
 32 69  1  0  0  0  0
 32 70  1  0  0  0  0
 33 34  2  3  0  0  0
 33 73  1  0  0  0  0
 34 35  1  0  0  0  0
 34 37  1  0  0  0  0
 35 36  1  0  0  0  0
 35 74  1  0  0  0  0
 35 75  1  0  0  0  0
 36 38  1  0  0  0  0
 36 76  1  0  0  0  0
 36 77  1  0  0  0  0
 37 78  1  0  0  0  0
 37 79  1  0  0  0  0
 37 80  1  0  0  0  0
 38 39  2  0  0  0  0
 38 81  1  0  0  0  0
 39 40  1  0  0  0  0
 39 41  1  0  0  0  0
 40 85  1  0  0  0  0
 40 86  1  0  0  0  0
 40 87  1  0  0  0  0
 41 82  1  0  0  0  0
 41 83  1  0  0  0  0
 41 84  1  0  0  0  0
M  END
> <PUBCHEM_COMPOUND_CID>
5182

> <PUBCHEM_COMPOUND_CANONICALIZED>
1

> <PUBCHEM_CACTVS_COMPLEXITY>
954

> <PUBCHEM_CACTVS_HBOND_ACCEPTOR>
6

> <PUBCHEM_CACTVS_HBOND_DONOR>
4

> <PUBCHEM_CACTVS_ROTATABLE_BOND>
8

> <PUBCHEM_CACTVS_SUBSKEYS>
AAADcfB8OAAAAAAAAAAAAAAAAAAAAAAAAAA0YMEAAAAAAACRQAAAGgAACAAAD1SgmAIyBoAABgCAAiBCAAACCAAgIAAIiAAGiIgNNyKGMRqCeCKlwBULuAfA4PwP4AADCAAIQADCAAYQADCAAAAAAAAAAA==

> <PUBCHEM_IUPAC_OPENEYE_NAME>
7-[2-[4-(3,7-dimethylocta-2,6-dienyl)-3,5-dihydroxy-phenyl]vinyl]-5-methoxy-1,1,4a-trimethyl-3,4,9,9a-tetrahydro-2H-xanthene-2,3-diol

> <PUBCHEM_IUPAC_CAS_NAME>
7-[2-[4-(3,7-dimethylocta-2,6-dienyl)-3,5-dihydroxyphenyl]ethenyl]-5-methoxy-1,1,4a-trimethyl-3,4,9,9a-tetrahydro-2H-xanthene-2,3-diol

> <PUBCHEM_IUPAC_NAME>
7-[2-[4-(3,7-dimethylocta-2,6-dienyl)-3,5-dihydroxyphenyl]ethenyl]-5-methoxy-1,1,4a-trimethyl-3,4,9,9a-tetrahydro-2H-xanthene-2,3-diol

> <PUBCHEM_IUPAC_SYSTEMATIC_NAME>
7-[2-[4-(3,7-dimethylocta-2,6-dienyl)-3,5-bis(oxidanyl)phenyl]ethenyl]-5-methoxy-1,1,4a-trimethyl-3,4,9,9a-tetrahydro-2H-xanthene-2,3-diol

> <PUBCHEM_IUPAC_TRADITIONAL_NAME>
7-[2-[4-(3,7-dimethylocta-2,6-dienyl)-3,5-dihydroxy-phenyl]vinyl]-5-methoxy-1,1,4a-trimethyl-3,4,9,9a-tetrahydro-2H-xanthene-2,3-diol

> <PUBCHEM_IUPAC_INCHI>
InChI=1S/C35H46O6/c1-21(2)9-8-10-22(3)11-14-26-27(36)16-24(17-28(26)37)13-12-23-15-25-19-31-34(4,5)33(39)29(38)20-35(31,6)41-32(25)30(18-23)40-7/h9,11-13,15-18,29,31,33,36-39H,8,10,14,19-20H2,1-7H3

> <PUBCHEM_IUPAC_INCHIKEY>
UPTXDGJFJGCFDE-UHFFFAOYSA-N

> <PUBCHEM_XLOGP3_AA>
7.8

> <PUBCHEM_EXACT_MASS>
562.329439

> <PUBCHEM_MOLECULAR_FORMULA>
C35H46O6

> <PUBCHEM_MOLECULAR_WEIGHT>
562.73614

> <PUBCHEM_OPENEYE_CAN_SMILES>
CC(=CCCC(=CCC1=C(C=C(C=C1O)C=CC2=CC3=C(C(=C2)OC)OC4(CC(C(C(C4C3)(C)C)O)O)C)O)C)C

> <PUBCHEM_OPENEYE_ISO_SMILES>
CC(=CCCC(=CCC1=C(C=C(C=C1O)C=CC2=CC3=C(C(=C2)OC)OC4(CC(C(C(C4C3)(C)C)O)O)C)O)C)C

> <PUBCHEM_CACTVS_TPSA>
99.4

> <PUBCHEM_MONOISOTOPIC_WEIGHT>
562.329439

> <PUBCHEM_TOTAL_CHARGE>
0

> <PUBCHEM_HEAVY_ATOM_COUNT>
41

> <PUBCHEM_ATOM_DEF_STEREO_COUNT>
0

> <PUBCHEM_ATOM_UDEF_STEREO_COUNT>
4

> <PUBCHEM_BOND_DEF_STEREO_COUNT>
0

> <PUBCHEM_BOND_UDEF_STEREO_COUNT>
2

> <PUBCHEM_ISOTOPIC_ATOM_COUNT>
0

> <PUBCHEM_COMPONENT_COUNT>
1

> <PUBCHEM_CACTVS_TAUTO_COUNT>
5

> <PUBCHEM_COORDINATE_TYPE>
1
5
255

> <PUBCHEM_BONDANNOTATIONS>
17  18  8
17  19  8
18  20  8
19  21  8
10  2  3
20  22  8
21  22  8
23  25  1
26  27  8
26  28  8
27  30  8
28  29  8
29  31  8
12  3  3
30  31  8
33  34  1
7  13  3
9  16  3

$$$$

