14374
  -OEChem-06241222433D

 35 36  0     0  0  0  0  0  0999 V2000
    3.9825   -2.0109   -0.0750 O   0  5  0  0  0  0  0  0  0  0  0  0
    2.0083   -2.8499    0.3917 O   0  0  0  0  0  0  0  0  0  0  0  0
   -2.4028   -0.5837   -0.0746 N   0  0  0  0  0  0  0  0  0  0  0  0
    0.3142    3.0968   -0.0563 N   0  0  0  0  0  0  0  0  0  0  0  0
    2.7528   -1.8744    0.1316 N   0  3  0  0  0  0  0  0  0  0  0  0
   -2.2724    0.6411    0.7268 C   0  0  0  0  0  0  0  0  0  0  0  0
   -1.0528    1.4104    0.4069 C   0  0  0  0  0  0  0  0  0  0  0  0
    0.2585    0.8856    0.2349 C   0  0  0  0  0  0  0  0  0  0  0  0
    1.0969    1.9642   -0.0550 C   0  0  0  0  0  0  0  0  0  0  0  0
   -2.4575   -0.2530   -1.4955 C   0  0  0  0  0  0  0  0  0  0  0  0
   -3.5932   -1.3261    0.3296 C   0  0  0  0  0  0  0  0  0  0  0  0
   -0.9864    2.7722    0.2221 C   0  0  0  0  0  0  0  0  0  0  0  0
    0.8145   -0.4076    0.2981 C   0  0  0  0  0  0  0  0  0  0  0  0
    2.4689    1.8137   -0.2858 C   0  0  0  0  0  0  0  0  0  0  0  0
   -2.5925   -1.5048   -2.3458 C   0  0  0  0  0  0  0  0  0  0  0  0
   -3.5221   -1.7219    1.7947 C   0  0  0  0  0  0  0  0  0  0  0  0
    2.1853   -0.5734    0.0694 C   0  0  0  0  0  0  0  0  0  0  0  0
    2.9980    0.5216   -0.2178 C   0  0  0  0  0  0  0  0  0  0  0  0
   -2.1869    0.4050    1.7936 H   0  0  0  0  0  0  0  0  0  0  0  0
   -3.1627    1.2747    0.6113 H   0  0  0  0  0  0  0  0  0  0  0  0
   -3.2890    0.4272   -1.7221 H   0  0  0  0  0  0  0  0  0  0  0  0
   -1.5392    0.2434   -1.8262 H   0  0  0  0  0  0  0  0  0  0  0  0
   -4.5156   -0.7621    0.1417 H   0  0  0  0  0  0  0  0  0  0  0  0
   -3.6677   -2.2704   -0.2190 H   0  0  0  0  0  0  0  0  0  0  0  0
   -1.7460    3.5405    0.2627 H   0  0  0  0  0  0  0  0  0  0  0  0
    0.6518    4.0321   -0.2368 H   0  0  0  0  0  0  0  0  0  0  0  0
    0.1735   -1.2515    0.5341 H   0  0  0  0  0  0  0  0  0  0  0  0
    3.1020    2.6657   -0.5095 H   0  0  0  0  0  0  0  0  0  0  0  0
   -1.8702   -2.2748   -2.0538 H   0  0  0  0  0  0  0  0  0  0  0  0
   -3.6012   -1.9281   -2.3144 H   0  0  0  0  0  0  0  0  0  0  0  0
   -2.3947   -1.2561   -3.3948 H   0  0  0  0  0  0  0  0  0  0  0  0
   -2.5515   -2.1601    2.0518 H   0  0  0  0  0  0  0  0  0  0  0  0
   -3.7243   -0.8823    2.4667 H   0  0  0  0  0  0  0  0  0  0  0  0
   -4.2863   -2.4785    2.0069 H   0  0  0  0  0  0  0  0  0  0  0  0
    4.0651    0.4099   -0.3981 H   0  0  0  0  0  0  0  0  0  0  0  0
  1  5  1  0  0  0  0
  2  5  2  0  0  0  0
  3  6  1  0  0  0  0
  3 10  1  0  0  0  0
  3 11  1  0  0  0  0
  4  9  1  0  0  0  0
  4 12  1  0  0  0  0
  4 26  1  0  0  0  0
  5 17  1  0  0  0  0
  6  7  1  0  0  0  0
  6 19  1  0  0  0  0
  6 20  1  0  0  0  0
  7  8  1  0  0  0  0
  7 12  2  0  0  0  0
  8  9  2  0  0  0  0
  8 13  1  0  0  0  0
  9 14  1  0  0  0  0
 10 15  1  0  0  0  0
 10 21  1  0  0  0  0
 10 22  1  0  0  0  0
 11 16  1  0  0  0  0
 11 23  1  0  0  0  0
 11 24  1  0  0  0  0
 12 25  1  0  0  0  0
 13 17  2  0  0  0  0
 13 27  1  0  0  0  0
 14 18  2  0  0  0  0
 14 28  1  0  0  0  0
 15 29  1  0  0  0  0
 15 30  1  0  0  0  0
 15 31  1  0  0  0  0
 16 32  1  0  0  0  0
 16 33  1  0  0  0  0
 16 34  1  0  0  0  0
 17 18  1  0  0  0  0
 18 35  1  0  0  0  0
M  CHG  2   1  -1   5   1
M  END
> <PUBCHEM_COMPOUND_CID>
14374

> <PUBCHEM_CONFORMER_RMSD>
0.6

> <PUBCHEM_CONFORMER_DIVERSEORDER>
1
2
15
3
4
14
11
8
13
7
12
6
5
9
10

> <PUBCHEM_MMFF94_PARTIAL_CHARGES>
20
1 -0.52
10 0.27
11 0.27
12 -0.3
13 -0.15
14 -0.15
17 0.13
18 -0.15
2 -0.52
25 0.15
26 0.27
27 0.15
28 0.15
3 -0.81
35 0.15
4 0.03
5 0.91
6 0.45
7 -0.18
9 -0.15

> <PUBCHEM_EFFECTIVE_ROTOR_COUNT>
5

> <PUBCHEM_PHARMACOPHORE_FEATURES>
8
1 1 acceptor
1 1 anion
1 2 acceptor
1 3 cation
1 4 cation
1 4 donor
5 4 7 8 9 12 rings
6 8 9 13 14 17 18 rings

> <PUBCHEM_HEAVY_ATOM_COUNT>
18

> <PUBCHEM_ATOM_DEF_STEREO_COUNT>
0

> <PUBCHEM_ATOM_UDEF_STEREO_COUNT>
0

> <PUBCHEM_BOND_DEF_STEREO_COUNT>
0

> <PUBCHEM_BOND_UDEF_STEREO_COUNT>
0

> <PUBCHEM_ISOTOPIC_ATOM_COUNT>
0

> <PUBCHEM_COMPONENT_COUNT>
1

> <PUBCHEM_CACTVS_TAUTO_COUNT>
1

> <PUBCHEM_CONFORMER_ID>
0000382600000001

> <PUBCHEM_MMFF94_ENERGY>
37.4217

> <PUBCHEM_FEATURE_SELFOVERLAP>
40.768

> <PUBCHEM_SHAPE_FINGERPRINT>
10967382 1 18267296526462936344
11321824 6 17830468523600746271
12553582 1 18335702719510159510
13140716 1 18336822116868184232
14251705 54 18341887468052880011
15375462 189 18042399145299897193
15422964 175 18270393893683963137
16945 1 18193844742801390520
18522851 268 17274262738560689983
20291156 8 18335137591902622615
20645477 70 18198632021345978955
20871998 184 17900822956963314548
21160774 45 16250824937420569669
21634736 98 18410571816731121598
21731516 1 18187372008163851287
22112679 90 17097766868954721413
221490 88 18342728607591285482
22445834 79 18189326892883761345
2255824 54 17977944588174216341
2334 1 18410011043941198656
23388829 49 18335146362468791364
23419403 2 16398113693784995056
23526113 38 18129404647404712143
23598291 2 17824533064003643925
23728640 28 17474399444051931363
238 59 17693131511531386839
2748010 2 18410017666780905460
34934 24 18409448115457676961
6338986 31 18263104212879727644
81228 2 18051151455272918361

> <PUBCHEM_SHAPE_MULTIPOLES>
343.75
6.09
3.24
1.32
1.15
0.4
0.58
-4.25
-0.26
-1.94
-0.29
1.95
-0.69
-0.26

> <PUBCHEM_SHAPE_SELFOVERLAP>
728.03

> <PUBCHEM_SHAPE_VOLUME>
195.8

> <PUBCHEM_COORDINATE_TYPE>
2
5
10

$$$$

