9947823
  -OEChem-07051213093D

 51 51  0     0  0  0  0  0  0999 V2000
    7.6339   -1.2158    0.4773 O   0  0  0  0  0  0  0  0  0  0  0  0
   -4.1592    0.0205   -0.5595 C   0  0  0  0  0  0  0  0  0  0  0  0
   -5.0628   -1.2226   -0.3335 C   0  0  0  0  0  0  0  0  0  0  0  0
   -4.2766   -2.5204   -0.3801 C   0  0  0  0  0  0  0  0  0  0  0  0
   -2.8468   -0.0746    0.2539 C   0  0  0  0  0  0  0  0  0  0  0  0
   -3.2138   -2.5253    0.7081 C   0  0  0  0  0  0  0  0  0  0  0  0
   -2.4435   -1.2275    0.8449 C   0  0  0  0  0  0  0  0  0  0  0  0
   -5.0109    1.2468   -0.1495 C   0  0  0  0  0  0  0  0  0  0  0  0
   -3.8277    0.1340   -2.0652 C   0  0  0  0  0  0  0  0  0  0  0  0
   -2.0608    1.1463    0.3229 C   0  0  0  0  0  0  0  0  0  0  0  0
   -1.2087   -1.3968    1.6997 C   0  0  0  0  0  0  0  0  0  0  0  0
   -0.7224    1.1641    0.2213 C   0  0  0  0  0  0  0  0  0  0  0  0
    0.1456    2.3455    0.2799 C   0  0  0  0  0  0  0  0  0  0  0  0
   -0.5246    3.6830    0.4743 C   0  0  0  0  0  0  0  0  0  0  0  0
    1.4787    2.1656    0.1578 C   0  0  0  0  0  0  0  0  0  0  0  0
    2.1930    0.9165   -0.0302 C   0  0  0  0  0  0  0  0  0  0  0  0
    3.5318    0.8586   -0.1398 C   0  0  0  0  0  0  0  0  0  0  0  0
    4.3450   -0.3465   -0.3310 C   0  0  0  0  0  0  0  0  0  0  0  0
    3.6242   -1.6662   -0.4192 C   0  0  0  0  0  0  0  0  0  0  0  0
    5.6850   -0.2109   -0.4201 C   0  0  0  0  0  0  0  0  0  0  0  0
    6.7207   -1.2744   -0.6122 C   0  0  0  0  0  0  0  0  0  0  0  0
   -5.8642   -1.2556   -1.0824 H   0  0  0  0  0  0  0  0  0  0  0  0
   -5.5602   -1.1519    0.6441 H   0  0  0  0  0  0  0  0  0  0  0  0
   -3.8101   -2.6528   -1.3630 H   0  0  0  0  0  0  0  0  0  0  0  0
   -4.9509   -3.3728   -0.2379 H   0  0  0  0  0  0  0  0  0  0  0  0
   -2.5182   -3.3478    0.5002 H   0  0  0  0  0  0  0  0  0  0  0  0
   -3.6880   -2.7454    1.6734 H   0  0  0  0  0  0  0  0  0  0  0  0
   -5.1573    1.2860    0.9362 H   0  0  0  0  0  0  0  0  0  0  0  0
   -4.5588    2.1925   -0.4673 H   0  0  0  0  0  0  0  0  0  0  0  0
   -6.0028    1.2068   -0.6160 H   0  0  0  0  0  0  0  0  0  0  0  0
   -3.1951   -0.6923   -2.4072 H   0  0  0  0  0  0  0  0  0  0  0  0
   -4.7401    0.1305   -2.6724 H   0  0  0  0  0  0  0  0  0  0  0  0
   -3.2942    1.0652   -2.2890 H   0  0  0  0  0  0  0  0  0  0  0  0
   -2.6032    2.0643    0.5171 H   0  0  0  0  0  0  0  0  0  0  0  0
   -1.4146   -2.1007    2.5153 H   0  0  0  0  0  0  0  0  0  0  0  0
   -0.8896   -0.4773    2.1967 H   0  0  0  0  0  0  0  0  0  0  0  0
   -0.3836   -1.8093    1.1106 H   0  0  0  0  0  0  0  0  0  0  0  0
   -0.2573    0.2202   -0.0260 H   0  0  0  0  0  0  0  0  0  0  0  0
    0.2123    4.4938    0.4958 H   0  0  0  0  0  0  0  0  0  0  0  0
   -1.2178    3.8976   -0.3459 H   0  0  0  0  0  0  0  0  0  0  0  0
   -1.0684    3.7148    1.4244 H   0  0  0  0  0  0  0  0  0  0  0  0
    2.1058    3.0557    0.2037 H   0  0  0  0  0  0  0  0  0  0  0  0
    1.6426   -0.0122   -0.0762 H   0  0  0  0  0  0  0  0  0  0  0  0
    4.0889    1.7942   -0.0869 H   0  0  0  0  0  0  0  0  0  0  0  0
    3.0666   -1.8625    0.5034 H   0  0  0  0  0  0  0  0  0  0  0  0
    4.2890   -2.5191   -0.5686 H   0  0  0  0  0  0  0  0  0  0  0  0
    2.9233   -1.6665   -1.2615 H   0  0  0  0  0  0  0  0  0  0  0  0
    6.1087    0.7919   -0.3514 H   0  0  0  0  0  0  0  0  0  0  0  0
    7.2806   -1.0765   -1.5314 H   0  0  0  0  0  0  0  0  0  0  0  0
    6.3282   -2.2899   -0.6735 H   0  0  0  0  0  0  0  0  0  0  0  0
    7.1433   -1.4478    1.2847 H   0  0  0  0  0  0  0  0  0  0  0  0
  1 21  1  0  0  0  0
  1 51  1  0  0  0  0
  2  3  1  0  0  0  0
  2  5  1  0  0  0  0
  2  8  1  0  0  0  0
  2  9  1  0  0  0  0
  3  4  1  0  0  0  0
  3 22  1  0  0  0  0
  3 23  1  0  0  0  0
  4  6  1  0  0  0  0
  4 24  1  0  0  0  0
  4 25  1  0  0  0  0
  5  7  2  0  0  0  0
  5 10  1  0  0  0  0
  6  7  1  0  0  0  0
  6 26  1  0  0  0  0
  6 27  1  0  0  0  0
  7 11  1  0  0  0  0
  8 28  1  0  0  0  0
  8 29  1  0  0  0  0
  8 30  1  0  0  0  0
  9 31  1  0  0  0  0
  9 32  1  0  0  0  0
  9 33  1  0  0  0  0
 10 12  2  0  0  0  0
 10 34  1  0  0  0  0
 11 35  1  0  0  0  0
 11 36  1  0  0  0  0
 11 37  1  0  0  0  0
 12 13  1  0  0  0  0
 12 38  1  0  0  0  0
 13 14  1  0  0  0  0
 13 15  2  0  0  0  0
 14 39  1  0  0  0  0
 14 40  1  0  0  0  0
 14 41  1  0  0  0  0
 15 16  1  0  0  0  0
 15 42  1  0  0  0  0
 16 17  2  0  0  0  0
 16 43  1  0  0  0  0
 17 18  1  0  0  0  0
 17 44  1  0  0  0  0
 18 19  1  0  0  0  0
 18 20  2  0  0  0  0
 19 45  1  0  0  0  0
 19 46  1  0  0  0  0
 19 47  1  0  0  0  0
 20 21  1  0  0  0  0
 20 48  1  0  0  0  0
 21 49  1  0  0  0  0
 21 50  1  0  0  0  0
M  END
> <PUBCHEM_COMPOUND_CID>
9947823

> <PUBCHEM_CONFORMER_RMSD>
0.8

> <PUBCHEM_CONFORMER_DIVERSEORDER>
1
25
13
22
23
2
7
21
9
17
15
6
4
20
3
18
16
19
8
5
11
24
12
10
14

> <PUBCHEM_MMFF94_PARTIAL_CHARGES>
24
1 -0.68
10 -0.15
11 0.14
12 -0.15
13 -0.14
14 0.14
15 -0.15
16 -0.15
17 -0.15
18 -0.14
19 0.14
2 0.14
20 -0.29
21 0.42
34 0.15
38 0.15
42 0.15
43 0.15
44 0.15
48 0.15
5 -0.14
51 0.4
6 0.14
7 -0.28

> <PUBCHEM_EFFECTIVE_ROTOR_COUNT>
5.8

> <PUBCHEM_PHARMACOPHORE_FEATURES>
6
1 1 acceptor
1 1 donor
1 14 hydrophobe
1 19 hydrophobe
3 2 8 9 hydrophobe
6 2 3 4 5 6 7 rings

> <PUBCHEM_HEAVY_ATOM_COUNT>
21

> <PUBCHEM_ATOM_DEF_STEREO_COUNT>
0

> <PUBCHEM_ATOM_UDEF_STEREO_COUNT>
0

> <PUBCHEM_BOND_DEF_STEREO_COUNT>
4

> <PUBCHEM_BOND_UDEF_STEREO_COUNT>
0

> <PUBCHEM_ISOTOPIC_ATOM_COUNT>
0

> <PUBCHEM_COMPONENT_COUNT>
1

> <PUBCHEM_CACTVS_TAUTO_COUNT>
1

> <PUBCHEM_CONFORMER_ID>
0097CAAF00000001

> <PUBCHEM_MMFF94_ENERGY>
50.4727

> <PUBCHEM_FEATURE_SELFOVERLAP>
30.446

> <PUBCHEM_SHAPE_FINGERPRINT>
10165383 225 17988086720622715045
10369192 42 11887667390512585130
10693767 8 17611763202123477087
10803635 8 17775571961289185862
11315181 36 18040432196344335496
11393246 34 17970054742653828310
12166972 35 17989201508725891582
12363563 72 18335126562505896716
12555020 224 18412550886195435247
12596602 18 14996004363396697566
12760667 363 18335700572121404852
12788726 201 18268996560291958688
12892183 10 5328475773695767540
13402501 40 18410008836586672766
13631057 29 18409164450843658704
13761468 95 16054650549180874924
14251740 79 18131632304748543921
14251752 14 17203617016558690726
14790565 3 17616810376700360977
14866123 147 18263356053231332481
14931854 50 18130792286544833822
15052358 14 18342750628231594589
15163728 17 15265689302903713527
15183329 4 16702307854017824106
15352361 1 18409163299190997526
15880784 105 17167868547675786440
17492 89 18048317743663023567
17857418 61 18411980295663810912
17870717 6 18202283580855075199
20374829 77 18411136935395146336
20403669 9 18334568045174801462
20645477 70 18267871583766134864
21033650 10 17131560517168477877
21403212 168 18189321524960917769
21756936 100 10519698956617953136
23198884 109 15267059255029834292
23402539 116 18408040736320990508
23403322 49 18410008797836638177
23559900 14 18339085878145092384
255183 313 17975111438873372241
2838139 119 10879986927129118546
3004659 81 18130790045035706576
329604 57 18411131434180395732
335352 9 18410293627726490061
3421961 26 18189617146636897336
4280585 95 18343868823009494128
44062 13 18341332189312021215
46194498 28 17558834979376422949
463206 1 18265610987733041166
5283173 99 18273220815262409660
559249 180 18408603673800778197
6138700 20 18411419531268812747
6431902 208 18335702758592198166
9709674 26 18053383198010869665
9862886 166 18272653463467896710

> <PUBCHEM_SHAPE_MULTIPOLES>
426.3
15.21
3.16
1.12
25.9
1.53
-0.17
-10.05
-3.4
-1.37
0.64
-0.99
-0.28
0.54

> <PUBCHEM_SHAPE_SELFOVERLAP>
848.849

> <PUBCHEM_SHAPE_VOLUME>
252.7

> <PUBCHEM_COORDINATE_TYPE>
2
5
10

$$$$

