85599
  -OEChem-07051213152D

 71 76  0     0  0  0  0  0  0999 V2000
    4.6478   -0.0309    0.0000 Cl  0  0  0  0  0  0  0  0  0  0  0  0
    8.1962    6.0076    0.0000 S   0  0  0  0  0  0  0  0  0  0  0  0
    9.8552    0.9089    0.0000 S   0  0  0  0  0  0  0  0  0  0  0  0
    4.5784   -6.0305    0.0000 S   0  0  0  0  0  0  0  0  0  0  0  0
    4.6660    2.9834    0.0000 O   0  0  0  0  0  0  0  0  0  0  0  0
    4.6660    6.9834    0.0000 O   0  0  0  0  0  0  0  0  0  0  0  0
    9.0602    6.5109    0.0000 O   0  0  0  0  0  0  0  0  0  0  0  0
    8.6995    5.1435    0.0000 O   0  0  0  0  0  0  0  0  0  0  0  0
    7.6928    6.8717    0.0000 O   0  0  0  0  0  0  0  0  0  0  0  0
   10.7154    0.3989    0.0000 O   0  0  0  0  0  0  0  0  0  0  0  0
   10.3652    1.7691    0.0000 O   0  0  0  0  0  0  0  0  0  0  0  0
    9.3452    0.0487    0.0000 O   0  0  0  0  0  0  0  0  0  0  0  0
    4.5669   -7.0304    0.0000 O   0  0  0  0  0  0  0  0  0  0  0  0
    3.5785   -6.0190    0.0000 O   0  0  0  0  0  0  0  0  0  0  0  0
    5.5784   -6.0421    0.0000 O   0  0  0  0  0  0  0  0  0  0  0  0
    6.4144    2.9489    0.0000 N   0  0  0  0  0  0  0  0  0  0  0  0
    6.4144    7.0180    0.0000 N   0  0  0  0  0  0  0  0  0  0  0  0
    8.1117   -0.0710    0.0000 N   0  0  0  0  0  0  0  0  0  0  0  0
    7.2284   -1.5609    0.0000 N   0  0  0  0  0  0  0  0  0  0  0  0
    6.3451   -3.0508    0.0000 N   0  0  0  0  0  0  0  0  0  0  0  0
    6.3797   -0.0510    0.0000 N   0  0  0  0  0  0  0  0  0  0  0  0
    5.4964   -1.5408    0.0000 N   0  0  0  0  0  0  0  0  0  0  0  0
    5.5321    4.4834    0.0000 C   0  0  0  0  0  0  0  0  0  0  0  0
    5.5321    5.4834    0.0000 C   0  0  0  0  0  0  0  0  0  0  0  0
    6.4260    3.9488    0.0000 C   0  0  0  0  0  0  0  0  0  0  0  0
    6.4260    6.0181    0.0000 C   0  0  0  0  0  0  0  0  0  0  0  0
    7.3321    5.5043    0.0000 C   0  0  0  0  0  0  0  0  0  0  0  0
    3.8000    4.4834    0.0000 C   0  0  0  0  0  0  0  0  0  0  0  0
    4.6660    3.9834    0.0000 C   0  0  0  0  0  0  0  0  0  0  0  0
    3.8000    5.4834    0.0000 C   0  0  0  0  0  0  0  0  0  0  0  0
    4.6660    5.9834    0.0000 C   0  0  0  0  0  0  0  0  0  0  0  0
    7.3321    4.4626    0.0000 C   0  0  0  0  0  0  0  0  0  0  0  0
    7.2746    2.4389    0.0000 C   0  0  0  0  0  0  0  0  0  0  0  0
    2.9061    3.9488    0.0000 C   0  0  0  0  0  0  0  0  0  0  0  0
    2.9061    6.0181    0.0000 C   0  0  0  0  0  0  0  0  0  0  0  0
    7.2631    1.4389    0.0000 C   0  0  0  0  0  0  0  0  0  0  0  0
    8.1232    0.9290    0.0000 C   0  0  0  0  0  0  0  0  0  0  0  0
    2.0000    4.4626    0.0000 C   0  0  0  0  0  0  0  0  0  0  0  0
    2.0000    5.5043    0.0000 C   0  0  0  0  0  0  0  0  0  0  0  0
    8.1464    2.9288    0.0000 C   0  0  0  0  0  0  0  0  0  0  0  0
    8.9950    1.4189    0.0000 C   0  0  0  0  0  0  0  0  0  0  0  0
    9.0066    2.4188    0.0000 C   0  0  0  0  0  0  0  0  0  0  0  0
    7.2399   -0.5609    0.0000 C   0  0  0  0  0  0  0  0  0  0  0  0
    5.4733   -3.5407    0.0000 C   0  0  0  0  0  0  0  0  0  0  0  0
    6.3566   -2.0508    0.0000 C   0  0  0  0  0  0  0  0  0  0  0  0
    4.5900   -5.0306    0.0000 C   0  0  0  0  0  0  0  0  0  0  0  0
    5.4618   -4.5406    0.0000 C   0  0  0  0  0  0  0  0  0  0  0  0
    4.6131   -3.0307    0.0000 C   0  0  0  0  0  0  0  0  0  0  0  0
    3.7298   -4.5206    0.0000 C   0  0  0  0  0  0  0  0  0  0  0  0
    3.7414   -3.5207    0.0000 C   0  0  0  0  0  0  0  0  0  0  0  0
    5.5080   -0.5409    0.0000 C   0  0  0  0  0  0  0  0  0  0  0  0
    7.8678    4.1506    0.0000 H   0  0  0  0  0  0  0  0  0  0  0  0
    5.8740    2.6451    0.0000 H   0  0  0  0  0  0  0  0  0  0  0  0
    2.9132    3.3288    0.0000 H   0  0  0  0  0  0  0  0  0  0  0  0
    2.9132    6.6381    0.0000 H   0  0  0  0  0  0  0  0  0  0  0  0
    5.8740    7.3218    0.0000 H   0  0  0  0  0  0  0  0  0  0  0  0
    6.9478    7.3342    0.0000 H   0  0  0  0  0  0  0  0  0  0  0  0
    6.7226    1.1352    0.0000 H   0  0  0  0  0  0  0  0  0  0  0  0
    1.4643    4.1506    0.0000 H   0  0  0  0  0  0  0  0  0  0  0  0
    1.4643    5.8163    0.0000 H   0  0  0  0  0  0  0  0  0  0  0  0
    8.1535    3.5488    0.0000 H   0  0  0  0  0  0  0  0  0  0  0  0
    9.5470    2.7226    0.0000 H   0  0  0  0  0  0  0  0  0  0  0  0
    8.6450   -0.3872    0.0000 H   0  0  0  0  0  0  0  0  0  0  0  0
    9.5984    6.2030    0.0000 H   0  0  0  0  0  0  0  0  0  0  0  0
   11.2559    0.7027    0.0000 H   0  0  0  0  0  0  0  0  0  0  0  0
    6.8784   -3.3669    0.0000 H   0  0  0  0  0  0  0  0  0  0  0  0
    5.9951   -4.8568    0.0000 H   0  0  0  0  0  0  0  0  0  0  0  0
    4.6203   -2.4108    0.0000 H   0  0  0  0  0  0  0  0  0  0  0  0
    3.1893   -4.8244    0.0000 H   0  0  0  0  0  0  0  0  0  0  0  0
    3.2081   -3.2045    0.0000 H   0  0  0  0  0  0  0  0  0  0  0  0
    4.0264   -7.3342    0.0000 H   0  0  0  0  0  0  0  0  0  0  0  0
  1 51  1  0  0  0  0
  2  7  1  0  0  0  0
  2  8  2  0  0  0  0
  2  9  2  0  0  0  0
  2 27  1  0  0  0  0
  3 10  1  0  0  0  0
  3 11  2  0  0  0  0
  3 12  2  0  0  0  0
  3 41  1  0  0  0  0
  4 13  1  0  0  0  0
  4 14  2  0  0  0  0
  4 15  2  0  0  0  0
  4 46  1  0  0  0  0
  5 29  2  0  0  0  0
  6 31  2  0  0  0  0
  7 64  1  0  0  0  0
 10 65  1  0  0  0  0
 13 71  1  0  0  0  0
 16 25  1  0  0  0  0
 16 33  1  0  0  0  0
 16 53  1  0  0  0  0
 17 26  1  0  0  0  0
 17 56  1  0  0  0  0
 17 57  1  0  0  0  0
 18 37  1  0  0  0  0
 18 43  1  0  0  0  0
 18 63  1  0  0  0  0
 19 43  1  0  0  0  0
 19 45  2  0  0  0  0
 20 44  1  0  0  0  0
 20 45  1  0  0  0  0
 20 66  1  0  0  0  0
 21 43  2  0  0  0  0
 21 51  1  0  0  0  0
 22 45  1  0  0  0  0
 22 51  2  0  0  0  0
 23 24  2  0  0  0  0
 23 25  1  0  0  0  0
 23 29  1  0  0  0  0
 24 26  1  0  0  0  0
 24 31  1  0  0  0  0
 25 32  2  0  0  0  0
 26 27  2  0  0  0  0
 27 32  1  0  0  0  0
 28 29  1  0  0  0  0
 28 30  1  0  0  0  0
 28 34  2  0  0  0  0
 30 31  1  0  0  0  0
 30 35  2  0  0  0  0
 32 52  1  0  0  0  0
 33 36  2  0  0  0  0
 33 40  1  0  0  0  0
 34 38  1  0  0  0  0
 34 54  1  0  0  0  0
 35 39  1  0  0  0  0
 35 55  1  0  0  0  0
 36 37  1  0  0  0  0
 36 58  1  0  0  0  0
 37 41  2  0  0  0  0
 38 39  2  0  0  0  0
 38 59  1  0  0  0  0
 39 60  1  0  0  0  0
 40 42  2  0  0  0  0
 40 61  1  0  0  0  0
 41 42  1  0  0  0  0
 42 62  1  0  0  0  0
 44 47  2  0  0  0  0
 44 48  1  0  0  0  0
 46 47  1  0  0  0  0
 46 49  2  0  0  0  0
 47 67  1  0  0  0  0
 48 50  2  0  0  0  0
 48 68  1  0  0  0  0
 49 50  1  0  0  0  0
 49 69  1  0  0  0  0
 50 70  1  0  0  0  0
M  END
> <PUBCHEM_COMPOUND_CID>
85599

> <PUBCHEM_COMPOUND_CANONICALIZED>
1

> <PUBCHEM_CACTVS_COMPLEXITY>
1640

> <PUBCHEM_CACTVS_HBOND_ACCEPTOR>
18

> <PUBCHEM_CACTVS_HBOND_DONOR>
7

> <PUBCHEM_CACTVS_ROTATABLE_BOND>
9

> <PUBCHEM_CACTVS_SUBSKEYS>
AAADceB7vABkAAAAAAAAAAAAAAAAAAAAAAA8YMGDAAAAAADB1AAAHgYQCAAADAyB2AAx0YbIEIKoAqRSZHDCAEklAoAJiB0AZMiIKHrA3dGEIYxokALIyecdiMCOkASAwCQSAQCgCQWASCQCAAAAAAAAAA==

> <PUBCHEM_IUPAC_OPENEYE_NAME>
1-amino-4-[3-[[4-chloro-6-(3-sulfoanilino)-1,3,5-triazin-2-yl]amino]-4-sulfo-anilino]-9,10-dioxo-anthracene-2-sulfonic acid

> <PUBCHEM_IUPAC_CAS_NAME>
1-amino-4-[3-[[4-chloro-6-(3-sulfoanilino)-1,3,5-triazin-2-yl]amino]-4-sulfoanilino]-9,10-dioxo-2-anthracenesulfonic acid

> <PUBCHEM_IUPAC_NAME>
1-amino-4-[3-[[4-chloro-6-(3-sulfoanilino)-1,3,5-triazin-2-yl]amino]-4-sulfoanilino]-9,10-dioxoanthracene-2-sulfonic acid

> <PUBCHEM_IUPAC_SYSTEMATIC_NAME>
1-azanyl-4-[[3-[[4-chloranyl-6-[(3-sulfophenyl)amino]-1,3,5-triazin-2-yl]amino]-4-sulfo-phenyl]amino]-9,10-bis(oxidanylidene)anthracene-2-sulfonic acid

> <PUBCHEM_IUPAC_TRADITIONAL_NAME>
1-amino-4-[3-[[4-chloro-6-(3-sulfoanilino)-s-triazin-2-yl]amino]-4-sulfo-anilino]-9,10-diketo-anthracene-2-sulfonic acid

> <PUBCHEM_IUPAC_INCHI>
InChI=1S/C29H20ClN7O11S3/c30-27-35-28(33-13-4-3-5-15(10-13)49(40,41)42)37-29(36-27)34-18-11-14(8-9-20(18)50(43,44)45)32-19-12-21(51(46,47)48)24(31)23-22(19)25(38)16-6-1-2-7-17(16)26(23)39/h1-12,32H,31H2,(H,40,41,42)(H,43,44,45)(H,46,47,48)(H2,33,34,35,36,37)

> <PUBCHEM_IUPAC_INCHIKEY>
NSDSIQGBHACTLY-UHFFFAOYSA-N

> <PUBCHEM_XLOGP3_AA>
4.4

> <PUBCHEM_EXACT_MASS>
773.007145

> <PUBCHEM_MOLECULAR_FORMULA>
C29H20ClN7O11S3

> <PUBCHEM_MOLECULAR_WEIGHT>
774.1574

> <PUBCHEM_OPENEYE_CAN_SMILES>
C1=CC=C2C(=C1)C(=O)C3=C(C2=O)C(=C(C=C3NC4=CC(=C(C=C4)S(=O)(=O)O)NC5=NC(=NC(=N5)NC6=CC(=CC=C6)S(=O)(=O)O)Cl)S(=O)(=O)O)N

> <PUBCHEM_OPENEYE_ISO_SMILES>
C1=CC=C2C(=C1)C(=O)C3=C(C2=O)C(=C(C=C3NC4=CC(=C(C=C4)S(=O)(=O)O)NC5=NC(=NC(=N5)NC6=CC(=CC=C6)S(=O)(=O)O)Cl)S(=O)(=O)O)N

> <PUBCHEM_CACTVS_TPSA>
323

> <PUBCHEM_MONOISOTOPIC_WEIGHT>
773.007145

> <PUBCHEM_TOTAL_CHARGE>
0

> <PUBCHEM_HEAVY_ATOM_COUNT>
51

> <PUBCHEM_ATOM_DEF_STEREO_COUNT>
0

> <PUBCHEM_ATOM_UDEF_STEREO_COUNT>
0

> <PUBCHEM_BOND_DEF_STEREO_COUNT>
0

> <PUBCHEM_BOND_UDEF_STEREO_COUNT>
0

> <PUBCHEM_ISOTOPIC_ATOM_COUNT>
0

> <PUBCHEM_COMPONENT_COUNT>
1

> <PUBCHEM_CACTVS_TAUTO_COUNT>
108

> <PUBCHEM_COORDINATE_TYPE>
1
5
255

> <PUBCHEM_BONDANNOTATIONS>
19  43  8
19  45  8
21  43  8
21  51  8
22  45  8
22  51  8
23  24  8
23  25  8
24  26  8
25  32  8
26  27  8
27  32  8
28  30  8
28  34  8
30  35  8
33  36  8
33  40  8
34  38  8
35  39  8
36  37  8
37  41  8
38  39  8
40  42  8
41  42  8
44  47  8
44  48  8
46  47  8
46  49  8
48  50  8
49  50  8

$$$$

