199
  -OEChem-07051212442D

 23 22  0     0  0  0  0  0  0999 V2000
    5.1350    1.0000    0.0000 N   0  0  0  0  0  0  0  0  0  0  0  0
    2.5369   -2.5000    0.0000 N   0  0  0  0  0  0  0  0  0  0  0  0
    6.0010    2.5000    0.0000 N   0  0  0  0  0  0  0  0  0  0  0  0
    4.2690    2.5000    0.0000 N   0  0  0  0  0  0  0  0  0  0  0  0
    4.2690   -0.5000    0.0000 C   0  0  0  0  0  0  0  0  0  0  0  0
    3.4030   -1.0000    0.0000 C   0  0  0  0  0  0  0  0  0  0  0  0
    4.2690    0.5000    0.0000 C   0  0  0  0  0  0  0  0  0  0  0  0
    3.4030   -2.0000    0.0000 C   0  0  0  0  0  0  0  0  0  0  0  0
    5.1350    2.0000    0.0000 C   0  0  0  0  0  0  0  0  0  0  0  0
    4.4810   -1.0826    0.0000 H   0  0  0  0  0  0  0  0  0  0  0  0
    4.8796   -0.3923    0.0000 H   0  0  0  0  0  0  0  0  0  0  0  0
    3.1909   -0.4174    0.0000 H   0  0  0  0  0  0  0  0  0  0  0  0
    2.7924   -1.1077    0.0000 H   0  0  0  0  0  0  0  0  0  0  0  0
    4.0569    1.0826    0.0000 H   0  0  0  0  0  0  0  0  0  0  0  0
    3.6584    0.3923    0.0000 H   0  0  0  0  0  0  0  0  0  0  0  0
    3.6150   -2.5826    0.0000 H   0  0  0  0  0  0  0  0  0  0  0  0
    4.0135   -1.8923    0.0000 H   0  0  0  0  0  0  0  0  0  0  0  0
    2.5369   -3.1200    0.0000 H   0  0  0  0  0  0  0  0  0  0  0  0
    2.0000   -2.1900    0.0000 H   0  0  0  0  0  0  0  0  0  0  0  0
    3.7320    2.1900    0.0000 H   0  0  0  0  0  0  0  0  0  0  0  0
    4.2690    3.1200    0.0000 H   0  0  0  0  0  0  0  0  0  0  0  0
    6.5380    2.1900    0.0000 H   0  0  0  0  0  0  0  0  0  0  0  0
    6.0010    3.1200    0.0000 H   0  0  0  0  0  0  0  0  0  0  0  0
  1  7  1  0  0  0  0
  1  9  2  0  0  0  0
  2  8  1  0  0  0  0
  2 18  1  0  0  0  0
  2 19  1  0  0  0  0
  3  9  1  0  0  0  0
  3 22  1  0  0  0  0
  3 23  1  0  0  0  0
  4  9  1  0  0  0  0
  4 20  1  0  0  0  0
  4 21  1  0  0  0  0
  5  6  1  0  0  0  0
  5  7  1  0  0  0  0
  5 10  1  0  0  0  0
  5 11  1  0  0  0  0
  6  8  1  0  0  0  0
  6 12  1  0  0  0  0
  6 13  1  0  0  0  0
  7 14  1  0  0  0  0
  7 15  1  0  0  0  0
  8 16  1  0  0  0  0
  8 17  1  0  0  0  0
M  END
> <PUBCHEM_COMPOUND_CID>
199

> <PUBCHEM_COMPOUND_CANONICALIZED>
1

> <PUBCHEM_CACTVS_COMPLEXITY>
85

> <PUBCHEM_CACTVS_HBOND_ACCEPTOR>
2

> <PUBCHEM_CACTVS_HBOND_DONOR>
3

> <PUBCHEM_CACTVS_ROTATABLE_BOND>
4

> <PUBCHEM_CACTVS_SUBSKEYS>
AAADccBjgAAAAAAAAAAAAAAAAAAAAAAAAAAAAAAAAAAAAAAAAAAAHAAQAAAACADBAAQBAAJAAAAgAAAAJAAAAAEAAAAAAIAAAAAAAAAAgAAAAAAAEAAAAAAAAAAAAAAAAAAAAAAAAAAAAAAAAAAAAAAAAA==

> <PUBCHEM_IUPAC_OPENEYE_NAME>
2-(4-aminobutyl)guanidine

> <PUBCHEM_IUPAC_CAS_NAME>
2-(4-aminobutyl)guanidine

> <PUBCHEM_IUPAC_NAME>
2-(4-aminobutyl)guanidine

> <PUBCHEM_IUPAC_SYSTEMATIC_NAME>
2-(4-azanylbutyl)guanidine

> <PUBCHEM_IUPAC_TRADITIONAL_NAME>
2-(4-aminobutyl)guanidine

> <PUBCHEM_IUPAC_INCHI>
InChI=1S/C5H14N4/c6-3-1-2-4-9-5(7)8/h1-4,6H2,(H4,7,8,9)

> <PUBCHEM_IUPAC_INCHIKEY>
QYPPJABKJHAVHS-UHFFFAOYSA-N

> <PUBCHEM_XLOGP3_AA>
-1.5

> <PUBCHEM_EXACT_MASS>
130.121846

> <PUBCHEM_MOLECULAR_FORMULA>
C5H14N4

> <PUBCHEM_MOLECULAR_WEIGHT>
130.19146

> <PUBCHEM_OPENEYE_CAN_SMILES>
C(CCN=C(N)N)CN

> <PUBCHEM_OPENEYE_ISO_SMILES>
C(CCN=C(N)N)CN

> <PUBCHEM_CACTVS_TPSA>
90.4

> <PUBCHEM_MONOISOTOPIC_WEIGHT>
130.121846

> <PUBCHEM_TOTAL_CHARGE>
0

> <PUBCHEM_HEAVY_ATOM_COUNT>
9

> <PUBCHEM_ATOM_DEF_STEREO_COUNT>
0

> <PUBCHEM_ATOM_UDEF_STEREO_COUNT>
0

> <PUBCHEM_BOND_DEF_STEREO_COUNT>
0

> <PUBCHEM_BOND_UDEF_STEREO_COUNT>
0

> <PUBCHEM_ISOTOPIC_ATOM_COUNT>
0

> <PUBCHEM_COMPONENT_COUNT>
1

> <PUBCHEM_CACTVS_TAUTO_COUNT>
2

> <PUBCHEM_COORDINATE_TYPE>
1
5
255

$$$$

