65832
  -OEChem-07051213043D

 67 68  0     1  0  0  0  0  0999 V2000
   -1.6303   -3.5585    1.7125 O   0  0  0  0  0  0  0  0  0  0  0  0
    0.5501   -3.7794    0.0027 O   0  0  0  0  0  0  0  0  0  0  0  0
    4.0079   -1.6994   -1.4266 O   0  0  0  0  0  0  0  0  0  0  0  0
    0.1270    3.6680    0.4797 N   0  0  2  0  0  0  0  0  0  0  0  0
   -4.9791    0.5363    1.2823 N   0  0  0  0  0  0  0  0  0  0  0  0
   -2.9968    0.5831   -0.4797 C   0  0  2  0  0  0  0  0  0  0  0  0
   -3.6267    0.5769   -1.9373 C   0  0  0  0  0  0  0  0  0  0  0  0
   -2.2133    1.9237   -0.2397 C   0  0  0  0  0  0  0  0  0  0  0  0
   -1.6723    2.1201    1.1920 C   0  0  0  0  0  0  0  0  0  0  0  0
   -2.0268   -0.6145   -0.3450 C   0  0  0  0  0  0  0  0  0  0  0  0
   -0.9970    3.4806    1.3890 C   0  0  0  0  0  0  0  0  0  0  0  0
   -4.5042    1.8010   -2.2522 C   0  0  0  0  0  0  0  0  0  0  0  0
   -4.4400   -0.6955   -2.2418 C   0  0  0  0  0  0  0  0  0  0  0  0
   -4.1091    0.5479    0.5134 C   0  0  0  0  0  0  0  0  0  0  0  0
   -2.2806   -1.5395    0.6302 C   0  0  0  0  0  0  0  0  0  0  0  0
   -0.9676   -0.6826   -1.2080 C   0  0  0  0  0  0  0  0  0  0  0  0
    1.1234    2.6119    0.6666 C   0  0  0  0  0  0  0  0  0  0  0  0
   -1.4055   -2.6188    0.7522 C   0  0  0  0  0  0  0  0  0  0  0  0
   -0.0925   -1.7617   -1.0861 C   0  0  0  0  0  0  0  0  0  0  0  0
    0.7381    4.9833    0.6795 C   0  0  0  0  0  0  0  0  0  0  0  0
    2.2990    2.7379   -0.2994 C   0  0  0  0  0  0  0  0  0  0  0  0
   -0.3114   -2.7299   -0.1060 C   0  0  0  0  0  0  0  0  0  0  0  0
    3.3183    1.6378   -0.1327 C   0  0  0  0  0  0  0  0  0  0  0  0
    3.1846    0.4698   -0.8670 C   0  0  0  0  0  0  0  0  0  0  0  0
    4.3703    1.8147    0.7523 C   0  0  0  0  0  0  0  0  0  0  0  0
   -2.7705   -3.3710    2.5484 C   0  0  0  0  0  0  0  0  0  0  0  0
    4.1268   -0.5469   -0.7126 C   0  0  0  0  0  0  0  0  0  0  0  0
    5.3126    0.7980    0.9069 C   0  0  0  0  0  0  0  0  0  0  0  0
    1.6688   -3.6124    0.8715 C   0  0  0  0  0  0  0  0  0  0  0  0
    5.1908   -0.3829    0.1743 C   0  0  0  0  0  0  0  0  0  0  0  0
    5.0060   -2.6978   -1.2193 C   0  0  0  0  0  0  0  0  0  0  0  0
   -2.8139    0.6073   -2.6746 H   0  0  0  0  0  0  0  0  0  0  0  0
   -2.8825    2.7737   -0.4214 H   0  0  0  0  0  0  0  0  0  0  0  0
   -1.4010    2.0204   -0.9687 H   0  0  0  0  0  0  0  0  0  0  0  0
   -1.0253    1.2911    1.4940 H   0  0  0  0  0  0  0  0  0  0  0  0
   -2.5109    2.0917    1.8989 H   0  0  0  0  0  0  0  0  0  0  0  0
   -0.6784    3.5710    2.4360 H   0  0  0  0  0  0  0  0  0  0  0  0
   -1.7463    4.2635    1.2158 H   0  0  0  0  0  0  0  0  0  0  0  0
   -3.9177    2.7238   -2.2754 H   0  0  0  0  0  0  0  0  0  0  0  0
   -4.9592    1.7015   -3.2445 H   0  0  0  0  0  0  0  0  0  0  0  0
   -5.3175    1.9212   -1.5302 H   0  0  0  0  0  0  0  0  0  0  0  0
   -5.3196   -0.7796   -1.5956 H   0  0  0  0  0  0  0  0  0  0  0  0
   -4.7945   -0.6833   -3.2787 H   0  0  0  0  0  0  0  0  0  0  0  0
   -3.8390   -1.6017   -2.1230 H   0  0  0  0  0  0  0  0  0  0  0  0
   -3.1305   -1.4380    1.2849 H   0  0  0  0  0  0  0  0  0  0  0  0
   -0.7722    0.0603   -1.9728 H   0  0  0  0  0  0  0  0  0  0  0  0
    1.4906    2.5984    1.7022 H   0  0  0  0  0  0  0  0  0  0  0  0
    0.6919    1.6253    0.4725 H   0  0  0  0  0  0  0  0  0  0  0  0
   -0.0307    5.7656    0.6762 H   0  0  0  0  0  0  0  0  0  0  0  0
    1.4119    5.2469   -0.1413 H   0  0  0  0  0  0  0  0  0  0  0  0
    1.2801    5.0539    1.6297 H   0  0  0  0  0  0  0  0  0  0  0  0
    0.7574   -1.8431   -1.7583 H   0  0  0  0  0  0  0  0  0  0  0  0
    2.8305    3.6880   -0.1703 H   0  0  0  0  0  0  0  0  0  0  0  0
    1.9360    2.7409   -1.3362 H   0  0  0  0  0  0  0  0  0  0  0  0
    2.3578    0.3402   -1.5599 H   0  0  0  0  0  0  0  0  0  0  0  0
    4.4724    2.7293    1.3292 H   0  0  0  0  0  0  0  0  0  0  0  0
   -2.7933   -4.2099    3.2520 H   0  0  0  0  0  0  0  0  0  0  0  0
   -2.6870   -2.4587    3.1490 H   0  0  0  0  0  0  0  0  0  0  0  0
   -3.7039   -3.4145    1.9765 H   0  0  0  0  0  0  0  0  0  0  0  0
    6.1403    0.9264    1.5984 H   0  0  0  0  0  0  0  0  0  0  0  0
    1.3368   -3.5934    1.9141 H   0  0  0  0  0  0  0  0  0  0  0  0
    2.3416   -4.4630    0.7330 H   0  0  0  0  0  0  0  0  0  0  0  0
    2.2130   -2.6928    0.6373 H   0  0  0  0  0  0  0  0  0  0  0  0
    5.9574   -1.1314    0.3432 H   0  0  0  0  0  0  0  0  0  0  0  0
    4.9965   -3.0683   -0.1886 H   0  0  0  0  0  0  0  0  0  0  0  0
    5.9970   -2.3457   -1.5251 H   0  0  0  0  0  0  0  0  0  0  0  0
    4.7540   -3.5452   -1.8652 H   0  0  0  0  0  0  0  0  0  0  0  0
  1 18  1  0  0  0  0
  1 26  1  0  0  0  0
  2 22  1  0  0  0  0
  2 29  1  0  0  0  0
  3 27  1  0  0  0  0
  3 31  1  0  0  0  0
  4 11  1  0  0  0  0
  4 17  1  0  0  0  0
  4 20  1  0  0  0  0
  5 14  3  0  0  0  0
  6  7  1  0  0  0  0
  6  8  1  0  0  0  0
  6 10  1  0  0  0  0
  6 14  1  0  0  0  0
  7 12  1  0  0  0  0
  7 13  1  0  0  0  0
  7 32  1  0  0  0  0
  8  9  1  0  0  0  0
  8 33  1  0  0  0  0
  8 34  1  0  0  0  0
  9 11  1  0  0  0  0
  9 35  1  0  0  0  0
  9 36  1  0  0  0  0
 10 15  2  0  0  0  0
 10 16  1  0  0  0  0
 11 37  1  0  0  0  0
 11 38  1  0  0  0  0
 12 39  1  0  0  0  0
 12 40  1  0  0  0  0
 12 41  1  0  0  0  0
 13 42  1  0  0  0  0
 13 43  1  0  0  0  0
 13 44  1  0  0  0  0
 15 18  1  0  0  0  0
 15 45  1  0  0  0  0
 16 19  2  0  0  0  0
 16 46  1  0  0  0  0
 17 21  1  0  0  0  0
 17 47  1  0  0  0  0
 17 48  1  0  0  0  0
 18 22  2  0  0  0  0
 19 22  1  0  0  0  0
 19 52  1  0  0  0  0
 20 49  1  0  0  0  0
 20 50  1  0  0  0  0
 20 51  1  0  0  0  0
 21 23  1  0  0  0  0
 21 53  1  0  0  0  0
 21 54  1  0  0  0  0
 23 24  2  0  0  0  0
 23 25  1  0  0  0  0
 24 27  1  0  0  0  0
 24 55  1  0  0  0  0
 25 28  2  0  0  0  0
 25 56  1  0  0  0  0
 26 57  1  0  0  0  0
 26 58  1  0  0  0  0
 26 59  1  0  0  0  0
 27 30  2  0  0  0  0
 28 30  1  0  0  0  0
 28 60  1  0  0  0  0
 29 61  1  0  0  0  0
 29 62  1  0  0  0  0
 29 63  1  0  0  0  0
 30 64  1  0  0  0  0
 31 65  1  0  0  0  0
 31 66  1  0  0  0  0
 31 67  1  0  0  0  0
M  END
> <PUBCHEM_COMPOUND_CID>
65832

> <PUBCHEM_CONFORMER_RMSD>
1.4

> <PUBCHEM_CONFORMER_DIVERSEORDER>
1
502
312
285
209
265
448
28
27
4
368
469
270
340
123
62
92
438
39
569
214
507
83
343
76
195
77
148
184
540
561
155
266
310
6
18
200
122
478
10
61
71
426
307
527
430
415
219
38
29
504
60
182
218
365
346
165
551
90
160
24
78
174
30
466
9
370
187
379
31
273
480
319
67
339
311
309
96
126
429
301
491
513
142
33
65
124
329
490
172
7
283
352
105
277
274
158
288
559
56
79
454
371
568
545
388
141
235
88
12
344
46
22
59
280
109
539
127
51
15
221
271
331
565
386
446
223
47
549
74
496
260
14
140
21
114
238
52
73
101
97
120
358
159
413
304
566
262
5
163
313
353
208
267
314
401
363
85
23
263
269
199
176
399
272
526
242
130
144
169
134
255
186
244
133
3
419
34
70
247
26
436
161
336
32
2
8
143
104
20
517
91
240
95
393
13
166
87
558
37
325
253
44
330
19
231
164
50
243
246
16
296
532
233
112
276
338
538
107
287

> <PUBCHEM_MMFF94_PARTIAL_CHARGES>
33
1 -0.36
10 -0.14
11 0.27
14 0.36
15 -0.15
16 -0.15
17 0.27
18 0.08
19 -0.15
2 -0.36
20 0.27
21 0.14
22 0.08
23 -0.14
24 -0.15
25 -0.15
26 0.28
27 0.08
28 -0.15
29 0.28
3 -0.36
30 -0.15
31 0.28
4 -0.81
45 0.15
46 0.15
5 -0.56
52 0.15
55 0.15
56 0.15
6 0.34
60 0.15
64 0.15

> <PUBCHEM_EFFECTIVE_ROTOR_COUNT>
12

> <PUBCHEM_PHARMACOPHORE_FEATURES>
9
1 1 acceptor
1 2 acceptor
1 3 acceptor
1 4 cation
1 5 acceptor
3 7 12 13 hydrophobe
4 6 7 8 9 hydrophobe
6 10 15 16 18 19 22 rings
6 23 24 25 27 28 30 rings

> <PUBCHEM_HEAVY_ATOM_COUNT>
31

> <PUBCHEM_ATOM_DEF_STEREO_COUNT>
0

> <PUBCHEM_ATOM_UDEF_STEREO_COUNT>
1

> <PUBCHEM_BOND_DEF_STEREO_COUNT>
0

> <PUBCHEM_BOND_UDEF_STEREO_COUNT>
0

> <PUBCHEM_ISOTOPIC_ATOM_COUNT>
0

> <PUBCHEM_COMPONENT_COUNT>
1

> <PUBCHEM_CACTVS_TAUTO_COUNT>
1

> <PUBCHEM_CONFORMER_ID>
0001012800000001

> <PUBCHEM_MMFF94_ENERGY>
115.7946

> <PUBCHEM_FEATURE_SELFOVERLAP>
45.695

> <PUBCHEM_SHAPE_FINGERPRINT>
10006869 2 17829317340055544697
10675989 125 18123773090170649668
10764073 3 18195787615193625803
11135926 11 18193274101221639828
11513181 2 17393329136116466854
11756154 5 18341601638564705434
12553582 1 18045207255396074412
12788726 201 18263651817637927208
12838863 1 18191050991667497094
13122387 1 17976820118881444800
15351339 4 18052276260105641905
15420108 30 16816293394955735224
17627616 140 17621874722946722282
20764821 26 18265596732936318352
20775438 99 16816345695009499511
21033648 29 17917432076707156301
23559900 14 18190471450319280160
23572383 38 18336841796782848048
3027735 51 18195534911327747965
3298306 158 18271258195754356949
3383291 50 18264219014617977435
392239 28 18193813003625862139
437795 70 17465360312459403510
4403749 210 16821960831994759200
508706 21 18202569462099200719
613672 6 18408890612023849584

> <PUBCHEM_SHAPE_MULTIPOLES>
610.4
10.3
5.84
1.91
7.01
0.84
-0.12
-0.23
-2.71
1.09
2.86
-2.27
-0.77
2.35

> <PUBCHEM_SHAPE_SELFOVERLAP>
1258.754

> <PUBCHEM_SHAPE_VOLUME>
351

> <PUBCHEM_COORDINATE_TYPE>
2
5
10

$$$$

