25010757
  -OEChem-07051213102D

 22 21  0     0  0  0  0  0  0999 V2000
    8.5991    0.5600    0.0000 S   0  0  0  0  0  0  0  0  0  0  0  0
    2.5369    0.0600    0.0000 O   0  0  0  0  0  0  0  0  0  0  0  0
    3.4030    0.5600    0.0000 N   0  0  0  0  0  0  0  0  0  0  0  0
    6.0010    0.0600    0.0000 C   0  0  0  0  0  0  0  0  0  0  0  0
    6.8671    0.5600    0.0000 C   0  0  0  0  0  0  0  0  0  0  0  0
    5.1350    0.5600    0.0000 C   0  0  0  0  0  0  0  0  0  0  0  0
    7.7331    0.0600    0.0000 C   0  0  0  0  0  0  0  0  0  0  0  0
    4.2690    0.0600    0.0000 C   0  0  0  0  0  0  0  0  0  0  0  0
    9.4651    0.0600    0.0000 C   0  0  0  0  0  0  0  0  0  0  0  0
    5.6025   -0.4149    0.0000 H   0  0  0  0  0  0  0  0  0  0  0  0
    6.3996   -0.4149    0.0000 H   0  0  0  0  0  0  0  0  0  0  0  0
    7.2656    1.0350    0.0000 H   0  0  0  0  0  0  0  0  0  0  0  0
    6.4685    1.0350    0.0000 H   0  0  0  0  0  0  0  0  0  0  0  0
    5.5335    1.0350    0.0000 H   0  0  0  0  0  0  0  0  0  0  0  0
    4.7365    1.0350    0.0000 H   0  0  0  0  0  0  0  0  0  0  0  0
    7.3346   -0.4149    0.0000 H   0  0  0  0  0  0  0  0  0  0  0  0
    8.1316   -0.4149    0.0000 H   0  0  0  0  0  0  0  0  0  0  0  0
    4.2690   -0.5600    0.0000 H   0  0  0  0  0  0  0  0  0  0  0  0
    9.1551   -0.4769    0.0000 H   0  0  0  0  0  0  0  0  0  0  0  0
   10.0021   -0.2500    0.0000 H   0  0  0  0  0  0  0  0  0  0  0  0
    9.7751    0.5969    0.0000 H   0  0  0  0  0  0  0  0  0  0  0  0
    2.0000    0.3700    0.0000 H   0  0  0  0  0  0  0  0  0  0  0  0
  1  7  1  0  0  0  0
  1  9  1  0  0  0  0
  2  3  1  0  0  0  0
  2 22  1  0  0  0  0
  3  8  2  0  0  0  0
  4  5  1  0  0  0  0
  4  6  1  0  0  0  0
  4 10  1  0  0  0  0
  4 11  1  0  0  0  0
  5  7  1  0  0  0  0
  5 12  1  0  0  0  0
  5 13  1  0  0  0  0
  6  8  1  0  0  0  0
  6 14  1  0  0  0  0
  6 15  1  0  0  0  0
  7 16  1  0  0  0  0
  7 17  1  0  0  0  0
  8 18  1  0  0  0  0
  9 19  1  0  0  0  0
  9 20  1  0  0  0  0
  9 21  1  0  0  0  0
M  END
> <PUBCHEM_COMPOUND_CID>
25010757

> <PUBCHEM_COMPOUND_CANONICALIZED>
1

> <PUBCHEM_CACTVS_COMPLEXITY>
75.5

> <PUBCHEM_CACTVS_HBOND_ACCEPTOR>
3

> <PUBCHEM_CACTVS_HBOND_DONOR>
1

> <PUBCHEM_CACTVS_ROTATABLE_BOND>
5

> <PUBCHEM_CACTVS_SUBSKEYS>
AAADccBiIABAAAAAAAAAAAAAAAAAAAAAAAAAAAAAAAAAAAAAAAAAHAQECAAACADFQASCAAAQAAggABAhAAAAAAAAABAAAAAwAAAAAAIgAAAAAAAAAAAAAAAAAAAAAAAAAAAAAAAAAAAAAAAAAAAAAAAAAA==

> <PUBCHEM_IUPAC_OPENEYE_NAME>
(1E)-5-methylsulfanylpentanal oxime

> <PUBCHEM_IUPAC_CAS_NAME>
(1E)-5-(methylthio)pentanal oxime

> <PUBCHEM_IUPAC_NAME>
(NE)-N-(5-methylsulfanylpentylidene)hydroxylamine

> <PUBCHEM_IUPAC_SYSTEMATIC_NAME>
(NE)-N-(5-methylsulfanylpentylidene)hydroxylamine

> <PUBCHEM_IUPAC_TRADITIONAL_NAME>
(1E)-5-(methylthio)valeraldoxime

> <PUBCHEM_IUPAC_INCHI>
InChI=1S/C6H13NOS/c1-9-6-4-2-3-5-7-8/h5,8H,2-4,6H2,1H3/b7-5+

> <PUBCHEM_IUPAC_INCHIKEY>
KNFFJJFEYQLINT-FNORWQNLSA-N

> <PUBCHEM_XLOGP3_AA>
1.3

> <PUBCHEM_EXACT_MASS>
147.071785

> <PUBCHEM_MOLECULAR_FORMULA>
C6H13NOS

> <PUBCHEM_MOLECULAR_WEIGHT>
147.23852

> <PUBCHEM_OPENEYE_CAN_SMILES>
CSCCCCC=NO

> <PUBCHEM_OPENEYE_ISO_SMILES>
CSCCCC/C=N/O

> <PUBCHEM_CACTVS_TPSA>
57.9

> <PUBCHEM_MONOISOTOPIC_WEIGHT>
147.071785

> <PUBCHEM_TOTAL_CHARGE>
0

> <PUBCHEM_HEAVY_ATOM_COUNT>
9

> <PUBCHEM_ATOM_DEF_STEREO_COUNT>
0

> <PUBCHEM_ATOM_UDEF_STEREO_COUNT>
0

> <PUBCHEM_BOND_DEF_STEREO_COUNT>
1

> <PUBCHEM_BOND_UDEF_STEREO_COUNT>
0

> <PUBCHEM_ISOTOPIC_ATOM_COUNT>
0

> <PUBCHEM_COMPONENT_COUNT>
1

> <PUBCHEM_CACTVS_TAUTO_COUNT>
3

> <PUBCHEM_COORDINATE_TYPE>
1
5
255

$$$$

