47205651
  -OEChem-06241222593D

 37 39  0     0  0  0  0  0  0999 V2000
   -5.3163    0.5367    0.4682 S   0  0  0  0  0  0  0  0  0  0  0  0
    3.4594   -1.5828    0.8464 S   0  0  0  0  0  0  0  0  0  0  0  0
   -6.2236    1.6171    0.1354 O   0  0  0  0  0  0  0  0  0  0  0  0
   -5.6489   -0.4285    1.4976 O   0  0  0  0  0  0  0  0  0  0  0  0
   -0.0863    0.6725   -1.2689 O   0  0  0  0  0  0  0  0  0  0  0  0
   -2.5035   -0.4265   -0.5190 N   0  0  0  0  0  0  0  0  0  0  0  0
    1.0161   -1.0300   -0.0867 N   0  0  0  0  0  0  0  0  0  0  0  0
    2.8218    0.5959   -0.4638 N   0  0  0  0  0  0  0  0  0  0  0  0
   -2.6252    0.1998    0.8087 C   0  0  0  0  0  0  0  0  0  0  0  0
   -3.6976   -1.2168   -0.8647 C   0  0  0  0  0  0  0  0  0  0  0  0
   -3.7333    1.2453    0.8536 C   0  0  0  0  0  0  0  0  0  0  0  0
   -4.9377   -0.3458   -1.0267 C   0  0  0  0  0  0  0  0  0  0  0  0
   -1.3131   -1.2800   -0.5594 C   0  0  0  0  0  0  0  0  0  0  0  0
    6.4865    0.8803   -0.0295 C   0  0  0  0  0  0  0  0  0  0  0  0
    6.0757   -0.3300    0.8771 C   0  0  0  0  0  0  0  0  0  0  0  0
    5.1745    1.6542   -0.3976 C   0  0  0  0  0  0  0  0  0  0  0  0
    4.6400   -0.4367    0.5545 C   0  0  0  0  0  0  0  0  0  0  0  0
    4.1431    0.6321   -0.1357 C   0  0  0  0  0  0  0  0  0  0  0  0
   -0.0739   -0.4127   -0.6970 C   0  0  0  0  0  0  0  0  0  0  0  0
    2.3421   -0.5443    0.0076 C   0  0  0  0  0  0  0  0  0  0  0  0
   -3.5366   -1.7263   -1.8230 H   0  0  0  0  0  0  0  0  0  0  0  0
   -1.6933    0.7128    1.0751 H   0  0  0  0  0  0  0  0  0  0  0  0
   -2.7993   -0.5624    1.5796 H   0  0  0  0  0  0  0  0  0  0  0  0
   -3.8760   -1.9956   -0.1119 H   0  0  0  0  0  0  0  0  0  0  0  0
   -4.7972    0.3961   -1.8200 H   0  0  0  0  0  0  0  0  0  0  0  0
   -5.8121   -0.9555   -1.2741 H   0  0  0  0  0  0  0  0  0  0  0  0
   -3.8106    1.6882    1.8513 H   0  0  0  0  0  0  0  0  0  0  0  0
   -3.5470    2.0478    0.1319 H   0  0  0  0  0  0  0  0  0  0  0  0
   -1.2590   -1.9402    0.3147 H   0  0  0  0  0  0  0  0  0  0  0  0
   -1.3179   -1.9165   -1.4539 H   0  0  0  0  0  0  0  0  0  0  0  0
    6.9410    0.4944   -0.9517 H   0  0  0  0  0  0  0  0  0  0  0  0
    7.2260    1.5267    0.4538 H   0  0  0  0  0  0  0  0  0  0  0  0
    6.2239   -0.0842    1.9333 H   0  0  0  0  0  0  0  0  0  0  0  0
    6.6472   -1.2264    0.6223 H   0  0  0  0  0  0  0  0  0  0  0  0
    5.1895    1.9875   -1.4385 H   0  0  0  0  0  0  0  0  0  0  0  0
    5.0404    2.5168    0.2627 H   0  0  0  0  0  0  0  0  0  0  0  0
    0.8845   -1.9393    0.3491 H   0  0  0  0  0  0  0  0  0  0  0  0
  1  3  2  0  0  0  0
  1  4  2  0  0  0  0
  1 11  1  0  0  0  0
  1 12  1  0  0  0  0
  2 17  1  0  0  0  0
  2 20  1  0  0  0  0
  5 19  2  0  0  0  0
  6  9  1  0  0  0  0
  6 10  1  0  0  0  0
  6 13  1  0  0  0  0
  7 19  1  0  0  0  0
  7 20  1  0  0  0  0
  7 37  1  0  0  0  0
  8 18  1  0  0  0  0
  8 20  2  0  0  0  0
  9 11  1  0  0  0  0
  9 22  1  0  0  0  0
  9 23  1  0  0  0  0
 10 12  1  0  0  0  0
 10 21  1  0  0  0  0
 10 24  1  0  0  0  0
 11 27  1  0  0  0  0
 11 28  1  0  0  0  0
 12 25  1  0  0  0  0
 12 26  1  0  0  0  0
 13 19  1  0  0  0  0
 13 29  1  0  0  0  0
 13 30  1  0  0  0  0
 14 15  1  0  0  0  0
 14 16  1  0  0  0  0
 14 31  1  0  0  0  0
 14 32  1  0  0  0  0
 15 17  1  0  0  0  0
 15 33  1  0  0  0  0
 15 34  1  0  0  0  0
 16 18  1  0  0  0  0
 16 35  1  0  0  0  0
 16 36  1  0  0  0  0
 17 18  2  0  0  0  0
M  END
> <PUBCHEM_COMPOUND_CID>
47205651

> <PUBCHEM_CONFORMER_RMSD>
0.8

> <PUBCHEM_CONFORMER_DIVERSEORDER>
2
32
13
33
17
26
36
25
34
35
11
21
5
9
38
6
20
29
27
12
10
1
28
37
16
8
24
23
4
30
3
40
39
22
19
31
15
14
7
18

> <PUBCHEM_MMFF94_PARTIAL_CHARGES>
20
1 1.09
10 0.27
11 0.11
12 0.11
13 0.33
15 0.18
16 0.18
17 -0.14
18 0.05
19 0.57
2 -0.08
20 0.44
3 -0.65
37 0.37
4 -0.65
5 -0.57
6 -0.81
7 -0.49
8 -0.57
9 0.27

> <PUBCHEM_EFFECTIVE_ROTOR_COUNT>
5.6

> <PUBCHEM_PHARMACOPHORE_FEATURES>
8
1 3 acceptor
1 4 acceptor
1 5 acceptor
1 6 cation
1 7 donor
5 14 15 16 17 18 rings
5 2 8 17 18 20 rings
6 1 6 9 10 11 12 rings

> <PUBCHEM_HEAVY_ATOM_COUNT>
20

> <PUBCHEM_ATOM_DEF_STEREO_COUNT>
0

> <PUBCHEM_ATOM_UDEF_STEREO_COUNT>
0

> <PUBCHEM_BOND_DEF_STEREO_COUNT>
0

> <PUBCHEM_BOND_UDEF_STEREO_COUNT>
0

> <PUBCHEM_ISOTOPIC_ATOM_COUNT>
0

> <PUBCHEM_COMPONENT_COUNT>
1

> <PUBCHEM_CACTVS_TAUTO_COUNT>
3

> <PUBCHEM_CONFORMER_ID>
02D04D1300000002

> <PUBCHEM_MMFF94_ENERGY>
45.7751

> <PUBCHEM_FEATURE_SELFOVERLAP>
40.821

> <PUBCHEM_SHAPE_FINGERPRINT>
10 15 18341324535816975739
10354089 29 18342173367441588528
106641 1 18059569153539620595
10670039 82 16878213260284063584
10688039 33 17274827978064451092
10730089 173 17821445763858943776
10912923 1 18409176497356959978
11089746 13 18114187410739708408
11128504 68 8142080966240180886
11315181 36 18341335496663439279
11524674 6 15841832244458377945
117890 112 18187086156626054294
12107183 9 17688027930562909074
12236239 1 18408326579342751238
12516196 113 16917348129894982205
12596602 18 18202280307984338825
12616971 3 18272090465726594446
12670543 26 5617262502382610339
13167372 99 18409731794058292704
13288520 33 11743835868405923119
13533116 47 18334860567166587290
13631057 29 18267592295492747927
13668630 136 9439406834997762280
1420 363 15913330204152199466
14251764 18 18412265017372157295
14251764 75 17127591083515352932
14341114 176 17489871540297958428
14386348 63 16200433580663985858
14573314 32 15936402351696286812
14848160 23 16200436870582430866
15048467 5 18334859415645366032
15183329 4 14129049335972674734
15188451 53 16486681469248630243
15348495 7 16773508880614868112
15475509 35 15266520521131086384
15716309 27 14908180845788274579
17834072 8 4823213918302209532
17844677 252 14405182880426043526
17980427 23 18259983748016024397
18785283 64 16271069407372390052
19489759 90 17458347429206192535
20281389 69 18259706700506809305
20645477 56 17530965791496554255
21033648 29 17273998898540550229
21150785 3 14562539470319468573
21623969 137 17418372502108759730
220451 1 17989207032175562190
221357 26 5761653663867180690
23081809 10 18334867086668245902
23198884 109 14345789466286747083
23402539 116 17603874390338538221
23559900 14 16660370255087111226
26918003 58 16200154291846597878
2767999 5 17894351094246762953
300161 21 18259989283548132855
3014965 18 14851874894554336140
312425 54 16917063399908120033
34797466 226 16588581994454184124
3545911 37 17385721404530585951
4340502 62 16630530635487112490
465052 167 11527946772902694648
5104073 3 18058458612689127442
542803 24 18187367614544338502
5758199 1 18343303627172974216
7062679 6 18113896078591637385

> <PUBCHEM_SHAPE_MULTIPOLES>
386.74
17.63
1.47
1.1
0.86
0.1
0.09
5.32
3.19
0.18
0.01
-0.75
-0.08
-1.36

> <PUBCHEM_SHAPE_SELFOVERLAP>
788.07

> <PUBCHEM_SHAPE_VOLUME>
226

> <PUBCHEM_COORDINATE_TYPE>
2
5
10

$$$$

