442519
  -OEChem-07051212583D

 38 39  0     1  0  0  0  0  0999 V2000
    2.3995   -2.0520   -0.7003 O   0  0  0  0  0  0  0  0  0  0  0  0
   -1.5180    0.6698    0.6081 C   0  0  1  0  0  0  0  0  0  0  0  0
   -2.0301   -0.5559    1.3691 C   0  0  0  0  0  0  0  0  0  0  0  0
   -0.5087   -1.8900   -0.2806 C   0  0  1  0  0  0  0  0  0  0  0  0
   -1.6478   -1.9087    0.7606 C   0  0  0  0  0  0  0  0  0  0  0  0
   -0.0385    0.5052    0.3368 C   0  0  0  0  0  0  0  0  0  0  0  0
   -2.3107    0.9491   -0.6691 C   0  0  0  0  0  0  0  0  0  0  0  0
    0.4714   -0.7525   -0.0520 C   0  0  0  0  0  0  0  0  0  0  0  0
    0.1078   -3.2923   -0.3693 C   0  0  0  0  0  0  0  0  0  0  0  0
    0.8245    1.6021    0.4798 C   0  0  0  0  0  0  0  0  0  0  0  0
    1.8482   -0.8716   -0.2929 C   0  0  0  0  0  0  0  0  0  0  0  0
   -3.7967    1.0725   -0.3531 C   0  0  0  0  0  0  0  0  0  0  0  0
   -1.7927    2.2119   -1.3478 C   0  0  0  0  0  0  0  0  0  0  0  0
    2.1897    1.4596    0.2466 C   0  0  0  0  0  0  0  0  0  0  0  0
    2.7005    0.2241   -0.1374 C   0  0  0  0  0  0  0  0  0  0  0  0
    3.1015    2.6289    0.4013 C   0  0  0  0  0  0  0  0  0  0  0  0
   -1.6472    1.5247    1.2883 H   0  0  0  0  0  0  0  0  0  0  0  0
   -3.1031   -0.5211    1.5797 H   0  0  0  0  0  0  0  0  0  0  0  0
   -1.5659   -0.5251    2.3672 H   0  0  0  0  0  0  0  0  0  0  0  0
   -0.9624   -1.7007   -1.2628 H   0  0  0  0  0  0  0  0  0  0  0  0
   -1.3906   -2.5840    1.5881 H   0  0  0  0  0  0  0  0  0  0  0  0
   -2.5357   -2.3507    0.2895 H   0  0  0  0  0  0  0  0  0  0  0  0
   -2.1999    0.1310   -1.3895 H   0  0  0  0  0  0  0  0  0  0  0  0
    0.7438   -3.5211    0.4928 H   0  0  0  0  0  0  0  0  0  0  0  0
   -0.6858   -4.0496   -0.3919 H   0  0  0  0  0  0  0  0  0  0  0  0
    0.6689   -3.4360   -1.2980 H   0  0  0  0  0  0  0  0  0  0  0  0
    0.4264    2.5685    0.7807 H   0  0  0  0  0  0  0  0  0  0  0  0
   -4.2439    0.1056   -0.1039 H   0  0  0  0  0  0  0  0  0  0  0  0
   -3.9794    1.7680    0.4732 H   0  0  0  0  0  0  0  0  0  0  0  0
   -4.3464    1.4462   -1.2246 H   0  0  0  0  0  0  0  0  0  0  0  0
   -0.7869    2.0779   -1.7571 H   0  0  0  0  0  0  0  0  0  0  0  0
   -1.7832    3.0659   -0.6618 H   0  0  0  0  0  0  0  0  0  0  0  0
   -2.4338    2.4817   -2.1951 H   0  0  0  0  0  0  0  0  0  0  0  0
    3.7662    0.1171   -0.3277 H   0  0  0  0  0  0  0  0  0  0  0  0
    3.1964    3.1599   -0.5511 H   0  0  0  0  0  0  0  0  0  0  0  0
    2.7247    3.3276    1.1561 H   0  0  0  0  0  0  0  0  0  0  0  0
    4.0980    2.3125    0.7281 H   0  0  0  0  0  0  0  0  0  0  0  0
    3.3582   -1.9381   -0.8171 H   0  0  0  0  0  0  0  0  0  0  0  0
  1 11  1  0  0  0  0
  1 38  1  0  0  0  0
  2  3  1  0  0  0  0
  2  6  1  0  0  0  0
  2  7  1  0  0  0  0
  2 17  1  0  0  0  0
  3  5  1  0  0  0  0
  3 18  1  0  0  0  0
  3 19  1  0  0  0  0
  4  5  1  0  0  0  0
  4  8  1  0  0  0  0
  4  9  1  0  0  0  0
  4 20  1  0  0  0  0
  5 21  1  0  0  0  0
  5 22  1  0  0  0  0
  6  8  2  0  0  0  0
  6 10  1  0  0  0  0
  7 12  1  0  0  0  0
  7 13  1  0  0  0  0
  7 23  1  0  0  0  0
  8 11  1  0  0  0  0
  9 24  1  0  0  0  0
  9 25  1  0  0  0  0
  9 26  1  0  0  0  0
 10 14  2  0  0  0  0
 10 27  1  0  0  0  0
 11 15  2  0  0  0  0
 12 28  1  0  0  0  0
 12 29  1  0  0  0  0
 12 30  1  0  0  0  0
 13 31  1  0  0  0  0
 13 32  1  0  0  0  0
 13 33  1  0  0  0  0
 14 15  1  0  0  0  0
 14 16  1  0  0  0  0
 15 34  1  0  0  0  0
 16 35  1  0  0  0  0
 16 36  1  0  0  0  0
 16 37  1  0  0  0  0
M  END
> <PUBCHEM_COMPOUND_CID>
442519

> <PUBCHEM_CONFORMER_RMSD>
0.6

> <PUBCHEM_CONFORMER_DIVERSEORDER>
2
1

> <PUBCHEM_MMFF94_PARTIAL_CHARGES>
13
1 -0.53
10 -0.15
11 0.08
14 -0.14
15 -0.15
16 0.14
2 0.14
27 0.15
34 0.15
38 0.45
4 0.14
6 -0.14
8 -0.14

> <PUBCHEM_EFFECTIVE_ROTOR_COUNT>
1.8

> <PUBCHEM_PHARMACOPHORE_FEATURES>
4
1 1 donor
3 7 12 13 hydrophobe
6 2 3 4 5 6 8 rings
6 6 8 10 11 14 15 rings

> <PUBCHEM_HEAVY_ATOM_COUNT>
16

> <PUBCHEM_ATOM_DEF_STEREO_COUNT>
2

> <PUBCHEM_ATOM_UDEF_STEREO_COUNT>
0

> <PUBCHEM_BOND_DEF_STEREO_COUNT>
0

> <PUBCHEM_BOND_UDEF_STEREO_COUNT>
0

> <PUBCHEM_ISOTOPIC_ATOM_COUNT>
0

> <PUBCHEM_COMPONENT_COUNT>
1

> <PUBCHEM_CACTVS_TAUTO_COUNT>
17

> <PUBCHEM_CONFORMER_ID>
0006C09700000002

> <PUBCHEM_MMFF94_ENERGY>
50.3677

> <PUBCHEM_FEATURE_SELFOVERLAP>
20.321

> <PUBCHEM_SHAPE_FINGERPRINT>
1 1 18338523057039929847
10608611 8 18412545392352287633
10871710 139 17121408451542189348
10967382 1 18265329693355401370
11132069 177 17757827828018489672
11680986 33 18409445899533737298
12138202 97 18198921235352525637
12403259 226 18127129890753517839
12730499 353 18127976519735518053
13140716 1 18410847772231894891
13380535 76 18337402547332991224
13464514 151 17478619361279389389
13897977 150 18410854391034759009
14614273 12 18120375354484707524
14817 1 7395183817182887669
15219456 202 18412539886356974257
15490181 7 18411982425466800090
15852999 172 18044402498451241360
16945 1 18192984031339142746
18186145 218 18267308814512517861
193761 8 18336264522960565646
20871998 184 18125438605673268281
21041028 32 16969410302192190857
21160774 45 17831583076235621742
21501502 16 18338527334700775402
21524375 3 18271533090704019867
21947302 44 18337116755787690440
22182313 1 18341320094620545759
22802520 49 18271238430246470609
2334 1 18337666408543397474
23419403 2 15389120387589716550
23526113 38 17910670200645607595
23559900 14 18115006530593302348
238 59 17838652137592193685
25 1 18053383494126508957
257057 1 17185042107094236867
2748010 2 18339347596145056019
3323516 105 18196091273322881765
5255222 1 18118679907618065184
77492 1 17022901298123215265
7832392 63 17541665358032058153
81228 2 17907866102181026323
84936 182 18040725804451170713

> <PUBCHEM_SHAPE_MULTIPOLES>
323.4
4.59
3.28
1.02
0.26
1.54
-0.03
-2.84
0.08
0.47
0.66
-0.48
-0.14
1.17

> <PUBCHEM_SHAPE_SELFOVERLAP>
677.401

> <PUBCHEM_SHAPE_VOLUME>
183.9

> <PUBCHEM_COORDINATE_TYPE>
2
5
10

$$$$

