34328
  -OEChem-07051212542D

 60 63  0     0  0  0  0  0  0999 V2000
    4.3660    3.4808    0.0000 O   0  0  0  0  0  0  0  0  0  0  0  0
    5.5397    4.4656    0.0000 O   0  0  0  0  0  0  0  0  0  0  0  0
    5.8660    0.6148    0.0000 N   0  0  0  0  0  0  0  0  0  0  0  0
    7.0000   -1.8852    0.0000 N   0  0  0  0  0  0  0  0  0  0  0  0
    5.8660    2.6148    0.0000 C   0  0  0  0  0  0  0  0  0  0  0  0
    6.7320    2.1148    0.0000 C   0  0  0  0  0  0  0  0  0  0  0  0
    5.0000    2.1148    0.0000 C   0  0  0  0  0  0  0  0  0  0  0  0
    6.7320    1.1148    0.0000 C   0  0  0  0  0  0  0  0  0  0  0  0
    5.0000    1.1148    0.0000 C   0  0  0  0  0  0  0  0  0  0  0  0
    5.8660   -0.3852    0.0000 C   0  0  0  0  0  0  0  0  0  0  0  0
    6.6321    3.2576    0.0000 C   0  0  0  0  0  0  0  0  0  0  0  0
    5.0000   -0.8852    0.0000 C   0  0  0  0  0  0  0  0  0  0  0  0
    5.3660    3.4808    0.0000 C   0  0  0  0  0  0  0  0  0  0  0  0
    5.0000   -1.8852    0.0000 C   0  0  0  0  0  0  0  0  0  0  0  0
    7.5718    2.9156    0.0000 C   0  0  0  0  0  0  0  0  0  0  0  0
    6.4584    4.2424    0.0000 C   0  0  0  0  0  0  0  0  0  0  0  0
    5.0000   -2.8852    0.0000 C   0  0  0  0  0  0  0  0  0  0  0  0
    4.0000   -1.8852    0.0000 C   0  0  0  0  0  0  0  0  0  0  0  0
    8.3378    3.5584    0.0000 C   0  0  0  0  0  0  0  0  0  0  0  0
    7.2245    4.8852    0.0000 C   0  0  0  0  0  0  0  0  0  0  0  0
    6.0000   -1.8852    0.0000 C   0  0  0  0  0  0  0  0  0  0  0  0
    8.1642    4.5432    0.0000 C   0  0  0  0  0  0  0  0  0  0  0  0
    3.5000   -1.0192    0.0000 C   0  0  0  0  0  0  0  0  0  0  0  0
    4.1340   -3.3852    0.0000 C   0  0  0  0  0  0  0  0  0  0  0  0
    3.5000   -2.7512    0.0000 C   0  0  0  0  0  0  0  0  0  0  0  0
    5.8660   -3.3852    0.0000 C   0  0  0  0  0  0  0  0  0  0  0  0
    2.5000   -1.0192    0.0000 C   0  0  0  0  0  0  0  0  0  0  0  0
    4.1340   -4.3852    0.0000 C   0  0  0  0  0  0  0  0  0  0  0  0
    2.5000   -2.7512    0.0000 C   0  0  0  0  0  0  0  0  0  0  0  0
    5.8660   -4.3852    0.0000 C   0  0  0  0  0  0  0  0  0  0  0  0
    2.0000   -1.8852    0.0000 C   0  0  0  0  0  0  0  0  0  0  0  0
    5.0000   -4.8852    0.0000 C   0  0  0  0  0  0  0  0  0  0  0  0
    4.7880    2.6974    0.0000 H   0  0  0  0  0  0  0  0  0  0  0  0
    4.3894    2.0072    0.0000 H   0  0  0  0  0  0  0  0  0  0  0  0
    7.3426    2.0072    0.0000 H   0  0  0  0  0  0  0  0  0  0  0  0
    6.9441    2.6974    0.0000 H   0  0  0  0  0  0  0  0  0  0  0  0
    6.9441    0.5322    0.0000 H   0  0  0  0  0  0  0  0  0  0  0  0
    7.3426    1.2225    0.0000 H   0  0  0  0  0  0  0  0  0  0  0  0
    4.3894    1.2225    0.0000 H   0  0  0  0  0  0  0  0  0  0  0  0
    4.7880    0.5322    0.0000 H   0  0  0  0  0  0  0  0  0  0  0  0
    6.0781   -0.9678    0.0000 H   0  0  0  0  0  0  0  0  0  0  0  0
    6.4766   -0.2775    0.0000 H   0  0  0  0  0  0  0  0  0  0  0  0
    4.7880   -0.3026    0.0000 H   0  0  0  0  0  0  0  0  0  0  0  0
    4.3894   -0.9929    0.0000 H   0  0  0  0  0  0  0  0  0  0  0  0
    7.6794    2.3050    0.0000 H   0  0  0  0  0  0  0  0  0  0  0  0
    5.8758    4.4545    0.0000 H   0  0  0  0  0  0  0  0  0  0  0  0
    4.0560    4.0178    0.0000 H   0  0  0  0  0  0  0  0  0  0  0  0
    8.9204    3.3463    0.0000 H   0  0  0  0  0  0  0  0  0  0  0  0
    7.1168    5.4958    0.0000 H   0  0  0  0  0  0  0  0  0  0  0  0
    8.6391    4.9417    0.0000 H   0  0  0  0  0  0  0  0  0  0  0  0
    3.5970   -3.0752    0.0000 H   0  0  0  0  0  0  0  0  0  0  0  0
    3.8100   -0.4822    0.0000 H   0  0  0  0  0  0  0  0  0  0  0  0
    6.4030   -3.0752    0.0000 H   0  0  0  0  0  0  0  0  0  0  0  0
    3.8100   -3.2882    0.0000 H   0  0  0  0  0  0  0  0  0  0  0  0
    2.1900   -0.4822    0.0000 H   0  0  0  0  0  0  0  0  0  0  0  0
    3.5970   -4.6952    0.0000 H   0  0  0  0  0  0  0  0  0  0  0  0
    2.1900   -3.2882    0.0000 H   0  0  0  0  0  0  0  0  0  0  0  0
    6.4030   -4.6952    0.0000 H   0  0  0  0  0  0  0  0  0  0  0  0
    1.3800   -1.8852    0.0000 H   0  0  0  0  0  0  0  0  0  0  0  0
    5.0000   -5.5052    0.0000 H   0  0  0  0  0  0  0  0  0  0  0  0
  1 13  1  0  0  0  0
  1 47  1  0  0  0  0
  2 13  2  0  0  0  0
  3  8  1  0  0  0  0
  3  9  1  0  0  0  0
  3 10  1  0  0  0  0
  4 21  3  0  0  0  0
  5  6  1  0  0  0  0
  5  7  1  0  0  0  0
  5 11  1  0  0  0  0
  5 13  1  0  0  0  0
  6  8  1  0  0  0  0
  6 35  1  0  0  0  0
  6 36  1  0  0  0  0
  7  9  1  0  0  0  0
  7 33  1  0  0  0  0
  7 34  1  0  0  0  0
  8 37  1  0  0  0  0
  8 38  1  0  0  0  0
  9 39  1  0  0  0  0
  9 40  1  0  0  0  0
 10 12  1  0  0  0  0
 10 41  1  0  0  0  0
 10 42  1  0  0  0  0
 11 15  2  0  0  0  0
 11 16  1  0  0  0  0
 12 14  1  0  0  0  0
 12 43  1  0  0  0  0
 12 44  1  0  0  0  0
 14 17  1  0  0  0  0
 14 18  1  0  0  0  0
 14 21  1  0  0  0  0
 15 19  1  0  0  0  0
 15 45  1  0  0  0  0
 16 20  2  0  0  0  0
 16 46  1  0  0  0  0
 17 24  2  0  0  0  0
 17 26  1  0  0  0  0
 18 23  2  0  0  0  0
 18 25  1  0  0  0  0
 19 22  2  0  0  0  0
 19 48  1  0  0  0  0
 20 22  1  0  0  0  0
 20 49  1  0  0  0  0
 22 50  1  0  0  0  0
 23 27  1  0  0  0  0
 23 52  1  0  0  0  0
 24 28  1  0  0  0  0
 24 51  1  0  0  0  0
 25 29  2  0  0  0  0
 25 54  1  0  0  0  0
 26 30  2  0  0  0  0
 26 53  1  0  0  0  0
 27 31  2  0  0  0  0
 27 55  1  0  0  0  0
 28 32  2  0  0  0  0
 28 56  1  0  0  0  0
 29 31  1  0  0  0  0
 29 57  1  0  0  0  0
 30 32  1  0  0  0  0
 30 58  1  0  0  0  0
 31 59  1  0  0  0  0
 32 60  1  0  0  0  0
M  END
> <PUBCHEM_COMPOUND_CID>
34328

> <PUBCHEM_COMPOUND_CANONICALIZED>
1

> <PUBCHEM_CACTVS_COMPLEXITY>
636

> <PUBCHEM_CACTVS_HBOND_ACCEPTOR>
4

> <PUBCHEM_CACTVS_HBOND_DONOR>
1

> <PUBCHEM_CACTVS_ROTATABLE_BOND>
7

> <PUBCHEM_CACTVS_SUBSKEYS>
AAADceB7MAAAAAAAAAAAAAAAAAAAAAAAAAA8YMEAAAAAAAABUAAAHgAACAAADgDBmAQwCIMAAgCYBiDSCAACAAAgAAAIiAEIAIgIoDKAlRCEYAAkwAGIiA+8yOCPgAAAAAAAAAAAAAAAAAAAAAAAAAAAAA==

> <PUBCHEM_IUPAC_OPENEYE_NAME>
1-(3-cyano-3,3-diphenyl-propyl)-4-phenyl-piperidine-4-carboxylic acid

> <PUBCHEM_IUPAC_CAS_NAME>
1-(3-cyano-3,3-diphenylpropyl)-4-phenyl-4-piperidinecarboxylic acid

> <PUBCHEM_IUPAC_NAME>
1-(3-cyano-3,3-diphenylpropyl)-4-phenylpiperidine-4-carboxylic acid

> <PUBCHEM_IUPAC_SYSTEMATIC_NAME>
1-(3-cyano-3,3-diphenyl-propyl)-4-phenyl-piperidine-4-carboxylic acid

> <PUBCHEM_IUPAC_TRADITIONAL_NAME>
1-(3-cyano-3,3-diphenyl-propyl)-4-phenyl-isonipecotic acid

> <PUBCHEM_IUPAC_INCHI>
InChI=1S/C28H28N2O2/c29-22-28(24-12-6-2-7-13-24,25-14-8-3-9-15-25)18-21-30-19-16-27(17-20-30,26(31)32)23-10-4-1-5-11-23/h1-15H,16-21H2,(H,31,32)

> <PUBCHEM_IUPAC_INCHIKEY>
UFIVBRCCIRTJTN-UHFFFAOYSA-N

> <PUBCHEM_XLOGP3_AA>
2.7

> <PUBCHEM_EXACT_MASS>
424.215078

> <PUBCHEM_MOLECULAR_FORMULA>
C28H28N2O2

> <PUBCHEM_MOLECULAR_WEIGHT>
424.53412

> <PUBCHEM_OPENEYE_CAN_SMILES>
C1CN(CCC1(C2=CC=CC=C2)C(=O)O)CCC(C#N)(C3=CC=CC=C3)C4=CC=CC=C4

> <PUBCHEM_OPENEYE_ISO_SMILES>
C1CN(CCC1(C2=CC=CC=C2)C(=O)O)CCC(C#N)(C3=CC=CC=C3)C4=CC=CC=C4

> <PUBCHEM_CACTVS_TPSA>
64.3

> <PUBCHEM_MONOISOTOPIC_WEIGHT>
424.215078

> <PUBCHEM_TOTAL_CHARGE>
0

> <PUBCHEM_HEAVY_ATOM_COUNT>
32

> <PUBCHEM_ATOM_DEF_STEREO_COUNT>
0

> <PUBCHEM_ATOM_UDEF_STEREO_COUNT>
0

> <PUBCHEM_BOND_DEF_STEREO_COUNT>
0

> <PUBCHEM_BOND_UDEF_STEREO_COUNT>
0

> <PUBCHEM_ISOTOPIC_ATOM_COUNT>
0

> <PUBCHEM_COMPONENT_COUNT>
1

> <PUBCHEM_CACTVS_TAUTO_COUNT>
1

> <PUBCHEM_COORDINATE_TYPE>
1
5
255

> <PUBCHEM_BONDANNOTATIONS>
11  15  8
11  16  8
15  19  8
16  20  8
17  24  8
17  26  8
18  23  8
18  25  8
19  22  8
20  22  8
23  27  8
24  28  8
25  29  8
26  30  8
27  31  8
28  32  8
29  31  8
30  32  8

$$$$

