5281800
  -OEChem-07051212592D

 80 83  0     1  0  0  0  0  0999 V2000
   10.3312    2.7500    0.0000 O   0  0  0  0  0  0  0  0  0  0  0  0
   10.3312   -0.2500    0.0000 O   0  0  0  0  0  0  0  0  0  0  0  0
   12.0632    2.7500    0.0000 O   0  0  0  0  0  0  0  0  0  0  0  0
    8.5991    1.7500    0.0000 O   0  0  0  0  0  0  0  0  0  0  0  0
   12.0632   -0.2500    0.0000 O   0  0  0  0  0  0  0  0  0  0  0  0
   12.0632    1.7500    0.0000 O   0  0  0  0  0  0  0  0  0  0  0  0
   10.3312    4.7500    0.0000 O   0  0  0  0  0  0  0  0  0  0  0  0
   12.0632    5.7500    0.0000 O   0  0  0  0  0  0  0  0  0  0  0  0
   13.7953    4.7500    0.0000 O   0  0  0  0  0  0  0  0  0  0  0  0
    8.5991   -1.2500    0.0000 O   0  0  0  0  0  0  0  0  0  0  0  0
    7.7331    0.2500    0.0000 O   0  0  0  0  0  0  0  0  0  0  0  0
   11.1972   -4.7500    0.0000 O   0  0  0  0  0  0  0  0  0  0  0  0
   12.9292   -5.7500    0.0000 O   0  0  0  0  0  0  0  0  0  0  0  0
    4.2690    4.2500    0.0000 O   0  0  0  0  0  0  0  0  0  0  0  0
    2.5369    3.2500    0.0000 O   0  0  0  0  0  0  0  0  0  0  0  0
   10.3312    1.7500    0.0000 C   0  0  1  0  0  0  0  0  0  0  0  0
    9.4651    1.2500    0.0000 C   0  0  1  0  0  0  0  0  0  0  0  0
   11.1972    1.2500    0.0000 C   0  0  2  0  0  0  0  0  0  0  0  0
    9.4651    0.2500    0.0000 C   0  0  1  0  0  0  0  0  0  0  0  0
   11.1972    3.2500    0.0000 C   0  0  2  0  0  0  0  0  0  0  0  0
   11.1972    4.2500    0.0000 C   0  0  1  0  0  0  0  0  0  0  0  0
   11.1972    0.2500    0.0000 C   0  0  1  0  0  0  0  0  0  0  0  0
   12.0632    4.7500    0.0000 C   0  0  1  0  0  0  0  0  0  0  0  0
   12.9292    4.2500    0.0000 C   0  0  2  0  0  0  0  0  0  0  0  0
   12.9292    3.2500    0.0000 C   0  0  2  0  0  0  0  0  0  0  0  0
    8.5991   -0.2500    0.0000 C   0  0  0  0  0  0  0  0  0  0  0  0
   13.7953    2.7500    0.0000 C   0  0  0  0  0  0  0  0  0  0  0  0
   12.0632   -1.2500    0.0000 C   0  0  0  0  0  0  0  0  0  0  0  0
    7.7331    1.2500    0.0000 C   0  0  0  0  0  0  0  0  0  0  0  0
   12.9292   -1.7500    0.0000 C   0  0  0  0  0  0  0  0  0  0  0  0
    6.8671    1.7500    0.0000 C   0  0  0  0  0  0  0  0  0  0  0  0
   12.9292   -2.7500    0.0000 C   0  0  0  0  0  0  0  0  0  0  0  0
    6.0010    1.2500    0.0000 C   0  0  0  0  0  0  0  0  0  0  0  0
   12.0632   -3.2500    0.0000 C   0  0  0  0  0  0  0  0  0  0  0  0
   13.7953   -3.2500    0.0000 C   0  0  0  0  0  0  0  0  0  0  0  0
   12.0632   -4.2500    0.0000 C   0  0  0  0  0  0  0  0  0  0  0  0
   13.7953   -4.2500    0.0000 C   0  0  0  0  0  0  0  0  0  0  0  0
    5.1350    1.7500    0.0000 C   0  0  0  0  0  0  0  0  0  0  0  0
   12.9292   -4.7500    0.0000 C   0  0  0  0  0  0  0  0  0  0  0  0
    5.1350    2.7500    0.0000 C   0  0  0  0  0  0  0  0  0  0  0  0
    4.2690    1.2500    0.0000 C   0  0  0  0  0  0  0  0  0  0  0  0
    4.2690    3.2500    0.0000 C   0  0  0  0  0  0  0  0  0  0  0  0
    3.4030    1.7500    0.0000 C   0  0  0  0  0  0  0  0  0  0  0  0
    3.4030    2.7500    0.0000 C   0  0  0  0  0  0  0  0  0  0  0  0
   10.8681    2.0600    0.0000 H   0  0  0  0  0  0  0  0  0  0  0  0
    9.4651    1.8700    0.0000 H   0  0  0  0  0  0  0  0  0  0  0  0
   11.1972    1.8700    0.0000 H   0  0  0  0  0  0  0  0  0  0  0  0
    9.4651   -0.3700    0.0000 H   0  0  0  0  0  0  0  0  0  0  0  0
   10.6603    3.5600    0.0000 H   0  0  0  0  0  0  0  0  0  0  0  0
   10.6603    3.9400    0.0000 H   0  0  0  0  0  0  0  0  0  0  0  0
   11.1972   -0.3700    0.0000 H   0  0  0  0  0  0  0  0  0  0  0  0
   12.6002    5.0600    0.0000 H   0  0  0  0  0  0  0  0  0  0  0  0
   12.9292    4.8700    0.0000 H   0  0  0  0  0  0  0  0  0  0  0  0
   12.9292    2.6300    0.0000 H   0  0  0  0  0  0  0  0  0  0  0  0
    8.3871    0.3326    0.0000 H   0  0  0  0  0  0  0  0  0  0  0  0
    7.9885   -0.3577    0.0000 H   0  0  0  0  0  0  0  0  0  0  0  0
   13.4853    2.2131    0.0000 H   0  0  0  0  0  0  0  0  0  0  0  0
   14.3322    2.4400    0.0000 H   0  0  0  0  0  0  0  0  0  0  0  0
   14.1053    3.2869    0.0000 H   0  0  0  0  0  0  0  0  0  0  0  0
   12.6002    1.4400    0.0000 H   0  0  0  0  0  0  0  0  0  0  0  0
   10.3312    5.3700    0.0000 H   0  0  0  0  0  0  0  0  0  0  0  0
   12.6002    6.0600    0.0000 H   0  0  0  0  0  0  0  0  0  0  0  0
   14.3322    4.4400    0.0000 H   0  0  0  0  0  0  0  0  0  0  0  0
   11.4526   -1.1423    0.0000 H   0  0  0  0  0  0  0  0  0  0  0  0
   11.8512   -1.8326    0.0000 H   0  0  0  0  0  0  0  0  0  0  0  0
    8.0622   -1.5600    0.0000 H   0  0  0  0  0  0  0  0  0  0  0  0
   13.5398   -1.8577    0.0000 H   0  0  0  0  0  0  0  0  0  0  0  0
   13.1413   -1.1674    0.0000 H   0  0  0  0  0  0  0  0  0  0  0  0
    6.8671    2.3700    0.0000 H   0  0  0  0  0  0  0  0  0  0  0  0
    6.0010    0.6300    0.0000 H   0  0  0  0  0  0  0  0  0  0  0  0
   11.5263   -2.9400    0.0000 H   0  0  0  0  0  0  0  0  0  0  0  0
   14.3322   -2.9400    0.0000 H   0  0  0  0  0  0  0  0  0  0  0  0
   14.3322   -4.5600    0.0000 H   0  0  0  0  0  0  0  0  0  0  0  0
    5.6720    3.0600    0.0000 H   0  0  0  0  0  0  0  0  0  0  0  0
    4.2690    0.6300    0.0000 H   0  0  0  0  0  0  0  0  0  0  0  0
   11.1972   -5.3700    0.0000 H   0  0  0  0  0  0  0  0  0  0  0  0
   13.4662   -6.0600    0.0000 H   0  0  0  0  0  0  0  0  0  0  0  0
    2.8660    1.4400    0.0000 H   0  0  0  0  0  0  0  0  0  0  0  0
    3.7320    4.5600    0.0000 H   0  0  0  0  0  0  0  0  0  0  0  0
    2.0000    2.9400    0.0000 H   0  0  0  0  0  0  0  0  0  0  0  0
 16  1  1  6  0  0  0
 20  1  1  1  0  0  0
  2 19  1  0  0  0  0
  2 22  1  0  0  0  0
  3 20  1  0  0  0  0
  3 25  1  0  0  0  0
 17  4  1  1  0  0  0
  4 29  1  0  0  0  0
 22  5  1  6  0  0  0
  5 28  1  0  0  0  0
 18  6  1  1  0  0  0
  6 60  1  0  0  0  0
 21  7  1  6  0  0  0
  7 61  1  0  0  0  0
 23  8  1  6  0  0  0
  8 62  1  0  0  0  0
 24  9  1  1  0  0  0
  9 63  1  0  0  0  0
 10 26  1  0  0  0  0
 10 66  1  0  0  0  0
 11 29  2  0  0  0  0
 12 36  1  0  0  0  0
 12 76  1  0  0  0  0
 13 39  1  0  0  0  0
 13 77  1  0  0  0  0
 14 42  1  0  0  0  0
 14 79  1  0  0  0  0
 15 44  1  0  0  0  0
 15 80  1  0  0  0  0
 16 17  1  0  0  0  0
 16 18  1  0  0  0  0
 16 45  1  0  0  0  0
 17 19  1  0  0  0  0
 17 46  1  0  0  0  0
 18 22  1  0  0  0  0
 18 47  1  0  0  0  0
 19 26  1  6  0  0  0
 19 48  1  0  0  0  0
 20 21  1  0  0  0  0
 20 49  1  0  0  0  0
 21 23  1  0  0  0  0
 21 50  1  0  0  0  0
 22 51  1  0  0  0  0
 23 24  1  0  0  0  0
 23 52  1  0  0  0  0
 24 25  1  0  0  0  0
 24 53  1  0  0  0  0
 25 27  1  6  0  0  0
 25 54  1  0  0  0  0
 26 55  1  0  0  0  0
 26 56  1  0  0  0  0
 27 57  1  0  0  0  0
 27 58  1  0  0  0  0
 27 59  1  0  0  0  0
 28 30  1  0  0  0  0
 28 64  1  0  0  0  0
 28 65  1  0  0  0  0
 29 31  1  0  0  0  0
 30 32  1  0  0  0  0
 30 67  1  0  0  0  0
 30 68  1  0  0  0  0
 31 33  2  0  0  0  0
 31 69  1  0  0  0  0
 32 34  2  0  0  0  0
 32 35  1  0  0  0  0
 33 38  1  0  0  0  0
 33 70  1  0  0  0  0
 34 36  1  0  0  0  0
 34 71  1  0  0  0  0
 35 37  2  0  0  0  0
 35 72  1  0  0  0  0
 36 39  2  0  0  0  0
 37 39  1  0  0  0  0
 37 73  1  0  0  0  0
 38 40  2  0  0  0  0
 38 41  1  0  0  0  0
 40 42  1  0  0  0  0
 40 74  1  0  0  0  0
 41 43  2  0  0  0  0
 41 75  1  0  0  0  0
 42 44  2  0  0  0  0
 43 44  1  0  0  0  0
 43 78  1  0  0  0  0
M  END
> <PUBCHEM_COMPOUND_CID>
5281800

> <PUBCHEM_COMPOUND_CANONICALIZED>
1

> <PUBCHEM_CACTVS_COMPLEXITY>
936

> <PUBCHEM_CACTVS_HBOND_ACCEPTOR>
15

> <PUBCHEM_CACTVS_HBOND_DONOR>
9

> <PUBCHEM_CACTVS_ROTATABLE_BOND>
11

> <PUBCHEM_CACTVS_SUBSKEYS>
AAADcfB4PAAAAAAAAAAAAAAAAAAAAAAAAAA0aIEAAAAAAAABQAAAGgAACAAADBSwmAMyDoAABgCIAiDSCAACAAAgIAAIiAAGiMgZNiKCMRKicAElwBEPuYfA4LwOIAABAAAAQABAAAIAAACAAAAAAAAAAA==

> <PUBCHEM_IUPAC_OPENEYE_NAME>
[(2R,3R,4R,5R,6R)-6-[2-(3,4-dihydroxyphenyl)ethoxy]-5-hydroxy-2-(hydroxymethyl)-4-[(2S,3R,4R,5R,6S)-3,4,5-trihydroxy-6-methyl-tetrahydropyran-2-yl]oxy-tetrahydropyran-3-yl] (E)-3-(3,4-dihydroxyphenyl)prop-2-enoate

> <PUBCHEM_IUPAC_CAS_NAME>
(E)-3-(3,4-dihydroxyphenyl)-2-propenoic acid [(2R,3R,4R,5R,6R)-6-[2-(3,4-dihydroxyphenyl)ethoxy]-5-hydroxy-2-(hydroxymethyl)-4-[[(2S,3R,4R,5R,6S)-3,4,5-trihydroxy-6-methyl-2-oxanyl]oxy]-3-oxanyl] ester

> <PUBCHEM_IUPAC_NAME>
[(2R,3R,4R,5R,6R)-6-[2-(3,4-dihydroxyphenyl)ethoxy]-5-hydroxy-2-(hydroxymethyl)-4-[(2S,3R,4R,5R,6S)-3,4,5-trihydroxy-6-methyloxan-2-yl]oxyoxan-3-yl] (E)-3-(3,4-dihydroxyphenyl)prop-2-enoate

> <PUBCHEM_IUPAC_SYSTEMATIC_NAME>
[(2R,3R,4R,5R,6R)-6-[2-[3,4-bis(oxidanyl)phenyl]ethoxy]-2-(hydroxymethyl)-4-[(2S,3R,4R,5R,6S)-6-methyl-3,4,5-tris(oxidanyl)oxan-2-yl]oxy-5-oxidanyl-oxan-3-yl] (E)-3-[3,4-bis(oxidanyl)phenyl]prop-2-enoate

> <PUBCHEM_IUPAC_TRADITIONAL_NAME>
(E)-3-(3,4-dihydroxyphenyl)acrylic acid [(2R,3R,4R,5R,6R)-6-[2-(3,4-dihydroxyphenyl)ethoxy]-5-hydroxy-2-methylol-4-[(2S,3R,4R,5R,6S)-3,4,5-trihydroxy-6-methyl-tetrahydropyran-2-yl]oxy-tetrahydropyran-3-yl] ester

> <PUBCHEM_IUPAC_INCHI>
InChI=1S/C29H36O15/c1-13-22(36)23(37)24(38)29(41-13)44-27-25(39)28(40-9-8-15-3-6-17(32)19(34)11-15)42-20(12-30)26(27)43-21(35)7-4-14-2-5-16(31)18(33)10-14/h2-7,10-11,13,20,22-34,36-39H,8-9,12H2,1H3/b7-4+/t13-,20+,22-,23+,24+,25+,26+,27+,28+,29-/m0/s1

> <PUBCHEM_IUPAC_INCHIKEY>
FBSKJMQYURKNSU-ZLSOWSIRSA-N

> <PUBCHEM_XLOGP3_AA>
-0.5

> <PUBCHEM_EXACT_MASS>
624.20542

> <PUBCHEM_MOLECULAR_FORMULA>
C29H36O15

> <PUBCHEM_MOLECULAR_WEIGHT>
624.58714

> <PUBCHEM_OPENEYE_CAN_SMILES>
CC1C(C(C(C(O1)OC2C(C(OC(C2OC(=O)C=CC3=CC(=C(C=C3)O)O)CO)OCCC4=CC(=C(C=C4)O)O)O)O)O)O

> <PUBCHEM_OPENEYE_ISO_SMILES>
C[C@H]1[C@@H]([C@H]([C@H]([C@@H](O1)O[C@@H]2[C@H]([C@@H](O[C@@H]([C@H]2OC(=O)/C=C/C3=CC(=C(C=C3)O)O)CO)OCCC4=CC(=C(C=C4)O)O)O)O)O)O

> <PUBCHEM_CACTVS_TPSA>
245

> <PUBCHEM_MONOISOTOPIC_WEIGHT>
624.20542

> <PUBCHEM_TOTAL_CHARGE>
0

> <PUBCHEM_HEAVY_ATOM_COUNT>
44

> <PUBCHEM_ATOM_DEF_STEREO_COUNT>
10

> <PUBCHEM_ATOM_UDEF_STEREO_COUNT>
0

> <PUBCHEM_BOND_DEF_STEREO_COUNT>
1

> <PUBCHEM_BOND_UDEF_STEREO_COUNT>
0

> <PUBCHEM_ISOTOPIC_ATOM_COUNT>
0

> <PUBCHEM_COMPONENT_COUNT>
1

> <PUBCHEM_CACTVS_TAUTO_COUNT>
288

> <PUBCHEM_COORDINATE_TYPE>
1
5
255

> <PUBCHEM_BONDANNOTATIONS>
16  1  6
20  1  5
19  26  6
25  27  6
32  34  8
32  35  8
34  36  8
35  37  8
36  39  8
37  39  8
38  40  8
38  41  8
17  4  5
40  42  8
41  43  8
42  44  8
43  44  8
22  5  6
18  6  5
21  7  6
23  8  6
24  9  5

$$$$

