443730
  -OEChem-07051213032D

 49 52  0     1  0  0  0  0  0999 V2000
    6.1719    1.3432    0.0000 O   0  0  0  0  0  0  0  0  0  0  0  0
    7.0479   -0.1951    0.0000 O   0  0  0  0  0  0  0  0  0  0  0  0
    2.5394   -1.7869    0.0000 O   0  0  0  0  0  0  0  0  0  0  0  0
    4.3427   -2.8467    0.0000 O   0  0  0  0  0  0  0  0  0  0  0  0
    2.5836    1.5453    0.0000 N   0  0  3  0  0  0  0  0  0  0  0  0
    3.5298    1.8500    0.0000 C   0  0  1  0  0  0  0  0  0  0  0  0
    4.3958    1.3500    0.0000 C   0  0  1  0  0  0  0  0  0  0  0  0
    5.2619    1.8500    0.0000 C   0  0  1  0  0  0  0  0  0  0  0  0
    3.5298    2.8500    0.0000 C   0  0  0  0  0  0  0  0  0  0  0  0
    5.2619    2.8500    0.0000 C   0  0  0  0  0  0  0  0  0  0  0  0
    2.5836    3.1548    0.0000 C   0  0  0  0  0  0  0  0  0  0  0  0
    4.3798    0.3085    0.0000 C   0  0  0  0  0  0  0  0  0  0  0  0
    2.0000    2.3500    0.0000 C   0  0  0  0  0  0  0  0  0  0  0  0
    4.3958    3.3500    0.0000 C   0  0  0  0  0  0  0  0  0  0  0  0
    5.2778   -0.2192    0.0000 C   0  0  0  0  0  0  0  0  0  0  0  0
    6.1799    0.3016    0.0000 C   0  0  2  0  0  0  0  0  0  0  0  0
    2.2729    0.5948    0.0000 C   0  0  0  0  0  0  0  0  0  0  0  0
    3.4279   -0.2121    0.0000 C   0  0  0  0  0  0  0  0  0  0  0  0
    5.2862   -1.3042    0.0000 C   0  0  0  0  0  0  0  0  0  0  0  0
    3.4111   -1.2970    0.0000 C   0  0  0  0  0  0  0  0  0  0  0  0
    4.3466   -1.8467    0.0000 C   0  0  0  0  0  0  0  0  0  0  0  0
    7.9120    0.3083    0.0000 C   0  0  0  0  0  0  0  0  0  0  0  0
    2.5278   -2.7869    0.0000 C   0  0  0  0  0  0  0  0  0  0  0  0
    5.2068   -3.3500    0.0000 C   0  0  0  0  0  0  0  0  0  0  0  0
    3.4399    1.0048    0.0000 H   0  0  0  0  0  0  0  0  0  0  0  0
    3.6565    0.9307    0.0000 H   0  0  0  0  0  0  0  0  0  0  0  0
    5.9947    2.2807    0.0000 H   0  0  0  0  0  0  0  0  0  0  0  0
    5.8725    2.7424    0.0000 H   0  0  0  0  0  0  0  0  0  0  0  0
    5.4739    3.4326    0.0000 H   0  0  0  0  0  0  0  0  0  0  0  0
    2.8346    3.7217    0.0000 H   0  0  0  0  0  0  0  0  0  0  0  0
    2.0462    3.4640    0.0000 H   0  0  0  0  0  0  0  0  0  0  0  0
    1.5391    2.7648    0.0000 H   0  0  0  0  0  0  0  0  0  0  0  0
    1.5391    1.9353    0.0000 H   0  0  0  0  0  0  0  0  0  0  0  0
    4.3958    3.9700    0.0000 H   0  0  0  0  0  0  0  0  0  0  0  0
    6.1811   -0.3184    0.0000 H   0  0  0  0  0  0  0  0  0  0  0  0
    1.6836    0.7874    0.0000 H   0  0  0  0  0  0  0  0  0  0  0  0
    2.0803    0.0054    0.0000 H   0  0  0  0  0  0  0  0  0  0  0  0
    2.8623    0.4022    0.0000 H   0  0  0  0  0  0  0  0  0  0  0  0
    2.8970    0.1082    0.0000 H   0  0  0  0  0  0  0  0  0  0  0  0
    5.8243   -1.6121    0.0000 H   0  0  0  0  0  0  0  0  0  0  0  0
    8.2240   -0.2275    0.0000 H   0  0  0  0  0  0  0  0  0  0  0  0
    8.4477    0.6203    0.0000 H   0  0  0  0  0  0  0  0  0  0  0  0
    7.5999    0.8440    0.0000 H   0  0  0  0  0  0  0  0  0  0  0  0
    1.9079   -2.7797    0.0000 H   0  0  0  0  0  0  0  0  0  0  0  0
    2.5207   -3.4068    0.0000 H   0  0  0  0  0  0  0  0  0  0  0  0
    3.1478   -2.7940    0.0000 H   0  0  0  0  0  0  0  0  0  0  0  0
    4.8947   -3.8858    0.0000 H   0  0  0  0  0  0  0  0  0  0  0  0
    5.7425   -3.6621    0.0000 H   0  0  0  0  0  0  0  0  0  0  0  0
    5.5189   -2.8143    0.0000 H   0  0  0  0  0  0  0  0  0  0  0  0
  1  8  1  0  0  0  0
  1 16  1  0  0  0  0
 16  2  1  6  0  0  0
  2 22  1  0  0  0  0
  3 20  1  0  0  0  0
  3 23  1  0  0  0  0
  4 21  1  0  0  0  0
  4 24  1  0  0  0  0
  5  6  1  0  0  0  0
  5 13  1  0  0  0  0
  5 17  1  0  0  0  0
  6  7  1  0  0  0  0
  6  9  1  0  0  0  0
  6 25  1  1  0  0  0
  7  8  1  0  0  0  0
  7 12  1  0  0  0  0
  7 26  1  6  0  0  0
  8 10  1  0  0  0  0
  8 27  1  6  0  0  0
  9 11  1  0  0  0  0
  9 14  2  0  0  0  0
 10 14  1  0  0  0  0
 10 28  1  0  0  0  0
 10 29  1  0  0  0  0
 11 13  1  0  0  0  0
 11 30  1  0  0  0  0
 11 31  1  0  0  0  0
 12 15  1  0  0  0  0
 12 18  2  0  0  0  0
 13 32  1  0  0  0  0
 13 33  1  0  0  0  0
 14 34  1  0  0  0  0
 15 16  1  0  0  0  0
 15 19  2  0  0  0  0
 16 35  1  0  0  0  0
 17 36  1  0  0  0  0
 17 37  1  0  0  0  0
 17 38  1  0  0  0  0
 18 20  1  0  0  0  0
 18 39  1  0  0  0  0
 19 21  1  0  0  0  0
 19 40  1  0  0  0  0
 20 21  2  0  0  0  0
 22 41  1  0  0  0  0
 22 42  1  0  0  0  0
 22 43  1  0  0  0  0
 23 44  1  0  0  0  0
 23 45  1  0  0  0  0
 23 46  1  0  0  0  0
 24 47  1  0  0  0  0
 24 48  1  0  0  0  0
 24 49  1  0  0  0  0
M  END
> <PUBCHEM_COMPOUND_CID>
443730

> <PUBCHEM_COMPOUND_CANONICALIZED>
1

> <PUBCHEM_CACTVS_COMPLEXITY>
496

> <PUBCHEM_CACTVS_HBOND_ACCEPTOR>
5

> <PUBCHEM_CACTVS_HBOND_DONOR>
0

> <PUBCHEM_CACTVS_ROTATABLE_BOND>
3

> <PUBCHEM_CACTVS_SUBSKEYS>
AAADceB6OAAAAAAAAAAAAAAAAAAAAWAAAAA0QIAAAAAAAECRAAAAHgAAAAAADTzxmAcyDoMABACAAiBCAACCCAAgIAAAiAAOiIgdJiKEsRumMCImwBGOqAfQ8P8OoAABAAAQQABAAAIAACCAAAAAAAAAAA==

> <PUBCHEM_IUPAC_OPENEYE_NAME>
(5aR,7S,11bS,11cS)-7,9,10-trimethoxy-1-methyl-3,5,5a,7,11b,11c-hexahydro-2H-isochromeno[3,4-g]indole

> <PUBCHEM_IUPAC_CAS_NAME>
(5aR,7S,11bS,11cS)-7,9,10-trimethoxy-1-methyl-3,5,5a,7,11b,11c-hexahydro-2H-[2]benzopyrano[3,4-g]indole

> <PUBCHEM_IUPAC_NAME>
(5aR,7S,11bS,11cS)-7,9,10-trimethoxy-1-methyl-3,5,5a,7,11b,11c-hexahydro-2H-isochromeno[3,4-g]indole

> <PUBCHEM_IUPAC_SYSTEMATIC_NAME>
(5aR,7S,11bS,11cS)-7,9,10-trimethoxy-1-methyl-3,5,5a,7,11b,11c-hexahydro-2H-isochromeno[3,4-g]indole

> <PUBCHEM_IUPAC_TRADITIONAL_NAME>
(5aR,7S,11bS,11cS)-7,9,10-trimethoxy-1-methyl-3,5,5a,7,11b,11c-hexahydro-2H-isochromen[3,4-g]indole

> <PUBCHEM_IUPAC_INCHI>
InChI=1S/C19H25NO4/c1-20-8-7-11-5-6-14-17(18(11)20)12-9-15(21-2)16(22-3)10-13(12)19(23-4)24-14/h5,9-10,14,17-19H,6-8H2,1-4H3/t14-,17-,18-,19+/m1/s1

> <PUBCHEM_IUPAC_INCHIKEY>
ABEASKLJNCROIZ-AXUOBQJMSA-N

> <PUBCHEM_XLOGP3_AA>
1.7

> <PUBCHEM_EXACT_MASS>
331.178358

> <PUBCHEM_MOLECULAR_FORMULA>
C19H25NO4

> <PUBCHEM_MOLECULAR_WEIGHT>
331.4061

> <PUBCHEM_OPENEYE_CAN_SMILES>
CN1CCC2=CCC3C(C21)C4=CC(=C(C=C4C(O3)OC)OC)OC

> <PUBCHEM_OPENEYE_ISO_SMILES>
CN1CCC2=CC[C@@H]3[C@H]([C@@H]21)C4=CC(=C(C=C4[C@H](O3)OC)OC)OC

> <PUBCHEM_CACTVS_TPSA>
40.2

> <PUBCHEM_MONOISOTOPIC_WEIGHT>
331.178358

> <PUBCHEM_TOTAL_CHARGE>
0

> <PUBCHEM_HEAVY_ATOM_COUNT>
24

> <PUBCHEM_ATOM_DEF_STEREO_COUNT>
4

> <PUBCHEM_ATOM_UDEF_STEREO_COUNT>
0

> <PUBCHEM_BOND_DEF_STEREO_COUNT>
0

> <PUBCHEM_BOND_UDEF_STEREO_COUNT>
0

> <PUBCHEM_ISOTOPIC_ATOM_COUNT>
0

> <PUBCHEM_COMPONENT_COUNT>
1

> <PUBCHEM_CACTVS_TAUTO_COUNT>
1

> <PUBCHEM_COORDINATE_TYPE>
1
5
255

> <PUBCHEM_BONDANNOTATIONS>
12  15  8
12  18  8
15  19  8
18  20  8
19  21  8
16  2  6
20  21  8
6  25  5
7  26  6
8  27  6

$$$$

