3783
  -OEChem-06251223403D

 45 46  0     1  0  0  0  0  0999 V2000
   -2.2886    1.8602    1.2650 O   0  0  0  0  0  0  0  0  0  0  0  0
    3.5326   -0.6484    0.6053 O   0  0  0  0  0  0  0  0  0  0  0  0
   -7.5253   -0.9927   -0.4575 O   0  0  0  0  0  0  0  0  0  0  0  0
    0.1028    0.6430    0.2913 N   0  0  0  0  0  0  0  0  0  0  0  0
   -1.2077    0.0078    0.1043 C   0  0  1  0  0  0  0  0  0  0  0  0
   -2.3081    1.0918    0.0588 C   0  0  1  0  0  0  0  0  0  0  0  0
    1.1430   -0.3628    0.4176 C   0  0  1  0  0  0  0  0  0  0  0  0
   -1.1500   -0.8251   -1.1776 C   0  0  0  0  0  0  0  0  0  0  0  0
   -3.7078    0.5322   -0.0799 C   0  0  0  0  0  0  0  0  0  0  0  0
    2.5024    0.3290    0.5261 C   0  0  0  0  0  0  0  0  0  0  0  0
    0.8634   -1.2585    1.6248 C   0  0  0  0  0  0  0  0  0  0  0  0
   -4.4954    0.9396   -1.1421 C   0  0  0  0  0  0  0  0  0  0  0  0
   -4.1682   -0.3736    0.8592 C   0  0  0  0  0  0  0  0  0  0  0  0
   -5.7855    0.4244   -1.2692 C   0  0  0  0  0  0  0  0  0  0  0  0
   -5.4582   -0.8888    0.7320 C   0  0  0  0  0  0  0  0  0  0  0  0
   -6.2669   -0.4898   -0.3321 C   0  0  0  0  0  0  0  0  0  0  0  0
    4.7555   -0.3309    0.1452 C   0  0  0  0  0  0  0  0  0  0  0  0
    5.2120    0.9953    0.1874 C   0  0  0  0  0  0  0  0  0  0  0  0
    5.5972   -1.3196   -0.3864 C   0  0  0  0  0  0  0  0  0  0  0  0
    6.4802    1.3250   -0.2908 C   0  0  0  0  0  0  0  0  0  0  0  0
    6.8655   -0.9901   -0.8646 C   0  0  0  0  0  0  0  0  0  0  0  0
    7.3070    0.3323   -0.8167 C   0  0  0  0  0  0  0  0  0  0  0  0
   -1.4388   -0.6368    0.9561 H   0  0  0  0  0  0  0  0  0  0  0  0
   -2.1032    1.7890   -0.7642 H   0  0  0  0  0  0  0  0  0  0  0  0
    1.2277   -1.0017   -0.4679 H   0  0  0  0  0  0  0  0  0  0  0  0
    0.3042    1.2583   -0.4965 H   0  0  0  0  0  0  0  0  0  0  0  0
   -2.1504   -1.1495   -1.4834 H   0  0  0  0  0  0  0  0  0  0  0  0
   -0.7327   -0.2577   -2.0176 H   0  0  0  0  0  0  0  0  0  0  0  0
   -0.5785   -1.7506   -1.0582 H   0  0  0  0  0  0  0  0  0  0  0  0
    2.6363    0.9656   -0.3596 H   0  0  0  0  0  0  0  0  0  0  0  0
    2.5413    0.9579    1.4247 H   0  0  0  0  0  0  0  0  0  0  0  0
    0.0540   -1.9724    1.4435 H   0  0  0  0  0  0  0  0  0  0  0  0
    0.6210   -0.6707    2.5178 H   0  0  0  0  0  0  0  0  0  0  0  0
    1.7401   -1.8672    1.8734 H   0  0  0  0  0  0  0  0  0  0  0  0
   -4.1316    1.6502   -1.8783 H   0  0  0  0  0  0  0  0  0  0  0  0
   -3.5606   -0.6856    1.7028 H   0  0  0  0  0  0  0  0  0  0  0  0
   -1.3856    2.2042    1.3742 H   0  0  0  0  0  0  0  0  0  0  0  0
   -6.4053    0.7430   -2.1031 H   0  0  0  0  0  0  0  0  0  0  0  0
   -5.8288   -1.5983    1.4668 H   0  0  0  0  0  0  0  0  0  0  0  0
    4.6090    1.7940    0.6103 H   0  0  0  0  0  0  0  0  0  0  0  0
    5.2612   -2.3527   -0.4279 H   0  0  0  0  0  0  0  0  0  0  0  0
    6.8266    2.3535   -0.2488 H   0  0  0  0  0  0  0  0  0  0  0  0
    7.5094   -1.7631   -1.2738 H   0  0  0  0  0  0  0  0  0  0  0  0
   -7.9408   -0.6087   -1.2487 H   0  0  0  0  0  0  0  0  0  0  0  0
    8.2950    0.5887   -1.1878 H   0  0  0  0  0  0  0  0  0  0  0  0
  1  6  1  0  0  0  0
  1 37  1  0  0  0  0
  2 10  1  0  0  0  0
  2 17  1  0  0  0  0
  3 16  1  0  0  0  0
  3 44  1  0  0  0  0
  4  5  1  0  0  0  0
  4  7  1  0  0  0  0
  4 26  1  0  0  0  0
  5  6  1  0  0  0  0
  5  8  1  0  0  0  0
  5 23  1  0  0  0  0
  6  9  1  0  0  0  0
  6 24  1  0  0  0  0
  7 10  1  0  0  0  0
  7 11  1  0  0  0  0
  7 25  1  0  0  0  0
  8 27  1  0  0  0  0
  8 28  1  0  0  0  0
  8 29  1  0  0  0  0
  9 12  2  0  0  0  0
  9 13  1  0  0  0  0
 10 30  1  0  0  0  0
 10 31  1  0  0  0  0
 11 32  1  0  0  0  0
 11 33  1  0  0  0  0
 11 34  1  0  0  0  0
 12 14  1  0  0  0  0
 12 35  1  0  0  0  0
 13 15  2  0  0  0  0
 13 36  1  0  0  0  0
 14 16  2  0  0  0  0
 14 38  1  0  0  0  0
 15 16  1  0  0  0  0
 15 39  1  0  0  0  0
 17 18  2  0  0  0  0
 17 19  1  0  0  0  0
 18 20  1  0  0  0  0
 18 40  1  0  0  0  0
 19 21  2  0  0  0  0
 19 41  1  0  0  0  0
 20 22  2  0  0  0  0
 20 42  1  0  0  0  0
 21 22  1  0  0  0  0
 21 43  1  0  0  0  0
 22 45  1  0  0  0  0
M  END
> <PUBCHEM_COMPOUND_CID>
3783

> <PUBCHEM_CONFORMER_RMSD>
0.8

> <PUBCHEM_CONFORMER_DIVERSEORDER>
1
139
84
181
63
23
183
40
136
158
86
56
112
75
9
28
89
123
134
173
128
142
12
100
178
81
2
177
126
50
69
160
129
46
66
16
115
10
127
117
6
110
113
45
103
72
145
85
131
101
168
96
124
99
104
88
157
135
74
14
138
64
166
133
77
35
71
5
13
125
151
53
78
48
179
137
97
105
162
37
159
82
19
3
68
21
30
176
108
73
8
80
147
132
65
163
144
154
49
11
98
119
62
170
94
91
153
149
148
114
27
43
164
167
34
67
171
95
143
93
25
175
52
107
39
33
22
55
76
180
118
31
106
26
122
18
146
152
61
36
109
54
102
59
57
29
42
169
17
60
41
130
172
4
7
24
90
150
20
70
141
161
32
165
92
83
15
116
51
140
58
38
174
156
44
182
155
111
47
121
87
79
120

> <PUBCHEM_MMFF94_PARTIAL_CHARGES>
32
1 -0.68
10 0.28
12 -0.15
13 -0.15
14 -0.15
15 -0.15
16 0.08
17 0.08
18 -0.15
19 -0.15
2 -0.36
20 -0.15
21 -0.15
22 -0.15
26 0.36
3 -0.53
35 0.15
36 0.15
37 0.4
38 0.15
39 0.15
4 -0.9
40 0.15
41 0.15
42 0.15
43 0.15
44 0.45
45 0.15
5 0.27
6 0.42
7 0.27
9 -0.14

> <PUBCHEM_EFFECTIVE_ROTOR_COUNT>
7

> <PUBCHEM_PHARMACOPHORE_FEATURES>
8
1 1 acceptor
1 1 donor
1 2 acceptor
1 3 donor
1 4 cation
1 4 donor
6 17 18 19 20 21 22 rings
6 9 12 13 14 15 16 rings

> <PUBCHEM_HEAVY_ATOM_COUNT>
22

> <PUBCHEM_ATOM_DEF_STEREO_COUNT>
0

> <PUBCHEM_ATOM_UDEF_STEREO_COUNT>
3

> <PUBCHEM_BOND_DEF_STEREO_COUNT>
0

> <PUBCHEM_BOND_UDEF_STEREO_COUNT>
0

> <PUBCHEM_ISOTOPIC_ATOM_COUNT>
0

> <PUBCHEM_COMPONENT_COUNT>
1

> <PUBCHEM_CACTVS_TAUTO_COUNT>
2

> <PUBCHEM_CONFORMER_ID>
00000EC700000001

> <PUBCHEM_MMFF94_ENERGY>
59.5197

> <PUBCHEM_FEATURE_SELFOVERLAP>
40.597

> <PUBCHEM_SHAPE_FINGERPRINT>
10066227 49 18263643026014517414
10087517 78 14405194997119668367
10299344 5 16950280702270284190
10595046 47 18261670471893564208
10638233 991 17530682070262972128
10968037 39 17988926665653484531
11089746 13 14045738205716450956
11101153 10 18408600344769607680
11315181 36 18201716250504542737
11524674 6 13984665832626362893
12166972 35 16732984211073532040
12236239 1 18410575110543892880
125118 31 10087642611088045070
12516196 113 17775287166065684205
12616971 3 7565048459569327200
12730499 353 18343298181007074810
13288520 33 17530686511548818625
13533116 47 16370720479135369718
13631057 29 17846494782635497515
13673619 4 16081091480383351313
13685833 64 13912325681511644414
14123256 10 17561082501339052371
14251757 52 15123500381995214220
14251764 18 14706932826236433938
14251764 46 16443344273841617350
14528608 73 17846781827714824312
14933364 13 18343301474529286596
15183329 4 17603586335582907670
15348495 7 7709158167108657646
15716309 27 16950282905841617005
1577012 14 18336259150251903832
15849732 13 18343584027373886630
17093844 174 9871746884840398869
18335252 98 18342170047047344722
18681886 176 17989208101252959049
19489759 90 16200433580790709709
2026 5 16372112512722699502
20281389 69 9583520914650256587
20554085 129 15123519068676089504
21095086 128 17967812743047988622
21150785 3 18344146981622229230
21267235 1 18187082837180797929
21315759 40 16950280689506643063
221357 26 18334576850317135872
22224240 67 16200153179355213850
2297311 6 17603866719274084217
23035841 295 16225767410852107319
23081809 10 18113615729091297016
23198884 109 16877941624618329275
23424782 7 18271523096114922059
23522609 53 16733805503093822488
23559900 14 17846501379515339905
246663 6 17167860846789018255
2767999 5 14692572117566362956
300161 21 13110963132270344544
34797466 226 18409726249276450308
4325135 7 17988924461533622934
4339292 15 13613944576249624217
5207 217 18059856155759459018
5486654 2 17275103929100860090

> <PUBCHEM_SHAPE_MULTIPOLES>
430.16
21.98
1.36
1.17
9.73
0.06
0
-0.4
-6.77
0.29
0.18
-0.43
-0.04
0.5

> <PUBCHEM_SHAPE_SELFOVERLAP>
896.912

> <PUBCHEM_SHAPE_VOLUME>
245.4

> <PUBCHEM_COORDINATE_TYPE>
2
5
10

$$$$

