88916
  -OEChem-07051213133D

 28 29  0     0  0  0  0  0  0999 V2000
    2.0476   -1.3966   -0.4068 S   0  0  0  0  0  0  0  0  0  0  0  0
   -0.0239    1.7603   -0.5226 O   0  0  0  0  0  0  0  0  0  0  0  0
   -0.7064   -0.3975    0.1150 N   0  0  0  0  0  0  0  0  0  0  0  0
    3.9080    0.2768    0.2421 N   0  0  0  0  0  0  0  0  0  0  0  0
    1.6504    0.2079   -0.0781 C   0  0  0  0  0  0  0  0  0  0  0  0
    2.7096    0.9633    0.2434 C   0  0  0  0  0  0  0  0  0  0  0  0
    0.2228    0.6095   -0.1781 C   0  0  0  0  0  0  0  0  0  0  0  0
    3.6800   -0.9756   -0.0860 C   0  0  0  0  0  0  0  0  0  0  0  0
   -2.0989   -0.3177    0.0809 C   0  0  0  0  0  0  0  0  0  0  0  0
    2.7334    2.3999    0.5875 C   0  0  0  0  0  0  0  0  0  0  0  0
   -2.7207    0.8777   -0.2797 C   0  0  0  0  0  0  0  0  0  0  0  0
   -2.8693   -1.4340    0.4065 C   0  0  0  0  0  0  0  0  0  0  0  0
    4.7249   -2.0167   -0.1920 C   0  0  0  0  0  0  0  0  0  0  0  0
   -4.1129    0.9569   -0.3146 C   0  0  0  0  0  0  0  0  0  0  0  0
   -4.2615   -1.3548    0.3715 C   0  0  0  0  0  0  0  0  0  0  0  0
   -4.8833   -0.1593    0.0109 C   0  0  0  0  0  0  0  0  0  0  0  0
   -0.3283   -1.3033    0.3846 H   0  0  0  0  0  0  0  0  0  0  0  0
    3.7156    2.6967    0.9696 H   0  0  0  0  0  0  0  0  0  0  0  0
    2.5187    3.0107   -0.2950 H   0  0  0  0  0  0  0  0  0  0  0  0
    1.9935    2.6302    1.3608 H   0  0  0  0  0  0  0  0  0  0  0  0
   -2.1952    1.7841   -0.5449 H   0  0  0  0  0  0  0  0  0  0  0  0
   -2.3982   -2.3721    0.6891 H   0  0  0  0  0  0  0  0  0  0  0  0
    5.7095   -1.5978    0.0408 H   0  0  0  0  0  0  0  0  0  0  0  0
    4.5369   -2.8353    0.5101 H   0  0  0  0  0  0  0  0  0  0  0  0
    4.7692   -2.4275   -1.2058 H   0  0  0  0  0  0  0  0  0  0  0  0
   -4.5984    1.8872   -0.5951 H   0  0  0  0  0  0  0  0  0  0  0  0
   -4.8616   -2.2240    0.6248 H   0  0  0  0  0  0  0  0  0  0  0  0
   -5.9672   -0.0977   -0.0163 H   0  0  0  0  0  0  0  0  0  0  0  0
  1  5  1  0  0  0  0
  1  8  1  0  0  0  0
  2  7  2  0  0  0  0
  3  7  1  0  0  0  0
  3  9  1  0  0  0  0
  3 17  1  0  0  0  0
  4  6  1  0  0  0  0
  4  8  2  0  0  0  0
  5  6  2  0  0  0  0
  5  7  1  0  0  0  0
  6 10  1  0  0  0  0
  8 13  1  0  0  0  0
  9 11  2  0  0  0  0
  9 12  1  0  0  0  0
 10 18  1  0  0  0  0
 10 19  1  0  0  0  0
 10 20  1  0  0  0  0
 11 14  1  0  0  0  0
 11 21  1  0  0  0  0
 12 15  2  0  0  0  0
 12 22  1  0  0  0  0
 13 23  1  0  0  0  0
 13 24  1  0  0  0  0
 13 25  1  0  0  0  0
 14 16  2  0  0  0  0
 14 26  1  0  0  0  0
 15 16  1  0  0  0  0
 15 27  1  0  0  0  0
 16 28  1  0  0  0  0
M  END
> <PUBCHEM_COMPOUND_CID>
88916

> <PUBCHEM_CONFORMER_RMSD>
0.6

> <PUBCHEM_CONFORMER_DIVERSEORDER>
1
5
2
6
3
4

> <PUBCHEM_MMFF94_PARTIAL_CHARGES>
22
1 -0.08
10 0.18
11 -0.15
12 -0.15
13 0.18
14 -0.15
15 -0.15
16 -0.15
17 0.37
2 -0.57
21 0.15
22 0.15
26 0.15
27 0.15
28 0.15
3 -0.55
4 -0.57
5 -0.05
6 0.05
7 0.71
8 0.2
9 0.12

> <PUBCHEM_EFFECTIVE_ROTOR_COUNT>
3

> <PUBCHEM_PHARMACOPHORE_FEATURES>
5
1 2 acceptor
1 3 donor
1 4 acceptor
5 1 4 5 6 8 rings
6 9 11 12 14 15 16 rings

> <PUBCHEM_HEAVY_ATOM_COUNT>
16

> <PUBCHEM_ATOM_DEF_STEREO_COUNT>
0

> <PUBCHEM_ATOM_UDEF_STEREO_COUNT>
0

> <PUBCHEM_BOND_DEF_STEREO_COUNT>
0

> <PUBCHEM_BOND_UDEF_STEREO_COUNT>
0

> <PUBCHEM_ISOTOPIC_ATOM_COUNT>
0

> <PUBCHEM_COMPONENT_COUNT>
1

> <PUBCHEM_CACTVS_TAUTO_COUNT>
2

> <PUBCHEM_CONFORMER_ID>
00015B5400000001

> <PUBCHEM_MMFF94_ENERGY>
38.4418

> <PUBCHEM_FEATURE_SELFOVERLAP>
25.371

> <PUBCHEM_SHAPE_FINGERPRINT>
10608611 8 18411422791291460693
11405975 8 18409164424504084513
11471102 20 18408325492874040532
12032990 46 18413386544506342301
12507560 40 18409450263062299805
13167823 11 18334017164153679087
13296908 3 18413108342405474461
13533116 47 18334294232614873643
13675066 3 18272088262687933017
14252887 29 18342736273928547864
14866123 147 17109026262901754170
15196674 1 18411981355872087831
15219456 202 18410296886804612797
15242439 84 18343023324004793695
15375358 24 18412546487832471371
15442244 35 18408882974975807225
15536298 74 18410012113255965713
17492 89 18267021657104618723
17804303 29 18411978095923163175
17834072 8 18201162147814356495
17834074 16 18411700989033862803
1813 80 17132115736222347660
18186145 218 17846787303534388935
19141452 34 18409165494331138815
1986462 14 18273494585373148583
200 152 17967255299701219015
20279233 1 18410288108218565911
20281475 54 18340480166573822852
20374829 77 18272372018181800322
20645477 56 18201439229419584693
20645477 70 18334295370401691326
21065198 57 18410293601397114081
21065199 12 18338798914384189609
21065201 7 17918280844023271329
21267235 1 18412535527255422923
21452121 103 18335431123480469384
221490 88 18340480076232031050
2215653 11 18411423946732381975
22485316 2 18411983550516019023
22943178 12 18341619183120922321
23402539 116 18187653531108122597
23557571 272 17632305557277285757
23559900 14 18410579487152542864
26918003 58 18261112997364075243
2871803 45 18273500091020302354
3004659 81 18059006315704436678
3421961 26 18335704970732217202
42 15 18411416219885729975
4214541 1 18411136969939500913
465052 167 18261105288277977086
5104073 3 18410571765133362481
542803 24 14045741543148834495
633830 44 17203609259578728797
69090 78 18335706014124647775
7364860 26 18335421227775598608
77779 3 18411136918204610641
8809292 202 18272085015313037571
9709674 26 18270114600540453027
9971528 1 18201441346078903989

> <PUBCHEM_SHAPE_MULTIPOLES>
317.29
10.29
2.07
0.7
3.19
0.36
0
-3.2
-0.34
-1.7
-0.12
0.02
0.03
0.87

> <PUBCHEM_SHAPE_SELFOVERLAP>
664.826

> <PUBCHEM_SHAPE_VOLUME>
181.4

> <PUBCHEM_COORDINATE_TYPE>
2
5
10

$$$$

