80922
  -OEChem-07051213113D

 27 27  0     0  0  0  0  0  0999 V2000
   -1.2897    1.5530    0.2892 O   0  0  0  0  0  0  0  0  0  0  0  0
   -2.1990   -0.9849   -0.3479 O   0  0  0  0  0  0  0  0  0  0  0  0
    1.4212    1.9853    0.6581 O   0  0  0  0  0  0  0  0  0  0  0  0
    1.3982   -1.5877   -0.1119 C   0  0  0  0  0  0  0  0  0  0  0  0
   -0.4073    0.5219    0.1574 C   0  0  0  0  0  0  0  0  0  0  0  0
   -0.8690   -0.7545   -0.1636 C   0  0  0  0  0  0  0  0  0  0  0  0
    0.9571    0.7435    0.3441 C   0  0  0  0  0  0  0  0  0  0  0  0
    0.0338   -1.8093   -0.2984 C   0  0  0  0  0  0  0  0  0  0  0  0
    1.8599   -0.3113    0.2094 C   0  0  0  0  0  0  0  0  0  0  0  0
    2.3634   -2.7155   -0.2561 C   0  0  0  0  0  0  0  0  0  0  0  0
   -2.0796    1.8783   -0.8522 C   0  0  0  0  0  0  0  0  0  0  0  0
   -2.9569   -1.3601    0.8005 C   0  0  0  0  0  0  0  0  0  0  0  0
    1.7679    2.8415   -0.4286 C   0  0  0  0  0  0  0  0  0  0  0  0
   -0.3311   -2.8019   -0.5513 H   0  0  0  0  0  0  0  0  0  0  0  0
    2.9227   -0.1329    0.3547 H   0  0  0  0  0  0  0  0  0  0  0  0
    3.2336   -2.5766    0.3944 H   0  0  0  0  0  0  0  0  0  0  0  0
    1.9026   -3.6685    0.0254 H   0  0  0  0  0  0  0  0  0  0  0  0
    2.7077   -2.7849   -1.2927 H   0  0  0  0  0  0  0  0  0  0  0  0
   -2.2337    2.9615   -0.8568 H   0  0  0  0  0  0  0  0  0  0  0  0
   -1.5870    1.6005   -1.7906 H   0  0  0  0  0  0  0  0  0  0  0  0
   -3.0594    1.3982   -0.7796 H   0  0  0  0  0  0  0  0  0  0  0  0
   -3.9983   -1.4930    0.4951 H   0  0  0  0  0  0  0  0  0  0  0  0
   -2.5886   -2.3059    1.2102 H   0  0  0  0  0  0  0  0  0  0  0  0
   -2.9136   -0.5772    1.5644 H   0  0  0  0  0  0  0  0  0  0  0  0
    0.8982    3.0296   -1.0657 H   0  0  0  0  0  0  0  0  0  0  0  0
    2.5781    2.4021   -1.0191 H   0  0  0  0  0  0  0  0  0  0  0  0
    2.1122    3.7943   -0.0173 H   0  0  0  0  0  0  0  0  0  0  0  0
  1  5  1  0  0  0  0
  1 11  1  0  0  0  0
  2  6  1  0  0  0  0
  2 12  1  0  0  0  0
  3  7  1  0  0  0  0
  3 13  1  0  0  0  0
  4  8  2  0  0  0  0
  4  9  1  0  0  0  0
  4 10  1  0  0  0  0
  5  6  2  0  0  0  0
  5  7  1  0  0  0  0
  6  8  1  0  0  0  0
  7  9  2  0  0  0  0
  8 14  1  0  0  0  0
  9 15  1  0  0  0  0
 10 16  1  0  0  0  0
 10 17  1  0  0  0  0
 10 18  1  0  0  0  0
 11 19  1  0  0  0  0
 11 20  1  0  0  0  0
 11 21  1  0  0  0  0
 12 22  1  0  0  0  0
 12 23  1  0  0  0  0
 12 24  1  0  0  0  0
 13 25  1  0  0  0  0
 13 26  1  0  0  0  0
 13 27  1  0  0  0  0
M  END
> <PUBCHEM_COMPOUND_CID>
80922

> <PUBCHEM_CONFORMER_RMSD>
0.6

> <PUBCHEM_CONFORMER_DIVERSEORDER>
1
2
3

> <PUBCHEM_MMFF94_PARTIAL_CHARGES>
15
1 -0.36
10 0.14
11 0.28
12 0.28
13 0.28
14 0.15
15 0.15
2 -0.36
3 -0.36
4 -0.14
5 0.08
6 0.08
7 0.08
8 -0.15
9 -0.15

> <PUBCHEM_EFFECTIVE_ROTOR_COUNT>
3

> <PUBCHEM_PHARMACOPHORE_FEATURES>
4
1 1 acceptor
1 2 acceptor
1 3 acceptor
6 4 5 6 7 8 9 rings

> <PUBCHEM_HEAVY_ATOM_COUNT>
13

> <PUBCHEM_ATOM_DEF_STEREO_COUNT>
0

> <PUBCHEM_ATOM_UDEF_STEREO_COUNT>
0

> <PUBCHEM_BOND_DEF_STEREO_COUNT>
0

> <PUBCHEM_BOND_UDEF_STEREO_COUNT>
0

> <PUBCHEM_ISOTOPIC_ATOM_COUNT>
0

> <PUBCHEM_COMPONENT_COUNT>
1

> <PUBCHEM_CACTVS_TAUTO_COUNT>
1

> <PUBCHEM_CONFORMER_ID>
00013C1A00000001

> <PUBCHEM_MMFF94_ENERGY>
64.5403

> <PUBCHEM_FEATURE_SELFOVERLAP>
20.306

> <PUBCHEM_SHAPE_FINGERPRINT>
11680986 33 18336837492718994465
12138202 78 18411139112991090103
12423570 1 12462415138017623152
13140716 1 18049445838102930554
14648413 74 18412550941602878457
161256 15 18338227181080196983
16945 1 18337958891605833142
17990270 104 18410862087320994787
193761 8 18410294726409650161
20511035 2 18187940524379187197
21501502 16 18410007767149982201
2334 1 18337111275683850730
23552423 10 18410292484468311775
241688 4 18121501516469211466
2748010 2 18263369259891620894
3250762 1 18341614836693282989
7364860 26 18335700524902878500
81228 2 17542222806184672730

> <PUBCHEM_SHAPE_MULTIPOLES>
249.93
3.51
3.31
0.79
0.21
1.93
-0.01
-1.9
-0.34
0.02
0.04
-0.2
0.03
0.61

> <PUBCHEM_SHAPE_SELFOVERLAP>
511.111

> <PUBCHEM_SHAPE_VOLUME>
146.8

> <PUBCHEM_COORDINATE_TYPE>
2
5
10

$$$$

