3341
  -OEChem-07051212542D

 37 39  0     1  0  0  0  0  0999 V2000
    5.6930   -3.7398    0.0000 Cl  0  0  0  0  0  0  0  0  0  0  0  0
    7.4747   -0.6810    0.0000 O   0  0  0  0  0  0  0  0  0  0  0  0
    7.4747   -2.7293    0.0000 O   0  0  0  0  0  0  0  0  0  0  0  0
    4.9189    3.3180    0.0000 O   0  0  0  0  0  0  0  0  0  0  0  0
    2.6200   -1.7052    0.0000 N   0  0  0  0  0  0  0  0  0  0  0  0
    4.0288   -0.5817    0.0000 C   0  0  3  0  0  0  0  0  0  0  0  0
    4.8106   -1.2052    0.0000 C   0  0  0  0  0  0  0  0  0  0  0  0
    3.0539   -0.8042    0.0000 C   0  0  0  0  0  0  0  0  0  0  0  0
    4.8106   -2.2052    0.0000 C   0  0  0  0  0  0  0  0  0  0  0  0
    4.0288   -2.8286    0.0000 C   0  0  0  0  0  0  0  0  0  0  0  0
    3.0539   -2.6061    0.0000 C   0  0  0  0  0  0  0  0  0  0  0  0
    4.2513    0.3933    0.0000 C   0  0  0  0  0  0  0  0  0  0  0  0
    5.7046   -0.6705    0.0000 C   0  0  0  0  0  0  0  0  0  0  0  0
    5.7046   -2.7398    0.0000 C   0  0  0  0  0  0  0  0  0  0  0  0
    6.6106   -1.1843    0.0000 C   0  0  0  0  0  0  0  0  0  0  0  0
    5.2069    0.6880    0.0000 C   0  0  0  0  0  0  0  0  0  0  0  0
    3.5183    1.0734    0.0000 C   0  0  0  0  0  0  0  0  0  0  0  0
    6.6106   -2.2260    0.0000 C   0  0  0  0  0  0  0  0  0  0  0  0
    5.4294    1.6629    0.0000 C   0  0  0  0  0  0  0  0  0  0  0  0
    3.7408    2.0484    0.0000 C   0  0  0  0  0  0  0  0  0  0  0  0
    4.6964    2.3431    0.0000 C   0  0  0  0  0  0  0  0  0  0  0  0
    3.5904   -0.1433    0.0000 H   0  0  0  0  0  0  0  0  0  0  0  0
    3.0539   -0.1842    0.0000 H   0  0  0  0  0  0  0  0  0  0  0  0
    2.4494   -0.6662    0.0000 H   0  0  0  0  0  0  0  0  0  0  0  0
    3.7598   -3.3872    0.0000 H   0  0  0  0  0  0  0  0  0  0  0  0
    4.5136   -3.2152    0.0000 H   0  0  0  0  0  0  0  0  0  0  0  0
    2.4494   -2.7441    0.0000 H   0  0  0  0  0  0  0  0  0  0  0  0
    3.0539   -3.2261    0.0000 H   0  0  0  0  0  0  0  0  0  0  0  0
    2.0000   -1.7052    0.0000 H   0  0  0  0  0  0  0  0  0  0  0  0
    5.6974   -0.0505    0.0000 H   0  0  0  0  0  0  0  0  0  0  0  0
    5.6614    0.2663    0.0000 H   0  0  0  0  0  0  0  0  0  0  0  0
    2.9258    0.8907    0.0000 H   0  0  0  0  0  0  0  0  0  0  0  0
    6.0219    1.8457    0.0000 H   0  0  0  0  0  0  0  0  0  0  0  0
    3.2863    2.4701    0.0000 H   0  0  0  0  0  0  0  0  0  0  0  0
    7.4724   -0.0610    0.0000 H   0  0  0  0  0  0  0  0  0  0  0  0
    8.0129   -2.4214    0.0000 H   0  0  0  0  0  0  0  0  0  0  0  0
    4.4644    3.7398    0.0000 H   0  0  0  0  0  0  0  0  0  0  0  0
  1 14  1  0  0  0  0
  2 15  1  0  0  0  0
  2 35  1  0  0  0  0
  3 18  1  0  0  0  0
  3 36  1  0  0  0  0
  4 21  1  0  0  0  0
  4 37  1  0  0  0  0
  5  8  1  0  0  0  0
  5 11  1  0  0  0  0
  5 29  1  0  0  0  0
  6  7  1  0  0  0  0
  6  8  1  0  0  0  0
  6 12  1  0  0  0  0
  6 22  1  0  0  0  0
  7  9  1  0  0  0  0
  7 13  2  0  0  0  0
  8 23  1  0  0  0  0
  8 24  1  0  0  0  0
  9 10  1  0  0  0  0
  9 14  2  0  0  0  0
 10 11  1  0  0  0  0
 10 25  1  0  0  0  0
 10 26  1  0  0  0  0
 11 27  1  0  0  0  0
 11 28  1  0  0  0  0
 12 16  2  0  0  0  0
 12 17  1  0  0  0  0
 13 15  1  0  0  0  0
 13 30  1  0  0  0  0
 14 18  1  0  0  0  0
 15 18  2  0  0  0  0
 16 19  1  0  0  0  0
 16 31  1  0  0  0  0
 17 20  2  0  0  0  0
 17 32  1  0  0  0  0
 19 21  2  0  0  0  0
 19 33  1  0  0  0  0
 20 21  1  0  0  0  0
 20 34  1  0  0  0  0
M  END
> <PUBCHEM_COMPOUND_CID>
3341

> <PUBCHEM_COMPOUND_CANONICALIZED>
1

> <PUBCHEM_CACTVS_COMPLEXITY>
348

> <PUBCHEM_CACTVS_HBOND_ACCEPTOR>
4

> <PUBCHEM_CACTVS_HBOND_DONOR>
4

> <PUBCHEM_CACTVS_ROTATABLE_BOND>
1

> <PUBCHEM_CACTVS_SUBSKEYS>
AAADceB6MAAEAAAAAAAAAAAAAAAAAAAAAAAwYAAABYAAAAABQAAAHgIQCAAADQbBmCQwBoLAAgCAAiBCAAACAAAgJEAIiIAOi4gJJiKDkxOEcAEk0BGJmAeQ0PIOoAABIQARSABAAAJCACKQAAAAAAAAAA==

> <PUBCHEM_IUPAC_OPENEYE_NAME>
9-chloro-5-(4-hydroxyphenyl)-2,3,4,5-tetrahydro-1H-3-benzazepine-7,8-diol

> <PUBCHEM_IUPAC_CAS_NAME>
9-chloro-5-(4-hydroxyphenyl)-2,3,4,5-tetrahydro-1H-3-benzazepine-7,8-diol

> <PUBCHEM_IUPAC_NAME>
9-chloro-5-(4-hydroxyphenyl)-2,3,4,5-tetrahydro-1H-3-benzazepine-7,8-diol

> <PUBCHEM_IUPAC_SYSTEMATIC_NAME>
9-chloranyl-5-(4-hydroxyphenyl)-2,3,4,5-tetrahydro-1H-3-benzazepine-7,8-diol

> <PUBCHEM_IUPAC_TRADITIONAL_NAME>
9-chloro-5-(4-hydroxyphenyl)-2,3,4,5-tetrahydro-1H-3-benzazepine-7,8-diol

> <PUBCHEM_IUPAC_INCHI>
InChI=1S/C16H16ClNO3/c17-15-11-5-6-18-8-13(9-1-3-10(19)4-2-9)12(11)7-14(20)16(15)21/h1-4,7,13,18-21H,5-6,8H2

> <PUBCHEM_IUPAC_INCHIKEY>
TVURRHSHRRELCG-UHFFFAOYSA-N

> <PUBCHEM_XLOGP3>
2.4

> <PUBCHEM_EXACT_MASS>
305.081871

> <PUBCHEM_MOLECULAR_FORMULA>
C16H16ClNO3

> <PUBCHEM_MOLECULAR_WEIGHT>
305.75614

> <PUBCHEM_OPENEYE_CAN_SMILES>
C1CNCC(C2=CC(=C(C(=C21)Cl)O)O)C3=CC=C(C=C3)O

> <PUBCHEM_OPENEYE_ISO_SMILES>
C1CNCC(C2=CC(=C(C(=C21)Cl)O)O)C3=CC=C(C=C3)O

> <PUBCHEM_CACTVS_TPSA>
72.7

> <PUBCHEM_MONOISOTOPIC_WEIGHT>
305.081871

> <PUBCHEM_TOTAL_CHARGE>
0

> <PUBCHEM_HEAVY_ATOM_COUNT>
21

> <PUBCHEM_ATOM_DEF_STEREO_COUNT>
0

> <PUBCHEM_ATOM_UDEF_STEREO_COUNT>
1

> <PUBCHEM_BOND_DEF_STEREO_COUNT>
0

> <PUBCHEM_BOND_UDEF_STEREO_COUNT>
0

> <PUBCHEM_ISOTOPIC_ATOM_COUNT>
0

> <PUBCHEM_COMPONENT_COUNT>
1

> <PUBCHEM_CACTVS_TAUTO_COUNT>
202

> <PUBCHEM_COORDINATE_TYPE>
1
5
255

> <PUBCHEM_BONDANNOTATIONS>
12  16  8
12  17  8
13  15  8
14  18  8
15  18  8
16  19  8
17  20  8
19  21  8
20  21  8
6  12  3
7  13  8
7  9  8
9  14  8

$$$$

