20776698
  -OEChem-07051212453D

 59 61  0     1  0  0  0  0  0999 V2000
    2.8543   -2.4294   -1.2890 P   0  0  2  0  0  0  0  0  0  0  0  0
    4.1634    0.1474   -0.7375 P   0  0  1  0  0  0  0  0  0  0  0  0
   -0.7588   -1.1593    0.7228 O   0  0  0  0  0  0  0  0  0  0  0  0
    1.7628    3.0104   -0.0248 O   0  0  0  0  0  0  0  0  0  0  0  0
   -1.4577   -3.5043    2.4554 O   0  0  0  0  0  0  0  0  0  0  0  0
   -3.7846   -3.0445    1.1091 O   0  0  0  0  0  0  0  0  0  0  0  0
    1.3854   -1.8337   -0.9656 O   0  0  0  0  0  0  0  0  0  0  0  0
    2.7830    0.8906   -0.3517 O   0  0  0  0  0  0  0  0  0  0  0  0
   -0.8844    1.8750    2.2680 O   0  0  0  0  0  0  0  0  0  0  0  0
    1.5114    1.5423    3.8362 O   0  0  0  0  0  0  0  0  0  0  0  0
    3.7112   -1.1075   -1.6511 O   0  0  0  0  0  0  0  0  0  0  0  0
   -0.4142    3.6667   -1.5521 O   0  0  0  0  0  0  0  0  0  0  0  0
   -4.6277    0.1653    1.1298 O   0  0  0  0  0  0  0  0  0  0  0  0
    2.6739   -3.1505   -2.7258 O   0  0  0  0  0  0  0  0  0  0  0  0
    4.8774    1.1393   -1.7975 O   0  0  0  0  0  0  0  0  0  0  0  0
    3.4577   -3.2911   -0.2187 O   0  0  0  0  0  0  0  0  0  0  0  0
    5.0207   -0.2241    0.4375 O   0  0  0  0  0  0  0  0  0  0  0  0
   -4.2063    2.2855   -2.9411 O   0  0  0  0  0  0  0  0  0  0  0  0
   -2.7426   -0.3022   -0.1687 N   0  0  0  0  0  0  0  0  0  0  0  0
   -4.4165    1.2196   -0.8981 N   0  0  0  0  0  0  0  0  0  0  0  0
   -1.3839   -3.4231    1.0322 C   0  0  1  0  0  0  0  0  0  0  0  0
   -2.5747   -2.6633    0.4871 C   0  0  2  0  0  0  0  0  0  0  0  0
   -0.2262   -2.5011    0.6744 C   0  0  1  0  0  0  0  0  0  0  0  0
   -2.1929   -1.2235    0.7847 C   0  0  1  0  0  0  0  0  0  0  0  0
    0.3853    2.4046    1.8943 C   0  0  1  0  0  0  0  0  0  0  0  0
    1.4906    1.4835    2.4116 C   0  0  1  0  0  0  0  0  0  0  0  0
    0.3254   -2.7424   -0.7245 C   0  0  0  0  0  0  0  0  0  0  0  0
    0.4659    2.5558    0.3706 C   0  0  1  0  0  0  0  0  0  0  0  0
    2.8501    1.9194    1.8685 C   0  0  0  0  0  0  0  0  0  0  0  0
    2.8189    2.1263    0.3562 C   0  0  2  0  0  0  0  0  0  0  0  0
   -0.5507    3.5693   -0.1464 C   0  0  0  0  0  0  0  0  0  0  0  0
   -3.9728    0.3423    0.1005 C   0  0  0  0  0  0  0  0  0  0  0  0
   -2.0652   -0.0448   -1.3550 C   0  0  0  0  0  0  0  0  0  0  0  0
   -2.5007    0.7941   -2.2972 C   0  0  0  0  0  0  0  0  0  0  0  0
   -3.7776    1.5075   -2.0942 C   0  0  0  0  0  0  0  0  0  0  0  0
   -1.2993   -4.4405    0.6401 H   0  0  0  0  0  0  0  0  0  0  0  0
   -2.6670   -2.8443   -0.5906 H   0  0  0  0  0  0  0  0  0  0  0  0
    0.5873   -2.5428    1.4074 H   0  0  0  0  0  0  0  0  0  0  0  0
   -2.5022   -0.9331    1.7960 H   0  0  0  0  0  0  0  0  0  0  0  0
    0.4800    3.3843    2.3789 H   0  0  0  0  0  0  0  0  0  0  0  0
    1.2803    0.4446    2.1314 H   0  0  0  0  0  0  0  0  0  0  0  0
   -0.4253   -2.5945   -1.5043 H   0  0  0  0  0  0  0  0  0  0  0  0
    0.6846   -3.7743   -0.8090 H   0  0  0  0  0  0  0  0  0  0  0  0
    0.2704    1.5969   -0.1263 H   0  0  0  0  0  0  0  0  0  0  0  0
    3.6101    1.1876    2.1606 H   0  0  0  0  0  0  0  0  0  0  0  0
    3.1259    2.8652    2.3538 H   0  0  0  0  0  0  0  0  0  0  0  0
    3.7434    2.6408    0.0720 H   0  0  0  0  0  0  0  0  0  0  0  0
   -0.6569   -3.9630    2.7621 H   0  0  0  0  0  0  0  0  0  0  0  0
   -4.4838   -2.4600    0.7701 H   0  0  0  0  0  0  0  0  0  0  0  0
   -0.3620    4.5616    0.2764 H   0  0  0  0  0  0  0  0  0  0  0  0
   -1.5753    3.2649    0.0881 H   0  0  0  0  0  0  0  0  0  0  0  0
   -1.1263   -0.5510   -1.5215 H   0  0  0  0  0  0  0  0  0  0  0  0
   -0.9852    1.0122    1.8322 H   0  0  0  0  0  0  0  0  0  0  0  0
    2.2240    0.9555    4.1423 H   0  0  0  0  0  0  0  0  0  0  0  0
   -5.2984    1.6940   -0.7258 H   0  0  0  0  0  0  0  0  0  0  0  0
   -1.9436    0.9726   -3.2086 H   0  0  0  0  0  0  0  0  0  0  0  0
   -1.0748    4.3099   -1.8608 H   0  0  0  0  0  0  0  0  0  0  0  0
    2.3071   -2.6321   -3.4733 H   0  0  0  0  0  0  0  0  0  0  0  0
    5.8026    0.9576   -2.0679 H   0  0  0  0  0  0  0  0  0  0  0  0
  1  7  1  0  0  0  0
  1 11  1  0  0  0  0
  1 14  1  0  0  0  0
  1 16  2  0  0  0  0
  2  8  1  0  0  0  0
  2 11  1  0  0  0  0
  2 15  1  0  0  0  0
  2 17  2  0  0  0  0
  3 23  1  0  0  0  0
  3 24  1  0  0  0  0
  4 28  1  0  0  0  0
  4 30  1  0  0  0  0
  5 21  1  0  0  0  0
  5 48  1  0  0  0  0
  6 22  1  0  0  0  0
  6 49  1  0  0  0  0
  7 27  1  0  0  0  0
  8 30  1  0  0  0  0
  9 25  1  0  0  0  0
  9 53  1  0  0  0  0
 10 26  1  0  0  0  0
 10 54  1  0  0  0  0
 12 31  1  0  0  0  0
 12 57  1  0  0  0  0
 13 32  2  0  0  0  0
 14 58  1  0  0  0  0
 15 59  1  0  0  0  0
 18 35  2  0  0  0  0
 19 24  1  0  0  0  0
 19 32  1  0  0  0  0
 19 33  1  0  0  0  0
 20 32  1  0  0  0  0
 20 35  1  0  0  0  0
 20 55  1  0  0  0  0
 21 22  1  0  0  0  0
 21 23  1  0  0  0  0
 21 36  1  0  0  0  0
 22 24  1  0  0  0  0
 22 37  1  0  0  0  0
 23 27  1  0  0  0  0
 23 38  1  0  0  0  0
 24 39  1  0  0  0  0
 25 26  1  0  0  0  0
 25 28  1  0  0  0  0
 25 40  1  0  0  0  0
 26 29  1  0  0  0  0
 26 41  1  0  0  0  0
 27 42  1  0  0  0  0
 27 43  1  0  0  0  0
 28 31  1  0  0  0  0
 28 44  1  0  0  0  0
 29 30  1  0  0  0  0
 29 45  1  0  0  0  0
 29 46  1  0  0  0  0
 30 47  1  0  0  0  0
 31 50  1  0  0  0  0
 31 51  1  0  0  0  0
 33 34  2  0  0  0  0
 33 52  1  0  0  0  0
 34 35  1  0  0  0  0
 34 56  1  0  0  0  0
M  END
> <PUBCHEM_COMPOUND_CID>
20776698

> <PUBCHEM_CONFORMER_RMSD>
1.4

> <PUBCHEM_CONFORMER_DIVERSEORDER>
1
99
85
31
87
35
3
122
108
30
118
121
62
63
70
89
106
88
54
56
117
105
12
48
44
17
59
84
79
98
125
78
123
95
34
113
73
5
103
64
69
134
50
38
136
25
23
130
92
21
131
20
45
100
66
22
15
55
93
74
27
112
128
135
129
126
24
133
86
83
81
57
76
127
102
65
60
58
120
90
8
101
116
2
82
33
29
43
39
137
132
107
47
13
97
26
32
19
114
109
51
61
119
46
80
6
91
28
16
53
96
49
42
104
11
75
18
111
67
14
7
115
40
110
94
4
71
68
124
72
37
10
36
52
41
77
9

> <PUBCHEM_MMFF94_PARTIAL_CHARGES>
44
1 1.51
10 -0.68
11 -0.54
12 -0.68
13 -0.57
14 -0.77
15 -0.77
16 -0.7
17 -0.7
18 -0.57
19 -0.47
2 1.51
20 -0.49
21 0.28
22 0.28
23 0.28
24 0.58
25 0.28
26 0.28
27 0.28
28 0.28
3 -0.56
30 0.56
31 0.28
32 0.69
33 -0.04
34 -0.14
35 0.62
4 -0.56
48 0.4
49 0.4
5 -0.68
52 0.15
53 0.4
54 0.4
55 0.37
56 0.15
57 0.4
58 0.5
59 0.5
6 -0.68
7 -0.55
8 -0.55
9 -0.68

> <PUBCHEM_EFFECTIVE_ROTOR_COUNT>
11.2

> <PUBCHEM_PHARMACOPHORE_FEATURES>
22
1 10 acceptor
1 10 donor
1 12 acceptor
1 12 donor
1 13 acceptor
1 14 acceptor
1 15 acceptor
1 16 acceptor
1 17 acceptor
1 18 acceptor
1 20 donor
1 3 acceptor
1 4 acceptor
1 5 acceptor
1 5 donor
1 6 acceptor
1 6 donor
1 9 acceptor
1 9 donor
5 3 21 22 23 24 rings
6 19 20 32 33 34 35 rings
6 4 25 26 28 29 30 rings

> <PUBCHEM_HEAVY_ATOM_COUNT>
35

> <PUBCHEM_ATOM_DEF_STEREO_COUNT>
8

> <PUBCHEM_ATOM_UDEF_STEREO_COUNT>
0

> <PUBCHEM_BOND_DEF_STEREO_COUNT>
0

> <PUBCHEM_BOND_UDEF_STEREO_COUNT>
0

> <PUBCHEM_ISOTOPIC_ATOM_COUNT>
0

> <PUBCHEM_COMPONENT_COUNT>
1

> <PUBCHEM_CACTVS_TAUTO_COUNT>
3

> <PUBCHEM_CONFORMER_ID>
013D06FA00000001

> <PUBCHEM_MMFF94_ENERGY>
45.2328

> <PUBCHEM_FEATURE_SELFOVERLAP>
111.683

> <PUBCHEM_SHAPE_FINGERPRINT>
10165383 225 18272079527025328101
12655364 131 15359977755187432072
12788726 201 17824812571853450602
13402501 40 18338508651772645918
13726171 33 18130499743585614492
13947920 24 18340753863782005652
14114207 22 16831570928745268099
14251757 17 18341609347392522432
144659 39 17985291615545610624
150020 26 18046052775289575218
16067690 210 16916776332425008509
17093844 170 18410304618152395264
17921350 177 18058470723816867676
20764821 26 18265335006219280444
23559900 14 18049997788729346651
238 59 17750811964464768630
27425 322 16415472744704277836
3027735 51 18191584366080401072
35225 105 17265583124851056903
3524813 1 18194108630140244838
469060 322 17480542333858877453
508706 21 18271253711845709039

> <PUBCHEM_SHAPE_MULTIPOLES>
624.11
8.29
5.22
2.87
0.58
1.56
-0.59
-0.11
3.54
0.37
-0.35
-0.18
-0.87
4.11

> <PUBCHEM_SHAPE_SELFOVERLAP>
1269.682

> <PUBCHEM_SHAPE_VOLUME>
362.9

> <PUBCHEM_COORDINATE_TYPE>
2
5
10

$$$$

