29919046
  -OEChem-07051213112D

 39 41  0     1  0  0  0  0  0999 V2000
    2.0000   -0.7151    0.0000 O   0  0  0  0  0  0  0  0  0  0  0  0
    2.0933   -2.4947    0.0000 O   0  0  0  0  0  0  0  0  0  0  0  0
    3.4782   -1.3733    0.0000 N   0  0  0  0  0  0  0  0  0  0  0  0
    7.9930   -1.6835    0.0000 N   0  0  0  0  0  0  0  0  0  0  0  0
    9.5928    2.0332    0.0000 N   0  0  0  0  0  0  0  0  0  0  0  0
    3.5827   -0.3787    0.0000 C   0  0  2  0  0  0  0  0  0  0  0  0
    4.4487    0.1213    0.0000 C   0  0  0  0  0  0  0  0  0  0  0  0
    5.3147   -0.3787    0.0000 C   0  0  0  0  0  0  0  0  0  0  0  0
    7.0468   -0.3787    0.0000 C   0  0  0  0  0  0  0  0  0  0  0  0
    2.6691    0.0280    0.0000 C   0  0  0  0  0  0  0  0  0  0  0  0
    7.9930   -0.0740    0.0000 C   0  0  0  0  0  0  0  0  0  0  0  0
    7.0468   -1.3787    0.0000 C   0  0  0  0  0  0  0  0  0  0  0  0
    6.1808    0.1213    0.0000 C   0  0  0  0  0  0  0  0  0  0  0  0
    8.3037    0.8765    0.0000 C   0  0  0  0  0  0  0  0  0  0  0  0
    5.3147   -1.3787    0.0000 C   0  0  0  0  0  0  0  0  0  0  0  0
    6.1808   -1.8787    0.0000 C   0  0  0  0  0  0  0  0  0  0  0  0
    8.5766   -0.8787    0.0000 C   0  0  0  0  0  0  0  0  0  0  0  0
    9.2822    1.0827    0.0000 C   0  0  0  0  0  0  0  0  0  0  0  0
    2.5000   -1.5812    0.0000 C   0  0  0  0  0  0  0  0  0  0  0  0
   10.5713    2.2395    0.0000 C   0  0  0  0  0  0  0  0  0  0  0  0
    4.1026   -0.7164    0.0000 H   0  0  0  0  0  0  0  0  0  0  0  0
    4.8472    0.5962    0.0000 H   0  0  0  0  0  0  0  0  0  0  0  0
    4.0502    0.5962    0.0000 H   0  0  0  0  0  0  0  0  0  0  0  0
    2.9791    0.5649    0.0000 H   0  0  0  0  0  0  0  0  0  0  0  0
    2.1675    0.3924    0.0000 H   0  0  0  0  0  0  0  0  0  0  0  0
    6.1808    0.7413    0.0000 H   0  0  0  0  0  0  0  0  0  0  0  0
    3.9389   -1.7881    0.0000 H   0  0  0  0  0  0  0  0  0  0  0  0
    8.2831    1.4962    0.0000 H   0  0  0  0  0  0  0  0  0  0  0  0
    7.6898    0.9639    0.0000 H   0  0  0  0  0  0  0  0  0  0  0  0
    4.7778   -1.6887    0.0000 H   0  0  0  0  0  0  0  0  0  0  0  0
    6.1808   -2.4987    0.0000 H   0  0  0  0  0  0  0  0  0  0  0  0
    9.1966   -0.8787    0.0000 H   0  0  0  0  0  0  0  0  0  0  0  0
    8.1856   -2.2728    0.0000 H   0  0  0  0  0  0  0  0  0  0  0  0
    9.3027    0.4631    0.0000 H   0  0  0  0  0  0  0  0  0  0  0  0
    9.8960    0.9954    0.0000 H   0  0  0  0  0  0  0  0  0  0  0  0
    9.1788    2.4947    0.0000 H   0  0  0  0  0  0  0  0  0  0  0  0
   10.6992    1.6328    0.0000 H   0  0  0  0  0  0  0  0  0  0  0  0
   11.1780    2.3673    0.0000 H   0  0  0  0  0  0  0  0  0  0  0  0
   10.4435    2.8461    0.0000 H   0  0  0  0  0  0  0  0  0  0  0  0
  1 10  1  0  0  0  0
  1 19  1  0  0  0  0
  2 19  2  0  0  0  0
  3  6  1  0  0  0  0
  3 19  1  0  0  0  0
  3 27  1  0  0  0  0
  4 12  1  0  0  0  0
  4 17  1  0  0  0  0
  4 33  1  0  0  0  0
  5 18  1  0  0  0  0
  5 20  1  0  0  0  0
  5 36  1  0  0  0  0
  6  7  1  1  0  0  0
  6 10  1  0  0  0  0
  6 21  1  0  0  0  0
  7  8  1  0  0  0  0
  7 22  1  0  0  0  0
  7 23  1  0  0  0  0
  8 13  2  0  0  0  0
  8 15  1  0  0  0  0
  9 11  1  0  0  0  0
  9 12  2  0  0  0  0
  9 13  1  0  0  0  0
 10 24  1  0  0  0  0
 10 25  1  0  0  0  0
 11 14  1  0  0  0  0
 11 17  2  0  0  0  0
 12 16  1  0  0  0  0
 13 26  1  0  0  0  0
 14 18  1  0  0  0  0
 14 28  1  0  0  0  0
 14 29  1  0  0  0  0
 15 16  2  0  0  0  0
 15 30  1  0  0  0  0
 16 31  1  0  0  0  0
 17 32  1  0  0  0  0
 18 34  1  0  0  0  0
 18 35  1  0  0  0  0
 20 37  1  0  0  0  0
 20 38  1  0  0  0  0
 20 39  1  0  0  0  0
M  END
> <PUBCHEM_COMPOUND_CID>
29919046

> <PUBCHEM_COMPOUND_CANONICALIZED>
1

> <PUBCHEM_CACTVS_COMPLEXITY>
350

> <PUBCHEM_CACTVS_HBOND_ACCEPTOR>
3

> <PUBCHEM_CACTVS_HBOND_DONOR>
3

> <PUBCHEM_CACTVS_ROTATABLE_BOND>
5

> <PUBCHEM_CACTVS_SUBSKEYS>
AAADceBzMAAAAAAAAAAAAAAAAAAAAWLAAAAwAAAAAAAAAFgB8AAAHgAQAAAADCjhngY+yPLJlACoAzRnXACCgCAxAiAI2aA4ZJkKIOLAkZGNIAhklgDYyAeQwOAOiAACAAACAAAQAAQAAAQAAAAAAAAAAA==

> <PUBCHEM_IUPAC_OPENEYE_NAME>
(4R)-4-[[3-[2-(methylamino)ethyl]-1H-indol-5-yl]methyl]oxazolidin-2-one

> <PUBCHEM_IUPAC_CAS_NAME>
(4R)-4-[[3-[2-(methylamino)ethyl]-1H-indol-5-yl]methyl]-2-oxazolidinone

> <PUBCHEM_IUPAC_NAME>
(4R)-4-[[3-[2-(methylamino)ethyl]-1H-indol-5-yl]methyl]-1,3-oxazolidin-2-one

> <PUBCHEM_IUPAC_SYSTEMATIC_NAME>
(4R)-4-[[3-[2-(methylamino)ethyl]-1H-indol-5-yl]methyl]-1,3-oxazolidin-2-one

> <PUBCHEM_IUPAC_TRADITIONAL_NAME>
(4R)-4-[[3-[2-(methylamino)ethyl]-1H-indol-5-yl]methyl]oxazolidin-2-one

> <PUBCHEM_IUPAC_INCHI>
InChI=1S/C15H19N3O2/c1-16-5-4-11-8-17-14-3-2-10(7-13(11)14)6-12-9-20-15(19)18-12/h2-3,7-8,12,16-17H,4-6,9H2,1H3,(H,18,19)/t12-/m1/s1

> <PUBCHEM_IUPAC_INCHIKEY>
QGGCHSMZXKNGCK-GFCCVEGCSA-N

> <PUBCHEM_XLOGP3_AA>
1.7

> <PUBCHEM_EXACT_MASS>
273.147727

> <PUBCHEM_MOLECULAR_FORMULA>
C15H19N3O2

> <PUBCHEM_MOLECULAR_WEIGHT>
273.33026

> <PUBCHEM_OPENEYE_CAN_SMILES>
CNCCC1=CNC2=C1C=C(C=C2)CC3COC(=O)N3

> <PUBCHEM_OPENEYE_ISO_SMILES>
CNCCC1=CNC2=C1C=C(C=C2)C[C@@H]3COC(=O)N3

> <PUBCHEM_CACTVS_TPSA>
66.2

> <PUBCHEM_MONOISOTOPIC_WEIGHT>
273.147727

> <PUBCHEM_TOTAL_CHARGE>
0

> <PUBCHEM_HEAVY_ATOM_COUNT>
20

> <PUBCHEM_ATOM_DEF_STEREO_COUNT>
1

> <PUBCHEM_ATOM_UDEF_STEREO_COUNT>
0

> <PUBCHEM_BOND_DEF_STEREO_COUNT>
0

> <PUBCHEM_BOND_UDEF_STEREO_COUNT>
0

> <PUBCHEM_ISOTOPIC_ATOM_COUNT>
0

> <PUBCHEM_COMPONENT_COUNT>
1

> <PUBCHEM_CACTVS_TAUTO_COUNT>
2

> <PUBCHEM_COORDINATE_TYPE>
1
5
255

> <PUBCHEM_BONDANNOTATIONS>
11  17  8
12  16  8
15  16  8
4  12  8
4  17  8
6  7  5
8  13  8
8  15  8
9  11  8
9  12  8
9  13  8

$$$$

