441986
  -OEChem-07051212562D

 63 68  0     1  0  0  0  0  0999 V2000
    7.8361   -3.0020    0.0000 O   0  0  0  0  0  0  0  0  0  0  0  0
    4.1137    1.4587    0.0000 O   0  0  0  0  0  0  0  0  0  0  0  0
    5.3415    2.2285    0.0000 O   0  0  0  0  0  0  0  0  0  0  0  0
    3.3526   -2.2067    0.0000 O   0  0  0  0  0  0  0  0  0  0  0  0
    2.6656   -0.1523    0.0000 O   0  0  0  0  0  0  0  0  0  0  0  0
    7.5341   -2.4788    0.0000 N   0  0  3  0  0  0  0  0  0  0  0  0
    6.2102    0.7300    0.0000 N   0  0  0  0  0  0  0  0  0  0  0  0
    7.7433   -1.5070    0.0000 C   0  0  2  0  0  0  0  0  0  0  0  0
    6.8772   -1.0070    0.0000 C   0  0  2  0  0  0  0  0  0  0  0  0
    8.6093   -1.0070    0.0000 C   0  0  2  0  0  0  0  0  0  0  0  0
    6.8772   -0.0070    0.0000 C   0  0  1  0  0  0  0  0  0  0  0  0
    6.1402   -1.6741    0.0000 C   0  0  0  0  0  0  0  0  0  0  0  0
    8.6093   -0.0070    0.0000 C   0  0  0  0  0  0  0  0  0  0  0  0
    9.8575   -1.8349    0.0000 C   0  0  0  0  0  0  0  0  0  0  0  0
    9.3780   -1.6278    0.0000 C   0  0  0  0  0  0  0  0  0  0  0  0
    7.7433    0.4930    0.0000 C   0  0  0  0  0  0  0  0  0  0  0  0
    6.5453   -2.5819    0.0000 C   0  0  0  0  0  0  0  0  0  0  0  0
    5.9054   -0.7978    0.0000 C   0  0  0  0  0  0  0  0  0  0  0  0
    8.3592   -3.0224    0.0000 C   0  0  0  0  0  0  0  0  0  0  0  0
    9.3162   -3.2315    0.0000 C   0  0  0  0  0  0  0  0  0  0  0  0
    9.2563   -2.6083    0.0000 C   0  0  0  0  0  0  0  0  0  0  0  0
    5.5524    0.2579    0.0000 C   0  0  0  0  0  0  0  0  0  0  0  0
    5.1504   -1.6779    0.0000 C   0  0  0  0  0  0  0  0  0  0  0  0
    6.2084    1.7300    0.0000 C   0  0  0  0  0  0  0  0  0  0  0  0
    4.4199    0.5067    0.0000 C   0  0  0  0  0  0  0  0  0  0  0  0
    4.0125   -1.4553    0.0000 C   0  0  0  0  0  0  0  0  0  0  0  0
    3.6447   -0.3556    0.0000 C   0  0  0  0  0  0  0  0  0  0  0  0
    7.0736    2.2315    0.0000 C   0  0  0  0  0  0  0  0  0  0  0  0
    7.0719    3.2315    0.0000 C   0  0  0  0  0  0  0  0  0  0  0  0
    3.6734   -3.1538    0.0000 C   0  0  0  0  0  0  0  0  0  0  0  0
    2.0000   -0.8986    0.0000 C   0  0  0  0  0  0  0  0  0  0  0  0
    7.0091    0.8327    0.0000 H   0  0  0  0  0  0  0  0  0  0  0  0
    5.7748   -1.1733    0.0000 H   0  0  0  0  0  0  0  0  0  0  0  0
    5.6037   -1.9849    0.0000 H   0  0  0  0  0  0  0  0  0  0  0  0
    9.2199   -0.1147    0.0000 H   0  0  0  0  0  0  0  0  0  0  0  0
    8.8214    0.5756    0.0000 H   0  0  0  0  0  0  0  0  0  0  0  0
   10.4180   -2.0999    0.0000 H   0  0  0  0  0  0  0  0  0  0  0  0
   10.1622   -1.2949    0.0000 H   0  0  0  0  0  0  0  0  0  0  0  0
    9.9686   -1.8162    0.0000 H   0  0  0  0  0  0  0  0  0  0  0  0
    9.6720   -1.0820    0.0000 H   0  0  0  0  0  0  0  0  0  0  0  0
    8.1418    0.9679    0.0000 H   0  0  0  0  0  0  0  0  0  0  0  0
    7.3447    0.9679    0.0000 H   0  0  0  0  0  0  0  0  0  0  0  0
    5.9557   -2.7737    0.0000 H   0  0  0  0  0  0  0  0  0  0  0  0
    6.6741   -3.1884    0.0000 H   0  0  0  0  0  0  0  0  0  0  0  0
    7.9285   -3.4684    0.0000 H   0  0  0  0  0  0  0  0  0  0  0  0
    8.7182   -3.5278    0.0000 H   0  0  0  0  0  0  0  0  0  0  0  0
    9.1774   -3.8357    0.0000 H   0  0  0  0  0  0  0  0  0  0  0  0
    9.9090   -3.4134    0.0000 H   0  0  0  0  0  0  0  0  0  0  0  0
    9.4079   -3.2095    0.0000 H   0  0  0  0  0  0  0  0  0  0  0  0
    9.8751   -2.5700    0.0000 H   0  0  0  0  0  0  0  0  0  0  0  0
    5.3539   -2.2636    0.0000 H   0  0  0  0  0  0  0  0  0  0  0  0
    7.2866    1.6492    0.0000 H   0  0  0  0  0  0  0  0  0  0  0  0
    7.6840    2.3402    0.0000 H   0  0  0  0  0  0  0  0  0  0  0  0
    3.5076    1.5894    0.0000 H   0  0  0  0  0  0  0  0  0  0  0  0
    7.6919    3.2326    0.0000 H   0  0  0  0  0  0  0  0  0  0  0  0
    7.0708    3.8515    0.0000 H   0  0  0  0  0  0  0  0  0  0  0  0
    6.4519    3.2304    0.0000 H   0  0  0  0  0  0  0  0  0  0  0  0
    3.0862   -3.3528    0.0000 H   0  0  0  0  0  0  0  0  0  0  0  0
    3.8724   -3.7411    0.0000 H   0  0  0  0  0  0  0  0  0  0  0  0
    4.2607   -2.9549    0.0000 H   0  0  0  0  0  0  0  0  0  0  0  0
    1.5373   -0.4860    0.0000 H   0  0  0  0  0  0  0  0  0  0  0  0
    1.5873   -1.3613    0.0000 H   0  0  0  0  0  0  0  0  0  0  0  0
    2.4627   -1.3113    0.0000 H   0  0  0  0  0  0  0  0  0  0  0  0
  8  1  1  6  0  0  0
  1 20  1  0  0  0  0
  2 25  1  0  0  0  0
  2 54  1  0  0  0  0
  3 24  2  0  0  0  0
  4 26  1  0  0  0  0
  4 30  1  0  0  0  0
  5 27  1  0  0  0  0
  5 31  1  0  0  0  0
  6  8  1  0  0  0  0
  6 17  1  0  0  0  0
  6 19  1  0  0  0  0
  7 11  1  0  0  0  0
  7 22  1  0  0  0  0
  7 24  1  0  0  0  0
  8  9  1  0  0  0  0
  8 10  1  0  0  0  0
  9 11  1  0  0  0  0
  9 12  1  1  0  0  0
  9 18  1  0  0  0  0
 10 13  1  1  0  0  0
 10 14  1  0  0  0  0
 10 15  1  0  0  0  0
 11 16  1  0  0  0  0
 11 32  1  1  0  0  0
 12 17  1  0  0  0  0
 12 33  1  0  0  0  0
 12 34  1  0  0  0  0
 13 16  1  0  0  0  0
 13 35  1  0  0  0  0
 13 36  1  0  0  0  0
 14 20  1  0  0  0  0
 14 37  1  0  0  0  0
 14 38  1  0  0  0  0
 15 21  1  0  0  0  0
 15 39  1  0  0  0  0
 15 40  1  0  0  0  0
 16 41  1  0  0  0  0
 16 42  1  0  0  0  0
 17 43  1  0  0  0  0
 17 44  1  0  0  0  0
 18 22  1  0  0  0  0
 18 23  2  0  0  0  0
 19 21  1  0  0  0  0
 19 45  1  0  0  0  0
 19 46  1  0  0  0  0
 20 47  1  0  0  0  0
 20 48  1  0  0  0  0
 21 49  1  0  0  0  0
 21 50  1  0  0  0  0
 22 25  2  0  0  0  0
 23 26  1  0  0  0  0
 23 51  1  0  0  0  0
 24 28  1  0  0  0  0
 25 27  1  0  0  0  0
 26 27  2  0  0  0  0
 28 29  1  0  0  0  0
 28 52  1  0  0  0  0
 28 53  1  0  0  0  0
 29 55  1  0  0  0  0
 29 56  1  0  0  0  0
 29 57  1  0  0  0  0
 30 58  1  0  0  0  0
 30 59  1  0  0  0  0
 30 60  1  0  0  0  0
 31 61  1  0  0  0  0
 31 62  1  0  0  0  0
 31 63  1  0  0  0  0
M  END
> <PUBCHEM_COMPOUND_CID>
441986

> <PUBCHEM_COMPOUND_CANONICALIZED>
1

> <PUBCHEM_CACTVS_COMPLEXITY>
764

> <PUBCHEM_CACTVS_HBOND_ACCEPTOR>
6

> <PUBCHEM_CACTVS_HBOND_DONOR>
1

> <PUBCHEM_CACTVS_ROTATABLE_BOND>
3

> <PUBCHEM_CACTVS_SUBSKEYS>
AAADcfB7OAAAAAAAAAAAAAAAAAAAAWLEgAA8YIAAAAAAAFixAAAAHgAACAAADizhmAYyxoMABgCIAiVSUACCCAAhIAAAiAEPzIgPJyLW8JuOcCtnxh3b+Aew8P8PoEABCgACUABQgAYUCBSgAAAAAAAAAA==

> <PUBCHEM_IUPAC_INCHI>
InChI=1S/C24H32N2O5/c1-4-18(27)26-17-6-8-22-7-5-11-25-12-9-23(17,24(22,25)31-13-10-22)15-14-16(29-2)21(30-3)20(28)19(15)26/h14,17,28H,4-13H2,1-3H3/t17-,22-,23-,24+/m1/s1

> <PUBCHEM_IUPAC_INCHIKEY>
BJYVZJQGRUSSBS-BMZZKGLRSA-N

> <PUBCHEM_XLOGP3_AA>
2.5

> <PUBCHEM_EXACT_MASS>
428.231122

> <PUBCHEM_MOLECULAR_FORMULA>
C24H32N2O5

> <PUBCHEM_MOLECULAR_WEIGHT>
428.52128

> <PUBCHEM_OPENEYE_CAN_SMILES>
CCC(=O)N1C2CCC34CCCN5C3(C2(CC5)C6=CC(=C(C(=C61)O)OC)OC)OCC4

> <PUBCHEM_OPENEYE_ISO_SMILES>
CCC(=O)N1[C@@H]2CC[C@@]34CCCN5[C@]3([C@]2(CC5)C6=CC(=C(C(=C61)O)OC)OC)OCC4

> <PUBCHEM_CACTVS_TPSA>
71.5

> <PUBCHEM_MONOISOTOPIC_WEIGHT>
428.231122

> <PUBCHEM_TOTAL_CHARGE>
0

> <PUBCHEM_HEAVY_ATOM_COUNT>
31

> <PUBCHEM_ATOM_DEF_STEREO_COUNT>
4

> <PUBCHEM_ATOM_UDEF_STEREO_COUNT>
0

> <PUBCHEM_BOND_DEF_STEREO_COUNT>
0

> <PUBCHEM_BOND_UDEF_STEREO_COUNT>
0

> <PUBCHEM_ISOTOPIC_ATOM_COUNT>
0

> <PUBCHEM_COMPONENT_COUNT>
1

> <PUBCHEM_CACTVS_TAUTO_COUNT>
2

> <PUBCHEM_COORDINATE_TYPE>
1
5
255

> <PUBCHEM_BONDANNOTATIONS>
8  1  6
10  13  5
11  32  5
18  22  8
18  23  8
22  25  8
23  26  8
25  27  8
26  27  8
9  12  5

$$$$

