442403
  -OEChem-07051212583D

 45 48  0     1  0  0  0  0  0999 V2000
   -1.4745    2.3537    0.6416 O   0  0  0  0  0  0  0  0  0  0  0  0
    0.9570   -0.1123    1.7573 O   0  0  0  0  0  0  0  0  0  0  0  0
   -2.8153   -0.1914   -0.5811 O   0  0  0  0  0  0  0  0  0  0  0  0
   -3.6801   -2.0366    0.5071 O   0  0  0  0  0  0  0  0  0  0  0  0
   -0.4349    0.4928   -0.6762 C   0  0  1  0  0  0  0  0  0  0  0  0
   -0.4263    1.3768    0.5533 C   0  0  2  0  0  0  0  0  0  0  0  0
    1.0291   -0.1547   -0.7604 C   0  0  2  0  0  0  0  0  0  0  0  0
   -0.3646    0.4360    1.7042 C   0  0  1  0  0  0  0  0  0  0  0  0
   -1.4935   -0.5824   -0.2100 C   0  0  1  0  0  0  0  0  0  0  0  0
   -0.1296    2.8542    0.6302 C   0  0  0  0  0  0  0  0  0  0  0  0
   -1.4118   -0.6263    1.3369 C   0  0  0  0  0  0  0  0  0  0  0  0
    1.3675   -0.8670    0.6004 C   0  0  1  0  0  0  0  0  0  0  0  0
   -0.8622    1.2075   -1.9643 C   0  0  0  0  0  0  0  0  0  0  0  0
    2.1237    0.9275   -1.0155 C   0  0  0  0  0  0  0  0  0  0  0  0
    1.1037   -1.1868   -1.9187 C   0  0  0  0  0  0  0  0  0  0  0  0
    2.8307   -1.1597    0.8043 C   0  0  0  0  0  0  0  0  0  0  0  0
    3.5545    0.3725   -1.0214 C   0  0  0  0  0  0  0  0  0  0  0  0
    3.8219   -0.6225    0.0745 C   0  0  0  0  0  0  0  0  0  0  0  0
   -3.8159   -1.0152   -0.1526 C   0  0  0  0  0  0  0  0  0  0  0  0
    5.2599   -0.9832    0.3030 C   0  0  0  0  0  0  0  0  0  0  0  0
   -5.1393   -0.4830   -0.6126 C   0  0  0  0  0  0  0  0  0  0  0  0
   -0.5792    0.9036    2.6699 H   0  0  0  0  0  0  0  0  0  0  0  0
   -1.3070   -1.5665   -0.6471 H   0  0  0  0  0  0  0  0  0  0  0  0
    0.2651    3.2504    1.5570 H   0  0  0  0  0  0  0  0  0  0  0  0
    0.2003    3.3737   -0.2593 H   0  0  0  0  0  0  0  0  0  0  0  0
   -1.1293   -1.6192    1.7011 H   0  0  0  0  0  0  0  0  0  0  0  0
   -2.3579   -0.3424    1.8114 H   0  0  0  0  0  0  0  0  0  0  0  0
    0.8551   -1.8366    0.6343 H   0  0  0  0  0  0  0  0  0  0  0  0
   -0.1436    1.9739   -2.2673 H   0  0  0  0  0  0  0  0  0  0  0  0
   -0.9755    0.5007   -2.7921 H   0  0  0  0  0  0  0  0  0  0  0  0
   -1.8218    1.7235   -1.8479 H   0  0  0  0  0  0  0  0  0  0  0  0
    2.0824    1.6968   -0.2370 H   0  0  0  0  0  0  0  0  0  0  0  0
    1.9549    1.4405   -1.9686 H   0  0  0  0  0  0  0  0  0  0  0  0
    0.9940   -0.6984   -2.8927 H   0  0  0  0  0  0  0  0  0  0  0  0
    2.0580   -1.7228   -1.9372 H   0  0  0  0  0  0  0  0  0  0  0  0
    0.3308   -1.9553   -1.8438 H   0  0  0  0  0  0  0  0  0  0  0  0
    3.0726   -1.8630    1.5981 H   0  0  0  0  0  0  0  0  0  0  0  0
    4.2474    1.2179   -0.9270 H   0  0  0  0  0  0  0  0  0  0  0  0
    3.7673   -0.0981   -1.9889 H   0  0  0  0  0  0  0  0  0  0  0  0
    5.8349   -0.0945    0.5824 H   0  0  0  0  0  0  0  0  0  0  0  0
    5.6938   -1.4059   -0.6091 H   0  0  0  0  0  0  0  0  0  0  0  0
    5.3791   -1.7223    1.1021 H   0  0  0  0  0  0  0  0  0  0  0  0
   -5.1647   -0.4468   -1.7045 H   0  0  0  0  0  0  0  0  0  0  0  0
   -5.3054    0.5111   -0.1900 H   0  0  0  0  0  0  0  0  0  0  0  0
   -5.9371   -1.1465   -0.2670 H   0  0  0  0  0  0  0  0  0  0  0  0
  1  6  1  0  0  0  0
  1 10  1  0  0  0  0
  2  8  1  0  0  0  0
  2 12  1  0  0  0  0
  3  9  1  0  0  0  0
  3 19  1  0  0  0  0
  4 19  2  0  0  0  0
  5  6  1  0  0  0  0
  5  7  1  0  0  0  0
  5  9  1  0  0  0  0
  5 13  1  0  0  0  0
  6  8  1  0  0  0  0
  6 10  1  0  0  0  0
  7 12  1  0  0  0  0
  7 14  1  0  0  0  0
  7 15  1  0  0  0  0
  8 11  1  0  0  0  0
  8 22  1  0  0  0  0
  9 11  1  0  0  0  0
  9 23  1  0  0  0  0
 10 24  1  0  0  0  0
 10 25  1  0  0  0  0
 11 26  1  0  0  0  0
 11 27  1  0  0  0  0
 12 16  1  0  0  0  0
 12 28  1  0  0  0  0
 13 29  1  0  0  0  0
 13 30  1  0  0  0  0
 13 31  1  0  0  0  0
 14 17  1  0  0  0  0
 14 32  1  0  0  0  0
 14 33  1  0  0  0  0
 15 34  1  0  0  0  0
 15 35  1  0  0  0  0
 15 36  1  0  0  0  0
 16 18  2  0  0  0  0
 16 37  1  0  0  0  0
 17 18  1  0  0  0  0
 17 38  1  0  0  0  0
 17 39  1  0  0  0  0
 18 20  1  0  0  0  0
 19 21  1  0  0  0  0
 20 40  1  0  0  0  0
 20 41  1  0  0  0  0
 20 42  1  0  0  0  0
 21 43  1  0  0  0  0
 21 44  1  0  0  0  0
 21 45  1  0  0  0  0
M  END
> <PUBCHEM_COMPOUND_CID>
442403

> <PUBCHEM_CONFORMER_RMSD>
0.6

> <PUBCHEM_CONFORMER_DIVERSEORDER>
1

> <PUBCHEM_MMFF94_PARTIAL_CHARGES>
19
1 -0.3
10 -0.05
12 0.42
16 -0.29
17 0.14
18 -0.28
19 0.66
2 -0.56
20 0.14
21 0.06
24 0.1
25 0.1
3 -0.43
37 0.15
4 -0.57
5 0.09
6 -0.04
8 0.38
9 0.28

> <PUBCHEM_EFFECTIVE_ROTOR_COUNT>
3.4

> <PUBCHEM_PHARMACOPHORE_FEATURES>
5
1 1 acceptor
1 2 acceptor
1 4 acceptor
6 7 12 14 16 17 18 rings
8 2 5 6 7 8 9 11 12 rings

> <PUBCHEM_HEAVY_ATOM_COUNT>
21

> <PUBCHEM_ATOM_DEF_STEREO_COUNT>
6

> <PUBCHEM_ATOM_UDEF_STEREO_COUNT>
0

> <PUBCHEM_BOND_DEF_STEREO_COUNT>
0

> <PUBCHEM_BOND_UDEF_STEREO_COUNT>
0

> <PUBCHEM_ISOTOPIC_ATOM_COUNT>
0

> <PUBCHEM_COMPONENT_COUNT>
1

> <PUBCHEM_CACTVS_TAUTO_COUNT>
1

> <PUBCHEM_CONFORMER_ID>
0006C02300000001

> <PUBCHEM_MMFF94_ENERGY>
73.562

> <PUBCHEM_FEATURE_SELFOVERLAP>
25.379

> <PUBCHEM_SHAPE_FINGERPRINT>
10863032 1 18196944472470194636
11132069 177 16660644046462352830
11315181 36 14908172085094305286
11578080 2 18057910020084201253
11961588 58 11671483557453684222
12011746 2 15068335722491021189
12119455 92 8286206041367571595
12403814 3 17458634414578497040
12423570 1 14140692029864961992
12592029 89 15626232328844907432
12788726 201 18336251414366937504
12892183 10 5689602696831862775
13134695 92 18264774268443438109
13140716 1 16444489883079464654
13583140 156 17243323744682418658
14787075 74 18126572215367959256
14943859 89 11384113042090955886
15142383 8 18339349843467792281
16945 1 18265873835762935158
17357779 13 17603597352232232413
17844478 74 16877940572609642008
1813 80 17675919872152284636
18186145 218 14261072030567758503
18222031 100 17749387031643970719
187816 3 15338838681068280558
19010151 120 18261382334810608656
192875 21 17775280569533864164
200 152 18272369776261476394
20600515 1 17750219353435377039
21069387 34 17775557659164414046
23402539 116 18410294747857983006
23419403 2 18195554556402548197
23557571 272 18187645868190114704
23559900 14 17060051494313471644
25 1 12967137115905444315
276578 36 10951780667824070265
296302 2 17846490401072139470
3286 77 18412263935251512108
347723 3 17632859745966401411
465052 167 18041278772874014039
54040823 5 18266451010584984103
633830 44 13758075169360209983
7495541 125 18267859476891578963
81228 2 18044354227466879921
9999458 23 15864076425097061675

> <PUBCHEM_SHAPE_MULTIPOLES>
408.69
7.42
1.95
1.63
0.2
1.23
0.18
-4.28
0.72
0.76
-0.34
-0.14
0.12
-0.27

> <PUBCHEM_SHAPE_SELFOVERLAP>
879.545

> <PUBCHEM_SHAPE_VOLUME>
223.2

> <PUBCHEM_COORDINATE_TYPE>
2
5
10

$$$$

