494023
  -OEChem-07051213082D

 95 97  0     1  0  0  0  0  0999 V2000
   20.1865    0.5950    0.0000 O   0  0  0  0  0  0  0  0  0  0  0  0
   17.5885   -0.9050    0.0000 O   0  0  0  0  0  0  0  0  0  0  0  0
   19.3205   -1.9050    0.0000 O   0  0  0  0  0  0  0  0  0  0  0  0
   18.4545    2.5950    0.0000 O   0  0  0  0  0  0  0  0  0  0  0  0
   20.1865    3.5950    0.0000 O   0  0  0  0  0  0  0  0  0  0  0  0
   16.7224   -0.4050    0.0000 O   0  0  0  0  0  0  0  0  0  0  0  0
   14.1244    2.0950    0.0000 O   0  0  0  0  0  0  0  0  0  0  0  0
   17.5885    1.0950    0.0000 N   0  0  0  0  0  0  0  0  0  0  0  0
   21.0526   -0.9050    0.0000 N   0  0  0  0  0  0  0  0  0  0  0  0
   14.9904    0.5950    0.0000 N   0  0  0  0  0  0  0  0  0  0  0  0
   20.1865   -2.4050    0.0000 N   0  0  0  0  0  0  0  0  0  0  0  0
   22.8648   -2.1003    0.0000 N   0  0  0  0  0  0  0  0  0  0  0  0
   21.0526   -3.9050    0.0000 N   0  0  0  0  0  0  0  0  0  0  0  0
   22.8648   -3.7097    0.0000 N   0  0  0  0  0  0  0  0  0  0  0  0
   18.4545    0.5950    0.0000 C   0  0  3  0  0  0  0  0  0  0  0  0
   19.3205    1.0950    0.0000 C   0  0  3  0  0  0  0  0  0  0  0  0
   18.4545   -0.4050    0.0000 C   0  0  3  0  0  0  0  0  0  0  0  0
   19.3205   -0.9050    0.0000 C   0  0  3  0  0  0  0  0  0  0  0  0
   20.1865   -0.4050    0.0000 C   0  0  3  0  0  0  0  0  0  0  0  0
   19.3205    2.0950    0.0000 C   0  0  3  0  0  0  0  0  0  0  0  0
   20.1865    2.5950    0.0000 C   0  0  0  0  0  0  0  0  0  0  0  0
   16.7224    0.5950    0.0000 C   0  0  0  0  0  0  0  0  0  0  0  0
   21.0526   -1.9050    0.0000 C   0  0  0  0  0  0  0  0  0  0  0  0
   15.8564    1.0950    0.0000 C   0  0  0  0  0  0  0  0  0  0  0  0
   21.9186   -2.4050    0.0000 C   0  0  0  0  0  0  0  0  0  0  0  0
    7.1962    1.0950    0.0000 C   0  0  0  0  0  0  0  0  0  0  0  0
    8.0622    0.5950    0.0000 C   0  0  0  0  0  0  0  0  0  0  0  0
    6.3301    0.5950    0.0000 C   0  0  0  0  0  0  0  0  0  0  0  0
    8.9282    1.0950    0.0000 C   0  0  0  0  0  0  0  0  0  0  0  0
    5.4641    1.0950    0.0000 C   0  0  0  0  0  0  0  0  0  0  0  0
    9.7942    0.5950    0.0000 C   0  0  0  0  0  0  0  0  0  0  0  0
    4.5981    0.5950    0.0000 C   0  0  0  0  0  0  0  0  0  0  0  0
   10.6603    1.0950    0.0000 C   0  0  0  0  0  0  0  0  0  0  0  0
    3.7320    1.0950    0.0000 C   0  0  0  0  0  0  0  0  0  0  0  0
   11.5263    0.5950    0.0000 C   0  0  0  0  0  0  0  0  0  0  0  0
   12.3923    1.0950    0.0000 C   0  0  0  0  0  0  0  0  0  0  0  0
   21.9186   -3.4050    0.0000 C   0  0  0  0  0  0  0  0  0  0  0  0
    2.8660    0.5950    0.0000 C   0  0  0  0  0  0  0  0  0  0  0  0
   13.2583    0.5950    0.0000 C   0  0  0  0  0  0  0  0  0  0  0  0
   14.1244    1.0950    0.0000 C   0  0  0  0  0  0  0  0  0  0  0  0
   20.1865   -3.4050    0.0000 C   0  0  0  0  0  0  0  0  0  0  0  0
    2.0000    1.0950    0.0000 C   0  0  0  0  0  0  0  0  0  0  0  0
    2.8660   -0.4050    0.0000 C   0  0  0  0  0  0  0  0  0  0  0  0
   23.4484   -2.9050    0.0000 C   0  0  0  0  0  0  0  0  0  0  0  0
   18.4545    1.4450    0.0000 H   0  0  0  0  0  0  0  0  0  0  0  0
   20.0566    1.5200    0.0000 H   0  0  0  0  0  0  0  0  0  0  0  0
   18.4545   -1.2550    0.0000 H   0  0  0  0  0  0  0  0  0  0  0  0
   20.0566   -1.3300    0.0000 H   0  0  0  0  0  0  0  0  0  0  0  0
   20.1865   -1.2550    0.0000 H   0  0  0  0  0  0  0  0  0  0  0  0
   18.5844    1.6700    0.0000 H   0  0  0  0  0  0  0  0  0  0  0  0
   17.5885    1.7150    0.0000 H   0  0  0  0  0  0  0  0  0  0  0  0
   21.5895   -0.5950    0.0000 H   0  0  0  0  0  0  0  0  0  0  0  0
   20.3986    2.0124    0.0000 H   0  0  0  0  0  0  0  0  0  0  0  0
   20.7971    2.7027    0.0000 H   0  0  0  0  0  0  0  0  0  0  0  0
   17.5885   -1.5250    0.0000 H   0  0  0  0  0  0  0  0  0  0  0  0
   18.7836   -2.2150    0.0000 H   0  0  0  0  0  0  0  0  0  0  0  0
   18.4545    3.2150    0.0000 H   0  0  0  0  0  0  0  0  0  0  0  0
   16.2549    1.5700    0.0000 H   0  0  0  0  0  0  0  0  0  0  0  0
   15.4579    1.5700    0.0000 H   0  0  0  0  0  0  0  0  0  0  0  0
   20.7235    3.9050    0.0000 H   0  0  0  0  0  0  0  0  0  0  0  0
    7.5947    1.5700    0.0000 H   0  0  0  0  0  0  0  0  0  0  0  0
    6.7976    1.5700    0.0000 H   0  0  0  0  0  0  0  0  0  0  0  0
    7.6636    0.1201    0.0000 H   0  0  0  0  0  0  0  0  0  0  0  0
    8.4607    0.1201    0.0000 H   0  0  0  0  0  0  0  0  0  0  0  0
    5.9316    0.1201    0.0000 H   0  0  0  0  0  0  0  0  0  0  0  0
    6.7287    0.1201    0.0000 H   0  0  0  0  0  0  0  0  0  0  0  0
    9.3267    1.5700    0.0000 H   0  0  0  0  0  0  0  0  0  0  0  0
    8.5297    1.5700    0.0000 H   0  0  0  0  0  0  0  0  0  0  0  0
    5.8626    1.5700    0.0000 H   0  0  0  0  0  0  0  0  0  0  0  0
    5.0656    1.5700    0.0000 H   0  0  0  0  0  0  0  0  0  0  0  0
    9.3957    0.1201    0.0000 H   0  0  0  0  0  0  0  0  0  0  0  0
   10.1928    0.1201    0.0000 H   0  0  0  0  0  0  0  0  0  0  0  0
   14.9904   -0.0250    0.0000 H   0  0  0  0  0  0  0  0  0  0  0  0
    4.1996    0.1201    0.0000 H   0  0  0  0  0  0  0  0  0  0  0  0
    4.9966    0.1201    0.0000 H   0  0  0  0  0  0  0  0  0  0  0  0
   11.0588    1.5700    0.0000 H   0  0  0  0  0  0  0  0  0  0  0  0
   10.2617    1.5700    0.0000 H   0  0  0  0  0  0  0  0  0  0  0  0
    4.1306    1.5700    0.0000 H   0  0  0  0  0  0  0  0  0  0  0  0
    3.3335    1.5700    0.0000 H   0  0  0  0  0  0  0  0  0  0  0  0
   11.1278    0.1201    0.0000 H   0  0  0  0  0  0  0  0  0  0  0  0
   11.9248    0.1201    0.0000 H   0  0  0  0  0  0  0  0  0  0  0  0
   12.7908    1.5700    0.0000 H   0  0  0  0  0  0  0  0  0  0  0  0
   11.9938    1.5700    0.0000 H   0  0  0  0  0  0  0  0  0  0  0  0
    2.8660    1.2150    0.0000 H   0  0  0  0  0  0  0  0  0  0  0  0
   12.8598    0.1201    0.0000 H   0  0  0  0  0  0  0  0  0  0  0  0
   13.6569    0.1201    0.0000 H   0  0  0  0  0  0  0  0  0  0  0  0
   23.0574   -1.5110    0.0000 H   0  0  0  0  0  0  0  0  0  0  0  0
   19.6496   -3.7150    0.0000 H   0  0  0  0  0  0  0  0  0  0  0  0
    2.2460   -0.4050    0.0000 H   0  0  0  0  0  0  0  0  0  0  0  0
    2.8660   -1.0250    0.0000 H   0  0  0  0  0  0  0  0  0  0  0  0
    3.4860   -0.4050    0.0000 H   0  0  0  0  0  0  0  0  0  0  0  0
    2.3100    1.6319    0.0000 H   0  0  0  0  0  0  0  0  0  0  0  0
    1.4631    1.4050    0.0000 H   0  0  0  0  0  0  0  0  0  0  0  0
    1.6900    0.5581    0.0000 H   0  0  0  0  0  0  0  0  0  0  0  0
   24.0684   -2.9050    0.0000 H   0  0  0  0  0  0  0  0  0  0  0  0
  1 16  1  0  0  0  0
  1 19  1  0  0  0  0
  2 17  1  0  0  0  0
  2 55  1  0  0  0  0
  3 18  1  0  0  0  0
  3 56  1  0  0  0  0
  4 20  1  0  0  0  0
  4 57  1  0  0  0  0
  5 21  1  0  0  0  0
  5 60  1  0  0  0  0
  6 22  2  0  0  0  0
  7 40  2  0  0  0  0
  8 15  1  0  0  0  0
  8 22  1  0  0  0  0
  8 51  1  0  0  0  0
  9 19  1  0  0  0  0
  9 23  1  0  0  0  0
  9 52  1  0  0  0  0
 10 24  1  0  0  0  0
 10 40  1  0  0  0  0
 10 73  1  0  0  0  0
 11 23  2  0  0  0  0
 11 41  1  0  0  0  0
 12 25  1  0  0  0  0
 12 44  1  0  0  0  0
 12 87  1  0  0  0  0
 13 37  1  0  0  0  0
 13 41  2  0  0  0  0
 14 37  1  0  0  0  0
 14 44  2  0  0  0  0
 15 16  1  0  0  0  0
 15 17  1  0  0  0  0
 15 45  1  0  0  0  0
 16 20  1  0  0  0  0
 16 46  1  0  0  0  0
 17 18  1  0  0  0  0
 17 47  1  0  0  0  0
 18 19  1  0  0  0  0
 18 48  1  0  0  0  0
 19 49  1  0  0  0  0
 20 21  1  0  0  0  0
 20 50  1  0  0  0  0
 21 53  1  0  0  0  0
 21 54  1  0  0  0  0
 22 24  1  0  0  0  0
 23 25  1  0  0  0  0
 24 58  1  0  0  0  0
 24 59  1  0  0  0  0
 25 37  2  0  0  0  0
 26 27  1  0  0  0  0
 26 28  1  0  0  0  0
 26 61  1  0  0  0  0
 26 62  1  0  0  0  0
 27 29  1  0  0  0  0
 27 63  1  0  0  0  0
 27 64  1  0  0  0  0
 28 30  1  0  0  0  0
 28 65  1  0  0  0  0
 28 66  1  0  0  0  0
 29 31  1  0  0  0  0
 29 67  1  0  0  0  0
 29 68  1  0  0  0  0
 30 32  1  0  0  0  0
 30 69  1  0  0  0  0
 30 70  1  0  0  0  0
 31 33  1  0  0  0  0
 31 71  1  0  0  0  0
 31 72  1  0  0  0  0
 32 34  1  0  0  0  0
 32 74  1  0  0  0  0
 32 75  1  0  0  0  0
 33 35  1  0  0  0  0
 33 76  1  0  0  0  0
 33 77  1  0  0  0  0
 34 38  1  0  0  0  0
 34 78  1  0  0  0  0
 34 79  1  0  0  0  0
 35 36  1  0  0  0  0
 35 80  1  0  0  0  0
 35 81  1  0  0  0  0
 36 39  1  0  0  0  0
 36 82  1  0  0  0  0
 36 83  1  0  0  0  0
 38 42  1  0  0  0  0
 38 43  1  0  0  0  0
 38 84  1  0  0  0  0
 39 40  1  0  0  0  0
 39 85  1  0  0  0  0
 39 86  1  0  0  0  0
 41 88  1  0  0  0  0
 42 92  1  0  0  0  0
 42 93  1  0  0  0  0
 42 94  1  0  0  0  0
 43 89  1  0  0  0  0
 43 90  1  0  0  0  0
 43 91  1  0  0  0  0
 44 95  1  0  0  0  0
M  END
> <PUBCHEM_COMPOUND_CID>
494023

> <PUBCHEM_COMPOUND_CANONICALIZED>
1

> <PUBCHEM_CACTVS_COMPLEXITY>
842

> <PUBCHEM_CACTVS_HBOND_ACCEPTOR>
11

> <PUBCHEM_CACTVS_HBOND_DONOR>
8

> <PUBCHEM_CACTVS_ROTATABLE_BOND>
20

> <PUBCHEM_CACTVS_SUBSKEYS>
AAADcfB7uAAAAAAAAAAAAAAAAAAAAWAAAAAsSAAAAAAAAFgB+AAAHgAQCAAADTzhlwYH8L7JlgCoAQdxdACAgC2REKABUaGoVBGDWBJAyGAfRAgPFgLTACH4+OaMAAAAAAAAAAAAAAAAAAAAAAAAAAAAAA==

> <PUBCHEM_IUPAC_OPENEYE_NAME>
N-[2-[[2-(1,2-dihydroxyethyl)-4,5-dihydroxy-6-(7H-purin-6-ylamino)tetrahydropyran-3-yl]amino]-2-oxo-ethyl]-14-methyl-pentadecanamide

> <PUBCHEM_IUPAC_CAS_NAME>
N-[2-[[2-(1,2-dihydroxyethyl)-4,5-dihydroxy-6-(7H-purin-6-ylamino)-3-oxanyl]amino]-2-oxoethyl]-14-methylpentadecanamide

> <PUBCHEM_IUPAC_NAME>
N-[2-[[2-(1,2-dihydroxyethyl)-4,5-dihydroxy-6-(7H-purin-6-ylamino)oxan-3-yl]amino]-2-oxoethyl]-14-methylpentadecanamide

> <PUBCHEM_IUPAC_SYSTEMATIC_NAME>
N-[2-[[2-[1,2-bis(oxidanyl)ethyl]-4,5-bis(oxidanyl)-6-(7H-purin-6-ylamino)oxan-3-yl]amino]-2-oxidanylidene-ethyl]-14-methyl-pentadecanamide

> <PUBCHEM_IUPAC_TRADITIONAL_NAME>
N-[2-[[2-(1,2-dihydroxyethyl)-4,5-dihydroxy-6-(7H-purin-6-ylamino)tetrahydropyran-3-yl]amino]-2-keto-ethyl]-14-methyl-pentadecanamide

> <PUBCHEM_IUPAC_INCHI>
InChI=1S/C30H51N7O7/c1-19(2)13-11-9-7-5-3-4-6-8-10-12-14-21(40)31-15-22(41)36-23-25(42)26(43)30(44-27(23)20(39)16-38)37-29-24-28(33-17-32-24)34-18-35-29/h17-20,23,25-27,30,38-39,42-43H,3-16H2,1-2H3,(H,31,40)(H,36,41)(H2,32,33,34,35,37)

> <PUBCHEM_IUPAC_INCHIKEY>
YBZRLMLGUBIIDN-UHFFFAOYSA-N

> <PUBCHEM_XLOGP3_AA>
4.1

> <PUBCHEM_EXACT_MASS>
621.384997

> <PUBCHEM_MOLECULAR_FORMULA>
C30H51N7O7

> <PUBCHEM_MOLECULAR_WEIGHT>
621.76864

> <PUBCHEM_OPENEYE_CAN_SMILES>
CC(C)CCCCCCCCCCCCC(=O)NCC(=O)NC1C(C(C(OC1C(CO)O)NC2=NC=NC3=C2NC=N3)O)O

> <PUBCHEM_OPENEYE_ISO_SMILES>
CC(C)CCCCCCCCCCCCC(=O)NCC(=O)NC1C(C(C(OC1C(CO)O)NC2=NC=NC3=C2NC=N3)O)O

> <PUBCHEM_CACTVS_TPSA>
215

> <PUBCHEM_MONOISOTOPIC_WEIGHT>
621.384997

> <PUBCHEM_TOTAL_CHARGE>
0

> <PUBCHEM_HEAVY_ATOM_COUNT>
44

> <PUBCHEM_ATOM_DEF_STEREO_COUNT>
0

> <PUBCHEM_ATOM_UDEF_STEREO_COUNT>
6

> <PUBCHEM_BOND_DEF_STEREO_COUNT>
0

> <PUBCHEM_BOND_UDEF_STEREO_COUNT>
0

> <PUBCHEM_ISOTOPIC_ATOM_COUNT>
0

> <PUBCHEM_COMPONENT_COUNT>
1

> <PUBCHEM_CACTVS_TAUTO_COUNT>
32

> <PUBCHEM_COORDINATE_TYPE>
1
5
255

> <PUBCHEM_BONDANNOTATIONS>
11  23  8
11  41  8
12  25  8
12  44  8
13  37  8
13  41  8
14  37  8
14  44  8
15  45  3
16  46  3
17  47  3
18  48  3
19  49  3
20  50  3
23  25  8
25  37  8

$$$$

