2162
  -OEChem-07051212522D

 53 54  0     1  0  0  0  0  0999 V2000
    8.1810    2.9836    0.0000 Cl  0  0  0  0  0  0  0  0  0  0  0  0
    4.5981   -1.6900    0.0000 O   0  0  0  0  0  0  0  0  0  0  0  0
    3.7320    0.8100    0.0000 O   0  0  0  0  0  0  0  0  0  0  0  0
    8.9282    0.8100    0.0000 O   0  0  0  0  0  0  0  0  0  0  0  0
    4.5981    2.3100    0.0000 O   0  0  0  0  0  0  0  0  0  0  0  0
    8.7050    2.0760    0.0000 O   0  0  0  0  0  0  0  0  0  0  0  0
    6.3301   -0.6900    0.0000 N   0  0  0  0  0  0  0  0  0  0  0  0
    2.8660   -3.6900    0.0000 N   0  0  0  0  0  0  0  0  0  0  0  0
    6.3301    1.3100    0.0000 C   0  0  3  0  0  0  0  0  0  0  0  0
    5.4641    0.8100    0.0000 C   0  0  0  0  0  0  0  0  0  0  0  0
    7.1962    0.8100    0.0000 C   0  0  0  0  0  0  0  0  0  0  0  0
    5.4641   -0.1900    0.0000 C   0  0  0  0  0  0  0  0  0  0  0  0
    7.1962   -0.1900    0.0000 C   0  0  0  0  0  0  0  0  0  0  0  0
    6.3301    2.3100    0.0000 C   0  0  0  0  0  0  0  0  0  0  0  0
    4.5981   -0.6900    0.0000 C   0  0  0  0  0  0  0  0  0  0  0  0
    4.5981    1.3100    0.0000 C   0  0  0  0  0  0  0  0  0  0  0  0
    8.0622   -0.6900    0.0000 C   0  0  0  0  0  0  0  0  0  0  0  0
    8.0622    1.3100    0.0000 C   0  0  0  0  0  0  0  0  0  0  0  0
    7.1962    2.8100    0.0000 C   0  0  0  0  0  0  0  0  0  0  0  0
    5.4641    2.8100    0.0000 C   0  0  0  0  0  0  0  0  0  0  0  0
    7.1962    3.8100    0.0000 C   0  0  0  0  0  0  0  0  0  0  0  0
    5.4641    3.8100    0.0000 C   0  0  0  0  0  0  0  0  0  0  0  0
    6.3301    4.3100    0.0000 C   0  0  0  0  0  0  0  0  0  0  0  0
    3.7320   -2.1900    0.0000 C   0  0  0  0  0  0  0  0  0  0  0  0
    2.8660    1.3100    0.0000 C   0  0  0  0  0  0  0  0  0  0  0  0
    3.7320   -3.1900    0.0000 C   0  0  0  0  0  0  0  0  0  0  0  0
    9.7942    1.3100    0.0000 C   0  0  0  0  0  0  0  0  0  0  0  0
    2.0000    0.8100    0.0000 C   0  0  0  0  0  0  0  0  0  0  0  0
    6.8671    1.6200    0.0000 H   0  0  0  0  0  0  0  0  0  0  0  0
    6.3301   -1.3100    0.0000 H   0  0  0  0  0  0  0  0  0  0  0  0
    4.3860   -0.1074    0.0000 H   0  0  0  0  0  0  0  0  0  0  0  0
    3.9875   -0.7977    0.0000 H   0  0  0  0  0  0  0  0  0  0  0  0
    7.7522   -1.2269    0.0000 H   0  0  0  0  0  0  0  0  0  0  0  0
    8.5991   -1.0000    0.0000 H   0  0  0  0  0  0  0  0  0  0  0  0
    8.3722   -0.1531    0.0000 H   0  0  0  0  0  0  0  0  0  0  0  0
    4.9272    2.5000    0.0000 H   0  0  0  0  0  0  0  0  0  0  0  0
    7.7331    4.1200    0.0000 H   0  0  0  0  0  0  0  0  0  0  0  0
    4.9272    4.1200    0.0000 H   0  0  0  0  0  0  0  0  0  0  0  0
    6.3301    4.9300    0.0000 H   0  0  0  0  0  0  0  0  0  0  0  0
    3.5200   -1.6074    0.0000 H   0  0  0  0  0  0  0  0  0  0  0  0
    3.1215   -2.2977    0.0000 H   0  0  0  0  0  0  0  0  0  0  0  0
    3.2646    1.7850    0.0000 H   0  0  0  0  0  0  0  0  0  0  0  0
    2.4675    1.7850    0.0000 H   0  0  0  0  0  0  0  0  0  0  0  0
    3.9441   -3.7726    0.0000 H   0  0  0  0  0  0  0  0  0  0  0  0
    4.3426   -3.0823    0.0000 H   0  0  0  0  0  0  0  0  0  0  0  0
   10.1042    0.7731    0.0000 H   0  0  0  0  0  0  0  0  0  0  0  0
   10.3312    1.6200    0.0000 H   0  0  0  0  0  0  0  0  0  0  0  0
    9.4842    1.8469    0.0000 H   0  0  0  0  0  0  0  0  0  0  0  0
    1.6900    1.3469    0.0000 H   0  0  0  0  0  0  0  0  0  0  0  0
    1.4631    0.5000    0.0000 H   0  0  0  0  0  0  0  0  0  0  0  0
    2.3100    0.2731    0.0000 H   0  0  0  0  0  0  0  0  0  0  0  0
    2.8660   -4.3100    0.0000 H   0  0  0  0  0  0  0  0  0  0  0  0
    2.3291   -3.3800    0.0000 H   0  0  0  0  0  0  0  0  0  0  0  0
  1 19  1  0  0  0  0
  2 15  1  0  0  0  0
  2 24  1  0  0  0  0
  3 16  1  0  0  0  0
  3 25  1  0  0  0  0
  4 18  1  0  0  0  0
  4 27  1  0  0  0  0
  5 16  2  0  0  0  0
  6 18  2  0  0  0  0
  7 12  1  0  0  0  0
  7 13  1  0  0  0  0
  7 30  1  0  0  0  0
  8 26  1  0  0  0  0
  8 52  1  0  0  0  0
  8 53  1  0  0  0  0
  9 10  1  0  0  0  0
  9 11  1  0  0  0  0
  9 14  1  0  0  0  0
  9 29  1  0  0  0  0
 10 12  2  0  0  0  0
 10 16  1  0  0  0  0
 11 13  2  0  0  0  0
 11 18  1  0  0  0  0
 12 15  1  0  0  0  0
 13 17  1  0  0  0  0
 14 19  1  0  0  0  0
 14 20  2  0  0  0  0
 15 31  1  0  0  0  0
 15 32  1  0  0  0  0
 17 33  1  0  0  0  0
 17 34  1  0  0  0  0
 17 35  1  0  0  0  0
 19 21  2  0  0  0  0
 20 22  1  0  0  0  0
 20 36  1  0  0  0  0
 21 23  1  0  0  0  0
 21 37  1  0  0  0  0
 22 23  2  0  0  0  0
 22 38  1  0  0  0  0
 23 39  1  0  0  0  0
 24 26  1  0  0  0  0
 24 40  1  0  0  0  0
 24 41  1  0  0  0  0
 25 28  1  0  0  0  0
 25 42  1  0  0  0  0
 25 43  1  0  0  0  0
 26 44  1  0  0  0  0
 26 45  1  0  0  0  0
 27 46  1  0  0  0  0
 27 47  1  0  0  0  0
 27 48  1  0  0  0  0
 28 49  1  0  0  0  0
 28 50  1  0  0  0  0
 28 51  1  0  0  0  0
M  END
> <PUBCHEM_COMPOUND_CID>
2162

> <PUBCHEM_COMPOUND_CANONICALIZED>
1

> <PUBCHEM_CACTVS_COMPLEXITY>
647

> <PUBCHEM_CACTVS_HBOND_ACCEPTOR>
7

> <PUBCHEM_CACTVS_HBOND_DONOR>
2

> <PUBCHEM_CACTVS_ROTATABLE_BOND>
10

> <PUBCHEM_CACTVS_SUBSKEYS>
AAADceB7OAAEAAAAAAAAAAAAAAAAAAAAAAAwQAAAAAAAAAABAAAAHgIQAAAADQrhmCYyCILABACIAiTSSAACAAAgBQAIiIEAAsgKJDKBMxCDMAAkkACYqUeI7uiOgAAAAAABAAAAAAAAAAIAAAAAAAAAAA==

> <PUBCHEM_IUPAC_OPENEYE_NAME>
O3-ethyl O5-methyl 2-(2-aminoethoxymethyl)-4-(2-chlorophenyl)-6-methyl-1,4-dihydropyridine-3,5-dicarboxylate

> <PUBCHEM_IUPAC_CAS_NAME>
2-(2-aminoethoxymethyl)-4-(2-chlorophenyl)-6-methyl-1,4-dihydropyridine-3,5-dicarboxylic acid O3-ethyl ester O5-methyl ester

> <PUBCHEM_IUPAC_NAME>
3-O-ethyl 5-O-methyl 2-(2-aminoethoxymethyl)-4-(2-chlorophenyl)-6-methyl-1,4-dihydropyridine-3,5-dicarboxylate

> <PUBCHEM_IUPAC_SYSTEMATIC_NAME>
O3-ethyl O5-methyl 2-(2-azanylethoxymethyl)-4-(2-chlorophenyl)-6-methyl-1,4-dihydropyridine-3,5-dicarboxylate

> <PUBCHEM_IUPAC_TRADITIONAL_NAME>
2-(2-aminoethoxymethyl)-4-(2-chlorophenyl)-6-methyl-1,4-dihydropyridine-3,5-dicarboxylic acid O3-ethyl ester O5-methyl ester

> <PUBCHEM_IUPAC_INCHI>
InChI=1S/C20H25ClN2O5/c1-4-28-20(25)18-15(11-27-10-9-22)23-12(2)16(19(24)26-3)17(18)13-7-5-6-8-14(13)21/h5-8,17,23H,4,9-11,22H2,1-3H3

> <PUBCHEM_IUPAC_INCHIKEY>
HTIQEAQVCYTUBX-UHFFFAOYSA-N

> <PUBCHEM_XLOGP3>
3

> <PUBCHEM_EXACT_MASS>
408.1452

> <PUBCHEM_MOLECULAR_FORMULA>
C20H25ClN2O5

> <PUBCHEM_MOLECULAR_WEIGHT>
408.8759

> <PUBCHEM_OPENEYE_CAN_SMILES>
CCOC(=O)C1=C(NC(=C(C1C2=CC=CC=C2Cl)C(=O)OC)C)COCCN

> <PUBCHEM_OPENEYE_ISO_SMILES>
CCOC(=O)C1=C(NC(=C(C1C2=CC=CC=C2Cl)C(=O)OC)C)COCCN

> <PUBCHEM_CACTVS_TPSA>
99.9

> <PUBCHEM_MONOISOTOPIC_WEIGHT>
408.1452

> <PUBCHEM_TOTAL_CHARGE>
0

> <PUBCHEM_HEAVY_ATOM_COUNT>
28

> <PUBCHEM_ATOM_DEF_STEREO_COUNT>
0

> <PUBCHEM_ATOM_UDEF_STEREO_COUNT>
1

> <PUBCHEM_BOND_DEF_STEREO_COUNT>
0

> <PUBCHEM_BOND_UDEF_STEREO_COUNT>
0

> <PUBCHEM_ISOTOPIC_ATOM_COUNT>
0

> <PUBCHEM_COMPONENT_COUNT>
1

> <PUBCHEM_CACTVS_TAUTO_COUNT>
5

> <PUBCHEM_COORDINATE_TYPE>
1
5
255

> <PUBCHEM_BONDANNOTATIONS>
14  19  8
14  20  8
19  21  8
20  22  8
21  23  8
22  23  8
9  14  3

$$$$

