439531
  -OEChem-07051212462D

 87 90  0     1  0  0  0  0  0999 V2000
   12.0632   -2.0000    0.0000 O   0  0  0  0  0  0  0  0  0  0  0  0
   11.0632   -1.0000    0.0000 O   0  0  0  0  0  0  0  0  0  0  0  0
   10.3312   -2.0000    0.0000 O   0  0  0  0  0  0  0  0  0  0  0  0
    6.8671   -1.0000    0.0000 O   0  0  0  0  0  0  0  0  0  0  0  0
    7.7331   -2.5000    0.0000 O   0  0  0  0  0  0  0  0  0  0  0  0
   13.3233    0.2601    0.0000 O   0  0  0  0  0  0  0  0  0  0  0  0
   11.5632    1.5388    0.0000 O   0  0  0  0  0  0  0  0  0  0  0  0
   12.0632   -4.0000    0.0000 O   0  0  0  0  0  0  0  0  0  0  0  0
    8.5991   -4.0000    0.0000 O   0  0  0  0  0  0  0  0  0  0  0  0
   10.3312   -5.0000    0.0000 O   0  0  0  0  0  0  0  0  0  0  0  0
    5.1350    1.0000    0.0000 O   0  0  0  0  0  0  0  0  0  0  0  0
    4.2690    2.5000    0.0000 O   0  0  0  0  0  0  0  0  0  0  0  0
   13.7574   -0.6399    0.0000 O   0  0  0  0  0  0  0  0  0  0  0  0
    4.2690   -0.5000    0.0000 O   0  0  0  0  0  0  0  0  0  0  0  0
    4.2690   -2.5000    0.0000 O   0  0  0  0  0  0  0  0  0  0  0  0
    6.0010   -3.5000    0.0000 O   0  0  0  0  0  0  0  0  0  0  0  0
    9.5952    1.2382    0.0000 O   0  0  0  0  0  0  0  0  0  0  0  0
    6.8671    2.0000    0.0000 O   0  0  0  0  0  0  0  0  0  0  0  0
    6.8671    4.0000    0.0000 O   0  0  0  0  0  0  0  0  0  0  0  0
    5.1350    5.0000    0.0000 O   0  0  0  0  0  0  0  0  0  0  0  0
    2.5369    3.5000    0.0000 O   0  0  0  0  0  0  0  0  0  0  0  0
   12.0632   -1.0000    0.0000 C   0  0  2  0  0  0  0  0  0  0  0  0
   12.3722   -0.0489    0.0000 C   0  0  2  0  0  0  0  0  0  0  0  0
   11.5632    0.5388    0.0000 C   0  0  1  0  0  0  0  0  0  0  0  0
   11.1972   -2.5000    0.0000 C   0  0  1  0  0  0  0  0  0  0  0  0
   10.7542   -0.0489    0.0000 C   0  0  1  0  0  0  0  0  0  0  0  0
    9.4651   -2.5000    0.0000 C   0  0  1  0  0  0  0  0  0  0  0  0
   11.1972   -3.5000    0.0000 C   0  0  1  0  0  0  0  0  0  0  0  0
    9.4651   -3.5000    0.0000 C   0  0  2  0  0  0  0  0  0  0  0  0
   10.3312   -4.0000    0.0000 C   0  0  2  0  0  0  0  0  0  0  0  0
   13.0143   -1.3090    0.0000 C   0  0  0  0  0  0  0  0  0  0  0  0
    6.0010   -0.5000    0.0000 C   0  0  1  0  0  0  0  0  0  0  0  0
    6.8671   -2.0000    0.0000 C   0  0  2  0  0  0  0  0  0  0  0  0
    5.1350   -1.0000    0.0000 C   0  0  1  0  0  0  0  0  0  0  0  0
    8.5991   -2.0000    0.0000 C   0  0  0  0  0  0  0  0  0  0  0  0
    6.0010   -2.5000    0.0000 C   0  0  1  0  0  0  0  0  0  0  0  0
    5.1350   -2.0000    0.0000 C   0  0  1  0  0  0  0  0  0  0  0  0
    9.8031    0.2601    0.0000 C   0  0  0  0  0  0  0  0  0  0  0  0
    6.0010    0.5000    0.0000 C   0  0  0  0  0  0  0  0  0  0  0  0
    5.1350    2.0000    0.0000 C   0  0  1  0  0  0  0  0  0  0  0  0
    6.0010    2.5000    0.0000 C   0  0  1  0  0  0  0  0  0  0  0  0
    6.0010    3.5000    0.0000 C   0  0  2  0  0  0  0  0  0  0  0  0
    5.1350    4.0000    0.0000 C   0  0  2  0  0  0  0  0  0  0  0  0
    4.2690    3.5000    0.0000 C   0  0  1  0  0  0  0  0  0  0  0  0
    3.4030    4.0000    0.0000 C   0  0  0  0  0  0  0  0  0  0  0  0
   12.8106   -0.4874    0.0000 H   0  0  0  0  0  0  0  0  0  0  0  0
   12.1156    0.8203    0.0000 H   0  0  0  0  0  0  0  0  0  0  0  0
   11.1972   -1.8800    0.0000 H   0  0  0  0  0  0  0  0  0  0  0  0
   10.3158   -0.4874    0.0000 H   0  0  0  0  0  0  0  0  0  0  0  0
    9.4651   -1.8800    0.0000 H   0  0  0  0  0  0  0  0  0  0  0  0
   11.1972   -4.1200    0.0000 H   0  0  0  0  0  0  0  0  0  0  0  0
    9.4651   -4.1200    0.0000 H   0  0  0  0  0  0  0  0  0  0  0  0
   10.8681   -4.3100    0.0000 H   0  0  0  0  0  0  0  0  0  0  0  0
    6.5380   -0.1900    0.0000 H   0  0  0  0  0  0  0  0  0  0  0  0
   12.7232   -1.8564    0.0000 H   0  0  0  0  0  0  0  0  0  0  0  0
   13.5028   -1.6907    0.0000 H   0  0  0  0  0  0  0  0  0  0  0  0
    6.8671   -2.6200    0.0000 H   0  0  0  0  0  0  0  0  0  0  0  0
    5.1350   -0.3800    0.0000 H   0  0  0  0  0  0  0  0  0  0  0  0
    8.9976   -1.5250    0.0000 H   0  0  0  0  0  0  0  0  0  0  0  0
    8.2006   -1.5250    0.0000 H   0  0  0  0  0  0  0  0  0  0  0  0
    6.5380   -2.8100    0.0000 H   0  0  0  0  0  0  0  0  0  0  0  0
    5.1350   -2.6200    0.0000 H   0  0  0  0  0  0  0  0  0  0  0  0
    9.1835    0.2384    0.0000 H   0  0  0  0  0  0  0  0  0  0  0  0
    9.7169   -0.3539    0.0000 H   0  0  0  0  0  0  0  0  0  0  0  0
    6.6116    0.3923    0.0000 H   0  0  0  0  0  0  0  0  0  0  0  0
    6.2131    1.0826    0.0000 H   0  0  0  0  0  0  0  0  0  0  0  0
    5.6720    1.6900    0.0000 H   0  0  0  0  0  0  0  0  0  0  0  0
    6.5380    2.8100    0.0000 H   0  0  0  0  0  0  0  0  0  0  0  0
    6.5380    3.1900    0.0000 H   0  0  0  0  0  0  0  0  0  0  0  0
    5.6720    4.3100    0.0000 H   0  0  0  0  0  0  0  0  0  0  0  0
    3.7320    3.1900    0.0000 H   0  0  0  0  0  0  0  0  0  0  0  0
   13.4522    0.8665    0.0000 H   0  0  0  0  0  0  0  0  0  0  0  0
   12.1002    1.8488    0.0000 H   0  0  0  0  0  0  0  0  0  0  0  0
   12.0632   -4.6200    0.0000 H   0  0  0  0  0  0  0  0  0  0  0  0
    8.5991   -4.6200    0.0000 H   0  0  0  0  0  0  0  0  0  0  0  0
    9.7942   -5.3100    0.0000 H   0  0  0  0  0  0  0  0  0  0  0  0
   14.3471   -0.8315    0.0000 H   0  0  0  0  0  0  0  0  0  0  0  0
    3.7320   -0.8100    0.0000 H   0  0  0  0  0  0  0  0  0  0  0  0
    3.7320   -2.1900    0.0000 H   0  0  0  0  0  0  0  0  0  0  0  0
    5.4641   -3.8100    0.0000 H   0  0  0  0  0  0  0  0  0  0  0  0
    3.8015    4.4750    0.0000 H   0  0  0  0  0  0  0  0  0  0  0  0
    3.0044    4.4750    0.0000 H   0  0  0  0  0  0  0  0  0  0  0  0
    9.0056    1.4298    0.0000 H   0  0  0  0  0  0  0  0  0  0  0  0
    7.4040    2.3100    0.0000 H   0  0  0  0  0  0  0  0  0  0  0  0
    6.8671    4.6200    0.0000 H   0  0  0  0  0  0  0  0  0  0  0  0
    4.5981    5.3100    0.0000 H   0  0  0  0  0  0  0  0  0  0  0  0
    2.0000    3.8100    0.0000 H   0  0  0  0  0  0  0  0  0  0  0  0
 22  1  1  6  0  0  0
 25  1  1  6  0  0  0
  2 22  1  0  0  0  0
  2 26  1  0  0  0  0
  3 25  1  0  0  0  0
  3 27  1  0  0  0  0
  4 32  1  0  0  0  0
  4 33  1  0  0  0  0
 33  5  1  6  0  0  0
  5 35  1  0  0  0  0
 23  6  1  6  0  0  0
  6 72  1  0  0  0  0
 24  7  1  1  0  0  0
  7 73  1  0  0  0  0
 28  8  1  6  0  0  0
  8 74  1  0  0  0  0
 29  9  1  6  0  0  0
  9 75  1  0  0  0  0
 30 10  1  1  0  0  0
 10 76  1  0  0  0  0
 11 39  1  0  0  0  0
 40 11  1  1  0  0  0
 12 40  1  0  0  0  0
 12 44  1  0  0  0  0
 13 31  1  0  0  0  0
 13 77  1  0  0  0  0
 34 14  1  1  0  0  0
 14 78  1  0  0  0  0
 37 15  1  1  0  0  0
 15 79  1  0  0  0  0
 36 16  1  6  0  0  0
 16 80  1  0  0  0  0
 17 38  1  0  0  0  0
 17 83  1  0  0  0  0
 41 18  1  1  0  0  0
 18 84  1  0  0  0  0
 42 19  1  6  0  0  0
 19 85  1  0  0  0  0
 43 20  1  6  0  0  0
 20 86  1  0  0  0  0
 21 45  1  0  0  0  0
 21 87  1  0  0  0  0
 22 23  1  0  0  0  0
 22 31  1  0  0  0  0
 23 24  1  0  0  0  0
 23 46  1  0  0  0  0
 24 26  1  0  0  0  0
 24 47  1  0  0  0  0
 25 28  1  0  0  0  0
 25 48  1  0  0  0  0
 26 38  1  6  0  0  0
 26 49  1  0  0  0  0
 27 29  1  0  0  0  0
 27 35  1  1  0  0  0
 27 50  1  0  0  0  0
 28 30  1  0  0  0  0
 28 51  1  0  0  0  0
 29 30  1  0  0  0  0
 29 52  1  0  0  0  0
 30 53  1  0  0  0  0
 31 55  1  0  0  0  0
 31 56  1  0  0  0  0
 32 34  1  0  0  0  0
 32 39  1  1  0  0  0
 32 54  1  0  0  0  0
 33 36  1  0  0  0  0
 33 57  1  0  0  0  0
 34 37  1  0  0  0  0
 34 58  1  0  0  0  0
 35 59  1  0  0  0  0
 35 60  1  0  0  0  0
 36 37  1  0  0  0  0
 36 61  1  0  0  0  0
 37 62  1  0  0  0  0
 38 63  1  0  0  0  0
 38 64  1  0  0  0  0
 39 65  1  0  0  0  0
 39 66  1  0  0  0  0
 40 41  1  0  0  0  0
 40 67  1  0  0  0  0
 41 42  1  0  0  0  0
 41 68  1  0  0  0  0
 42 43  1  0  0  0  0
 42 69  1  0  0  0  0
 43 44  1  0  0  0  0
 43 70  1  0  0  0  0
 44 45  1  6  0  0  0
 44 71  1  0  0  0  0
 45 81  1  0  0  0  0
 45 82  1  0  0  0  0
M  END
> <PUBCHEM_COMPOUND_CID>
439531

> <PUBCHEM_COMPOUND_CANONICALIZED>
1

> <PUBCHEM_CACTVS_COMPLEXITY>
933

> <PUBCHEM_CACTVS_HBOND_ACCEPTOR>
21

> <PUBCHEM_CACTVS_HBOND_DONOR>
14

> <PUBCHEM_CACTVS_ROTATABLE_BOND>
11

> <PUBCHEM_CACTVS_SUBSKEYS>
AAADcfB4PgAAAAAAAAAAAAAAAAAAASAAAAAkSJAAAAAAAAAAAAAAGgAACAAACBSwgAMACAAABgAAAAAAAAAAAAAAAAAAAAAAAAAREAIAAAAiQAAFAAAHAAHAYAwAAAAAAAAAAAAAAAAAAAAAAAAAAAAAAA==

> <PUBCHEM_IUPAC_OPENEYE_NAME>
(2S,3R,4S,5R,6R)-2-[[(2R,3R,4S,5R,6S)-6-[[(2R,3S,4S,5R,6R)-6-[(2S,3S,4S,5R)-3,4-dihydroxy-2,5-bis(hydroxymethyl)tetrahydrofuran-2-yl]oxy-3,4,5-trihydroxy-tetrahydropyran-2-yl]methoxy]-3,4,5-trihydroxy-tetrahydropyran-2-yl]methoxy]-6-(hydroxymethyl)tetrahydropyran-3,4,5-triol

> <PUBCHEM_IUPAC_CAS_NAME>
(2S,3R,4S,5R,6R)-2-[[(2R,3R,4S,5R,6S)-6-[[(2R,3S,4S,5R,6R)-6-[[(2S,3S,4S,5R)-3,4-dihydroxy-2,5-bis(hydroxymethyl)-2-oxolanyl]oxy]-3,4,5-trihydroxy-2-oxanyl]methoxy]-3,4,5-trihydroxy-2-oxanyl]methoxy]-6-(hydroxymethyl)oxane-3,4,5-triol

> <PUBCHEM_IUPAC_NAME>
(2S,3R,4S,5R,6R)-2-[[(2R,3R,4S,5R,6S)-6-[[(2R,3S,4S,5R,6R)-6-[(2S,3S,4S,5R)-3,4-dihydroxy-2,5-bis(hydroxymethyl)oxolan-2-yl]oxy-3,4,5-trihydroxyoxan-2-yl]methoxy]-3,4,5-trihydroxyoxan-2-yl]methoxy]-6-(hydroxymethyl)oxane-3,4,5-triol

> <PUBCHEM_IUPAC_SYSTEMATIC_NAME>
(2S,3R,4S,5R,6R)-2-[[(2R,3R,4S,5R,6S)-6-[[(2R,3S,4S,5R,6R)-6-[(2S,3S,4S,5R)-2,5-bis(hydroxymethyl)-3,4-bis(oxidanyl)oxolan-2-yl]oxy-3,4,5-tris(oxidanyl)oxan-2-yl]methoxy]-3,4,5-tris(oxidanyl)oxan-2-yl]methoxy]-6-(hydroxymethyl)oxane-3,4,5-triol

> <PUBCHEM_IUPAC_TRADITIONAL_NAME>
(2S,3R,4S,5R,6R)-2-[[(2R,3R,4S,5R,6S)-6-[[(2R,3S,4S,5R,6R)-6-[(2S,3S,4S,5R)-3,4-dihydroxy-2,5-dimethylol-tetrahydrofuran-2-yl]oxy-3,4,5-trihydroxy-tetrahydropyran-2-yl]methoxy]-3,4,5-trihydroxy-tetrahydropyran-2-yl]methoxy]-6-methylol-tetrahydropyran-3,4,5-triol

> <PUBCHEM_IUPAC_INCHI>
InChI=1S/C24H42O21/c25-1-6-10(28)14(32)17(35)21(41-6)39-3-8-11(29)15(33)18(36)22(42-8)40-4-9-12(30)16(34)19(37)23(43-9)45-24(5-27)20(38)13(31)7(2-26)44-24/h6-23,25-38H,1-5H2/t6-,7-,8-,9-,10+,11+,12-,13-,14+,15+,16+,17-,18-,19-,20+,21+,22+,23-,24+/m1/s1

> <PUBCHEM_IUPAC_INCHIKEY>
UQZIYBXSHAGNOE-XNSRJBNMSA-N

> <PUBCHEM_XLOGP3>
-8

> <PUBCHEM_EXACT_MASS>
666.221858

> <PUBCHEM_MOLECULAR_FORMULA>
C24H42O21

> <PUBCHEM_MOLECULAR_WEIGHT>
666.57768

> <PUBCHEM_OPENEYE_CAN_SMILES>
C(C1C(C(C(C(O1)OCC2C(C(C(C(O2)OCC3C(C(C(C(O3)OC4(C(C(C(O4)CO)O)O)CO)O)O)O)O)O)O)O)O)O)O

> <PUBCHEM_OPENEYE_ISO_SMILES>
C([C@@H]1[C@@H]([C@@H]([C@H]([C@H](O1)OC[C@@H]2[C@@H]([C@@H]([C@H]([C@H](O2)OC[C@@H]3[C@H]([C@@H]([C@H]([C@H](O3)O[C@]4([C@H]([C@@H]([C@H](O4)CO)O)O)CO)O)O)O)O)O)O)O)O)O)O

> <PUBCHEM_CACTVS_TPSA>
348

> <PUBCHEM_MONOISOTOPIC_WEIGHT>
666.221858

> <PUBCHEM_TOTAL_CHARGE>
0

> <PUBCHEM_HEAVY_ATOM_COUNT>
45

> <PUBCHEM_ATOM_DEF_STEREO_COUNT>
19

> <PUBCHEM_ATOM_UDEF_STEREO_COUNT>
0

> <PUBCHEM_BOND_DEF_STEREO_COUNT>
0

> <PUBCHEM_BOND_UDEF_STEREO_COUNT>
0

> <PUBCHEM_ISOTOPIC_ATOM_COUNT>
0

> <PUBCHEM_COMPONENT_COUNT>
1

> <PUBCHEM_CACTVS_TAUTO_COUNT>
1

> <PUBCHEM_COORDINATE_TYPE>
1
5
255

> <PUBCHEM_BONDANNOTATIONS>
22  1  6
25  1  6
30  10  5
40  11  5
34  14  5
37  15  5
36  16  6
41  18  5
42  19  6
43  20  6
26  38  6
27  35  5
32  39  5
44  45  6
33  5  6
23  6  6
24  7  5
28  8  6
29  9  6

$$$$

