5362449
  -OEChem-07051212523D

 45 48  0     1  0  0  0  0  0999 V2000
    4.1598   -0.4927    0.2486 O   0  0  0  0  0  0  0  0  0  0  0  0
   -2.7479   -1.2111    0.6898 N   0  0  2  0  0  0  0  0  0  0  0  0
   -0.6086    0.7922    0.6905 C   0  0  2  0  0  0  0  0  0  0  0  0
   -1.8516    0.8680   -0.2407 C   0  0  2  0  0  0  0  0  0  0  0  0
   -2.3114   -0.5660   -0.5687 C   0  0  1  0  0  0  0  0  0  0  0  0
   -1.0499    0.0609    1.9881 C   0  0  0  0  0  0  0  0  0  0  0  0
   -0.1936    2.2469    1.0444 C   0  0  0  0  0  0  0  0  0  0  0  0
   -1.6071    1.7363   -1.4911 C   0  0  0  0  0  0  0  0  0  0  0  0
    0.5119   -0.0439    0.0452 C   0  0  0  0  0  0  0  0  0  0  0  0
   -1.2159   -1.3110   -1.3594 C   0  0  0  0  0  0  0  0  0  0  0  0
   -1.7072   -1.3008    1.7171 C   0  0  0  0  0  0  0  0  0  0  0  0
    0.0622    3.1130   -0.1901 C   0  0  0  0  0  0  0  0  0  0  0  0
   -1.1535    3.1428   -1.1102 C   0  0  0  0  0  0  0  0  0  0  0  0
    0.2009   -1.0433   -0.9046 C   0  0  0  0  0  0  0  0  0  0  0  0
    1.8565    0.1083    0.4306 C   0  0  0  0  0  0  0  0  0  0  0  0
   -3.4053   -2.4978    0.4860 C   0  0  0  0  0  0  0  0  0  0  0  0
    1.2287   -1.8134   -1.4757 C   0  0  0  0  0  0  0  0  0  0  0  0
    2.8669   -0.6691   -0.1392 C   0  0  0  0  0  0  0  0  0  0  0  0
    2.5543   -1.6252   -1.0968 C   0  0  0  0  0  0  0  0  0  0  0  0
    4.4108    0.5060    1.2360 C   0  0  0  0  0  0  0  0  0  0  0  0
   -2.6682    1.3608    0.3113 H   0  0  0  0  0  0  0  0  0  0  0  0
   -3.1981   -0.4947   -1.2133 H   0  0  0  0  0  0  0  0  0  0  0  0
   -1.7732    0.6861    2.5299 H   0  0  0  0  0  0  0  0  0  0  0  0
   -0.1979   -0.0799    2.6657 H   0  0  0  0  0  0  0  0  0  0  0  0
    0.6774    2.2808    1.7065 H   0  0  0  0  0  0  0  0  0  0  0  0
   -1.0042    2.7185    1.6182 H   0  0  0  0  0  0  0  0  0  0  0  0
   -2.5311    1.8028   -2.0781 H   0  0  0  0  0  0  0  0  0  0  0  0
   -0.8517    1.2943   -2.1494 H   0  0  0  0  0  0  0  0  0  0  0  0
   -1.2829   -1.0011   -2.4112 H   0  0  0  0  0  0  0  0  0  0  0  0
   -1.4009   -2.3908   -1.3563 H   0  0  0  0  0  0  0  0  0  0  0  0
   -0.9460   -2.0427    1.4474 H   0  0  0  0  0  0  0  0  0  0  0  0
   -2.1517   -1.6482    2.6584 H   0  0  0  0  0  0  0  0  0  0  0  0
    0.9338    2.7413   -0.7408 H   0  0  0  0  0  0  0  0  0  0  0  0
    0.3020    4.1347    0.1260 H   0  0  0  0  0  0  0  0  0  0  0  0
   -1.9767    3.6676   -0.6097 H   0  0  0  0  0  0  0  0  0  0  0  0
   -0.9180    3.7131   -2.0158 H   0  0  0  0  0  0  0  0  0  0  0  0
    2.0721    0.8390    1.1990 H   0  0  0  0  0  0  0  0  0  0  0  0
   -3.8864   -2.8275    1.4139 H   0  0  0  0  0  0  0  0  0  0  0  0
   -2.7117   -3.2845    0.1724 H   0  0  0  0  0  0  0  0  0  0  0  0
   -4.2007   -2.4165   -0.2630 H   0  0  0  0  0  0  0  0  0  0  0  0
    0.9942   -2.5716   -2.2193 H   0  0  0  0  0  0  0  0  0  0  0  0
    3.3352   -2.2326   -1.5454 H   0  0  0  0  0  0  0  0  0  0  0  0
    3.9324    0.2590    2.1900 H   0  0  0  0  0  0  0  0  0  0  0  0
    4.1395    1.5053    0.8785 H   0  0  0  0  0  0  0  0  0  0  0  0
    5.4909    0.5160    1.4162 H   0  0  0  0  0  0  0  0  0  0  0  0
  1 18  1  0  0  0  0
  1 20  1  0  0  0  0
  2  5  1  0  0  0  0
  2 11  1  0  0  0  0
  2 16  1  0  0  0  0
  3  4  1  0  0  0  0
  3  6  1  0  0  0  0
  3  7  1  0  0  0  0
  3  9  1  0  0  0  0
  4  5  1  0  0  0  0
  4  8  1  0  0  0  0
  4 21  1  0  0  0  0
  5 10  1  0  0  0  0
  5 22  1  0  0  0  0
  6 11  1  0  0  0  0
  6 23  1  0  0  0  0
  6 24  1  0  0  0  0
  7 12  1  0  0  0  0
  7 25  1  0  0  0  0
  7 26  1  0  0  0  0
  8 13  1  0  0  0  0
  8 27  1  0  0  0  0
  8 28  1  0  0  0  0
  9 14  2  0  0  0  0
  9 15  1  0  0  0  0
 10 14  1  0  0  0  0
 10 29  1  0  0  0  0
 10 30  1  0  0  0  0
 11 31  1  0  0  0  0
 11 32  1  0  0  0  0
 12 13  1  0  0  0  0
 12 33  1  0  0  0  0
 12 34  1  0  0  0  0
 13 35  1  0  0  0  0
 13 36  1  0  0  0  0
 14 17  1  0  0  0  0
 15 18  2  0  0  0  0
 15 37  1  0  0  0  0
 16 38  1  0  0  0  0
 16 39  1  0  0  0  0
 16 40  1  0  0  0  0
 17 19  2  0  0  0  0
 17 41  1  0  0  0  0
 18 19  1  0  0  0  0
 19 42  1  0  0  0  0
 20 43  1  0  0  0  0
 20 44  1  0  0  0  0
 20 45  1  0  0  0  0
M  END
> <PUBCHEM_COMPOUND_CID>
5362449

> <PUBCHEM_CONFORMER_RMSD>
0.6

> <PUBCHEM_CONFORMER_DIVERSEORDER>
2
1

> <PUBCHEM_MMFF94_PARTIAL_CHARGES>
17
1 -0.36
10 0.14
11 0.27
14 -0.14
15 -0.15
16 0.27
17 -0.15
18 0.08
19 -0.15
2 -0.81
20 0.28
3 0.14
37 0.15
41 0.15
42 0.15
5 0.27
9 -0.14

> <PUBCHEM_EFFECTIVE_ROTOR_COUNT>
2.6

> <PUBCHEM_PHARMACOPHORE_FEATURES>
6
1 1 acceptor
1 2 cation
6 2 3 4 5 6 11 rings
6 3 4 5 9 10 14 rings
6 3 4 7 8 12 13 rings
6 9 14 15 17 18 19 rings

> <PUBCHEM_HEAVY_ATOM_COUNT>
20

> <PUBCHEM_ATOM_DEF_STEREO_COUNT>
3

> <PUBCHEM_ATOM_UDEF_STEREO_COUNT>
0

> <PUBCHEM_BOND_DEF_STEREO_COUNT>
0

> <PUBCHEM_BOND_UDEF_STEREO_COUNT>
0

> <PUBCHEM_ISOTOPIC_ATOM_COUNT>
0

> <PUBCHEM_COMPONENT_COUNT>
1

> <PUBCHEM_CACTVS_TAUTO_COUNT>
1

> <PUBCHEM_CONFORMER_ID>
0051D31100000002

> <PUBCHEM_MMFF94_ENERGY>
65.6249

> <PUBCHEM_FEATURE_SELFOVERLAP>
32.062

> <PUBCHEM_SHAPE_FINGERPRINT>
10863032 1 17914348023800512815
10948715 1 17767132273153866613
12035758 1 18412261749202946505
12403814 3 18261685791498498890
12423570 1 13680339516734488353
13024252 1 17203322355673691785
13083527 12 18048312250299560187
133893 2 17624385620856915625
13544592 271 18262817257772939796
13583140 156 18266760115613915602
13681431 1 17982988104024260789
141345 1 9701481440079078133
14142880 1 18040713718317896792
14181834 199 17902221222632605327
14223421 5 18335418036604426174
14289901 80 18059849593582479218
14614273 12 18114187479343023870
14817 1 13891763370599491289
14840074 17 17835812893880454728
14863182 85 16881010263215057271
15309172 13 17530962475724104254
16945 1 18129381664855402229
17357779 13 18189072952910496999
1813 80 18267005194541984887
19765921 60 17618241927611743525
19868273 325 18411129251471741973
21029758 27 18266178335916907966
21304253 335 17605247732270471025
21304303 282 17411383009496019765
21524375 3 17261305320202400877
21623110 236 17390529402071848600
2306618 200 17968106373066691074
23419403 2 18191042122449131049
23493267 7 18196947766810292226
23557571 272 18339072791590030076
23559900 14 18269282421026065202
25 1 16821635947782385644
2748010 2 18042401499021194350
5845 1 14312890282670692889
6049 1 18115575097662086222
6442390 28 17690544704516727929
81228 2 18126541621883536289
9981440 41 17827389827156683698

> <PUBCHEM_SHAPE_MULTIPOLES>
400.74
5.11
3.07
1.67
5.43
2.16
0.24
-2.46
1.27
-1.72
-0.8
-0.33
-0.14
1.32

> <PUBCHEM_SHAPE_SELFOVERLAP>
868.222

> <PUBCHEM_SHAPE_VOLUME>
216.7

> <PUBCHEM_COORDINATE_TYPE>
2
5
10

$$$$

