4573
  -OEChem-06261200133D

 27 27  0     1  0  0  0  0  0999 V2000
    0.5405   -0.6194    0.0548 O   0  0  0  0  0  0  0  0  0  0  0  0
    2.1939    1.6094   -1.0934 O   0  0  0  0  0  0  0  0  0  0  0  0
    3.6476    1.4857    0.6486 O   0  0  0  0  0  0  0  0  0  0  0  0
    4.1892   -1.1377   -0.1178 N   0  0  0  0  0  0  0  0  0  0  0  0
    2.8916   -0.5597   -0.4633 C   0  0  1  0  0  0  0  0  0  0  0  0
    1.8004   -1.1847    0.4014 C   0  0  0  0  0  0  0  0  0  0  0  0
   -0.5073   -1.1629    0.8445 C   0  0  0  0  0  0  0  0  0  0  0  0
   -1.7768   -0.5049    0.4014 C   0  0  0  0  0  0  0  0  0  0  0  0
   -2.1982    0.6707    1.0164 C   0  0  0  0  0  0  0  0  0  0  0  0
   -2.5292   -1.0726   -0.6231 C   0  0  0  0  0  0  0  0  0  0  0  0
    2.9800    0.9340   -0.2146 C   0  0  0  0  0  0  0  0  0  0  0  0
   -3.3812    1.2835    0.6037 C   0  0  0  0  0  0  0  0  0  0  0  0
   -3.7123   -0.4597   -1.0359 C   0  0  0  0  0  0  0  0  0  0  0  0
   -4.1382    0.7184   -0.4226 C   0  0  0  0  0  0  0  0  0  0  0  0
    2.6943   -0.7310   -1.5274 H   0  0  0  0  0  0  0  0  0  0  0  0
    1.7671   -2.2693    0.2398 H   0  0  0  0  0  0  0  0  0  0  0  0
    1.9949   -0.9943    1.4649 H   0  0  0  0  0  0  0  0  0  0  0  0
   -0.3240   -0.9688    1.9084 H   0  0  0  0  0  0  0  0  0  0  0  0
   -0.5668   -2.2492    0.7046 H   0  0  0  0  0  0  0  0  0  0  0  0
   -1.6155    1.1212    1.8153 H   0  0  0  0  0  0  0  0  0  0  0  0
   -2.2062   -1.9889   -1.1096 H   0  0  0  0  0  0  0  0  0  0  0  0
    4.4030   -0.9631    0.8634 H   0  0  0  0  0  0  0  0  0  0  0  0
    4.9255   -0.6897   -0.6617 H   0  0  0  0  0  0  0  0  0  0  0  0
   -3.7127    2.2012    1.0807 H   0  0  0  0  0  0  0  0  0  0  0  0
   -4.3015   -0.8994   -1.8354 H   0  0  0  0  0  0  0  0  0  0  0  0
   -5.0592    1.1958   -0.7443 H   0  0  0  0  0  0  0  0  0  0  0  0
    2.2323    2.5787   -0.9477 H   0  0  0  0  0  0  0  0  0  0  0  0
  1  6  1  0  0  0  0
  1  7  1  0  0  0  0
  2 11  1  0  0  0  0
  2 27  1  0  0  0  0
  3 11  2  0  0  0  0
  4  5  1  0  0  0  0
  4 22  1  0  0  0  0
  4 23  1  0  0  0  0
  5  6  1  0  0  0  0
  5 11  1  0  0  0  0
  5 15  1  0  0  0  0
  6 16  1  0  0  0  0
  6 17  1  0  0  0  0
  7  8  1  0  0  0  0
  7 18  1  0  0  0  0
  7 19  1  0  0  0  0
  8  9  2  0  0  0  0
  8 10  1  0  0  0  0
  9 12  1  0  0  0  0
  9 20  1  0  0  0  0
 10 13  2  0  0  0  0
 10 21  1  0  0  0  0
 12 14  2  0  0  0  0
 12 24  1  0  0  0  0
 13 14  1  0  0  0  0
 13 25  1  0  0  0  0
 14 26  1  0  0  0  0
M  END
> <PUBCHEM_COMPOUND_CID>
4573

> <PUBCHEM_CONFORMER_RMSD>
0.6

> <PUBCHEM_CONFORMER_DIVERSEORDER>
3
40
28
55
59
32
44
38
41
56
27
30
60
1
24
57
43
29
62
52
54
9
6
23
4
51
46
13
50
35
47
8
53
63
17
34
58
2
37
61
14
36
26
15
31
42
18
22
19
7
48
5
33
39
11
10
16
25
45
20
21
12
49

> <PUBCHEM_MMFF94_PARTIAL_CHARGES>
22
1 -0.56
10 -0.15
11 0.66
12 -0.15
13 -0.15
14 -0.15
2 -0.65
20 0.15
21 0.15
22 0.36
23 0.36
24 0.15
25 0.15
26 0.15
27 0.5
3 -0.57
4 -0.99
5 0.33
6 0.28
7 0.42
8 -0.14
9 -0.15

> <PUBCHEM_EFFECTIVE_ROTOR_COUNT>
5

> <PUBCHEM_PHARMACOPHORE_FEATURES>
7
1 1 acceptor
1 2 acceptor
1 3 acceptor
1 4 cation
1 4 donor
3 2 3 11 anion
6 8 9 10 12 13 14 rings

> <PUBCHEM_HEAVY_ATOM_COUNT>
14

> <PUBCHEM_ATOM_DEF_STEREO_COUNT>
0

> <PUBCHEM_ATOM_UDEF_STEREO_COUNT>
1

> <PUBCHEM_BOND_DEF_STEREO_COUNT>
0

> <PUBCHEM_BOND_UDEF_STEREO_COUNT>
0

> <PUBCHEM_ISOTOPIC_ATOM_COUNT>
0

> <PUBCHEM_COMPONENT_COUNT>
1

> <PUBCHEM_CACTVS_TAUTO_COUNT>
1

> <PUBCHEM_CONFORMER_ID>
000011DD00000003

> <PUBCHEM_MMFF94_ENERGY>
25.4185

> <PUBCHEM_FEATURE_SELFOVERLAP>
35.579

> <PUBCHEM_SHAPE_FINGERPRINT>
11543360 7 17749394732531024591
11615756 56 17418383484234614637
12162725 195 18334855026014722686
12251169 10 11312047760251673643
12932764 1 15985104076639689458
14123260 362 18341036446153039189
14252887 29 9007057976535215294
15239191 94 8502382121784311900
17802600 8 18411985801210809408
18186145 218 18201438098972734643
19107657 47 17632297903666162618
20281407 28 6483358824083647347
20300324 65 18040158400995678287
20432913 95 7781510434526089727
20645476 183 18334864952238616695
20671657 53 15285362829297826995
20871999 31 17749966457756876759
21119208 17 18260548960826177951
22079108 93 18060127757355429769
22169311 14 14333134048158185516
22485316 2 8214142941218623187
23402539 116 17967820495489941542
23402655 69 18334573568392038996
23559900 14 17603873351099390322
3082319 5 18186521007649539715
4028521 119 18341900722680573549
42 15 10735880590289815227
474 4 18201999893574587604
93112 12 18260827111498331414
94968 8 7276835697031152908
9882013 296 10231748985526297928
9971528 1 18336829792692049522

> <PUBCHEM_SHAPE_MULTIPOLES>
265.52
8.6
1.58
1.02
1.98
0.32
-0.03
1.68
-1.34
0.67
0.03
-0.4
0.07
-0.51

> <PUBCHEM_SHAPE_SELFOVERLAP>
539.496

> <PUBCHEM_SHAPE_VOLUME>
154.1

> <PUBCHEM_COORDINATE_TYPE>
2
5
10

$$$$

