91759
  -OEChem-07051213123D

 31 33  0     0  0  0  0  0  0999 V2000
    0.9740    1.9934   -0.0458 S   0  0  0  0  0  0  0  0  0  0  0  0
    1.0985   -1.2951    1.9512 F   0  0  0  0  0  0  0  0  0  0  0  0
    4.0090    0.9794   -1.0334 F   0  0  0  0  0  0  0  0  0  0  0  0
    0.7366    3.3003    0.5630 O   0  0  0  0  0  0  0  0  0  0  0  0
    1.4387    1.9220   -1.4300 O   0  0  0  0  0  0  0  0  0  0  0  0
   -2.3360    0.4127    0.7205 N   0  0  0  0  0  0  0  0  0  0  0  0
    2.0805    1.1273    0.9774 N   0  0  0  0  0  0  0  0  0  0  0  0
   -1.2260    1.0659    1.1390 N   0  0  0  0  0  0  0  0  0  0  0  0
   -1.1302    0.7057   -1.1098 N   0  0  0  0  0  0  0  0  0  0  0  0
   -3.2624   -0.4422   -1.3227 N   0  0  0  0  0  0  0  0  0  0  0  0
   -0.5443    1.2137    0.0061 C   0  0  0  0  0  0  0  0  0  0  0  0
   -2.2600    0.2006   -0.6568 C   0  0  0  0  0  0  0  0  0  0  0  0
    2.5467   -0.1376    0.4678 C   0  0  0  0  0  0  0  0  0  0  0  0
   -3.4264   -0.0182    1.4618 C   0  0  0  0  0  0  0  0  0  0  0  0
   -4.2789   -0.8426   -0.6142 C   0  0  0  0  0  0  0  0  0  0  0  0
   -4.4369   -0.6537    0.8606 C   0  0  0  0  0  0  0  0  0  0  0  0
    2.0271   -1.3167    0.9846 C   0  0  0  0  0  0  0  0  0  0  0  0
    3.5081   -0.1595   -0.5336 C   0  0  0  0  0  0  0  0  0  0  0  0
    2.4774   -2.5410    0.4906 C   0  0  0  0  0  0  0  0  0  0  0  0
    3.9583   -1.3837   -1.0277 C   0  0  0  0  0  0  0  0  0  0  0  0
   -5.3966   -1.5563   -1.3330 C   0  0  0  0  0  0  0  0  0  0  0  0
    3.4428   -2.5744   -0.5156 C   0  0  0  0  0  0  0  0  0  0  0  0
    1.7856    1.0762    1.9624 H   0  0  0  0  0  0  0  0  0  0  0  0
   -3.4152    0.1826    2.5261 H   0  0  0  0  0  0  0  0  0  0  0  0
   -5.3124   -1.0133    1.3822 H   0  0  0  0  0  0  0  0  0  0  0  0
    2.0758   -3.4679    0.8892 H   0  0  0  0  0  0  0  0  0  0  0  0
    4.7097   -1.4095   -1.8114 H   0  0  0  0  0  0  0  0  0  0  0  0
   -6.1938   -1.8517   -0.6462 H   0  0  0  0  0  0  0  0  0  0  0  0
   -4.9987   -2.4523   -1.8184 H   0  0  0  0  0  0  0  0  0  0  0  0
   -5.8152   -0.8936   -2.0961 H   0  0  0  0  0  0  0  0  0  0  0  0
    3.7932   -3.5276   -0.9005 H   0  0  0  0  0  0  0  0  0  0  0  0
  1  4  2  0  0  0  0
  1  5  2  0  0  0  0
  1  7  1  0  0  0  0
  1 11  1  0  0  0  0
  2 17  1  0  0  0  0
  3 18  1  0  0  0  0
  6  8  1  0  0  0  0
  6 12  1  0  0  0  0
  6 14  1  0  0  0  0
  7 13  1  0  0  0  0
  7 23  1  0  0  0  0
  8 11  2  0  0  0  0
  9 11  1  0  0  0  0
  9 12  2  0  0  0  0
 10 12  1  0  0  0  0
 10 15  2  0  0  0  0
 13 17  2  0  0  0  0
 13 18  1  0  0  0  0
 14 16  2  0  0  0  0
 14 24  1  0  0  0  0
 15 16  1  0  0  0  0
 15 21  1  0  0  0  0
 16 25  1  0  0  0  0
 17 19  1  0  0  0  0
 18 20  2  0  0  0  0
 19 22  2  0  0  0  0
 19 26  1  0  0  0  0
 20 22  1  0  0  0  0
 20 27  1  0  0  0  0
 21 28  1  0  0  0  0
 21 29  1  0  0  0  0
 21 30  1  0  0  0  0
 22 31  1  0  0  0  0
M  END
> <PUBCHEM_COMPOUND_CID>
91759

> <PUBCHEM_CONFORMER_RMSD>
0.6

> <PUBCHEM_CONFORMER_DIVERSEORDER>
1
11
43
39
46
37
16
29
32
40
7
45
27
35
28
24
44
38
49
18
30
10
47
34
31
42
52
15
3
13
6
14
8
36
53
33
2
19
51
48
4
5
41
26
50
12
25
23
9
21
22
17
20

> <PUBCHEM_MMFF94_PARTIAL_CHARGES>
28
1 1.5
10 -0.58
11 0.45
12 0.31
13 0.2
14 -0.18
15 0.37
16 -0.14
17 0.19
18 0.19
19 -0.15
2 -0.19
20 -0.15
21 0.06
22 -0.15
23 0.42
24 0.15
25 0.15
26 0.15
27 0.15
3 -0.19
31 0.15
4 -0.65
5 -0.65
6 0.6
7 -0.76
8 -0.71
9 -0.57

> <PUBCHEM_EFFECTIVE_ROTOR_COUNT>
3

> <PUBCHEM_PHARMACOPHORE_FEATURES>
8
1 10 acceptor
1 4 acceptor
1 5 acceptor
1 7 donor
4 6 9 10 12 cation
5 6 8 9 11 12 rings
6 13 17 18 19 20 22 rings
6 6 10 12 14 15 16 rings

> <PUBCHEM_HEAVY_ATOM_COUNT>
22

> <PUBCHEM_ATOM_DEF_STEREO_COUNT>
0

> <PUBCHEM_ATOM_UDEF_STEREO_COUNT>
0

> <PUBCHEM_BOND_DEF_STEREO_COUNT>
0

> <PUBCHEM_BOND_UDEF_STEREO_COUNT>
0

> <PUBCHEM_ISOTOPIC_ATOM_COUNT>
0

> <PUBCHEM_COMPONENT_COUNT>
1

> <PUBCHEM_CACTVS_TAUTO_COUNT>
1

> <PUBCHEM_CONFORMER_ID>
0001666F00000001

> <PUBCHEM_MMFF94_ENERGY>
49.4968

> <PUBCHEM_FEATURE_SELFOVERLAP>
40.755

> <PUBCHEM_SHAPE_FINGERPRINT>
10498660 4 15841828967024147639
11578080 2 17969804018841545832
12553582 1 18408886269204965858
12596599 1 17970059152704129922
12596602 18 17095241402019263610
12633257 1 14201410364886228567
12892183 10 16081376292655359786
13464513 79 18334860506878477606
13533116 47 18189617151543378279
13583140 156 13840268138844590701
13726171 33 14924768018049313810
14251764 30 17604699118675972902
14863182 85 18337394846968202574
15342816 4 18334570283011037934
15375462 189 18334008410830624344
15635459 17 18272660034293515059
17492 54 17917135114642852500
17818456 19 18041552667908797713
1813 80 18260259780662171373
19752476 56 12031788088857901934
20291156 8 18261955244724520138
20645477 70 18269848531779809541
20715895 44 10735064731789212055
21731228 192 7853274437416226868
21731516 1 18263086672502303016
2255824 54 18264770948091015020
23379529 103 17971463250944907398
23503958 8 17458623462427918107
235170 7 17060616715624532735
23559900 14 17845375453785900765
23596394 208 17704078391004700943
238 59 18059014977703257298
2838139 119 13757202127290169918
2871803 45 18131349734776588926
3323516 105 18060413599575408315
3472631 163 13110966427122521439
46194498 28 17560235817561916093
6786 2 16449571710322711080
7970288 3 18333733558588951071
94968 8 18411983567959586854
960060 61 18273219698765552463

> <PUBCHEM_SHAPE_MULTIPOLES>
405.41
9.34
2.66
1.48
7.48
0.6
-0.15
-6.15
2.38
-2.26
0.06
0.51
-0.18
-0.81

> <PUBCHEM_SHAPE_SELFOVERLAP>
872.778

> <PUBCHEM_SHAPE_VOLUME>
225.8

> <PUBCHEM_COORDINATE_TYPE>
2
5
10

$$$$

