5203
  -OEChem-06261200343D

 37 39  0     1  0  0  0  0  0999 V2000
   -3.2737    0.9428   -2.5354 Cl  0  0  0  0  0  0  0  0  0  0  0  0
   -5.5573   -0.0605   -0.4733 Cl  0  0  0  0  0  0  0  0  0  0  0  0
    2.7891    1.7867   -1.0201 N   0  0  0  0  0  0  0  0  0  0  0  0
    0.2340    0.1245    1.2081 C   0  0  2  0  0  0  0  0  0  0  0  0
    0.7147    1.5898    1.2172 C   0  0  0  0  0  0  0  0  0  0  0  0
    2.9402    0.9878    0.2005 C   0  0  1  0  0  0  0  0  0  0  0  0
    2.2282    1.6696    1.3759 C   0  0  0  0  0  0  0  0  0  0  0  0
    1.1481   -0.8229    0.4353 C   0  0  0  0  0  0  0  0  0  0  0  0
    2.4232   -0.4199   -0.0136 C   0  0  0  0  0  0  0  0  0  0  0  0
   -1.2243    0.0843    0.7684 C   0  0  0  0  0  0  0  0  0  0  0  0
    0.7539   -2.1603    0.2359 C   0  0  0  0  0  0  0  0  0  0  0  0
    3.2419   -1.3421   -0.6913 C   0  0  0  0  0  0  0  0  0  0  0  0
   -1.5672    0.4786   -0.5205 C   0  0  0  0  0  0  0  0  0  0  0  0
   -2.2012   -0.3470    1.6597 C   0  0  0  0  0  0  0  0  0  0  0  0
    1.5787   -3.0636   -0.4347 C   0  0  0  0  0  0  0  0  0  0  0  0
    2.8205   -2.6530   -0.9032 C   0  0  0  0  0  0  0  0  0  0  0  0
    3.2764    3.1391   -0.8089 C   0  0  0  0  0  0  0  0  0  0  0  0
   -2.9022    0.4410   -0.9231 C   0  0  0  0  0  0  0  0  0  0  0  0
   -3.5363   -0.3844    1.2572 C   0  0  0  0  0  0  0  0  0  0  0  0
   -3.8868    0.0095   -0.0342 C   0  0  0  0  0  0  0  0  0  0  0  0
    0.2928   -0.2229    2.2509 H   0  0  0  0  0  0  0  0  0  0  0  0
    0.2300    2.1240    2.0449 H   0  0  0  0  0  0  0  0  0  0  0  0
    0.4234    2.1260    0.3061 H   0  0  0  0  0  0  0  0  0  0  0  0
    4.0064    0.9186    0.4584 H   0  0  0  0  0  0  0  0  0  0  0  0
    2.5455    2.7027    1.5455 H   0  0  0  0  0  0  0  0  0  0  0  0
    2.5036    1.1442    2.3022 H   0  0  0  0  0  0  0  0  0  0  0  0
    3.3339    1.3541   -1.7666 H   0  0  0  0  0  0  0  0  0  0  0  0
   -0.2045   -2.5157    0.6067 H   0  0  0  0  0  0  0  0  0  0  0  0
    4.2219   -1.0399   -1.0536 H   0  0  0  0  0  0  0  0  0  0  0  0
   -0.7996    0.8069   -1.2175 H   0  0  0  0  0  0  0  0  0  0  0  0
   -1.9428   -0.6573    2.6683 H   0  0  0  0  0  0  0  0  0  0  0  0
    1.2517   -4.0882   -0.5852 H   0  0  0  0  0  0  0  0  0  0  0  0
    3.4652   -3.3539   -1.4251 H   0  0  0  0  0  0  0  0  0  0  0  0
    2.5561    3.7628   -0.2716 H   0  0  0  0  0  0  0  0  0  0  0  0
    4.2495    3.1666   -0.3069 H   0  0  0  0  0  0  0  0  0  0  0  0
    3.4090    3.6183   -1.7855 H   0  0  0  0  0  0  0  0  0  0  0  0
   -4.2904   -0.7236    1.9629 H   0  0  0  0  0  0  0  0  0  0  0  0
  1 18  1  0  0  0  0
  2 20  1  0  0  0  0
  3  6  1  0  0  0  0
  3 17  1  0  0  0  0
  3 27  1  0  0  0  0
  4  5  1  0  0  0  0
  4  8  1  0  0  0  0
  4 10  1  0  0  0  0
  4 21  1  0  0  0  0
  5  7  1  0  0  0  0
  5 22  1  0  0  0  0
  5 23  1  0  0  0  0
  6  7  1  0  0  0  0
  6  9  1  0  0  0  0
  6 24  1  0  0  0  0
  7 25  1  0  0  0  0
  7 26  1  0  0  0  0
  8  9  1  0  0  0  0
  8 11  2  0  0  0  0
  9 12  2  0  0  0  0
 10 13  2  0  0  0  0
 10 14  1  0  0  0  0
 11 15  1  0  0  0  0
 11 28  1  0  0  0  0
 12 16  1  0  0  0  0
 12 29  1  0  0  0  0
 13 18  1  0  0  0  0
 13 30  1  0  0  0  0
 14 19  2  0  0  0  0
 14 31  1  0  0  0  0
 15 16  2  0  0  0  0
 15 32  1  0  0  0  0
 16 33  1  0  0  0  0
 17 34  1  0  0  0  0
 17 35  1  0  0  0  0
 17 36  1  0  0  0  0
 18 20  2  0  0  0  0
 19 20  1  0  0  0  0
 19 37  1  0  0  0  0
M  END
> <PUBCHEM_COMPOUND_CID>
5203

> <PUBCHEM_CONFORMER_RMSD>
0.6

> <PUBCHEM_CONFORMER_DIVERSEORDER>
1
18
12
10
31
38
51
48
17
43
50
26
30
34
33
15
37
42
24
45
35
44
25
46
40
22
16
47
23
41
13
27
32
14
28
39
49
11
9
36
3
21
7
2
4
6
29
8
5
19
20

> <PUBCHEM_MMFF94_PARTIAL_CHARGES>
26
1 -0.18
10 -0.14
11 -0.15
12 -0.15
13 -0.15
14 -0.15
15 -0.15
16 -0.15
17 0.27
18 0.18
19 -0.15
2 -0.18
20 0.18
27 0.36
28 0.15
29 0.15
3 -0.9
30 0.15
31 0.15
32 0.15
33 0.15
37 0.15
4 0.29
6 0.41
8 -0.14
9 -0.14

> <PUBCHEM_EFFECTIVE_ROTOR_COUNT>
2.8

> <PUBCHEM_PHARMACOPHORE_FEATURES>
5
1 3 cation
1 3 donor
6 10 13 14 18 19 20 rings
6 4 5 6 7 8 9 rings
6 8 9 11 12 15 16 rings

> <PUBCHEM_HEAVY_ATOM_COUNT>
20

> <PUBCHEM_ATOM_DEF_STEREO_COUNT>
0

> <PUBCHEM_ATOM_UDEF_STEREO_COUNT>
2

> <PUBCHEM_BOND_DEF_STEREO_COUNT>
0

> <PUBCHEM_BOND_UDEF_STEREO_COUNT>
0

> <PUBCHEM_ISOTOPIC_ATOM_COUNT>
0

> <PUBCHEM_COMPONENT_COUNT>
1

> <PUBCHEM_CACTVS_TAUTO_COUNT>
1

> <PUBCHEM_CONFORMER_ID>
0000145300000001

> <PUBCHEM_MMFF94_ENERGY>
52.2022

> <PUBCHEM_FEATURE_SELFOVERLAP>
25.392

> <PUBCHEM_SHAPE_FINGERPRINT>
10165383 225 17978203003529491856
10646746 165 16774086167169032549
11759241 127 18130514011708648967
12236239 1 17095242540227638955
12553582 1 17898004878676220494
12670546 177 18271528607053815423
12730499 353 18337665305100656659
13134695 92 18115316695112389904
13533116 47 18187362130556955795
13836976 161 18408325458366739086
13911987 19 18120922928703993008
14739800 52 15697426716746605068
14863182 85 17894636972024193262
14866123 147 8425599896343738293
15502722 9 18410007736821395612
15961568 22 17203040760375127093
16752209 62 15647053811427597185
16945 1 18334009523443484074
17134986 127 18195798571317730412
1813 80 17606385803677306702
18186145 218 18130229379883444105
19786989 88 18341330002782939688
20361792 2 17750805543362157827
20645477 70 18409171030058530715
20671657 53 18121777493866930726
20715895 44 12749588905735328911
21639500 275 18334016077220588882
22112679 90 16878219869837519451
2255824 54 18040436585795487778
23114952 82 18343577464711414996
23419403 2 17337251586757996194
23526113 38 17987229117677714851
23557571 272 17202183167396556963
23559900 14 17775005716974886771
23598288 3 17242727843059212481
23598291 2 17604692486955777905
238 59 18339657697078755967
2748010 2 18119232988106204346
3060560 45 18262239915405137160
312423 11 17967802895167578505
3323516 105 18410294726852956803
458136 41 18264749000839411034
46194498 28 18343301487387620399
5281201 14 18342741866250351837
6049 1 17988070197070539169
633830 44 17677879146086191440
7471813 234 17896044406625370850
77492 1 17095241436463216027
81228 2 17255400947441125338
8272917 22 18334849537431516905
9981440 41 15146903288802023600

> <PUBCHEM_SHAPE_MULTIPOLES>
410.35
8.12
2.82
1.69
8.8
0.46
-0.38
-0.96
-2.47
-4.7
-0.82
1.18
-0.54
0.85

> <PUBCHEM_SHAPE_SELFOVERLAP>
867.103

> <PUBCHEM_SHAPE_VOLUME>
229.9

> <PUBCHEM_COORDINATE_TYPE>
2
5
10

$$$$

