40086
  -OEChem-07051213113D

 36 40  0     1  0  0  0  0  0999 V2000
    1.1383   -2.6073    1.4139 O   0  0  0  0  0  0  0  0  0  0  0  0
    3.2894   -2.7014   -0.2435 O   0  0  0  0  0  0  0  0  0  0  0  0
    0.1092    0.0876   -0.0480 C   0  0  0  0  0  0  0  0  0  0  0  0
    0.9218   -2.3095    0.0307 C   0  0  1  0  0  0  0  0  0  0  0  0
   -0.1881   -1.2886   -0.0822 C   0  0  0  0  0  0  0  0  0  0  0  0
    2.2287   -1.8219   -0.6051 C   0  0  1  0  0  0  0  0  0  0  0  0
    1.4652    0.5226   -0.0564 C   0  0  0  0  0  0  0  0  0  0  0  0
    2.5417   -0.3817   -0.2468 C   0  0  0  0  0  0  0  0  0  0  0  0
   -0.9600    1.0225    0.0226 C   0  0  0  0  0  0  0  0  0  0  0  0
    1.7623    1.8950    0.0999 C   0  0  0  0  0  0  0  0  0  0  0  0
   -2.3235    0.5598   -0.0216 C   0  0  0  0  0  0  0  0  0  0  0  0
   -1.5135   -1.7327   -0.1073 C   0  0  0  0  0  0  0  0  0  0  0  0
   -2.5787   -0.8315   -0.0934 C   0  0  0  0  0  0  0  0  0  0  0  0
   -0.6096    2.3841    0.1503 C   0  0  0  0  0  0  0  0  0  0  0  0
    3.8667    0.0810   -0.2388 C   0  0  0  0  0  0  0  0  0  0  0  0
    0.7177    2.8101    0.2083 C   0  0  0  0  0  0  0  0  0  0  0  0
    3.0956    2.3315    0.1262 C   0  0  0  0  0  0  0  0  0  0  0  0
    4.1412    1.4283   -0.0345 C   0  0  0  0  0  0  0  0  0  0  0  0
   -3.4591    1.4101    0.0052 C   0  0  0  0  0  0  0  0  0  0  0  0
   -3.8966   -1.3194   -0.1338 C   0  0  0  0  0  0  0  0  0  0  0  0
   -4.7651    0.9140   -0.0380 C   0  0  0  0  0  0  0  0  0  0  0  0
   -4.9839   -0.4524   -0.1077 C   0  0  0  0  0  0  0  0  0  0  0  0
    0.6323   -3.2522   -0.4493 H   0  0  0  0  0  0  0  0  0  0  0  0
    2.1327   -1.8531   -1.6988 H   0  0  0  0  0  0  0  0  0  0  0  0
   -1.7096   -2.8042   -0.1239 H   0  0  0  0  0  0  0  0  0  0  0  0
   -1.3692    3.1580    0.2253 H   0  0  0  0  0  0  0  0  0  0  0  0
    4.6959   -0.6002   -0.4100 H   0  0  0  0  0  0  0  0  0  0  0  0
    0.9186    3.8737    0.3213 H   0  0  0  0  0  0  0  0  0  0  0  0
    3.3315    3.3857    0.2578 H   0  0  0  0  0  0  0  0  0  0  0  0
    5.1689    1.7791   -0.0266 H   0  0  0  0  0  0  0  0  0  0  0  0
    0.2734   -2.7434    1.8368 H   0  0  0  0  0  0  0  0  0  0  0  0
   -3.3517    2.4905    0.0566 H   0  0  0  0  0  0  0  0  0  0  0  0
    3.0381   -3.5963   -0.5290 H   0  0  0  0  0  0  0  0  0  0  0  0
   -4.0888   -2.3897   -0.1857 H   0  0  0  0  0  0  0  0  0  0  0  0
   -5.6064    1.6005   -0.0169 H   0  0  0  0  0  0  0  0  0  0  0  0
   -5.9959   -0.8441   -0.1404 H   0  0  0  0  0  0  0  0  0  0  0  0
  1  4  1  0  0  0  0
  1 31  1  0  0  0  0
  2  6  1  0  0  0  0
  2 33  1  0  0  0  0
  3  5  1  0  0  0  0
  3  7  1  0  0  0  0
  3  9  2  0  0  0  0
  4  5  1  0  0  0  0
  4  6  1  0  0  0  0
  4 23  1  0  0  0  0
  5 12  2  0  0  0  0
  6  8  1  0  0  0  0
  6 24  1  0  0  0  0
  7  8  1  0  0  0  0
  7 10  2  0  0  0  0
  8 15  2  0  0  0  0
  9 11  1  0  0  0  0
  9 14  1  0  0  0  0
 10 16  1  0  0  0  0
 10 17  1  0  0  0  0
 11 13  1  0  0  0  0
 11 19  2  0  0  0  0
 12 13  1  0  0  0  0
 12 25  1  0  0  0  0
 13 20  2  0  0  0  0
 14 16  2  0  0  0  0
 14 26  1  0  0  0  0
 15 18  1  0  0  0  0
 15 27  1  0  0  0  0
 16 28  1  0  0  0  0
 17 18  2  0  0  0  0
 17 29  1  0  0  0  0
 18 30  1  0  0  0  0
 19 21  1  0  0  0  0
 19 32  1  0  0  0  0
 20 22  1  0  0  0  0
 20 34  1  0  0  0  0
 21 22  2  0  0  0  0
 21 35  1  0  0  0  0
 22 36  1  0  0  0  0
M  END
> <PUBCHEM_COMPOUND_CID>
40086

> <PUBCHEM_CONFORMER_RMSD>
0.6

> <PUBCHEM_CONFORMER_DIVERSEORDER>
2
1

> <PUBCHEM_MMFF94_PARTIAL_CHARGES>
28
1 -0.68
12 -0.15
14 -0.15
15 -0.15
16 -0.15
17 -0.15
18 -0.15
19 -0.15
2 -0.68
20 -0.15
21 -0.15
22 -0.15
25 0.15
26 0.15
27 0.15
28 0.15
29 0.15
30 0.15
31 0.4
32 0.15
33 0.4
34 0.15
35 0.15
36 0.15
4 0.42
5 -0.14
6 0.42
8 -0.14

> <PUBCHEM_EFFECTIVE_ROTOR_COUNT>
0.4

> <PUBCHEM_PHARMACOPHORE_FEATURES>
9
1 1 acceptor
1 1 donor
1 2 acceptor
1 2 donor
6 11 13 19 20 21 22 rings
6 3 4 5 6 7 8 rings
6 3 5 9 11 12 13 rings
6 3 7 9 10 14 16 rings
6 7 8 10 15 17 18 rings

> <PUBCHEM_HEAVY_ATOM_COUNT>
22

> <PUBCHEM_ATOM_DEF_STEREO_COUNT>
2

> <PUBCHEM_ATOM_UDEF_STEREO_COUNT>
0

> <PUBCHEM_BOND_DEF_STEREO_COUNT>
0

> <PUBCHEM_BOND_UDEF_STEREO_COUNT>
0

> <PUBCHEM_ISOTOPIC_ATOM_COUNT>
0

> <PUBCHEM_COMPONENT_COUNT>
1

> <PUBCHEM_CACTVS_TAUTO_COUNT>
1

> <PUBCHEM_CONFORMER_ID>
00009C9600000002

> <PUBCHEM_MMFF94_ENERGY>
80.562

> <PUBCHEM_FEATURE_SELFOVERLAP>
45.824

> <PUBCHEM_SHAPE_FINGERPRINT>
10411042 1 18049440641082122030
10616163 171 18264487287176164103
10863032 1 18407758131709689837
10906281 52 18267849619809785232
10967382 1 18409729543189266524
1100329 8 18338520729557974080
11471102 20 18409451371058269853
11578080 2 17273430584140925197
12011746 2 18409441458716960004
12236239 1 17675920985329282505
12553582 1 18122910003918229091
12592029 89 18413108329462550843
12644460 14 18342736360059840219
12838862 33 18264789704197411336
13140716 1 18266186032625247416
138480 1 18337672043819902214
14223421 5 18339645658306634420
14787075 74 18338517426427514421
14790565 3 18194957440279984932
15196674 1 18409729577786258333
15442244 35 18263923405124960745
15536298 74 18334294283753612879
1601671 61 18409729547405307372
16945 1 18263924328458370966
17492 89 18408323259581731007
19591789 44 18410575076088975119
200 152 17895194364231612269
20645477 70 18408042931302415207
20691752 17 17917425471163544353
20739085 24 18122880252737961097
20905425 154 18263360446697675628
21197605 99 17906161855407130731
21267235 1 18336818745192093591
21421861 104 18057891435707126048
221490 88 18411973655212257347
2334 1 18194119620934986436
23366157 5 18202844374592534462
23402539 116 18261962842917513708
23559900 14 18335423533930229110
23566358 2 18337674242648187300
238 59 17909313222807956149
25 1 18339927008945389446
2748010 2 16680064411253827108
2871803 45 18410856568287974020
335352 9 18265894837826023853
33824 294 18410856542634149664
34934 24 18334581226170885487
350125 39 18411418458049072372
3680242 22 18341897441014083178
474 4 18201998776956885357
5104073 3 18411134762421237707
543358 83 18336542832503934329
6138700 20 18410571804189078414
6443956 14 18411416232644440756
7364860 26 18408041822799912902
7832392 63 18262241023253524583
9709674 26 18410851032370801271
9981440 41 17833558894594530216

> <PUBCHEM_SHAPE_MULTIPOLES>
441.01
8.02
3.18
0.71
5.42
0.32
0.08
-0.83
-0.57
-2.05
0.32
-0.11
0.2
0.05

> <PUBCHEM_SHAPE_SELFOVERLAP>
1025.9

> <PUBCHEM_SHAPE_VOLUME>
224.3

> <PUBCHEM_COORDINATE_TYPE>
2
5
10

$$$$

