167928
  -OEChem-07051212562D

123130  0     1  0  0  0  0  0999 V2000
    9.1533    4.2221    0.0000 O   0  0  0  0  0  0  0  0  0  0  0  0
    9.2667    6.6185    0.0000 O   0  0  0  0  0  0  0  0  0  0  0  0
    3.7436    0.3861    0.0000 O   0  0  0  0  0  0  0  0  0  0  0  0
    3.1304    2.8962    0.0000 O   0  0  0  0  0  0  0  0  0  0  0  0
    2.8718   -1.1106    0.0000 O   0  0  0  0  0  0  0  0  0  0  0  0
    5.4718   -0.6206    0.0000 O   0  0  0  0  0  0  0  0  0  0  0  0
    5.4641   -2.6206    0.0000 O   0  0  0  0  0  0  0  0  0  0  0  0
    3.7282   -3.6139    0.0000 O   0  0  0  0  0  0  0  0  0  0  0  0
    4.5923   -4.1172    0.0000 O   0  0  0  0  0  0  0  0  0  0  0  0
    7.1923   -3.6272    0.0000 O   0  0  0  0  0  0  0  0  0  0  0  0
    7.1846   -5.6272    0.0000 O   0  0  0  0  0  0  0  0  0  0  0  0
    5.4487   -6.6205    0.0000 O   0  0  0  0  0  0  0  0  0  0  0  0
    2.8564   -5.1105    0.0000 O   0  0  0  0  0  0  0  0  0  0  0  0
    8.4007    4.1185    0.0000 C   0  0  2  0  0  0  0  0  0  0  0  0
    9.2667    3.6185    0.0000 C   0  0  2  0  0  0  0  0  0  0  0  0
    7.4907    3.6116    0.0000 C   0  0  1  0  0  0  0  0  0  0  0  0
   10.1327    4.1185    0.0000 C   0  0  1  0  0  0  0  0  0  0  0  0
   10.1327    5.1185    0.0000 C   0  0  2  0  0  0  0  0  0  0  0  0
    7.4827    2.5700    0.0000 C   0  0  1  0  0  0  0  0  0  0  0  0
    6.5472    2.0203    0.0000 C   0  0  2  0  0  0  0  0  0  0  0  0
    8.4007    5.1185    0.0000 C   0  0  0  0  0  0  0  0  0  0  0  0
    9.2667    5.6185    0.0000 C   0  0  2  0  0  0  0  0  0  0  0  0
    5.6076    2.5628    0.0000 C   0  0  1  0  0  0  0  0  0  0  0  0
    6.5639    4.1757    0.0000 C   0  0  0  0  0  0  0  0  0  0  0  0
    9.5533    4.9149    0.0000 C   0  0  0  0  0  0  0  0  0  0  0  0
   11.0267    3.5838    0.0000 C   0  0  0  0  0  0  0  0  0  0  0  0
   11.0267    5.6531    0.0000 C   0  0  0  0  0  0  0  0  0  0  0  0
    9.2828    2.5770    0.0000 C   0  0  0  0  0  0  0  0  0  0  0  0
    5.6160    3.6478    0.0000 C   0  0  0  0  0  0  0  0  0  0  0  0
    7.7579    4.8845    0.0000 C   0  0  0  0  0  0  0  0  0  0  0  0
    8.3847    2.0492    0.0000 C   0  0  0  0  0  0  0  0  0  0  0  0
   11.9328    4.0976    0.0000 C   0  0  0  0  0  0  0  0  0  0  0  0
    4.6203    2.0129    0.0000 C   0  0  1  0  0  0  0  0  0  0  0  0
    7.1559    4.5539    0.0000 C   0  0  0  0  0  0  0  0  0  0  0  0
    6.5647    0.8903    0.0000 C   0  0  0  0  0  0  0  0  0  0  0  0
   11.9328    5.1393    0.0000 C   0  0  0  0  0  0  0  0  0  0  0  0
    7.4133    1.5203    0.0000 C   0  0  0  0  0  0  0  0  0  0  0  0
    4.6116    0.8827    0.0000 C   0  0  2  0  0  0  0  0  0  0  0  0
    5.5903    0.3177    0.0000 C   0  0  0  0  0  0  0  0  0  0  0  0
    3.6203    2.0244    0.0000 C   0  0  0  0  0  0  0  0  0  0  0  0
   12.9327    4.0938    0.0000 C   0  0  0  0  0  0  0  0  0  0  0  0
   12.4294    3.2297    0.0000 C   0  0  0  0  0  0  0  0  0  0  0  0
    4.1303    2.8846    0.0000 C   0  0  0  0  0  0  0  0  0  0  0  0
    3.7398   -0.6139    0.0000 C   0  0  2  0  0  0  0  0  0  0  0  0
    4.6038   -1.1172    0.0000 C   0  0  1  0  0  0  0  0  0  0  0  0
    4.6000   -2.1172    0.0000 C   0  0  2  0  0  0  0  0  0  0  0  0
    2.8680   -2.1106    0.0000 C   0  0  1  0  0  0  0  0  0  0  0  0
    3.7320   -2.6139    0.0000 C   0  0  2  0  0  0  0  0  0  0  0  0
    2.0000   -2.6072    0.0000 C   0  0  0  0  0  0  0  0  0  0  0  0
    5.4602   -3.6206    0.0000 C   0  0  2  0  0  0  0  0  0  0  0  0
    6.3243   -4.1239    0.0000 C   0  0  1  0  0  0  0  0  0  0  0  0
    6.3205   -5.1239    0.0000 C   0  0  2  0  0  0  0  0  0  0  0  0
    4.5884   -5.1172    0.0000 C   0  0  1  0  0  0  0  0  0  0  0  0
    5.4525   -5.6206    0.0000 C   0  0  1  0  0  0  0  0  0  0  0  0
    3.7205   -5.6139    0.0000 C   0  0  0  0  0  0  0  0  0  0  0  0
   10.1327    3.2685    0.0000 H   0  0  0  0  0  0  0  0  0  0  0  0
    7.4859    1.7200    0.0000 H   0  0  0  0  0  0  0  0  0  0  0  0
    8.1886    5.7011    0.0000 H   0  0  0  0  0  0  0  0  0  0  0  0
    7.7901    5.0108    0.0000 H   0  0  0  0  0  0  0  0  0  0  0  0
    8.7298    5.9285    0.0000 H   0  0  0  0  0  0  0  0  0  0  0  0
    4.8764    2.9963    0.0000 H   0  0  0  0  0  0  0  0  0  0  0  0
    6.9721    4.6424    0.0000 H   0  0  0  0  0  0  0  0  0  0  0  0
    6.1739    4.6577    0.0000 H   0  0  0  0  0  0  0  0  0  0  0  0
    9.5219    5.5341    0.0000 H   0  0  0  0  0  0  0  0  0  0  0  0
    8.9506    5.0601    0.0000 H   0  0  0  0  0  0  0  0  0  0  0  0
   10.6221    3.1140    0.0000 H   0  0  0  0  0  0  0  0  0  0  0  0
   11.4203    3.1048    0.0000 H   0  0  0  0  0  0  0  0  0  0  0  0
   11.4203    6.1322    0.0000 H   0  0  0  0  0  0  0  0  0  0  0  0
   10.6221    6.1229    0.0000 H   0  0  0  0  0  0  0  0  0  0  0  0
    9.8233    2.2732    0.0000 H   0  0  0  0  0  0  0  0  0  0  0  0
    5.4114    4.2330    0.0000 H   0  0  0  0  0  0  0  0  0  0  0  0
    5.0043    3.5464    0.0000 H   0  0  0  0  0  0  0  0  0  0  0  0
    8.2328    5.2830    0.0000 H   0  0  0  0  0  0  0  0  0  0  0  0
    7.3594    5.3595    0.0000 H   0  0  0  0  0  0  0  0  0  0  0  0
    7.2830    4.4860    0.0000 H   0  0  0  0  0  0  0  0  0  0  0  0
    8.3871    1.4292    0.0000 H   0  0  0  0  0  0  0  0  0  0  0  0
    7.7402    4.7615    0.0000 H   0  0  0  0  0  0  0  0  0  0  0  0
    6.9484    5.1382    0.0000 H   0  0  0  0  0  0  0  0  0  0  0  0
    6.5717    4.3464    0.0000 H   0  0  0  0  0  0  0  0  0  0  0  0
    6.7827    0.3099    0.0000 H   0  0  0  0  0  0  0  0  0  0  0  0
    7.1738    1.0058    0.0000 H   0  0  0  0  0  0  0  0  0  0  0  0
   12.5436    5.0332    0.0000 H   0  0  0  0  0  0  0  0  0  0  0  0
   12.1418    5.7230    0.0000 H   0  0  0  0  0  0  0  0  0  0  0  0
    7.1033    0.9834    0.0000 H   0  0  0  0  0  0  0  0  0  0  0  0
    7.9502    1.2103    0.0000 H   0  0  0  0  0  0  0  0  0  0  0  0
    7.7233    2.0572    0.0000 H   0  0  0  0  0  0  0  0  0  0  0  0
    4.0764    1.1958    0.0000 H   0  0  0  0  0  0  0  0  0  0  0  0
    5.1930   -0.1583    0.0000 H   0  0  0  0  0  0  0  0  0  0  0  0
    5.9913   -0.1552    0.0000 H   0  0  0  0  0  0  0  0  0  0  0  0
    8.7298    6.9285    0.0000 H   0  0  0  0  0  0  0  0  0  0  0  0
    3.0353    1.8191    0.0000 H   0  0  0  0  0  0  0  0  0  0  0  0
    3.7209    1.4126    0.0000 H   0  0  0  0  0  0  0  0  0  0  0  0
   12.9304    3.4738    0.0000 H   0  0  0  0  0  0  0  0  0  0  0  0
   13.5527    4.0914    0.0000 H   0  0  0  0  0  0  0  0  0  0  0  0
   12.9351    4.7138    0.0000 H   0  0  0  0  0  0  0  0  0  0  0  0
   11.8913    2.9218    0.0000 H   0  0  0  0  0  0  0  0  0  0  0  0
   12.7373    2.6916    0.0000 H   0  0  0  0  0  0  0  0  0  0  0  0
   12.9675    3.5376    0.0000 H   0  0  0  0  0  0  0  0  0  0  0  0
    4.6708    3.1884    0.0000 H   0  0  0  0  0  0  0  0  0  0  0  0
    3.8265    3.4251    0.0000 H   0  0  0  0  0  0  0  0  0  0  0  0
    3.5898    2.5808    0.0000 H   0  0  0  0  0  0  0  0  0  0  0  0
    2.5104    2.9034    0.0000 H   0  0  0  0  0  0  0  0  0  0  0  0
    4.2779   -0.3060    0.0000 H   0  0  0  0  0  0  0  0  0  0  0  0
    4.6062   -0.4972    0.0000 H   0  0  0  0  0  0  0  0  0  0  0  0
    4.5976   -2.7372    0.0000 H   0  0  0  0  0  0  0  0  0  0  0  0
    2.3322   -1.7985    0.0000 H   0  0  0  0  0  0  0  0  0  0  0  0
    4.2678   -2.9260    0.0000 H   0  0  0  0  0  0  0  0  0  0  0  0
    6.0075   -0.9327    0.0000 H   0  0  0  0  0  0  0  0  0  0  0  0
    1.6921   -2.0691    0.0000 H   0  0  0  0  0  0  0  0  0  0  0  0
    1.4619   -2.9152    0.0000 H   0  0  0  0  0  0  0  0  0  0  0  0
    2.3079   -3.1454    0.0000 H   0  0  0  0  0  0  0  0  0  0  0  0
    3.1901   -3.9218    0.0000 H   0  0  0  0  0  0  0  0  0  0  0  0
    4.9245   -3.3085    0.0000 H   0  0  0  0  0  0  0  0  0  0  0  0
    6.3267   -3.5039    0.0000 H   0  0  0  0  0  0  0  0  0  0  0  0
    6.3181   -5.7439    0.0000 H   0  0  0  0  0  0  0  0  0  0  0  0
    4.0527   -4.8052    0.0000 H   0  0  0  0  0  0  0  0  0  0  0  0
    4.9144   -5.9285    0.0000 H   0  0  0  0  0  0  0  0  0  0  0  0
    7.7280   -3.9393    0.0000 H   0  0  0  0  0  0  0  0  0  0  0  0
    3.3201   -6.0873    0.0000 H   0  0  0  0  0  0  0  0  0  0  0  0
    4.1172   -6.0904    0.0000 H   0  0  0  0  0  0  0  0  0  0  0  0
    7.1822   -6.2472    0.0000 H   0  0  0  0  0  0  0  0  0  0  0  0
    4.9105   -6.9285    0.0000 H   0  0  0  0  0  0  0  0  0  0  0  0
    2.3183   -5.4185    0.0000 H   0  0  0  0  0  0  0  0  0  0  0  0
  1 15  1  0  0  0  0
  1 25  1  0  0  0  0
 22  2  1  6  0  0  0
  2 90  1  0  0  0  0
 38  3  1  6  0  0  0
 44  3  1  1  0  0  0
  4 40  1  0  0  0  0
  4102  1  0  0  0  0
  5 44  1  0  0  0  0
  5 47  1  0  0  0  0
 45  6  1  6  0  0  0
  6108  1  0  0  0  0
 46  7  1  1  0  0  0
 50  7  1  1  0  0  0
 48  8  1  1  0  0  0
  8112  1  0  0  0  0
  9 50  1  0  0  0  0
  9 53  1  0  0  0  0
 51 10  1  6  0  0  0
 10118  1  0  0  0  0
 52 11  1  1  0  0  0
 11121  1  0  0  0  0
 54 12  1  6  0  0  0
 12122  1  0  0  0  0
 13 55  1  0  0  0  0
 13123  1  0  0  0  0
 14 15  1  0  0  0  0
 14 16  1  0  0  0  0
 14 21  1  0  0  0  0
 14 30  1  1  0  0  0
 15 17  1  0  0  0  0
 15 28  1  6  0  0  0
 16 19  1  0  0  0  0
 16 24  1  0  0  0  0
 16 34  1  6  0  0  0
 17 18  1  0  0  0  0
 17 26  1  0  0  0  0
 17 56  1  6  0  0  0
 18 22  1  0  0  0  0
 18 25  1  0  0  0  0
 18 27  1  6  0  0  0
 19 20  1  0  0  0  0
 19 31  1  0  0  0  0
 19 57  1  1  0  0  0
 20 23  1  0  0  0  0
 20 35  1  0  0  0  0
 20 37  1  6  0  0  0
 21 22  1  0  0  0  0
 21 58  1  0  0  0  0
 21 59  1  0  0  0  0
 22 60  1  0  0  0  0
 23 29  1  0  0  0  0
 23 33  1  0  0  0  0
 23 61  1  1  0  0  0
 24 29  1  0  0  0  0
 24 62  1  0  0  0  0
 24 63  1  0  0  0  0
 25 64  1  0  0  0  0
 25 65  1  0  0  0  0
 26 32  1  0  0  0  0
 26 66  1  0  0  0  0
 26 67  1  0  0  0  0
 27 36  1  0  0  0  0
 27 68  1  0  0  0  0
 27 69  1  0  0  0  0
 28 31  2  0  0  0  0
 28 70  1  0  0  0  0
 29 71  1  0  0  0  0
 29 72  1  0  0  0  0
 30 73  1  0  0  0  0
 30 74  1  0  0  0  0
 30 75  1  0  0  0  0
 31 76  1  0  0  0  0
 32 36  1  0  0  0  0
 32 41  1  0  0  0  0
 32 42  1  0  0  0  0
 33 38  1  0  0  0  0
 33 40  1  0  0  0  0
 33 43  1  6  0  0  0
 34 77  1  0  0  0  0
 34 78  1  0  0  0  0
 34 79  1  0  0  0  0
 35 39  1  0  0  0  0
 35 80  1  0  0  0  0
 35 81  1  0  0  0  0
 36 82  1  0  0  0  0
 36 83  1  0  0  0  0
 37 84  1  0  0  0  0
 37 85  1  0  0  0  0
 37 86  1  0  0  0  0
 38 39  1  0  0  0  0
 38 87  1  0  0  0  0
 39 88  1  0  0  0  0
 39 89  1  0  0  0  0
 40 91  1  0  0  0  0
 40 92  1  0  0  0  0
 41 93  1  0  0  0  0
 41 94  1  0  0  0  0
 41 95  1  0  0  0  0
 42 96  1  0  0  0  0
 42 97  1  0  0  0  0
 42 98  1  0  0  0  0
 43 99  1  0  0  0  0
 43100  1  0  0  0  0
 43101  1  0  0  0  0
 44 45  1  0  0  0  0
 44103  1  0  0  0  0
 45 46  1  0  0  0  0
 45104  1  0  0  0  0
 46 48  1  0  0  0  0
 46105  1  0  0  0  0
 47 48  1  0  0  0  0
 47 49  1  1  0  0  0
 47106  1  0  0  0  0
 48107  1  0  0  0  0
 49109  1  0  0  0  0
 49110  1  0  0  0  0
 49111  1  0  0  0  0
 50 51  1  0  0  0  0
 50113  1  0  0  0  0
 51 52  1  0  0  0  0
 51114  1  0  0  0  0
 52 54  1  0  0  0  0
 52115  1  0  0  0  0
 53 54  1  0  0  0  0
 53 55  1  1  0  0  0
 53116  1  0  0  0  0
 54117  1  0  0  0  0
 55119  1  0  0  0  0
 55120  1  0  0  0  0
M  END
> <PUBCHEM_COMPOUND_CID>
167928

> <PUBCHEM_COMPOUND_CANONICALIZED>
1

> <PUBCHEM_CACTVS_COMPLEXITY>
1490

> <PUBCHEM_CACTVS_HBOND_ACCEPTOR>
13

> <PUBCHEM_CACTVS_HBOND_DONOR>
8

> <PUBCHEM_CACTVS_ROTATABLE_BOND>
6

> <PUBCHEM_CACTVS_SUBSKEYS>
AAADcfB8PAAAAAAAAAAAAAAAAAAAASAAAAA0aMGCBIAAAEjAAAAAGgAACAAAD1SwgAMCCAAABgCAACBCAAAAAAAgAAAICAAAAAgRFAIAIQAiUAAFgAAPIAPA4PwPgAAAAAAAAADCAAYAADAAAAAAAAAAAA==

> <PUBCHEM_IUPAC_INCHI>
InChI=1S/C42H68O13/c1-21-28(46)33(55-34-31(49)30(48)29(47)22(18-43)53-34)32(50)35(52-21)54-27-10-11-37(4)23(38(27,5)19-44)8-12-39(6)24(37)9-13-42-25-16-36(2,3)14-15-41(25,20-51-42)26(45)17-40(39,42)7/h9,13,21-35,43-50H,8,10-12,14-20H2,1-7H3/t21-,22-,23-,24-,25-,26+,27+,28+,29-,30+,31-,32-,33+,34+,35+,37+,38+,39-,40+,41-,42+/m1/s1

> <PUBCHEM_IUPAC_INCHIKEY>
KYWSCMDFVARMPN-MSSMMRRTSA-N

> <PUBCHEM_XLOGP3_AA>
2.5

> <PUBCHEM_EXACT_MASS>
780.465992

> <PUBCHEM_MOLECULAR_FORMULA>
C42H68O13

> <PUBCHEM_MOLECULAR_WEIGHT>
780.98152

> <PUBCHEM_OPENEYE_CAN_SMILES>
CC1C(C(C(C(O1)OC2CCC3(C(C2(C)CO)CCC4(C3C=CC56C4(CC(C7(C5CC(CC7)(C)C)CO6)O)C)C)C)O)OC8C(C(C(C(O8)CO)O)O)O)O

> <PUBCHEM_OPENEYE_ISO_SMILES>
C[C@@H]1[C@@H]([C@@H]([C@H]([C@@H](O1)O[C@H]2CC[C@]3([C@H]([C@]2(C)CO)CC[C@@]4([C@@H]3C=C[C@@]56[C@]4(C[C@@H]([C@@]7([C@H]5CC(CC7)(C)C)CO6)O)C)C)C)O)O[C@H]8[C@@H]([C@H]([C@@H]([C@H](O8)CO)O)O)O)O

> <PUBCHEM_CACTVS_TPSA>
208

> <PUBCHEM_MONOISOTOPIC_WEIGHT>
780.465992

> <PUBCHEM_TOTAL_CHARGE>
0

> <PUBCHEM_HEAVY_ATOM_COUNT>
55

> <PUBCHEM_ATOM_DEF_STEREO_COUNT>
21

> <PUBCHEM_ATOM_UDEF_STEREO_COUNT>
0

> <PUBCHEM_BOND_DEF_STEREO_COUNT>
0

> <PUBCHEM_BOND_UDEF_STEREO_COUNT>
0

> <PUBCHEM_ISOTOPIC_ATOM_COUNT>
0

> <PUBCHEM_COMPONENT_COUNT>
1

> <PUBCHEM_CACTVS_TAUTO_COUNT>
1

> <PUBCHEM_COORDINATE_TYPE>
1
5
255

> <PUBCHEM_BONDANNOTATIONS>
51  10  6
52  11  5
54  12  6
14  30  5
15  28  6
16  34  6
17  56  6
18  27  6
19  57  5
22  2  6
20  37  6
23  61  5
38  3  6
44  3  5
33  43  6
47  49  5
53  55  5
45  6  6
46  7  5
50  7  5
48  8  5

$$$$

