443128
  -OEChem-07051213012D

 67 67  0     1  0  0  0  0  0999 V2000
    6.3301    1.1550    0.0000 O   0  0  0  0  0  0  0  0  0  0  0  0
    5.4641    0.6550    0.0000 O   0  0  0  0  0  0  0  0  0  0  0  0
    5.4641   -0.3450    0.0000 O   0  0  0  0  0  0  0  0  0  0  0  0
    7.1962    0.6550    0.0000 O   0  0  0  0  0  0  0  0  0  0  0  0
    4.5981   -1.8450    0.0000 O   0  0  0  0  0  0  0  0  0  0  0  0
    2.8660   -4.8450    0.0000 O   0  0  0  0  0  0  0  0  0  0  0  0
    5.4641    2.6550    0.0000 N   0  0  0  0  0  0  0  0  0  0  0  0
    8.0622    2.1550    0.0000 N   0  0  0  0  0  0  0  0  0  0  0  0
    3.7320    0.6550    0.0000 N   0  0  0  0  0  0  0  0  0  0  0  0
    4.5981    2.1550    0.0000 C   0  0  3  0  0  0  0  0  0  0  0  0
    3.7320    2.6550    0.0000 C   0  0  0  0  0  0  0  0  0  0  0  0
    3.7320    3.6550    0.0000 C   0  0  0  0  0  0  0  0  0  0  0  0
    7.1962    2.6550    0.0000 C   0  0  3  0  0  0  0  0  0  0  0  0
    7.1962    3.6550    0.0000 C   0  0  0  0  0  0  0  0  0  0  0  0
    8.0622    4.1550    0.0000 C   0  0  0  0  0  0  0  0  0  0  0  0
    6.3301    2.1550    0.0000 C   0  0  0  0  0  0  0  0  0  0  0  0
    4.5981    1.1550    0.0000 C   0  0  0  0  0  0  0  0  0  0  0  0
    2.8660    4.1550    0.0000 C   0  0  0  0  0  0  0  0  0  0  0  0
    4.5981    4.1550    0.0000 C   0  0  0  0  0  0  0  0  0  0  0  0
    3.7320   -0.3450    0.0000 C   0  0  3  0  0  0  0  0  0  0  0  0
    8.0622    5.1550    0.0000 C   0  0  0  0  0  0  0  0  0  0  0  0
    8.9282    3.6550    0.0000 C   0  0  0  0  0  0  0  0  0  0  0  0
    2.8660   -0.8450    0.0000 C   0  0  0  0  0  0  0  0  0  0  0  0
    8.0622    1.1550    0.0000 C   0  0  0  0  0  0  0  0  0  0  0  0
    2.8660   -1.8450    0.0000 C   0  0  0  0  0  0  0  0  0  0  0  0
    4.5981   -0.8450    0.0000 C   0  0  0  0  0  0  0  0  0  0  0  0
    8.9282    0.6550    0.0000 C   0  0  0  0  0  0  0  0  0  0  0  0
    2.0000   -2.3450    0.0000 C   0  0  0  0  0  0  0  0  0  0  0  0
    3.7320   -2.3450    0.0000 C   0  0  0  0  0  0  0  0  0  0  0  0
    2.0000   -3.3450    0.0000 C   0  0  0  0  0  0  0  0  0  0  0  0
    3.7320   -3.3450    0.0000 C   0  0  0  0  0  0  0  0  0  0  0  0
    2.8660   -3.8450    0.0000 C   0  0  0  0  0  0  0  0  0  0  0  0
    4.5981    2.7750    0.0000 H   0  0  0  0  0  0  0  0  0  0  0  0
    3.1215    2.7627    0.0000 H   0  0  0  0  0  0  0  0  0  0  0  0
    3.5200    2.0724    0.0000 H   0  0  0  0  0  0  0  0  0  0  0  0
    4.2690    3.3450    0.0000 H   0  0  0  0  0  0  0  0  0  0  0  0
    7.7331    2.9650    0.0000 H   0  0  0  0  0  0  0  0  0  0  0  0
    6.9841    4.2376    0.0000 H   0  0  0  0  0  0  0  0  0  0  0  0
    6.5856    3.5473    0.0000 H   0  0  0  0  0  0  0  0  0  0  0  0
    7.5252    4.4650    0.0000 H   0  0  0  0  0  0  0  0  0  0  0  0
    5.4641    3.2750    0.0000 H   0  0  0  0  0  0  0  0  0  0  0  0
    3.1760    4.6919    0.0000 H   0  0  0  0  0  0  0  0  0  0  0  0
    2.3291    4.4650    0.0000 H   0  0  0  0  0  0  0  0  0  0  0  0
    2.5560    3.6181    0.0000 H   0  0  0  0  0  0  0  0  0  0  0  0
    4.9081    3.6181    0.0000 H   0  0  0  0  0  0  0  0  0  0  0  0
    5.1350    4.4650    0.0000 H   0  0  0  0  0  0  0  0  0  0  0  0
    4.2881    4.6919    0.0000 H   0  0  0  0  0  0  0  0  0  0  0  0
    4.2690   -0.0350    0.0000 H   0  0  0  0  0  0  0  0  0  0  0  0
    8.5991    2.4650    0.0000 H   0  0  0  0  0  0  0  0  0  0  0  0
    8.6182    3.1181    0.0000 H   0  0  0  0  0  0  0  0  0  0  0  0
    8.6822    5.1550    0.0000 H   0  0  0  0  0  0  0  0  0  0  0  0
    8.0622    5.7750    0.0000 H   0  0  0  0  0  0  0  0  0  0  0  0
    7.4422    5.1550    0.0000 H   0  0  0  0  0  0  0  0  0  0  0  0
    9.4651    3.3450    0.0000 H   0  0  0  0  0  0  0  0  0  0  0  0
    9.2382    4.1919    0.0000 H   0  0  0  0  0  0  0  0  0  0  0  0
    3.1951    0.9650    0.0000 H   0  0  0  0  0  0  0  0  0  0  0  0
    2.6540   -0.2624    0.0000 H   0  0  0  0  0  0  0  0  0  0  0  0
    2.2554   -0.9527    0.0000 H   0  0  0  0  0  0  0  0  0  0  0  0
    8.6182    0.1181    0.0000 H   0  0  0  0  0  0  0  0  0  0  0  0
    9.4651    0.3450    0.0000 H   0  0  0  0  0  0  0  0  0  0  0  0
    9.2382    1.1919    0.0000 H   0  0  0  0  0  0  0  0  0  0  0  0
    1.4631   -2.0350    0.0000 H   0  0  0  0  0  0  0  0  0  0  0  0
    4.2690   -2.0350    0.0000 H   0  0  0  0  0  0  0  0  0  0  0  0
    1.4631   -3.6550    0.0000 H   0  0  0  0  0  0  0  0  0  0  0  0
    4.2690   -3.6550    0.0000 H   0  0  0  0  0  0  0  0  0  0  0  0
    6.0010   -0.6550    0.0000 H   0  0  0  0  0  0  0  0  0  0  0  0
    2.3291   -5.1550    0.0000 H   0  0  0  0  0  0  0  0  0  0  0  0
  1 16  2  0  0  0  0
  2 17  2  0  0  0  0
  3 26  1  0  0  0  0
  3 66  1  0  0  0  0
  4 24  2  0  0  0  0
  5 26  2  0  0  0  0
  6 32  1  0  0  0  0
  6 67  1  0  0  0  0
  7 10  1  0  0  0  0
  7 16  1  0  0  0  0
  7 41  1  0  0  0  0
  8 13  1  0  0  0  0
  8 24  1  0  0  0  0
  8 49  1  0  0  0  0
  9 17  1  0  0  0  0
  9 20  1  0  0  0  0
  9 56  1  0  0  0  0
 10 11  1  0  0  0  0
 10 17  1  0  0  0  0
 10 33  1  0  0  0  0
 11 12  1  0  0  0  0
 11 34  1  0  0  0  0
 11 35  1  0  0  0  0
 12 18  1  0  0  0  0
 12 19  1  0  0  0  0
 12 36  1  0  0  0  0
 13 14  1  0  0  0  0
 13 16  1  0  0  0  0
 13 37  1  0  0  0  0
 14 15  1  0  0  0  0
 14 38  1  0  0  0  0
 14 39  1  0  0  0  0
 15 21  1  0  0  0  0
 15 22  1  0  0  0  0
 15 40  1  0  0  0  0
 18 42  1  0  0  0  0
 18 43  1  0  0  0  0
 18 44  1  0  0  0  0
 19 45  1  0  0  0  0
 19 46  1  0  0  0  0
 19 47  1  0  0  0  0
 20 23  1  0  0  0  0
 20 26  1  0  0  0  0
 20 48  1  0  0  0  0
 21 51  1  0  0  0  0
 21 52  1  0  0  0  0
 21 53  1  0  0  0  0
 22 50  1  0  0  0  0
 22 54  1  0  0  0  0
 22 55  1  0  0  0  0
 23 25  1  0  0  0  0
 23 57  1  0  0  0  0
 23 58  1  0  0  0  0
 24 27  1  0  0  0  0
 25 28  2  0  0  0  0
 25 29  1  0  0  0  0
 27 59  1  0  0  0  0
 27 60  1  0  0  0  0
 27 61  1  0  0  0  0
 28 30  1  0  0  0  0
 28 62  1  0  0  0  0
 29 31  2  0  0  0  0
 29 63  1  0  0  0  0
 30 32  2  0  0  0  0
 30 64  1  0  0  0  0
 31 32  1  0  0  0  0
 31 65  1  0  0  0  0
M  END
> <PUBCHEM_COMPOUND_CID>
443128

> <PUBCHEM_COMPOUND_CANONICALIZED>
1

> <PUBCHEM_CACTVS_COMPLEXITY>
644

> <PUBCHEM_CACTVS_HBOND_ACCEPTOR>
6

> <PUBCHEM_CACTVS_HBOND_DONOR>
5

> <PUBCHEM_CACTVS_ROTATABLE_BOND>
12

> <PUBCHEM_CACTVS_SUBSKEYS>
AAADcfB7OAAAAAAAAAAAAAAAAAAAAAAAAAAwAAAAAAAAAAABAAAAHgAQCAAADSzBmAQyDoLAAgCIAiHSGAACAAAgIAAIiIGOCIgKZjKCkTOUcAAk1hGYmAeYyKCOIAAAAAAAAABAAAAAAAAAAAAAAAAAAA==

> <PUBCHEM_IUPAC_OPENEYE_NAME>
2-[[2-[(2-acetamido-4-methyl-pentanoyl)amino]-4-methyl-pentanoyl]amino]-3-(4-hydroxyphenyl)propanoic acid

> <PUBCHEM_IUPAC_CAS_NAME>
2-[[2-[(2-acetamido-4-methyl-1-oxopentyl)amino]-4-methyl-1-oxopentyl]amino]-3-(4-hydroxyphenyl)propanoic acid

> <PUBCHEM_IUPAC_NAME>
2-[[2-[(2-acetamido-4-methylpentanoyl)amino]-4-methylpentanoyl]amino]-3-(4-hydroxyphenyl)propanoic acid

> <PUBCHEM_IUPAC_SYSTEMATIC_NAME>
2-[[2-[(2-acetamido-4-methyl-pentanoyl)amino]-4-methyl-pentanoyl]amino]-3-(4-hydroxyphenyl)propanoic acid

> <PUBCHEM_IUPAC_TRADITIONAL_NAME>
2-[[2-[(2-acetamido-4-methyl-pentanoyl)amino]-4-methyl-pentanoyl]amino]-3-(4-hydroxyphenyl)propionic acid

> <PUBCHEM_IUPAC_INCHI>
InChI=1S/C23H35N3O6/c1-13(2)10-18(24-15(5)27)21(29)25-19(11-14(3)4)22(30)26-20(23(31)32)12-16-6-8-17(28)9-7-16/h6-9,13-14,18-20,28H,10-12H2,1-5H3,(H,24,27)(H,25,29)(H,26,30)(H,31,32)

> <PUBCHEM_IUPAC_INCHIKEY>
UOLJNXIDIXAGKF-UHFFFAOYSA-N

> <PUBCHEM_XLOGP3>
1.2

> <PUBCHEM_EXACT_MASS>
449.252586

> <PUBCHEM_MOLECULAR_FORMULA>
C23H35N3O6

> <PUBCHEM_MOLECULAR_WEIGHT>
449.5405

> <PUBCHEM_OPENEYE_CAN_SMILES>
CC(C)CC(C(=O)NC(CC(C)C)C(=O)NC(CC1=CC=C(C=C1)O)C(=O)O)NC(=O)C

> <PUBCHEM_OPENEYE_ISO_SMILES>
CC(C)CC(C(=O)NC(CC(C)C)C(=O)NC(CC1=CC=C(C=C1)O)C(=O)O)NC(=O)C

> <PUBCHEM_CACTVS_TPSA>
145

> <PUBCHEM_MONOISOTOPIC_WEIGHT>
449.252586

> <PUBCHEM_TOTAL_CHARGE>
0

> <PUBCHEM_HEAVY_ATOM_COUNT>
32

> <PUBCHEM_ATOM_DEF_STEREO_COUNT>
0

> <PUBCHEM_ATOM_UDEF_STEREO_COUNT>
3

> <PUBCHEM_BOND_DEF_STEREO_COUNT>
0

> <PUBCHEM_BOND_UDEF_STEREO_COUNT>
0

> <PUBCHEM_ISOTOPIC_ATOM_COUNT>
0

> <PUBCHEM_COMPONENT_COUNT>
1

> <PUBCHEM_CACTVS_TAUTO_COUNT>
16

> <PUBCHEM_COORDINATE_TYPE>
1
5
255

> <PUBCHEM_BONDANNOTATIONS>
10  11  3
13  14  3
20  23  3
25  28  8
25  29  8
28  30  8
29  31  8
30  32  8
31  32  8

$$$$

