5281925
  -OEChem-07051213012D

 26 27  0     0  0  0  0  0  0999 V2000
    3.7320    1.5702    0.0000 O   0  0  0  0  0  0  0  0  0  0  0  0
    7.2622    1.5944    0.0000 O   0  0  0  0  0  0  0  0  0  0  0  0
    2.0000   -0.4298    0.0000 O   0  0  0  0  0  0  0  0  0  0  0  0
    6.3406   -1.9744    0.0000 O   0  0  0  0  0  0  0  0  0  0  0  0
    4.6087   -1.9544    0.0000 O   0  0  0  0  0  0  0  0  0  0  0  0
    3.7320   -0.4298    0.0000 N   0  0  0  0  0  0  0  0  0  0  0  0
    4.5981    0.0702    0.0000 C   0  0  0  0  0  0  0  0  0  0  0  0
    4.5981    1.0702    0.0000 C   0  0  0  0  0  0  0  0  0  0  0  0
    5.4920   -0.4645    0.0000 C   0  0  0  0  0  0  0  0  0  0  0  0
    5.4920    1.6049    0.0000 C   0  0  0  0  0  0  0  0  0  0  0  0
    6.3981    1.0910    0.0000 C   0  0  0  0  0  0  0  0  0  0  0  0
    6.3981    0.0494    0.0000 C   0  0  0  0  0  0  0  0  0  0  0  0
    2.8660    0.0702    0.0000 C   0  0  0  0  0  0  0  0  0  0  0  0
    2.8660    1.0702    0.0000 C   0  0  0  0  0  0  0  0  0  0  0  0
    5.4804   -1.4644    0.0000 C   0  0  0  0  0  0  0  0  0  0  0  0
    2.0000    1.5702    0.0000 C   0  0  0  0  0  0  0  0  0  0  0  0
    7.2583    2.5943    0.0000 C   0  0  0  0  0  0  0  0  0  0  0  0
    5.4848    2.2248    0.0000 H   0  0  0  0  0  0  0  0  0  0  0  0
    6.9338   -0.2627    0.0000 H   0  0  0  0  0  0  0  0  0  0  0  0
    3.7320   -1.0498    0.0000 H   0  0  0  0  0  0  0  0  0  0  0  0
    2.0000    2.1902    0.0000 H   0  0  0  0  0  0  0  0  0  0  0  0
    1.4631    1.2602    0.0000 H   0  0  0  0  0  0  0  0  0  0  0  0
    7.8783    2.5967    0.0000 H   0  0  0  0  0  0  0  0  0  0  0  0
    7.2559    3.2143    0.0000 H   0  0  0  0  0  0  0  0  0  0  0  0
    6.6383    2.5920    0.0000 H   0  0  0  0  0  0  0  0  0  0  0  0
    6.3335   -2.5943    0.0000 H   0  0  0  0  0  0  0  0  0  0  0  0
  1  8  1  0  0  0  0
  1 14  1  0  0  0  0
  2 11  1  0  0  0  0
  2 17  1  0  0  0  0
  3 13  2  0  0  0  0
  4 15  1  0  0  0  0
  4 26  1  0  0  0  0
  5 15  2  0  0  0  0
  6  7  1  0  0  0  0
  6 13  1  0  0  0  0
  6 20  1  0  0  0  0
  7  8  1  0  0  0  0
  7  9  2  0  0  0  0
  8 10  2  0  0  0  0
  9 12  1  0  0  0  0
  9 15  1  0  0  0  0
 10 11  1  0  0  0  0
 10 18  1  0  0  0  0
 11 12  2  0  0  0  0
 12 19  1  0  0  0  0
 13 14  1  0  0  0  0
 14 16  2  0  0  0  0
 16 21  1  0  0  0  0
 16 22  1  0  0  0  0
 17 23  1  0  0  0  0
 17 24  1  0  0  0  0
 17 25  1  0  0  0  0
M  END
> <PUBCHEM_COMPOUND_CID>
5281925

> <PUBCHEM_COMPOUND_CANONICALIZED>
1

> <PUBCHEM_CACTVS_COMPLEXITY>
367

> <PUBCHEM_CACTVS_HBOND_ACCEPTOR>
5

> <PUBCHEM_CACTVS_HBOND_DONOR>
2

> <PUBCHEM_CACTVS_ROTATABLE_BOND>
2

> <PUBCHEM_CACTVS_SUBSKEYS>
AAADccByOAAAAAAAAAAAAAAAAAAAAAAAAAA8QAAAAAAAAACxAAAAHgAQCAAADAyBmAIyzoLABgCIAiXSWAKCCAAlIAAAiAFHTMgOJzrEtZ+HeajnxBXY+cf66DyOAEABCAACEAAAgAIQAAQgAAAAAAAAAA==

> <PUBCHEM_IUPAC_OPENEYE_NAME>
7-methoxy-2-methylene-3-oxo-4H-1,4-benzoxazine-5-carboxylic acid

> <PUBCHEM_IUPAC_CAS_NAME>
7-methoxy-2-methylene-3-oxo-4H-1,4-benzoxazine-5-carboxylic acid

> <PUBCHEM_IUPAC_NAME>
7-methoxy-2-methylidene-3-oxo-4H-1,4-benzoxazine-5-carboxylic acid

> <PUBCHEM_IUPAC_SYSTEMATIC_NAME>
7-methoxy-2-methylidene-3-oxidanylidene-4H-1,4-benzoxazine-5-carboxylic acid

> <PUBCHEM_IUPAC_TRADITIONAL_NAME>
3-keto-7-methoxy-2-methylene-4H-1,4-benzoxazine-5-carboxylic acid

> <PUBCHEM_IUPAC_INCHI>
InChI=1S/C11H9NO5/c1-5-10(13)12-9-7(11(14)15)3-6(16-2)4-8(9)17-5/h3-4H,1H2,2H3,(H,12,13)(H,14,15)

> <PUBCHEM_IUPAC_INCHIKEY>
INZXOXPPCUXFBP-UHFFFAOYSA-N

> <PUBCHEM_XLOGP3_AA>
1

> <PUBCHEM_EXACT_MASS>
235.048072

> <PUBCHEM_MOLECULAR_FORMULA>
C11H9NO5

> <PUBCHEM_MOLECULAR_WEIGHT>
235.19286

> <PUBCHEM_OPENEYE_CAN_SMILES>
COC1=CC2=C(C(=C1)C(=O)O)NC(=O)C(=C)O2

> <PUBCHEM_OPENEYE_ISO_SMILES>
COC1=CC2=C(C(=C1)C(=O)O)NC(=O)C(=C)O2

> <PUBCHEM_CACTVS_TPSA>
84.9

> <PUBCHEM_MONOISOTOPIC_WEIGHT>
235.048072

> <PUBCHEM_TOTAL_CHARGE>
0

> <PUBCHEM_HEAVY_ATOM_COUNT>
17

> <PUBCHEM_ATOM_DEF_STEREO_COUNT>
0

> <PUBCHEM_ATOM_UDEF_STEREO_COUNT>
0

> <PUBCHEM_BOND_DEF_STEREO_COUNT>
0

> <PUBCHEM_BOND_UDEF_STEREO_COUNT>
0

> <PUBCHEM_ISOTOPIC_ATOM_COUNT>
0

> <PUBCHEM_COMPONENT_COUNT>
1

> <PUBCHEM_CACTVS_TAUTO_COUNT>
4

> <PUBCHEM_COORDINATE_TYPE>
1
5
255

> <PUBCHEM_BONDANNOTATIONS>
10  11  8
11  12  8
7  8  8
7  9  8
8  10  8
9  12  8

$$$$

