11291
  -OEChem-07051212543D

 39 42  0     1  0  0  0  0  0999 V2000
    2.4115   -2.3994    0.1224 N   0  0  2  0  0  0  0  0  0  0  0  0
   -0.4213    0.0956   -0.9099 C   0  0  2  0  0  0  0  0  0  0  0  0
    0.8753   -0.5518   -0.4606 C   0  0  0  0  0  0  0  0  0  0  0  0
    1.7145    0.3157    0.1302 C   0  0  0  0  0  0  0  0  0  0  0  0
    1.2393   -1.9864   -0.6809 C   0  0  0  0  0  0  0  0  0  0  0  0
   -0.1792    1.5211   -0.4627 C   0  0  0  0  0  0  0  0  0  0  0  0
    3.0733   -0.0458    0.6060 C   0  0  0  0  0  0  0  0  0  0  0  0
    1.0833    1.6243    0.1491 C   0  0  0  0  0  0  0  0  0  0  0  0
    3.5042   -1.4141    0.0389 C   0  0  0  0  0  0  0  0  0  0  0  0
   -1.6652   -0.5354   -0.3229 C   0  0  0  0  0  0  0  0  0  0  0  0
   -1.0006    2.6279   -0.6038 C   0  0  0  0  0  0  0  0  0  0  0  0
    1.5388    2.8353    0.6414 C   0  0  0  0  0  0  0  0  0  0  0  0
    2.8703   -3.7261   -0.2849 C   0  0  0  0  0  0  0  0  0  0  0  0
   -2.8610   -0.5218   -1.0417 C   0  0  0  0  0  0  0  0  0  0  0  0
   -1.6175   -1.1310    0.9380 C   0  0  0  0  0  0  0  0  0  0  0  0
   -0.5460    3.8514   -0.1080 C   0  0  0  0  0  0  0  0  0  0  0  0
    0.7115    3.9539    0.5101 C   0  0  0  0  0  0  0  0  0  0  0  0
   -4.0078   -1.1029   -0.5003 C   0  0  0  0  0  0  0  0  0  0  0  0
   -2.7641   -1.7123    1.4794 C   0  0  0  0  0  0  0  0  0  0  0  0
   -3.9592   -1.6982    0.7602 C   0  0  0  0  0  0  0  0  0  0  0  0
   -0.4572    0.0612   -2.0069 H   0  0  0  0  0  0  0  0  0  0  0  0
    0.3969   -2.6323   -0.4118 H   0  0  0  0  0  0  0  0  0  0  0  0
    1.4333   -2.1278   -1.7522 H   0  0  0  0  0  0  0  0  0  0  0  0
    3.8063    0.7095    0.3011 H   0  0  0  0  0  0  0  0  0  0  0  0
    3.0708   -0.0834    1.7021 H   0  0  0  0  0  0  0  0  0  0  0  0
    3.8338   -1.2959   -1.0025 H   0  0  0  0  0  0  0  0  0  0  0  0
    4.3719   -1.7601    0.6141 H   0  0  0  0  0  0  0  0  0  0  0  0
   -1.9699    2.5558   -1.0844 H   0  0  0  0  0  0  0  0  0  0  0  0
    2.5099    2.9264    1.1163 H   0  0  0  0  0  0  0  0  0  0  0  0
    3.6897   -4.0640    0.3591 H   0  0  0  0  0  0  0  0  0  0  0  0
    3.2193   -3.7422   -1.3236 H   0  0  0  0  0  0  0  0  0  0  0  0
    2.0644   -4.4610   -0.1796 H   0  0  0  0  0  0  0  0  0  0  0  0
   -2.9121   -0.0602   -2.0242 H   0  0  0  0  0  0  0  0  0  0  0  0
   -0.7118   -1.1431    1.5372 H   0  0  0  0  0  0  0  0  0  0  0  0
   -1.1702    4.7362   -0.2022 H   0  0  0  0  0  0  0  0  0  0  0  0
    1.0451    4.9168    0.8878 H   0  0  0  0  0  0  0  0  0  0  0  0
   -4.9385   -1.0914   -1.0599 H   0  0  0  0  0  0  0  0  0  0  0  0
   -2.7280   -2.1716    2.4630 H   0  0  0  0  0  0  0  0  0  0  0  0
   -4.8524   -2.1495    1.1823 H   0  0  0  0  0  0  0  0  0  0  0  0
  1  5  1  0  0  0  0
  1  9  1  0  0  0  0
  1 13  1  0  0  0  0
  2  3  1  0  0  0  0
  2  6  1  0  0  0  0
  2 10  1  0  0  0  0
  2 21  1  0  0  0  0
  3  4  2  0  0  0  0
  3  5  1  0  0  0  0
  4  7  1  0  0  0  0
  4  8  1  0  0  0  0
  5 22  1  0  0  0  0
  5 23  1  0  0  0  0
  6  8  1  0  0  0  0
  6 11  2  0  0  0  0
  7  9  1  0  0  0  0
  7 24  1  0  0  0  0
  7 25  1  0  0  0  0
  8 12  2  0  0  0  0
  9 26  1  0  0  0  0
  9 27  1  0  0  0  0
 10 14  2  0  0  0  0
 10 15  1  0  0  0  0
 11 16  1  0  0  0  0
 11 28  1  0  0  0  0
 12 17  1  0  0  0  0
 12 29  1  0  0  0  0
 13 30  1  0  0  0  0
 13 31  1  0  0  0  0
 13 32  1  0  0  0  0
 14 18  1  0  0  0  0
 14 33  1  0  0  0  0
 15 19  2  0  0  0  0
 15 34  1  0  0  0  0
 16 17  2  0  0  0  0
 16 35  1  0  0  0  0
 17 36  1  0  0  0  0
 18 20  2  0  0  0  0
 18 37  1  0  0  0  0
 19 20  1  0  0  0  0
 19 38  1  0  0  0  0
 20 39  1  0  0  0  0
M  END
> <PUBCHEM_COMPOUND_CID>
11291

> <PUBCHEM_CONFORMER_RMSD>
0.6

> <PUBCHEM_CONFORMER_DIVERSEORDER>
1
2
3
4
5
6

> <PUBCHEM_MMFF94_PARTIAL_CHARGES>
29
1 -0.81
10 -0.14
11 -0.15
12 -0.15
13 0.27
14 -0.15
15 -0.15
16 -0.15
17 -0.15
18 -0.15
19 -0.15
2 0.43
20 -0.15
28 0.15
29 0.15
3 -0.28
33 0.15
34 0.15
35 0.15
36 0.15
37 0.15
38 0.15
39 0.15
4 -0.17
5 0.41
6 -0.14
7 0.14
8 0.03
9 0.27

> <PUBCHEM_EFFECTIVE_ROTOR_COUNT>
2

> <PUBCHEM_PHARMACOPHORE_FEATURES>
5
1 1 cation
5 2 3 4 6 8 rings
6 1 3 4 5 7 9 rings
6 10 14 15 18 19 20 rings
6 6 8 11 12 16 17 rings

> <PUBCHEM_HEAVY_ATOM_COUNT>
20

> <PUBCHEM_ATOM_DEF_STEREO_COUNT>
0

> <PUBCHEM_ATOM_UDEF_STEREO_COUNT>
1

> <PUBCHEM_BOND_DEF_STEREO_COUNT>
0

> <PUBCHEM_BOND_UDEF_STEREO_COUNT>
0

> <PUBCHEM_ISOTOPIC_ATOM_COUNT>
0

> <PUBCHEM_COMPONENT_COUNT>
1

> <PUBCHEM_CACTVS_TAUTO_COUNT>
1

> <PUBCHEM_CONFORMER_ID>
00002C1B00000001

> <PUBCHEM_MMFF94_ENERGY>
55.5274

> <PUBCHEM_FEATURE_SELFOVERLAP>
25.525

> <PUBCHEM_SHAPE_FINGERPRINT>
10411042 1 18337394958152822271
10967382 1 18265904557606189132
1100329 8 17691698104618586089
11578080 2 16809025391425559529
11582403 64 16257367237885574005
11640471 11 17316465216371343497
116883 192 18266179624296385455
11725454 13 16691949221717628687
12506688 2 18343015579857369274
12553582 1 18409170995662103158
12788726 201 18053384584837264179
13134695 92 18410862031670913095
13140716 1 17976827488765743426
136203 1 17977944914475153755
13681431 1 18270387304887704364
138480 1 18410294670553898380
14178342 30 17837506511106658634
14790565 3 18123180200200849668
14844126 61 17905908211301527050
14866123 147 17331119906515232203
15042514 8 17833829747974373999
15309172 13 17618222806596338909
15927050 60 16896238911566143239
16945 1 18264209123286552374
1813 80 17969480711135689470
19049666 15 18201168650500454405
19591789 44 17691964865406664332
20157964 124 18121784920793807007
20645477 70 18125176952234502927
20739085 24 18268988678863757976
21524375 3 17107054318814538709
21731228 192 17329143572912969593
2255824 54 18120087286638343087
2334 1 18337115682330514862
23419403 2 17770819807609643340
23526113 38 18198648642705773999
23558518 356 17979641465554612334
23559900 14 17988366949071848829
23728640 28 17331401376901427146
2748010 2 18189633794167000220
3091708 16 9355908830640558304
31174 14 18197768908881403323
352729 6 17686624949573135662
3729539 64 17838587017620305484
3759504 43 17117179141653114846
3886686 26 16602977689791537208
474 4 17902790765487355097
495365 180 18048610218150881265
5309563 4 18410290337117519895
54173680 148 17977387458011679374
6443956 14 18412544306036499287
7364860 26 18195244412718933873
81228 2 18198060493746748976
8272917 22 18192424165794621567
8809292 202 17833553775093661622
9709674 26 17612602524230923854
9981440 41 17395348814991630792

> <PUBCHEM_SHAPE_MULTIPOLES>
406.61
5.58
4.85
1.04
4.31
2.86
-0.12
-4.9
-0.85
-3.83
-0.17
0.61
-0.16
0.98

> <PUBCHEM_SHAPE_SELFOVERLAP>
902.73

> <PUBCHEM_SHAPE_VOLUME>
216.4

> <PUBCHEM_COORDINATE_TYPE>
2
5
10

$$$$

