53297402
  -OEChem-07051213123D

 58 62  0     1  0  0  0  0  0999 V2000
    3.4464    0.2780    0.7366 O   0  0  0  0  0  0  0  0  0  0  0  0
    2.8554   -0.5969   -1.3534 O   0  0  0  0  0  0  0  0  0  0  0  0
    6.7758    2.1043   -0.8681 O   0  0  0  0  0  0  0  0  0  0  0  0
    6.5849    1.7307    1.9918 O   0  0  0  0  0  0  0  0  0  0  0  0
   -1.3152    2.9483   -0.0624 O   0  0  0  0  0  0  0  0  0  0  0  0
    0.9238    1.0508   -1.6534 O   0  0  0  0  0  0  0  0  0  0  0  0
   -2.6328   -2.5113    0.0216 O   0  0  0  0  0  0  0  0  0  0  0  0
   -3.9605   -1.3877    1.7053 O   0  0  0  0  0  0  0  0  0  0  0  0
   -0.8282   -4.2420    0.5263 O   0  0  0  0  0  0  0  0  0  0  0  0
    6.0297    1.0553   -0.2572 C   0  0  1  0  0  0  0  0  0  0  0  0
    5.4964    1.5433    1.0911 C   0  0  1  0  0  0  0  0  0  0  0  0
    4.8801    0.6498   -1.1724 C   0  0  0  0  0  0  0  0  0  0  0  0
    4.4915    0.5431    1.6771 C   0  0  1  0  0  0  0  0  0  0  0  0
    3.9335   -0.3143   -0.4674 C   0  0  1  0  0  0  0  0  0  0  0  0
   -1.2784    0.6766   -0.8386 C   0  0  0  0  0  0  0  0  0  0  0  0
   -1.6369    2.1077   -1.1703 C   0  0  1  0  0  0  0  0  0  0  0  0
   -2.1781   -0.1935   -0.3365 C   0  0  0  0  0  0  0  0  0  0  0  0
   -3.1179    2.2792   -1.5192 C   0  0  0  0  0  0  0  0  0  0  0  0
   -3.5347    0.3165    0.0150 C   0  0  0  0  0  0  0  0  0  0  0  0
   -3.9982    1.5167   -0.5628 C   0  0  0  0  0  0  0  0  0  0  0  0
    0.5501   -1.0843   -0.7702 C   0  0  0  0  0  0  0  0  0  0  0  0
    0.1267    0.2743   -1.1385 C   0  0  0  0  0  0  0  0  0  0  0  0
    3.8425    1.0786    2.9494 C   0  0  0  0  0  0  0  0  0  0  0  0
   -0.3806   -2.0039   -0.2989 C   0  0  0  0  0  0  0  0  0  0  0  0
    1.8944   -1.4539   -0.9045 C   0  0  0  0  0  0  0  0  0  0  0  0
   -1.8004   -1.6329   -0.1750 C   0  0  0  0  0  0  0  0  0  0  0  0
   -4.3694   -0.3347    0.9374 C   0  0  0  0  0  0  0  0  0  0  0  0
   -5.2852    1.9966   -0.2752 C   0  0  0  0  0  0  0  0  0  0  0  0
    0.0298   -3.2999    0.0400 C   0  0  0  0  0  0  0  0  0  0  0  0
    2.3009   -2.7437   -0.5628 C   0  0  0  0  0  0  0  0  0  0  0  0
   -6.1054    1.3171    0.6197 C   0  0  0  0  0  0  0  0  0  0  0  0
   -5.6436    0.1583    1.2331 C   0  0  0  0  0  0  0  0  0  0  0  0
    1.3697   -3.6656   -0.0908 C   0  0  0  0  0  0  0  0  0  0  0  0
   -7.4661    1.8395    0.9332 C   0  0  0  0  0  0  0  0  0  0  0  0
    6.7161    0.2130   -0.1081 H   0  0  0  0  0  0  0  0  0  0  0  0
    5.0208    2.5224    0.9533 H   0  0  0  0  0  0  0  0  0  0  0  0
    4.3299    1.5476   -1.4865 H   0  0  0  0  0  0  0  0  0  0  0  0
    5.2620    0.2104   -2.1020 H   0  0  0  0  0  0  0  0  0  0  0  0
    4.9924   -0.4003    1.9316 H   0  0  0  0  0  0  0  0  0  0  0  0
    4.4802   -1.2353   -0.2291 H   0  0  0  0  0  0  0  0  0  0  0  0
   -1.0536    2.4661   -2.0266 H   0  0  0  0  0  0  0  0  0  0  0  0
   -3.3819    3.3435   -1.5015 H   0  0  0  0  0  0  0  0  0  0  0  0
   -3.3115    1.8978   -2.5297 H   0  0  0  0  0  0  0  0  0  0  0  0
    3.2975    2.0077    2.7492 H   0  0  0  0  0  0  0  0  0  0  0  0
    4.5828    1.2667    3.7325 H   0  0  0  0  0  0  0  0  0  0  0  0
    3.1080    0.3612    3.3315 H   0  0  0  0  0  0  0  0  0  0  0  0
   -5.6365    2.9121   -0.7460 H   0  0  0  0  0  0  0  0  0  0  0  0
    7.0965    1.7744   -1.7249 H   0  0  0  0  0  0  0  0  0  0  0  0
    7.0073    0.8664    2.1339 H   0  0  0  0  0  0  0  0  0  0  0  0
    3.3332   -3.0619   -0.6776 H   0  0  0  0  0  0  0  0  0  0  0  0
   -6.2740   -0.3483    1.9610 H   0  0  0  0  0  0  0  0  0  0  0  0
    1.6942   -4.6692    0.1711 H   0  0  0  0  0  0  0  0  0  0  0  0
   -1.5041    3.8657   -0.3238 H   0  0  0  0  0  0  0  0  0  0  0  0
   -7.8880    2.3816    0.0800 H   0  0  0  0  0  0  0  0  0  0  0  0
   -7.4202    2.5176    1.7911 H   0  0  0  0  0  0  0  0  0  0  0  0
   -8.1582    1.0233    1.1670 H   0  0  0  0  0  0  0  0  0  0  0  0
   -4.6826   -1.6770    2.2885 H   0  0  0  0  0  0  0  0  0  0  0  0
   -1.6877   -3.8435    0.7319 H   0  0  0  0  0  0  0  0  0  0  0  0
  1 13  1  0  0  0  0
  1 14  1  0  0  0  0
  2 14  1  0  0  0  0
  2 25  1  0  0  0  0
  3 10  1  0  0  0  0
  3 48  1  0  0  0  0
  4 11  1  0  0  0  0
  4 49  1  0  0  0  0
  5 16  1  0  0  0  0
  5 53  1  0  0  0  0
  6 22  2  0  0  0  0
  7 26  2  0  0  0  0
  8 27  1  0  0  0  0
  8 57  1  0  0  0  0
  9 29  1  0  0  0  0
  9 58  1  0  0  0  0
 10 11  1  0  0  0  0
 10 12  1  0  0  0  0
 10 35  1  0  0  0  0
 11 13  1  0  0  0  0
 11 36  1  0  0  0  0
 12 14  1  0  0  0  0
 12 37  1  0  0  0  0
 12 38  1  0  0  0  0
 13 23  1  0  0  0  0
 13 39  1  0  0  0  0
 14 40  1  0  0  0  0
 15 16  1  0  0  0  0
 15 17  2  0  0  0  0
 15 22  1  0  0  0  0
 16 18  1  0  0  0  0
 16 41  1  0  0  0  0
 17 19  1  0  0  0  0
 17 26  1  0  0  0  0
 18 20  1  0  0  0  0
 18 42  1  0  0  0  0
 18 43  1  0  0  0  0
 19 20  2  0  0  0  0
 19 27  1  0  0  0  0
 20 28  1  0  0  0  0
 21 22  1  0  0  0  0
 21 24  1  0  0  0  0
 21 25  2  0  0  0  0
 23 44  1  0  0  0  0
 23 45  1  0  0  0  0
 23 46  1  0  0  0  0
 24 26  1  0  0  0  0
 24 29  2  0  0  0  0
 25 30  1  0  0  0  0
 27 32  2  0  0  0  0
 28 31  2  0  0  0  0
 28 47  1  0  0  0  0
 29 33  1  0  0  0  0
 30 33  2  0  0  0  0
 30 50  1  0  0  0  0
 31 32  1  0  0  0  0
 31 34  1  0  0  0  0
 32 51  1  0  0  0  0
 33 52  1  0  0  0  0
 34 54  1  0  0  0  0
 34 55  1  0  0  0  0
 34 56  1  0  0  0  0
M  END
> <PUBCHEM_COMPOUND_CID>
53297402

> <PUBCHEM_CONFORMER_RMSD>
0.8

> <PUBCHEM_CONFORMER_DIVERSEORDER>
1
24
29
27
10
16
31
3
12
26
33
25
17
8
39
11
30
15
34
21
32
20
37
6
19
22
18
35
9
5
38
2
13
23
4
14
28
36
7

> <PUBCHEM_MMFF94_PARTIAL_CHARGES>
41
1 -0.56
10 0.28
11 0.28
13 0.28
14 0.56
15 -0.12
16 0.42
17 -0.01
18 0.14
19 0.03
2 -0.36
20 -0.14
21 0.09
22 0.47
24 0.09
25 0.08
26 0.47
27 0.08
28 -0.15
29 0.08
3 -0.68
30 -0.15
31 -0.14
32 -0.15
33 -0.15
34 0.14
4 -0.68
47 0.15
48 0.4
49 0.4
5 -0.68
50 0.15
51 0.15
52 0.15
53 0.4
57 0.45
58 0.45
6 -0.57
7 -0.57
8 -0.53
9 -0.53

> <PUBCHEM_EFFECTIVE_ROTOR_COUNT>
3.6

> <PUBCHEM_PHARMACOPHORE_FEATURES>
17
1 1 acceptor
1 2 acceptor
1 3 acceptor
1 3 donor
1 4 acceptor
1 4 donor
1 5 acceptor
1 5 donor
1 6 acceptor
1 7 acceptor
1 8 donor
1 9 donor
6 1 10 11 12 13 14 rings
6 15 16 17 18 19 20 rings
6 15 17 21 22 24 26 rings
6 19 20 27 28 31 32 rings
6 21 24 25 29 30 33 rings

> <PUBCHEM_HEAVY_ATOM_COUNT>
34

> <PUBCHEM_ATOM_DEF_STEREO_COUNT>
5

> <PUBCHEM_ATOM_UDEF_STEREO_COUNT>
0

> <PUBCHEM_BOND_DEF_STEREO_COUNT>
0

> <PUBCHEM_BOND_UDEF_STEREO_COUNT>
0

> <PUBCHEM_ISOTOPIC_ATOM_COUNT>
0

> <PUBCHEM_COMPONENT_COUNT>
1

> <PUBCHEM_CACTVS_TAUTO_COUNT>
132

> <PUBCHEM_CONFORMER_ID>
032D40FA00000001

> <PUBCHEM_MMFF94_ENERGY>
114.3968

> <PUBCHEM_FEATURE_SELFOVERLAP>
86.388

> <PUBCHEM_SHAPE_FINGERPRINT>
10 15 18131345302333663268
10006869 2 18189618422210015885
10074138 170 18128545864135796210
10165383 225 18408317800925262588
10290309 65 18341615983138263014
10411042 1 17548128931747111054
11112241 14 17749404619704119433
11115154 58 17173805769270928199
11578080 2 18187085061821370507
12035758 1 18200860847775354033
12422481 6 17988931118690707590
12596602 18 17203331092006813912
12788726 201 17842559535967219434
13140716 1 18198329668221921879
13540713 4 17842278357168672821
13726171 33 18194398884737503712
14068700 686 18197213857341412149
14790565 3 18198603463707605789
15338160 23 18050577236010925960
21033648 29 18335424534926569632
21130935 74 18267572693762552267
21223535 225 16443332213784571136
21792934 111 18057324105847469717
22149856 69 18054764408603015553
22182313 1 17986673881986412079
22224240 67 18409729565123084453
23559900 14 17913202345828047287
24771293 8 18410008850041390837
2838139 119 16588018013877099008
3459 39 18410582760044027906
350125 39 18269829990417185398
392239 28 18261674873659958345
4093350 32 17241319300250438477
4340502 62 18410291457907876751
437795 51 17821728325673344641
508706 21 18190752938016478510
5104073 3 18055629775265960641
5252454 2 18260557722812753746
5265222 85 18268421344191722268
6004065 56 18411702055093113749
6086070 43 17312823750014586090
7808743 9 18340769231100572086
9658208 31 18336816533796159142

> <PUBCHEM_SHAPE_MULTIPOLES>
646.88
15.58
3.78
1.72
1.28
3.66
-0.89
-14.27
-6.28
0.41
0
1.59
-0.88
1.72

> <PUBCHEM_SHAPE_SELFOVERLAP>
1443.132

> <PUBCHEM_SHAPE_VOLUME>
340.3

> <PUBCHEM_COORDINATE_TYPE>
2
5
10

$$$$

