8544
  -OEChem-06261202533D

 38 41  0     1  0  0  0  0  0999 V2000
    5.3312   -0.1211   -0.3546 O   0  0  0  0  0  0  0  0  0  0  0  0
   -0.9857    0.6946    0.1987 N   0  3  0  0  0  0  0  0  0  0  0  0
   -2.4860    0.7620    0.3294 C   0  0  2  0  0  0  0  0  0  0  0  0
   -3.1583   -0.5574    0.7311 C   0  0  1  0  0  0  0  0  0  0  0  0
   -3.1023    1.1660   -1.0164 C   0  0  0  0  0  0  0  0  0  0  0  0
   -4.0091   -0.9628   -0.4805 C   0  0  0  0  0  0  0  0  0  0  0  0
   -2.1990   -1.6349    1.1978 C   0  0  0  0  0  0  0  0  0  0  0  0
   -4.3944    0.3687   -1.1021 C   0  0  0  0  0  0  0  0  0  0  0  0
   -0.9976   -1.7189    0.2744 C   0  0  0  0  0  0  0  0  0  0  0  0
   -0.2779   -0.3945    0.1627 C   0  0  0  0  0  0  0  0  0  0  0  0
   -0.2985    2.0342    0.0626 C   0  0  0  0  0  0  0  0  0  0  0  0
    1.1999   -0.3601   -0.0051 C   0  0  0  0  0  0  0  0  0  0  0  0
    1.0475    2.0115    0.7736 C   0  0  0  0  0  0  0  0  0  0  0  0
    1.8591    0.8414    0.2968 C   0  0  0  0  0  0  0  0  0  0  0  0
    1.9274   -1.4671   -0.4489 C   0  0  0  0  0  0  0  0  0  0  0  0
    3.2514    0.9137    0.1910 C   0  0  0  0  0  0  0  0  0  0  0  0
    3.3157   -1.3801   -0.5672 C   0  0  0  0  0  0  0  0  0  0  0  0
    3.9767   -0.1954   -0.2434 C   0  0  0  0  0  0  0  0  0  0  0  0
   -2.6985    1.5152    1.0981 H   0  0  0  0  0  0  0  0  0  0  0  0
   -3.8583   -0.3475    1.5525 H   0  0  0  0  0  0  0  0  0  0  0  0
   -2.4537    0.8990   -1.8608 H   0  0  0  0  0  0  0  0  0  0  0  0
   -3.2890    2.2435   -1.0736 H   0  0  0  0  0  0  0  0  0  0  0  0
   -4.8872   -1.5460   -0.1860 H   0  0  0  0  0  0  0  0  0  0  0  0
   -3.4383   -1.5582   -1.2011 H   0  0  0  0  0  0  0  0  0  0  0  0
   -2.7043   -2.6057    1.2536 H   0  0  0  0  0  0  0  0  0  0  0  0
   -1.8560   -1.3935    2.2123 H   0  0  0  0  0  0  0  0  0  0  0  0
   -4.7499    0.2619   -2.1308 H   0  0  0  0  0  0  0  0  0  0  0  0
   -5.1821    0.8531   -0.5130 H   0  0  0  0  0  0  0  0  0  0  0  0
   -1.2850   -2.0423   -0.7322 H   0  0  0  0  0  0  0  0  0  0  0  0
   -0.3217   -2.4794    0.6796 H   0  0  0  0  0  0  0  0  0  0  0  0
   -0.9426    2.8045    0.4990 H   0  0  0  0  0  0  0  0  0  0  0  0
   -0.1942    2.2244   -1.0118 H   0  0  0  0  0  0  0  0  0  0  0  0
    0.9126    1.9265    1.8591 H   0  0  0  0  0  0  0  0  0  0  0  0
    1.5723    2.9531    0.5749 H   0  0  0  0  0  0  0  0  0  0  0  0
    1.4414   -2.3999   -0.7173 H   0  0  0  0  0  0  0  0  0  0  0  0
    3.7715    1.8348    0.4419 H   0  0  0  0  0  0  0  0  0  0  0  0
    3.8724   -2.2474   -0.9130 H   0  0  0  0  0  0  0  0  0  0  0  0
    5.6694   -0.9774   -0.6682 H   0  0  0  0  0  0  0  0  0  0  0  0
  1 18  1  0  0  0  0
  1 38  1  0  0  0  0
  2  3  1  0  0  0  0
  2 10  2  0  0  0  0
  2 11  1  0  0  0  0
  3  4  1  0  0  0  0
  3  5  1  0  0  0  0
  3 19  1  0  0  0  0
  4  6  1  0  0  0  0
  4  7  1  0  0  0  0
  4 20  1  0  0  0  0
  5  8  1  0  0  0  0
  5 21  1  0  0  0  0
  5 22  1  0  0  0  0
  6  8  1  0  0  0  0
  6 23  1  0  0  0  0
  6 24  1  0  0  0  0
  7  9  1  0  0  0  0
  7 25  1  0  0  0  0
  7 26  1  0  0  0  0
  8 27  1  0  0  0  0
  8 28  1  0  0  0  0
  9 10  1  0  0  0  0
  9 29  1  0  0  0  0
  9 30  1  0  0  0  0
 10 12  1  0  0  0  0
 11 13  1  0  0  0  0
 11 31  1  0  0  0  0
 11 32  1  0  0  0  0
 12 14  2  0  0  0  0
 12 15  1  0  0  0  0
 13 14  1  0  0  0  0
 13 33  1  0  0  0  0
 13 34  1  0  0  0  0
 14 16  1  0  0  0  0
 15 17  2  0  0  0  0
 15 35  1  0  0  0  0
 16 18  2  0  0  0  0
 16 36  1  0  0  0  0
 17 18  1  0  0  0  0
 17 37  1  0  0  0  0
M  CHG  1   2   1
M  END
> <PUBCHEM_COMPOUND_CID>
8544

> <PUBCHEM_CONFORMER_RMSD>
0.6

> <PUBCHEM_CONFORMER_DIVERSEORDER>
1
4
2
3

> <PUBCHEM_MMFF94_PARTIAL_CHARGES>
17
1 -0.53
10 0.25
11 0.35
12 0.09
13 0.14
14 -0.14
15 -0.15
16 -0.15
17 -0.15
18 0.08
2 -0.09
3 0.35
35 0.15
36 0.15
37 0.15
38 0.45
9 0.06

> <PUBCHEM_EFFECTIVE_ROTOR_COUNT>
1.4

> <PUBCHEM_PHARMACOPHORE_FEATURES>
5
1 1 donor
5 3 4 5 6 8 rings
6 12 14 15 16 17 18 rings
6 2 10 11 12 13 14 rings
6 2 3 4 7 9 10 rings

> <PUBCHEM_HEAVY_ATOM_COUNT>
18

> <PUBCHEM_ATOM_DEF_STEREO_COUNT>
0

> <PUBCHEM_ATOM_UDEF_STEREO_COUNT>
2

> <PUBCHEM_BOND_DEF_STEREO_COUNT>
0

> <PUBCHEM_BOND_UDEF_STEREO_COUNT>
0

> <PUBCHEM_ISOTOPIC_ATOM_COUNT>
0

> <PUBCHEM_COMPONENT_COUNT>
1

> <PUBCHEM_CACTVS_TAUTO_COUNT>
9

> <PUBCHEM_CONFORMER_ID>
0000216000000001

> <PUBCHEM_MMFF94_ENERGY>
53.9339

> <PUBCHEM_FEATURE_SELFOVERLAP>
25.592

> <PUBCHEM_SHAPE_FINGERPRINT>
10608611 8 18340488876319340080
10967382 1 18408601448733594170
11132069 177 18337115574987993992
11471102 20 18334858294949026084
11543360 7 16988550274116978878
11680986 33 18192997019431165161
12011746 2 18409450288568112981
12032990 46 18408880728712802856
12236239 1 16298103181152527286
12403259 415 18342464716464138837
124424 183 18341894078112842058
12500047 106 17989491813907780307
13464514 151 18125167288732179605
13583140 156 16487248872255163297
13760787 19 17346884446488098458
13862211 1 18333734641574102862
14115302 16 18130780148950853116
14289901 80 13912317975797087446
14386348 63 18410008827690477682
14790565 3 17615682273101073905
14911166 2 18412548716857077541
15163728 17 15982882101817503575
15196674 1 18409448068154533600
15219456 202 18338517443406988584
15375358 24 18410859849901282026
15848700 24 18260553324824141476
15848702 151 17603576460973078806
16945 1 18261387802224920281
17357779 13 18410583889536336477
18186145 218 18342466967021499885
19862831 5 18273496792522121395
200 152 17676490549041755247
20201158 50 18409445890527038770
20279233 1 18412259536656407234
20645476 183 16845574201757787419
20645477 70 18186800283893113094
20871999 31 18343304798876373221
21029758 11 18333453148710699841
21249577 43 18411699867889052123
21267235 1 18335972108517470766
221357 26 18336558178875965333
221490 88 18265332798532490219
23402539 116 18334580178372996972
23402655 69 18334580186941923613
23493267 7 17632579348804988345
23559900 14 18340768243290093106
25 1 18198913681074627717
2748010 2 18193839236737518384
2871803 45 18410291449882359878
3286 77 16805332088606904875
34934 24 18409737248661483810
4028521 119 18272376394858710351
4175511 318 17346600794094811431
5104073 3 18336825385654509274
69090 78 18334860493751060463
7364860 26 18191022301017038320
8809292 202 18271519797648591171
9709674 26 18335975475956499350

> <PUBCHEM_SHAPE_MULTIPOLES>
359.58
8.35
1.95
0.96
2.74
0.24
0
-1.01
-2.23
-0.05
0.24
-0.64
-0.04
0.92

> <PUBCHEM_SHAPE_SELFOVERLAP>
788.584

> <PUBCHEM_SHAPE_VOLUME>
195.6

> <PUBCHEM_COORDINATE_TYPE>
2
5
10

$$$$

