120720
  -OEChem-07051213103D

 42 44  0     1  0  0  0  0  0999 V2000
   -0.9934    1.1986    0.4644 S   0  0  0  0  0  0  0  0  0  0  0  0
   -2.7372   -2.5277   -1.1123 O   0  0  0  0  0  0  0  0  0  0  0  0
   -5.5614    1.2938   -0.8118 O   0  0  0  0  0  0  0  0  0  0  0  0
   -5.4202   -0.4442    0.6564 O   0  0  0  0  0  0  0  0  0  0  0  0
    1.7623   -2.2322    1.2381 O   0  0  0  0  0  0  0  0  0  0  0  0
    6.4136    2.2434    0.4811 O   0  0  0  0  0  0  0  0  0  0  0  0
   -2.7947   -0.6632    0.3336 N   0  0  0  0  0  0  0  0  0  0  0  0
    0.1948   -1.5219   -0.3188 N   0  0  0  0  0  0  0  0  0  0  0  0
   -1.5975   -0.3933    1.1352 C   0  0  1  0  0  0  0  0  0  0  0  0
   -2.7323    1.7350    0.0666 C   0  0  0  0  0  0  0  0  0  0  0  0
   -3.4230    0.4290   -0.3816 C   0  0  2  0  0  0  0  0  0  0  0  0
   -0.9893   -1.6701    0.5390 C   0  0  1  0  0  0  0  0  0  0  0  0
   -2.3136   -1.8051   -0.2389 C   0  0  0  0  0  0  0  0  0  0  0  0
   -3.3305    2.3712    1.3287 C   0  0  0  0  0  0  0  0  0  0  0  0
   -2.6892    2.7608   -1.0674 C   0  0  0  0  0  0  0  0  0  0  0  0
   -4.8903    0.3534   -0.1027 C   0  0  0  0  0  0  0  0  0  0  0  0
    1.4886   -1.8211    0.1135 C   0  0  0  0  0  0  0  0  0  0  0  0
    2.5231   -1.5772   -0.9678 C   0  0  0  0  0  0  0  0  0  0  0  0
    3.5612   -0.5575   -0.5807 C   0  0  0  0  0  0  0  0  0  0  0  0
    3.3429    0.7823   -0.8679 C   0  0  0  0  0  0  0  0  0  0  0  0
    4.7216   -0.9729    0.0569 C   0  0  0  0  0  0  0  0  0  0  0  0
    4.3052    1.7266   -0.5100 C   0  0  0  0  0  0  0  0  0  0  0  0
    5.6838   -0.0286    0.4149 C   0  0  0  0  0  0  0  0  0  0  0  0
    5.4756    1.3211    0.1314 C   0  0  0  0  0  0  0  0  0  0  0  0
   -1.7936   -0.4127    2.2112 H   0  0  0  0  0  0  0  0  0  0  0  0
   -3.2760    0.2404   -1.4536 H   0  0  0  0  0  0  0  0  0  0  0  0
   -0.8697   -2.4817    1.2675 H   0  0  0  0  0  0  0  0  0  0  0  0
   -3.4135    1.6557    2.1544 H   0  0  0  0  0  0  0  0  0  0  0  0
   -2.7240    3.2158    1.6771 H   0  0  0  0  0  0  0  0  0  0  0  0
   -4.3348    2.7648    1.1368 H   0  0  0  0  0  0  0  0  0  0  0  0
   -2.1170    3.6513   -0.7819 H   0  0  0  0  0  0  0  0  0  0  0  0
   -2.2322    2.3471   -1.9740 H   0  0  0  0  0  0  0  0  0  0  0  0
   -3.6964    3.0978   -1.3347 H   0  0  0  0  0  0  0  0  0  0  0  0
    0.0742   -1.1755   -1.2676 H   0  0  0  0  0  0  0  0  0  0  0  0
   -6.5269    1.2612   -0.6417 H   0  0  0  0  0  0  0  0  0  0  0  0
    3.0029   -2.5410   -1.1820 H   0  0  0  0  0  0  0  0  0  0  0  0
    2.0516   -1.2766   -1.9114 H   0  0  0  0  0  0  0  0  0  0  0  0
    2.4336    1.1079   -1.3652 H   0  0  0  0  0  0  0  0  0  0  0  0
    4.8927   -2.0215    0.2838 H   0  0  0  0  0  0  0  0  0  0  0  0
    4.1305    2.7751   -0.7357 H   0  0  0  0  0  0  0  0  0  0  0  0
    6.5932   -0.3506    0.9148 H   0  0  0  0  0  0  0  0  0  0  0  0
    6.1053    3.1250    0.2096 H   0  0  0  0  0  0  0  0  0  0  0  0
  1  9  1  0  0  0  0
  1 10  1  0  0  0  0
  2 13  2  0  0  0  0
  3 16  1  0  0  0  0
  3 35  1  0  0  0  0
  4 16  2  0  0  0  0
  5 17  2  0  0  0  0
  6 24  1  0  0  0  0
  6 42  1  0  0  0  0
  7  9  1  0  0  0  0
  7 11  1  0  0  0  0
  7 13  1  0  0  0  0
  8 12  1  0  0  0  0
  8 17  1  0  0  0  0
  8 34  1  0  0  0  0
  9 12  1  0  0  0  0
  9 25  1  0  0  0  0
 10 11  1  0  0  0  0
 10 14  1  0  0  0  0
 10 15  1  0  0  0  0
 11 16  1  0  0  0  0
 11 26  1  0  0  0  0
 12 13  1  0  0  0  0
 12 27  1  0  0  0  0
 14 28  1  0  0  0  0
 14 29  1  0  0  0  0
 14 30  1  0  0  0  0
 15 31  1  0  0  0  0
 15 32  1  0  0  0  0
 15 33  1  0  0  0  0
 17 18  1  0  0  0  0
 18 19  1  0  0  0  0
 18 36  1  0  0  0  0
 18 37  1  0  0  0  0
 19 20  2  0  0  0  0
 19 21  1  0  0  0  0
 20 22  1  0  0  0  0
 20 38  1  0  0  0  0
 21 23  2  0  0  0  0
 21 39  1  0  0  0  0
 22 24  2  0  0  0  0
 22 40  1  0  0  0  0
 23 24  1  0  0  0  0
 23 41  1  0  0  0  0
M  END
> <PUBCHEM_COMPOUND_CID>
120720

> <PUBCHEM_CONFORMER_RMSD>
0.8

> <PUBCHEM_CONFORMER_DIVERSEORDER>
9
22
15
3
21
26
6
23
8
29
27
24
12
25
28
5
20
2
4
14
19
13
17
16
10
30
11
7
18
31
1

> <PUBCHEM_MMFF94_PARTIAL_CHARGES>
29
1 -0.45
10 0.23
11 0.36
12 0.28
13 0.58
16 0.66
17 0.57
18 0.2
19 -0.14
2 -0.57
20 -0.15
21 -0.15
22 -0.15
23 -0.15
24 0.08
3 -0.65
34 0.37
35 0.5
38 0.15
39 0.15
4 -0.57
40 0.15
41 0.15
42 0.45
5 -0.57
6 -0.53
7 -0.59
8 -0.65
9 0.44

> <PUBCHEM_EFFECTIVE_ROTOR_COUNT>
5.8

> <PUBCHEM_PHARMACOPHORE_FEATURES>
11
1 2 acceptor
1 3 acceptor
1 4 acceptor
1 5 acceptor
1 6 donor
1 8 donor
3 10 14 15 hydrophobe
3 3 4 16 anion
4 7 9 12 13 rings
6 19 20 21 22 23 24 rings
7 1 7 9 10 11 12 13 rings

> <PUBCHEM_HEAVY_ATOM_COUNT>
24

> <PUBCHEM_ATOM_DEF_STEREO_COUNT>
3

> <PUBCHEM_ATOM_UDEF_STEREO_COUNT>
0

> <PUBCHEM_BOND_DEF_STEREO_COUNT>
0

> <PUBCHEM_BOND_UDEF_STEREO_COUNT>
0

> <PUBCHEM_ISOTOPIC_ATOM_COUNT>
0

> <PUBCHEM_COMPONENT_COUNT>
1

> <PUBCHEM_CACTVS_TAUTO_COUNT>
4

> <PUBCHEM_CONFORMER_ID>
0001D79000000009

> <PUBCHEM_MMFF94_ENERGY>
64.2259

> <PUBCHEM_FEATURE_SELFOVERLAP>
59.607

> <PUBCHEM_SHAPE_FINGERPRINT>
10498660 4 18261386733252745506
10670039 82 18128512999594251508
11370993 70 18412825811178123420
12107183 9 18269848652625125682
12596602 18 16558745664345511912
12633257 1 15195277612915058922
12788726 201 17531526606745871521
13402501 40 18411419501362609060
14251764 38 18410569566274318384
14466204 15 18342464755451102120
14739800 52 18338251405238988234
14790565 3 18045209690774634329
15196674 1 18410291385515859638
15463212 79 18410864239063368791
15537594 2 7925911474124366332
15840311 113 17900521670363414089
19784866 240 8070029986351934867
20511986 3 18340502100876786590
20715895 44 18342177812116003308
21033648 29 16845295002834065007
21315764 268 18342744022572107436
21623110 236 18410002261007716369
22950370 63 9079125470757889426
23227448 37 18410011018276857799
23559900 14 18115315462003829856
2838139 119 18339648948288415676
34797466 226 17458617904871852652
351380 180 18413951681051739468
3680242 22 18342737472641226496
4340502 62 17060048281509356811
46194498 28 4822918141221891842
465052 167 10303809899927341248
474 4 18060692884414307238
5104073 3 18199741604170813963
5486654 36 9439410154822801014
9981440 41 18272368638100938250

> <PUBCHEM_SHAPE_MULTIPOLES>
458.45
13.75
2.92
1.07
9.92
0.33
0.05
6.76
0.05
-0.42
-0.14
-0.37
0.08
0.02

> <PUBCHEM_SHAPE_SELFOVERLAP>
965.015

> <PUBCHEM_SHAPE_VOLUME>
260.4

> <PUBCHEM_COORDINATE_TYPE>
2
5
10

$$$$

