92123
  -OEChem-07051213003D

 39 40  0     1  0  0  0  0  0999 V2000
    1.2687    0.5505   -0.3702 O   0  0  0  0  0  0  0  0  0  0  0  0
    5.0049   -1.1514   -0.2635 O   0  0  0  0  0  0  0  0  0  0  0  0
    0.2381   -1.5406   -0.4654 O   0  0  0  0  0  0  0  0  0  0  0  0
    4.6590    1.6080    0.5250 O   0  0  0  0  0  0  0  0  0  0  0  0
    2.6296   -2.7369    0.4611 O   0  0  0  0  0  0  0  0  0  0  0  0
    0.7784    3.2241    0.0394 O   0  0  0  0  0  0  0  0  0  0  0  0
   -5.4825    0.4786    1.3957 O   0  0  0  0  0  0  0  0  0  0  0  0
    3.7989   -0.6323    0.2992 C   0  0  1  0  0  0  0  0  0  0  0  0
    3.6651    0.8277   -0.1343 C   0  0  1  0  0  0  0  0  0  0  0  0
    2.6116   -1.4644   -0.1854 C   0  0  2  0  0  0  0  0  0  0  0  0
    2.2788    1.3734    0.2160 C   0  0  1  0  0  0  0  0  0  0  0  0
    1.2837   -0.7807    0.1400 C   0  0  1  0  0  0  0  0  0  0  0  0
    2.0802    2.7910   -0.3109 C   0  0  0  0  0  0  0  0  0  0  0  0
   -1.0368   -1.0773   -0.2887 C   0  0  0  0  0  0  0  0  0  0  0  0
   -1.8055   -0.7324   -1.3961 C   0  0  0  0  0  0  0  0  0  0  0  0
   -1.5551   -0.9544    0.9966 C   0  0  0  0  0  0  0  0  0  0  0  0
   -3.1055   -0.2601   -1.2162 C   0  0  0  0  0  0  0  0  0  0  0  0
   -2.8554   -0.4822    1.1765 C   0  0  0  0  0  0  0  0  0  0  0  0
   -3.6306   -0.1351    0.0700 C   0  0  0  0  0  0  0  0  0  0  0  0
   -4.9862    0.3568    0.2580 C   0  0  0  0  0  0  0  0  0  0  0  0
   -5.8395    0.7380   -0.9469 C   0  0  0  0  0  0  0  0  0  0  0  0
    3.9065   -0.7109    1.3880 H   0  0  0  0  0  0  0  0  0  0  0  0
    3.8490    0.9059   -1.2129 H   0  0  0  0  0  0  0  0  0  0  0  0
    2.6952   -1.6546   -1.2620 H   0  0  0  0  0  0  0  0  0  0  0  0
    2.1252    1.3916    1.3037 H   0  0  0  0  0  0  0  0  0  0  0  0
    1.1365   -0.7644    1.2279 H   0  0  0  0  0  0  0  0  0  0  0  0
    2.1619    2.8280   -1.4023 H   0  0  0  0  0  0  0  0  0  0  0  0
    2.8033    3.4887    0.1209 H   0  0  0  0  0  0  0  0  0  0  0  0
    5.7368   -0.5941    0.0520 H   0  0  0  0  0  0  0  0  0  0  0  0
    4.4994    1.5506    1.4826 H   0  0  0  0  0  0  0  0  0  0  0  0
    2.5579   -2.5895    1.4196 H   0  0  0  0  0  0  0  0  0  0  0  0
    0.1451    2.5927   -0.3429 H   0  0  0  0  0  0  0  0  0  0  0  0
   -1.3998   -0.8278   -2.3994 H   0  0  0  0  0  0  0  0  0  0  0  0
   -0.9733   -1.2369    1.8690 H   0  0  0  0  0  0  0  0  0  0  0  0
   -3.6737   -0.0012   -2.1041 H   0  0  0  0  0  0  0  0  0  0  0  0
   -3.2434   -0.3974    2.1881 H   0  0  0  0  0  0  0  0  0  0  0  0
   -5.9970   -0.1323   -1.5892 H   0  0  0  0  0  0  0  0  0  0  0  0
   -5.3709    1.5575   -1.4979 H   0  0  0  0  0  0  0  0  0  0  0  0
   -6.8184    1.0818   -0.5977 H   0  0  0  0  0  0  0  0  0  0  0  0
  1 11  1  0  0  0  0
  1 12  1  0  0  0  0
  2  8  1  0  0  0  0
  2 29  1  0  0  0  0
  3 12  1  0  0  0  0
  3 14  1  0  0  0  0
  4  9  1  0  0  0  0
  4 30  1  0  0  0  0
  5 10  1  0  0  0  0
  5 31  1  0  0  0  0
  6 13  1  0  0  0  0
  6 32  1  0  0  0  0
  7 20  2  0  0  0  0
  8  9  1  0  0  0  0
  8 10  1  0  0  0  0
  8 22  1  0  0  0  0
  9 11  1  0  0  0  0
  9 23  1  0  0  0  0
 10 12  1  0  0  0  0
 10 24  1  0  0  0  0
 11 13  1  0  0  0  0
 11 25  1  0  0  0  0
 12 26  1  0  0  0  0
 13 27  1  0  0  0  0
 13 28  1  0  0  0  0
 14 15  2  0  0  0  0
 14 16  1  0  0  0  0
 15 17  1  0  0  0  0
 15 33  1  0  0  0  0
 16 18  2  0  0  0  0
 16 34  1  0  0  0  0
 17 19  2  0  0  0  0
 17 35  1  0  0  0  0
 18 19  1  0  0  0  0
 18 36  1  0  0  0  0
 19 20  1  0  0  0  0
 20 21  1  0  0  0  0
 21 37  1  0  0  0  0
 21 38  1  0  0  0  0
 21 39  1  0  0  0  0
M  END
> <PUBCHEM_COMPOUND_CID>
92123

> <PUBCHEM_CONFORMER_RMSD>
0.8

> <PUBCHEM_CONFORMER_DIVERSEORDER>
1
67
17
35
33
71
77
41
76
60
32
61
6
11
63
39
34
20
30
57
62
75
78
3
69
27
16
19
52
65
10
40
8
14
73
5
7
55
70
42
28
38
36
13
48
31
25
44
68
2
74
56
29
24
26
72
43
18
9
64
22
51
47
21
66
45
58
46
4
15
54
23
59
49
12
37
50
53

> <PUBCHEM_MMFF94_PARTIAL_CHARGES>
29
1 -0.56
10 0.28
11 0.28
12 0.56
13 0.28
14 0.08
15 -0.15
16 -0.15
17 -0.15
18 -0.15
19 0.09
2 -0.68
20 0.42
21 0.06
29 0.4
3 -0.36
30 0.4
31 0.4
32 0.4
33 0.15
34 0.15
35 0.15
36 0.15
4 -0.68
5 -0.68
6 -0.68
7 -0.57
8 0.28
9 0.28

> <PUBCHEM_EFFECTIVE_ROTOR_COUNT>
5.2

> <PUBCHEM_PHARMACOPHORE_FEATURES>
13
1 1 acceptor
1 2 acceptor
1 2 donor
1 3 acceptor
1 4 acceptor
1 4 donor
1 5 acceptor
1 5 donor
1 6 acceptor
1 6 donor
1 7 acceptor
6 1 8 9 10 11 12 rings
6 14 15 16 17 18 19 rings

> <PUBCHEM_HEAVY_ATOM_COUNT>
21

> <PUBCHEM_ATOM_DEF_STEREO_COUNT>
5

> <PUBCHEM_ATOM_UDEF_STEREO_COUNT>
0

> <PUBCHEM_BOND_DEF_STEREO_COUNT>
0

> <PUBCHEM_BOND_UDEF_STEREO_COUNT>
0

> <PUBCHEM_ISOTOPIC_ATOM_COUNT>
0

> <PUBCHEM_COMPONENT_COUNT>
1

> <PUBCHEM_CACTVS_TAUTO_COUNT>
2

> <PUBCHEM_CONFORMER_ID>
000167DB00000001

> <PUBCHEM_MMFF94_ENERGY>
67.249

> <PUBCHEM_FEATURE_SELFOVERLAP>
66.027

> <PUBCHEM_SHAPE_FINGERPRINT>
10366900 7 17775569719269141811
10688039 33 17988362666969044341
11045977 3 18059850654502523267
11089746 13 17676493839002509008
11471102 20 18411139125949760542
11578080 2 13972526086516760316
11640471 11 17822566101677448017
12236239 1 17676489457967367143
12507557 5 18409728448315400187
12633257 1 17917162593215916736
13402501 40 18273221923680424845
13583140 156 18343298150784112971
13675066 3 17775562048953280359
14341114 176 18342731923369315305
14790565 3 17909261391602479164
14866123 147 16469253496166917859
15081414 286 18409728448384582524
15238133 3 18270948150476209125
1813 80 17826221080677845110
18335252 114 18336277846571760037
18785283 64 17987227829119051556
20157964 124 18410296921818375119
20645476 183 17822578209691812207
20645477 56 17989208153198923815
21033648 29 17632028502449442749
21033650 10 15575529432709578691
21041028 32 18196378232550725590
21641784 216 17986935527347336156
21792961 116 17916590981142069438
221357 26 18341901843645926029
22289505 5 18341900739496348564
23175994 123 18342170111323842630
23227448 37 18337111168678777887
23402539 116 15140968391370368867
23557571 272 4751159597177444451
23559900 14 18411699898107252523
2838139 119 18336552741616537301
351380 180 18413110559094175229
4409770 3 15303893242669674567
474 4 18337674113751454915
5104073 3 18338804416147969842
542803 24 17749107798809181651
602551 16 16056592110822171603
7832392 63 18263086526673972558
8272917 22 18335135440177268142
9971528 1 18259988180326898804
9981440 41 17251199215110876360

> <PUBCHEM_SHAPE_MULTIPOLES>
391.08
11.3
2.41
1.07
7.85
1.4
0
1.94
-0.67
-3.11
-0.03
1.27
-0.11
0.08

> <PUBCHEM_SHAPE_SELFOVERLAP>
818.755

> <PUBCHEM_SHAPE_VOLUME>
219

> <PUBCHEM_COORDINATE_TYPE>
2
5
10

$$$$

