134970
  -OEChem-07051213092D

 26 25  0     1  0  0  0  0  0999 V2000
    7.7331    0.5000    0.0000 O   0  0  0  0  0  0  0  0  0  0  0  0
    6.8671    2.0000    0.0000 O   0  0  0  0  0  0  0  0  0  0  0  0
    2.5369    0.5000    0.0000 O   0  0  0  0  0  0  0  0  0  0  0  0
    3.4030    2.0000    0.0000 O   0  0  0  0  0  0  0  0  0  0  0  0
    6.0010    0.5000    0.0000 C   0  0  3  0  0  0  0  0  0  0  0  0
    6.0010   -0.5000    0.0000 C   0  0  0  0  0  0  0  0  0  0  0  0
    5.1350    1.0000    0.0000 C   0  0  0  0  0  0  0  0  0  0  0  0
    5.1350   -1.0000    0.0000 C   0  0  0  0  0  0  0  0  0  0  0  0
    4.2690    0.5000    0.0000 C   0  0  0  0  0  0  0  0  0  0  0  0
    6.8671    1.0000    0.0000 C   0  0  0  0  0  0  0  0  0  0  0  0
    5.1350   -2.0000    0.0000 C   0  0  0  0  0  0  0  0  0  0  0  0
    3.4030    1.0000    0.0000 C   0  0  0  0  0  0  0  0  0  0  0  0
    6.5380    0.1900    0.0000 H   0  0  0  0  0  0  0  0  0  0  0  0
    6.2131   -1.0826    0.0000 H   0  0  0  0  0  0  0  0  0  0  0  0
    6.6116   -0.3923    0.0000 H   0  0  0  0  0  0  0  0  0  0  0  0
    5.5335    1.4750    0.0000 H   0  0  0  0  0  0  0  0  0  0  0  0
    4.7365    1.4750    0.0000 H   0  0  0  0  0  0  0  0  0  0  0  0
    4.9230   -0.4174    0.0000 H   0  0  0  0  0  0  0  0  0  0  0  0
    4.5244   -1.1077    0.0000 H   0  0  0  0  0  0  0  0  0  0  0  0
    3.8705    0.0251    0.0000 H   0  0  0  0  0  0  0  0  0  0  0  0
    4.6675    0.0251    0.0000 H   0  0  0  0  0  0  0  0  0  0  0  0
    4.5150   -2.0000    0.0000 H   0  0  0  0  0  0  0  0  0  0  0  0
    5.1350   -2.6200    0.0000 H   0  0  0  0  0  0  0  0  0  0  0  0
    5.7550   -2.0000    0.0000 H   0  0  0  0  0  0  0  0  0  0  0  0
    8.2700    0.8100    0.0000 H   0  0  0  0  0  0  0  0  0  0  0  0
    2.0000    0.8100    0.0000 H   0  0  0  0  0  0  0  0  0  0  0  0
  1 10  1  0  0  0  0
  1 25  1  0  0  0  0
  2 10  2  0  0  0  0
  3 12  1  0  0  0  0
  3 26  1  0  0  0  0
  4 12  2  0  0  0  0
  5  6  1  0  0  0  0
  5  7  1  0  0  0  0
  5 10  1  0  0  0  0
  5 13  1  0  0  0  0
  6  8  1  0  0  0  0
  6 14  1  0  0  0  0
  6 15  1  0  0  0  0
  7  9  1  0  0  0  0
  7 16  1  0  0  0  0
  7 17  1  0  0  0  0
  8 11  1  0  0  0  0
  8 18  1  0  0  0  0
  8 19  1  0  0  0  0
  9 12  1  0  0  0  0
  9 20  1  0  0  0  0
  9 21  1  0  0  0  0
 11 22  1  0  0  0  0
 11 23  1  0  0  0  0
 11 24  1  0  0  0  0
M  END
> <PUBCHEM_COMPOUND_CID>
134970

> <PUBCHEM_COMPOUND_CANONICALIZED>
1

> <PUBCHEM_CACTVS_COMPLEXITY>
164

> <PUBCHEM_CACTVS_HBOND_ACCEPTOR>
4

> <PUBCHEM_CACTVS_HBOND_DONOR>
2

> <PUBCHEM_CACTVS_ROTATABLE_BOND>
6

> <PUBCHEM_CACTVS_SUBSKEYS>
AAADccBwOAAAAAAAAAAAAAAAAAAAAAAAAAAAAAAAAAAAAAAAAAAAGgAACAAADQCAgAACCAAAAgAIAACQCAAAAAAAAAAAAAEAAAAAABIAAAAAQAAEAAAAAAGI7iCOAAAAAAAAAAAAAAAAAAAAAAAAAAAAAA==

> <PUBCHEM_IUPAC_OPENEYE_NAME>
2-propylpentanedioic acid

> <PUBCHEM_IUPAC_CAS_NAME>
2-propylpentanedioic acid

> <PUBCHEM_IUPAC_NAME>
2-propylpentanedioic acid

> <PUBCHEM_IUPAC_SYSTEMATIC_NAME>
2-propylpentanedioic acid

> <PUBCHEM_IUPAC_TRADITIONAL_NAME>
2-propylglutaric acid

> <PUBCHEM_IUPAC_INCHI>
InChI=1S/C8H14O4/c1-2-3-6(8(11)12)4-5-7(9)10/h6H,2-5H2,1H3,(H,9,10)(H,11,12)

> <PUBCHEM_IUPAC_INCHIKEY>
IFNXFIJXYVEYLF-UHFFFAOYSA-N

> <PUBCHEM_XLOGP3_AA>
1

> <PUBCHEM_EXACT_MASS>
174.089209

> <PUBCHEM_MOLECULAR_FORMULA>
C8H14O4

> <PUBCHEM_MOLECULAR_WEIGHT>
174.19436

> <PUBCHEM_OPENEYE_CAN_SMILES>
CCCC(CCC(=O)O)C(=O)O

> <PUBCHEM_OPENEYE_ISO_SMILES>
CCCC(CCC(=O)O)C(=O)O

> <PUBCHEM_CACTVS_TPSA>
74.6

> <PUBCHEM_MONOISOTOPIC_WEIGHT>
174.089209

> <PUBCHEM_TOTAL_CHARGE>
0

> <PUBCHEM_HEAVY_ATOM_COUNT>
12

> <PUBCHEM_ATOM_DEF_STEREO_COUNT>
0

> <PUBCHEM_ATOM_UDEF_STEREO_COUNT>
1

> <PUBCHEM_BOND_DEF_STEREO_COUNT>
0

> <PUBCHEM_BOND_UDEF_STEREO_COUNT>
0

> <PUBCHEM_ISOTOPIC_ATOM_COUNT>
0

> <PUBCHEM_COMPONENT_COUNT>
1

> <PUBCHEM_CACTVS_TAUTO_COUNT>
1

> <PUBCHEM_COORDINATE_TYPE>
1
5
255

> <PUBCHEM_BONDANNOTATIONS>
5  6  3

$$$$

