5281310
  -OEChem-07051212563D

 87 92  0     1  0  0  0  0  0999 V2000
   -1.6060    3.3694    1.6576 O   0  0  0  0  0  0  0  0  0  0  0  0
    0.7606    1.8427    1.6421 O   0  0  0  0  0  0  0  0  0  0  0  0
   -2.0606   -1.1459   -0.6225 O   0  0  0  0  0  0  0  0  0  0  0  0
   -3.8146   -0.0678    1.2502 O   0  0  0  0  0  0  0  0  0  0  0  0
    2.4450   -1.8660   -1.0436 O   0  0  0  0  0  0  0  0  0  0  0  0
    2.1897   -0.5115   -2.8939 O   0  0  0  0  0  0  0  0  0  0  0  0
   -2.8925   -2.6998   -2.1038 O   0  0  0  0  0  0  0  0  0  0  0  0
    5.3167   -2.3893    1.4897 O   0  0  0  0  0  0  0  0  0  0  0  0
   -5.9978   -0.8211    1.1945 O   0  0  0  0  0  0  0  0  0  0  0  0
   -1.4796    1.1614   -1.3833 C   0  0  1  0  0  0  0  0  0  0  0  0
   -1.7804    1.7556   -0.0049 C   0  0  2  0  0  0  0  0  0  0  0  0
    1.0484    1.9893   -0.7793 C   0  0  1  0  0  0  0  0  0  0  0  0
    0.1067    0.8769   -1.4651 C   0  0  1  0  0  0  0  0  0  0  0  0
   -3.2141    2.1420    0.3664 C   0  0  1  0  0  0  0  0  0  0  0  0
   -1.0075    2.9769    0.4051 C   0  0  2  0  0  0  0  0  0  0  0  0
    0.4732    2.6834    0.5017 C   0  0  1  0  0  0  0  0  0  0  0  0
   -2.4442   -0.0891   -1.5043 C   0  0  2  0  0  0  0  0  0  0  0  0
   -4.1129    0.8975    0.2440 C   0  0  1  0  0  0  0  0  0  0  0  0
    2.2636    1.4448   -0.0829 C   0  0  0  0  0  0  0  0  0  0  0  0
   -2.8951    2.6949    1.7703 C   0  0  0  0  0  0  0  0  0  0  0  0
   -3.9262    0.2260   -1.1438 C   0  0  0  0  0  0  0  0  0  0  0  0
    1.8980    1.0608    1.3106 C   0  0  1  0  0  0  0  0  0  0  0  0
   -1.8196    2.1145   -2.5595 C   0  0  0  0  0  0  0  0  0  0  0  0
    0.5189   -0.5662   -1.1278 C   0  0  0  0  0  0  0  0  0  0  0  0
    1.3878    3.0885   -1.8074 C   0  0  0  0  0  0  0  0  0  0  0  0
   -3.8696    3.2991   -0.4274 C   0  0  0  0  0  0  0  0  0  0  0  0
    3.5902    1.4223   -0.2781 C   0  0  0  0  0  0  0  0  0  0  0  0
    3.1764    1.3702    2.0730 C   0  0  0  0  0  0  0  0  0  0  0  0
    4.3033    1.1490    1.0358 C   0  0  1  0  0  0  0  0  0  0  0  0
    1.7974   -0.9475   -1.8203 C   0  0  0  0  0  0  0  0  0  0  0  0
    4.3783    1.7569   -1.4943 C   0  0  0  0  0  0  0  0  0  0  0  0
    4.9780   -0.1975    1.1247 C   0  0  0  0  0  0  0  0  0  0  0  0
   -2.3461   -2.4084   -1.0493 C   0  0  0  0  0  0  0  0  0  0  0  0
   -4.8560   -0.8643    1.6323 C   0  0  0  0  0  0  0  0  0  0  0  0
    6.3213   -0.5012    0.7984 C   0  0  0  0  0  0  0  0  0  0  0  0
    4.4092   -1.3792    1.5397 C   0  0  0  0  0  0  0  0  0  0  0  0
   -1.8938   -3.3978   -0.0246 C   0  0  0  0  0  0  0  0  0  0  0  0
   -4.3979   -1.8241    2.6882 C   0  0  0  0  0  0  0  0  0  0  0  0
    6.4777   -1.8468    1.0376 C   0  0  0  0  0  0  0  0  0  0  0  0
    3.6922   -2.3407   -1.5611 C   0  0  0  0  0  0  0  0  0  0  0  0
   -1.2071   -2.8843    1.2061 C   0  0  0  0  0  0  0  0  0  0  0  0
   -2.1205   -4.6917   -0.3174 C   0  0  0  0  0  0  0  0  0  0  0  0
   -1.7905   -5.8819    0.5264 C   0  0  0  0  0  0  0  0  0  0  0  0
   -1.4910    0.9621    0.7076 H   0  0  0  0  0  0  0  0  0  0  0  0
    0.3292    0.9509   -2.5388 H   0  0  0  0  0  0  0  0  0  0  0  0
   -1.1471    3.8092   -0.2911 H   0  0  0  0  0  0  0  0  0  0  0  0
    0.9962    3.6287    0.7097 H   0  0  0  0  0  0  0  0  0  0  0  0
   -2.3956   -0.4359   -2.5453 H   0  0  0  0  0  0  0  0  0  0  0  0
   -5.1573    1.2197    0.3492 H   0  0  0  0  0  0  0  0  0  0  0  0
   -2.7761    1.9032    2.5181 H   0  0  0  0  0  0  0  0  0  0  0  0
   -3.6349    3.4083    2.1458 H   0  0  0  0  0  0  0  0  0  0  0  0
   -4.5019   -0.7074   -1.1584 H   0  0  0  0  0  0  0  0  0  0  0  0
   -4.3658    0.8598   -1.9196 H   0  0  0  0  0  0  0  0  0  0  0  0
    1.6418    0.0057    1.4205 H   0  0  0  0  0  0  0  0  0  0  0  0
   -1.3629    1.7652   -3.4931 H   0  0  0  0  0  0  0  0  0  0  0  0
   -2.8860    2.1650   -2.7786 H   0  0  0  0  0  0  0  0  0  0  0  0
   -1.4813    3.1368   -2.3885 H   0  0  0  0  0  0  0  0  0  0  0  0
   -0.1471   -1.2697   -1.6252 H   0  0  0  0  0  0  0  0  0  0  0  0
    0.5176   -0.7798   -0.0632 H   0  0  0  0  0  0  0  0  0  0  0  0
    0.5233    3.7141   -2.0386 H   0  0  0  0  0  0  0  0  0  0  0  0
    2.1658    3.7660   -1.4351 H   0  0  0  0  0  0  0  0  0  0  0  0
    1.7448    2.6646   -2.7513 H   0  0  0  0  0  0  0  0  0  0  0  0
   -3.2328    4.1840   -0.5092 H   0  0  0  0  0  0  0  0  0  0  0  0
   -4.7876    3.6232    0.0799 H   0  0  0  0  0  0  0  0  0  0  0  0
   -4.1746    3.0172   -1.4349 H   0  0  0  0  0  0  0  0  0  0  0  0
    3.2751    0.7614    2.9782 H   0  0  0  0  0  0  0  0  0  0  0  0
    3.1684    2.4178    2.4054 H   0  0  0  0  0  0  0  0  0  0  0  0
    5.0660    1.9213    1.2051 H   0  0  0  0  0  0  0  0  0  0  0  0
    4.9034    2.7073   -1.3592 H   0  0  0  0  0  0  0  0  0  0  0  0
    3.7568    1.8308   -2.3884 H   0  0  0  0  0  0  0  0  0  0  0  0
    5.1221    0.9793   -1.6936 H   0  0  0  0  0  0  0  0  0  0  0  0
    7.0826    0.1733    0.4334 H   0  0  0  0  0  0  0  0  0  0  0  0
    3.4254   -1.6624    1.8846 H   0  0  0  0  0  0  0  0  0  0  0  0
   -4.0700   -2.7545    2.2210 H   0  0  0  0  0  0  0  0  0  0  0  0
   -3.5843   -1.3905    3.2766 H   0  0  0  0  0  0  0  0  0  0  0  0
   -5.2276   -2.0263    3.3715 H   0  0  0  0  0  0  0  0  0  0  0  0
    7.3070   -2.5320    0.9406 H   0  0  0  0  0  0  0  0  0  0  0  0
    4.0680   -3.1201   -0.8942 H   0  0  0  0  0  0  0  0  0  0  0  0
    4.4183   -1.5262   -1.6180 H   0  0  0  0  0  0  0  0  0  0  0  0
    3.5442   -2.7837   -2.5511 H   0  0  0  0  0  0  0  0  0  0  0  0
   -1.2744   -3.5898    2.0391 H   0  0  0  0  0  0  0  0  0  0  0  0
   -1.6485   -1.9540    1.5739 H   0  0  0  0  0  0  0  0  0  0  0  0
   -0.1471   -2.7091    1.0017 H   0  0  0  0  0  0  0  0  0  0  0  0
   -2.6198   -4.9546   -1.2483 H   0  0  0  0  0  0  0  0  0  0  0  0
   -1.2168   -6.6015   -0.0668 H   0  0  0  0  0  0  0  0  0  0  0  0
   -2.7126   -6.3708    0.8552 H   0  0  0  0  0  0  0  0  0  0  0  0
   -1.1958   -5.6403    1.4096 H   0  0  0  0  0  0  0  0  0  0  0  0
  1 15  1  0  0  0  0
  1 20  1  0  0  0  0
  2 16  1  0  0  0  0
  2 22  1  0  0  0  0
  3 17  1  0  0  0  0
  3 33  1  0  0  0  0
  4 18  1  0  0  0  0
  4 34  1  0  0  0  0
  5 30  1  0  0  0  0
  5 40  1  0  0  0  0
  6 30  2  0  0  0  0
  7 33  2  0  0  0  0
  8 36  1  0  0  0  0
  8 39  1  0  0  0  0
  9 34  2  0  0  0  0
 10 11  1  0  0  0  0
 10 13  1  0  0  0  0
 10 17  1  0  0  0  0
 10 23  1  0  0  0  0
 11 14  1  0  0  0  0
 11 15  1  0  0  0  0
 11 44  1  0  0  0  0
 12 13  1  0  0  0  0
 12 16  1  0  0  0  0
 12 19  1  0  0  0  0
 12 25  1  0  0  0  0
 13 24  1  0  0  0  0
 13 45  1  0  0  0  0
 14 18  1  0  0  0  0
 14 20  1  0  0  0  0
 14 26  1  0  0  0  0
 15 16  1  0  0  0  0
 15 46  1  0  0  0  0
 16 47  1  0  0  0  0
 17 21  1  0  0  0  0
 17 48  1  0  0  0  0
 18 21  1  0  0  0  0
 18 49  1  0  0  0  0
 19 22  1  0  0  0  0
 19 27  2  0  0  0  0
 20 50  1  0  0  0  0
 20 51  1  0  0  0  0
 21 52  1  0  0  0  0
 21 53  1  0  0  0  0
 22 28  1  0  0  0  0
 22 54  1  0  0  0  0
 23 55  1  0  0  0  0
 23 56  1  0  0  0  0
 23 57  1  0  0  0  0
 24 30  1  0  0  0  0
 24 58  1  0  0  0  0
 24 59  1  0  0  0  0
 25 60  1  0  0  0  0
 25 61  1  0  0  0  0
 25 62  1  0  0  0  0
 26 63  1  0  0  0  0
 26 64  1  0  0  0  0
 26 65  1  0  0  0  0
 27 29  1  0  0  0  0
 27 31  1  0  0  0  0
 28 29  1  0  0  0  0
 28 66  1  0  0  0  0
 28 67  1  0  0  0  0
 29 32  1  0  0  0  0
 29 68  1  0  0  0  0
 31 69  1  0  0  0  0
 31 70  1  0  0  0  0
 31 71  1  0  0  0  0
 32 35  1  0  0  0  0
 32 36  2  0  0  0  0
 33 37  1  0  0  0  0
 34 38  1  0  0  0  0
 35 39  2  0  0  0  0
 35 72  1  0  0  0  0
 36 73  1  0  0  0  0
 37 41  1  0  0  0  0
 37 42  2  0  0  0  0
 38 74  1  0  0  0  0
 38 75  1  0  0  0  0
 38 76  1  0  0  0  0
 39 77  1  0  0  0  0
 40 78  1  0  0  0  0
 40 79  1  0  0  0  0
 40 80  1  0  0  0  0
 41 81  1  0  0  0  0
 41 82  1  0  0  0  0
 41 83  1  0  0  0  0
 42 43  1  0  0  0  0
 42 84  1  0  0  0  0
 43 85  1  0  0  0  0
 43 86  1  0  0  0  0
 43 87  1  0  0  0  0
M  END
> <PUBCHEM_COMPOUND_CID>
5281310

> <PUBCHEM_CONFORMER_RMSD>
1.2

> <PUBCHEM_CONFORMER_DIVERSEORDER>
1
5
2
6
4
3

> <PUBCHEM_MMFF94_PARTIAL_CHARGES>
38
1 -0.56
12 0.14
15 0.28
16 0.28
17 0.28
18 0.28
19 -0.28
2 -0.56
20 0.28
22 0.42
24 0.06
27 -0.28
29 0.32
3 -0.43
30 0.66
31 0.14
32 -0.18
33 0.71
34 0.66
35 -0.15
36 -0.01
37 -0.12
38 0.06
39 -0.01
4 -0.43
40 0.28
41 0.14
42 -0.29
43 0.14
5 -0.43
6 -0.57
7 -0.57
72 0.15
73 0.15
77 0.15
8 -0.28
84 0.15
9 -0.57

> <PUBCHEM_EFFECTIVE_ROTOR_COUNT>
10.8

> <PUBCHEM_PHARMACOPHORE_FEATURES>
14
1 1 acceptor
1 2 acceptor
1 41 hydrophobe
1 43 hydrophobe
1 6 acceptor
1 7 acceptor
1 8 acceptor
1 9 acceptor
5 1 11 14 15 20 rings
5 19 22 27 28 29 rings
5 2 12 16 19 22 rings
5 8 32 35 36 39 rings
6 10 11 12 13 15 16 rings
6 10 11 14 17 18 21 rings

> <PUBCHEM_HEAVY_ATOM_COUNT>
43

> <PUBCHEM_ATOM_DEF_STEREO_COUNT>
11

> <PUBCHEM_ATOM_UDEF_STEREO_COUNT>
0

> <PUBCHEM_BOND_DEF_STEREO_COUNT>
1

> <PUBCHEM_BOND_UDEF_STEREO_COUNT>
0

> <PUBCHEM_ISOTOPIC_ATOM_COUNT>
0

> <PUBCHEM_COMPONENT_COUNT>
1

> <PUBCHEM_CACTVS_TAUTO_COUNT>
1

> <PUBCHEM_CONFORMER_ID>
0050961E00000001

> <PUBCHEM_MMFF94_ENERGY>
169.5391

> <PUBCHEM_FEATURE_SELFOVERLAP>
71.728

> <PUBCHEM_SHAPE_FINGERPRINT>
11135609 12 18201720656639802640
11421498 54 17404861454134564052
12422481 6 17896044407052774908
12633257 1 18114180800362955907
131258 38 17475787655240055907
13140716 1 17827631449163873189
13947930 73 18129361732155444347
14856354 85 18260829272452476716
15439362 3 17547582930088008949
16728300 4 18272373113688644291
19319366 153 16971400933835430180
20587220 46 13894250595241086817
20764821 26 18338511932975030158
21033648 29 17822843307858184425
3383291 50 18410018745150415715
35225 105 18342172233480603969
392239 28 18113623378090421239
45266715 3 18192169285160794391
4616759 239 18116460114707662466
563151 74 15719663325183827478
9896288 288 17971750227410454665

> <PUBCHEM_SHAPE_MULTIPOLES>
832.1
11.33
5.47
2.43
9.8
6
0.29
4.23
-5.48
-4.28
-0.21
-0.23
-0.11
-0.29

> <PUBCHEM_SHAPE_SELFOVERLAP>
1803.853

> <PUBCHEM_SHAPE_VOLUME>
456.3

> <PUBCHEM_COORDINATE_TYPE>
2
5
10

$$$$

