208910
  -OEChem-07051213113D

 43 45  0     0  0  0  0  0  0999 V2000
    4.5833    0.2210   -0.0040 S   0  0  0  0  0  0  0  0  0  0  0  0
   -2.0825   -1.3272    0.6574 O   0  0  0  0  0  0  0  0  0  0  0  0
   -3.4609    1.8938   -0.0958 O   0  0  0  0  0  0  0  0  0  0  0  0
   -4.6577    0.0023    0.4392 O   0  0  0  0  0  0  0  0  0  0  0  0
    5.0453    0.4004   -1.3730 O   0  0  0  0  0  0  0  0  0  0  0  0
    5.1630    1.0221    1.0654 O   0  0  0  0  0  0  0  0  0  0  0  0
   -1.8423   -3.5919   -0.0691 C   0  0  0  0  0  0  0  0  0  0  0  0
   -0.5842   -3.9196    0.6505 C   0  0  0  0  0  0  0  0  0  0  0  0
   -0.7875   -4.3737   -0.7652 C   0  0  0  0  0  0  0  0  0  0  0  0
   -2.0697   -2.1576   -0.4964 C   0  0  0  0  0  0  0  0  0  0  0  0
   -2.0611    2.2254   -0.2541 C   0  0  0  0  0  0  0  0  0  0  0  0
   -1.3794    0.9306    0.0449 C   0  0  0  0  0  0  0  0  0  0  0  0
   -2.2707   -0.0212    0.3308 C   0  0  0  0  0  0  0  0  0  0  0  0
    0.0711    0.7588    0.0328 C   0  0  0  0  0  0  0  0  0  0  0  0
   -3.6025    0.5787    0.2423 C   0  0  0  0  0  0  0  0  0  0  0  0
   -1.7320    3.3283    0.7524 C   0  0  0  0  0  0  0  0  0  0  0  0
   -1.8669    2.7131   -1.6897 C   0  0  0  0  0  0  0  0  0  0  0  0
    0.7258    0.3683   -1.1404 C   0  0  0  0  0  0  0  0  0  0  0  0
    0.8181    0.9826    1.1944 C   0  0  0  0  0  0  0  0  0  0  0  0
    2.8496    0.4286    0.0101 C   0  0  0  0  0  0  0  0  0  0  0  0
    2.1109    0.2037   -1.1516 C   0  0  0  0  0  0  0  0  0  0  0  0
    2.2031    0.8180    1.1830 C   0  0  0  0  0  0  0  0  0  0  0  0
    4.8273   -1.4849    0.4361 C   0  0  0  0  0  0  0  0  0  0  0  0
   -2.7487   -4.0906    0.2469 H   0  0  0  0  0  0  0  0  0  0  0  0
   -0.6271   -4.6695    1.4308 H   0  0  0  0  0  0  0  0  0  0  0  0
    0.1427   -3.1356    0.8249 H   0  0  0  0  0  0  0  0  0  0  0  0
   -0.1930   -3.8977   -1.5351 H   0  0  0  0  0  0  0  0  0  0  0  0
   -0.9689   -5.4284   -0.9342 H   0  0  0  0  0  0  0  0  0  0  0  0
   -3.0335   -2.0985   -1.0174 H   0  0  0  0  0  0  0  0  0  0  0  0
   -1.2839   -1.8350   -1.1898 H   0  0  0  0  0  0  0  0  0  0  0  0
   -0.6917    3.6598    0.6704 H   0  0  0  0  0  0  0  0  0  0  0  0
   -2.3817    4.1977    0.5979 H   0  0  0  0  0  0  0  0  0  0  0  0
   -1.9095    2.9933    1.7813 H   0  0  0  0  0  0  0  0  0  0  0  0
   -2.1401    1.9352   -2.4126 H   0  0  0  0  0  0  0  0  0  0  0  0
   -2.5187    3.5692   -1.8991 H   0  0  0  0  0  0  0  0  0  0  0  0
   -0.8319    3.0145   -1.8814 H   0  0  0  0  0  0  0  0  0  0  0  0
    0.1658    0.1880   -2.0551 H   0  0  0  0  0  0  0  0  0  0  0  0
    0.3301    1.2832    2.1188 H   0  0  0  0  0  0  0  0  0  0  0  0
    2.5923   -0.1073   -2.0744 H   0  0  0  0  0  0  0  0  0  0  0  0
    2.7580    0.9916    2.1007 H   0  0  0  0  0  0  0  0  0  0  0  0
    4.3354   -2.1168   -0.3058 H   0  0  0  0  0  0  0  0  0  0  0  0
    5.9012   -1.6834    0.4409 H   0  0  0  0  0  0  0  0  0  0  0  0
    4.4120   -1.6583    1.4307 H   0  0  0  0  0  0  0  0  0  0  0  0
  1  5  2  0  0  0  0
  1  6  2  0  0  0  0
  1 20  1  0  0  0  0
  1 23  1  0  0  0  0
  2 10  1  0  0  0  0
  2 13  1  0  0  0  0
  3 11  1  0  0  0  0
  3 15  1  0  0  0  0
  4 15  2  0  0  0  0
  7  8  1  0  0  0  0
  7  9  1  0  0  0  0
  7 10  1  0  0  0  0
  7 24  1  0  0  0  0
  8  9  1  0  0  0  0
  8 25  1  0  0  0  0
  8 26  1  0  0  0  0
  9 27  1  0  0  0  0
  9 28  1  0  0  0  0
 10 29  1  0  0  0  0
 10 30  1  0  0  0  0
 11 12  1  0  0  0  0
 11 16  1  0  0  0  0
 11 17  1  0  0  0  0
 12 13  2  0  0  0  0
 12 14  1  0  0  0  0
 13 15  1  0  0  0  0
 14 18  2  0  0  0  0
 14 19  1  0  0  0  0
 16 31  1  0  0  0  0
 16 32  1  0  0  0  0
 16 33  1  0  0  0  0
 17 34  1  0  0  0  0
 17 35  1  0  0  0  0
 17 36  1  0  0  0  0
 18 21  1  0  0  0  0
 18 37  1  0  0  0  0
 19 22  2  0  0  0  0
 19 38  1  0  0  0  0
 20 21  2  0  0  0  0
 20 22  1  0  0  0  0
 21 39  1  0  0  0  0
 22 40  1  0  0  0  0
 23 41  1  0  0  0  0
 23 42  1  0  0  0  0
 23 43  1  0  0  0  0
M  END
> <PUBCHEM_COMPOUND_CID>
208910

> <PUBCHEM_CONFORMER_RMSD>
0.8

> <PUBCHEM_CONFORMER_DIVERSEORDER>
1
12
6
11
14
10
9
8
16
15
2
4
3
5
13
7

> <PUBCHEM_MMFF94_PARTIAL_CHARGES>
30
1 1.2
10 0.38
11 0.42
12 -0.17
13 0.09
14 0.03
15 0.71
18 -0.15
19 -0.15
2 -0.36
20 -0.01
21 -0.15
22 -0.15
23 0.11
24 0.1
25 0.1
26 0.1
27 0.1
28 0.1
3 -0.43
37 0.15
38 0.15
39 0.15
4 -0.57
40 0.15
5 -0.65
6 -0.65
7 -0.19
8 -0.2
9 -0.2

> <PUBCHEM_EFFECTIVE_ROTOR_COUNT>
6

> <PUBCHEM_PHARMACOPHORE_FEATURES>
7
1 2 acceptor
1 4 acceptor
1 5 acceptor
1 6 acceptor
3 11 16 17 hydrophobe
5 3 11 12 13 15 rings
6 14 18 19 20 21 22 rings

> <PUBCHEM_HEAVY_ATOM_COUNT>
23

> <PUBCHEM_ATOM_DEF_STEREO_COUNT>
0

> <PUBCHEM_ATOM_UDEF_STEREO_COUNT>
0

> <PUBCHEM_BOND_DEF_STEREO_COUNT>
0

> <PUBCHEM_BOND_UDEF_STEREO_COUNT>
0

> <PUBCHEM_ISOTOPIC_ATOM_COUNT>
0

> <PUBCHEM_COMPONENT_COUNT>
1

> <PUBCHEM_CACTVS_TAUTO_COUNT>
1

> <PUBCHEM_CONFORMER_ID>
0003300E00000001

> <PUBCHEM_MMFF94_ENERGY>
57.8509

> <PUBCHEM_FEATURE_SELFOVERLAP>
35.54

> <PUBCHEM_SHAPE_FINGERPRINT>
10366900 7 17967533463026198388
11370993 70 18338518672063203222
12173636 292 18266744760404523908
12236239 1 17346595292173568369
12500047 106 18410298016655142848
12553582 1 17835510523254566531
12633257 1 17968362468896929811
12788726 201 18126556834985038362
13004483 165 17977113361604809975
13140716 1 18193270798010967697
13583140 156 18114192895750562312
138480 1 17185313690730012611
14251757 5 18338505353548907966
14844126 61 18268155257877072858
15042514 8 18341044112933776923
15463212 79 18202287987554727218
18785283 64 17475505553081822169
19591789 44 18266459986787291843
200 152 16128651946965493889
20028762 73 18043241342081817935
20510252 161 18261953054592483937
20600515 1 18263631897363479997
21033648 29 18264225732226708688
23402539 116 18335990830628223405
23557571 272 18189617146742262304
23559900 14 18333167276652491232
23598288 3 17843378727452557067
23728640 28 18412543184865880219
266924 87 18194974165414905005
3298306 158 18120659281930403806
43471831 8 18267580389805570771
5265222 85 18339909490386037454
532947 4 17761218017298686118
5364581 5 18046084666060357416
602551 16 18409731721138514770
81228 2 18048050583822658635
8809292 202 18261108534887623922

> <PUBCHEM_SHAPE_MULTIPOLES>
447.83
8.44
4.56
1.2
10.84
5.77
0.23
-1.83
-0.52
-4.47
0.33
0.46
-0.42
0.19

> <PUBCHEM_SHAPE_SELFOVERLAP>
941.48

> <PUBCHEM_SHAPE_VOLUME>
257.3

> <PUBCHEM_COORDINATE_TYPE>
2
5
10

$$$$

