1832
  -OEChem-07051212553D

 34 35  0     0  0  0  0  0  0999 V2000
    2.8263    2.4254   -0.0927 O   0  0  0  0  0  0  0  0  0  0  0  0
    0.9941   -2.7418   -0.0537 N   0  0  0  0  0  0  0  0  0  0  0  0
   -3.9439    0.3973   -0.0340 N   0  0  0  0  0  0  0  0  0  0  0  0
   -0.5396   -1.2117    0.4300 C   0  0  0  0  0  0  0  0  0  0  0  0
   -1.8262   -0.5799    0.7850 C   0  0  0  0  0  0  0  0  0  0  0  0
    0.6934   -0.5443    0.1871 C   0  0  0  0  0  0  0  0  0  0  0  0
   -2.6980   -0.2057   -0.4251 C   0  0  0  0  0  0  0  0  0  0  0  0
    1.6390   -1.5269   -0.1140 C   0  0  0  0  0  0  0  0  0  0  0  0
   -0.3229   -2.5614    0.2741 C   0  0  0  0  0  0  0  0  0  0  0  0
    1.0971    0.8057    0.1944 C   0  0  0  0  0  0  0  0  0  0  0  0
    2.9734   -1.2258   -0.4091 C   0  0  0  0  0  0  0  0  0  0  0  0
    2.4286    1.1218   -0.0988 C   0  0  0  0  0  0  0  0  0  0  0  0
    3.3507    0.1201   -0.3957 C   0  0  0  0  0  0  0  0  0  0  0  0
   -4.7851    0.6942   -1.2037 C   0  0  0  0  0  0  0  0  0  0  0  0
   -3.7232    1.6300    0.7377 C   0  0  0  0  0  0  0  0  0  0  0  0
    1.8360    3.4030    0.2185 C   0  0  0  0  0  0  0  0  0  0  0  0
   -1.5958    0.3014    1.3938 H   0  0  0  0  0  0  0  0  0  0  0  0
   -2.3920   -1.2567    1.4397 H   0  0  0  0  0  0  0  0  0  0  0  0
   -2.1279    0.4545   -1.0938 H   0  0  0  0  0  0  0  0  0  0  0  0
   -2.8952   -1.1229   -0.9963 H   0  0  0  0  0  0  0  0  0  0  0  0
   -0.9860   -3.4104    0.3660 H   0  0  0  0  0  0  0  0  0  0  0  0
    1.4305   -3.6368   -0.2269 H   0  0  0  0  0  0  0  0  0  0  0  0
    0.3396    1.5433    0.4296 H   0  0  0  0  0  0  0  0  0  0  0  0
    3.6919   -2.0050   -0.6403 H   0  0  0  0  0  0  0  0  0  0  0  0
    4.3819    0.3818   -0.6214 H   0  0  0  0  0  0  0  0  0  0  0  0
   -4.9881   -0.2209   -1.7711 H   0  0  0  0  0  0  0  0  0  0  0  0
   -4.3134    1.4210   -1.8749 H   0  0  0  0  0  0  0  0  0  0  0  0
   -5.7571    1.0897   -0.8886 H   0  0  0  0  0  0  0  0  0  0  0  0
   -4.6748    2.1471    0.9106 H   0  0  0  0  0  0  0  0  0  0  0  0
   -3.0513    2.3271    0.2240 H   0  0  0  0  0  0  0  0  0  0  0  0
   -3.3305    1.4180    1.7366 H   0  0  0  0  0  0  0  0  0  0  0  0
    2.3249    4.3819    0.1778 H   0  0  0  0  0  0  0  0  0  0  0  0
    1.4543    3.2804    1.2378 H   0  0  0  0  0  0  0  0  0  0  0  0
    1.0340    3.4168   -0.5276 H   0  0  0  0  0  0  0  0  0  0  0  0
  1 12  1  0  0  0  0
  1 16  1  0  0  0  0
  2  8  1  0  0  0  0
  2  9  1  0  0  0  0
  2 22  1  0  0  0  0
  3  7  1  0  0  0  0
  3 14  1  0  0  0  0
  3 15  1  0  0  0  0
  4  5  1  0  0  0  0
  4  6  1  0  0  0  0
  4  9  2  0  0  0  0
  5  7  1  0  0  0  0
  5 17  1  0  0  0  0
  5 18  1  0  0  0  0
  6  8  2  0  0  0  0
  6 10  1  0  0  0  0
  7 19  1  0  0  0  0
  7 20  1  0  0  0  0
  8 11  1  0  0  0  0
  9 21  1  0  0  0  0
 10 12  2  0  0  0  0
 10 23  1  0  0  0  0
 11 13  2  0  0  0  0
 11 24  1  0  0  0  0
 12 13  1  0  0  0  0
 13 25  1  0  0  0  0
 14 26  1  0  0  0  0
 14 27  1  0  0  0  0
 14 28  1  0  0  0  0
 15 29  1  0  0  0  0
 15 30  1  0  0  0  0
 15 31  1  0  0  0  0
 16 32  1  0  0  0  0
 16 33  1  0  0  0  0
 16 34  1  0  0  0  0
M  END
> <PUBCHEM_COMPOUND_CID>
1832

> <PUBCHEM_CONFORMER_RMSD>
0.6

> <PUBCHEM_CONFORMER_DIVERSEORDER>
1
12
16
14
18
6
8
10
17
5
2
15
13
11
7
9
4
19
3

> <PUBCHEM_MMFF94_PARTIAL_CHARGES>
20
1 -0.36
10 -0.15
11 -0.15
12 0.08
13 -0.15
14 0.27
15 0.27
16 0.28
2 0.03
21 0.15
22 0.27
23 0.15
24 0.15
25 0.15
3 -0.81
4 -0.18
5 0.18
7 0.27
8 -0.15
9 -0.3

> <PUBCHEM_EFFECTIVE_ROTOR_COUNT>
4

> <PUBCHEM_PHARMACOPHORE_FEATURES>
6
1 1 acceptor
1 2 cation
1 2 donor
1 3 cation
5 2 4 6 8 9 rings
6 6 8 10 11 12 13 rings

> <PUBCHEM_HEAVY_ATOM_COUNT>
16

> <PUBCHEM_ATOM_DEF_STEREO_COUNT>
0

> <PUBCHEM_ATOM_UDEF_STEREO_COUNT>
0

> <PUBCHEM_BOND_DEF_STEREO_COUNT>
0

> <PUBCHEM_BOND_UDEF_STEREO_COUNT>
0

> <PUBCHEM_ISOTOPIC_ATOM_COUNT>
0

> <PUBCHEM_COMPONENT_COUNT>
1

> <PUBCHEM_CACTVS_TAUTO_COUNT>
1

> <PUBCHEM_CONFORMER_ID>
0000072800000001

> <PUBCHEM_MMFF94_ENERGY>
39.2308

> <PUBCHEM_FEATURE_SELFOVERLAP>
30.537

> <PUBCHEM_SHAPE_FINGERPRINT>
10608611 8 18268143167295642547
10967382 1 18338793515589049962
11471102 20 18339644541593986462
116883 192 17326329329746438159
12654215 9 18342453776965956742
12730499 353 18272085024704851371
13134695 92 18197222657323004974
13294875 104 18200609050415932554
13583140 156 17632582617296180403
13922767 16 18412827997200477962
14250199 8 18409169952369834125
14251717 144 18410296951455845751
15279308 100 18267856203830671622
16945 1 18336248082020922482
17134986 127 18339365171219738150
18186145 218 18261660511226055715
18219364 16 18341598292389406569
20233049 118 18201152243566939804
20606313 2 18338797917783069110
20621476 13 18412270510493729101
21041028 32 17764312034318296294
21524375 3 18343867684320830395
21639500 275 18411708711564311815
22094290 62 18411699876642445546
22289505 5 18126294279302142501
22892500 29 18341336664250829359
231179 274 17846222197639305871
23402539 116 18115873069492265958
23402655 69 18335423516892577055
23558518 356 17912929374696795258
23559900 14 18117256092702665588
23598291 2 17825386547098755215
25 1 18341326781531353651
2748010 2 18121764055151462994
3060560 45 18335706082432778694
350125 39 18123736578621342178
3524813 1 18130796688870300029
43658 37 18337681793474980261
474 4 18410858754763918209
5939293 188 18410858771933211872
6333272 397 18339361864369213915
7832392 63 17903633330559809633
84936 182 18187086126456262921

> <PUBCHEM_SHAPE_MULTIPOLES>
313.44
7.15
3.17
0.83
8.34
1.23
0.06
3.54
1.77
-2.39
-0.33
0.62
0.06
0.17

> <PUBCHEM_SHAPE_SELFOVERLAP>
660.099

> <PUBCHEM_SHAPE_VOLUME>
180.2

> <PUBCHEM_COORDINATE_TYPE>
2
5
10

$$$$

