5321779
  -OEChem-07051213153D

 60 62  0     1  0  0  0  0  0999 V2000
   -1.6473   -3.3662    1.2339 O   0  0  0  0  0  0  0  0  0  0  0  0
   -3.2024    1.9812   -1.4632 O   0  0  0  0  0  0  0  0  0  0  0  0
    2.8241   -0.3287   -1.0029 O   0  0  0  0  0  0  0  0  0  0  0  0
    3.4296   -1.8861    0.5924 O   0  0  0  0  0  0  0  0  0  0  0  0
    0.3110    2.0635    0.2055 C   0  0  2  0  0  0  0  0  0  0  0  0
    0.5960    0.6041    0.7591 C   0  0  2  0  0  0  0  0  0  0  0  0
   -1.5109   -0.9593    1.4154 C   0  0  2  0  0  0  0  0  0  0  0  0
   -2.6426   -0.3455    0.5436 C   0  0  0  0  0  0  0  0  0  0  0  0
   -0.3814    0.0535    1.8450 C   0  0  0  0  0  0  0  0  0  0  0  0
   -1.1491    2.3913   -0.2608 C   0  0  0  0  0  0  0  0  0  0  0  0
   -1.9750    0.0192   -0.7948 C   0  0  0  0  0  0  0  0  0  0  0  0
    1.2569    2.3045   -1.0164 C   0  0  0  0  0  0  0  0  0  0  0  0
   -0.9130   -2.2328    0.7540 C   0  0  2  0  0  0  0  0  0  0  0  0
   -1.8917    1.4610   -1.2397 C   0  0  1  0  0  0  0  0  0  0  0  0
    2.0935    0.5136    1.1177 C   0  0  0  0  0  0  0  0  0  0  0  0
    2.7454    2.0768   -0.7215 C   0  0  0  0  0  0  0  0  0  0  0  0
   -0.9422   -2.2613   -0.7899 C   0  0  0  0  0  0  0  0  0  0  0  0
    3.0213    0.7247   -0.0613 C   0  0  2  0  0  0  0  0  0  0  0  0
    0.6280    3.1271    1.2985 C   0  0  0  0  0  0  0  0  0  0  0  0
   -1.3053   -0.9538   -1.4685 C   0  0  0  0  0  0  0  0  0  0  0  0
   -3.8832   -1.2773    0.5600 C   0  0  0  0  0  0  0  0  0  0  0  0
   -3.2295    0.9593    1.1707 C   0  0  0  0  0  0  0  0  0  0  0  0
   -0.7298   -0.8235   -2.8544 C   0  0  0  0  0  0  0  0  0  0  0  0
    2.6125    0.3310    2.3436 C   0  0  0  0  0  0  0  0  0  0  0  0
    3.0663   -1.5894   -0.5377 C   0  0  0  0  0  0  0  0  0  0  0  0
    2.8191   -2.5868   -1.6286 C   0  0  0  0  0  0  0  0  0  0  0  0
    0.5208   -0.0770   -0.0851 H   0  0  0  0  0  0  0  0  0  0  0  0
   -1.9699   -1.2662    2.3680 H   0  0  0  0  0  0  0  0  0  0  0  0
    0.1903   -0.5273    2.5778 H   0  0  0  0  0  0  0  0  0  0  0  0
   -0.7958    0.8736    2.4359 H   0  0  0  0  0  0  0  0  0  0  0  0
   -1.0697    3.3406   -0.8210 H   0  0  0  0  0  0  0  0  0  0  0  0
   -1.7623    2.7582    0.5583 H   0  0  0  0  0  0  0  0  0  0  0  0
    1.1368    3.3279   -1.3943 H   0  0  0  0  0  0  0  0  0  0  0  0
    0.9654    1.6397   -1.8382 H   0  0  0  0  0  0  0  0  0  0  0  0
    0.1148   -2.3867    1.1018 H   0  0  0  0  0  0  0  0  0  0  0  0
   -1.3813    1.5489   -2.2018 H   0  0  0  0  0  0  0  0  0  0  0  0
    3.2961    2.1419   -1.6679 H   0  0  0  0  0  0  0  0  0  0  0  0
    3.1188    2.8846   -0.0811 H   0  0  0  0  0  0  0  0  0  0  0  0
   -1.6133   -3.0443   -1.1650 H   0  0  0  0  0  0  0  0  0  0  0  0
    0.0599   -2.5582   -1.1163 H   0  0  0  0  0  0  0  0  0  0  0  0
    4.0775    0.7117    0.2388 H   0  0  0  0  0  0  0  0  0  0  0  0
    0.4870    4.1415    0.9062 H   0  0  0  0  0  0  0  0  0  0  0  0
   -0.0355    3.0168    2.1629 H   0  0  0  0  0  0  0  0  0  0  0  0
    1.6545    3.0742    1.6703 H   0  0  0  0  0  0  0  0  0  0  0  0
   -4.1229   -1.6356    1.5670 H   0  0  0  0  0  0  0  0  0  0  0  0
   -4.7678   -0.7598    0.1675 H   0  0  0  0  0  0  0  0  0  0  0  0
   -3.7473   -2.1421   -0.0946 H   0  0  0  0  0  0  0  0  0  0  0  0
   -3.8697    0.6583    2.0172 H   0  0  0  0  0  0  0  0  0  0  0  0
   -2.5232    1.5924    1.6938 H   0  0  0  0  0  0  0  0  0  0  0  0
   -3.9173    1.5268    0.5449 H   0  0  0  0  0  0  0  0  0  0  0  0
    0.3249   -0.5392   -2.8085 H   0  0  0  0  0  0  0  0  0  0  0  0
   -1.2704   -0.0988   -3.4690 H   0  0  0  0  0  0  0  0  0  0  0  0
   -0.8046   -1.7797   -3.3846 H   0  0  0  0  0  0  0  0  0  0  0  0
    3.6870    0.3071    2.4976 H   0  0  0  0  0  0  0  0  0  0  0  0
    2.0042    0.2319    3.2335 H   0  0  0  0  0  0  0  0  0  0  0  0
   -2.4950   -3.4254    0.7684 H   0  0  0  0  0  0  0  0  0  0  0  0
   -3.1089    2.8952   -1.7815 H   0  0  0  0  0  0  0  0  0  0  0  0
    3.7601   -2.8043   -2.1391 H   0  0  0  0  0  0  0  0  0  0  0  0
    2.0943   -2.2038   -2.3510 H   0  0  0  0  0  0  0  0  0  0  0  0
    2.4098   -3.5026   -1.1938 H   0  0  0  0  0  0  0  0  0  0  0  0
  1 13  1  0  0  0  0
  1 56  1  0  0  0  0
  2 14  1  0  0  0  0
  2 57  1  0  0  0  0
  3 18  1  0  0  0  0
  3 25  1  0  0  0  0
  4 25  2  0  0  0  0
  5  6  1  0  0  0  0
  5 10  1  0  0  0  0
  5 12  1  0  0  0  0
  5 19  1  0  0  0  0
  6  9  1  0  0  0  0
  6 15  1  0  0  0  0
  6 27  1  0  0  0  0
  7  8  1  0  0  0  0
  7  9  1  0  0  0  0
  7 13  1  0  0  0  0
  7 28  1  0  0  0  0
  8 11  1  0  0  0  0
  8 21  1  0  0  0  0
  8 22  1  0  0  0  0
  9 29  1  0  0  0  0
  9 30  1  0  0  0  0
 10 14  1  0  0  0  0
 10 31  1  0  0  0  0
 10 32  1  0  0  0  0
 11 14  1  0  0  0  0
 11 20  2  0  0  0  0
 12 16  1  0  0  0  0
 12 33  1  0  0  0  0
 12 34  1  0  0  0  0
 13 17  1  0  0  0  0
 13 35  1  0  0  0  0
 14 36  1  0  0  0  0
 15 18  1  0  0  0  0
 15 24  2  0  0  0  0
 16 18  1  0  0  0  0
 16 37  1  0  0  0  0
 16 38  1  0  0  0  0
 17 20  1  0  0  0  0
 17 39  1  0  0  0  0
 17 40  1  0  0  0  0
 18 41  1  0  0  0  0
 19 42  1  0  0  0  0
 19 43  1  0  0  0  0
 19 44  1  0  0  0  0
 20 23  1  0  0  0  0
 21 45  1  0  0  0  0
 21 46  1  0  0  0  0
 21 47  1  0  0  0  0
 22 48  1  0  0  0  0
 22 49  1  0  0  0  0
 22 50  1  0  0  0  0
 23 51  1  0  0  0  0
 23 52  1  0  0  0  0
 23 53  1  0  0  0  0
 24 54  1  0  0  0  0
 24 55  1  0  0  0  0
 25 26  1  0  0  0  0
 26 58  1  0  0  0  0
 26 59  1  0  0  0  0
 26 60  1  0  0  0  0
M  END
> <PUBCHEM_COMPOUND_CID>
5321779

> <PUBCHEM_CONFORMER_RMSD>
0.8

> <PUBCHEM_CONFORMER_DIVERSEORDER>
1
2

> <PUBCHEM_MMFF94_PARTIAL_CHARGES>
21
1 -0.68
11 -0.28
13 0.28
14 0.42
15 -0.28
17 0.14
18 0.42
2 -0.68
20 -0.28
23 0.14
24 -0.3
25 0.66
26 0.06
3 -0.43
4 -0.57
54 0.15
55 0.15
56 0.4
57 0.4
6 0.14
8 0.14

> <PUBCHEM_EFFECTIVE_ROTOR_COUNT>
3.8

> <PUBCHEM_PHARMACOPHORE_FEATURES>
8
1 1 acceptor
1 1 donor
1 2 acceptor
1 2 donor
1 4 acceptor
3 8 21 22 hydrophobe
6 5 6 12 15 16 18 rings
6 7 8 11 13 17 20 rings

> <PUBCHEM_HEAVY_ATOM_COUNT>
26

> <PUBCHEM_ATOM_DEF_STEREO_COUNT>
6

> <PUBCHEM_ATOM_UDEF_STEREO_COUNT>
0

> <PUBCHEM_BOND_DEF_STEREO_COUNT>
0

> <PUBCHEM_BOND_UDEF_STEREO_COUNT>
0

> <PUBCHEM_ISOTOPIC_ATOM_COUNT>
0

> <PUBCHEM_COMPONENT_COUNT>
1

> <PUBCHEM_CACTVS_TAUTO_COUNT>
1

> <PUBCHEM_CONFORMER_ID>
0051343300000001

> <PUBCHEM_MMFF94_ENERGY>
122.6778

> <PUBCHEM_FEATURE_SELFOVERLAP>
40.594

> <PUBCHEM_SHAPE_FINGERPRINT>
104564 63 17683516613000392452
10863032 1 18196073457408102161
12156800 1 16323916531681134586
12422481 6 17180243825418047235
12553582 1 18265621991581327572
12788726 201 18044922709422938184
128993 33 16701752634467283516
13140716 1 18265617773759860993
14178342 30 17678753236544892562
14223421 5 18125159325335116633
14251745 187 17976545236536939656
15664445 248 17410198522330409351
15881359 60 18335152980759751661
16945 1 17775283872120939857
18981168 100 17988378021392120438
19930381 70 18340760546007462035
20905425 154 17913497830966880856
23419403 2 17897445214398452765
238 59 17975718098629018438
2748010 2 18338808925694467657
35225 105 17770790305305220390
513532 50 16598784560422647293
598444 67 18342166813015721695

> <PUBCHEM_SHAPE_MULTIPOLES>
511.59
5.38
3.45
2.13
0.56
0.27
0.3
1.15
-0.27
0.64
0.28
-0.09
0.31
0.95

> <PUBCHEM_SHAPE_SELFOVERLAP>
1067.283

> <PUBCHEM_SHAPE_VOLUME>
286.2

> <PUBCHEM_COORDINATE_TYPE>
2
5
10

$$$$

