3000226
  -OEChem-07051212522D

 85 88  0     1  0  0  0  0  0999 V2000
    5.3307   -0.1455    0.0000 O   0  0  0  0  0  0  0  0  0  0  0  0
   10.4586   -1.1455    0.0000 O   0  0  0  0  0  0  0  0  0  0  0  0
    2.5357   -3.6978    0.0000 O   0  0  0  0  0  0  0  0  0  0  0  0
   10.4749    1.7665    0.0000 O   0  0  0  0  0  0  0  0  0  0  0  0
   10.8321    0.0717    0.0000 O   0  0  0  0  0  0  0  0  0  0  0  0
   10.4586   -2.8776    0.0000 O   0  0  0  0  0  0  0  0  0  0  0  0
    7.0628   -2.1455    0.0000 C   0  0  1  0  0  0  0  0  0  0  0  0
    6.1968   -1.6455    0.0000 C   0  0  2  0  0  0  0  0  0  0  0  0
    7.9288   -1.6455    0.0000 C   0  0  2  0  0  0  0  0  0  0  0  0
    5.2868   -2.1524    0.0000 C   0  0  2  0  0  0  0  0  0  0  0  0
    5.2787   -3.1940    0.0000 C   0  0  1  0  0  0  0  0  0  0  0  0
    7.9288   -0.6455    0.0000 C   0  0  1  0  0  0  0  0  0  0  0  0
    7.0789   -3.1870    0.0000 C   0  0  0  0  0  0  0  0  0  0  0  0
    6.1968   -0.6455    0.0000 C   0  0  1  0  0  0  0  0  0  0  0  0
    6.1808   -3.7148    0.0000 C   0  0  0  0  0  0  0  0  0  0  0  0
    7.0628   -0.1455    0.0000 C   0  0  0  0  0  0  0  0  0  0  0  0
    8.8750   -1.9502    0.0000 C   0  0  0  0  0  0  0  0  0  0  0  0
    4.3599   -1.5883    0.0000 C   0  0  0  0  0  0  0  0  0  0  0  0
    4.3433   -3.7437    0.0000 C   0  0  1  0  0  0  0  0  0  0  0  0
    7.7056   -2.9116    0.0000 C   0  0  0  0  0  0  0  0  0  0  0  0
    8.8750   -0.3408    0.0000 C   0  0  0  0  0  0  0  0  0  0  0  0
    9.4586   -1.1455    0.0000 C   0  0  1  0  0  0  0  0  0  0  0  0
    8.2709   -2.5852    0.0000 C   0  0  0  0  0  0  0  0  0  0  0  0
    5.2945   -1.1524    0.0000 C   0  0  0  0  0  0  0  0  0  0  0  0
    3.4120   -2.1162    0.0000 C   0  0  0  0  0  0  0  0  0  0  0  0
    3.4037   -3.2012    0.0000 C   0  0  1  0  0  0  0  0  0  0  0  0
    4.3472   -4.7437    0.0000 C   0  0  0  0  0  0  0  0  0  0  0  0
    9.1857    0.6097    0.0000 C   0  0  0  0  0  0  0  0  0  0  0  0
    8.5179    1.3540    0.0000 C   0  0  0  0  0  0  0  0  0  0  0  0
   10.1642    0.8160    0.0000 C   0  0  0  0  0  0  0  0  0  0  0  0
   10.9586   -2.0115    0.0000 C   0  0  0  0  0  0  0  0  0  0  0  0
    8.8285    2.3046    0.0000 C   0  0  0  0  0  0  0  0  0  0  0  0
   11.9586   -2.0115    0.0000 C   0  0  0  0  0  0  0  0  0  0  0  0
    8.1607    3.0489    0.0000 C   0  0  0  0  0  0  0  0  0  0  0  0
    8.4713    3.9994    0.0000 C   0  0  0  0  0  0  0  0  0  0  0  0
    7.8035    4.7437    0.0000 C   0  0  0  0  0  0  0  0  0  0  0  0
    9.4498    4.2056    0.0000 C   0  0  0  0  0  0  0  0  0  0  0  0
    6.9329   -1.2205    0.0000 H   0  0  0  0  0  0  0  0  0  0  0  0
    5.2820   -4.0440    0.0000 H   0  0  0  0  0  0  0  0  0  0  0  0
    8.0188    0.1997    0.0000 H   0  0  0  0  0  0  0  0  0  0  0  0
    7.2969   -3.7674    0.0000 H   0  0  0  0  0  0  0  0  0  0  0  0
    7.6880   -3.0715    0.0000 H   0  0  0  0  0  0  0  0  0  0  0  0
    6.1968   -0.0255    0.0000 H   0  0  0  0  0  0  0  0  0  0  0  0
    5.7835   -4.1908    0.0000 H   0  0  0  0  0  0  0  0  0  0  0  0
    6.5818   -4.1877    0.0000 H   0  0  0  0  0  0  0  0  0  0  0  0
    7.4613    0.3294    0.0000 H   0  0  0  0  0  0  0  0  0  0  0  0
    6.6643    0.3294    0.0000 H   0  0  0  0  0  0  0  0  0  0  0  0
    8.6240   -2.5172    0.0000 H   0  0  0  0  0  0  0  0  0  0  0  0
    9.4124   -2.2595    0.0000 H   0  0  0  0  0  0  0  0  0  0  0  0
    4.7681   -1.1216    0.0000 H   0  0  0  0  0  0  0  0  0  0  0  0
    3.9700   -1.1062    0.0000 H   0  0  0  0  0  0  0  0  0  0  0  0
    3.8070   -4.0547    0.0000 H   0  0  0  0  0  0  0  0  0  0  0  0
    7.2306   -3.3101    0.0000 H   0  0  0  0  0  0  0  0  0  0  0  0
    8.1041   -3.3865    0.0000 H   0  0  0  0  0  0  0  0  0  0  0  0
    8.1805   -2.5130    0.0000 H   0  0  0  0  0  0  0  0  0  0  0  0
    9.7404   -1.6978    0.0000 H   0  0  0  0  0  0  0  0  0  0  0  0
    7.6884   -2.7973    0.0000 H   0  0  0  0  0  0  0  0  0  0  0  0
    8.4830   -3.1678    0.0000 H   0  0  0  0  0  0  0  0  0  0  0  0
    8.8535   -2.3731    0.0000 H   0  0  0  0  0  0  0  0  0  0  0  0
    5.9145   -1.1572    0.0000 H   0  0  0  0  0  0  0  0  0  0  0  0
    5.2993   -0.5324    0.0000 H   0  0  0  0  0  0  0  0  0  0  0  0
    4.6745   -1.1476    0.0000 H   0  0  0  0  0  0  0  0  0  0  0  0
    3.2075   -1.5309    0.0000 H   0  0  0  0  0  0  0  0  0  0  0  0
    2.8004   -2.2176    0.0000 H   0  0  0  0  0  0  0  0  0  0  0  0
    3.4025   -3.8212    0.0000 H   0  0  0  0  0  0  0  0  0  0  0  0
    3.7272   -4.7461    0.0000 H   0  0  0  0  0  0  0  0  0  0  0  0
    4.3496   -5.3637    0.0000 H   0  0  0  0  0  0  0  0  0  0  0  0
    4.9672   -4.7413    0.0000 H   0  0  0  0  0  0  0  0  0  0  0  0
    5.3307    0.4745    0.0000 H   0  0  0  0  0  0  0  0  0  0  0  0
    2.0000   -3.3858    0.0000 H   0  0  0  0  0  0  0  0  0  0  0  0
    7.9709    1.6461    0.0000 H   0  0  0  0  0  0  0  0  0  0  0  0
    8.1353    0.8661    0.0000 H   0  0  0  0  0  0  0  0  0  0  0  0
    9.3754    2.0125    0.0000 H   0  0  0  0  0  0  0  0  0  0  0  0
    9.2111    2.7925    0.0000 H   0  0  0  0  0  0  0  0  0  0  0  0
   11.9586   -2.6315    0.0000 H   0  0  0  0  0  0  0  0  0  0  0  0
   12.5786   -2.0115    0.0000 H   0  0  0  0  0  0  0  0  0  0  0  0
   11.9586   -1.3915    0.0000 H   0  0  0  0  0  0  0  0  0  0  0  0
   11.0815    1.8943    0.0000 H   0  0  0  0  0  0  0  0  0  0  0  0
    7.5540    2.9210    0.0000 H   0  0  0  0  0  0  0  0  0  0  0  0
    8.2650    5.1577    0.0000 H   0  0  0  0  0  0  0  0  0  0  0  0
    7.3894    5.2052    0.0000 H   0  0  0  0  0  0  0  0  0  0  0  0
    7.3420    4.3296    0.0000 H   0  0  0  0  0  0  0  0  0  0  0  0
    9.5777    3.5989    0.0000 H   0  0  0  0  0  0  0  0  0  0  0  0
   10.0565    4.3334    0.0000 H   0  0  0  0  0  0  0  0  0  0  0  0
    9.3220    4.8123    0.0000 H   0  0  0  0  0  0  0  0  0  0  0  0
 14  1  1  6  0  0  0
  1 69  1  0  0  0  0
 22  2  1  1  0  0  0
  2 31  1  0  0  0  0
 26  3  1  6  0  0  0
  3 70  1  0  0  0  0
  4 30  1  0  0  0  0
  4 78  1  0  0  0  0
  5 30  2  0  0  0  0
  6 31  2  0  0  0  0
  7  8  1  0  0  0  0
  7  9  1  0  0  0  0
  7 13  1  0  0  0  0
  7 20  1  6  0  0  0
  8 10  1  0  0  0  0
  8 14  1  0  0  0  0
  8 38  1  1  0  0  0
  9 12  1  0  0  0  0
  9 17  1  0  0  0  0
  9 23  1  1  0  0  0
 10 11  1  0  0  0  0
 10 18  1  0  0  0  0
 10 24  1  1  0  0  0
 11 15  1  0  0  0  0
 11 19  1  0  0  0  0
 11 39  1  6  0  0  0
 12 16  1  0  0  0  0
 12 21  1  0  0  0  0
 12 40  1  6  0  0  0
 13 15  1  0  0  0  0
 13 41  1  0  0  0  0
 13 42  1  0  0  0  0
 14 16  1  0  0  0  0
 14 43  1  0  0  0  0
 15 44  1  0  0  0  0
 15 45  1  0  0  0  0
 16 46  1  0  0  0  0
 16 47  1  0  0  0  0
 17 22  1  0  0  0  0
 17 48  1  0  0  0  0
 17 49  1  0  0  0  0
 18 25  1  0  0  0  0
 18 50  1  0  0  0  0
 18 51  1  0  0  0  0
 19 26  1  0  0  0  0
 19 27  1  6  0  0  0
 19 52  1  0  0  0  0
 20 53  1  0  0  0  0
 20 54  1  0  0  0  0
 20 55  1  0  0  0  0
 21 22  1  0  0  0  0
 21 28  2  0  0  0  0
 22 56  1  0  0  0  0
 23 57  1  0  0  0  0
 23 58  1  0  0  0  0
 23 59  1  0  0  0  0
 24 60  1  0  0  0  0
 24 61  1  0  0  0  0
 24 62  1  0  0  0  0
 25 26  1  0  0  0  0
 25 63  1  0  0  0  0
 25 64  1  0  0  0  0
 26 65  1  0  0  0  0
 27 66  1  0  0  0  0
 27 67  1  0  0  0  0
 27 68  1  0  0  0  0
 28 29  1  0  0  0  0
 28 30  1  0  0  0  0
 29 32  1  0  0  0  0
 29 71  1  0  0  0  0
 29 72  1  0  0  0  0
 31 33  1  0  0  0  0
 32 34  1  0  0  0  0
 32 73  1  0  0  0  0
 32 74  1  0  0  0  0
 33 75  1  0  0  0  0
 33 76  1  0  0  0  0
 33 77  1  0  0  0  0
 34 35  2  0  0  0  0
 34 79  1  0  0  0  0
 35 36  1  0  0  0  0
 35 37  1  0  0  0  0
 36 80  1  0  0  0  0
 36 81  1  0  0  0  0
 36 82  1  0  0  0  0
 37 83  1  0  0  0  0
 37 84  1  0  0  0  0
 37 85  1  0  0  0  0
M  END
> <PUBCHEM_COMPOUND_CID>
3000226

> <PUBCHEM_COMPOUND_CANONICALIZED>
1

> <PUBCHEM_CACTVS_COMPLEXITY>
994

> <PUBCHEM_CACTVS_HBOND_ACCEPTOR>
6

> <PUBCHEM_CACTVS_HBOND_DONOR>
3

> <PUBCHEM_CACTVS_ROTATABLE_BOND>
6

> <PUBCHEM_CACTVS_SUBSKEYS>
AAADcfB4OAAAAAAAAAAAAAAAAAAAAYAAAAAwYMAAAAAAAGDAAAAAGgAACAAADxSggAICCAAABgCIAiDSCAAAAAAgAAAACAEAAEgAFBIAIQACUAAEgAAIMQOI4PwPgAAAAAAAAADAAAYAADAAAIAACAAAAA==

> <PUBCHEM_IUPAC_OPENEYE_NAME>
(2Z)-2-[(3R,4S,5S,8S,9S,10S,11R,13R,14S,16S)-16-acetoxy-3,11-dihydroxy-4,8,10,14-tetramethyl-2,3,4,5,6,7,9,11,12,13,15,16-dodecahydro-1H-cyclopenta[a]phenanthren-17-ylidene]-6-methyl-hept-5-enoic acid

> <PUBCHEM_IUPAC_CAS_NAME>
(2Z)-2-[(3R,4S,5S,8S,9S,10S,11R,13R,14S,16S)-16-acetyloxy-3,11-dihydroxy-4,8,10,14-tetramethyl-2,3,4,5,6,7,9,11,12,13,15,16-dodecahydro-1H-cyclopenta[a]phenanthren-17-ylidene]-6-methyl-5-heptenoic acid

> <PUBCHEM_IUPAC_NAME>
(2Z)-2-[(3R,4S,5S,8S,9S,10S,11R,13R,14S,16S)-16-acetyloxy-3,11-dihydroxy-4,8,10,14-tetramethyl-2,3,4,5,6,7,9,11,12,13,15,16-dodecahydro-1H-cyclopenta[a]phenanthren-17-ylidene]-6-methylhept-5-enoic acid

> <PUBCHEM_IUPAC_SYSTEMATIC_NAME>
(2Z)-2-[(3R,4S,5S,8S,9S,10S,11R,13R,14S,16S)-16-acetyloxy-4,8,10,14-tetramethyl-3,11-bis(oxidanyl)-2,3,4,5,6,7,9,11,12,13,15,16-dodecahydro-1H-cyclopenta[a]phenanthren-17-ylidene]-6-methyl-hept-5-enoic acid

> <PUBCHEM_IUPAC_TRADITIONAL_NAME>
(2Z)-2-[(3R,4S,5S,8S,9S,10S,11R,13R,14S,16S)-16-acetoxy-3,11-dihydroxy-4,8,10,14-tetramethyl-2,3,4,5,6,7,9,11,12,13,15,16-dodecahydro-1H-cyclopenta[a]phenanthren-17-ylidene]-6-methyl-hept-5-enoic acid

> <PUBCHEM_IUPAC_INCHI>
InChI=1S/C31H48O6/c1-17(2)9-8-10-20(28(35)36)26-22-15-24(34)27-29(5)13-12-23(33)18(3)21(29)11-14-30(27,6)31(22,7)16-25(26)37-19(4)32/h9,18,21-25,27,33-34H,8,10-16H2,1-7H3,(H,35,36)/b26-20-/t18-,21-,22-,23+,24+,25-,27-,29-,30-,31-/m0/s1

> <PUBCHEM_IUPAC_INCHIKEY>
IECPWNUMDGFDKC-MZJAQBGESA-N

> <PUBCHEM_XLOGP3_AA>
5.5

> <PUBCHEM_EXACT_MASS>
516.345089

> <PUBCHEM_MOLECULAR_FORMULA>
C31H48O6

> <PUBCHEM_MOLECULAR_WEIGHT>
516.70922

> <PUBCHEM_OPENEYE_CAN_SMILES>
CC1C2CCC3(C(C2(CCC1O)C)C(CC4C3(CC(C4=C(CCC=C(C)C)C(=O)O)OC(=O)C)C)O)C

> <PUBCHEM_OPENEYE_ISO_SMILES>
C[C@H]1[C@@H]2CC[C@]3([C@H]([C@]2(CC[C@H]1O)C)[C@@H](C[C@@H]\4[C@@]3(C[C@@H](/C4=C(/CCC=C(C)C)\C(=O)O)OC(=O)C)C)O)C

> <PUBCHEM_CACTVS_TPSA>
104

> <PUBCHEM_MONOISOTOPIC_WEIGHT>
516.345089

> <PUBCHEM_TOTAL_CHARGE>
0

> <PUBCHEM_HEAVY_ATOM_COUNT>
37

> <PUBCHEM_ATOM_DEF_STEREO_COUNT>
10

> <PUBCHEM_ATOM_UDEF_STEREO_COUNT>
0

> <PUBCHEM_BOND_DEF_STEREO_COUNT>
1

> <PUBCHEM_BOND_UDEF_STEREO_COUNT>
0

> <PUBCHEM_ISOTOPIC_ATOM_COUNT>
0

> <PUBCHEM_COMPONENT_COUNT>
1

> <PUBCHEM_CACTVS_TAUTO_COUNT>
1

> <PUBCHEM_COORDINATE_TYPE>
1
5
255

> <PUBCHEM_BONDANNOTATIONS>
14  1  6
10  24  5
11  39  6
12  40  6
19  27  6
22  2  5
26  3  6
7  20  6
8  38  5
9  23  5

$$$$

