72341
  -OEChem-07051212572D

 72 77  0     1  0  0  0  0  0999 V2000
   10.7429    1.6355    0.0000 O   0  0  0  0  0  0  0  0  0  0  0  0
   12.5168    0.6114    0.0000 O   0  0  0  0  0  0  0  0  0  0  0  0
    2.6168    3.8955    0.0000 O   0  0  0  0  0  0  0  0  0  0  0  0
    8.9988   -2.4338    0.0000 N   0  0  3  0  0  0  0  0  0  0  0  0
    7.2406    0.6112    0.0000 N   0  0  0  0  0  0  0  0  0  0  0  0
    4.4918    0.3018    0.0000 N   0  0  0  0  0  0  0  0  0  0  0  0
    7.1987   -1.4129    0.0000 C   0  0  2  0  0  0  0  0  0  0  0  0
    7.1987   -2.4546    0.0000 C   0  0  2  0  0  0  0  0  0  0  0  0
    8.9988   -1.4338    0.0000 C   0  0  1  0  0  0  0  0  0  0  0  0
    8.1048   -0.8991    0.0000 C   0  0  0  0  0  0  0  0  0  0  0  0
    8.1048   -2.9684    0.0000 C   0  0  0  0  0  0  0  0  0  0  0  0
    6.3346   -0.9096    0.0000 C   0  0  0  0  0  0  0  0  0  0  0  0
    6.3385    0.0904    0.0000 C   0  0  2  0  0  0  0  0  0  0  0  0
    6.3346   -2.9579    0.0000 C   0  0  0  0  0  0  0  0  0  0  0  0
    9.8648   -2.9338    0.0000 C   0  0  0  0  0  0  0  0  0  0  0  0
    9.8648   -0.9337    0.0000 C   0  0  0  0  0  0  0  0  0  0  0  0
   10.7308   -2.4338    0.0000 C   0  0  0  0  0  0  0  0  0  0  0  0
   10.7308   -1.4338    0.0000 C   0  0  0  0  0  0  0  0  0  0  0  0
    5.4405    0.6181    0.0000 C   0  0  0  0  0  0  0  0  0  0  0  0
    6.3385   -3.9579    0.0000 C   0  0  0  0  0  0  0  0  0  0  0  0
    5.4328    1.6181    0.0000 C   0  0  0  0  0  0  0  0  0  0  0  0
    9.8487    0.1078    0.0000 C   0  0  0  0  0  0  0  0  0  0  0  0
    7.2326    1.6528    0.0000 C   0  0  0  0  0  0  0  0  0  0  0  0
    6.3226    2.1597    0.0000 C   0  0  0  0  0  0  0  0  0  0  0  0
   11.6408   -0.9269    0.0000 C   0  0  0  0  0  0  0  0  0  0  0  0
    4.4794    1.9198    0.0000 C   0  0  0  0  0  0  0  0  0  0  0  0
   10.7468    0.6355    0.0000 C   0  0  0  0  0  0  0  0  0  0  0  0
    3.8978    1.1063    0.0000 C   0  0  0  0  0  0  0  0  0  0  0  0
   11.6488    0.1147    0.0000 C   0  0  0  0  0  0  0  0  0  0  0  0
    4.0630    2.8746    0.0000 C   0  0  0  0  0  0  0  0  0  0  0  0
    2.8596    1.1912    0.0000 C   0  0  0  0  0  0  0  0  0  0  0  0
    3.0271    2.9835    0.0000 C   0  0  0  0  0  0  0  0  0  0  0  0
    2.4214    2.1361    0.0000 C   0  0  0  0  0  0  0  0  0  0  0  0
   11.6070    2.1388    0.0000 C   0  0  0  0  0  0  0  0  0  0  0  0
   13.3809    0.1080    0.0000 C   0  0  0  0  0  0  0  0  0  0  0  0
    6.6612   -1.7219    0.0000 H   0  0  0  0  0  0  0  0  0  0  0  0
    7.2023   -3.0746    0.0000 H   0  0  0  0  0  0  0  0  0  0  0  0
    9.0053   -0.5838    0.0000 H   0  0  0  0  0  0  0  0  0  0  0  0
    8.5094   -0.4293    0.0000 H   0  0  0  0  0  0  0  0  0  0  0  0
    7.7112   -0.4201    0.0000 H   0  0  0  0  0  0  0  0  0  0  0  0
    7.7112   -3.4474    0.0000 H   0  0  0  0  0  0  0  0  0  0  0  0
    8.5094   -3.4382    0.0000 H   0  0  0  0  0  0  0  0  0  0  0  0
    5.7245   -0.7996    0.0000 H   0  0  0  0  0  0  0  0  0  0  0  0
    6.1204   -1.4914    0.0000 H   0  0  0  0  0  0  0  0  0  0  0  0
    6.8748   -0.2206    0.0000 H   0  0  0  0  0  0  0  0  0  0  0  0
    6.1204   -2.3761    0.0000 H   0  0  0  0  0  0  0  0  0  0  0  0
    5.7245   -3.0679    0.0000 H   0  0  0  0  0  0  0  0  0  0  0  0
    9.4662   -3.4087    0.0000 H   0  0  0  0  0  0  0  0  0  0  0  0
   10.2633   -3.4087    0.0000 H   0  0  0  0  0  0  0  0  0  0  0  0
   10.9429   -3.0164    0.0000 H   0  0  0  0  0  0  0  0  0  0  0  0
   11.3414   -2.3261    0.0000 H   0  0  0  0  0  0  0  0  0  0  0  0
    7.7787    0.3033    0.0000 H   0  0  0  0  0  0  0  0  0  0  0  0
    5.7185   -3.9603    0.0000 H   0  0  0  0  0  0  0  0  0  0  0  0
    6.3409   -4.5779    0.0000 H   0  0  0  0  0  0  0  0  0  0  0  0
    6.9585   -3.9555    0.0000 H   0  0  0  0  0  0  0  0  0  0  0  0
    9.3082    0.4115    0.0000 H   0  0  0  0  0  0  0  0  0  0  0  0
    7.8442    1.5514    0.0000 H   0  0  0  0  0  0  0  0  0  0  0  0
    7.4371    2.2381    0.0000 H   0  0  0  0  0  0  0  0  0  0  0  0
    6.7125    2.6417    0.0000 H   0  0  0  0  0  0  0  0  0  0  0  0
    5.9144    2.6263    0.0000 H   0  0  0  0  0  0  0  0  0  0  0  0
   12.1741   -1.2431    0.0000 H   0  0  0  0  0  0  0  0  0  0  0  0
    4.3048   -0.2893    0.0000 H   0  0  0  0  0  0  0  0  0  0  0  0
    4.4294    3.3748    0.0000 H   0  0  0  0  0  0  0  0  0  0  0  0
    2.5050    0.6826    0.0000 H   0  0  0  0  0  0  0  0  0  0  0  0
    1.8040    2.1938    0.0000 H   0  0  0  0  0  0  0  0  0  0  0  0
   11.9191    1.6031    0.0000 H   0  0  0  0  0  0  0  0  0  0  0  0
   12.1427    2.4509    0.0000 H   0  0  0  0  0  0  0  0  0  0  0  0
   11.2949    2.6746    0.0000 H   0  0  0  0  0  0  0  0  0  0  0  0
   13.0688   -0.4277    0.0000 H   0  0  0  0  0  0  0  0  0  0  0  0
   13.9166   -0.2040    0.0000 H   0  0  0  0  0  0  0  0  0  0  0  0
   13.6929    0.6438    0.0000 H   0  0  0  0  0  0  0  0  0  0  0  0
    2.0000    3.9579    0.0000 H   0  0  0  0  0  0  0  0  0  0  0  0
  1 27  1  0  0  0  0
  1 34  1  0  0  0  0
  2 29  1  0  0  0  0
  2 35  1  0  0  0  0
  3 32  1  0  0  0  0
  3 72  1  0  0  0  0
  4  9  1  0  0  0  0
  4 11  1  0  0  0  0
  4 15  1  0  0  0  0
  5 13  1  0  0  0  0
  5 23  1  0  0  0  0
  5 52  1  0  0  0  0
  6 19  1  0  0  0  0
  6 28  1  0  0  0  0
  6 62  1  0  0  0  0
  7  8  1  0  0  0  0
  7 10  1  0  0  0  0
  7 12  1  1  0  0  0
  7 36  1  0  0  0  0
  8 11  1  0  0  0  0
  8 14  1  6  0  0  0
  8 37  1  0  0  0  0
  9 10  1  0  0  0  0
  9 16  1  0  0  0  0
  9 38  1  6  0  0  0
 10 39  1  0  0  0  0
 10 40  1  0  0  0  0
 11 41  1  0  0  0  0
 11 42  1  0  0  0  0
 13 12  1  6  0  0  0
 12 43  1  0  0  0  0
 12 44  1  0  0  0  0
 13 19  1  0  0  0  0
 13 45  1  0  0  0  0
 14 20  1  0  0  0  0
 14 46  1  0  0  0  0
 14 47  1  0  0  0  0
 15 17  1  0  0  0  0
 15 48  1  0  0  0  0
 15 49  1  0  0  0  0
 16 18  1  0  0  0  0
 16 22  2  0  0  0  0
 17 18  1  0  0  0  0
 17 50  1  0  0  0  0
 17 51  1  0  0  0  0
 18 25  2  0  0  0  0
 19 21  2  0  0  0  0
 20 53  1  0  0  0  0
 20 54  1  0  0  0  0
 20 55  1  0  0  0  0
 21 24  1  0  0  0  0
 21 26  1  0  0  0  0
 22 27  1  0  0  0  0
 22 56  1  0  0  0  0
 23 24  1  0  0  0  0
 23 57  1  0  0  0  0
 23 58  1  0  0  0  0
 24 59  1  0  0  0  0
 24 60  1  0  0  0  0
 25 29  1  0  0  0  0
 25 61  1  0  0  0  0
 26 28  2  0  0  0  0
 26 30  1  0  0  0  0
 27 29  2  0  0  0  0
 28 31  1  0  0  0  0
 30 32  2  0  0  0  0
 30 63  1  0  0  0  0
 31 33  2  0  0  0  0
 31 64  1  0  0  0  0
 32 33  1  0  0  0  0
 33 65  1  0  0  0  0
 34 66  1  0  0  0  0
 34 67  1  0  0  0  0
 34 68  1  0  0  0  0
 35 69  1  0  0  0  0
 35 70  1  0  0  0  0
 35 71  1  0  0  0  0
M  END
> <PUBCHEM_COMPOUND_CID>
72341

> <PUBCHEM_COMPOUND_CANONICALIZED>
1

> <PUBCHEM_CACTVS_COMPLEXITY>
723

> <PUBCHEM_CACTVS_HBOND_ACCEPTOR>
5

> <PUBCHEM_CACTVS_HBOND_DONOR>
3

> <PUBCHEM_CACTVS_ROTATABLE_BOND>
5

> <PUBCHEM_CACTVS_SUBSKEYS>
AAADcfB7MAAAAAAAAAAAAAAAAAAAAWAAAAA8eLECAAAAAFix9AAAHgAQCAAADSzBngYyxvPJlgCgAyRiRACCiCAhIiAImaA+7JgNZuLGsZuUcCpk0BHK+Aew0PMOoEABAAASQABAgAIAACSAAAAAAAAAAA==

> <PUBCHEM_IUPAC_OPENEYE_NAME>
(1R)-1-[[(2S,3R,11bS)-3-ethyl-9,10-dimethoxy-2,3,4,6,7,11b-hexahydro-1H-benzo[a]quinolizin-2-yl]methyl]-2,3,4,9-tetrahydro-1H-pyrido[3,4-b]indol-6-ol

> <PUBCHEM_IUPAC_CAS_NAME>
(1R)-1-[[(2S,3R,11bS)-3-ethyl-9,10-dimethoxy-2,3,4,6,7,11b-hexahydro-1H-benzo[a]quinolizin-2-yl]methyl]-2,3,4,9-tetrahydro-1H-pyrido[3,4-b]indol-6-ol

> <PUBCHEM_IUPAC_NAME>
(1R)-1-[[(2S,3R,11bS)-3-ethyl-9,10-dimethoxy-2,3,4,6,7,11b-hexahydro-1H-benzo[a]quinolizin-2-yl]methyl]-2,3,4,9-tetrahydro-1H-pyrido[3,4-b]indol-6-ol

> <PUBCHEM_IUPAC_SYSTEMATIC_NAME>
(1R)-1-[[(2S,3R,11bS)-3-ethyl-9,10-dimethoxy-2,3,4,6,7,11b-hexahydro-1H-benzo[a]quinolizin-2-yl]methyl]-2,3,4,9-tetrahydro-1H-pyrido[3,4-b]indol-6-ol

> <PUBCHEM_IUPAC_TRADITIONAL_NAME>
(1R)-1-[[(2S,3R,11bS)-3-ethyl-9,10-dimethoxy-2,3,4,6,7,11b-hexahydro-1H-benzo[a]quinolizin-2-yl]methyl]-2,3,4,9-tetrahydro-1H-$b-carbolin-6-ol

> <PUBCHEM_IUPAC_INCHI>
InChI=1S/C29H37N3O3/c1-4-17-16-32-10-8-18-13-27(34-2)28(35-3)15-22(18)26(32)12-19(17)11-25-29-21(7-9-30-25)23-14-20(33)5-6-24(23)31-29/h5-6,13-15,17,19,25-26,30-31,33H,4,7-12,16H2,1-3H3/t17-,19-,25+,26-/m0/s1

> <PUBCHEM_IUPAC_INCHIKEY>
JRVWIILYWSBUMC-PRUVNFMMSA-N

> <PUBCHEM_XLOGP3_AA>
4.6

> <PUBCHEM_EXACT_MASS>
475.283492

> <PUBCHEM_MOLECULAR_FORMULA>
C29H37N3O3

> <PUBCHEM_MOLECULAR_WEIGHT>
475.62238

> <PUBCHEM_OPENEYE_CAN_SMILES>
CCC1CN2CCC3=CC(=C(C=C3C2CC1CC4C5=C(CCN4)C6=C(N5)C=CC(=C6)O)OC)OC

> <PUBCHEM_OPENEYE_ISO_SMILES>
CC[C@H]1CN2CCC3=CC(=C(C=C3[C@@H]2C[C@@H]1C[C@@H]4C5=C(CCN4)C6=C(N5)C=CC(=C6)O)OC)OC

> <PUBCHEM_CACTVS_TPSA>
69.8

> <PUBCHEM_MONOISOTOPIC_WEIGHT>
475.283492

> <PUBCHEM_TOTAL_CHARGE>
0

> <PUBCHEM_HEAVY_ATOM_COUNT>
35

> <PUBCHEM_ATOM_DEF_STEREO_COUNT>
4

> <PUBCHEM_ATOM_UDEF_STEREO_COUNT>
0

> <PUBCHEM_BOND_DEF_STEREO_COUNT>
0

> <PUBCHEM_BOND_UDEF_STEREO_COUNT>
0

> <PUBCHEM_ISOTOPIC_ATOM_COUNT>
0

> <PUBCHEM_COMPONENT_COUNT>
1

> <PUBCHEM_CACTVS_TAUTO_COUNT>
29

> <PUBCHEM_COORDINATE_TYPE>
1
5
255

> <PUBCHEM_BONDANNOTATIONS>
13  12  6
16  18  8
16  22  8
18  25  8
19  21  8
21  26  8
22  27  8
25  29  8
26  28  8
26  30  8
27  29  8
28  31  8
30  32  8
31  33  8
32  33  8
6  19  8
6  28  8
7  12  5
8  14  6
9  38  6

$$$$

