13134
  -OEChem-06261207482D

 14 13  0     0  0  0  0  0  0999 V2000
    3.7320   -0.2685    0.0000 P   0  0  0  0  0  0  0  0  0  0  0  0
    4.5981    0.2315    0.0000 O   0  0  0  0  0  0  0  0  0  0  0  0
    2.8660   -0.7685    0.0000 O   0  0  0  0  0  0  0  0  0  0  0  0
    3.2320    0.5976    0.0000 O   0  0  0  0  0  0  0  0  0  0  0  0
    4.2320   -1.1345    0.0000 O   0  0  0  0  0  0  0  0  0  0  0  0
    2.0000   -0.2685    0.0000 C   0  0  0  0  0  0  0  0  0  0  0  0
    5.4641   -0.2685    0.0000 C   0  0  0  0  0  0  0  0  0  0  0  0
    2.3100    0.2685    0.0000 H   0  0  0  0  0  0  0  0  0  0  0  0
    1.4631    0.0415    0.0000 H   0  0  0  0  0  0  0  0  0  0  0  0
    1.6900   -0.8054    0.0000 H   0  0  0  0  0  0  0  0  0  0  0  0
    5.1541   -0.8054    0.0000 H   0  0  0  0  0  0  0  0  0  0  0  0
    6.0010   -0.5785    0.0000 H   0  0  0  0  0  0  0  0  0  0  0  0
    5.7741    0.2685    0.0000 H   0  0  0  0  0  0  0  0  0  0  0  0
    3.5420    1.1345    0.0000 H   0  0  0  0  0  0  0  0  0  0  0  0
  1  2  1  0  0  0  0
  1  3  1  0  0  0  0
  1  4  1  0  0  0  0
  1  5  2  0  0  0  0
  2  7  1  0  0  0  0
  3  6  1  0  0  0  0
  4 14  1  0  0  0  0
  6  8  1  0  0  0  0
  6  9  1  0  0  0  0
  6 10  1  0  0  0  0
  7 11  1  0  0  0  0
  7 12  1  0  0  0  0
  7 13  1  0  0  0  0
M  END
> <PUBCHEM_COMPOUND_CID>
13134

> <PUBCHEM_COMPOUND_CANONICALIZED>
1

> <PUBCHEM_CACTVS_COMPLEXITY>
81.7

> <PUBCHEM_CACTVS_HBOND_ACCEPTOR>
4

> <PUBCHEM_CACTVS_HBOND_DONOR>
1

> <PUBCHEM_CACTVS_ROTATABLE_BOND>
2

> <PUBCHEM_CACTVS_SUBSKEYS>
AAADcYBAOAIAAAAAAAAAAAAAAAAAAAAAAAAAAAAAAAAAAAAAAAAAEgAACCAAAAAAAAICAAAAARAAQAAAAIAAAAAAAAAAAAAAAAAAAAAAAAAAAAAAAAAAAAAAAAAAAAAAAAAAAAAAAAAAAAAAAAAAAAAAAA==

> <PUBCHEM_IUPAC_OPENEYE_NAME>
dimethyl hydrogen phosphate

> <PUBCHEM_IUPAC_CAS_NAME>
dimethyl hydrogen phosphate

> <PUBCHEM_IUPAC_NAME>
dimethyl hydrogen phosphate

> <PUBCHEM_IUPAC_SYSTEMATIC_NAME>
dimethyl hydrogen phosphate

> <PUBCHEM_IUPAC_TRADITIONAL_NAME>
dimethyl hydrogen phosphate

> <PUBCHEM_IUPAC_INCHI>
InChI=1S/C2H7O4P/c1-5-7(3,4)6-2/h1-2H3,(H,3,4)

> <PUBCHEM_IUPAC_INCHIKEY>
KKUKTXOBAWVSHC-UHFFFAOYSA-N

> <PUBCHEM_XLOGP3>
-1.2

> <PUBCHEM_EXACT_MASS>
126.008195

> <PUBCHEM_MOLECULAR_FORMULA>
C2H7O4P

> <PUBCHEM_MOLECULAR_WEIGHT>
126.048342

> <PUBCHEM_OPENEYE_CAN_SMILES>
COP(=O)(O)OC

> <PUBCHEM_OPENEYE_ISO_SMILES>
COP(=O)(O)OC

> <PUBCHEM_CACTVS_TPSA>
55.8

> <PUBCHEM_MONOISOTOPIC_WEIGHT>
126.008195

> <PUBCHEM_TOTAL_CHARGE>
0

> <PUBCHEM_HEAVY_ATOM_COUNT>
7

> <PUBCHEM_ATOM_DEF_STEREO_COUNT>
0

> <PUBCHEM_ATOM_UDEF_STEREO_COUNT>
0

> <PUBCHEM_BOND_DEF_STEREO_COUNT>
0

> <PUBCHEM_BOND_UDEF_STEREO_COUNT>
0

> <PUBCHEM_ISOTOPIC_ATOM_COUNT>
0

> <PUBCHEM_COMPONENT_COUNT>
1

> <PUBCHEM_CACTVS_TAUTO_COUNT>
1

> <PUBCHEM_COORDINATE_TYPE>
1
5
255

$$$$

