47205493
  -OEChem-06241222582D

 31 32  0     1  0  0  0  0  0999 V2000
    4.2601    0.5654    0.0000 S   0  0  0  0  0  0  0  0  0  0  0  0
    7.4223   -1.3127    0.0000 O   0  0  0  0  0  0  0  0  0  0  0  0
    8.9086    0.0255    0.0000 N   0  0  0  0  0  0  0  0  0  0  0  0
    6.2633   -0.0255    0.0000 N   0  0  0  0  0  0  0  0  0  0  0  0
   10.5266    0.0255    0.0000 N   0  0  0  0  0  0  0  0  0  0  0  0
    3.7601   -0.9734    0.0000 N   0  0  0  0  0  0  0  0  0  0  0  0
    7.9575    0.3346    0.0000 C   0  0  3  0  0  0  0  0  0  0  0  0
    7.2144   -0.3346    0.0000 C   0  0  0  0  0  0  0  0  0  0  0  0
    7.7496    1.3127    0.0000 C   0  0  0  0  0  0  0  0  0  0  0  0
    5.5202   -0.6947    0.0000 C   0  0  0  0  0  0  0  0  0  0  0  0
    9.2176   -0.9255    0.0000 C   0  0  0  0  0  0  0  0  0  0  0  0
    9.7176    0.6133    0.0000 C   0  0  0  0  0  0  0  0  0  0  0  0
    4.5691   -0.3857    0.0000 C   0  0  0  0  0  0  0  0  0  0  0  0
   10.2176   -0.9255    0.0000 C   0  0  0  0  0  0  0  0  0  0  0  0
    2.9511   -0.3857    0.0000 C   0  0  0  0  0  0  0  0  0  0  0  0
    3.2601    0.5654    0.0000 C   0  0  0  0  0  0  0  0  0  0  0  0
    2.0000   -0.6947    0.0000 C   0  0  0  0  0  0  0  0  0  0  0  0
    8.4182    0.7494    0.0000 H   0  0  0  0  0  0  0  0  0  0  0  0
    8.3560    1.4416    0.0000 H   0  0  0  0  0  0  0  0  0  0  0  0
    7.6207    1.9192    0.0000 H   0  0  0  0  0  0  0  0  0  0  0  0
    7.1431    1.1838    0.0000 H   0  0  0  0  0  0  0  0  0  0  0  0
    5.2291   -1.2421    0.0000 H   0  0  0  0  0  0  0  0  0  0  0  0
    6.0087   -1.0764    0.0000 H   0  0  0  0  0  0  0  0  0  0  0  0
    6.1344    0.5809    0.0000 H   0  0  0  0  0  0  0  0  0  0  0  0
    8.8531   -1.4271    0.0000 H   0  0  0  0  0  0  0  0  0  0  0  0
    9.7176    1.2333    0.0000 H   0  0  0  0  0  0  0  0  0  0  0  0
   10.5820   -1.4271    0.0000 H   0  0  0  0  0  0  0  0  0  0  0  0
    2.8956    1.0670    0.0000 H   0  0  0  0  0  0  0  0  0  0  0  0
    1.8084   -0.1050    0.0000 H   0  0  0  0  0  0  0  0  0  0  0  0
    1.4103   -0.8863    0.0000 H   0  0  0  0  0  0  0  0  0  0  0  0
    2.1916   -1.2843    0.0000 H   0  0  0  0  0  0  0  0  0  0  0  0
  1 13  1  0  0  0  0
  1 16  1  0  0  0  0
  2  8  2  0  0  0  0
  3  7  1  0  0  0  0
  3 11  1  0  0  0  0
  3 12  1  0  0  0  0
  4  8  1  0  0  0  0
  4 10  1  0  0  0  0
  4 24  1  0  0  0  0
  5 12  2  0  0  0  0
  5 14  1  0  0  0  0
  6 13  2  0  0  0  0
  6 15  1  0  0  0  0
  7  8  1  0  0  0  0
  7  9  1  0  0  0  0
  7 18  1  0  0  0  0
  9 19  1  0  0  0  0
  9 20  1  0  0  0  0
  9 21  1  0  0  0  0
 10 13  1  0  0  0  0
 10 22  1  0  0  0  0
 10 23  1  0  0  0  0
 11 14  2  0  0  0  0
 11 25  1  0  0  0  0
 12 26  1  0  0  0  0
 14 27  1  0  0  0  0
 15 16  2  0  0  0  0
 15 17  1  0  0  0  0
 16 28  1  0  0  0  0
 17 29  1  0  0  0  0
 17 30  1  0  0  0  0
 17 31  1  0  0  0  0
M  END
> <PUBCHEM_COMPOUND_CID>
47205493

> <PUBCHEM_COMPOUND_CANONICALIZED>
1

> <PUBCHEM_CACTVS_COMPLEXITY>
276

> <PUBCHEM_CACTVS_HBOND_ACCEPTOR>
4

> <PUBCHEM_CACTVS_HBOND_DONOR>
1

> <PUBCHEM_CACTVS_ROTATABLE_BOND>
4

> <PUBCHEM_CACTVS_SUBSKEYS>
AAADccBzoABAAAAAAAAAAAAAAAAAAWLAAAAAAAAAAAAAAAAB4AAAHgQQAAAACCjF1gSvkRfMEAisARV3dAAA8K1RGrgJQJWYMACASAAgCSAUAAAIFgKgACAAAAAAAAAAAAAAAAAAAAAAAAAAAAAAAAAAAA==

> <PUBCHEM_IUPAC_OPENEYE_NAME>
2-imidazol-1-yl-N-[(4-methylthiazol-2-yl)methyl]propanamide

> <PUBCHEM_IUPAC_CAS_NAME>
2-(1-imidazolyl)-N-[(4-methyl-2-thiazolyl)methyl]propanamide

> <PUBCHEM_IUPAC_NAME>
2-imidazol-1-yl-N-[(4-methyl-1,3-thiazol-2-yl)methyl]propanamide

> <PUBCHEM_IUPAC_SYSTEMATIC_NAME>
2-imidazol-1-yl-N-[(4-methyl-1,3-thiazol-2-yl)methyl]propanamide

> <PUBCHEM_IUPAC_TRADITIONAL_NAME>
2-imidazol-1-yl-N-[(4-methylthiazol-2-yl)methyl]propionamide

> <PUBCHEM_IUPAC_INCHI>
InChI=1S/C11H14N4OS/c1-8-6-17-10(14-8)5-13-11(16)9(2)15-4-3-12-7-15/h3-4,6-7,9H,5H2,1-2H3,(H,13,16)

> <PUBCHEM_IUPAC_INCHIKEY>
PEOPLBGOXZKJEM-UHFFFAOYSA-N

> <PUBCHEM_XLOGP3_AA>
0.8

> <PUBCHEM_EXACT_MASS>
250.088832

> <PUBCHEM_MOLECULAR_FORMULA>
C11H14N4OS

> <PUBCHEM_MOLECULAR_WEIGHT>
250.32006

> <PUBCHEM_OPENEYE_CAN_SMILES>
CC1=CSC(=N1)CNC(=O)C(C)N2C=CN=C2

> <PUBCHEM_OPENEYE_ISO_SMILES>
CC1=CSC(=N1)CNC(=O)C(C)N2C=CN=C2

> <PUBCHEM_CACTVS_TPSA>
88

> <PUBCHEM_MONOISOTOPIC_WEIGHT>
250.088832

> <PUBCHEM_TOTAL_CHARGE>
0

> <PUBCHEM_HEAVY_ATOM_COUNT>
17

> <PUBCHEM_ATOM_DEF_STEREO_COUNT>
0

> <PUBCHEM_ATOM_UDEF_STEREO_COUNT>
1

> <PUBCHEM_BOND_DEF_STEREO_COUNT>
0

> <PUBCHEM_BOND_UDEF_STEREO_COUNT>
0

> <PUBCHEM_ISOTOPIC_ATOM_COUNT>
0

> <PUBCHEM_COMPONENT_COUNT>
1

> <PUBCHEM_CACTVS_TAUTO_COUNT>
2

> <PUBCHEM_COORDINATE_TYPE>
1
5
255

> <PUBCHEM_BONDANNOTATIONS>
1  13  8
1  16  8
11  14  8
15  16  8
3  11  8
3  12  8
5  12  8
5  14  8
6  13  8
6  15  8
7  9  3

$$$$

