252289
  -OEChem-07051213063D

 49 52  0     1  0  0  0  0  0999 V2000
    5.2073   -1.1397    0.1319 O   0  0  0  0  0  0  0  0  0  0  0  0
   -3.9174   -1.3541    0.3043 O   0  0  0  0  0  0  0  0  0  0  0  0
   -5.7923   -0.1125    0.2702 O   0  0  0  0  0  0  0  0  0  0  0  0
    0.6431    0.8021   -0.2010 C   0  0  1  0  0  0  0  0  0  0  0  0
    2.0664    0.7212    0.3604 C   0  0  1  0  0  0  0  0  0  0  0  0
   -0.1698   -0.4230    0.3256 C   0  0  1  0  0  0  0  0  0  0  0  0
    2.7982   -0.5702   -0.0546 C   0  0  2  0  0  0  0  0  0  0  0  0
   -1.6585   -0.3884   -0.1699 C   0  0  2  0  0  0  0  0  0  0  0  0
    0.5607   -1.7680    0.0696 C   0  0  0  0  0  0  0  0  0  0  0  0
    2.0299   -1.7626    0.5304 C   0  0  0  0  0  0  0  0  0  0  0  0
   -2.2831    0.9610    0.2596 C   0  0  1  0  0  0  0  0  0  0  0  0
   -0.0388    2.1210    0.1894 C   0  0  0  0  0  0  0  0  0  0  0  0
    3.0654    1.8231    0.0175 C   0  0  0  0  0  0  0  0  0  0  0  0
    4.1674   -0.3027    0.5994 C   0  0  2  0  0  0  0  0  0  0  0  0
   -1.4968    2.1710   -0.2586 C   0  0  0  0  0  0  0  0  0  0  0  0
    4.4367    1.1865    0.3076 C   0  0  0  0  0  0  0  0  0  0  0  0
    2.9513   -0.7579   -1.5857 C   0  0  0  0  0  0  0  0  0  0  0  0
   -2.4961   -1.4648    0.5398 C   0  0  0  0  0  0  0  0  0  0  0  0
   -1.7554   -0.6195   -1.6978 C   0  0  0  0  0  0  0  0  0  0  0  0
   -3.7516    1.0504   -0.1347 C   0  0  0  0  0  0  0  0  0  0  0  0
   -4.5664   -0.1729    0.1965 C   0  0  0  0  0  0  0  0  0  0  0  0
    0.6886    0.7708   -1.2949 H   0  0  0  0  0  0  0  0  0  0  0  0
    1.9729    0.7291    1.4596 H   0  0  0  0  0  0  0  0  0  0  0  0
   -0.2057   -0.3193    1.4222 H   0  0  0  0  0  0  0  0  0  0  0  0
    0.5241   -2.0295   -0.9918 H   0  0  0  0  0  0  0  0  0  0  0  0
    0.0465   -2.5761    0.6022 H   0  0  0  0  0  0  0  0  0  0  0  0
    2.0508   -1.7225    1.6273 H   0  0  0  0  0  0  0  0  0  0  0  0
    2.5074   -2.7084    0.2475 H   0  0  0  0  0  0  0  0  0  0  0  0
   -2.2492    1.0078    1.3595 H   0  0  0  0  0  0  0  0  0  0  0  0
    0.4964    2.9684   -0.2544 H   0  0  0  0  0  0  0  0  0  0  0  0
    0.0061    2.2550    1.2779 H   0  0  0  0  0  0  0  0  0  0  0  0
    2.9084    2.7219    0.6225 H   0  0  0  0  0  0  0  0  0  0  0  0
    2.9952    2.1159   -1.0359 H   0  0  0  0  0  0  0  0  0  0  0  0
    4.1046   -0.4379    1.6871 H   0  0  0  0  0  0  0  0  0  0  0  0
   -1.9511    3.0963    0.1165 H   0  0  0  0  0  0  0  0  0  0  0  0
   -1.5446    2.2245   -1.3526 H   0  0  0  0  0  0  0  0  0  0  0  0
    5.1165    1.3210   -0.5412 H   0  0  0  0  0  0  0  0  0  0  0  0
    4.9125    1.6601    1.1737 H   0  0  0  0  0  0  0  0  0  0  0  0
    3.4690   -1.6986   -1.8069 H   0  0  0  0  0  0  0  0  0  0  0  0
    1.9923   -0.7924   -2.1087 H   0  0  0  0  0  0  0  0  0  0  0  0
    3.5357    0.0442   -2.0473 H   0  0  0  0  0  0  0  0  0  0  0  0
   -2.2099   -2.4670    0.2033 H   0  0  0  0  0  0  0  0  0  0  0  0
   -2.3493   -1.4384    1.6262 H   0  0  0  0  0  0  0  0  0  0  0  0
   -1.3690   -1.6047   -1.9774 H   0  0  0  0  0  0  0  0  0  0  0  0
   -2.7887   -0.5906   -2.0575 H   0  0  0  0  0  0  0  0  0  0  0  0
   -1.1966    0.1263   -2.2691 H   0  0  0  0  0  0  0  0  0  0  0  0
   -3.8603    1.2370   -1.2091 H   0  0  0  0  0  0  0  0  0  0  0  0
   -4.2051    1.8995    0.3916 H   0  0  0  0  0  0  0  0  0  0  0  0
    4.9428   -2.0590    0.3057 H   0  0  0  0  0  0  0  0  0  0  0  0
  1 14  1  0  0  0  0
  1 49  1  0  0  0  0
  2 18  1  0  0  0  0
  2 21  1  0  0  0  0
  3 21  2  0  0  0  0
  4  5  1  0  0  0  0
  4  6  1  0  0  0  0
  4 12  1  0  0  0  0
  4 22  1  0  0  0  0
  5  7  1  0  0  0  0
  5 13  1  0  0  0  0
  5 23  1  0  0  0  0
  6  8  1  0  0  0  0
  6  9  1  0  0  0  0
  6 24  1  0  0  0  0
  7 10  1  0  0  0  0
  7 14  1  0  0  0  0
  7 17  1  0  0  0  0
  8 11  1  0  0  0  0
  8 18  1  0  0  0  0
  8 19  1  0  0  0  0
  9 10  1  0  0  0  0
  9 25  1  0  0  0  0
  9 26  1  0  0  0  0
 10 27  1  0  0  0  0
 10 28  1  0  0  0  0
 11 15  1  0  0  0  0
 11 20  1  0  0  0  0
 11 29  1  0  0  0  0
 12 15  1  0  0  0  0
 12 30  1  0  0  0  0
 12 31  1  0  0  0  0
 13 16  1  0  0  0  0
 13 32  1  0  0  0  0
 13 33  1  0  0  0  0
 14 16  1  0  0  0  0
 14 34  1  0  0  0  0
 15 35  1  0  0  0  0
 15 36  1  0  0  0  0
 16 37  1  0  0  0  0
 16 38  1  0  0  0  0
 17 39  1  0  0  0  0
 17 40  1  0  0  0  0
 17 41  1  0  0  0  0
 18 42  1  0  0  0  0
 18 43  1  0  0  0  0
 19 44  1  0  0  0  0
 19 45  1  0  0  0  0
 19 46  1  0  0  0  0
 20 21  1  0  0  0  0
 20 47  1  0  0  0  0
 20 48  1  0  0  0  0
M  END
> <PUBCHEM_COMPOUND_CID>
252289

> <PUBCHEM_CONFORMER_RMSD>
0.6

> <PUBCHEM_CONFORMER_DIVERSEORDER>
1

> <PUBCHEM_MMFF94_PARTIAL_CHARGES>
8
1 -0.68
14 0.28
18 0.28
2 -0.43
20 0.06
21 0.66
3 -0.57
49 0.4

> <PUBCHEM_EFFECTIVE_ROTOR_COUNT>
2

> <PUBCHEM_PHARMACOPHORE_FEATURES>
7
1 1 acceptor
1 1 donor
1 3 acceptor
5 5 7 13 14 16 rings
6 2 8 11 18 20 21 rings
6 4 5 6 7 9 10 rings
6 4 6 8 11 12 15 rings

> <PUBCHEM_HEAVY_ATOM_COUNT>
21

> <PUBCHEM_ATOM_DEF_STEREO_COUNT>
7

> <PUBCHEM_ATOM_UDEF_STEREO_COUNT>
0

> <PUBCHEM_BOND_DEF_STEREO_COUNT>
0

> <PUBCHEM_BOND_UDEF_STEREO_COUNT>
0

> <PUBCHEM_ISOTOPIC_ATOM_COUNT>
0

> <PUBCHEM_COMPONENT_COUNT>
1

> <PUBCHEM_CACTVS_TAUTO_COUNT>
1

> <PUBCHEM_CONFORMER_ID>
0003D98100000001

> <PUBCHEM_MMFF94_ENERGY>
77.7659

> <PUBCHEM_FEATURE_SELFOVERLAP>
35.613

> <PUBCHEM_SHAPE_FINGERPRINT>
10618630 7 18412824672579390117
10967382 1 18411419492439774040
11132069 177 18412261727147633593
11471102 20 18411421691489422744
12011746 2 18412548721653035967
12236239 1 17894632543807013099
12403259 226 18341337798745096492
12403259 415 18131079229352178372
12403814 3 18113623382675539037
12596599 1 18041821944460793523
128620 24 18113620088156002476
13140716 1 18267024959796637482
13214271 11 18409451366990077895
13221675 6 18408323310645577783
13224815 77 18410855468829048096
13288520 33 18411136982935153102
13533116 47 17703799166427629154
13675066 3 18260833678608575224
13862211 1 18411422804302865747
14115302 16 17846489314366415622
14178342 30 18122072159046774120
14223421 5 18267867353080436332
14341114 176 18342172267576584922
14787075 74 18338517430643522905
14790565 3 18338509755579650121
15196674 1 18411419492424008264
15375358 24 18412263921865437347
15536298 74 18334856112694235088
15788980 27 16272211890195414659
15848702 151 17749660887369979111
16945 1 18194395817201627096
17349148 13 17918278662127228346
17492 89 18196377137313758930
1813 80 17203325615416830341
18186145 218 18059864956421683430
18522853 276 18409449180514179097
19141452 34 17967533445988884223
19591789 44 18338800013637503811
200 152 18187368726888081705
20261772 1 18114186319432906542
20510252 161 18188208813901654257
20645477 70 18259982699532170934
21267235 1 18411411830244647667
21279426 13 18268432524254863821
21421861 104 17987242316069796994
23402539 116 18335147461822027334
23557571 272 18261388996526541156
23559900 14 18265337385816051242
26918003 58 18202004313074726003
2748010 2 18410577249395401772
2871803 45 18342460356570829264
296302 2 18186803543435647796
335352 9 18411701014761338949
34934 24 18409172091068258159
350125 39 18411700989577513104
3545911 37 18412544318604812114
4214541 1 18411982498396919529
4340502 62 17203606000025709891
474 4 18272087137391086380
5104073 3 18410293613992041976
5374978 207 18412547604450050552
542803 24 13984662538058982635
69090 78 18041001738792805863
9709674 26 18409726296115096838

> <PUBCHEM_SHAPE_MULTIPOLES>
414.56
9.58
2.07
0.96
2.44
0.49
0.4
-0.85
-1.05
-0.36
-0.12
-0.15
-0.22
0.24

> <PUBCHEM_SHAPE_SELFOVERLAP>
886.523

> <PUBCHEM_SHAPE_VOLUME>
227

> <PUBCHEM_COORDINATE_TYPE>
2
5
10

$$$$

