101595
  -OEChem-07051212572D

 52 57  0     1  0  0  0  0  0999 V2000
    3.2328    2.3790    0.0000 O   0  0  0  0  0  0  0  0  0  0  0  0
    7.0444   -0.4196    0.0000 O   0  0  0  0  0  0  0  0  0  0  0  0
    2.0000   -0.7075    0.0000 O   0  0  0  0  0  0  0  0  0  0  0  0
    2.6822   -2.5256    0.0000 O   0  0  0  0  0  0  0  0  0  0  0  0
    3.7094   -0.5867    0.0000 N   0  0  0  0  0  0  0  0  0  0  0  0
    6.9920    1.4931    0.0000 N   0  0  3  0  0  0  0  0  0  0  0  0
    4.4464    0.0804    0.0000 C   0  0  2  0  0  0  0  0  0  0  0  0
    5.3124   -0.4196    0.0000 C   0  0  2  0  0  0  0  0  0  0  0  0
    4.4464    1.0804    0.0000 C   0  0  1  0  0  0  0  0  0  0  0  0
    5.3124    1.5804    0.0000 C   0  0  1  0  0  0  0  0  0  0  0  0
    3.5244    1.4356    0.0000 C   0  0  2  0  0  0  0  0  0  0  0  0
    6.1784    1.0804    0.0000 C   0  0  0  0  0  0  0  0  0  0  0  0
    5.1032   -1.3915    0.0000 C   0  0  0  0  0  0  0  0  0  0  0  0
    6.1784    0.0804    0.0000 C   0  0  0  0  0  0  0  0  0  0  0  0
    6.2909   -0.2463    0.0000 C   0  0  0  0  0  0  0  0  0  0  0  0
    4.1145   -1.4945    0.0000 C   0  0  0  0  0  0  0  0  0  0  0  0
    2.7361    0.8400    0.0000 C   0  0  0  0  0  0  0  0  0  0  0  0
    5.4485    2.5584    0.0000 C   0  0  0  0  0  0  0  0  0  0  0  0
    2.8261   -0.1439    0.0000 C   0  0  0  0  0  0  0  0  0  0  0  0
    6.9466    0.5004    0.0000 C   0  0  0  0  0  0  0  0  0  0  0  0
    6.4071    2.2965    0.0000 C   0  0  0  0  0  0  0  0  0  0  0  0
    5.7240   -2.2202    0.0000 C   0  0  0  0  0  0  0  0  0  0  0  0
    4.7706    3.2764    0.0000 C   0  0  0  0  0  0  0  0  0  0  0  0
    3.6780   -2.4335    0.0000 C   0  0  0  0  0  0  0  0  0  0  0  0
    3.7864    3.1967    0.0000 C   0  0  0  0  0  0  0  0  0  0  0  0
    5.3093   -3.1690    0.0000 C   0  0  0  0  0  0  0  0  0  0  0  0
    4.2794   -3.2764    0.0000 C   0  0  0  0  0  0  0  0  0  0  0  0
    7.9497    1.7808    0.0000 C   0  0  0  0  0  0  0  0  0  0  0  0
    4.4464   -0.7696    0.0000 H   0  0  0  0  0  0  0  0  0  0  0  0
    3.7103    0.6554    0.0000 H   0  0  0  0  0  0  0  0  0  0  0  0
    6.0485    2.0054    0.0000 H   0  0  0  0  0  0  0  0  0  0  0  0
    3.8428    2.2238    0.0000 H   0  0  0  0  0  0  0  0  0  0  0  0
    6.7890    0.9727    0.0000 H   0  0  0  0  0  0  0  0  0  0  0  0
    6.3905    1.6630    0.0000 H   0  0  0  0  0  0  0  0  0  0  0  0
    6.2146   -0.8616    0.0000 H   0  0  0  0  0  0  0  0  0  0  0  0
    6.8565   -0.5002    0.0000 H   0  0  0  0  0  0  0  0  0  0  0  0
    2.4599    1.3951    0.0000 H   0  0  0  0  0  0  0  0  0  0  0  0
    2.1397    0.6707    0.0000 H   0  0  0  0  0  0  0  0  0  0  0  0
    7.2715   -0.0276    0.0000 H   0  0  0  0  0  0  0  0  0  0  0  0
    7.5469    0.6556    0.0000 H   0  0  0  0  0  0  0  0  0  0  0  0
    6.9935    2.4978    0.0000 H   0  0  0  0  0  0  0  0  0  0  0  0
    6.3873    2.9162    0.0000 H   0  0  0  0  0  0  0  0  0  0  0  0
    6.3398   -2.1488    0.0000 H   0  0  0  0  0  0  0  0  0  0  0  0
    4.9929    3.8552    0.0000 H   0  0  0  0  0  0  0  0  0  0  0  0
    3.8757    3.8102    0.0000 H   0  0  0  0  0  0  0  0  0  0  0  0
    3.2083    3.4208    0.0000 H   0  0  0  0  0  0  0  0  0  0  0  0
    5.6752   -3.6695    0.0000 H   0  0  0  0  0  0  0  0  0  0  0  0
    4.0245   -3.8416    0.0000 H   0  0  0  0  0  0  0  0  0  0  0  0
    8.1280    1.1870    0.0000 H   0  0  0  0  0  0  0  0  0  0  0  0
    8.5435    1.9591    0.0000 H   0  0  0  0  0  0  0  0  0  0  0  0
    7.7713    2.3746    0.0000 H   0  0  0  0  0  0  0  0  0  0  0  0
    2.4230   -3.0889    0.0000 H   0  0  0  0  0  0  0  0  0  0  0  0
  1 11  1  0  0  0  0
  1 25  1  0  0  0  0
  2 14  2  0  0  0  0
  3 19  2  0  0  0  0
  4 24  1  0  0  0  0
  4 52  1  0  0  0  0
  5  7  1  0  0  0  0
  5 16  1  0  0  0  0
  5 19  1  0  0  0  0
  6 20  1  0  0  0  0
  6 21  1  0  0  0  0
  6 28  1  0  0  0  0
  7  8  1  0  0  0  0
  7  9  1  0  0  0  0
  7 29  1  6  0  0  0
  8 13  1  1  0  0  0
  8 14  1  0  0  0  0
  8 15  1  0  0  0  0
  9 10  1  0  0  0  0
  9 11  1  0  0  0  0
  9 30  1  1  0  0  0
 10 12  1  0  0  0  0
 10 18  1  0  0  0  0
 10 31  1  1  0  0  0
 11 17  1  0  0  0  0
 11 32  1  1  0  0  0
 12 14  1  0  0  0  0
 12 33  1  0  0  0  0
 12 34  1  0  0  0  0
 13 16  2  0  0  0  0
 13 22  1  0  0  0  0
 15 20  1  0  0  0  0
 15 35  1  0  0  0  0
 15 36  1  0  0  0  0
 16 24  1  0  0  0  0
 17 19  1  0  0  0  0
 17 37  1  0  0  0  0
 17 38  1  0  0  0  0
 18 21  1  0  0  0  0
 18 23  2  0  0  0  0
 20 39  1  0  0  0  0
 20 40  1  0  0  0  0
 21 41  1  0  0  0  0
 21 42  1  0  0  0  0
 22 26  2  0  0  0  0
 22 43  1  0  0  0  0
 23 25  1  0  0  0  0
 23 44  1  0  0  0  0
 24 27  2  0  0  0  0
 25 45  1  0  0  0  0
 25 46  1  0  0  0  0
 26 27  1  0  0  0  0
 26 47  1  0  0  0  0
 27 48  1  0  0  0  0
 28 49  1  0  0  0  0
 28 50  1  0  0  0  0
 28 51  1  0  0  0  0
M  END
> <PUBCHEM_COMPOUND_CID>
101595

> <PUBCHEM_COMPOUND_CANONICALIZED>
1

> <PUBCHEM_CACTVS_COMPLEXITY>
766

> <PUBCHEM_CACTVS_HBOND_ACCEPTOR>
5

> <PUBCHEM_CACTVS_HBOND_DONOR>
1

> <PUBCHEM_CACTVS_ROTATABLE_BOND>
0

> <PUBCHEM_CACTVS_SUBSKEYS>
AAADceB7OAAAAAAAAAAAAAAAAAAAAWAAAAA8YIAABAAAAFgBAAAAHgAACAAADzzhmAYyxoMABgCIAqVSUACCAAAhIAAIiAEPTIgKJj7StZOGcAhm5hHY+Aec3fPfgAABAAACEACAAAaAACQgAAAAAAAAAA==

> <PUBCHEM_IUPAC_INCHI>
InChI=1S/C22H24N2O4/c1-23-7-6-22-14-3-2-4-15(25)20(14)24-18(27)10-16-19(21(22)24)13(9-17(22)26)12(11-23)5-8-28-16/h2-5,13,16,19,21,25H,6-11H2,1H3/t13-,16-,19-,21-,22+/m0/s1

> <PUBCHEM_IUPAC_INCHIKEY>
ZMTYENXGROJCEA-LNKPQSDASA-N

> <PUBCHEM_XLOGP3_AA>
-0.1

> <PUBCHEM_EXACT_MASS>
380.173607

> <PUBCHEM_MOLECULAR_FORMULA>
C22H24N2O4

> <PUBCHEM_MOLECULAR_WEIGHT>
380.43696

> <PUBCHEM_OPENEYE_CAN_SMILES>
CN1CCC23C4C5C(CC2=O)C(=CCOC5CC(=O)N4C6=C3C=CC=C6O)C1

> <PUBCHEM_OPENEYE_ISO_SMILES>
CN1CC[C@]23[C@@H]4[C@H]5[C@@H](CC2=O)C(=CCO[C@H]5CC(=O)N4C6=C3C=CC=C6O)C1

> <PUBCHEM_CACTVS_TPSA>
70.1

> <PUBCHEM_MONOISOTOPIC_WEIGHT>
380.173607

> <PUBCHEM_TOTAL_CHARGE>
0

> <PUBCHEM_HEAVY_ATOM_COUNT>
28

> <PUBCHEM_ATOM_DEF_STEREO_COUNT>
5

> <PUBCHEM_ATOM_UDEF_STEREO_COUNT>
0

> <PUBCHEM_BOND_DEF_STEREO_COUNT>
0

> <PUBCHEM_BOND_UDEF_STEREO_COUNT>
0

> <PUBCHEM_ISOTOPIC_ATOM_COUNT>
0

> <PUBCHEM_COMPONENT_COUNT>
1

> <PUBCHEM_CACTVS_TAUTO_COUNT>
8

> <PUBCHEM_COORDINATE_TYPE>
1
5
255

> <PUBCHEM_BONDANNOTATIONS>
10  31  5
11  32  5
13  16  8
13  22  8
16  24  8
22  26  8
24  27  8
26  27  8
7  29  6
8  13  5
9  30  5

$$$$

