47205538
  -OEChem-06241222593D

 40 41  0     0  0  0  0  0  0999 V2000
   -4.1234    1.2581   -0.0177 S   0  0  0  0  0  0  0  0  0  0  0  0
   -4.7107    2.1987    0.9158 O   0  0  0  0  0  0  0  0  0  0  0  0
   -4.5270    1.2359   -1.4101 O   0  0  0  0  0  0  0  0  0  0  0  0
    0.3931   -2.1003    1.5033 O   0  0  0  0  0  0  0  0  0  0  0  0
   -1.9718   -1.0142    0.1290 N   0  0  0  0  0  0  0  0  0  0  0  0
    1.2529   -1.8249   -0.6365 N   0  0  0  0  0  0  0  0  0  0  0  0
   -1.6444    0.2440   -0.5636 C   0  0  0  0  0  0  0  0  0  0  0  0
   -3.3911   -1.3754   -0.0304 C   0  0  0  0  0  0  0  0  0  0  0  0
   -2.3576    1.4423    0.0514 C   0  0  0  0  0  0  0  0  0  0  0  0
   -4.3199   -0.3766    0.6498 C   0  0  0  0  0  0  0  0  0  0  0  0
   -1.1232   -2.0963   -0.3773 C   0  0  0  0  0  0  0  0  0  0  0  0
    0.2343   -2.0025    0.2885 C   0  0  0  0  0  0  0  0  0  0  0  0
    2.6484   -1.7322   -0.2712 C   0  0  0  0  0  0  0  0  0  0  0  0
    3.0540   -0.3217    0.0452 C   0  0  0  0  0  0  0  0  0  0  0  0
    3.2471    0.6146   -0.9705 C   0  0  0  0  0  0  0  0  0  0  0  0
    3.2374    0.0470    1.3780 C   0  0  0  0  0  0  0  0  0  0  0  0
    3.6238    1.9198   -0.6534 C   0  0  0  0  0  0  0  0  0  0  0  0
    3.0563    0.2431   -2.4044 C   0  0  0  0  0  0  0  0  0  0  0  0
    3.6141    1.3522    1.6950 C   0  0  0  0  0  0  0  0  0  0  0  0
    3.8075    2.2884    0.6792 C   0  0  0  0  0  0  0  0  0  0  0  0
   -3.6477   -1.4701   -1.0936 H   0  0  0  0  0  0  0  0  0  0  0  0
   -3.5767   -2.3519    0.4340 H   0  0  0  0  0  0  0  0  0  0  0  0
   -0.5690    0.4459   -0.4930 H   0  0  0  0  0  0  0  0  0  0  0  0
   -1.8863    0.1714   -1.6321 H   0  0  0  0  0  0  0  0  0  0  0  0
   -2.0803    1.5683    1.1034 H   0  0  0  0  0  0  0  0  0  0  0  0
   -2.1061    2.3624   -0.4851 H   0  0  0  0  0  0  0  0  0  0  0  0
   -5.3673   -0.6609    0.5096 H   0  0  0  0  0  0  0  0  0  0  0  0
   -4.1176   -0.3194    1.7247 H   0  0  0  0  0  0  0  0  0  0  0  0
   -1.5150   -3.0789   -0.0825 H   0  0  0  0  0  0  0  0  0  0  0  0
   -1.0610   -2.0987   -1.4718 H   0  0  0  0  0  0  0  0  0  0  0  0
    1.0232   -1.7617   -1.6235 H   0  0  0  0  0  0  0  0  0  0  0  0
    2.8258   -2.3854    0.5919 H   0  0  0  0  0  0  0  0  0  0  0  0
    3.2455   -2.1456   -1.0904 H   0  0  0  0  0  0  0  0  0  0  0  0
    3.0893   -0.6699    2.1812 H   0  0  0  0  0  0  0  0  0  0  0  0
    3.7775    2.6622   -1.4321 H   0  0  0  0  0  0  0  0  0  0  0  0
    3.3499    1.0624   -3.0708 H   0  0  0  0  0  0  0  0  0  0  0  0
    2.0051    0.0248   -2.6138 H   0  0  0  0  0  0  0  0  0  0  0  0
    3.6769   -0.6154   -2.6787 H   0  0  0  0  0  0  0  0  0  0  0  0
    3.7564    1.6396    2.7327 H   0  0  0  0  0  0  0  0  0  0  0  0
    4.1005    3.3046    0.9263 H   0  0  0  0  0  0  0  0  0  0  0  0
  1  2  2  0  0  0  0
  1  3  2  0  0  0  0
  1  9  1  0  0  0  0
  1 10  1  0  0  0  0
  4 12  2  0  0  0  0
  5  7  1  0  0  0  0
  5  8  1  0  0  0  0
  5 11  1  0  0  0  0
  6 12  1  0  0  0  0
  6 13  1  0  0  0  0
  6 31  1  0  0  0  0
  7  9  1  0  0  0  0
  7 23  1  0  0  0  0
  7 24  1  0  0  0  0
  8 10  1  0  0  0  0
  8 21  1  0  0  0  0
  8 22  1  0  0  0  0
  9 25  1  0  0  0  0
  9 26  1  0  0  0  0
 10 27  1  0  0  0  0
 10 28  1  0  0  0  0
 11 12  1  0  0  0  0
 11 29  1  0  0  0  0
 11 30  1  0  0  0  0
 13 14  1  0  0  0  0
 13 32  1  0  0  0  0
 13 33  1  0  0  0  0
 14 15  1  0  0  0  0
 14 16  2  0  0  0  0
 15 17  2  0  0  0  0
 15 18  1  0  0  0  0
 16 19  1  0  0  0  0
 16 34  1  0  0  0  0
 17 20  1  0  0  0  0
 17 35  1  0  0  0  0
 18 36  1  0  0  0  0
 18 37  1  0  0  0  0
 18 38  1  0  0  0  0
 19 20  2  0  0  0  0
 19 39  1  0  0  0  0
 20 40  1  0  0  0  0
M  END
> <PUBCHEM_COMPOUND_CID>
47205538

> <PUBCHEM_CONFORMER_RMSD>
0.8

> <PUBCHEM_CONFORMER_DIVERSEORDER>
2
26
98
42
84
155
142
15
99
76
165
11
164
82
145
140
37
154
125
153
133
108
23
161
97
51
1
95
54
158
131
146
112
9
163
14
34
105
10
141
148
150
110
132
152
46
57
36
80
94
122
27
119
75
162
5
7
167
128
116
25
16
58
124
4
159
106
144
117
17
29
102
156
149
126
129
113
168
48
107
169
137
19
81
63
49
130
166
59
83
88
79
60
69
121
109
136
31
33
6
139
28
143
101
114
64
77
35
92
71
68
147
47
123
32
85
86
89
74
157
65
118
22
43
70
160
103
12
104
87
20
111
13
73
38
138
56
91
127
115
96
50
40
3
39
53
67
18
151
45
52
41
93
72
30
21
134
66
61
24
78
90
135
8
100
120
44
62
55

> <PUBCHEM_MMFF94_PARTIAL_CHARGES>
25
1 1.09
10 0.11
11 0.33
12 0.57
13 0.44
14 -0.14
15 -0.14
16 -0.15
17 -0.15
18 0.14
19 -0.15
2 -0.65
20 -0.15
3 -0.65
31 0.37
34 0.15
35 0.15
39 0.15
4 -0.57
40 0.15
5 -0.81
6 -0.73
7 0.27
8 0.27
9 0.11

> <PUBCHEM_EFFECTIVE_ROTOR_COUNT>
6

> <PUBCHEM_PHARMACOPHORE_FEATURES>
7
1 2 acceptor
1 3 acceptor
1 4 acceptor
1 5 cation
1 6 donor
6 1 5 7 8 9 10 rings
6 14 15 16 17 19 20 rings

> <PUBCHEM_HEAVY_ATOM_COUNT>
20

> <PUBCHEM_ATOM_DEF_STEREO_COUNT>
0

> <PUBCHEM_ATOM_UDEF_STEREO_COUNT>
0

> <PUBCHEM_BOND_DEF_STEREO_COUNT>
0

> <PUBCHEM_BOND_UDEF_STEREO_COUNT>
0

> <PUBCHEM_ISOTOPIC_ATOM_COUNT>
0

> <PUBCHEM_COMPONENT_COUNT>
1

> <PUBCHEM_CACTVS_TAUTO_COUNT>
2

> <PUBCHEM_CONFORMER_ID>
02D04CA200000002

> <PUBCHEM_MMFF94_ENERGY>
35.9044

> <PUBCHEM_FEATURE_SELFOVERLAP>
35.537

> <PUBCHEM_SHAPE_FINGERPRINT>
10498660 4 18408039589443442137
10646746 165 18408885109827513934
10670039 82 18270952445706996284
10928967 22 8574434261467586013
11543360 7 16226055474493240469
11720765 8 17532918610542696524
12173636 292 18334581217971867399
12363563 72 9583525334192326418
12633257 1 15626229000424678824
12788726 201 17126753233557651978
13224815 77 18272086106419165045
13583140 156 14548450268080874191
13965767 371 17917163736104491644
14251757 17 17894624821102478513
14251758 9 10591772021518322103
14252887 29 10375863083044763022
14848178 96 18409731793889558985
15239154 128 18335416885468359667
17810953 82 18266176308819535889
17868525 174 17983302813389713018
1798214 55 18410576184232923916
18186145 218 17968084326735965882
19752476 56 17894348908309057920
20291156 8 8862944991355608570
20715895 44 17913790550426851349
21864079 5 18409730629684013142
22749437 52 18411705399807208709
23227448 37 18262240997815880799
23503958 25 18266444434873886194
235170 7 16660363645396206277
23557571 272 17899969444193997454
23559900 14 18267022954195200611
238 59 16877933898562948804
2838139 119 17823431387992269936
312425 83 16877937260953032525
341906 21 18272369733037308703
38570 142 16485541245715305756
474 4 18059852878604641735
49207404 50 18201146698479577547
5104073 3 18342453777155887603
6328613 192 18272369738361229300
633830 44 17968374641066673221
7064713 232 18342178868767622389
7808743 9 18122904223129703476
960060 61 6050445915976885635

> <PUBCHEM_SHAPE_MULTIPOLES>
387.87
10.25
2.7
1.52
6.25
0.17
-0.34
-6.57
0.28
0.14
0.4
-1.52
-0.25
0.41

> <PUBCHEM_SHAPE_SELFOVERLAP>
787.017

> <PUBCHEM_SHAPE_VOLUME>
226.3

> <PUBCHEM_COORDINATE_TYPE>
2
5
10

$$$$

