13571630
  -OEChem-07051213103D

 25 26  0     0  0  0  0  0  0999 V2000
    4.0028   -1.4719   -0.1952 O   0  0  0  0  0  0  0  0  0  0  0  0
   -1.3767    2.0220    0.0871 N   0  0  0  0  0  0  0  0  0  0  0  0
    4.0495   -0.1437    0.3847 N   0  0  0  0  0  0  0  0  0  0  0  0
    0.4399    0.8127   -0.3185 C   0  0  0  0  0  0  0  0  0  0  0  0
   -0.6628   -0.0753   -0.1752 C   0  0  0  0  0  0  0  0  0  0  0  0
    1.8414    0.4376   -0.5957 C   0  0  0  0  0  0  0  0  0  0  0  0
   -1.7902    0.7089    0.0786 C   0  0  0  0  0  0  0  0  0  0  0  0
   -0.0307    2.0948   -0.1521 C   0  0  0  0  0  0  0  0  0  0  0  0
    2.6627    0.1968    0.6841 C   0  0  0  0  0  0  0  0  0  0  0  0
   -0.8104   -1.4753   -0.2372 C   0  0  0  0  0  0  0  0  0  0  0  0
   -3.0629    0.1609    0.2744 C   0  0  0  0  0  0  0  0  0  0  0  0
   -2.0775   -2.0374   -0.0435 C   0  0  0  0  0  0  0  0  0  0  0  0
   -3.1850   -1.2300    0.2083 C   0  0  0  0  0  0  0  0  0  0  0  0
    1.8585   -0.4579   -1.2296 H   0  0  0  0  0  0  0  0  0  0  0  0
    2.3196    1.2309   -1.1862 H   0  0  0  0  0  0  0  0  0  0  0  0
    0.4698    3.0528   -0.1812 H   0  0  0  0  0  0  0  0  0  0  0  0
   -1.9802    2.8167    0.2469 H   0  0  0  0  0  0  0  0  0  0  0  0
    2.1999   -0.5880    1.2962 H   0  0  0  0  0  0  0  0  0  0  0  0
    2.6578    1.1088    1.2932 H   0  0  0  0  0  0  0  0  0  0  0  0
    0.0424   -2.1194   -0.4310 H   0  0  0  0  0  0  0  0  0  0  0  0
   -3.9257    0.7885    0.4705 H   0  0  0  0  0  0  0  0  0  0  0  0
   -2.1974   -3.1166   -0.0898 H   0  0  0  0  0  0  0  0  0  0  0  0
   -4.1598   -1.6878    0.3559 H   0  0  0  0  0  0  0  0  0  0  0  0
    4.5509   -0.3313    1.2519 H   0  0  0  0  0  0  0  0  0  0  0  0
    4.5408   -1.3185   -0.9902 H   0  0  0  0  0  0  0  0  0  0  0  0
  1  3  1  0  0  0  0
  1 25  1  0  0  0  0
  2  7  1  0  0  0  0
  2  8  1  0  0  0  0
  2 17  1  0  0  0  0
  3  9  1  0  0  0  0
  3 24  1  0  0  0  0
  4  5  1  0  0  0  0
  4  6  1  0  0  0  0
  4  8  2  0  0  0  0
  5  7  1  0  0  0  0
  5 10  2  0  0  0  0
  6  9  1  0  0  0  0
  6 14  1  0  0  0  0
  6 15  1  0  0  0  0
  7 11  2  0  0  0  0
  8 16  1  0  0  0  0
  9 18  1  0  0  0  0
  9 19  1  0  0  0  0
 10 12  1  0  0  0  0
 10 20  1  0  0  0  0
 11 13  1  0  0  0  0
 11 21  1  0  0  0  0
 12 13  2  0  0  0  0
 12 22  1  0  0  0  0
 13 23  1  0  0  0  0
M  END
> <PUBCHEM_COMPOUND_CID>
13571630

> <PUBCHEM_CONFORMER_RMSD>
0.6

> <PUBCHEM_CONFORMER_DIVERSEORDER>
1
13
14
11
7
12
2
15
10
3
9
8
4
6
5

> <PUBCHEM_MMFF94_PARTIAL_CHARGES>
20
1 -0.3
10 -0.15
11 -0.15
12 -0.15
13 -0.15
16 0.15
17 0.27
2 0.03
20 0.15
21 0.15
22 0.15
23 0.15
24 0.36
25 0.4
3 -0.73
4 -0.18
6 0.18
7 -0.15
8 -0.3
9 0.27

> <PUBCHEM_EFFECTIVE_ROTOR_COUNT>
3

> <PUBCHEM_PHARMACOPHORE_FEATURES>
5
1 1 anion
1 2 cation
1 2 donor
5 2 4 5 7 8 rings
6 5 7 10 11 12 13 rings

> <PUBCHEM_HEAVY_ATOM_COUNT>
13

> <PUBCHEM_ATOM_DEF_STEREO_COUNT>
0

> <PUBCHEM_ATOM_UDEF_STEREO_COUNT>
0

> <PUBCHEM_BOND_DEF_STEREO_COUNT>
0

> <PUBCHEM_BOND_UDEF_STEREO_COUNT>
0

> <PUBCHEM_ISOTOPIC_ATOM_COUNT>
0

> <PUBCHEM_COMPONENT_COUNT>
1

> <PUBCHEM_CACTVS_TAUTO_COUNT>
1

> <PUBCHEM_CONFORMER_ID>
00CF162E00000001

> <PUBCHEM_MMFF94_ENERGY>
12.6322

> <PUBCHEM_FEATURE_SELFOVERLAP>
25.463

> <PUBCHEM_SHAPE_FINGERPRINT>
10130415 120 18341328877781024481
10618630 7 18413108342637810422
11769659 78 18268150864093262767
12032990 46 18412259506570576123
12119455 92 17022907890776591421
13024252 1 15339116874969668693
13690532 89 18338801117976816335
16945 1 18336252475682542157
17804303 29 18334570261414751726
193761 8 17690277531717159581
20361792 2 17275390893420171940
20510252 161 18260830453046289024
20871998 184 18260550030336182534
21501502 16 18120649124633162525
21501925 9 18191874413916907281
22959321 94 18342747312279413122
232386 152 18340200787229903558
23402539 116 18187936092643019845
23463225 33 18411979135384525966
23552423 10 17621595021690907877
23559900 14 18408328800400005936
2748010 2 18121499051484985517
43471831 8 18271529822129075514
7364860 26 18121780517597818576

> <PUBCHEM_SHAPE_MULTIPOLES>
251.7
5.83
2.08
0.7
5.21
0.19
0.01
-2.86
0.83
-0.64
-0.1
0.14
0.01
-0.03

> <PUBCHEM_SHAPE_SELFOVERLAP>
536.962

> <PUBCHEM_SHAPE_VOLUME>
141.9

> <PUBCHEM_COORDINATE_TYPE>
2
5
10

$$$$

