5281380
  -OEChem-07051212563D

 39 42  0     0  0  0  0  0  0999 V2000
    5.7008   -1.0848   -0.7013 O   0  0  0  0  0  0  0  0  0  0  0  0
   -5.7661   -2.0902   -1.5796 O   0  0  0  0  0  0  0  0  0  0  0  0
    0.5709   -0.4821    1.1343 N   0  0  0  0  0  0  0  0  0  0  0  0
   -1.0712    2.6566    0.1061 N   0  0  0  0  0  0  0  0  0  0  0  0
    0.2173    0.7388    0.6136 C   0  0  0  0  0  0  0  0  0  0  0  0
    1.3106    1.2158   -0.1087 C   0  0  0  0  0  0  0  0  0  0  0  0
    2.3473    0.2347   -0.0086 C   0  0  0  0  0  0  0  0  0  0  0  0
    1.8560   -0.8121    0.7726 C   0  0  0  0  0  0  0  0  0  0  0  0
   -0.9674    1.4556    0.7203 C   0  0  0  0  0  0  0  0  0  0  0  0
   -2.1523    0.9740    1.4839 C   0  0  0  0  0  0  0  0  0  0  0  0
    1.1989    2.4623   -0.7445 C   0  0  0  0  0  0  0  0  0  0  0  0
    3.6618    0.1410   -0.5121 C   0  0  0  0  0  0  0  0  0  0  0  0
    2.6130   -1.9495    1.0766 C   0  0  0  0  0  0  0  0  0  0  0  0
   -3.1232    0.1502    0.6606 C   0  0  0  0  0  0  0  0  0  0  0  0
    4.4307   -0.9903   -0.2166 C   0  0  0  0  0  0  0  0  0  0  0  0
   -0.0132    3.1229   -0.5951 C   0  0  0  0  0  0  0  0  0  0  0  0
    3.9119   -2.0189    0.5661 C   0  0  0  0  0  0  0  0  0  0  0  0
   -2.9541   -1.2203    0.5928 C   0  0  0  0  0  0  0  0  0  0  0  0
   -4.1543    0.7905   -0.0015 C   0  0  0  0  0  0  0  0  0  0  0  0
   -3.8478   -1.9776   -0.1645 C   0  0  0  0  0  0  0  0  0  0  0  0
   -5.0481    0.0332   -0.7586 C   0  0  0  0  0  0  0  0  0  0  0  0
   -4.8948   -1.3509   -0.8402 C   0  0  0  0  0  0  0  0  0  0  0  0
    6.1734    0.0010   -1.4957 C   0  0  0  0  0  0  0  0  0  0  0  0
   -0.0237   -1.0589    1.7124 H   0  0  0  0  0  0  0  0  0  0  0  0
   -2.6834    1.8376    1.9074 H   0  0  0  0  0  0  0  0  0  0  0  0
   -1.8325    0.3954    2.3605 H   0  0  0  0  0  0  0  0  0  0  0  0
    2.0087    2.8932   -1.3220 H   0  0  0  0  0  0  0  0  0  0  0  0
    4.0129    0.9700   -1.1148 H   0  0  0  0  0  0  0  0  0  0  0  0
    2.2094   -2.7510    1.6863 H   0  0  0  0  0  0  0  0  0  0  0  0
   -0.1680    4.0916   -1.0607 H   0  0  0  0  0  0  0  0  0  0  0  0
    4.5207   -2.8924    0.7877 H   0  0  0  0  0  0  0  0  0  0  0  0
   -2.1495   -1.7219    1.1204 H   0  0  0  0  0  0  0  0  0  0  0  0
   -4.2805    1.8677    0.0551 H   0  0  0  0  0  0  0  0  0  0  0  0
   -3.7184   -3.0552   -0.2184 H   0  0  0  0  0  0  0  0  0  0  0  0
   -5.8615    0.5271   -1.2831 H   0  0  0  0  0  0  0  0  0  0  0  0
    7.1983   -0.2409   -1.7958 H   0  0  0  0  0  0  0  0  0  0  0  0
    6.2218    0.9313   -0.9195 H   0  0  0  0  0  0  0  0  0  0  0  0
    5.5900    0.1113   -2.4162 H   0  0  0  0  0  0  0  0  0  0  0  0
   -5.5103   -3.0271   -1.5243 H   0  0  0  0  0  0  0  0  0  0  0  0
  1 15  1  0  0  0  0
  1 23  1  0  0  0  0
  2 22  1  0  0  0  0
  2 39  1  0  0  0  0
  3  5  1  0  0  0  0
  3  8  1  0  0  0  0
  3 24  1  0  0  0  0
  4  9  2  0  0  0  0
  4 16  1  0  0  0  0
  5  6  2  0  0  0  0
  5  9  1  0  0  0  0
  6  7  1  0  0  0  0
  6 11  1  0  0  0  0
  7  8  2  0  0  0  0
  7 12  1  0  0  0  0
  8 13  1  0  0  0  0
  9 10  1  0  0  0  0
 10 14  1  0  0  0  0
 10 25  1  0  0  0  0
 10 26  1  0  0  0  0
 11 16  2  0  0  0  0
 11 27  1  0  0  0  0
 12 15  2  0  0  0  0
 12 28  1  0  0  0  0
 13 17  2  0  0  0  0
 13 29  1  0  0  0  0
 14 18  2  0  0  0  0
 14 19  1  0  0  0  0
 15 17  1  0  0  0  0
 16 30  1  0  0  0  0
 17 31  1  0  0  0  0
 18 20  1  0  0  0  0
 18 32  1  0  0  0  0
 19 21  2  0  0  0  0
 19 33  1  0  0  0  0
 20 22  2  0  0  0  0
 20 34  1  0  0  0  0
 21 22  1  0  0  0  0
 21 35  1  0  0  0  0
 23 36  1  0  0  0  0
 23 37  1  0  0  0  0
 23 38  1  0  0  0  0
M  END
> <PUBCHEM_COMPOUND_CID>
5281380

> <PUBCHEM_CONFORMER_RMSD>
0.6

> <PUBCHEM_CONFORMER_DIVERSEORDER>
1
16
12
2
10
6
14
4
13
9
11
8
5
15
7
3

> <PUBCHEM_MMFF94_PARTIAL_CHARGES>
32
1 -0.36
10 0.29
11 -0.15
12 -0.15
13 -0.15
14 -0.14
15 0.08
16 0.16
17 -0.15
18 -0.15
19 -0.15
2 -0.53
20 -0.15
21 -0.15
22 0.08
23 0.28
24 0.27
27 0.15
28 0.15
29 0.15
3 0.03
30 0.15
31 0.15
32 0.15
33 0.15
34 0.15
35 0.15
39 0.45
4 -0.62
5 -0.15
8 -0.15
9 0.17

> <PUBCHEM_EFFECTIVE_ROTOR_COUNT>
3

> <PUBCHEM_PHARMACOPHORE_FEATURES>
9
1 1 acceptor
1 2 donor
1 3 cation
1 3 donor
1 4 acceptor
5 3 5 6 7 8 rings
6 14 18 19 20 21 22 rings
6 4 5 6 9 11 16 rings
6 7 8 12 13 15 17 rings

> <PUBCHEM_HEAVY_ATOM_COUNT>
23

> <PUBCHEM_ATOM_DEF_STEREO_COUNT>
0

> <PUBCHEM_ATOM_UDEF_STEREO_COUNT>
0

> <PUBCHEM_BOND_DEF_STEREO_COUNT>
0

> <PUBCHEM_BOND_UDEF_STEREO_COUNT>
0

> <PUBCHEM_ISOTOPIC_ATOM_COUNT>
0

> <PUBCHEM_COMPONENT_COUNT>
1

> <PUBCHEM_CACTVS_TAUTO_COUNT>
6

> <PUBCHEM_CONFORMER_ID>
0050966400000001

> <PUBCHEM_MMFF94_ENERGY>
64.1066

> <PUBCHEM_FEATURE_SELFOVERLAP>
45.855

> <PUBCHEM_SHAPE_FINGERPRINT>
10042902 136 17749677281260317167
10447042 23 18060700624156442834
11046707 91 18187083983398937497
11552529 35 17970627608968992976
11578080 2 18188228558004010177
11796584 16 17894910758813836407
12553582 1 18343861138769293531
12592606 108 18187647956694740215
12788726 201 18198346358338545633
13009979 54 18114169818685656777
13782708 43 17314216934505477414
13914758 101 15338845300562436412
14576447 43 18411983563675227626
14767858 380 18200861908399810508
14787075 74 18340193147279999976
14790565 3 17404582663244160829
14849402 71 8069441735427278498
14931854 50 18272377472975324591
14951699 99 10374714042456127406
15183329 4 18342184401460615485
15188451 53 15285934516116457847
15537594 2 18340476854969733475
17357779 13 17704351091068073669
18222031 100 18407764733169323954
18769570 83 12679459768580763566
19141452 34 18190454064074777417
19784866 240 18113899326161646607
200 152 18130502019811837568
20626108 58 18261121733833782041
20775438 99 17179716679077831623
20871999 31 18202003261155878417
21033648 29 12606537907591666558
21267235 1 18409721842877485331
21634736 98 18339643330555542915
21756936 100 10951761958925546961
221357 26 18201449060520311727
221490 88 18128246788488088187
22393880 68 18343310249310885613
23402539 116 18341607153086266378
23559900 14 18261120646843534001
24771293 8 18410569558164691568
25147074 1 17843683502969577936
2838139 119 13901904462800870766
2871803 45 18272368702661869464
2916195 48 12319447771145430382
3004659 81 18408892811078370079
339767 52 18409456894259897674
3459 39 10879718606878087654
4280585 95 18342465832917836898
46194498 28 17488470676590153189
636775 72 10806491180636688078
6669772 16 17905879280823775604
7495541 125 17676207992313457218
7970288 3 18187650171948546343
960060 61 18202847647072667182

> <PUBCHEM_SHAPE_MULTIPOLES>
451.63
12.41
2.78
1.23
1.16
1.28
-0.07
-8.21
-6.22
-0.58
-0.29
-0.21
-0.21
-1.58

> <PUBCHEM_SHAPE_SELFOVERLAP>
1014.182

> <PUBCHEM_SHAPE_VOLUME>
240.7

> <PUBCHEM_COORDINATE_TYPE>
2
5
10

$$$$

