32321
  -OEChem-07051213133D

 41 41  0     0  0  0  0  0  0999 V2000
   -2.7203   -3.6491    0.9280 Cl  0  0  0  0  0  0  0  0  0  0  0  0
    1.8870   -0.0588   -0.2358 O   0  0  0  0  0  0  0  0  0  0  0  0
   -0.3218   -3.0005   -0.4446 O   0  0  0  0  0  0  0  0  0  0  0  0
   -0.3894   -0.6552   -0.4301 N   0  0  0  0  0  0  0  0  0  0  0  0
    4.1967    0.5429    0.1507 C   0  0  0  0  0  0  0  0  0  0  0  0
   -1.1592    0.5301   -0.1113 C   0  0  0  0  0  0  0  0  0  0  0  0
    3.1401    0.1314   -0.8783 C   0  0  0  0  0  0  0  0  0  0  0  0
    0.8779   -0.4589   -1.1599 C   0  0  0  0  0  0  0  0  0  0  0  0
   -0.9780    1.1090    1.1177 C   0  0  0  0  0  0  0  0  0  0  0  0
   -2.0289    1.0110   -1.0554 C   0  0  0  0  0  0  0  0  0  0  0  0
    4.3839   -0.5361    1.2193 C   0  0  0  0  0  0  0  0  0  0  0  0
    5.5253    0.8417   -0.5403 C   0  0  0  0  0  0  0  0  0  0  0  0
   -0.8845   -1.9485   -0.1325 C   0  0  0  0  0  0  0  0  0  0  0  0
   -1.7191    2.2503    1.4245 C   0  0  0  0  0  0  0  0  0  0  0  0
   -2.7699    2.1522   -0.7486 C   0  0  0  0  0  0  0  0  0  0  0  0
   -0.0263    0.5743    2.1384 C   0  0  0  0  0  0  0  0  0  0  0  0
   -2.2166    0.3703   -2.3925 C   0  0  0  0  0  0  0  0  0  0  0  0
   -2.6151    2.7719    0.4914 C   0  0  0  0  0  0  0  0  0  0  0  0
   -2.1818   -1.9780    0.6592 C   0  0  0  0  0  0  0  0  0  0  0  0
    3.8515    1.4518    0.6599 H   0  0  0  0  0  0  0  0  0  0  0  0
    3.0369    0.9161   -1.6374 H   0  0  0  0  0  0  0  0  0  0  0  0
    3.4403   -0.7973   -1.3791 H   0  0  0  0  0  0  0  0  0  0  0  0
    0.7435    0.3108   -1.9272 H   0  0  0  0  0  0  0  0  0  0  0  0
    1.1684   -1.4006   -1.6376 H   0  0  0  0  0  0  0  0  0  0  0  0
    3.4533   -0.7154    1.7677 H   0  0  0  0  0  0  0  0  0  0  0  0
    4.7032   -1.4845    0.7738 H   0  0  0  0  0  0  0  0  0  0  0  0
    5.1430   -0.2322    1.9480 H   0  0  0  0  0  0  0  0  0  0  0  0
    5.9136   -0.0430   -1.0565 H   0  0  0  0  0  0  0  0  0  0  0  0
    5.4081    1.6413   -1.2794 H   0  0  0  0  0  0  0  0  0  0  0  0
    6.2773    1.1670    0.1863 H   0  0  0  0  0  0  0  0  0  0  0  0
   -1.6068    2.7447    2.3859 H   0  0  0  0  0  0  0  0  0  0  0  0
   -3.4712    2.5729   -1.4644 H   0  0  0  0  0  0  0  0  0  0  0  0
    0.1249   -0.5059    2.0697 H   0  0  0  0  0  0  0  0  0  0  0  0
    0.9440    1.0717    2.0409 H   0  0  0  0  0  0  0  0  0  0  0  0
   -0.4030    0.7629    3.1504 H   0  0  0  0  0  0  0  0  0  0  0  0
   -1.3416    0.5403   -3.0269 H   0  0  0  0  0  0  0  0  0  0  0  0
   -2.3935   -0.7056   -2.2985 H   0  0  0  0  0  0  0  0  0  0  0  0
   -3.0860    0.7833   -2.9163 H   0  0  0  0  0  0  0  0  0  0  0  0
   -3.1913    3.6610    0.7300 H   0  0  0  0  0  0  0  0  0  0  0  0
   -2.9821   -1.4729    0.1149 H   0  0  0  0  0  0  0  0  0  0  0  0
   -2.0463   -1.5246    1.6426 H   0  0  0  0  0  0  0  0  0  0  0  0
  1 19  1  0  0  0  0
  2  7  1  0  0  0  0
  2  8  1  0  0  0  0
  3 13  2  0  0  0  0
  4  6  1  0  0  0  0
  4  8  1  0  0  0  0
  4 13  1  0  0  0  0
  5  7  1  0  0  0  0
  5 11  1  0  0  0  0
  5 12  1  0  0  0  0
  5 20  1  0  0  0  0
  6  9  2  0  0  0  0
  6 10  1  0  0  0  0
  7 21  1  0  0  0  0
  7 22  1  0  0  0  0
  8 23  1  0  0  0  0
  8 24  1  0  0  0  0
  9 14  1  0  0  0  0
  9 16  1  0  0  0  0
 10 15  2  0  0  0  0
 10 17  1  0  0  0  0
 11 25  1  0  0  0  0
 11 26  1  0  0  0  0
 11 27  1  0  0  0  0
 12 28  1  0  0  0  0
 12 29  1  0  0  0  0
 12 30  1  0  0  0  0
 13 19  1  0  0  0  0
 14 18  2  0  0  0  0
 14 31  1  0  0  0  0
 15 18  1  0  0  0  0
 15 32  1  0  0  0  0
 16 33  1  0  0  0  0
 16 34  1  0  0  0  0
 16 35  1  0  0  0  0
 17 36  1  0  0  0  0
 17 37  1  0  0  0  0
 17 38  1  0  0  0  0
 18 39  1  0  0  0  0
 19 40  1  0  0  0  0
 19 41  1  0  0  0  0
M  END
> <PUBCHEM_COMPOUND_CID>
32321

> <PUBCHEM_CONFORMER_RMSD>
0.8

> <PUBCHEM_CONFORMER_DIVERSEORDER>
3
34
4
22
6
25
17
24
30
21
32
10
28
7
27
31
13
12
19
29
1
11
18
2
14
15
20
23
26
16
5
8
33
9

> <PUBCHEM_MMFF94_PARTIAL_CHARGES>
19
1 -0.29
10 -0.14
13 0.57
14 -0.15
15 -0.15
16 0.14
17 0.14
18 -0.15
19 0.35
2 -0.56
3 -0.57
31 0.15
32 0.15
39 0.15
4 -0.48
6 0.12
7 0.28
8 0.58
9 -0.14

> <PUBCHEM_EFFECTIVE_ROTOR_COUNT>
7

> <PUBCHEM_PHARMACOPHORE_FEATURES>
4
1 2 acceptor
1 3 acceptor
3 5 11 12 hydrophobe
6 6 9 10 14 15 18 rings

> <PUBCHEM_HEAVY_ATOM_COUNT>
19

> <PUBCHEM_ATOM_DEF_STEREO_COUNT>
0

> <PUBCHEM_ATOM_UDEF_STEREO_COUNT>
0

> <PUBCHEM_BOND_DEF_STEREO_COUNT>
0

> <PUBCHEM_BOND_UDEF_STEREO_COUNT>
0

> <PUBCHEM_ISOTOPIC_ATOM_COUNT>
0

> <PUBCHEM_COMPONENT_COUNT>
1

> <PUBCHEM_CACTVS_TAUTO_COUNT>
1

> <PUBCHEM_CONFORMER_ID>
00007E4100000003

> <PUBCHEM_MMFF94_ENERGY>
68.8869

> <PUBCHEM_FEATURE_SELFOVERLAP>
20.297

> <PUBCHEM_SHAPE_FINGERPRINT>
10764073 3 16521259021997456683
11578080 2 6109939390744535057
11582403 64 16054660419395346719
11725454 13 16844184530518542445
121448 382 18336559316720226685
12173636 292 18337383950035136724
12714826 92 18264772069288222626
12788726 201 18199468766706177338
13583140 156 17418368099894115360
14787075 74 18114181973527558489
14817 1 13365382890824389261
16945 1 18195777796523775335
19765921 60 17971478652459532465
20510252 161 18335977567610847058
20600515 1 17684057233139968567
20645476 183 18339091491603512056
21330990 113 18263346050072983115
21524375 3 17825387641935815460
22907989 373 18336263427691073652
23419403 2 17974860467032821973
23557571 272 18334566915593095510
283562 15 18199748051149431010
394222 165 17321821302524672657
4340502 62 18194391419936065321
474 4 18047192126938731204
81228 2 18125130819626948271
84936 182 17684368747312957680
9981440 41 17823153353010017498

> <PUBCHEM_SHAPE_MULTIPOLES>
376.16
7.34
3.39
1.76
15.12
2.52
0.06
-1.46
0.25
-5.05
-0.97
-0.71
-0.46
0.21

> <PUBCHEM_SHAPE_SELFOVERLAP>
748.282

> <PUBCHEM_SHAPE_VOLUME>
225.7

> <PUBCHEM_COORDINATE_TYPE>
2
5
10

$$$$

