14647097
  -OEChem-07051213113D

 28 27  0     1  0  0  0  0  0999 V2000
    3.2204    0.2795    0.1055 P   0  0  1  0  0  0  0  0  0  0  0  0
    3.9246    1.5286   -0.6280 O   0  0  0  0  0  0  0  0  0  0  0  0
    3.4186    0.2228    1.5798 O   0  0  0  0  0  0  0  0  0  0  0  0
   -1.8135   -2.6127   -0.7754 O   0  0  0  0  0  0  0  0  0  0  0  0
   -2.1712   -1.7796    1.3050 O   0  0  0  0  0  0  0  0  0  0  0  0
   -3.0917    1.1521   -1.2225 O   0  0  0  0  0  0  0  0  0  0  0  0
   -1.4284    0.6931    0.3410 N   0  0  0  0  0  0  0  0  0  0  0  0
    0.6003   -0.6835    0.0513 C   0  0  0  0  0  0  0  0  0  0  0  0
    1.4891    0.4818   -0.3697 C   0  0  0  0  0  0  0  0  0  0  0  0
   -0.8743   -0.4753   -0.2938 C   0  0  1  0  0  0  0  0  0  0  0  0
    3.8073   -1.1299   -0.7906 C   0  0  0  0  0  0  0  0  0  0  0  0
   -1.6968   -1.6562    0.1831 C   0  0  0  0  0  0  0  0  0  0  0  0
   -2.4948    1.4100   -0.1805 C   0  0  0  0  0  0  0  0  0  0  0  0
   -2.8896    2.5693    0.6947 C   0  0  0  0  0  0  0  0  0  0  0  0
    0.9583   -1.6053   -0.4223 H   0  0  0  0  0  0  0  0  0  0  0  0
    0.7141   -0.8405    1.1319 H   0  0  0  0  0  0  0  0  0  0  0  0
    1.4393    0.6049   -1.4575 H   0  0  0  0  0  0  0  0  0  0  0  0
    1.1390    1.4172    0.0795 H   0  0  0  0  0  0  0  0  0  0  0  0
   -1.0068   -0.3703   -1.3773 H   0  0  0  0  0  0  0  0  0  0  0  0
   -1.0636    0.9566    1.2523 H   0  0  0  0  0  0  0  0  0  0  0  0
    3.3641   -2.0525   -0.4058 H   0  0  0  0  0  0  0  0  0  0  0  0
    3.5620   -1.0522   -1.8538 H   0  0  0  0  0  0  0  0  0  0  0  0
    4.8938   -1.2166   -0.6992 H   0  0  0  0  0  0  0  0  0  0  0  0
    4.9011    1.6152   -0.5950 H   0  0  0  0  0  0  0  0  0  0  0  0
   -3.5295    3.2540    0.1313 H   0  0  0  0  0  0  0  0  0  0  0  0
   -3.4364    2.1970    1.5652 H   0  0  0  0  0  0  0  0  0  0  0  0
   -2.0026    3.1159    1.0279 H   0  0  0  0  0  0  0  0  0  0  0  0
   -2.3263   -3.3866   -0.4585 H   0  0  0  0  0  0  0  0  0  0  0  0
  1  2  1  0  0  0  0
  1  3  2  0  0  0  0
  1  9  1  0  0  0  0
  1 11  1  0  0  0  0
  2 24  1  0  0  0  0
  4 12  1  0  0  0  0
  4 28  1  0  0  0  0
  5 12  2  0  0  0  0
  6 13  2  0  0  0  0
  7 10  1  0  0  0  0
  7 13  1  0  0  0  0
  7 20  1  0  0  0  0
  8  9  1  0  0  0  0
  8 10  1  0  0  0  0
  8 15  1  0  0  0  0
  8 16  1  0  0  0  0
  9 17  1  0  0  0  0
  9 18  1  0  0  0  0
 10 12  1  0  0  0  0
 10 19  1  0  0  0  0
 11 21  1  0  0  0  0
 11 22  1  0  0  0  0
 11 23  1  0  0  0  0
 13 14  1  0  0  0  0
 14 25  1  0  0  0  0
 14 26  1  0  0  0  0
 14 27  1  0  0  0  0
M  END
> <PUBCHEM_COMPOUND_CID>
14647097

> <PUBCHEM_CONFORMER_RMSD>
0.6

> <PUBCHEM_CONFORMER_DIVERSEORDER>
1
58
30
17
55
21
56
59
63
38
61
48
7
60
64
49
8
33
39
67
20
41
28
9
50
6
18
65
34
27
16
52
62
14
26
44
23
45
31
66
19
13
29
43
12
46
47
10
40
53
57
2
54
25
4
32
22
51
3
24
15
5
42
11
35
37
36

> <PUBCHEM_MMFF94_PARTIAL_CHARGES>
14
1 0.97
10 0.36
12 0.66
13 0.57
14 0.06
2 -0.77
20 0.37
24 0.5
28 0.5
3 -0.7
4 -0.65
5 -0.57
6 -0.57
7 -0.73

> <PUBCHEM_EFFECTIVE_ROTOR_COUNT>
6

> <PUBCHEM_PHARMACOPHORE_FEATURES>
5
1 4 acceptor
1 5 acceptor
1 6 acceptor
1 7 donor
3 4 5 12 anion

> <PUBCHEM_HEAVY_ATOM_COUNT>
14

> <PUBCHEM_ATOM_DEF_STEREO_COUNT>
1

> <PUBCHEM_ATOM_UDEF_STEREO_COUNT>
0

> <PUBCHEM_BOND_DEF_STEREO_COUNT>
0

> <PUBCHEM_BOND_UDEF_STEREO_COUNT>
0

> <PUBCHEM_ISOTOPIC_ATOM_COUNT>
0

> <PUBCHEM_COMPONENT_COUNT>
1

> <PUBCHEM_CACTVS_TAUTO_COUNT>
2

> <PUBCHEM_CONFORMER_ID>
00DF7F3900000001

> <PUBCHEM_MMFF94_ENERGY>
11.1389

> <PUBCHEM_FEATURE_SELFOVERLAP>
25.43

> <PUBCHEM_SHAPE_FINGERPRINT>
122479 349 18338231673573914033
12500047 106 18334296504679005278
12932764 1 17531243903640472710
13296908 3 18334852801780878150
13764800 53 18408316696485820889
1741750 31 18336547217444023617
18186145 218 18191308397093437005
20279233 1 17822018592669591042
20510252 161 18340199679012355139
20524608 308 18335420179423737863
20645477 56 18408885135449767704
20645477 70 17168141291237173046
20671657 1 18197785611845700218
20715346 28 18040998415031450442
21499 59 18195533808043002805
21524375 3 18267307719242771981
23402539 116 18334307461256570421
23500284 214 18261950846799698905
23557571 272 18189043218672590948
23559900 14 18261390101103230766
23598294 1 18343018852722260272
305870 269 17980480384294804009
3248919 1 18412273813470363254
6049 1 17894909569176577872
74978 22 18411417332519636516
7615 1 17917160398914902368
81228 2 18341050697123500683
93112 12 18409444808743685694

> <PUBCHEM_SHAPE_MULTIPOLES>
257.64
7.07
2.47
1.08
5.57
0.47
-0.21
-2.72
0.31
-2.5
-0.05
0.08
0.04
0.19

> <PUBCHEM_SHAPE_SELFOVERLAP>
476.503

> <PUBCHEM_SHAPE_VOLUME>
162.6

> <PUBCHEM_COORDINATE_TYPE>
2
5
10

$$$$

