243757
  -OEChem-07051213073D

 48 48  0     1  0  0  0  0  0999 V2000
    8.0724   -1.1321   -0.7669 O   0  0  0  0  0  0  0  0  0  0  0  0
   -5.9880   -0.0894    0.4561 C   0  0  1  0  0  0  0  0  0  0  0  0
   -4.7008   -0.8005    0.0659 C   0  0  0  0  0  0  0  0  0  0  0  0
   -6.2914    1.1092   -0.4552 C   0  0  0  0  0  0  0  0  0  0  0  0
   -3.4798    0.0894    0.3022 C   0  0  0  0  0  0  0  0  0  0  0  0
   -2.1483   -0.6046   -0.0038 C   0  0  0  0  0  0  0  0  0  0  0  0
   -0.9261    0.2645    0.3043 C   0  0  0  0  0  0  0  0  0  0  0  0
   -7.8108    1.1370   -0.6225 C   0  0  0  0  0  0  0  0  0  0  0  0
   -7.2081   -0.9401    0.2807 C   0  0  0  0  0  0  0  0  0  0  0  0
    0.4055   -0.4299   -0.0009 C   0  0  0  0  0  0  0  0  0  0  0  0
    1.6310    0.4277    0.3270 C   0  0  0  0  0  0  0  0  0  0  0  0
   -8.2028   -0.2663   -0.3048 C   0  0  0  0  0  0  0  0  0  0  0  0
    2.9286   -0.3214    0.0108 C   0  0  0  0  0  0  0  0  0  0  0  0
    4.1903    0.4794    0.3478 C   0  0  0  0  0  0  0  0  0  0  0  0
    5.4873   -0.2403   -0.0379 C   0  0  0  0  0  0  0  0  0  0  0  0
    6.7275    0.6090    0.2407 C   0  0  0  0  0  0  0  0  0  0  0  0
    8.0283   -0.0406   -0.2017 C   0  0  0  0  0  0  0  0  0  0  0  0
    9.2852    0.7488    0.0581 C   0  0  0  0  0  0  0  0  0  0  0  0
   -5.9374    0.2318    1.5044 H   0  0  0  0  0  0  0  0  0  0  0  0
   -4.5956   -1.7167    0.6613 H   0  0  0  0  0  0  0  0  0  0  0  0
   -4.7307   -1.1148   -0.9854 H   0  0  0  0  0  0  0  0  0  0  0  0
   -5.8232    0.9896   -1.4414 H   0  0  0  0  0  0  0  0  0  0  0  0
   -5.9172    2.0484   -0.0333 H   0  0  0  0  0  0  0  0  0  0  0  0
   -3.4731    0.4195    1.3486 H   0  0  0  0  0  0  0  0  0  0  0  0
   -3.5499    0.9940   -0.3135 H   0  0  0  0  0  0  0  0  0  0  0  0
   -2.1296   -0.8950   -1.0614 H   0  0  0  0  0  0  0  0  0  0  0  0
   -2.0835   -1.5309    0.5803 H   0  0  0  0  0  0  0  0  0  0  0  0
   -0.9882    1.1930   -0.2766 H   0  0  0  0  0  0  0  0  0  0  0  0
   -0.9466    0.5511    1.3629 H   0  0  0  0  0  0  0  0  0  0  0  0
   -8.0899    1.4172   -1.6424 H   0  0  0  0  0  0  0  0  0  0  0  0
   -8.2822    1.8326    0.0793 H   0  0  0  0  0  0  0  0  0  0  0  0
   -7.2912   -1.9597    0.6295 H   0  0  0  0  0  0  0  0  0  0  0  0
    0.4296   -0.7046   -1.0627 H   0  0  0  0  0  0  0  0  0  0  0  0
    0.4575   -1.3658    0.5693 H   0  0  0  0  0  0  0  0  0  0  0  0
    1.6141    0.7010    1.3888 H   0  0  0  0  0  0  0  0  0  0  0  0
    1.5934    1.3599   -0.2490 H   0  0  0  0  0  0  0  0  0  0  0  0
   -9.1851   -0.6742   -0.4940 H   0  0  0  0  0  0  0  0  0  0  0  0
    2.9489   -1.2671    0.5664 H   0  0  0  0  0  0  0  0  0  0  0  0
    2.9421   -0.5801   -1.0553 H   0  0  0  0  0  0  0  0  0  0  0  0
    4.2033    0.6993    1.4224 H   0  0  0  0  0  0  0  0  0  0  0  0
    4.1480    1.4442   -0.1729 H   0  0  0  0  0  0  0  0  0  0  0  0
    5.4549   -0.4973   -1.1041 H   0  0  0  0  0  0  0  0  0  0  0  0
    5.5594   -1.1881    0.5095 H   0  0  0  0  0  0  0  0  0  0  0  0
    6.6435    1.5672   -0.2846 H   0  0  0  0  0  0  0  0  0  0  0  0
    6.8006    0.8099    1.3155 H   0  0  0  0  0  0  0  0  0  0  0  0
    9.3766    0.9506    1.1282 H   0  0  0  0  0  0  0  0  0  0  0  0
   10.1565    0.1731   -0.2664 H   0  0  0  0  0  0  0  0  0  0  0  0
    9.2506    1.6867   -0.5015 H   0  0  0  0  0  0  0  0  0  0  0  0
  1 17  2  0  0  0  0
  2  3  1  0  0  0  0
  2  4  1  0  0  0  0
  2  9  1  0  0  0  0
  2 19  1  0  0  0  0
  3  5  1  0  0  0  0
  3 20  1  0  0  0  0
  3 21  1  0  0  0  0
  4  8  1  0  0  0  0
  4 22  1  0  0  0  0
  4 23  1  0  0  0  0
  5  6  1  0  0  0  0
  5 24  1  0  0  0  0
  5 25  1  0  0  0  0
  6  7  1  0  0  0  0
  6 26  1  0  0  0  0
  6 27  1  0  0  0  0
  7 10  1  0  0  0  0
  7 28  1  0  0  0  0
  7 29  1  0  0  0  0
  8 12  1  0  0  0  0
  8 30  1  0  0  0  0
  8 31  1  0  0  0  0
  9 12  2  0  0  0  0
  9 32  1  0  0  0  0
 10 11  1  0  0  0  0
 10 33  1  0  0  0  0
 10 34  1  0  0  0  0
 11 13  1  0  0  0  0
 11 35  1  0  0  0  0
 11 36  1  0  0  0  0
 12 37  1  0  0  0  0
 13 14  1  0  0  0  0
 13 38  1  0  0  0  0
 13 39  1  0  0  0  0
 14 15  1  0  0  0  0
 14 40  1  0  0  0  0
 14 41  1  0  0  0  0
 15 16  1  0  0  0  0
 15 42  1  0  0  0  0
 15 43  1  0  0  0  0
 16 17  1  0  0  0  0
 16 44  1  0  0  0  0
 16 45  1  0  0  0  0
 17 18  1  0  0  0  0
 18 46  1  0  0  0  0
 18 47  1  0  0  0  0
 18 48  1  0  0  0  0
M  END
> <PUBCHEM_COMPOUND_CID>
243757

> <PUBCHEM_CONFORMER_RMSD>
1.2

> <PUBCHEM_CONFORMER_DIVERSEORDER>
1
84
9
6
37
103
128
26
90
111
123
116
64
44
105
10
83
134
15
74
30
27
20
29
56
62
76
108
96
138
59
82
97
4
38
70
24
131
112
13
89
39
75
144
60
5
67
25
125
11
101
132
18
14
31
55
127
19
35
12
120
58
68
78
130
36
80
122
65
22
99
110
57
115
135
51
42
129
52
87
47
107
8
73
17
140
141
43
41
86
88
119
23
21
109
48
50
81
137
3
77
34
61
126
121
7
143
94
117
46
33
32
118
2
71
66
133
102
53
113
92
16
45
104
49
106
124
136
79
139
98
69
145
85
72
93
100
63
54
91
142
28
40
114
95

> <PUBCHEM_MMFF94_PARTIAL_CHARGES>
10
1 -0.57
12 -0.29
16 0.06
17 0.45
18 0.06
2 0.14
32 0.15
37 0.15
8 0.14
9 -0.29

> <PUBCHEM_EFFECTIVE_ROTOR_COUNT>
11.6

> <PUBCHEM_PHARMACOPHORE_FEATURES>
2
1 1 acceptor
5 2 4 8 9 12 rings

> <PUBCHEM_HEAVY_ATOM_COUNT>
18

> <PUBCHEM_ATOM_DEF_STEREO_COUNT>
0

> <PUBCHEM_ATOM_UDEF_STEREO_COUNT>
1

> <PUBCHEM_BOND_DEF_STEREO_COUNT>
0

> <PUBCHEM_BOND_UDEF_STEREO_COUNT>
0

> <PUBCHEM_ISOTOPIC_ATOM_COUNT>
0

> <PUBCHEM_COMPONENT_COUNT>
1

> <PUBCHEM_CACTVS_TAUTO_COUNT>
3

> <PUBCHEM_CONFORMER_ID>
0003B82D00000001

> <PUBCHEM_MMFF94_ENERGY>
9.7785

> <PUBCHEM_FEATURE_SELFOVERLAP>
10.148

> <PUBCHEM_SHAPE_FINGERPRINT>
10066227 49 17822567326324130398
11315181 36 18333729118483238569
11638347 137 8070036558611961204
12091667 2 18272932714036773811
13885169 127 18410855486167276769
14123256 10 16805602572883597959
14251764 18 16343706542790741100
14251764 46 18410855460128161802
14428016 248 16200144400869212196
14617042 71 15482092879696029598
16120349 18 16226336933002401416
18006028 8 16732983128330251432
20621476 8 18412546513617982454
21095086 128 5400802756877910124
21150785 3 14562529578619220244
21362267 313 17916877936517934744
22224240 67 15626224602551994344
232437 2 18114181926019232663
23521765 1 18335138687367079474
246663 6 8574713511729578704
249057 3 17095527262347259724
28498 318 18259983786665064878
33684 2 18412545409515955834
5758199 1 16487257672611153873
67123 10 18410855443386110016
8209 1 18408040706403672154

> <PUBCHEM_SHAPE_MULTIPOLES>
364.56
34.29
1.02
0.72
26.75
0.07
-0.01
2.93
-4.11
-0.77
-0.09
-0.05
0
0.97

> <PUBCHEM_SHAPE_SELFOVERLAP>
693.46

> <PUBCHEM_SHAPE_VOLUME>
225.9

> <PUBCHEM_COORDINATE_TYPE>
2
5
10

$$$$

