443377
  -OEChem-07051213023D

 67 67  0     1  0  0  0  0  0999 V2000
    2.8630    3.7402    1.6925 S   0  0  0  0  0  0  0  0  0  0  0  0
   -0.7581   -0.0118   -1.4557 O   0  0  0  0  0  0  0  0  0  0  0  0
   -4.9569   -1.0460   -0.0476 O   0  0  0  0  0  0  0  0  0  0  0  0
    0.7448    1.4339    1.8986 O   0  0  0  0  0  0  0  0  0  0  0  0
    5.4521   -0.0857   -2.1871 O   0  0  0  0  0  0  0  0  0  0  0  0
    3.1300   -2.1125    1.2554 O   0  0  0  0  0  0  0  0  0  0  0  0
   -2.3570   -0.2981    0.2038 N   0  0  0  0  0  0  0  0  0  0  0  0
    0.0580    2.2547   -0.1605 N   0  0  0  0  0  0  0  0  0  0  0  0
    4.0301   -0.8346   -0.4854 N   0  0  0  0  0  0  0  0  0  0  0  0
   -4.2626   -2.7141   -1.4975 N   0  0  0  0  0  0  0  0  0  0  0  0
   -2.3072   -2.5840    1.2190 C   0  0  0  0  0  0  0  0  0  0  0  0
   -2.6195   -1.7000   -0.0248 C   0  0  1  0  0  0  0  0  0  0  0  0
   -1.3258    1.8748   -0.0422 C   0  0  1  0  0  0  0  0  0  0  0  0
   -2.2507    2.7901   -0.8547 C   0  0  0  0  0  0  0  0  0  0  0  0
   -2.5329   -4.0827    0.9419 C   0  0  0  0  0  0  0  0  0  0  0  0
   -0.8333   -2.3837    1.6351 C   0  0  0  0  0  0  0  0  0  0  0  0
   -3.1891   -2.1695    2.4137 C   0  0  0  0  0  0  0  0  0  0  0  0
   -2.1823    4.2828   -0.4725 C   0  0  0  0  0  0  0  0  0  0  0  0
   -1.4404    0.4363   -0.5366 C   0  0  0  0  0  0  0  0  0  0  0  0
   -4.0712   -1.7707   -0.4988 C   0  0  0  0  0  0  0  0  0  0  0  0
    2.3933    2.4723    0.4614 C   0  0  1  0  0  0  0  0  0  0  0  0
    3.4206    1.3345    0.4837 C   0  0  0  0  0  0  0  0  0  0  0  0
    3.0586    0.2252   -0.5036 C   0  0  0  0  0  0  0  0  0  0  0  0
    0.9934    1.9990    0.8350 C   0  0  0  0  0  0  0  0  0  0  0  0
   -3.0823    5.1514   -1.3524 C   0  0  0  0  0  0  0  0  0  0  0  0
   -2.5741    4.4577    0.9973 C   0  0  0  0  0  0  0  0  0  0  0  0
    5.9078   -2.1336   -1.0044 C   0  0  0  0  0  0  0  0  0  0  0  0
    5.1431   -2.8025    0.1255 C   0  0  0  0  0  0  0  0  0  0  0  0
    5.1291   -0.8900   -1.3239 C   0  0  0  0  0  0  0  0  0  0  0  0
    3.9718   -1.9022    0.3931 C   0  0  0  0  0  0  0  0  0  0  0  0
   -5.5521   -2.9314   -2.1083 C   0  0  0  0  0  0  0  0  0  0  0  0
   -1.9770   -2.0342   -0.8496 H   0  0  0  0  0  0  0  0  0  0  0  0
   -1.5988    1.8980    1.0186 H   0  0  0  0  0  0  0  0  0  0  0  0
   -2.0021    2.6955   -1.9208 H   0  0  0  0  0  0  0  0  0  0  0  0
   -3.2852    2.4340   -0.7580 H   0  0  0  0  0  0  0  0  0  0  0  0
   -2.9159    0.1813    0.9038 H   0  0  0  0  0  0  0  0  0  0  0  0
   -1.9450   -4.4140    0.0789 H   0  0  0  0  0  0  0  0  0  0  0  0
   -2.2356   -4.6945    1.8014 H   0  0  0  0  0  0  0  0  0  0  0  0
   -3.5863   -4.3010    0.7382 H   0  0  0  0  0  0  0  0  0  0  0  0
   -0.6303   -1.3522    1.9430 H   0  0  0  0  0  0  0  0  0  0  0  0
   -0.5693   -3.0305    2.4798 H   0  0  0  0  0  0  0  0  0  0  0  0
   -0.1564   -2.6271    0.8083 H   0  0  0  0  0  0  0  0  0  0  0  0
   -4.2532   -2.3215    2.2054 H   0  0  0  0  0  0  0  0  0  0  0  0
   -3.0431   -1.1207    2.6921 H   0  0  0  0  0  0  0  0  0  0  0  0
   -2.9493   -2.7707    3.2991 H   0  0  0  0  0  0  0  0  0  0  0  0
   -1.1538    4.6421   -0.6005 H   0  0  0  0  0  0  0  0  0  0  0  0
    0.3663    2.6570   -1.0409 H   0  0  0  0  0  0  0  0  0  0  0  0
    2.3959    2.9514   -0.5232 H   0  0  0  0  0  0  0  0  0  0  0  0
    4.4175    1.7243    0.2391 H   0  0  0  0  0  0  0  0  0  0  0  0
    3.4908    0.9000    1.4903 H   0  0  0  0  0  0  0  0  0  0  0  0
    2.0829   -0.2059   -0.2544 H   0  0  0  0  0  0  0  0  0  0  0  0
    3.0020    0.6365   -1.5178 H   0  0  0  0  0  0  0  0  0  0  0  0
   -2.9947    6.2083   -1.0795 H   0  0  0  0  0  0  0  0  0  0  0  0
   -2.8015    5.0529   -2.4062 H   0  0  0  0  0  0  0  0  0  0  0  0
   -4.1334    4.8600   -1.2535 H   0  0  0  0  0  0  0  0  0  0  0  0
   -3.5530    4.0132    1.2066 H   0  0  0  0  0  0  0  0  0  0  0  0
   -2.6267    5.5206    1.2584 H   0  0  0  0  0  0  0  0  0  0  0  0
   -1.8382    4.0055    1.6688 H   0  0  0  0  0  0  0  0  0  0  0  0
   -3.4886   -3.3006   -1.7947 H   0  0  0  0  0  0  0  0  0  0  0  0
    5.9571   -2.7761   -1.8884 H   0  0  0  0  0  0  0  0  0  0  0  0
    6.9219   -1.8646   -0.6949 H   0  0  0  0  0  0  0  0  0  0  0  0
    5.7571   -2.8880    1.0268 H   0  0  0  0  0  0  0  0  0  0  0  0
    4.7870   -3.7949   -0.1662 H   0  0  0  0  0  0  0  0  0  0  0  0
   -6.0652   -1.9774   -2.2555 H   0  0  0  0  0  0  0  0  0  0  0  0
   -5.4039   -3.4299   -3.0689 H   0  0  0  0  0  0  0  0  0  0  0  0
   -6.1460   -3.5676   -1.4473 H   0  0  0  0  0  0  0  0  0  0  0  0
    1.9003    4.6211    1.3816 H   0  0  0  0  0  0  0  0  0  0  0  0
  1 21  1  0  0  0  0
  1 67  1  0  0  0  0
  2 19  2  0  0  0  0
  3 20  2  0  0  0  0
  4 24  2  0  0  0  0
  5 29  2  0  0  0  0
  6 30  2  0  0  0  0
  7 12  1  0  0  0  0
  7 19  1  0  0  0  0
  7 36  1  0  0  0  0
  8 13  1  0  0  0  0
  8 24  1  0  0  0  0
  8 47  1  0  0  0  0
  9 23  1  0  0  0  0
  9 29  1  0  0  0  0
  9 30  1  0  0  0  0
 10 20  1  0  0  0  0
 10 31  1  0  0  0  0
 10 59  1  0  0  0  0
 11 12  1  0  0  0  0
 11 15  1  0  0  0  0
 11 16  1  0  0  0  0
 11 17  1  0  0  0  0
 12 20  1  0  0  0  0
 12 32  1  0  0  0  0
 13 14  1  0  0  0  0
 13 19  1  0  0  0  0
 13 33  1  0  0  0  0
 14 18  1  0  0  0  0
 14 34  1  0  0  0  0
 14 35  1  0  0  0  0
 15 37  1  0  0  0  0
 15 38  1  0  0  0  0
 15 39  1  0  0  0  0
 16 40  1  0  0  0  0
 16 41  1  0  0  0  0
 16 42  1  0  0  0  0
 17 43  1  0  0  0  0
 17 44  1  0  0  0  0
 17 45  1  0  0  0  0
 18 25  1  0  0  0  0
 18 26  1  0  0  0  0
 18 46  1  0  0  0  0
 21 22  1  0  0  0  0
 21 24  1  0  0  0  0
 21 48  1  0  0  0  0
 22 23  1  0  0  0  0
 22 49  1  0  0  0  0
 22 50  1  0  0  0  0
 23 51  1  0  0  0  0
 23 52  1  0  0  0  0
 25 53  1  0  0  0  0
 25 54  1  0  0  0  0
 25 55  1  0  0  0  0
 26 56  1  0  0  0  0
 26 57  1  0  0  0  0
 26 58  1  0  0  0  0
 27 28  1  0  0  0  0
 27 29  1  0  0  0  0
 27 60  1  0  0  0  0
 27 61  1  0  0  0  0
 28 30  1  0  0  0  0
 28 62  1  0  0  0  0
 28 63  1  0  0  0  0
 31 64  1  0  0  0  0
 31 65  1  0  0  0  0
 31 66  1  0  0  0  0
M  END
> <PUBCHEM_COMPOUND_CID>
443377

> <PUBCHEM_CONFORMER_RMSD>
1.2

> <PUBCHEM_CONFORMER_DIVERSEORDER>
1
4
50
220
238
57
120
40
137
33
124
236
30
182
58
56
27
169
111
181
144
93
155
143
119
63
55
42
178
190
127
45
80
105
204
158
194
82
224
114
211
99
102
164
142
193
146
201
75
242
171
232
226
22
51
210
187
233
47
89
78
77
197
90
118
237
41
52
140
222
85
32
225
156
94
96
49
133
46
231
107
126
110
234
66
136
116
92
2
125
91
172
229
21
147
216
174
95
163
199
141
121
106
62
86
61
129
203
130
173
135
214
161
100
16
227
228
8
188
34
39
112
12
115
28
5
207
43
123
37
73
88
189
152
230
71
202
205
138
162
14
54
3
219
217
208
218
68
29
23
87
36
65
84
221
72
160
17
122
24
175
15
148
213
134
139
76
69
200
159
109
98
25
223
35
212
26
154
183
59
240
53
113
209
167
44
67
48
131
151
215
101
170
60
166
117
128
157
196
145
6
235
198
31
83
179
168
177
38
10
13
153
70
239
186
108
7
20
9
74
19
64
81
192
79
103
11
191
132
18
176
97
185
165
150
149
241
184
180
104
195
206

> <PUBCHEM_MMFF94_PARTIAL_CHARGES>
26
1 -0.41
10 -0.73
12 0.36
13 0.36
19 0.57
2 -0.57
20 0.57
21 0.29
23 0.3
24 0.57
27 0.06
28 0.06
29 0.57
3 -0.57
30 0.57
31 0.3
36 0.37
4 -0.57
47 0.37
5 -0.57
59 0.37
6 -0.57
67 0.18
7 -0.73
8 -0.73
9 -0.42

> <PUBCHEM_EFFECTIVE_ROTOR_COUNT>
14.6

> <PUBCHEM_PHARMACOPHORE_FEATURES>
11
1 10 donor
1 2 acceptor
1 3 acceptor
1 4 acceptor
1 5 acceptor
1 6 acceptor
1 7 donor
1 8 donor
3 18 25 26 hydrophobe
4 11 15 16 17 hydrophobe
5 9 27 28 29 30 rings

> <PUBCHEM_HEAVY_ATOM_COUNT>
31

> <PUBCHEM_ATOM_DEF_STEREO_COUNT>
1

> <PUBCHEM_ATOM_UDEF_STEREO_COUNT>
2

> <PUBCHEM_BOND_DEF_STEREO_COUNT>
0

> <PUBCHEM_BOND_UDEF_STEREO_COUNT>
0

> <PUBCHEM_ISOTOPIC_ATOM_COUNT>
0

> <PUBCHEM_COMPONENT_COUNT>
1

> <PUBCHEM_CACTVS_TAUTO_COUNT>
24

> <PUBCHEM_CONFORMER_ID>
0006C3F100000001

> <PUBCHEM_MMFF94_ENERGY>
54.8993

> <PUBCHEM_FEATURE_SELFOVERLAP>
55.818

> <PUBCHEM_SHAPE_FINGERPRINT>
11991303 11 18127692845408634757
12788726 201 18341896333155535595
13533116 47 17897446082409601859
13690498 29 18336817663176807652
14251757 5 18342729758362971978
14725015 67 18411147938885639666
14790565 3 17618781796685463136
14866123 147 18266737064202385571
15361156 5 18411129217217661428
15775530 1 18335154084825849184
15927050 60 17978514466384120383
19315092 285 17169837669653321459
20775530 9 18337942425022707538
21703447 108 18263380109015979464
22440779 20 17627749181207742464
23559900 14 18128817443438843030
3737641 26 18193540187150154544
38695281 34 17550948525825266608
44062 13 18264770029189183300
484985 159 17460299169614318658
5171179 24 18333740104213211096
613672 6 18125729993239228587

> <PUBCHEM_SHAPE_MULTIPOLES>
592.54
11.86
7.03
1.91
9.89
6.76
0.14
-10.77
-5.71
-6.85
0.61
-0.59
-0.61
1.62

> <PUBCHEM_SHAPE_SELFOVERLAP>
1171.134

> <PUBCHEM_SHAPE_VOLUME>
357.8

> <PUBCHEM_COORDINATE_TYPE>
2
5
10

$$$$

