11397
  -OEChem-06261205372D

 20 21  0     0  0  0  0  0  0999 V2000
    2.5369   -1.0000    0.0000 O   0  0  0  0  0  0  0  0  0  0  0  0
    7.7991   -1.0241    0.0000 O   0  0  0  0  0  0  0  0  0  0  0  0
    5.1350   -0.5000    0.0000 C   0  0  0  0  0  0  0  0  0  0  0  0
    5.1350    0.5000    0.0000 C   0  0  0  0  0  0  0  0  0  0  0  0
    4.2690   -1.0000    0.0000 C   0  0  0  0  0  0  0  0  0  0  0  0
    6.0290   -1.0347    0.0000 C   0  0  0  0  0  0  0  0  0  0  0  0
    4.2690    1.0000    0.0000 C   0  0  0  0  0  0  0  0  0  0  0  0
    6.0290    1.0347    0.0000 C   0  0  0  0  0  0  0  0  0  0  0  0
    3.4030   -0.5000    0.0000 C   0  0  0  0  0  0  0  0  0  0  0  0
    6.9350   -0.5208    0.0000 C   0  0  0  0  0  0  0  0  0  0  0  0
    3.4030    0.5000    0.0000 C   0  0  0  0  0  0  0  0  0  0  0  0
    6.9350    0.5208    0.0000 C   0  0  0  0  0  0  0  0  0  0  0  0
    4.2690   -1.6200    0.0000 H   0  0  0  0  0  0  0  0  0  0  0  0
    6.0218   -1.6546    0.0000 H   0  0  0  0  0  0  0  0  0  0  0  0
    4.2690    1.6200    0.0000 H   0  0  0  0  0  0  0  0  0  0  0  0
    6.0218    1.6546    0.0000 H   0  0  0  0  0  0  0  0  0  0  0  0
    2.8660    0.8100    0.0000 H   0  0  0  0  0  0  0  0  0  0  0  0
    7.4708    0.8329    0.0000 H   0  0  0  0  0  0  0  0  0  0  0  0
    2.0000   -0.6900    0.0000 H   0  0  0  0  0  0  0  0  0  0  0  0
    8.3372   -0.7162    0.0000 H   0  0  0  0  0  0  0  0  0  0  0  0
  1  9  1  0  0  0  0
  1 19  1  0  0  0  0
  2 10  1  0  0  0  0
  2 20  1  0  0  0  0
  3  4  2  0  0  0  0
  3  5  1  0  0  0  0
  3  6  1  0  0  0  0
  4  7  1  0  0  0  0
  4  8  1  0  0  0  0
  5  9  2  0  0  0  0
  5 13  1  0  0  0  0
  6 10  2  0  0  0  0
  6 14  1  0  0  0  0
  7 11  2  0  0  0  0
  7 15  1  0  0  0  0
  8 12  2  0  0  0  0
  8 16  1  0  0  0  0
  9 11  1  0  0  0  0
 10 12  1  0  0  0  0
 11 17  1  0  0  0  0
 12 18  1  0  0  0  0
M  END
> <PUBCHEM_COMPOUND_CID>
11397

> <PUBCHEM_COMPOUND_CANONICALIZED>
1

> <PUBCHEM_CACTVS_COMPLEXITY>
142

> <PUBCHEM_CACTVS_HBOND_ACCEPTOR>
2

> <PUBCHEM_CACTVS_HBOND_DONOR>
2

> <PUBCHEM_CACTVS_ROTATABLE_BOND>
0

> <PUBCHEM_CACTVS_SUBSKEYS>
AAADccBwMAAAAAAAAAAAAAAAAAAAAAAAAAAwYAAAAAAAAADBUAAAGgAACAAADASAmAAwBsAAAgCAAiBCAAACAAAgIAAIiAAGCIgIJiKCERKAcAAkwBEImAeA4LQOoAABAAAQAABAAAIAACAAAAAAAAAAAA==

> <PUBCHEM_IUPAC_OPENEYE_NAME>
naphthalene-2,7-diol

> <PUBCHEM_IUPAC_CAS_NAME>
naphthalene-2,7-diol

> <PUBCHEM_IUPAC_NAME>
naphthalene-2,7-diol

> <PUBCHEM_IUPAC_SYSTEMATIC_NAME>
naphthalene-2,7-diol

> <PUBCHEM_IUPAC_TRADITIONAL_NAME>
naphthalene-2,7-diol

> <PUBCHEM_IUPAC_INCHI>
InChI=1S/C10H8O2/c11-9-3-1-7-2-4-10(12)6-8(7)5-9/h1-6,11-12H

> <PUBCHEM_IUPAC_INCHIKEY>
DFQICHCWIIJABH-UHFFFAOYSA-N

> <PUBCHEM_XLOGP3>
2.3

> <PUBCHEM_EXACT_MASS>
160.052429

> <PUBCHEM_MOLECULAR_FORMULA>
C10H8O2

> <PUBCHEM_MOLECULAR_WEIGHT>
160.16932

> <PUBCHEM_OPENEYE_CAN_SMILES>
C1=CC(=CC2=C1C=CC(=C2)O)O

> <PUBCHEM_OPENEYE_ISO_SMILES>
C1=CC(=CC2=C1C=CC(=C2)O)O

> <PUBCHEM_CACTVS_TPSA>
40.5

> <PUBCHEM_MONOISOTOPIC_WEIGHT>
160.052429

> <PUBCHEM_TOTAL_CHARGE>
0

> <PUBCHEM_HEAVY_ATOM_COUNT>
12

> <PUBCHEM_ATOM_DEF_STEREO_COUNT>
0

> <PUBCHEM_ATOM_UDEF_STEREO_COUNT>
0

> <PUBCHEM_BOND_DEF_STEREO_COUNT>
0

> <PUBCHEM_BOND_UDEF_STEREO_COUNT>
0

> <PUBCHEM_ISOTOPIC_ATOM_COUNT>
0

> <PUBCHEM_COMPONENT_COUNT>
1

> <PUBCHEM_CACTVS_TAUTO_COUNT>
10

> <PUBCHEM_COORDINATE_TYPE>
1
5
255

> <PUBCHEM_BONDANNOTATIONS>
10  12  8
3  4  8
3  5  8
3  6  8
4  7  8
4  8  8
5  9  8
6  10  8
7  11  8
8  12  8
9  11  8

$$$$

