17580
  -OEChem-07051213133D

 30 30  0     0  0  0  0  0  0999 V2000
   -1.3951    0.0186   -0.9183 S   0  0  0  0  0  0  0  0  0  0  0  0
    3.0151   -2.0343   -0.3536 S   0  0  0  0  0  0  0  0  0  0  0  0
   -4.7476    0.8406   -1.5977 S   0  0  0  0  0  0  0  0  0  0  0  0
   -3.3494    0.5355   -0.2552 P   0  0  0  0  0  0  0  0  0  0  0  0
    4.0962    0.4202   -0.1680 O   0  0  0  0  0  0  0  0  0  0  0  0
   -3.1838    1.8023    0.7656 O   0  0  0  0  0  0  0  0  0  0  0  0
   -3.7916   -0.5872    0.8486 O   0  0  0  0  0  0  0  0  0  0  0  0
    0.6259   -3.0951   -0.0674 O   0  0  0  0  0  0  0  0  0  0  0  0
    0.8641   -0.7797    0.2591 N   0  0  0  0  0  0  0  0  0  0  0  0
    1.8285    0.2006    0.2320 N   0  0  0  0  0  0  0  0  0  0  0  0
   -0.4826   -0.4092    0.5765 C   0  0  0  0  0  0  0  0  0  0  0  0
    1.2893   -2.0702   -0.0296 C   0  0  0  0  0  0  0  0  0  0  0  0
    2.9715   -0.3195   -0.0705 C   0  0  0  0  0  0  0  0  0  0  0  0
    3.8966    1.8008    0.0911 C   0  0  0  0  0  0  0  0  0  0  0  0
    5.2217    2.5223   -0.0322 C   0  0  0  0  0  0  0  0  0  0  0  0
   -2.7943    3.0738    0.2732 C   0  0  0  0  0  0  0  0  0  0  0  0
   -4.0646   -1.9194    0.4465 C   0  0  0  0  0  0  0  0  0  0  0  0
   -0.9805   -1.2550    1.0598 H   0  0  0  0  0  0  0  0  0  0  0  0
   -0.4766    0.4374    1.2700 H   0  0  0  0  0  0  0  0  0  0  0  0
    3.1934    2.2252   -0.6356 H   0  0  0  0  0  0  0  0  0  0  0  0
    3.5096    1.9455    1.1069 H   0  0  0  0  0  0  0  0  0  0  0  0
    5.1044    3.5922    0.1615 H   0  0  0  0  0  0  0  0  0  0  0  0
    5.9509    2.1133    0.6750 H   0  0  0  0  0  0  0  0  0  0  0  0
    5.6417    2.3889   -1.0346 H   0  0  0  0  0  0  0  0  0  0  0  0
   -2.0092    2.9793   -0.4806 H   0  0  0  0  0  0  0  0  0  0  0  0
   -2.4124    3.6671    1.1077 H   0  0  0  0  0  0  0  0  0  0  0  0
   -3.6606    3.5843   -0.1545 H   0  0  0  0  0  0  0  0  0  0  0  0
   -3.3621   -2.2504   -0.3221 H   0  0  0  0  0  0  0  0  0  0  0  0
   -5.0875   -1.9866    0.0680 H   0  0  0  0  0  0  0  0  0  0  0  0
   -3.9672   -2.5719    1.3177 H   0  0  0  0  0  0  0  0  0  0  0  0
  1  4  1  0  0  0  0
  1 11  1  0  0  0  0
  2 12  1  0  0  0  0
  2 13  1  0  0  0  0
  3  4  2  0  0  0  0
  4  6  1  0  0  0  0
  4  7  1  0  0  0  0
  5 13  1  0  0  0  0
  5 14  1  0  0  0  0
  6 16  1  0  0  0  0
  7 17  1  0  0  0  0
  8 12  2  0  0  0  0
  9 10  1  0  0  0  0
  9 11  1  0  0  0  0
  9 12  1  0  0  0  0
 10 13  2  0  0  0  0
 11 18  1  0  0  0  0
 11 19  1  0  0  0  0
 14 15  1  0  0  0  0
 14 20  1  0  0  0  0
 14 21  1  0  0  0  0
 15 22  1  0  0  0  0
 15 23  1  0  0  0  0
 15 24  1  0  0  0  0
 16 25  1  0  0  0  0
 16 26  1  0  0  0  0
 16 27  1  0  0  0  0
 17 28  1  0  0  0  0
 17 29  1  0  0  0  0
 17 30  1  0  0  0  0
M  END
> <PUBCHEM_COMPOUND_CID>
17580

> <PUBCHEM_CONFORMER_RMSD>
0.8

> <PUBCHEM_CONFORMER_DIVERSEORDER>
1
71
7
64
76
140
127
122
12
120
45
35
58
98
68
106
145
136
125
48
141
101
150
60
63
85
16
147
31
144
44
49
146
22
56
108
149
86
28
124
121
105
38
67
87
117
55
70
83
134
112
96
50
27
99
26
129
13
91
25
118
40
115
32
79
109
100
72
81
37
20
30
23
90
116
123
47
89
36
33
104
138
92
65
137
84
17
24
93
74
43
41
78
18
143
29
114
69
53
51
39
111
126
88
119
42
110
139
77
148
5
113
94
19
73
62
128
80
54
11
61
46
95
14
97
131
6
82
107
102
52
10
151
75
15
142
132
8
59
57
66
21
133
135
2
130
4
3
103
34
9

> <PUBCHEM_MMFF94_PARTIAL_CHARGES>
16
1 -0.48
10 -0.51
11 0.53
12 0.77
13 0.74
14 0.28
16 0.28
17 0.28
2 -0.28
3 -0.68
4 1.47
5 -0.43
6 -0.55
7 -0.55
8 -0.57
9 -0.3

> <PUBCHEM_EFFECTIVE_ROTOR_COUNT>
7

> <PUBCHEM_PHARMACOPHORE_FEATURES>
1
5 2 9 10 12 13 rings

> <PUBCHEM_HEAVY_ATOM_COUNT>
17

> <PUBCHEM_ATOM_DEF_STEREO_COUNT>
0

> <PUBCHEM_ATOM_UDEF_STEREO_COUNT>
0

> <PUBCHEM_BOND_DEF_STEREO_COUNT>
0

> <PUBCHEM_BOND_UDEF_STEREO_COUNT>
0

> <PUBCHEM_ISOTOPIC_ATOM_COUNT>
0

> <PUBCHEM_COMPONENT_COUNT>
1

> <PUBCHEM_CACTVS_TAUTO_COUNT>
1

> <PUBCHEM_CONFORMER_ID>
000044AC00000001

> <PUBCHEM_MMFF94_ENERGY>
12.9181

> <PUBCHEM_FEATURE_SELFOVERLAP>
5.074

> <PUBCHEM_SHAPE_FINGERPRINT>
10366900 7 18260277339037123033
11132069 177 17775846830616751533
12596602 18 17560813069815150392
14123255 52 18409167675968504436
14251764 38 18341053003426090768
14415576 193 18337388348329301286
18186145 218 18059006323349618919
20645477 70 18188779473326705319
21709351 56 18191309488278699126
23532345 1 18339366369615736631
23557571 272 17561073739848530799
23559900 14 18268153243394998738
474 4 18412831295788232228
474229 33 18267302036605816363
5104073 3 18272930548455437435
633830 44 18187920737364641015
84936 182 18260553350789267456
9709674 26 18118964930544159167

> <PUBCHEM_SHAPE_MULTIPOLES>
331.81
10.75
3.3
0.97
1.4
0.35
-0.23
6.01
-1.18
1.32
0.31
-1.16
0.12
0.52

> <PUBCHEM_SHAPE_SELFOVERLAP>
596.969

> <PUBCHEM_SHAPE_VOLUME>
218.2

> <PUBCHEM_COORDINATE_TYPE>
2
5
10

$$$$

