5282299
  -OEChem-07051213042D

136135  0     1  0  0  0  0  0999 V2000
    6.3301   -4.0000    0.0000 P   0  0  3  0  0  0  0  0  0  0  0  0
    9.7942   -2.0000    0.0000 O   0  0  0  0  0  0  0  0  0  0  0  0
    5.4641   -4.5000    0.0000 O   0  0  0  0  0  0  0  0  0  0  0  0
    9.7942   -4.0000    0.0000 O   0  0  0  0  0  0  0  0  0  0  0  0
    7.1962   -3.5000    0.0000 O   0  0  0  0  0  0  0  0  0  0  0  0
    5.8301   -3.1340    0.0000 O   0  0  0  0  0  0  0  0  0  0  0  0
    6.8301   -4.8660    0.0000 O   0  0  0  0  0  0  0  0  0  0  0  0
   10.6603   -2.5000    0.0000 O   0  0  0  0  0  0  0  0  0  0  0  0
    2.8660   -4.0000    0.0000 N   0  3  0  0  0  0  0  0  0  0  0  0
   13.2583    4.0000    0.0000 C   0  0  0  0  0  0  0  0  0  0  0  0
   12.3923    3.5000    0.0000 C   0  0  0  0  0  0  0  0  0  0  0  0
   13.2583    5.0000    0.0000 C   0  0  0  0  0  0  0  0  0  0  0  0
   12.3923    2.5000    0.0000 C   0  0  0  0  0  0  0  0  0  0  0  0
   14.1244    5.5000    0.0000 C   0  0  0  0  0  0  0  0  0  0  0  0
   11.5263    2.0000    0.0000 C   0  0  0  0  0  0  0  0  0  0  0  0
   14.1244    6.5000    0.0000 C   0  0  0  0  0  0  0  0  0  0  0  0
   11.5263    1.0000    0.0000 C   0  0  0  0  0  0  0  0  0  0  0  0
   14.9904    7.0000    0.0000 C   0  0  0  0  0  0  0  0  0  0  0  0
   10.6603    0.5000    0.0000 C   0  0  0  0  0  0  0  0  0  0  0  0
   14.9904    8.0000    0.0000 C   0  0  0  0  0  0  0  0  0  0  0  0
    3.7320   -4.5000    0.0000 C   0  0  0  0  0  0  0  0  0  0  0  0
   10.6603   -0.5000    0.0000 C   0  0  0  0  0  0  0  0  0  0  0  0
   15.8564    8.5000    0.0000 C   0  0  0  0  0  0  0  0  0  0  0  0
    2.0000   -3.5000    0.0000 C   0  0  0  0  0  0  0  0  0  0  0  0
    2.3660   -4.8660    0.0000 C   0  0  0  0  0  0  0  0  0  0  0  0
    3.3660   -3.1340    0.0000 C   0  0  0  0  0  0  0  0  0  0  0  0
    4.5981   -4.0000    0.0000 C   0  0  0  0  0  0  0  0  0  0  0  0
    9.7942   -1.0000    0.0000 C   0  0  0  0  0  0  0  0  0  0  0  0
   15.8564    9.5000    0.0000 C   0  0  0  0  0  0  0  0  0  0  0  0
   14.1244   -3.5000    0.0000 C   0  0  0  0  0  0  0  0  0  0  0  0
   14.9904   -4.0000    0.0000 C   0  0  0  0  0  0  0  0  0  0  0  0
   13.2583   -4.0000    0.0000 C   0  0  0  0  0  0  0  0  0  0  0  0
    8.9282   -3.5000    0.0000 C   0  0  3  0  0  0  0  0  0  0  0  0
    8.9282   -2.5000    0.0000 C   0  0  0  0  0  0  0  0  0  0  0  0
   15.8564   -3.5000    0.0000 C   0  0  0  0  0  0  0  0  0  0  0  0
   12.3923   -3.5000    0.0000 C   0  0  0  0  0  0  0  0  0  0  0  0
   19.3205   -6.5000    0.0000 C   0  0  0  0  0  0  0  0  0  0  0  0
   20.1865   -7.0000    0.0000 C   0  0  0  0  0  0  0  0  0  0  0  0
   19.3205   -5.5000    0.0000 C   0  0  0  0  0  0  0  0  0  0  0  0
   20.1865   -8.0000    0.0000 C   0  0  0  0  0  0  0  0  0  0  0  0
   16.7224   10.0000    0.0000 C   0  0  0  0  0  0  0  0  0  0  0  0
    8.0622   -4.0000    0.0000 C   0  0  0  0  0  0  0  0  0  0  0  0
   11.5263   -4.0000    0.0000 C   0  0  0  0  0  0  0  0  0  0  0  0
   16.7224   -4.0000    0.0000 C   0  0  0  0  0  0  0  0  0  0  0  0
   18.4545   -5.0000    0.0000 C   0  0  0  0  0  0  0  0  0  0  0  0
   21.0526   -8.5000    0.0000 C   0  0  0  0  0  0  0  0  0  0  0  0
   10.6603   -3.5000    0.0000 C   0  0  0  0  0  0  0  0  0  0  0  0
   17.5885   -3.5000    0.0000 C   0  0  0  0  0  0  0  0  0  0  0  0
   18.4545   -4.0000    0.0000 C   0  0  0  0  0  0  0  0  0  0  0  0
   21.0526   -9.5000    0.0000 C   0  0  0  0  0  0  0  0  0  0  0  0
   21.9186  -10.0000    0.0000 C   0  0  0  0  0  0  0  0  0  0  0  0
   13.4704    3.4174    0.0000 H   0  0  0  0  0  0  0  0  0  0  0  0
   13.8689    4.1077    0.0000 H   0  0  0  0  0  0  0  0  0  0  0  0
   12.1803    4.0826    0.0000 H   0  0  0  0  0  0  0  0  0  0  0  0
   11.7817    3.3923    0.0000 H   0  0  0  0  0  0  0  0  0  0  0  0
   13.0463    5.5826    0.0000 H   0  0  0  0  0  0  0  0  0  0  0  0
   12.6477    4.8923    0.0000 H   0  0  0  0  0  0  0  0  0  0  0  0
   12.6044    1.9174    0.0000 H   0  0  0  0  0  0  0  0  0  0  0  0
   13.0029    2.6077    0.0000 H   0  0  0  0  0  0  0  0  0  0  0  0
   14.3364    4.9174    0.0000 H   0  0  0  0  0  0  0  0  0  0  0  0
   14.7349    5.6077    0.0000 H   0  0  0  0  0  0  0  0  0  0  0  0
   11.3142    2.5826    0.0000 H   0  0  0  0  0  0  0  0  0  0  0  0
   10.9157    1.8923    0.0000 H   0  0  0  0  0  0  0  0  0  0  0  0
   13.9123    7.0826    0.0000 H   0  0  0  0  0  0  0  0  0  0  0  0
   13.5138    6.3923    0.0000 H   0  0  0  0  0  0  0  0  0  0  0  0
   11.7383    0.4174    0.0000 H   0  0  0  0  0  0  0  0  0  0  0  0
   12.1369    1.1077    0.0000 H   0  0  0  0  0  0  0  0  0  0  0  0
   15.2024    6.4174    0.0000 H   0  0  0  0  0  0  0  0  0  0  0  0
   15.6010    7.1077    0.0000 H   0  0  0  0  0  0  0  0  0  0  0  0
   10.4482    1.0826    0.0000 H   0  0  0  0  0  0  0  0  0  0  0  0
   10.0497    0.3923    0.0000 H   0  0  0  0  0  0  0  0  0  0  0  0
   14.7783    8.5826    0.0000 H   0  0  0  0  0  0  0  0  0  0  0  0
   14.3798    7.8923    0.0000 H   0  0  0  0  0  0  0  0  0  0  0  0
    3.3335   -4.9750    0.0000 H   0  0  0  0  0  0  0  0  0  0  0  0
    4.1306   -4.9750    0.0000 H   0  0  0  0  0  0  0  0  0  0  0  0
   10.8723   -1.0826    0.0000 H   0  0  0  0  0  0  0  0  0  0  0  0
   11.2708   -0.3923    0.0000 H   0  0  0  0  0  0  0  0  0  0  0  0
   16.0685    7.9174    0.0000 H   0  0  0  0  0  0  0  0  0  0  0  0
   16.4670    8.6077    0.0000 H   0  0  0  0  0  0  0  0  0  0  0  0
    1.8291   -4.5560    0.0000 H   0  0  0  0  0  0  0  0  0  0  0  0
    2.0560   -5.4030    0.0000 H   0  0  0  0  0  0  0  0  0  0  0  0
    2.9030   -5.1760    0.0000 H   0  0  0  0  0  0  0  0  0  0  0  0
    3.9030   -3.4440    0.0000 H   0  0  0  0  0  0  0  0  0  0  0  0
    3.6760   -2.5970    0.0000 H   0  0  0  0  0  0  0  0  0  0  0  0
    2.8291   -2.8240    0.0000 H   0  0  0  0  0  0  0  0  0  0  0  0
    2.3100   -2.9631    0.0000 H   0  0  0  0  0  0  0  0  0  0  0  0
    1.4631   -3.1900    0.0000 H   0  0  0  0  0  0  0  0  0  0  0  0
    1.6900   -4.0369    0.0000 H   0  0  0  0  0  0  0  0  0  0  0  0
    4.9966   -3.5250    0.0000 H   0  0  0  0  0  0  0  0  0  0  0  0
    4.1996   -3.5250    0.0000 H   0  0  0  0  0  0  0  0  0  0  0  0
    9.5822   -0.4174    0.0000 H   0  0  0  0  0  0  0  0  0  0  0  0
    9.1836   -1.1077    0.0000 H   0  0  0  0  0  0  0  0  0  0  0  0
   15.6444   10.0826    0.0000 H   0  0  0  0  0  0  0  0  0  0  0  0
   15.2458    9.3923    0.0000 H   0  0  0  0  0  0  0  0  0  0  0  0
   14.5229   -3.0250    0.0000 H   0  0  0  0  0  0  0  0  0  0  0  0
   13.7258   -3.0250    0.0000 H   0  0  0  0  0  0  0  0  0  0  0  0
   14.5919   -4.4750    0.0000 H   0  0  0  0  0  0  0  0  0  0  0  0
   15.3889   -4.4750    0.0000 H   0  0  0  0  0  0  0  0  0  0  0  0
   12.8598   -4.4750    0.0000 H   0  0  0  0  0  0  0  0  0  0  0  0
   13.6569   -4.4750    0.0000 H   0  0  0  0  0  0  0  0  0  0  0  0
    9.4651   -3.1900    0.0000 H   0  0  0  0  0  0  0  0  0  0  0  0
    8.7162   -1.9174    0.0000 H   0  0  0  0  0  0  0  0  0  0  0  0
    8.3176   -2.6077    0.0000 H   0  0  0  0  0  0  0  0  0  0  0  0
   16.2549   -3.0250    0.0000 H   0  0  0  0  0  0  0  0  0  0  0  0
   15.4579   -3.0250    0.0000 H   0  0  0  0  0  0  0  0  0  0  0  0
   12.7908   -3.0250    0.0000 H   0  0  0  0  0  0  0  0  0  0  0  0
   11.9938   -3.0250    0.0000 H   0  0  0  0  0  0  0  0  0  0  0  0
   18.7099   -6.3923    0.0000 H   0  0  0  0  0  0  0  0  0  0  0  0
   19.1085   -7.0826    0.0000 H   0  0  0  0  0  0  0  0  0  0  0  0
   20.7971   -7.1077    0.0000 H   0  0  0  0  0  0  0  0  0  0  0  0
   20.3986   -6.4174    0.0000 H   0  0  0  0  0  0  0  0  0  0  0  0
   19.9311   -5.6077    0.0000 H   0  0  0  0  0  0  0  0  0  0  0  0
   19.5326   -4.9174    0.0000 H   0  0  0  0  0  0  0  0  0  0  0  0
   19.5760   -7.8923    0.0000 H   0  0  0  0  0  0  0  0  0  0  0  0
   19.9745   -8.5826    0.0000 H   0  0  0  0  0  0  0  0  0  0  0  0
   17.0324    9.4631    0.0000 H   0  0  0  0  0  0  0  0  0  0  0  0
   17.2594   10.3100    0.0000 H   0  0  0  0  0  0  0  0  0  0  0  0
   16.4124   10.5369    0.0000 H   0  0  0  0  0  0  0  0  0  0  0  0
    7.6636   -4.4750    0.0000 H   0  0  0  0  0  0  0  0  0  0  0  0
    8.4607   -4.4750    0.0000 H   0  0  0  0  0  0  0  0  0  0  0  0
   16.3239   -4.4750    0.0000 H   0  0  0  0  0  0  0  0  0  0  0  0
   17.1210   -4.4750    0.0000 H   0  0  0  0  0  0  0  0  0  0  0  0
   11.1278   -4.4750    0.0000 H   0  0  0  0  0  0  0  0  0  0  0  0
   11.9248   -4.4750    0.0000 H   0  0  0  0  0  0  0  0  0  0  0  0
   17.8439   -4.8923    0.0000 H   0  0  0  0  0  0  0  0  0  0  0  0
   18.2424   -5.5826    0.0000 H   0  0  0  0  0  0  0  0  0  0  0  0
   21.6631   -8.6077    0.0000 H   0  0  0  0  0  0  0  0  0  0  0  0
   21.2646   -7.9174    0.0000 H   0  0  0  0  0  0  0  0  0  0  0  0
   17.5885   -2.8800    0.0000 H   0  0  0  0  0  0  0  0  0  0  0  0
   18.9914   -3.6900    0.0000 H   0  0  0  0  0  0  0  0  0  0  0  0
   20.4420   -9.3923    0.0000 H   0  0  0  0  0  0  0  0  0  0  0  0
   20.8405  -10.0826    0.0000 H   0  0  0  0  0  0  0  0  0  0  0  0
   21.6086  -10.5369    0.0000 H   0  0  0  0  0  0  0  0  0  0  0  0
   22.4555  -10.3100    0.0000 H   0  0  0  0  0  0  0  0  0  0  0  0
   22.2286   -9.4631    0.0000 H   0  0  0  0  0  0  0  0  0  0  0  0
    6.1401   -2.5970    0.0000 H   0  0  0  0  0  0  0  0  0  0  0  0
  1  3  1  0  0  0  0
  1  5  1  0  0  0  0
  1  6  1  0  0  0  0
  1  7  2  0  0  0  0
  2 28  1  0  0  0  0
  2 34  1  0  0  0  0
  3 27  1  0  0  0  0
  4 33  1  0  0  0  0
  4 47  1  0  0  0  0
  5 42  1  0  0  0  0
  6136  1  0  0  0  0
  8 47  2  0  0  0  0
  9 21  1  0  0  0  0
  9 24  1  0  0  0  0
  9 25  1  0  0  0  0
  9 26  1  0  0  0  0
 10 11  1  0  0  0  0
 10 12  1  0  0  0  0
 10 52  1  0  0  0  0
 10 53  1  0  0  0  0
 11 13  1  0  0  0  0
 11 54  1  0  0  0  0
 11 55  1  0  0  0  0
 12 14  1  0  0  0  0
 12 56  1  0  0  0  0
 12 57  1  0  0  0  0
 13 15  1  0  0  0  0
 13 58  1  0  0  0  0
 13 59  1  0  0  0  0
 14 16  1  0  0  0  0
 14 60  1  0  0  0  0
 14 61  1  0  0  0  0
 15 17  1  0  0  0  0
 15 62  1  0  0  0  0
 15 63  1  0  0  0  0
 16 18  1  0  0  0  0
 16 64  1  0  0  0  0
 16 65  1  0  0  0  0
 17 19  1  0  0  0  0
 17 66  1  0  0  0  0
 17 67  1  0  0  0  0
 18 20  1  0  0  0  0
 18 68  1  0  0  0  0
 18 69  1  0  0  0  0
 19 22  1  0  0  0  0
 19 70  1  0  0  0  0
 19 71  1  0  0  0  0
 20 23  1  0  0  0  0
 20 72  1  0  0  0  0
 20 73  1  0  0  0  0
 21 27  1  0  0  0  0
 21 74  1  0  0  0  0
 21 75  1  0  0  0  0
 22 28  1  0  0  0  0
 22 76  1  0  0  0  0
 22 77  1  0  0  0  0
 23 29  1  0  0  0  0
 23 78  1  0  0  0  0
 23 79  1  0  0  0  0
 24 86  1  0  0  0  0
 24 87  1  0  0  0  0
 24 88  1  0  0  0  0
 25 80  1  0  0  0  0
 25 81  1  0  0  0  0
 25 82  1  0  0  0  0
 26 83  1  0  0  0  0
 26 84  1  0  0  0  0
 26 85  1  0  0  0  0
 27 89  1  0  0  0  0
 27 90  1  0  0  0  0
 28 91  1  0  0  0  0
 28 92  1  0  0  0  0
 29 41  1  0  0  0  0
 29 93  1  0  0  0  0
 29 94  1  0  0  0  0
 30 31  1  0  0  0  0
 30 32  1  0  0  0  0
 30 95  1  0  0  0  0
 30 96  1  0  0  0  0
 31 35  1  0  0  0  0
 31 97  1  0  0  0  0
 31 98  1  0  0  0  0
 32 36  1  0  0  0  0
 32 99  1  0  0  0  0
 32100  1  0  0  0  0
 33 34  1  0  0  0  0
 33 42  1  0  0  0  0
 33101  1  0  0  0  0
 34102  1  0  0  0  0
 34103  1  0  0  0  0
 35 44  1  0  0  0  0
 35104  1  0  0  0  0
 35105  1  0  0  0  0
 36 43  1  0  0  0  0
 36106  1  0  0  0  0
 36107  1  0  0  0  0
 37 38  1  0  0  0  0
 37 39  1  0  0  0  0
 37108  1  0  0  0  0
 37109  1  0  0  0  0
 38 40  1  0  0  0  0
 38110  1  0  0  0  0
 38111  1  0  0  0  0
 39 45  1  0  0  0  0
 39112  1  0  0  0  0
 39113  1  0  0  0  0
 40 46  1  0  0  0  0
 40114  1  0  0  0  0
 40115  1  0  0  0  0
 41116  1  0  0  0  0
 41117  1  0  0  0  0
 41118  1  0  0  0  0
 42119  1  0  0  0  0
 42120  1  0  0  0  0
 43 47  1  0  0  0  0
 43123  1  0  0  0  0
 43124  1  0  0  0  0
 44 48  1  0  0  0  0
 44121  1  0  0  0  0
 44122  1  0  0  0  0
 45 49  1  0  0  0  0
 45125  1  0  0  0  0
 45126  1  0  0  0  0
 46 50  1  0  0  0  0
 46127  1  0  0  0  0
 46128  1  0  0  0  0
 48 49  2  0  0  0  0
 48129  1  0  0  0  0
 49130  1  0  0  0  0
 50 51  1  0  0  0  0
 50131  1  0  0  0  0
 50132  1  0  0  0  0
 51133  1  0  0  0  0
 51134  1  0  0  0  0
 51135  1  0  0  0  0
M  CHG  1   9   1
M  END
> <PUBCHEM_COMPOUND_CID>
5282299

> <PUBCHEM_COMPOUND_CANONICALIZED>
1

> <PUBCHEM_CACTVS_COMPLEXITY>
833

> <PUBCHEM_CACTVS_HBOND_ACCEPTOR>
7

> <PUBCHEM_CACTVS_HBOND_DONOR>
1

> <PUBCHEM_CACTVS_ROTATABLE_BOND>
41

> <PUBCHEM_CACTVS_SUBSKEYS>
AAADcfB+OAIAAAAAAAAAAAAAAAAAAAAAAAAAAAAAAAAAAAAAAAAAHgAACCAACBThgAYCCAMABRCIQCDSCIAAAAAgAAAICAEIAAgDABIAAQACAAAFgAAaAAOIyKCAAAAAAAAAAAAAAAAAAAAAAAAAAAAAAA==

> <PUBCHEM_IUPAC_OPENEYE_NAME>
2-[[3-hexadecoxy-2-[(Z)-octadec-9-enoyl]oxy-propoxy]-hydroxy-phosphoryl]oxyethyl-trimethyl-ammonium

> <PUBCHEM_IUPAC_CAS_NAME>
2-[[3-hexadecoxy-2-[(Z)-1-oxooctadec-9-enoxy]propoxy]-hydroxyphosphoryl]oxyethyl-trimethylammonium

> <PUBCHEM_IUPAC_NAME>
2-[[3-hexadecoxy-2-[(Z)-octadec-9-enoyl]oxypropoxy]-hydroxyphosphoryl]oxyethyl-trimethylazanium

> <PUBCHEM_IUPAC_SYSTEMATIC_NAME>
2-[[3-hexadecoxy-2-[(Z)-octadec-9-enoyl]oxy-propoxy]-oxidanyl-phosphoryl]oxyethyl-trimethyl-azanium

> <PUBCHEM_IUPAC_TRADITIONAL_NAME>
2-[[3-cetyloxy-2-[(Z)-octadec-9-enoyl]oxy-propoxy]-hydroxy-phosphoryl]oxyethyl-trimethyl-ammonium

> <PUBCHEM_IUPAC_INCHI>
InChI=1S/C42H84NO7P/c1-6-8-10-12-14-16-18-20-22-23-25-27-29-31-33-35-42(44)50-41(40-49-51(45,46)48-38-36-43(3,4)5)39-47-37-34-32-30-28-26-24-21-19-17-15-13-11-9-7-2/h20,22,41H,6-19,21,23-40H2,1-5H3/p+1/b22-20-

> <PUBCHEM_IUPAC_INCHIKEY>
SIEDNCDNGMIKST-XDOYNYLZSA-O

> <PUBCHEM_XLOGP3_AA>
14.1

> <PUBCHEM_EXACT_MASS>
746.606366

> <PUBCHEM_MOLECULAR_FORMULA>
C42H85NO7P+

> <PUBCHEM_MOLECULAR_WEIGHT>
747.100562

> <PUBCHEM_OPENEYE_CAN_SMILES>
CCCCCCCCCCCCCCCCOCC(COP(=O)(O)OCC[N+](C)(C)C)OC(=O)CCCCCCCC=CCCCCCCCC

> <PUBCHEM_OPENEYE_ISO_SMILES>
CCCCCCCCCCCCCCCCOCC(COP(=O)(O)OCC[N+](C)(C)C)OC(=O)CCCCCCC/C=C\CCCCCCCC

> <PUBCHEM_CACTVS_TPSA>
91.3

> <PUBCHEM_MONOISOTOPIC_WEIGHT>
746.606366

> <PUBCHEM_TOTAL_CHARGE>
1

> <PUBCHEM_HEAVY_ATOM_COUNT>
51

> <PUBCHEM_ATOM_DEF_STEREO_COUNT>
0

> <PUBCHEM_ATOM_UDEF_STEREO_COUNT>
1

> <PUBCHEM_BOND_DEF_STEREO_COUNT>
1

> <PUBCHEM_BOND_UDEF_STEREO_COUNT>
0

> <PUBCHEM_ISOTOPIC_ATOM_COUNT>
0

> <PUBCHEM_COMPONENT_COUNT>
1

> <PUBCHEM_CACTVS_TAUTO_COUNT>
1

> <PUBCHEM_COORDINATE_TYPE>
1
5
255

> <PUBCHEM_BONDANNOTATIONS>
33  42  3

$$$$

