21160714
  -OEChem-07051212563D

 50 54  0     1  0  0  0  0  0999 V2000
   -1.4874   -1.3914    2.4847 O   0  0  0  0  0  0  0  0  0  0  0  0
   -2.2938   -2.6474   -0.4334 O   0  0  0  0  0  0  0  0  0  0  0  0
   -3.8273   -1.0504    0.2260 O   0  0  0  0  0  0  0  0  0  0  0  0
   -0.6276    1.1032   -1.4819 N   0  0  2  0  0  0  0  0  0  0  0  0
    2.5777    1.7139    0.2934 N   0  0  0  0  0  0  0  0  0  0  0  0
   -1.4554   -0.5566    0.2466 C   0  0  2  0  0  0  0  0  0  0  0  0
   -0.7143   -0.3642   -1.1386 C   0  0  2  0  0  0  0  0  0  0  0  0
   -1.9099    0.8442    0.7681 C   0  0  1  0  0  0  0  0  0  0  0  0
    0.1224    1.8157   -0.3953 C   0  0  1  0  0  0  0  0  0  0  0  0
   -0.6803    1.7675    0.9315 C   0  0  0  0  0  0  0  0  0  0  0  0
    0.7074   -0.9973   -1.2634 C   0  0  0  0  0  0  0  0  0  0  0  0
   -1.9940    1.6680   -1.5986 C   0  0  0  0  0  0  0  0  0  0  0  0
   -2.7531    1.5038   -0.3081 C   0  0  0  0  0  0  0  0  0  0  0  0
    1.4564    1.1562   -0.2467 C   0  0  0  0  0  0  0  0  0  0  0  0
    1.7446   -0.1373   -0.6235 C   0  0  0  0  0  0  0  0  0  0  0  0
   -0.6702   -1.3070    1.3367 C   0  0  0  0  0  0  0  0  0  0  0  0
   -2.6793   -1.4213    0.0216 C   0  0  0  0  0  0  0  0  0  0  0  0
    3.1041   -0.3851   -0.2966 C   0  0  0  0  0  0  0  0  0  0  0  0
   -4.0202    1.9017   -0.1391 C   0  0  0  0  0  0  0  0  0  0  0  0
    3.6028    0.7901    0.2792 C   0  0  0  0  0  0  0  0  0  0  0  0
    3.9656   -1.4921   -0.4317 C   0  0  0  0  0  0  0  0  0  0  0  0
   -4.7805    1.7439    1.1339 C   0  0  0  0  0  0  0  0  0  0  0  0
    4.9235    0.9061    0.7276 C   0  0  0  0  0  0  0  0  0  0  0  0
    5.2882   -1.3874    0.0129 C   0  0  0  0  0  0  0  0  0  0  0  0
   -3.3569   -3.5708   -0.6886 C   0  0  0  0  0  0  0  0  0  0  0  0
    5.7575   -0.2062    0.5835 C   0  0  0  0  0  0  0  0  0  0  0  0
   -1.3074   -0.8369   -1.9345 H   0  0  0  0  0  0  0  0  0  0  0  0
   -2.4183    0.7594    1.7289 H   0  0  0  0  0  0  0  0  0  0  0  0
    0.2822    2.8594   -0.6953 H   0  0  0  0  0  0  0  0  0  0  0  0
   -0.0639    1.4413    1.7772 H   0  0  0  0  0  0  0  0  0  0  0  0
   -1.0232    2.7820    1.1785 H   0  0  0  0  0  0  0  0  0  0  0  0
    0.9587   -1.0784   -2.3298 H   0  0  0  0  0  0  0  0  0  0  0  0
    0.7289   -2.0144   -0.8614 H   0  0  0  0  0  0  0  0  0  0  0  0
   -2.5234    1.1674   -2.4183 H   0  0  0  0  0  0  0  0  0  0  0  0
   -1.9222    2.7298   -1.8641 H   0  0  0  0  0  0  0  0  0  0  0  0
    0.2472   -0.7881    1.6224 H   0  0  0  0  0  0  0  0  0  0  0  0
   -0.3960   -2.3261    1.0458 H   0  0  0  0  0  0  0  0  0  0  0  0
    2.6494    2.6544    0.6571 H   0  0  0  0  0  0  0  0  0  0  0  0
   -4.5496    2.3554   -0.9729 H   0  0  0  0  0  0  0  0  0  0  0  0
   -0.9787   -1.8598    3.1683 H   0  0  0  0  0  0  0  0  0  0  0  0
    3.6138   -2.4198   -0.8739 H   0  0  0  0  0  0  0  0  0  0  0  0
   -5.4861    0.9117    1.0532 H   0  0  0  0  0  0  0  0  0  0  0  0
   -5.3691    2.6530    1.3029 H   0  0  0  0  0  0  0  0  0  0  0  0
   -4.1747    1.6105    2.0299 H   0  0  0  0  0  0  0  0  0  0  0  0
    5.2914    1.8252    1.1713 H   0  0  0  0  0  0  0  0  0  0  0  0
    5.9562   -2.2386   -0.0887 H   0  0  0  0  0  0  0  0  0  0  0  0
   -2.9168   -4.5055   -1.0461 H   0  0  0  0  0  0  0  0  0  0  0  0
   -4.0224   -3.1769   -1.4627 H   0  0  0  0  0  0  0  0  0  0  0  0
   -3.9115   -3.7730    0.2325 H   0  0  0  0  0  0  0  0  0  0  0  0
    6.7889   -0.1471    0.9220 H   0  0  0  0  0  0  0  0  0  0  0  0
  1 16  1  0  0  0  0
  1 40  1  0  0  0  0
  2 17  1  0  0  0  0
  2 25  1  0  0  0  0
  3 17  2  0  0  0  0
  4  7  1  0  0  0  0
  4  9  1  0  0  0  0
  4 12  1  0  0  0  0
  5 14  1  0  0  0  0
  5 20  1  0  0  0  0
  5 38  1  0  0  0  0
  6  7  1  0  0  0  0
  6  8  1  0  0  0  0
  6 16  1  0  0  0  0
  6 17  1  0  0  0  0
  7 11  1  0  0  0  0
  7 27  1  0  0  0  0
  8 10  1  0  0  0  0
  8 13  1  0  0  0  0
  8 28  1  0  0  0  0
  9 10  1  0  0  0  0
  9 14  1  0  0  0  0
  9 29  1  0  0  0  0
 10 30  1  0  0  0  0
 10 31  1  0  0  0  0
 11 15  1  0  0  0  0
 11 32  1  0  0  0  0
 11 33  1  0  0  0  0
 12 13  1  0  0  0  0
 12 34  1  0  0  0  0
 12 35  1  0  0  0  0
 13 19  2  0  0  0  0
 14 15  2  0  0  0  0
 15 18  1  0  0  0  0
 16 36  1  0  0  0  0
 16 37  1  0  0  0  0
 18 20  1  0  0  0  0
 18 21  2  0  0  0  0
 19 22  1  0  0  0  0
 19 39  1  0  0  0  0
 20 23  2  0  0  0  0
 21 24  1  0  0  0  0
 21 41  1  0  0  0  0
 22 42  1  0  0  0  0
 22 43  1  0  0  0  0
 22 44  1  0  0  0  0
 23 26  1  0  0  0  0
 23 45  1  0  0  0  0
 24 26  2  0  0  0  0
 24 46  1  0  0  0  0
 25 47  1  0  0  0  0
 25 48  1  0  0  0  0
 25 49  1  0  0  0  0
 26 50  1  0  0  0  0
M  END
> <PUBCHEM_COMPOUND_CID>
21160714

> <PUBCHEM_CONFORMER_RMSD>
0.8

> <PUBCHEM_CONFORMER_DIVERSEORDER>
1
4
5
2
3

> <PUBCHEM_MMFF94_PARTIAL_CHARGES>
31
1 -0.68
11 0.18
12 0.41
13 -0.28
14 -0.33
15 -0.18
16 0.28
17 0.66
19 -0.29
2 -0.43
20 -0.15
21 -0.15
22 0.14
23 -0.15
24 -0.15
25 0.28
26 -0.15
3 -0.57
38 0.27
39 0.15
4 -0.81
40 0.4
41 0.15
45 0.15
46 0.15
5 0.03
50 0.15
6 0.06
7 0.27
8 0.14
9 0.45

> <PUBCHEM_EFFECTIVE_ROTOR_COUNT>
3.8

> <PUBCHEM_PHARMACOPHORE_FEATURES>
11
1 1 acceptor
1 1 donor
1 22 hydrophobe
1 3 acceptor
1 4 cation
1 5 cation
1 5 donor
5 5 14 15 18 20 rings
6 18 20 21 23 24 26 rings
6 4 7 9 11 14 15 rings
8 4 6 7 8 9 10 12 13 rings

> <PUBCHEM_HEAVY_ATOM_COUNT>
26

> <PUBCHEM_ATOM_DEF_STEREO_COUNT>
3

> <PUBCHEM_ATOM_UDEF_STEREO_COUNT>
1

> <PUBCHEM_BOND_DEF_STEREO_COUNT>
1

> <PUBCHEM_BOND_UDEF_STEREO_COUNT>
0

> <PUBCHEM_ISOTOPIC_ATOM_COUNT>
0

> <PUBCHEM_COMPONENT_COUNT>
1

> <PUBCHEM_CACTVS_TAUTO_COUNT>
1

> <PUBCHEM_CONFORMER_ID>
0142E30A00000001

> <PUBCHEM_MMFF94_ENERGY>
81.0946

> <PUBCHEM_FEATURE_SELFOVERLAP>
56.327

> <PUBCHEM_SHAPE_FINGERPRINT>
10863032 1 18333450923991330897
10906281 52 18041825333337871440
10948715 1 18115587205053664933
11315181 36 18342183233197985520
11370993 70 18114179773976853775
11552529 35 18187369787703130518
12035758 1 18338785810687110489
12236239 1 14907605852978982428
12293681 4 18040711506657880089
12422481 6 18194650793026869715
12553582 1 16845856797789423204
12633257 1 18335691763022064336
13004483 165 18046354032917702471
13140716 1 18333734598202469092
13224815 77 18335415764830191500
13544653 18 18268708299182341742
13583140 156 17386012736731476282
14866123 147 18412545405791396067
15196674 1 18408887334931705684
15209289 33 18060700589279642474
15295992 7 17458356229430872984
16752209 62 16414938377768298942
16945 1 18190444134052308149
17492 89 18266740177727315822
1813 80 17275099540134731916
19141452 34 18411135857068269621
19930381 70 17472132255497427623
200 152 17822021916462731388
21033648 29 18194981831235799912
21065198 57 18408324393436564544
23402539 116 18262243321451593477
23419403 2 16951702276785288363
23559900 14 18334297595869743352
25147074 1 18129086840841053517
335352 9 18336826510635461372
3380486 145 18335687313752281585
38695281 34 18193558002964732897
404807 14 16381117692272711519
4340502 62 18188761881773507169
463206 1 17690846661681211879
5104073 3 18334591126909149874
5924683 9 18336552624765859023
9709674 26 18272087133148425066

> <PUBCHEM_SHAPE_MULTIPOLES>
507.5
9.79
2.79
1.36
10.25
1.82
-0.27
0.3
-1.93
-3.21
0.23
-0.74
0.07
0.11

> <PUBCHEM_SHAPE_SELFOVERLAP>
1135.368

> <PUBCHEM_SHAPE_VOLUME>
266.2

> <PUBCHEM_COORDINATE_TYPE>
2
5
10

$$$$

