582867
  -OEChem-06241222443D

 46 45  0     0  0  0  0  0  0999 V2000
   -3.3184   -0.1481    0.0262 Si  0  0  0  0  0  0  0  0  0  0  0  0
    3.3184    0.1481    0.0262 Si  0  0  0  0  0  0  0  0  0  0  0  0
   -1.7194   -0.6283    0.0370 O   0  0  0  0  0  0  0  0  0  0  0  0
    1.7195    0.6283    0.0369 O   0  0  0  0  0  0  0  0  0  0  0  0
   -0.6883    0.3704   -0.0297 C   0  0  0  0  0  0  0  0  0  0  0  0
    0.6882   -0.3704   -0.0297 C   0  0  0  0  0  0  0  0  0  0  0  0
   -0.8727    1.2756    1.1991 C   0  0  0  0  0  0  0  0  0  0  0  0
   -0.9362    1.1918   -1.3025 C   0  0  0  0  0  0  0  0  0  0  0  0
    0.8728   -1.2754    1.1993 C   0  0  0  0  0  0  0  0  0  0  0  0
    0.9361   -1.1919   -1.3024 C   0  0  0  0  0  0  0  0  0  0  0  0
   -4.4258   -1.6695    0.1230 C   0  0  0  0  0  0  0  0  0  0  0  0
   -3.7469    0.7827   -1.5513 C   0  0  0  0  0  0  0  0  0  0  0  0
   -3.7153    0.9538    1.4981 C   0  0  0  0  0  0  0  0  0  0  0  0
    4.4258    1.6695    0.1229 C   0  0  0  0  0  0  0  0  0  0  0  0
    3.7469   -0.7829   -1.5513 C   0  0  0  0  0  0  0  0  0  0  0  0
    3.7154   -0.9537    1.4981 C   0  0  0  0  0  0  0  0  0  0  0  0
   -1.1126    0.7153    2.1075 H   0  0  0  0  0  0  0  0  0  0  0  0
    0.0689    1.7957    1.4181 H   0  0  0  0  0  0  0  0  0  0  0  0
   -1.5640    2.1038    1.0464 H   0  0  0  0  0  0  0  0  0  0  0  0
   -0.0023    1.6987   -1.5822 H   0  0  0  0  0  0  0  0  0  0  0  0
   -1.1977    0.5767   -2.1675 H   0  0  0  0  0  0  0  0  0  0  0  0
   -1.6236    2.0276   -1.1725 H   0  0  0  0  0  0  0  0  0  0  0  0
   -0.0688   -1.7955    1.4183 H   0  0  0  0  0  0  0  0  0  0  0  0
    1.5641   -2.1036    1.0465 H   0  0  0  0  0  0  0  0  0  0  0  0
    1.1126   -0.7150    2.1075 H   0  0  0  0  0  0  0  0  0  0  0  0
    1.1977   -0.5768   -2.1675 H   0  0  0  0  0  0  0  0  0  0  0  0
    1.6234   -2.0276   -1.1724 H   0  0  0  0  0  0  0  0  0  0  0  0
    0.0021   -1.6988   -1.5821 H   0  0  0  0  0  0  0  0  0  0  0  0
   -4.2258   -2.2298    1.0410 H   0  0  0  0  0  0  0  0  0  0  0  0
   -4.2444   -2.3291   -0.7305 H   0  0  0  0  0  0  0  0  0  0  0  0
   -5.4806   -1.3797    0.1179 H   0  0  0  0  0  0  0  0  0  0  0  0
   -3.5671    1.8580   -1.4970 H   0  0  0  0  0  0  0  0  0  0  0  0
   -3.2806    0.3512   -2.4399 H   0  0  0  0  0  0  0  0  0  0  0  0
   -4.8284    0.6849   -1.7067 H   0  0  0  0  0  0  0  0  0  0  0  0
   -4.7931    0.8798    1.6876 H   0  0  0  0  0  0  0  0  0  0  0  0
   -3.5308    2.0139    1.3133 H   0  0  0  0  0  0  0  0  0  0  0  0
   -3.2268    0.6267    2.4187 H   0  0  0  0  0  0  0  0  0  0  0  0
    4.2443    2.3290   -0.7307 H   0  0  0  0  0  0  0  0  0  0  0  0
    4.2258    2.2299    1.0408 H   0  0  0  0  0  0  0  0  0  0  0  0
    5.4806    1.3796    0.1177 H   0  0  0  0  0  0  0  0  0  0  0  0
    3.5671   -1.8582   -1.4970 H   0  0  0  0  0  0  0  0  0  0  0  0
    3.2805   -0.3514   -2.4399 H   0  0  0  0  0  0  0  0  0  0  0  0
    4.8284   -0.6850   -1.7066 H   0  0  0  0  0  0  0  0  0  0  0  0
    3.2269   -0.6265    2.4187 H   0  0  0  0  0  0  0  0  0  0  0  0
    3.5307   -2.0138    1.3135 H   0  0  0  0  0  0  0  0  0  0  0  0
    4.7932   -0.8798    1.6876 H   0  0  0  0  0  0  0  0  0  0  0  0
  1  3  1  0  0  0  0
  1 11  1  0  0  0  0
  1 12  1  0  0  0  0
  1 13  1  0  0  0  0
  2  4  1  0  0  0  0
  2 14  1  0  0  0  0
  2 15  1  0  0  0  0
  2 16  1  0  0  0  0
  3  5  1  0  0  0  0
  4  6  1  0  0  0  0
  5  6  1  0  0  0  0
  5  7  1  0  0  0  0
  5  8  1  0  0  0  0
  6  9  1  0  0  0  0
  6 10  1  0  0  0  0
  7 17  1  0  0  0  0
  7 18  1  0  0  0  0
  7 19  1  0  0  0  0
  8 20  1  0  0  0  0
  8 21  1  0  0  0  0
  8 22  1  0  0  0  0
  9 23  1  0  0  0  0
  9 24  1  0  0  0  0
  9 25  1  0  0  0  0
 10 26  1  0  0  0  0
 10 27  1  0  0  0  0
 10 28  1  0  0  0  0
 11 29  1  0  0  0  0
 11 30  1  0  0  0  0
 11 31  1  0  0  0  0
 12 32  1  0  0  0  0
 12 33  1  0  0  0  0
 12 34  1  0  0  0  0
 13 35  1  0  0  0  0
 13 36  1  0  0  0  0
 13 37  1  0  0  0  0
 14 38  1  0  0  0  0
 14 39  1  0  0  0  0
 14 40  1  0  0  0  0
 15 41  1  0  0  0  0
 15 42  1  0  0  0  0
 15 43  1  0  0  0  0
 16 44  1  0  0  0  0
 16 45  1  0  0  0  0
 16 46  1  0  0  0  0
M  END
> <PUBCHEM_COMPOUND_CID>
582867

> <PUBCHEM_CONFORMER_RMSD>
0.6

> <PUBCHEM_CONFORMER_DIVERSEORDER>
3
2
1

> <PUBCHEM_MMFF94_PARTIAL_CHARGES>
12
1 0.54
11 -0.08
12 -0.08
13 -0.08
14 -0.08
15 -0.08
16 -0.08
2 0.54
3 -0.58
4 -0.58
5 0.28
6 0.28

> <PUBCHEM_EFFECTIVE_ROTOR_COUNT>
5

> <PUBCHEM_PHARMACOPHORE_FEATURES>
2
3 5 7 8 hydrophobe
3 6 9 10 hydrophobe

> <PUBCHEM_HEAVY_ATOM_COUNT>
16

> <PUBCHEM_ATOM_DEF_STEREO_COUNT>
0

> <PUBCHEM_ATOM_UDEF_STEREO_COUNT>
0

> <PUBCHEM_BOND_DEF_STEREO_COUNT>
0

> <PUBCHEM_BOND_UDEF_STEREO_COUNT>
0

> <PUBCHEM_ISOTOPIC_ATOM_COUNT>
0

> <PUBCHEM_COMPONENT_COUNT>
1

> <PUBCHEM_CACTVS_TAUTO_COUNT>
1

> <PUBCHEM_CONFORMER_ID>
0008E4D300000003

> <PUBCHEM_MMFF94_ENERGY>
85.531

> <PUBCHEM_FEATURE_SELFOVERLAP>
10.166

> <PUBCHEM_SHAPE_FINGERPRINT>
10646746 165 17774731964597209740
10680689 15 17917706911880710909
11132069 177 18273214175163289924
124424 183 11095892561765440351
12670546 56 17632590347999896674
12932764 1 18131067160040142220
13214271 11 17821727247752584569
13224815 77 18410855460128161803
13296908 3 18040148531008052799
13583140 156 17988929933263760400
13760787 5 17240481407495915668
14004511 7 13254799053251464645
14289901 80 18261386767121874026
14787075 74 18121782733541928457
15788980 27 17203612605273934347
16945 1 18410855494487900182
17834072 14 16415481562145151813
18186145 218 18413384345699442468
19422 9 16081089298402736436
200 152 17203613700358667659
20281475 54 18410572928695342259
20645477 70 17917160488924989322
22854114 59 18059858354883077584
23402539 116 15985112919950802807
23557571 272 18130782387077174941
23559900 14 17896310492929802670
296302 2 18060702792581936885
3286 77 17846511360966153074
474 4 18127690423131514004
5104073 3 18410573989446419378
633830 44 18260540151943011004

> <PUBCHEM_SHAPE_MULTIPOLES>
353.96
9.1
1.59
1.58
0
0
-0.1
0
0.19
0
0.1
0
0
0.04

> <PUBCHEM_SHAPE_SELFOVERLAP>
645.397

> <PUBCHEM_SHAPE_VOLUME>
230.5

> <PUBCHEM_COORDINATE_TYPE>
2
5
10

$$$$

