62306
  -OEChem-07051213002D

 27 28  0     1  0  0  0  0  0999 V2000
    2.8660   -2.2673    0.0000 Cl  0  0  0  0  0  0  0  0  0  0  0  0
    2.0000   -0.7673    0.0000 Cl  0  0  0  0  0  0  0  0  0  0  0  0
    3.7320    2.2327    0.0000 O   0  0  0  0  0  0  0  0  0  0  0  0
    4.5981   -1.2673    0.0000 O   0  0  0  0  0  0  0  0  0  0  0  0
    3.7320    0.2327    0.0000 N   0  0  0  0  0  0  0  0  0  0  0  0
    2.8660    0.7327    0.0000 C   0  0  3  0  0  0  0  0  0  0  0  0
    2.8660    1.7327    0.0000 C   0  0  0  0  0  0  0  0  0  0  0  0
    4.5981    0.7327    0.0000 C   0  0  0  0  0  0  0  0  0  0  0  0
    2.0000    0.2327    0.0000 C   0  0  0  0  0  0  0  0  0  0  0  0
    4.5981    1.7327    0.0000 C   0  0  0  0  0  0  0  0  0  0  0  0
    3.7320   -0.7673    0.0000 C   0  0  0  0  0  0  0  0  0  0  0  0
    5.4920    0.1980    0.0000 C   0  0  0  0  0  0  0  0  0  0  0  0
    5.4920    2.2673    0.0000 C   0  0  0  0  0  0  0  0  0  0  0  0
    6.3981    0.7119    0.0000 C   0  0  0  0  0  0  0  0  0  0  0  0
    6.3981    1.7535    0.0000 C   0  0  0  0  0  0  0  0  0  0  0  0
    2.8660   -1.2673    0.0000 C   0  0  0  0  0  0  0  0  0  0  0  0
    2.8660    0.1127    0.0000 H   0  0  0  0  0  0  0  0  0  0  0  0
    2.6540    2.3153    0.0000 H   0  0  0  0  0  0  0  0  0  0  0  0
    2.2554    1.6250    0.0000 H   0  0  0  0  0  0  0  0  0  0  0  0
    1.6900    0.7696    0.0000 H   0  0  0  0  0  0  0  0  0  0  0  0
    1.4631   -0.0773    0.0000 H   0  0  0  0  0  0  0  0  0  0  0  0
    2.3100   -0.3043    0.0000 H   0  0  0  0  0  0  0  0  0  0  0  0
    5.4848   -0.4220    0.0000 H   0  0  0  0  0  0  0  0  0  0  0  0
    5.4848    2.8873    0.0000 H   0  0  0  0  0  0  0  0  0  0  0  0
    6.9338    0.3998    0.0000 H   0  0  0  0  0  0  0  0  0  0  0  0
    2.8660   -0.6473    0.0000 H   0  0  0  0  0  0  0  0  0  0  0  0
    6.9338    2.0656    0.0000 H   0  0  0  0  0  0  0  0  0  0  0  0
  1 16  1  0  0  0  0
  2 16  1  0  0  0  0
  3  7  1  0  0  0  0
  3 10  1  0  0  0  0
  4 11  2  0  0  0  0
  5  6  1  0  0  0  0
  5  8  1  0  0  0  0
  5 11  1  0  0  0  0
  6  7  1  0  0  0  0
  6  9  1  0  0  0  0
  6 17  1  0  0  0  0
  7 18  1  0  0  0  0
  7 19  1  0  0  0  0
  8 10  1  0  0  0  0
  8 12  2  0  0  0  0
  9 20  1  0  0  0  0
  9 21  1  0  0  0  0
  9 22  1  0  0  0  0
 10 13  2  0  0  0  0
 11 16  1  0  0  0  0
 12 14  1  0  0  0  0
 12 23  1  0  0  0  0
 13 15  1  0  0  0  0
 13 24  1  0  0  0  0
 14 15  2  0  0  0  0
 14 25  1  0  0  0  0
 15 27  1  0  0  0  0
 16 26  1  0  0  0  0
M  END
> <PUBCHEM_COMPOUND_CID>
62306

> <PUBCHEM_COMPOUND_CANONICALIZED>
1

> <PUBCHEM_CACTVS_COMPLEXITY>
273

> <PUBCHEM_CACTVS_HBOND_ACCEPTOR>
2

> <PUBCHEM_CACTVS_HBOND_DONOR>
0

> <PUBCHEM_CACTVS_ROTATABLE_BOND>
1

> <PUBCHEM_CACTVS_SUBSKEYS>
AAADccByMAAGAAAAAAAAAAAAAAAAAAAAAAA8QAAAAAAAAACxAAAAHgIAAAAACC/hkMYyxoMABACIACVSUACCCAAhIgAIiAAPbIhOJiLEsZvHOCjkxhHY6AeQQAAAAAAAAAAAEAAAAAAAAAAgAAAAAAAAAA==

> <PUBCHEM_IUPAC_OPENEYE_NAME>
2,2-dichloro-1-(3-methyl-2,3-dihydro-1,4-benzoxazin-4-yl)ethanone

> <PUBCHEM_IUPAC_CAS_NAME>
2,2-dichloro-1-(3-methyl-2,3-dihydro-1,4-benzoxazin-4-yl)ethanone

> <PUBCHEM_IUPAC_NAME>
2,2-dichloro-1-(3-methyl-2,3-dihydro-1,4-benzoxazin-4-yl)ethanone

> <PUBCHEM_IUPAC_SYSTEMATIC_NAME>
2,2-bis(chloranyl)-1-(3-methyl-2,3-dihydro-1,4-benzoxazin-4-yl)ethanone

> <PUBCHEM_IUPAC_TRADITIONAL_NAME>
2,2-dichloro-1-(3-methyl-2,3-dihydro-1,4-benzoxazin-4-yl)ethanone

> <PUBCHEM_IUPAC_INCHI>
InChI=1S/C11H11Cl2NO2/c1-7-6-16-9-5-3-2-4-8(9)14(7)11(15)10(12)13/h2-5,7,10H,6H2,1H3

> <PUBCHEM_IUPAC_INCHIKEY>
PFJJMJDEVDLPNE-UHFFFAOYSA-N

> <PUBCHEM_XLOGP3_AA>
2.8

> <PUBCHEM_EXACT_MASS>
259.016684

> <PUBCHEM_MOLECULAR_FORMULA>
C11H11Cl2NO2

> <PUBCHEM_MOLECULAR_WEIGHT>
260.11654

> <PUBCHEM_OPENEYE_CAN_SMILES>
CC1COC2=CC=CC=C2N1C(=O)C(Cl)Cl

> <PUBCHEM_OPENEYE_ISO_SMILES>
CC1COC2=CC=CC=C2N1C(=O)C(Cl)Cl

> <PUBCHEM_CACTVS_TPSA>
29.5

> <PUBCHEM_MONOISOTOPIC_WEIGHT>
259.016684

> <PUBCHEM_TOTAL_CHARGE>
0

> <PUBCHEM_HEAVY_ATOM_COUNT>
16

> <PUBCHEM_ATOM_DEF_STEREO_COUNT>
0

> <PUBCHEM_ATOM_UDEF_STEREO_COUNT>
1

> <PUBCHEM_BOND_DEF_STEREO_COUNT>
0

> <PUBCHEM_BOND_UDEF_STEREO_COUNT>
0

> <PUBCHEM_ISOTOPIC_ATOM_COUNT>
0

> <PUBCHEM_COMPONENT_COUNT>
1

> <PUBCHEM_CACTVS_TAUTO_COUNT>
1

> <PUBCHEM_COORDINATE_TYPE>
1
5
255

> <PUBCHEM_BONDANNOTATIONS>
10  13  8
12  14  8
13  15  8
14  15  8
6  9  3
8  10  8
8  12  8

$$$$

