3756
  -OEChem-06251223383D

 26 28  0     0  0  0  0  0  0999 V2000
   -2.4447    2.6730   -0.1211 Cl  0  0  0  0  0  0  0  0  0  0  0  0
   -1.8600   -2.3854    0.1079 O   0  0  0  0  0  0  0  0  0  0  0  0
    1.1311   -1.9894   -0.0135 N   0  0  0  0  0  0  0  0  0  0  0  0
    0.6114    2.4959    0.1131 N   0  0  0  0  0  0  0  0  0  0  0  0
   -3.4978   -0.2027   -0.0720 N   0  0  0  0  0  0  0  0  0  0  0  0
    0.6680    0.1549    0.0067 C   0  0  0  0  0  0  0  0  0  0  0  0
    2.0533    0.0365   -0.1173 C   0  0  0  0  0  0  0  0  0  0  0  0
    0.0991   -1.0847    0.0240 C   0  0  0  0  0  0  0  0  0  0  0  0
    2.8491    1.2705   -0.2680 C   0  0  0  0  0  0  0  0  0  0  0  0
   -0.0435    1.3896    0.0346 C   0  0  0  0  0  0  0  0  0  0  0  0
    2.3340   -1.3111   -0.1149 C   0  0  0  0  0  0  0  0  0  0  0  0
    2.0842    2.4657    0.3463 C   0  0  0  0  0  0  0  0  0  0  0  0
   -1.3215   -1.2846    0.0489 C   0  0  0  0  0  0  0  0  0  0  0  0
   -1.5284    1.2026   -0.0413 C   0  0  0  0  0  0  0  0  0  0  0  0
   -2.1457   -0.0045   -0.0249 C   0  0  0  0  0  0  0  0  0  0  0  0
    1.0113   -3.4262    0.0915 C   0  0  0  0  0  0  0  0  0  0  0  0
    3.0094    1.4580   -1.3367 H   0  0  0  0  0  0  0  0  0  0  0  0
    3.8330    1.1736    0.2028 H   0  0  0  0  0  0  0  0  0  0  0  0
    3.2708   -1.8470   -0.1880 H   0  0  0  0  0  0  0  0  0  0  0  0
    2.2424    2.4792    1.4324 H   0  0  0  0  0  0  0  0  0  0  0  0
    2.5114    3.3965   -0.0434 H   0  0  0  0  0  0  0  0  0  0  0  0
    0.4901   -3.6636    1.0222 H   0  0  0  0  0  0  0  0  0  0  0  0
    0.4496   -3.7882   -0.7731 H   0  0  0  0  0  0  0  0  0  0  0  0
    2.0068   -3.8774    0.1015 H   0  0  0  0  0  0  0  0  0  0  0  0
   -4.1209    0.5935   -0.1232 H   0  0  0  0  0  0  0  0  0  0  0  0
   -3.8725   -1.1429   -0.0560 H   0  0  0  0  0  0  0  0  0  0  0  0
  1 14  1  0  0  0  0
  2 13  2  0  0  0  0
  3  8  1  0  0  0  0
  3 11  1  0  0  0  0
  3 16  1  0  0  0  0
  4 10  2  0  0  0  0
  4 12  1  0  0  0  0
  5 15  1  0  0  0  0
  5 25  1  0  0  0  0
  5 26  1  0  0  0  0
  6  7  1  0  0  0  0
  6  8  2  0  0  0  0
  6 10  1  0  0  0  0
  7  9  1  0  0  0  0
  7 11  2  0  0  0  0
  8 13  1  0  0  0  0
  9 12  1  0  0  0  0
  9 17  1  0  0  0  0
  9 18  1  0  0  0  0
 10 14  1  0  0  0  0
 11 19  1  0  0  0  0
 12 20  1  0  0  0  0
 12 21  1  0  0  0  0
 13 15  1  0  0  0  0
 14 15  2  0  0  0  0
 16 22  1  0  0  0  0
 16 23  1  0  0  0  0
 16 24  1  0  0  0  0
M  END
> <PUBCHEM_COMPOUND_CID>
3756

> <PUBCHEM_CONFORMER_RMSD>
0.4

> <PUBCHEM_CONFORMER_DIVERSEORDER>
1

> <PUBCHEM_MMFF94_PARTIAL_CHARGES>
19
1 -0.14
10 0.52
11 -0.3
12 0.25
13 0.64
14 0.15
15 0.11
16 0.26
19 0.15
2 -0.57
25 0.4
26 0.4
3 0.05
4 -0.7
5 -0.9
6 -0.09
7 -0.18
8 -0.24
9 0.18

> <PUBCHEM_EFFECTIVE_ROTOR_COUNT>
0.4

> <PUBCHEM_PHARMACOPHORE_FEATURES>
8
1 2 acceptor
1 3 cation
1 4 acceptor
1 5 cation
1 5 donor
5 3 6 7 8 11 rings
6 4 6 7 9 10 12 rings
6 6 8 10 13 14 15 rings

> <PUBCHEM_HEAVY_ATOM_COUNT>
16

> <PUBCHEM_ATOM_DEF_STEREO_COUNT>
0

> <PUBCHEM_ATOM_UDEF_STEREO_COUNT>
0

> <PUBCHEM_BOND_DEF_STEREO_COUNT>
0

> <PUBCHEM_BOND_UDEF_STEREO_COUNT>
0

> <PUBCHEM_ISOTOPIC_ATOM_COUNT>
0

> <PUBCHEM_COMPONENT_COUNT>
1

> <PUBCHEM_CACTVS_TAUTO_COUNT>
3

> <PUBCHEM_CONFORMER_ID>
00000EAC00000001

> <PUBCHEM_MMFF94_ENERGY>
42.5272

> <PUBCHEM_FEATURE_SELFOVERLAP>
40.818

> <PUBCHEM_SHAPE_FINGERPRINT>
10411042 1 17906171007845229639
10967382 1 18410573972282386509
13140716 1 18266458702839594251
13380535 76 18339648823718494067
13897977 150 18338519612623968277
14790565 3 17548393935829715625
15042514 8 17907862795488660098
16945 1 18410857659293842161
193761 8 18410855498798711209
20510252 161 17901662674651832720
21501502 16 18339361971543169925
2334 1 17906170651019117283
23402539 116 17612883595037213654
23419403 2 13526771259984724016
23559900 14 18189888885876997742
238 59 16834917971311425917
2748010 2 18050846620042450279
2897 32 18411416223975150900
528886 8 18265618680013524592
53812653 166 18263362482327661432
54173680 148 17474952026439232618
589210 1 18411140276710858525
7364860 26 18336547217597017190
7832392 63 18048037668592125453
81228 2 17328307939764925474

> <PUBCHEM_SHAPE_MULTIPOLES>
310.33
4.07
3.67
0.62
1.92
0.13
0
-0.02
-0.24
-1.05
0.24
-0.03
-0.06
0.01

> <PUBCHEM_SHAPE_SELFOVERLAP>
684.178

> <PUBCHEM_SHAPE_VOLUME>
170

> <PUBCHEM_COORDINATE_TYPE>
2
5
10

$$$$

