13432
  -OEChem-06261214103D

 23 24  0     0  0  0  0  0  0999 V2000
   -1.1023   -2.4524    0.0014 O   0  5  0  0  0  0  0  0  0  0  0  0
   -2.9324   -1.2403    0.0000 O   0  0  0  0  0  0  0  0  0  0  0  0
   -1.6865   -1.3468    0.0001 N   0  3  0  0  0  0  0  0  0  0  0  0
    0.5058   -0.2144   -0.0004 C   0  0  0  0  0  0  0  0  0  0  0  0
    1.2489    0.9901    0.0002 C   0  0  0  0  0  0  0  0  0  0  0  0
   -0.8975   -0.1556   -0.0008 C   0  0  0  0  0  0  0  0  0  0  0  0
   -1.5584    1.0730   -0.0006 C   0  0  0  0  0  0  0  0  0  0  0  0
    0.5669    2.2178    0.0004 C   0  0  0  0  0  0  0  0  0  0  0  0
   -0.8277    2.2575    0.0001 C   0  0  0  0  0  0  0  0  0  0  0  0
    1.1877   -1.4420   -0.0008 C   0  0  0  0  0  0  0  0  0  0  0  0
    2.6520    0.9314    0.0005 C   0  0  0  0  0  0  0  0  0  0  0  0
   -3.0518    1.1608    0.0002 C   0  0  0  0  0  0  0  0  0  0  0  0
    2.5822   -1.4817   -0.0004 C   0  0  0  0  0  0  0  0  0  0  0  0
    3.3131   -0.2972    0.0003 C   0  0  0  0  0  0  0  0  0  0  0  0
    1.1180    3.1560    0.0009 H   0  0  0  0  0  0  0  0  0  0  0  0
   -1.3240    3.2244    0.0005 H   0  0  0  0  0  0  0  0  0  0  0  0
    0.8165   -2.4507   -0.0028 H   0  0  0  0  0  0  0  0  0  0  0  0
    3.2436    1.8446    0.0010 H   0  0  0  0  0  0  0  0  0  0  0  0
   -3.4951    0.7562    0.9166 H   0  0  0  0  0  0  0  0  0  0  0  0
   -3.3609    2.2154    0.0002 H   0  0  0  0  0  0  0  0  0  0  0  0
   -3.4961    0.7560   -0.9155 H   0  0  0  0  0  0  0  0  0  0  0  0
    3.1025   -2.4357   -0.0010 H   0  0  0  0  0  0  0  0  0  0  0  0
    4.3987   -0.3288    0.0005 H   0  0  0  0  0  0  0  0  0  0  0  0
  1  3  1  0  0  0  0
  2  3  2  0  0  0  0
  3  6  1  0  0  0  0
  4  5  1  0  0  0  0
  4  6  1  0  0  0  0
  4 10  2  0  0  0  0
  5  8  1  0  0  0  0
  5 11  2  0  0  0  0
  6  7  2  0  0  0  0
  7  9  1  0  0  0  0
  7 12  1  0  0  0  0
  8  9  2  0  0  0  0
  8 15  1  0  0  0  0
  9 16  1  0  0  0  0
 10 13  1  0  0  0  0
 10 17  1  0  0  0  0
 11 14  1  0  0  0  0
 11 18  1  0  0  0  0
 12 19  1  0  0  0  0
 12 20  1  0  0  0  0
 12 21  1  0  0  0  0
 13 14  2  0  0  0  0
 13 22  1  0  0  0  0
 14 23  1  0  0  0  0
M  CHG  2   1  -1   3   1
M  END
> <PUBCHEM_COMPOUND_CID>
13432

> <PUBCHEM_CONFORMER_RMSD>
0.4

> <PUBCHEM_CONFORMER_DIVERSEORDER>
1

> <PUBCHEM_MMFF94_PARTIAL_CHARGES>
18
1 -0.52
10 -0.15
11 -0.15
12 0.14
13 -0.15
14 -0.15
15 0.15
16 0.15
17 0.15
18 0.15
2 -0.52
22 0.15
23 0.15
3 0.91
6 0.13
7 -0.14
8 -0.15
9 -0.15

> <PUBCHEM_EFFECTIVE_ROTOR_COUNT>
1

> <PUBCHEM_PHARMACOPHORE_FEATURES>
5
1 1 acceptor
1 1 anion
1 2 acceptor
6 4 5 10 11 13 14 rings
6 4 5 6 7 8 9 rings

> <PUBCHEM_HEAVY_ATOM_COUNT>
14

> <PUBCHEM_ATOM_DEF_STEREO_COUNT>
0

> <PUBCHEM_ATOM_UDEF_STEREO_COUNT>
0

> <PUBCHEM_BOND_DEF_STEREO_COUNT>
0

> <PUBCHEM_BOND_UDEF_STEREO_COUNT>
0

> <PUBCHEM_ISOTOPIC_ATOM_COUNT>
0

> <PUBCHEM_COMPONENT_COUNT>
1

> <PUBCHEM_CACTVS_TAUTO_COUNT>
1

> <PUBCHEM_CONFORMER_ID>
0000347800000001

> <PUBCHEM_MMFF94_ENERGY>
71.7824

> <PUBCHEM_FEATURE_SELFOVERLAP>
25.48

> <PUBCHEM_SHAPE_FINGERPRINT>
10967382 1 18266459991076510052
11132069 177 18409454712711644224
12382932 28 18408889555060558880
12524768 44 18263639730935006118
13140716 1 18410856606905548784
13380535 76 18336550528784726414
14790565 3 16181270940492607385
16945 1 18194683665872732293
193761 8 18194402195259846533
20510252 161 17972040502970248880
20588541 1 18335982081352248436
20871998 184 18259704522942481631
21267235 1 18410846668346301411
21501502 16 18410855442969417628
22802520 49 17970614410618940214
2334 1 18410575063193530178
23388829 49 18047764693276500980
23402539 116 18191321552583234228
23463225 33 18412825810993500460
23552423 10 18271804584182178316
23559900 14 18334573569383588652
241688 4 18411982442461981744
2748010 2 18410293622576545022
2897 32 17979917434167017052
528886 8 18337960085632881448
53812653 166 18334299764295614480
54173680 148 18411416249924452130
7364860 26 18118965784873340304
8809292 202 18341326790395581978

> <PUBCHEM_SHAPE_MULTIPOLES>
271.39
4.44
2.51
0.6
0.45
0.16
0
0.48
0
-0.68
0
0.04
-0.04
0

> <PUBCHEM_SHAPE_SELFOVERLAP>
600.06

> <PUBCHEM_SHAPE_VOLUME>
146.7

> <PUBCHEM_COORDINATE_TYPE>
2
5
10

$$$$

