1502069
  -OEChem-07051213153D

 19 19  0     1  0  0  0  0  0999 V2000
   -2.4113   -1.0663   -0.3297 O   0  0  0  0  0  0  0  0  0  0  0  0
   -2.2444    1.0353    0.5373 O   0  0  0  0  0  0  0  0  0  0  0  0
    0.3213    1.2409   -0.0720 N   0  0  0  0  0  0  0  0  0  0  0  0
    1.8044   -1.2480    0.0111 N   0  0  0  0  0  0  0  0  0  0  0  0
   -0.3020   -0.0410   -0.4107 C   0  0  1  0  0  0  0  0  0  0  0  0
    0.3735   -1.2061    0.3144 C   0  0  0  0  0  0  0  0  0  0  0  0
    1.7544    1.1915   -0.3785 C   0  0  0  0  0  0  0  0  0  0  0  0
    2.4427    0.0279    0.3365 C   0  0  0  0  0  0  0  0  0  0  0  0
   -1.7386    0.0659   -0.0084 C   0  0  0  0  0  0  0  0  0  0  0  0
   -0.2716   -0.1779   -1.4994 H   0  0  0  0  0  0  0  0  0  0  0  0
    0.2253   -1.1369    1.4002 H   0  0  0  0  0  0  0  0  0  0  0  0
   -0.0724   -2.1593    0.0075 H   0  0  0  0  0  0  0  0  0  0  0  0
    2.2152    2.1356   -0.0680 H   0  0  0  0  0  0  0  0  0  0  0  0
    1.8975    1.1144   -1.4635 H   0  0  0  0  0  0  0  0  0  0  0  0
    3.4964   -0.0140    0.0398 H   0  0  0  0  0  0  0  0  0  0  0  0
    2.4269    0.1821    1.4225 H   0  0  0  0  0  0  0  0  0  0  0  0
    0.2138    1.4104    0.9291 H   0  0  0  0  0  0  0  0  0  0  0  0
    1.9222   -1.4272   -0.9866 H   0  0  0  0  0  0  0  0  0  0  0  0
   -3.3564   -1.0167   -0.0718 H   0  0  0  0  0  0  0  0  0  0  0  0
  1  9  1  0  0  0  0
  1 19  1  0  0  0  0
  2  9  2  0  0  0  0
  3  5  1  0  0  0  0
  3  7  1  0  0  0  0
  3 17  1  0  0  0  0
  4  6  1  0  0  0  0
  4  8  1  0  0  0  0
  4 18  1  0  0  0  0
  5  6  1  0  0  0  0
  5  9  1  0  0  0  0
  5 10  1  0  0  0  0
  6 11  1  0  0  0  0
  6 12  1  0  0  0  0
  7  8  1  0  0  0  0
  7 13  1  0  0  0  0
  7 14  1  0  0  0  0
  8 15  1  0  0  0  0
  8 16  1  0  0  0  0
M  END
> <PUBCHEM_COMPOUND_CID>
1502069

> <PUBCHEM_CONFORMER_RMSD>
0.4

> <PUBCHEM_CONFORMER_DIVERSEORDER>
1
6
11
4
2
5
3
8
7
9
10
12

> <PUBCHEM_MMFF94_PARTIAL_CHARGES>
12
1 -0.65
17 0.36
18 0.36
19 0.5
2 -0.57
3 -0.9
4 -0.9
5 0.33
6 0.27
7 0.27
8 0.27
9 0.66

> <PUBCHEM_EFFECTIVE_ROTOR_COUNT>
2.2

> <PUBCHEM_PHARMACOPHORE_FEATURES>
8
1 1 acceptor
1 2 acceptor
1 3 cation
1 3 donor
1 4 cation
1 4 donor
3 1 2 9 anion
6 3 4 5 6 7 8 rings

> <PUBCHEM_HEAVY_ATOM_COUNT>
9

> <PUBCHEM_ATOM_DEF_STEREO_COUNT>
1

> <PUBCHEM_ATOM_UDEF_STEREO_COUNT>
0

> <PUBCHEM_BOND_DEF_STEREO_COUNT>
0

> <PUBCHEM_BOND_UDEF_STEREO_COUNT>
0

> <PUBCHEM_ISOTOPIC_ATOM_COUNT>
0

> <PUBCHEM_COMPONENT_COUNT>
1

> <PUBCHEM_CACTVS_TAUTO_COUNT>
1

> <PUBCHEM_CONFORMER_ID>
0016EB7500000001

> <PUBCHEM_MMFF94_ENERGY>
9.1769

> <PUBCHEM_FEATURE_SELFOVERLAP>
40.655

> <PUBCHEM_SHAPE_FINGERPRINT>
14325111 11 18411136900951050812
14390081 3 18113903744865524776
18185500 45 18410014372403462611
21040471 1 18339921490012608228
23552423 10 18342454863318343582
29004967 10 17917425466726210768
5084963 1 18201447925841882276

> <PUBCHEM_SHAPE_MULTIPOLES>
163.52
3.41
1.43
0.68
0.62
0.04
0
-0.02
0.18
-0.2
0.01
0.02
-0.03
-0.3

> <PUBCHEM_SHAPE_SELFOVERLAP>
321.505

> <PUBCHEM_SHAPE_VOLUME>
96.9

> <PUBCHEM_COORDINATE_TYPE>
2
5
10

$$$$

