5281386
  -OEChem-07051212562D

 89100  0     1  0  0  0  0  0999 V2000
    6.3098   -2.3535    0.0000 O   0  0  0  0  0  0  0  0  0  0  0  0
    6.5326   -4.1400    0.0000 N   0  3  1  0  0  0  0  0  0  0  0  0
    4.7204    3.6237    0.0000 N   0  3  1  0  0  0  0  0  0  0  0  0
    4.6443   -1.2977    0.0000 N   0  0  0  0  0  0  0  0  0  0  0  0
    6.4920    0.5500    0.0000 N   0  0  0  0  0  0  0  0  0  0  0  0
    5.1182   -2.6847    0.0000 C   0  0  2  0  0  0  0  0  0  0  0  0
    5.7200    1.9632    0.0000 C   0  0  2  0  0  0  0  0  0  0  0  0
    5.5682   -1.6804    0.0000 C   0  0  1  0  0  0  0  0  0  0  0  0
    5.5682    0.9327    0.0000 C   0  0  1  0  0  0  0  0  0  0  0  0
    5.5199   -3.7092    0.0000 C   0  0  2  0  0  0  0  0  0  0  0  0
    4.8986    2.6037    0.0000 C   0  0  2  0  0  0  0  0  0  0  0  0
    6.4920   -1.2977    0.0000 C   0  0  0  0  0  0  0  0  0  0  0  0
    4.6443    0.5500    0.0000 C   0  0  0  0  0  0  0  0  0  0  0  0
    6.1706    2.8955    0.0000 C   0  0  0  0  0  0  0  0  0  0  0  0
    4.7267   -3.7130    0.0000 C   0  0  0  0  0  0  0  0  0  0  0  0
    3.8082    1.1713    0.0000 C   0  0  1  0  0  0  0  0  0  0  0  0
    7.5203   -1.6897    0.0000 C   0  0  1  0  0  0  0  0  0  0  0  0
    3.9362    2.2051    0.0000 C   0  0  0  0  0  0  0  0  0  0  0  0
    6.8278   -3.0042    0.0000 C   0  0  0  0  0  0  0  0  0  0  0  0
    5.5294    3.8617    0.0000 C   0  0  0  0  0  0  0  0  0  0  0  0
    5.4936   -4.5020    0.0000 C   0  0  0  0  0  0  0  0  0  0  0  0
    4.1237   -2.7778    0.0000 C   0  0  0  0  0  0  0  0  0  0  0  0
    6.6964    2.1450    0.0000 C   0  0  0  0  0  0  0  0  0  0  0  0
    3.8818    3.0745    0.0000 C   0  0  0  0  0  0  0  0  0  0  0  0
    7.5493   -3.7189    0.0000 C   0  0  0  0  0  0  0  0  0  0  0  0
    6.8747   -0.3738    0.0000 C   0  0  0  0  0  0  0  0  0  0  0  0
    4.2616   -0.3738    0.0000 C   0  0  0  0  0  0  0  0  0  0  0  0
    3.8008   -1.8326    0.0000 C   0  0  0  0  0  0  0  0  0  0  0  0
    7.1726    1.2734    0.0000 C   0  0  0  0  0  0  0  0  0  0  0  0
    7.9607   -2.6982    0.0000 C   0  0  0  0  0  0  0  0  0  0  0  0
    3.5323    2.1350    0.0000 C   0  0  0  0  0  0  0  0  0  0  0  0
    4.3008    4.5314    0.0000 C   0  0  0  0  0  0  0  0  0  0  0  0
    7.4528   -4.5314    0.0000 C   0  0  0  0  0  0  0  0  0  0  0  0
    7.2210    3.0367    0.0000 C   0  0  0  0  0  0  0  0  0  0  0  0
    3.4514   -3.5719    0.0000 C   0  0  0  0  0  0  0  0  0  0  0  0
    2.7831   -1.6160    0.0000 C   0  0  0  0  0  0  0  0  0  0  0  0
    8.2064    1.2331    0.0000 C   0  0  0  0  0  0  0  0  0  0  0  0
    2.5331    2.1736    0.0000 C   0  0  0  0  0  0  0  0  0  0  0  0
    8.9606   -2.6839    0.0000 C   0  0  0  0  0  0  0  0  0  0  0  0
    2.4291   -3.3788    0.0000 C   0  0  0  0  0  0  0  0  0  0  0  0
    8.2554    3.0203    0.0000 C   0  0  0  0  0  0  0  0  0  0  0  0
    2.0927   -2.3943    0.0000 C   0  0  0  0  0  0  0  0  0  0  0  0
    8.7514    2.1124    0.0000 C   0  0  0  0  0  0  0  0  0  0  0  0
    2.0000    1.3276    0.0000 C   0  0  0  0  0  0  0  0  0  0  0  0
    9.4482   -1.8109    0.0000 C   0  0  0  0  0  0  0  0  0  0  0  0
    5.0089   -3.0300    0.0000 H   0  0  0  0  0  0  0  0  0  0  0  0
    4.2282    3.1263    0.0000 H   0  0  0  0  0  0  0  0  0  0  0  0
    6.6721    2.5310    0.0000 H   0  0  0  0  0  0  0  0  0  0  0  0
    6.6182    3.3245    0.0000 H   0  0  0  0  0  0  0  0  0  0  0  0
    4.1853   -3.4108    0.0000 H   0  0  0  0  0  0  0  0  0  0  0  0
    4.3493   -4.2049    0.0000 H   0  0  0  0  0  0  0  0  0  0  0  0
    8.1069   -1.0745    0.0000 H   0  0  0  0  0  0  0  0  0  0  0  0
    3.1092    0.6877    0.0000 H   0  0  0  0  0  0  0  0  0  0  0  0
    6.9314   -3.6154    0.0000 H   0  0  0  0  0  0  0  0  0  0  0  0
    6.3873   -2.5678    0.0000 H   0  0  0  0  0  0  0  0  0  0  0  0
    3.8005    2.8100    0.0000 H   0  0  0  0  0  0  0  0  0  0  0  0
    3.3169    2.1748    0.0000 H   0  0  0  0  0  0  0  0  0  0  0  0
    4.9911   -4.8652    0.0000 H   0  0  0  0  0  0  0  0  0  0  0  0
    5.7802   -5.0518    0.0000 H   0  0  0  0  0  0  0  0  0  0  0  0
    6.0777    4.1512    0.0000 H   0  0  0  0  0  0  0  0  0  0  0  0
    5.2960    4.4361    0.0000 H   0  0  0  0  0  0  0  0  0  0  0  0
    7.6322   -4.3333    0.0000 H   0  0  0  0  0  0  0  0  0  0  0  0
    8.1645   -3.7959    0.0000 H   0  0  0  0  0  0  0  0  0  0  0  0
    3.7177    3.6724    0.0000 H   0  0  0  0  0  0  0  0  0  0  0  0
    3.2624    3.1019    0.0000 H   0  0  0  0  0  0  0  0  0  0  0  0
    3.6416   -0.3738    0.0000 H   0  0  0  0  0  0  0  0  0  0  0  0
    7.4947   -0.3738    0.0000 H   0  0  0  0  0  0  0  0  0  0  0  0
    4.8636    4.7916    0.0000 H   0  0  0  0  0  0  0  0  0  0  0  0
    4.0407    5.0942    0.0000 H   0  0  0  0  0  0  0  0  0  0  0  0
    3.7380    4.2713    0.0000 H   0  0  0  0  0  0  0  0  0  0  0  0
    7.2101   -5.1020    0.0000 H   0  0  0  0  0  0  0  0  0  0  0  0
    8.0233   -4.7741    0.0000 H   0  0  0  0  0  0  0  0  0  0  0  0
    7.6955   -3.9609    0.0000 H   0  0  0  0  0  0  0  0  0  0  0  0
    3.6587   -4.1562    0.0000 H   0  0  0  0  0  0  0  0  0  0  0  0
    6.9175    3.5774    0.0000 H   0  0  0  0  0  0  0  0  0  0  0  0
    2.5895   -1.0270    0.0000 H   0  0  0  0  0  0  0  0  0  0  0  0
    8.4973    0.6856    0.0000 H   0  0  0  0  0  0  0  0  0  0  0  0
    9.2782   -3.2164    0.0000 H   0  0  0  0  0  0  0  0  0  0  0  0
    2.2440    2.7222    0.0000 H   0  0  0  0  0  0  0  0  0  0  0  0
    8.5760    3.5510    0.0000 H   0  0  0  0  0  0  0  0  0  0  0  0
    2.0230   -3.8473    0.0000 H   0  0  0  0  0  0  0  0  0  0  0  0
    9.3712    2.0954    0.0000 H   0  0  0  0  0  0  0  0  0  0  0  0
    1.4848   -2.2722    0.0000 H   0  0  0  0  0  0  0  0  0  0  0  0
    1.4754    1.6581    0.0000 H   0  0  0  0  0  0  0  0  0  0  0  0
    1.6695    0.8030    0.0000 H   0  0  0  0  0  0  0  0  0  0  0  0
    2.5246    0.9971    0.0000 H   0  0  0  0  0  0  0  0  0  0  0  0
    9.9895   -2.1132    0.0000 H   0  0  0  0  0  0  0  0  0  0  0  0
    9.7505   -1.2696    0.0000 H   0  0  0  0  0  0  0  0  0  0  0  0
    8.9069   -1.5086    0.0000 H   0  0  0  0  0  0  0  0  0  0  0  0
  8  1  1  6  0  0  0
  9  1  1  6  0  0  0
  2 10  1  0  0  0  0
  2 21  1  0  0  0  0
  2 25  1  0  0  0  0
  2 33  1  1  0  0  0
  3 11  1  0  0  0  0
  3 20  1  0  0  0  0
  3 24  1  0  0  0  0
  3 32  1  1  0  0  0
  4  8  1  0  0  0  0
  4 27  1  0  0  0  0
  4 28  1  0  0  0  0
  5  9  1  0  0  0  0
  5 26  1  0  0  0  0
  5 29  1  0  0  0  0
  6  8  1  0  0  0  0
  6 10  1  0  0  0  0
  6 15  1  6  0  0  0
  6 22  1  0  0  0  0
  7  9  1  0  0  0  0
  7 11  1  0  0  0  0
  7 14  1  6  0  0  0
  7 23  1  0  0  0  0
  8 12  1  0  0  0  0
  9 13  1  0  0  0  0
 10 19  1  0  0  0  0
 10 46  1  1  0  0  0
 11 18  1  0  0  0  0
 11 47  1  1  0  0  0
 12 17  1  0  0  0  0
 12 26  2  0  0  0  0
 13 16  1  0  0  0  0
 13 27  2  0  0  0  0
 14 20  1  0  0  0  0
 14 48  1  0  0  0  0
 14 49  1  0  0  0  0
 15 21  1  0  0  0  0
 15 50  1  0  0  0  0
 15 51  1  0  0  0  0
 16 18  1  0  0  0  0
 16 31  1  0  0  0  0
 16 53  1  1  0  0  0
 17 19  1  0  0  0  0
 17 30  1  0  0  0  0
 17 52  1  1  0  0  0
 18 56  1  0  0  0  0
 18 57  1  0  0  0  0
 19 54  1  0  0  0  0
 19 55  1  0  0  0  0
 20 60  1  0  0  0  0
 20 61  1  0  0  0  0
 21 58  1  0  0  0  0
 21 59  1  0  0  0  0
 22 28  1  0  0  0  0
 22 35  2  0  0  0  0
 23 29  1  0  0  0  0
 23 34  2  0  0  0  0
 24 31  1  0  0  0  0
 24 64  1  0  0  0  0
 24 65  1  0  0  0  0
 25 30  1  0  0  0  0
 25 62  1  0  0  0  0
 25 63  1  0  0  0  0
 26 67  1  0  0  0  0
 27 66  1  0  0  0  0
 28 36  2  0  0  0  0
 29 37  2  0  0  0  0
 30 39  2  0  0  0  0
 31 38  2  0  0  0  0
 32 68  1  0  0  0  0
 32 69  1  0  0  0  0
 32 70  1  0  0  0  0
 33 71  1  0  0  0  0
 33 72  1  0  0  0  0
 33 73  1  0  0  0  0
 34 41  1  0  0  0  0
 34 75  1  0  0  0  0
 35 40  1  0  0  0  0
 35 74  1  0  0  0  0
 36 42  1  0  0  0  0
 36 76  1  0  0  0  0
 37 43  1  0  0  0  0
 37 77  1  0  0  0  0
 38 44  1  0  0  0  0
 38 79  1  0  0  0  0
 39 45  1  0  0  0  0
 39 78  1  0  0  0  0
 40 42  2  0  0  0  0
 40 81  1  0  0  0  0
 41 43  2  0  0  0  0
 41 80  1  0  0  0  0
 42 83  1  0  0  0  0
 43 82  1  0  0  0  0
 44 84  1  0  0  0  0
 44 85  1  0  0  0  0
 44 86  1  0  0  0  0
 45 87  1  0  0  0  0
 45 88  1  0  0  0  0
 45 89  1  0  0  0  0
M  CHG  2   2   1   3   1
M  END
> <PUBCHEM_COMPOUND_CID>
5281386

> <PUBCHEM_COMPOUND_CANONICALIZED>
1

> <PUBCHEM_CACTVS_COMPLEXITY>
1460

> <PUBCHEM_CACTVS_HBOND_ACCEPTOR>
3

> <PUBCHEM_CACTVS_HBOND_DONOR>
0

> <PUBCHEM_CACTVS_ROTATABLE_BOND>
0

> <PUBCHEM_CACTVS_SUBSKEYS>
AAADcfB/oAAAAAAAAAAAAAAAAAAAAWLFiwA8eMGCAAAWLFiBQAAAHgAAAAAADyzBmAQywIMABACAAiRGQACCAAAhAgAIiAAIZIgIJCLA8ZGOIAhmwAHI6Aew0PMPgAAAAAACAACAAAKECBQAAAAAAAAAAA==

> <PUBCHEM_IUPAC_INCHI>
InChI=1S/C40H44N4O/c1-5-25-23-43(3)17-15-37-29-11-7-10-14-34(29)42-22-32-28-20-36-38(16-18-44(36,4)24-26(28)6-2)30-12-8-9-13-33(30)41-21-31(27(25)19-35(37)43)39(37,42)45-40(32,38)41/h5-14,21-22,27-28,35-36H,15-20,23-24H2,1-4H3/q+2/b25-5-,26-6-/t27-,28-,35-,36-,37+,38+,39+,40+,43-,44-/m0/s1

> <PUBCHEM_IUPAC_INCHIKEY>
DWELRYDMYVJVSL-TUHIATKQSA-N

> <PUBCHEM_XLOGP3_AA>
3.7

> <PUBCHEM_EXACT_MASS>
596.351512

> <PUBCHEM_MOLECULAR_FORMULA>
C40H44N4O+2

> <PUBCHEM_MOLECULAR_WEIGHT>
596.80356

> <PUBCHEM_OPENEYE_CAN_SMILES>
CC=C1C[N+]2(CCC34C2CC1C5=CN6C7=CC=CC=C7C89C61C(=CN(C53O1)C1=CC=CC=C41)C1CC8[N+](CC9)(CC1=CC)C)C

> <PUBCHEM_OPENEYE_ISO_SMILES>
C/C=C/1\[C@H]2C3=CN4[C@@]56O[C@]37N(C8=CC=CC=C8[C@]79[C@H](C2)[N@+](C1)(CC9)C)C=C5[C@@H]1/C(=C\C)/C[N@+]2([C@H]([C@]6(C3=CC=CC=C43)CC2)C1)C

> <PUBCHEM_CACTVS_TPSA>
15.7

> <PUBCHEM_MONOISOTOPIC_WEIGHT>
596.351512

> <PUBCHEM_TOTAL_CHARGE>
2

> <PUBCHEM_HEAVY_ATOM_COUNT>
45

> <PUBCHEM_ATOM_DEF_STEREO_COUNT>
10

> <PUBCHEM_ATOM_UDEF_STEREO_COUNT>
0

> <PUBCHEM_BOND_DEF_STEREO_COUNT>
2

> <PUBCHEM_BOND_UDEF_STEREO_COUNT>
0

> <PUBCHEM_ISOTOPIC_ATOM_COUNT>
0

> <PUBCHEM_COMPONENT_COUNT>
1

> <PUBCHEM_CACTVS_TAUTO_COUNT>
1

> <PUBCHEM_COORDINATE_TYPE>
1
5
255

> <PUBCHEM_BONDANNOTATIONS>
8  1  6
9  1  6
10  46  5
11  47  5
16  53  5
17  52  5
2  33  5
22  28  8
22  35  8
23  29  8
23  34  8
28  36  8
29  37  8
3  32  5
34  41  8
35  40  8
36  42  8
37  43  8
40  42  8
41  43  8
6  15  6
7  14  6

$$$$

