442688
  -OEChem-07051212592D

 80 86  0     1  0  0  0  0  0999 V2000
    5.9860    1.8909    0.0000 O   0  0  0  0  0  0  0  0  0  0  0  0
    8.4266   -0.1035    0.0000 O   0  0  0  0  0  0  0  0  0  0  0  0
    6.8680   -0.6506    0.0000 O   0  0  0  0  0  0  0  0  0  0  0  0
    8.4494    2.8475    0.0000 O   0  0  0  0  0  0  0  0  0  0  0  0
    6.8802    3.4187    0.0000 O   0  0  0  0  0  0  0  0  0  0  0  0
    4.8772   -0.6165    0.0000 O   0  0  0  0  0  0  0  0  0  0  0  0
    9.4939   -1.4913    0.0000 O   0  0  0  0  0  0  0  0  0  0  0  0
    5.8477   -2.3309    0.0000 O   0  0  0  0  0  0  0  0  0  0  0  0
    9.5379    4.2187    0.0000 O   0  0  0  0  0  0  0  0  0  0  0  0
    5.8772   -0.6165    0.0000 O   0  0  0  0  0  0  0  0  0  0  0  0
   13.4922    0.8851    0.0000 O   0  0  0  0  0  0  0  0  0  0  0  0
   13.4991    1.7810    0.0000 O   0  0  0  0  0  0  0  0  0  0  0  0
    6.3741   -4.9848    0.0000 O   0  0  0  0  0  0  0  0  0  0  0  0
    5.3803   -4.9848    0.0000 O   0  0  0  0  0  0  0  0  0  0  0  0
   12.6718   -2.3464    0.0000 O   0  0  0  0  0  0  0  0  0  0  0  0
   13.9982   -0.5746    0.0000 O   0  0  0  0  0  0  0  0  0  0  0  0
   12.7286    5.0247    0.0000 O   0  0  0  0  0  0  0  0  0  0  0  0
   14.0275    3.2326    0.0000 O   0  0  0  0  0  0  0  0  0  0  0  0
    9.4464   -3.2267    0.0000 O   0  0  0  0  0  0  0  0  0  0  0  0
    8.4223   -5.0006    0.0000 O   0  0  0  0  0  0  0  0  0  0  0  0
    3.3321   -5.0006    0.0000 O   0  0  0  0  0  0  0  0  0  0  0  0
    2.3079   -3.2267    0.0000 O   0  0  0  0  0  0  0  0  0  0  0  0
    7.7780    0.8563    0.0000 C   0  0  1  0  0  0  0  0  0  0  0  0
    6.8680    0.3494    0.0000 C   0  0  1  0  0  0  0  0  0  0  0  0
    7.7861    1.8978    0.0000 C   0  0  2  0  0  0  0  0  0  0  0  0
    6.0020    0.8494    0.0000 C   0  0  1  0  0  0  0  0  0  0  0  0
    6.8840    2.4187    0.0000 C   0  0  3  0  0  0  0  0  0  0  0  0
    5.1360    0.3494    0.0000 C   0  0  0  0  0  0  0  0  0  0  0  0
    9.5180   -0.4916    0.0000 C   0  0  0  0  0  0  0  0  0  0  0  0
    6.3772   -1.4825    0.0000 C   0  0  0  0  0  0  0  0  0  0  0  0
    9.5466    3.2187    0.0000 C   0  0  0  0  0  0  0  0  0  0  0  0
   10.6270   -0.1567    0.0000 C   0  0  0  0  0  0  0  0  0  0  0  0
   10.6503    2.8668    0.0000 C   0  0  0  0  0  0  0  0  0  0  0  0
    6.8772   -2.3486    0.0000 C   0  0  0  0  0  0  0  0  0  0  0  0
   11.3212    0.7706    0.0000 C   0  0  0  0  0  0  0  0  0  0  0  0
   11.3301    1.9289    0.0000 C   0  0  0  0  0  0  0  0  0  0  0  0
    5.3772   -1.4825    0.0000 C   0  0  0  0  0  0  0  0  0  0  0  0
    6.3772   -3.2146    0.0000 C   0  0  0  0  0  0  0  0  0  0  0  0
    4.8772   -2.3486    0.0000 C   0  0  0  0  0  0  0  0  0  0  0  0
    5.3772   -3.2146    0.0000 C   0  0  0  0  0  0  0  0  0  0  0  0
   11.0848   -1.2731    0.0000 C   0  0  0  0  0  0  0  0  0  0  0  0
   11.1252    3.9760    0.0000 C   0  0  0  0  0  0  0  0  0  0  0  0
   12.5213    0.6458    0.0000 C   0  0  0  0  0  0  0  0  0  0  0  0
    7.9187   -2.3325    0.0000 C   0  0  0  0  0  0  0  0  0  0  0  0
   12.5320    2.0352    0.0000 C   0  0  0  0  0  0  0  0  0  0  0  0
    6.8840   -4.1246    0.0000 C   0  0  0  0  0  0  0  0  0  0  0  0
    4.8703   -4.1246    0.0000 C   0  0  0  0  0  0  0  0  0  0  0  0
   12.2817   -1.4256    0.0000 C   0  0  0  0  0  0  0  0  0  0  0  0
    3.8357   -2.3325    0.0000 C   0  0  0  0  0  0  0  0  0  0  0  0
   13.0048   -0.4597    0.0000 C   0  0  0  0  0  0  0  0  0  0  0  0
   12.3243    4.1100    0.0000 C   0  0  0  0  0  0  0  0  0  0  0  0
   13.0325    3.1331    0.0000 C   0  0  0  0  0  0  0  0  0  0  0  0
    8.4464   -3.2306    0.0000 C   0  0  0  0  0  0  0  0  0  0  0  0
    7.9256   -4.1326    0.0000 C   0  0  0  0  0  0  0  0  0  0  0  0
    3.8287   -4.1326    0.0000 C   0  0  0  0  0  0  0  0  0  0  0  0
    3.3079   -3.2306    0.0000 C   0  0  0  0  0  0  0  0  0  0  0  0
    7.5808    0.0295    0.0000 H   0  0  0  0  0  0  0  0  0  0  0  0
    7.6009   -0.0813    0.0000 H   0  0  0  0  0  0  0  0  0  0  0  0
    7.6016    2.7276    0.0000 H   0  0  0  0  0  0  0  0  0  0  0  0
    5.2626    1.2687    0.0000 H   0  0  0  0  0  0  0  0  0  0  0  0
    7.4203    2.7297    0.0000 H   0  0  0  0  0  0  0  0  0  0  0  0
    4.9755    0.9483    0.0000 H   0  0  0  0  0  0  0  0  0  0  0  0
    4.5160    0.3494    0.0000 H   0  0  0  0  0  0  0  0  0  0  0  0
    6.3420    3.7266    0.0000 H   0  0  0  0  0  0  0  0  0  0  0  0
   10.7075   -1.7651    0.0000 H   0  0  0  0  0  0  0  0  0  0  0  0
   10.7556    4.4738    0.0000 H   0  0  0  0  0  0  0  0  0  0  0  0
    8.2225   -1.7920    0.0000 H   0  0  0  0  0  0  0  0  0  0  0  0
    3.5319   -1.7920    0.0000 H   0  0  0  0  0  0  0  0  0  0  0  0
   13.9217    0.4379    0.0000 H   0  0  0  0  0  0  0  0  0  0  0  0
   13.9355    2.2214    0.0000 H   0  0  0  0  0  0  0  0  0  0  0  0
    6.6778   -5.5253    0.0000 H   0  0  0  0  0  0  0  0  0  0  0  0
    5.0766   -5.5253    0.0000 H   0  0  0  0  0  0  0  0  0  0  0  0
   12.2983   -2.8413    0.0000 H   0  0  0  0  0  0  0  0  0  0  0  0
   14.2444   -1.1436    0.0000 H   0  0  0  0  0  0  0  0  0  0  0  0
   12.3628    5.5253    0.0000 H   0  0  0  0  0  0  0  0  0  0  0  0
   14.2825    3.7978    0.0000 H   0  0  0  0  0  0  0  0  0  0  0  0
    9.7585   -3.7624    0.0000 H   0  0  0  0  0  0  0  0  0  0  0  0
    9.0423   -5.0030    0.0000 H   0  0  0  0  0  0  0  0  0  0  0  0
    2.7121   -5.0030    0.0000 H   0  0  0  0  0  0  0  0  0  0  0  0
    2.0000   -2.6886    0.0000 H   0  0  0  0  0  0  0  0  0  0  0  0
  1 26  1  0  0  0  0
  1 27  1  0  0  0  0
  2 23  1  0  0  0  0
  2 29  1  0  0  0  0
  3 24  1  0  0  0  0
  3 30  1  0  0  0  0
  4 25  1  0  0  0  0
  4 31  1  0  0  0  0
  5 27  1  0  0  0  0
  5 64  1  0  0  0  0
  6 28  1  0  0  0  0
  6 37  1  0  0  0  0
  7 29  2  0  0  0  0
  8 30  2  0  0  0  0
  9 31  2  0  0  0  0
 10 37  2  0  0  0  0
 11 43  1  0  0  0  0
 11 69  1  0  0  0  0
 12 45  1  0  0  0  0
 12 70  1  0  0  0  0
 13 46  1  0  0  0  0
 13 71  1  0  0  0  0
 14 47  1  0  0  0  0
 14 72  1  0  0  0  0
 15 48  1  0  0  0  0
 15 73  1  0  0  0  0
 16 50  1  0  0  0  0
 16 74  1  0  0  0  0
 17 51  1  0  0  0  0
 17 75  1  0  0  0  0
 18 52  1  0  0  0  0
 18 76  1  0  0  0  0
 19 53  1  0  0  0  0
 19 77  1  0  0  0  0
 20 54  1  0  0  0  0
 20 78  1  0  0  0  0
 21 55  1  0  0  0  0
 21 79  1  0  0  0  0
 22 56  1  0  0  0  0
 22 80  1  0  0  0  0
 23 24  1  0  0  0  0
 23 25  1  0  0  0  0
 23 57  1  6  0  0  0
 24 26  1  0  0  0  0
 24 58  1  1  0  0  0
 25 27  1  0  0  0  0
 25 59  1  1  0  0  0
 26 28  1  0  0  0  0
 26 60  1  6  0  0  0
 27 61  1  0  0  0  0
 28 62  1  0  0  0  0
 28 63  1  0  0  0  0
 29 32  1  0  0  0  0
 30 34  1  0  0  0  0
 31 33  1  0  0  0  0
 32 35  1  0  0  0  0
 32 41  2  0  0  0  0
 33 36  1  0  0  0  0
 33 42  2  0  0  0  0
 34 38  1  0  0  0  0
 34 44  2  0  0  0  0
 35 36  1  0  0  0  0
 35 43  2  0  0  0  0
 36 45  2  0  0  0  0
 37 39  1  0  0  0  0
 38 40  1  0  0  0  0
 38 46  2  0  0  0  0
 39 40  1  0  0  0  0
 39 49  2  0  0  0  0
 40 47  2  0  0  0  0
 41 48  1  0  0  0  0
 41 65  1  0  0  0  0
 42 51  1  0  0  0  0
 42 66  1  0  0  0  0
 43 50  1  0  0  0  0
 44 53  1  0  0  0  0
 44 67  1  0  0  0  0
 45 52  1  0  0  0  0
 46 54  1  0  0  0  0
 47 55  1  0  0  0  0
 48 50  2  0  0  0  0
 49 56  1  0  0  0  0
 49 68  1  0  0  0  0
 51 52  2  0  0  0  0
 53 54  2  0  0  0  0
 55 56  2  0  0  0  0
M  END
> <PUBCHEM_COMPOUND_CID>
442688

> <PUBCHEM_COMPOUND_CANONICALIZED>
1

> <PUBCHEM_CACTVS_COMPLEXITY>
1510

> <PUBCHEM_CACTVS_HBOND_ACCEPTOR>
22

> <PUBCHEM_CACTVS_HBOND_DONOR>
13

> <PUBCHEM_CACTVS_ROTATABLE_BOND>
0

> <PUBCHEM_CACTVS_SUBSKEYS>
AAADceB8PgAAAAAAAAAAAAAAAAAAAAAAAAA0YMGCAAAAAACRVAAAGgAACAAADBSwmAMwDoAABgCIAiDSCAACAAAkIAAAiAEGiMgZNzKCNBqCcQElwBUPuYfK7PzOoAABCAAYQABAAAIQADCAAAAAAAAAAA==

> <PUBCHEM_IUPAC_INCHI>
InChI=1S/C34H24O22/c35-10-1-6-15(23(43)19(10)39)16-7(2-11(36)20(40)24(16)44)31(48)54-27-14(5-52-30(6)47)53-34(51)29-28(27)55-32(49)8-3-12(37)21(41)25(45)17(8)18-9(33(50)56-29)4-13(38)22(42)26(18)46/h1-4,14,27-29,34-46,51H,5H2/t14-,27-,28+,29-,34?/m1/s1

> <PUBCHEM_IUPAC_INCHIKEY>
IYMHVUYNBVWXKH-ZITZVVOASA-N

> <PUBCHEM_XLOGP3_AA>
0.9

> <PUBCHEM_EXACT_MASS>
784.075922

> <PUBCHEM_MOLECULAR_FORMULA>
C34H24O22

> <PUBCHEM_MOLECULAR_WEIGHT>
784.54116

> <PUBCHEM_OPENEYE_CAN_SMILES>
C1C2C(C3C(C(O2)O)OC(=O)C4=CC(=C(C(=C4C5=C(C(=C(C=C5C(=O)O3)O)O)O)O)O)O)OC(=O)C6=CC(=C(C(=C6C7=C(C(=C(C=C7C(=O)O1)O)O)O)O)O)O

> <PUBCHEM_OPENEYE_ISO_SMILES>
C1[C@@H]2[C@H]([C@H]3[C@H](C(O2)O)OC(=O)C4=CC(=C(C(=C4C5=C(C(=C(C=C5C(=O)O3)O)O)O)O)O)O)OC(=O)C6=CC(=C(C(=C6C7=C(C(=C(C=C7C(=O)O1)O)O)O)O)O)O

> <PUBCHEM_CACTVS_TPSA>
377

> <PUBCHEM_MONOISOTOPIC_WEIGHT>
784.075922

> <PUBCHEM_TOTAL_CHARGE>
0

> <PUBCHEM_HEAVY_ATOM_COUNT>
56

> <PUBCHEM_ATOM_DEF_STEREO_COUNT>
4

> <PUBCHEM_ATOM_UDEF_STEREO_COUNT>
1

> <PUBCHEM_BOND_DEF_STEREO_COUNT>
0

> <PUBCHEM_BOND_UDEF_STEREO_COUNT>
0

> <PUBCHEM_ISOTOPIC_ATOM_COUNT>
0

> <PUBCHEM_COMPONENT_COUNT>
1

> <PUBCHEM_CACTVS_TAUTO_COUNT>
986

> <PUBCHEM_COORDINATE_TYPE>
1
5
255

> <PUBCHEM_BONDANNOTATIONS>
23  57  6
24  58  5
25  59  5
26  60  6
32  35  8
32  41  8
33  36  8
33  42  8
34  38  8
34  44  8
35  43  8
36  45  8
38  46  8
39  40  8
39  49  8
40  47  8
41  48  8
42  51  8
43  50  8
44  53  8
45  52  8
46  54  8
47  55  8
48  50  8
49  56  8
27  5  3
51  52  8
53  54  8
55  56  8

$$$$

