15519420
  -OEChem-07051213032D

 59 61  0     1  0  0  0  0  0999 V2000
    6.4021   -1.2528    0.0000 P   0  0  3  0  0  0  0  0  0  0  0  0
    7.9844   -1.9573    0.0000 P   0  0  3  0  0  0  0  0  0  0  0  0
    4.5411    1.2117    0.0000 O   0  0  0  0  0  0  0  0  0  0  0  0
    2.6443   -0.5483    0.0000 O   0  0  0  0  0  0  0  0  0  0  0  0
    5.8144   -0.4438    0.0000 O   0  0  0  0  0  0  0  0  0  0  0  0
   10.5613   -2.5573    0.0000 O   0  0  0  0  0  0  0  0  0  0  0  0
    8.9790   -1.8528    0.0000 O   0  0  0  0  0  0  0  0  0  0  0  0
    6.9899   -2.0619    0.0000 O   0  0  0  0  0  0  0  0  0  0  0  0
    2.0000    2.7995    0.0000 O   0  0  0  0  0  0  0  0  0  0  0  0
   11.3301   -5.0889    0.0000 O   0  0  0  0  0  0  0  0  0  0  0  0
    7.2112   -0.6651    0.0000 O   0  0  0  0  0  0  0  0  0  0  0  0
    5.5931   -1.8406    0.0000 O   0  0  0  0  0  0  0  0  0  0  0  0
    8.0890   -2.9518    0.0000 O   0  0  0  0  0  0  0  0  0  0  0  0
    3.7320    5.7995    0.0000 O   0  0  0  0  0  0  0  0  0  0  0  0
    7.8799   -0.9628    0.0000 O   0  0  0  0  0  0  0  0  0  0  0  0
    3.7320    2.7995    0.0000 N   0  0  0  0  0  0  0  0  0  0  0  0
    2.8660    4.2995    0.0000 N   0  0  0  0  0  0  0  0  0  0  0  0
    9.3411   -5.2979    0.0000 N   0  0  0  0  0  0  0  0  0  0  0  0
    3.2320    0.2607    0.0000 C   0  0  2  0  0  0  0  0  0  0  0  0
    4.2320    0.2607    0.0000 C   0  0  1  0  0  0  0  0  0  0  0  0
    2.9230    1.2117    0.0000 C   0  0  0  0  0  0  0  0  0  0  0  0
    3.7320    1.7995    0.0000 C   0  0  1  0  0  0  0  0  0  0  0  0
    4.8198   -0.5483    0.0000 C   0  0  0  0  0  0  0  0  0  0  0  0
    9.1600   -3.5754    0.0000 C   0  0  0  0  0  0  0  0  0  0  0  0
    9.7478   -4.3844    0.0000 C   0  0  2  0  0  0  0  0  0  0  0  0
    4.5981    3.2995    0.0000 C   0  0  0  0  0  0  0  0  0  0  0  0
    9.5668   -2.6618    0.0000 C   0  0  2  0  0  0  0  0  0  0  0  0
    2.8660    3.2995    0.0000 C   0  0  0  0  0  0  0  0  0  0  0  0
   11.1491   -3.3663    0.0000 C   0  0  1  0  0  0  0  0  0  0  0  0
   10.7423   -4.2798    0.0000 C   0  0  0  0  0  0  0  0  0  0  0  0
    4.5981    4.2995    0.0000 C   0  0  0  0  0  0  0  0  0  0  0  0
    3.7320    4.7995    0.0000 C   0  0  0  0  0  0  0  0  0  0  0  0
   12.1436   -3.2618    0.0000 C   0  0  0  0  0  0  0  0  0  0  0  0
    5.4641    4.7995    0.0000 C   0  0  0  0  0  0  0  0  0  0  0  0
    3.5135   -0.2918    0.0000 H   0  0  0  0  0  0  0  0  0  0  0  0
    4.8444    0.3577    0.0000 H   0  0  0  0  0  0  0  0  0  0  0  0
    2.6130    1.7487    0.0000 H   0  0  0  0  0  0  0  0  0  0  0  0
    2.3566    0.9595    0.0000 H   0  0  0  0  0  0  0  0  0  0  0  0
    4.2845    2.0810    0.0000 H   0  0  0  0  0  0  0  0  0  0  0  0
    4.2626   -0.8201    0.0000 H   0  0  0  0  0  0  0  0  0  0  0  0
    4.9907   -1.1443    0.0000 H   0  0  0  0  0  0  0  0  0  0  0  0
    2.0277   -0.4835    0.0000 H   0  0  0  0  0  0  0  0  0  0  0  0
    8.6460   -3.2287    0.0000 H   0  0  0  0  0  0  0  0  0  0  0  0
    8.7293   -4.0214    0.0000 H   0  0  0  0  0  0  0  0  0  0  0  0
   10.1122   -4.8860    0.0000 H   0  0  0  0  0  0  0  0  0  0  0  0
    8.9502   -2.7266    0.0000 H   0  0  0  0  0  0  0  0  0  0  0  0
    5.1350    2.9895    0.0000 H   0  0  0  0  0  0  0  0  0  0  0  0
   11.4012   -2.7999    0.0000 H   0  0  0  0  0  0  0  0  0  0  0  0
    2.3291    4.6095    0.0000 H   0  0  0  0  0  0  0  0  0  0  0  0
   12.2084   -3.8784    0.0000 H   0  0  0  0  0  0  0  0  0  0  0  0
   12.7602   -3.1970    0.0000 H   0  0  0  0  0  0  0  0  0  0  0  0
   12.0788   -2.6452    0.0000 H   0  0  0  0  0  0  0  0  0  0  0  0
    9.7055   -5.7995    0.0000 H   0  0  0  0  0  0  0  0  0  0  0  0
    8.7245   -5.3627    0.0000 H   0  0  0  0  0  0  0  0  0  0  0  0
    5.7741    4.2626    0.0000 H   0  0  0  0  0  0  0  0  0  0  0  0
    6.0010    5.1095    0.0000 H   0  0  0  0  0  0  0  0  0  0  0  0
    5.1541    5.3364    0.0000 H   0  0  0  0  0  0  0  0  0  0  0  0
    7.1464   -0.0484    0.0000 H   0  0  0  0  0  0  0  0  0  0  0  0
    7.5874   -3.3163    0.0000 H   0  0  0  0  0  0  0  0  0  0  0  0
  1  5  1  0  0  0  0
  1  8  1  0  0  0  0
  1 11  1  0  0  0  0
  1 12  2  0  0  0  0
  2  7  1  0  0  0  0
  2  8  1  0  0  0  0
  2 13  1  0  0  0  0
  2 15  2  0  0  0  0
  3 20  1  0  0  0  0
  3 22  1  0  0  0  0
 19  4  1  1  0  0  0
  4 42  1  0  0  0  0
  5 23  1  0  0  0  0
  6 27  1  0  0  0  0
  6 29  1  0  0  0  0
 27  7  1  1  0  0  0
  9 28  2  0  0  0  0
 10 30  2  0  0  0  0
 11 58  1  0  0  0  0
 13 59  1  0  0  0  0
 14 32  2  0  0  0  0
 22 16  1  6  0  0  0
 16 26  1  0  0  0  0
 16 28  1  0  0  0  0
 17 28  1  0  0  0  0
 17 32  1  0  0  0  0
 17 49  1  0  0  0  0
 25 18  1  6  0  0  0
 18 53  1  0  0  0  0
 18 54  1  0  0  0  0
 19 20  1  0  0  0  0
 19 21  1  0  0  0  0
 19 35  1  0  0  0  0
 20 23  1  6  0  0  0
 20 36  1  0  0  0  0
 21 22  1  0  0  0  0
 21 37  1  0  0  0  0
 21 38  1  0  0  0  0
 22 39  1  0  0  0  0
 23 40  1  0  0  0  0
 23 41  1  0  0  0  0
 24 25  1  0  0  0  0
 24 27  1  0  0  0  0
 24 43  1  0  0  0  0
 24 44  1  0  0  0  0
 25 30  1  0  0  0  0
 25 45  1  0  0  0  0
 26 31  2  0  0  0  0
 26 47  1  0  0  0  0
 27 46  1  0  0  0  0
 29 30  1  0  0  0  0
 29 33  1  6  0  0  0
 29 48  1  0  0  0  0
 31 32  1  0  0  0  0
 31 34  1  0  0  0  0
 33 50  1  0  0  0  0
 33 51  1  0  0  0  0
 33 52  1  0  0  0  0
 34 55  1  0  0  0  0
 34 56  1  0  0  0  0
 34 57  1  0  0  0  0
M  END
> <PUBCHEM_COMPOUND_CID>
15519420

> <PUBCHEM_COMPOUND_CANONICALIZED>
1

> <PUBCHEM_CACTVS_COMPLEXITY>
974

> <PUBCHEM_CACTVS_HBOND_ACCEPTOR>
14

> <PUBCHEM_CACTVS_HBOND_DONOR>
5

> <PUBCHEM_CACTVS_ROTATABLE_BOND>
8

> <PUBCHEM_CACTVS_SUBSKEYS>
AAADceB7PAMAAAAAAAAAAAAAAAAAASAAAAAkQAAAAAAAAAAAAAAAHgAQCCAADDzxgAcDCAPABxCIQoFWUIKAAAAAAAAAAIHIAECREBIAgQQOQAAPFyIHAMGycAYAAAAAAAAAAAAAAAAAAAAAAAAAAAAAAA==

> <PUBCHEM_IUPAC_OPENEYE_NAME>
[(2R,4R,6R)-4-amino-6-methyl-5-oxo-tetrahydropyran-2-yl] [hydroxy-[[(2R,3S,5R)-3-hydroxy-5-(5-methyl-2,4-dioxo-pyrimidin-1-yl)tetrahydrofuran-2-yl]methoxy]phosphoryl] hydrogen phosphate

> <PUBCHEM_IUPAC_CAS_NAME>
[(2R,4R,6R)-4-amino-6-methyl-5-oxo-2-oxanyl] [hydroxy-[[(2R,3S,5R)-3-hydroxy-5-(5-methyl-2,4-dioxo-1-pyrimidinyl)-2-oxolanyl]methoxy]phosphoryl] hydrogen phosphate

> <PUBCHEM_IUPAC_NAME>
[(2R,4R,6R)-4-amino-6-methyl-5-oxooxan-2-yl] [hydroxy-[[(2R,3S,5R)-3-hydroxy-5-(5-methyl-2,4-dioxopyrimidin-1-yl)oxolan-2-yl]methoxy]phosphoryl] hydrogen phosphate

> <PUBCHEM_IUPAC_SYSTEMATIC_NAME>
[(2R,4R,6R)-4-azanyl-6-methyl-5-oxidanylidene-oxan-2-yl] [[(2R,3S,5R)-5-[5-methyl-2,4-bis(oxidanylidene)pyrimidin-1-yl]-3-oxidanyl-oxolan-2-yl]methoxy-oxidanyl-phosphoryl] hydrogen phosphate

> <PUBCHEM_IUPAC_TRADITIONAL_NAME>
[(2R,4R,6R)-4-amino-5-keto-6-methyl-tetrahydropyran-2-yl] [[(2R,3S,5R)-5-(2,4-diketo-5-methyl-pyrimidin-1-yl)-3-hydroxy-tetrahydrofuran-2-yl]methoxy-hydroxy-phosphoryl] hydrogen phosphate

> <PUBCHEM_IUPAC_INCHI>
InChI=1S/C16H25N3O13P2/c1-7-5-19(16(23)18-15(7)22)12-4-10(20)11(30-12)6-28-33(24,25)32-34(26,27)31-13-3-9(17)14(21)8(2)29-13/h5,8-13,20H,3-4,6,17H2,1-2H3,(H,24,25)(H,26,27)(H,18,22,23)/t8-,9-,10+,11-,12-,13-/m1/s1

> <PUBCHEM_IUPAC_INCHIKEY>
IVWGOICUSBJICO-OJEZURLMSA-N

> <PUBCHEM_XLOGP3_AA>
-5.9

> <PUBCHEM_EXACT_MASS>
529.086261

> <PUBCHEM_MOLECULAR_FORMULA>
C16H25N3O13P2

> <PUBCHEM_MOLECULAR_WEIGHT>
529.329524

> <PUBCHEM_OPENEYE_CAN_SMILES>
CC1C(=O)C(CC(O1)OP(=O)(O)OP(=O)(O)OCC2C(CC(O2)N3C=C(C(=O)NC3=O)C)O)N

> <PUBCHEM_OPENEYE_ISO_SMILES>
C[C@@H]1C(=O)[C@@H](C[C@H](O1)OP(=O)(O)OP(=O)(O)OC[C@@H]2[C@H](C[C@@H](O2)N3C=C(C(=O)NC3=O)C)O)N

> <PUBCHEM_CACTVS_TPSA>
234

> <PUBCHEM_MONOISOTOPIC_WEIGHT>
529.086261

> <PUBCHEM_TOTAL_CHARGE>
0

> <PUBCHEM_HEAVY_ATOM_COUNT>
34

> <PUBCHEM_ATOM_DEF_STEREO_COUNT>
6

> <PUBCHEM_ATOM_UDEF_STEREO_COUNT>
0

> <PUBCHEM_BOND_DEF_STEREO_COUNT>
0

> <PUBCHEM_BOND_UDEF_STEREO_COUNT>
0

> <PUBCHEM_ISOTOPIC_ATOM_COUNT>
0

> <PUBCHEM_COMPONENT_COUNT>
1

> <PUBCHEM_CACTVS_TAUTO_COUNT>
15

> <PUBCHEM_COORDINATE_TYPE>
1
5
255

> <PUBCHEM_BONDANNOTATIONS>
22  16  6
16  26  8
16  28  8
17  28  8
17  32  8
25  18  6
20  23  6
26  31  8
29  33  6
31  32  8
19  4  5
27  7  5

$$$$

