9708
  -OEChem-06261203583D

 14 14  0     0  0  0  0  0  0999 V2000
   -2.0296    1.8934    0.0000 Cl  0  0  0  0  0  0  0  0  0  0  0  0
   -2.3668   -1.0516   -0.0010 F   0  0  0  0  0  0  0  0  0  0  0  0
    2.9279    0.5815   -0.0011 N   0  0  0  0  0  0  0  0  0  0  0  0
    1.5788    0.1702    0.0004 C   0  0  0  0  0  0  0  0  0  0  0  0
    0.5588    1.1218    0.0004 C   0  0  0  0  0  0  0  0  0  0  0  0
    1.2647   -1.1888    0.0003 C   0  0  0  0  0  0  0  0  0  0  0  0
   -0.7752    0.7144    0.0002 C   0  0  0  0  0  0  0  0  0  0  0  0
   -0.0694   -1.5962    0.0003 C   0  0  0  0  0  0  0  0  0  0  0  0
   -1.0893   -0.6446    0.0003 C   0  0  0  0  0  0  0  0  0  0  0  0
    0.8062    2.1813    0.0001 H   0  0  0  0  0  0  0  0  0  0  0  0
    2.0502   -1.9401   -0.0001 H   0  0  0  0  0  0  0  0  0  0  0  0
   -0.3143   -2.6542    0.0000 H   0  0  0  0  0  0  0  0  0  0  0  0
    3.6673   -0.1085    0.0012 H   0  0  0  0  0  0  0  0  0  0  0  0
    3.1570    1.5665    0.0013 H   0  0  0  0  0  0  0  0  0  0  0  0
  1  7  1  0  0  0  0
  2  9  1  0  0  0  0
  3  4  1  0  0  0  0
  3 13  1  0  0  0  0
  3 14  1  0  0  0  0
  4  5  2  0  0  0  0
  4  6  1  0  0  0  0
  5  7  1  0  0  0  0
  5 10  1  0  0  0  0
  6  8  2  0  0  0  0
  6 11  1  0  0  0  0
  7  9  2  0  0  0  0
  8  9  1  0  0  0  0
  8 12  1  0  0  0  0
M  END
> <PUBCHEM_COMPOUND_CID>
9708

> <PUBCHEM_CONFORMER_RMSD>
0.4

> <PUBCHEM_CONFORMER_DIVERSEORDER>
1

> <PUBCHEM_MMFF94_PARTIAL_CHARGES>
14
1 -0.18
10 0.15
11 0.15
12 0.15
13 0.4
14 0.4
2 -0.19
3 -0.9
4 0.1
5 -0.15
6 -0.15
7 0.18
8 -0.15
9 0.19

> <PUBCHEM_EFFECTIVE_ROTOR_COUNT>
0

> <PUBCHEM_PHARMACOPHORE_FEATURES>
3
1 3 cation
1 3 donor
6 4 5 6 7 8 9 rings

> <PUBCHEM_HEAVY_ATOM_COUNT>
9

> <PUBCHEM_ATOM_DEF_STEREO_COUNT>
0

> <PUBCHEM_ATOM_UDEF_STEREO_COUNT>
0

> <PUBCHEM_BOND_DEF_STEREO_COUNT>
0

> <PUBCHEM_BOND_UDEF_STEREO_COUNT>
0

> <PUBCHEM_ISOTOPIC_ATOM_COUNT>
0

> <PUBCHEM_COMPONENT_COUNT>
1

> <PUBCHEM_CACTVS_TAUTO_COUNT>
1

> <PUBCHEM_CONFORMER_ID>
000025EC00000001

> <PUBCHEM_MMFF94_ENERGY>
27.0702

> <PUBCHEM_FEATURE_SELFOVERLAP>
15.223

> <PUBCHEM_SHAPE_FINGERPRINT>
12423570 1 6410751495611754978
16945 1 18338797801766107110
18185500 45 17977947882266062614
21040471 1 18266458891628354688
23402655 69 18264507220778755333
23552423 10 18272083954704178070
2748010 2 18337950207092004158
29004967 10 18270957925658049507
5084963 1 18114739339500937280

> <PUBCHEM_SHAPE_MULTIPOLES>
174.83
3.08
1.87
0.6
0.26
0.18
0
-1.03
0
-0.56
0
-0.01
-0.02
0

> <PUBCHEM_SHAPE_SELFOVERLAP>
356.578

> <PUBCHEM_SHAPE_VOLUME>
102.8

> <PUBCHEM_COORDINATE_TYPE>
2
5
10

$$$$

