5284653
  -OEChem-07051213073D

 48 51  0     1  0  0  0  0  0999 V2000
   -5.0258    1.5755   -0.3581 O   0  0  0  0  0  0  0  0  0  0  0  0
   -5.2916   -1.3710    0.8532 O   0  0  0  0  0  0  0  0  0  0  0  0
    5.7962   -0.2651   -0.3083 O   0  0  0  0  0  0  0  0  0  0  0  0
   -2.6704    0.8305   -0.2182 C   0  0  1  0  0  0  0  0  0  0  0  0
   -2.1099   -0.5332    0.2375 C   0  0  2  0  0  0  0  0  0  0  0  0
   -0.6383   -0.7076   -0.1384 C   0  0  1  0  0  0  0  0  0  0  0  0
    0.1947    0.4009    0.5741 C   0  0  2  0  0  0  0  0  0  0  0  0
   -4.1302    0.6591    0.2463 C   0  0  2  0  0  0  0  0  0  0  0  0
   -1.8905    1.9323    0.5099 C   0  0  0  0  0  0  0  0  0  0  0  0
   -3.1390   -1.5384   -0.2815 C   0  0  0  0  0  0  0  0  0  0  0  0
   -4.4814   -0.7890   -0.1596 C   0  0  1  0  0  0  0  0  0  0  0  0
   -0.3728    1.8138    0.2718 C   0  0  0  0  0  0  0  0  0  0  0  0
   -0.0878   -2.0775    0.2633 C   0  0  0  0  0  0  0  0  0  0  0  0
   -2.6109    1.0816   -1.7458 C   0  0  0  0  0  0  0  0  0  0  0  0
    1.6872    0.2313    0.3021 C   0  0  0  0  0  0  0  0  0  0  0  0
    1.3343   -2.2400   -0.2652 C   0  0  0  0  0  0  0  0  0  0  0  0
    2.2123   -1.0314   -0.0508 C   0  0  0  0  0  0  0  0  0  0  0  0
    2.5857    1.2982    0.4805 C   0  0  0  0  0  0  0  0  0  0  0  0
    3.5941   -1.1806   -0.2641 C   0  0  0  0  0  0  0  0  0  0  0  0
    3.9571    1.1339    0.2737 C   0  0  0  0  0  0  0  0  0  0  0  0
    4.4612   -0.1040   -0.1029 C   0  0  0  0  0  0  0  0  0  0  0  0
    6.6259    0.8806   -0.1195 C   0  0  0  0  0  0  0  0  0  0  0  0
   -2.1657   -0.5849    1.3379 H   0  0  0  0  0  0  0  0  0  0  0  0
   -0.5244   -0.6120   -1.2260 H   0  0  0  0  0  0  0  0  0  0  0  0
    0.0857    0.2517    1.6598 H   0  0  0  0  0  0  0  0  0  0  0  0
   -4.2126    0.7926    1.3326 H   0  0  0  0  0  0  0  0  0  0  0  0
   -2.0757    1.8703    1.5903 H   0  0  0  0  0  0  0  0  0  0  0  0
   -2.2365    2.9244    0.1956 H   0  0  0  0  0  0  0  0  0  0  0  0
   -2.9380   -1.7827   -1.3307 H   0  0  0  0  0  0  0  0  0  0  0  0
   -3.1232   -2.4706    0.2923 H   0  0  0  0  0  0  0  0  0  0  0  0
   -5.0449   -0.8361   -1.0972 H   0  0  0  0  0  0  0  0  0  0  0  0
   -0.1331    2.0965   -0.7603 H   0  0  0  0  0  0  0  0  0  0  0  0
    0.1103    2.5608    0.9122 H   0  0  0  0  0  0  0  0  0  0  0  0
   -0.7074   -2.8880   -0.1362 H   0  0  0  0  0  0  0  0  0  0  0  0
   -0.0942   -2.1799    1.3563 H   0  0  0  0  0  0  0  0  0  0  0  0
   -1.5901    1.0686   -2.1369 H   0  0  0  0  0  0  0  0  0  0  0  0
   -3.1793    0.3396   -2.3150 H   0  0  0  0  0  0  0  0  0  0  0  0
   -3.0307    2.0644   -1.9906 H   0  0  0  0  0  0  0  0  0  0  0  0
    1.2933   -2.4377   -1.3441 H   0  0  0  0  0  0  0  0  0  0  0  0
    1.7869   -3.1174    0.2125 H   0  0  0  0  0  0  0  0  0  0  0  0
   -5.9238    1.3391   -0.0697 H   0  0  0  0  0  0  0  0  0  0  0  0
   -4.7748   -1.3948    1.6767 H   0  0  0  0  0  0  0  0  0  0  0  0
    2.2381    2.2787    0.7919 H   0  0  0  0  0  0  0  0  0  0  0  0
    3.9945   -2.1491   -0.5572 H   0  0  0  0  0  0  0  0  0  0  0  0
    4.5716    2.0143    0.4292 H   0  0  0  0  0  0  0  0  0  0  0  0
    7.6558    0.5717   -0.3267 H   0  0  0  0  0  0  0  0  0  0  0  0
    6.5991    1.2297    0.9183 H   0  0  0  0  0  0  0  0  0  0  0  0
    6.3811    1.6763   -0.8313 H   0  0  0  0  0  0  0  0  0  0  0  0
  1  8  1  0  0  0  0
  1 41  1  0  0  0  0
  2 11  1  0  0  0  0
  2 42  1  0  0  0  0
  3 21  1  0  0  0  0
  3 22  1  0  0  0  0
  4  5  1  0  0  0  0
  4  8  1  0  0  0  0
  4  9  1  0  0  0  0
  4 14  1  0  0  0  0
  5  6  1  0  0  0  0
  5 10  1  0  0  0  0
  5 23  1  0  0  0  0
  6  7  1  0  0  0  0
  6 13  1  0  0  0  0
  6 24  1  0  0  0  0
  7 12  1  0  0  0  0
  7 15  1  0  0  0  0
  7 25  1  0  0  0  0
  8 11  1  0  0  0  0
  8 26  1  0  0  0  0
  9 12  1  0  0  0  0
  9 27  1  0  0  0  0
  9 28  1  0  0  0  0
 10 11  1  0  0  0  0
 10 29  1  0  0  0  0
 10 30  1  0  0  0  0
 11 31  1  0  0  0  0
 12 32  1  0  0  0  0
 12 33  1  0  0  0  0
 13 16  1  0  0  0  0
 13 34  1  0  0  0  0
 13 35  1  0  0  0  0
 14 36  1  0  0  0  0
 14 37  1  0  0  0  0
 14 38  1  0  0  0  0
 15 17  2  0  0  0  0
 15 18  1  0  0  0  0
 16 17  1  0  0  0  0
 16 39  1  0  0  0  0
 16 40  1  0  0  0  0
 17 19  1  0  0  0  0
 18 20  2  0  0  0  0
 18 43  1  0  0  0  0
 19 21  2  0  0  0  0
 19 44  1  0  0  0  0
 20 21  1  0  0  0  0
 20 45  1  0  0  0  0
 22 46  1  0  0  0  0
 22 47  1  0  0  0  0
 22 48  1  0  0  0  0
M  END
> <PUBCHEM_COMPOUND_CID>
5284653

> <PUBCHEM_CONFORMER_RMSD>
0.6

> <PUBCHEM_CONFORMER_DIVERSEORDER>
1

> <PUBCHEM_MMFF94_PARTIAL_CHARGES>
19
1 -0.68
11 0.28
15 -0.14
16 0.14
17 -0.14
18 -0.15
19 -0.15
2 -0.68
20 -0.15
21 0.08
22 0.28
3 -0.36
41 0.4
42 0.4
43 0.15
44 0.15
45 0.15
7 0.14
8 0.28

> <PUBCHEM_EFFECTIVE_ROTOR_COUNT>
2.4

> <PUBCHEM_PHARMACOPHORE_FEATURES>
9
1 1 acceptor
1 1 donor
1 2 acceptor
1 2 donor
1 3 acceptor
5 4 5 8 10 11 rings
6 15 17 18 19 20 21 rings
6 4 5 6 7 9 12 rings
6 6 7 13 15 16 17 rings

> <PUBCHEM_HEAVY_ATOM_COUNT>
22

> <PUBCHEM_ATOM_DEF_STEREO_COUNT>
6

> <PUBCHEM_ATOM_UDEF_STEREO_COUNT>
0

> <PUBCHEM_BOND_DEF_STEREO_COUNT>
0

> <PUBCHEM_BOND_UDEF_STEREO_COUNT>
0

> <PUBCHEM_ISOTOPIC_ATOM_COUNT>
0

> <PUBCHEM_COMPONENT_COUNT>
1

> <PUBCHEM_CACTVS_TAUTO_COUNT>
1

> <PUBCHEM_CONFORMER_ID>
0050A32D00000001

> <PUBCHEM_MMFF94_ENERGY>
86.5164

> <PUBCHEM_FEATURE_SELFOVERLAP>
45.767

> <PUBCHEM_SHAPE_FINGERPRINT>
10498660 4 18340772623439258428
10591671 39 18272075068817542302
10616163 171 18335139799827211471
11488393 25 17315337362170791486
11578080 2 17344642666859553887
12166972 35 17989201539149722556
12236239 1 17918276454830503768
12403259 415 18334864879033950272
12403814 3 17846782931769430349
12788726 201 17241323723570913976
128620 24 18273214213701801558
13140716 1 18049444742564185394
13224815 77 18410576209976256555
13288520 33 18408602535629137449
13402501 40 18410011013897351258
13583140 156 17131828755477481984
13862211 1 18408891710955143970
14787075 74 18340207392953187355
14790565 3 18408878521126545224
15196674 1 18409730689850666970
15788980 27 4895272611762321834
16945 1 18193283115839990003
16988056 13 14100970342924967373
18186145 218 18410582794403772812
18681886 176 18409733920399465712
19489759 90 16415764132428239260
19591789 44 18264210205808572291
200 152 17675925404354751632
21267235 1 18337102380943607419
21279426 13 18264486351068362134
21709351 56 18341337725081592188
221357 26 18186522120151609928
221490 88 18264764531446798030
23402539 116 18335707130673330316
23402655 69 18260551155686127108
23557571 272 18409161104167420815
23559900 14 18260836964607171336
2871803 45 18409452513387584719
3004659 81 18341609361485797318
335352 9 18408323293539769740
34934 24 18337957895632083503
350125 39 18409446973360223640
3545911 37 18410011048082938212
4214541 1 18409449193462436353
4325135 7 18411699863910680639
4340502 62 16845569833886707058
474229 33 18410011026967090186
5104073 3 18338236067230435243
542803 24 17632576054644232132
9709674 26 18408598184268695142

> <PUBCHEM_SHAPE_MULTIPOLES>
435.14
11.96
2.12
0.85
8.45
0.32
0.21
-1.47
0.63
-0.7
-0.06
-0.51
-0.15
0.57

> <PUBCHEM_SHAPE_SELFOVERLAP>
942.316

> <PUBCHEM_SHAPE_VOLUME>
238.4

> <PUBCHEM_COORDINATE_TYPE>
2
5
10

$$$$

