6702
  -OEChem-07051213143D

 29 31  0     0  0  0  0  0  0999 V2000
   -0.0695    2.4790   -0.0026 O   0  0  0  0  0  0  0  0  0  0  0  0
   -0.8707   -2.8044   -0.0013 O   0  0  0  0  0  0  0  0  0  0  0  0
    2.5105    2.2078    0.0002 N   0  0  0  0  0  0  0  0  0  0  0  0
    0.9181    0.3229   -0.0004 C   0  0  0  0  0  0  0  0  0  0  0  0
    0.6976   -1.0560   -0.0006 C   0  0  0  0  0  0  0  0  0  0  0  0
   -1.5960    0.7250   -0.0002 C   0  0  0  0  0  0  0  0  0  0  0  0
   -1.8165   -0.6539    0.0000 C   0  0  0  0  0  0  0  0  0  0  0  0
    2.2267    0.8207    0.0000 C   0  0  0  0  0  0  0  0  0  0  0  0
   -0.2206    1.2639   -0.0006 C   0  0  0  0  0  0  0  0  0  0  0  0
   -0.6779   -1.5948    0.0000 C   0  0  0  0  0  0  0  0  0  0  0  0
    3.3080   -0.0610    0.0002 C   0  0  0  0  0  0  0  0  0  0  0  0
    1.7856   -1.9372   -0.0005 C   0  0  0  0  0  0  0  0  0  0  0  0
    3.0879   -1.4369   -0.0001 C   0  0  0  0  0  0  0  0  0  0  0  0
   -2.6840    1.6062    0.0003 C   0  0  0  0  0  0  0  0  0  0  0  0
   -3.1251   -1.1516    0.0007 C   0  0  0  0  0  0  0  0  0  0  0  0
    4.7188    0.4344    0.0025 C   0  0  0  0  0  0  0  0  0  0  0  0
   -3.9864    1.1059    0.0011 C   0  0  0  0  0  0  0  0  0  0  0  0
   -4.2064   -0.2701    0.0013 C   0  0  0  0  0  0  0  0  0  0  0  0
    1.6403   -3.0141   -0.0004 H   0  0  0  0  0  0  0  0  0  0  0  0
    3.9195   -2.1368    0.0004 H   0  0  0  0  0  0  0  0  0  0  0  0
   -2.5419    2.6835    0.0002 H   0  0  0  0  0  0  0  0  0  0  0  0
   -3.3232   -2.2202    0.0009 H   0  0  0  0  0  0  0  0  0  0  0  0
    4.9195    1.0336   -0.8920 H   0  0  0  0  0  0  0  0  0  0  0  0
    4.9174    1.0314    0.8988 H   0  0  0  0  0  0  0  0  0  0  0  0
    5.4390   -0.3915    0.0023 H   0  0  0  0  0  0  0  0  0  0  0  0
   -4.8301    1.7900    0.0016 H   0  0  0  0  0  0  0  0  0  0  0  0
   -5.2214   -0.6570    0.0020 H   0  0  0  0  0  0  0  0  0  0  0  0
    3.4611    2.5492    0.0011 H   0  0  0  0  0  0  0  0  0  0  0  0
    1.7589    2.8827    0.0009 H   0  0  0  0  0  0  0  0  0  0  0  0
  1  9  2  0  0  0  0
  2 10  2  0  0  0  0
  3  8  1  0  0  0  0
  3 28  1  0  0  0  0
  3 29  1  0  0  0  0
  4  5  2  0  0  0  0
  4  8  1  0  0  0  0
  4  9  1  0  0  0  0
  5 10  1  0  0  0  0
  5 12  1  0  0  0  0
  6  7  1  0  0  0  0
  6  9  1  0  0  0  0
  6 14  2  0  0  0  0
  7 10  1  0  0  0  0
  7 15  2  0  0  0  0
  8 11  2  0  0  0  0
 11 13  1  0  0  0  0
 11 16  1  0  0  0  0
 12 13  2  0  0  0  0
 12 19  1  0  0  0  0
 13 20  1  0  0  0  0
 14 17  1  0  0  0  0
 14 21  1  0  0  0  0
 15 18  1  0  0  0  0
 15 22  1  0  0  0  0
 16 23  1  0  0  0  0
 16 24  1  0  0  0  0
 16 25  1  0  0  0  0
 17 18  2  0  0  0  0
 17 26  1  0  0  0  0
 18 27  1  0  0  0  0
M  END
> <PUBCHEM_COMPOUND_CID>
6702

> <PUBCHEM_CONFORMER_RMSD>
0.4

> <PUBCHEM_CONFORMER_DIVERSEORDER>
1

> <PUBCHEM_MMFF94_PARTIAL_CHARGES>
26
1 -0.57
10 0.4
11 -0.14
12 -0.15
13 -0.15
14 -0.15
15 -0.15
16 0.14
17 -0.15
18 -0.15
19 0.15
2 -0.57
20 0.15
21 0.15
22 0.15
26 0.15
27 0.15
28 0.4
29 0.4
3 -0.9
4 0.09
5 0.09
6 0.09
7 0.09
8 0.1
9 0.4

> <PUBCHEM_EFFECTIVE_ROTOR_COUNT>
0

> <PUBCHEM_PHARMACOPHORE_FEATURES>
7
1 1 acceptor
1 2 acceptor
1 3 cation
1 3 donor
6 4 5 6 7 9 10 rings
6 4 5 8 11 12 13 rings
6 6 7 14 15 17 18 rings

> <PUBCHEM_HEAVY_ATOM_COUNT>
18

> <PUBCHEM_ATOM_DEF_STEREO_COUNT>
0

> <PUBCHEM_ATOM_UDEF_STEREO_COUNT>
0

> <PUBCHEM_BOND_DEF_STEREO_COUNT>
0

> <PUBCHEM_BOND_UDEF_STEREO_COUNT>
0

> <PUBCHEM_ISOTOPIC_ATOM_COUNT>
0

> <PUBCHEM_COMPONENT_COUNT>
1

> <PUBCHEM_CACTVS_TAUTO_COUNT>
4

> <PUBCHEM_CONFORMER_ID>
00001A2E00000001

> <PUBCHEM_MMFF94_ENERGY>
69.2074

> <PUBCHEM_FEATURE_SELFOVERLAP>
35.562

> <PUBCHEM_SHAPE_FINGERPRINT>
10411042 1 16753249640993606883
10608611 8 18411421713032980397
10616163 171 18337389335871553807
10967382 1 18410575101864066598
11132069 177 18408890654345281193
11471102 20 18410859896861085718
12011746 2 18410292527439012572
12403814 3 17560805432872128797
13132413 78 18409448068133623213
13140716 1 18122342367801683490
13221675 6 18411138043359597518
13380535 76 18409729560343047758
13583140 156 16917079840800140545
13862211 1 18410862074842365578
14790565 3 18411125940174075036
15196674 1 18410855503083226439
15230672 131 13226385942737260675
15309172 13 18409721872699507427
15442244 35 18194120948021832794
15536298 74 18334294309676475350
16945 1 18266741268685256615
1813 80 16915666007077643186
18186145 218 18335134353613228493
193761 8 17978509728586819175
19591789 44 18411135827156765123
200 152 18113626685800801741
20510252 161 18261110824058032097
21029758 11 18334018276523730969
21249577 43 18411418427461925351
21267235 1 18410565176247737367
21501502 16 18266180539045311150
221490 88 18340760468650188234
2334 1 18410575084942679747
23402539 116 18334022687117267742
23402655 69 18334862761572647885
23463225 33 18412545439570105845
23559900 14 18334295405494561542
2748010 2 18411135870232629479
335352 9 17978511158795104919
34934 24 18410581690396821578
474 4 17202194124032494876
5104073 3 18411136982386514906
537710 114 18410851070714036725
53812653 166 18335423469247133544
69090 78 18408326574958106623
7364860 26 18335139782742170840
8809292 202 18271804566801933723
9709674 26 18409162199410948694

> <PUBCHEM_SHAPE_MULTIPOLES>
353.71
7.26
2.45
0.6
0.42
0.19
0
-0.99
-0.01
0.1
0
-0.01
0.01
0

> <PUBCHEM_SHAPE_SELFOVERLAP>
799.574

> <PUBCHEM_SHAPE_VOLUME>
185.1

> <PUBCHEM_COORDINATE_TYPE>
2
5
10

$$$$

