177148
  -OEChem-07051212562D

 37 38  0     0  0  0  0  0  0999 V2000
    6.3580   -0.7847    0.0000 O   0  0  0  0  0  0  0  0  0  0  0  0
    4.5981   -1.7500    0.0000 O   0  0  0  0  0  0  0  0  0  0  0  0
    2.8660   -0.7500    0.0000 O   0  0  0  0  0  0  0  0  0  0  0  0
    2.0000    0.7500    0.0000 O   0  0  0  0  0  0  0  0  0  0  0  0
    7.2641   -0.2708    0.0000 C   0  0  0  0  0  0  0  0  0  0  0  0
    5.4641   -0.2500    0.0000 C   0  0  0  0  0  0  0  0  0  0  0  0
    5.4641    0.7500    0.0000 C   0  0  0  0  0  0  0  0  0  0  0  0
    7.2641    0.7708    0.0000 C   0  0  0  0  0  0  0  0  0  0  0  0
    8.2641   -0.2747    0.0000 C   0  0  0  0  0  0  0  0  0  0  0  0
    7.7608   -1.1388    0.0000 C   0  0  0  0  0  0  0  0  0  0  0  0
    6.3580    1.2847    0.0000 C   0  0  0  0  0  0  0  0  0  0  0  0
    4.5981   -0.7500    0.0000 C   0  0  0  0  0  0  0  0  0  0  0  0
    4.5981    1.2500    0.0000 C   0  0  0  0  0  0  0  0  0  0  0  0
    3.7320    0.7500    0.0000 C   0  0  0  0  0  0  0  0  0  0  0  0
    3.7320   -0.2500    0.0000 C   0  0  0  0  0  0  0  0  0  0  0  0
    2.8660    1.2500    0.0000 C   0  0  0  0  0  0  0  0  0  0  0  0
    2.8660    2.2500    0.0000 C   0  0  0  0  0  0  0  0  0  0  0  0
    3.7320   -2.2500    0.0000 C   0  0  0  0  0  0  0  0  0  0  0  0
    2.0000   -0.2500    0.0000 C   0  0  0  0  0  0  0  0  0  0  0  0
    7.7998    1.0829    0.0000 H   0  0  0  0  0  0  0  0  0  0  0  0
    7.2226   -1.4467    0.0000 H   0  0  0  0  0  0  0  0  0  0  0  0
    8.0687   -1.6769    0.0000 H   0  0  0  0  0  0  0  0  0  0  0  0
    8.2989   -0.8308    0.0000 H   0  0  0  0  0  0  0  0  0  0  0  0
    8.2617   -0.8947    0.0000 H   0  0  0  0  0  0  0  0  0  0  0  0
    8.8841   -0.2771    0.0000 H   0  0  0  0  0  0  0  0  0  0  0  0
    8.2665    0.3453    0.0000 H   0  0  0  0  0  0  0  0  0  0  0  0
    6.3509    1.9046    0.0000 H   0  0  0  0  0  0  0  0  0  0  0  0
    4.5981    1.8700    0.0000 H   0  0  0  0  0  0  0  0  0  0  0  0
    3.4860    2.2500    0.0000 H   0  0  0  0  0  0  0  0  0  0  0  0
    2.8660    2.8700    0.0000 H   0  0  0  0  0  0  0  0  0  0  0  0
    2.2460    2.2500    0.0000 H   0  0  0  0  0  0  0  0  0  0  0  0
    3.4220   -1.7131    0.0000 H   0  0  0  0  0  0  0  0  0  0  0  0
    3.1951   -2.5600    0.0000 H   0  0  0  0  0  0  0  0  0  0  0  0
    4.0420   -2.7869    0.0000 H   0  0  0  0  0  0  0  0  0  0  0  0
    2.3100    0.2869    0.0000 H   0  0  0  0  0  0  0  0  0  0  0  0
    1.4631    0.0600    0.0000 H   0  0  0  0  0  0  0  0  0  0  0  0
    1.6900   -0.7869    0.0000 H   0  0  0  0  0  0  0  0  0  0  0  0
  1  5  1  0  0  0  0
  1  6  1  0  0  0  0
  2 12  1  0  0  0  0
  2 18  1  0  0  0  0
  3 15  1  0  0  0  0
  3 19  1  0  0  0  0
  4 16  2  0  0  0  0
  5  8  1  0  0  0  0
  5  9  1  0  0  0  0
  5 10  1  0  0  0  0
  6  7  1  0  0  0  0
  6 12  2  0  0  0  0
  7 11  1  0  0  0  0
  7 13  2  0  0  0  0
  8 11  2  0  0  0  0
  8 20  1  0  0  0  0
  9 24  1  0  0  0  0
  9 25  1  0  0  0  0
  9 26  1  0  0  0  0
 10 21  1  0  0  0  0
 10 22  1  0  0  0  0
 10 23  1  0  0  0  0
 11 27  1  0  0  0  0
 12 15  1  0  0  0  0
 13 14  1  0  0  0  0
 13 28  1  0  0  0  0
 14 15  2  0  0  0  0
 14 16  1  0  0  0  0
 16 17  1  0  0  0  0
 17 29  1  0  0  0  0
 17 30  1  0  0  0  0
 17 31  1  0  0  0  0
 18 32  1  0  0  0  0
 18 33  1  0  0  0  0
 18 34  1  0  0  0  0
 19 35  1  0  0  0  0
 19 36  1  0  0  0  0
 19 37  1  0  0  0  0
M  END
> <PUBCHEM_COMPOUND_CID>
177148

> <PUBCHEM_COMPOUND_CANONICALIZED>
1

> <PUBCHEM_CACTVS_COMPLEXITY>
374

> <PUBCHEM_CACTVS_HBOND_ACCEPTOR>
4

> <PUBCHEM_CACTVS_HBOND_DONOR>
0

> <PUBCHEM_CACTVS_ROTATABLE_BOND>
3

> <PUBCHEM_CACTVS_SUBSKEYS>
AAADceBwOAAAAAAAAAAAAAAAAAAAAAAAAAAwQAAAAAAAAACBAAAAGgAAAAAADESAmAIyBoAABACIAqBSAAACCAAkIAAIiAEEiMgNJzaENRqCOWKl4BUKqYeK7PzOIAADCAAIQABAAAYQABCAAAAAAAAAAA==

> <PUBCHEM_IUPAC_OPENEYE_NAME>
1-(7,8-dimethoxy-2,2-dimethyl-chromen-6-yl)ethanone

> <PUBCHEM_IUPAC_CAS_NAME>
1-(7,8-dimethoxy-2,2-dimethyl-1-benzopyran-6-yl)ethanone

> <PUBCHEM_IUPAC_NAME>
1-(7,8-dimethoxy-2,2-dimethylchromen-6-yl)ethanone

> <PUBCHEM_IUPAC_SYSTEMATIC_NAME>
1-(7,8-dimethoxy-2,2-dimethyl-chromen-6-yl)ethanone

> <PUBCHEM_IUPAC_TRADITIONAL_NAME>
1-(7,8-dimethoxy-2,2-dimethyl-chromen-6-yl)ethanone

> <PUBCHEM_IUPAC_INCHI>
InChI=1S/C15H18O4/c1-9(16)11-8-10-6-7-15(2,3)19-12(10)14(18-5)13(11)17-4/h6-8H,1-5H3

> <PUBCHEM_IUPAC_INCHIKEY>
AVQQLPJWGXTKFZ-UHFFFAOYSA-N

> <PUBCHEM_XLOGP3_AA>
2.5

> <PUBCHEM_EXACT_MASS>
262.120509

> <PUBCHEM_MOLECULAR_FORMULA>
C15H18O4

> <PUBCHEM_MOLECULAR_WEIGHT>
262.30102

> <PUBCHEM_OPENEYE_CAN_SMILES>
CC(=O)C1=C(C(=C2C(=C1)C=CC(O2)(C)C)OC)OC

> <PUBCHEM_OPENEYE_ISO_SMILES>
CC(=O)C1=C(C(=C2C(=C1)C=CC(O2)(C)C)OC)OC

> <PUBCHEM_CACTVS_TPSA>
44.8

> <PUBCHEM_MONOISOTOPIC_WEIGHT>
262.120509

> <PUBCHEM_TOTAL_CHARGE>
0

> <PUBCHEM_HEAVY_ATOM_COUNT>
19

> <PUBCHEM_ATOM_DEF_STEREO_COUNT>
0

> <PUBCHEM_ATOM_UDEF_STEREO_COUNT>
0

> <PUBCHEM_BOND_DEF_STEREO_COUNT>
0

> <PUBCHEM_BOND_UDEF_STEREO_COUNT>
0

> <PUBCHEM_ISOTOPIC_ATOM_COUNT>
0

> <PUBCHEM_COMPONENT_COUNT>
1

> <PUBCHEM_CACTVS_TAUTO_COUNT>
2

> <PUBCHEM_COORDINATE_TYPE>
1
5
255

> <PUBCHEM_BONDANNOTATIONS>
12  15  8
13  14  8
14  15  8
6  12  8
6  7  8
7  13  8

$$$$

