439403
  -OEChem-07051212452D

 23 24  0     0  0  0  0  0  0999 V2000
    6.8834   -1.8592    0.0000 O   0  0  0  0  0  0  0  0  0  0  0  0
    8.6651   -0.8488    0.0000 O   0  0  0  0  0  0  0  0  0  0  0  0
    5.1350    2.1754    0.0000 O   0  0  0  0  0  0  0  0  0  0  0  0
    2.5369   -0.3246    0.0000 O   0  0  0  0  0  0  0  0  0  0  0  0
    3.4030   -1.8246    0.0000 O   0  0  0  0  0  0  0  0  0  0  0  0
    5.1350   -0.8246    0.0000 N   0  0  0  0  0  0  0  0  0  0  0  0
    6.0010   -0.3246    0.0000 C   0  0  0  0  0  0  0  0  0  0  0  0
    6.0010    0.6754    0.0000 C   0  0  0  0  0  0  0  0  0  0  0  0
    6.8950   -0.8593    0.0000 C   0  0  0  0  0  0  0  0  0  0  0  0
    5.1350    1.1754    0.0000 C   0  0  0  0  0  0  0  0  0  0  0  0
    4.2690   -0.3246    0.0000 C   0  0  0  0  0  0  0  0  0  0  0  0
    6.8950    1.2100    0.0000 C   0  0  0  0  0  0  0  0  0  0  0  0
    4.2690    0.6754    0.0000 C   0  0  0  0  0  0  0  0  0  0  0  0
    7.8010   -0.3454    0.0000 C   0  0  0  0  0  0  0  0  0  0  0  0
    7.8010    0.6962    0.0000 C   0  0  0  0  0  0  0  0  0  0  0  0
    3.4030   -0.8246    0.0000 C   0  0  0  0  0  0  0  0  0  0  0  0
    5.1350   -1.4446    0.0000 H   0  0  0  0  0  0  0  0  0  0  0  0
    6.8878    1.8300    0.0000 H   0  0  0  0  0  0  0  0  0  0  0  0
    3.7320    0.9854    0.0000 H   0  0  0  0  0  0  0  0  0  0  0  0
    8.3368    1.0083    0.0000 H   0  0  0  0  0  0  0  0  0  0  0  0
    7.4167   -2.1754    0.0000 H   0  0  0  0  0  0  0  0  0  0  0  0
    9.2033   -0.5408    0.0000 H   0  0  0  0  0  0  0  0  0  0  0  0
    2.0000   -0.6346    0.0000 H   0  0  0  0  0  0  0  0  0  0  0  0
  1  9  1  0  0  0  0
  1 21  1  0  0  0  0
  2 14  1  0  0  0  0
  2 22  1  0  0  0  0
  3 10  2  0  0  0  0
  4 16  1  0  0  0  0
  4 23  1  0  0  0  0
  5 16  2  0  0  0  0
  6  7  1  0  0  0  0
  6 11  1  0  0  0  0
  6 17  1  0  0  0  0
  7  8  2  0  0  0  0
  7  9  1  0  0  0  0
  8 10  1  0  0  0  0
  8 12  1  0  0  0  0
  9 14  2  0  0  0  0
 10 13  1  0  0  0  0
 11 13  2  0  0  0  0
 11 16  1  0  0  0  0
 12 15  2  0  0  0  0
 12 18  1  0  0  0  0
 13 19  1  0  0  0  0
 14 15  1  0  0  0  0
 15 20  1  0  0  0  0
M  END
> <PUBCHEM_COMPOUND_CID>
439403

> <PUBCHEM_COMPOUND_CANONICALIZED>
1

> <PUBCHEM_CACTVS_COMPLEXITY>
364

> <PUBCHEM_CACTVS_HBOND_ACCEPTOR>
6

> <PUBCHEM_CACTVS_HBOND_DONOR>
4

> <PUBCHEM_CACTVS_ROTATABLE_BOND>
1

> <PUBCHEM_CACTVS_SUBSKEYS>
AAADcYByOAAAAAAAAAAAAAAAAAAAAAAAAAAwQAAAAAAAAACBAAAAHgAQCAAADAyBmAAwzoLAAgCIAqTSSACCAAAlIgAIiAGHzMgLJjrSlLOEcYlmwBnZ2cea3LPOIAABAgACUABAAAIEAASgAAAAAAAAAA==

> <PUBCHEM_IUPAC_OPENEYE_NAME>
7,8-dihydroxy-4-oxo-1H-quinoline-2-carboxylic acid

> <PUBCHEM_IUPAC_CAS_NAME>
7,8-dihydroxy-4-oxo-1H-quinoline-2-carboxylic acid

> <PUBCHEM_IUPAC_NAME>
7,8-dihydroxy-4-oxo-1H-quinoline-2-carboxylic acid

> <PUBCHEM_IUPAC_SYSTEMATIC_NAME>
7,8-bis(oxidanyl)-4-oxidanylidene-1H-quinoline-2-carboxylic acid

> <PUBCHEM_IUPAC_TRADITIONAL_NAME>
7,8-dihydroxy-4-keto-1H-quinoline-2-carboxylic acid

> <PUBCHEM_IUPAC_INCHI>
InChI=1S/C10H7NO5/c12-6-2-1-4-7(13)3-5(10(15)16)11-8(4)9(6)14/h1-3,12,14H,(H,11,13)(H,15,16)

> <PUBCHEM_IUPAC_INCHIKEY>
TYPRWJJYCBNAQC-UHFFFAOYSA-N

> <PUBCHEM_XLOGP3_AA>
0.6

> <PUBCHEM_EXACT_MASS>
221.032422

> <PUBCHEM_MOLECULAR_FORMULA>
C10H7NO5

> <PUBCHEM_MOLECULAR_WEIGHT>
221.16628

> <PUBCHEM_OPENEYE_CAN_SMILES>
C1=CC(=C(C2=C1C(=O)C=C(N2)C(=O)O)O)O

> <PUBCHEM_OPENEYE_ISO_SMILES>
C1=CC(=C(C2=C1C(=O)C=C(N2)C(=O)O)O)O

> <PUBCHEM_CACTVS_TPSA>
107

> <PUBCHEM_MONOISOTOPIC_WEIGHT>
221.032422

> <PUBCHEM_TOTAL_CHARGE>
0

> <PUBCHEM_HEAVY_ATOM_COUNT>
16

> <PUBCHEM_ATOM_DEF_STEREO_COUNT>
0

> <PUBCHEM_ATOM_UDEF_STEREO_COUNT>
0

> <PUBCHEM_BOND_DEF_STEREO_COUNT>
0

> <PUBCHEM_BOND_UDEF_STEREO_COUNT>
0

> <PUBCHEM_ISOTOPIC_ATOM_COUNT>
0

> <PUBCHEM_COMPONENT_COUNT>
1

> <PUBCHEM_CACTVS_TAUTO_COUNT>
61

> <PUBCHEM_COORDINATE_TYPE>
1
5
255

> <PUBCHEM_BONDANNOTATIONS>
10  13  8
11  13  8
12  15  8
14  15  8
6  11  8
6  7  8
7  8  8
7  9  8
8  10  8
8  12  8
9  14  8

$$$$

