6864
  -OEChem-06261201323D

 19 20  0     0  0  0  0  0  0999 V2000
   -3.2981   -1.2466    0.0000 O   0  0  0  0  0  0  0  0  0  0  0  0
   -0.6429    2.6411   -0.0006 O   0  0  0  0  0  0  0  0  0  0  0  0
   -0.9490   -1.3912    0.0000 N   0  0  0  0  0  0  0  0  0  0  0  0
    0.3365   -0.8365    0.0000 C   0  0  0  0  0  0  0  0  0  0  0  0
    0.4963    0.5607    0.0003 C   0  0  0  0  0  0  0  0  0  0  0  0
   -0.7169    1.4191   -0.0001 C   0  0  0  0  0  0  0  0  0  0  0  0
    1.4750   -1.6485   -0.0003 C   0  0  0  0  0  0  0  0  0  0  0  0
    1.7694    1.1363    0.0004 C   0  0  0  0  0  0  0  0  0  0  0  0
   -2.0747   -0.6058    0.0001 C   0  0  0  0  0  0  0  0  0  0  0  0
   -2.0382    0.7346    0.0003 C   0  0  0  0  0  0  0  0  0  0  0  0
    2.7482   -1.0754   -0.0002 C   0  0  0  0  0  0  0  0  0  0  0  0
    2.8943    0.3123    0.0001 C   0  0  0  0  0  0  0  0  0  0  0  0
   -1.0592   -2.3963   -0.0006 H   0  0  0  0  0  0  0  0  0  0  0  0
    1.3796   -2.7315   -0.0005 H   0  0  0  0  0  0  0  0  0  0  0  0
    1.9027    2.2142    0.0006 H   0  0  0  0  0  0  0  0  0  0  0  0
   -2.9341    1.3437    0.0003 H   0  0  0  0  0  0  0  0  0  0  0  0
    3.6282   -1.7123   -0.0004 H   0  0  0  0  0  0  0  0  0  0  0  0
    3.8878    0.7517    0.0001 H   0  0  0  0  0  0  0  0  0  0  0  0
   -3.1063   -2.2001   -0.0002 H   0  0  0  0  0  0  0  0  0  0  0  0
  1  9  1  0  0  0  0
  1 19  1  0  0  0  0
  2  6  2  0  0  0  0
  3  4  1  0  0  0  0
  3  9  1  0  0  0  0
  3 13  1  0  0  0  0
  4  5  1  0  0  0  0
  4  7  2  0  0  0  0
  5  6  1  0  0  0  0
  5  8  2  0  0  0  0
  6 10  1  0  0  0  0
  7 11  1  0  0  0  0
  7 14  1  0  0  0  0
  8 12  1  0  0  0  0
  8 15  1  0  0  0  0
  9 10  2  0  0  0  0
 10 16  1  0  0  0  0
 11 12  2  0  0  0  0
 11 17  1  0  0  0  0
 12 18  1  0  0  0  0
M  END
> <PUBCHEM_COMPOUND_CID>
6864

> <PUBCHEM_CONFORMER_RMSD>
0.4

> <PUBCHEM_CONFORMER_DIVERSEORDER>
1

> <PUBCHEM_MMFF94_PARTIAL_CHARGES>
19
1 -0.53
10 -0.14
11 -0.15
12 -0.15
13 0.4
14 0.15
15 0.15
16 0.15
17 0.15
18 0.15
19 0.45
2 -0.57
3 -0.6
4 0.1
5 0.09
6 0.47
7 -0.15
8 -0.15
9 0.18

> <PUBCHEM_EFFECTIVE_ROTOR_COUNT>
0

> <PUBCHEM_PHARMACOPHORE_FEATURES>
6
1 1 donor
1 2 acceptor
1 3 cation
1 3 donor
6 3 4 5 6 9 10 rings
6 4 5 7 8 11 12 rings

> <PUBCHEM_HEAVY_ATOM_COUNT>
12

> <PUBCHEM_ATOM_DEF_STEREO_COUNT>
0

> <PUBCHEM_ATOM_UDEF_STEREO_COUNT>
0

> <PUBCHEM_BOND_DEF_STEREO_COUNT>
0

> <PUBCHEM_BOND_UDEF_STEREO_COUNT>
0

> <PUBCHEM_ISOTOPIC_ATOM_COUNT>
0

> <PUBCHEM_COMPONENT_COUNT>
1

> <PUBCHEM_CACTVS_TAUTO_COUNT>
12

> <PUBCHEM_CONFORMER_ID>
00001AD000000001

> <PUBCHEM_MMFF94_ENERGY>
33.8875

> <PUBCHEM_FEATURE_SELFOVERLAP>
30.51

> <PUBCHEM_SHAPE_FINGERPRINT>
10967382 1 18194682566371654022
11206711 2 18340202002779494988
12032990 46 18411130308060440755
12897270 3 18410857680768685230
13380535 76 17904489845648650533
14325111 11 18410856572735824448
161256 15 18407761417523266488
16945 1 18266458904602758470
193761 8 17978511163032218403
19973954 147 18338233902798824334
20201158 50 18342178838671124691
20871998 184 18187086199501965447
21040471 1 17978228593091937924
21501502 16 18339076111573323824
2334 1 18410856551086784741
23463225 33 18411980251938742798
23552423 10 18272366503322219606
23559900 14 17469038222041837798
241688 4 18411699910912714801
2748010 2 18410296912611236029
5084963 1 18259986015346948674
528886 8 18337676300011309778

> <PUBCHEM_SHAPE_MULTIPOLES>
230.23
4.1
2.09
0.59
0.12
0.7
0
-1.21
0
0.41
0
-0.04
0
0

> <PUBCHEM_SHAPE_SELFOVERLAP>
503.791

> <PUBCHEM_SHAPE_VOLUME>
123.7

> <PUBCHEM_COORDINATE_TYPE>
2
5
10

$$$$

