17396177
  -OEChem-06241222552D

 45 48  0     1  0  0  0  0  0999 V2000
    4.2506    1.0530    0.0000 S   0  0  0  0  0  0  0  0  0  0  0  0
    3.0779   -0.5671    0.0000 O   0  0  0  0  0  0  0  0  0  0  0  0
    4.5274    2.8077    0.0000 N   0  0  0  0  0  0  0  0  0  0  0  0
    4.4809   -1.5827    0.0000 N   0  0  0  0  0  0  0  0  0  0  0  0
    5.0274    4.3465    0.0000 N   0  0  0  0  0  0  0  0  0  0  0  0
    6.1391    2.8091    0.0000 N   0  0  0  0  0  0  0  0  0  0  0  0
    5.8311    1.8639    0.0000 N   0  0  0  0  0  0  0  0  0  0  0  0
    3.8945   -2.3927    0.0000 C   0  0  3  0  0  0  0  0  0  0  0  0
    3.7183    3.3955    0.0000 C   0  0  0  0  0  0  0  0  0  0  0  0
    4.6589    0.1402    0.0000 C   0  0  3  0  0  0  0  0  0  0  0  0
    5.3364    3.3955    0.0000 C   0  0  0  0  0  0  0  0  0  0  0  0
    4.8370    1.8630    0.0000 C   0  0  0  0  0  0  0  0  0  0  0  0
    4.0274    4.3465    0.0000 C   0  0  0  0  0  0  0  0  0  0  0  0
    4.3028   -3.3056    0.0000 C   0  0  0  0  0  0  0  0  0  0  0  0
    4.0726   -0.6699    0.0000 C   0  0  0  0  0  0  0  0  0  0  0  0
    2.8998   -2.2899    0.0000 C   0  0  0  0  0  0  0  0  0  0  0  0
    2.7029    3.1632    0.0000 C   0  0  0  0  0  0  0  0  0  0  0  0
    5.6536    0.0374    0.0000 C   0  0  0  0  0  0  0  0  0  0  0  0
    3.3424    5.1312    0.0000 C   0  0  0  0  0  0  0  0  0  0  0  0
    3.7164   -4.1156    0.0000 C   0  0  0  0  0  0  0  0  0  0  0  0
    5.2975   -3.4084    0.0000 C   0  0  0  0  0  0  0  0  0  0  0  0
    2.0000    3.9319    0.0000 C   0  0  0  0  0  0  0  0  0  0  0  0
    2.3219    4.9226    0.0000 C   0  0  0  0  0  0  0  0  0  0  0  0
    4.1247   -5.0284    0.0000 C   0  0  0  0  0  0  0  0  0  0  0  0
    5.7058   -4.3212    0.0000 C   0  0  0  0  0  0  0  0  0  0  0  0
    5.1194   -5.1312    0.0000 C   0  0  0  0  0  0  0  0  0  0  0  0
    4.5112   -2.4565    0.0000 H   0  0  0  0  0  0  0  0  0  0  0  0
    5.0225    0.6424    0.0000 H   0  0  0  0  0  0  0  0  0  0  0  0
    5.0976   -1.6464    0.0000 H   0  0  0  0  0  0  0  0  0  0  0  0
    2.9635   -1.6732    0.0000 H   0  0  0  0  0  0  0  0  0  0  0  0
    2.2831   -2.2262    0.0000 H   0  0  0  0  0  0  0  0  0  0  0  0
    2.8360   -2.9066    0.0000 H   0  0  0  0  0  0  0  0  0  0  0  0
    6.7291    2.9996    0.0000 H   0  0  0  0  0  0  0  0  0  0  0  0
    2.5182    2.5714    0.0000 H   0  0  0  0  0  0  0  0  0  0  0  0
    5.5899   -0.5793    0.0000 H   0  0  0  0  0  0  0  0  0  0  0  0
    6.2704   -0.0264    0.0000 H   0  0  0  0  0  0  0  0  0  0  0  0
    5.7174    0.6541    0.0000 H   0  0  0  0  0  0  0  0  0  0  0  0
    3.5408    5.7186    0.0000 H   0  0  0  0  0  0  0  0  0  0  0  0
    3.0997   -4.0519    0.0000 H   0  0  0  0  0  0  0  0  0  0  0  0
    5.6611   -2.9062    0.0000 H   0  0  0  0  0  0  0  0  0  0  0  0
    1.3940    3.8006    0.0000 H   0  0  0  0  0  0  0  0  0  0  0  0
    1.9088    5.3849    0.0000 H   0  0  0  0  0  0  0  0  0  0  0  0
    3.7612   -5.5307    0.0000 H   0  0  0  0  0  0  0  0  0  0  0  0
    6.3225   -4.3850    0.0000 H   0  0  0  0  0  0  0  0  0  0  0  0
    5.3726   -5.6972    0.0000 H   0  0  0  0  0  0  0  0  0  0  0  0
  1 10  1  0  0  0  0
  1 12  1  0  0  0  0
  2 15  2  0  0  0  0
  3  9  1  0  0  0  0
  3 11  1  0  0  0  0
  3 12  1  0  0  0  0
  4  8  1  0  0  0  0
  4 15  1  0  0  0  0
  4 29  1  0  0  0  0
  5 11  2  0  0  0  0
  5 13  1  0  0  0  0
  6  7  1  0  0  0  0
  6 11  1  0  0  0  0
  6 33  1  0  0  0  0
  7 12  2  0  0  0  0
  8 14  1  0  0  0  0
  8 16  1  0  0  0  0
  8 27  1  0  0  0  0
  9 13  1  0  0  0  0
  9 17  2  0  0  0  0
 10 15  1  0  0  0  0
 10 18  1  0  0  0  0
 10 28  1  0  0  0  0
 13 19  2  0  0  0  0
 14 20  2  0  0  0  0
 14 21  1  0  0  0  0
 16 30  1  0  0  0  0
 16 31  1  0  0  0  0
 16 32  1  0  0  0  0
 17 22  1  0  0  0  0
 17 34  1  0  0  0  0
 18 35  1  0  0  0  0
 18 36  1  0  0  0  0
 18 37  1  0  0  0  0
 19 23  1  0  0  0  0
 19 38  1  0  0  0  0
 20 24  1  0  0  0  0
 20 39  1  0  0  0  0
 21 25  2  0  0  0  0
 21 40  1  0  0  0  0
 22 23  2  0  0  0  0
 22 41  1  0  0  0  0
 23 42  1  0  0  0  0
 24 26  2  0  0  0  0
 24 43  1  0  0  0  0
 25 26  1  0  0  0  0
 25 44  1  0  0  0  0
 26 45  1  0  0  0  0
M  END
> <PUBCHEM_COMPOUND_CID>
17396177

> <PUBCHEM_COMPOUND_CANONICALIZED>
1

> <PUBCHEM_CACTVS_COMPLEXITY>
500

> <PUBCHEM_CACTVS_HBOND_ACCEPTOR>
4

> <PUBCHEM_CACTVS_HBOND_DONOR>
2

> <PUBCHEM_CACTVS_ROTATABLE_BOND>
5

> <PUBCHEM_CACTVS_SUBSKEYS>
AAADceB7oABAAAAAAAAAAAAAAAAAAWLAAAAwYAAAAAAWAFgB/AAAHgQYAAAADCjF3gSz0LfvGAiqAyVydACS0C/hErANuKE4dJiIaKLAmZGUIAholgLIyCcQgIAOAAAAAAAAACAAAAAAAAAAQAAAAAAAAA==

> <PUBCHEM_IUPAC_OPENEYE_NAME>
N-(1-phenylethyl)-2-(3H-[1,2,4]triazolo[4,3-a]benzimidazol-1-ylsulfanyl)propanamide

> <PUBCHEM_IUPAC_CAS_NAME>
N-(1-phenylethyl)-2-(3H-[1,2,4]triazolo[4,3-a]benzimidazol-1-ylthio)propanamide

> <PUBCHEM_IUPAC_NAME>
N-(1-phenylethyl)-2-(3H-[1,2,4]triazolo[4,3-a]benzimidazol-1-ylsulfanyl)propanamide

> <PUBCHEM_IUPAC_SYSTEMATIC_NAME>
N-(1-phenylethyl)-2-(3H-[1,2,4]triazolo[4,3-a]benzimidazol-1-ylsulfanyl)propanamide

> <PUBCHEM_IUPAC_TRADITIONAL_NAME>
N-(1-phenylethyl)-2-(3H-[1,2,4]triazolo[4,3-a]benzimidazol-1-ylthio)propionamide

> <PUBCHEM_IUPAC_INCHI>
InChI=1S/C19H19N5OS/c1-12(14-8-4-3-5-9-14)20-17(25)13(2)26-19-23-22-18-21-15-10-6-7-11-16(15)24(18)19/h3-13H,1-2H3,(H,20,25)(H,21,22)

> <PUBCHEM_IUPAC_INCHIKEY>
HGQURIAVLPZZKX-UHFFFAOYSA-N

> <PUBCHEM_XLOGP3_AA>
4.8

> <PUBCHEM_EXACT_MASS>
365.131031

> <PUBCHEM_MOLECULAR_FORMULA>
C19H19N5OS

> <PUBCHEM_MOLECULAR_WEIGHT>
365.45206

> <PUBCHEM_OPENEYE_CAN_SMILES>
CC(C1=CC=CC=C1)NC(=O)C(C)SC2=NNC3=NC4=CC=CC=C4N32

> <PUBCHEM_OPENEYE_ISO_SMILES>
CC(C1=CC=CC=C1)NC(=O)C(C)SC2=NNC3=NC4=CC=CC=C4N32

> <PUBCHEM_CACTVS_TPSA>
100

> <PUBCHEM_MONOISOTOPIC_WEIGHT>
365.131031

> <PUBCHEM_TOTAL_CHARGE>
0

> <PUBCHEM_HEAVY_ATOM_COUNT>
26

> <PUBCHEM_ATOM_DEF_STEREO_COUNT>
0

> <PUBCHEM_ATOM_UDEF_STEREO_COUNT>
2

> <PUBCHEM_BOND_DEF_STEREO_COUNT>
0

> <PUBCHEM_BOND_UDEF_STEREO_COUNT>
0

> <PUBCHEM_ISOTOPIC_ATOM_COUNT>
0

> <PUBCHEM_COMPONENT_COUNT>
1

> <PUBCHEM_CACTVS_TAUTO_COUNT>
4

> <PUBCHEM_COORDINATE_TYPE>
1
5
255

> <PUBCHEM_BONDANNOTATIONS>
10  18  3
13  19  8
14  20  8
14  21  8
17  22  8
19  23  8
20  24  8
21  25  8
22  23  8
24  26  8
25  26  8
3  11  8
3  12  8
3  9  8
5  11  8
5  13  8
6  11  8
6  7  8
7  12  8
8  16  3
9  13  8
9  17  8

$$$$

