5281944
  -OEChem-07051213012D

 55 57  0     0  0  0  0  0  0999 V2000
    7.2241    1.3103    0.0000 O   0  0  0  0  0  0  0  0  0  0  0  0
    3.7320    1.3450    0.0000 O   0  0  0  0  0  0  0  0  0  0  0  0
    5.4641    4.3450    0.0000 O   0  0  0  0  0  0  0  0  0  0  0  0
    7.2125    4.3796    0.0000 O   0  0  0  0  0  0  0  0  0  0  0  0
    5.4641    1.3450    0.0000 C   0  0  0  0  0  0  0  0  0  0  0  0
    5.4641    0.3450    0.0000 C   0  0  0  0  0  0  0  0  0  0  0  0
    6.3301    1.8450    0.0000 C   0  0  0  0  0  0  0  0  0  0  0  0
    6.3301    2.8450    0.0000 C   0  0  0  0  0  0  0  0  0  0  0  0
    4.5981   -1.1550    0.0000 C   0  0  0  0  0  0  0  0  0  0  0  0
    3.7320   -1.6550    0.0000 C   0  0  0  0  0  0  0  0  0  0  0  0
    4.5981   -0.1550    0.0000 C   0  0  0  0  0  0  0  0  0  0  0  0
    4.5981    1.8450    0.0000 C   0  0  0  0  0  0  0  0  0  0  0  0
    3.7320   -2.6550    0.0000 C   0  0  0  0  0  0  0  0  0  0  0  0
    5.4641    3.3450    0.0000 C   0  0  0  0  0  0  0  0  0  0  0  0
    4.5981    2.8450    0.0000 C   0  0  0  0  0  0  0  0  0  0  0  0
    7.2241    3.3797    0.0000 C   0  0  0  0  0  0  0  0  0  0  0  0
    8.1301    1.8242    0.0000 C   0  0  0  0  0  0  0  0  0  0  0  0
    5.4641   -1.6550    0.0000 C   0  0  0  0  0  0  0  0  0  0  0  0
    8.1301    2.8658    0.0000 C   0  0  0  0  0  0  0  0  0  0  0  0
    2.8660   -3.1550    0.0000 C   0  0  0  0  0  0  0  0  0  0  0  0
    8.9942    1.3208    0.0000 C   0  0  0  0  0  0  0  0  0  0  0  0
    2.8660   -4.1550    0.0000 C   0  0  0  0  0  0  0  0  0  0  0  0
    8.9904    0.3209    0.0000 C   0  0  0  0  0  0  0  0  0  0  0  0
    9.8622    1.8175    0.0000 C   0  0  0  0  0  0  0  0  0  0  0  0
    2.0000   -4.6550    0.0000 C   0  0  0  0  0  0  0  0  0  0  0  0
    3.7320   -4.6550    0.0000 C   0  0  0  0  0  0  0  0  0  0  0  0
    9.8545   -0.1825    0.0000 C   0  0  0  0  0  0  0  0  0  0  0  0
   10.7263    1.3142    0.0000 C   0  0  0  0  0  0  0  0  0  0  0  0
   10.7224    0.3142    0.0000 C   0  0  0  0  0  0  0  0  0  0  0  0
    5.6762   -0.2376    0.0000 H   0  0  0  0  0  0  0  0  0  0  0  0
    6.0747    0.4527    0.0000 H   0  0  0  0  0  0  0  0  0  0  0  0
    3.5200   -1.0724    0.0000 H   0  0  0  0  0  0  0  0  0  0  0  0
    3.1215   -1.7627    0.0000 H   0  0  0  0  0  0  0  0  0  0  0  0
    4.0611    0.1550    0.0000 H   0  0  0  0  0  0  0  0  0  0  0  0
    3.9441   -3.2376    0.0000 H   0  0  0  0  0  0  0  0  0  0  0  0
    4.3426   -2.5473    0.0000 H   0  0  0  0  0  0  0  0  0  0  0  0
    4.0611    3.1550    0.0000 H   0  0  0  0  0  0  0  0  0  0  0  0
    5.1541   -2.1919    0.0000 H   0  0  0  0  0  0  0  0  0  0  0  0
    6.0010   -1.9650    0.0000 H   0  0  0  0  0  0  0  0  0  0  0  0
    5.7741   -1.1181    0.0000 H   0  0  0  0  0  0  0  0  0  0  0  0
    8.6659    3.1779    0.0000 H   0  0  0  0  0  0  0  0  0  0  0  0
    2.3291   -2.8450    0.0000 H   0  0  0  0  0  0  0  0  0  0  0  0
    3.1951    1.6550    0.0000 H   0  0  0  0  0  0  0  0  0  0  0  0
    8.4522    0.0129    0.0000 H   0  0  0  0  0  0  0  0  0  0  0  0
    9.8646    2.4375    0.0000 H   0  0  0  0  0  0  0  0  0  0  0  0
    4.9272    4.6550    0.0000 H   0  0  0  0  0  0  0  0  0  0  0  0
    3.4220   -5.1919    0.0000 H   0  0  0  0  0  0  0  0  0  0  0  0
    4.2690   -4.9650    0.0000 H   0  0  0  0  0  0  0  0  0  0  0  0
    4.0420   -4.1181    0.0000 H   0  0  0  0  0  0  0  0  0  0  0  0
    1.6900   -4.1181    0.0000 H   0  0  0  0  0  0  0  0  0  0  0  0
    1.4631   -4.9650    0.0000 H   0  0  0  0  0  0  0  0  0  0  0  0
    2.3100   -5.1919    0.0000 H   0  0  0  0  0  0  0  0  0  0  0  0
    9.8521   -0.8025    0.0000 H   0  0  0  0  0  0  0  0  0  0  0  0
   11.2644    1.6221    0.0000 H   0  0  0  0  0  0  0  0  0  0  0  0
   11.2581    0.0021    0.0000 H   0  0  0  0  0  0  0  0  0  0  0  0
  1  7  1  0  0  0  0
  1 17  1  0  0  0  0
  2 12  1  0  0  0  0
  2 43  1  0  0  0  0
  3 14  1  0  0  0  0
  3 46  1  0  0  0  0
  4 16  2  0  0  0  0
  5  6  1  0  0  0  0
  5  7  1  0  0  0  0
  5 12  2  0  0  0  0
  6 11  1  0  0  0  0
  6 30  1  0  0  0  0
  6 31  1  0  0  0  0
  7  8  2  0  0  0  0
  8 14  1  0  0  0  0
  8 16  1  0  0  0  0
  9 10  1  0  0  0  0
  9 11  2  0  0  0  0
  9 18  1  0  0  0  0
 10 13  1  0  0  0  0
 10 32  1  0  0  0  0
 10 33  1  0  0  0  0
 11 34  1  0  0  0  0
 12 15  1  0  0  0  0
 13 20  1  0  0  0  0
 13 35  1  0  0  0  0
 13 36  1  0  0  0  0
 14 15  2  0  0  0  0
 15 37  1  0  0  0  0
 16 19  1  0  0  0  0
 17 19  2  0  0  0  0
 17 21  1  0  0  0  0
 18 38  1  0  0  0  0
 18 39  1  0  0  0  0
 18 40  1  0  0  0  0
 19 41  1  0  0  0  0
 20 22  2  0  0  0  0
 20 42  1  0  0  0  0
 21 23  2  0  0  0  0
 21 24  1  0  0  0  0
 22 25  1  0  0  0  0
 22 26  1  0  0  0  0
 23 27  1  0  0  0  0
 23 44  1  0  0  0  0
 24 28  2  0  0  0  0
 24 45  1  0  0  0  0
 25 50  1  0  0  0  0
 25 51  1  0  0  0  0
 25 52  1  0  0  0  0
 26 47  1  0  0  0  0
 26 48  1  0  0  0  0
 26 49  1  0  0  0  0
 27 29  2  0  0  0  0
 27 53  1  0  0  0  0
 28 29  1  0  0  0  0
 28 54  1  0  0  0  0
 29 55  1  0  0  0  0
M  END
> <PUBCHEM_COMPOUND_CID>
5281944

> <PUBCHEM_COMPOUND_CANONICALIZED>
1

> <PUBCHEM_CACTVS_COMPLEXITY>
664

> <PUBCHEM_CACTVS_HBOND_ACCEPTOR>
4

> <PUBCHEM_CACTVS_HBOND_DONOR>
2

> <PUBCHEM_CACTVS_ROTATABLE_BOND>
6

> <PUBCHEM_CACTVS_SUBSKEYS>
AAADceB4OAAAAAAAAAAAAAAAAAAAAAAAAAAwYIAAAAAAAACBQAAAGgAACAAADASAmAAyBoAABgCIAqBSAAACCAAkIAAIiAEGCMgMJzaGNRqCeWCl4BUIuQeI7OzOIAACCAAIAABAAAQQABAAAAAAAAAAAA==

> <PUBCHEM_IUPAC_OPENEYE_NAME>
8-[(2E)-3,7-dimethylocta-2,6-dienyl]-5,7-dihydroxy-2-phenyl-chromen-4-one

> <PUBCHEM_IUPAC_CAS_NAME>
8-[(2E)-3,7-dimethylocta-2,6-dienyl]-5,7-dihydroxy-2-phenyl-1-benzopyran-4-one

> <PUBCHEM_IUPAC_NAME>
8-[(2E)-3,7-dimethylocta-2,6-dienyl]-5,7-dihydroxy-2-phenylchromen-4-one

> <PUBCHEM_IUPAC_SYSTEMATIC_NAME>
8-[(2E)-3,7-dimethylocta-2,6-dienyl]-5,7-bis(oxidanyl)-2-phenyl-chromen-4-one

> <PUBCHEM_IUPAC_TRADITIONAL_NAME>
8-[(2E)-3,7-dimethylocta-2,6-dienyl]-5,7-dihydroxy-2-phenyl-chromone

> <PUBCHEM_IUPAC_INCHI>
InChI=1S/C25H26O4/c1-16(2)8-7-9-17(3)12-13-19-20(26)14-21(27)24-22(28)15-23(29-25(19)24)18-10-5-4-6-11-18/h4-6,8,10-12,14-15,26-27H,7,9,13H2,1-3H3/b17-12+

> <PUBCHEM_IUPAC_INCHIKEY>
LUWBCNVXYBOLTM-SFQUDFHCSA-N

> <PUBCHEM_XLOGP3_AA>
6.8

> <PUBCHEM_EXACT_MASS>
390.183109

> <PUBCHEM_MOLECULAR_FORMULA>
C25H26O4

> <PUBCHEM_MOLECULAR_WEIGHT>
390.47154

> <PUBCHEM_OPENEYE_CAN_SMILES>
CC(=CCCC(=CCC1=C(C=C(C2=C1OC(=CC2=O)C3=CC=CC=C3)O)O)C)C

> <PUBCHEM_OPENEYE_ISO_SMILES>
CC(=CCC/C(=C/CC1=C(C=C(C2=C1OC(=CC2=O)C3=CC=CC=C3)O)O)/C)C

> <PUBCHEM_CACTVS_TPSA>
66.8

> <PUBCHEM_MONOISOTOPIC_WEIGHT>
390.183109

> <PUBCHEM_TOTAL_CHARGE>
0

> <PUBCHEM_HEAVY_ATOM_COUNT>
29

> <PUBCHEM_ATOM_DEF_STEREO_COUNT>
0

> <PUBCHEM_ATOM_UDEF_STEREO_COUNT>
0

> <PUBCHEM_BOND_DEF_STEREO_COUNT>
1

> <PUBCHEM_BOND_UDEF_STEREO_COUNT>
0

> <PUBCHEM_ISOTOPIC_ATOM_COUNT>
0

> <PUBCHEM_COMPONENT_COUNT>
1

> <PUBCHEM_CACTVS_TAUTO_COUNT>
12

> <PUBCHEM_COORDINATE_TYPE>
1
5
255

> <PUBCHEM_BONDANNOTATIONS>
1  17  8
1  7  8
12  15  8
14  15  8
16  19  8
17  19  8
21  23  8
21  24  8
23  27  8
24  28  8
27  29  8
28  29  8
5  12  8
5  7  8
7  8  8
8  14  8
8  16  8

$$$$

