21550576
  -OEChem-07051213092D

 67 71  0     1  0  0  0  0  0999 V2000
    8.5991   -1.1121    0.0000 O   0  0  0  0  0  0  0  0  0  0  0  0
    6.0010   -0.6121    0.0000 O   0  0  0  0  0  0  0  0  0  0  0  0
    6.0010   -2.6121    0.0000 O   0  0  0  0  0  0  0  0  0  0  0  0
    7.7331   -3.6121    0.0000 O   0  0  0  0  0  0  0  0  0  0  0  0
    6.0010    0.3879    0.0000 O   0  0  0  0  0  0  0  0  0  0  0  0
    5.1350    1.8879    0.0000 O   0  0  0  0  0  0  0  0  0  0  0  0
    9.4931    0.3533    0.0000 O   0  0  0  0  0  0  0  0  0  0  0  0
    9.4651   -3.6121    0.0000 O   0  0  0  0  0  0  0  0  0  0  0  0
    4.2690   -0.6121    0.0000 O   0  0  0  0  0  0  0  0  0  0  0  0
    2.5369    0.3879    0.0000 O   0  0  0  0  0  0  0  0  0  0  0  0
    2.5369    2.3879    0.0000 O   0  0  0  0  0  0  0  0  0  0  0  0
    9.4815    3.4225    0.0000 O   0  0  0  0  0  0  0  0  0  0  0  0
   13.8555    3.9221    0.0000 O   0  0  0  0  0  0  0  0  0  0  0  0
    7.7331   -0.6121    0.0000 C   0  0  2  0  0  0  0  0  0  0  0  0
    6.8671   -1.1121    0.0000 C   0  0  1  0  0  0  0  0  0  0  0  0
    6.8671   -2.1121    0.0000 C   0  0  2  0  0  0  0  0  0  0  0  0
    7.7331   -2.6121    0.0000 C   0  0  1  0  0  0  0  0  0  0  0  0
    8.5991   -2.1121    0.0000 C   0  0  1  0  0  0  0  0  0  0  0  0
    7.7331    0.3879    0.0000 C   0  0  0  0  0  0  0  0  0  0  0  0
    9.4651   -2.6121    0.0000 C   0  0  0  0  0  0  0  0  0  0  0  0
    6.8671    0.8879    0.0000 C   0  0  0  0  0  0  0  0  0  0  0  0
    4.2690    0.3879    0.0000 C   0  0  1  0  0  0  0  0  0  0  0  0
    5.1350    0.8879    0.0000 C   0  0  1  0  0  0  0  0  0  0  0  0
    8.5991    0.8879    0.0000 C   0  0  0  0  0  0  0  0  0  0  0  0
    3.4030    0.8879    0.0000 C   0  0  2  0  0  0  0  0  0  0  0  0
    3.4030    1.8879    0.0000 C   0  0  1  0  0  0  0  0  0  0  0  0
    4.2690    2.3879    0.0000 C   0  0  0  0  0  0  0  0  0  0  0  0
    8.5991    1.8879    0.0000 C   0  0  0  0  0  0  0  0  0  0  0  0
    6.8671    1.8879    0.0000 C   0  0  0  0  0  0  0  0  0  0  0  0
    7.7331    2.3879    0.0000 C   0  0  0  0  0  0  0  0  0  0  0  0
    9.4931    2.4226    0.0000 C   0  0  0  0  0  0  0  0  0  0  0  0
   10.3991    1.9087    0.0000 C   0  0  0  0  0  0  0  0  0  0  0  0
   10.3991    0.8671    0.0000 C   0  0  0  0  0  0  0  0  0  0  0  0
   11.2632    2.4121    0.0000 C   0  0  0  0  0  0  0  0  0  0  0  0
   12.1312    1.9154    0.0000 C   0  0  0  0  0  0  0  0  0  0  0  0
   11.2594    3.4121    0.0000 C   0  0  0  0  0  0  0  0  0  0  0  0
   12.9953    2.4188    0.0000 C   0  0  0  0  0  0  0  0  0  0  0  0
   12.1235    3.9154    0.0000 C   0  0  0  0  0  0  0  0  0  0  0  0
   12.9914    3.4187    0.0000 C   0  0  0  0  0  0  0  0  0  0  0  0
    8.4692   -0.1871    0.0000 H   0  0  0  0  0  0  0  0  0  0  0  0
    6.3301   -1.4221    0.0000 H   0  0  0  0  0  0  0  0  0  0  0  0
    6.3301   -1.8021    0.0000 H   0  0  0  0  0  0  0  0  0  0  0  0
    8.2700   -2.9221    0.0000 H   0  0  0  0  0  0  0  0  0  0  0  0
    9.1360   -1.8021    0.0000 H   0  0  0  0  0  0  0  0  0  0  0  0
   10.0757   -2.7197    0.0000 H   0  0  0  0  0  0  0  0  0  0  0  0
    9.6772   -2.0295    0.0000 H   0  0  0  0  0  0  0  0  0  0  0  0
    4.8059    0.0779    0.0000 H   0  0  0  0  0  0  0  0  0  0  0  0
    5.1350    0.2679    0.0000 H   0  0  0  0  0  0  0  0  0  0  0  0
    3.4030    0.2679    0.0000 H   0  0  0  0  0  0  0  0  0  0  0  0
    3.4030    2.5079    0.0000 H   0  0  0  0  0  0  0  0  0  0  0  0
    5.4641   -0.9221    0.0000 H   0  0  0  0  0  0  0  0  0  0  0  0
    6.0010   -3.2321    0.0000 H   0  0  0  0  0  0  0  0  0  0  0  0
    7.1962   -3.9221    0.0000 H   0  0  0  0  0  0  0  0  0  0  0  0
    4.6675    2.8629    0.0000 H   0  0  0  0  0  0  0  0  0  0  0  0
    3.8705    2.8629    0.0000 H   0  0  0  0  0  0  0  0  0  0  0  0
    6.3301    2.1979    0.0000 H   0  0  0  0  0  0  0  0  0  0  0  0
    7.7331    3.0079    0.0000 H   0  0  0  0  0  0  0  0  0  0  0  0
   10.0021   -3.9221    0.0000 H   0  0  0  0  0  0  0  0  0  0  0  0
    3.7320   -0.9221    0.0000 H   0  0  0  0  0  0  0  0  0  0  0  0
    2.0000    0.6979    0.0000 H   0  0  0  0  0  0  0  0  0  0  0  0
    2.5369    3.0079    0.0000 H   0  0  0  0  0  0  0  0  0  0  0  0
   10.9349    0.5550    0.0000 H   0  0  0  0  0  0  0  0  0  0  0  0
   12.1336    1.2954    0.0000 H   0  0  0  0  0  0  0  0  0  0  0  0
   10.7212    3.7200    0.0000 H   0  0  0  0  0  0  0  0  0  0  0  0
   13.5334    2.1108    0.0000 H   0  0  0  0  0  0  0  0  0  0  0  0
   12.1211    4.5354    0.0000 H   0  0  0  0  0  0  0  0  0  0  0  0
   14.3936    3.6142    0.0000 H   0  0  0  0  0  0  0  0  0  0  0  0
  1 14  1  0  0  0  0
  1 18  1  0  0  0  0
 15  2  1  1  0  0  0
  2 51  1  0  0  0  0
 16  3  1  6  0  0  0
  3 52  1  0  0  0  0
 17  4  1  1  0  0  0
  4 53  1  0  0  0  0
  5 21  1  0  0  0  0
 23  5  1  6  0  0  0
  6 23  1  0  0  0  0
  6 27  1  0  0  0  0
  7 24  1  0  0  0  0
  7 33  1  0  0  0  0
  8 20  1  0  0  0  0
  8 58  1  0  0  0  0
 22  9  1  6  0  0  0
  9 59  1  0  0  0  0
 25 10  1  1  0  0  0
 10 60  1  0  0  0  0
 26 11  1  6  0  0  0
 11 61  1  0  0  0  0
 12 31  2  0  0  0  0
 13 39  1  0  0  0  0
 13 67  1  0  0  0  0
 14 15  1  0  0  0  0
 14 19  1  0  0  0  0
 14 40  1  1  0  0  0
 15 16  1  0  0  0  0
 15 41  1  0  0  0  0
 16 17  1  0  0  0  0
 16 42  1  0  0  0  0
 17 18  1  0  0  0  0
 17 43  1  0  0  0  0
 18 20  1  6  0  0  0
 18 44  1  0  0  0  0
 19 21  2  0  0  0  0
 19 24  1  0  0  0  0
 20 45  1  0  0  0  0
 20 46  1  0  0  0  0
 21 29  1  0  0  0  0
 22 23  1  0  0  0  0
 22 25  1  0  0  0  0
 22 47  1  0  0  0  0
 23 48  1  0  0  0  0
 24 28  2  0  0  0  0
 25 26  1  0  0  0  0
 25 49  1  0  0  0  0
 26 27  1  0  0  0  0
 26 50  1  0  0  0  0
 27 54  1  0  0  0  0
 27 55  1  0  0  0  0
 28 30  1  0  0  0  0
 28 31  1  0  0  0  0
 29 30  2  0  0  0  0
 29 56  1  0  0  0  0
 30 57  1  0  0  0  0
 31 32  1  0  0  0  0
 32 33  2  0  0  0  0
 32 34  1  0  0  0  0
 33 62  1  0  0  0  0
 34 35  2  0  0  0  0
 34 36  1  0  0  0  0
 35 37  1  0  0  0  0
 35 63  1  0  0  0  0
 36 38  2  0  0  0  0
 36 64  1  0  0  0  0
 37 39  2  0  0  0  0
 37 65  1  0  0  0  0
 38 39  1  0  0  0  0
 38 66  1  0  0  0  0
M  END
> <PUBCHEM_COMPOUND_CID>
21550576

> <PUBCHEM_COMPOUND_CANONICALIZED>
1

> <PUBCHEM_CACTVS_COMPLEXITY>
891

> <PUBCHEM_CACTVS_HBOND_ACCEPTOR>
13

> <PUBCHEM_CACTVS_HBOND_DONOR>
8

> <PUBCHEM_CACTVS_ROTATABLE_BOND>
5

> <PUBCHEM_CACTVS_SUBSKEYS>
AAADceB4PAAAAAAAAAAAAAAAAAAAAAAAAAA0aIECAAAAAACBQAAAGgAACAAADBSwmAMwDoAABgCIAqBSAAACCAAkIAAIiAEGCMgdNzaGNRqieWCl4BUPuYfI7PzOIAACCAAIAABAAAQQABAAAAAAAAAAAA==

> <PUBCHEM_IUPAC_OPENEYE_NAME>
3-(4-hydroxyphenyl)-8-[(2S,3R,4R,5S,6R)-3,4,5-trihydroxy-6-(hydroxymethyl)tetrahydropyran-2-yl]-7-[(2R,3R,4S,5R)-3,4,5-trihydroxytetrahydropyran-2-yl]oxy-chromen-4-one

> <PUBCHEM_IUPAC_CAS_NAME>
3-(4-hydroxyphenyl)-8-[(2S,3R,4R,5S,6R)-3,4,5-trihydroxy-6-(hydroxymethyl)-2-oxanyl]-7-[[(2R,3R,4S,5R)-3,4,5-trihydroxy-2-oxanyl]oxy]-1-benzopyran-4-one

> <PUBCHEM_IUPAC_NAME>
3-(4-hydroxyphenyl)-8-[(2S,3R,4R,5S,6R)-3,4,5-trihydroxy-6-(hydroxymethyl)oxan-2-yl]-7-[(2R,3R,4S,5R)-3,4,5-trihydroxyoxan-2-yl]oxychromen-4-one

> <PUBCHEM_IUPAC_SYSTEMATIC_NAME>
8-[(2S,3R,4R,5S,6R)-6-(hydroxymethyl)-3,4,5-tris(oxidanyl)oxan-2-yl]-3-(4-hydroxyphenyl)-7-[(2R,3R,4S,5R)-3,4,5-tris(oxidanyl)oxan-2-yl]oxy-chromen-4-one

> <PUBCHEM_IUPAC_TRADITIONAL_NAME>
3-(4-hydroxyphenyl)-8-[(2S,3R,4R,5S,6R)-3,4,5-trihydroxy-6-methylol-tetrahydropyran-2-yl]-7-[(2R,3R,4S,5R)-3,4,5-trihydroxytetrahydropyran-2-yl]oxy-chromone

> <PUBCHEM_IUPAC_INCHI>
InChI=1S/C26H28O13/c27-7-16-20(32)21(33)22(34)25(38-16)17-15(39-26-23(35)19(31)14(29)9-37-26)6-5-12-18(30)13(8-36-24(12)17)10-1-3-11(28)4-2-10/h1-6,8,14,16,19-23,25-29,31-35H,7,9H2/t14-,16-,19+,20-,21+,22-,23-,25+,26-/m1/s1

> <PUBCHEM_IUPAC_INCHIKEY>
NAAXIGQVODQJOV-PXYOAQHISA-N

> <PUBCHEM_XLOGP3_AA>
-1.7

> <PUBCHEM_EXACT_MASS>
548.152991

> <PUBCHEM_MOLECULAR_FORMULA>
C26H28O13

> <PUBCHEM_MOLECULAR_WEIGHT>
548.49272

> <PUBCHEM_OPENEYE_CAN_SMILES>
C1C(C(C(C(O1)OC2=C(C3=C(C=C2)C(=O)C(=CO3)C4=CC=C(C=C4)O)C5C(C(C(C(O5)CO)O)O)O)O)O)O

> <PUBCHEM_OPENEYE_ISO_SMILES>
C1[C@H]([C@@H]([C@H]([C@H](O1)OC2=C(C3=C(C=C2)C(=O)C(=CO3)C4=CC=C(C=C4)O)[C@H]5[C@@H]([C@H]([C@@H]([C@H](O5)CO)O)O)O)O)O)O

> <PUBCHEM_CACTVS_TPSA>
216

> <PUBCHEM_MONOISOTOPIC_WEIGHT>
548.152991

> <PUBCHEM_TOTAL_CHARGE>
0

> <PUBCHEM_HEAVY_ATOM_COUNT>
39

> <PUBCHEM_ATOM_DEF_STEREO_COUNT>
9

> <PUBCHEM_ATOM_UDEF_STEREO_COUNT>
0

> <PUBCHEM_BOND_DEF_STEREO_COUNT>
0

> <PUBCHEM_BOND_UDEF_STEREO_COUNT>
0

> <PUBCHEM_ISOTOPIC_ATOM_COUNT>
0

> <PUBCHEM_COMPONENT_COUNT>
1

> <PUBCHEM_CACTVS_TAUTO_COUNT>
2

> <PUBCHEM_COORDINATE_TYPE>
1
5
255

> <PUBCHEM_BONDANNOTATIONS>
25  10  5
26  11  6
14  40  5
18  20  6
19  21  8
19  24  8
15  2  5
21  29  8
24  28  8
28  30  8
28  31  8
29  30  8
16  3  6
31  32  8
32  33  8
34  35  8
34  36  8
35  37  8
36  38  8
37  39  8
38  39  8
17  4  5
23  5  6
7  24  8
7  33  8
22  9  6

$$$$

