185465
  -OEChem-07051212562D

 85 89  0     1  0  0  0  0  0999 V2000
    6.1847   -2.9697    0.0000 O   0  0  0  0  0  0  0  0  0  0  0  0
   11.5367    3.2439    0.0000 O   0  0  0  0  0  0  0  0  0  0  0  0
    3.7035   -2.7672    0.0000 O   0  0  0  0  0  0  0  0  0  0  0  0
    2.5357   -1.9528    0.0000 O   0  0  0  0  0  0  0  0  0  0  0  0
    4.9217   -3.3859    0.0000 O   0  0  0  0  0  0  0  0  0  0  0  0
    7.9288    0.0995    0.0000 C   0  0  2  0  0  0  0  0  0  0  0  0
    7.9288    1.0995    0.0000 C   0  0  1  0  0  0  0  0  0  0  0  0
    7.0628   -0.4005    0.0000 C   0  0  1  0  0  0  0  0  0  0  0  0
    8.8228    1.6342    0.0000 C   0  0  2  0  0  0  0  0  0  0  0  0
    9.7288    1.1204    0.0000 C   0  0  1  0  0  0  0  0  0  0  0  0
    8.8228   -0.4351    0.0000 C   0  0  0  0  0  0  0  0  0  0  0  0
    6.1968    0.0995    0.0000 C   0  0  0  0  0  0  0  0  0  0  0  0
    5.2868   -0.4073    0.0000 C   0  0  1  0  0  0  0  0  0  0  0  0
    5.2787   -1.4489    0.0000 C   0  0  1  0  0  0  0  0  0  0  0  0
    9.7288    0.0787    0.0000 C   0  0  0  0  0  0  0  0  0  0  0  0
    7.0789   -1.4420    0.0000 C   0  0  0  0  0  0  0  0  0  0  0  0
   10.6726    1.6556    0.0000 C   0  0  0  0  0  0  0  0  0  0  0  0
    7.0628    1.5995    0.0000 C   0  0  0  0  0  0  0  0  0  0  0  0
    8.7977    2.7189    0.0000 C   0  0  0  0  0  0  0  0  0  0  0  0
    6.1808   -1.9697    0.0000 C   0  0  1  0  0  0  0  0  0  0  0  0
    8.2709   -0.8401    0.0000 C   0  0  0  0  0  0  0  0  0  0  0  0
    6.1968    1.0995    0.0000 C   0  0  0  0  0  0  0  0  0  0  0  0
    4.3599    0.1568    0.0000 C   0  0  0  0  0  0  0  0  0  0  0  0
    7.7056   -1.1665    0.0000 C   0  0  0  0  0  0  0  0  0  0  0  0
   10.6726    2.7406    0.0000 C   0  0  2  0  0  0  0  0  0  0  0  0
    7.9529    2.1275    0.0000 C   0  0  0  0  0  0  0  0  0  0  0  0
    4.3433   -1.9986    0.0000 C   0  0  2  0  0  0  0  0  0  0  0  0
    9.7288    3.2758    0.0000 C   0  0  0  0  0  0  0  0  0  0  0  0
    3.4120   -0.3712    0.0000 C   0  0  0  0  0  0  0  0  0  0  0  0
    3.4037   -1.4561    0.0000 C   0  0  1  0  0  0  0  0  0  0  0  0
    5.2710   -2.4489    0.0000 C   0  0  0  0  0  0  0  0  0  0  0  0
   11.6726    1.6517    0.0000 C   0  0  0  0  0  0  0  0  0  0  0  0
   11.1693    0.7876    0.0000 C   0  0  0  0  0  0  0  0  0  0  0  0
    2.4121   -0.3596    0.0000 C   0  0  0  0  0  0  0  0  0  0  0  0
    2.9221    0.5006    0.0000 C   0  0  0  0  0  0  0  0  0  0  0  0
    7.9223    1.9495    0.0000 H   0  0  0  0  0  0  0  0  0  0  0  0
   10.4633    0.6925    0.0000 H   0  0  0  0  0  0  0  0  0  0  0  0
    8.4182   -0.9049    0.0000 H   0  0  0  0  0  0  0  0  0  0  0  0
    9.2164   -0.9141    0.0000 H   0  0  0  0  0  0  0  0  0  0  0  0
    5.3031    0.4425    0.0000 H   0  0  0  0  0  0  0  0  0  0  0  0
    9.9379   -0.5050    0.0000 H   0  0  0  0  0  0  0  0  0  0  0  0
   10.3397    0.1848    0.0000 H   0  0  0  0  0  0  0  0  0  0  0  0
    7.2969   -2.0224    0.0000 H   0  0  0  0  0  0  0  0  0  0  0  0
    7.6880   -1.3265    0.0000 H   0  0  0  0  0  0  0  0  0  0  0  0
    7.4613    2.0745    0.0000 H   0  0  0  0  0  0  0  0  0  0  0  0
    6.6643    2.0745    0.0000 H   0  0  0  0  0  0  0  0  0  0  0  0
    8.5752    3.2976    0.0000 H   0  0  0  0  0  0  0  0  0  0  0  0
    8.1894    2.5987    0.0000 H   0  0  0  0  0  0  0  0  0  0  0  0
    6.7195   -2.2766    0.0000 H   0  0  0  0  0  0  0  0  0  0  0  0
    7.6884   -1.0522    0.0000 H   0  0  0  0  0  0  0  0  0  0  0  0
    8.4830   -1.4227    0.0000 H   0  0  0  0  0  0  0  0  0  0  0  0
    8.8535   -0.6280    0.0000 H   0  0  0  0  0  0  0  0  0  0  0  0
    5.6598    1.4095    0.0000 H   0  0  0  0  0  0  0  0  0  0  0  0
    4.7681    0.6234    0.0000 H   0  0  0  0  0  0  0  0  0  0  0  0
    3.9700    0.6388    0.0000 H   0  0  0  0  0  0  0  0  0  0  0  0
    7.2306   -1.5650    0.0000 H   0  0  0  0  0  0  0  0  0  0  0  0
    8.1041   -1.6415    0.0000 H   0  0  0  0  0  0  0  0  0  0  0  0
    8.1805   -0.7680    0.0000 H   0  0  0  0  0  0  0  0  0  0  0  0
   11.2101    2.4316    0.0000 H   0  0  0  0  0  0  0  0  0  0  0  0
    4.7446   -2.4713    0.0000 H   0  0  0  0  0  0  0  0  0  0  0  0
    8.2588    2.6668    0.0000 H   0  0  0  0  0  0  0  0  0  0  0  0
    7.4136    2.4334    0.0000 H   0  0  0  0  0  0  0  0  0  0  0  0
    7.6471    1.5882    0.0000 H   0  0  0  0  0  0  0  0  0  0  0  0
   10.1225    3.7548    0.0000 H   0  0  0  0  0  0  0  0  0  0  0  0
    9.3242    3.7456    0.0000 H   0  0  0  0  0  0  0  0  0  0  0  0
    3.4025   -2.0761    0.0000 H   0  0  0  0  0  0  0  0  0  0  0  0
    5.7187   -2.8778    0.0000 H   0  0  0  0  0  0  0  0  0  0  0  0
    4.6613   -2.3365    0.0000 H   0  0  0  0  0  0  0  0  0  0  0  0
   11.6702    1.0317    0.0000 H   0  0  0  0  0  0  0  0  0  0  0  0
   12.2926    1.6493    0.0000 H   0  0  0  0  0  0  0  0  0  0  0  0
   11.6750    2.2717    0.0000 H   0  0  0  0  0  0  0  0  0  0  0  0
   10.6311    0.4797    0.0000 H   0  0  0  0  0  0  0  0  0  0  0  0
   11.4772    0.2495    0.0000 H   0  0  0  0  0  0  0  0  0  0  0  0
   11.7074    1.0956    0.0000 H   0  0  0  0  0  0  0  0  0  0  0  0
    6.7228   -3.2776    0.0000 H   0  0  0  0  0  0  0  0  0  0  0  0
    3.4626    0.8043    0.0000 H   0  0  0  0  0  0  0  0  0  0  0  0
    2.6183    1.0411    0.0000 H   0  0  0  0  0  0  0  0  0  0  0  0
    2.3816    0.1968    0.0000 H   0  0  0  0  0  0  0  0  0  0  0  0
    2.4193    0.2603    0.0000 H   0  0  0  0  0  0  0  0  0  0  0  0
    1.7922   -0.3524    0.0000 H   0  0  0  0  0  0  0  0  0  0  0  0
    2.4049   -0.9796    0.0000 H   0  0  0  0  0  0  0  0  0  0  0  0
   11.5343    3.8639    0.0000 H   0  0  0  0  0  0  0  0  0  0  0  0
    3.0925   -2.6619    0.0000 H   0  0  0  0  0  0  0  0  0  0  0  0
    2.0000   -1.6407    0.0000 H   0  0  0  0  0  0  0  0  0  0  0  0
    5.3166   -3.8639    0.0000 H   0  0  0  0  0  0  0  0  0  0  0  0
 20  1  1  1  0  0  0
  1 75  1  0  0  0  0
 25  2  1  6  0  0  0
  2 82  1  0  0  0  0
 27  3  1  1  0  0  0
  3 83  1  0  0  0  0
 30  4  1  6  0  0  0
  4 84  1  0  0  0  0
  5 31  1  0  0  0  0
  5 85  1  0  0  0  0
  6  7  1  0  0  0  0
  6  8  1  0  0  0  0
  6 11  1  0  0  0  0
  6 21  1  6  0  0  0
  7  9  1  0  0  0  0
  7 18  1  0  0  0  0
  7 36  1  1  0  0  0
  8 12  1  0  0  0  0
  8 16  1  0  0  0  0
  8 24  1  1  0  0  0
  9 10  1  0  0  0  0
  9 19  1  0  0  0  0
  9 26  1  6  0  0  0
 10 15  1  0  0  0  0
 10 17  1  0  0  0  0
 10 37  1  1  0  0  0
 11 15  1  0  0  0  0
 11 38  1  0  0  0  0
 11 39  1  0  0  0  0
 12 13  1  0  0  0  0
 12 22  2  0  0  0  0
 13 14  1  0  0  0  0
 13 23  1  0  0  0  0
 13 40  1  6  0  0  0
 14 20  1  0  0  0  0
 14 27  1  0  0  0  0
 14 31  1  6  0  0  0
 15 41  1  0  0  0  0
 15 42  1  0  0  0  0
 16 20  1  0  0  0  0
 16 43  1  0  0  0  0
 16 44  1  0  0  0  0
 17 25  1  0  0  0  0
 17 32  1  0  0  0  0
 17 33  1  0  0  0  0
 18 22  1  0  0  0  0
 18 45  1  0  0  0  0
 18 46  1  0  0  0  0
 19 28  1  0  0  0  0
 19 47  1  0  0  0  0
 19 48  1  0  0  0  0
 20 49  1  0  0  0  0
 21 50  1  0  0  0  0
 21 51  1  0  0  0  0
 21 52  1  0  0  0  0
 22 53  1  0  0  0  0
 23 29  1  0  0  0  0
 23 54  1  0  0  0  0
 23 55  1  0  0  0  0
 24 56  1  0  0  0  0
 24 57  1  0  0  0  0
 24 58  1  0  0  0  0
 25 28  1  0  0  0  0
 25 59  1  0  0  0  0
 26 61  1  0  0  0  0
 26 62  1  0  0  0  0
 26 63  1  0  0  0  0
 27 30  1  0  0  0  0
 27 60  1  0  0  0  0
 28 64  1  0  0  0  0
 28 65  1  0  0  0  0
 29 30  1  0  0  0  0
 29 34  1  0  0  0  0
 29 35  1  0  0  0  0
 30 66  1  0  0  0  0
 31 67  1  0  0  0  0
 31 68  1  0  0  0  0
 32 69  1  0  0  0  0
 32 70  1  0  0  0  0
 32 71  1  0  0  0  0
 33 72  1  0  0  0  0
 33 73  1  0  0  0  0
 33 74  1  0  0  0  0
 34 79  1  0  0  0  0
 34 80  1  0  0  0  0
 34 81  1  0  0  0  0
 35 76  1  0  0  0  0
 35 77  1  0  0  0  0
 35 78  1  0  0  0  0
M  END
> <PUBCHEM_COMPOUND_CID>
185465

> <PUBCHEM_COMPOUND_CANONICALIZED>
1

> <PUBCHEM_CACTVS_COMPLEXITY>
910

> <PUBCHEM_CACTVS_HBOND_ACCEPTOR>
5

> <PUBCHEM_CACTVS_HBOND_DONOR>
5

> <PUBCHEM_CACTVS_ROTATABLE_BOND>
1

> <PUBCHEM_CACTVS_SUBSKEYS>
AAADcfB4OAAAAAAAAAAAAAAAAAAAAAAAAAAwYMGCAAAAAADAAAAAGgAACAAADxSggAICAAAAAgCAAiBCAAAAAAAgAAAACAAAAAgBEAIAAQAAQAAFgAAJAAPAwPAPgAAAAAAAAADAAAYAADCAAAAAAAAAAA==

> <PUBCHEM_IUPAC_OPENEYE_NAME>
(3R,4R,4aR,5R,6aR,6aS,6bR,8aR,10S,12aR,14bS)-4a-(hydroxymethyl)-2,2,6a,6b,9,9,12a-heptamethyl-1,3,4,5,6,6a,7,8,8a,10,11,12,13,14b-tetradecahydropicene-3,4,5,10-tetrol

> <PUBCHEM_IUPAC_CAS_NAME>
(3R,4R,4aR,5R,6aR,6aS,6bR,8aR,10S,12aR,14bS)-4a-(hydroxymethyl)-2,2,6a,6b,9,9,12a-heptamethyl-1,3,4,5,6,6a,7,8,8a,10,11,12,13,14b-tetradecahydropicene-3,4,5,10-tetrol

> <PUBCHEM_IUPAC_NAME>
(3R,4R,4aR,5R,6aR,6aS,6bR,8aR,10S,12aR,14bS)-4a-(hydroxymethyl)-2,2,6a,6b,9,9,12a-heptamethyl-1,3,4,5,6,6a,7,8,8a,10,11,12,13,14b-tetradecahydropicene-3,4,5,10-tetrol

> <PUBCHEM_IUPAC_SYSTEMATIC_NAME>
(3R,4R,4aR,5R,6aR,6aS,6bR,8aR,10S,12aR,14bS)-4a-(hydroxymethyl)-2,2,6a,6b,9,9,12a-heptamethyl-1,3,4,5,6,6a,7,8,8a,10,11,12,13,14b-tetradecahydropicene-3,4,5,10-tetrol

> <PUBCHEM_IUPAC_TRADITIONAL_NAME>
(3R,4R,4aR,5R,6aR,6aS,6bR,8aR,10S,12aR,14bS)-2,2,6a,6b,9,9,12a-heptamethyl-4a-methylol-1,3,4,5,6,6a,7,8,8a,10,11,12,13,14b-tetradecahydropicene-3,4,5,10-tetrol

> <PUBCHEM_IUPAC_INCHI>
InChI=1S/C30H50O5/c1-25(2)14-18-17-8-9-20-27(5)12-11-21(32)26(3,4)19(27)10-13-28(20,6)29(17,7)15-22(33)30(18,16-31)24(35)23(25)34/h8,18-24,31-35H,9-16H2,1-7H3/t18-,19-,20+,21-,22+,23-,24-,27-,28+,29+,30-/m0/s1

> <PUBCHEM_IUPAC_INCHIKEY>
AYDKOFQQBHRXEW-AAUPIIFFSA-N

> <PUBCHEM_XLOGP3_AA>
4.6

> <PUBCHEM_EXACT_MASS>
490.365825

> <PUBCHEM_MOLECULAR_FORMULA>
C30H50O5

> <PUBCHEM_MOLECULAR_WEIGHT>
490.715

> <PUBCHEM_OPENEYE_CAN_SMILES>
CC1(CC2C3=CCC4C5(CCC(C(C5CCC4(C3(CC(C2(C(C1O)O)CO)O)C)C)(C)C)O)C)C

> <PUBCHEM_OPENEYE_ISO_SMILES>
C[C@]12CC[C@@H](C([C@@H]1CC[C@@]3([C@@H]2CC=C4[C@]3(C[C@H]([C@@]5([C@H]4CC([C@H]([C@@H]5O)O)(C)C)CO)O)C)C)(C)C)O

> <PUBCHEM_CACTVS_TPSA>
101

> <PUBCHEM_MONOISOTOPIC_WEIGHT>
490.365825

> <PUBCHEM_TOTAL_CHARGE>
0

> <PUBCHEM_HEAVY_ATOM_COUNT>
35

> <PUBCHEM_ATOM_DEF_STEREO_COUNT>
11

> <PUBCHEM_ATOM_UDEF_STEREO_COUNT>
0

> <PUBCHEM_BOND_DEF_STEREO_COUNT>
0

> <PUBCHEM_BOND_UDEF_STEREO_COUNT>
0

> <PUBCHEM_ISOTOPIC_ATOM_COUNT>
0

> <PUBCHEM_COMPONENT_COUNT>
1

> <PUBCHEM_CACTVS_TAUTO_COUNT>
1

> <PUBCHEM_COORDINATE_TYPE>
1
5
255

> <PUBCHEM_BONDANNOTATIONS>
20  1  5
10  37  5
13  40  6
14  31  6
25  2  6
27  3  5
30  4  6
6  21  6
7  36  5
8  24  5
9  26  6

$$$$

