443167
  -OEChem-07051213013D

 27 27  0     1  0  0  0  0  0999 V2000
   -2.1221    1.9635    0.1814 O   0  0  0  0  0  0  0  0  0  0  0  0
    0.8649    0.0667    0.3919 C   0  0  2  0  0  0  0  0  0  0  0  0
    0.2938   -1.3554    0.4489 C   0  0  0  0  0  0  0  0  0  0  0  0
   -2.0817   -0.4376    0.2304 C   0  0  1  0  0  0  0  0  0  0  0  0
   -1.1290   -1.3488    1.0088 C   0  0  0  0  0  0  0  0  0  0  0  0
   -0.0251    0.9867   -0.4447 C   0  0  0  0  0  0  0  0  0  0  0  0
   -1.4590    0.9357    0.0398 C   0  0  0  0  0  0  0  0  0  0  0  0
    2.2639    0.0487   -0.1419 C   0  0  0  0  0  0  0  0  0  0  0  0
   -2.4833   -1.0172   -1.1222 C   0  0  0  0  0  0  0  0  0  0  0  0
    3.3331    0.5404    0.7881 C   0  0  0  0  0  0  0  0  0  0  0  0
    2.5447   -0.3828   -1.3804 C   0  0  0  0  0  0  0  0  0  0  0  0
    0.8749    0.4570    1.4196 H   0  0  0  0  0  0  0  0  0  0  0  0
    0.9228   -1.9860    1.0903 H   0  0  0  0  0  0  0  0  0  0  0  0
    0.2867   -1.8273   -0.5409 H   0  0  0  0  0  0  0  0  0  0  0  0
   -2.9903   -0.3078    0.8319 H   0  0  0  0  0  0  0  0  0  0  0  0
   -1.5200   -2.3728    1.0327 H   0  0  0  0  0  0  0  0  0  0  0  0
   -1.0879   -1.0070    2.0515 H   0  0  0  0  0  0  0  0  0  0  0  0
   -0.0318    0.7193   -1.5072 H   0  0  0  0  0  0  0  0  0  0  0  0
    0.3286    2.0221   -0.3675 H   0  0  0  0  0  0  0  0  0  0  0  0
   -1.6234   -1.1537   -1.7856 H   0  0  0  0  0  0  0  0  0  0  0  0
   -2.9740   -1.9880   -0.9981 H   0  0  0  0  0  0  0  0  0  0  0  0
   -3.1835   -0.3482   -1.6345 H   0  0  0  0  0  0  0  0  0  0  0  0
    3.1413    1.5804    1.0720 H   0  0  0  0  0  0  0  0  0  0  0  0
    3.3578   -0.0708    1.6961 H   0  0  0  0  0  0  0  0  0  0  0  0
    4.3278    0.4984    0.3316 H   0  0  0  0  0  0  0  0  0  0  0  0
    3.5641   -0.3898   -1.7527 H   0  0  0  0  0  0  0  0  0  0  0  0
    1.7758   -0.7398   -2.0568 H   0  0  0  0  0  0  0  0  0  0  0  0
  1  7  2  0  0  0  0
  2  3  1  0  0  0  0
  2  6  1  0  0  0  0
  2  8  1  0  0  0  0
  2 12  1  0  0  0  0
  3  5  1  0  0  0  0
  3 13  1  0  0  0  0
  3 14  1  0  0  0  0
  4  5  1  0  0  0  0
  4  7  1  0  0  0  0
  4  9  1  0  0  0  0
  4 15  1  0  0  0  0
  5 16  1  0  0  0  0
  5 17  1  0  0  0  0
  6  7  1  0  0  0  0
  6 18  1  0  0  0  0
  6 19  1  0  0  0  0
  8 10  1  0  0  0  0
  8 11  2  0  0  0  0
  9 20  1  0  0  0  0
  9 21  1  0  0  0  0
  9 22  1  0  0  0  0
 10 23  1  0  0  0  0
 10 24  1  0  0  0  0
 10 25  1  0  0  0  0
 11 26  1  0  0  0  0
 11 27  1  0  0  0  0
M  END
> <PUBCHEM_COMPOUND_CID>
443167

> <PUBCHEM_CONFORMER_RMSD>
0.4

> <PUBCHEM_CONFORMER_DIVERSEORDER>
1
8
5
6
3
11
9
7
2
4
10

> <PUBCHEM_MMFF94_PARTIAL_CHARGES>
10
1 -0.57
10 0.14
11 -0.3
2 0.14
26 0.15
27 0.15
4 0.06
6 0.06
7 0.45
8 -0.28

> <PUBCHEM_EFFECTIVE_ROTOR_COUNT>
2

> <PUBCHEM_PHARMACOPHORE_FEATURES>
2
1 1 acceptor
6 2 3 4 5 6 7 rings

> <PUBCHEM_HEAVY_ATOM_COUNT>
11

> <PUBCHEM_ATOM_DEF_STEREO_COUNT>
2

> <PUBCHEM_ATOM_UDEF_STEREO_COUNT>
0

> <PUBCHEM_BOND_DEF_STEREO_COUNT>
0

> <PUBCHEM_BOND_UDEF_STEREO_COUNT>
0

> <PUBCHEM_ISOTOPIC_ATOM_COUNT>
0

> <PUBCHEM_COMPONENT_COUNT>
1

> <PUBCHEM_CACTVS_TAUTO_COUNT>
3

> <PUBCHEM_CONFORMER_ID>
0006C31F00000001

> <PUBCHEM_MMFF94_ENERGY>
16.7613

> <PUBCHEM_FEATURE_SELFOVERLAP>
10.148

> <PUBCHEM_SHAPE_FINGERPRINT>
10353120 184 18342729681348933559
11206711 2 18343024384809039989
12716758 59 18262511619146314710
12897270 3 18335707121846259183
12932764 1 18040985259351528526
13024252 1 12031793552198213811
14614273 12 18130239253770690749
15310529 11 15357689782183115522
15775835 57 18270963569440268176
16945 1 18342731884340128307
19837323 101 18411411851872296211
20645464 45 18333732429275282544
20653085 51 17968365870416251257
21040471 1 18200305653625182888
21524375 3 17906729563840969705
22802520 49 18264470953267779310
23235685 24 18131069337905059483
23402539 116 18265351541695865214
23552423 10 17916582175715275114
23559900 14 18265046024631948374
2748010 2 18127965519580149459
29004967 10 16877659063315429954
3248919 1 18060415811694581558
369184 2 16660635263153914386
5084963 1 17894908495039062682
6333449 129 18334017211055180945
8030462 33 18272087205946844414

> <PUBCHEM_SHAPE_MULTIPOLES>
220.51
4.4
1.53
1.12
2.25
0.31
-0.25
0.21
-0.4
-1
0.18
0.24
-0.27
0.08

> <PUBCHEM_SHAPE_SELFOVERLAP>
436.164

> <PUBCHEM_SHAPE_VOLUME>
131.8

> <PUBCHEM_COORDINATE_TYPE>
2
5
10

$$$$

