168951
  -OEChem-07051212512D

 83 87  0     1  0  0  0  0  0999 V2000
    2.5357   -2.1574    0.0000 O   0  0  0  0  0  0  0  0  0  0  0  0
    7.0628   -0.6051    0.0000 C   0  0  1  0  0  0  0  0  0  0  0  0
    7.9288   -0.1051    0.0000 C   0  0  1  0  0  0  0  0  0  0  0  0
    6.1968   -0.1051    0.0000 C   0  0  1  0  0  0  0  0  0  0  0  0
    7.9288    0.8949    0.0000 C   0  0  1  0  0  0  0  0  0  0  0  0
    5.2868   -0.6119    0.0000 C   0  0  2  0  0  0  0  0  0  0  0  0
    8.8228    1.4296    0.0000 C   0  0  2  0  0  0  0  0  0  0  0  0
    5.2787   -1.6535    0.0000 C   0  0  1  0  0  0  0  0  0  0  0  0
    9.7288    0.9157    0.0000 C   0  0  1  0  0  0  0  0  0  0  0  0
    7.0789   -1.6466    0.0000 C   0  0  0  0  0  0  0  0  0  0  0  0
    6.1968    0.8949    0.0000 C   0  0  0  0  0  0  0  0  0  0  0  0
    8.8228   -0.6397    0.0000 C   0  0  0  0  0  0  0  0  0  0  0  0
    7.0628    1.3949    0.0000 C   0  0  0  0  0  0  0  0  0  0  0  0
    6.1808   -2.1744    0.0000 C   0  0  0  0  0  0  0  0  0  0  0  0
    9.7288   -0.1259    0.0000 C   0  0  0  0  0  0  0  0  0  0  0  0
    4.3433   -2.2032    0.0000 C   0  0  0  0  0  0  0  0  0  0  0  0
   10.6726    1.4510    0.0000 C   0  0  0  0  0  0  0  0  0  0  0  0
    4.3599   -0.0478    0.0000 C   0  0  0  0  0  0  0  0  0  0  0  0
    8.7977    2.5143    0.0000 C   0  0  0  0  0  0  0  0  0  0  0  0
    7.7056   -1.3711    0.0000 C   0  0  0  0  0  0  0  0  0  0  0  0
    8.2709   -1.0447    0.0000 C   0  0  0  0  0  0  0  0  0  0  0  0
    5.2945    0.3880    0.0000 C   0  0  0  0  0  0  0  0  0  0  0  0
    7.9529    1.9229    0.0000 C   0  0  0  0  0  0  0  0  0  0  0  0
    3.4037   -1.6608    0.0000 C   0  0  2  0  0  0  0  0  0  0  0  0
    3.4120   -0.5758    0.0000 C   0  0  0  0  0  0  0  0  0  0  0  0
   10.6726    2.5360    0.0000 C   0  0  0  0  0  0  0  0  0  0  0  0
    9.7288    3.0712    0.0000 C   0  0  0  0  0  0  0  0  0  0  0  0
    3.8467   -3.0712    0.0000 C   0  0  0  0  0  0  0  0  0  0  0  0
    4.8466   -3.0673    0.0000 C   0  0  0  0  0  0  0  0  0  0  0  0
   11.6726    1.4471    0.0000 C   0  0  0  0  0  0  0  0  0  0  0  0
   11.1693    0.5830    0.0000 C   0  0  0  0  0  0  0  0  0  0  0  0
    6.9329    0.3199    0.0000 H   0  0  0  0  0  0  0  0  0  0  0  0
    7.9223    1.7449    0.0000 H   0  0  0  0  0  0  0  0  0  0  0  0
    5.2820   -2.5035    0.0000 H   0  0  0  0  0  0  0  0  0  0  0  0
   10.4633    0.4879    0.0000 H   0  0  0  0  0  0  0  0  0  0  0  0
    7.2969   -2.2270    0.0000 H   0  0  0  0  0  0  0  0  0  0  0  0
    7.6880   -1.5311    0.0000 H   0  0  0  0  0  0  0  0  0  0  0  0
    5.9847    1.4775    0.0000 H   0  0  0  0  0  0  0  0  0  0  0  0
    5.5862    0.7873    0.0000 H   0  0  0  0  0  0  0  0  0  0  0  0
    8.4182   -1.1095    0.0000 H   0  0  0  0  0  0  0  0  0  0  0  0
    9.2164   -1.1188    0.0000 H   0  0  0  0  0  0  0  0  0  0  0  0
    7.4613    1.8699    0.0000 H   0  0  0  0  0  0  0  0  0  0  0  0
    6.6643    1.8699    0.0000 H   0  0  0  0  0  0  0  0  0  0  0  0
    5.7835   -2.6503    0.0000 H   0  0  0  0  0  0  0  0  0  0  0  0
    6.5818   -2.6472    0.0000 H   0  0  0  0  0  0  0  0  0  0  0  0
    9.9379   -0.7096    0.0000 H   0  0  0  0  0  0  0  0  0  0  0  0
   10.3397   -0.0198    0.0000 H   0  0  0  0  0  0  0  0  0  0  0  0
    4.7681    0.4188    0.0000 H   0  0  0  0  0  0  0  0  0  0  0  0
    3.9700    0.4342    0.0000 H   0  0  0  0  0  0  0  0  0  0  0  0
    8.5752    3.0930    0.0000 H   0  0  0  0  0  0  0  0  0  0  0  0
    8.1894    2.3941    0.0000 H   0  0  0  0  0  0  0  0  0  0  0  0
    7.2306   -1.7697    0.0000 H   0  0  0  0  0  0  0  0  0  0  0  0
    8.1041   -1.8461    0.0000 H   0  0  0  0  0  0  0  0  0  0  0  0
    8.1805   -0.9726    0.0000 H   0  0  0  0  0  0  0  0  0  0  0  0
    7.6884   -1.2568    0.0000 H   0  0  0  0  0  0  0  0  0  0  0  0
    8.4830   -1.6273    0.0000 H   0  0  0  0  0  0  0  0  0  0  0  0
    8.8535   -0.8326    0.0000 H   0  0  0  0  0  0  0  0  0  0  0  0
    5.9145    0.3833    0.0000 H   0  0  0  0  0  0  0  0  0  0  0  0
    5.2993    1.0080    0.0000 H   0  0  0  0  0  0  0  0  0  0  0  0
    4.6745    0.3928    0.0000 H   0  0  0  0  0  0  0  0  0  0  0  0
    8.2588    2.4622    0.0000 H   0  0  0  0  0  0  0  0  0  0  0  0
    7.4136    2.2287    0.0000 H   0  0  0  0  0  0  0  0  0  0  0  0
    7.6471    1.3836    0.0000 H   0  0  0  0  0  0  0  0  0  0  0  0
    3.4025   -2.2808    0.0000 H   0  0  0  0  0  0  0  0  0  0  0  0
    3.2075    0.0095    0.0000 H   0  0  0  0  0  0  0  0  0  0  0  0
    2.8004   -0.6772    0.0000 H   0  0  0  0  0  0  0  0  0  0  0  0
   11.2835    2.4299    0.0000 H   0  0  0  0  0  0  0  0  0  0  0  0
   10.8817    3.1197    0.0000 H   0  0  0  0  0  0  0  0  0  0  0  0
   10.1225    3.5502    0.0000 H   0  0  0  0  0  0  0  0  0  0  0  0
    9.3242    3.5410    0.0000 H   0  0  0  0  0  0  0  0  0  0  0  0
    3.3085   -2.7633    0.0000 H   0  0  0  0  0  0  0  0  0  0  0  0
    3.5387   -3.6093    0.0000 H   0  0  0  0  0  0  0  0  0  0  0  0
    4.3848   -3.3791    0.0000 H   0  0  0  0  0  0  0  0  0  0  0  0
    4.3109   -3.3794    0.0000 H   0  0  0  0  0  0  0  0  0  0  0  0
    5.1587   -3.6031    0.0000 H   0  0  0  0  0  0  0  0  0  0  0  0
    5.3824   -2.7553    0.0000 H   0  0  0  0  0  0  0  0  0  0  0  0
   11.6702    0.8271    0.0000 H   0  0  0  0  0  0  0  0  0  0  0  0
   12.2926    1.4447    0.0000 H   0  0  0  0  0  0  0  0  0  0  0  0
   11.6750    2.0671    0.0000 H   0  0  0  0  0  0  0  0  0  0  0  0
   10.6311    0.2751    0.0000 H   0  0  0  0  0  0  0  0  0  0  0  0
   11.4772    0.0449    0.0000 H   0  0  0  0  0  0  0  0  0  0  0  0
   11.7074    0.8910    0.0000 H   0  0  0  0  0  0  0  0  0  0  0  0
    2.0000   -1.8454    0.0000 H   0  0  0  0  0  0  0  0  0  0  0  0
 24  1  1  1  0  0  0
  1 83  1  0  0  0  0
  2  3  1  0  0  0  0
  2  4  1  0  0  0  0
  2 10  1  0  0  0  0
  2 20  1  1  0  0  0
  3  5  1  0  0  0  0
  3 12  1  0  0  0  0
  3 21  1  6  0  0  0
  4  6  1  0  0  0  0
  4 11  1  0  0  0  0
  4 32  1  6  0  0  0
  5  7  1  0  0  0  0
  5 13  1  0  0  0  0
  5 33  1  1  0  0  0
  6  8  1  0  0  0  0
  6 18  1  0  0  0  0
  6 22  1  1  0  0  0
  7  9  1  0  0  0  0
  7 19  1  0  0  0  0
  7 23  1  6  0  0  0
  8 14  1  0  0  0  0
  8 16  1  0  0  0  0
  8 34  1  6  0  0  0
  9 15  1  0  0  0  0
  9 17  1  0  0  0  0
  9 35  1  1  0  0  0
 10 14  1  0  0  0  0
 10 36  1  0  0  0  0
 10 37  1  0  0  0  0
 11 13  1  0  0  0  0
 11 38  1  0  0  0  0
 11 39  1  0  0  0  0
 12 15  1  0  0  0  0
 12 40  1  0  0  0  0
 12 41  1  0  0  0  0
 13 42  1  0  0  0  0
 13 43  1  0  0  0  0
 14 44  1  0  0  0  0
 14 45  1  0  0  0  0
 15 46  1  0  0  0  0
 15 47  1  0  0  0  0
 16 24  1  0  0  0  0
 16 28  1  0  0  0  0
 16 29  1  0  0  0  0
 17 26  1  0  0  0  0
 17 30  1  0  0  0  0
 17 31  1  0  0  0  0
 18 25  1  0  0  0  0
 18 48  1  0  0  0  0
 18 49  1  0  0  0  0
 19 27  1  0  0  0  0
 19 50  1  0  0  0  0
 19 51  1  0  0  0  0
 20 52  1  0  0  0  0
 20 53  1  0  0  0  0
 20 54  1  0  0  0  0
 21 55  1  0  0  0  0
 21 56  1  0  0  0  0
 21 57  1  0  0  0  0
 22 58  1  0  0  0  0
 22 59  1  0  0  0  0
 22 60  1  0  0  0  0
 23 61  1  0  0  0  0
 23 62  1  0  0  0  0
 23 63  1  0  0  0  0
 24 25  1  0  0  0  0
 24 64  1  0  0  0  0
 25 65  1  0  0  0  0
 25 66  1  0  0  0  0
 26 27  1  0  0  0  0
 26 67  1  0  0  0  0
 26 68  1  0  0  0  0
 27 69  1  0  0  0  0
 27 70  1  0  0  0  0
 28 71  1  0  0  0  0
 28 72  1  0  0  0  0
 28 73  1  0  0  0  0
 29 74  1  0  0  0  0
 29 75  1  0  0  0  0
 29 76  1  0  0  0  0
 30 77  1  0  0  0  0
 30 78  1  0  0  0  0
 30 79  1  0  0  0  0
 31 80  1  0  0  0  0
 31 81  1  0  0  0  0
 31 82  1  0  0  0  0
M  END
> <PUBCHEM_COMPOUND_CID>
168951

> <PUBCHEM_COMPOUND_CANONICALIZED>
1

> <PUBCHEM_CACTVS_COMPLEXITY>
737

> <PUBCHEM_CACTVS_HBOND_ACCEPTOR>
1

> <PUBCHEM_CACTVS_HBOND_DONOR>
1

> <PUBCHEM_CACTVS_ROTATABLE_BOND>
0

> <PUBCHEM_CACTVS_SUBSKEYS>
AAADcfB4IAAAAAAAAAAAAAAAAAAAAAAAAAAwYMGDAAAAAADAAAAAGgAACAAADxSggAICAAAAAgAAAAAAAAAAAAAAAAAAAAAAAAAAEAIAAAAAQAAEAAAAAAGAwPAPgAAAAAAAAADAAAYAADAAAAAAAAAAAA==

> <PUBCHEM_IUPAC_OPENEYE_NAME>
(3S,4aR,6aR,6aR,6bR,8aS,12aS,14aR,14bR)-4,4,6a,6b,9,9,12a,14b-octamethyl-1,2,3,4a,5,6,6a,7,8,8a,10,11,12,13,14,14a-hexadecahydropicen-3-ol

> <PUBCHEM_IUPAC_CAS_NAME>
(3S,4aR,6aR,6aR,6bR,8aS,12aS,14aR,14bR)-4,4,6a,6b,9,9,12a,14b-octamethyl-1,2,3,4a,5,6,6a,7,8,8a,10,11,12,13,14,14a-hexadecahydropicen-3-ol

> <PUBCHEM_IUPAC_NAME>
(3S,4aR,6aR,6aR,6bR,8aS,12aS,14aR,14bR)-4,4,6a,6b,9,9,12a,14b-octamethyl-1,2,3,4a,5,6,6a,7,8,8a,10,11,12,13,14,14a-hexadecahydropicen-3-ol

> <PUBCHEM_IUPAC_SYSTEMATIC_NAME>
(3S,4aR,6aR,6aR,6bR,8aS,12aS,14aR,14bR)-4,4,6a,6b,9,9,12a,14b-octamethyl-1,2,3,4a,5,6,6a,7,8,8a,10,11,12,13,14,14a-hexadecahydropicen-3-ol

> <PUBCHEM_IUPAC_TRADITIONAL_NAME>
(3S,4aR,6aR,6aR,6bR,8aS,12aS,14aR,14bR)-4,4,6a,6b,9,9,12a,14b-octamethyl-1,2,3,4a,5,6,6a,7,8,8a,10,11,12,13,14,14a-hexadecahydropicen-3-ol

> <PUBCHEM_IUPAC_INCHI>
InChI=1S/C30H52O/c1-25(2)15-9-16-27(5)20(25)12-18-29(7)22(27)10-11-23-28(6)17-14-24(31)26(3,4)21(28)13-19-30(23,29)8/h20-24,31H,9-19H2,1-8H3/t20-,21-,22+,23+,24-,27-,28-,29+,30+/m0/s1

> <PUBCHEM_IUPAC_INCHIKEY>
BFNSRKHIVITRJP-VJBYBJRLSA-N

> <PUBCHEM_XLOGP3_AA>
10.1

> <PUBCHEM_EXACT_MASS>
428.401816

> <PUBCHEM_MOLECULAR_FORMULA>
C30H52O

> <PUBCHEM_MOLECULAR_WEIGHT>
428.73328

> <PUBCHEM_OPENEYE_CAN_SMILES>
CC1(CCCC2(C1CCC3(C2CCC4C3(CCC5C4(CCC(C5(C)C)O)C)C)C)C)C

> <PUBCHEM_OPENEYE_ISO_SMILES>
C[C@]12CCCC([C@@H]1CC[C@@]3([C@@H]2CC[C@H]4[C@]3(CC[C@@H]5[C@@]4(CC[C@@H](C5(C)C)O)C)C)C)(C)C

> <PUBCHEM_CACTVS_TPSA>
20.2

> <PUBCHEM_MONOISOTOPIC_WEIGHT>
428.401816

> <PUBCHEM_TOTAL_CHARGE>
0

> <PUBCHEM_HEAVY_ATOM_COUNT>
31

> <PUBCHEM_ATOM_DEF_STEREO_COUNT>
9

> <PUBCHEM_ATOM_UDEF_STEREO_COUNT>
0

> <PUBCHEM_BOND_DEF_STEREO_COUNT>
0

> <PUBCHEM_BOND_UDEF_STEREO_COUNT>
0

> <PUBCHEM_ISOTOPIC_ATOM_COUNT>
0

> <PUBCHEM_COMPONENT_COUNT>
1

> <PUBCHEM_CACTVS_TAUTO_COUNT>
1

> <PUBCHEM_COORDINATE_TYPE>
1
5
255

> <PUBCHEM_BONDANNOTATIONS>
24  1  5
2  20  5
3  21  6
4  32  6
5  33  5
6  22  5
7  23  6
8  34  6
9  35  5

$$$$

