179630
  -OEChem-07051213142D

 23 24  0     1  0  0  0  0  0999 V2000
    2.2788    0.6307    0.0000 O   0  0  0  0  0  0  0  0  0  0  0  0
    2.0000    2.3907    0.0000 O   0  0  0  0  0  0  0  0  0  0  0  0
    3.9538   -2.4571    0.0000 N   0  0  0  0  0  0  0  0  0  0  0  0
    3.0878    0.0429    0.0000 C   0  0  3  0  0  0  0  0  0  0  0  0
    3.8968    0.6307    0.0000 C   0  0  0  0  0  0  0  0  0  0  0  0
    3.5878    1.5817    0.0000 C   0  0  0  0  0  0  0  0  0  0  0  0
    2.5878    1.5817    0.0000 C   0  0  3  0  0  0  0  0  0  0  0  0
    3.0878   -0.9571    0.0000 C   0  0  0  0  0  0  0  0  0  0  0  0
    2.2218   -1.4571    0.0000 C   0  0  0  0  0  0  0  0  0  0  0  0
    3.9538   -1.4571    0.0000 C   0  0  0  0  0  0  0  0  0  0  0  0
    2.2218   -2.4571    0.0000 C   0  0  0  0  0  0  0  0  0  0  0  0
    3.0878   -2.9571    0.0000 C   0  0  0  0  0  0  0  0  0  0  0  0
    3.6402   -0.2386    0.0000 H   0  0  0  0  0  0  0  0  0  0  0  0
    4.2068    0.0937    0.0000 H   0  0  0  0  0  0  0  0  0  0  0  0
    4.4632    0.8828    0.0000 H   0  0  0  0  0  0  0  0  0  0  0  0
    4.1942    1.7106    0.0000 H   0  0  0  0  0  0  0  0  0  0  0  0
    3.5230    2.1983    0.0000 H   0  0  0  0  0  0  0  0  0  0  0  0
    1.9754    1.4847    0.0000 H   0  0  0  0  0  0  0  0  0  0  0  0
    1.6848   -1.1471    0.0000 H   0  0  0  0  0  0  0  0  0  0  0  0
    4.4908   -1.1471    0.0000 H   0  0  0  0  0  0  0  0  0  0  0  0
    2.2522    2.9571    0.0000 H   0  0  0  0  0  0  0  0  0  0  0  0
    1.6848   -2.7671    0.0000 H   0  0  0  0  0  0  0  0  0  0  0  0
    3.0878   -3.5771    0.0000 H   0  0  0  0  0  0  0  0  0  0  0  0
  1  4  1  0  0  0  0
  1  7  1  0  0  0  0
  2  7  1  0  0  0  0
  2 21  1  0  0  0  0
  3 10  1  0  0  0  0
  3 12  2  0  0  0  0
  4  5  1  0  0  0  0
  4  8  1  0  0  0  0
  4 13  1  0  0  0  0
  5  6  1  0  0  0  0
  5 14  1  0  0  0  0
  5 15  1  0  0  0  0
  6  7  1  0  0  0  0
  6 16  1  0  0  0  0
  6 17  1  0  0  0  0
  7 18  1  0  0  0  0
  8  9  1  0  0  0  0
  8 10  2  0  0  0  0
  9 11  2  0  0  0  0
  9 19  1  0  0  0  0
 10 20  1  0  0  0  0
 11 12  1  0  0  0  0
 11 22  1  0  0  0  0
 12 23  1  0  0  0  0
M  END
> <PUBCHEM_COMPOUND_CID>
179630

> <PUBCHEM_COMPOUND_CANONICALIZED>
1

> <PUBCHEM_CACTVS_COMPLEXITY>
152

> <PUBCHEM_CACTVS_HBOND_ACCEPTOR>
3

> <PUBCHEM_CACTVS_HBOND_DONOR>
1

> <PUBCHEM_CACTVS_ROTATABLE_BOND>
1

> <PUBCHEM_CACTVS_SUBSKEYS>
AAADccByMAAAAAAAAAAAAAAAAAAAASAAAAAsAAAAAAAAAAABgAAAHgAACAAADBTxmgc8iJIIFgCgAjBnRACCgCAxAiAI2CA4bJgYNuLAsZmGcAhmwAHM6AfQ0LIOAAAAAAAAAAAAAAAAAAAAAAAAAAAAAA==

> <PUBCHEM_IUPAC_OPENEYE_NAME>
5-(3-pyridyl)tetrahydrofuran-2-ol

> <PUBCHEM_IUPAC_CAS_NAME>
5-(3-pyridinyl)-2-oxolanol

> <PUBCHEM_IUPAC_NAME>
5-pyridin-3-yloxolan-2-ol

> <PUBCHEM_IUPAC_SYSTEMATIC_NAME>
5-pyridin-3-yloxolan-2-ol

> <PUBCHEM_IUPAC_TRADITIONAL_NAME>
5-(3-pyridyl)tetrahydrofuran-2-ol

> <PUBCHEM_IUPAC_INCHI>
InChI=1S/C9H11NO2/c11-9-4-3-8(12-9)7-2-1-5-10-6-7/h1-2,5-6,8-9,11H,3-4H2

> <PUBCHEM_IUPAC_INCHIKEY>
LHGVLZHIYVKZBT-UHFFFAOYSA-N

> <PUBCHEM_XLOGP3_AA>
0.5

> <PUBCHEM_EXACT_MASS>
165.078979

> <PUBCHEM_MOLECULAR_FORMULA>
C9H11NO2

> <PUBCHEM_MOLECULAR_WEIGHT>
165.18914

> <PUBCHEM_OPENEYE_CAN_SMILES>
C1CC(OC1C2=CN=CC=C2)O

> <PUBCHEM_OPENEYE_ISO_SMILES>
C1CC(OC1C2=CN=CC=C2)O

> <PUBCHEM_CACTVS_TPSA>
42.4

> <PUBCHEM_MONOISOTOPIC_WEIGHT>
165.078979

> <PUBCHEM_TOTAL_CHARGE>
0

> <PUBCHEM_HEAVY_ATOM_COUNT>
12

> <PUBCHEM_ATOM_DEF_STEREO_COUNT>
0

> <PUBCHEM_ATOM_UDEF_STEREO_COUNT>
2

> <PUBCHEM_BOND_DEF_STEREO_COUNT>
0

> <PUBCHEM_BOND_UDEF_STEREO_COUNT>
0

> <PUBCHEM_ISOTOPIC_ATOM_COUNT>
0

> <PUBCHEM_COMPONENT_COUNT>
1

> <PUBCHEM_CACTVS_TAUTO_COUNT>
1

> <PUBCHEM_COORDINATE_TYPE>
1
5
255

> <PUBCHEM_BONDANNOTATIONS>
11  12  8
7  2  3
3  10  8
3  12  8
4  8  3
8  10  8
8  9  8
9  11  8

$$$$

