51090905
  -OEChem-06241223003D

 44 47  0     0  0  0  0  0  0999 V2000
    4.4993    1.3367   -0.7301 S   0  0  0  0  0  0  0  0  0  0  0  0
   -2.2321   -0.0064   -1.4128 O   0  0  0  0  0  0  0  0  0  0  0  0
   -1.3654    1.1061    0.4589 N   0  0  0  0  0  0  0  0  0  0  0  0
    6.3635   -0.5941   -0.0034 N   0  0  0  0  0  0  0  0  0  0  0  0
    4.3275   -1.0818    0.6323 N   0  0  0  0  0  0  0  0  0  0  0  0
    5.1668   -2.0987    1.0413 N   0  0  0  0  0  0  0  0  0  0  0  0
   -4.6148   -1.3763   -0.6715 C   0  0  0  0  0  0  0  0  0  0  0  0
   -6.0708    0.0046    0.8488 C   0  0  0  0  0  0  0  0  0  0  0  0
   -7.3059    0.0184   -0.0033 C   0  0  0  0  0  0  0  0  0  0  0  0
   -6.8280    1.2842    0.6454 C   0  0  0  0  0  0  0  0  0  0  0  0
   -4.9110   -2.7195   -0.0717 C   0  0  0  0  0  0  0  0  0  0  0  0
   -3.4967   -2.3396   -0.3991 C   0  0  0  0  0  0  0  0  0  0  0  0
   -4.7442   -0.1591    0.1880 C   0  0  0  0  0  0  0  0  0  0  0  0
   -3.7048    0.6936    0.3272 C   0  0  0  0  0  0  0  0  0  0  0  0
   -2.3651    0.5457   -0.3283 C   0  0  0  0  0  0  0  0  0  0  0  0
    0.0221    1.1613    0.1767 C   0  0  0  0  0  0  0  0  0  0  0  0
    0.8942    1.7653    1.0824 C   0  0  0  0  0  0  0  0  0  0  0  0
    0.5158    0.6116   -1.0063 C   0  0  0  0  0  0  0  0  0  0  0  0
    2.2601    1.8198    0.8050 C   0  0  0  0  0  0  0  0  0  0  0  0
    1.8817    0.6661   -1.2838 C   0  0  0  0  0  0  0  0  0  0  0  0
    2.7537    1.2702   -0.3782 C   0  0  0  0  0  0  0  0  0  0  0  0
    5.0631   -0.1897    0.0084 C   0  0  0  0  0  0  0  0  0  0  0  0
    7.5088    0.0700   -0.5773 C   0  0  0  0  0  0  0  0  0  0  0  0
    6.3824   -1.7882    0.6513 C   0  0  0  0  0  0  0  0  0  0  0  0
   -4.8982   -1.2233   -1.7077 H   0  0  0  0  0  0  0  0  0  0  0  0
   -6.1433   -0.4615    1.8257 H   0  0  0  0  0  0  0  0  0  0  0  0
   -6.4186    2.0513   -0.0010 H   0  0  0  0  0  0  0  0  0  0  0  0
   -7.4008    1.6688    1.4809 H   0  0  0  0  0  0  0  0  0  0  0  0
   -5.3931   -3.4570   -0.7024 H   0  0  0  0  0  0  0  0  0  0  0  0
   -5.1759   -2.7930    0.9761 H   0  0  0  0  0  0  0  0  0  0  0  0
   -2.8310   -2.1872    0.4421 H   0  0  0  0  0  0  0  0  0  0  0  0
   -3.0314   -2.8272   -1.2478 H   0  0  0  0  0  0  0  0  0  0  0  0
   -7.2160   -0.0521   -1.0806 H   0  0  0  0  0  0  0  0  0  0  0  0
   -8.1987   -0.4470    0.3973 H   0  0  0  0  0  0  0  0  0  0  0  0
   -3.8213    1.5556    0.9805 H   0  0  0  0  0  0  0  0  0  0  0  0
   -1.6358    1.5279    1.3451 H   0  0  0  0  0  0  0  0  0  0  0  0
    0.5225    2.1970    2.0081 H   0  0  0  0  0  0  0  0  0  0  0  0
   -0.0940    0.1275   -1.7557 H   0  0  0  0  0  0  0  0  0  0  0  0
    2.9245    2.2939    1.5234 H   0  0  0  0  0  0  0  0  0  0  0  0
    2.2495    0.2318   -2.2104 H   0  0  0  0  0  0  0  0  0  0  0  0
    8.4035   -0.5344   -0.4064 H   0  0  0  0  0  0  0  0  0  0  0  0
    7.6256    1.0433   -0.0943 H   0  0  0  0  0  0  0  0  0  0  0  0
    7.3432    0.1850   -1.6513 H   0  0  0  0  0  0  0  0  0  0  0  0
    7.2769   -2.3730    0.8123 H   0  0  0  0  0  0  0  0  0  0  0  0
  1 21  1  0  0  0  0
  1 22  1  0  0  0  0
  2 15  2  0  0  0  0
  3 15  1  0  0  0  0
  3 16  1  0  0  0  0
  3 36  1  0  0  0  0
  4 22  1  0  0  0  0
  4 23  1  0  0  0  0
  4 24  1  0  0  0  0
  5  6  1  0  0  0  0
  5 22  2  0  0  0  0
  6 24  2  0  0  0  0
  7 11  1  0  0  0  0
  7 12  1  0  0  0  0
  7 13  1  0  0  0  0
  7 25  1  0  0  0  0
  8  9  1  0  0  0  0
  8 10  1  0  0  0  0
  8 13  1  0  0  0  0
  8 26  1  0  0  0  0
  9 10  1  0  0  0  0
  9 33  1  0  0  0  0
  9 34  1  0  0  0  0
 10 27  1  0  0  0  0
 10 28  1  0  0  0  0
 11 12  1  0  0  0  0
 11 29  1  0  0  0  0
 11 30  1  0  0  0  0
 12 31  1  0  0  0  0
 12 32  1  0  0  0  0
 13 14  2  0  0  0  0
 14 15  1  0  0  0  0
 14 35  1  0  0  0  0
 16 17  2  0  0  0  0
 16 18  1  0  0  0  0
 17 19  1  0  0  0  0
 17 37  1  0  0  0  0
 18 20  2  0  0  0  0
 18 38  1  0  0  0  0
 19 21  2  0  0  0  0
 19 39  1  0  0  0  0
 20 21  1  0  0  0  0
 20 40  1  0  0  0  0
 23 41  1  0  0  0  0
 23 42  1  0  0  0  0
 23 43  1  0  0  0  0
 24 44  1  0  0  0  0
M  END
> <PUBCHEM_COMPOUND_CID>
51090905

> <PUBCHEM_CONFORMER_RMSD>
0.8

> <PUBCHEM_CONFORMER_DIVERSEORDER>
1
54
39
21
58
94
48
9
115
24
105
89
31
75
62
45
113
96
10
88
29
66
103
14
93
100
102
64
23
101
17
5
69
15
8
80
55
109
7
47
26
33
72
27
11
52
30
44
19
67
106
86
38
34
91
76
87
25
108
36
114
116
111
18
120
56
12
63
95
68
4
78
20
112
22
32
50
81
74
117
28
84
104
77
60
49
73
46
98
59
16
90
99
53
65
119
42
3
13
41
110
70
82
83
6
37
51
118
61
40
2
57
71
35
85
92
43
97
79
107

> <PUBCHEM_MMFF94_PARTIAL_CHARGES>
41
1 -0.16
10 -0.2
11 -0.2
12 -0.2
13 -0.08
14 -0.14
15 0.62
16 0.12
17 -0.15
18 -0.15
19 -0.15
2 -0.57
20 -0.15
21 0.1
22 0.24
23 0.26
24 0.04
25 0.1
26 0.1
27 0.1
28 0.1
29 0.1
3 -0.55
30 0.1
31 0.1
32 0.1
33 0.1
34 0.1
35 0.15
36 0.37
37 0.15
38 0.15
39 0.15
4 0.05
40 0.15
44 0.15
5 -0.34
6 -0.34
7 -0.06
8 -0.06
9 -0.2

> <PUBCHEM_EFFECTIVE_ROTOR_COUNT>
8.2

> <PUBCHEM_PHARMACOPHORE_FEATURES>
6
1 2 acceptor
1 3 donor
3 4 5 22 cation
3 4 6 24 cation
5 4 5 6 22 24 rings
6 16 17 18 19 20 21 rings

> <PUBCHEM_HEAVY_ATOM_COUNT>
24

> <PUBCHEM_ATOM_DEF_STEREO_COUNT>
0

> <PUBCHEM_ATOM_UDEF_STEREO_COUNT>
0

> <PUBCHEM_BOND_DEF_STEREO_COUNT>
0

> <PUBCHEM_BOND_UDEF_STEREO_COUNT>
0

> <PUBCHEM_ISOTOPIC_ATOM_COUNT>
0

> <PUBCHEM_COMPONENT_COUNT>
1

> <PUBCHEM_CACTVS_TAUTO_COUNT>
2

> <PUBCHEM_CONFORMER_ID>
030B95D900000001

> <PUBCHEM_MMFF94_ENERGY>
63.405

> <PUBCHEM_FEATURE_SELFOVERLAP>
32.948

> <PUBCHEM_SHAPE_FINGERPRINT>
10 15 16805606945382189480
10299344 5 18342173366898347502
10319926 262 18113625556039754371
10670039 82 10159703481811467015
11315621 246 13973389203107180433
11456790 92 17749095683613509833
11524674 6 17385725790367565647
11719270 70 17676202485363745182
11796584 16 18334850593698326174
11991303 11 13829839193455932113
12107183 9 18408317805194096609
12236239 1 18272646823359188893
12592606 108 18334297556951566575
12596602 18 17822293440411570194
13533116 47 18342457032989237840
13540713 5 16373001810696276420
13668630 136 16702017544435472793
13685833 64 17989204867427317664
14123256 10 12319734765097080844
14251751 18 18412547600076039798
14251752 14 18342739637304899125
14251764 18 18335137596239956780
14420673 8 18409446990603363851
15021287 119 17703781544667624989
15183329 4 18201444661804147131
15301273 46 16805316717604916956
15348495 7 17386294185674730107
15352257 5 18272651229410176186
15461852 350 15285363894887618125
17857418 61 18410292505943252126
20567600 247 18272656731785404922
21033648 29 15574702621735901897
21150785 3 14620790496794574812
21315763 191 18341611478018152415
220451 1 18341605988723062885
22224240 67 15357701902823587244
23516275 137 18197476610250127666
23522609 53 18195496299624822837
23559900 14 18262524672095805321
23845131 108 5590748247810369278
3004659 81 18413671297054919712
312425 54 18408608032796925713
33382 64 18272934951245217008
335352 9 18335422366189650797
34797466 226 15123500398573806638
4072396 5 17458062677174911396
4073 2 18197496216790955888
4098825 35 18060700610707552068
46194498 28 16702299040844828822
465052 167 18259702290361249972
5085150 59 17386010546852674095
5104073 3 17750230318808715705
559249 180 18407760318623698439
999808 66 17846486008064654723

> <PUBCHEM_SHAPE_MULTIPOLES>
471.96
21.12
2.26
1.07
2.84
1.31
0.09
7.13
-2.31
-0.23
-0.38
0.37
-0.09
-1.67

> <PUBCHEM_SHAPE_SELFOVERLAP>
990.036

> <PUBCHEM_SHAPE_VOLUME>
268.2

> <PUBCHEM_COORDINATE_TYPE>
2
5
10

$$$$

