442767
  -OEChem-07051212593D

 37 39  0     0  0  0  0  0  0999 V2000
   -2.5314    2.6735   -0.0009 O   0  0  0  0  0  0  0  0  0  0  0  0
   -2.4101   -2.8463    0.0004 O   0  0  0  0  0  0  0  0  0  0  0  0
    0.0128    2.6386    0.0000 O   0  0  0  0  0  0  0  0  0  0  0  0
    0.1528   -2.7031    0.0020 O   0  0  0  0  0  0  0  0  0  0  0  0
    2.5686    2.7790    0.0021 O   0  0  0  0  0  0  0  0  0  0  0  0
    4.9679   -1.3052   -0.0022 O   0  0  0  0  0  0  0  0  0  0  0  0
   -1.2208    0.6385    0.0010 C   0  0  0  0  0  0  0  0  0  0  0  0
   -1.1912   -0.7576    0.0012 C   0  0  0  0  0  0  0  0  0  0  0  0
    1.3247    0.6925    0.0012 C   0  0  0  0  0  0  0  0  0  0  0  0
    1.3543   -0.7037    0.0012 C   0  0  0  0  0  0  0  0  0  0  0  0
   -3.6407    0.5857   -0.0011 C   0  0  0  0  0  0  0  0  0  0  0  0
   -3.6112   -0.8075   -0.0011 C   0  0  0  0  0  0  0  0  0  0  0  0
   -2.4488    1.3108    0.0000 C   0  0  0  0  0  0  0  0  0  0  0  0
   -2.3896   -1.4814    0.0003 C   0  0  0  0  0  0  0  0  0  0  0  0
    0.0360    1.4146    0.0009 C   0  0  0  0  0  0  0  0  0  0  0  0
    0.0975   -1.4797    0.0021 C   0  0  0  0  0  0  0  0  0  0  0  0
    2.5232    1.4162    0.0005 C   0  0  0  0  0  0  0  0  0  0  0  0
    2.5822   -1.3761    0.0004 C   0  0  0  0  0  0  0  0  0  0  0  0
   -4.9521    1.3068   -0.0016 C   0  0  0  0  0  0  0  0  0  0  0  0
   -4.8907   -1.5839   -0.0019 C   0  0  0  0  0  0  0  0  0  0  0  0
    3.7742   -0.6509   -0.0007 C   0  0  0  0  0  0  0  0  0  0  0  0
    3.7448    0.7422   -0.0006 C   0  0  0  0  0  0  0  0  0  0  0  0
    6.1478   -0.5031   -0.0032 C   0  0  0  0  0  0  0  0  0  0  0  0
    2.6278   -2.4623    0.0004 H   0  0  0  0  0  0  0  0  0  0  0  0
   -4.8524    2.3828   -0.1757 H   0  0  0  0  0  0  0  0  0  0  0  0
   -5.5997    0.9377   -0.8046 H   0  0  0  0  0  0  0  0  0  0  0  0
   -5.4543    1.1840    0.9638 H   0  0  0  0  0  0  0  0  0  0  0  0
   -5.1200   -1.9295   -1.0152 H   0  0  0  0  0  0  0  0  0  0  0  0
   -4.8295   -2.4496    0.6676 H   0  0  0  0  0  0  0  0  0  0  0  0
   -5.7499   -1.0175    0.3666 H   0  0  0  0  0  0  0  0  0  0  0  0
    4.6450    1.3479   -0.0011 H   0  0  0  0  0  0  0  0  0  0  0  0
   -1.6517    3.0776    0.0091 H   0  0  0  0  0  0  0  0  0  0  0  0
   -3.2189   -3.1761   -0.4225 H   0  0  0  0  0  0  0  0  0  0  0  0
    3.4930    3.0801    0.0014 H   0  0  0  0  0  0  0  0  0  0  0  0
    7.0027   -1.1873   -0.0042 H   0  0  0  0  0  0  0  0  0  0  0  0
    6.2252    0.1014    0.9070 H   0  0  0  0  0  0  0  0  0  0  0  0
    6.2233    0.1018   -0.9132 H   0  0  0  0  0  0  0  0  0  0  0  0
  1 13  1  0  0  0  0
  1 32  1  0  0  0  0
  2 14  1  0  0  0  0
  2 33  1  0  0  0  0
  3 15  2  0  0  0  0
  4 16  2  0  0  0  0
  5 17  1  0  0  0  0
  5 34  1  0  0  0  0
  6 21  1  0  0  0  0
  6 23  1  0  0  0  0
  7  8  1  0  0  0  0
  7 13  2  0  0  0  0
  7 15  1  0  0  0  0
  8 14  2  0  0  0  0
  8 16  1  0  0  0  0
  9 10  2  0  0  0  0
  9 15  1  0  0  0  0
  9 17  1  0  0  0  0
 10 16  1  0  0  0  0
 10 18  1  0  0  0  0
 11 12  2  0  0  0  0
 11 13  1  0  0  0  0
 11 19  1  0  0  0  0
 12 14  1  0  0  0  0
 12 20  1  0  0  0  0
 17 22  2  0  0  0  0
 18 21  2  0  0  0  0
 18 24  1  0  0  0  0
 19 25  1  0  0  0  0
 19 26  1  0  0  0  0
 19 27  1  0  0  0  0
 20 28  1  0  0  0  0
 20 29  1  0  0  0  0
 20 30  1  0  0  0  0
 21 22  1  0  0  0  0
 22 31  1  0  0  0  0
 23 35  1  0  0  0  0
 23 36  1  0  0  0  0
 23 37  1  0  0  0  0
M  END
> <PUBCHEM_COMPOUND_CID>
442767

> <PUBCHEM_CONFORMER_RMSD>
0.6

> <PUBCHEM_CONFORMER_DIVERSEORDER>
1

> <PUBCHEM_MMFF94_PARTIAL_CHARGES>
28
1 -0.53
10 0.09
11 -0.14
12 -0.14
13 0.08
14 0.08
15 0.4
16 0.4
17 0.08
18 -0.15
19 0.14
2 -0.53
20 0.14
21 0.08
22 -0.15
23 0.28
24 0.15
3 -0.57
31 0.15
32 0.45
33 0.45
34 0.45
4 -0.57
5 -0.53
6 -0.36
7 0.09
8 0.09
9 0.09

> <PUBCHEM_EFFECTIVE_ROTOR_COUNT>
1

> <PUBCHEM_PHARMACOPHORE_FEATURES>
9
1 1 donor
1 2 donor
1 3 acceptor
1 4 acceptor
1 5 donor
1 6 acceptor
6 7 8 11 12 13 14 rings
6 7 8 9 10 15 16 rings
6 9 10 17 18 21 22 rings

> <PUBCHEM_HEAVY_ATOM_COUNT>
23

> <PUBCHEM_ATOM_DEF_STEREO_COUNT>
0

> <PUBCHEM_ATOM_UDEF_STEREO_COUNT>
0

> <PUBCHEM_BOND_DEF_STEREO_COUNT>
0

> <PUBCHEM_BOND_UDEF_STEREO_COUNT>
0

> <PUBCHEM_ISOTOPIC_ATOM_COUNT>
0

> <PUBCHEM_COMPONENT_COUNT>
1

> <PUBCHEM_CACTVS_TAUTO_COUNT>
261

> <PUBCHEM_CONFORMER_ID>
0006C18F00000001

> <PUBCHEM_MMFF94_ENERGY>
89.2111

> <PUBCHEM_FEATURE_SELFOVERLAP>
45.711

> <PUBCHEM_SHAPE_FINGERPRINT>
10411042 1 18050285860908576043
10493431 412 18046618173638398161
10616163 171 18410009935913645191
10967382 1 18338517563676518275
1100329 8 18410291406389504513
11578080 2 16879927222696820490
12011746 2 18339082686930916445
12236239 1 17846497050140611766
12403259 226 18409735023610182481
12403260 363 18410014320853299069
12838862 33 18267323069424642121
13140716 1 18410570660910158833
13288520 33 18409165541269453678
138480 1 17401769022047510787
13862211 1 18410578379019624150
14790565 3 18266168624965067032
15042514 8 18339358540175978571
15099037 51 18410575110459308590
15196674 1 18410573963692523365
15442244 35 18410856538418225640
15536298 74 18335139756898455608
16945 1 18266741474722309057
17492 89 18195528082361363322
17804303 29 18409446981448718885
1813 80 17418380181895367876
19591789 44 18410856546770731435
200 152 18040437689359418059
20028762 73 18187087200393804999
20775438 99 16527832710368972303
21236236 1 18408886256277683947
21267235 1 18411130312534756139
21279426 13 18193837282516843078
221490 88 18268986497373084978
2334 1 18338516326699595745
23366157 5 17986957358618705772
23402539 116 18334582351441962510
23557571 272 18259979397045107518
23559900 14 18335425638670218480
2748010 2 18410575054614177685
3004659 81 18272646905528174030
335352 9 18410856585842363797
34934 24 18268152131425249579
350125 39 18411416211180056140
4214541 1 18410575088984439461
5104073 3 18410011009502216449
6138700 20 18339358699379769374
9709674 26 18268146461525061019
9981440 41 17334212330513685888

> <PUBCHEM_SHAPE_MULTIPOLES>
438.11
10.13
2.86
0.59
5.22
0.4
0
-1.58
-0.01
-1.06
0
-0.01
-0.01
0

> <PUBCHEM_SHAPE_SELFOVERLAP>
986.45

> <PUBCHEM_SHAPE_VOLUME>
231.2

> <PUBCHEM_COORDINATE_TYPE>
2
5
10

$$$$

