19236
  -OEChem-07051212452D

 32 34  0     1  0  0  0  0  0999 V2000
    3.3100    0.2577    0.0000 P   0  0  3  0  0  0  0  0  0  0  0  0
    5.9883   -1.0471    0.0000 O   0  0  0  0  0  0  0  0  0  0  0  0
    4.1760    0.7577    0.0000 O   0  0  0  0  0  0  0  0  0  0  0  0
    3.3100   -0.7423    0.0000 O   0  0  0  0  0  0  0  0  0  0  0  0
    6.2989    1.5129    0.0000 O   0  0  0  0  0  0  0  0  0  0  0  0
    2.3100    0.2577    0.0000 O   0  0  0  0  0  0  0  0  0  0  0  0
    2.8100    1.1237    0.0000 O   0  0  0  0  0  0  0  0  0  0  0  0
    7.5719   -1.9744    0.0000 O   0  0  0  0  0  0  0  0  0  0  0  0
    7.5719   -0.2423    0.0000 N   0  0  0  0  0  0  0  0  0  0  0  0
    9.0719   -1.1084    0.0000 N   0  0  0  0  0  0  0  0  0  0  0  0
   10.5719   -0.2423    0.0000 N   0  0  0  0  0  0  0  0  0  0  0  0
    5.0420    0.2577    0.0000 C   0  0  2  0  0  0  0  0  0  0  0  0
    5.0420   -0.7423    0.0000 C   0  0  1  0  0  0  0  0  0  0  0  0
    5.9883    0.5624    0.0000 C   0  0  2  0  0  0  0  0  0  0  0  0
    6.5719   -0.2423    0.0000 C   0  0  1  0  0  0  0  0  0  0  0  0
    4.1760   -1.2423    0.0000 C   0  0  0  0  0  0  0  0  0  0  0  0
    8.0719    0.6237    0.0000 C   0  0  0  0  0  0  0  0  0  0  0  0
    8.0719   -1.1084    0.0000 C   0  0  0  0  0  0  0  0  0  0  0  0
    9.0719    0.6237    0.0000 C   0  0  0  0  0  0  0  0  0  0  0  0
    9.5719   -0.2423    0.0000 C   0  0  0  0  0  0  0  0  0  0  0  0
    5.1320    1.1029    0.0000 H   0  0  0  0  0  0  0  0  0  0  0  0
    5.1320   -1.5876    0.0000 H   0  0  0  0  0  0  0  0  0  0  0  0
    6.6008    0.6586    0.0000 H   0  0  0  0  0  0  0  0  0  0  0  0
    6.8536   -0.7946    0.0000 H   0  0  0  0  0  0  0  0  0  0  0  0
    3.7775   -1.7173    0.0000 H   0  0  0  0  0  0  0  0  0  0  0  0
    4.5746   -1.7173    0.0000 H   0  0  0  0  0  0  0  0  0  0  0  0
    5.8849    1.9744    0.0000 H   0  0  0  0  0  0  0  0  0  0  0  0
    7.7619    1.1606    0.0000 H   0  0  0  0  0  0  0  0  0  0  0  0
    2.0000   -0.2793    0.0000 H   0  0  0  0  0  0  0  0  0  0  0  0
    9.3819    1.1606    0.0000 H   0  0  0  0  0  0  0  0  0  0  0  0
   10.8819    0.2946    0.0000 H   0  0  0  0  0  0  0  0  0  0  0  0
   10.8819   -0.7793    0.0000 H   0  0  0  0  0  0  0  0  0  0  0  0
  1  3  1  0  0  0  0
  1  4  1  0  0  0  0
  1  6  1  0  0  0  0
  1  7  2  0  0  0  0
  2 13  1  0  0  0  0
  2 15  1  0  0  0  0
  3 12  1  0  0  0  0
  4 16  1  0  0  0  0
 14  5  1  1  0  0  0
  5 27  1  0  0  0  0
  6 29  1  0  0  0  0
  8 18  2  0  0  0  0
 15  9  1  6  0  0  0
  9 17  1  0  0  0  0
  9 18  1  0  0  0  0
 10 18  1  0  0  0  0
 10 20  2  0  0  0  0
 11 20  1  0  0  0  0
 11 31  1  0  0  0  0
 11 32  1  0  0  0  0
 12 13  1  0  0  0  0
 12 14  1  0  0  0  0
 12 21  1  6  0  0  0
 13 16  1  0  0  0  0
 13 22  1  1  0  0  0
 14 15  1  0  0  0  0
 14 23  1  0  0  0  0
 15 24  1  0  0  0  0
 16 25  1  0  0  0  0
 16 26  1  0  0  0  0
 17 19  2  0  0  0  0
 17 28  1  0  0  0  0
 19 20  1  0  0  0  0
 19 30  1  0  0  0  0
M  END
> <PUBCHEM_COMPOUND_CID>
19236

> <PUBCHEM_COMPOUND_CANONICALIZED>
1

> <PUBCHEM_CACTVS_COMPLEXITY>
550

> <PUBCHEM_CACTVS_HBOND_ACCEPTOR>
7

> <PUBCHEM_CACTVS_HBOND_DONOR>
3

> <PUBCHEM_CACTVS_ROTATABLE_BOND>
1

> <PUBCHEM_CACTVS_SUBSKEYS>
AAADccBzOAIAAAAAAAAAAAAAAAAAASAAAAAkQAAAAAAAAEgAAAAAHgAQCCAACBThgAYBAANABxCoQCJmdICAAAEAAgAIAAAYABCDEAIAgAAOQAAHFgITAADwMAIAAAAAAAAAAAAAAAAAAAAAAAAAAAAAAA==

> <PUBCHEM_IUPAC_OPENEYE_NAME>
1-[(4aR,6R,7R,7aS)-2,7-dihydroxy-2-oxo-4a,6,7,7a-tetrahydro-4H-furo[3,2-d][1,3,2]dioxaphosphinin-6-yl]-4-amino-pyrimidin-2-one

> <PUBCHEM_IUPAC_CAS_NAME>
1-[(4aR,6R,7R,7aS)-2,7-dihydroxy-2-oxo-4a,6,7,7a-tetrahydro-4H-furo[3,2-d][1,3,2]dioxaphosphorin-6-yl]-4-amino-2-pyrimidinone

> <PUBCHEM_IUPAC_NAME>
1-[(4aR,6R,7R,7aS)-2,7-dihydroxy-2-oxo-4a,6,7,7a-tetrahydro-4H-furo[3,2-d][1,3,2]dioxaphosphinin-6-yl]-4-aminopyrimidin-2-one

> <PUBCHEM_IUPAC_SYSTEMATIC_NAME>
1-[(4aR,6R,7R,7aS)-2,7-bis(oxidanyl)-2-oxidanylidene-4a,6,7,7a-tetrahydro-4H-furo[3,2-d][1,3,2]dioxaphosphinin-6-yl]-4-azanyl-pyrimidin-2-one

> <PUBCHEM_IUPAC_TRADITIONAL_NAME>
1-[(4aR,6R,7R,7aS)-2,7-dihydroxy-2-keto-4a,6,7,7a-tetrahydro-4H-furo[3,2-d][1,3,2]dioxaphosphorin-6-yl]-4-amino-pyrimidin-2-one

> <PUBCHEM_IUPAC_INCHI>
InChI=1S/C9H12N3O7P/c10-5-1-2-12(9(14)11-5)8-6(13)7-4(18-8)3-17-20(15,16)19-7/h1-2,4,6-8,13H,3H2,(H,15,16)(H2,10,11,14)/t4-,6-,7-,8-/m1/s1

> <PUBCHEM_IUPAC_INCHIKEY>
WCPTXJJVVDAEMW-XVFCMESISA-N

> <PUBCHEM_XLOGP3_AA>
-3.3

> <PUBCHEM_EXACT_MASS>
305.041286

> <PUBCHEM_MOLECULAR_FORMULA>
C9H12N3O7P

> <PUBCHEM_MOLECULAR_WEIGHT>
305.181242

> <PUBCHEM_OPENEYE_CAN_SMILES>
C1C2C(C(C(O2)N3C=CC(=NC3=O)N)O)OP(=O)(O1)O

> <PUBCHEM_OPENEYE_ISO_SMILES>
C1[C@@H]2[C@H]([C@H]([C@@H](O2)N3C=CC(=NC3=O)N)O)OP(=O)(O1)O

> <PUBCHEM_CACTVS_TPSA>
144

> <PUBCHEM_MONOISOTOPIC_WEIGHT>
305.041286

> <PUBCHEM_TOTAL_CHARGE>
0

> <PUBCHEM_HEAVY_ATOM_COUNT>
20

> <PUBCHEM_ATOM_DEF_STEREO_COUNT>
4

> <PUBCHEM_ATOM_UDEF_STEREO_COUNT>
0

> <PUBCHEM_BOND_DEF_STEREO_COUNT>
0

> <PUBCHEM_BOND_UDEF_STEREO_COUNT>
0

> <PUBCHEM_ISOTOPIC_ATOM_COUNT>
0

> <PUBCHEM_COMPONENT_COUNT>
1

> <PUBCHEM_CACTVS_TAUTO_COUNT>
3

> <PUBCHEM_COORDINATE_TYPE>
1
5
255

> <PUBCHEM_BONDANNOTATIONS>
10  18  8
10  20  8
12  21  6
13  22  5
17  19  8
19  20  8
14  5  5
15  9  6
9  17  8
9  18  8

$$$$

