48
  -OEChem-07051212453D

 17 16  0     0  0  0  0  0  0999 V2000
    1.2898   -1.6499   -0.0024 O   0  0  0  0  0  0  0  0  0  0  0  0
   -2.7844    1.3631    0.0078 O   0  0  0  0  0  0  0  0  0  0  0  0
    3.4882   -0.4120   -0.0111 O   0  0  0  0  0  0  0  0  0  0  0  0
    2.3901    1.6027   -0.0247 O   0  0  0  0  0  0  0  0  0  0  0  0
   -3.7647   -0.7158   -0.0246 N   0  0  0  0  0  0  0  0  0  0  0  0
   -0.1494    0.3227    0.0307 C   0  0  0  0  0  0  0  0  0  0  0  0
   -1.3608   -0.6047    0.0076 C   0  0  0  0  0  0  0  0  0  0  0  0
    1.1597   -0.4350    0.0121 C   0  0  0  0  0  0  0  0  0  0  0  0
   -2.6838    0.1398   -0.0039 C   0  0  0  0  0  0  0  0  0  0  0  0
    2.4155    0.3891    0.0085 C   0  0  0  0  0  0  0  0  0  0  0  0
   -0.1749    0.9838   -0.8432 H   0  0  0  0  0  0  0  0  0  0  0  0
   -0.1749    0.9435    0.9334 H   0  0  0  0  0  0  0  0  0  0  0  0
   -1.3225   -1.2470   -0.8810 H   0  0  0  0  0  0  0  0  0  0  0  0
   -1.3440   -1.2622    0.8857 H   0  0  0  0  0  0  0  0  0  0  0  0
   -3.6579   -1.7252   -0.0329 H   0  0  0  0  0  0  0  0  0  0  0  0
   -4.7139   -0.3573   -0.0331 H   0  0  0  0  0  0  0  0  0  0  0  0
    4.3288    0.0927   -0.0386 H   0  0  0  0  0  0  0  0  0  0  0  0
  1  8  2  0  0  0  0
  2  9  2  0  0  0  0
  3 10  1  0  0  0  0
  3 17  1  0  0  0  0
  4 10  2  0  0  0  0
  5  9  1  0  0  0  0
  5 15  1  0  0  0  0
  5 16  1  0  0  0  0
  6  7  1  0  0  0  0
  6  8  1  0  0  0  0
  6 11  1  0  0  0  0
  6 12  1  0  0  0  0
  7  9  1  0  0  0  0
  7 13  1  0  0  0  0
  7 14  1  0  0  0  0
  8 10  1  0  0  0  0
M  END
> <PUBCHEM_COMPOUND_CID>
48

> <PUBCHEM_CONFORMER_RMSD>
0.6

> <PUBCHEM_CONFORMER_DIVERSEORDER>
1
23
21
29
14
4
17
6
3
32
31
7
26
10
2
27
8
30
28
22
9
12
5
15
24
20
13
18
16
19
11
25

> <PUBCHEM_MMFF94_PARTIAL_CHARGES>
13
1 -0.57
10 0.72
15 0.37
16 0.37
17 0.5
2 -0.57
3 -0.65
4 -0.57
5 -0.8
6 0.06
7 0.06
8 0.51
9 0.57

> <PUBCHEM_EFFECTIVE_ROTOR_COUNT>
4

> <PUBCHEM_PHARMACOPHORE_FEATURES>
6
1 1 acceptor
1 2 acceptor
1 3 acceptor
1 4 acceptor
1 5 donor
3 3 4 10 anion

> <PUBCHEM_HEAVY_ATOM_COUNT>
10

> <PUBCHEM_ATOM_DEF_STEREO_COUNT>
0

> <PUBCHEM_ATOM_UDEF_STEREO_COUNT>
0

> <PUBCHEM_BOND_DEF_STEREO_COUNT>
0

> <PUBCHEM_BOND_UDEF_STEREO_COUNT>
0

> <PUBCHEM_ISOTOPIC_ATOM_COUNT>
0

> <PUBCHEM_COMPONENT_COUNT>
1

> <PUBCHEM_CACTVS_TAUTO_COUNT>
4

> <PUBCHEM_CONFORMER_ID>
0000003000000001

> <PUBCHEM_MMFF94_ENERGY>
13.3095

> <PUBCHEM_FEATURE_SELFOVERLAP>
30.516

> <PUBCHEM_SHAPE_FINGERPRINT>
10219947 1 16630525133222464742
11062470 55 11600009846823091207
12162725 195 18412262835164910273
12897270 3 18409729560321630401
12932764 1 17632299024874205267
14325111 11 18410573972271856489
14390081 3 18410293605602579473
170605 34 18413389813145383082
19973954 147 18337952410637307501
20201158 50 18413388752235758955
20645477 70 18337678641227857431
23552423 10 18339079423046181379
3248919 1 18335431213405457931

> <PUBCHEM_SHAPE_MULTIPOLES>
177.34
5.96
1.31
0.57
1.76
0.12
0
0.36
0.05
-0.27
0.01
0.01
0
-0.01

> <PUBCHEM_SHAPE_SELFOVERLAP>
343.032

> <PUBCHEM_SHAPE_VOLUME>
106.2

> <PUBCHEM_COORDINATE_TYPE>
2
5
10

$$$$

