149755
  -OEChem-07051213123D

 76 80  0     1  0  0  0  0  0999 V2000
   -2.0383    0.4652    0.3935 O   0  0  0  0  0  0  0  0  0  0  0  0
   -2.4127   -1.6817   -1.4189 O   0  0  0  0  0  0  0  0  0  0  0  0
   -4.2672    0.4673    1.2052 O   0  0  0  0  0  0  0  0  0  0  0  0
   -6.0635    2.5734    0.3930 O   0  0  0  0  0  0  0  0  0  0  0  0
   -0.1341   -3.9081    1.4236 O   0  0  0  0  0  0  0  0  0  0  0  0
    0.5233    1.3783    1.6810 O   0  0  0  0  0  0  0  0  0  0  0  0
    0.4078   -5.1024   -0.4781 O   0  0  0  0  0  0  0  0  0  0  0  0
    2.8321    2.3587    1.4364 O   0  0  0  0  0  0  0  0  0  0  0  0
    4.3877   -1.6268   -1.7638 O   0  0  0  0  0  0  0  0  0  0  0  0
    5.1251    3.4933    1.2827 O   0  0  0  0  0  0  0  0  0  0  0  0
   -4.0230    4.1211   -0.8751 N   0  0  0  0  0  0  0  0  0  0  0  0
   -1.9639   -2.5622   -0.3778 C   0  0  2  0  0  0  0  0  0  0  0  0
   -2.1485   -1.8811    0.9888 C   0  0  0  0  0  0  0  0  0  0  0  0
   -0.4702   -2.8605   -0.6467 C   0  0  1  0  0  0  0  0  0  0  0  0
   -1.3590   -0.5727    1.0994 C   0  0  1  0  0  0  0  0  0  0  0  0
    0.0437   -0.6594    0.5529 C   0  0  0  0  0  0  0  0  0  0  0  0
    0.4509   -1.7068   -0.2915 C   0  0  0  0  0  0  0  0  0  0  0  0
   -2.8417   -3.8176   -0.4737 C   0  0  0  0  0  0  0  0  0  0  0  0
   -2.9943    1.1165    1.2251 C   0  0  2  0  0  0  0  0  0  0  0  0
   -3.8223    2.7124   -0.5408 C   0  0  1  0  0  0  0  0  0  0  0  0
   -3.1177    2.5851    0.8147 C   0  0  0  0  0  0  0  0  0  0  0  0
   -5.1562    1.9527   -0.5193 C   0  0  1  0  0  0  0  0  0  0  0  0
   -4.9199    0.5029   -0.0710 C   0  0  2  0  0  0  0  0  0  0  0  0
    0.9535    0.3663    0.8669 C   0  0  0  0  0  0  0  0  0  0  0  0
    1.7630   -1.7081   -0.8011 C   0  0  0  0  0  0  0  0  0  0  0  0
   -0.0096   -4.0962    0.0789 C   0  0  0  0  0  0  0  0  0  0  0  0
    2.2558    0.3537    0.3552 C   0  0  0  0  0  0  0  0  0  0  0  0
    2.6604   -0.6836   -0.4801 C   0  0  0  0  0  0  0  0  0  0  0  0
   -2.6472   -4.5185   -1.8009 C   0  0  0  0  0  0  0  0  0  0  0  0
   -6.2206   -0.2815    0.0646 C   0  0  0  0  0  0  0  0  0  0  0  0
    3.1891    1.4447    0.7033 C   0  0  0  0  0  0  0  0  0  0  0  0
    4.0313   -0.7131   -1.0301 C   0  0  0  0  0  0  0  0  0  0  0  0
   -2.7438    4.8304   -0.8919 C   0  0  0  0  0  0  0  0  0  0  0  0
   -4.6951    4.2497   -2.1679 C   0  0  0  0  0  0  0  0  0  0  0  0
    4.5596    1.4182    0.1531 C   0  0  0  0  0  0  0  0  0  0  0  0
    4.9661    0.3767   -0.6834 C   0  0  0  0  0  0  0  0  0  0  0  0
    0.2707   -5.0124    2.2390 C   0  0  0  0  0  0  0  0  0  0  0  0
    5.4544    2.4462    0.4738 C   0  0  0  0  0  0  0  0  0  0  0  0
    6.2676    0.3626   -1.1992 C   0  0  0  0  0  0  0  0  0  0  0  0
    6.7503    2.4285   -0.0425 C   0  0  0  0  0  0  0  0  0  0  0  0
    7.1562    1.3890   -0.8770 C   0  0  0  0  0  0  0  0  0  0  0  0
   -3.2150   -1.6824    1.1304 H   0  0  0  0  0  0  0  0  0  0  0  0
   -1.8761   -2.5453    1.8127 H   0  0  0  0  0  0  0  0  0  0  0  0
   -0.3278   -3.0403   -1.7217 H   0  0  0  0  0  0  0  0  0  0  0  0
   -1.2750   -0.3394    2.1697 H   0  0  0  0  0  0  0  0  0  0  0  0
   -3.8988   -3.5326   -0.3943 H   0  0  0  0  0  0  0  0  0  0  0  0
   -2.6404   -4.5151    0.3470 H   0  0  0  0  0  0  0  0  0  0  0  0
   -2.6589    1.1215    2.2691 H   0  0  0  0  0  0  0  0  0  0  0  0
   -3.1819    2.2416   -1.3017 H   0  0  0  0  0  0  0  0  0  0  0  0
   -3.6791    3.1301    1.5839 H   0  0  0  0  0  0  0  0  0  0  0  0
   -2.1030    2.9961    0.7798 H   0  0  0  0  0  0  0  0  0  0  0  0
   -5.6344    1.9265   -1.5035 H   0  0  0  0  0  0  0  0  0  0  0  0
   -4.2899   -0.0084   -0.8063 H   0  0  0  0  0  0  0  0  0  0  0  0
    2.0734   -2.5244   -1.4506 H   0  0  0  0  0  0  0  0  0  0  0  0
   -2.0677   -1.9883   -2.2732 H   0  0  0  0  0  0  0  0  0  0  0  0
   -3.3088   -5.3919   -1.8417 H   0  0  0  0  0  0  0  0  0  0  0  0
   -1.6362   -4.8935   -1.9638 H   0  0  0  0  0  0  0  0  0  0  0  0
   -2.9218   -3.8853   -2.6498 H   0  0  0  0  0  0  0  0  0  0  0  0
   -6.8523    0.1201    0.8641 H   0  0  0  0  0  0  0  0  0  0  0  0
   -6.0052   -1.3213    0.3349 H   0  0  0  0  0  0  0  0  0  0  0  0
   -6.7870   -0.2777   -0.8714 H   0  0  0  0  0  0  0  0  0  0  0  0
   -5.7496    2.4084    1.2978 H   0  0  0  0  0  0  0  0  0  0  0  0
   -2.8749    5.8474   -1.2819 H   0  0  0  0  0  0  0  0  0  0  0  0
   -2.3409    4.9728    0.1155 H   0  0  0  0  0  0  0  0  0  0  0  0
   -1.9940    4.3319   -1.5172 H   0  0  0  0  0  0  0  0  0  0  0  0
   -4.7280    5.3010   -2.4793 H   0  0  0  0  0  0  0  0  0  0  0  0
   -4.1906    3.6860   -2.9613 H   0  0  0  0  0  0  0  0  0  0  0  0
   -5.7446    3.9440   -2.1182 H   0  0  0  0  0  0  0  0  0  0  0  0
    1.1317    2.1312    1.6491 H   0  0  0  0  0  0  0  0  0  0  0  0
    0.1214   -4.7342    3.2856 H   0  0  0  0  0  0  0  0  0  0  0  0
    1.3310   -5.2308    2.0810 H   0  0  0  0  0  0  0  0  0  0  0  0
   -0.3431   -5.8907    2.0177 H   0  0  0  0  0  0  0  0  0  0  0  0
    6.6082   -0.4364   -1.8523 H   0  0  0  0  0  0  0  0  0  0  0  0
    7.4582    3.2182    0.1957 H   0  0  0  0  0  0  0  0  0  0  0  0
    8.1656    1.3775   -1.2778 H   0  0  0  0  0  0  0  0  0  0  0  0
    5.8883    4.0891    1.3733 H   0  0  0  0  0  0  0  0  0  0  0  0
  1 15  1  0  0  0  0
  1 19  1  0  0  0  0
  2 12  1  0  0  0  0
  2 55  1  0  0  0  0
  3 19  1  0  0  0  0
  3 23  1  0  0  0  0
  4 22  1  0  0  0  0
  4 62  1  0  0  0  0
  5 26  1  0  0  0  0
  5 37  1  0  0  0  0
  6 24  1  0  0  0  0
  6 69  1  0  0  0  0
  7 26  2  0  0  0  0
  8 31  2  0  0  0  0
  9 32  2  0  0  0  0
 10 38  1  0  0  0  0
 10 76  1  0  0  0  0
 11 20  1  0  0  0  0
 11 33  1  0  0  0  0
 11 34  1  0  0  0  0
 12 13  1  0  0  0  0
 12 14  1  0  0  0  0
 12 18  1  0  0  0  0
 13 15  1  0  0  0  0
 13 42  1  0  0  0  0
 13 43  1  0  0  0  0
 14 17  1  0  0  0  0
 14 26  1  0  0  0  0
 14 44  1  0  0  0  0
 15 16  1  0  0  0  0
 15 45  1  0  0  0  0
 16 17  1  0  0  0  0
 16 24  2  0  0  0  0
 17 25  2  0  0  0  0
 18 29  1  0  0  0  0
 18 46  1  0  0  0  0
 18 47  1  0  0  0  0
 19 21  1  0  0  0  0
 19 48  1  0  0  0  0
 20 21  1  0  0  0  0
 20 22  1  0  0  0  0
 20 49  1  0  0  0  0
 21 50  1  0  0  0  0
 21 51  1  0  0  0  0
 22 23  1  0  0  0  0
 22 52  1  0  0  0  0
 23 30  1  0  0  0  0
 23 53  1  0  0  0  0
 24 27  1  0  0  0  0
 25 28  1  0  0  0  0
 25 54  1  0  0  0  0
 27 28  2  0  0  0  0
 27 31  1  0  0  0  0
 28 32  1  0  0  0  0
 29 56  1  0  0  0  0
 29 57  1  0  0  0  0
 29 58  1  0  0  0  0
 30 59  1  0  0  0  0
 30 60  1  0  0  0  0
 30 61  1  0  0  0  0
 31 35  1  0  0  0  0
 32 36  1  0  0  0  0
 33 63  1  0  0  0  0
 33 64  1  0  0  0  0
 33 65  1  0  0  0  0
 34 66  1  0  0  0  0
 34 67  1  0  0  0  0
 34 68  1  0  0  0  0
 35 36  2  0  0  0  0
 35 38  1  0  0  0  0
 36 39  1  0  0  0  0
 37 70  1  0  0  0  0
 37 71  1  0  0  0  0
 37 72  1  0  0  0  0
 38 40  2  0  0  0  0
 39 41  2  0  0  0  0
 39 73  1  0  0  0  0
 40 41  1  0  0  0  0
 40 74  1  0  0  0  0
 41 75  1  0  0  0  0
M  END
> <PUBCHEM_COMPOUND_CID>
149755

> <PUBCHEM_CONFORMER_RMSD>
1

> <PUBCHEM_CONFORMER_DIVERSEORDER>
1
12
6
13
7
4
9
8
3
10
11
5
2

> <PUBCHEM_MMFF94_PARTIAL_CHARGES>
44
1 -0.56
10 -0.53
11 -0.81
12 0.28
14 0.2
15 0.42
16 -0.14
17 -0.14
19 0.56
2 -0.68
20 0.27
22 0.28
23 0.28
24 0.08
25 -0.15
26 0.66
27 0.09
28 0.09
3 -0.56
31 0.4
32 0.4
33 0.27
34 0.27
35 0.09
36 0.09
37 0.28
38 0.08
39 -0.15
4 -0.68
40 -0.15
41 -0.15
5 -0.43
54 0.15
55 0.4
6 -0.53
62 0.4
69 0.45
7 -0.57
73 0.15
74 0.15
75 0.15
76 0.45
8 -0.57
9 -0.57

> <PUBCHEM_EFFECTIVE_ROTOR_COUNT>
8

> <PUBCHEM_PHARMACOPHORE_FEATURES>
18
1 1 acceptor
1 10 donor
1 11 cation
1 2 acceptor
1 2 donor
1 29 hydrophobe
1 3 acceptor
1 4 acceptor
1 4 donor
1 6 donor
1 7 acceptor
1 8 acceptor
1 9 acceptor
6 12 13 14 15 16 17 rings
6 16 17 24 25 27 28 rings
6 27 28 31 32 35 36 rings
6 3 19 20 21 22 23 rings
6 35 36 38 39 40 41 rings

> <PUBCHEM_HEAVY_ATOM_COUNT>
41

> <PUBCHEM_ATOM_DEF_STEREO_COUNT>
7

> <PUBCHEM_ATOM_UDEF_STEREO_COUNT>
0

> <PUBCHEM_BOND_DEF_STEREO_COUNT>
0

> <PUBCHEM_BOND_UDEF_STEREO_COUNT>
0

> <PUBCHEM_ISOTOPIC_ATOM_COUNT>
0

> <PUBCHEM_COMPONENT_COUNT>
1

> <PUBCHEM_CACTVS_TAUTO_COUNT>
76

> <PUBCHEM_CONFORMER_ID>
000248FB00000001

> <PUBCHEM_MMFF94_ENERGY>
134.476

> <PUBCHEM_FEATURE_SELFOVERLAP>
91.442

> <PUBCHEM_SHAPE_FINGERPRINT>
10190206 1 18336276643748633327
10556698 54 17118615103861077837
10653451 467 18122047725289453763
10675989 125 18121211250106012848
11007060 377 18335133155417826971
11062273 19 17688876753682398935
11136131 41 18057331801875015770
11285246 1 17756180837152021317
11621639 148 18196932168227993241
11991303 11 18338509747131588310
12788726 201 18051146803765587626
13944108 23 17331403575988622660
140371 6 17328876396251730491
14068700 686 18340767143699344093
14747281 78 17831008388976260125
14790565 3 18338236088662916863
15198563 99 18193284001225752591
15200665 1 18269270175393894082
15276724 80 18115024104829591039
15361156 5 17976531711859459438
15463212 79 18341898471817082219
15775530 1 17681580050711889729
16090146 7 17344917312728351034
17899979 129 17977385259253220405
18608769 82 18263639576854721347
19246450 95 18126310720932687912
19304152 47 18202555181971030297
21033648 144 18334288768978740173
21033648 29 18411420605332851664
21133410 127 17842557623895195989
21859007 373 18342175609525741804
22393880 68 18191866936605743933
23559900 14 17689728875694396603
3298306 158 18266458900381845747
3418910 222 17407669620234251124
376196 1 18337387240223081246
4015057 19 17385715881819965352
4046055 25 17394460104337867583
4058900 60 18339913934985858456
4073 2 18195240028464666682
4173938 306 18041294231315647072
44249763 50 18261682459094974880
44802255 64 18341599396496642654
508706 21 18263926532225019184
5283173 99 18335420111205044146

> <PUBCHEM_SHAPE_MULTIPOLES>
780.09
14.56
7.12
1.59
13.11
3.78
-0.01
-17.13
3.44
-7.03
0.98
-0.22
0.39
1.72

> <PUBCHEM_SHAPE_SELFOVERLAP>
1710.31

> <PUBCHEM_SHAPE_VOLUME>
416.9

> <PUBCHEM_COORDINATE_TYPE>
2
5
10

$$$$

