17395381
  -OEChem-06241222492D

 33 35  0     1  0  0  0  0  0999 V2000
    4.5981    2.4827    0.0000 S   0  0  0  0  0  0  0  0  0  0  0  0
    6.3465    3.5173    0.0000 F   0  0  0  0  0  0  0  0  0  0  0  0
    4.5981   -3.5173    0.0000 O   0  5  0  0  0  0  0  0  0  0  0  0
    5.4641   -2.0173    0.0000 O   0  0  0  0  0  0  0  0  0  0  0  0
    4.5981   -0.5173    0.0000 N   0  0  0  0  0  0  0  0  0  0  0  0
    2.8660   -0.5173    0.0000 N   0  0  0  0  0  0  0  0  0  0  0  0
    4.5981   -2.5173    0.0000 N   0  3  0  0  0  0  0  0  0  0  0  0
    4.5981    0.4827    0.0000 C   0  0  3  0  0  0  0  0  0  0  0  0
    3.7320    0.9827    0.0000 C   0  0  0  0  0  0  0  0  0  0  0  0
    5.4641    0.9827    0.0000 C   0  0  0  0  0  0  0  0  0  0  0  0
    3.7320    1.9827    0.0000 C   0  0  0  0  0  0  0  0  0  0  0  0
    5.4641    1.9827    0.0000 C   0  0  0  0  0  0  0  0  0  0  0  0
    6.3580    0.4480    0.0000 C   0  0  0  0  0  0  0  0  0  0  0  0
    3.7320   -1.0173    0.0000 C   0  0  0  0  0  0  0  0  0  0  0  0
    6.3580    2.5174    0.0000 C   0  0  0  0  0  0  0  0  0  0  0  0
    7.2641    0.9619    0.0000 C   0  0  0  0  0  0  0  0  0  0  0  0
    7.2641    2.0035    0.0000 C   0  0  0  0  0  0  0  0  0  0  0  0
    3.7320   -2.0173    0.0000 C   0  0  0  0  0  0  0  0  0  0  0  0
    2.8660   -2.5173    0.0000 C   0  0  0  0  0  0  0  0  0  0  0  0
    2.0000   -1.0173    0.0000 C   0  0  0  0  0  0  0  0  0  0  0  0
    2.0000   -2.0173    0.0000 C   0  0  0  0  0  0  0  0  0  0  0  0
    5.1350    0.1727    0.0000 H   0  0  0  0  0  0  0  0  0  0  0  0
    3.1215    1.0904    0.0000 H   0  0  0  0  0  0  0  0  0  0  0  0
    3.5200    0.4001    0.0000 H   0  0  0  0  0  0  0  0  0  0  0  0
    3.5200    2.5653    0.0000 H   0  0  0  0  0  0  0  0  0  0  0  0
    3.1215    1.8750    0.0000 H   0  0  0  0  0  0  0  0  0  0  0  0
    5.1350   -0.8273    0.0000 H   0  0  0  0  0  0  0  0  0  0  0  0
    6.3509   -0.1719    0.0000 H   0  0  0  0  0  0  0  0  0  0  0  0
    7.7998    0.6498    0.0000 H   0  0  0  0  0  0  0  0  0  0  0  0
    7.7998    2.3156    0.0000 H   0  0  0  0  0  0  0  0  0  0  0  0
    2.8660   -3.1373    0.0000 H   0  0  0  0  0  0  0  0  0  0  0  0
    1.4631   -0.7073    0.0000 H   0  0  0  0  0  0  0  0  0  0  0  0
    1.4631   -2.3273    0.0000 H   0  0  0  0  0  0  0  0  0  0  0  0
  1 11  1  0  0  0  0
  1 12  1  0  0  0  0
  2 15  1  0  0  0  0
  3  7  1  0  0  0  0
  4  7  2  0  0  0  0
  5  8  1  0  0  0  0
  5 14  1  0  0  0  0
  5 27  1  0  0  0  0
  6 14  1  0  0  0  0
  6 20  2  0  0  0  0
  7 18  1  0  0  0  0
  8  9  1  0  0  0  0
  8 10  1  0  0  0  0
  8 22  1  0  0  0  0
  9 11  1  0  0  0  0
  9 23  1  0  0  0  0
  9 24  1  0  0  0  0
 10 12  2  0  0  0  0
 10 13  1  0  0  0  0
 11 25  1  0  0  0  0
 11 26  1  0  0  0  0
 12 15  1  0  0  0  0
 13 16  2  0  0  0  0
 13 28  1  0  0  0  0
 14 18  2  0  0  0  0
 15 17  2  0  0  0  0
 16 17  1  0  0  0  0
 16 29  1  0  0  0  0
 17 30  1  0  0  0  0
 18 19  1  0  0  0  0
 19 21  2  0  0  0  0
 19 31  1  0  0  0  0
 20 21  1  0  0  0  0
 20 32  1  0  0  0  0
 21 33  1  0  0  0  0
M  CHG  2   3  -1   7   1
M  END
> <PUBCHEM_COMPOUND_CID>
17395381

> <PUBCHEM_COMPOUND_CANONICALIZED>
1

> <PUBCHEM_CACTVS_COMPLEXITY>
382

> <PUBCHEM_CACTVS_HBOND_ACCEPTOR>
6

> <PUBCHEM_CACTVS_HBOND_DONOR>
1

> <PUBCHEM_CACTVS_ROTATABLE_BOND>
2

> <PUBCHEM_CACTVS_SUBSKEYS>
AAADccBzMQBAAAAAAAAAAAAAAAAAAAAAAAA8SIAAAAAAAACRwAAAHQQUAAAADCjFWgy98ZLYUAihAjZnZwCCgCkxGjAp2LA4dJqIYOLgmZGUIAhokILoyCcQgIAOAAAAAAAEAAAAAAAAAAgAAAAAAAAAAA==

> <PUBCHEM_IUPAC_OPENEYE_NAME>
N-(8-fluorothiochroman-4-yl)-3-nitro-pyridin-2-amine

> <PUBCHEM_IUPAC_CAS_NAME>
N-(8-fluoro-3,4-dihydro-2H-1-benzothiopyran-4-yl)-3-nitro-2-pyridinamine

> <PUBCHEM_IUPAC_NAME>
N-(8-fluoro-3,4-dihydro-2H-thiochromen-4-yl)-3-nitropyridin-2-amine

> <PUBCHEM_IUPAC_SYSTEMATIC_NAME>
N-(8-fluoranyl-3,4-dihydro-2H-thiochromen-4-yl)-3-nitro-pyridin-2-amine

> <PUBCHEM_IUPAC_TRADITIONAL_NAME>
(8-fluorothiochroman-4-yl)-(3-nitro-2-pyridyl)amine

> <PUBCHEM_IUPAC_INCHI>
InChI=1S/C14H12FN3O2S/c15-10-4-1-3-9-11(6-8-21-13(9)10)17-14-12(18(19)20)5-2-7-16-14/h1-5,7,11H,6,8H2,(H,16,17)

> <PUBCHEM_IUPAC_INCHIKEY>
GUGZEYBZLJGMJC-UHFFFAOYSA-N

> <PUBCHEM_XLOGP3_AA>
3.8

> <PUBCHEM_EXACT_MASS>
305.063426

> <PUBCHEM_MOLECULAR_FORMULA>
C14H12FN3O2S

> <PUBCHEM_MOLECULAR_WEIGHT>
305.327383

> <PUBCHEM_OPENEYE_CAN_SMILES>
C1CSC2=C(C1NC3=C(C=CC=N3)[N+](=O)[O-])C=CC=C2F

> <PUBCHEM_OPENEYE_ISO_SMILES>
C1CSC2=C(C1NC3=C(C=CC=N3)[N+](=O)[O-])C=CC=C2F

> <PUBCHEM_CACTVS_TPSA>
96

> <PUBCHEM_MONOISOTOPIC_WEIGHT>
305.063426

> <PUBCHEM_TOTAL_CHARGE>
0

> <PUBCHEM_HEAVY_ATOM_COUNT>
21

> <PUBCHEM_ATOM_DEF_STEREO_COUNT>
0

> <PUBCHEM_ATOM_UDEF_STEREO_COUNT>
1

> <PUBCHEM_BOND_DEF_STEREO_COUNT>
0

> <PUBCHEM_BOND_UDEF_STEREO_COUNT>
0

> <PUBCHEM_ISOTOPIC_ATOM_COUNT>
0

> <PUBCHEM_COMPONENT_COUNT>
1

> <PUBCHEM_CACTVS_TAUTO_COUNT>
2

> <PUBCHEM_COORDINATE_TYPE>
1
5
255

> <PUBCHEM_BONDANNOTATIONS>
10  12  8
10  13  8
12  15  8
13  16  8
14  18  8
15  17  8
16  17  8
18  19  8
19  21  8
20  21  8
8  5  3
6  14  8
6  20  8

$$$$

