5280641
  -OEChem-07051212493D

 72 76  0     1  0  0  0  0  0999 V2000
    0.4456    0.6216    1.5164 O   0  0  0  0  0  0  0  0  0  0  0  0
    3.0697    1.6463   -0.8361 O   0  0  0  0  0  0  0  0  0  0  0  0
    0.7299   -1.6550    1.0918 O   0  0  0  0  0  0  0  0  0  0  0  0
    2.5667    1.6866    3.2492 O   0  0  0  0  0  0  0  0  0  0  0  0
    3.9665    3.8456    1.9513 O   0  0  0  0  0  0  0  0  0  0  0  0
   -1.4264   -0.0124    3.5416 O   0  0  0  0  0  0  0  0  0  0  0  0
   -2.7672   -2.5863    3.0334 O   0  0  0  0  0  0  0  0  0  0  0  0
   -0.8188   -4.6562    2.5088 O   0  0  0  0  0  0  0  0  0  0  0  0
    4.6142    3.4555   -2.2094 O   0  0  0  0  0  0  0  0  0  0  0  0
   -0.8591    0.6384   -1.1169 O   0  0  0  0  0  0  0  0  0  0  0  0
    1.2003   -5.2432    0.9891 O   0  0  0  0  0  0  0  0  0  0  0  0
    3.7122   -0.6664   -1.3363 O   0  0  0  0  0  0  0  0  0  0  0  0
    0.4714   -3.3727   -3.4912 O   0  0  0  0  0  0  0  0  0  0  0  0
   -2.0252   -2.5841   -3.3201 O   0  0  0  0  0  0  0  0  0  0  0  0
   -5.7044    4.3196    0.6002 O   0  0  0  0  0  0  0  0  0  0  0  0
    1.7832    0.8994    1.1028 C   0  0  2  0  0  0  0  0  0  0  0  0
    2.3142    2.0923    1.9026 C   0  0  2  0  0  0  0  0  0  0  0  0
    1.7788    1.2053   -0.4029 C   0  0  2  0  0  0  0  0  0  0  0  0
    3.6240    2.6172    1.3148 C   0  0  1  0  0  0  0  0  0  0  0  0
    3.4884    2.8499   -0.1912 C   0  0  1  0  0  0  0  0  0  0  0  0
    0.3342   -0.6913    2.0650 C   0  0  2  0  0  0  0  0  0  0  0  0
   -1.1228   -0.9088    2.4731 C   0  0  1  0  0  0  0  0  0  0  0  0
   -1.3625   -2.3468    2.9336 C   0  0  2  0  0  0  0  0  0  0  0  0
   -0.7813   -3.3509    1.9380 C   0  0  1  0  0  0  0  0  0  0  0  0
    0.6651   -2.9933    1.5878 C   0  0  1  0  0  0  0  0  0  0  0  0
    1.4081   -0.0120   -1.2274 C   0  0  0  0  0  0  0  0  0  0  0  0
    4.8131    3.2695   -0.8198 C   0  0  0  0  0  0  0  0  0  0  0  0
    1.2283   -3.9118    0.5081 C   0  0  0  0  0  0  0  0  0  0  0  0
    0.0770   -0.2594   -1.5638 C   0  0  0  0  0  0  0  0  0  0  0  0
    2.4056   -0.8896   -1.6527 C   0  0  0  0  0  0  0  0  0  0  0  0
   -0.2528   -1.3813   -2.3224 C   0  0  0  0  0  0  0  0  0  0  0  0
    2.0735   -2.0124   -2.4123 C   0  0  0  0  0  0  0  0  0  0  0  0
    0.7428   -2.2626   -2.7500 C   0  0  0  0  0  0  0  0  0  0  0  0
   -1.6643   -1.6190   -2.6611 C   0  0  0  0  0  0  0  0  0  0  0  0
   -2.1896    0.4220   -1.4417 C   0  0  0  0  0  0  0  0  0  0  0  0
   -2.6322   -0.6231   -2.1589 C   0  0  0  0  0  0  0  0  0  0  0  0
   -3.1118    1.4436   -0.9061 C   0  0  0  0  0  0  0  0  0  0  0  0
   -4.2980    1.7414   -1.5810 C   0  0  0  0  0  0  0  0  0  0  0  0
   -2.8011    2.1172    0.2778 C   0  0  0  0  0  0  0  0  0  0  0  0
   -5.1684    2.7069   -1.0751 C   0  0  0  0  0  0  0  0  0  0  0  0
   -3.6716    3.0826    0.7836 C   0  0  0  0  0  0  0  0  0  0  0  0
   -4.8553    3.3775    0.1072 C   0  0  0  0  0  0  0  0  0  0  0  0
    2.4536    0.0499    1.3007 H   0  0  0  0  0  0  0  0  0  0  0  0
    1.5610    2.8871    1.9585 H   0  0  0  0  0  0  0  0  0  0  0  0
    1.0689    2.0126   -0.6261 H   0  0  0  0  0  0  0  0  0  0  0  0
    4.4324    1.9051    1.5210 H   0  0  0  0  0  0  0  0  0  0  0  0
    2.7494    3.6343   -0.4038 H   0  0  0  0  0  0  0  0  0  0  0  0
    0.9893   -0.7516    2.9449 H   0  0  0  0  0  0  0  0  0  0  0  0
   -1.8005   -0.6661    1.6462 H   0  0  0  0  0  0  0  0  0  0  0  0
   -0.9467   -2.5010    3.9371 H   0  0  0  0  0  0  0  0  0  0  0  0
   -1.3972   -3.3655    1.0292 H   0  0  0  0  0  0  0  0  0  0  0  0
    1.2975   -3.0867    2.4815 H   0  0  0  0  0  0  0  0  0  0  0  0
    5.1839    4.2048   -0.3898 H   0  0  0  0  0  0  0  0  0  0  0  0
    5.5694    2.4876   -0.6934 H   0  0  0  0  0  0  0  0  0  0  0  0
    3.2188    0.9655    3.2313 H   0  0  0  0  0  0  0  0  0  0  0  0
    2.2559   -3.6400    0.2466 H   0  0  0  0  0  0  0  0  0  0  0  0
    0.6264   -3.8650   -0.4025 H   0  0  0  0  0  0  0  0  0  0  0  0
    3.2602    4.4875    1.7649 H   0  0  0  0  0  0  0  0  0  0  0  0
   -1.2549    0.8900    3.2216 H   0  0  0  0  0  0  0  0  0  0  0  0
   -2.8902   -3.4550    3.4515 H   0  0  0  0  0  0  0  0  0  0  0  0
   -1.7520   -4.9099    2.6055 H   0  0  0  0  0  0  0  0  0  0  0  0
    2.8490   -2.6989   -2.7437 H   0  0  0  0  0  0  0  0  0  0  0  0
    5.4701    3.7173   -2.5895 H   0  0  0  0  0  0  0  0  0  0  0  0
    1.7678   -5.2846    1.7776 H   0  0  0  0  0  0  0  0  0  0  0  0
    4.2571   -1.3784   -1.7131 H   0  0  0  0  0  0  0  0  0  0  0  0
   -3.6755   -0.8056   -2.3879 H   0  0  0  0  0  0  0  0  0  0  0  0
   -0.4808   -3.4460   -3.6576 H   0  0  0  0  0  0  0  0  0  0  0  0
   -4.5676    1.2580   -2.5162 H   0  0  0  0  0  0  0  0  0  0  0  0
   -1.8897    1.9064    0.8299 H   0  0  0  0  0  0  0  0  0  0  0  0
   -6.0851    2.9313   -1.6139 H   0  0  0  0  0  0  0  0  0  0  0  0
   -3.4228    3.6007    1.7058 H   0  0  0  0  0  0  0  0  0  0  0  0
   -6.4713    4.3943    0.0066 H   0  0  0  0  0  0  0  0  0  0  0  0
  1 16  1  0  0  0  0
  1 21  1  0  0  0  0
  2 18  1  0  0  0  0
  2 20  1  0  0  0  0
  3 21  1  0  0  0  0
  3 25  1  0  0  0  0
  4 17  1  0  0  0  0
  4 55  1  0  0  0  0
  5 19  1  0  0  0  0
  5 58  1  0  0  0  0
  6 22  1  0  0  0  0
  6 59  1  0  0  0  0
  7 23  1  0  0  0  0
  7 60  1  0  0  0  0
  8 24  1  0  0  0  0
  8 61  1  0  0  0  0
  9 27  1  0  0  0  0
  9 63  1  0  0  0  0
 10 29  1  0  0  0  0
 10 35  1  0  0  0  0
 11 28  1  0  0  0  0
 11 64  1  0  0  0  0
 12 30  1  0  0  0  0
 12 65  1  0  0  0  0
 13 33  1  0  0  0  0
 13 67  1  0  0  0  0
 14 34  2  0  0  0  0
 15 42  1  0  0  0  0
 15 72  1  0  0  0  0
 16 17  1  0  0  0  0
 16 18  1  0  0  0  0
 16 43  1  0  0  0  0
 17 19  1  0  0  0  0
 17 44  1  0  0  0  0
 18 26  1  0  0  0  0
 18 45  1  0  0  0  0
 19 20  1  0  0  0  0
 19 46  1  0  0  0  0
 20 27  1  0  0  0  0
 20 47  1  0  0  0  0
 21 22  1  0  0  0  0
 21 48  1  0  0  0  0
 22 23  1  0  0  0  0
 22 49  1  0  0  0  0
 23 24  1  0  0  0  0
 23 50  1  0  0  0  0
 24 25  1  0  0  0  0
 24 51  1  0  0  0  0
 25 28  1  0  0  0  0
 25 52  1  0  0  0  0
 26 29  1  0  0  0  0
 26 30  2  0  0  0  0
 27 53  1  0  0  0  0
 27 54  1  0  0  0  0
 28 56  1  0  0  0  0
 28 57  1  0  0  0  0
 29 31  2  0  0  0  0
 30 32  1  0  0  0  0
 31 33  1  0  0  0  0
 31 34  1  0  0  0  0
 32 33  2  0  0  0  0
 32 62  1  0  0  0  0
 34 36  1  0  0  0  0
 35 36  2  0  0  0  0
 35 37  1  0  0  0  0
 36 66  1  0  0  0  0
 37 38  2  0  0  0  0
 37 39  1  0  0  0  0
 38 40  1  0  0  0  0
 38 68  1  0  0  0  0
 39 41  2  0  0  0  0
 39 69  1  0  0  0  0
 40 42  2  0  0  0  0
 40 70  1  0  0  0  0
 41 42  1  0  0  0  0
 41 71  1  0  0  0  0
M  END
> <PUBCHEM_COMPOUND_CID>
5280641

> <PUBCHEM_CONFORMER_RMSD>
1

> <PUBCHEM_CONFORMER_DIVERSEORDER>
1
8
47
5
26
4
42
39
34
30
36
13
9
63
31
19
49
15
11
38
17
57
23
61
43
25
51
62
24
35
2
50
27
60
40
37
10
45
7
41
46
21
29
44
33
22
56
58
64
18
16
12
3
53
6
55
52
28
48
20
14
32
59
54

> <PUBCHEM_MMFF94_PARTIAL_CHARGES>
58
1 -0.56
10 -0.16
11 -0.68
12 -0.53
13 -0.53
14 -0.57
15 -0.53
16 0.28
17 0.28
18 0.42
19 0.28
2 -0.56
20 0.28
21 0.56
22 0.28
23 0.28
24 0.28
25 0.28
26 -0.14
27 0.28
28 0.28
29 0.08
3 -0.56
30 0.08
31 0.09
32 -0.15
33 0.08
34 0.47
35 0.05
36 -0.14
37 0.03
38 -0.15
39 -0.15
4 -0.68
40 -0.15
41 -0.15
42 0.08
5 -0.68
55 0.4
58 0.4
59 0.4
6 -0.68
60 0.4
61 0.4
62 0.15
63 0.4
64 0.4
65 0.45
66 0.15
67 0.45
68 0.15
69 0.15
7 -0.68
70 0.15
71 0.15
72 0.45
8 -0.68
9 -0.68

> <PUBCHEM_EFFECTIVE_ROTOR_COUNT>
8.4

> <PUBCHEM_PHARMACOPHORE_FEATURES>
27
1 1 acceptor
1 10 acceptor
1 11 acceptor
1 11 donor
1 12 donor
1 13 donor
1 14 acceptor
1 15 donor
1 2 acceptor
1 3 acceptor
1 4 acceptor
1 4 donor
1 5 acceptor
1 5 donor
1 6 acceptor
1 6 donor
1 7 acceptor
1 7 donor
1 8 acceptor
1 8 donor
1 9 acceptor
1 9 donor
6 10 29 31 34 35 36 rings
6 2 16 17 18 19 20 rings
6 26 29 30 31 32 33 rings
6 3 21 22 23 24 25 rings
6 37 38 39 40 41 42 rings

> <PUBCHEM_HEAVY_ATOM_COUNT>
42

> <PUBCHEM_ATOM_DEF_STEREO_COUNT>
10

> <PUBCHEM_ATOM_UDEF_STEREO_COUNT>
0

> <PUBCHEM_BOND_DEF_STEREO_COUNT>
0

> <PUBCHEM_BOND_UDEF_STEREO_COUNT>
0

> <PUBCHEM_ISOTOPIC_ATOM_COUNT>
0

> <PUBCHEM_COMPONENT_COUNT>
1

> <PUBCHEM_CACTVS_TAUTO_COUNT>
57

> <PUBCHEM_CONFORMER_ID>
0050938100000001

> <PUBCHEM_MMFF94_ENERGY>
133.3912

> <PUBCHEM_FEATURE_SELFOVERLAP>
137.133

> <PUBCHEM_SHAPE_FINGERPRINT>
10816530 23 16695770183263523351
11421498 54 17834159335734326383
11578080 2 17773286034193108492
1200032 147 18115294709249492801
12156800 1 17273106060749327311
12522641 24 17625806542690599121
12788726 201 17760678891364890101
13642711 20 17906700911966042691
15444296 8 5491534438832389090
21033650 10 18046923571641118768
21133410 90 17695316537293348250
22121540 332 18339907230842843083
23419403 2 17831251234230204550
23559900 14 15981430832442304205
27425 322 18272088305680622965
3380486 77 17388525292615591222
35225 105 17413332185940415094
469060 322 17466227427062981767
50150288 127 17485661355202869688
550186 7 18196080050056573881
550186 83 16678358596373549665
6823239 73 14977399660250084805

> <PUBCHEM_SHAPE_MULTIPOLES>
776.3
7.93
6.39
4.13
8.24
1.96
0.57
-13.75
-1.6
-3.02
2.35
-0.19
3.63
0.51

> <PUBCHEM_SHAPE_SELFOVERLAP>
1697.812

> <PUBCHEM_SHAPE_VOLUME>
413.7

> <PUBCHEM_COORDINATE_TYPE>
2
5
10

$$$$

