23690298
  -OEChem-07051213032D

 49 51  0     1  0  0  0  0  0999 V2000
    5.3147   -0.8240    0.0000 S   0  0  0  0  0  0  0  0  0  0  0  0
   12.1489   -1.3196    0.0000 S   0  0  0  0  0  0  0  0  0  0  0  0
    6.1808    3.6760    0.0000 Na  0  3  0  0  0  0  0  0  0  0  0  0
    2.6691    0.7693    0.0000 O   0  0  0  0  0  0  0  0  0  0  0  0
    7.8947    1.3887    0.0000 O   0  0  0  0  0  0  0  0  0  0  0  0
    6.1808    2.6760    0.0000 O   0  5  0  0  0  0  0  0  0  0  0  0
    4.4487    2.6760    0.0000 O   0  0  0  0  0  0  0  0  0  0  0  0
    9.1219    0.1855    0.0000 O   0  0  0  0  0  0  0  0  0  0  0  0
    8.3395   -2.7106    0.0000 O   0  0  0  0  0  0  0  0  0  0  0  0
    6.1808    0.6760    0.0000 N   0  0  0  0  0  0  0  0  0  0  0  0
    7.8947   -1.0367    0.0000 N   0  0  0  0  0  0  0  0  0  0  0  0
    9.3060   -2.4538    0.0000 N   0  0  0  0  0  0  0  0  0  0  0  0
   10.8935   -0.2987    0.0000 N   0  0  0  0  0  0  0  0  0  0  0  0
   12.5230    0.4227    0.0000 N   0  0  0  0  0  0  0  0  0  0  0  0
    6.1808   -0.3240    0.0000 C   0  0  1  0  0  0  0  0  0  0  0  0
    7.1890   -0.3281    0.0000 C   0  0  1  0  0  0  0  0  0  0  0  0
    4.4487    0.6760    0.0000 C   0  0  0  0  0  0  0  0  0  0  0  0
    3.5827    1.1760    0.0000 C   0  0  2  0  0  0  0  0  0  0  0  0
    7.1890    0.6802    0.0000 C   0  0  0  0  0  0  0  0  0  0  0  0
    5.3147    1.1760    0.0000 C   0  0  0  0  0  0  0  0  0  0  0  0
    4.4487   -0.3240    0.0000 C   0  0  0  0  0  0  0  0  0  0  0  0
    3.4782    2.1705    0.0000 C   0  0  0  0  0  0  0  0  0  0  0  0
    2.5000    2.3785    0.0000 C   0  0  0  0  0  0  0  0  0  0  0  0
    2.0000    1.5124    0.0000 C   0  0  0  0  0  0  0  0  0  0  0  0
    5.3147    2.1760    0.0000 C   0  0  0  0  0  0  0  0  0  0  0  0
    8.8611   -0.7798    0.0000 C   0  0  0  0  0  0  0  0  0  0  0  0
    9.5668   -1.4884    0.0000 C   0  0  0  0  0  0  0  0  0  0  0  0
   10.5332   -1.2316    0.0000 C   0  0  0  0  0  0  0  0  0  0  0  0
   11.3091   -1.8625    0.0000 C   0  0  0  0  0  0  0  0  0  0  0  0
   11.8921   -0.3531    0.0000 C   0  0  0  0  0  0  0  0  0  0  0  0
    8.0787   -3.6760    0.0000 C   0  0  0  0  0  0  0  0  0  0  0  0
    6.3991   -1.1455    0.0000 H   0  0  0  0  0  0  0  0  0  0  0  0
    7.7621   -0.0914    0.0000 H   0  0  0  0  0  0  0  0  0  0  0  0
    4.2956    1.6390    0.0000 H   0  0  0  0  0  0  0  0  0  0  0  0
    3.8381   -0.2163    0.0000 H   0  0  0  0  0  0  0  0  0  0  0  0
    4.2366   -0.9066    0.0000 H   0  0  0  0  0  0  0  0  0  0  0  0
    4.0982    2.1705    0.0000 H   0  0  0  0  0  0  0  0  0  0  0  0
    3.5430    2.7872    0.0000 H   0  0  0  0  0  0  0  0  0  0  0  0
    2.6916    2.9681    0.0000 H   0  0  0  0  0  0  0  0  0  0  0  0
    1.9336    2.6306    0.0000 H   0  0  0  0  0  0  0  0  0  0  0  0
    7.7330   -1.6352    0.0000 H   0  0  0  0  0  0  0  0  0  0  0  0
    1.4984    1.8769    0.0000 H   0  0  0  0  0  0  0  0  0  0  0  0
    1.5851    1.0517    0.0000 H   0  0  0  0  0  0  0  0  0  0  0  0
   11.2754   -2.4816    0.0000 H   0  0  0  0  0  0  0  0  0  0  0  0
    7.4802   -3.5143    0.0000 H   0  0  0  0  0  0  0  0  0  0  0  0
    7.9170   -4.2746    0.0000 H   0  0  0  0  0  0  0  0  0  0  0  0
    8.6773   -3.8377    0.0000 H   0  0  0  0  0  0  0  0  0  0  0  0
   13.1351    0.3245    0.0000 H   0  0  0  0  0  0  0  0  0  0  0  0
   12.3020    1.0020    0.0000 H   0  0  0  0  0  0  0  0  0  0  0  0
  1 15  1  0  0  0  0
  1 21  1  0  0  0  0
  2 29  1  0  0  0  0
  2 30  1  0  0  0  0
  4 18  1  0  0  0  0
  4 24  1  0  0  0  0
  5 19  2  0  0  0  0
  6 25  1  0  0  0  0
  7 25  2  0  0  0  0
  8 26  2  0  0  0  0
  9 12  1  0  0  0  0
  9 31  1  0  0  0  0
 10 15  1  0  0  0  0
 10 19  1  0  0  0  0
 10 20  1  0  0  0  0
 16 11  1  1  0  0  0
 11 26  1  0  0  0  0
 11 41  1  0  0  0  0
 12 27  2  0  0  0  0
 13 28  1  0  0  0  0
 13 30  2  0  0  0  0
 14 30  1  0  0  0  0
 14 48  1  0  0  0  0
 14 49  1  0  0  0  0
 15 16  1  0  0  0  0
 15 32  1  6  0  0  0
 16 19  1  0  0  0  0
 16 33  1  0  0  0  0
 17 18  1  0  0  0  0
 17 20  2  0  0  0  0
 17 21  1  0  0  0  0
 18 22  1  0  0  0  0
 18 34  1  6  0  0  0
 20 25  1  0  0  0  0
 21 35  1  0  0  0  0
 21 36  1  0  0  0  0
 22 23  1  0  0  0  0
 22 37  1  0  0  0  0
 22 38  1  0  0  0  0
 23 24  1  0  0  0  0
 23 39  1  0  0  0  0
 23 40  1  0  0  0  0
 24 42  1  0  0  0  0
 24 43  1  0  0  0  0
 26 27  1  0  0  0  0
 27 28  1  0  0  0  0
 28 29  2  0  0  0  0
 29 44  1  0  0  0  0
 31 45  1  0  0  0  0
 31 46  1  0  0  0  0
 31 47  1  0  0  0  0
M  CHG  2   3   1   6  -1
M  END
> <PUBCHEM_COMPOUND_CID>
23690298

> <PUBCHEM_COMPOUND_CANONICALIZED>
1

> <PUBCHEM_CACTVS_COMPLEXITY>
827

> <PUBCHEM_CACTVS_HBOND_ACCEPTOR>
11

> <PUBCHEM_CACTVS_HBOND_DONOR>
2

> <PUBCHEM_CACTVS_ROTATABLE_BOND>
6

> <PUBCHEM_CACTVS_SUBSKEYS>
AAADceB7uCBgAAAAAAAAAAAAAABYAWJAAAAgAAAAAAAQAAABgAAAHgQUAAAADDzl1gajmRPYFAisAwXyfAAA8KlhCjkACJW4IFiCZJog5CEWEAAElgK4ISOAQAAAAAAAAAAAAAAAAAAAAAAAAAAAAAAAAA==

> <PUBCHEM_IUPAC_OPENEYE_NAME>
sodium (6R,7R)-7-[[(2Z)-2-(2-aminothiazol-4-yl)-2-methoxyimino-acetyl]amino]-8-oxo-3-[(2S)-tetrahydrofuran-2-yl]-5-thia-1-azabicyclo[4.2.0]oct-2-ene-2-carboxylate

> <PUBCHEM_IUPAC_CAS_NAME>
sodium (6R,7R)-7-[[(2Z)-2-(2-amino-4-thiazolyl)-2-methoxyimino-1-oxoethyl]amino]-8-oxo-3-[(2S)-2-oxolanyl]-5-thia-1-azabicyclo[4.2.0]oct-2-ene-2-carboxylate

> <PUBCHEM_IUPAC_NAME>
sodium (6R,7R)-7-[[(2Z)-2-(2-amino-1,3-thiazol-4-yl)-2-methoxyiminoacetyl]amino]-8-oxo-3-[(2S)-oxolan-2-yl]-5-thia-1-azabicyclo[4.2.0]oct-2-ene-2-carboxylate

> <PUBCHEM_IUPAC_SYSTEMATIC_NAME>
sodium (6R,7R)-7-[[(2Z)-2-(2-azanyl-1,3-thiazol-4-yl)-2-methoxyimino-ethanoyl]amino]-8-oxidanylidene-3-[(2S)-oxolan-2-yl]-5-thia-1-azabicyclo[4.2.0]oct-2-ene-2-carboxylate

> <PUBCHEM_IUPAC_TRADITIONAL_NAME>
sodium (6R,7R)-7-[[(2Z)-2-(2-aminothiazol-4-yl)-2-methyloximino-acetyl]amino]-8-keto-3-[(2S)-tetrahydrofuran-2-yl]-5-thia-1-azabicyclo[4.2.0]oct-2-ene-2-carboxylate

> <PUBCHEM_IUPAC_INCHI>
InChI=1S/C17H19N5O6S2.Na/c1-27-21-10(8-6-30-17(18)19-8)13(23)20-11-14(24)22-12(16(25)26)7(5-29-15(11)22)9-3-2-4-28-9;/h6,9,11,15H,2-5H2,1H3,(H2,18,19)(H,20,23)(H,25,26);/q;+1/p-1/b21-10-;/t9-,11+,15+;/m0./s1

> <PUBCHEM_IUPAC_INCHIKEY>
QRIBXVGHDLFNNE-VQWMGBAQSA-M

> <PUBCHEM_EXACT_MASS>
475.05962

> <PUBCHEM_MOLECULAR_FORMULA>
C17H18N5NaO6S2

> <PUBCHEM_MOLECULAR_WEIGHT>
475.474489

> <PUBCHEM_OPENEYE_CAN_SMILES>
CON=C(C1=CSC(=N1)N)C(=O)NC2C3N(C2=O)C(=C(CS3)C4CCCO4)C(=O)[O-].[Na+]

> <PUBCHEM_OPENEYE_ISO_SMILES>
CO/N=C(/C1=CSC(=N1)N)\C(=O)N[C@H]2[C@@H]3N(C2=O)C(=C(CS3)[C@@H]4CCCO4)C(=O)[O-].[Na+]

> <PUBCHEM_CACTVS_TPSA>
213

> <PUBCHEM_MONOISOTOPIC_WEIGHT>
475.05962

> <PUBCHEM_TOTAL_CHARGE>
0

> <PUBCHEM_HEAVY_ATOM_COUNT>
31

> <PUBCHEM_ATOM_DEF_STEREO_COUNT>
3

> <PUBCHEM_ATOM_UDEF_STEREO_COUNT>
0

> <PUBCHEM_BOND_DEF_STEREO_COUNT>
1

> <PUBCHEM_BOND_UDEF_STEREO_COUNT>
0

> <PUBCHEM_ISOTOPIC_ATOM_COUNT>
0

> <PUBCHEM_COMPONENT_COUNT>
2

> <PUBCHEM_CACTVS_TAUTO_COUNT>
14

> <PUBCHEM_NONSTANDARDBOND>
3  6  7

> <PUBCHEM_COORDINATE_TYPE>
1
5
255

> <PUBCHEM_BONDANNOTATIONS>
16  11  5
13  28  8
13  30  8
15  32  6
18  34  6
2  29  8
2  30  8
28  29  8

$$$$

