46906052
  -OEChem-07051213153D

 38 38  0     1  0  0  0  0  0999 V2000
    1.6745    2.9154   -0.4979 P   0  0  0  0  0  0  0  0  0  0  0  0
   -4.5763    0.1657    0.2266 P   0  0  0  0  0  0  0  0  0  0  0  0
    0.7065    0.0024    0.7896 O   0  0  0  0  0  0  0  0  0  0  0  0
    1.1407   -2.9780   -1.3116 O   0  0  0  0  0  0  0  0  0  0  0  0
    3.7938   -2.6014   -0.1621 O   0  0  0  0  0  0  0  0  0  0  0  0
    2.1290    1.3651   -0.5337 O   0  0  0  0  0  0  0  0  0  0  0  0
    3.0887   -1.0415    2.0124 O   0  0  0  0  0  0  0  0  0  0  0  0
   -1.3465   -2.4346   -0.9479 O   0  0  0  0  0  0  0  0  0  0  0  0
   -3.3208   -0.8513    0.2473 O   0  0  0  0  0  0  0  0  0  0  0  0
    2.4898    3.5272    0.7575 O   0  0  0  0  0  0  0  0  0  0  0  0
    0.1562    2.8283    0.0515 O   0  0  0  0  0  0  0  0  0  0  0  0
    1.8386    3.6568   -1.7924 O   0  0  0  0  0  0  0  0  0  0  0  0
   -4.1118    1.3251    1.2537 O   0  0  0  0  0  0  0  0  0  0  0  0
   -4.4673    0.8834   -1.2185 O   0  0  0  0  0  0  0  0  0  0  0  0
   -5.9061   -0.4584    0.5344 O   0  0  0  0  0  0  0  0  0  0  0  0
    0.4021   -0.9623   -0.2211 C   0  0  1  0  0  0  0  0  0  0  0  0
    1.4169   -2.1124   -0.2137 C   0  0  2  0  0  0  0  0  0  0  0  0
    2.8378   -1.5600   -0.3415 C   0  0  1  0  0  0  0  0  0  0  0  0
    3.0931   -0.4715    0.7023 C   0  0  1  0  0  0  0  0  0  0  0  0
    2.0022    0.5974    0.6583 C   0  0  2  0  0  0  0  0  0  0  0  0
   -1.0148   -1.4646    0.0423 C   0  0  1  0  0  0  0  0  0  0  0  0
   -2.0262   -0.3307   -0.0355 C   0  0  0  0  0  0  0  0  0  0  0  0
    0.4160   -0.4743   -1.2060 H   0  0  0  0  0  0  0  0  0  0  0  0
    1.3317   -2.7077    0.7030 H   0  0  0  0  0  0  0  0  0  0  0  0
    2.9880   -1.1603   -1.3520 H   0  0  0  0  0  0  0  0  0  0  0  0
    4.0843   -0.0334    0.5374 H   0  0  0  0  0  0  0  0  0  0  0  0
    2.1181    1.2488    1.5305 H   0  0  0  0  0  0  0  0  0  0  0  0
   -1.0817   -1.9499    1.0235 H   0  0  0  0  0  0  0  0  0  0  0  0
   -1.7927    0.4552    0.6885 H   0  0  0  0  0  0  0  0  0  0  0  0
   -2.0377    0.0992   -1.0426 H   0  0  0  0  0  0  0  0  0  0  0  0
    1.2200   -2.4609   -2.1312 H   0  0  0  0  0  0  0  0  0  0  0  0
    4.6779   -2.2080   -0.2575 H   0  0  0  0  0  0  0  0  0  0  0  0
    3.3119   -0.3345    2.6415 H   0  0  0  0  0  0  0  0  0  0  0  0
   -2.2569   -2.7292   -0.7743 H   0  0  0  0  0  0  0  0  0  0  0  0
    2.4222    4.4877    0.9445 H   0  0  0  0  0  0  0  0  0  0  0  0
   -0.3865    3.6449    0.0789 H   0  0  0  0  0  0  0  0  0  0  0  0
   -4.7491    2.0318    1.4914 H   0  0  0  0  0  0  0  0  0  0  0  0
   -5.1700    1.5112   -1.4908 H   0  0  0  0  0  0  0  0  0  0  0  0
  1  6  1  0  0  0  0
  1 10  1  0  0  0  0
  1 11  1  0  0  0  0
  1 12  2  0  0  0  0
  2  9  1  0  0  0  0
  2 13  1  0  0  0  0
  2 14  1  0  0  0  0
  2 15  2  0  0  0  0
  3 16  1  0  0  0  0
  3 20  1  0  0  0  0
  4 17  1  0  0  0  0
  4 31  1  0  0  0  0
  5 18  1  0  0  0  0
  5 32  1  0  0  0  0
  6 20  1  0  0  0  0
  7 19  1  0  0  0  0
  7 33  1  0  0  0  0
  8 21  1  0  0  0  0
  8 34  1  0  0  0  0
  9 22  1  0  0  0  0
 10 35  1  0  0  0  0
 11 36  1  0  0  0  0
 13 37  1  0  0  0  0
 14 38  1  0  0  0  0
 16 17  1  0  0  0  0
 16 21  1  0  0  0  0
 16 23  1  0  0  0  0
 17 18  1  0  0  0  0
 17 24  1  0  0  0  0
 18 19  1  0  0  0  0
 18 25  1  0  0  0  0
 19 20  1  0  0  0  0
 19 26  1  0  0  0  0
 20 27  1  0  0  0  0
 21 22  1  0  0  0  0
 21 28  1  0  0  0  0
 22 29  1  0  0  0  0
 22 30  1  0  0  0  0
M  END
> <PUBCHEM_COMPOUND_CID>
46906052

> <PUBCHEM_CONFORMER_RMSD>
0.8

> <PUBCHEM_CONFORMER_DIVERSEORDER>
1
21
46
12
25
48
19
43
35
18
26
9
29
5
23
4
30
49
38
6
39
34
37
40
2
3
33
22
24
47
11
8
45
7
32
41
13
14
31
17
10
42
27
16
20
36
15
28
44

> <PUBCHEM_MMFF94_PARTIAL_CHARGES>
30
1 1.51
10 -0.77
11 -0.77
12 -0.7
13 -0.77
14 -0.77
15 -0.7
16 0.28
17 0.28
18 0.28
19 0.28
2 1.51
20 0.56
21 0.28
22 0.28
3 -0.56
31 0.4
32 0.4
33 0.4
34 0.4
35 0.5
36 0.5
37 0.5
38 0.5
4 -0.68
5 -0.68
6 -0.55
7 -0.68
8 -0.68
9 -0.55

> <PUBCHEM_EFFECTIVE_ROTOR_COUNT>
7.2

> <PUBCHEM_PHARMACOPHORE_FEATURES>
18
1 10 acceptor
1 11 acceptor
1 12 acceptor
1 13 acceptor
1 14 acceptor
1 15 acceptor
1 3 acceptor
1 4 acceptor
1 4 donor
1 5 acceptor
1 5 donor
1 7 acceptor
1 7 donor
1 8 acceptor
1 8 donor
4 1 10 11 12 anion
4 2 13 14 15 anion
6 3 16 17 18 19 20 rings

> <PUBCHEM_HEAVY_ATOM_COUNT>
22

> <PUBCHEM_ATOM_DEF_STEREO_COUNT>
6

> <PUBCHEM_ATOM_UDEF_STEREO_COUNT>
0

> <PUBCHEM_BOND_DEF_STEREO_COUNT>
0

> <PUBCHEM_BOND_UDEF_STEREO_COUNT>
0

> <PUBCHEM_ISOTOPIC_ATOM_COUNT>
0

> <PUBCHEM_COMPONENT_COUNT>
1

> <PUBCHEM_CACTVS_TAUTO_COUNT>
1

> <PUBCHEM_CONFORMER_ID>
02CBBAC400000001

> <PUBCHEM_MMFF94_ENERGY>
-15.2949

> <PUBCHEM_FEATURE_SELFOVERLAP>
91.457

> <PUBCHEM_SHAPE_FINGERPRINT>
10366900 7 17489580199781596531
10382601 240 17916035555486138408
108634 29 17693678307954364053
116883 192 18192991749585245100
12173636 292 17472137280698068398
12403259 327 17704075096622691995
12422481 6 18125755359902265336
12617007 42 18262221318265233270
12788726 201 17912926373084510882
13140716 1 18338524010417343554
13583140 156 17774737423827989179
14022347 108 18270112543436039946
14790565 3 18267017255211533180
15003188 100 18270418186731451661
15081414 286 18335700576595583776
15420108 30 18046927982587908080
1601671 61 18410292506512814892
17134986 127 18194392295539441260
17357779 13 18120668077849066965
17980427 23 17898036571645417082
18785283 64 18271521996719221837
20671657 1 18335978688480948517
20739085 24 18337103579117968898
21285901 2 17898560141202639718
21524375 3 17407128660275144256
22149856 69 17968084276426071179
23558518 356 17910401584648435610
23559900 14 18407757036841702251
2748010 2 17903646515929871822
3060560 45 18334568023847703670
474 4 18410858724678100179
5283268 108 18340205314041108912
5939293 188 18411987948836667872
7364860 26 18337389349062118344
7495541 125 18201427091341086563
7832392 63 18265053526863258148
81228 2 17979062014173361656
9971528 1 18261680371265758178

> <PUBCHEM_SHAPE_MULTIPOLES>
384.15
8.39
4.04
1.21
14.55
3.15
-0.04
-0.24
-1.57
-4.47
1.47
-0.41
0.24
-0.44

> <PUBCHEM_SHAPE_SELFOVERLAP>
745.663

> <PUBCHEM_SHAPE_VOLUME>
232.5

> <PUBCHEM_COORDINATE_TYPE>
2
5
10

$$$$

