441803
  -OEChem-07051212563D

 63 66  0     1  0  0  0  0  0999 V2000
   -0.4396    2.7197   -0.5496 O   0  0  0  0  0  0  0  0  0  0  0  0
   -0.2634   -2.6492   -0.5729 O   0  0  0  0  0  0  0  0  0  0  0  0
   -3.6695   -0.8818    1.3599 O   0  0  0  0  0  0  0  0  0  0  0  0
   -2.9978   -2.8267   -0.4807 O   0  0  0  0  0  0  0  0  0  0  0  0
   -1.6500    3.5485   -2.3662 O   0  0  0  0  0  0  0  0  0  0  0  0
    1.6722   -1.4157   -1.7028 O   0  0  0  0  0  0  0  0  0  0  0  0
    4.3788   -1.6780   -1.2875 O   0  0  0  0  0  0  0  0  0  0  0  0
   -1.1504    0.8141    0.8452 C   0  0  2  0  0  0  0  0  0  0  0  0
   -0.2721   -0.2509    0.0705 C   0  0  1  0  0  0  0  0  0  0  0  0
    1.2728   -0.2573    0.4395 C   0  0  1  0  0  0  0  0  0  0  0  0
   -2.5761    0.9102    0.1546 C   0  0  2  0  0  0  0  0  0  0  0  0
   -0.4721    2.2084    0.7880 C   0  0  1  0  0  0  0  0  0  0  0  0
    1.8418    1.2072    0.4819 C   0  0  1  0  0  0  0  0  0  0  0  0
   -1.0019   -1.6321    0.1002 C   0  0  1  0  0  0  0  0  0  0  0  0
   -3.3014   -0.4674    0.0355 C   0  0  1  0  0  0  0  0  0  0  0  0
    0.9765    2.1839    1.2857 C   0  0  0  0  0  0  0  0  0  0  0  0
   -2.3795   -1.5388   -0.5774 C   0  0  2  0  0  0  0  0  0  0  0  0
   -2.4957    1.6533   -1.1948 C   0  0  0  0  0  0  0  0  0  0  0  0
   -1.3550    0.4772    2.3503 C   0  0  0  0  0  0  0  0  0  0  0  0
    3.3357    1.2361    0.9241 C   0  0  1  0  0  0  0  0  0  0  0  0
    1.5386   -1.0580    1.7334 C   0  0  0  0  0  0  0  0  0  0  0  0
    2.1360   -0.8795   -0.6991 C   0  0  0  0  0  0  0  0  0  0  0  0
   -1.7372    2.9661   -1.0691 C   0  0  1  0  0  0  0  0  0  0  0  0
   -4.6277   -0.3650   -0.7357 C   0  0  0  0  0  0  0  0  0  0  0  0
    4.1448    0.1896    0.1908 C   0  0  0  0  0  0  0  0  0  0  0  0
    3.6204   -0.7752   -0.5784 C   0  0  0  0  0  0  0  0  0  0  0  0
    3.9822    2.6086    0.6943 C   0  0  0  0  0  0  0  0  0  0  0  0
   -3.1589   -3.2160    0.8725 C   0  0  0  0  0  0  0  0  0  0  0  0
    4.6485   -2.8313   -0.5121 C   0  0  0  0  0  0  0  0  0  0  0  0
   -0.2749    0.0518   -0.9868 H   0  0  0  0  0  0  0  0  0  0  0  0
   -3.1949    1.5468    0.8059 H   0  0  0  0  0  0  0  0  0  0  0  0
   -1.0270    2.9255    1.4086 H   0  0  0  0  0  0  0  0  0  0  0  0
    1.8257    1.5810   -0.5558 H   0  0  0  0  0  0  0  0  0  0  0  0
   -1.0155   -1.9577    1.1335 H   0  0  0  0  0  0  0  0  0  0  0  0
    1.0372    1.9572    2.3539 H   0  0  0  0  0  0  0  0  0  0  0  0
    1.3752    3.1982    1.1667 H   0  0  0  0  0  0  0  0  0  0  0  0
   -2.2432   -1.3491   -1.6489 H   0  0  0  0  0  0  0  0  0  0  0  0
   -2.0183    1.0170   -1.9492 H   0  0  0  0  0  0  0  0  0  0  0  0
   -3.4976    1.8742   -1.5807 H   0  0  0  0  0  0  0  0  0  0  0  0
   -0.4771    0.6809    2.9631 H   0  0  0  0  0  0  0  0  0  0  0  0
   -2.1540    1.0970    2.7757 H   0  0  0  0  0  0  0  0  0  0  0  0
   -1.6206   -0.5629    2.5392 H   0  0  0  0  0  0  0  0  0  0  0  0
    3.4047    1.0191    1.9976 H   0  0  0  0  0  0  0  0  0  0  0  0
    2.6036   -1.1918    1.9458 H   0  0  0  0  0  0  0  0  0  0  0  0
    1.1122   -0.5830    2.6158 H   0  0  0  0  0  0  0  0  0  0  0  0
    1.1409   -2.0752    1.6666 H   0  0  0  0  0  0  0  0  0  0  0  0
   -2.2659    3.6778   -0.4252 H   0  0  0  0  0  0  0  0  0  0  0  0
   -5.2182   -1.2819   -0.6250 H   0  0  0  0  0  0  0  0  0  0  0  0
   -5.2485    0.4463   -0.3386 H   0  0  0  0  0  0  0  0  0  0  0  0
   -4.4712   -0.1951   -1.8053 H   0  0  0  0  0  0  0  0  0  0  0  0
    5.2267    0.2370    0.2946 H   0  0  0  0  0  0  0  0  0  0  0  0
   -0.1804   -2.3886   -1.5059 H   0  0  0  0  0  0  0  0  0  0  0  0
   -4.2658   -0.2104    1.7332 H   0  0  0  0  0  0  0  0  0  0  0  0
    3.5425    3.3711    1.3439 H   0  0  0  0  0  0  0  0  0  0  0  0
    5.0545    2.5837    0.9211 H   0  0  0  0  0  0  0  0  0  0  0  0
    3.8681    2.9363   -0.3450 H   0  0  0  0  0  0  0  0  0  0  0  0
   -1.5107    2.8399   -3.0163 H   0  0  0  0  0  0  0  0  0  0  0  0
   -4.2169   -3.1282    1.1456 H   0  0  0  0  0  0  0  0  0  0  0  0
   -2.5323   -2.8052    1.6609 H   0  0  0  0  0  0  0  0  0  0  0  0
   -2.9643   -4.2954    0.8946 H   0  0  0  0  0  0  0  0  0  0  0  0
    5.2359   -3.5236   -1.1226 H   0  0  0  0  0  0  0  0  0  0  0  0
    3.7223   -3.3391   -0.2206 H   0  0  0  0  0  0  0  0  0  0  0  0
    5.2369   -2.5824    0.3780 H   0  0  0  0  0  0  0  0  0  0  0  0
  1 12  1  0  0  0  0
  1 23  1  0  0  0  0
  2 14  1  0  0  0  0
  2 52  1  0  0  0  0
  3 15  1  0  0  0  0
  3 53  1  0  0  0  0
  4 17  1  0  0  0  0
  4 28  1  0  0  0  0
  5 23  1  0  0  0  0
  5 57  1  0  0  0  0
  6 22  2  0  0  0  0
  7 26  1  0  0  0  0
  7 29  1  0  0  0  0
  8  9  1  0  0  0  0
  8 11  1  0  0  0  0
  8 12  1  0  0  0  0
  8 19  1  0  0  0  0
  9 10  1  0  0  0  0
  9 14  1  0  0  0  0
  9 30  1  0  0  0  0
 10 13  1  0  0  0  0
 10 21  1  0  0  0  0
 10 22  1  0  0  0  0
 11 15  1  0  0  0  0
 11 18  1  0  0  0  0
 11 31  1  0  0  0  0
 12 16  1  0  0  0  0
 12 32  1  0  0  0  0
 13 16  1  0  0  0  0
 13 20  1  0  0  0  0
 13 33  1  0  0  0  0
 14 17  1  0  0  0  0
 14 34  1  0  0  0  0
 15 17  1  0  0  0  0
 15 24  1  0  0  0  0
 16 35  1  0  0  0  0
 16 36  1  0  0  0  0
 17 37  1  0  0  0  0
 18 23  1  0  0  0  0
 18 38  1  0  0  0  0
 18 39  1  0  0  0  0
 19 40  1  0  0  0  0
 19 41  1  0  0  0  0
 19 42  1  0  0  0  0
 20 25  1  0  0  0  0
 20 27  1  0  0  0  0
 20 43  1  0  0  0  0
 21 44  1  0  0  0  0
 21 45  1  0  0  0  0
 21 46  1  0  0  0  0
 22 26  1  0  0  0  0
 23 47  1  0  0  0  0
 24 48  1  0  0  0  0
 24 49  1  0  0  0  0
 24 50  1  0  0  0  0
 25 26  2  0  0  0  0
 25 51  1  0  0  0  0
 27 54  1  0  0  0  0
 27 55  1  0  0  0  0
 27 56  1  0  0  0  0
 28 58  1  0  0  0  0
 28 59  1  0  0  0  0
 28 60  1  0  0  0  0
 29 61  1  0  0  0  0
 29 62  1  0  0  0  0
 29 63  1  0  0  0  0
M  END
> <PUBCHEM_COMPOUND_CID>
441803

> <PUBCHEM_CONFORMER_RMSD>
0.8

> <PUBCHEM_CONFORMER_DIVERSEORDER>
1

> <PUBCHEM_MMFF94_PARTIAL_CHARGES>
23
1 -0.56
10 0.06
12 0.28
14 0.28
15 0.28
17 0.28
2 -0.68
20 0.14
22 0.49
23 0.56
25 -0.29
26 0.09
28 0.28
29 0.28
3 -0.68
4 -0.56
5 -0.68
51 0.15
52 0.4
53 0.4
57 0.4
6 -0.57
7 -0.36

> <PUBCHEM_EFFECTIVE_ROTOR_COUNT>
3.6

> <PUBCHEM_PHARMACOPHORE_FEATURES>
14
1 1 acceptor
1 2 acceptor
1 2 donor
1 3 acceptor
1 3 donor
1 4 acceptor
1 5 acceptor
1 5 donor
1 6 acceptor
1 7 acceptor
6 1 8 11 12 18 23 rings
6 10 13 20 22 25 26 rings
6 8 9 10 12 13 16 rings
6 8 9 11 14 15 17 rings

> <PUBCHEM_HEAVY_ATOM_COUNT>
29

> <PUBCHEM_ATOM_DEF_STEREO_COUNT>
10

> <PUBCHEM_ATOM_UDEF_STEREO_COUNT>
1

> <PUBCHEM_BOND_DEF_STEREO_COUNT>
0

> <PUBCHEM_BOND_UDEF_STEREO_COUNT>
0

> <PUBCHEM_ISOTOPIC_ATOM_COUNT>
0

> <PUBCHEM_COMPONENT_COUNT>
1

> <PUBCHEM_CACTVS_TAUTO_COUNT>
3

> <PUBCHEM_CONFORMER_ID>
0006BDCB00000001

> <PUBCHEM_MMFF94_ENERGY>
142.6894

> <PUBCHEM_FEATURE_SELFOVERLAP>
71.275

> <PUBCHEM_SHAPE_FINGERPRINT>
10165383 225 17765707306126915493
10498660 4 18270974461540530463
10863032 1 18187362073830746472
1100329 8 17112124699358679699
11578080 2 17487086507341248340
11640471 11 16055763233726943909
12403259 226 18409166623432556550
12403814 3 18340212886348240945
12422481 6 18263061306778972315
12633257 1 17968079975965834626
12714826 92 18341328989160088937
13140716 1 18261661636497308266
13224815 77 17530971267574477946
13402501 40 18334579061692023695
13544653 18 18114460037862321211
14223421 5 18335987476100041760
14251751 93 18127405868283151678
14790565 3 18265048205974635929
14863182 85 16893713840220876007
15219462 58 17274827952378991264
15961568 22 18058170514736495244
16752209 62 18198073666480063203
16945 1 17846495950338892425
17349148 13 17531813592408488094
17357779 13 18336563633178287837
17492 54 17552921732643195940
1813 80 18128809742868169787
20600515 1 18263061298041279197
20691752 17 18342735169995436706
20775438 99 17685263552277537623
20905425 154 18337114458333582484
21285901 2 18338811034808396413
221490 88 18334570214439442194
22182313 1 18335999639521705816
22393880 68 18127137587535456876
22907989 373 18200582726197670860
23419403 2 17532115875936979608
23557571 272 18341905073145054965
23559900 14 18260833747929542586
23566358 2 18335427885080285572
238 59 17901694848214742220
2748010 2 18335431135768953657
3380486 145 18263355893742100769
350125 39 18335412517402372928
46194498 28 17045744477172669359
5104073 3 18260545585103469802
6287921 2 17759802542090695809
9709674 26 18335424573301674212

> <PUBCHEM_SHAPE_MULTIPOLES>
555.72
7.78
3.86
1.62
3.8
0.38
0.09
-3.47
-1.08
-0.47
-1.09
-0.36
0.56
2.06

> <PUBCHEM_SHAPE_SELFOVERLAP>
1187.529

> <PUBCHEM_SHAPE_VOLUME>
301.5

> <PUBCHEM_COORDINATE_TYPE>
2
5
10

$$$$

