23724607
  -OEChem-07051213083D

 29 29  0     1  0  0  0  0  0999 V2000
    2.9749    0.0087   -0.1253 P   0  0  0  0  0  0  0  0  0  0  0  0
   -0.2112    0.8644   -0.2839 O   0  0  0  0  0  0  0  0  0  0  0  0
   -2.8261   -2.3216    0.0891 O   0  0  0  0  0  0  0  0  0  0  0  0
    1.5810   -0.5729   -0.6946 O   0  0  0  0  0  0  0  0  0  0  0  0
   -2.7867    0.0998   -1.2428 O   0  0  0  0  0  0  0  0  0  0  0  0
    0.0640   -2.7306    0.3464 O   0  0  0  0  0  0  0  0  0  0  0  0
   -0.8715    3.4594    0.3687 O   0  0  0  0  0  0  0  0  0  0  0  0
    3.0666   -0.6012    1.3696 O   0  0  0  0  0  0  0  0  0  0  0  0
    2.6285    1.5676    0.1297 O   0  0  0  0  0  0  0  0  0  0  0  0
    4.1728   -0.2404   -0.9945 O   0  0  0  0  0  0  0  0  0  0  0  0
   -1.8933   -1.3244    0.4957 C   0  0  2  0  0  0  0  0  0  0  0  0
   -2.4573    0.0534    0.1473 C   0  0  1  0  0  0  0  0  0  0  0  0
   -0.5408   -1.5507   -0.1820 C   0  0  1  0  0  0  0  0  0  0  0  0
   -1.4134    1.1340    0.4477 C   0  0  2  0  0  0  0  0  0  0  0  0
    0.4000   -0.3717    0.0815 C   0  0  2  0  0  0  0  0  0  0  0  0
   -1.8875    2.5262    0.0475 C   0  0  0  0  0  0  0  0  0  0  0  0
   -1.7795   -1.4180    1.5829 H   0  0  0  0  0  0  0  0  0  0  0  0
   -3.3852    0.2357    0.6999 H   0  0  0  0  0  0  0  0  0  0  0  0
   -0.6681   -1.7207   -1.2571 H   0  0  0  0  0  0  0  0  0  0  0  0
   -1.1626    1.1408    1.5167 H   0  0  0  0  0  0  0  0  0  0  0  0
    0.6659   -0.3358    1.1444 H   0  0  0  0  0  0  0  0  0  0  0  0
   -2.8025    2.7989    0.5822 H   0  0  0  0  0  0  0  0  0  0  0  0
   -2.0633    2.5944   -1.0308 H   0  0  0  0  0  0  0  0  0  0  0  0
   -3.6654   -2.1426    0.5466 H   0  0  0  0  0  0  0  0  0  0  0  0
   -1.9596    0.0900   -1.7533 H   0  0  0  0  0  0  0  0  0  0  0  0
    0.1849   -2.6057    1.3032 H   0  0  0  0  0  0  0  0  0  0  0  0
   -1.1967    4.3383    0.1093 H   0  0  0  0  0  0  0  0  0  0  0  0
    3.8711   -0.4292    1.9038 H   0  0  0  0  0  0  0  0  0  0  0  0
    3.3496    2.1764    0.3970 H   0  0  0  0  0  0  0  0  0  0  0  0
  1  4  1  0  0  0  0
  1  8  1  0  0  0  0
  1  9  1  0  0  0  0
  1 10  2  0  0  0  0
  2 14  1  0  0  0  0
  2 15  1  0  0  0  0
  3 11  1  0  0  0  0
  3 24  1  0  0  0  0
  4 15  1  0  0  0  0
  5 12  1  0  0  0  0
  5 25  1  0  0  0  0
  6 13  1  0  0  0  0
  6 26  1  0  0  0  0
  7 16  1  0  0  0  0
  7 27  1  0  0  0  0
  8 28  1  0  0  0  0
  9 29  1  0  0  0  0
 11 12  1  0  0  0  0
 11 13  1  0  0  0  0
 11 17  1  0  0  0  0
 12 14  1  0  0  0  0
 12 18  1  0  0  0  0
 13 15  1  0  0  0  0
 13 19  1  0  0  0  0
 14 16  1  0  0  0  0
 14 20  1  0  0  0  0
 15 21  1  0  0  0  0
 16 22  1  0  0  0  0
 16 23  1  0  0  0  0
M  END
> <PUBCHEM_COMPOUND_CID>
23724607

> <PUBCHEM_CONFORMER_RMSD>
0.6

> <PUBCHEM_CONFORMER_DIVERSEORDER>
1
9
18
14
10
8
4
3
6
2
17
11
13
16
12
15
7
5

> <PUBCHEM_MMFF94_PARTIAL_CHARGES>
22
1 1.51
10 -0.7
11 0.28
12 0.28
13 0.28
14 0.28
15 0.56
16 0.28
2 -0.56
24 0.4
25 0.4
26 0.4
27 0.4
28 0.5
29 0.5
3 -0.68
4 -0.55
5 -0.68
6 -0.68
7 -0.68
8 -0.77
9 -0.77

> <PUBCHEM_EFFECTIVE_ROTOR_COUNT>
4.2

> <PUBCHEM_PHARMACOPHORE_FEATURES>
14
1 10 acceptor
1 2 acceptor
1 3 acceptor
1 3 donor
1 5 acceptor
1 5 donor
1 6 acceptor
1 6 donor
1 7 acceptor
1 7 donor
1 8 acceptor
1 9 acceptor
4 1 8 9 10 anion
6 2 11 12 13 14 15 rings

> <PUBCHEM_HEAVY_ATOM_COUNT>
16

> <PUBCHEM_ATOM_DEF_STEREO_COUNT>
5

> <PUBCHEM_ATOM_UDEF_STEREO_COUNT>
0

> <PUBCHEM_BOND_DEF_STEREO_COUNT>
0

> <PUBCHEM_BOND_UDEF_STEREO_COUNT>
0

> <PUBCHEM_ISOTOPIC_ATOM_COUNT>
0

> <PUBCHEM_COMPONENT_COUNT>
1

> <PUBCHEM_CACTVS_TAUTO_COUNT>
1

> <PUBCHEM_CONFORMER_ID>
016A023F00000001

> <PUBCHEM_MMFF94_ENERGY>
4.7748

> <PUBCHEM_FEATURE_SELFOVERLAP>
71.1

> <PUBCHEM_SHAPE_FINGERPRINT>
108231 29 18196086647252902179
12932764 1 17917993867167087006
13140716 1 18411135797223480025
13380535 76 18194407924967505645
13380536 55 18050009097262010541
14614273 12 18200037390200243429
15490181 8 18124316257477669019
15775835 57 17917427657328226286
16945 1 18338796822592684963
193761 8 18050564342107588171
19868273 325 18266456503594707735
20510252 161 18335978692723155536
21061003 4 18265602200735771371
21339142 36 18338519634357482271
21501502 16 18122628519971671690
21524375 3 17831301962257943773
22802520 49 18187632639801599894
2306618 200 18187071893050207770
2334 1 18194683666089016657
23402539 116 18261117344124329487
23559900 14 18335422366210580670
23598294 1 18413386527431994658
2748010 2 18193285100273045289
305870 269 17980759664358317784
7364860 26 17614847743642728975
81228 2 18335974337779402081

> <PUBCHEM_SHAPE_MULTIPOLES>
280.3
5.25
2.95
0.88
4.97
1.26
0
-0.12
-0.59
-2.18
0.44
0.26
-0.07
-0.05

> <PUBCHEM_SHAPE_SELFOVERLAP>
548.092

> <PUBCHEM_SHAPE_VOLUME>
168.8

> <PUBCHEM_COORDINATE_TYPE>
2
5
10

$$$$

