161158
  -OEChem-07051212513D

 25 25  0     1  0  0  0  0  0999 V2000
   -2.3909   -0.6962   -0.2512 O   0  0  0  0  0  0  0  0  0  0  0  0
    1.9238    1.2430   -1.4672 O   0  0  0  0  0  0  0  0  0  0  0  0
    3.5920    1.6830    0.0062 O   0  0  0  0  0  0  0  0  0  0  0  0
   -2.3245   -2.9360   -0.6263 O   0  0  0  0  0  0  0  0  0  0  0  0
   -3.6863    1.5237   -0.2724 O   0  0  0  0  0  0  0  0  0  0  0  0
   -1.9509    2.7925    0.5078 O   0  0  0  0  0  0  0  0  0  0  0  0
    4.0244   -1.0173    0.2574 N   0  0  0  0  0  0  0  0  0  0  0  0
    1.7045   -0.8186    1.0387 C   0  0  0  0  0  0  0  0  0  0  0  0
    2.6814   -0.5774   -0.1175 C   0  0  1  0  0  0  0  0  0  0  0  0
    0.2792   -0.8314    0.5802 C   0  0  0  0  0  0  0  0  0  0  0  0
   -0.4257    0.4265    0.5774 C   0  0  0  0  0  0  0  0  0  0  0  0
   -0.3483   -1.9463    0.1816 C   0  0  0  0  0  0  0  0  0  0  0  0
    2.8031    0.8906   -0.4916 C   0  0  0  0  0  0  0  0  0  0  0  0
   -1.6996    0.4525    0.1739 C   0  0  0  0  0  0  0  0  0  0  0  0
   -1.7580   -1.9101   -0.2634 C   0  0  0  0  0  0  0  0  0  0  0  0
   -2.4243    1.7215    0.1665 C   0  0  0  0  0  0  0  0  0  0  0  0
    1.8485   -0.0766    1.8358 H   0  0  0  0  0  0  0  0  0  0  0  0
    1.9206   -1.7910    1.5044 H   0  0  0  0  0  0  0  0  0  0  0  0
    2.3912   -1.1450   -1.0101 H   0  0  0  0  0  0  0  0  0  0  0  0
    0.0967    1.3177    0.9081 H   0  0  0  0  0  0  0  0  0  0  0  0
    0.1520   -2.9086    0.1693 H   0  0  0  0  0  0  0  0  0  0  0  0
    4.6489   -0.9356   -0.5444 H   0  0  0  0  0  0  0  0  0  0  0  0
    4.0062   -2.0073    0.5001 H   0  0  0  0  0  0  0  0  0  0  0  0
    2.0040    2.1911   -1.7059 H   0  0  0  0  0  0  0  0  0  0  0  0
   -4.2046    2.3564   -0.2909 H   0  0  0  0  0  0  0  0  0  0  0  0
  1 14  1  0  0  0  0
  1 15  1  0  0  0  0
  2 13  1  0  0  0  0
  2 24  1  0  0  0  0
  3 13  2  0  0  0  0
  4 15  2  0  0  0  0
  5 16  1  0  0  0  0
  5 25  1  0  0  0  0
  6 16  2  0  0  0  0
  7  9  1  0  0  0  0
  7 22  1  0  0  0  0
  7 23  1  0  0  0  0
  8  9  1  0  0  0  0
  8 10  1  0  0  0  0
  8 17  1  0  0  0  0
  8 18  1  0  0  0  0
  9 13  1  0  0  0  0
  9 19  1  0  0  0  0
 10 11  1  0  0  0  0
 10 12  2  0  0  0  0
 11 14  2  0  0  0  0
 11 20  1  0  0  0  0
 12 15  1  0  0  0  0
 12 21  1  0  0  0  0
 14 16  1  0  0  0  0
M  END
> <PUBCHEM_COMPOUND_CID>
161158

> <PUBCHEM_CONFORMER_RMSD>
0.6

> <PUBCHEM_CONFORMER_DIVERSEORDER>
1
27
24
12
29
14
9
19
23
28
16
21
15
10
4
18
13
11
30
31
26
8
3
25
17
20
2
5
22
6
7

> <PUBCHEM_MMFF94_PARTIAL_CHARGES>
22
1 -0.23
10 -0.14
11 -0.15
12 -0.14
13 0.66
14 0.09
15 0.71
16 0.71
2 -0.65
20 0.15
21 0.15
22 0.36
23 0.36
24 0.5
25 0.5
3 -0.57
4 -0.57
5 -0.65
6 -0.57
7 -0.99
8 0.14
9 0.33

> <PUBCHEM_EFFECTIVE_ROTOR_COUNT>
4

> <PUBCHEM_PHARMACOPHORE_FEATURES>
10
1 2 acceptor
1 3 acceptor
1 4 acceptor
1 5 acceptor
1 6 acceptor
1 7 cation
1 7 donor
3 2 3 13 anion
3 5 6 16 anion
6 1 10 11 12 14 15 rings

> <PUBCHEM_HEAVY_ATOM_COUNT>
16

> <PUBCHEM_ATOM_DEF_STEREO_COUNT>
1

> <PUBCHEM_ATOM_UDEF_STEREO_COUNT>
0

> <PUBCHEM_BOND_DEF_STEREO_COUNT>
0

> <PUBCHEM_BOND_UDEF_STEREO_COUNT>
0

> <PUBCHEM_ISOTOPIC_ATOM_COUNT>
0

> <PUBCHEM_COMPONENT_COUNT>
1

> <PUBCHEM_CACTVS_TAUTO_COUNT>
1

> <PUBCHEM_CONFORMER_ID>
0002758600000001

> <PUBCHEM_MMFF94_ENERGY>
32.8056

> <PUBCHEM_FEATURE_SELFOVERLAP>
50.856

> <PUBCHEM_SHAPE_FINGERPRINT>
12173636 292 18336552702323118853
12491281 212 18271798034451783080
13538477 17 18341341049417881995
15442244 35 18341335578262569002
15775835 57 18272363196271501644
16945 1 18335433369394950035
17134986 127 18194964277708813629
20510252 161 18335979766428160283
20645476 183 18340492286839975235
20653085 51 18341322383595534706
20671657 1 18196652019578466834
21501502 16 18412826850697326482
21524375 3 18199181974274500129
22094290 62 18270399532949609890
23402539 116 18189066428728807317
23419403 2 16828472268686375768
23557571 272 18115582639297324132
23558518 356 18130500834606988786
23559900 14 18041284370197407242
23598291 2 18200605803420968250
2748010 2 15165745164284764635
3060560 45 17979075212476071391
353137 74 18129107714355588298
6992083 37 18272651302709028092
7164475 11 18337957796421022734
7364860 26 17615967055343864205
7832392 63 18342175587744638100
81228 2 18263375689673921771
9939556 21 18413108377071427826
9981440 41 17911520888123575144

> <PUBCHEM_SHAPE_MULTIPOLES>
289.08
5.89
2.77
0.88
3
0.21
0.06
-1.84
0.59
-2.16
0.24
0.27
-0.04
-0.87

> <PUBCHEM_SHAPE_SELFOVERLAP>
602.396

> <PUBCHEM_SHAPE_VOLUME>
161.6

> <PUBCHEM_COORDINATE_TYPE>
2
5
10

$$$$

