441805
  -OEChem-07051212562D

 65 71  0     1  0  0  0  0  0999 V2000
    5.4275   -1.7756    0.0000 O   0  0  0  0  0  0  0  0  0  0  0  0
    3.3389    1.8951    0.0000 O   0  0  0  0  0  0  0  0  0  0  0  0
    8.1221   -2.3172    0.0000 O   0  0  0  0  0  0  0  0  0  0  0  0
    4.5896   -2.3034    0.0000 O   0  0  0  0  0  0  0  0  0  0  0  0
    6.1435    2.0702    0.0000 O   0  0  0  0  0  0  0  0  0  0  0  0
    2.8079   -1.2929    0.0000 O   0  0  0  0  0  0  0  0  0  0  0  0
    7.2161   -3.8380    0.0000 O   0  0  0  0  0  0  0  0  0  0  0  0
    6.0560    3.8380    0.0000 O   0  0  0  0  0  0  0  0  0  0  0  0
   10.5529   -0.4109    0.0000 O   0  0  0  0  0  0  0  0  0  0  0  0
    6.3380   -1.2688    0.0000 C   0  0  1  0  0  0  0  0  0  0  0  0
    5.4720   -0.7688    0.0000 C   0  0  1  0  0  0  0  0  0  0  0  0
    5.4720    0.2312    0.0000 C   0  0  1  0  0  0  0  0  0  0  0  0
    7.2040   -0.7688    0.0000 C   0  0  1  0  0  0  0  0  0  0  0  0
    4.5780    0.7659    0.0000 C   0  0  2  0  0  0  0  0  0  0  0  0
    6.3220   -2.3103    0.0000 C   0  0  1  0  0  0  0  0  0  0  0  0
    3.6720    0.2520    0.0000 C   0  0  2  0  0  0  0  0  0  0  0  0
    6.3380    0.7312    0.0000 C   0  0  0  0  0  0  0  0  0  0  0  0
    4.5780   -1.3034    0.0000 C   0  0  2  0  0  0  0  0  0  0  0  0
    7.2040    0.2312    0.0000 C   0  0  0  0  0  0  0  0  0  0  0  0
    4.3680    1.7798    0.0000 C   0  0  2  0  0  0  0  0  0  0  0  0
    8.1140   -1.2756    0.0000 C   0  0  2  0  0  0  0  0  0  0  0  0
    6.1221   -1.8945    0.0000 C   0  0  0  0  0  0  0  0  0  0  0  0
    2.9097    0.9528    0.0000 C   0  0  0  0  0  0  0  0  0  0  0  0
    3.6720   -0.7896    0.0000 C   0  0  0  0  0  0  0  0  0  0  0  0
    5.6374    0.9684    0.0000 C   0  0  0  0  0  0  0  0  0  0  0  0
    8.0701   -0.2688    0.0000 C   0  0  0  0  0  0  0  0  0  0  0  0
    7.2200   -2.8380    0.0000 C   0  0  0  0  0  0  0  0  0  0  0  0
    4.6907    2.8090    0.0000 C   0  0  0  0  0  0  0  0  0  0  0  0
    8.9742   -0.7656    0.0000 C   0  0  0  0  0  0  0  0  0  0  0  0
    2.0000    1.3681    0.0000 C   0  0  0  0  0  0  0  0  0  0  0  0
    2.2336    0.2160    0.0000 C   0  0  0  0  0  0  0  0  0  0  0  0
    5.5855    2.9557    0.0000 C   0  0  0  0  0  0  0  0  0  0  0  0
    9.0672    0.2300    0.0000 C   0  0  0  0  0  0  0  0  0  0  0  0
    9.8924   -1.1618    0.0000 C   0  0  0  0  0  0  0  0  0  0  0  0
   10.0429    0.4492    0.0000 C   0  0  0  0  0  0  0  0  0  0  0  0
    6.2081   -0.1938    0.0000 H   0  0  0  0  0  0  0  0  0  0  0  0
    5.8886   -3.0415    0.0000 H   0  0  0  0  0  0  0  0  0  0  0  0
    2.8937   -0.0897    0.0000 H   0  0  0  0  0  0  0  0  0  0  0  0
    6.7366    1.2062    0.0000 H   0  0  0  0  0  0  0  0  0  0  0  0
    5.9395    1.2062    0.0000 H   0  0  0  0  0  0  0  0  0  0  0  0
    4.0441   -1.6186    0.0000 H   0  0  0  0  0  0  0  0  0  0  0  0
    7.8146    0.1236    0.0000 H   0  0  0  0  0  0  0  0  0  0  0  0
    7.4161    0.8138    0.0000 H   0  0  0  0  0  0  0  0  0  0  0  0
    3.9038    2.4919    0.0000 H   0  0  0  0  0  0  0  0  0  0  0  0
    8.6539   -1.5804    0.0000 H   0  0  0  0  0  0  0  0  0  0  0  0
    5.5852   -2.2046    0.0000 H   0  0  0  0  0  0  0  0  0  0  0  0
    6.4322   -2.4314    0.0000 H   0  0  0  0  0  0  0  0  0  0  0  0
    6.6590   -1.5845    0.0000 H   0  0  0  0  0  0  0  0  0  0  0  0
    5.6265    0.3485    0.0000 H   0  0  0  0  0  0  0  0  0  0  0  0
    6.2419    0.8307    0.0000 H   0  0  0  0  0  0  0  0  0  0  0  0
    8.3801   -0.8057    0.0000 H   0  0  0  0  0  0  0  0  0  0  0  0
    8.6070    0.0412    0.0000 H   0  0  0  0  0  0  0  0  0  0  0  0
    7.7601    0.2682    0.0000 H   0  0  0  0  0  0  0  0  0  0  0  0
    4.6863    3.4290    0.0000 H   0  0  0  0  0  0  0  0  0  0  0  0
    4.0775    2.9006    0.0000 H   0  0  0  0  0  0  0  0  0  0  0  0
    2.2575    1.9321    0.0000 H   0  0  0  0  0  0  0  0  0  0  0  0
    1.4360    1.6256    0.0000 H   0  0  0  0  0  0  0  0  0  0  0  0
    1.7425    0.8041    0.0000 H   0  0  0  0  0  0  0  0  0  0  0  0
    1.7767    0.6352    0.0000 H   0  0  0  0  0  0  0  0  0  0  0  0
    1.8144   -0.2408    0.0000 H   0  0  0  0  0  0  0  0  0  0  0  0
    2.6904   -0.2032    0.0000 H   0  0  0  0  0  0  0  0  0  0  0  0
    4.0563   -2.6196    0.0000 H   0  0  0  0  0  0  0  0  0  0  0  0
    8.6017    0.6395    0.0000 H   0  0  0  0  0  0  0  0  0  0  0  0
   10.0283   -1.7667    0.0000 H   0  0  0  0  0  0  0  0  0  0  0  0
   10.2885    1.0185    0.0000 H   0  0  0  0  0  0  0  0  0  0  0  0
 10  1  1  1  0  0  0
  1 15  1  0  0  0  0
  2 20  1  0  0  0  0
  2 23  1  0  0  0  0
  3 21  1  0  0  0  0
  3 27  1  0  0  0  0
 18  4  1  1  0  0  0
  4 62  1  0  0  0  0
  5 25  1  0  0  0  0
  5 32  1  0  0  0  0
  6 24  2  0  0  0  0
  7 27  2  0  0  0  0
  8 32  2  0  0  0  0
  9 34  1  0  0  0  0
  9 35  1  0  0  0  0
 10 11  1  0  0  0  0
 10 13  1  0  0  0  0
 10 15  1  0  0  0  0
 11 12  1  0  0  0  0
 11 18  1  0  0  0  0
 11 22  1  1  0  0  0
 12 14  1  0  0  0  0
 12 17  1  0  0  0  0
 12 36  1  6  0  0  0
 13 19  1  0  0  0  0
 13 21  1  0  0  0  0
 13 26  1  6  0  0  0
 14 16  1  0  0  0  0
 14 20  1  0  0  0  0
 14 25  1  1  0  0  0
 15 27  1  0  0  0  0
 15 37  1  6  0  0  0
 16 23  1  0  0  0  0
 16 24  1  0  0  0  0
 16 38  1  6  0  0  0
 17 19  1  0  0  0  0
 17 39  1  0  0  0  0
 17 40  1  0  0  0  0
 18 24  1  0  0  0  0
 18 41  1  0  0  0  0
 19 42  1  0  0  0  0
 19 43  1  0  0  0  0
 20 28  1  0  0  0  0
 20 44  1  6  0  0  0
 21 29  1  6  0  0  0
 21 45  1  0  0  0  0
 22 46  1  0  0  0  0
 22 47  1  0  0  0  0
 22 48  1  0  0  0  0
 23 30  1  0  0  0  0
 23 31  1  0  0  0  0
 25 49  1  0  0  0  0
 25 50  1  0  0  0  0
 26 51  1  0  0  0  0
 26 52  1  0  0  0  0
 26 53  1  0  0  0  0
 28 32  1  0  0  0  0
 28 54  1  0  0  0  0
 28 55  1  0  0  0  0
 29 33  1  0  0  0  0
 29 34  2  0  0  0  0
 30 56  1  0  0  0  0
 30 57  1  0  0  0  0
 30 58  1  0  0  0  0
 31 59  1  0  0  0  0
 31 60  1  0  0  0  0
 31 61  1  0  0  0  0
 33 35  2  0  0  0  0
 33 63  1  0  0  0  0
 34 64  1  0  0  0  0
 35 65  1  0  0  0  0
M  END
> <PUBCHEM_COMPOUND_CID>
441805

> <PUBCHEM_COMPOUND_CANONICALIZED>
1

> <PUBCHEM_CACTVS_COMPLEXITY>
1040

> <PUBCHEM_CACTVS_HBOND_ACCEPTOR>
9

> <PUBCHEM_CACTVS_HBOND_DONOR>
1

> <PUBCHEM_CACTVS_ROTATABLE_BOND>
1

> <PUBCHEM_CACTVS_SUBSKEYS>
AAADceB4PAAAAAAAAAAAAAAAEgAAASJAAAA0aIEABIAAAEjRgAAAGgAACAAAD1SgmAIyDIAABkCIAqjSiAICCAAkIAAIiAFGCMgNNxYENQ6CWSCl4BEKKYPK7PzPgAAAAAAAAADAAAYAADAAAAAAAAAAAA==

> <PUBCHEM_IUPAC_INCHI>
InChI=1S/C26H30O9/c1-22(2)17-16(28)18(29)24(4)13(25(17)11-32-15(27)9-14(25)34-22)5-7-23(3)19(12-6-8-31-10-12)33-21(30)20-26(23,24)35-20/h6,8,10,13-14,17-20,29H,5,7,9,11H2,1-4H3/t13-,14-,17-,18-,19-,20+,23-,24-,25-,26+/m0/s1

> <PUBCHEM_IUPAC_INCHIKEY>
YZMKFMIZNSOPSN-XGTMLCIVSA-N

> <PUBCHEM_XLOGP3_AA>
1.3

> <PUBCHEM_EXACT_MASS>
486.188983

> <PUBCHEM_MOLECULAR_FORMULA>
C26H30O9

> <PUBCHEM_MOLECULAR_WEIGHT>
486.511

> <PUBCHEM_OPENEYE_CAN_SMILES>
CC1(C2C(=O)C(C3(C(C24COC(=O)CC4O1)CCC5(C36C(O6)C(=O)OC5C7=COC=C7)C)C)O)C

> <PUBCHEM_OPENEYE_ISO_SMILES>
C[C@@]12CC[C@H]3[C@]([C@@]14[C@H](O4)C(=O)O[C@H]2C5=COC=C5)([C@H](C(=O)[C@@H]6[C@@]37COC(=O)C[C@@H]7OC6(C)C)O)C

> <PUBCHEM_CACTVS_TPSA>
125

> <PUBCHEM_MONOISOTOPIC_WEIGHT>
486.188983

> <PUBCHEM_TOTAL_CHARGE>
0

> <PUBCHEM_HEAVY_ATOM_COUNT>
35

> <PUBCHEM_ATOM_DEF_STEREO_COUNT>
10

> <PUBCHEM_ATOM_UDEF_STEREO_COUNT>
0

> <PUBCHEM_BOND_DEF_STEREO_COUNT>
0

> <PUBCHEM_BOND_UDEF_STEREO_COUNT>
0

> <PUBCHEM_ISOTOPIC_ATOM_COUNT>
0

> <PUBCHEM_COMPONENT_COUNT>
1

> <PUBCHEM_CACTVS_TAUTO_COUNT>
16

> <PUBCHEM_COORDINATE_TYPE>
1
5
255

> <PUBCHEM_BONDANNOTATIONS>
10  1  5
11  22  5
12  36  6
13  26  6
14  25  5
15  37  6
16  38  6
20  44  6
21  29  6
29  33  8
29  34  8
33  35  8
18  4  5
9  34  8
9  35  8

$$$$

