5329
  -OEChem-07051212533D

 28 29  0     0  0  0  0  0  0999 V2000
    0.2645   -2.2031   -0.0845 S   0  0  0  0  0  0  0  0  0  0  0  0
   -2.6416    0.9657   -0.9788 O   0  0  0  0  0  0  0  0  0  0  0  0
    0.9463   -3.2030    0.7288 O   0  0  0  0  0  0  0  0  0  0  0  0
   -0.0563   -2.5245   -1.4698 O   0  0  0  0  0  0  0  0  0  0  0  0
   -1.1693   -1.7273    0.7438 N   0  0  0  0  0  0  0  0  0  0  0  0
   -1.9278   -0.2265   -0.9777 N   0  0  0  0  0  0  0  0  0  0  0  0
    3.5485    2.7532    0.0086 N   0  0  0  0  0  0  0  0  0  0  0  0
    1.2286   -0.7477   -0.0572 C   0  0  0  0  0  0  0  0  0  0  0  0
    2.1047   -0.5114    1.0022 C   0  0  0  0  0  0  0  0  0  0  0  0
    1.1228    0.1788   -1.0946 C   0  0  0  0  0  0  0  0  0  0  0  0
   -1.8451   -0.5383    0.2987 C   0  0  0  0  0  0  0  0  0  0  0  0
    2.7690    1.5778   -0.0129 C   0  0  0  0  0  0  0  0  0  0  0  0
    2.8748    0.6514    1.0243 C   0  0  0  0  0  0  0  0  0  0  0  0
    1.8930    1.3415   -1.0724 C   0  0  0  0  0  0  0  0  0  0  0  0
   -2.4539    0.3608    1.1589 C   0  0  0  0  0  0  0  0  0  0  0  0
   -2.9493    1.3051    0.2991 C   0  0  0  0  0  0  0  0  0  0  0  0
   -3.7089    2.5476    0.4835 C   0  0  0  0  0  0  0  0  0  0  0  0
   -1.2084   -1.9185    1.7534 H   0  0  0  0  0  0  0  0  0  0  0  0
    2.1983   -1.2149    1.8246 H   0  0  0  0  0  0  0  0  0  0  0  0
    0.4759    0.0078   -1.9492 H   0  0  0  0  0  0  0  0  0  0  0  0
    3.5527    0.8250    1.8562 H   0  0  0  0  0  0  0  0  0  0  0  0
    1.8070    2.0525   -1.8902 H   0  0  0  0  0  0  0  0  0  0  0  0
   -2.5324    0.3461    2.2358 H   0  0  0  0  0  0  0  0  0  0  0  0
   -3.9096    2.7346    1.5430 H   0  0  0  0  0  0  0  0  0  0  0  0
   -3.1506    3.4021    0.0887 H   0  0  0  0  0  0  0  0  0  0  0  0
   -4.6690    2.4929   -0.0386 H   0  0  0  0  0  0  0  0  0  0  0  0
    4.1825    2.9260    0.7773 H   0  0  0  0  0  0  0  0  0  0  0  0
    3.4707    3.4259   -0.7424 H   0  0  0  0  0  0  0  0  0  0  0  0
  1  3  2  0  0  0  0
  1  4  2  0  0  0  0
  1  5  1  0  0  0  0
  1  8  1  0  0  0  0
  2  6  1  0  0  0  0
  2 16  1  0  0  0  0
  5 11  1  0  0  0  0
  5 18  1  0  0  0  0
  6 11  2  0  0  0  0
  7 12  1  0  0  0  0
  7 27  1  0  0  0  0
  7 28  1  0  0  0  0
  8  9  2  0  0  0  0
  8 10  1  0  0  0  0
  9 13  1  0  0  0  0
  9 19  1  0  0  0  0
 10 14  2  0  0  0  0
 10 20  1  0  0  0  0
 11 15  1  0  0  0  0
 12 13  2  0  0  0  0
 12 14  1  0  0  0  0
 13 21  1  0  0  0  0
 14 22  1  0  0  0  0
 15 16  2  0  0  0  0
 15 23  1  0  0  0  0
 16 17  1  0  0  0  0
 17 24  1  0  0  0  0
 17 25  1  0  0  0  0
 17 26  1  0  0  0  0
M  END
> <PUBCHEM_COMPOUND_CID>
5329

> <PUBCHEM_CONFORMER_RMSD>
0.6

> <PUBCHEM_CONFORMER_DIVERSEORDER>
2
3
6
7
15
10
4
9
5
13
12
1
11
14
16
8

> <PUBCHEM_MMFF94_PARTIAL_CHARGES>
25
1 1.45
10 -0.15
11 0.43
12 0.1
13 -0.15
14 -0.15
15 -0.15
16 -0.04
17 0.18
18 0.42
19 0.15
2 -0.02
20 0.15
21 0.15
22 0.15
23 0.15
27 0.4
28 0.4
3 -0.65
4 -0.65
5 -0.7
6 -0.41
7 -0.9
8 -0.01
9 -0.15

> <PUBCHEM_EFFECTIVE_ROTOR_COUNT>
3

> <PUBCHEM_PHARMACOPHORE_FEATURES>
8
1 3 acceptor
1 4 acceptor
1 5 donor
1 6 acceptor
1 7 cation
1 7 donor
5 2 6 11 15 16 rings
6 8 9 10 12 13 14 rings

> <PUBCHEM_HEAVY_ATOM_COUNT>
17

> <PUBCHEM_ATOM_DEF_STEREO_COUNT>
0

> <PUBCHEM_ATOM_UDEF_STEREO_COUNT>
0

> <PUBCHEM_BOND_DEF_STEREO_COUNT>
0

> <PUBCHEM_BOND_UDEF_STEREO_COUNT>
0

> <PUBCHEM_ISOTOPIC_ATOM_COUNT>
0

> <PUBCHEM_COMPONENT_COUNT>
1

> <PUBCHEM_CACTVS_TAUTO_COUNT>
2

> <PUBCHEM_CONFORMER_ID>
000014D100000002

> <PUBCHEM_MMFF94_ENERGY>
31.8062

> <PUBCHEM_FEATURE_SELFOVERLAP>
40.614

> <PUBCHEM_SHAPE_FINGERPRINT>
10382601 240 18126841823002060072
11640471 11 18114194067738596165
12491281 212 18198625432760554504
13134695 92 17836371818747431823
13764800 53 18265600014312483721
14817 1 7487687662909985750
15775835 57 18339923714494717120
16945 1 18199759204983851850
18522851 12 9655297115299976297
18981168 100 18192124153396098875
20291156 8 9583522031262664873
20510252 161 18121495752417248338
20621476 13 18052828223638761045
20671657 1 18267296711014921007
21041028 32 17474948104638219193
21524375 3 18335421240132875859
21731228 192 18342173336833524648
21947302 44 18268422624022761587
23402539 116 17757834420466839038
23419403 2 13679325058370897043
305870 269 18410855490324879698
350125 39 18339629079733287627
474 4 18338804515074511825
49207404 50 18127386017308203185
5939293 188 17906171007406457337
6992083 37 17916036659350184060
7364860 26 18118681260353415183
81228 2 17687454672609167306

> <PUBCHEM_SHAPE_MULTIPOLES>
321.15
5.57
3.18
1.22
2.34
0.93
-0.14
-5.57
1
-0.9
0.02
-0.09
0.18
-0.33

> <PUBCHEM_SHAPE_SELFOVERLAP>
671.314

> <PUBCHEM_SHAPE_VOLUME>
182.5

> <PUBCHEM_COORDINATE_TYPE>
2
5
10

$$$$

