586297
  -OEChem-06241222462D

 37 38  0     1  0  0  0  0  0999 V2000
    2.8660    0.5600    0.0000 O   0  0  0  0  0  0  0  0  0  0  0  0
    5.4641   -2.9400    0.0000 O   0  0  0  0  0  0  0  0  0  0  0  0
    2.0000   -2.9400    0.0000 O   0  0  0  0  0  0  0  0  0  0  0  0
    4.5981    1.5600    0.0000 N   0  0  0  0  0  0  0  0  0  0  0  0
    4.5981    0.5600    0.0000 N   0  0  0  0  0  0  0  0  0  0  0  0
    7.1962    2.0600    0.0000 C   0  0  3  0  0  0  0  0  0  0  0  0
    7.1962    3.0600    0.0000 C   0  0  0  0  0  0  0  0  0  0  0  0
    6.3301    1.5600    0.0000 C   0  0  0  0  0  0  0  0  0  0  0  0
    6.3301    3.5600    0.0000 C   0  0  0  0  0  0  0  0  0  0  0  0
    5.4641    3.0600    0.0000 C   0  0  0  0  0  0  0  0  0  0  0  0
    5.4641    2.0600    0.0000 C   0  0  0  0  0  0  0  0  0  0  0  0
    8.0622    1.5600    0.0000 C   0  0  0  0  0  0  0  0  0  0  0  0
    3.7320    0.0600    0.0000 C   0  0  0  0  0  0  0  0  0  0  0  0
    3.7320   -0.9400    0.0000 C   0  0  0  0  0  0  0  0  0  0  0  0
    2.8660   -1.4400    0.0000 C   0  0  0  0  0  0  0  0  0  0  0  0
    4.5981   -1.4400    0.0000 C   0  0  0  0  0  0  0  0  0  0  0  0
    4.5981   -2.4400    0.0000 C   0  0  0  0  0  0  0  0  0  0  0  0
    2.8660   -2.4400    0.0000 C   0  0  0  0  0  0  0  0  0  0  0  0
    3.7320   -2.9400    0.0000 C   0  0  0  0  0  0  0  0  0  0  0  0
    7.9323    2.4850    0.0000 H   0  0  0  0  0  0  0  0  0  0  0  0
    7.8067    2.9523    0.0000 H   0  0  0  0  0  0  0  0  0  0  0  0
    7.4082    3.6426    0.0000 H   0  0  0  0  0  0  0  0  0  0  0  0
    5.9316    1.0850    0.0000 H   0  0  0  0  0  0  0  0  0  0  0  0
    6.7287    1.0850    0.0000 H   0  0  0  0  0  0  0  0  0  0  0  0
    6.7287    4.0350    0.0000 H   0  0  0  0  0  0  0  0  0  0  0  0
    5.9316    4.0350    0.0000 H   0  0  0  0  0  0  0  0  0  0  0  0
    5.2520    3.6426    0.0000 H   0  0  0  0  0  0  0  0  0  0  0  0
    4.8535    2.9523    0.0000 H   0  0  0  0  0  0  0  0  0  0  0  0
    7.7522    1.0231    0.0000 H   0  0  0  0  0  0  0  0  0  0  0  0
    8.5991    1.2500    0.0000 H   0  0  0  0  0  0  0  0  0  0  0  0
    8.3722    2.0969    0.0000 H   0  0  0  0  0  0  0  0  0  0  0  0
    5.1350    0.2500    0.0000 H   0  0  0  0  0  0  0  0  0  0  0  0
    2.3291   -1.1300    0.0000 H   0  0  0  0  0  0  0  0  0  0  0  0
    5.1350   -1.1300    0.0000 H   0  0  0  0  0  0  0  0  0  0  0  0
    3.7320   -3.5600    0.0000 H   0  0  0  0  0  0  0  0  0  0  0  0
    5.4641   -3.5600    0.0000 H   0  0  0  0  0  0  0  0  0  0  0  0
    2.0000   -3.5600    0.0000 H   0  0  0  0  0  0  0  0  0  0  0  0
  1 13  2  0  0  0  0
  2 17  1  0  0  0  0
  2 36  1  0  0  0  0
  3 18  1  0  0  0  0
  3 37  1  0  0  0  0
  4  5  1  0  0  0  0
  4 11  2  3  0  0  0
  5 13  1  0  0  0  0
  5 32  1  0  0  0  0
  6  7  1  0  0  0  0
  6  8  1  0  0  0  0
  6 12  1  0  0  0  0
  6 20  1  0  0  0  0
  7  9  1  0  0  0  0
  7 21  1  0  0  0  0
  7 22  1  0  0  0  0
  8 11  1  0  0  0  0
  8 23  1  0  0  0  0
  8 24  1  0  0  0  0
  9 10  1  0  0  0  0
  9 25  1  0  0  0  0
  9 26  1  0  0  0  0
 10 11  1  0  0  0  0
 10 27  1  0  0  0  0
 10 28  1  0  0  0  0
 12 29  1  0  0  0  0
 12 30  1  0  0  0  0
 12 31  1  0  0  0  0
 13 14  1  0  0  0  0
 14 15  2  0  0  0  0
 14 16  1  0  0  0  0
 15 18  1  0  0  0  0
 15 33  1  0  0  0  0
 16 17  2  0  0  0  0
 16 34  1  0  0  0  0
 17 19  1  0  0  0  0
 18 19  2  0  0  0  0
 19 35  1  0  0  0  0
M  END
> <PUBCHEM_COMPOUND_CID>
586297

> <PUBCHEM_COMPOUND_CANONICALIZED>
1

> <PUBCHEM_CACTVS_COMPLEXITY>
347

> <PUBCHEM_CACTVS_HBOND_ACCEPTOR>
4

> <PUBCHEM_CACTVS_HBOND_DONOR>
3

> <PUBCHEM_CACTVS_ROTATABLE_BOND>
2

> <PUBCHEM_CACTVS_SUBSKEYS>
AAADceBzMAAAAAAAAAAAAAAAAAAAAAAAAAAwYAAAAAAAAAABAAAAHgAYCAAADQyBmAAyBoBiAgCoAyFyEACSAAAkIAASiAE2DMgIJzKClROAcQBlyBUImYe66BSOAAABCAAAAAAAAAIQAAAAAAAAAAAAAA==

> <PUBCHEM_IUPAC_OPENEYE_NAME>
3,5-dihydroxy-N-[(3-methylcyclohexylidene)amino]benzamide

> <PUBCHEM_IUPAC_CAS_NAME>
3,5-dihydroxy-N-[(3-methylcyclohexylidene)amino]benzamide

> <PUBCHEM_IUPAC_NAME>
3,5-dihydroxy-N-[(3-methylcyclohexylidene)amino]benzamide

> <PUBCHEM_IUPAC_SYSTEMATIC_NAME>
N-[(3-methylcyclohexylidene)amino]-3,5-bis(oxidanyl)benzamide

> <PUBCHEM_IUPAC_TRADITIONAL_NAME>
3,5-dihydroxy-N-[(3-methylcyclohexylidene)amino]benzamide

> <PUBCHEM_IUPAC_INCHI>
InChI=1S/C14H18N2O3/c1-9-3-2-4-11(5-9)15-16-14(19)10-6-12(17)8-13(18)7-10/h6-9,17-18H,2-5H2,1H3,(H,16,19)

> <PUBCHEM_IUPAC_INCHIKEY>
ZVPUOFDVRCMYIX-UHFFFAOYSA-N

> <PUBCHEM_XLOGP3_AA>
2.1

> <PUBCHEM_EXACT_MASS>
262.131742

> <PUBCHEM_MOLECULAR_FORMULA>
C14H18N2O3

> <PUBCHEM_MOLECULAR_WEIGHT>
262.30432

> <PUBCHEM_OPENEYE_CAN_SMILES>
CC1CCCC(=NNC(=O)C2=CC(=CC(=C2)O)O)C1

> <PUBCHEM_OPENEYE_ISO_SMILES>
CC1CCCC(=NNC(=O)C2=CC(=CC(=C2)O)O)C1

> <PUBCHEM_CACTVS_TPSA>
81.9

> <PUBCHEM_MONOISOTOPIC_WEIGHT>
262.131742

> <PUBCHEM_TOTAL_CHARGE>
0

> <PUBCHEM_HEAVY_ATOM_COUNT>
19

> <PUBCHEM_ATOM_DEF_STEREO_COUNT>
0

> <PUBCHEM_ATOM_UDEF_STEREO_COUNT>
1

> <PUBCHEM_BOND_DEF_STEREO_COUNT>
0

> <PUBCHEM_BOND_UDEF_STEREO_COUNT>
1

> <PUBCHEM_ISOTOPIC_ATOM_COUNT>
0

> <PUBCHEM_COMPONENT_COUNT>
1

> <PUBCHEM_CACTVS_TAUTO_COUNT>
10

> <PUBCHEM_COORDINATE_TYPE>
1
5
255

> <PUBCHEM_BONDANNOTATIONS>
14  15  8
14  16  8
15  18  8
16  17  8
17  19  8
18  19  8
4  11  1
6  20  3

$$$$

