854148
  -OEChem-06241222473D

 25 26  0     1  0  0  0  0  0999 V2000
   -0.9273    1.6200    1.6577 O   0  0  0  0  0  0  0  0  0  0  0  0
   -3.4858   -0.3597   -1.6080 O   0  0  0  0  0  0  0  0  0  0  0  0
   -2.4229    0.8565    0.0594 N   0  0  0  0  0  0  0  0  0  0  0  0
   -0.5501   -0.4948    0.4877 C   0  0  1  0  0  0  0  0  0  0  0  0
   -1.3565   -1.0669   -0.7043 C   0  0  0  0  0  0  0  0  0  0  0  0
    0.8994   -0.2148    0.0924 C   0  0  0  0  0  0  0  0  0  0  0  0
   -1.2872    0.7960    0.8279 C   0  0  0  0  0  0  0  0  0  0  0  0
   -0.7254   -1.4166    1.7110 C   0  0  0  0  0  0  0  0  0  0  0  0
   -2.5631   -0.1782   -0.8273 C   0  0  0  0  0  0  0  0  0  0  0  0
    1.2312    0.9923   -0.5190 C   0  0  0  0  0  0  0  0  0  0  0  0
    1.8842   -1.1673    0.3452 C   0  0  0  0  0  0  0  0  0  0  0  0
    2.5541    1.2482   -0.8796 C   0  0  0  0  0  0  0  0  0  0  0  0
    3.2072   -0.9113   -0.0154 C   0  0  0  0  0  0  0  0  0  0  0  0
    3.5420    0.2964   -0.6278 C   0  0  0  0  0  0  0  0  0  0  0  0
   -1.6824   -2.0988   -0.5379 H   0  0  0  0  0  0  0  0  0  0  0  0
   -0.8040   -1.0233   -1.6496 H   0  0  0  0  0  0  0  0  0  0  0  0
   -0.4168   -2.4459    1.4989 H   0  0  0  0  0  0  0  0  0  0  0  0
   -0.1393   -1.0567    2.5652 H   0  0  0  0  0  0  0  0  0  0  0  0
   -1.7729   -1.4562    2.0348 H   0  0  0  0  0  0  0  0  0  0  0  0
   -3.0970    1.6102    0.1350 H   0  0  0  0  0  0  0  0  0  0  0  0
    0.4848    1.7462   -0.7508 H   0  0  0  0  0  0  0  0  0  0  0  0
    1.6579   -2.1227    0.8066 H   0  0  0  0  0  0  0  0  0  0  0  0
    2.8144    2.1862   -1.3615 H   0  0  0  0  0  0  0  0  0  0  0  0
    3.9764   -1.6535    0.1772 H   0  0  0  0  0  0  0  0  0  0  0  0
    4.5717    0.4948   -0.9103 H   0  0  0  0  0  0  0  0  0  0  0  0
  1  7  2  0  0  0  0
  2  9  2  0  0  0  0
  3  7  1  0  0  0  0
  3  9  1  0  0  0  0
  3 20  1  0  0  0  0
  4  5  1  0  0  0  0
  4  6  1  0  0  0  0
  4  7  1  0  0  0  0
  4  8  1  0  0  0  0
  5  9  1  0  0  0  0
  5 15  1  0  0  0  0
  5 16  1  0  0  0  0
  6 10  2  0  0  0  0
  6 11  1  0  0  0  0
  8 17  1  0  0  0  0
  8 18  1  0  0  0  0
  8 19  1  0  0  0  0
 10 12  1  0  0  0  0
 10 21  1  0  0  0  0
 11 13  2  0  0  0  0
 11 22  1  0  0  0  0
 12 14  2  0  0  0  0
 12 23  1  0  0  0  0
 13 14  1  0  0  0  0
 13 24  1  0  0  0  0
 14 25  1  0  0  0  0
M  END
> <PUBCHEM_COMPOUND_CID>
854148

> <PUBCHEM_CONFORMER_RMSD>
0.6

> <PUBCHEM_CONFORMER_DIVERSEORDER>
2
1

> <PUBCHEM_MMFF94_PARTIAL_CHARGES>
19
1 -0.57
10 -0.15
11 -0.15
12 -0.15
13 -0.15
14 -0.15
2 -0.57
20 0.37
21 0.15
22 0.15
23 0.15
24 0.15
25 0.15
3 -0.49
4 0.2
5 0.06
6 -0.14
7 0.57
9 0.57

> <PUBCHEM_EFFECTIVE_ROTOR_COUNT>
1.6

> <PUBCHEM_PHARMACOPHORE_FEATURES>
5
1 1 acceptor
1 2 acceptor
1 3 donor
5 3 4 5 7 9 rings
6 6 10 11 12 13 14 rings

> <PUBCHEM_HEAVY_ATOM_COUNT>
14

> <PUBCHEM_ATOM_DEF_STEREO_COUNT>
1

> <PUBCHEM_ATOM_UDEF_STEREO_COUNT>
0

> <PUBCHEM_BOND_DEF_STEREO_COUNT>
0

> <PUBCHEM_BOND_UDEF_STEREO_COUNT>
0

> <PUBCHEM_ISOTOPIC_ATOM_COUNT>
0

> <PUBCHEM_COMPONENT_COUNT>
1

> <PUBCHEM_CACTVS_TAUTO_COUNT>
5

> <PUBCHEM_CONFORMER_ID>
000D088400000002

> <PUBCHEM_MMFF94_ENERGY>
40.5391

> <PUBCHEM_FEATURE_SELFOVERLAP>
25.371

> <PUBCHEM_SHAPE_FINGERPRINT>
12138202 97 17275103877629902034
12423570 1 14093864495626854243
124424 183 16630531747809567656
12491281 212 18189320424531047424
12932764 1 17241028990536412578
13024252 1 12823013063138305075
14713566 1 18411425011541639651
15775835 57 18341044219933250557
15852999 172 18060146392712332434
15906896 17 17897138403747228225
16945 1 18411707573160594899
18186145 218 18060423542340315375
200 152 18333453131699401846
20361792 2 17095529435558461773
20645464 45 15410895141303375004
20653085 51 17418376869990038861
20715346 28 16701725103837568832
21524375 3 15338295544067995183
228727 97 18333731329600124451
23382010 3 18058187032947976463
23402539 116 17749395892024521108
23402655 69 18271815639390965093
23493267 7 14692563377508323716
23557571 272 16660366982559337016
23559900 14 17095812135038948290
25 1 17632019757305034495
2748010 2 17986656087905132054
3248919 1 18412534419248565746
369184 2 17846488214844076010
5084963 1 18341056310228914552
528886 8 17846226543908806534
74978 22 17917704678613800514
77492 1 18335983163652170178
8030462 33 18335128787678465196
81228 2 14274000178365742587

> <PUBCHEM_SHAPE_MULTIPOLES>
271.39
5.12
1.5
1.34
1.41
0.43
-0.37
-1.19
1.86
0.41
-0.19
-1.17
-0.15
0.19

> <PUBCHEM_SHAPE_SELFOVERLAP>
586.728

> <PUBCHEM_SHAPE_VOLUME>
150.5

> <PUBCHEM_COORDINATE_TYPE>
2
5
10

$$$$

