3627
  -OEChem-06251223333D

 45 47  0     1  0  0  0  0  0999 V2000
   -3.5377   -4.5179   -0.2366 Cl  0  0  0  0  0  0  0  0  0  0  0  0
    1.0562    0.3336   -0.3754 N   0  0  2  0  0  0  0  0  0  0  0  0
    4.1040   -0.9101    0.0675 N   0  0  2  0  0  0  0  0  0  0  0  0
    1.9531    1.4554   -0.0856 C   0  0  0  0  0  0  0  0  0  0  0  0
   -0.1641    0.4016    0.4305 C   0  0  2  0  0  0  0  0  0  0  0  0
    1.6540   -0.9991   -0.2717 C   0  0  0  0  0  0  0  0  0  0  0  0
    3.0427    1.2193    0.9644 C   0  0  0  0  0  0  0  0  0  0  0  0
    3.0383   -1.1380   -0.9160 C   0  0  0  0  0  0  0  0  0  0  0  0
    4.2830    0.5059    0.4110 C   0  0  0  0  0  0  0  0  0  0  0  0
   -1.0186   -0.8458    0.2607 C   0  0  0  0  0  0  0  0  0  0  0  0
   -0.9609    1.6744    0.1847 C   0  0  0  0  0  0  0  0  0  0  0  0
    5.3712   -1.4617   -0.4219 C   0  0  0  0  0  0  0  0  0  0  0  0
   -1.9739   -0.8700   -0.7350 C   0  0  0  0  0  0  0  0  0  0  0  0
   -0.8137   -1.9156    1.1082 C   0  0  0  0  0  0  0  0  0  0  0  0
   -1.7195    2.1958    1.2130 C   0  0  0  0  0  0  0  0  0  0  0  0
   -0.9011    2.2696   -1.0591 C   0  0  0  0  0  0  0  0  0  0  0  0
   -2.7581   -2.0131   -0.8898 C   0  0  0  0  0  0  0  0  0  0  0  0
   -1.5978   -3.0589    0.9533 C   0  0  0  0  0  0  0  0  0  0  0  0
   -2.4498    3.3626    0.9880 C   0  0  0  0  0  0  0  0  0  0  0  0
   -1.6315    3.4366   -1.2840 C   0  0  0  0  0  0  0  0  0  0  0  0
   -2.5700   -3.1077   -0.0458 C   0  0  0  0  0  0  0  0  0  0  0  0
   -2.4058    3.9830   -0.2604 C   0  0  0  0  0  0  0  0  0  0  0  0
    1.4189    2.3614    0.2194 H   0  0  0  0  0  0  0  0  0  0  0  0
    2.4345    1.7422   -1.0300 H   0  0  0  0  0  0  0  0  0  0  0  0
    0.1413    0.4372    1.4888 H   0  0  0  0  0  0  0  0  0  0  0  0
    1.0312   -1.7154   -0.8212 H   0  0  0  0  0  0  0  0  0  0  0  0
    1.7353   -1.3389    0.7681 H   0  0  0  0  0  0  0  0  0  0  0  0
    2.6451    0.6926    1.8403 H   0  0  0  0  0  0  0  0  0  0  0  0
    3.3709    2.2009    1.3314 H   0  0  0  0  0  0  0  0  0  0  0  0
    3.1095   -2.1760   -1.2695 H   0  0  0  0  0  0  0  0  0  0  0  0
    3.1493   -0.5082   -1.8081 H   0  0  0  0  0  0  0  0  0  0  0  0
    4.6607    1.0665   -0.4549 H   0  0  0  0  0  0  0  0  0  0  0  0
    5.0573    0.5743    1.1864 H   0  0  0  0  0  0  0  0  0  0  0  0
    6.1632   -1.3350    0.3249 H   0  0  0  0  0  0  0  0  0  0  0  0
    5.6950   -0.9855   -1.3545 H   0  0  0  0  0  0  0  0  0  0  0  0
    5.2817   -2.5397   -0.5969 H   0  0  0  0  0  0  0  0  0  0  0  0
   -2.1386   -0.0544   -1.4285 H   0  0  0  0  0  0  0  0  0  0  0  0
   -0.0842   -1.8853    1.9115 H   0  0  0  0  0  0  0  0  0  0  0  0
   -1.7611    1.7190    2.1876 H   0  0  0  0  0  0  0  0  0  0  0  0
   -0.3276    1.8590   -1.8843 H   0  0  0  0  0  0  0  0  0  0  0  0
   -3.5085   -2.0395   -1.6759 H   0  0  0  0  0  0  0  0  0  0  0  0
   -1.4447   -3.9016    1.6227 H   0  0  0  0  0  0  0  0  0  0  0  0
   -3.0534    3.7877    1.7846 H   0  0  0  0  0  0  0  0  0  0  0  0
   -1.6017    3.9171   -2.2576 H   0  0  0  0  0  0  0  0  0  0  0  0
   -2.9755    4.8908   -0.4361 H   0  0  0  0  0  0  0  0  0  0  0  0
  1 21  1  0  0  0  0
  2  4  1  0  0  0  0
  2  5  1  0  0  0  0
  2  6  1  0  0  0  0
  3  8  1  0  0  0  0
  3  9  1  0  0  0  0
  3 12  1  0  0  0  0
  4  7  1  0  0  0  0
  4 23  1  0  0  0  0
  4 24  1  0  0  0  0
  5 10  1  0  0  0  0
  5 11  1  0  0  0  0
  5 25  1  0  0  0  0
  6  8  1  0  0  0  0
  6 26  1  0  0  0  0
  6 27  1  0  0  0  0
  7  9  1  0  0  0  0
  7 28  1  0  0  0  0
  7 29  1  0  0  0  0
  8 30  1  0  0  0  0
  8 31  1  0  0  0  0
  9 32  1  0  0  0  0
  9 33  1  0  0  0  0
 10 13  2  0  0  0  0
 10 14  1  0  0  0  0
 11 15  2  0  0  0  0
 11 16  1  0  0  0  0
 12 34  1  0  0  0  0
 12 35  1  0  0  0  0
 12 36  1  0  0  0  0
 13 17  1  0  0  0  0
 13 37  1  0  0  0  0
 14 18  2  0  0  0  0
 14 38  1  0  0  0  0
 15 19  1  0  0  0  0
 15 39  1  0  0  0  0
 16 20  2  0  0  0  0
 16 40  1  0  0  0  0
 17 21  2  0  0  0  0
 17 41  1  0  0  0  0
 18 21  1  0  0  0  0
 18 42  1  0  0  0  0
 19 22  2  0  0  0  0
 19 43  1  0  0  0  0
 20 22  1  0  0  0  0
 20 44  1  0  0  0  0
 22 45  1  0  0  0  0
M  END
> <PUBCHEM_COMPOUND_CID>
3627

> <PUBCHEM_CONFORMER_RMSD>
0.8

> <PUBCHEM_CONFORMER_DIVERSEORDER>
1
18
13
16
9
3
14
17
10
7
11
4
12
15
6
2
8
5

> <PUBCHEM_MMFF94_PARTIAL_CHARGES>
30
1 -0.18
10 -0.14
11 -0.14
12 0.27
13 -0.15
14 -0.15
15 -0.15
16 -0.15
17 -0.15
18 -0.15
19 -0.15
2 -0.81
20 -0.15
21 0.18
22 -0.15
3 -0.81
37 0.15
38 0.15
39 0.15
4 0.27
40 0.15
41 0.15
42 0.15
43 0.15
44 0.15
45 0.15
5 0.56
6 0.27
8 0.27
9 0.27

> <PUBCHEM_EFFECTIVE_ROTOR_COUNT>
4.4

> <PUBCHEM_PHARMACOPHORE_FEATURES>
5
1 2 cation
1 3 cation
6 10 13 14 17 18 21 rings
6 11 15 16 19 20 22 rings
7 2 3 4 6 7 8 9 rings

> <PUBCHEM_HEAVY_ATOM_COUNT>
22

> <PUBCHEM_ATOM_DEF_STEREO_COUNT>
0

> <PUBCHEM_ATOM_UDEF_STEREO_COUNT>
1

> <PUBCHEM_BOND_DEF_STEREO_COUNT>
0

> <PUBCHEM_BOND_UDEF_STEREO_COUNT>
0

> <PUBCHEM_ISOTOPIC_ATOM_COUNT>
0

> <PUBCHEM_COMPONENT_COUNT>
1

> <PUBCHEM_CACTVS_TAUTO_COUNT>
1

> <PUBCHEM_CONFORMER_ID>
00000E2B00000001

> <PUBCHEM_MMFF94_ENERGY>
76.6582

> <PUBCHEM_FEATURE_SELFOVERLAP>
25.372

> <PUBCHEM_SHAPE_FINGERPRINT>
10411042 1 18266737970077319302
1100329 8 18339642236061828641
11045515 52 18196938768848785551
11101153 10 18197488525385815204
11578080 2 16517119249081041091
116883 192 18410857624886696180
121448 382 18120116088900481413
12403259 226 18262239911410811346
12500047 106 18267583705525487572
12549972 3 17749690566094869232
12553582 1 17980460287989825826
12643181 29 17975971283695997462
12730499 353 17619624026998238829
12788726 201 18341059561556412595
13004483 165 18264777570893642706
13134695 92 17831586375150404343
13140716 1 18337384933682919835
13540713 4 18113903767432098488
13681431 1 17836361541038138553
13690498 29 18262779814828413182
138480 1 16321186684743047959
13911987 19 17191768400022242756
13955234 65 17112687095699351995
14178342 30 18340780312063526418
14223421 5 18263650580592374440
14790565 3 17544751687651175928
14866123 147 18338234989325986347
14955137 171 17328859899066075184
15042514 8 18410567371461186139
15309172 13 17979630461527348096
15927050 60 18050283966495468302
17539 30 18409735057953811039
1813 80 17973424525931912943
18785283 64 17116918020621625251
19591789 44 18051128395777647923
20600515 1 17700714873160539900
20739085 24 17975668633422358099
21033648 29 18049732007817096928
21049683 271 17480015289985129461
21120745 212 18122318238797428996
21304303 282 17764636265673164629
21478907 32 18411138000447107771
21524375 3 18053655060476426769
2255824 54 17184466512941498167
23419403 2 17683269983304968097
23526113 38 17697886864872076211
23557571 272 18267600025989814200
23558518 356 18342736304425919920
23559900 14 18337682936231433322
283562 15 18341618066667114354
3091708 16 9274586734594664425
3380486 145 17610933117207086710
350125 39 18266734864889382265
3729539 64 17183886507921462566
3886686 26 17834999543048675106
6442390 28 18193830677263537721
6443956 14 17978230457102645067
6669772 16 17686617248555044590
7164475 11 18340484461520175876
7364860 26 17258782516905925017
7399639 24 17971486100455069984
77188 2 18122342376639544149
81228 2 18341048532164779329
9709674 26 18333733537577389430
9925002 15 18199729406506358853
9981440 41 16884190106819572600

> <PUBCHEM_SHAPE_MULTIPOLES>
444.66
7.14
5.76
1.14
10.16
1.81
0.03
-6.19
-0.46
-8.35
-0.27
-0.31
0.37
0.29

> <PUBCHEM_SHAPE_SELFOVERLAP>
936.543

> <PUBCHEM_SHAPE_VOLUME>
250.4

> <PUBCHEM_COORDINATE_TYPE>
2
5
10

$$$$

