17396449
  -OEChem-06241222563D

 51 53  0     0  0  0  0  0  0999 V2000
   -5.0167    4.0665    0.3710 Br  0  0  0  0  0  0  0  0  0  0  0  0
    2.7683    1.7820    1.1573 S   0  0  0  0  0  0  0  0  0  0  0  0
    1.5075    2.2585    1.6972 O   0  0  0  0  0  0  0  0  0  0  0  0
    4.0118    2.0370    1.8620 O   0  0  0  0  0  0  0  0  0  0  0  0
   -0.6369   -2.9089    1.4671 O   0  0  0  0  0  0  0  0  0  0  0  0
   -3.0559   -1.6537    0.1828 O   0  0  0  0  0  0  0  0  0  0  0  0
    2.9205    2.2816   -0.4588 N   0  0  0  0  0  0  0  0  0  0  0  0
   -0.5759   -2.6817   -0.8587 N   0  0  0  0  0  0  0  0  0  0  0  0
    1.7030    2.2424   -1.3147 C   0  0  0  0  0  0  0  0  0  0  0  0
    4.0732    1.7608   -1.2507 C   0  0  0  0  0  0  0  0  0  0  0  0
    2.2520    2.1761   -2.7311 C   0  0  0  0  0  0  0  0  0  0  0  0
    3.4700    1.2883   -2.5667 C   0  0  0  0  0  0  0  0  0  0  0  0
    2.6256    0.0330    0.9418 C   0  0  0  0  0  0  0  0  0  0  0  0
    1.3689   -0.5494    0.7775 C   0  0  0  0  0  0  0  0  0  0  0  0
    3.7699   -0.7646    0.9366 C   0  0  0  0  0  0  0  0  0  0  0  0
    1.2563   -1.9293    0.6082 C   0  0  0  0  0  0  0  0  0  0  0  0
    3.6575   -2.1446    0.7672 C   0  0  0  0  0  0  0  0  0  0  0  0
    2.4007   -2.7268    0.6030 C   0  0  0  0  0  0  0  0  0  0  0  0
   -0.0539   -2.5369    0.4400 C   0  0  0  0  0  0  0  0  0  0  0  0
   -1.8775   -3.2964   -1.1100 C   0  0  0  0  0  0  0  0  0  0  0  0
   -2.9922   -2.2665   -1.0985 C   0  0  0  0  0  0  0  0  0  0  0  0
    0.1461   -2.2287   -2.0393 C   0  0  0  0  0  0  0  0  0  0  0  0
   -3.5020   -0.3587    0.2268 C   0  0  0  0  0  0  0  0  0  0  0  0
   -4.4154    0.0967   -0.7239 C   0  0  0  0  0  0  0  0  0  0  0  0
   -3.0403    0.5048    1.2203 C   0  0  0  0  0  0  0  0  0  0  0  0
   -4.8671    1.4156   -0.6812 C   0  0  0  0  0  0  0  0  0  0  0  0
   -3.4920    1.8238    1.2629 C   0  0  0  0  0  0  0  0  0  0  0  0
   -4.4055    2.2792    0.3122 C   0  0  0  0  0  0  0  0  0  0  0  0
    1.0907    1.3607   -1.1175 H   0  0  0  0  0  0  0  0  0  0  0  0
    1.0989    3.1412   -1.1635 H   0  0  0  0  0  0  0  0  0  0  0  0
    4.6571    0.9794   -0.7705 H   0  0  0  0  0  0  0  0  0  0  0  0
    4.7494    2.6054   -1.4294 H   0  0  0  0  0  0  0  0  0  0  0  0
    2.5545    3.1740   -3.0705 H   0  0  0  0  0  0  0  0  0  0  0  0
    1.5262    1.7744   -3.4433 H   0  0  0  0  0  0  0  0  0  0  0  0
    3.1602    0.2396   -2.4820 H   0  0  0  0  0  0  0  0  0  0  0  0
    4.1716    1.3706   -3.4014 H   0  0  0  0  0  0  0  0  0  0  0  0
    0.4684    0.0597    0.7850 H   0  0  0  0  0  0  0  0  0  0  0  0
    4.7590   -0.3392    1.0787 H   0  0  0  0  0  0  0  0  0  0  0  0
    4.5481   -2.7661    0.7667 H   0  0  0  0  0  0  0  0  0  0  0  0
    2.3247   -3.8033    0.4727 H   0  0  0  0  0  0  0  0  0  0  0  0
   -2.0588   -4.0281   -0.3142 H   0  0  0  0  0  0  0  0  0  0  0  0
   -1.8461   -3.8355   -2.0628 H   0  0  0  0  0  0  0  0  0  0  0  0
   -3.9479   -2.7625   -1.3028 H   0  0  0  0  0  0  0  0  0  0  0  0
   -2.7900   -1.5353   -1.8915 H   0  0  0  0  0  0  0  0  0  0  0  0
   -0.4859   -1.5272   -2.5922 H   0  0  0  0  0  0  0  0  0  0  0  0
    1.0909   -1.7313   -1.8211 H   0  0  0  0  0  0  0  0  0  0  0  0
    0.3542   -3.0974   -2.6716 H   0  0  0  0  0  0  0  0  0  0  0  0
   -4.8214   -0.5502   -1.4959 H   0  0  0  0  0  0  0  0  0  0  0  0
   -2.3268    0.1556    1.9616 H   0  0  0  0  0  0  0  0  0  0  0  0
   -5.5836    1.7535   -1.4255 H   0  0  0  0  0  0  0  0  0  0  0  0
   -3.1214    2.4839    2.0428 H   0  0  0  0  0  0  0  0  0  0  0  0
  1 28  1  0  0  0  0
  2  3  2  0  0  0  0
  2  4  2  0  0  0  0
  2  7  1  0  0  0  0
  2 13  1  0  0  0  0
  5 19  2  0  0  0  0
  6 21  1  0  0  0  0
  6 23  1  0  0  0  0
  7  9  1  0  0  0  0
  7 10  1  0  0  0  0
  8 19  1  0  0  0  0
  8 20  1  0  0  0  0
  8 22  1  0  0  0  0
  9 11  1  0  0  0  0
  9 29  1  0  0  0  0
  9 30  1  0  0  0  0
 10 12  1  0  0  0  0
 10 31  1  0  0  0  0
 10 32  1  0  0  0  0
 11 12  1  0  0  0  0
 11 33  1  0  0  0  0
 11 34  1  0  0  0  0
 12 35  1  0  0  0  0
 12 36  1  0  0  0  0
 13 14  1  0  0  0  0
 13 15  2  0  0  0  0
 14 16  2  0  0  0  0
 14 37  1  0  0  0  0
 15 17  1  0  0  0  0
 15 38  1  0  0  0  0
 16 18  1  0  0  0  0
 16 19  1  0  0  0  0
 17 18  2  0  0  0  0
 17 39  1  0  0  0  0
 18 40  1  0  0  0  0
 20 21  1  0  0  0  0
 20 41  1  0  0  0  0
 20 42  1  0  0  0  0
 21 43  1  0  0  0  0
 21 44  1  0  0  0  0
 22 45  1  0  0  0  0
 22 46  1  0  0  0  0
 22 47  1  0  0  0  0
 23 24  2  0  0  0  0
 23 25  1  0  0  0  0
 24 26  1  0  0  0  0
 24 48  1  0  0  0  0
 25 27  2  0  0  0  0
 25 49  1  0  0  0  0
 26 28  2  0  0  0  0
 26 50  1  0  0  0  0
 27 28  1  0  0  0  0
 27 51  1  0  0  0  0
M  END
> <PUBCHEM_COMPOUND_CID>
17396449

> <PUBCHEM_CONFORMER_RMSD>
1.2

> <PUBCHEM_CONFORMER_DIVERSEORDER>
1
64
177
30
46
18
156
160
126
139
147
76
95
27
169
79
138
12
100
135
136
81
181
101
158
192
99
111
34
186
188
176
35
92
117
24
48
90
16
157
96
166
155
189
28
110
98
22
8
13
68
171
118
133
19
124
109
20
32
63
141
57
179
108
71
88
89
173
175
191
50
184
54
74
153
163
62
119
21
86
148
82
77
185
91
144
182
31
170
168
61
187
143
84
60
112
7
23
103
104
75
37
72
116
52
113
178
85
142
145
151
11
131
174
15
17
5
42
58
33
149
9
87
2
10
152
38
83
67
128
162
137
154
39
193
41
47
93
69
65
183
55
40
78
102
29
129
159
123
6
59
161
167
120
172
44
56
165
132
114
106
150
43
94
121
180
45
25
140
125
14
134
53
115
190
127
3
36
122
164
80
26
70
51
66
130
4
49
146
107
105
73
97

> <PUBCHEM_MMFF94_PARTIAL_CHARGES>
34
1 -0.11
10 0.36
13 -0.01
14 -0.15
15 -0.15
16 0.09
17 -0.15
18 -0.15
19 0.54
2 1.45
20 0.3
21 0.28
22 0.3
23 0.08
24 -0.15
25 -0.15
26 -0.15
27 -0.15
28 0.11
3 -0.65
37 0.15
38 0.15
39 0.15
4 -0.65
40 0.15
48 0.15
49 0.15
5 -0.57
50 0.15
51 0.15
6 -0.36
7 -0.85
8 -0.66
9 0.36

> <PUBCHEM_EFFECTIVE_ROTOR_COUNT>
9

> <PUBCHEM_PHARMACOPHORE_FEATURES>
8
1 1 hydrophobe
1 3 acceptor
1 4 acceptor
1 5 acceptor
1 6 acceptor
5 7 9 10 11 12 rings
6 13 14 15 16 17 18 rings
6 23 24 25 26 27 28 rings

> <PUBCHEM_HEAVY_ATOM_COUNT>
28

> <PUBCHEM_ATOM_DEF_STEREO_COUNT>
0

> <PUBCHEM_ATOM_UDEF_STEREO_COUNT>
0

> <PUBCHEM_BOND_DEF_STEREO_COUNT>
0

> <PUBCHEM_BOND_UDEF_STEREO_COUNT>
0

> <PUBCHEM_ISOTOPIC_ATOM_COUNT>
0

> <PUBCHEM_COMPONENT_COUNT>
1

> <PUBCHEM_CACTVS_TAUTO_COUNT>
1

> <PUBCHEM_CONFORMER_ID>
010972E100000001

> <PUBCHEM_MMFF94_ENERGY>
68.5831

> <PUBCHEM_FEATURE_SELFOVERLAP>
40.613

> <PUBCHEM_SHAPE_FINGERPRINT>
10670039 82 18195802977468528900
10764073 3 18189924009982478912
10811444 77 17838908375737465325
11582403 64 16303191524267720378
12422481 6 17987263104566311392
12633257 1 16917077645760785144
12788726 201 17620186538278569989
13617811 41 18268158570156668093
14117953 113 17612601428739443193
14251757 17 17241868931230517916
14251764 38 18411698816239158619
15210252 30 17329120972953066999
15475509 84 16691059029278964835
16991981 162 16402769838071383820
17921350 177 17458911418610433764
20715895 44 17903646529453467121
20739085 24 18131083631946870746
20764821 26 17987523769957033645
21304253 335 18335995207373776482
21860390 5 18119247509000345991
22393880 68 18187643591762846489
235170 7 16517084004352562830
245318 6 18270108128362406749
338550 245 18342177769261145800
4066623 53 16894261985364156047
474 4 18202286909370574027
50150288 127 14534014651387634181
5048184 11 18341325604963587205
5081480 168 16736618268865437079
550186 7 17178002514595636520
5895379 119 18195805163987184380

> <PUBCHEM_SHAPE_MULTIPOLES>
552.58
10.23
4.98
2.12
9.85
0.54
-1.09
-8.32
0.72
1.16
-0.67
-2.01
-0.92
-2.23

> <PUBCHEM_SHAPE_SELFOVERLAP>
1139.168

> <PUBCHEM_SHAPE_VOLUME>
322.8

> <PUBCHEM_COORDINATE_TYPE>
2
5
10

$$$$

