12716
  -OEChem-06261207173D

 18 17  0     0  0  0  0  0  0999 V2000
    0.4215   -0.6440    0.2531 O   0  0  0  0  0  0  0  0  0  0  0  0
   -0.8685    1.1848    0.8286 O   0  0  0  0  0  0  0  0  0  0  0  0
    1.6264    0.1129    0.1887 C   0  0  0  0  0  0  0  0  0  0  0  0
    2.8132   -0.8375    0.1480 C   0  0  0  0  0  0  0  0  0  0  0  0
    1.5838    1.0191   -1.0322 C   0  0  0  0  0  0  0  0  0  0  0  0
   -0.7303    0.0818    0.3237 C   0  0  0  0  0  0  0  0  0  0  0  0
   -1.8024   -0.7035   -0.3221 C   0  0  0  0  0  0  0  0  0  0  0  0
   -3.0436   -0.2137   -0.3878 C   0  0  0  0  0  0  0  0  0  0  0  0
    1.7125    0.7210    1.0979 H   0  0  0  0  0  0  0  0  0  0  0  0
    3.7613   -0.2921    0.1191 H   0  0  0  0  0  0  0  0  0  0  0  0
    2.8105   -1.4884    1.0290 H   0  0  0  0  0  0  0  0  0  0  0  0
    2.7581   -1.4938   -0.7276 H   0  0  0  0  0  0  0  0  0  0  0  0
    2.5428    1.5289   -1.1725 H   0  0  0  0  0  0  0  0  0  0  0  0
    0.8152    1.7935   -0.9521 H   0  0  0  0  0  0  0  0  0  0  0  0
    1.3628    0.4444   -1.9387 H   0  0  0  0  0  0  0  0  0  0  0  0
   -1.5669   -1.6761   -0.7394 H   0  0  0  0  0  0  0  0  0  0  0  0
   -3.8303   -0.7907   -0.8626 H   0  0  0  0  0  0  0  0  0  0  0  0
   -3.3103    0.7553    0.0194 H   0  0  0  0  0  0  0  0  0  0  0  0
  1  3  1  0  0  0  0
  1  6  1  0  0  0  0
  2  6  2  0  0  0  0
  3  4  1  0  0  0  0
  3  5  1  0  0  0  0
  3  9  1  0  0  0  0
  4 10  1  0  0  0  0
  4 11  1  0  0  0  0
  4 12  1  0  0  0  0
  5 13  1  0  0  0  0
  5 14  1  0  0  0  0
  5 15  1  0  0  0  0
  6  7  1  0  0  0  0
  7  8  2  0  0  0  0
  7 16  1  0  0  0  0
  8 17  1  0  0  0  0
  8 18  1  0  0  0  0
M  END
> <PUBCHEM_COMPOUND_CID>
12716

> <PUBCHEM_CONFORMER_RMSD>
0.6

> <PUBCHEM_CONFORMER_DIVERSEORDER>
1
4
9
12
5
11
8
7
3
2
6
10

> <PUBCHEM_MMFF94_PARTIAL_CHARGES>
9
1 -0.43
16 0.15
17 0.15
18 0.15
2 -0.57
3 0.28
6 0.71
7 -0.14
8 -0.3

> <PUBCHEM_EFFECTIVE_ROTOR_COUNT>
3

> <PUBCHEM_PHARMACOPHORE_FEATURES>
3
1 2 acceptor
1 8 hydrophobe
3 3 4 5 hydrophobe

> <PUBCHEM_HEAVY_ATOM_COUNT>
8

> <PUBCHEM_ATOM_DEF_STEREO_COUNT>
0

> <PUBCHEM_ATOM_UDEF_STEREO_COUNT>
0

> <PUBCHEM_BOND_DEF_STEREO_COUNT>
0

> <PUBCHEM_BOND_UDEF_STEREO_COUNT>
0

> <PUBCHEM_ISOTOPIC_ATOM_COUNT>
0

> <PUBCHEM_COMPONENT_COUNT>
1

> <PUBCHEM_CACTVS_TAUTO_COUNT>
1

> <PUBCHEM_CONFORMER_ID>
000031AC00000001

> <PUBCHEM_MMFF94_ENERGY>
14.5777

> <PUBCHEM_FEATURE_SELFOVERLAP>
15.223

> <PUBCHEM_SHAPE_FINGERPRINT>
10857977 72 15574721274304068883
11062470 55 16732707138253474627
12932741 1 16271632417360309520
14390081 3 15913337866252497583
20653085 51 17346597499781159341
23552423 10 18337946899967497959
23552449 11 16878796984661667497
29004967 10 14129054811681463066
5084963 1 18343585157002947808
5460574 1 11024110962041175091

> <PUBCHEM_SHAPE_MULTIPOLES>
152.9
4.2
1.08
0.86
0.81
0.16
0.02
-0.83
0.66
-0.4
0.05
0.02
0.21
-0.38

> <PUBCHEM_SHAPE_SELFOVERLAP>
283.428

> <PUBCHEM_SHAPE_VOLUME>
96.5

> <PUBCHEM_COORDINATE_TYPE>
2
5
10

$$$$

