88881
  -OEChem-07051212583D

 35 37  0     0  0  0  0  0  0999 V2000
    0.5745   -0.7655    0.0305 O   0  0  0  0  0  0  0  0  0  0  0  0
   -3.3307    2.1019    0.1838 O   0  0  0  0  0  0  0  0  0  0  0  0
   -3.7932   -2.6244    0.1209 O   0  0  0  0  0  0  0  0  0  0  0  0
   -0.8803    3.0387    0.1359 O   0  0  0  0  0  0  0  0  0  0  0  0
   -1.3444    0.7218    0.1065 C   0  0  0  0  0  0  0  0  0  0  0  0
   -0.7801   -0.5522    0.0705 C   0  0  0  0  0  0  0  0  0  0  0  0
   -2.7316    0.8792    0.1473 C   0  0  0  0  0  0  0  0  0  0  0  0
    1.4165    0.3361    0.0178 C   0  0  0  0  0  0  0  0  0  0  0  0
   -0.4541    1.8926    0.1025 C   0  0  0  0  0  0  0  0  0  0  0  0
   -1.6023   -1.6792    0.0753 C   0  0  0  0  0  0  0  0  0  0  0  0
    0.9949    1.6101    0.0563 C   0  0  0  0  0  0  0  0  0  0  0  0
    2.8524   -0.0066   -0.0199 C   0  0  0  0  0  0  0  0  0  0  0  0
   -2.9884   -1.5263    0.1157 C   0  0  0  0  0  0  0  0  0  0  0  0
   -3.5516   -0.2499    0.1515 C   0  0  0  0  0  0  0  0  0  0  0  0
    3.7908    0.8337    0.5847 C   0  0  0  0  0  0  0  0  0  0  0  0
    3.2792   -1.1730   -0.6596 C   0  0  0  0  0  0  0  0  0  0  0  0
    5.1471    0.5097    0.5497 C   0  0  0  0  0  0  0  0  0  0  0  0
    4.6354   -1.4971   -0.6945 C   0  0  0  0  0  0  0  0  0  0  0  0
    5.5694   -0.6556   -0.0899 C   0  0  0  0  0  0  0  0  0  0  0  0
   -3.6506    2.7048   -1.0686 C   0  0  0  0  0  0  0  0  0  0  0  0
   -3.1527   -3.8986    0.0836 C   0  0  0  0  0  0  0  0  0  0  0  0
   -1.1074   -2.6444    0.0464 H   0  0  0  0  0  0  0  0  0  0  0  0
    1.6545    2.4697    0.0338 H   0  0  0  0  0  0  0  0  0  0  0  0
   -4.6328   -0.1378    0.1841 H   0  0  0  0  0  0  0  0  0  0  0  0
    3.5006    1.7386    1.1119 H   0  0  0  0  0  0  0  0  0  0  0  0
    2.5742   -1.8427   -1.1462 H   0  0  0  0  0  0  0  0  0  0  0  0
    5.8742    1.1619    1.0247 H   0  0  0  0  0  0  0  0  0  0  0  0
    4.9649   -2.4037   -1.1939 H   0  0  0  0  0  0  0  0  0  0  0  0
    6.6253   -0.9084   -0.1165 H   0  0  0  0  0  0  0  0  0  0  0  0
   -3.9205    3.7488   -0.8875 H   0  0  0  0  0  0  0  0  0  0  0  0
   -4.5082    2.1948   -1.5184 H   0  0  0  0  0  0  0  0  0  0  0  0
   -2.8004    2.6763   -1.7576 H   0  0  0  0  0  0  0  0  0  0  0  0
   -2.5376   -4.0665    0.9743 H   0  0  0  0  0  0  0  0  0  0  0  0
   -2.5878   -4.0385   -0.8443 H   0  0  0  0  0  0  0  0  0  0  0  0
   -3.9422   -4.6573    0.0936 H   0  0  0  0  0  0  0  0  0  0  0  0
  1  6  1  0  0  0  0
  1  8  1  0  0  0  0
  2  7  1  0  0  0  0
  2 20  1  0  0  0  0
  3 13  1  0  0  0  0
  3 21  1  0  0  0  0
  4  9  2  0  0  0  0
  5  6  2  0  0  0  0
  5  7  1  0  0  0  0
  5  9  1  0  0  0  0
  6 10  1  0  0  0  0
  7 14  2  0  0  0  0
  8 11  2  0  0  0  0
  8 12  1  0  0  0  0
  9 11  1  0  0  0  0
 10 13  2  0  0  0  0
 10 22  1  0  0  0  0
 11 23  1  0  0  0  0
 12 15  2  0  0  0  0
 12 16  1  0  0  0  0
 13 14  1  0  0  0  0
 14 24  1  0  0  0  0
 15 17  1  0  0  0  0
 15 25  1  0  0  0  0
 16 18  2  0  0  0  0
 16 26  1  0  0  0  0
 17 19  2  0  0  0  0
 17 27  1  0  0  0  0
 18 19  1  0  0  0  0
 18 28  1  0  0  0  0
 19 29  1  0  0  0  0
 20 30  1  0  0  0  0
 20 31  1  0  0  0  0
 20 32  1  0  0  0  0
 21 33  1  0  0  0  0
 21 34  1  0  0  0  0
 21 35  1  0  0  0  0
M  END
> <PUBCHEM_COMPOUND_CID>
88881

> <PUBCHEM_CONFORMER_RMSD>
0.6

> <PUBCHEM_CONFORMER_DIVERSEORDER>
4
5
3
2
1

> <PUBCHEM_MMFF94_PARTIAL_CHARGES>
29
1 -0.16
10 -0.15
11 -0.14
12 0.03
13 0.08
14 -0.15
15 -0.15
16 -0.15
17 -0.15
18 -0.15
19 -0.15
2 -0.36
20 0.28
21 0.28
22 0.15
23 0.15
24 0.15
25 0.15
26 0.15
27 0.15
28 0.15
29 0.15
3 -0.36
4 -0.57
5 0.09
6 0.08
7 0.08
8 0.05
9 0.47

> <PUBCHEM_EFFECTIVE_ROTOR_COUNT>
3

> <PUBCHEM_PHARMACOPHORE_FEATURES>
7
1 1 acceptor
1 2 acceptor
1 3 acceptor
1 4 acceptor
6 1 5 6 8 9 11 rings
6 12 15 16 17 18 19 rings
6 5 6 7 10 13 14 rings

> <PUBCHEM_HEAVY_ATOM_COUNT>
21

> <PUBCHEM_ATOM_DEF_STEREO_COUNT>
0

> <PUBCHEM_ATOM_UDEF_STEREO_COUNT>
0

> <PUBCHEM_BOND_DEF_STEREO_COUNT>
0

> <PUBCHEM_BOND_UDEF_STEREO_COUNT>
0

> <PUBCHEM_ISOTOPIC_ATOM_COUNT>
0

> <PUBCHEM_COMPONENT_COUNT>
1

> <PUBCHEM_CACTVS_TAUTO_COUNT>
1

> <PUBCHEM_CONFORMER_ID>
00015B3100000004

> <PUBCHEM_MMFF94_ENERGY>
84.7236

> <PUBCHEM_FEATURE_SELFOVERLAP>
35.559

> <PUBCHEM_SHAPE_FINGERPRINT>
10319926 262 18264508303178949546
10411042 1 18195245508215825331
105312 117 17844821484461422349
10616163 171 18409164433105107446
11552529 35 17604150324385982647
12236239 1 17560515205622389536
12293681 160 17826810418926254673
12403259 226 18192153694260398833
12969540 114 18055370264530715877
13140716 1 18335134259113840489
13583140 156 17894640223102991332
13675066 3 18187087235042621208
138480 1 16321185585679930033
14508225 48 18267597810330047949
14790565 3 17760361489261724153
15042514 8 18411974733675985403
15196674 1 18409448090172630536
15352361 1 18337671888932573842
15375358 24 18188492488117456348
17492 89 18411135801861851422
1813 80 17775564217626740324
19141452 34 18334569127686050915
200 152 16878235263179980652
21065198 57 18408885170252266840
21065201 7 18411705396066012682
21267235 1 18411409596835377394
21339142 51 18410295834817498965
22122407 14 15719387313357818002
221490 88 18267299820571126450
23366157 5 17915459390034599708
23402539 116 18341336660530770764
23557571 272 18334007302860833494
23559900 14 18262800791485141590
2748010 2 18335991869778096177
335352 9 18337952423358770428
3421961 26 17904479602289014147
34934 24 18270686492362291112
4214541 1 18409729582081297048
5104073 3 18333453149412021682
54173680 148 18410290302894002681
559249 180 18200316657706338010
573450 72 18201449098879722370
633830 44 16844996996886875596
77779 3 18408884040733935730
9709674 26 18261106439392294998

> <PUBCHEM_SHAPE_MULTIPOLES>
408.69
10.24
3.4
0.74
11.14
1.16
0.08
2.91
0.37
-5.39
0.24
0.13
-0.11
1.13

> <PUBCHEM_SHAPE_SELFOVERLAP>
900.556

> <PUBCHEM_SHAPE_VOLUME>
219.5

> <PUBCHEM_COORDINATE_TYPE>
2
5
10

$$$$

