9159
  -OEChem-07051213143D

 35 39  0     0  0  0  0  0  0999 V2000
    1.2895    0.5887    0.0009 C   0  0  0  0  0  0  0  0  0  0  0  0
   -1.0310    0.1972    0.0012 C   0  0  0  0  0  0  0  0  0  0  0  0
    0.6370    1.9533    0.0008 C   0  0  0  0  0  0  0  0  0  0  0  0
    0.2984   -0.4266    0.0013 C   0  0  0  0  0  0  0  0  0  0  0  0
   -0.8296    1.6017    0.0008 C   0  0  0  0  0  0  0  0  0  0  0  0
    2.6664    0.3144    0.0002 C   0  0  0  0  0  0  0  0  0  0  0  0
   -2.3507   -0.3167    0.0006 C   0  0  0  0  0  0  0  0  0  0  0  0
    0.7081   -1.7494    0.0013 C   0  0  0  0  0  0  0  0  0  0  0  0
   -1.8727    2.5079    0.0003 C   0  0  0  0  0  0  0  0  0  0  0  0
    3.0604   -1.0418    0.0003 C   0  0  0  0  0  0  0  0  0  0  0  0
   -3.4230    0.6248   -0.0003 C   0  0  0  0  0  0  0  0  0  0  0  0
    2.0772   -2.0506    0.0008 C   0  0  0  0  0  0  0  0  0  0  0  0
   -3.1690    2.0101   -0.0004 C   0  0  0  0  0  0  0  0  0  0  0  0
    3.6574    1.3162   -0.0006 C   0  0  0  0  0  0  0  0  0  0  0  0
   -2.7030   -1.6871    0.0006 C   0  0  0  0  0  0  0  0  0  0  0  0
    4.4286   -1.3601   -0.0008 C   0  0  0  0  0  0  0  0  0  0  0  0
   -4.7552    0.1798   -0.0014 C   0  0  0  0  0  0  0  0  0  0  0  0
    5.0113    0.9809   -0.0016 C   0  0  0  0  0  0  0  0  0  0  0  0
   -4.0354   -2.1097   -0.0006 C   0  0  0  0  0  0  0  0  0  0  0  0
    5.3963   -0.3555   -0.0014 C   0  0  0  0  0  0  0  0  0  0  0  0
   -5.0609   -1.1774   -0.0019 C   0  0  0  0  0  0  0  0  0  0  0  0
    0.8986    2.5096   -0.9043 H   0  0  0  0  0  0  0  0  0  0  0  0
    0.8986    2.5098    0.9059 H   0  0  0  0  0  0  0  0  0  0  0  0
    0.0177   -2.5806    0.0016 H   0  0  0  0  0  0  0  0  0  0  0  0
   -1.6901    3.5769    0.0000 H   0  0  0  0  0  0  0  0  0  0  0  0
    2.3732   -3.0989    0.0007 H   0  0  0  0  0  0  0  0  0  0  0  0
   -3.9941    2.7207   -0.0011 H   0  0  0  0  0  0  0  0  0  0  0  0
    3.3841    2.3689   -0.0007 H   0  0  0  0  0  0  0  0  0  0  0  0
   -1.9549   -2.4678    0.0014 H   0  0  0  0  0  0  0  0  0  0  0  0
    4.7537   -2.3986   -0.0009 H   0  0  0  0  0  0  0  0  0  0  0  0
   -5.5769    0.8941   -0.0023 H   0  0  0  0  0  0  0  0  0  0  0  0
    5.7642    1.7636   -0.0022 H   0  0  0  0  0  0  0  0  0  0  0  0
   -4.2659   -3.1713   -0.0006 H   0  0  0  0  0  0  0  0  0  0  0  0
    6.4503   -0.6176   -0.0022 H   0  0  0  0  0  0  0  0  0  0  0  0
   -6.0966   -1.5034   -0.0028 H   0  0  0  0  0  0  0  0  0  0  0  0
  1  3  1  0  0  0  0
  1  4  2  0  0  0  0
  1  6  1  0  0  0  0
  2  4  1  0  0  0  0
  2  5  2  0  0  0  0
  2  7  1  0  0  0  0
  3  5  1  0  0  0  0
  3 22  1  0  0  0  0
  3 23  1  0  0  0  0
  4  8  1  0  0  0  0
  5  9  1  0  0  0  0
  6 10  1  0  0  0  0
  6 14  2  0  0  0  0
  7 11  1  0  0  0  0
  7 15  2  0  0  0  0
  8 12  2  0  0  0  0
  8 24  1  0  0  0  0
  9 13  2  0  0  0  0
  9 25  1  0  0  0  0
 10 12  1  0  0  0  0
 10 16  2  0  0  0  0
 11 13  1  0  0  0  0
 11 17  2  0  0  0  0
 12 26  1  0  0  0  0
 13 27  1  0  0  0  0
 14 18  1  0  0  0  0
 14 28  1  0  0  0  0
 15 19  1  0  0  0  0
 15 29  1  0  0  0  0
 16 20  1  0  0  0  0
 16 30  1  0  0  0  0
 17 21  1  0  0  0  0
 17 31  1  0  0  0  0
 18 20  2  0  0  0  0
 18 32  1  0  0  0  0
 19 21  2  0  0  0  0
 19 33  1  0  0  0  0
 20 34  1  0  0  0  0
 21 35  1  0  0  0  0
M  END
> <PUBCHEM_COMPOUND_CID>
9159

> <PUBCHEM_CONFORMER_RMSD>
0.6

> <PUBCHEM_CONFORMER_DIVERSEORDER>
1

> <PUBCHEM_MMFF94_PARTIAL_CHARGES>
27
1 -0.14
12 -0.15
13 -0.15
14 -0.15
15 -0.15
16 -0.15
17 -0.15
18 -0.15
19 -0.15
20 -0.15
21 -0.15
24 0.15
25 0.15
26 0.15
27 0.15
28 0.15
29 0.15
3 0.29
30 0.15
31 0.15
32 0.15
33 0.15
34 0.15
35 0.15
5 -0.14
8 -0.15
9 -0.15

> <PUBCHEM_EFFECTIVE_ROTOR_COUNT>
0.2

> <PUBCHEM_PHARMACOPHORE_FEATURES>
5
5 1 2 3 4 5 rings
6 1 4 6 8 10 12 rings
6 2 5 7 9 11 13 rings
6 6 10 14 16 18 20 rings
6 7 11 15 17 19 21 rings

> <PUBCHEM_HEAVY_ATOM_COUNT>
21

> <PUBCHEM_ATOM_DEF_STEREO_COUNT>
0

> <PUBCHEM_ATOM_UDEF_STEREO_COUNT>
0

> <PUBCHEM_BOND_DEF_STEREO_COUNT>
0

> <PUBCHEM_BOND_UDEF_STEREO_COUNT>
0

> <PUBCHEM_ISOTOPIC_ATOM_COUNT>
0

> <PUBCHEM_COMPONENT_COUNT>
1

> <PUBCHEM_CACTVS_TAUTO_COUNT>
1

> <PUBCHEM_CONFORMER_ID>
000023C700000001

> <PUBCHEM_MMFF94_ENERGY>
80.0323

> <PUBCHEM_FEATURE_SELFOVERLAP>
25.575

> <PUBCHEM_SHAPE_FINGERPRINT>
10 15 18336278834640851328
10319926 262 18192450756206417634
10616163 171 18409166640443796127
10906281 52 18338216225019499499
10967382 1 18338516343905845185
11488393 25 17315053683954979382
11578080 2 17058103335001066719
11806522 49 18413107247072795468
11963148 33 18339648832362462327
12107183 9 17691972978351811226
12236239 1 17918275359487268564
12403259 226 18411143567162761552
12403259 415 18186527588098782232
12553582 1 18337123271669887815
12839892 36 18267039399878003186
13140716 1 17977948986114719483
13167823 11 18412265055821322850
13224815 77 18410575110596406546
13288520 33 18409165510956801717
13544653 18 18342451513491616619
138480 1 15096207655166740885
13862211 1 18410579457045703526
14341114 176 18411412921123947819
14787075 74 18341331098157862202
14790565 3 18266171747543174964
15196674 1 18410575110501460964
15352361 1 18410856529976042575
15536298 74 18335701676212550748
15788980 27 16917351445709863870
17349148 13 17917990577169462216
17492 89 18339080518163238770
1813 80 17418089923077391389
18681886 176 18410294697304923096
19141452 34 18333729101055598503
19591789 44 18408887304550332556
200 152 18259987071729464369
20261772 1 18040438750206076902
21033648 29 17168725113998417018
21236236 1 18408885152634775145
21267235 1 18410847767857890231
21421861 104 17986677184267805443
21673915 165 18410292510185302978
221490 88 18269550538116389155
22393880 68 18268145534323847718
23402539 116 18413394223939665607
23557571 272 18260541255813020124
23559900 14 18409739430367980113
2871803 45 18413674612242242383
3004659 81 18202005421202629398
335352 9 18410575085623376533
34797466 226 17458618978788003156
34934 24 18340492256996379835
350125 39 18410293580313037944
3545911 37 18411418435872563933
4214541 1 18410575127634117221
474 4 17632568319798665308
474229 33 18410012117851873126
5104073 3 18337111262751139208
5283173 99 18130518538620373565
5312544 6 18127686037758785228
5486654 2 18339357470528200726
77779 3 18410011069884867788
9709674 26 18263921205875157398

> <PUBCHEM_SHAPE_MULTIPOLES>
432.17
10.86
2.5
0.62
2.97
0.27
0
-2.25
-0.01
-1.13
0
0
0
0

> <PUBCHEM_SHAPE_SELFOVERLAP>
1003.467

> <PUBCHEM_SHAPE_VOLUME>
200.1

> <PUBCHEM_COORDINATE_TYPE>
2
5
10

$$$$

