5281244
  -OEChem-07051212553D

 99101  0     1  0  0  0  0  0999 V2000
  -11.6230    0.0444   -1.5251 O   0  0  0  0  0  0  0  0  0  0  0  0
  -15.6599    0.6226   -0.1516 O   0  0  0  0  0  0  0  0  0  0  0  0
   15.8205   -1.4517    1.0092 O   0  0  0  0  0  0  0  0  0  0  0  0
  -11.4402   -0.0126   -0.0947 C   0  0  2  0  0  0  0  0  0  0  0  0
  -12.3481   -0.9687   -0.8294 C   0  0  1  0  0  0  0  0  0  0  0  0
  -11.9947    1.1772    0.6698 C   0  0  0  0  0  0  0  0  0  0  0  0
  -13.8281   -0.7897   -0.8212 C   0  0  0  0  0  0  0  0  0  0  0  0
  -13.5281    1.0615    0.8532 C   0  0  0  0  0  0  0  0  0  0  0  0
  -14.2597    0.6196   -0.4155 C   0  0  2  0  0  0  0  0  0  0  0  0
  -11.8742   -2.3393   -1.2072 C   0  0  0  0  0  0  0  0  0  0  0  0
  -10.1723   -0.5692    0.4094 C   0  0  0  0  0  0  0  0  0  0  0  0
  -11.3504    1.2169    2.0714 C   0  0  0  0  0  0  0  0  0  0  0  0
  -11.6349    2.4919   -0.0490 C   0  0  0  0  0  0  0  0  0  0  0  0
   -8.9659   -0.1536   -0.0055 C   0  0  0  0  0  0  0  0  0  0  0  0
   -7.6988   -0.6570    0.5007 C   0  0  0  0  0  0  0  0  0  0  0  0
   -7.8514   -1.6890    1.5872 C   0  0  0  0  0  0  0  0  0  0  0  0
   -6.4756   -0.2557    0.1003 C   0  0  0  0  0  0  0  0  0  0  0  0
   -5.1923   -0.7336    0.5808 C   0  0  0  0  0  0  0  0  0  0  0  0
   12.7544    0.7506    1.0861 C   0  0  0  0  0  0  0  0  0  0  0  0
   11.9057   -0.2848    0.2643 C   0  0  2  0  0  0  0  0  0  0  0  0
   14.0274    0.0388    1.5983 C   0  0  0  0  0  0  0  0  0  0  0  0
   14.8854   -0.5239    0.4626 C   0  0  2  0  0  0  0  0  0  0  0  0
   12.7375   -1.1427   -0.6886 C   0  0  0  0  0  0  0  0  0  0  0  0
   -4.0223   -0.2656    0.1134 C   0  0  0  0  0  0  0  0  0  0  0  0
   11.9543    1.2463    2.3103 C   0  0  0  0  0  0  0  0  0  0  0  0
   13.1533    1.9887    0.2488 C   0  0  0  0  0  0  0  0  0  0  0  0
   14.0771   -1.2255   -0.5852 C   0  0  0  0  0  0  0  0  0  0  0  0
   10.7382    0.3715   -0.4241 C   0  0  0  0  0  0  0  0  0  0  0  0
   12.0098   -1.9694   -1.7166 C   0  0  0  0  0  0  0  0  0  0  0  0
   -2.6795   -0.6869    0.5289 C   0  0  0  0  0  0  0  0  0  0  0  0
    9.4566    0.0831   -0.1461 C   0  0  0  0  0  0  0  0  0  0  0  0
   -2.5892   -1.7546    1.5908 C   0  0  0  0  0  0  0  0  0  0  0  0
   -1.6151   -0.0981   -0.0582 C   0  0  0  0  0  0  0  0  0  0  0  0
    8.2697    0.6710   -0.7705 C   0  0  0  0  0  0  0  0  0  0  0  0
    8.4848    1.7297   -1.8231 C   0  0  0  0  0  0  0  0  0  0  0  0
    7.0533    0.2542   -0.3592 C   0  0  0  0  0  0  0  0  0  0  0  0
   -0.2099   -0.3529    0.1929 C   0  0  0  0  0  0  0  0  0  0  0  0
    5.7541    0.6805   -0.8376 C   0  0  0  0  0  0  0  0  0  0  0  0
    0.7730    0.2962   -0.4541 C   0  0  0  0  0  0  0  0  0  0  0  0
    4.5845    0.2121   -0.3708 C   0  0  0  0  0  0  0  0  0  0  0  0
    2.1780    0.0420   -0.2020 C   0  0  0  0  0  0  0  0  0  0  0  0
    3.2425    0.6308   -0.7888 C   0  0  0  0  0  0  0  0  0  0  0  0
    3.1532    1.6945   -1.8544 C   0  0  0  0  0  0  0  0  0  0  0  0
  -14.2496   -1.0211   -1.8076 H   0  0  0  0  0  0  0  0  0  0  0  0
  -14.2756   -1.5181   -0.1320 H   0  0  0  0  0  0  0  0  0  0  0  0
  -13.7572    0.3367    1.6478 H   0  0  0  0  0  0  0  0  0  0  0  0
  -13.9420    2.0137    1.2112 H   0  0  0  0  0  0  0  0  0  0  0  0
  -14.0748    1.3224   -1.2351 H   0  0  0  0  0  0  0  0  0  0  0  0
  -10.8196   -2.3639   -1.5015 H   0  0  0  0  0  0  0  0  0  0  0  0
  -12.4489   -2.7238   -2.0570 H   0  0  0  0  0  0  0  0  0  0  0  0
  -12.0117   -3.0297   -0.3685 H   0  0  0  0  0  0  0  0  0  0  0  0
  -10.2873   -1.3473    1.1572 H   0  0  0  0  0  0  0  0  0  0  0  0
  -11.4987    0.2791    2.6201 H   0  0  0  0  0  0  0  0  0  0  0  0
  -11.8089    2.0103    2.6755 H   0  0  0  0  0  0  0  0  0  0  0  0
  -10.2780    1.4404    2.0442 H   0  0  0  0  0  0  0  0  0  0  0  0
  -10.5510    2.5940   -0.1744 H   0  0  0  0  0  0  0  0  0  0  0  0
  -11.9866    3.3610    0.5185 H   0  0  0  0  0  0  0  0  0  0  0  0
  -12.0816    2.5493   -1.0471 H   0  0  0  0  0  0  0  0  0  0  0  0
  -15.9133    1.5327    0.0791 H   0  0  0  0  0  0  0  0  0  0  0  0
   -8.9045    0.6254   -0.7623 H   0  0  0  0  0  0  0  0  0  0  0  0
   -8.3680   -2.5786    1.2068 H   0  0  0  0  0  0  0  0  0  0  0  0
   -8.4153   -1.2816    2.4354 H   0  0  0  0  0  0  0  0  0  0  0  0
   -6.9220   -2.0583    2.0209 H   0  0  0  0  0  0  0  0  0  0  0  0
   -6.4248    0.5063   -0.6775 H   0  0  0  0  0  0  0  0  0  0  0  0
   -5.1767   -1.5031    1.3401 H   0  0  0  0  0  0  0  0  0  0  0  0
   11.5040   -1.0077    0.9923 H   0  0  0  0  0  0  0  0  0  0  0  0
   13.7453   -0.7728    2.2847 H   0  0  0  0  0  0  0  0  0  0  0  0
   14.6412    0.7195    2.2034 H   0  0  0  0  0  0  0  0  0  0  0  0
   15.4656    0.2752   -0.0107 H   0  0  0  0  0  0  0  0  0  0  0  0
   11.6413    0.4094    2.9446 H   0  0  0  0  0  0  0  0  0  0  0  0
   12.5591    1.9207    2.9275 H   0  0  0  0  0  0  0  0  0  0  0  0
   11.0543    1.7948    2.0125 H   0  0  0  0  0  0  0  0  0  0  0  0
   13.8774    2.6073    0.7920 H   0  0  0  0  0  0  0  0  0  0  0  0
   12.2902    2.6285    0.0344 H   0  0  0  0  0  0  0  0  0  0  0  0
   13.6062    1.7146   -0.7091 H   0  0  0  0  0  0  0  0  0  0  0  0
   -4.0528    0.5075   -0.6547 H   0  0  0  0  0  0  0  0  0  0  0  0
   14.6306   -1.8442   -1.2880 H   0  0  0  0  0  0  0  0  0  0  0  0
   10.9765    1.0925   -1.2015 H   0  0  0  0  0  0  0  0  0  0  0  0
   11.2327   -2.5739   -1.2372 H   0  0  0  0  0  0  0  0  0  0  0  0
   11.5444   -1.3295   -2.4728 H   0  0  0  0  0  0  0  0  0  0  0  0
   12.6802   -2.6592   -2.2409 H   0  0  0  0  0  0  0  0  0  0  0  0
   15.3224   -2.1825    1.4142 H   0  0  0  0  0  0  0  0  0  0  0  0
    9.2644   -0.6593    0.6275 H   0  0  0  0  0  0  0  0  0  0  0  0
   -1.5659   -2.0249    1.8586 H   0  0  0  0  0  0  0  0  0  0  0  0
   -3.0744   -1.4196    2.5145 H   0  0  0  0  0  0  0  0  0  0  0  0
   -3.0755   -2.6760    1.2510 H   0  0  0  0  0  0  0  0  0  0  0  0
   -1.7993    0.6646   -0.8160 H   0  0  0  0  0  0  0  0  0  0  0  0
    9.0544    2.5697   -1.4095 H   0  0  0  0  0  0  0  0  0  0  0  0
    7.5639    2.1526   -2.2286 H   0  0  0  0  0  0  0  0  0  0  0  0
    9.0395    1.3151   -2.6723 H   0  0  0  0  0  0  0  0  0  0  0  0
    7.0056   -0.5082    0.4195 H   0  0  0  0  0  0  0  0  0  0  0  0
    0.0527   -1.0992    0.9350 H   0  0  0  0  0  0  0  0  0  0  0  0
    5.7436    1.4360   -1.6140 H   0  0  0  0  0  0  0  0  0  0  0  0
    0.5105    1.0427   -1.1961 H   0  0  0  0  0  0  0  0  0  0  0  0
    4.6178   -0.5475    0.4104 H   0  0  0  0  0  0  0  0  0  0  0  0
    2.3621   -0.7189    0.5576 H   0  0  0  0  0  0  0  0  0  0  0  0
    2.1300    1.9648   -2.1231 H   0  0  0  0  0  0  0  0  0  0  0  0
    3.6379    1.3557   -2.7770 H   0  0  0  0  0  0  0  0  0  0  0  0
    3.6404    2.6168   -1.5182 H   0  0  0  0  0  0  0  0  0  0  0  0
  1  4  1  0  0  0  0
  1  5  1  0  0  0  0
  2  9  1  0  0  0  0
  2 59  1  0  0  0  0
  3 22  1  0  0  0  0
  3 82  1  0  0  0  0
  4  5  1  0  0  0  0
  4  6  1  0  0  0  0
  4 11  1  0  0  0  0
  5  7  1  0  0  0  0
  5 10  1  0  0  0  0
  6  8  1  0  0  0  0
  6 12  1  0  0  0  0
  6 13  1  0  0  0  0
  7  9  1  0  0  0  0
  7 44  1  0  0  0  0
  7 45  1  0  0  0  0
  8  9  1  0  0  0  0
  8 46  1  0  0  0  0
  8 47  1  0  0  0  0
  9 48  1  0  0  0  0
 10 49  1  0  0  0  0
 10 50  1  0  0  0  0
 10 51  1  0  0  0  0
 11 14  2  0  0  0  0
 11 52  1  0  0  0  0
 12 53  1  0  0  0  0
 12 54  1  0  0  0  0
 12 55  1  0  0  0  0
 13 56  1  0  0  0  0
 13 57  1  0  0  0  0
 13 58  1  0  0  0  0
 14 15  1  0  0  0  0
 14 60  1  0  0  0  0
 15 16  1  0  0  0  0
 15 17  2  0  0  0  0
 16 61  1  0  0  0  0
 16 62  1  0  0  0  0
 16 63  1  0  0  0  0
 17 18  1  0  0  0  0
 17 64  1  0  0  0  0
 18 24  2  0  0  0  0
 18 65  1  0  0  0  0
 19 20  1  0  0  0  0
 19 21  1  0  0  0  0
 19 25  1  0  0  0  0
 19 26  1  0  0  0  0
 20 23  1  0  0  0  0
 20 28  1  0  0  0  0
 20 66  1  0  0  0  0
 21 22  1  0  0  0  0
 21 67  1  0  0  0  0
 21 68  1  0  0  0  0
 22 27  1  0  0  0  0
 22 69  1  0  0  0  0
 23 27  2  0  0  0  0
 23 29  1  0  0  0  0
 24 30  1  0  0  0  0
 24 76  1  0  0  0  0
 25 70  1  0  0  0  0
 25 71  1  0  0  0  0
 25 72  1  0  0  0  0
 26 73  1  0  0  0  0
 26 74  1  0  0  0  0
 26 75  1  0  0  0  0
 27 77  1  0  0  0  0
 28 31  2  0  0  0  0
 28 78  1  0  0  0  0
 29 79  1  0  0  0  0
 29 80  1  0  0  0  0
 29 81  1  0  0  0  0
 30 32  1  0  0  0  0
 30 33  2  0  0  0  0
 31 34  1  0  0  0  0
 31 83  1  0  0  0  0
 32 84  1  0  0  0  0
 32 85  1  0  0  0  0
 32 86  1  0  0  0  0
 33 37  1  0  0  0  0
 33 87  1  0  0  0  0
 34 35  1  0  0  0  0
 34 36  2  0  0  0  0
 35 88  1  0  0  0  0
 35 89  1  0  0  0  0
 35 90  1  0  0  0  0
 36 38  1  0  0  0  0
 36 91  1  0  0  0  0
 37 39  2  0  0  0  0
 37 92  1  0  0  0  0
 38 40  2  0  0  0  0
 38 93  1  0  0  0  0
 39 41  1  0  0  0  0
 39 94  1  0  0  0  0
 40 42  1  0  0  0  0
 40 95  1  0  0  0  0
 41 42  2  0  0  0  0
 41 96  1  0  0  0  0
 42 43  1  0  0  0  0
 43 97  1  0  0  0  0
 43 98  1  0  0  0  0
 43 99  1  0  0  0  0
M  END
> <PUBCHEM_COMPOUND_CID>
5281244

> <PUBCHEM_CONFORMER_RMSD>
1.2

> <PUBCHEM_CONFORMER_DIVERSEORDER>
1
17
177
121
4
38
171
160
165
147
98
27
85
32
33
91
204
208
205
86
130
107
92
62
193
3
136
155
120
124
174
95
137
156
42
54
105
57
163
36
47
127
187
39
87
201
206
183
108
40
168
140
111
72
122
37
115
109
84
203
141
106
198
8
119
125
74
80
88
101
89
207
14
172
138
159
61
188
22
50
197
94
2
151
44
202
59
154
60
113
173
133
77
68
181
176
166
186
65
158
52
200
194
64
175
31
12
73
189
5
82
48
45
116
169
148
167
99
196
76
178
117
180
15
71
70
16
83
150
81
157
192
53
90
20
100
134
67
10
184
96
199
55
79
63
110
93
103
13
179
46
25
135
191
170
49
144
34
41
29
23
164
75
161
190
28
66
132
146
24
131
56
145
35
143
78
97
129
185
21
139
19
18
11
102
112
209
142
58
152
149
123
104
126
26
162
6
128
30
153
118
195
9
182
51
7
114
43
69

> <PUBCHEM_MMFF94_PARTIAL_CHARGES>
53
1 -0.3
10 0.09
11 -0.19
14 -0.15
15 -0.14
16 0.14
17 -0.15
18 -0.15
2 -0.68
20 0.28
22 0.42
23 -0.28
24 -0.15
27 -0.29
28 -0.29
29 0.14
3 -0.68
30 -0.14
31 -0.15
32 0.14
33 -0.15
34 -0.14
35 0.14
36 -0.15
37 -0.15
38 -0.15
39 -0.15
4 0.09
40 -0.15
41 -0.15
42 -0.14
43 0.14
5 -0.04
52 0.15
59 0.4
6 0.09
60 0.15
64 0.15
65 0.15
7 0.09
76 0.15
77 0.15
78 0.15
82 0.4
83 0.15
87 0.15
9 0.28
91 0.15
92 0.15
93 0.15
94 0.15
95 0.15
96 0.15

> <PUBCHEM_EFFECTIVE_ROTOR_COUNT>
11.8

> <PUBCHEM_PHARMACOPHORE_FEATURES>
13
1 1 acceptor
1 16 hydrophobe
1 2 acceptor
1 2 donor
1 3 acceptor
1 3 donor
1 32 hydrophobe
1 35 hydrophobe
1 43 hydrophobe
3 19 25 26 hydrophobe
3 6 12 13 hydrophobe
6 19 20 21 22 23 27 rings
7 1 4 5 6 7 8 9 rings

> <PUBCHEM_HEAVY_ATOM_COUNT>
43

> <PUBCHEM_ATOM_DEF_STEREO_COUNT>
5

> <PUBCHEM_ATOM_UDEF_STEREO_COUNT>
0

> <PUBCHEM_BOND_DEF_STEREO_COUNT>
9

> <PUBCHEM_BOND_UDEF_STEREO_COUNT>
0

> <PUBCHEM_ISOTOPIC_ATOM_COUNT>
0

> <PUBCHEM_COMPONENT_COUNT>
1

> <PUBCHEM_CACTVS_TAUTO_COUNT>
1

> <PUBCHEM_CONFORMER_ID>
005095DC00000001

> <PUBCHEM_MMFF94_ENERGY>
108.4613

> <PUBCHEM_FEATURE_SELFOVERLAP>
65.966

> <PUBCHEM_SHAPE_FINGERPRINT>
12559415 90 17676485069069921337
14251920 1 18186802482478421006
14251920 17 5328744067913166486
15061470 23 17603864511555373009
15274700 256 18187364342666080049
15343295 20 18408041807144485964
15343295 29 17918277550743418711
15424357 1 17775280560558781675
16728433 110 17967533451001308800
21057603 130 13984668053863107737
21057603 192 17632582690511929709
23581129 1 18411981360035010927
3092352 35 16773792572997178627
9663363 56 17603584127495028720

> <PUBCHEM_SHAPE_MULTIPOLES>
867.31
102.29
1.75
1.55
30.04
0.03
0.26
0.05
8.58
-0.64
-0.15
1.87
0.16
-0.27

> <PUBCHEM_SHAPE_SELFOVERLAP>
1774.802

> <PUBCHEM_SHAPE_VOLUME>
500.5

> <PUBCHEM_COORDINATE_TYPE>
2
5
10

$$$$

