854039
  -OEChem-06241222472D

 19 19  0     0  0  0  0  0  0999 V2000
    3.4030   -1.5000    0.0000 O   0  0  0  0  0  0  0  0  0  0  0  0
    6.8671   -1.5000    0.0000 O   0  0  0  0  0  0  0  0  0  0  0  0
    5.1350   -0.5000    0.0000 N   0  0  0  0  0  0  0  0  0  0  0  0
    2.5369    0.0000    0.0000 N   0  0  0  0  0  0  0  0  0  0  0  0
    7.7331    0.0000    0.0000 N   0  0  0  0  0  0  0  0  0  0  0  0
    4.2690    0.0000    0.0000 C   0  0  0  0  0  0  0  0  0  0  0  0
    6.0010    0.0000    0.0000 C   0  0  0  0  0  0  0  0  0  0  0  0
    4.2690    1.0000    0.0000 C   0  0  0  0  0  0  0  0  0  0  0  0
    6.0010    1.0000    0.0000 C   0  0  0  0  0  0  0  0  0  0  0  0
    5.1350    1.5000    0.0000 C   0  0  0  0  0  0  0  0  0  0  0  0
    3.4030   -0.5000    0.0000 C   0  0  0  0  0  0  0  0  0  0  0  0
    6.8671   -0.5000    0.0000 C   0  0  0  0  0  0  0  0  0  0  0  0
    3.7320    1.3100    0.0000 H   0  0  0  0  0  0  0  0  0  0  0  0
    6.5380    1.3100    0.0000 H   0  0  0  0  0  0  0  0  0  0  0  0
    5.1350    2.1200    0.0000 H   0  0  0  0  0  0  0  0  0  0  0  0
    2.0000   -0.3100    0.0000 H   0  0  0  0  0  0  0  0  0  0  0  0
    2.5369    0.6200    0.0000 H   0  0  0  0  0  0  0  0  0  0  0  0
    8.2700   -0.3100    0.0000 H   0  0  0  0  0  0  0  0  0  0  0  0
    7.7331    0.6200    0.0000 H   0  0  0  0  0  0  0  0  0  0  0  0
  1 11  2  0  0  0  0
  2 12  2  0  0  0  0
  3  6  2  0  0  0  0
  3  7  1  0  0  0  0
  4 11  1  0  0  0  0
  4 16  1  0  0  0  0
  4 17  1  0  0  0  0
  5 12  1  0  0  0  0
  5 18  1  0  0  0  0
  5 19  1  0  0  0  0
  6  8  1  0  0  0  0
  6 11  1  0  0  0  0
  7  9  2  0  0  0  0
  7 12  1  0  0  0  0
  8 10  2  0  0  0  0
  8 13  1  0  0  0  0
  9 10  1  0  0  0  0
  9 14  1  0  0  0  0
 10 15  1  0  0  0  0
M  END
> <PUBCHEM_COMPOUND_CID>
854039

> <PUBCHEM_COMPOUND_CANONICALIZED>
1

> <PUBCHEM_CACTVS_COMPLEXITY>
185

> <PUBCHEM_CACTVS_HBOND_ACCEPTOR>
3

> <PUBCHEM_CACTVS_HBOND_DONOR>
2

> <PUBCHEM_CACTVS_ROTATABLE_BOND>
2

> <PUBCHEM_CACTVS_SUBSKEYS>
AAADcYBjMAAAAAAAAAAAAAAAAAAAAAAAAAAsAAAAAAAAAAABgAAAHgAQAAAACAiBlgAwgJJIEACoASVyVACCgCAnAiAImCGwZNgIYPLAlbGUIQhggADIyYcYiACAAAAAAAAAAAAAAAAAAAAAAAAAAAAAAA==

> <PUBCHEM_IUPAC_OPENEYE_NAME>
pyridine-2,6-dicarboxamide

> <PUBCHEM_IUPAC_CAS_NAME>
pyridine-2,6-dicarboxamide

> <PUBCHEM_IUPAC_NAME>
pyridine-2,6-dicarboxamide

> <PUBCHEM_IUPAC_SYSTEMATIC_NAME>
pyridine-2,6-dicarboxamide

> <PUBCHEM_IUPAC_TRADITIONAL_NAME>
dipicolinamide

> <PUBCHEM_IUPAC_INCHI>
InChI=1S/C7H7N3O2/c8-6(11)4-2-1-3-5(10-4)7(9)12/h1-3H,(H2,8,11)(H2,9,12)

> <PUBCHEM_IUPAC_INCHIKEY>
UUVCRNTVNKTNRK-UHFFFAOYSA-N

> <PUBCHEM_XLOGP3_AA>
-0.7

> <PUBCHEM_EXACT_MASS>
165.053826

> <PUBCHEM_MOLECULAR_FORMULA>
C7H7N3O2

> <PUBCHEM_MOLECULAR_WEIGHT>
165.14938

> <PUBCHEM_OPENEYE_CAN_SMILES>
C1=CC(=NC(=C1)C(=O)N)C(=O)N

> <PUBCHEM_OPENEYE_ISO_SMILES>
C1=CC(=NC(=C1)C(=O)N)C(=O)N

> <PUBCHEM_CACTVS_TPSA>
99.1

> <PUBCHEM_MONOISOTOPIC_WEIGHT>
165.053826

> <PUBCHEM_TOTAL_CHARGE>
0

> <PUBCHEM_HEAVY_ATOM_COUNT>
12

> <PUBCHEM_ATOM_DEF_STEREO_COUNT>
0

> <PUBCHEM_ATOM_UDEF_STEREO_COUNT>
0

> <PUBCHEM_BOND_DEF_STEREO_COUNT>
0

> <PUBCHEM_BOND_UDEF_STEREO_COUNT>
0

> <PUBCHEM_ISOTOPIC_ATOM_COUNT>
0

> <PUBCHEM_COMPONENT_COUNT>
1

> <PUBCHEM_CACTVS_TAUTO_COUNT>
3

> <PUBCHEM_COORDINATE_TYPE>
1
5
255

> <PUBCHEM_BONDANNOTATIONS>
3  6  8
3  7  8
6  8  8
7  9  8
8  10  8
9  10  8

$$$$

