5319013
  -OEChem-07051213113D

 50 52  0     0  0  0  0  0  0999 V2000
   -1.1070   -1.2400    0.6117 O   0  0  0  0  0  0  0  0  0  0  0  0
    2.6830   -0.7011   -1.7388 O   0  0  0  0  0  0  0  0  0  0  0  0
   -4.3835    2.1651   -0.1262 O   0  0  0  0  0  0  0  0  0  0  0  0
    0.1457    2.9773   -1.3098 O   0  0  0  0  0  0  0  0  0  0  0  0
    1.6092    1.1758    1.7213 O   0  0  0  0  0  0  0  0  0  0  0  0
    7.1627   -1.2024   -0.2478 O   0  0  0  0  0  0  0  0  0  0  0  0
   -2.7543    0.4466    0.2510 C   0  0  0  0  0  0  0  0  0  0  0  0
   -0.4418    0.8521   -0.3492 C   0  0  0  0  0  0  0  0  0  0  0  0
   -1.4311    0.0122    0.1736 C   0  0  0  0  0  0  0  0  0  0  0  0
   -3.8082   -0.4542    0.8109 C   0  0  0  0  0  0  0  0  0  0  0  0
    0.9553    0.3960   -0.4314 C   0  0  0  0  0  0  0  0  0  0  0  0
   -3.0962    1.7235   -0.1942 C   0  0  0  0  0  0  0  0  0  0  0  0
   -0.7918    2.1316   -0.7939 C   0  0  0  0  0  0  0  0  0  0  0  0
   -2.1151    2.5660   -0.7167 C   0  0  0  0  0  0  0  0  0  0  0  0
    1.9272    0.6313    0.6719 C   0  0  0  0  0  0  0  0  0  0  0  0
    3.3051    0.1586    0.4439 C   0  0  0  0  0  0  0  0  0  0  0  0
   -4.4617   -1.3143   -0.2410 C   0  0  0  0  0  0  0  0  0  0  0  0
    3.6123   -0.4867   -0.7535 C   0  0  0  0  0  0  0  0  0  0  0  0
    1.4078   -0.2376   -1.5239 C   0  0  0  0  0  0  0  0  0  0  0  0
   -4.5230   -2.6586   -0.2934 C   0  0  0  0  0  0  0  0  0  0  0  0
    4.2932    0.3487    1.4136 C   0  0  0  0  0  0  0  0  0  0  0  0
    4.9086   -0.9459   -0.9879 C   0  0  0  0  0  0  0  0  0  0  0  0
    5.5893   -0.1108    1.1764 C   0  0  0  0  0  0  0  0  0  0  0  0
    5.8966   -0.7569   -0.0215 C   0  0  0  0  0  0  0  0  0  0  0  0
   -5.1939   -3.4550   -1.3764 C   0  0  0  0  0  0  0  0  0  0  0  0
   -3.8801   -3.4929    0.7826 C   0  0  0  0  0  0  0  0  0  0  0  0
   -0.7334   -1.3676    1.9806 C   0  0  0  0  0  0  0  0  0  0  0  0
   -4.7749    2.8391    1.0680 C   0  0  0  0  0  0  0  0  0  0  0  0
   -3.3969   -1.0311    1.6412 H   0  0  0  0  0  0  0  0  0  0  0  0
   -4.6040    0.1272    1.2897 H   0  0  0  0  0  0  0  0  0  0  0  0
   -2.3815    3.5611   -1.0645 H   0  0  0  0  0  0  0  0  0  0  0  0
   -4.9532   -0.7633   -1.0426 H   0  0  0  0  0  0  0  0  0  0  0  0
    0.7935   -0.4586   -2.3882 H   0  0  0  0  0  0  0  0  0  0  0  0
    4.0743    0.8486    2.3529 H   0  0  0  0  0  0  0  0  0  0  0  0
    5.1502   -1.4494   -1.9205 H   0  0  0  0  0  0  0  0  0  0  0  0
    6.3525    0.0410    1.9352 H   0  0  0  0  0  0  0  0  0  0  0  0
    1.0296    2.5788   -1.2835 H   0  0  0  0  0  0  0  0  0  0  0  0
   -5.6168   -2.8056   -2.1498 H   0  0  0  0  0  0  0  0  0  0  0  0
   -4.4741   -4.1241   -1.8588 H   0  0  0  0  0  0  0  0  0  0  0  0
   -6.0096   -4.0557   -0.9615 H   0  0  0  0  0  0  0  0  0  0  0  0
   -3.8591   -3.0115    1.7625 H   0  0  0  0  0  0  0  0  0  0  0  0
   -4.4432   -4.4225    0.9265 H   0  0  0  0  0  0  0  0  0  0  0  0
   -2.8598   -3.7630    0.4923 H   0  0  0  0  0  0  0  0  0  0  0  0
   -1.2342   -2.2469    2.3954 H   0  0  0  0  0  0  0  0  0  0  0  0
   -1.0098   -0.4907    2.5766 H   0  0  0  0  0  0  0  0  0  0  0  0
    0.3468   -1.5253    2.0444 H   0  0  0  0  0  0  0  0  0  0  0  0
   -4.4187    3.8735    1.0381 H   0  0  0  0  0  0  0  0  0  0  0  0
   -4.3868    2.3439    1.9640 H   0  0  0  0  0  0  0  0  0  0  0  0
   -5.8673    2.8467    1.1157 H   0  0  0  0  0  0  0  0  0  0  0  0
    7.7150   -0.9878    0.5235 H   0  0  0  0  0  0  0  0  0  0  0  0
  1  9  1  0  0  0  0
  1 27  1  0  0  0  0
  2 18  1  0  0  0  0
  2 19  1  0  0  0  0
  3 12  1  0  0  0  0
  3 28  1  0  0  0  0
  4 13  1  0  0  0  0
  4 37  1  0  0  0  0
  5 15  2  0  0  0  0
  6 24  1  0  0  0  0
  6 50  1  0  0  0  0
  7  9  1  0  0  0  0
  7 10  1  0  0  0  0
  7 12  2  0  0  0  0
  8  9  2  0  0  0  0
  8 11  1  0  0  0  0
  8 13  1  0  0  0  0
 10 17  1  0  0  0  0
 10 29  1  0  0  0  0
 10 30  1  0  0  0  0
 11 15  1  0  0  0  0
 11 19  2  0  0  0  0
 12 14  1  0  0  0  0
 13 14  2  0  0  0  0
 14 31  1  0  0  0  0
 15 16  1  0  0  0  0
 16 18  2  0  0  0  0
 16 21  1  0  0  0  0
 17 20  2  0  0  0  0
 17 32  1  0  0  0  0
 18 22  1  0  0  0  0
 19 33  1  0  0  0  0
 20 25  1  0  0  0  0
 20 26  1  0  0  0  0
 21 23  2  0  0  0  0
 21 34  1  0  0  0  0
 22 24  2  0  0  0  0
 22 35  1  0  0  0  0
 23 24  1  0  0  0  0
 23 36  1  0  0  0  0
 25 38  1  0  0  0  0
 25 39  1  0  0  0  0
 25 40  1  0  0  0  0
 26 41  1  0  0  0  0
 26 42  1  0  0  0  0
 26 43  1  0  0  0  0
 27 44  1  0  0  0  0
 27 45  1  0  0  0  0
 27 46  1  0  0  0  0
 28 47  1  0  0  0  0
 28 48  1  0  0  0  0
 28 49  1  0  0  0  0
M  END
> <PUBCHEM_COMPOUND_CID>
5319013

> <PUBCHEM_CONFORMER_RMSD>
0.8

> <PUBCHEM_CONFORMER_DIVERSEORDER>
6
24
17
14
20
11
23
16
26
22
29
10
25
27
15
28
13
19
21
12
9
18
7
5
2
3
4
1
8

> <PUBCHEM_MMFF94_PARTIAL_CHARGES>
36
1 -0.36
10 0.28
11 -0.01
12 0.08
13 0.08
14 -0.15
15 0.47
16 0.09
17 -0.29
18 0.08
19 -0.07
2 -0.16
20 -0.28
21 -0.15
22 -0.15
23 -0.15
24 0.08
25 0.14
26 0.14
27 0.28
28 0.28
3 -0.36
31 0.15
32 0.15
33 0.15
34 0.15
35 0.15
36 0.15
37 0.45
4 -0.53
5 -0.57
50 0.45
6 -0.53
7 -0.14
8 0.03
9 0.08

> <PUBCHEM_EFFECTIVE_ROTOR_COUNT>
5

> <PUBCHEM_PHARMACOPHORE_FEATURES>
10
1 1 acceptor
1 2 acceptor
1 3 acceptor
1 4 donor
1 5 acceptor
1 6 donor
3 20 25 26 hydrophobe
6 16 18 21 22 23 24 rings
6 2 11 15 16 18 19 rings
6 7 8 9 12 13 14 rings

> <PUBCHEM_HEAVY_ATOM_COUNT>
28

> <PUBCHEM_ATOM_DEF_STEREO_COUNT>
0

> <PUBCHEM_ATOM_UDEF_STEREO_COUNT>
0

> <PUBCHEM_BOND_DEF_STEREO_COUNT>
0

> <PUBCHEM_BOND_UDEF_STEREO_COUNT>
0

> <PUBCHEM_ISOTOPIC_ATOM_COUNT>
0

> <PUBCHEM_COMPONENT_COUNT>
1

> <PUBCHEM_CACTVS_TAUTO_COUNT>
15

> <PUBCHEM_CONFORMER_ID>
0051296500000006

> <PUBCHEM_MMFF94_ENERGY>
102.6243

> <PUBCHEM_FEATURE_SELFOVERLAP>
50.771

> <PUBCHEM_SHAPE_FINGERPRINT>
11545043 162 18187367627381677026
11796584 16 18264486359795725830
12166972 35 17346318120843740047
12236239 1 16702011041454624916
12293681 4 17895471548272744577
12616971 3 17203033162556607948
13140716 1 18201145595280254297
13540713 5 18198323093049608605
13583140 156 16805610265381314225
13782708 43 18186519891464919390
14294032 229 17773324637544431357
15131766 46 15408036351611490677
15183329 4 15123524600409103487
15420108 30 18124036995311352041
16752209 62 17632590331110164937
17349148 13 17775282746613018382
17492 89 18124591973546924315
17686467 74 18270965614525293528
18927931 339 18412822474025860375
20775438 99 17259917217238758987
21033648 29 17676784135958129592
21424621 283 17753320165695695937
23402539 116 18273214222455364076
23536364 44 18129118757650475823
23557571 272 18333728031202371497
23559900 14 18265604567421026806
25147074 1 18201141166931355293
3633792 109 17131563746993947030
392239 28 16443621286084329795
4073 2 18260548952520898034
5080951 261 18194712382029524063
5104073 3 18333740117425212896
602551 16 18413389839131458266
7495541 125 18187363199671353560
7970288 3 18196936574163591803

> <PUBCHEM_SHAPE_MULTIPOLES>
541.01
13.61
3.4
1.5
12.85
0.46
-0.16
7.69
-0.39
-7.65
0.52
0.49
0.17
-0.23

> <PUBCHEM_SHAPE_SELFOVERLAP>
1173.645

> <PUBCHEM_SHAPE_VOLUME>
295.8

> <PUBCHEM_COORDINATE_TYPE>
2
5
10

$$$$

