17434
  -OEChem-07051213123D

 39 38  0     0  0  0  0  0  0999 V2000
    2.0892   -2.1807   -0.7024 S   0  0  0  0  0  0  0  0  0  0  0  0
    4.1952   -0.0095    1.0814 S   0  0  0  0  0  0  0  0  0  0  0  0
    2.3962   -0.3869    0.3952 P   0  0  0  0  0  0  0  0  0  0  0  0
    1.8106    0.8385   -0.5156 O   0  0  0  0  0  0  0  0  0  0  0  0
    1.2680   -0.3483    1.5783 O   0  0  0  0  0  0  0  0  0  0  0  0
   -1.8112    0.9110   -0.6998 O   0  0  0  0  0  0  0  0  0  0  0  0
   -0.2138   -0.7500   -1.8473 O   0  0  0  0  0  0  0  0  0  0  0  0
   -3.5565    0.0045    0.4597 O   0  0  0  0  0  0  0  0  0  0  0  0
   -1.8107   -1.3806   -0.2674 N   0  0  0  0  0  0  0  0  0  0  0  0
    0.3482   -2.6101   -0.4325 C   0  0  0  0  0  0  0  0  0  0  0  0
   -0.5612   -1.5028   -0.9329 C   0  0  0  0  0  0  0  0  0  0  0  0
    2.4671    1.2186   -1.7135 C   0  0  0  0  0  0  0  0  0  0  0  0
    1.0874    0.8218    2.3588 C   0  0  0  0  0  0  0  0  0  0  0  0
   -2.5080   -2.5272    0.3069 C   0  0  0  0  0  0  0  0  0  0  0  0
   -2.4748   -0.1304   -0.1117 C   0  0  0  0  0  0  0  0  0  0  0  0
    1.7130    2.3691   -2.3454 C   0  0  0  0  0  0  0  0  0  0  0  0
   -0.0132    0.5757    3.3687 C   0  0  0  0  0  0  0  0  0  0  0  0
   -2.4450    2.1928   -0.6195 C   0  0  0  0  0  0  0  0  0  0  0  0
   -1.9807    2.8944    0.6390 C   0  0  0  0  0  0  0  0  0  0  0  0
    0.1957   -2.7830    0.6361 H   0  0  0  0  0  0  0  0  0  0  0  0
    0.1187   -3.5280   -0.9807 H   0  0  0  0  0  0  0  0  0  0  0  0
    2.4985    0.3688   -2.4012 H   0  0  0  0  0  0  0  0  0  0  0  0
    3.4916    1.5307   -1.4926 H   0  0  0  0  0  0  0  0  0  0  0  0
    0.8198    1.6593    1.7094 H   0  0  0  0  0  0  0  0  0  0  0  0
    2.0134    1.0667    2.8859 H   0  0  0  0  0  0  0  0  0  0  0  0
   -2.3452   -2.5203    1.3889 H   0  0  0  0  0  0  0  0  0  0  0  0
   -2.1321   -3.4630   -0.1136 H   0  0  0  0  0  0  0  0  0  0  0  0
   -3.5823   -2.4561    0.1116 H   0  0  0  0  0  0  0  0  0  0  0  0
    2.1941    2.6895   -3.2737 H   0  0  0  0  0  0  0  0  0  0  0  0
    1.6644    3.2211   -1.6592 H   0  0  0  0  0  0  0  0  0  0  0  0
    0.6800    2.0791   -2.5643 H   0  0  0  0  0  0  0  0  0  0  0  0
   -0.1853    1.4631    3.9839 H   0  0  0  0  0  0  0  0  0  0  0  0
    0.2444   -0.2640    4.0226 H   0  0  0  0  0  0  0  0  0  0  0  0
   -0.9472    0.3093    2.8630 H   0  0  0  0  0  0  0  0  0  0  0  0
   -3.5369    2.1130   -0.6601 H   0  0  0  0  0  0  0  0  0  0  0  0
   -2.1310    2.7639   -1.4993 H   0  0  0  0  0  0  0  0  0  0  0  0
   -2.2479    2.3219    1.5327 H   0  0  0  0  0  0  0  0  0  0  0  0
   -0.8913    3.0002    0.6394 H   0  0  0  0  0  0  0  0  0  0  0  0
   -2.4274    3.8898    0.7149 H   0  0  0  0  0  0  0  0  0  0  0  0
  1  3  1  0  0  0  0
  1 10  1  0  0  0  0
  2  3  2  0  0  0  0
  3  4  1  0  0  0  0
  3  5  1  0  0  0  0
  4 12  1  0  0  0  0
  5 13  1  0  0  0  0
  6 15  1  0  0  0  0
  6 18  1  0  0  0  0
  7 11  2  0  0  0  0
  8 15  2  0  0  0  0
  9 11  1  0  0  0  0
  9 14  1  0  0  0  0
  9 15  1  0  0  0  0
 10 11  1  0  0  0  0
 10 20  1  0  0  0  0
 10 21  1  0  0  0  0
 12 16  1  0  0  0  0
 12 22  1  0  0  0  0
 12 23  1  0  0  0  0
 13 17  1  0  0  0  0
 13 24  1  0  0  0  0
 13 25  1  0  0  0  0
 14 26  1  0  0  0  0
 14 27  1  0  0  0  0
 14 28  1  0  0  0  0
 16 29  1  0  0  0  0
 16 30  1  0  0  0  0
 16 31  1  0  0  0  0
 17 32  1  0  0  0  0
 17 33  1  0  0  0  0
 17 34  1  0  0  0  0
 18 19  1  0  0  0  0
 18 35  1  0  0  0  0
 18 36  1  0  0  0  0
 19 37  1  0  0  0  0
 19 38  1  0  0  0  0
 19 39  1  0  0  0  0
M  END
> <PUBCHEM_COMPOUND_CID>
17434

> <PUBCHEM_CONFORMER_RMSD>
1

> <PUBCHEM_CONFORMER_DIVERSEORDER>
2
123
130
108
25
14
73
56
17
68
118
111
91
121
67
59
64
38
129
125
110
50
40
109
119
97
45
113
84
127
82
30
95
78
10
94
99
9
102
52
88
61
27
53
70
32
43
135
13
122
62
81
114
24
7
36
104
116
26
105
49
92
42
85
20
80
12
48
69
57
46
126
86
71
72
65
5
132
75
19
106
96
128
44
34
100
107
79
134
93
33
117
41
87
89
76
47
55
112
60
66
1
29
133
21
137
141
90
131
23
22
74
142
139
83
120
101
11
31
28
77
140
124
3
39
16
58
18
37
136
51
63
35
6
98
115
15
4
103
8
138
54

> <PUBCHEM_MMFF94_PARTIAL_CHARGES>
16
1 -0.48
10 0.29
11 0.57
12 0.28
13 0.28
14 0.3
15 0.78
18 0.28
2 -0.68
3 1.47
4 -0.55
5 -0.55
6 -0.43
7 -0.57
8 -0.57
9 -0.42

> <PUBCHEM_EFFECTIVE_ROTOR_COUNT>
11

> <PUBCHEM_PHARMACOPHORE_FEATURES>
2
1 7 acceptor
1 8 acceptor

> <PUBCHEM_HEAVY_ATOM_COUNT>
19

> <PUBCHEM_ATOM_DEF_STEREO_COUNT>
0

> <PUBCHEM_ATOM_UDEF_STEREO_COUNT>
0

> <PUBCHEM_BOND_DEF_STEREO_COUNT>
0

> <PUBCHEM_BOND_UDEF_STEREO_COUNT>
0

> <PUBCHEM_ISOTOPIC_ATOM_COUNT>
0

> <PUBCHEM_COMPONENT_COUNT>
1

> <PUBCHEM_CACTVS_TAUTO_COUNT>
1

> <PUBCHEM_CONFORMER_ID>
0000441A00000002

> <PUBCHEM_MMFF94_ENERGY>
21.1044

> <PUBCHEM_FEATURE_SELFOVERLAP>
10.149

> <PUBCHEM_SHAPE_FINGERPRINT>
11370993 70 18046926036566887120
12596599 1 17775293767810037642
14251757 17 17755821464284917732
14957384 54 17703241727180745437
15775835 57 17749400260048562927
16945 1 18409161129948008071
20511035 2 18189341336463295247
20600515 1 16975396726298930466
23352939 185 15959163011221979838
23419403 2 16459156616828135234
3524813 1 17895491257697654905
3797600 57 17199105505021409802
5845 1 6545653901702216166

> <PUBCHEM_SHAPE_MULTIPOLES>
368.23
5.23
3.15
2.53
0.62
0.15
-1.53
-0.72
-0.42
-1.42
1.1
1.32
-1.53
-0.38

> <PUBCHEM_SHAPE_SELFOVERLAP>
658.285

> <PUBCHEM_SHAPE_VOLUME>
240.4

> <PUBCHEM_COORDINATE_TYPE>
2
5
10

$$$$

