259331
  -OEChem-07051213012D

 60 63  0     1  0  0  0  0  0999 V2000
    2.0000   -0.4560    0.0000 Cl  0  0  0  0  0  0  0  0  0  0  0  0
    3.7205   -3.4627    0.0000 Cl  0  0  0  0  0  0  0  0  0  0  0  0
   12.9781    3.3348    0.0000 O   0  0  0  0  0  0  0  0  0  0  0  0
    6.3282   -0.9727    0.0000 O   0  0  0  0  0  0  0  0  0  0  0  0
    5.4679    0.5306    0.0000 O   0  0  0  0  0  0  0  0  0  0  0  0
    4.5961   -0.9661    0.0000 N   0  0  0  0  0  0  0  0  0  0  0  0
   11.7213    2.0796    0.0000 C   0  0  1  0  0  0  0  0  0  0  0  0
   11.7213    1.0796    0.0000 C   0  0  2  0  0  0  0  0  0  0  0  0
   10.8552    0.5796    0.0000 C   0  0  1  0  0  0  0  0  0  0  0  0
    9.9892    1.0796    0.0000 C   0  0  2  0  0  0  0  0  0  0  0  0
   12.6675    2.3843    0.0000 C   0  0  2  0  0  0  0  0  0  0  0  0
   10.8552    2.5796    0.0000 C   0  0  0  0  0  0  0  0  0  0  0  0
   12.6675    0.7749    0.0000 C   0  0  0  0  0  0  0  0  0  0  0  0
    9.9892    2.0796    0.0000 C   0  0  0  0  0  0  0  0  0  0  0  0
   13.2511    1.5796    0.0000 C   0  0  0  0  0  0  0  0  0  0  0  0
   10.8713   -0.4619    0.0000 C   0  0  0  0  0  0  0  0  0  0  0  0
   11.7213    3.0796    0.0000 C   0  0  0  0  0  0  0  0  0  0  0  0
    9.0792    0.5727    0.0000 C   0  0  0  0  0  0  0  0  0  0  0  0
    9.9732   -0.9897    0.0000 C   0  0  0  0  0  0  0  0  0  0  0  0
    9.0712   -0.4689    0.0000 C   0  0  0  0  0  0  0  0  0  0  0  0
    8.1524    1.1368    0.0000 C   0  0  0  0  0  0  0  0  0  0  0  0
    8.1358   -1.0186    0.0000 C   0  0  0  0  0  0  0  0  0  0  0  0
    7.2045    0.6089    0.0000 C   0  0  0  0  0  0  0  0  0  0  0  0
    7.1961   -0.4761    0.0000 C   0  0  0  0  0  0  0  0  0  0  0  0
    5.4641   -0.4694    0.0000 C   0  0  0  0  0  0  0  0  0  0  0  0
    3.7320   -0.4627    0.0000 C   0  0  0  0  0  0  0  0  0  0  0  0
    4.5923   -1.9660    0.0000 C   0  0  0  0  0  0  0  0  0  0  0  0
    2.8641   -0.9594    0.0000 C   0  0  0  0  0  0  0  0  0  0  0  0
    3.7243   -2.4627    0.0000 C   0  0  0  0  0  0  0  0  0  0  0  0
   11.8112    0.2344    0.0000 H   0  0  0  0  0  0  0  0  0  0  0  0
   11.5946    0.1603    0.0000 H   0  0  0  0  0  0  0  0  0  0  0  0
   10.7253    1.5046    0.0000 H   0  0  0  0  0  0  0  0  0  0  0  0
   13.2800    2.4805    0.0000 H   0  0  0  0  0  0  0  0  0  0  0  0
   11.2538    3.0545    0.0000 H   0  0  0  0  0  0  0  0  0  0  0  0
   10.4567    3.0545    0.0000 H   0  0  0  0  0  0  0  0  0  0  0  0
   12.4164    0.2080    0.0000 H   0  0  0  0  0  0  0  0  0  0  0  0
   13.2049    0.4656    0.0000 H   0  0  0  0  0  0  0  0  0  0  0  0
    9.7772    2.6622    0.0000 H   0  0  0  0  0  0  0  0  0  0  0  0
    9.3786    1.9719    0.0000 H   0  0  0  0  0  0  0  0  0  0  0  0
   13.7120    1.1649    0.0000 H   0  0  0  0  0  0  0  0  0  0  0  0
   13.7120    1.9943    0.0000 H   0  0  0  0  0  0  0  0  0  0  0  0
   11.0893   -1.0423    0.0000 H   0  0  0  0  0  0  0  0  0  0  0  0
   11.4804   -0.3464    0.0000 H   0  0  0  0  0  0  0  0  0  0  0  0
   12.3413    3.0796    0.0000 H   0  0  0  0  0  0  0  0  0  0  0  0
   11.7213    3.6996    0.0000 H   0  0  0  0  0  0  0  0  0  0  0  0
   11.1013    3.0796    0.0000 H   0  0  0  0  0  0  0  0  0  0  0  0
    9.5759   -1.4656    0.0000 H   0  0  0  0  0  0  0  0  0  0  0  0
   10.3742   -1.4626    0.0000 H   0  0  0  0  0  0  0  0  0  0  0  0
   13.5848    3.4627    0.0000 H   0  0  0  0  0  0  0  0  0  0  0  0
    8.1643    1.7567    0.0000 H   0  0  0  0  0  0  0  0  0  0  0  0
    8.1381   -1.6386    0.0000 H   0  0  0  0  0  0  0  0  0  0  0  0
    6.6712    0.9251    0.0000 H   0  0  0  0  0  0  0  0  0  0  0  0
    4.1324    0.0107    0.0000 H   0  0  0  0  0  0  0  0  0  0  0  0
    3.3353    0.0138    0.0000 H   0  0  0  0  0  0  0  0  0  0  0  0
    4.8021   -2.5495    0.0000 H   0  0  0  0  0  0  0  0  0  0  0  0
    5.2033   -1.8608    0.0000 H   0  0  0  0  0  0  0  0  0  0  0  0
    2.4637   -1.4328    0.0000 H   0  0  0  0  0  0  0  0  0  0  0  0
    3.2608   -1.4359    0.0000 H   0  0  0  0  0  0  0  0  0  0  0  0
    3.5145   -1.8793    0.0000 H   0  0  0  0  0  0  0  0  0  0  0  0
    3.1133   -2.5680    0.0000 H   0  0  0  0  0  0  0  0  0  0  0  0
  1 28  1  0  0  0  0
  2 29  1  0  0  0  0
 11  3  1  1  0  0  0
  3 49  1  0  0  0  0
  4 24  1  0  0  0  0
  4 25  1  0  0  0  0
  5 25  2  0  0  0  0
  6 25  1  0  0  0  0
  6 26  1  0  0  0  0
  6 27  1  0  0  0  0
  7  8  1  0  0  0  0
  7 11  1  0  0  0  0
  7 12  1  0  0  0  0
  7 17  1  1  0  0  0
  8  9  1  0  0  0  0
  8 13  1  0  0  0  0
  8 30  1  6  0  0  0
  9 10  1  0  0  0  0
  9 16  1  0  0  0  0
  9 31  1  1  0  0  0
 10 14  1  0  0  0  0
 10 18  1  0  0  0  0
 10 32  1  6  0  0  0
 11 15  1  0  0  0  0
 11 33  1  0  0  0  0
 12 14  1  0  0  0  0
 12 34  1  0  0  0  0
 12 35  1  0  0  0  0
 13 15  1  0  0  0  0
 13 36  1  0  0  0  0
 13 37  1  0  0  0  0
 14 38  1  0  0  0  0
 14 39  1  0  0  0  0
 15 40  1  0  0  0  0
 15 41  1  0  0  0  0
 16 19  1  0  0  0  0
 16 42  1  0  0  0  0
 16 43  1  0  0  0  0
 17 44  1  0  0  0  0
 17 45  1  0  0  0  0
 17 46  1  0  0  0  0
 18 20  2  0  0  0  0
 18 21  1  0  0  0  0
 19 20  1  0  0  0  0
 19 47  1  0  0  0  0
 19 48  1  0  0  0  0
 20 22  1  0  0  0  0
 21 23  2  0  0  0  0
 21 50  1  0  0  0  0
 22 24  2  0  0  0  0
 22 51  1  0  0  0  0
 23 24  1  0  0  0  0
 23 52  1  0  0  0  0
 26 28  1  0  0  0  0
 26 53  1  0  0  0  0
 26 54  1  0  0  0  0
 27 29  1  0  0  0  0
 27 55  1  0  0  0  0
 27 56  1  0  0  0  0
 28 57  1  0  0  0  0
 28 58  1  0  0  0  0
 29 59  1  0  0  0  0
 29 60  1  0  0  0  0
M  END
> <PUBCHEM_COMPOUND_CID>
259331

> <PUBCHEM_COMPOUND_CANONICALIZED>
1

> <PUBCHEM_CACTVS_COMPLEXITY>
585

> <PUBCHEM_CACTVS_HBOND_ACCEPTOR>
3

> <PUBCHEM_CACTVS_HBOND_DONOR>
1

> <PUBCHEM_CACTVS_ROTATABLE_BOND>
6

> <PUBCHEM_CACTVS_SUBSKEYS>
AAADceB6MAAGAAAAAAAAAAAAAAAAAYAAAAAwYMAAAAAAAGDBAAAAHgIACAAADxfhmEYyDoMABgCIAiBCGAACCAAgIAAIiAAOCIgMNiKEMRrIciAkxhGIqAeAwPAPoAABAAAQAADAAAYAACAAAIAADAAAAA==

> <PUBCHEM_IUPAC_OPENEYE_NAME>
[(8R,9S,13S,14S,17S)-17-hydroxy-13-methyl-6,7,8,9,11,12,14,15,16,17-decahydrocyclopenta[a]phenanthren-3-yl] N,N-bis(2-chloroethyl)carbamate

> <PUBCHEM_IUPAC_CAS_NAME>
N,N-bis(2-chloroethyl)carbamic acid [(8R,9S,13S,14S,17S)-17-hydroxy-13-methyl-6,7,8,9,11,12,14,15,16,17-decahydrocyclopenta[a]phenanthren-3-yl] ester

> <PUBCHEM_IUPAC_NAME>
[(8R,9S,13S,14S,17S)-17-hydroxy-13-methyl-6,7,8,9,11,12,14,15,16,17-decahydrocyclopenta[a]phenanthren-3-yl] N,N-bis(2-chloroethyl)carbamate

> <PUBCHEM_IUPAC_SYSTEMATIC_NAME>
[(8R,9S,13S,14S,17S)-13-methyl-17-oxidanyl-6,7,8,9,11,12,14,15,16,17-decahydrocyclopenta[a]phenanthren-3-yl] N,N-bis(2-chloroethyl)carbamate

> <PUBCHEM_IUPAC_TRADITIONAL_NAME>
N,N-bis(2-chloroethyl)carbamic acid [(8R,9S,13S,14S,17S)-17-hydroxy-13-methyl-6,7,8,9,11,12,14,15,16,17-decahydrocyclopenta[a]phenanthren-3-yl] ester

> <PUBCHEM_IUPAC_INCHI>
InChI=1S/C23H31Cl2NO3/c1-23-9-8-18-17-5-3-16(29-22(28)26(12-10-24)13-11-25)14-15(17)2-4-19(18)20(23)6-7-21(23)27/h3,5,14,18-21,27H,2,4,6-13H2,1H3/t18-,19-,20+,21+,23+/m1/s1

> <PUBCHEM_IUPAC_INCHIKEY>
FRPJXPJMRWBBIH-RBRWEJTLSA-N

> <PUBCHEM_XLOGP3>
4

> <PUBCHEM_EXACT_MASS>
439.168099

> <PUBCHEM_MOLECULAR_FORMULA>
C23H31Cl2NO3

> <PUBCHEM_MOLECULAR_WEIGHT>
440.40314

> <PUBCHEM_OPENEYE_CAN_SMILES>
CC12CCC3C(C1CCC2O)CCC4=C3C=CC(=C4)OC(=O)N(CCCl)CCCl

> <PUBCHEM_OPENEYE_ISO_SMILES>
C[C@]12CC[C@H]3[C@H]([C@@H]1CC[C@@H]2O)CCC4=C3C=CC(=C4)OC(=O)N(CCCl)CCCl

> <PUBCHEM_CACTVS_TPSA>
49.8

> <PUBCHEM_MONOISOTOPIC_WEIGHT>
439.168099

> <PUBCHEM_TOTAL_CHARGE>
0

> <PUBCHEM_HEAVY_ATOM_COUNT>
29

> <PUBCHEM_ATOM_DEF_STEREO_COUNT>
5

> <PUBCHEM_ATOM_UDEF_STEREO_COUNT>
0

> <PUBCHEM_BOND_DEF_STEREO_COUNT>
0

> <PUBCHEM_BOND_UDEF_STEREO_COUNT>
0

> <PUBCHEM_ISOTOPIC_ATOM_COUNT>
0

> <PUBCHEM_COMPONENT_COUNT>
1

> <PUBCHEM_CACTVS_TAUTO_COUNT>
1

> <PUBCHEM_COORDINATE_TYPE>
1
5
255

> <PUBCHEM_BONDANNOTATIONS>
10  32  6
18  20  8
18  21  8
20  22  8
21  23  8
22  24  8
23  24  8
11  3  5
7  17  5
8  30  6
9  31  5

$$$$

