16318
  -OEChem-07051213053D

 22 23  0     0  0  0  0  0  0999 V2000
    0.5404    1.9206   -1.9129 Cl  0  0  0  0  0  0  0  0  0  0  0  0
   -0.5404   -1.9212   -1.9124 Cl  0  0  0  0  0  0  0  0  0  0  0  0
    0.5461   -1.9181    1.9187 Cl  0  0  0  0  0  0  0  0  0  0  0  0
   -0.5462    1.9187    1.9181 Cl  0  0  0  0  0  0  0  0  0  0  0  0
    3.6931   -1.9255    1.9170 Cl  0  0  0  0  0  0  0  0  0  0  0  0
   -3.6932    1.9261    1.9163 Cl  0  0  0  0  0  0  0  0  0  0  0  0
    3.6875    1.9240   -1.9242 Cl  0  0  0  0  0  0  0  0  0  0  0  0
   -3.6875   -1.9246   -1.9236 Cl  0  0  0  0  0  0  0  0  0  0  0  0
    5.2622    0.0025   -0.0028 Cl  0  0  0  0  0  0  0  0  0  0  0  0
   -5.2622   -0.0025   -0.0028 Cl  0  0  0  0  0  0  0  0  0  0  0  0
    0.7288    0.0009    0.0029 C   0  0  0  0  0  0  0  0  0  0  0  0
   -0.7288   -0.0010    0.0029 C   0  0  0  0  0  0  0  0  0  0  0  0
    1.4246    0.8561   -0.8516 C   0  0  0  0  0  0  0  0  0  0  0  0
   -1.4245   -0.8564   -0.8514 C   0  0  0  0  0  0  0  0  0  0  0  0
    1.4278   -0.8538    0.8552 C   0  0  0  0  0  0  0  0  0  0  0  0
   -1.4278    0.8541    0.8549 C   0  0  0  0  0  0  0  0  0  0  0  0
    2.8227   -0.8533    0.8531 C   0  0  0  0  0  0  0  0  0  0  0  0
   -2.8227    0.8537    0.8528 C   0  0  0  0  0  0  0  0  0  0  0  0
    2.8195    0.8564   -0.8538 C   0  0  0  0  0  0  0  0  0  0  0  0
   -2.8195   -0.8567   -0.8535 C   0  0  0  0  0  0  0  0  0  0  0  0
    3.5185    0.0017   -0.0014 C   0  0  0  0  0  0  0  0  0  0  0  0
   -3.5186   -0.0017   -0.0014 C   0  0  0  0  0  0  0  0  0  0  0  0
  1 13  1  0  0  0  0
  2 14  1  0  0  0  0
  3 15  1  0  0  0  0
  4 16  1  0  0  0  0
  5 17  1  0  0  0  0
  6 18  1  0  0  0  0
  7 19  1  0  0  0  0
  8 20  1  0  0  0  0
  9 21  1  0  0  0  0
 10 22  1  0  0  0  0
 11 12  1  0  0  0  0
 11 13  2  0  0  0  0
 11 15  1  0  0  0  0
 12 14  2  0  0  0  0
 12 16  1  0  0  0  0
 13 19  1  0  0  0  0
 14 20  1  0  0  0  0
 15 17  2  0  0  0  0
 16 18  2  0  0  0  0
 17 21  1  0  0  0  0
 18 22  1  0  0  0  0
 19 21  2  0  0  0  0
 20 22  2  0  0  0  0
M  END
> <PUBCHEM_COMPOUND_CID>
16318

> <PUBCHEM_CONFORMER_RMSD>
0.6

> <PUBCHEM_CONFORMER_DIVERSEORDER>
1

> <PUBCHEM_MMFF94_PARTIAL_CHARGES>
20
1 -0.18
10 -0.18
13 0.18
14 0.18
15 0.18
16 0.18
17 0.18
18 0.18
19 0.18
2 -0.18
20 0.18
21 0.18
22 0.18
3 -0.18
4 -0.18
5 -0.18
6 -0.18
7 -0.18
8 -0.18
9 -0.18

> <PUBCHEM_EFFECTIVE_ROTOR_COUNT>
1

> <PUBCHEM_PHARMACOPHORE_FEATURES>
2
6 11 13 15 17 19 21 rings
6 12 14 16 18 20 22 rings

> <PUBCHEM_HEAVY_ATOM_COUNT>
22

> <PUBCHEM_ATOM_DEF_STEREO_COUNT>
0

> <PUBCHEM_ATOM_UDEF_STEREO_COUNT>
0

> <PUBCHEM_BOND_DEF_STEREO_COUNT>
0

> <PUBCHEM_BOND_UDEF_STEREO_COUNT>
0

> <PUBCHEM_ISOTOPIC_ATOM_COUNT>
0

> <PUBCHEM_COMPONENT_COUNT>
1

> <PUBCHEM_CACTVS_TAUTO_COUNT>
1

> <PUBCHEM_CONFORMER_ID>
00003FBE00000001

> <PUBCHEM_MMFF94_ENERGY>
69.9775

> <PUBCHEM_FEATURE_SELFOVERLAP>
10.149

> <PUBCHEM_SHAPE_FINGERPRINT>
10498660 4 17532081855844296153
10863032 1 17917423164581607107
11578080 2 17978554980173157764
11640471 11 18338497703711344489
12236239 1 18410856563934756873
12403259 415 15719397251927691529
12553582 1 17822574885550616191
12788726 201 18047748200534324839
13009979 54 18336270123439742290
13134695 92 17560806541184791676
13140716 1 17532379665182636659
13583140 156 18130494241948019329
13911987 19 17131824357705381342
13965767 371 17830997380231048385
14294032 229 17896312684160163369
14386348 63 15719388421432739135
16752209 62 17894914018636095919
16945 1 18410575084663078914
17357779 13 17060065886358412542
1813 80 18055914540245927766
18186145 218 17917714569691491702
18219364 16 17131830945662616354
200 152 18131358522068537009
20511986 3 18410865360028363712
20600515 1 17313393322432902201
20645477 70 17275110547882898498
20691752 17 18269571445943677633
20715895 44 17762622094291336777
21033648 29 15285648719490186507
21065201 7 17313099761106769430
21756936 100 18053632864476149540
22112679 90 18335703857565625561
23175994 123 16773793718698489596
2334 1 17559404759028892416
23366157 5 17901686877251527129
23402539 116 17313391110292388997
23419403 2 17539181286175891701
23557571 272 16805037436691921441
23559900 14 17023172886359374444
23598291 2 18412263925949265422
350125 39 16957291390589205105
4340502 62 17917983950277674011
474 4 18058160640469121916
5265222 85 17096084681189809278
6034566 193 16768707172140858508
633830 44 18200290183353494996
77492 1 18410855464423129090
8272917 22 17988923413830536927

> <PUBCHEM_SHAPE_MULTIPOLES>
471.45
8.79
2.3
2.29
0
0
0
0
0.01
0.01
0
-0.01
0
-3.52

> <PUBCHEM_SHAPE_SELFOVERLAP>
935.212

> <PUBCHEM_SHAPE_VOLUME>
271.5

> <PUBCHEM_COORDINATE_TYPE>
2
5
10

$$$$

