441738
  -OEChem-07051212553D

 60 64  0     1  0  0  0  0  0999 V2000
    2.1811    1.8464    0.8513 O   0  0  0  0  0  0  0  0  0  0  0  0
   -2.6525    2.1594   -0.3943 O   0  0  0  0  0  0  0  0  0  0  0  0
    5.2862   -1.1480    0.6868 O   0  0  0  0  0  0  0  0  0  0  0  0
    4.0404    1.0901    1.9828 O   0  0  0  0  0  0  0  0  0  0  0  0
   -4.6290   -0.4756    1.1686 N   0  0  0  0  0  0  0  0  0  0  0  0
    1.1780   -0.8583   -0.2412 C   0  0  1  0  0  0  0  0  0  0  0  0
    2.1235    0.2519   -0.8263 C   0  0  2  0  0  0  0  0  0  0  0  0
   -0.1940   -0.6756   -1.0022 C   0  0  2  0  0  0  0  0  0  0  0  0
    3.5523    0.2678   -0.2800 C   0  0  2  0  0  0  0  0  0  0  0  0
    1.6202    1.6289   -0.4522 C   0  0  1  0  0  0  0  0  0  0  0  0
   -3.1720   -0.0967   -0.8915 C   0  0  1  0  0  0  0  0  0  0  0  0
   -0.7125    0.7617   -0.8441 C   0  0  0  0  0  0  0  0  0  0  0  0
    1.8644   -2.2107   -0.5211 C   0  0  0  0  0  0  0  0  0  0  0  0
   -2.1729    1.0380   -1.1742 C   0  0  2  0  0  0  0  0  0  0  0  0
   -1.2376   -1.7366   -0.6001 C   0  0  0  0  0  0  0  0  0  0  0  0
    4.1583   -1.1487   -0.1853 C   0  0  2  0  0  0  0  0  0  0  0  0
   -2.6039   -1.4824   -1.2232 C   0  0  0  0  0  0  0  0  0  0  0  0
    3.2170   -2.2927    0.1915 C   0  0  0  0  0  0  0  0  0  0  0  0
    0.1267    1.7687   -0.5105 C   0  0  0  0  0  0  0  0  0  0  0  0
    0.9172   -0.7853    1.3004 C   0  0  0  0  0  0  0  0  0  0  0  0
   -3.4499    0.1569    0.6013 C   0  0  1  0  0  0  0  0  0  0  0  0
    3.3262    1.0767    0.9927 C   0  0  0  0  0  0  0  0  0  0  0  0
    4.5068    1.1294   -1.1455 C   0  0  0  0  0  0  0  0  0  0  0  0
   -3.4912    1.6763    0.6700 C   0  0  0  0  0  0  0  0  0  0  0  0
   -4.4411    0.1104   -1.7572 C   0  0  0  0  0  0  0  0  0  0  0  0
   -4.7818   -0.1194    2.5821 C   0  0  0  0  0  0  0  0  0  0  0  0
   -4.5600   -1.9324    1.0213 C   0  0  0  0  0  0  0  0  0  0  0  0
    2.1451    0.1422   -1.9203 H   0  0  0  0  0  0  0  0  0  0  0  0
   -0.0099   -0.8150   -2.0783 H   0  0  0  0  0  0  0  0  0  0  0  0
    2.0340    2.3958   -1.1184 H   0  0  0  0  0  0  0  0  0  0  0  0
    2.0099   -2.3446   -1.6005 H   0  0  0  0  0  0  0  0  0  0  0  0
    1.2422   -3.0472   -0.1831 H   0  0  0  0  0  0  0  0  0  0  0  0
   -2.2114    1.3291   -2.2316 H   0  0  0  0  0  0  0  0  0  0  0  0
   -1.3519   -1.8065    0.4839 H   0  0  0  0  0  0  0  0  0  0  0  0
   -0.8932   -2.7231   -0.9327 H   0  0  0  0  0  0  0  0  0  0  0  0
    4.5472   -1.4027   -1.1815 H   0  0  0  0  0  0  0  0  0  0  0  0
   -2.4630   -1.5319   -2.3139 H   0  0  0  0  0  0  0  0  0  0  0  0
   -3.2637   -2.3213   -1.0169 H   0  0  0  0  0  0  0  0  0  0  0  0
    3.0928   -2.3386    1.2793 H   0  0  0  0  0  0  0  0  0  0  0  0
    3.6976   -3.2463   -0.0645 H   0  0  0  0  0  0  0  0  0  0  0  0
   -0.2503    2.7826   -0.4054 H   0  0  0  0  0  0  0  0  0  0  0  0
    1.8316   -0.7031    1.8905 H   0  0  0  0  0  0  0  0  0  0  0  0
    0.2767    0.0522    1.5906 H   0  0  0  0  0  0  0  0  0  0  0  0
    0.4245   -1.6969    1.6574 H   0  0  0  0  0  0  0  0  0  0  0  0
   -2.5703   -0.1522    1.1834 H   0  0  0  0  0  0  0  0  0  0  0  0
    5.5290    1.0963   -0.7500 H   0  0  0  0  0  0  0  0  0  0  0  0
    4.5338    0.7668   -2.1790 H   0  0  0  0  0  0  0  0  0  0  0  0
    4.2253    2.1874   -1.1714 H   0  0  0  0  0  0  0  0  0  0  0  0
   -4.4938    2.0869    0.5070 H   0  0  0  0  0  0  0  0  0  0  0  0
   -3.1111    2.0660    1.6198 H   0  0  0  0  0  0  0  0  0  0  0  0
   -4.9104    1.0844   -1.5850 H   0  0  0  0  0  0  0  0  0  0  0  0
   -4.1924    0.0614   -2.8241 H   0  0  0  0  0  0  0  0  0  0  0  0
   -5.1970   -0.6579   -1.5690 H   0  0  0  0  0  0  0  0  0  0  0  0
    5.6718   -2.0406    0.6717 H   0  0  0  0  0  0  0  0  0  0  0  0
   -4.9394    0.9559    2.7146 H   0  0  0  0  0  0  0  0  0  0  0  0
   -3.9153   -0.4229    3.1811 H   0  0  0  0  0  0  0  0  0  0  0  0
   -5.6720   -0.6001    3.0045 H   0  0  0  0  0  0  0  0  0  0  0  0
   -5.2824   -2.4131    1.6946 H   0  0  0  0  0  0  0  0  0  0  0  0
   -3.5812   -2.3515    1.2748 H   0  0  0  0  0  0  0  0  0  0  0  0
   -4.8973   -2.2470    0.0327 H   0  0  0  0  0  0  0  0  0  0  0  0
  1 10  1  0  0  0  0
  1 22  1  0  0  0  0
  2 14  1  0  0  0  0
  2 24  1  0  0  0  0
  3 16  1  0  0  0  0
  3 54  1  0  0  0  0
  4 22  2  0  0  0  0
  5 21  1  0  0  0  0
  5 26  1  0  0  0  0
  5 27  1  0  0  0  0
  6  7  1  0  0  0  0
  6  8  1  0  0  0  0
  6 13  1  0  0  0  0
  6 20  1  0  0  0  0
  7  9  1  0  0  0  0
  7 10  1  0  0  0  0
  7 28  1  0  0  0  0
  8 12  1  0  0  0  0
  8 15  1  0  0  0  0
  8 29  1  0  0  0  0
  9 16  1  0  0  0  0
  9 22  1  0  0  0  0
  9 23  1  0  0  0  0
 10 19  1  0  0  0  0
 10 30  1  0  0  0  0
 11 14  1  0  0  0  0
 11 17  1  0  0  0  0
 11 21  1  0  0  0  0
 11 25  1  0  0  0  0
 12 14  1  0  0  0  0
 12 19  2  0  0  0  0
 13 18  1  0  0  0  0
 13 31  1  0  0  0  0
 13 32  1  0  0  0  0
 14 33  1  0  0  0  0
 15 17  1  0  0  0  0
 15 34  1  0  0  0  0
 15 35  1  0  0  0  0
 16 18  1  0  0  0  0
 16 36  1  0  0  0  0
 17 37  1  0  0  0  0
 17 38  1  0  0  0  0
 18 39  1  0  0  0  0
 18 40  1  0  0  0  0
 19 41  1  0  0  0  0
 20 42  1  0  0  0  0
 20 43  1  0  0  0  0
 20 44  1  0  0  0  0
 21 24  1  0  0  0  0
 21 45  1  0  0  0  0
 23 46  1  0  0  0  0
 23 47  1  0  0  0  0
 23 48  1  0  0  0  0
 24 49  1  0  0  0  0
 24 50  1  0  0  0  0
 25 51  1  0  0  0  0
 25 52  1  0  0  0  0
 25 53  1  0  0  0  0
 26 55  1  0  0  0  0
 26 56  1  0  0  0  0
 26 57  1  0  0  0  0
 27 58  1  0  0  0  0
 27 59  1  0  0  0  0
 27 60  1  0  0  0  0
M  END
> <PUBCHEM_COMPOUND_CID>
441738

> <PUBCHEM_CONFORMER_RMSD>
0.6

> <PUBCHEM_CONFORMER_DIVERSEORDER>
7
3
17
15
6
8
1
16
10
19
14
11
12
13
2
9
18
5
4

> <PUBCHEM_MMFF94_PARTIAL_CHARGES>
19
1 -0.43
10 0.42
12 -0.28
14 0.42
16 0.28
19 -0.29
2 -0.56
21 0.27
22 0.66
24 0.28
26 0.27
27 0.27
3 -0.68
4 -0.57
41 0.15
5 -0.81
54 0.4
8 0.14
9 0.06

> <PUBCHEM_EFFECTIVE_ROTOR_COUNT>
2.8

> <PUBCHEM_PHARMACOPHORE_FEATURES>
10
1 2 acceptor
1 3 acceptor
1 3 donor
1 4 acceptor
1 5 cation
5 1 7 9 10 22 rings
5 2 11 14 21 24 rings
6 6 7 8 10 12 19 rings
6 6 7 9 13 16 18 rings
6 8 11 12 14 15 17 rings

> <PUBCHEM_HEAVY_ATOM_COUNT>
27

> <PUBCHEM_ATOM_DEF_STEREO_COUNT>
5

> <PUBCHEM_ATOM_UDEF_STEREO_COUNT>
4

> <PUBCHEM_BOND_DEF_STEREO_COUNT>
0

> <PUBCHEM_BOND_UDEF_STEREO_COUNT>
0

> <PUBCHEM_ISOTOPIC_ATOM_COUNT>
0

> <PUBCHEM_COMPONENT_COUNT>
1

> <PUBCHEM_CACTVS_TAUTO_COUNT>
1

> <PUBCHEM_CONFORMER_ID>
0006BD8A00000007

> <PUBCHEM_MMFF94_ENERGY>
105.2284

> <PUBCHEM_FEATURE_SELFOVERLAP>
51.251

> <PUBCHEM_SHAPE_FINGERPRINT>
10366900 7 18270675360081340619
10675989 125 16467290864101855532
10863032 1 18186811257555529782
11552529 35 18115864088858523011
11578080 2 5689588356205178242
11796584 16 16414927464420118842
12236239 1 17675930880928567317
12553582 1 18411699855052006620
12633257 1 17967532380572984031
12670546 177 9799404486846239339
12670546 56 17676497124425721437
12788726 201 17386270104157436544
13140716 1 17978231552144985421
13224815 77 18060703896256578805
13583140 156 18131358543818024535
13675066 3 18342181067690345804
13782708 43 15482398651081433882
14223421 5 18342460352560763637
14341114 176 18341599430708688003
14787075 74 17774429469781331785
14790565 3 18051130298823668180
14849402 71 17822582595270244168
14950920 106 18187631497641149131
15209289 33 17988636415362457571
15209294 21 17748818618872015193
15238133 3 16370996442798471747
15788980 27 18187366566419292038
1601671 61 18040433326347943790
16945 1 18339647741413161604
17349148 13 17560799918113177138
1813 80 16988836160072647271
18186145 218 17748827397621683428
19078846 21 16443068317486562138
19591789 44 18412545448408506158
20261772 1 18336540543207172823
20691752 17 17774727562324036686
20739085 24 18338220661372556884
21033648 29 18270695237295799877
21267235 1 18410572920395636318
21503847 285 16805595963150742168
21864079 5 17385720309704270441
23559900 14 18130509759179199196
296302 2 8286193963930078156
3633792 109 18041861596453042909
392239 28 18343576348189048267
460360 51 18119236509572828326
5104073 3 18411422851389121120
5895379 119 14562795669192058106

> <PUBCHEM_SHAPE_MULTIPOLES>
527.19
10.43
2.27
1.68
1.09
0.28
0.66
1.18
3.16
-0.54
-0.03
1.46
-0.08
0.42

> <PUBCHEM_SHAPE_SELFOVERLAP>
1149.674

> <PUBCHEM_SHAPE_VOLUME>
287.2

> <PUBCHEM_COORDINATE_TYPE>
2
5
10

$$$$

