54693473
  -OEChem-07051213113D

 41 42  0     1  0  0  0  0  0999 V2000
   -1.0635   -0.3194   -1.0607 O   0  0  0  0  0  0  0  0  0  0  0  0
   -0.8073    1.3280    0.6249 O   0  0  0  0  0  0  0  0  0  0  0  0
   -5.0125    0.0811    0.0775 O   0  0  0  0  0  0  0  0  0  0  0  0
   -3.5583   -2.2856    0.8097 O   0  0  0  0  0  0  0  0  0  0  0  0
   -3.3045    2.4138   -0.0535 O   0  0  0  0  0  0  0  0  0  0  0  0
    2.6927    1.6369   -0.1342 O   0  0  0  0  0  0  0  0  0  0  0  0
    0.3255   -2.8238   -0.4028 O   0  0  0  0  0  0  0  0  0  0  0  0
    0.9677   -0.4119    2.2616 O   0  0  0  0  0  0  0  0  0  0  0  0
    2.6831   -1.0358   -0.8236 O   0  0  0  0  0  0  0  0  0  0  0  0
    1.0004    2.8072   -1.1749 O   0  0  0  0  0  0  0  0  0  0  0  0
    5.4087   -1.5263   -0.6606 O   0  0  0  0  0  0  0  0  0  0  0  0
   -3.5972    0.0463    0.2754 C   0  0  1  0  0  0  0  0  0  0  0  0
   -3.0882   -1.3347   -0.1427 C   0  0  1  0  0  0  0  0  0  0  0  0
   -2.9472    1.1378   -0.5727 C   0  0  2  0  0  0  0  0  0  0  0  0
   -1.5553   -1.3633   -0.2125 C   0  0  1  0  0  0  0  0  0  0  0  0
   -1.4256    0.9892   -0.6152 C   0  0  2  0  0  0  0  0  0  0  0  0
   -1.0319   -2.6807   -0.7782 C   0  0  0  0  0  0  0  0  0  0  0  0
    2.7624    0.6323    0.8983 C   0  0  1  0  0  0  0  0  0  0  0  0
    0.5402    1.2224    0.5547 C   0  0  0  0  0  0  0  0  0  0  0  0
    1.3464    0.4458    1.2713 C   0  0  0  0  0  0  0  0  0  0  0  0
    3.4198   -0.6121    0.3230 C   0  0  2  0  0  0  0  0  0  0  0  0
    1.3890    1.9901   -0.3589 C   0  0  0  0  0  0  0  0  0  0  0  0
    4.8557   -0.3373   -0.1062 C   0  0  0  0  0  0  0  0  0  0  0  0
   -3.4306    0.2276    1.3436 H   0  0  0  0  0  0  0  0  0  0  0  0
   -3.5161   -1.6075   -1.1151 H   0  0  0  0  0  0  0  0  0  0  0  0
   -3.3487    1.0740   -1.5923 H   0  0  0  0  0  0  0  0  0  0  0  0
   -1.1432   -1.2408    0.7941 H   0  0  0  0  0  0  0  0  0  0  0  0
   -1.0845    1.6935   -1.3817 H   0  0  0  0  0  0  0  0  0  0  0  0
   -1.0932   -2.6996   -1.8712 H   0  0  0  0  0  0  0  0  0  0  0  0
   -1.5768   -3.5371   -0.3700 H   0  0  0  0  0  0  0  0  0  0  0  0
    3.3388    1.0376    1.7373 H   0  0  0  0  0  0  0  0  0  0  0  0
   -5.1904   -0.0664   -0.8670 H   0  0  0  0  0  0  0  0  0  0  0  0
   -3.1579   -2.0725    1.6699 H   0  0  0  0  0  0  0  0  0  0  0  0
   -2.8767    3.0868   -0.6098 H   0  0  0  0  0  0  0  0  0  0  0  0
    3.3984   -1.4402    1.0404 H   0  0  0  0  0  0  0  0  0  0  0  0
    0.6399   -3.6651   -0.7752 H   0  0  0  0  0  0  0  0  0  0  0  0
    4.9039    0.4334   -0.8823 H   0  0  0  0  0  0  0  0  0  0  0  0
    5.4691   -0.0298    0.7465 H   0  0  0  0  0  0  0  0  0  0  0  0
    0.0095   -0.3091    2.3936 H   0  0  0  0  0  0  0  0  0  0  0  0
    2.7162   -0.3214   -1.4825 H   0  0  0  0  0  0  0  0  0  0  0  0
    6.3234   -1.3212   -0.9192 H   0  0  0  0  0  0  0  0  0  0  0  0
  1 15  1  0  0  0  0
  1 16  1  0  0  0  0
  2 16  1  0  0  0  0
  2 19  1  0  0  0  0
  3 12  1  0  0  0  0
  3 32  1  0  0  0  0
  4 13  1  0  0  0  0
  4 33  1  0  0  0  0
  5 14  1  0  0  0  0
  5 34  1  0  0  0  0
  6 18  1  0  0  0  0
  6 22  1  0  0  0  0
  7 17  1  0  0  0  0
  7 36  1  0  0  0  0
  8 20  1  0  0  0  0
  8 39  1  0  0  0  0
  9 21  1  0  0  0  0
  9 40  1  0  0  0  0
 10 22  2  0  0  0  0
 11 23  1  0  0  0  0
 11 41  1  0  0  0  0
 12 13  1  0  0  0  0
 12 14  1  0  0  0  0
 12 24  1  0  0  0  0
 13 15  1  0  0  0  0
 13 25  1  0  0  0  0
 14 16  1  0  0  0  0
 14 26  1  0  0  0  0
 15 17  1  0  0  0  0
 15 27  1  0  0  0  0
 16 28  1  0  0  0  0
 17 29  1  0  0  0  0
 17 30  1  0  0  0  0
 18 20  1  0  0  0  0
 18 21  1  0  0  0  0
 18 31  1  0  0  0  0
 19 20  2  0  0  0  0
 19 22  1  0  0  0  0
 21 23  1  0  0  0  0
 21 35  1  0  0  0  0
 23 37  1  0  0  0  0
 23 38  1  0  0  0  0
M  END
> <PUBCHEM_COMPOUND_CID>
54693473

> <PUBCHEM_CONFORMER_RMSD>
0.8

> <PUBCHEM_CONFORMER_DIVERSEORDER>
2
66
70
85
141
126
133
138
99
108
139
76
146
136
110
8
83
28
49
34
43
130
50
59
98
114
17
90
60
147
103
128
113
124
61
13
134
89
121
58
1
87
115
42
44
79
127
120
33
96
116
69
51
88
148
41
80
18
101
131
145
16
75
40
125
55
140
150
3
21
22
97
112
111
19
137
64
102
14
109
81
68
100
129
45
30
24
143
144
92
62
37
84
15
6
117
74
95
132
31
26
48
63
7
25
118
32
72
27
119
4
52
107
149
91
123
23
94
122
65
57
5
46
93
36
82
35
39
11
47
54
135
86
78
73
67
106
77
71
20
29
12
104
142
38
9
53
105
10
56

> <PUBCHEM_MMFF94_PARTIAL_CHARGES>
30
1 -0.56
10 -0.57
11 -0.68
12 0.28
13 0.28
14 0.28
15 0.28
16 0.56
17 0.28
18 0.42
19 0.09
2 -0.36
20 -0.06
21 0.28
22 0.71
23 0.28
3 -0.68
32 0.4
33 0.4
34 0.4
36 0.4
39 0.45
4 -0.68
40 0.4
41 0.4
5 -0.68
6 -0.43
7 -0.68
8 -0.53
9 -0.68

> <PUBCHEM_EFFECTIVE_ROTOR_COUNT>
6.6

> <PUBCHEM_PHARMACOPHORE_FEATURES>
18
1 1 acceptor
1 10 acceptor
1 11 acceptor
1 11 donor
1 2 acceptor
1 3 acceptor
1 3 donor
1 4 acceptor
1 4 donor
1 5 acceptor
1 5 donor
1 7 acceptor
1 7 donor
1 8 donor
1 9 acceptor
1 9 donor
5 6 18 19 20 22 rings
6 1 12 13 14 15 16 rings

> <PUBCHEM_HEAVY_ATOM_COUNT>
23

> <PUBCHEM_ATOM_DEF_STEREO_COUNT>
7

> <PUBCHEM_ATOM_UDEF_STEREO_COUNT>
0

> <PUBCHEM_BOND_DEF_STEREO_COUNT>
0

> <PUBCHEM_BOND_UDEF_STEREO_COUNT>
0

> <PUBCHEM_ISOTOPIC_ATOM_COUNT>
0

> <PUBCHEM_COMPONENT_COUNT>
1

> <PUBCHEM_CACTVS_TAUTO_COUNT>
5

> <PUBCHEM_CONFORMER_ID>
03428E6100000002

> <PUBCHEM_MMFF94_ENERGY>
55.8725

> <PUBCHEM_FEATURE_SELFOVERLAP>
91.405

> <PUBCHEM_SHAPE_FINGERPRINT>
10922523 26 18335706000796250881
11112241 14 16589463841750916890
11578080 2 6193744093930924498
12011746 2 18411989087340676631
12553582 1 18200891641714634200
12592029 89 18410853304339799515
12715332 25 18040999531232662054
13140716 1 18337666409128706603
14115302 16 18260264110137054408
14251751 93 18341899610035825041
15196674 1 18336265643630375894
15295992 7 17676209035674161641
16752209 62 18264790804188398565
16945 1 17904772080850500669
17804303 29 18334295344536629933
19422 9 18199468762342079169
19591789 44 18408887313003721287
20871999 31 18344142605504144188
21267235 1 18411411821617627299
21634736 98 18129384800086745096
221490 88 18199180703117297784
23175994 123 17312819385810459144
23402539 116 17846218899726960200
23559900 14 18337961095077218713
23566358 27 17913480247091261164
23598291 2 18059573546885430829
350125 39 18408599262785092549
465052 167 18201994396749665587
7364860 26 18265618667408931504
90525 40 18412554210225815525
9709674 26 18197778799726615483

> <PUBCHEM_SHAPE_MULTIPOLES>
408.77
8.24
2.82
1.15
2.92
0.48
-0.39
2.05
0.34
-0.76
0.74
0.37
-0.01
0.42

> <PUBCHEM_SHAPE_SELFOVERLAP>
854.988

> <PUBCHEM_SHAPE_VOLUME>
229.1

> <PUBCHEM_COORDINATE_TYPE>
2
5
10

$$$$

