239595
  -OEChem-07051213063D

 45 48  0     1  0  0  0  0  0999 V2000
   -4.9305    1.1344    0.8290 O   0  0  0  0  0  0  0  0  0  0  0  0
    5.5151   -0.0675    1.0935 O   0  0  0  0  0  0  0  0  0  0  0  0
   -2.0422   -0.7286    0.2604 C   0  0  1  0  0  0  0  0  0  0  0  0
   -0.6566   -0.8229   -0.3938 C   0  0  1  0  0  0  0  0  0  0  0  0
   -2.7418    0.5983   -0.0841 C   0  0  2  0  0  0  0  0  0  0  0  0
    0.1489    0.4693   -0.1467 C   0  0  0  0  0  0  0  0  0  0  0  0
    1.6575    0.4308   -0.5242 C   0  0  2  0  0  0  0  0  0  0  0  0
   -3.0832   -1.7989   -0.0511 C   0  0  0  0  0  0  0  0  0  0  0  0
   -1.9531    1.7066    0.6070 C   0  0  0  0  0  0  0  0  0  0  0  0
    0.0873   -2.0526    0.1422 C   0  0  0  0  0  0  0  0  0  0  0  0
   -4.1160    0.2900    0.4802 C   0  0  0  0  0  0  0  0  0  0  0  0
   -4.3714   -1.2056    0.5355 C   0  0  0  0  0  0  0  0  0  0  0  0
   -0.4699    1.5763    0.3344 C   0  0  0  0  0  0  0  0  0  0  0  0
    2.2914   -0.9221   -0.1660 C   0  0  0  0  0  0  0  0  0  0  0  0
    1.4788   -2.1592   -0.4607 C   0  0  0  0  0  0  0  0  0  0  0  0
   -2.9185    0.8876   -1.5858 C   0  0  0  0  0  0  0  0  0  0  0  0
    2.4539    1.5709    0.1804 C   0  0  0  0  0  0  0  0  0  0  0  0
    1.7561    0.6279   -2.0557 C   0  0  0  0  0  0  0  0  0  0  0  0
    3.9648    1.4357    0.0630 C   0  0  0  0  0  0  0  0  0  0  0  0
    3.5172   -1.0651    0.3668 C   0  0  0  0  0  0  0  0  0  0  0  0
    4.4121    0.0946    0.5758 C   0  0  0  0  0  0  0  0  0  0  0  0
   -1.8909   -0.7674    1.3540 H   0  0  0  0  0  0  0  0  0  0  0  0
   -0.7780   -0.9439   -1.4781 H   0  0  0  0  0  0  0  0  0  0  0  0
   -2.8482   -2.7628    0.4105 H   0  0  0  0  0  0  0  0  0  0  0  0
   -3.1836   -1.9619   -1.1297 H   0  0  0  0  0  0  0  0  0  0  0  0
   -2.1155    1.6935    1.6919 H   0  0  0  0  0  0  0  0  0  0  0  0
   -2.2982    2.6872    0.2569 H   0  0  0  0  0  0  0  0  0  0  0  0
   -0.4708   -2.9644   -0.1011 H   0  0  0  0  0  0  0  0  0  0  0  0
    0.1626   -2.0085    1.2371 H   0  0  0  0  0  0  0  0  0  0  0  0
   -4.5015   -1.5029    1.5800 H   0  0  0  0  0  0  0  0  0  0  0  0
   -5.2466   -1.4768   -0.0588 H   0  0  0  0  0  0  0  0  0  0  0  0
    0.0875    2.4896    0.5145 H   0  0  0  0  0  0  0  0  0  0  0  0
    1.4070   -2.2956   -1.5466 H   0  0  0  0  0  0  0  0  0  0  0  0
    1.9643   -3.0610   -0.0681 H   0  0  0  0  0  0  0  0  0  0  0  0
   -1.9642    1.0182   -2.1047 H   0  0  0  0  0  0  0  0  0  0  0  0
   -3.4704    0.0936   -2.1000 H   0  0  0  0  0  0  0  0  0  0  0  0
   -3.4953    1.8094   -1.7291 H   0  0  0  0  0  0  0  0  0  0  0  0
    2.2020    1.5845    1.2509 H   0  0  0  0  0  0  0  0  0  0  0  0
    2.1713    2.5504   -0.2259 H   0  0  0  0  0  0  0  0  0  0  0  0
    2.7888    0.5448   -2.4126 H   0  0  0  0  0  0  0  0  0  0  0  0
    1.1695   -0.1151   -2.6081 H   0  0  0  0  0  0  0  0  0  0  0  0
    1.3838    1.6164   -2.3508 H   0  0  0  0  0  0  0  0  0  0  0  0
    4.4417    2.2151    0.6678 H   0  0  0  0  0  0  0  0  0  0  0  0
    4.3069    1.5507   -0.9700 H   0  0  0  0  0  0  0  0  0  0  0  0
    3.9230   -2.0401    0.6158 H   0  0  0  0  0  0  0  0  0  0  0  0
  1 11  2  0  0  0  0
  2 21  2  0  0  0  0
  3  4  1  0  0  0  0
  3  5  1  0  0  0  0
  3  8  1  0  0  0  0
  3 22  1  0  0  0  0
  4  6  1  0  0  0  0
  4 10  1  0  0  0  0
  4 23  1  0  0  0  0
  5  9  1  0  0  0  0
  5 11  1  0  0  0  0
  5 16  1  0  0  0  0
  6  7  1  0  0  0  0
  6 13  2  0  0  0  0
  7 14  1  0  0  0  0
  7 17  1  0  0  0  0
  7 18  1  0  0  0  0
  8 12  1  0  0  0  0
  8 24  1  0  0  0  0
  8 25  1  0  0  0  0
  9 13  1  0  0  0  0
  9 26  1  0  0  0  0
  9 27  1  0  0  0  0
 10 15  1  0  0  0  0
 10 28  1  0  0  0  0
 10 29  1  0  0  0  0
 11 12  1  0  0  0  0
 12 30  1  0  0  0  0
 12 31  1  0  0  0  0
 13 32  1  0  0  0  0
 14 15  1  0  0  0  0
 14 20  2  0  0  0  0
 15 33  1  0  0  0  0
 15 34  1  0  0  0  0
 16 35  1  0  0  0  0
 16 36  1  0  0  0  0
 16 37  1  0  0  0  0
 17 19  1  0  0  0  0
 17 38  1  0  0  0  0
 17 39  1  0  0  0  0
 18 40  1  0  0  0  0
 18 41  1  0  0  0  0
 18 42  1  0  0  0  0
 19 21  1  0  0  0  0
 19 43  1  0  0  0  0
 19 44  1  0  0  0  0
 20 21  1  0  0  0  0
 20 45  1  0  0  0  0
M  END
> <PUBCHEM_COMPOUND_CID>
239595

> <PUBCHEM_CONFORMER_RMSD>
0.6

> <PUBCHEM_CONFORMER_DIVERSEORDER>
1

> <PUBCHEM_MMFF94_PARTIAL_CHARGES>
17
1 -0.57
11 0.45
12 0.06
13 -0.29
14 -0.28
15 0.14
19 0.06
2 -0.57
20 -0.14
21 0.49
32 0.15
4 0.14
45 0.15
5 0.06
6 -0.28
7 0.28
9 0.14

> <PUBCHEM_EFFECTIVE_ROTOR_COUNT>
1.4

> <PUBCHEM_PHARMACOPHORE_FEATURES>
6
1 1 acceptor
1 2 acceptor
5 3 5 8 11 12 rings
6 3 4 5 6 9 13 rings
6 4 6 7 10 14 15 rings
6 7 14 17 19 20 21 rings

> <PUBCHEM_HEAVY_ATOM_COUNT>
21

> <PUBCHEM_ATOM_DEF_STEREO_COUNT>
4

> <PUBCHEM_ATOM_UDEF_STEREO_COUNT>
0

> <PUBCHEM_BOND_DEF_STEREO_COUNT>
0

> <PUBCHEM_BOND_UDEF_STEREO_COUNT>
0

> <PUBCHEM_ISOTOPIC_ATOM_COUNT>
0

> <PUBCHEM_COMPONENT_COUNT>
1

> <PUBCHEM_CACTVS_TAUTO_COUNT>
10

> <PUBCHEM_CONFORMER_ID>
0003A7EB00000001

> <PUBCHEM_MMFF94_ENERGY>
50.8442

> <PUBCHEM_FEATURE_SELFOVERLAP>
30.55

> <PUBCHEM_SHAPE_FINGERPRINT>
10062212 137 18412268302843056859
10759866 29 17843391900428347564
10967382 1 18409445907706777922
11132069 177 18410848872033594499
12011746 2 18409729582497970158
12236239 1 18059853948610524708
12251169 10 18412548704367723570
12403259 415 18341899588767256276
12403260 363 18265059037195470655
12403814 3 17988923362681176845
12507557 5 18341338837731322496
12633257 1 18408327679049701048
13140716 1 18337672997007275512
13214271 11 18113618980555528669
13224815 77 18410289203155469727
13675066 3 18201716258398047723
14178342 30 18339071696146879809
14223421 5 18336545044127125350
14341114 176 18408600396688081498
14341114 328 18260261919571890648
14787075 74 18338520716219735770
15163728 17 14636251941479861657
15196674 1 18409728443535233498
15375358 24 17967527987069399117
15536298 74 18261105318147348158
15788980 27 17275389802197843581
16945 1 18266456692557535631
17349148 13 18202563964693710778
17492 89 18411699919456040483
17862501 102 18413394228508829138
1813 80 17203327849543616126
18186145 218 18410289224646111172
19050596 39 18411135827045553649
19784866 9 18409447002944537827
200 152 18261121755408975487
20715895 44 18055923327728033789
21033648 29 18199488656525709692
21267235 1 18410846646961174770
21421861 104 18128818736139577570
21637258 2 15410629103214437416
22854114 111 18412821382665875615
23402539 116 18113908134343063876
23419403 2 16395287004008318393
23557571 272 17895186654280227327
23559900 14 18261107517608473158
26918003 58 18412266142300251897
2748010 2 18411408536041765519
2838139 119 15503238678462574424
296302 2 16587743139816806815
335352 9 18337388352318300783
34934 24 18261677060294164303
350125 39 18411135819141836968
42 15 18273495663061747688
4340502 62 18340476855575946643
5104073 3 18411699846435335008
633830 44 18040712554597978772
7364860 26 18188484812905767198
9709674 26 18409722971858129335

> <PUBCHEM_SHAPE_MULTIPOLES>
420.43
9.23
2.06
1.11
1.26
0.49
0.5
-0.69
-2.85
-0.22
-0.06
0.12
-0.27
-0.05

> <PUBCHEM_SHAPE_SELFOVERLAP>
915.124

> <PUBCHEM_SHAPE_VOLUME>
227.8

> <PUBCHEM_COORDINATE_TYPE>
2
5
10

$$$$

