443270
  -OEChem-07051213012D

 51 55  0     0  0  0  0  0  0999 V2000
    7.9366    3.3611    0.0000 O   0  0  0  0  0  0  0  0  0  0  0  0
    9.7104    2.3370    0.0000 O   0  0  0  0  0  0  0  0  0  0  0  0
    5.2462   -1.0129    0.0000 N   0  0  0  0  0  0  0  0  0  0  0  0
    4.6626   -0.2081    0.0000 N   0  0  0  0  0  0  0  0  0  0  0  0
    7.0584   -1.2082    0.0000 N   0  0  0  0  0  0  0  0  0  0  0  0
    6.1924    0.2919    0.0000 C   0  0  0  0  0  0  0  0  0  0  0  0
    5.2462    0.5966    0.0000 C   0  0  0  0  0  0  0  0  0  0  0  0
    7.0584    0.7919    0.0000 C   0  0  0  0  0  0  0  0  0  0  0  0
    6.1924   -0.7081    0.0000 C   0  0  0  0  0  0  0  0  0  0  0  0
    4.9355    1.5471    0.0000 C   0  0  0  0  0  0  0  0  0  0  0  0
    7.9244    0.2919    0.0000 C   0  0  0  0  0  0  0  0  0  0  0  0
    7.0424    1.8334    0.0000 C   0  0  0  0  0  0  0  0  0  0  0  0
    7.9244   -0.7081    0.0000 C   0  0  0  0  0  0  0  0  0  0  0  0
    4.9355   -1.9634    0.0000 C   0  0  0  0  0  0  0  0  0  0  0  0
    3.9570    1.7533    0.0000 C   0  0  0  0  0  0  0  0  0  0  0  0
    8.8344    0.7987    0.0000 C   0  0  0  0  0  0  0  0  0  0  0  0
    7.9404    2.3611    0.0000 C   0  0  0  0  0  0  0  0  0  0  0  0
    8.8425    1.8403    0.0000 C   0  0  0  0  0  0  0  0  0  0  0  0
    3.9570   -2.1696    0.0000 C   0  0  0  0  0  0  0  0  0  0  0  0
    5.6034   -2.7077    0.0000 C   0  0  0  0  0  0  0  0  0  0  0  0
    3.6464    2.7038    0.0000 C   0  0  0  0  0  0  0  0  0  0  0  0
    3.2892    1.0090    0.0000 C   0  0  0  0  0  0  0  0  0  0  0  0
    3.6464   -3.1201    0.0000 C   0  0  0  0  0  0  0  0  0  0  0  0
    5.2927   -3.6582    0.0000 C   0  0  0  0  0  0  0  0  0  0  0  0
    2.6678    2.9101    0.0000 C   0  0  0  0  0  0  0  0  0  0  0  0
    2.3107    1.2152    0.0000 C   0  0  0  0  0  0  0  0  0  0  0  0
    4.3142   -3.8644    0.0000 C   0  0  0  0  0  0  0  0  0  0  0  0
    2.0000    2.1658    0.0000 C   0  0  0  0  0  0  0  0  0  0  0  0
    8.8006    3.8644    0.0000 C   0  0  0  0  0  0  0  0  0  0  0  0
   10.5745    1.8336    0.0000 C   0  0  0  0  0  0  0  0  0  0  0  0
    5.5493    1.6344    0.0000 H   0  0  0  0  0  0  0  0  0  0  0  0
    4.9561    2.1668    0.0000 H   0  0  0  0  0  0  0  0  0  0  0  0
    6.5019    2.1371    0.0000 H   0  0  0  0  0  0  0  0  0  0  0  0
    8.4614   -1.0182    0.0000 H   0  0  0  0  0  0  0  0  0  0  0  0
    9.3678    0.4825    0.0000 H   0  0  0  0  0  0  0  0  0  0  0  0
    3.5430   -1.7082    0.0000 H   0  0  0  0  0  0  0  0  0  0  0  0
    6.2100   -2.5798    0.0000 H   0  0  0  0  0  0  0  0  0  0  0  0
    4.0604    3.1653    0.0000 H   0  0  0  0  0  0  0  0  0  0  0  0
    3.4818    0.4197    0.0000 H   0  0  0  0  0  0  0  0  0  0  0  0
    3.0397   -3.2480    0.0000 H   0  0  0  0  0  0  0  0  0  0  0  0
    5.7068   -4.1197    0.0000 H   0  0  0  0  0  0  0  0  0  0  0  0
    2.4752    3.4994    0.0000 H   0  0  0  0  0  0  0  0  0  0  0  0
    1.8966    0.7538    0.0000 H   0  0  0  0  0  0  0  0  0  0  0  0
    4.1216   -4.4538    0.0000 H   0  0  0  0  0  0  0  0  0  0  0  0
    1.3933    2.2936    0.0000 H   0  0  0  0  0  0  0  0  0  0  0  0
    9.1127    3.3287    0.0000 H   0  0  0  0  0  0  0  0  0  0  0  0
    9.3364    4.1765    0.0000 H   0  0  0  0  0  0  0  0  0  0  0  0
    8.4886    4.4002    0.0000 H   0  0  0  0  0  0  0  0  0  0  0  0
   10.2625    1.2979    0.0000 H   0  0  0  0  0  0  0  0  0  0  0  0
   11.1103    1.5216    0.0000 H   0  0  0  0  0  0  0  0  0  0  0  0
   10.8866    2.3694    0.0000 H   0  0  0  0  0  0  0  0  0  0  0  0
  1 17  1  0  0  0  0
  1 29  1  0  0  0  0
  2 18  1  0  0  0  0
  2 30  1  0  0  0  0
  3  4  1  0  0  0  0
  3  9  1  0  0  0  0
  3 14  1  0  0  0  0
  4  7  2  0  0  0  0
  5  9  1  0  0  0  0
  5 13  2  0  0  0  0
  6  7  1  0  0  0  0
  6  8  1  0  0  0  0
  6  9  2  0  0  0  0
  7 10  1  0  0  0  0
  8 11  1  0  0  0  0
  8 12  2  0  0  0  0
 10 15  1  0  0  0  0
 10 31  1  0  0  0  0
 10 32  1  0  0  0  0
 11 13  1  0  0  0  0
 11 16  2  0  0  0  0
 12 17  1  0  0  0  0
 12 33  1  0  0  0  0
 13 34  1  0  0  0  0
 14 19  2  0  0  0  0
 14 20  1  0  0  0  0
 15 21  2  0  0  0  0
 15 22  1  0  0  0  0
 16 18  1  0  0  0  0
 16 35  1  0  0  0  0
 17 18  2  0  0  0  0
 19 23  1  0  0  0  0
 19 36  1  0  0  0  0
 20 24  2  0  0  0  0
 20 37  1  0  0  0  0
 21 25  1  0  0  0  0
 21 38  1  0  0  0  0
 22 26  2  0  0  0  0
 22 39  1  0  0  0  0
 23 27  2  0  0  0  0
 23 40  1  0  0  0  0
 24 27  1  0  0  0  0
 24 41  1  0  0  0  0
 25 28  2  0  0  0  0
 25 42  1  0  0  0  0
 26 28  1  0  0  0  0
 26 43  1  0  0  0  0
 27 44  1  0  0  0  0
 28 45  1  0  0  0  0
 29 46  1  0  0  0  0
 29 47  1  0  0  0  0
 29 48  1  0  0  0  0
 30 49  1  0  0  0  0
 30 50  1  0  0  0  0
 30 51  1  0  0  0  0
M  END
> <PUBCHEM_COMPOUND_CID>
443270

> <PUBCHEM_COMPOUND_CANONICALIZED>
1

> <PUBCHEM_CACTVS_COMPLEXITY>
549

> <PUBCHEM_CACTVS_HBOND_ACCEPTOR>
4

> <PUBCHEM_CACTVS_HBOND_DONOR>
0

> <PUBCHEM_CACTVS_ROTATABLE_BOND>
5

> <PUBCHEM_CACTVS_SUBSKEYS>
AAADceB7MAAAAAAAAAAAAAAAAAAAAWAAAAA8YMEAAAAAAFix/gAAHgAIAAAADAzBnwY/9t4IFACiAzZnZACSjCsxIqAd2CA+7JiNLuLE+duEtCpsyBPK6Cew0PMOoAABAAAQQABAAAIAACCAAAAAAAAAAA==

> <PUBCHEM_IUPAC_OPENEYE_NAME>
1-benzyl-7,8-dimethoxy-3-phenyl-pyrazolo[3,4-c]isoquinoline

> <PUBCHEM_IUPAC_CAS_NAME>
7,8-dimethoxy-3-phenyl-1-(phenylmethyl)pyrazolo[3,4-c]isoquinoline

> <PUBCHEM_IUPAC_NAME>
1-benzyl-7,8-dimethoxy-3-phenylpyrazolo[3,4-c]isoquinoline

> <PUBCHEM_IUPAC_SYSTEMATIC_NAME>
7,8-dimethoxy-3-phenyl-1-(phenylmethyl)pyrazolo[3,4-c]isoquinoline

> <PUBCHEM_IUPAC_TRADITIONAL_NAME>
1-benzyl-7,8-dimethoxy-3-phenyl-pyrazol[3,4-c]isoquinoline

> <PUBCHEM_IUPAC_INCHI>
InChI=1S/C25H21N3O2/c1-29-22-14-18-16-26-25-24(20(18)15-23(22)30-2)21(13-17-9-5-3-6-10-17)27-28(25)19-11-7-4-8-12-19/h3-12,14-16H,13H2,1-2H3

> <PUBCHEM_IUPAC_INCHIKEY>
PEWFNMCLKSQIOA-UHFFFAOYSA-N

> <PUBCHEM_XLOGP3_AA>
5.6

> <PUBCHEM_EXACT_MASS>
395.163377

> <PUBCHEM_MOLECULAR_FORMULA>
C25H21N3O2

> <PUBCHEM_MOLECULAR_WEIGHT>
395.45314

> <PUBCHEM_OPENEYE_CAN_SMILES>
COC1=C(C=C2C(=C1)C=NC3=C2C(=NN3C4=CC=CC=C4)CC5=CC=CC=C5)OC

> <PUBCHEM_OPENEYE_ISO_SMILES>
COC1=C(C=C2C(=C1)C=NC3=C2C(=NN3C4=CC=CC=C4)CC5=CC=CC=C5)OC

> <PUBCHEM_CACTVS_TPSA>
49.2

> <PUBCHEM_MONOISOTOPIC_WEIGHT>
395.163377

> <PUBCHEM_TOTAL_CHARGE>
0

> <PUBCHEM_HEAVY_ATOM_COUNT>
30

> <PUBCHEM_ATOM_DEF_STEREO_COUNT>
0

> <PUBCHEM_ATOM_UDEF_STEREO_COUNT>
0

> <PUBCHEM_BOND_DEF_STEREO_COUNT>
0

> <PUBCHEM_BOND_UDEF_STEREO_COUNT>
0

> <PUBCHEM_ISOTOPIC_ATOM_COUNT>
0

> <PUBCHEM_COMPONENT_COUNT>
1

> <PUBCHEM_CACTVS_TAUTO_COUNT>
1

> <PUBCHEM_COORDINATE_TYPE>
1
5
255

> <PUBCHEM_BONDANNOTATIONS>
11  13  8
11  16  8
12  17  8
14  19  8
14  20  8
15  21  8
15  22  8
16  18  8
17  18  8
19  23  8
20  24  8
21  25  8
22  26  8
23  27  8
24  27  8
25  28  8
26  28  8
3  4  8
3  9  8
4  7  8
5  13  8
5  9  8
6  7  8
6  8  8
6  9  8
8  11  8
8  12  8

$$$$

