222845
  -OEChem-07051213073D

 43 46  0     1  0  0  0  0  0999 V2000
    5.0022    1.1269   -0.4158 O   0  0  0  0  0  0  0  0  0  0  0  0
   -5.7447   -0.2759    0.3288 O   0  0  0  0  0  0  0  0  0  0  0  0
    2.0961   -0.7704   -0.2133 C   0  0  2  0  0  0  0  0  0  0  0  0
    2.7328    0.5597    0.2534 C   0  0  2  0  0  0  0  0  0  0  0  0
    0.6292   -0.8596    0.2163 C   0  0  1  0  0  0  0  0  0  0  0  0
   -0.1390    0.3105   -0.4871 C   0  0  2  0  0  0  0  0  0  0  0  0
    2.0309    1.7053   -0.4701 C   0  0  0  0  0  0  0  0  0  0  0  0
    3.0970   -1.8321    0.2340 C   0  0  0  0  0  0  0  0  0  0  0  0
    0.5136    1.6859   -0.2034 C   0  0  0  0  0  0  0  0  0  0  0  0
    4.1654    0.2721   -0.1572 C   0  0  0  0  0  0  0  0  0  0  0  0
    4.4463   -1.2207   -0.1736 C   0  0  0  0  0  0  0  0  0  0  0  0
    2.7561    0.8016    1.7748 C   0  0  0  0  0  0  0  0  0  0  0  0
   -1.6334    0.2009   -0.2055 C   0  0  0  0  0  0  0  0  0  0  0  0
   -0.0259   -2.1809   -0.1050 C   0  0  0  0  0  0  0  0  0  0  0  0
   -2.2049   -1.0918   -0.1516 C   0  0  0  0  0  0  0  0  0  0  0  0
   -1.3514   -2.2801   -0.2814 C   0  0  0  0  0  0  0  0  0  0  0  0
   -2.4737    1.3156   -0.0813 C   0  0  0  0  0  0  0  0  0  0  0  0
   -3.5864   -1.2443    0.0216 C   0  0  0  0  0  0  0  0  0  0  0  0
   -3.8483    1.1524    0.1044 C   0  0  0  0  0  0  0  0  0  0  0  0
   -2.0584    2.7483   -0.1421 C   0  0  0  0  0  0  0  0  0  0  0  0
   -4.4036   -0.1234    0.1539 C   0  0  0  0  0  0  0  0  0  0  0  0
    2.1096   -0.8009   -1.3170 H   0  0  0  0  0  0  0  0  0  0  0  0
    0.5620   -0.7478    1.3063 H   0  0  0  0  0  0  0  0  0  0  0  0
   -0.0499    0.1606   -1.5757 H   0  0  0  0  0  0  0  0  0  0  0  0
    2.2102    1.6303   -1.5510 H   0  0  0  0  0  0  0  0  0  0  0  0
    2.4484    2.6725   -0.1639 H   0  0  0  0  0  0  0  0  0  0  0  0
    2.9424   -2.7956   -0.2611 H   0  0  0  0  0  0  0  0  0  0  0  0
    3.0514   -2.0023    1.3151 H   0  0  0  0  0  0  0  0  0  0  0  0
    0.3456    1.9845    0.8356 H   0  0  0  0  0  0  0  0  0  0  0  0
    0.1444    2.4508   -0.8827 H   0  0  0  0  0  0  0  0  0  0  0  0
    4.7215   -1.5171   -1.1898 H   0  0  0  0  0  0  0  0  0  0  0  0
    5.2355   -1.4796    0.5354 H   0  0  0  0  0  0  0  0  0  0  0  0
    3.3049    0.0222    2.3143 H   0  0  0  0  0  0  0  0  0  0  0  0
    3.2650    1.7469    1.9997 H   0  0  0  0  0  0  0  0  0  0  0  0
    1.7560    0.8603    2.2121 H   0  0  0  0  0  0  0  0  0  0  0  0
    0.5767   -3.0824   -0.1456 H   0  0  0  0  0  0  0  0  0  0  0  0
   -1.8152   -3.2407   -0.4765 H   0  0  0  0  0  0  0  0  0  0  0  0
   -4.0244   -2.2395    0.0605 H   0  0  0  0  0  0  0  0  0  0  0  0
   -4.5129    2.0078    0.2051 H   0  0  0  0  0  0  0  0  0  0  0  0
   -1.3915    3.0323    0.6725 H   0  0  0  0  0  0  0  0  0  0  0  0
   -1.6845    3.0089   -1.1355 H   0  0  0  0  0  0  0  0  0  0  0  0
   -2.9183    3.4198   -0.0086 H   0  0  0  0  0  0  0  0  0  0  0  0
   -5.9562   -1.2253    0.3382 H   0  0  0  0  0  0  0  0  0  0  0  0
  1 10  2  0  0  0  0
  2 21  1  0  0  0  0
  2 43  1  0  0  0  0
  3  4  1  0  0  0  0
  3  5  1  0  0  0  0
  3  8  1  0  0  0  0
  3 22  1  0  0  0  0
  4  7  1  0  0  0  0
  4 10  1  0  0  0  0
  4 12  1  0  0  0  0
  5  6  1  0  0  0  0
  5 14  1  0  0  0  0
  5 23  1  0  0  0  0
  6  9  1  0  0  0  0
  6 13  1  0  0  0  0
  6 24  1  0  0  0  0
  7  9  1  0  0  0  0
  7 25  1  0  0  0  0
  7 26  1  0  0  0  0
  8 11  1  0  0  0  0
  8 27  1  0  0  0  0
  8 28  1  0  0  0  0
  9 29  1  0  0  0  0
  9 30  1  0  0  0  0
 10 11  1  0  0  0  0
 11 31  1  0  0  0  0
 11 32  1  0  0  0  0
 12 33  1  0  0  0  0
 12 34  1  0  0  0  0
 12 35  1  0  0  0  0
 13 15  2  0  0  0  0
 13 17  1  0  0  0  0
 14 16  2  0  0  0  0
 14 36  1  0  0  0  0
 15 16  1  0  0  0  0
 15 18  1  0  0  0  0
 16 37  1  0  0  0  0
 17 19  2  0  0  0  0
 17 20  1  0  0  0  0
 18 21  2  0  0  0  0
 18 38  1  0  0  0  0
 19 21  1  0  0  0  0
 19 39  1  0  0  0  0
 20 40  1  0  0  0  0
 20 41  1  0  0  0  0
 20 42  1  0  0  0  0
M  END
> <PUBCHEM_COMPOUND_CID>
222845

> <PUBCHEM_CONFORMER_RMSD>
0.6

> <PUBCHEM_CONFORMER_DIVERSEORDER>
1

> <PUBCHEM_MMFF94_PARTIAL_CHARGES>
21
1 -0.57
10 0.45
11 0.06
13 -0.14
14 -0.29
15 0.03
16 -0.18
17 -0.14
18 -0.15
19 -0.15
2 -0.53
20 0.14
21 0.08
36 0.15
37 0.15
38 0.15
39 0.15
4 0.06
43 0.45
5 0.14
6 0.14

> <PUBCHEM_EFFECTIVE_ROTOR_COUNT>
0.8

> <PUBCHEM_PHARMACOPHORE_FEATURES>
6
1 1 acceptor
1 2 donor
5 3 4 8 10 11 rings
6 13 15 17 18 19 21 rings
6 3 4 5 6 7 9 rings
6 5 6 13 14 15 16 rings

> <PUBCHEM_HEAVY_ATOM_COUNT>
21

> <PUBCHEM_ATOM_DEF_STEREO_COUNT>
4

> <PUBCHEM_ATOM_UDEF_STEREO_COUNT>
0

> <PUBCHEM_BOND_DEF_STEREO_COUNT>
0

> <PUBCHEM_BOND_UDEF_STEREO_COUNT>
0

> <PUBCHEM_ISOTOPIC_ATOM_COUNT>
0

> <PUBCHEM_COMPONENT_COUNT>
1

> <PUBCHEM_CACTVS_TAUTO_COUNT>
18

> <PUBCHEM_CONFORMER_ID>
0003667D00000001

> <PUBCHEM_MMFF94_ENERGY>
78.8119

> <PUBCHEM_FEATURE_SELFOVERLAP>
30.549

> <PUBCHEM_SHAPE_FINGERPRINT>
10498660 4 18342180011191993405
10616163 171 18338232652884694310
10967382 1 18411138021773815959
11132069 177 18409737240039582409
11578080 2 17025166119987741690
11595378 159 17917448530901394920
12011746 2 18411136948037305911
12107183 9 17691970787760137256
12236239 1 17775567532935355948
12251169 10 18412545388088514229
12390115 104 18116134731674213305
12403259 226 18336272313867716833
12403259 415 18261399961472838905
12403814 3 17632582647334629405
12553582 1 18340217292668194900
12596602 18 17131832036420844521
12788726 201 17749378313003246232
12838862 33 18339099115413380205
13140716 1 18124320406362985345
13224815 77 18273500091041141497
13583140 156 13912324568704067839
13862211 1 18410578379510033279
14178342 30 18048900514927569434
14341114 176 18341323457463861603
14790565 3 18411128156313694941
14866123 147 16383937965573208862
15042514 8 18339357445222990639
15196674 1 18411418453147424109
15256400 18 18337672017728273559
15442244 35 18339927116488480654
15536298 74 18335421274687689134
16945 1 18266189348250049526
17804303 29 18408039623792455644
1813 80 17203607099067845748
18186145 218 17385732382619923562
19591789 44 18267304424760522766
200 152 18260835899681647813
20028762 73 18187652379804498583
20261772 1 18409165493945828507
20510252 161 18334294305323661425
21033648 29 18188224168499369521
21267235 1 18339634633589958542
21652331 79 18411699893853950215
2334 1 18339085985386658767
23402539 116 18261117348746097631
23559900 14 18333453119220623176
2748010 2 18267027347882661727
3004659 81 18341607170941836766
335352 9 18339080522278020367
34934 24 18338238163749481254
350125 39 18410007767155705185
3545911 37 18410009923017791030
4214541 1 18339079392670128492
474 4 17059202641235452724
495365 180 17168155503110141674
5104073 3 18410574028111745977
69090 78 18261115162238790359
7832392 63 18263930942750516622
9709674 26 18409443670134909622

> <PUBCHEM_SHAPE_MULTIPOLES>
420.43
9.38
2.44
0.82
1.57
0.11
-0.25
0.1
-0.53
0.37
0.18
-0.46
0.15
0.04

> <PUBCHEM_SHAPE_SELFOVERLAP>
927.871

> <PUBCHEM_SHAPE_VOLUME>
226.5

> <PUBCHEM_COORDINATE_TYPE>
2
5
10

$$$$

