12094
  -OEChem-06241222293D

 23 23  0     0  0  0  0  0  0999 V2000
   -2.6343    0.0004   -0.3700 O   0  0  0  0  0  0  0  0  0  0  0  0
    4.2795    1.0980   -0.4011 O   0  5  0  0  0  0  0  0  0  0  0  0
    4.2796   -1.0972   -0.4027 O   0  0  0  0  0  0  0  0  0  0  0  0
   -4.6257   -0.0011    0.8009 O   0  0  0  0  0  0  0  0  0  0  0  0
    3.6834    0.0003   -0.2816 N   0  3  0  0  0  0  0  0  0  0  0  0
   -0.4426   -0.0004    0.5536 C   0  0  0  0  0  0  0  0  0  0  0  0
   -1.9040   -0.0008    0.8506 C   0  0  0  0  0  0  0  0  0  0  0  0
    0.2408    1.2077    0.4159 C   0  0  0  0  0  0  0  0  0  0  0  0
    0.2409   -1.2083    0.4143 C   0  0  0  0  0  0  0  0  0  0  0  0
    2.2915    0.0000   -0.0006 C   0  0  0  0  0  0  0  0  0  0  0  0
    1.6078    1.2078    0.1387 C   0  0  0  0  0  0  0  0  0  0  0  0
    1.6080   -1.2082    0.1372 C   0  0  0  0  0  0  0  0  0  0  0  0
   -3.9960    0.0000   -0.2483 C   0  0  0  0  0  0  0  0  0  0  0  0
   -4.6288    0.0019   -1.6067 C   0  0  0  0  0  0  0  0  0  0  0  0
   -2.1697   -0.8866    1.4414 H   0  0  0  0  0  0  0  0  0  0  0  0
   -2.1698    0.8839    1.4431 H   0  0  0  0  0  0  0  0  0  0  0  0
   -0.2813    2.1552    0.5203 H   0  0  0  0  0  0  0  0  0  0  0  0
   -0.2812   -2.1560    0.5175 H   0  0  0  0  0  0  0  0  0  0  0  0
    2.1075    2.1680    0.0377 H   0  0  0  0  0  0  0  0  0  0  0  0
    2.1077   -2.1681    0.0349 H   0  0  0  0  0  0  0  0  0  0  0  0
   -4.3312   -0.8953   -2.1551 H   0  0  0  0  0  0  0  0  0  0  0  0
   -4.3336    0.9022   -2.1515 H   0  0  0  0  0  0  0  0  0  0  0  0
   -5.7174    0.0001   -1.5001 H   0  0  0  0  0  0  0  0  0  0  0  0
  1  7  1  0  0  0  0
  1 13  1  0  0  0  0
  2  5  1  0  0  0  0
  3  5  2  0  0  0  0
  4 13  2  0  0  0  0
  5 10  1  0  0  0  0
  6  7  1  0  0  0  0
  6  8  2  0  0  0  0
  6  9  1  0  0  0  0
  7 15  1  0  0  0  0
  7 16  1  0  0  0  0
  8 11  1  0  0  0  0
  8 17  1  0  0  0  0
  9 12  2  0  0  0  0
  9 18  1  0  0  0  0
 10 11  2  0  0  0  0
 10 12  1  0  0  0  0
 11 19  1  0  0  0  0
 12 20  1  0  0  0  0
 13 14  1  0  0  0  0
 14 21  1  0  0  0  0
 14 22  1  0  0  0  0
 14 23  1  0  0  0  0
M  CHG  2   2  -1   5   1
M  END
> <PUBCHEM_COMPOUND_CID>
12094

> <PUBCHEM_CONFORMER_RMSD>
0.6

> <PUBCHEM_CONFORMER_DIVERSEORDER>
1
6
4
2
5
3

> <PUBCHEM_MMFF94_PARTIAL_CHARGES>
18
1 -0.43
10 0.13
11 -0.15
12 -0.15
13 0.66
14 0.06
17 0.15
18 0.15
19 0.15
2 -0.52
20 0.15
3 -0.52
4 -0.57
5 0.91
6 -0.14
7 0.42
8 -0.15
9 -0.15

> <PUBCHEM_EFFECTIVE_ROTOR_COUNT>
4

> <PUBCHEM_PHARMACOPHORE_FEATURES>
5
1 2 acceptor
1 2 anion
1 3 acceptor
1 4 acceptor
6 6 8 9 10 11 12 rings

> <PUBCHEM_HEAVY_ATOM_COUNT>
14

> <PUBCHEM_ATOM_DEF_STEREO_COUNT>
0

> <PUBCHEM_ATOM_UDEF_STEREO_COUNT>
0

> <PUBCHEM_BOND_DEF_STEREO_COUNT>
0

> <PUBCHEM_BOND_UDEF_STEREO_COUNT>
0

> <PUBCHEM_ISOTOPIC_ATOM_COUNT>
0

> <PUBCHEM_COMPONENT_COUNT>
1

> <PUBCHEM_CACTVS_TAUTO_COUNT>
1

> <PUBCHEM_CONFORMER_ID>
00002F3E00000001

> <PUBCHEM_MMFF94_ENERGY>
32.9463

> <PUBCHEM_FEATURE_SELFOVERLAP>
25.453

> <PUBCHEM_SHAPE_FINGERPRINT>
11401426 45 18409172095294562896
11471102 20 18411982455610419496
12236239 1 17821442474446563281
12251169 10 8934995988724657521
12500047 106 16774078445002366771
13675066 3 7709457212506477523
13690532 89 18334293193021914666
13760787 5 18408600374696156682
14251717 144 18334857238192087422
14576447 43 18041010509511884215
14911166 2 18411414003872444326
14943859 89 16917068841167303993
14993402 34 18113337500735334982
18186145 218 18412832361092901225
200 152 18040715874654813849
20645477 70 18412258471620958698
21119208 17 18114184133616189231
21256008 61 17894917308243453817
21293036 1 18411980256344466968
221490 88 18120093875477202507
22485316 2 14634868664987782037
231179 274 17418381293658666973
23402539 116 17530685432905443809
23402655 69 18410299146516638317
23557571 272 16917343758314529031
23559900 14 18337387150676978024
2748010 2 18049993403593825496
4047638 21 17346597469705708504
4072396 5 18201175311947102226
42 15 8718830898649309543

> <PUBCHEM_SHAPE_MULTIPOLES>
259.66
9.17
1.18
0.97
4.32
0
-0.17
0
-3.01
-1.04
0.05
1.05
0
0

> <PUBCHEM_SHAPE_SELFOVERLAP>
536.58

> <PUBCHEM_SHAPE_VOLUME>
149.4

> <PUBCHEM_COORDINATE_TYPE>
2
5
10

$$$$

