46173924
  -OEChem-07051213102D

 44 46  0     1  0  0  0  0  0999 V2000
    3.2697    1.0025    0.0000 O   0  0  0  0  0  0  0  0  0  0  0  0
    3.8200   -2.6912    0.0000 O   0  0  0  0  0  0  0  0  0  0  0  0
    3.6551    2.6912    0.0000 O   0  0  0  0  0  0  0  0  0  0  0  0
    5.3681   -0.6288    0.0000 C   0  0  3  0  0  0  0  0  0  0  0  0
    5.4750    0.5480    0.0000 C   0  0  0  0  0  0  0  0  0  0  0  0
    4.8681    1.5618    0.0000 C   0  0  1  0  0  0  0  0  0  0  0  0
    6.2691   -0.1949    0.0000 C   0  0  1  0  0  0  0  0  0  0  0  0
    4.4671   -0.1949    0.0000 C   0  0  0  0  0  0  0  0  0  0  0  0
    4.2446    0.7800    0.0000 C   0  0  1  0  0  0  0  0  0  0  0  0
    5.8681    1.5618    0.0000 C   0  0  0  0  0  0  0  0  0  0  0  0
    5.2321   -1.6135    0.0000 C   0  0  0  0  0  0  0  0  0  0  0  0
    6.4916    0.7800    0.0000 C   0  0  0  0  0  0  0  0  0  0  0  0
    6.3705    1.2695    0.0000 C   0  0  0  0  0  0  0  0  0  0  0  0
    6.5948    0.2865    0.0000 C   0  0  0  0  0  0  0  0  0  0  0  0
    3.7820   -0.9152    0.0000 C   0  0  0  0  0  0  0  0  0  0  0  0
    4.2538   -1.7902    0.0000 C   0  0  0  0  0  0  0  0  0  0  0  0
    7.0509   -0.8184    0.0000 C   0  0  0  0  0  0  0  0  0  0  0  0
    2.7908   -0.7827    0.0000 C   0  0  0  0  0  0  0  0  0  0  0  0
    2.9749    1.9581    0.0000 C   0  0  0  0  0  0  0  0  0  0  0  0
    2.0000    2.1806    0.0000 C   0  0  0  0  0  0  0  0  0  0  0  0
    4.6790    2.3905    0.0000 H   0  0  0  0  0  0  0  0  0  0  0  0
    6.8543    0.0099    0.0000 H   0  0  0  0  0  0  0  0  0  0  0  0
    3.8062    0.3416    0.0000 H   0  0  0  0  0  0  0  0  0  0  0  0
    6.4267    1.8308    0.0000 H   0  0  0  0  0  0  0  0  0  0  0  0
    5.7301    2.1663    0.0000 H   0  0  0  0  0  0  0  0  0  0  0  0
    5.2776   -2.2319    0.0000 H   0  0  0  0  0  0  0  0  0  0  0  0
    5.8518   -1.6333    0.0000 H   0  0  0  0  0  0  0  0  0  0  0  0
    7.0502    0.5110    0.0000 H   0  0  0  0  0  0  0  0  0  0  0  0
    6.8782    1.2648    0.0000 H   0  0  0  0  0  0  0  0  0  0  0  0
    6.4538   -0.3173    0.0000 H   0  0  0  0  0  0  0  0  0  0  0  0
    7.1986    0.1455    0.0000 H   0  0  0  0  0  0  0  0  0  0  0  0
    6.7358    0.8902    0.0000 H   0  0  0  0  0  0  0  0  0  0  0  0
    6.7594    0.7867    0.0000 H   0  0  0  0  0  0  0  0  0  0  0  0
    6.8533    1.6584    0.0000 H   0  0  0  0  0  0  0  0  0  0  0  0
    5.9815    1.7523    0.0000 H   0  0  0  0  0  0  0  0  0  0  0  0
    6.6643   -1.3031    0.0000 H   0  0  0  0  0  0  0  0  0  0  0  0
    7.5356   -1.2050    0.0000 H   0  0  0  0  0  0  0  0  0  0  0  0
    7.4375   -0.3337    0.0000 H   0  0  0  0  0  0  0  0  0  0  0  0
    2.8730   -0.1682    0.0000 H   0  0  0  0  0  0  0  0  0  0  0  0
    2.1763   -0.7005    0.0000 H   0  0  0  0  0  0  0  0  0  0  0  0
    2.7087   -1.3972    0.0000 H   0  0  0  0  0  0  0  0  0  0  0  0
    2.1380    2.7851    0.0000 H   0  0  0  0  0  0  0  0  0  0  0  0
    1.3955    2.3186    0.0000 H   0  0  0  0  0  0  0  0  0  0  0  0
    1.8620    1.5762    0.0000 H   0  0  0  0  0  0  0  0  0  0  0  0
  9  1  1  1  0  0  0
  1 19  1  0  0  0  0
  2 16  2  0  0  0  0
  3 19  2  0  0  0  0
  4  5  1  0  0  0  0
  4  7  1  0  0  0  0
  4  8  1  0  0  0  0
  4 11  1  0  0  0  0
  5  6  1  0  0  0  0
  5 13  1  0  0  0  0
  5 14  1  0  0  0  0
  6  9  1  0  0  0  0
  6 10  1  0  0  0  0
  6 21  1  6  0  0  0
  7 12  1  0  0  0  0
  7 17  1  1  0  0  0
  7 22  1  0  0  0  0
  8  9  1  0  0  0  0
  8 15  2  0  0  0  0
  9 23  1  0  0  0  0
 10 12  1  0  0  0  0
 10 24  1  0  0  0  0
 10 25  1  0  0  0  0
 11 16  1  0  0  0  0
 11 26  1  0  0  0  0
 11 27  1  0  0  0  0
 12 28  1  0  0  0  0
 12 29  1  0  0  0  0
 13 33  1  0  0  0  0
 13 34  1  0  0  0  0
 13 35  1  0  0  0  0
 14 30  1  0  0  0  0
 14 31  1  0  0  0  0
 14 32  1  0  0  0  0
 15 16  1  0  0  0  0
 15 18  1  0  0  0  0
 17 36  1  0  0  0  0
 17 37  1  0  0  0  0
 17 38  1  0  0  0  0
 18 39  1  0  0  0  0
 18 40  1  0  0  0  0
 18 41  1  0  0  0  0
 19 20  1  0  0  0  0
 20 42  1  0  0  0  0
 20 43  1  0  0  0  0
 20 44  1  0  0  0  0
M  END
> <PUBCHEM_COMPOUND_CID>
46173924

> <PUBCHEM_COMPOUND_CANONICALIZED>
1

> <PUBCHEM_CACTVS_COMPLEXITY>
528

> <PUBCHEM_CACTVS_HBOND_ACCEPTOR>
3

> <PUBCHEM_CACTVS_HBOND_DONOR>
0

> <PUBCHEM_CACTVS_ROTATABLE_BOND>
2

> <PUBCHEM_CACTVS_SUBSKEYS>
AAADceB4MAAAAAAAAAAAAAAAAAAAAYIAAAAwAAAABgAQAACAAAAAGgAAAAAADxSggAICCAAABACIAoDQCAAAAAAgAAAACAEAAEgABBIAIAACEAAEgAAIIQOIzPDPgAAAAAAAAACAAAQAACAAAYAADAAAAA==

> <PUBCHEM_IUPAC_INCHI>
InChI=1S/C17H24O3/c1-9-6-7-12-15(20-11(3)18)14-10(2)13(19)8-17(9,14)16(12,4)5/h9,12,15H,6-8H2,1-5H3/t9-,12-,15+,17?/m1/s1

> <PUBCHEM_IUPAC_INCHIKEY>
FHGRIGPOCXOGPU-LUBMOKJXSA-N

> <PUBCHEM_XLOGP3_AA>
2.7

> <PUBCHEM_EXACT_MASS>
276.172545

> <PUBCHEM_MOLECULAR_FORMULA>
C17H24O3

> <PUBCHEM_MOLECULAR_WEIGHT>
276.37066

> <PUBCHEM_OPENEYE_CAN_SMILES>
CC1CCC2C(C3=C(C(=O)CC13C2(C)C)C)OC(=O)C

> <PUBCHEM_OPENEYE_ISO_SMILES>
C[C@@H]1CC[C@@H]2[C@@H](C3=C(C(=O)CC13C2(C)C)C)OC(=O)C

> <PUBCHEM_CACTVS_TPSA>
43.4

> <PUBCHEM_MONOISOTOPIC_WEIGHT>
276.172545

> <PUBCHEM_TOTAL_CHARGE>
0

> <PUBCHEM_HEAVY_ATOM_COUNT>
20

> <PUBCHEM_ATOM_DEF_STEREO_COUNT>
3

> <PUBCHEM_ATOM_UDEF_STEREO_COUNT>
1

> <PUBCHEM_BOND_DEF_STEREO_COUNT>
0

> <PUBCHEM_BOND_UDEF_STEREO_COUNT>
0

> <PUBCHEM_ISOTOPIC_ATOM_COUNT>
0

> <PUBCHEM_COMPONENT_COUNT>
1

> <PUBCHEM_CACTVS_TAUTO_COUNT>
2

> <PUBCHEM_COORDINATE_TYPE>
1
5
255

> <PUBCHEM_BONDANNOTATIONS>
9  1  5
4  5  3
6  21  6
7  17  5

$$$$

