5311018
  -OEChem-07051213113D

 63 68  0     1  0  0  0  0  0999 V2000
   -0.8046   -1.0773   -0.9701 O   0  0  0  0  0  0  0  0  0  0  0  0
    1.8719    2.5817   -0.3288 O   0  0  0  0  0  0  0  0  0  0  0  0
   -0.9580   -3.9343   -0.3732 O   0  0  0  0  0  0  0  0  0  0  0  0
   -3.3866   -0.9809    0.6290 O   0  0  0  0  0  0  0  0  0  0  0  0
   -8.1640   -0.0601   -0.1037 O   0  0  0  0  0  0  0  0  0  0  0  0
   -7.3198    2.0808   -0.3086 O   0  0  0  0  0  0  0  0  0  0  0  0
    3.9760    0.9313   -0.9941 N   0  0  2  0  0  0  0  0  0  0  0  0
   -2.4123    1.1208    0.4489 N   0  0  0  0  0  0  0  0  0  0  0  0
    1.1645    0.2870   -0.6469 C   0  0  1  0  0  0  0  0  0  0  0  0
    1.8926    1.2754    0.2735 C   0  0  1  0  0  0  0  0  0  0  0  0
    3.3783    0.7886    0.3595 C   0  0  1  0  0  0  0  0  0  0  0  0
   -0.3784    0.3037   -0.6632 C   0  0  2  0  0  0  0  0  0  0  0  0
    1.7820    0.3538   -2.0654 C   0  0  0  0  0  0  0  0  0  0  0  0
    1.3211   -1.1021   -0.1322 C   0  0  0  0  0  0  0  0  0  0  0  0
    1.1911    1.4279    1.6322 C   0  0  0  0  0  0  0  0  0  0  0  0
   -1.0437    0.7079    0.6780 C   0  0  1  0  0  0  0  0  0  0  0  0
    3.4992   -0.6495    0.9757 C   0  0  0  0  0  0  0  0  0  0  0  0
    3.3096    0.1530   -2.0436 C   0  0  0  0  0  0  0  0  0  0  0  0
   -0.2826    1.7978    1.4356 C   0  0  0  0  0  0  0  0  0  0  0  0
    2.4058   -1.5998    0.5642 C   0  0  0  0  0  0  0  0  0  0  0  0
    0.1931   -1.8460   -0.4152 C   0  0  0  0  0  0  0  0  0  0  0  0
    5.4215    0.7370   -1.0195 C   0  0  0  0  0  0  0  0  0  0  0  0
    6.0985    1.5569    0.0305 C   0  0  0  0  0  0  0  0  0  0  0  0
    6.7341    0.8614    1.1917 C   0  0  0  0  0  0  0  0  0  0  0  0
    7.5887    1.5040    0.1387 C   0  0  0  0  0  0  0  0  0  0  0  0
    2.3593   -2.9488    0.9151 C   0  0  0  0  0  0  0  0  0  0  0  0
    0.1339   -3.1823   -0.0934 C   0  0  0  0  0  0  0  0  0  0  0  0
    1.2380   -3.7357    0.5716 C   0  0  0  0  0  0  0  0  0  0  0  0
   -3.4704    0.2291    0.4453 C   0  0  0  0  0  0  0  0  0  0  0  0
   -4.7680    0.9120    0.1824 C   0  0  0  0  0  0  0  0  0  0  0  0
   -5.8986    0.1967    0.1444 C   0  0  0  0  0  0  0  0  0  0  0  0
   -7.1833    0.8829   -0.1173 C   0  0  0  0  0  0  0  0  0  0  0  0
   -9.4888    0.4272   -0.3413 C   0  0  0  0  0  0  0  0  0  0  0  0
    3.8786    1.4880    1.0389 H   0  0  0  0  0  0  0  0  0  0  0  0
   -0.7453    0.9475   -1.4728 H   0  0  0  0  0  0  0  0  0  0  0  0
    1.3409   -0.3991   -2.7320 H   0  0  0  0  0  0  0  0  0  0  0  0
    1.5553    1.3270   -2.5197 H   0  0  0  0  0  0  0  0  0  0  0  0
    1.2581    0.5169    2.2363 H   0  0  0  0  0  0  0  0  0  0  0  0
    1.6721    2.2293    2.2067 H   0  0  0  0  0  0  0  0  0  0  0  0
   -1.0930   -0.1705    1.3356 H   0  0  0  0  0  0  0  0  0  0  0  0
    3.4502   -0.5492    2.0680 H   0  0  0  0  0  0  0  0  0  0  0  0
    4.4704   -1.1005    0.7521 H   0  0  0  0  0  0  0  0  0  0  0  0
    3.5383   -0.9150   -1.9399 H   0  0  0  0  0  0  0  0  0  0  0  0
    3.6980    0.4536   -3.0248 H   0  0  0  0  0  0  0  0  0  0  0  0
   -0.7449    1.9409    2.4210 H   0  0  0  0  0  0  0  0  0  0  0  0
   -0.3787    2.7632    0.9246 H   0  0  0  0  0  0  0  0  0  0  0  0
    5.8000    1.0733   -1.9932 H   0  0  0  0  0  0  0  0  0  0  0  0
    5.6902   -0.3232   -0.9336 H   0  0  0  0  0  0  0  0  0  0  0  0
    5.6725    2.5460    0.1571 H   0  0  0  0  0  0  0  0  0  0  0  0
    0.9865    2.7436   -0.6944 H   0  0  0  0  0  0  0  0  0  0  0  0
    6.6745    1.3445    2.1594 H   0  0  0  0  0  0  0  0  0  0  0  0
    6.7288   -0.2204    1.2347 H   0  0  0  0  0  0  0  0  0  0  0  0
    8.1364    0.8530   -0.5316 H   0  0  0  0  0  0  0  0  0  0  0  0
    8.1110    2.4154    0.4028 H   0  0  0  0  0  0  0  0  0  0  0  0
   -2.5794    2.1001    0.2353 H   0  0  0  0  0  0  0  0  0  0  0  0
    3.1783   -3.4013    1.4676 H   0  0  0  0  0  0  0  0  0  0  0  0
    1.2317   -4.7850    0.8590 H   0  0  0  0  0  0  0  0  0  0  0  0
   -0.8031   -4.8417   -0.0587 H   0  0  0  0  0  0  0  0  0  0  0  0
   -4.7626    1.9857    0.0273 H   0  0  0  0  0  0  0  0  0  0  0  0
   -5.9139   -0.8769    0.2987 H   0  0  0  0  0  0  0  0  0  0  0  0
   -9.5512    0.8864   -1.3326 H   0  0  0  0  0  0  0  0  0  0  0  0
   -9.7737    1.1434    0.4353 H   0  0  0  0  0  0  0  0  0  0  0  0
  -10.1755   -0.4227   -0.3042 H   0  0  0  0  0  0  0  0  0  0  0  0
  1 12  1  0  0  0  0
  1 21  1  0  0  0  0
  2 10  1  0  0  0  0
  2 50  1  0  0  0  0
  3 27  1  0  0  0  0
  3 58  1  0  0  0  0
  4 29  2  0  0  0  0
  5 32  1  0  0  0  0
  5 33  1  0  0  0  0
  6 32  2  0  0  0  0
  7 11  1  0  0  0  0
  7 18  1  0  0  0  0
  7 22  1  0  0  0  0
  8 16  1  0  0  0  0
  8 29  1  0  0  0  0
  8 55  1  0  0  0  0
  9 10  1  0  0  0  0
  9 12  1  0  0  0  0
  9 13  1  0  0  0  0
  9 14  1  0  0  0  0
 10 11  1  0  0  0  0
 10 15  1  0  0  0  0
 11 17  1  0  0  0  0
 11 34  1  0  0  0  0
 12 16  1  0  0  0  0
 12 35  1  0  0  0  0
 13 18  1  0  0  0  0
 13 36  1  0  0  0  0
 13 37  1  0  0  0  0
 14 20  2  0  0  0  0
 14 21  1  0  0  0  0
 15 19  1  0  0  0  0
 15 38  1  0  0  0  0
 15 39  1  0  0  0  0
 16 19  1  0  0  0  0
 16 40  1  0  0  0  0
 17 20  1  0  0  0  0
 17 41  1  0  0  0  0
 17 42  1  0  0  0  0
 18 43  1  0  0  0  0
 18 44  1  0  0  0  0
 19 45  1  0  0  0  0
 19 46  1  0  0  0  0
 20 26  1  0  0  0  0
 21 27  2  0  0  0  0
 22 23  1  0  0  0  0
 22 47  1  0  0  0  0
 22 48  1  0  0  0  0
 23 24  1  0  0  0  0
 23 25  1  0  0  0  0
 23 49  1  0  0  0  0
 24 25  1  0  0  0  0
 24 51  1  0  0  0  0
 24 52  1  0  0  0  0
 25 53  1  0  0  0  0
 25 54  1  0  0  0  0
 26 28  2  0  0  0  0
 26 56  1  0  0  0  0
 27 28  1  0  0  0  0
 28 57  1  0  0  0  0
 29 30  1  0  0  0  0
 30 31  2  0  0  0  0
 30 59  1  0  0  0  0
 31 32  1  0  0  0  0
 31 60  1  0  0  0  0
 33 61  1  0  0  0  0
 33 62  1  0  0  0  0
 33 63  1  0  0  0  0
M  END
> <PUBCHEM_COMPOUND_CID>
5311018

> <PUBCHEM_CONFORMER_RMSD>
1

> <PUBCHEM_CONFORMER_DIVERSEORDER>
2
6
4
10
9
3
1
8
11
12
5
7

> <PUBCHEM_MMFF94_PARTIAL_CHARGES>
42
1 -0.36
10 0.28
11 0.27
12 0.28
14 -0.14
16 0.3
17 0.14
18 0.27
2 -0.68
20 -0.14
21 0.08
22 0.37
23 -0.19
24 -0.2
25 -0.2
26 -0.15
27 0.08
28 -0.15
29 0.62
3 -0.53
30 -0.14
31 -0.14
32 0.71
33 0.28
4 -0.57
49 0.1
5 -0.43
50 0.4
51 0.1
52 0.1
53 0.1
54 0.1
55 0.37
56 0.15
57 0.15
58 0.45
59 0.15
6 -0.57
60 0.15
7 -0.81
8 -0.73
9 0.14

> <PUBCHEM_EFFECTIVE_ROTOR_COUNT>
9.2

> <PUBCHEM_PHARMACOPHORE_FEATURES>
13
1 1 acceptor
1 2 acceptor
1 2 donor
1 3 donor
1 4 acceptor
1 6 acceptor
1 7 cation
1 8 donor
5 1 9 12 14 21 rings
6 14 20 21 26 27 28 rings
6 7 9 10 11 13 18 rings
6 9 10 11 14 17 20 rings
6 9 10 12 15 16 19 rings

> <PUBCHEM_HEAVY_ATOM_COUNT>
33

> <PUBCHEM_ATOM_DEF_STEREO_COUNT>
5

> <PUBCHEM_ATOM_UDEF_STEREO_COUNT>
0

> <PUBCHEM_BOND_DEF_STEREO_COUNT>
1

> <PUBCHEM_BOND_UDEF_STEREO_COUNT>
0

> <PUBCHEM_ISOTOPIC_ATOM_COUNT>
0

> <PUBCHEM_COMPONENT_COUNT>
1

> <PUBCHEM_CACTVS_TAUTO_COUNT>
6

> <PUBCHEM_CONFORMER_ID>
00510A2A00000002

> <PUBCHEM_MMFF94_ENERGY>
110.0044

> <PUBCHEM_FEATURE_SELFOVERLAP>
68.03

> <PUBCHEM_SHAPE_FINGERPRINT>
10162869 55 18271533009996395039
10165383 225 18413109442302484116
10411042 1 17836085950415550258
1100329 8 18265331708180691456
11719270 70 18413390955686019762
12838862 33 18336279975978603313
13383668 254 17386552576114764443
13533116 47 18339080501605082387
14790565 3 18411132537718374560
15131766 46 16770681929763897532
15183329 4 18041276678127407297
15840311 113 18131068213062004428
15849732 13 18131068213014278036
16728300 4 17415587517034726912
18365409 1 18338233743875219479
20554085 129 18187655695460403722
20771845 171 17917422160102741286
21403212 168 18411141338190097458
22224240 67 18410576167047799425
22393880 68 18187085014850737879
24893992 56 18336266748138337787
25223398 141 17985254184831422499
3178227 256 18338784637918315809
335352 9 18335978701920011452
3411729 13 18343303707854576634
404807 78 18057028126755969923
4073 2 18202558493844691403
4340502 62 18411417311239875036
45377200 153 16371298719451895063
513532 50 17458627851715760975
5486654 2 18335417954962929624
7226269 152 18187077309589796608

> <PUBCHEM_SHAPE_MULTIPOLES>
633.95
18.59
3.15
1.32
39.2
4.05
-0.31
-12.62
-0.68
-1.46
0.52
-1.39
-0.24
-0.29

> <PUBCHEM_SHAPE_SELFOVERLAP>
1396.076

> <PUBCHEM_SHAPE_VOLUME>
337.6

> <PUBCHEM_COORDINATE_TYPE>
2
5
10

$$$$

