3456
  -OEChem-06251223252D

 65 68  0     0  0  0  0  0  0999 V2000
    5.4641   -2.7500    0.0000 O   0  0  0  0  0  0  0  0  0  0  0  0
    6.3301    1.7500    0.0000 N   0  0  0  0  0  0  0  0  0  0  0  0
    6.3301   -0.2500    0.0000 N   0  0  0  0  0  0  0  0  0  0  0  0
    7.1962    1.2500    0.0000 C   0  0  0  0  0  0  0  0  0  0  0  0
    5.4641    1.2500    0.0000 C   0  0  0  0  0  0  0  0  0  0  0  0
    7.1962    0.2500    0.0000 C   0  0  0  0  0  0  0  0  0  0  0  0
    5.4641    0.2500    0.0000 C   0  0  0  0  0  0  0  0  0  0  0  0
    6.3301    2.7500    0.0000 C   0  0  0  0  0  0  0  0  0  0  0  0
    6.3301   -1.2500    0.0000 C   0  0  0  0  0  0  0  0  0  0  0  0
    7.1962    3.2500    0.0000 C   0  0  0  0  0  0  0  0  0  0  0  0
    5.4641   -1.7500    0.0000 C   0  0  0  0  0  0  0  0  0  0  0  0
    7.1962    4.2500    0.0000 C   0  0  0  0  0  0  0  0  0  0  0  0
    8.0622    4.7500    0.0000 C   0  0  0  0  0  0  0  0  0  0  0  0
    4.5981   -3.2500    0.0000 C   0  0  0  0  0  0  0  0  0  0  0  0
    4.5981   -4.2500    0.0000 C   0  0  0  0  0  0  0  0  0  0  0  0
    3.7320   -2.7500    0.0000 C   0  0  0  0  0  0  0  0  0  0  0  0
    8.9282    4.2500    0.0000 C   0  0  0  0  0  0  0  0  0  0  0  0
    8.0622    5.7500    0.0000 C   0  0  0  0  0  0  0  0  0  0  0  0
    3.7320   -1.7500    0.0000 C   0  0  0  0  0  0  0  0  0  0  0  0
    3.7320   -4.7500    0.0000 C   0  0  0  0  0  0  0  0  0  0  0  0
    2.8660   -3.2500    0.0000 C   0  0  0  0  0  0  0  0  0  0  0  0
    5.4641   -4.7500    0.0000 C   0  0  0  0  0  0  0  0  0  0  0  0
    9.7942    4.7500    0.0000 C   0  0  0  0  0  0  0  0  0  0  0  0
    8.9282    6.2500    0.0000 C   0  0  0  0  0  0  0  0  0  0  0  0
    9.7942    5.7500    0.0000 C   0  0  0  0  0  0  0  0  0  0  0  0
    2.8660   -1.2500    0.0000 C   0  0  0  0  0  0  0  0  0  0  0  0
    3.7320   -5.7500    0.0000 C   0  0  0  0  0  0  0  0  0  0  0  0
    2.0000   -2.7500    0.0000 C   0  0  0  0  0  0  0  0  0  0  0  0
    5.4641   -5.7500    0.0000 C   0  0  0  0  0  0  0  0  0  0  0  0
    4.5981   -6.2500    0.0000 C   0  0  0  0  0  0  0  0  0  0  0  0
    2.0000   -1.7500    0.0000 C   0  0  0  0  0  0  0  0  0  0  0  0
    5.2520    1.8326    0.0000 H   0  0  0  0  0  0  0  0  0  0  0  0
    4.8535    1.1423    0.0000 H   0  0  0  0  0  0  0  0  0  0  0  0
    7.8067    1.1423    0.0000 H   0  0  0  0  0  0  0  0  0  0  0  0
    7.4082    1.8326    0.0000 H   0  0  0  0  0  0  0  0  0  0  0  0
    4.8535    0.3577    0.0000 H   0  0  0  0  0  0  0  0  0  0  0  0
    5.2520   -0.3326    0.0000 H   0  0  0  0  0  0  0  0  0  0  0  0
    7.4082   -0.3326    0.0000 H   0  0  0  0  0  0  0  0  0  0  0  0
    7.8067    0.3577    0.0000 H   0  0  0  0  0  0  0  0  0  0  0  0
    6.1181    3.3326    0.0000 H   0  0  0  0  0  0  0  0  0  0  0  0
    5.7196    2.6423    0.0000 H   0  0  0  0  0  0  0  0  0  0  0  0
    6.5422   -1.8326    0.0000 H   0  0  0  0  0  0  0  0  0  0  0  0
    6.9407   -1.1423    0.0000 H   0  0  0  0  0  0  0  0  0  0  0  0
    7.4082    2.6674    0.0000 H   0  0  0  0  0  0  0  0  0  0  0  0
    7.8067    3.3577    0.0000 H   0  0  0  0  0  0  0  0  0  0  0  0
    5.2520   -1.1674    0.0000 H   0  0  0  0  0  0  0  0  0  0  0  0
    4.8535   -1.8577    0.0000 H   0  0  0  0  0  0  0  0  0  0  0  0
    6.9841    4.8326    0.0000 H   0  0  0  0  0  0  0  0  0  0  0  0
    6.5856    4.1423    0.0000 H   0  0  0  0  0  0  0  0  0  0  0  0
    4.5981   -2.6300    0.0000 H   0  0  0  0  0  0  0  0  0  0  0  0
    8.9282    3.6300    0.0000 H   0  0  0  0  0  0  0  0  0  0  0  0
    7.5252    6.0600    0.0000 H   0  0  0  0  0  0  0  0  0  0  0  0
    3.1951   -4.4400    0.0000 H   0  0  0  0  0  0  0  0  0  0  0  0
    4.2690   -1.4400    0.0000 H   0  0  0  0  0  0  0  0  0  0  0  0
    6.0010   -4.4400    0.0000 H   0  0  0  0  0  0  0  0  0  0  0  0
    2.8660   -3.8700    0.0000 H   0  0  0  0  0  0  0  0  0  0  0  0
   10.3312    4.4400    0.0000 H   0  0  0  0  0  0  0  0  0  0  0  0
    8.9282    6.8700    0.0000 H   0  0  0  0  0  0  0  0  0  0  0  0
   10.3312    6.0600    0.0000 H   0  0  0  0  0  0  0  0  0  0  0  0
    2.8660   -0.6300    0.0000 H   0  0  0  0  0  0  0  0  0  0  0  0
    3.1951   -6.0600    0.0000 H   0  0  0  0  0  0  0  0  0  0  0  0
    1.4631   -3.0600    0.0000 H   0  0  0  0  0  0  0  0  0  0  0  0
    6.0010   -6.0600    0.0000 H   0  0  0  0  0  0  0  0  0  0  0  0
    1.4631   -1.4400    0.0000 H   0  0  0  0  0  0  0  0  0  0  0  0
    4.5981   -6.8700    0.0000 H   0  0  0  0  0  0  0  0  0  0  0  0
  1 11  1  0  0  0  0
  1 14  1  0  0  0  0
  2  4  1  0  0  0  0
  2  5  1  0  0  0  0
  2  8  1  0  0  0  0
  3  6  1  0  0  0  0
  3  7  1  0  0  0  0
  3  9  1  0  0  0  0
  4  6  1  0  0  0  0
  4 34  1  0  0  0  0
  4 35  1  0  0  0  0
  5  7  1  0  0  0  0
  5 32  1  0  0  0  0
  5 33  1  0  0  0  0
  6 38  1  0  0  0  0
  6 39  1  0  0  0  0
  7 36  1  0  0  0  0
  7 37  1  0  0  0  0
  8 10  1  0  0  0  0
  8 40  1  0  0  0  0
  8 41  1  0  0  0  0
  9 11  1  0  0  0  0
  9 42  1  0  0  0  0
  9 43  1  0  0  0  0
 10 12  1  0  0  0  0
 10 44  1  0  0  0  0
 10 45  1  0  0  0  0
 11 46  1  0  0  0  0
 11 47  1  0  0  0  0
 12 13  1  0  0  0  0
 12 48  1  0  0  0  0
 12 49  1  0  0  0  0
 13 17  2  0  0  0  0
 13 18  1  0  0  0  0
 14 15  1  0  0  0  0
 14 16  1  0  0  0  0
 14 50  1  0  0  0  0
 15 20  2  0  0  0  0
 15 22  1  0  0  0  0
 16 19  2  0  0  0  0
 16 21  1  0  0  0  0
 17 23  1  0  0  0  0
 17 51  1  0  0  0  0
 18 24  2  0  0  0  0
 18 52  1  0  0  0  0
 19 26  1  0  0  0  0
 19 54  1  0  0  0  0
 20 27  1  0  0  0  0
 20 53  1  0  0  0  0
 21 28  2  0  0  0  0
 21 56  1  0  0  0  0
 22 29  2  0  0  0  0
 22 55  1  0  0  0  0
 23 25  2  0  0  0  0
 23 57  1  0  0  0  0
 24 25  1  0  0  0  0
 24 58  1  0  0  0  0
 25 59  1  0  0  0  0
 26 31  2  0  0  0  0
 26 60  1  0  0  0  0
 27 30  2  0  0  0  0
 27 61  1  0  0  0  0
 28 31  1  0  0  0  0
 28 62  1  0  0  0  0
 29 30  1  0  0  0  0
 29 63  1  0  0  0  0
 30 65  1  0  0  0  0
 31 64  1  0  0  0  0
M  END
> <PUBCHEM_COMPOUND_CID>
3456

> <PUBCHEM_COMPOUND_CANONICALIZED>
1

> <PUBCHEM_CACTVS_COMPLEXITY>
440

> <PUBCHEM_CACTVS_HBOND_ACCEPTOR>
3

> <PUBCHEM_CACTVS_HBOND_DONOR>
0

> <PUBCHEM_CACTVS_ROTATABLE_BOND>
10

> <PUBCHEM_CACTVS_SUBSKEYS>
AAADcfB7IAAAAAAAAAAAAAAAAAAAAAAAAAA8YMEAAAAAAAABUAAAHgAAAAAADBThmAYwAIMABACAAiBCAAACAAAgAAAIiAAICIgKZiKAsRiXMAAkwAGYqAeQwOAOAAAAAAAAAAAAAAAAAAAAAAAAAAAAAA==

> <PUBCHEM_IUPAC_OPENEYE_NAME>
1-(2-benzhydryloxyethyl)-4-(3-phenylpropyl)piperazine

> <PUBCHEM_IUPAC_CAS_NAME>
1-[2-(diphenylmethyl)oxyethyl]-4-(3-phenylpropyl)piperazine

> <PUBCHEM_IUPAC_NAME>
1-(2-benzhydryloxyethyl)-4-(3-phenylpropyl)piperazine

> <PUBCHEM_IUPAC_SYSTEMATIC_NAME>
1-[2-(diphenylmethyl)oxyethyl]-4-(3-phenylpropyl)piperazine

> <PUBCHEM_IUPAC_TRADITIONAL_NAME>
1-(2-benzhydryloxyethyl)-4-(3-phenylpropyl)piperazine

> <PUBCHEM_IUPAC_INCHI>
InChI=1S/C28H34N2O/c1-4-11-25(12-5-1)13-10-18-29-19-21-30(22-20-29)23-24-31-28(26-14-6-2-7-15-26)27-16-8-3-9-17-27/h1-9,11-12,14-17,28H,10,13,18-24H2

> <PUBCHEM_IUPAC_INCHIKEY>
RAQPOZGWANIDQT-UHFFFAOYSA-N

> <PUBCHEM_XLOGP3_AA>
5.4

> <PUBCHEM_EXACT_MASS>
414.267114

> <PUBCHEM_MOLECULAR_FORMULA>
C28H34N2O

> <PUBCHEM_MOLECULAR_WEIGHT>
414.58236

> <PUBCHEM_OPENEYE_CAN_SMILES>
C1CN(CCN1CCCC2=CC=CC=C2)CCOC(C3=CC=CC=C3)C4=CC=CC=C4

> <PUBCHEM_OPENEYE_ISO_SMILES>
C1CN(CCN1CCCC2=CC=CC=C2)CCOC(C3=CC=CC=C3)C4=CC=CC=C4

> <PUBCHEM_CACTVS_TPSA>
15.7

> <PUBCHEM_MONOISOTOPIC_WEIGHT>
414.267114

> <PUBCHEM_TOTAL_CHARGE>
0

> <PUBCHEM_HEAVY_ATOM_COUNT>
31

> <PUBCHEM_ATOM_DEF_STEREO_COUNT>
0

> <PUBCHEM_ATOM_UDEF_STEREO_COUNT>
0

> <PUBCHEM_BOND_DEF_STEREO_COUNT>
0

> <PUBCHEM_BOND_UDEF_STEREO_COUNT>
0

> <PUBCHEM_ISOTOPIC_ATOM_COUNT>
0

> <PUBCHEM_COMPONENT_COUNT>
1

> <PUBCHEM_CACTVS_TAUTO_COUNT>
1

> <PUBCHEM_COORDINATE_TYPE>
1
5
255

> <PUBCHEM_BONDANNOTATIONS>
13  17  8
13  18  8
15  20  8
15  22  8
16  19  8
16  21  8
17  23  8
18  24  8
19  26  8
20  27  8
21  28  8
22  29  8
23  25  8
24  25  8
26  31  8
27  30  8
28  31  8
29  30  8

$$$$

