5381287
  -OEChem-07051213082D

 80 81  0     1  0  0  0  0  0999 V2000
    6.3301    2.3660    0.0000 O   0  0  0  0  0  0  0  0  0  0  0  0
    8.9282    3.8660    0.0000 O   0  0  0  0  0  0  0  0  0  0  0  0
    8.0622    0.3660    0.0000 O   0  0  0  0  0  0  0  0  0  0  0  0
    4.5981    2.3660    0.0000 O   0  0  0  0  0  0  0  0  0  0  0  0
    4.9641   -3.0000    0.0000 O   0  0  0  0  0  0  0  0  0  0  0  0
    4.5981   -1.6340    0.0000 O   0  0  0  0  0  0  0  0  0  0  0  0
    2.8660    3.3660    0.0000 O   0  0  0  0  0  0  0  0  0  0  0  0
    4.5981   -0.6340    0.0000 O   0  0  0  0  0  0  0  0  0  0  0  0
    7.1962   -1.1340    0.0000 O   0  0  0  0  0  0  0  0  0  0  0  0
    6.3301    0.3660    0.0000 N   0  0  0  0  0  0  0  0  0  0  0  0
    7.1962    3.8660    0.0000 C   0  0  0  0  0  0  0  0  0  0  0  0
    6.3301    3.3660    0.0000 C   0  0  1  0  0  0  0  0  0  0  0  0
    8.0622    3.3660    0.0000 C   0  0  1  0  0  0  0  0  0  0  0  0
    8.0622    2.3660    0.0000 C   0  0  0  0  0  0  0  0  0  0  0  0
    7.1962    1.8660    0.0000 C   0  0  1  0  0  0  0  0  0  0  0  0
    5.4641    3.8660    0.0000 C   0  0  0  0  0  0  0  0  0  0  0  0
    7.6962    4.7320    0.0000 C   0  0  0  0  0  0  0  0  0  0  0  0
    6.6962    4.7320    0.0000 C   0  0  0  0  0  0  0  0  0  0  0  0
    7.1962    0.8660    0.0000 C   0  0  2  0  0  0  0  0  0  0  0  0
    4.5981    3.3660    0.0000 C   0  0  1  0  0  0  0  0  0  0  0  0
    5.4641   -2.1340    0.0000 C   0  0  1  0  0  0  0  0  0  0  0  0
    3.7320    3.8660    0.0000 C   0  0  0  0  0  0  0  0  0  0  0  0
    5.4641   -1.1340    0.0000 C   0  0  1  0  0  0  0  0  0  0  0  0
    6.4641   -2.1340    0.0000 C   0  0  0  0  0  0  0  0  0  0  0  0
    6.4641   -3.8660    0.0000 C   0  0  1  0  0  0  0  0  0  0  0  0
    5.4641   -3.8660    0.0000 C   0  0  1  0  0  0  0  0  0  0  0  0
    6.3301   -0.6340    0.0000 C   0  0  0  0  0  0  0  0  0  0  0  0
    6.9641   -3.0000    0.0000 C   0  0  0  0  0  0  0  0  0  0  0  0
    6.9641   -4.7320    0.0000 C   0  0  0  0  0  0  0  0  0  0  0  0
    4.9641   -4.7320    0.0000 C   0  0  0  0  0  0  0  0  0  0  0  0
    8.0622   -0.6340    0.0000 C   0  0  0  0  0  0  0  0  0  0  0  0
    3.7320    1.8660    0.0000 C   0  0  0  0  0  0  0  0  0  0  0  0
    7.9641   -3.0000    0.0000 C   0  0  0  0  0  0  0  0  0  0  0  0
    3.7320   -2.1340    0.0000 C   0  0  0  0  0  0  0  0  0  0  0  0
    2.0000    3.8660    0.0000 C   0  0  0  0  0  0  0  0  0  0  0  0
    5.7932    3.0560    0.0000 H   0  0  0  0  0  0  0  0  0  0  0  0
    8.0622    3.9860    0.0000 H   0  0  0  0  0  0  0  0  0  0  0  0
    8.2742    1.7834    0.0000 H   0  0  0  0  0  0  0  0  0  0  0  0
    8.6728    2.4737    0.0000 H   0  0  0  0  0  0  0  0  0  0  0  0
    6.4600    1.4410    0.0000 H   0  0  0  0  0  0  0  0  0  0  0  0
    5.8626    4.3410    0.0000 H   0  0  0  0  0  0  0  0  0  0  0  0
    5.0656    4.3410    0.0000 H   0  0  0  0  0  0  0  0  0  0  0  0
    7.2331    5.0420    0.0000 H   0  0  0  0  0  0  0  0  0  0  0  0
    8.2331    4.4220    0.0000 H   0  0  0  0  0  0  0  0  0  0  0  0
    8.0062    5.2690    0.0000 H   0  0  0  0  0  0  0  0  0  0  0  0
    7.1592    5.0420    0.0000 H   0  0  0  0  0  0  0  0  0  0  0  0
    6.3862    5.2690    0.0000 H   0  0  0  0  0  0  0  0  0  0  0  0
    6.1592    4.4220    0.0000 H   0  0  0  0  0  0  0  0  0  0  0  0
    6.6592    1.1760    0.0000 H   0  0  0  0  0  0  0  0  0  0  0  0
    5.1350    3.0560    0.0000 H   0  0  0  0  0  0  0  0  0  0  0  0
    9.4651    3.5560    0.0000 H   0  0  0  0  0  0  0  0  0  0  0  0
    5.7932    0.6760    0.0000 H   0  0  0  0  0  0  0  0  0  0  0  0
    4.1306    4.3410    0.0000 H   0  0  0  0  0  0  0  0  0  0  0  0
    3.3335    4.3410    0.0000 H   0  0  0  0  0  0  0  0  0  0  0  0
    5.4641   -0.5140    0.0000 H   0  0  0  0  0  0  0  0  0  0  0  0
    7.0467   -1.9219    0.0000 H   0  0  0  0  0  0  0  0  0  0  0  0
    6.3564   -1.5234    0.0000 H   0  0  0  0  0  0  0  0  0  0  0  0
    7.0841   -3.8660    0.0000 H   0  0  0  0  0  0  0  0  0  0  0  0
    4.8441   -3.8660    0.0000 H   0  0  0  0  0  0  0  0  0  0  0  0
    6.4272   -5.0420    0.0000 H   0  0  0  0  0  0  0  0  0  0  0  0
    7.2741   -5.2690    0.0000 H   0  0  0  0  0  0  0  0  0  0  0  0
    7.5010   -4.4220    0.0000 H   0  0  0  0  0  0  0  0  0  0  0  0
    4.4272   -4.4220    0.0000 H   0  0  0  0  0  0  0  0  0  0  0  0
    4.6541   -5.2690    0.0000 H   0  0  0  0  0  0  0  0  0  0  0  0
    5.5010   -5.0420    0.0000 H   0  0  0  0  0  0  0  0  0  0  0  0
    7.4422   -0.6340    0.0000 H   0  0  0  0  0  0  0  0  0  0  0  0
    8.0622   -1.2540    0.0000 H   0  0  0  0  0  0  0  0  0  0  0  0
    8.6822   -0.6340    0.0000 H   0  0  0  0  0  0  0  0  0  0  0  0
    3.4220    2.4030    0.0000 H   0  0  0  0  0  0  0  0  0  0  0  0
    3.1951    1.5560    0.0000 H   0  0  0  0  0  0  0  0  0  0  0  0
    4.0420    1.3291    0.0000 H   0  0  0  0  0  0  0  0  0  0  0  0
    4.5981   -0.0140    0.0000 H   0  0  0  0  0  0  0  0  0  0  0  0
    8.2741   -3.5369    0.0000 H   0  0  0  0  0  0  0  0  0  0  0  0
    8.2741   -2.4631    0.0000 H   0  0  0  0  0  0  0  0  0  0  0  0
    3.4220   -1.5970    0.0000 H   0  0  0  0  0  0  0  0  0  0  0  0
    3.1951   -2.4440    0.0000 H   0  0  0  0  0  0  0  0  0  0  0  0
    4.0420   -2.6709    0.0000 H   0  0  0  0  0  0  0  0  0  0  0  0
    2.3100    4.4030    0.0000 H   0  0  0  0  0  0  0  0  0  0  0  0
    1.4631    4.1760    0.0000 H   0  0  0  0  0  0  0  0  0  0  0  0
    1.6900    3.3291    0.0000 H   0  0  0  0  0  0  0  0  0  0  0  0
  1 12  1  0  0  0  0
  1 15  1  0  0  0  0
 13  2  1  6  0  0  0
  2 51  1  0  0  0  0
 19  3  1  1  0  0  0
  3 31  1  0  0  0  0
 20  4  1  6  0  0  0
  4 32  1  0  0  0  0
  5 21  1  0  0  0  0
  5 26  1  0  0  0  0
 21  6  1  6  0  0  0
  6 34  1  0  0  0  0
  7 22  1  0  0  0  0
  7 35  1  0  0  0  0
 23  8  1  6  0  0  0
  8 72  1  0  0  0  0
  9 27  2  0  0  0  0
 10 19  1  0  0  0  0
 10 27  1  0  0  0  0
 10 52  1  0  0  0  0
 11 12  1  0  0  0  0
 11 13  1  0  0  0  0
 11 17  1  0  0  0  0
 11 18  1  0  0  0  0
 12 16  1  6  0  0  0
 12 36  1  0  0  0  0
 13 14  1  0  0  0  0
 13 37  1  0  0  0  0
 14 15  1  0  0  0  0
 14 38  1  0  0  0  0
 14 39  1  0  0  0  0
 15 19  1  0  0  0  0
 15 40  1  6  0  0  0
 16 20  1  0  0  0  0
 16 41  1  0  0  0  0
 16 42  1  0  0  0  0
 17 44  1  0  0  0  0
 17 45  1  0  0  0  0
 17 46  1  0  0  0  0
 18 43  1  0  0  0  0
 18 47  1  0  0  0  0
 18 48  1  0  0  0  0
 19 49  1  0  0  0  0
 20 22  1  0  0  0  0
 20 50  1  0  0  0  0
 21 23  1  0  0  0  0
 21 24  1  0  0  0  0
 22 53  1  0  0  0  0
 22 54  1  0  0  0  0
 23 27  1  0  0  0  0
 23 55  1  0  0  0  0
 24 28  1  0  0  0  0
 24 56  1  0  0  0  0
 24 57  1  0  0  0  0
 25 26  1  0  0  0  0
 25 28  1  0  0  0  0
 25 29  1  1  0  0  0
 25 58  1  0  0  0  0
 26 30  1  1  0  0  0
 26 59  1  0  0  0  0
 28 33  2  0  0  0  0
 29 60  1  0  0  0  0
 29 61  1  0  0  0  0
 29 62  1  0  0  0  0
 30 63  1  0  0  0  0
 30 64  1  0  0  0  0
 30 65  1  0  0  0  0
 31 66  1  0  0  0  0
 31 67  1  0  0  0  0
 31 68  1  0  0  0  0
 32 69  1  0  0  0  0
 32 70  1  0  0  0  0
 32 71  1  0  0  0  0
 33 73  1  0  0  0  0
 33 74  1  0  0  0  0
 34 75  1  0  0  0  0
 34 76  1  0  0  0  0
 34 77  1  0  0  0  0
 35 78  1  0  0  0  0
 35 79  1  0  0  0  0
 35 80  1  0  0  0  0
M  END
> <PUBCHEM_COMPOUND_CID>
5381287

> <PUBCHEM_COMPOUND_CANONICALIZED>
1

> <PUBCHEM_CACTVS_COMPLEXITY>
717

> <PUBCHEM_CACTVS_HBOND_ACCEPTOR>
9

> <PUBCHEM_CACTVS_HBOND_DONOR>
3

> <PUBCHEM_CACTVS_ROTATABLE_BOND>
11

> <PUBCHEM_CACTVS_SUBSKEYS>
AAADcfB6PAAAAAAAAAAAAAAAAAAAAAAAAAAkSAAAAAAAAAAAAAAAHgAQCAAADxThgAYCCALABgCIAgFSEAIAAAAgAAAAAIFIAAkTEBYAgQAnQAAH9gCXAAH46PyPAAAAAAAAAAAAAAAAAAAAAAAAAAAAAA==

> <PUBCHEM_IUPAC_OPENEYE_NAME>
(2S)-N-[(S)-[(2S,4R,6R)-6-[(2S)-2,3-dimethoxypropyl]-4-hydroxy-5,5-dimethyl-tetrahydropyran-2-yl]-methoxy-methyl]-2-hydroxy-2-[(2R,5R,6R)-2-methoxy-5,6-dimethyl-4-methylene-tetrahydropyran-2-yl]acetamide

> <PUBCHEM_IUPAC_CAS_NAME>
(2S)-N-[(S)-[(2S,4R,6R)-6-[(2S)-2,3-dimethoxypropyl]-4-hydroxy-5,5-dimethyl-2-oxanyl]-methoxymethyl]-2-hydroxy-2-[(2R,5R,6R)-2-methoxy-5,6-dimethyl-4-methylene-2-oxanyl]acetamide

> <PUBCHEM_IUPAC_NAME>
(2S)-N-[(S)-[(2S,4R,6R)-6-[(2S)-2,3-dimethoxypropyl]-4-hydroxy-5,5-dimethyloxan-2-yl]-methoxymethyl]-2-hydroxy-2-[(2R,5R,6R)-2-methoxy-5,6-dimethyl-4-methylideneoxan-2-yl]acetamide

> <PUBCHEM_IUPAC_SYSTEMATIC_NAME>
(2S)-N-[(S)-[(2S,4R,6R)-6-[(2S)-2,3-dimethoxypropyl]-5,5-dimethyl-4-oxidanyl-oxan-2-yl]-methoxy-methyl]-2-[(2R,5R,6R)-2-methoxy-5,6-dimethyl-4-methylidene-oxan-2-yl]-2-oxidanyl-ethanamide

> <PUBCHEM_IUPAC_TRADITIONAL_NAME>
(2S)-N-[(S)-[(2S,4R,6R)-6-[(2S)-2,3-dimethoxypropyl]-4-hydroxy-5,5-dimethyl-tetrahydropyran-2-yl]-methoxy-methyl]-2-hydroxy-2-[(2R,5R,6R)-2-methoxy-5,6-dimethyl-4-methylene-tetrahydropyran-2-yl]acetamide

> <PUBCHEM_IUPAC_INCHI>
InChI=1S/C25H45NO9/c1-14-12-25(33-9,35-16(3)15(14)2)21(28)22(29)26-23(32-8)18-11-19(27)24(4,5)20(34-18)10-17(31-7)13-30-6/h15-21,23,27-28H,1,10-13H2,2-9H3,(H,26,29)/t15-,16-,17+,18+,19-,20-,21-,23+,25-/m1/s1

> <PUBCHEM_IUPAC_INCHIKEY>
ZNEZZONMADKYTB-VRCUBXEUSA-N

> <PUBCHEM_XLOGP3_AA>
1

> <PUBCHEM_EXACT_MASS>
503.309432

> <PUBCHEM_MOLECULAR_FORMULA>
C25H45NO9

> <PUBCHEM_MOLECULAR_WEIGHT>
503.6261

> <PUBCHEM_OPENEYE_CAN_SMILES>
CC1C(OC(CC1=C)(C(C(=O)NC(C2CC(C(C(O2)CC(COC)OC)(C)C)O)OC)O)OC)C

> <PUBCHEM_OPENEYE_ISO_SMILES>
C[C@H]1[C@H](O[C@](CC1=C)([C@@H](C(=O)N[C@H]([C@@H]2C[C@H](C([C@H](O2)C[C@@H](COC)OC)(C)C)O)OC)O)OC)C

> <PUBCHEM_CACTVS_TPSA>
125

> <PUBCHEM_MONOISOTOPIC_WEIGHT>
503.309432

> <PUBCHEM_TOTAL_CHARGE>
0

> <PUBCHEM_HEAVY_ATOM_COUNT>
35

> <PUBCHEM_ATOM_DEF_STEREO_COUNT>
9

> <PUBCHEM_ATOM_UDEF_STEREO_COUNT>
0

> <PUBCHEM_BOND_DEF_STEREO_COUNT>
0

> <PUBCHEM_BOND_UDEF_STEREO_COUNT>
0

> <PUBCHEM_ISOTOPIC_ATOM_COUNT>
0

> <PUBCHEM_COMPONENT_COUNT>
1

> <PUBCHEM_CACTVS_TAUTO_COUNT>
2

> <PUBCHEM_COORDINATE_TYPE>
1
5
255

> <PUBCHEM_BONDANNOTATIONS>
12  16  6
15  40  6
13  2  6
25  29  5
26  30  5
19  3  5
20  4  6
21  6  6
23  8  6

$$$$

