135906
  -OEChem-07051212593D

 44 45  0     1  0  0  0  0  0999 V2000
   -1.3062    2.5016   -0.1985 O   0  0  0  0  0  0  0  0  0  0  0  0
   -0.4860   -2.6721    0.7202 O   0  0  0  0  0  0  0  0  0  0  0  0
   -3.4552    0.8240   -0.3278 O   0  0  0  0  0  0  0  0  0  0  0  0
   -3.0185   -1.8815    0.1527 O   0  0  0  0  0  0  0  0  0  0  0  0
    1.4655    1.8190    0.2606 C   0  0  1  0  0  0  0  0  0  0  0  0
    2.8576    1.1361    0.2991 C   0  0  0  0  0  0  0  0  0  0  0  0
    1.8649   -1.1322    0.7592 C   0  0  1  0  0  0  0  0  0  0  0  0
    2.8761   -0.0755    1.2247 C   0  0  0  0  0  0  0  0  0  0  0  0
    0.3156    0.7960    0.2368 C   0  0  0  0  0  0  0  0  0  0  0  0
    0.5054   -0.5213    0.4586 C   0  0  0  0  0  0  0  0  0  0  0  0
    1.3162    2.7134    1.5124 C   0  0  0  0  0  0  0  0  0  0  0  0
    1.4671    2.6924   -0.9742 C   0  0  0  0  0  0  0  0  0  0  0  0
    2.3970   -1.8899   -0.4292 C   0  0  0  0  0  0  0  0  0  0  0  0
   -1.0716    1.3093   -0.0185 C   0  0  0  0  0  0  0  0  0  0  0  0
   -0.6433   -1.4793    0.4715 C   0  0  0  0  0  0  0  0  0  0  0  0
   -2.1898    0.3406   -0.0556 C   0  0  0  0  0  0  0  0  0  0  0  0
   -1.9918   -0.9591    0.1732 C   0  0  0  0  0  0  0  0  0  0  0  0
    3.2745   -3.0674   -0.1240 C   0  0  0  0  0  0  0  0  0  0  0  0
    1.0252    2.2953   -2.1723 C   0  0  0  0  0  0  0  0  0  0  0  0
    2.1023   -1.5322   -1.6879 C   0  0  0  0  0  0  0  0  0  0  0  0
   -4.1162    1.1956    0.8655 C   0  0  0  0  0  0  0  0  0  0  0  0
   -3.1887   -2.4129   -1.1465 C   0  0  0  0  0  0  0  0  0  0  0  0
    3.6199    1.8499    0.6406 H   0  0  0  0  0  0  0  0  0  0  0  0
    3.1834    0.8330   -0.7040 H   0  0  0  0  0  0  0  0  0  0  0  0
    1.7396   -1.8353    1.5945 H   0  0  0  0  0  0  0  0  0  0  0  0
    3.8905   -0.4902    1.2646 H   0  0  0  0  0  0  0  0  0  0  0  0
    2.6365    0.2356    2.2492 H   0  0  0  0  0  0  0  0  0  0  0  0
    0.4177    3.3392    1.4711 H   0  0  0  0  0  0  0  0  0  0  0  0
    1.2534    2.1171    2.4298 H   0  0  0  0  0  0  0  0  0  0  0  0
    2.1688    3.3947    1.6218 H   0  0  0  0  0  0  0  0  0  0  0  0
    1.9132    3.6817   -0.8974 H   0  0  0  0  0  0  0  0  0  0  0  0
    4.1582   -2.7560    0.4412 H   0  0  0  0  0  0  0  0  0  0  0  0
    2.7257   -3.8069    0.4681 H   0  0  0  0  0  0  0  0  0  0  0  0
    3.6237   -3.5665   -1.0342 H   0  0  0  0  0  0  0  0  0  0  0  0
    1.0907    2.9739   -3.0172 H   0  0  0  0  0  0  0  0  0  0  0  0
    0.5983    1.3208   -2.3668 H   0  0  0  0  0  0  0  0  0  0  0  0
    2.5006   -2.0979   -2.5252 H   0  0  0  0  0  0  0  0  0  0  0  0
    1.4760   -0.6926   -1.9487 H   0  0  0  0  0  0  0  0  0  0  0  0
   -5.1009    1.5919    0.5996 H   0  0  0  0  0  0  0  0  0  0  0  0
   -3.5708    1.9822    1.3987 H   0  0  0  0  0  0  0  0  0  0  0  0
   -4.2689    0.3337    1.5243 H   0  0  0  0  0  0  0  0  0  0  0  0
   -3.9956   -3.1508   -1.1094 H   0  0  0  0  0  0  0  0  0  0  0  0
   -2.2829   -2.9226   -1.4935 H   0  0  0  0  0  0  0  0  0  0  0  0
   -3.4779   -1.6352   -1.8619 H   0  0  0  0  0  0  0  0  0  0  0  0
  1 14  2  0  0  0  0
  2 15  2  0  0  0  0
  3 16  1  0  0  0  0
  3 21  1  0  0  0  0
  4 17  1  0  0  0  0
  4 22  1  0  0  0  0
  5  6  1  0  0  0  0
  5  9  1  0  0  0  0
  5 11  1  0  0  0  0
  5 12  1  0  0  0  0
  6  8  1  0  0  0  0
  6 23  1  0  0  0  0
  6 24  1  0  0  0  0
  7  8  1  0  0  0  0
  7 10  1  0  0  0  0
  7 13  1  0  0  0  0
  7 25  1  0  0  0  0
  8 26  1  0  0  0  0
  8 27  1  0  0  0  0
  9 10  2  0  0  0  0
  9 14  1  0  0  0  0
 10 15  1  0  0  0  0
 11 28  1  0  0  0  0
 11 29  1  0  0  0  0
 11 30  1  0  0  0  0
 12 19  2  0  0  0  0
 12 31  1  0  0  0  0
 13 18  1  0  0  0  0
 13 20  2  0  0  0  0
 14 16  1  0  0  0  0
 15 17  1  0  0  0  0
 16 17  2  0  0  0  0
 18 32  1  0  0  0  0
 18 33  1  0  0  0  0
 18 34  1  0  0  0  0
 19 35  1  0  0  0  0
 19 36  1  0  0  0  0
 20 37  1  0  0  0  0
 20 38  1  0  0  0  0
 21 39  1  0  0  0  0
 21 40  1  0  0  0  0
 21 41  1  0  0  0  0
 22 42  1  0  0  0  0
 22 43  1  0  0  0  0
 22 44  1  0  0  0  0
M  END
> <PUBCHEM_COMPOUND_CID>
135906

> <PUBCHEM_CONFORMER_RMSD>
0.8

> <PUBCHEM_CONFORMER_DIVERSEORDER>
1
4
6
9
7
8
10
3
11
2
5

> <PUBCHEM_MMFF94_PARTIAL_CHARGES>
24
1 -0.57
10 -0.12
12 -0.29
13 -0.28
14 0.54
15 0.54
16 0.09
17 0.09
18 0.14
19 -0.3
2 -0.57
20 -0.3
21 0.28
22 0.28
3 -0.36
31 0.15
35 0.15
36 0.15
37 0.15
38 0.15
4 -0.36
5 0.28
7 0.28
9 -0.12

> <PUBCHEM_EFFECTIVE_ROTOR_COUNT>
4.8

> <PUBCHEM_PHARMACOPHORE_FEATURES>
7
1 1 acceptor
1 19 hydrophobe
1 2 acceptor
1 3 acceptor
1 4 acceptor
6 5 6 7 8 9 10 rings
6 9 10 14 15 16 17 rings

> <PUBCHEM_HEAVY_ATOM_COUNT>
22

> <PUBCHEM_ATOM_DEF_STEREO_COUNT>
0

> <PUBCHEM_ATOM_UDEF_STEREO_COUNT>
2

> <PUBCHEM_BOND_DEF_STEREO_COUNT>
0

> <PUBCHEM_BOND_UDEF_STEREO_COUNT>
0

> <PUBCHEM_ISOTOPIC_ATOM_COUNT>
0

> <PUBCHEM_COMPONENT_COUNT>
1

> <PUBCHEM_CACTVS_TAUTO_COUNT>
7

> <PUBCHEM_CONFORMER_ID>
000212E200000001

> <PUBCHEM_MMFF94_ENERGY>
65.6199

> <PUBCHEM_FEATURE_SELFOVERLAP>
35.552

> <PUBCHEM_SHAPE_FINGERPRINT>
10863032 1 18259706687584769586
10967382 1 18339365270019686913
11578080 2 17058395775746403262
11680986 33 18411696599492825587
12553582 1 18123758809435642619
13140716 1 18411983555285532667
14178342 30 18263095352420160113
14181834 199 17988087668886885772
14223421 5 18266176119893378203
14790565 3 17977650232633049488
14863182 85 17907302052589435039
15490181 8 18055909896763217089
16945 1 18337683021471610737
17357779 13 18051427441286472220
17980427 23 18266479615067396392
18981168 100 15984534482461564567
19591789 44 17977943810995729803
20511035 2 18051984619167733984
20600515 1 18192145117152569420
20691752 17 17703794699703403235
20905425 154 18336541638423736124
21029758 27 18055901341246398633
21501502 16 18338802208513173369
22182313 1 18056774331936022860
23184049 29 18410296929775443243
2334 1 18268713818594800611
23402539 116 18340496646564258842
23419403 2 17473885671373737696
23558518 356 18199470961418251467
23559900 14 17758683635303948642
2748010 2 18126016085369293552
335352 9 18193840577162661359
350125 39 18340765932323134633
352729 6 17693941795513210026
7164475 11 18261966133237054343
7364860 26 18334294232340612416
7832392 63 18335703875046077739
81228 2 17833532867277267354
9709674 26 18337956684135366707

> <PUBCHEM_SHAPE_MULTIPOLES>
429.27
5.48
3.8
1.38
3.96
0.25
-0.53
1.91
0.27
-1.26
-0.58
-0.61
-0.52
-0.25

> <PUBCHEM_SHAPE_SELFOVERLAP>
909.519

> <PUBCHEM_SHAPE_VOLUME>
238.2

> <PUBCHEM_COORDINATE_TYPE>
2
5
10

$$$$

