56928157
  -OEChem-07051213152D

 47 49  0     1  0  0  0  0  0999 V2000
    9.7822   -2.6961    0.0000 S   0  0  0  0  0  0  0  0  0  0  0  0
    2.8660    3.1789    0.0000 S   0  0  0  0  0  0  0  0  0  0  0  0
    7.2068   -3.5359    0.0000 O   0  0  0  0  0  0  0  0  0  0  0  0
    6.3557   -3.3252    0.0000 O   0  0  0  0  0  0  0  0  0  0  0  0
    8.8311   -3.0051    0.0000 O   0  0  0  0  0  0  0  0  0  0  0  0
    4.5981    1.1789    0.0000 O   0  0  0  0  0  0  0  0  0  0  0  0
   10.7333   -2.3871    0.0000 O   0  0  0  0  0  0  0  0  0  0  0  0
   10.0912   -3.6472    0.0000 O   0  0  0  0  0  0  0  0  0  0  0  0
    9.4732   -1.7451    0.0000 O   0  0  0  0  0  0  0  0  0  0  0  0
    2.8660    1.1789    0.0000 O   0  0  0  0  0  0  0  0  0  0  0  0
    2.0000    3.6789    0.0000 O   0  0  0  0  0  0  0  0  0  0  0  0
    3.3660    4.0449    0.0000 O   0  0  0  0  0  0  0  0  0  0  0  0
    2.3660    2.3129    0.0000 O   0  0  0  0  0  0  0  0  0  0  0  0
    7.1962   -1.3211    0.0000 N   0  0  0  0  0  0  0  0  0  0  0  0
    4.7271   -1.9882    0.0000 N   0  0  0  0  0  0  0  0  0  0  0  0
    6.1209   -2.7929    0.0000 N   0  0  0  0  0  0  0  0  0  0  0  0
    6.3301    0.1789    0.0000 N   0  0  0  0  0  0  0  0  0  0  0  0
    8.0622    0.1789    0.0000 N   0  0  0  0  0  0  0  0  0  0  0  0
    4.6322   -3.7620    0.0000 N   0  0  0  0  0  0  0  0  0  0  0  0
    3.7320    2.6789    0.0000 N   0  0  0  0  0  0  0  0  0  0  0  0
    6.3301   -1.8211    0.0000 C   0  0  1  0  0  0  0  0  0  0  0  0
    5.4641   -1.3211    0.0000 C   0  0  2  0  0  0  0  0  0  0  0  0
    6.9972   -2.5581    0.0000 C   0  0  0  0  0  0  0  0  0  0  0  0
    8.0880   -2.3360    0.0000 C   0  0  3  0  0  0  0  0  0  0  0  0
    8.1680   -1.5303    0.0000 C   0  0  0  0  0  0  0  0  0  0  0  0
    5.4641   -0.3211    0.0000 C   0  0  2  0  0  0  0  0  0  0  0  0
    7.1962   -0.3211    0.0000 C   0  0  0  0  0  0  0  0  0  0  0  0
    5.1322   -2.8960    0.0000 C   0  0  0  0  0  0  0  0  0  0  0  0
    4.5981    0.1789    0.0000 C   0  0  0  0  0  0  0  0  0  0  0  0
    3.7320    1.6789    0.0000 C   0  0  0  0  0  0  0  0  0  0  0  0
    4.6871   -0.9764    0.0000 H   0  0  0  0  0  0  0  0  0  0  0  0
    7.9250   -2.9342    0.0000 H   0  0  0  0  0  0  0  0  0  0  0  0
    8.7822   -1.6147    0.0000 H   0  0  0  0  0  0  0  0  0  0  0  0
    8.2755   -0.9197    0.0000 H   0  0  0  0  0  0  0  0  0  0  0  0
    5.4641    0.2989    0.0000 H   0  0  0  0  0  0  0  0  0  0  0  0
    4.1204   -1.8603    0.0000 H   0  0  0  0  0  0  0  0  0  0  0  0
    3.9875    0.2866    0.0000 H   0  0  0  0  0  0  0  0  0  0  0  0
    4.3860   -0.4037    0.0000 H   0  0  0  0  0  0  0  0  0  0  0  0
    6.5688   -3.9075    0.0000 H   0  0  0  0  0  0  0  0  0  0  0  0
    7.7968   -3.7265    0.0000 H   0  0  0  0  0  0  0  0  0  0  0  0
    8.0622    0.7989    0.0000 H   0  0  0  0  0  0  0  0  0  0  0  0
    8.5991   -0.1311    0.0000 H   0  0  0  0  0  0  0  0  0  0  0  0
    4.0122   -3.7620    0.0000 H   0  0  0  0  0  0  0  0  0  0  0  0
    4.9422   -4.2989    0.0000 H   0  0  0  0  0  0  0  0  0  0  0  0
   11.1940   -2.8020    0.0000 H   0  0  0  0  0  0  0  0  0  0  0  0
    4.2690    2.9889    0.0000 H   0  0  0  0  0  0  0  0  0  0  0  0
    2.0000    4.2989    0.0000 H   0  0  0  0  0  0  0  0  0  0  0  0
  1  5  1  0  0  0  0
  1  7  1  0  0  0  0
  1  8  2  0  0  0  0
  1  9  2  0  0  0  0
  2 11  1  0  0  0  0
  2 12  2  0  0  0  0
  2 13  2  0  0  0  0
  2 20  1  0  0  0  0
  3 23  1  0  0  0  0
  3 40  1  0  0  0  0
  4 23  1  0  0  0  0
  4 39  1  0  0  0  0
  5 24  1  0  0  0  0
  6 29  1  0  0  0  0
  6 30  1  0  0  0  0
  7 45  1  0  0  0  0
 10 30  2  0  0  0  0
 11 47  1  0  0  0  0
 14 21  1  0  0  0  0
 14 25  1  0  0  0  0
 14 27  1  0  0  0  0
 15 22  1  0  0  0  0
 15 28  1  0  0  0  0
 15 36  1  0  0  0  0
 21 16  1  1  0  0  0
 16 28  2  0  0  0  0
 17 26  1  0  0  0  0
 17 27  2  0  0  0  0
 18 27  1  0  0  0  0
 18 41  1  0  0  0  0
 18 42  1  0  0  0  0
 19 28  1  0  0  0  0
 19 43  1  0  0  0  0
 19 44  1  0  0  0  0
 20 30  1  0  0  0  0
 20 46  1  0  0  0  0
 21 22  1  0  0  0  0
 21 23  1  0  0  0  0
 22 26  1  0  0  0  0
 22 31  1  6  0  0  0
 23 24  1  0  0  0  0
 24 25  1  0  0  0  0
 24 32  1  0  0  0  0
 25 33  1  0  0  0  0
 25 34  1  0  0  0  0
 26 29  1  6  0  0  0
 26 35  1  0  0  0  0
 29 37  1  0  0  0  0
 29 38  1  0  0  0  0
M  END
> <PUBCHEM_COMPOUND_CID>
56928157

> <PUBCHEM_COMPOUND_CANONICALIZED>
1

> <PUBCHEM_CACTVS_COMPLEXITY>
1010

> <PUBCHEM_CACTVS_HBOND_ACCEPTOR>
13

> <PUBCHEM_CACTVS_HBOND_DONOR>
8

> <PUBCHEM_CACTVS_ROTATABLE_BOND>
6

> <PUBCHEM_CACTVS_SUBSKEYS>
AAADceBzvABgAAAAAAAAAAAAAAAAAWIAAAAgAAAAAAAAAEAAAAAAHgAQSAAACDzhgAYBCAPABoAoAAAAPDAAAAEAAAABAIAIAAGDQAIAyAAdQAAGEAKRAAGw8C0AAAAAAAAAAAAAAAAAAAAAAAAAAAAAAA==

> <PUBCHEM_IUPAC_OPENEYE_NAME>
[(3aS,4R,10aS)-2,6-diamino-10,10-dihydroxy-9-sulfooxy-3a,4,8,9-tetrahydro-3H-pyrrolo[1,2-c]purin-4-yl]methoxycarbonylsulfamic acid

> <PUBCHEM_IUPAC_CAS_NAME>
[[(3aS,4R,10aS)-2,6-diamino-10,10-dihydroxy-9-sulfooxy-3a,4,8,9-tetrahydro-3H-pyrrolo[1,2-c]purin-4-yl]methoxy-oxomethyl]sulfamic acid

> <PUBCHEM_IUPAC_NAME>
[(3aS,4R,10aS)-2,6-diamino-10,10-dihydroxy-9-sulfooxy-3a,4,8,9-tetrahydro-3H-pyrrolo[1,2-c]purin-4-yl]methoxycarbonylsulfamic acid

> <PUBCHEM_IUPAC_SYSTEMATIC_NAME>
[(3aS,4R,10aS)-2,6-bis(azanyl)-10,10-bis(oxidanyl)-9-sulfooxy-3a,4,8,9-tetrahydro-3H-pyrrolo[1,2-c]purin-4-yl]methoxycarbonylsulfamic acid

> <PUBCHEM_IUPAC_TRADITIONAL_NAME>
[(3aS,4R,10aS)-2,6-diamino-10,10-dihydroxy-9-sulfoxy-3a,4,8,9-tetrahydro-3H-pyrrolo[1,2-c]purin-4-yl]methoxycarbonylsulfamic acid

> <PUBCHEM_IUPAC_INCHI>
InChI=1S/C10H17N7O11S2/c11-6-14-5-3(2-27-8(18)16-29(21,22)23)13-7(12)17-1-4(28-30(24,25)26)10(19,20)9(5,17)15-6/h3-5,19-20H,1-2H2,(H2,12,13)(H,16,18)(H3,11,14,15)(H,21,22,23)(H,24,25,26)/t3-,4?,5-,9-/m0/s1

> <PUBCHEM_IUPAC_INCHIKEY>
OKSSKVHGKYJNLL-NNSMWTFNSA-N

> <PUBCHEM_XLOGP3_AA>
-6.5

> <PUBCHEM_EXACT_MASS>
475.042746

> <PUBCHEM_MOLECULAR_FORMULA>
C10H17N7O11S2

> <PUBCHEM_MOLECULAR_WEIGHT>
475.41228

> <PUBCHEM_OPENEYE_CAN_SMILES>
C1C(C(C23N1C(=NC(C2NC(=N3)N)COC(=O)NS(=O)(=O)O)N)(O)O)OS(=O)(=O)O

> <PUBCHEM_OPENEYE_ISO_SMILES>
C1C(C([C@@]23N1C(=N[C@H]([C@@H]2NC(=N3)N)COC(=O)NS(=O)(=O)O)N)(O)O)OS(=O)(=O)O

> <PUBCHEM_CACTVS_TPSA>
306

> <PUBCHEM_MONOISOTOPIC_WEIGHT>
475.042746

> <PUBCHEM_TOTAL_CHARGE>
0

> <PUBCHEM_HEAVY_ATOM_COUNT>
30

> <PUBCHEM_ATOM_DEF_STEREO_COUNT>
3

> <PUBCHEM_ATOM_UDEF_STEREO_COUNT>
1

> <PUBCHEM_BOND_DEF_STEREO_COUNT>
0

> <PUBCHEM_BOND_UDEF_STEREO_COUNT>
0

> <PUBCHEM_ISOTOPIC_ATOM_COUNT>
0

> <PUBCHEM_COMPONENT_COUNT>
1

> <PUBCHEM_CACTVS_TAUTO_COUNT>
12

> <PUBCHEM_COORDINATE_TYPE>
1
5
255

> <PUBCHEM_BONDANNOTATIONS>
21  16  5
22  31  6
26  29  6
24  5  3

$$$$

