440148
  -OEChem-07051212483D

 55 56  0     1  0  0  0  0  0999 V2000
   -2.0997   -0.4149   -0.4921 O   0  0  0  0  0  0  0  0  0  0  0  0
    1.9814    1.2340    2.0111 O   0  0  0  0  0  0  0  0  0  0  0  0
    1.3854   -0.8020   -0.7865 O   0  0  0  0  0  0  0  0  0  0  0  0
   -0.3164   -2.2526   -0.3443 O   0  0  0  0  0  0  0  0  0  0  0  0
   -5.3480    0.2757   -2.3255 O   0  0  0  0  0  0  0  0  0  0  0  0
   -7.8652   -1.4950    1.1058 O   0  0  0  0  0  0  0  0  0  0  0  0
    0.7388    1.8476    0.1451 N   0  0  0  0  0  0  0  0  0  0  0  0
   -4.3527    0.0546   -0.2235 N   0  0  0  0  0  0  0  0  0  0  0  0
    4.9141    2.8922   -1.0564 N   0  0  0  0  0  0  0  0  0  0  0  0
    6.1551   -1.0947   -0.0107 N   0  0  0  0  0  0  0  0  0  0  0  0
   -6.6001   -0.6052   -0.6152 N   0  0  0  0  0  0  0  0  0  0  0  0
    4.4107   -2.5492   -0.6581 N   0  0  0  0  0  0  0  0  0  0  0  0
    6.0930   -3.4134    0.6702 N   0  0  0  0  0  0  0  0  0  0  0  0
   -0.4495    1.0910    0.4624 C   0  0  2  0  0  0  0  0  0  0  0  0
   -0.7776    0.0958   -0.6558 C   0  0  1  0  0  0  0  0  0  0  0  0
   -3.0932    0.5993   -0.6550 C   0  0  1  0  0  0  0  0  0  0  0  0
    3.9072    1.9544   -0.5514 C   0  0  2  0  0  0  0  0  0  0  0  0
    2.9817    2.7185    0.4093 C   0  0  0  0  0  0  0  0  0  0  0  0
   -1.5849    2.0502    0.6790 C   0  0  0  0  0  0  0  0  0  0  0  0
    4.5842    0.7596    0.1493 C   0  0  0  0  0  0  0  0  0  0  0  0
   -2.7962    1.8306    0.1492 C   0  0  0  0  0  0  0  0  0  0  0  0
    1.8614    1.8525    0.9558 C   0  0  0  0  0  0  0  0  0  0  0  0
    5.5737    0.0072   -0.7423 C   0  0  0  0  0  0  0  0  0  0  0  0
    0.0854   -1.1216   -0.5736 C   0  0  0  0  0  0  0  0  0  0  0  0
   -5.4203   -0.0634   -1.1423 C   0  0  0  0  0  0  0  0  0  0  0  0
   -4.5146   -0.3531    1.0943 C   0  0  0  0  0  0  0  0  0  0  0  0
    7.4127   -0.8184    0.6967 C   0  0  0  0  0  0  0  0  0  0  0  0
   -5.6453   -0.8678    1.5821 C   0  0  0  0  0  0  0  0  0  0  0  0
    5.5894   -2.3867    0.0337 C   0  0  0  0  0  0  0  0  0  0  0  0
   -6.8107   -1.0253    0.6888 C   0  0  0  0  0  0  0  0  0  0  0  0
   -0.2969    0.5539    1.4072 H   0  0  0  0  0  0  0  0  0  0  0  0
   -0.6799    0.5230   -1.6626 H   0  0  0  0  0  0  0  0  0  0  0  0
    3.3187    1.5810   -1.3985 H   0  0  0  0  0  0  0  0  0  0  0  0
   -3.1357    0.8709   -1.7158 H   0  0  0  0  0  0  0  0  0  0  0  0
    3.5451    3.1110    1.2658 H   0  0  0  0  0  0  0  0  0  0  0  0
    2.5401    3.5881   -0.0949 H   0  0  0  0  0  0  0  0  0  0  0  0
   -1.4166    2.9426    1.2750 H   0  0  0  0  0  0  0  0  0  0  0  0
    0.7369    2.4071   -0.7034 H   0  0  0  0  0  0  0  0  0  0  0  0
    5.1041    1.1099    1.0516 H   0  0  0  0  0  0  0  0  0  0  0  0
    3.8182    0.0560    0.4948 H   0  0  0  0  0  0  0  0  0  0  0  0
   -3.5818    2.5664    0.2977 H   0  0  0  0  0  0  0  0  0  0  0  0
    6.3795    0.6796   -1.0603 H   0  0  0  0  0  0  0  0  0  0  0  0
    5.1034   -0.3118   -1.6786 H   0  0  0  0  0  0  0  0  0  0  0  0
    5.4364    2.4627   -1.8185 H   0  0  0  0  0  0  0  0  0  0  0  0
    4.4518    3.7049   -1.4629 H   0  0  0  0  0  0  0  0  0  0  0  0
   -3.6527   -0.2458    1.7450 H   0  0  0  0  0  0  0  0  0  0  0  0
    7.6081    0.2561    0.7789 H   0  0  0  0  0  0  0  0  0  0  0  0
    7.3764   -1.2216    1.7140 H   0  0  0  0  0  0  0  0  0  0  0  0
    8.2482   -1.2806    0.1620 H   0  0  0  0  0  0  0  0  0  0  0  0
   -7.3821   -0.6998   -1.2573 H   0  0  0  0  0  0  0  0  0  0  0  0
   -5.7349   -1.1792    2.6155 H   0  0  0  0  0  0  0  0  0  0  0  0
    1.9616   -1.5926   -0.7241 H   0  0  0  0  0  0  0  0  0  0  0  0
    3.9460   -1.8009   -1.1545 H   0  0  0  0  0  0  0  0  0  0  0  0
    3.9424   -3.4492   -0.6752 H   0  0  0  0  0  0  0  0  0  0  0  0
    5.4761   -4.2212    0.5326 H   0  0  0  0  0  0  0  0  0  0  0  0
  1 15  1  0  0  0  0
  1 16  1  0  0  0  0
  2 22  2  0  0  0  0
  3 24  1  0  0  0  0
  3 52  1  0  0  0  0
  4 24  2  0  0  0  0
  5 25  2  0  0  0  0
  6 30  2  0  0  0  0
  7 14  1  0  0  0  0
  7 22  1  0  0  0  0
  7 38  1  0  0  0  0
  8 16  1  0  0  0  0
  8 25  1  0  0  0  0
  8 26  1  0  0  0  0
  9 17  1  0  0  0  0
  9 44  1  0  0  0  0
  9 45  1  0  0  0  0
 10 23  1  0  0  0  0
 10 27  1  0  0  0  0
 10 29  1  0  0  0  0
 11 25  1  0  0  0  0
 11 30  1  0  0  0  0
 11 50  1  0  0  0  0
 12 29  1  0  0  0  0
 12 53  1  0  0  0  0
 12 54  1  0  0  0  0
 13 29  2  0  0  0  0
 13 55  1  0  0  0  0
 14 15  1  0  0  0  0
 14 19  1  0  0  0  0
 14 31  1  0  0  0  0
 15 24  1  0  0  0  0
 15 32  1  0  0  0  0
 16 21  1  0  0  0  0
 16 34  1  0  0  0  0
 17 18  1  0  0  0  0
 17 20  1  0  0  0  0
 17 33  1  0  0  0  0
 18 22  1  0  0  0  0
 18 35  1  0  0  0  0
 18 36  1  0  0  0  0
 19 21  2  0  0  0  0
 19 37  1  0  0  0  0
 20 23  1  0  0  0  0
 20 39  1  0  0  0  0
 20 40  1  0  0  0  0
 21 41  1  0  0  0  0
 23 42  1  0  0  0  0
 23 43  1  0  0  0  0
 26 28  2  0  0  0  0
 26 46  1  0  0  0  0
 27 47  1  0  0  0  0
 27 48  1  0  0  0  0
 27 49  1  0  0  0  0
 28 30  1  0  0  0  0
 28 51  1  0  0  0  0
M  END
> <PUBCHEM_COMPOUND_CID>
440148

> <PUBCHEM_CONFORMER_RMSD>
1

> <PUBCHEM_CONFORMER_DIVERSEORDER>
1
31
111
128
35
80
8
105
54
69
58
3
72
132
50
70
95
130
15
59
76
2
27
36
106
125
113
60
44
42
21
94
16
62
25
41
142
93
115
56
74
114
40
133
92
126
55
24
34
12
14
97
13
33
9
123
26
118
107
37
47
20
43
124
22
90
64
23
110
75
68
46
102
84
136
52
5
120
39
66
7
140
79
89
127
11
17
18
51
131
141
6
30
134
65
116
53
32
109
112
87
86
82
83
28
49
48
99
103
108
139
81
122
4
101
19
137
96
78
77
63
38
10
100
129
117
144
98
119
73
91
57
135
104
61
29
71
85
88
67
138
143
45
121

> <PUBCHEM_MMFF94_PARTIAL_CHARGES>
41
1 -0.56
10 -0.79
11 -0.49
12 -0.85
13 -0.85
14 0.44
15 0.34
16 0.72
17 0.27
18 0.06
19 -0.29
2 -0.57
21 -0.29
22 0.57
23 0.37
24 0.66
25 0.69
26 -0.04
27 0.37
28 -0.14
29 0.55
3 -0.65
30 0.62
37 0.15
38 0.37
4 -0.57
41 0.15
44 0.36
45 0.36
46 0.15
5 -0.57
50 0.37
51 0.15
52 0.5
53 0.4
54 0.4
55 0.4
6 -0.57
7 -0.73
8 -0.47
9 -0.99

> <PUBCHEM_EFFECTIVE_ROTOR_COUNT>
10.8

> <PUBCHEM_PHARMACOPHORE_FEATURES>
16
1 1 acceptor
1 11 donor
1 12 donor
1 13 donor
1 2 acceptor
1 3 acceptor
1 4 acceptor
1 5 acceptor
1 6 acceptor
1 7 donor
1 9 cation
1 9 donor
3 3 4 24 anion
4 10 12 13 29 cation
6 1 14 15 16 19 21 rings
6 8 11 25 26 28 30 rings

> <PUBCHEM_HEAVY_ATOM_COUNT>
30

> <PUBCHEM_ATOM_DEF_STEREO_COUNT>
3

> <PUBCHEM_ATOM_UDEF_STEREO_COUNT>
1

> <PUBCHEM_BOND_DEF_STEREO_COUNT>
0

> <PUBCHEM_BOND_UDEF_STEREO_COUNT>
0

> <PUBCHEM_ISOTOPIC_ATOM_COUNT>
0

> <PUBCHEM_COMPONENT_COUNT>
1

> <PUBCHEM_CACTVS_TAUTO_COUNT>
6

> <PUBCHEM_CONFORMER_ID>
0006B75400000001

> <PUBCHEM_MMFF94_ENERGY>
56.9623

> <PUBCHEM_FEATURE_SELFOVERLAP>
81.308

> <PUBCHEM_SHAPE_FINGERPRINT>
12166972 35 18202279186682090989
12236239 1 16878500121677276881
13073987 5 18333169479491484984
13533116 47 18334575720577070012
13782708 43 18202001057510874310
14028597 1 17095513024251489218
14251764 18 17749108868519905944
14347332 77 18334013925358246445
14849402 71 17095812001304249480
14955137 171 18268986489179347749
15183329 4 17894908499339545476
15352257 5 18342735178918031387
1979834 28 17458625670695307878
20567600 75 18060421296394043061
20771845 140 16660355974801004247
21033650 10 16343425124181882021
21267235 1 18333725845575649446
21682296 61 18337106860246298535
21781051 124 18270109119924793555
23522609 53 17970599970971319401
23559900 14 18131070424563570273
3004659 81 18408601470962980252
3178227 256 18334853926735697275
3383291 50 18409168818409447154
34797466 226 17203044076116252493
439807 62 18412541033049769777
46194498 28 17918277541763705108
5104073 3 18040995180594471512

> <PUBCHEM_SHAPE_MULTIPOLES>
547.3
20.29
3
1.33
5.2
0.31
-0.02
12.16
1.66
-5.78
0.29
1.43
-0.1
0.2

> <PUBCHEM_SHAPE_SELFOVERLAP>
1129.557

> <PUBCHEM_SHAPE_VOLUME>
308.7

> <PUBCHEM_COORDINATE_TYPE>
2
5
10

$$$$

