11756356
  -OEChem-07051213082D

 68 73  0     1  0  0  0  0  0999 V2000
    5.9302    7.0776    0.0000 O   0  0  0  0  0  0  0  0  0  0  0  0
    7.8242    5.5036    0.0000 O   0  0  0  0  0  0  0  0  0  0  0  0
    3.3162    5.5083    0.0000 O   0  0  0  0  0  0  0  0  0  0  0  0
    3.7760   -2.1160    0.0000 O   0  0  0  0  0  0  0  0  0  0  0  0
    7.7002    7.0534    0.0000 O   0  0  0  0  0  0  0  0  0  0  0  0
    5.3549   -2.8280    0.0000 O   0  0  0  0  0  0  0  0  0  0  0  0
    4.1822    4.0083    0.0000 N   0  0  0  0  0  0  0  0  0  0  0  0
    3.9489   -3.8394    0.0000 N   0  0  0  0  0  0  0  0  0  0  0  0
    5.4598    1.7078    0.0000 N   0  0  0  0  0  0  0  0  0  0  0  0
    2.7158   -6.5743    0.0000 N   0  0  0  0  0  0  0  0  0  0  0  0
    5.0482    3.5083    0.0000 C   0  0  0  0  0  0  0  0  0  0  0  0
    3.4452    3.3412    0.0000 C   0  0  0  0  0  0  0  0  0  0  0  0
    3.8503    2.4335    0.0000 C   0  0  0  0  0  0  0  0  0  0  0  0
    5.9143    5.0083    0.0000 C   0  0  0  0  0  0  0  0  0  0  0  0
    6.8243    5.5152    0.0000 C   0  0  2  0  0  0  0  0  0  0  0  0
    4.8390    2.5365    0.0000 C   0  0  0  0  0  0  0  0  0  0  0  0
    5.0482    5.5083    0.0000 C   0  0  0  0  0  0  0  0  0  0  0  0
    5.9143    4.0083    0.0000 C   0  0  0  0  0  0  0  0  0  0  0  0
    3.1268   -5.6627    0.0000 C   0  0  0  0  0  0  0  0  0  0  0  0
    3.4138    1.4945    0.0000 C   0  0  0  0  0  0  0  0  0  0  0  0
    4.1822    5.0083    0.0000 C   0  0  0  0  0  0  0  0  0  0  0  0
    4.1218   -5.5628    0.0000 C   0  0  0  0  0  0  0  0  0  0  0  0
    2.5428   -4.8509    0.0000 C   0  0  0  0  0  0  0  0  0  0  0  0
    2.9539   -3.9393    0.0000 C   0  0  0  0  0  0  0  0  0  0  0  0
    4.5328   -4.6512    0.0000 C   0  0  0  0  0  0  0  0  0  0  0  0
    7.3142    4.6434    0.0000 C   0  0  0  0  0  0  0  0  0  0  0  0
    5.0322    6.5498    0.0000 C   0  0  0  0  0  0  0  0  0  0  0  0
    4.0152    0.6516    0.0000 C   0  0  0  0  0  0  0  0  0  0  0  0
    6.8323    6.5568    0.0000 C   0  0  0  0  0  0  0  0  0  0  0  0
    5.0451    0.7590    0.0000 C   0  0  0  0  0  0  0  0  0  0  0  0
    2.4181    1.4023    0.0000 C   0  0  0  0  0  0  0  0  0  0  0  0
    3.5606   -0.3264    0.0000 C   0  0  0  0  0  0  0  0  0  0  0  0
    6.8042    3.7832    0.0000 C   0  0  0  0  0  0  0  0  0  0  0  0
    4.3599   -2.9278    0.0000 C   0  0  0  0  0  0  0  0  0  0  0  0
    4.1870   -1.2044    0.0000 C   0  0  0  0  0  0  0  0  0  0  0  0
    5.6917   -0.1043    0.0000 C   0  0  0  0  0  0  0  0  0  0  0  0
    2.0000    0.4939    0.0000 C   0  0  0  0  0  0  0  0  0  0  0  0
    5.2598   -1.0926    0.0000 C   0  0  0  0  0  0  0  0  0  0  0  0
    3.0798    3.8421    0.0000 H   0  0  0  0  0  0  0  0  0  0  0  0
    2.9087    3.0305    0.0000 H   0  0  0  0  0  0  0  0  0  0  0  0
    6.4512    3.6983    0.0000 H   0  0  0  0  0  0  0  0  0  0  0  0
    3.4888   -6.1660    0.0000 H   0  0  0  0  0  0  0  0  0  0  0  0
    2.0305   -4.5018    0.0000 H   0  0  0  0  0  0  0  0  0  0  0  0
    2.1101   -5.2948    0.0000 H   0  0  0  0  0  0  0  0  0  0  0  0
    4.0756   -6.1811    0.0000 H   0  0  0  0  0  0  0  0  0  0  0  0
    4.7227   -5.7157    0.0000 H   0  0  0  0  0  0  0  0  0  0  0  0
    5.0452   -5.0004    0.0000 H   0  0  0  0  0  0  0  0  0  0  0  0
    4.9656   -4.2073    0.0000 H   0  0  0  0  0  0  0  0  0  0  0  0
    3.0000   -3.3210    0.0000 H   0  0  0  0  0  0  0  0  0  0  0  0
    2.3530   -3.7864    0.0000 H   0  0  0  0  0  0  0  0  0  0  0  0
    7.7845    4.2394    0.0000 H   0  0  0  0  0  0  0  0  0  0  0  0
    7.7937    5.0364    0.0000 H   0  0  0  0  0  0  0  0  0  0  0  0
    4.8142    7.1302    0.0000 H   0  0  0  0  0  0  0  0  0  0  0  0
    4.4230    6.4343    0.0000 H   0  0  0  0  0  0  0  0  0  0  0  0
    2.4690    2.0202    0.0000 H   0  0  0  0  0  0  0  0  0  0  0  0
    1.8184    1.5598    0.0000 H   0  0  0  0  0  0  0  0  0  0  0  0
    2.9432   -0.3836    0.0000 H   0  0  0  0  0  0  0  0  0  0  0  0
    6.2709    4.0994    0.0000 H   0  0  0  0  0  0  0  0  0  0  0  0
    6.4880    3.2499    0.0000 H   0  0  0  0  0  0  0  0  0  0  0  0
    7.3376    3.4671    0.0000 H   0  0  0  0  0  0  0  0  0  0  0  0
    3.0778   -7.0776    0.0000 H   0  0  0  0  0  0  0  0  0  0  0  0
    2.0988   -6.6362    0.0000 H   0  0  0  0  0  0  0  0  0  0  0  0
    8.1280    4.9631    0.0000 H   0  0  0  0  0  0  0  0  0  0  0  0
    6.3076   -0.0329    0.0000 H   0  0  0  0  0  0  0  0  0  0  0  0
    1.4368    0.7531    0.0000 H   0  0  0  0  0  0  0  0  0  0  0  0
    1.7408   -0.0693    0.0000 H   0  0  0  0  0  0  0  0  0  0  0  0
    2.5632    0.2347    0.0000 H   0  0  0  0  0  0  0  0  0  0  0  0
    5.6257   -1.5931    0.0000 H   0  0  0  0  0  0  0  0  0  0  0  0
  1 27  1  0  0  0  0
  1 29  1  0  0  0  0
 15  2  1  1  0  0  0
  2 63  1  0  0  0  0
  3 21  2  0  0  0  0
  4 34  1  0  0  0  0
  4 35  1  0  0  0  0
  5 29  2  0  0  0  0
  6 34  2  0  0  0  0
  7 11  1  0  0  0  0
  7 12  1  0  0  0  0
  7 21  1  0  0  0  0
  8 24  1  0  0  0  0
  8 25  1  0  0  0  0
  8 34  1  0  0  0  0
  9 16  1  0  0  0  0
  9 30  2  0  0  0  0
 10 19  1  0  0  0  0
 10 61  1  0  0  0  0
 10 62  1  0  0  0  0
 11 16  1  0  0  0  0
 11 18  2  0  0  0  0
 12 13  1  0  0  0  0
 12 39  1  0  0  0  0
 12 40  1  0  0  0  0
 13 16  2  0  0  0  0
 13 20  1  0  0  0  0
 14 15  1  0  0  0  0
 14 17  2  0  0  0  0
 14 18  1  0  0  0  0
 15 26  1  0  0  0  0
 15 29  1  0  0  0  0
 17 21  1  0  0  0  0
 17 27  1  0  0  0  0
 18 41  1  0  0  0  0
 19 22  1  0  0  0  0
 19 23  1  0  0  0  0
 19 42  1  0  0  0  0
 20 28  2  0  0  0  0
 20 31  1  0  0  0  0
 22 25  1  0  0  0  0
 22 45  1  0  0  0  0
 22 46  1  0  0  0  0
 23 24  1  0  0  0  0
 23 43  1  0  0  0  0
 23 44  1  0  0  0  0
 24 49  1  0  0  0  0
 24 50  1  0  0  0  0
 25 47  1  0  0  0  0
 25 48  1  0  0  0  0
 26 33  1  0  0  0  0
 26 51  1  0  0  0  0
 26 52  1  0  0  0  0
 27 53  1  0  0  0  0
 27 54  1  0  0  0  0
 28 30  1  0  0  0  0
 28 32  1  0  0  0  0
 30 36  1  0  0  0  0
 31 37  1  0  0  0  0
 31 55  1  0  0  0  0
 31 56  1  0  0  0  0
 32 35  2  0  0  0  0
 32 57  1  0  0  0  0
 33 58  1  0  0  0  0
 33 59  1  0  0  0  0
 33 60  1  0  0  0  0
 35 38  1  0  0  0  0
 36 38  2  0  0  0  0
 36 64  1  0  0  0  0
 37 65  1  0  0  0  0
 37 66  1  0  0  0  0
 37 67  1  0  0  0  0
 38 68  1  0  0  0  0
M  END
> <PUBCHEM_COMPOUND_CID>
11756356

> <PUBCHEM_COMPOUND_CANONICALIZED>
1

> <PUBCHEM_CACTVS_COMPLEXITY>
1080

> <PUBCHEM_CACTVS_HBOND_ACCEPTOR>
8

> <PUBCHEM_CACTVS_HBOND_DONOR>
2

> <PUBCHEM_CACTVS_ROTATABLE_BOND>
4

> <PUBCHEM_CACTVS_SUBSKEYS>
AAADceB7uAAAAAAAAAAAAAAAAAAAAWAAAAA8WIECAAAAAFix8AAAHgAQCAAADGzhngYyzvNIFgCoAyXyXAKCiCAhIiAImKF+bNgNZvbE8Zuecihm9hHL+QewwPAOgEABAAACAAAAgAIAAAQAAAAAAAAAAA==

> <PUBCHEM_IUPAC_INCHI>
InChI=1S/C28H30N4O6/c1-3-17-18-11-16(38-27(35)31-9-7-15(29)8-10-31)5-6-22(18)30-24-19(17)13-32-23(24)12-21-20(25(32)33)14-37-26(34)28(21,36)4-2/h5-6,11-12,15,36H,3-4,7-10,13-14,29H2,1-2H3/t28-/m0/s1

> <PUBCHEM_IUPAC_INCHIKEY>
APWFTHDYKJHNEV-NDEPHWFRSA-N

> <PUBCHEM_XLOGP3_AA>
1.2

> <PUBCHEM_EXACT_MASS>
518.216535

> <PUBCHEM_MOLECULAR_FORMULA>
C28H30N4O6

> <PUBCHEM_MOLECULAR_WEIGHT>
518.561

> <PUBCHEM_OPENEYE_CAN_SMILES>
CCC1=C2C=C(C=CC2=NC3=C1CN4C3=CC5=C(C4=O)COC(=O)C5(CC)O)OC(=O)N6CCC(CC6)N

> <PUBCHEM_OPENEYE_ISO_SMILES>
CCC1=C2C=C(C=CC2=NC3=C1CN4C3=CC5=C(C4=O)COC(=O)[C@@]5(CC)O)OC(=O)N6CCC(CC6)N

> <PUBCHEM_CACTVS_TPSA>
135

> <PUBCHEM_MONOISOTOPIC_WEIGHT>
518.216535

> <PUBCHEM_TOTAL_CHARGE>
0

> <PUBCHEM_HEAVY_ATOM_COUNT>
38

> <PUBCHEM_ATOM_DEF_STEREO_COUNT>
1

> <PUBCHEM_ATOM_UDEF_STEREO_COUNT>
0

> <PUBCHEM_BOND_DEF_STEREO_COUNT>
0

> <PUBCHEM_BOND_UDEF_STEREO_COUNT>
0

> <PUBCHEM_ISOTOPIC_ATOM_COUNT>
0

> <PUBCHEM_COMPONENT_COUNT>
1

> <PUBCHEM_CACTVS_TAUTO_COUNT>
1

> <PUBCHEM_COORDINATE_TYPE>
1
5
255

> <PUBCHEM_BONDANNOTATIONS>
11  18  8
13  16  8
13  20  8
14  17  8
14  18  8
17  21  8
15  2  5
20  28  8
28  30  8
28  32  8
30  36  8
32  35  8
35  38  8
36  38  8
7  11  8
7  21  8
9  16  8
9  30  8

$$$$

