13502
  -OEChem-06261214513D

 50 53  0     0  0  0  0  0  0999 V2000
   -1.4050    2.8164   -0.2023 Br  0  0  0  0  0  0  0  0  0  0  0  0
   -7.8252    1.5368    0.2654 F   0  0  0  0  0  0  0  0  0  0  0  0
    3.9999    0.0758   -0.4837 O   0  0  0  0  0  0  0  0  0  0  0  0
   -1.5911   -0.0555   -0.1109 C   0  0  0  0  0  0  0  0  0  0  0  0
   -0.0954   -0.0207   -0.2113 C   0  0  0  0  0  0  0  0  0  0  0  0
   -2.3004   -1.3227   -0.0288 C   0  0  0  0  0  0  0  0  0  0  0  0
   -2.2676    1.1389   -0.0981 C   0  0  0  0  0  0  0  0  0  0  0  0
    0.4761   -0.0388   -1.4593 C   0  0  0  0  0  0  0  0  0  0  0  0
    0.6346    0.0280    0.9506 C   0  0  0  0  0  0  0  0  0  0  0  0
    2.6425    0.0436   -0.3929 C   0  0  0  0  0  0  0  0  0  0  0  0
   -3.7380    1.2451   -0.0024 C   0  0  0  0  0  0  0  0  0  0  0  0
    1.8674   -0.0062   -1.5517 C   0  0  0  0  0  0  0  0  0  0  0  0
    2.0260    0.0607    0.8583 C   0  0  0  0  0  0  0  0  0  0  0  0
   -2.5603   -1.8971    1.2156 C   0  0  0  0  0  0  0  0  0  0  0  0
   -2.7207   -1.9638   -1.1943 C   0  0  0  0  0  0  0  0  0  0  0  0
    4.7319    0.1263    0.7401 C   0  0  0  0  0  0  0  0  0  0  0  0
    6.1989    0.1875    0.4313 C   0  0  0  0  0  0  0  0  0  0  0  0
   -4.3280    1.3265    1.2462 C   0  0  0  0  0  0  0  0  0  0  0  0
   -4.4906    1.2600   -1.1633 C   0  0  0  0  0  0  0  0  0  0  0  0
   -3.2402   -3.1126    1.2945 C   0  0  0  0  0  0  0  0  0  0  0  0
   -3.4007   -3.1791   -1.1152 C   0  0  0  0  0  0  0  0  0  0  0  0
   -3.6604   -3.7535    0.1292 C   0  0  0  0  0  0  0  0  0  0  0  0
    6.9259   -0.9911    0.3065 C   0  0  0  0  0  0  0  0  0  0  0  0
    6.8182    1.4223    0.2721 C   0  0  0  0  0  0  0  0  0  0  0  0
   -5.7163    1.4259    1.3371 C   0  0  0  0  0  0  0  0  0  0  0  0
   -5.8790    1.3595   -1.0725 C   0  0  0  0  0  0  0  0  0  0  0  0
   -6.4919    1.4425    0.1779 C   0  0  0  0  0  0  0  0  0  0  0  0
    8.2897   -0.9343    0.0192 C   0  0  0  0  0  0  0  0  0  0  0  0
    8.1819    1.4789   -0.0154 C   0  0  0  0  0  0  0  0  0  0  0  0
    8.9177    0.3006   -0.1418 C   0  0  0  0  0  0  0  0  0  0  0  0
   -0.1192   -0.0765   -2.3668 H   0  0  0  0  0  0  0  0  0  0  0  0
    0.1622    0.0419    1.9285 H   0  0  0  0  0  0  0  0  0  0  0  0
    2.3420   -0.0192   -2.5290 H   0  0  0  0  0  0  0  0  0  0  0  0
    2.5629    0.0964    1.7998 H   0  0  0  0  0  0  0  0  0  0  0  0
   -2.2408   -1.4108    2.1342 H   0  0  0  0  0  0  0  0  0  0  0  0
   -2.5274   -1.5299   -2.1724 H   0  0  0  0  0  0  0  0  0  0  0  0
    4.5371   -0.7680    1.3470 H   0  0  0  0  0  0  0  0  0  0  0  0
    4.4645    1.0200    1.3196 H   0  0  0  0  0  0  0  0  0  0  0  0
   -3.7350    1.3141    2.1568 H   0  0  0  0  0  0  0  0  0  0  0  0
   -4.0250    1.1954   -2.1431 H   0  0  0  0  0  0  0  0  0  0  0  0
   -3.4429   -3.5595    2.2634 H   0  0  0  0  0  0  0  0  0  0  0  0
   -3.7284   -3.6780   -2.0225 H   0  0  0  0  0  0  0  0  0  0  0  0
   -4.1901   -4.6997    0.1906 H   0  0  0  0  0  0  0  0  0  0  0  0
    6.4468   -1.9587    0.4272 H   0  0  0  0  0  0  0  0  0  0  0  0
    6.2547    2.3466    0.3657 H   0  0  0  0  0  0  0  0  0  0  0  0
   -6.1938    1.4898    2.3104 H   0  0  0  0  0  0  0  0  0  0  0  0
   -6.4830    1.3718   -1.9748 H   0  0  0  0  0  0  0  0  0  0  0  0
    8.8625   -1.8518   -0.0800 H   0  0  0  0  0  0  0  0  0  0  0  0
    8.6710    2.4404   -0.1416 H   0  0  0  0  0  0  0  0  0  0  0  0
    9.9794    0.3448   -0.3659 H   0  0  0  0  0  0  0  0  0  0  0  0
  1  7  1  0  0  0  0
  2 27  1  0  0  0  0
  3 10  1  0  0  0  0
  3 16  1  0  0  0  0
  4  5  1  0  0  0  0
  4  6  1  0  0  0  0
  4  7  2  0  0  0  0
  5  8  2  0  0  0  0
  5  9  1  0  0  0  0
  6 14  2  0  0  0  0
  6 15  1  0  0  0  0
  7 11  1  0  0  0  0
  8 12  1  0  0  0  0
  8 31  1  0  0  0  0
  9 13  2  0  0  0  0
  9 32  1  0  0  0  0
 10 12  2  0  0  0  0
 10 13  1  0  0  0  0
 11 18  2  0  0  0  0
 11 19  1  0  0  0  0
 12 33  1  0  0  0  0
 13 34  1  0  0  0  0
 14 20  1  0  0  0  0
 14 35  1  0  0  0  0
 15 21  2  0  0  0  0
 15 36  1  0  0  0  0
 16 17  1  0  0  0  0
 16 37  1  0  0  0  0
 16 38  1  0  0  0  0
 17 23  2  0  0  0  0
 17 24  1  0  0  0  0
 18 25  1  0  0  0  0
 18 39  1  0  0  0  0
 19 26  2  0  0  0  0
 19 40  1  0  0  0  0
 20 22  2  0  0  0  0
 20 41  1  0  0  0  0
 21 22  1  0  0  0  0
 21 42  1  0  0  0  0
 22 43  1  0  0  0  0
 23 28  1  0  0  0  0
 23 44  1  0  0  0  0
 24 29  2  0  0  0  0
 24 45  1  0  0  0  0
 25 27  2  0  0  0  0
 25 46  1  0  0  0  0
 26 27  1  0  0  0  0
 26 47  1  0  0  0  0
 28 30  2  0  0  0  0
 28 48  1  0  0  0  0
 29 30  1  0  0  0  0
 29 49  1  0  0  0  0
 30 50  1  0  0  0  0
M  END
> <PUBCHEM_COMPOUND_CID>
13502

> <PUBCHEM_CONFORMER_RMSD>
0.8

> <PUBCHEM_CONFORMER_DIVERSEORDER>
1
3
10
2
4
7
8
5
6
9
14
13
12
11

> <PUBCHEM_MMFF94_PARTIAL_CHARGES>
48
1 -0.11
10 0.08
11 0.03
12 -0.15
13 -0.15
14 -0.15
15 -0.15
16 0.42
17 -0.14
18 -0.15
19 -0.15
2 -0.19
20 -0.15
21 -0.15
22 -0.15
23 -0.15
24 -0.15
25 -0.15
26 -0.15
27 0.19
28 -0.15
29 -0.15
3 -0.36
30 -0.15
31 0.15
32 0.15
33 0.15
34 0.15
35 0.15
36 0.15
39 0.15
4 -0.06
40 0.15
41 0.15
42 0.15
43 0.15
44 0.15
45 0.15
46 0.15
47 0.15
48 0.15
49 0.15
5 0.03
50 0.15
6 0.03
7 0.08
8 -0.15
9 -0.15

> <PUBCHEM_EFFECTIVE_ROTOR_COUNT>
6

> <PUBCHEM_PHARMACOPHORE_FEATURES>
6
1 1 hydrophobe
1 3 acceptor
6 11 18 19 25 26 27 rings
6 17 23 24 28 29 30 rings
6 5 8 9 10 12 13 rings
6 6 14 15 20 21 22 rings

> <PUBCHEM_HEAVY_ATOM_COUNT>
30

> <PUBCHEM_ATOM_DEF_STEREO_COUNT>
0

> <PUBCHEM_ATOM_UDEF_STEREO_COUNT>
0

> <PUBCHEM_BOND_DEF_STEREO_COUNT>
0

> <PUBCHEM_BOND_UDEF_STEREO_COUNT>
1

> <PUBCHEM_ISOTOPIC_ATOM_COUNT>
0

> <PUBCHEM_COMPONENT_COUNT>
1

> <PUBCHEM_CACTVS_TAUTO_COUNT>
1

> <PUBCHEM_CONFORMER_ID>
000034BE00000001

> <PUBCHEM_MMFF94_ENERGY>
108.0962

> <PUBCHEM_FEATURE_SELFOVERLAP>
30.446

> <PUBCHEM_SHAPE_FINGERPRINT>
10 15 17917711322891531168
10050765 1 18193839245222399528
10119406 146 18262794202230505966
11135926 11 16271938108011826658
11315181 36 18186240610604138392
11331351 85 17775002427715767044
11578080 2 17751359470369954353
12539745 222 18115295675859676227
12616971 3 17060331899558476118
13540713 5 17986094220172927669
13947920 75 18410019827660963435
15021287 119 16845568695467055487
15183329 4 14707205514411787300
15439362 3 18121781901115104959
15461852 350 17458629982003397764
1577012 14 17988074497124451156
15849732 13 17632294609795628805
17093844 174 18334861589173274082
17980427 23 18130222658196219190
19315958 150 18338794627706303679
21033648 29 17896054182662085400
21236236 1 18411702045490576042
21756936 100 17704073997601193499
21792961 116 17458337555788340562
23559900 14 18336274461551799176
249057 3 18343019990831006532
25269216 80 18057301943494800822
4073 2 18413106139836857754
4403749 210 18115595838275644054
44802255 64 17917160485025524807
6009941 240 18409728456984754778
6086070 43 17240494580456343138
6669772 16 18339076124928607847
6691757 9 18335697244070448451
7226269 152 18410577314189390777
9831232 110 10735340748532565608
9953998 17 18413109446702829408

> <PUBCHEM_SHAPE_MULTIPOLES>
610.19
23
3.08
1.27
48.36
2.65
0.08
-7.27
-2.1
-6.25
-0.11
-1.18
0.21
-0.13

> <PUBCHEM_SHAPE_SELFOVERLAP>
1330.659

> <PUBCHEM_SHAPE_VOLUME>
337.3

> <PUBCHEM_COORDINATE_TYPE>
2
5
10

$$$$

