171489
  -OEChem-07051212593D

 50 50  0     0  0  0  0  0  0999 V2000
    3.2574    2.7742    0.0330 O   0  0  0  0  0  0  0  0  0  0  0  0
    3.0990   -1.8298   -1.1225 O   0  0  0  0  0  0  0  0  0  0  0  0
    5.5576   -2.3599    0.0256 O   0  0  0  0  0  0  0  0  0  0  0  0
    5.7103    2.2038    1.1670 O   0  0  0  0  0  0  0  0  0  0  0  0
   -3.2622    0.3114   -0.6161 C   0  0  0  0  0  0  0  0  0  0  0  0
   -4.4106    0.0465    0.3590 C   0  0  0  0  0  0  0  0  0  0  0  0
   -1.9037    0.1944    0.0790 C   0  0  0  0  0  0  0  0  0  0  0  0
   -5.7672    0.1305   -0.3428 C   0  0  0  0  0  0  0  0  0  0  0  0
   -0.7581    0.4929   -0.8906 C   0  0  0  0  0  0  0  0  0  0  0  0
   -6.9142   -0.1675    0.6256 C   0  0  0  0  0  0  0  0  0  0  0  0
    0.6291    0.3603   -0.2542 C   0  0  0  0  0  0  0  0  0  0  0  0
   -8.2679   -0.1155   -0.0864 C   0  0  0  0  0  0  0  0  0  0  0  0
    1.7735    0.6345   -1.2313 C   0  0  0  0  0  0  0  0  0  0  0  0
   -9.4492   -0.4302    0.8338 C   0  0  0  0  0  0  0  0  0  0  0  0
    3.1071    0.4840   -0.5782 C   0  0  0  0  0  0  0  0  0  0  0  0
  -10.7991   -0.3545    0.1372 C   0  0  0  0  0  0  0  0  0  0  0  0
    3.7741    1.4935    0.0017 C   0  0  0  0  0  0  0  0  0  0  0  0
    3.6892   -0.8894   -0.5981 C   0  0  0  0  0  0  0  0  0  0  0  0
    5.0119   -1.0928    0.0392 C   0  0  0  0  0  0  0  0  0  0  0  0
    5.0985    1.2820    0.6364 C   0  0  0  0  0  0  0  0  0  0  0  0
    5.6628   -0.0794    0.6117 C   0  0  0  0  0  0  0  0  0  0  0  0
    5.1618   -3.0892    1.1710 C   0  0  0  0  0  0  0  0  0  0  0  0
   -3.3111   -0.4034   -1.4465 H   0  0  0  0  0  0  0  0  0  0  0  0
   -3.3714    1.3147   -1.0459 H   0  0  0  0  0  0  0  0  0  0  0  0
   -4.2897   -0.9483    0.8048 H   0  0  0  0  0  0  0  0  0  0  0  0
   -4.3741    0.7746    1.1785 H   0  0  0  0  0  0  0  0  0  0  0  0
   -1.8579    0.8927    0.9234 H   0  0  0  0  0  0  0  0  0  0  0  0
   -1.7850   -0.8163    0.4875 H   0  0  0  0  0  0  0  0  0  0  0  0
   -5.8983    1.1308   -0.7729 H   0  0  0  0  0  0  0  0  0  0  0  0
   -5.7944   -0.5850   -1.1737 H   0  0  0  0  0  0  0  0  0  0  0  0
   -0.8744    1.5092   -1.2871 H   0  0  0  0  0  0  0  0  0  0  0  0
   -0.8234   -0.1904   -1.7466 H   0  0  0  0  0  0  0  0  0  0  0  0
   -6.9030    0.5588    1.4471 H   0  0  0  0  0  0  0  0  0  0  0  0
   -6.7740   -1.1606    1.0691 H   0  0  0  0  0  0  0  0  0  0  0  0
    0.6960    1.0521    0.5954 H   0  0  0  0  0  0  0  0  0  0  0  0
    0.7321   -0.6517    0.1580 H   0  0  0  0  0  0  0  0  0  0  0  0
   -8.4083    0.8818   -0.5217 H   0  0  0  0  0  0  0  0  0  0  0  0
   -8.2669   -0.8275   -0.9210 H   0  0  0  0  0  0  0  0  0  0  0  0
    1.6616    1.6490   -1.6354 H   0  0  0  0  0  0  0  0  0  0  0  0
    1.6909   -0.0253   -2.1037 H   0  0  0  0  0  0  0  0  0  0  0  0
   -9.4482    0.2700    1.6776 H   0  0  0  0  0  0  0  0  0  0  0  0
   -9.3236   -1.4349    1.2549 H   0  0  0  0  0  0  0  0  0  0  0  0
  -10.8510   -1.0683   -0.6910 H   0  0  0  0  0  0  0  0  0  0  0  0
  -10.9760    0.6489   -0.2626 H   0  0  0  0  0  0  0  0  0  0  0  0
  -11.6041   -0.5886    0.8407 H   0  0  0  0  0  0  0  0  0  0  0  0
    6.6320   -0.2235    1.0776 H   0  0  0  0  0  0  0  0  0  0  0  0
    3.9000    3.3382    0.4970 H   0  0  0  0  0  0  0  0  0  0  0  0
    5.5965   -4.0910    1.1040 H   0  0  0  0  0  0  0  0  0  0  0  0
    4.0726   -3.1977    1.2205 H   0  0  0  0  0  0  0  0  0  0  0  0
    5.5345   -2.6217    2.0892 H   0  0  0  0  0  0  0  0  0  0  0  0
  1 17  1  0  0  0  0
  1 47  1  0  0  0  0
  2 18  2  0  0  0  0
  3 19  1  0  0  0  0
  3 22  1  0  0  0  0
  4 20  2  0  0  0  0
  5  6  1  0  0  0  0
  5  7  1  0  0  0  0
  5 23  1  0  0  0  0
  5 24  1  0  0  0  0
  6  8  1  0  0  0  0
  6 25  1  0  0  0  0
  6 26  1  0  0  0  0
  7  9  1  0  0  0  0
  7 27  1  0  0  0  0
  7 28  1  0  0  0  0
  8 10  1  0  0  0  0
  8 29  1  0  0  0  0
  8 30  1  0  0  0  0
  9 11  1  0  0  0  0
  9 31  1  0  0  0  0
  9 32  1  0  0  0  0
 10 12  1  0  0  0  0
 10 33  1  0  0  0  0
 10 34  1  0  0  0  0
 11 13  1  0  0  0  0
 11 35  1  0  0  0  0
 11 36  1  0  0  0  0
 12 14  1  0  0  0  0
 12 37  1  0  0  0  0
 12 38  1  0  0  0  0
 13 15  1  0  0  0  0
 13 39  1  0  0  0  0
 13 40  1  0  0  0  0
 14 16  1  0  0  0  0
 14 41  1  0  0  0  0
 14 42  1  0  0  0  0
 15 17  2  0  0  0  0
 15 18  1  0  0  0  0
 16 43  1  0  0  0  0
 16 44  1  0  0  0  0
 16 45  1  0  0  0  0
 17 20  1  0  0  0  0
 18 19  1  0  0  0  0
 19 21  2  0  0  0  0
 20 21  1  0  0  0  0
 21 46  1  0  0  0  0
 22 48  1  0  0  0  0
 22 49  1  0  0  0  0
 22 50  1  0  0  0  0
M  END
> <PUBCHEM_COMPOUND_CID>
171489

> <PUBCHEM_CONFORMER_RMSD>
1.2

> <PUBCHEM_CONFORMER_DIVERSEORDER>
1
69
4
72
17
22
111
20
46
19
10
33
31
57
85
88
105
9
7
24
64
56
76
52
82
92
78
51
110
106
95
29
8
16
34
26
43
42
47
108
93
13
2
73
53
66
55
49
84
58
97
62
112
11
94
79
109
71
114
74
50
100
35
36
86
27
67
30
44
25
6
104
28
32
96
38
61
3
87
18
12
14
113
68
45
63
37
98
59
54
101
99
41
83
23
75
5
21
39
90
65
80
81
40
77
15
89
103
48
70
60
107
91
102

> <PUBCHEM_MMFF94_PARTIAL_CHARGES>
14
1 -0.53
13 0.14
15 -0.12
17 0.09
18 0.54
19 0.09
2 -0.57
20 0.54
21 -0.14
22 0.28
3 -0.36
4 -0.57
46 0.15
47 0.45

> <PUBCHEM_EFFECTIVE_ROTOR_COUNT>
11

> <PUBCHEM_PHARMACOPHORE_FEATURES>
6
1 1 donor
1 16 hydrophobe
1 2 acceptor
1 3 acceptor
1 4 acceptor
6 15 17 18 19 20 21 rings

> <PUBCHEM_HEAVY_ATOM_COUNT>
22

> <PUBCHEM_ATOM_DEF_STEREO_COUNT>
0

> <PUBCHEM_ATOM_UDEF_STEREO_COUNT>
0

> <PUBCHEM_BOND_DEF_STEREO_COUNT>
0

> <PUBCHEM_BOND_UDEF_STEREO_COUNT>
0

> <PUBCHEM_ISOTOPIC_ATOM_COUNT>
0

> <PUBCHEM_COMPONENT_COUNT>
1

> <PUBCHEM_CACTVS_TAUTO_COUNT>
26

> <PUBCHEM_CONFORMER_ID>
00029DE100000001

> <PUBCHEM_MMFF94_ENERGY>
26.0746

> <PUBCHEM_FEATURE_SELFOVERLAP>
30.45

> <PUBCHEM_SHAPE_FINGERPRINT>
10666366 153 17417816175601498951
11315181 36 8862942781072081623
11638347 137 18412822495954104699
13533116 47 18411420626801685682
13617811 41 15626223537268541167
13885169 127 18130788993481012317
14216079 64 17918274277292848419
14251764 18 16805322189757099273
14251764 46 14345789452721577636
15183329 4 15502369020530999499
15419008 91 17774458109388861637
15475509 35 17774451602534260082
16120349 18 18186805743255761241
20157964 124 18259701190079469309
20165401 70 18411423946532954287
20397935 70 18334009523470000902
20554085 129 15502377842109372295
21150785 3 11095882662393187711
21315763 28 18411135849575671789
21344244 78 17822018657220818696
21362267 313 17604701305510080019
21781051 124 15410599386140804201
21792934 111 18413390939287177541
22224240 67 14129061431175587133
28498 318 17918274269114260239
33532 11 18202845474595052171
4073 2 18199466575950784450
5104073 3 18263369238627969800
5758199 1 13767920231557299589

> <PUBCHEM_SHAPE_MULTIPOLES>
429.27
29.32
2.15
1.02
89.7
0.82
-0.02
7.1
7.83
-6.92
0.59
-0.68
0.04
0.6

> <PUBCHEM_SHAPE_SELFOVERLAP>
845.603

> <PUBCHEM_SHAPE_VOLUME>
255.7

> <PUBCHEM_COORDINATE_TYPE>
2
5
10

$$$$

