161336
  -OEChem-07051212482D

 72 76  0     1  0  0  0  0  0999 V2000
   10.0296   -0.4537    0.0000 O   0  0  0  0  0  0  0  0  0  0  0  0
    8.8559    0.8200    0.0000 O   0  0  0  0  0  0  0  0  0  0  0  0
   10.5458    1.1997    0.0000 O   0  0  0  0  0  0  0  0  0  0  0  0
   11.9388   -1.0497    0.0000 O   0  0  0  0  0  0  0  0  0  0  0  0
   13.4095    0.3057    0.0000 O   0  0  0  0  0  0  0  0  0  0  0  0
   12.9711    2.2570    0.0000 O   0  0  0  0  0  0  0  0  0  0  0  0
    5.9922    1.7140    0.0000 O   0  0  0  0  0  0  0  0  0  0  0  0
   11.7973    3.5307    0.0000 O   0  0  0  0  0  0  0  0  0  0  0  0
    5.4760    0.0606    0.0000 O   0  0  0  0  0  0  0  0  0  0  0  0
    7.0547   -2.9363    0.0000 N   0  0  0  0  0  0  0  0  0  0  0  0
    4.5274   -1.8121    0.0000 N   0  0  0  0  0  0  0  0  0  0  0  0
    7.3851   -0.5354    0.0000 C   0  0  1  0  0  0  0  0  0  0  0  0
    6.3518   -2.1676    0.0000 C   0  0  1  0  0  0  0  0  0  0  0  0
    6.6498   -1.2130    0.0000 C   0  0  0  0  0  0  0  0  0  0  0  0
    8.3397   -0.8334    0.0000 C   0  0  2  0  0  0  0  0  0  0  0  0
    9.0751   -0.1557    0.0000 C   0  0  2  0  0  0  0  0  0  0  0  0
    5.3364   -2.3998    0.0000 C   0  0  0  0  0  0  0  0  0  0  0  0
    5.0274   -3.3509    0.0000 C   0  0  0  0  0  0  0  0  0  0  0  0
    7.1659    0.4403    0.0000 C   0  0  0  0  0  0  0  0  0  0  0  0
   10.7650    0.2240    0.0000 C   0  0  2  0  0  0  0  0  0  0  0  0
    5.7123   -4.1356    0.0000 C   0  0  0  0  0  0  0  0  0  0  0  0
    6.7328   -3.9269    0.0000 C   0  0  0  0  0  0  0  0  0  0  0  0
   11.7196   -0.0740    0.0000 C   0  0  1  0  0  0  0  0  0  0  0  0
   12.4549    0.6037    0.0000 C   0  0  2  0  0  0  0  0  0  0  0  0
   12.2357    1.5794    0.0000 C   0  0  1  0  0  0  0  0  0  0  0  0
   11.2811    1.8774    0.0000 C   0  0  1  0  0  0  0  0  0  0  0  0
    4.0274   -3.3509    0.0000 C   0  0  0  0  0  0  0  0  0  0  0  0
    8.5589   -1.8090    0.0000 C   0  0  0  0  0  0  0  0  0  0  0  0
    7.9013    1.1180    0.0000 C   0  0  0  0  0  0  0  0  0  0  0  0
    3.7183   -2.3998    0.0000 C   0  0  0  0  0  0  0  0  0  0  0  0
    6.2114    0.7383    0.0000 C   0  0  0  0  0  0  0  0  0  0  0  0
   11.0619    2.8530    0.0000 C   0  0  0  0  0  0  0  0  0  0  0  0
    3.3424   -4.1356    0.0000 C   0  0  0  0  0  0  0  0  0  0  0  0
    2.7029   -2.1676    0.0000 C   0  0  0  0  0  0  0  0  0  0  0  0
    9.5135   -2.1070    0.0000 C   0  0  0  0  0  0  0  0  0  0  0  0
    2.3219   -3.9269    0.0000 C   0  0  0  0  0  0  0  0  0  0  0  0
    2.0000   -2.9363    0.0000 C   0  0  0  0  0  0  0  0  0  0  0  0
    5.0376    2.0120    0.0000 C   0  0  0  0  0  0  0  0  0  0  0  0
    6.7933   -0.3506    0.0000 H   0  0  0  0  0  0  0  0  0  0  0  0
    6.9570   -2.0329    0.0000 H   0  0  0  0  0  0  0  0  0  0  0  0
    6.4109   -0.6409    0.0000 H   0  0  0  0  0  0  0  0  0  0  0  0
    7.1736   -1.5447    0.0000 H   0  0  0  0  0  0  0  0  0  0  0  0
    8.9315   -1.0181    0.0000 H   0  0  0  0  0  0  0  0  0  0  0  0
    9.2110   -0.7606    0.0000 H   0  0  0  0  0  0  0  0  0  0  0  0
    7.6607   -2.8050    0.0000 H   0  0  0  0  0  0  0  0  0  0  0  0
   10.9009   -0.3809    0.0000 H   0  0  0  0  0  0  0  0  0  0  0  0
    5.1824   -4.4574    0.0000 H   0  0  0  0  0  0  0  0  0  0  0  0
    5.9387   -4.7129    0.0000 H   0  0  0  0  0  0  0  0  0  0  0  0
    6.7513   -4.5467    0.0000 H   0  0  0  0  0  0  0  0  0  0  0  0
    7.3466   -4.0148    0.0000 H   0  0  0  0  0  0  0  0  0  0  0  0
   11.2636   -0.4942    0.0000 H   0  0  0  0  0  0  0  0  0  0  0  0
   12.9108    1.0238    0.0000 H   0  0  0  0  0  0  0  0  0  0  0  0
   12.0998    2.1843    0.0000 H   0  0  0  0  0  0  0  0  0  0  0  0
   10.6893    2.0621    0.0000 H   0  0  0  0  0  0  0  0  0  0  0  0
    4.5274   -1.1921    0.0000 H   0  0  0  0  0  0  0  0  0  0  0  0
    8.1030   -2.2292    0.0000 H   0  0  0  0  0  0  0  0  0  0  0  0
    7.7654    1.7229    0.0000 H   0  0  0  0  0  0  0  0  0  0  0  0
   10.7273    3.3750    0.0000 H   0  0  0  0  0  0  0  0  0  0  0  0
   10.4898    2.6142    0.0000 H   0  0  0  0  0  0  0  0  0  0  0  0
    3.5408   -4.7230    0.0000 H   0  0  0  0  0  0  0  0  0  0  0  0
    2.5182   -1.5758    0.0000 H   0  0  0  0  0  0  0  0  0  0  0  0
   12.5306   -1.2344    0.0000 H   0  0  0  0  0  0  0  0  0  0  0  0
   13.8654    0.7258    0.0000 H   0  0  0  0  0  0  0  0  0  0  0  0
    9.6494   -2.7120    0.0000 H   0  0  0  0  0  0  0  0  0  0  0  0
    9.9694   -1.6869    0.0000 H   0  0  0  0  0  0  0  0  0  0  0  0
   13.5629    2.0723    0.0000 H   0  0  0  0  0  0  0  0  0  0  0  0
    1.9088   -4.3893    0.0000 H   0  0  0  0  0  0  0  0  0  0  0  0
    1.3940   -2.8050    0.0000 H   0  0  0  0  0  0  0  0  0  0  0  0
   11.6614    4.1356    0.0000 H   0  0  0  0  0  0  0  0  0  0  0  0
    5.2223    2.6038    0.0000 H   0  0  0  0  0  0  0  0  0  0  0  0
    4.4458    2.1968    0.0000 H   0  0  0  0  0  0  0  0  0  0  0  0
    4.8528    1.4202    0.0000 H   0  0  0  0  0  0  0  0  0  0  0  0
 16  1  1  1  0  0  0
 20  1  1  6  0  0  0
  2 16  1  0  0  0  0
  2 29  1  0  0  0  0
  3 20  1  0  0  0  0
  3 26  1  0  0  0  0
 23  4  1  1  0  0  0
  4 62  1  0  0  0  0
 24  5  1  6  0  0  0
  5 63  1  0  0  0  0
 25  6  1  1  0  0  0
  6 66  1  0  0  0  0
  7 31  1  0  0  0  0
  7 38  1  0  0  0  0
  8 32  1  0  0  0  0
  8 69  1  0  0  0  0
  9 31  2  0  0  0  0
 10 13  1  0  0  0  0
 10 22  1  0  0  0  0
 10 45  1  0  0  0  0
 11 17  1  0  0  0  0
 11 30  1  0  0  0  0
 11 55  1  0  0  0  0
 12 14  1  6  0  0  0
 12 15  1  0  0  0  0
 12 19  1  0  0  0  0
 12 39  1  0  0  0  0
 13 14  1  6  0  0  0
 13 17  1  0  0  0  0
 13 40  1  0  0  0  0
 14 41  1  0  0  0  0
 14 42  1  0  0  0  0
 15 16  1  0  0  0  0
 15 28  1  6  0  0  0
 15 43  1  0  0  0  0
 16 44  1  0  0  0  0
 17 18  2  0  0  0  0
 18 21  1  0  0  0  0
 18 27  1  0  0  0  0
 19 29  2  0  0  0  0
 19 31  1  0  0  0  0
 20 23  1  0  0  0  0
 20 46  1  0  0  0  0
 21 22  1  0  0  0  0
 21 47  1  0  0  0  0
 21 48  1  0  0  0  0
 22 49  1  0  0  0  0
 22 50  1  0  0  0  0
 23 24  1  0  0  0  0
 23 51  1  0  0  0  0
 24 25  1  0  0  0  0
 24 52  1  0  0  0  0
 25 26  1  0  0  0  0
 25 53  1  0  0  0  0
 26 32  1  6  0  0  0
 26 54  1  0  0  0  0
 27 30  1  0  0  0  0
 27 33  2  0  0  0  0
 28 35  2  0  0  0  0
 28 56  1  0  0  0  0
 29 57  1  0  0  0  0
 30 34  2  0  0  0  0
 32 58  1  0  0  0  0
 32 59  1  0  0  0  0
 33 36  1  0  0  0  0
 33 60  1  0  0  0  0
 34 37  1  0  0  0  0
 34 61  1  0  0  0  0
 35 64  1  0  0  0  0
 35 65  1  0  0  0  0
 36 37  2  0  0  0  0
 36 67  1  0  0  0  0
 37 68  1  0  0  0  0
 38 70  1  0  0  0  0
 38 71  1  0  0  0  0
 38 72  1  0  0  0  0
M  END
> <PUBCHEM_COMPOUND_CID>
161336

> <PUBCHEM_COMPOUND_CANONICALIZED>
1

> <PUBCHEM_CACTVS_COMPLEXITY>
887

> <PUBCHEM_CACTVS_HBOND_ACCEPTOR>
10

> <PUBCHEM_CACTVS_HBOND_DONOR>
6

> <PUBCHEM_CACTVS_ROTATABLE_BOND>
8

> <PUBCHEM_CACTVS_SUBSKEYS>
AAADcfB7PAAAAAAAAAAAAAAAAAAAAWAAAAA8SIEAAAAAAFgB8AAAHgAQCAAADTzxngcyyPLJlgCoAyTyTACCiCAhIiAImaE4ZNgZdPLAsZG2YAhl0ADP6IfY/e+egAAAAAACAAAAAAAAAAQAAAAAAAAAAA==

> <PUBCHEM_IUPAC_OPENEYE_NAME>
methyl (2S,3R,4S)-4-[[(1S)-2,3,4,9-tetrahydro-1H-pyrido[3,4-b]indol-1-yl]methyl]-2-[(2S,3R,4S,5S,6R)-3,4,5-trihydroxy-6-(hydroxymethyl)tetrahydropyran-2-yl]oxy-3-vinyl-3,4-dihydro-2H-pyran-5-carboxylate

> <PUBCHEM_IUPAC_CAS_NAME>
(2S,3R,4S)-3-ethenyl-4-[[(1S)-2,3,4,9-tetrahydro-1H-pyrido[3,4-b]indol-1-yl]methyl]-2-[[(2S,3R,4S,5S,6R)-3,4,5-trihydroxy-6-(hydroxymethyl)-2-oxanyl]oxy]-3,4-dihydro-2H-pyran-5-carboxylic acid methyl ester

> <PUBCHEM_IUPAC_NAME>
methyl (2S,3R,4S)-3-ethenyl-4-[[(1S)-2,3,4,9-tetrahydro-1H-pyrido[3,4-b]indol-1-yl]methyl]-2-[(2S,3R,4S,5S,6R)-3,4,5-trihydroxy-6-(hydroxymethyl)oxan-2-yl]oxy-3,4-dihydro-2H-pyran-5-carboxylate

> <PUBCHEM_IUPAC_SYSTEMATIC_NAME>
methyl (2S,3R,4S)-3-ethenyl-2-[(2S,3R,4S,5S,6R)-6-(hydroxymethyl)-3,4,5-tris(oxidanyl)oxan-2-yl]oxy-4-[[(1S)-2,3,4,9-tetrahydro-1H-pyrido[3,4-b]indol-1-yl]methyl]-3,4-dihydro-2H-pyran-5-carboxylate

> <PUBCHEM_IUPAC_TRADITIONAL_NAME>
(2S,3R,4S)-4-[[(1S)-2,3,4,9-tetrahydro-1H-$b-carbolin-1-yl]methyl]-2-[(2S,3R,4S,5S,6R)-3,4,5-trihydroxy-6-methylol-tetrahydropyran-2-yl]oxy-3-vinyl-3,4-dihydro-2H-pyran-5-carboxylic acid methyl ester

> <PUBCHEM_IUPAC_INCHI>
InChI=1S/C27H34N2O9/c1-3-13-16(10-19-21-15(8-9-28-19)14-6-4-5-7-18(14)29-21)17(25(34)35-2)12-36-26(13)38-27-24(33)23(32)22(31)20(11-30)37-27/h3-7,12-13,16,19-20,22-24,26-33H,1,8-11H2,2H3/t13-,16+,19+,20-,22-,23+,24-,26+,27+/m1/s1

> <PUBCHEM_IUPAC_INCHIKEY>
XBAMJZTXGWPTRM-NTXHKPOFSA-N

> <PUBCHEM_XLOGP3_AA>
0.6

> <PUBCHEM_EXACT_MASS>
530.226431

> <PUBCHEM_MOLECULAR_FORMULA>
C27H34N2O9

> <PUBCHEM_MOLECULAR_WEIGHT>
530.56686

> <PUBCHEM_OPENEYE_CAN_SMILES>
COC(=O)C1=COC(C(C1CC2C3=C(CCN2)C4=CC=CC=C4N3)C=C)OC5C(C(C(C(O5)CO)O)O)O

> <PUBCHEM_OPENEYE_ISO_SMILES>
COC(=O)C1=CO[C@H]([C@@H]([C@@H]1C[C@H]2C3=C(CCN2)C4=CC=CC=C4N3)C=C)O[C@H]5[C@@H]([C@H]([C@@H]([C@H](O5)CO)O)O)O

> <PUBCHEM_CACTVS_TPSA>
163

> <PUBCHEM_MONOISOTOPIC_WEIGHT>
530.226431

> <PUBCHEM_TOTAL_CHARGE>
0

> <PUBCHEM_HEAVY_ATOM_COUNT>
38

> <PUBCHEM_ATOM_DEF_STEREO_COUNT>
9

> <PUBCHEM_ATOM_UDEF_STEREO_COUNT>
0

> <PUBCHEM_BOND_DEF_STEREO_COUNT>
0

> <PUBCHEM_BOND_UDEF_STEREO_COUNT>
0

> <PUBCHEM_ISOTOPIC_ATOM_COUNT>
0

> <PUBCHEM_COMPONENT_COUNT>
1

> <PUBCHEM_CACTVS_TAUTO_COUNT>
1

> <PUBCHEM_COORDINATE_TYPE>
1
5
255

> <PUBCHEM_BONDANNOTATIONS>
16  1  5
20  1  6
11  17  8
11  30  8
12  14  6
13  14  6
15  28  6
17  18  8
18  27  8
26  32  6
27  30  8
27  33  8
30  34  8
33  36  8
34  37  8
36  37  8
23  4  5
24  5  6
25  6  5

$$$$

