247305
  -OEChem-07051213062D

 55 58  0     1  0  0  0  0  0999 V2000
    5.2710   -2.3087    0.0000 S   0  0  0  0  0  0  0  0  0  0  0  0
    4.3792    1.2968    0.0000 S   0  0  0  0  0  0  0  0  0  0  0  0
    9.1857    2.4950    0.0000 O   0  0  0  0  0  0  0  0  0  0  0  0
    2.5357   -1.8126    0.0000 O   0  0  0  0  0  0  0  0  0  0  0  0
    6.1968    0.2397    0.0000 C   0  0  1  0  0  0  0  0  0  0  0  0
    7.0628   -0.2603    0.0000 C   0  0  2  0  0  0  0  0  0  0  0  0
    5.2868   -0.2671    0.0000 C   0  0  2  0  0  0  0  0  0  0  0  0
    7.9288    0.2397    0.0000 C   0  0  1  0  0  0  0  0  0  0  0  0
    7.9288    1.2397    0.0000 C   0  0  2  0  0  0  0  0  0  0  0  0
    5.2787   -1.3087    0.0000 C   0  0  2  0  0  0  0  0  0  0  0  0
    6.1968    1.2397    0.0000 C   0  0  0  0  0  0  0  0  0  0  0  0
    7.0789   -1.3018    0.0000 C   0  0  0  0  0  0  0  0  0  0  0  0
    7.0628    1.7397    0.0000 C   0  0  0  0  0  0  0  0  0  0  0  0
    6.1808   -1.8295    0.0000 C   0  0  0  0  0  0  0  0  0  0  0  0
    8.8750   -0.0650    0.0000 C   0  0  0  0  0  0  0  0  0  0  0  0
    8.8750    1.5445    0.0000 C   0  0  2  0  0  0  0  0  0  0  0  0
    4.3599    0.2970    0.0000 C   0  0  2  0  0  0  0  0  0  0  0  0
    9.4586    0.7397    0.0000 C   0  0  0  0  0  0  0  0  0  0  0  0
    4.3433   -1.8584    0.0000 C   0  0  0  0  0  0  0  0  0  0  0  0
    5.2945    0.7328    0.0000 C   0  0  0  0  0  0  0  0  0  0  0  0
    7.9288    2.2397    0.0000 C   0  0  0  0  0  0  0  0  0  0  0  0
    3.4120   -0.2310    0.0000 C   0  0  0  0  0  0  0  0  0  0  0  0
    3.4037   -1.3160    0.0000 C   0  0  1  0  0  0  0  0  0  0  0  0
    6.9329    0.6647    0.0000 H   0  0  0  0  0  0  0  0  0  0  0  0
    7.8022   -0.6796    0.0000 H   0  0  0  0  0  0  0  0  0  0  0  0
    8.0188   -0.6055    0.0000 H   0  0  0  0  0  0  0  0  0  0  0  0
    5.9847    1.8223    0.0000 H   0  0  0  0  0  0  0  0  0  0  0  0
    5.5862    1.1321    0.0000 H   0  0  0  0  0  0  0  0  0  0  0  0
    7.2969   -1.8822    0.0000 H   0  0  0  0  0  0  0  0  0  0  0  0
    7.6880   -1.1863    0.0000 H   0  0  0  0  0  0  0  0  0  0  0  0
    7.4613    2.2147    0.0000 H   0  0  0  0  0  0  0  0  0  0  0  0
    6.6643    2.2147    0.0000 H   0  0  0  0  0  0  0  0  0  0  0  0
    5.7835   -2.3055    0.0000 H   0  0  0  0  0  0  0  0  0  0  0  0
    6.5818   -2.3024    0.0000 H   0  0  0  0  0  0  0  0  0  0  0  0
    8.6240   -0.6319    0.0000 H   0  0  0  0  0  0  0  0  0  0  0  0
    9.4124   -0.3742    0.0000 H   0  0  0  0  0  0  0  0  0  0  0  0
    9.4875    1.6406    0.0000 H   0  0  0  0  0  0  0  0  0  0  0  0
    3.8284    0.6162    0.0000 H   0  0  0  0  0  0  0  0  0  0  0  0
    9.9195    0.3250    0.0000 H   0  0  0  0  0  0  0  0  0  0  0  0
    9.9195    1.1544    0.0000 H   0  0  0  0  0  0  0  0  0  0  0  0
    3.9460   -2.3344    0.0000 H   0  0  0  0  0  0  0  0  0  0  0  0
    4.7443   -2.3313    0.0000 H   0  0  0  0  0  0  0  0  0  0  0  0
    5.9145    0.7281    0.0000 H   0  0  0  0  0  0  0  0  0  0  0  0
    5.2993    1.3528    0.0000 H   0  0  0  0  0  0  0  0  0  0  0  0
    4.6745    0.7376    0.0000 H   0  0  0  0  0  0  0  0  0  0  0  0
    3.2075    0.3543    0.0000 H   0  0  0  0  0  0  0  0  0  0  0  0
    2.8004   -0.3324    0.0000 H   0  0  0  0  0  0  0  0  0  0  0  0
    8.5488    2.2397    0.0000 H   0  0  0  0  0  0  0  0  0  0  0  0
    7.9288    2.8597    0.0000 H   0  0  0  0  0  0  0  0  0  0  0  0
    7.3088    2.2397    0.0000 H   0  0  0  0  0  0  0  0  0  0  0  0
    3.4025   -1.9360    0.0000 H   0  0  0  0  0  0  0  0  0  0  0  0
    5.8056   -2.6228    0.0000 H   0  0  0  0  0  0  0  0  0  0  0  0
    9.7924    2.6228    0.0000 H   0  0  0  0  0  0  0  0  0  0  0  0
    3.8483    1.6171    0.0000 H   0  0  0  0  0  0  0  0  0  0  0  0
    2.0000   -1.5006    0.0000 H   0  0  0  0  0  0  0  0  0  0  0  0
 10  1  1  6  0  0  0
  1 52  1  0  0  0  0
 17  2  1  6  0  0  0
  2 54  1  0  0  0  0
 16  3  1  1  0  0  0
  3 53  1  0  0  0  0
 23  4  1  6  0  0  0
  4 55  1  0  0  0  0
  5  6  1  0  0  0  0
  5  7  1  0  0  0  0
  5 11  1  0  0  0  0
  5 24  1  6  0  0  0
  6  8  1  0  0  0  0
  6 12  1  0  0  0  0
  6 25  1  1  0  0  0
  7 10  1  0  0  0  0
  7 17  1  0  0  0  0
  7 20  1  1  0  0  0
  8  9  1  0  0  0  0
  8 15  1  0  0  0  0
  8 26  1  6  0  0  0
  9 13  1  0  0  0  0
  9 16  1  0  0  0  0
  9 21  1  1  0  0  0
 10 14  1  0  0  0  0
 10 19  1  0  0  0  0
 11 13  1  0  0  0  0
 11 27  1  0  0  0  0
 11 28  1  0  0  0  0
 12 14  1  0  0  0  0
 12 29  1  0  0  0  0
 12 30  1  0  0  0  0
 13 31  1  0  0  0  0
 13 32  1  0  0  0  0
 14 33  1  0  0  0  0
 14 34  1  0  0  0  0
 15 18  1  0  0  0  0
 15 35  1  0  0  0  0
 15 36  1  0  0  0  0
 16 18  1  0  0  0  0
 16 37  1  0  0  0  0
 17 22  1  0  0  0  0
 17 38  1  0  0  0  0
 18 39  1  0  0  0  0
 18 40  1  0  0  0  0
 19 23  1  0  0  0  0
 19 41  1  0  0  0  0
 19 42  1  0  0  0  0
 20 43  1  0  0  0  0
 20 44  1  0  0  0  0
 20 45  1  0  0  0  0
 21 48  1  0  0  0  0
 21 49  1  0  0  0  0
 21 50  1  0  0  0  0
 22 23  1  0  0  0  0
 22 46  1  0  0  0  0
 22 47  1  0  0  0  0
 23 51  1  0  0  0  0
M  END
> <PUBCHEM_COMPOUND_CID>
247305

> <PUBCHEM_COMPOUND_CANONICALIZED>
1

> <PUBCHEM_CACTVS_COMPLEXITY>
500

> <PUBCHEM_CACTVS_HBOND_ACCEPTOR>
4

> <PUBCHEM_CACTVS_HBOND_DONOR>
4

> <PUBCHEM_CACTVS_ROTATABLE_BOND>
0

> <PUBCHEM_CACTVS_SUBSKEYS>
AAADcfB4MABgAAAAAAAAAAAAAAAAAYAAAAAwYMAAAAAAAGDAAAAAGgQACAAADxSkwAKCAAAAAgQAAAAAAAAAAAAAAAAAAAAAAAAAEAIAAAAAQAAEAAAAAAGAwPAPgAAAAAAAAADgAAcIgCgAAIAADAAAAA==

> <PUBCHEM_IUPAC_OPENEYE_NAME>
(1S,3R,5R,8S,9S,10S,13S,14S,17S)-10,13-dimethyl-1,5-bis(sulfanyl)-1,2,3,4,6,7,8,9,11,12,14,15,16,17-tetradecahydrocyclopenta[a]phenanthrene-3,17-diol

> <PUBCHEM_IUPAC_CAS_NAME>
(1S,3R,5R,8S,9S,10S,13S,14S,17S)-1,5-dimercapto-10,13-dimethyl-1,2,3,4,6,7,8,9,11,12,14,15,16,17-tetradecahydrocyclopenta[a]phenanthrene-3,17-diol

> <PUBCHEM_IUPAC_NAME>
(1S,3R,5R,8S,9S,10S,13S,14S,17S)-10,13-dimethyl-1,5-bis(sulfanyl)-1,2,3,4,6,7,8,9,11,12,14,15,16,17-tetradecahydrocyclopenta[a]phenanthrene-3,17-diol

> <PUBCHEM_IUPAC_SYSTEMATIC_NAME>
(1S,3R,5R,8S,9S,10S,13S,14S,17S)-10,13-dimethyl-1,5-bis(sulfanyl)-1,2,3,4,6,7,8,9,11,12,14,15,16,17-tetradecahydrocyclopenta[a]phenanthrene-3,17-diol

> <PUBCHEM_IUPAC_TRADITIONAL_NAME>
(1S,3R,5R,8S,9S,10S,13S,14S,17S)-1,5-dimercapto-10,13-dimethyl-1,2,3,4,6,7,8,9,11,12,14,15,16,17-tetradecahydrocyclopenta[a]phenanthrene-3,17-diol

> <PUBCHEM_IUPAC_INCHI>
InChI=1S/C19H32O2S2/c1-17-7-6-14-12(13(17)3-4-15(17)21)5-8-19(23)10-11(20)9-16(22)18(14,19)2/h11-16,20-23H,3-10H2,1-2H3/t11-,12+,13+,14+,15+,16+,17+,18+,19-/m1/s1

> <PUBCHEM_IUPAC_INCHIKEY>
KIBKUPGGOWPDIJ-WEGHJKGXSA-N

> <PUBCHEM_XLOGP3_AA>
3.7

> <PUBCHEM_EXACT_MASS>
356.184372

> <PUBCHEM_MOLECULAR_FORMULA>
C19H32O2S2

> <PUBCHEM_MOLECULAR_WEIGHT>
356.58618

> <PUBCHEM_OPENEYE_CAN_SMILES>
CC12CCC3C(C1CCC2O)CCC4(C3(C(CC(C4)O)S)C)S

> <PUBCHEM_OPENEYE_ISO_SMILES>
C[C@]12CC[C@H]3[C@H]([C@@H]1CC[C@@H]2O)CC[C@@]4([C@@]3([C@H](C[C@H](C4)O)S)C)S

> <PUBCHEM_CACTVS_TPSA>
42.5

> <PUBCHEM_MONOISOTOPIC_WEIGHT>
356.184372

> <PUBCHEM_TOTAL_CHARGE>
0

> <PUBCHEM_HEAVY_ATOM_COUNT>
23

> <PUBCHEM_ATOM_DEF_STEREO_COUNT>
9

> <PUBCHEM_ATOM_UDEF_STEREO_COUNT>
0

> <PUBCHEM_BOND_DEF_STEREO_COUNT>
0

> <PUBCHEM_BOND_UDEF_STEREO_COUNT>
0

> <PUBCHEM_ISOTOPIC_ATOM_COUNT>
0

> <PUBCHEM_COMPONENT_COUNT>
1

> <PUBCHEM_CACTVS_TAUTO_COUNT>
1

> <PUBCHEM_COORDINATE_TYPE>
1
5
255

> <PUBCHEM_BONDANNOTATIONS>
10  1  6
17  2  6
16  3  5
23  4  6
5  24  6
6  25  5
7  20  5
8  26  6
9  21  5

$$$$

