47205631
  -OEChem-06241222592D

 27 28  0     0  0  0  0  0  0999 V2000
    5.4641   -4.0202    0.0000 Br  0  0  0  0  0  0  0  0  0  0  0  0
    2.0000   -2.0202    0.0000 F   0  0  0  0  0  0  0  0  0  0  0  0
    3.7320    0.9798    0.0000 O   0  0  0  0  0  0  0  0  0  0  0  0
    5.4641    0.9798    0.0000 N   0  0  0  0  0  0  0  0  0  0  0  0
    4.9641    3.5186    0.0000 N   0  0  0  0  0  0  0  0  0  0  0  0
    5.9641    3.5186    0.0000 N   0  0  0  0  0  0  0  0  0  0  0  0
    3.7320   -2.0202    0.0000 C   0  0  0  0  0  0  0  0  0  0  0  0
    5.4641    1.9798    0.0000 C   0  0  0  0  0  0  0  0  0  0  0  0
    3.7320   -1.0202    0.0000 C   0  0  0  0  0  0  0  0  0  0  0  0
    4.5981   -2.5202    0.0000 C   0  0  0  0  0  0  0  0  0  0  0  0
    2.8660   -2.5202    0.0000 C   0  0  0  0  0  0  0  0  0  0  0  0
    4.5981   -0.5202    0.0000 C   0  0  0  0  0  0  0  0  0  0  0  0
    4.5981    0.4798    0.0000 C   0  0  0  0  0  0  0  0  0  0  0  0
    4.6551    2.5676    0.0000 C   0  0  0  0  0  0  0  0  0  0  0  0
    4.5981   -3.5202    0.0000 C   0  0  0  0  0  0  0  0  0  0  0  0
    2.8660   -3.5202    0.0000 C   0  0  0  0  0  0  0  0  0  0  0  0
    6.2731    2.5676    0.0000 C   0  0  0  0  0  0  0  0  0  0  0  0
    3.7320   -4.0202    0.0000 C   0  0  0  0  0  0  0  0  0  0  0  0
    3.1951   -0.7102    0.0000 H   0  0  0  0  0  0  0  0  0  0  0  0
    5.1350   -2.2102    0.0000 H   0  0  0  0  0  0  0  0  0  0  0  0
    6.0010    0.6698    0.0000 H   0  0  0  0  0  0  0  0  0  0  0  0
    5.1350   -0.8302    0.0000 H   0  0  0  0  0  0  0  0  0  0  0  0
    4.0654    2.3760    0.0000 H   0  0  0  0  0  0  0  0  0  0  0  0
    2.3291   -3.8302    0.0000 H   0  0  0  0  0  0  0  0  0  0  0  0
    6.8628    2.3760    0.0000 H   0  0  0  0  0  0  0  0  0  0  0  0
    3.7320   -4.6402    0.0000 H   0  0  0  0  0  0  0  0  0  0  0  0
    4.5997    4.0202    0.0000 H   0  0  0  0  0  0  0  0  0  0  0  0
  1 15  1  0  0  0  0
  2 11  1  0  0  0  0
  3 13  2  0  0  0  0
  4  8  1  0  0  0  0
  4 13  1  0  0  0  0
  4 21  1  0  0  0  0
  5  6  1  0  0  0  0
  5 14  1  0  0  0  0
  5 27  1  0  0  0  0
  6 17  2  0  0  0  0
  7  9  1  0  0  0  0
  7 10  1  0  0  0  0
  7 11  2  0  0  0  0
  8 14  2  0  0  0  0
  8 17  1  0  0  0  0
  9 12  2  3  0  0  0
  9 19  1  0  0  0  0
 10 15  2  0  0  0  0
 10 20  1  0  0  0  0
 11 16  1  0  0  0  0
 12 13  1  0  0  0  0
 12 22  1  0  0  0  0
 14 23  1  0  0  0  0
 15 18  1  0  0  0  0
 16 18  2  0  0  0  0
 16 24  1  0  0  0  0
 17 25  1  0  0  0  0
 18 26  1  0  0  0  0
M  END
> <PUBCHEM_COMPOUND_CID>
47205631

> <PUBCHEM_COMPOUND_CANONICALIZED>
1

> <PUBCHEM_CACTVS_COMPLEXITY>
326

> <PUBCHEM_CACTVS_HBOND_ACCEPTOR>
3

> <PUBCHEM_CACTVS_HBOND_DONOR>
2

> <PUBCHEM_CACTVS_ROTATABLE_BOND>
3

> <PUBCHEM_CACTVS_SUBSKEYS>
AAADccBzIQAAEAAAAAAAAAAAAAAAAWAAAAAwAAAAAAAAAAABwAAAHwBYAAABrAjBmgw8wJLjAACqAjV3UACSBAAhkgQYuaAgdPgIYKKAUVCQpAAgnACIi5cAgAAOAAAAEAAAAAAAAAAgAAAAAAAAAAAAAA==

> <PUBCHEM_IUPAC_OPENEYE_NAME>
3-(5-bromo-2-fluoro-phenyl)-N-(1H-pyrazol-4-yl)prop-2-enamide

> <PUBCHEM_IUPAC_CAS_NAME>
3-(5-bromo-2-fluorophenyl)-N-(1H-pyrazol-4-yl)-2-propenamide

> <PUBCHEM_IUPAC_NAME>
3-(5-bromo-2-fluorophenyl)-N-(1H-pyrazol-4-yl)prop-2-enamide

> <PUBCHEM_IUPAC_SYSTEMATIC_NAME>
3-(5-bromanyl-2-fluoranyl-phenyl)-N-(1H-pyrazol-4-yl)prop-2-enamide

> <PUBCHEM_IUPAC_TRADITIONAL_NAME>
3-(5-bromo-2-fluoro-phenyl)-N-(1H-pyrazol-4-yl)acrylamide

> <PUBCHEM_IUPAC_INCHI>
InChI=1S/C12H9BrFN3O/c13-9-2-3-11(14)8(5-9)1-4-12(18)17-10-6-15-16-7-10/h1-7H,(H,15,16)(H,17,18)

> <PUBCHEM_IUPAC_INCHIKEY>
VKEQYNZAYNJQTB-UHFFFAOYSA-N

> <PUBCHEM_XLOGP3_AA>
2.3

> <PUBCHEM_EXACT_MASS>
308.991302

> <PUBCHEM_MOLECULAR_FORMULA>
C12H9BrFN3O

> <PUBCHEM_MOLECULAR_WEIGHT>
310.121763

> <PUBCHEM_OPENEYE_CAN_SMILES>
C1=CC(=C(C=C1Br)C=CC(=O)NC2=CNN=C2)F

> <PUBCHEM_OPENEYE_ISO_SMILES>
C1=CC(=C(C=C1Br)C=CC(=O)NC2=CNN=C2)F

> <PUBCHEM_CACTVS_TPSA>
57.8

> <PUBCHEM_MONOISOTOPIC_WEIGHT>
308.991302

> <PUBCHEM_TOTAL_CHARGE>
0

> <PUBCHEM_HEAVY_ATOM_COUNT>
18

> <PUBCHEM_ATOM_DEF_STEREO_COUNT>
0

> <PUBCHEM_ATOM_UDEF_STEREO_COUNT>
0

> <PUBCHEM_BOND_DEF_STEREO_COUNT>
0

> <PUBCHEM_BOND_UDEF_STEREO_COUNT>
1

> <PUBCHEM_ISOTOPIC_ATOM_COUNT>
0

> <PUBCHEM_COMPONENT_COUNT>
1

> <PUBCHEM_CACTVS_TAUTO_COUNT>
4

> <PUBCHEM_COORDINATE_TYPE>
1
5
255

> <PUBCHEM_BONDANNOTATIONS>
10  15  8
11  16  8
15  18  8
16  18  8
5  14  8
5  6  8
6  17  8
7  10  8
7  11  8
8  14  8
8  17  8
9  12  1

$$$$

