5281394
  -OEChem-07051212573D

 78 84  0     1  0  0  0  0  0999 V2000
   -3.4595   -0.1346    0.4474 O   0  0  0  0  0  0  0  0  0  0  0  0
   -4.7941   -1.0698   -1.2689 O   0  0  0  0  0  0  0  0  0  0  0  0
   -0.4508   -1.4849    2.0400 O   0  0  0  0  0  0  0  0  0  0  0  0
   -0.6384    0.1960    0.4313 O   0  0  0  0  0  0  0  0  0  0  0  0
   -5.5936    2.9919   -1.6121 O   0  0  0  0  0  0  0  0  0  0  0  0
   -4.2949   -2.7895    1.2344 O   0  0  0  0  0  0  0  0  0  0  0  0
   -2.9103    2.0743   -1.1275 O   0  0  0  0  0  0  0  0  0  0  0  0
   -1.7936   -3.9594    1.5576 O   0  0  0  0  0  0  0  0  0  0  0  0
   -6.6460    0.6537   -2.6724 O   0  0  0  0  0  0  0  0  0  0  0  0
    1.6007   -0.7881   -0.4326 O   0  0  0  0  0  0  0  0  0  0  0  0
    6.3697    0.8094   -0.6129 O   0  0  0  0  0  0  0  0  0  0  0  0
    4.1163    3.8979    1.1961 O   0  0  0  0  0  0  0  0  0  0  0  0
    6.3206    2.8822    0.3252 O   0  0  0  0  0  0  0  0  0  0  0  0
    1.6454   -2.8608   -1.3718 O   0  0  0  0  0  0  0  0  0  0  0  0
   -2.5592   -1.1629    0.8595 C   0  0  2  0  0  0  0  0  0  0  0  0
   -3.2553   -2.0609    1.8817 C   0  0  2  0  0  0  0  0  0  0  0  0
   -3.7073   -0.1942   -0.9567 C   0  0  1  0  0  0  0  0  0  0  0  0
   -3.9764    1.2094   -1.5050 C   0  0  1  0  0  0  0  0  0  0  0  0
   -2.2626   -3.0251    2.5319 C   0  0  2  0  0  0  0  0  0  0  0  0
   -5.3076    1.7473   -0.9800 C   0  0  2  0  0  0  0  0  0  0  0  0
   -1.3192   -0.5063    1.4706 C   0  0  1  0  0  0  0  0  0  0  0  0
   -6.4311    0.7456   -1.2619 C   0  0  2  0  0  0  0  0  0  0  0  0
   -1.0683   -2.2423    3.0883 C   0  0  1  0  0  0  0  0  0  0  0  0
   -6.0530   -0.6415   -0.7264 C   0  0  1  0  0  0  0  0  0  0  0  0
   -0.0007   -3.1556    3.6795 C   0  0  0  0  0  0  0  0  0  0  0  0
   -7.0853   -1.7046   -1.0867 C   0  0  0  0  0  0  0  0  0  0  0  0
    0.0678    1.3070    0.7960 C   0  0  0  0  0  0  0  0  0  0  0  0
    1.4574    1.4221    0.5860 C   0  0  0  0  0  0  0  0  0  0  0  0
   -6.8115    3.5460   -1.1373 C   0  0  0  0  0  0  0  0  0  0  0  0
    2.2358    0.4124   -0.0134 C   0  0  0  0  0  0  0  0  0  0  0  0
    2.1137    2.6081    0.9943 C   0  0  0  0  0  0  0  0  0  0  0  0
    3.6076    0.5476   -0.2111 C   0  0  0  0  0  0  0  0  0  0  0  0
   -0.6551    2.3389    1.3948 C   0  0  0  0  0  0  0  0  0  0  0  0
    4.2418    1.7179    0.1943 C   0  0  0  0  0  0  0  0  0  0  0  0
    4.3479   -0.5167   -0.8280 C   0  0  0  0  0  0  0  0  0  0  0  0
    3.5010    2.7434    0.7937 C   0  0  0  0  0  0  0  0  0  0  0  0
    1.3682    3.6356    1.5954 C   0  0  0  0  0  0  0  0  0  0  0  0
    3.7217   -1.6922   -1.2380 C   0  0  0  0  0  0  0  0  0  0  0  0
   -0.0058    3.5016    1.7939 C   0  0  0  0  0  0  0  0  0  0  0  0
    5.7176   -0.3753   -1.0221 C   0  0  0  0  0  0  0  0  0  0  0  0
    5.7037    1.8794   -0.0087 C   0  0  0  0  0  0  0  0  0  0  0  0
    2.2632   -1.8588   -1.0387 C   0  0  0  0  0  0  0  0  0  0  0  0
    4.4706   -2.7125   -1.8367 C   0  0  0  0  0  0  0  0  0  0  0  0
    6.4802   -1.3771   -1.6150 C   0  0  0  0  0  0  0  0  0  0  0  0
    5.8477   -2.5506   -2.0229 C   0  0  0  0  0  0  0  0  0  0  0  0
    3.8810   -4.0039   -2.3051 C   0  0  0  0  0  0  0  0  0  0  0  0
   -2.2538   -1.7863    0.0082 H   0  0  0  0  0  0  0  0  0  0  0  0
   -3.7255   -1.4462    2.6602 H   0  0  0  0  0  0  0  0  0  0  0  0
   -2.8188   -0.5640   -1.4839 H   0  0  0  0  0  0  0  0  0  0  0  0
   -4.0072    1.1878   -2.6015 H   0  0  0  0  0  0  0  0  0  0  0  0
   -2.7589   -3.6067    3.3159 H   0  0  0  0  0  0  0  0  0  0  0  0
   -5.2150    1.9266    0.0999 H   0  0  0  0  0  0  0  0  0  0  0  0
   -1.6371    0.1763    2.2689 H   0  0  0  0  0  0  0  0  0  0  0  0
   -7.3740    1.0635   -0.8043 H   0  0  0  0  0  0  0  0  0  0  0  0
   -1.4039   -1.5501    3.8712 H   0  0  0  0  0  0  0  0  0  0  0  0
   -5.9788   -0.5857    0.3654 H   0  0  0  0  0  0  0  0  0  0  0  0
   -0.4123   -3.7856    4.4737 H   0  0  0  0  0  0  0  0  0  0  0  0
    0.4496   -3.7972    2.9145 H   0  0  0  0  0  0  0  0  0  0  0  0
    0.8160   -2.5575    4.0988 H   0  0  0  0  0  0  0  0  0  0  0  0
   -6.8246   -2.6560   -0.6099 H   0  0  0  0  0  0  0  0  0  0  0  0
   -8.0875   -1.4168   -0.7553 H   0  0  0  0  0  0  0  0  0  0  0  0
   -7.1062   -1.9010   -2.1640 H   0  0  0  0  0  0  0  0  0  0  0  0
   -5.0697   -2.2087    1.1850 H   0  0  0  0  0  0  0  0  0  0  0  0
   -2.0869    1.6969   -1.4814 H   0  0  0  0  0  0  0  0  0  0  0  0
   -1.1965   -3.4936    0.9484 H   0  0  0  0  0  0  0  0  0  0  0  0
   -7.5055    0.2223   -2.8136 H   0  0  0  0  0  0  0  0  0  0  0  0
   -6.8224    4.6055   -1.4107 H   0  0  0  0  0  0  0  0  0  0  0  0
   -6.8952    3.4795   -0.0477 H   0  0  0  0  0  0  0  0  0  0  0  0
   -7.6728    3.0806   -1.6245 H   0  0  0  0  0  0  0  0  0  0  0  0
   -1.7303    2.2697    1.5365 H   0  0  0  0  0  0  0  0  0  0  0  0
    1.8180    4.5737    1.9100 H   0  0  0  0  0  0  0  0  0  0  0  0
   -0.5698    4.3095    2.2510 H   0  0  0  0  0  0  0  0  0  0  0  0
    7.5487   -1.2531   -1.7602 H   0  0  0  0  0  0  0  0  0  0  0  0
    6.4469   -3.3308   -2.4857 H   0  0  0  0  0  0  0  0  0  0  0  0
    3.7544    4.1730    2.0543 H   0  0  0  0  0  0  0  0  0  0  0  0
    3.4399   -4.5569   -1.4696 H   0  0  0  0  0  0  0  0  0  0  0  0
    3.1354   -3.8311   -3.0878 H   0  0  0  0  0  0  0  0  0  0  0  0
    4.6395   -4.6632   -2.7435 H   0  0  0  0  0  0  0  0  0  0  0  0
  1 15  1  0  0  0  0
  1 17  1  0  0  0  0
  2 17  1  0  0  0  0
  2 24  1  0  0  0  0
  3 21  1  0  0  0  0
  3 23  1  0  0  0  0
  4 21  1  0  0  0  0
  4 27  1  0  0  0  0
  5 20  1  0  0  0  0
  5 29  1  0  0  0  0
  6 16  1  0  0  0  0
  6 63  1  0  0  0  0
  7 18  1  0  0  0  0
  7 64  1  0  0  0  0
  8 19  1  0  0  0  0
  8 65  1  0  0  0  0
  9 22  1  0  0  0  0
  9 66  1  0  0  0  0
 10 30  1  0  0  0  0
 10 42  1  0  0  0  0
 11 40  1  0  0  0  0
 11 41  1  0  0  0  0
 12 36  1  0  0  0  0
 12 75  1  0  0  0  0
 13 41  2  0  0  0  0
 14 42  2  0  0  0  0
 15 16  1  0  0  0  0
 15 21  1  0  0  0  0
 15 47  1  0  0  0  0
 16 19  1  0  0  0  0
 16 48  1  0  0  0  0
 17 18  1  0  0  0  0
 17 49  1  0  0  0  0
 18 20  1  0  0  0  0
 18 50  1  0  0  0  0
 19 23  1  0  0  0  0
 19 51  1  0  0  0  0
 20 22  1  0  0  0  0
 20 52  1  0  0  0  0
 21 53  1  0  0  0  0
 22 24  1  0  0  0  0
 22 54  1  0  0  0  0
 23 25  1  0  0  0  0
 23 55  1  0  0  0  0
 24 26  1  0  0  0  0
 24 56  1  0  0  0  0
 25 57  1  0  0  0  0
 25 58  1  0  0  0  0
 25 59  1  0  0  0  0
 26 60  1  0  0  0  0
 26 61  1  0  0  0  0
 26 62  1  0  0  0  0
 27 28  1  0  0  0  0
 27 33  2  0  0  0  0
 28 30  1  0  0  0  0
 28 31  2  0  0  0  0
 29 67  1  0  0  0  0
 29 68  1  0  0  0  0
 29 69  1  0  0  0  0
 30 32  2  0  0  0  0
 31 36  1  0  0  0  0
 31 37  1  0  0  0  0
 32 34  1  0  0  0  0
 32 35  1  0  0  0  0
 33 39  1  0  0  0  0
 33 70  1  0  0  0  0
 34 36  2  0  0  0  0
 34 41  1  0  0  0  0
 35 38  1  0  0  0  0
 35 40  2  0  0  0  0
 37 39  2  0  0  0  0
 37 71  1  0  0  0  0
 38 42  1  0  0  0  0
 38 43  2  0  0  0  0
 39 72  1  0  0  0  0
 40 44  1  0  0  0  0
 43 45  1  0  0  0  0
 43 46  1  0  0  0  0
 44 45  2  0  0  0  0
 44 73  1  0  0  0  0
 45 74  1  0  0  0  0
 46 76  1  0  0  0  0
 46 77  1  0  0  0  0
 46 78  1  0  0  0  0
M  END
> <PUBCHEM_COMPOUND_CID>
5281394

> <PUBCHEM_CONFORMER_RMSD>
1

> <PUBCHEM_CONFORMER_DIVERSEORDER>
2
5
102
100
22
79
58
92
74
71
91
51
101
38
6
23
43
57
55
34
86
96
19
41
35
73
61
99
29
15
77
45
85
105
30
32
70
63
97
68
39
60
98
103
104
89
94
40
66
14
42
12
90
37
83
26
24
95
49
25
67
69
78
84
3
56
31
8
28
16
81
9
93
53
106
10
33
50
13
72
11
64
80
21
75
1
46
87
18
17
82
20
48
36
62
7
54
44
27
59
88
47
4
52
76
65

> <PUBCHEM_MMFF94_PARTIAL_CHARGES>
50
1 -0.56
10 -0.23
11 -0.23
12 -0.53
13 -0.57
14 -0.57
15 0.28
16 0.28
17 0.56
18 0.28
19 0.28
2 -0.56
20 0.28
21 0.56
22 0.28
23 0.28
24 0.28
27 0.08
29 0.28
3 -0.56
30 0.08
33 -0.15
34 0.09
36 0.08
37 -0.15
38 0.09
39 -0.15
4 -0.36
40 0.08
41 0.63
42 0.63
43 -0.14
44 -0.15
45 -0.15
46 0.14
5 -0.56
6 -0.68
63 0.4
64 0.4
65 0.4
66 0.4
7 -0.68
70 0.15
71 0.15
72 0.15
73 0.15
74 0.15
75 0.45
8 -0.68
9 -0.68

> <PUBCHEM_EFFECTIVE_ROTOR_COUNT>
7.4

> <PUBCHEM_PHARMACOPHORE_FEATURES>
23
1 1 acceptor
1 12 donor
1 13 acceptor
1 14 acceptor
1 2 acceptor
1 3 acceptor
1 4 acceptor
1 5 acceptor
1 6 acceptor
1 6 donor
1 7 acceptor
1 7 donor
1 8 acceptor
1 8 donor
1 9 acceptor
1 9 donor
6 10 30 32 35 38 42 rings
6 11 32 34 35 40 41 rings
6 2 17 18 20 22 24 rings
6 27 28 31 33 37 39 rings
6 28 30 31 32 34 36 rings
6 3 15 16 19 21 23 rings
6 35 38 40 43 44 45 rings

> <PUBCHEM_HEAVY_ATOM_COUNT>
46

> <PUBCHEM_ATOM_DEF_STEREO_COUNT>
10

> <PUBCHEM_ATOM_UDEF_STEREO_COUNT>
0

> <PUBCHEM_BOND_DEF_STEREO_COUNT>
0

> <PUBCHEM_BOND_UDEF_STEREO_COUNT>
0

> <PUBCHEM_ISOTOPIC_ATOM_COUNT>
0

> <PUBCHEM_COMPONENT_COUNT>
1

> <PUBCHEM_CACTVS_TAUTO_COUNT>
4

> <PUBCHEM_CONFORMER_ID>
0050967200000002

> <PUBCHEM_MMFF94_ENERGY>
190.5722

> <PUBCHEM_FEATURE_SELFOVERLAP>
116.979

> <PUBCHEM_SHAPE_FINGERPRINT>
10675989 125 18128260188458965049
11135926 11 18043234774612046456
11227688 84 17609747032631161206
11285246 1 18268145555440371013
12128747 34 18410014338455558341
12202916 173 18337965528163522066
1361 2 18113900416698490846
13636023 20 17968957339105784495
13911987 19 18045206151695318724
14068700 675 15357702989513427995
14340393 91 18041841843112776157
14415361 192 15048114750701431818
15361156 5 18198058067554294901
15629462 23 18041271175588629121
15721738 15 18267865158690557150
17909252 39 17895202150701520880
21033650 10 17274810308125370322
21987440 362 16984101791652567348
23572383 38 18339916035726090730
244849 19 18339075973997318011
354706 132 17988641934580134237
3882209 13 17762628691192428382
4015057 19 18260821596686152488
4098825 35 18261111885769463789
42767 28 18337678632621812597
4403749 210 17323529488618418928
508706 21 18059572417504171779
6376802 90 18271243811560768610
6523845 18 18059559331387492105

> <PUBCHEM_SHAPE_MULTIPOLES>
864.49
17.33
5.3
2.79
9.35
0.66
-1.64
2.32
14.57
-2.03
-1.75
1.8
-2.5
6.39

> <PUBCHEM_SHAPE_SELFOVERLAP>
1929.458

> <PUBCHEM_SHAPE_VOLUME>
454

> <PUBCHEM_COORDINATE_TYPE>
2
5
10

$$$$

