46173861
  -OEChem-07051213093D

 60 64  0     1  0  0  0  0  0999 V2000
   -0.6852    2.6347   -0.7603 O   0  0  0  0  0  0  0  0  0  0  0  0
   -0.0936   -2.8146   -0.2037 O   0  0  0  0  0  0  0  0  0  0  0  0
   -3.5369    1.5094    0.7764 O   0  0  0  0  0  0  0  0  0  0  0  0
   -2.4190   -3.1878   -0.2532 O   0  0  0  0  0  0  0  0  0  0  0  0
   -3.4768   -1.2234    1.4877 O   0  0  0  0  0  0  0  0  0  0  0  0
    1.8378   -1.5872   -1.4170 O   0  0  0  0  0  0  0  0  0  0  0  0
   -2.0621    3.2421   -2.4315 O   0  0  0  0  0  0  0  0  0  0  0  0
    4.5866   -1.3682   -1.1629 O   0  0  0  0  0  0  0  0  0  0  0  0
   -1.1735    0.7530    0.8106 C   0  0  2  0  0  0  0  0  0  0  0  0
   -0.1770   -0.2924    0.1441 C   0  0  1  0  0  0  0  0  0  0  0  0
   -2.5994    0.6402    0.1165 C   0  0  1  0  0  0  0  0  0  0  0  0
    1.3496   -0.1196    0.5006 C   0  0  1  0  0  0  0  0  0  0  0  0
   -0.6463    2.1888    0.6117 C   0  0  1  0  0  0  0  0  0  0  0  0
   -0.7883   -1.6979    0.3442 C   0  0  1  0  0  0  0  0  0  0  0  0
    1.7616    1.3892    0.3588 C   0  0  1  0  0  0  0  0  0  0  0  0
   -3.1768   -0.8334    0.1421 C   0  0  1  0  0  0  0  0  0  0  0  0
   -2.1124   -1.7994   -0.3883 C   0  0  2  0  0  0  0  0  0  0  0  0
    0.8082    2.3581    1.0750 C   0  0  0  0  0  0  0  0  0  0  0  0
   -1.3129    0.5647    2.3543 C   0  0  0  0  0  0  0  0  0  0  0  0
   -2.5430    1.1819   -1.3252 C   0  0  0  0  0  0  0  0  0  0  0  0
    3.2500    1.6184    0.7522 C   0  0  1  0  0  0  0  0  0  0  0  0
    1.7100   -0.7298    1.8735 C   0  0  0  0  0  0  0  0  0  0  0  0
    2.2539   -0.8118   -0.5593 C   0  0  0  0  0  0  0  0  0  0  0  0
   -4.4862   -0.9994   -0.6442 C   0  0  0  0  0  0  0  0  0  0  0  0
   -1.7837    2.4647   -1.5219 C   0  0  0  0  0  0  0  0  0  0  0  0
   -1.1244   -3.8098   -0.3421 C   0  0  0  0  0  0  0  0  0  0  0  0
    4.1483    0.5929    0.0988 C   0  0  0  0  0  0  0  0  0  0  0  0
    3.7160   -0.5081   -0.5325 C   0  0  0  0  0  0  0  0  0  0  0  0
    3.7425    3.0204    0.3702 C   0  0  0  0  0  0  0  0  0  0  0  0
    5.0330   -2.3756   -0.2745 C   0  0  0  0  0  0  0  0  0  0  0  0
   -0.2028   -0.1063   -0.9395 H   0  0  0  0  0  0  0  0  0  0  0  0
   -1.2598    2.9029    1.1768 H   0  0  0  0  0  0  0  0  0  0  0  0
   -0.9040   -1.9305    1.4075 H   0  0  0  0  0  0  0  0  0  0  0  0
    1.6877    1.6366   -0.7135 H   0  0  0  0  0  0  0  0  0  0  0  0
   -1.9631   -1.6342   -1.4642 H   0  0  0  0  0  0  0  0  0  0  0  0
    1.1027    3.3881    0.8421 H   0  0  0  0  0  0  0  0  0  0  0  0
    0.9040    2.2545    2.1596 H   0  0  0  0  0  0  0  0  0  0  0  0
   -2.1061    1.2068    2.7550 H   0  0  0  0  0  0  0  0  0  0  0  0
   -0.4172    0.8396    2.9084 H   0  0  0  0  0  0  0  0  0  0  0  0
   -1.5537   -0.4541    2.6563 H   0  0  0  0  0  0  0  0  0  0  0  0
   -2.0887    0.4630   -2.0135 H   0  0  0  0  0  0  0  0  0  0  0  0
   -3.5596    1.3816   -1.6884 H   0  0  0  0  0  0  0  0  0  0  0  0
    3.3635    1.5167    1.8390 H   0  0  0  0  0  0  0  0  0  0  0  0
    1.3598   -0.1217    2.7069 H   0  0  0  0  0  0  0  0  0  0  0  0
    2.7888   -0.8484    2.0185 H   0  0  0  0  0  0  0  0  0  0  0  0
    1.2976   -1.7366    1.9883 H   0  0  0  0  0  0  0  0  0  0  0  0
   -5.2706   -0.3352   -0.2676 H   0  0  0  0  0  0  0  0  0  0  0  0
   -4.8788   -2.0166   -0.5251 H   0  0  0  0  0  0  0  0  0  0  0  0
   -4.3555   -0.8185   -1.7150 H   0  0  0  0  0  0  0  0  0  0  0  0
   -4.3823    1.4882    0.2995 H   0  0  0  0  0  0  0  0  0  0  0  0
   -1.0281   -4.5510    0.4568 H   0  0  0  0  0  0  0  0  0  0  0  0
   -1.0190   -4.3014   -1.3137 H   0  0  0  0  0  0  0  0  0  0  0  0
    5.2198    0.7778    0.1405 H   0  0  0  0  0  0  0  0  0  0  0  0
   -4.0971   -0.5685    1.8514 H   0  0  0  0  0  0  0  0  0  0  0  0
    3.2399    3.7943    0.9579 H   0  0  0  0  0  0  0  0  0  0  0  0
    4.8163    3.1289    0.5627 H   0  0  0  0  0  0  0  0  0  0  0  0
    3.5706    3.2301   -0.6914 H   0  0  0  0  0  0  0  0  0  0  0  0
    5.5969   -1.9473    0.5616 H   0  0  0  0  0  0  0  0  0  0  0  0
    4.1948   -2.9716    0.1035 H   0  0  0  0  0  0  0  0  0  0  0  0
    5.7016   -3.0442   -0.8249 H   0  0  0  0  0  0  0  0  0  0  0  0
  1 13  1  0  0  0  0
  1 25  1  0  0  0  0
  2 14  1  0  0  0  0
  2 26  1  0  0  0  0
  3 11  1  0  0  0  0
  3 50  1  0  0  0  0
  4 17  1  0  0  0  0
  4 26  1  0  0  0  0
  5 16  1  0  0  0  0
  5 54  1  0  0  0  0
  6 23  2  0  0  0  0
  7 25  2  0  0  0  0
  8 28  1  0  0  0  0
  8 30  1  0  0  0  0
  9 10  1  0  0  0  0
  9 11  1  0  0  0  0
  9 13  1  0  0  0  0
  9 19  1  0  0  0  0
 10 12  1  0  0  0  0
 10 14  1  0  0  0  0
 10 31  1  0  0  0  0
 11 16  1  0  0  0  0
 11 20  1  0  0  0  0
 12 15  1  0  0  0  0
 12 22  1  0  0  0  0
 12 23  1  0  0  0  0
 13 18  1  0  0  0  0
 13 32  1  0  0  0  0
 14 17  1  0  0  0  0
 14 33  1  0  0  0  0
 15 18  1  0  0  0  0
 15 21  1  0  0  0  0
 15 34  1  0  0  0  0
 16 17  1  0  0  0  0
 16 24  1  0  0  0  0
 17 35  1  0  0  0  0
 18 36  1  0  0  0  0
 18 37  1  0  0  0  0
 19 38  1  0  0  0  0
 19 39  1  0  0  0  0
 19 40  1  0  0  0  0
 20 25  1  0  0  0  0
 20 41  1  0  0  0  0
 20 42  1  0  0  0  0
 21 27  1  0  0  0  0
 21 29  1  0  0  0  0
 21 43  1  0  0  0  0
 22 44  1  0  0  0  0
 22 45  1  0  0  0  0
 22 46  1  0  0  0  0
 23 28  1  0  0  0  0
 24 47  1  0  0  0  0
 24 48  1  0  0  0  0
 24 49  1  0  0  0  0
 26 51  1  0  0  0  0
 26 52  1  0  0  0  0
 27 28  2  0  0  0  0
 27 53  1  0  0  0  0
 29 55  1  0  0  0  0
 29 56  1  0  0  0  0
 29 57  1  0  0  0  0
 30 58  1  0  0  0  0
 30 59  1  0  0  0  0
 30 60  1  0  0  0  0
M  END
> <PUBCHEM_COMPOUND_CID>
46173861

> <PUBCHEM_CONFORMER_RMSD>
0.8

> <PUBCHEM_CONFORMER_DIVERSEORDER>
1

> <PUBCHEM_MMFF94_PARTIAL_CHARGES>
25
1 -0.43
11 0.28
12 0.06
13 0.28
14 0.28
16 0.28
17 0.28
2 -0.56
20 0.06
21 0.14
23 0.49
25 0.66
26 0.56
27 -0.29
28 0.09
3 -0.68
30 0.28
4 -0.56
5 -0.68
50 0.4
53 0.15
54 0.4
6 -0.57
7 -0.57
8 -0.36

> <PUBCHEM_EFFECTIVE_ROTOR_COUNT>
2.6

> <PUBCHEM_PHARMACOPHORE_FEATURES>
14
1 2 acceptor
1 3 acceptor
1 3 donor
1 4 acceptor
1 5 acceptor
1 5 donor
1 6 acceptor
1 7 acceptor
1 8 acceptor
5 2 4 14 17 26 rings
6 1 9 11 13 20 25 rings
6 12 15 21 23 27 28 rings
6 9 10 11 14 16 17 rings
6 9 10 12 13 15 18 rings

> <PUBCHEM_HEAVY_ATOM_COUNT>
30

> <PUBCHEM_ATOM_DEF_STEREO_COUNT>
10

> <PUBCHEM_ATOM_UDEF_STEREO_COUNT>
0

> <PUBCHEM_BOND_DEF_STEREO_COUNT>
0

> <PUBCHEM_BOND_UDEF_STEREO_COUNT>
0

> <PUBCHEM_ISOTOPIC_ATOM_COUNT>
0

> <PUBCHEM_COMPONENT_COUNT>
1

> <PUBCHEM_CACTVS_TAUTO_COUNT>
6

> <PUBCHEM_CONFORMER_ID>
02C08EA500000001

> <PUBCHEM_MMFF94_ENERGY>
138.9374

> <PUBCHEM_FEATURE_SELFOVERLAP>
71.368

> <PUBCHEM_SHAPE_FINGERPRINT>
10165383 225 18052529160781042125
10616163 171 17973721372775429954
10675989 125 16467846126227119764
10693767 8 17824004272189496167
10863032 1 18189050902390377096
10967382 1 18262516992240287322
1100329 8 18188198922401775312
11513181 2 17605825911693114838
11578080 2 17415315842856822524
12403259 226 18410856568535815766
12403814 3 18270688554273770777
12422481 6 18270094882783317593
12633257 1 18114448037723787234
13140716 1 18336817680298537475
13224815 77 18334295323468222328
13402501 40 18407760347781036951
13583140 156 17775294837008883968
14223421 5 18118125758163351224
14251751 93 18057320793836775926
14790565 3 18335975446213787153
14863182 85 16678944013289858899
14955137 171 18269538461322428811
15219462 58 17060344015761886800
15420108 30 15100945760171770426
16752209 62 18270696375071723562
16945 1 18050016776721837457
17349148 13 17822293539322736298
17357779 13 18265630813807819581
17492 54 17122267170218011924
1813 80 17914892037607057991
19591789 44 18409447007234489971
20691752 17 18272931592127111203
20775438 99 17467966974807106855
20905425 154 17255397120446000663
21285901 2 18339655442648128677
21330990 113 18268414901946181609
22182313 1 18340220621273292816
22907989 373 18130500928726958997
23419403 2 17605016778224098505
23559900 14 18260267469492440002
238 59 17836118884303001437
2748010 2 18411428301708056401
335352 9 18262512727300741724
3380486 145 18193828250274440200
350125 39 18337947995152139610
6287921 2 17978786813933562125
9709674 26 18260827055969594702

> <PUBCHEM_SHAPE_MULTIPOLES>
570.43
7.58
3.98
1.56
5.05
0.72
-0.07
1.88
1.15
-0.24
1.17
-0.63
-0.78
1.37

> <PUBCHEM_SHAPE_SELFOVERLAP>
1244.983

> <PUBCHEM_SHAPE_VOLUME>
300.7

> <PUBCHEM_COORDINATE_TYPE>
2
5
10

$$$$

