9543241
  -OEChem-07051213083D

 17 16  0     0  0  0  0  0  0999 V2000
   -3.2334    1.9944   -0.4197 Br  0  0  0  0  0  0  0  0  0  0  0  0
    0.3748   -1.0543    0.3675 O   0  0  0  0  0  0  0  0  0  0  0  0
    4.2366    0.6516    0.0466 O   0  0  0  0  0  0  0  0  0  0  0  0
    2.9865   -1.1322   -0.5914 O   0  0  0  0  0  0  0  0  0  0  0  0
   -2.6111   -1.0748    1.2155 O   0  0  0  0  0  0  0  0  0  0  0  0
   -2.4010   -1.4410   -1.0231 O   0  0  0  0  0  0  0  0  0  0  0  0
    1.8938    0.8166    0.3703 C   0  0  0  0  0  0  0  0  0  0  0  0
    0.5355    0.1568    0.2472 C   0  0  0  0  0  0  0  0  0  0  0  0
   -0.6175    1.0833    0.0411 C   0  0  0  0  0  0  0  0  0  0  0  0
    3.0607   -0.0125   -0.1053 C   0  0  0  0  0  0  0  0  0  0  0  0
   -1.9007    0.7149   -0.0951 C   0  0  0  0  0  0  0  0  0  0  0  0
   -2.3241   -0.7029   -0.0536 C   0  0  0  0  0  0  0  0  0  0  0  0
    1.8986    1.7392   -0.2207 H   0  0  0  0  0  0  0  0  0  0  0  0
    2.0469    1.0585    1.4274 H   0  0  0  0  0  0  0  0  0  0  0  0
   -0.3562    2.1376   -0.0111 H   0  0  0  0  0  0  0  0  0  0  0  0
    4.9988    0.1224   -0.2716 H   0  0  0  0  0  0  0  0  0  0  0  0
   -2.8918   -2.0133    1.2688 H   0  0  0  0  0  0  0  0  0  0  0  0
  1 11  1  0  0  0  0
  2  8  2  0  0  0  0
  3 10  1  0  0  0  0
  3 16  1  0  0  0  0
  4 10  2  0  0  0  0
  5 12  1  0  0  0  0
  5 17  1  0  0  0  0
  6 12  2  0  0  0  0
  7  8  1  0  0  0  0
  7 10  1  0  0  0  0
  7 13  1  0  0  0  0
  7 14  1  0  0  0  0
  8  9  1  0  0  0  0
  9 11  2  0  0  0  0
  9 15  1  0  0  0  0
 11 12  1  0  0  0  0
M  END
> <PUBCHEM_COMPOUND_CID>
9543241

> <PUBCHEM_CONFORMER_RMSD>
0.6

> <PUBCHEM_CONFORMER_DIVERSEORDER>
1
58
47
40
19
10
52
57
22
46
49
59
7
6
39
60
14
29
53
42
66
26
61
44
43
35
30
54
56
34
62
37
65
2
50
55
38
21
3
64
16
15
17
9
63
18
20
45
25
51
12
32
27
31
4
8
23
33
5
28
48
13
24
11
36
41

> <PUBCHEM_MMFF94_PARTIAL_CHARGES>
15
1 -0.11
10 0.66
11 0.12
12 0.71
15 0.15
16 0.5
17 0.5
2 -0.57
3 -0.65
4 -0.57
5 -0.65
6 -0.57
7 0.12
8 0.49
9 -0.14

> <PUBCHEM_EFFECTIVE_ROTOR_COUNT>
4

> <PUBCHEM_PHARMACOPHORE_FEATURES>
9
1 1 hydrophobe
1 2 acceptor
1 3 acceptor
1 4 acceptor
1 5 acceptor
1 6 acceptor
1 7 anion
3 3 4 10 anion
3 5 6 12 anion

> <PUBCHEM_HEAVY_ATOM_COUNT>
12

> <PUBCHEM_ATOM_DEF_STEREO_COUNT>
0

> <PUBCHEM_ATOM_UDEF_STEREO_COUNT>
0

> <PUBCHEM_BOND_DEF_STEREO_COUNT>
1

> <PUBCHEM_BOND_UDEF_STEREO_COUNT>
0

> <PUBCHEM_ISOTOPIC_ATOM_COUNT>
0

> <PUBCHEM_COMPONENT_COUNT>
1

> <PUBCHEM_CACTVS_TAUTO_COUNT>
3

> <PUBCHEM_CONFORMER_ID>
00919E4900000001

> <PUBCHEM_MMFF94_ENERGY>
24.0938

> <PUBCHEM_FEATURE_SELFOVERLAP>
46.051

> <PUBCHEM_SHAPE_FINGERPRINT>
10608611 8 18409172095247629256
12932764 1 18113617859215662472
13296908 3 18261107495858966238
13380535 21 18199181970111349627
13380535 76 18268716185063725773
14325111 11 18411701002145585544
14577589 140 18408321107638591373
14897335 6 18269563899759679277
15775835 57 18201157757988650904
18186145 218 17676201356214626632
20279233 1 17968100845422642996
20645477 56 18411984693104329573
20645477 70 17895475959325021998
20871998 184 18407754837939220399
23402539 116 18272377477591551348
23559900 14 18261115218837827416
3248919 1 17846781788949329186
528716 315 18272082790498664830
6333449 129 18409452513799327205
93112 12 18335142020198729036

> <PUBCHEM_SHAPE_MULTIPOLES>
223.55
6.51
1.68
0.83
4.45
0.07
0.02
1.25
-0.68
-1.53
-0.13
-0.36
-0.21
0.39

> <PUBCHEM_SHAPE_SELFOVERLAP>
428.946

> <PUBCHEM_SHAPE_VOLUME>
137.7

> <PUBCHEM_COORDINATE_TYPE>
2
5
10

$$$$

