10522
  -OEChem-07051213053D

 35 36  0     0  0  0  0  0  0999 V2000
    5.7392   -1.0146   -0.5615 Cl  0  0  0  0  0  0  0  0  0  0  0  0
   -3.8024   -3.8768   -0.4263 Cl  0  0  0  0  0  0  0  0  0  0  0  0
   -0.1131    1.0945    1.8689 O   0  0  0  0  0  0  0  0  0  0  0  0
   -1.7107    2.1633    0.0970 O   0  0  0  0  0  0  0  0  0  0  0  0
    0.2833    2.5981   -0.9627 O   0  0  0  0  0  0  0  0  0  0  0  0
    0.0628    0.6202    0.5033 C   0  0  0  0  0  0  0  0  0  0  0  0
    1.4736    0.2149    0.2384 C   0  0  0  0  0  0  0  0  0  0  0  0
   -0.9327   -0.5365    0.2644 C   0  0  0  0  0  0  0  0  0  0  0  0
   -0.4014    1.9090   -0.2159 C   0  0  0  0  0  0  0  0  0  0  0  0
    1.8435   -0.2357   -1.0287 C   0  0  0  0  0  0  0  0  0  0  0  0
   -1.2291   -1.3592    1.3177 C   0  0  0  0  0  0  0  0  0  0  0  0
    2.4227    0.2855    1.2583 C   0  0  0  0  0  0  0  0  0  0  0  0
   -1.4658   -0.6792   -0.9885 C   0  0  0  0  0  0  0  0  0  0  0  0
    3.1625   -0.6159   -1.2760 C   0  0  0  0  0  0  0  0  0  0  0  0
   -2.1272   -2.4045    1.1016 C   0  0  0  0  0  0  0  0  0  0  0  0
    3.7419   -0.0946    1.0108 C   0  0  0  0  0  0  0  0  0  0  0  0
   -2.3640   -1.7244   -1.2047 C   0  0  0  0  0  0  0  0  0  0  0  0
    4.1119   -0.5452   -0.2564 C   0  0  0  0  0  0  0  0  0  0  0  0
   -2.6948   -2.5870   -0.1596 C   0  0  0  0  0  0  0  0  0  0  0  0
   -2.2799    3.3259   -0.5133 C   0  0  0  0  0  0  0  0  0  0  0  0
   -3.7202    3.4619   -0.0671 C   0  0  0  0  0  0  0  0  0  0  0  0
    1.1352   -0.2830   -1.8492 H   0  0  0  0  0  0  0  0  0  0  0  0
   -0.7868   -1.2416    2.3012 H   0  0  0  0  0  0  0  0  0  0  0  0
    2.1796    0.6180    2.2625 H   0  0  0  0  0  0  0  0  0  0  0  0
   -1.2227   -0.0219   -1.8163 H   0  0  0  0  0  0  0  0  0  0  0  0
    0.4604    1.8687    2.0057 H   0  0  0  0  0  0  0  0  0  0  0  0
    3.4377   -0.9609   -2.2694 H   0  0  0  0  0  0  0  0  0  0  0  0
   -2.3732   -3.0710    1.9243 H   0  0  0  0  0  0  0  0  0  0  0  0
    4.4707   -0.0371    1.8154 H   0  0  0  0  0  0  0  0  0  0  0  0
   -2.7982   -1.8548   -2.1927 H   0  0  0  0  0  0  0  0  0  0  0  0
   -1.7128    4.2126   -0.2091 H   0  0  0  0  0  0  0  0  0  0  0  0
   -2.2384    3.2228   -1.6033 H   0  0  0  0  0  0  0  0  0  0  0  0
   -4.1877    4.3424   -0.5166 H   0  0  0  0  0  0  0  0  0  0  0  0
   -4.2955    2.5734   -0.3476 H   0  0  0  0  0  0  0  0  0  0  0  0
   -3.7792    3.5474    1.0229 H   0  0  0  0  0  0  0  0  0  0  0  0
  1 18  1  0  0  0  0
  2 19  1  0  0  0  0
  3  6  1  0  0  0  0
  3 26  1  0  0  0  0
  4  9  1  0  0  0  0
  4 20  1  0  0  0  0
  5  9  2  0  0  0  0
  6  7  1  0  0  0  0
  6  8  1  0  0  0  0
  6  9  1  0  0  0  0
  7 10  2  0  0  0  0
  7 12  1  0  0  0  0
  8 11  2  0  0  0  0
  8 13  1  0  0  0  0
 10 14  1  0  0  0  0
 10 22  1  0  0  0  0
 11 15  1  0  0  0  0
 11 23  1  0  0  0  0
 12 16  2  0  0  0  0
 12 24  1  0  0  0  0
 13 17  2  0  0  0  0
 13 25  1  0  0  0  0
 14 18  2  0  0  0  0
 14 27  1  0  0  0  0
 15 19  2  0  0  0  0
 15 28  1  0  0  0  0
 16 18  1  0  0  0  0
 16 29  1  0  0  0  0
 17 19  1  0  0  0  0
 17 30  1  0  0  0  0
 20 21  1  0  0  0  0
 20 31  1  0  0  0  0
 20 32  1  0  0  0  0
 21 33  1  0  0  0  0
 21 34  1  0  0  0  0
 21 35  1  0  0  0  0
M  END
> <PUBCHEM_COMPOUND_CID>
10522

> <PUBCHEM_CONFORMER_RMSD>
0.8

> <PUBCHEM_CONFORMER_DIVERSEORDER>
1
9
11
3
12
10
13
4
5
8
6
2
7

> <PUBCHEM_MMFF94_PARTIAL_CHARGES>
29
1 -0.18
10 -0.15
11 -0.15
12 -0.15
13 -0.15
14 -0.15
15 -0.15
16 -0.15
17 -0.15
18 0.18
19 0.18
2 -0.18
20 0.28
22 0.15
23 0.15
24 0.15
25 0.15
26 0.4
27 0.15
28 0.15
29 0.15
3 -0.68
30 0.15
4 -0.43
5 -0.57
6 0.63
7 -0.14
8 -0.14
9 0.66

> <PUBCHEM_EFFECTIVE_ROTOR_COUNT>
5

> <PUBCHEM_PHARMACOPHORE_FEATURES>
5
1 3 acceptor
1 3 donor
1 5 acceptor
6 7 10 12 14 16 18 rings
6 8 11 13 15 17 19 rings

> <PUBCHEM_HEAVY_ATOM_COUNT>
21

> <PUBCHEM_ATOM_DEF_STEREO_COUNT>
0

> <PUBCHEM_ATOM_UDEF_STEREO_COUNT>
0

> <PUBCHEM_BOND_DEF_STEREO_COUNT>
0

> <PUBCHEM_BOND_UDEF_STEREO_COUNT>
0

> <PUBCHEM_ISOTOPIC_ATOM_COUNT>
0

> <PUBCHEM_COMPONENT_COUNT>
1

> <PUBCHEM_CACTVS_TAUTO_COUNT>
1

> <PUBCHEM_CONFORMER_ID>
0000291A00000001

> <PUBCHEM_MMFF94_ENERGY>
56.377

> <PUBCHEM_FEATURE_SELFOVERLAP>
25.372

> <PUBCHEM_SHAPE_FINGERPRINT>
11101153 10 18127118694634276932
11578080 2 17822575988766666977
116883 192 18337394838104104365
12293681 4 18337969896060963431
12363563 72 18267866077628786230
12500047 106 18266459991651503540
12532896 13 18193003839976381029
12553582 1 18199175201159125458
12633257 1 14635419430167295206
12714826 92 18187353333962695606
12788726 201 18270950280911609537
13052359 8 18339929328496858493
13149001 5 18188224189832131712
13681431 1 17909550554031754205
13757389 114 18196920274635778724
13899415 180 18120672231473183119
13911987 19 17049339858335570716
13955234 65 17185306544532024003
15906896 17 18201428237980784057
16752209 62 18342182201735798387
16945 1 18411421734597416257
17357779 13 18187661149525459566
17539 30 18410015429229239727
1813 80 18118387467489945902
19591789 44 17978797036466714935
20361792 2 18265329499950277078
20567600 347 17908418405390730885
20602899 9 17973719469767522464
20645477 70 17692820289701243959
21041028 32 18268429019455801597
21344244 181 17826226578330312527
21452121 199 18052264998458207517
21524375 3 17909267227734364841
22224240 67 18192144013911354121
2255824 54 17039227615629302671
22620623 9 18408038528718213462
23419403 2 17313965025286780817
23557571 272 18198358259835080936
23558518 356 18271808990940268184
23559900 14 18189339151385101222
23598288 3 18128512981691461100
266924 87 17982443794018875788
298252 57 17984978451693340633
3729539 64 17327163855156975726
3759504 43 18198338661677886429
458136 41 17616246322860950409
633830 44 11166852834414319243
6669772 16 17903074778294359599
7364860 26 17404026924893029537
81228 2 18413114952423765033

> <PUBCHEM_SHAPE_MULTIPOLES>
418.3
7.86
4.16
1.35
9.35
1.67
0.25
-4.14
-1.41
-8.2
-0.65
0.27
-0.2
0.34

> <PUBCHEM_SHAPE_SELFOVERLAP>
877.483

> <PUBCHEM_SHAPE_VOLUME>
238

> <PUBCHEM_COORDINATE_TYPE>
2
5
10

$$$$

