75059
  -OEChem-07051213042D

 29 31  0     0  0  0  0  0  0999 V2000
    4.9889    2.1767    0.0000 O   0  0  0  0  0  0  0  0  0  0  0  0
    4.9889   -1.3338    0.0000 O   0  0  0  0  0  0  0  0  0  0  0  0
    5.2619    0.4214    0.0000 N   0  0  0  0  0  0  0  0  0  0  0  0
    6.2619    0.4214    0.0000 C   0  0  0  0  0  0  0  0  0  0  0  0
    3.7320    0.9214    0.0000 C   0  0  0  0  0  0  0  0  0  0  0  0
    3.7320   -0.0786    0.0000 C   0  0  0  0  0  0  0  0  0  0  0  0
    4.6783    1.2261    0.0000 C   0  0  0  0  0  0  0  0  0  0  0  0
    4.6783   -0.3833    0.0000 C   0  0  0  0  0  0  0  0  0  0  0  0
    6.7619   -0.4446    0.0000 C   0  0  0  0  0  0  0  0  0  0  0  0
    2.8660    1.4214    0.0000 C   0  0  0  0  0  0  0  0  0  0  0  0
    2.8660   -0.5786    0.0000 C   0  0  0  0  0  0  0  0  0  0  0  0
    6.2619   -1.3106    0.0000 C   0  0  0  0  0  0  0  0  0  0  0  0
    7.7619   -0.4446    0.0000 C   0  0  0  0  0  0  0  0  0  0  0  0
    2.0000    0.9214    0.0000 C   0  0  0  0  0  0  0  0  0  0  0  0
    2.0000   -0.0786    0.0000 C   0  0  0  0  0  0  0  0  0  0  0  0
    6.7619   -2.1767    0.0000 C   0  0  0  0  0  0  0  0  0  0  0  0
    8.2619   -1.3106    0.0000 C   0  0  0  0  0  0  0  0  0  0  0  0
    7.7619   -2.1767    0.0000 C   0  0  0  0  0  0  0  0  0  0  0  0
    6.8445    0.6335    0.0000 H   0  0  0  0  0  0  0  0  0  0  0  0
    6.1542    1.0320    0.0000 H   0  0  0  0  0  0  0  0  0  0  0  0
    2.8660    2.0414    0.0000 H   0  0  0  0  0  0  0  0  0  0  0  0
    2.8660   -1.1986    0.0000 H   0  0  0  0  0  0  0  0  0  0  0  0
    5.6419   -1.3106    0.0000 H   0  0  0  0  0  0  0  0  0  0  0  0
    8.0719    0.0923    0.0000 H   0  0  0  0  0  0  0  0  0  0  0  0
    1.4631    1.2314    0.0000 H   0  0  0  0  0  0  0  0  0  0  0  0
    1.4631   -0.3886    0.0000 H   0  0  0  0  0  0  0  0  0  0  0  0
    6.4519   -2.7136    0.0000 H   0  0  0  0  0  0  0  0  0  0  0  0
    8.8819   -1.3106    0.0000 H   0  0  0  0  0  0  0  0  0  0  0  0
    8.0719   -2.7136    0.0000 H   0  0  0  0  0  0  0  0  0  0  0  0
  1  7  2  0  0  0  0
  2  8  2  0  0  0  0
  3  4  1  0  0  0  0
  3  7  1  0  0  0  0
  3  8  1  0  0  0  0
  4  9  1  0  0  0  0
  4 19  1  0  0  0  0
  4 20  1  0  0  0  0
  5  6  1  0  0  0  0
  5  7  1  0  0  0  0
  5 10  2  0  0  0  0
  6  8  1  0  0  0  0
  6 11  2  0  0  0  0
  9 12  2  0  0  0  0
  9 13  1  0  0  0  0
 10 14  1  0  0  0  0
 10 21  1  0  0  0  0
 11 15  1  0  0  0  0
 11 22  1  0  0  0  0
 12 16  1  0  0  0  0
 12 23  1  0  0  0  0
 13 17  2  0  0  0  0
 13 24  1  0  0  0  0
 14 15  2  0  0  0  0
 14 25  1  0  0  0  0
 15 26  1  0  0  0  0
 16 18  2  0  0  0  0
 16 27  1  0  0  0  0
 17 18  1  0  0  0  0
 17 28  1  0  0  0  0
 18 29  1  0  0  0  0
M  END
> <PUBCHEM_COMPOUND_CID>
75059

> <PUBCHEM_COMPOUND_CANONICALIZED>
1

> <PUBCHEM_CACTVS_COMPLEXITY>
322

> <PUBCHEM_CACTVS_HBOND_ACCEPTOR>
2

> <PUBCHEM_CACTVS_HBOND_DONOR>
0

> <PUBCHEM_CACTVS_ROTATABLE_BOND>
2

> <PUBCHEM_CACTVS_SUBSKEYS>
AAADccByMAAAAAAAAAAAAAAAAAAAAWAAAAAwYAAAAAAAAFgBQAAAHgAAAAAADADBmAQwAIMAAACIAiFSEACCAAAkAAAIiAEIBMgIIDKAlRGEIQhghiCIiYcdiICOgAAAAAAQAAAAAAAAACAAAAAAAAAAAA==

> <PUBCHEM_IUPAC_OPENEYE_NAME>
2-benzylisoindoline-1,3-dione

> <PUBCHEM_IUPAC_CAS_NAME>
2-(phenylmethyl)isoindole-1,3-dione

> <PUBCHEM_IUPAC_NAME>
2-benzylisoindole-1,3-dione

> <PUBCHEM_IUPAC_SYSTEMATIC_NAME>
2-(phenylmethyl)isoindole-1,3-dione

> <PUBCHEM_IUPAC_TRADITIONAL_NAME>
2-benzylisoindoline-1,3-quinone

> <PUBCHEM_IUPAC_INCHI>
InChI=1S/C15H11NO2/c17-14-12-8-4-5-9-13(12)15(18)16(14)10-11-6-2-1-3-7-11/h1-9H,10H2

> <PUBCHEM_IUPAC_INCHIKEY>
WITXFYCLPDFRNM-UHFFFAOYSA-N

> <PUBCHEM_XLOGP3>
2.8

> <PUBCHEM_EXACT_MASS>
237.078979

> <PUBCHEM_MOLECULAR_FORMULA>
C15H11NO2

> <PUBCHEM_MOLECULAR_WEIGHT>
237.25334

> <PUBCHEM_OPENEYE_CAN_SMILES>
C1=CC=C(C=C1)CN2C(=O)C3=CC=CC=C3C2=O

> <PUBCHEM_OPENEYE_ISO_SMILES>
C1=CC=C(C=C1)CN2C(=O)C3=CC=CC=C3C2=O

> <PUBCHEM_CACTVS_TPSA>
37.4

> <PUBCHEM_MONOISOTOPIC_WEIGHT>
237.078979

> <PUBCHEM_TOTAL_CHARGE>
0

> <PUBCHEM_HEAVY_ATOM_COUNT>
18

> <PUBCHEM_ATOM_DEF_STEREO_COUNT>
0

> <PUBCHEM_ATOM_UDEF_STEREO_COUNT>
0

> <PUBCHEM_BOND_DEF_STEREO_COUNT>
0

> <PUBCHEM_BOND_UDEF_STEREO_COUNT>
0

> <PUBCHEM_ISOTOPIC_ATOM_COUNT>
0

> <PUBCHEM_COMPONENT_COUNT>
1

> <PUBCHEM_CACTVS_TAUTO_COUNT>
1

> <PUBCHEM_COORDINATE_TYPE>
1
5
255

> <PUBCHEM_BONDANNOTATIONS>
10  14  8
11  15  8
12  16  8
13  17  8
14  15  8
16  18  8
17  18  8
5  10  8
5  6  8
6  11  8
9  12  8
9  13  8

$$$$

