11953812
  -OEChem-07051212472D

 56 60  0     0  0  0  0  0  0999 V2000
    9.4315    2.4015    0.0000 S   0  0  0  0  0  0  0  0  0  0  0  0
    8.4530    2.1952    0.0000 O   0  0  0  0  0  0  0  0  0  0  0  0
   10.4100    2.6077    0.0000 O   0  0  0  0  0  0  0  0  0  0  0  0
    9.2253    3.3800    0.0000 O   0  0  0  0  0  0  0  0  0  0  0  0
    9.6378    1.4230    0.0000 O   0  0  0  0  0  0  0  0  0  0  0  0
    2.0000    2.9400    0.0000 O   0  0  0  0  0  0  0  0  0  0  0  0
    7.1962    0.9400    0.0000 N   0  0  0  0  0  0  0  0  0  0  0  0
    8.1424   -0.3647    0.0000 N   0  0  0  0  0  0  0  0  0  0  0  0
    5.4641   -0.0600    0.0000 N   0  0  0  0  0  0  0  0  0  0  0  0
    7.1962   -0.0600    0.0000 C   0  0  0  0  0  0  0  0  0  0  0  0
    8.7260    0.4400    0.0000 C   0  0  0  0  0  0  0  0  0  0  0  0
    6.3301   -0.5600    0.0000 C   0  0  0  0  0  0  0  0  0  0  0  0
    8.1424    1.2447    0.0000 C   0  0  0  0  0  0  0  0  0  0  0  0
    9.7260    0.4400    0.0000 C   0  0  0  0  0  0  0  0  0  0  0  0
    6.3301   -1.5600    0.0000 C   0  0  0  0  0  0  0  0  0  0  0  0
    6.3301    1.4400    0.0000 C   0  0  0  0  0  0  0  0  0  0  0  0
    5.4641    0.9400    0.0000 C   0  0  0  0  0  0  0  0  0  0  0  0
   10.2260   -0.4260    0.0000 C   0  0  0  0  0  0  0  0  0  0  0  0
    5.4641   -2.0600    0.0000 C   0  0  0  0  0  0  0  0  0  0  0  0
    4.5981    1.4400    0.0000 C   0  0  0  0  0  0  0  0  0  0  0  0
    9.7260   -1.2920    0.0000 C   0  0  0  0  0  0  0  0  0  0  0  0
   11.2260   -0.4260    0.0000 C   0  0  0  0  0  0  0  0  0  0  0  0
    4.5981   -1.5600    0.0000 C   0  0  0  0  0  0  0  0  0  0  0  0
    5.4641   -3.0600    0.0000 C   0  0  0  0  0  0  0  0  0  0  0  0
    4.5981    2.4400    0.0000 C   0  0  0  0  0  0  0  0  0  0  0  0
    3.7320    0.9400    0.0000 C   0  0  0  0  0  0  0  0  0  0  0  0
   10.2260   -2.1581    0.0000 C   0  0  0  0  0  0  0  0  0  0  0  0
   11.7260   -1.2920    0.0000 C   0  0  0  0  0  0  0  0  0  0  0  0
    3.7320   -2.0600    0.0000 C   0  0  0  0  0  0  0  0  0  0  0  0
    4.5981   -3.5600    0.0000 C   0  0  0  0  0  0  0  0  0  0  0  0
    3.7320    2.9400    0.0000 C   0  0  0  0  0  0  0  0  0  0  0  0
    2.8660    1.4400    0.0000 C   0  0  0  0  0  0  0  0  0  0  0  0
   11.2260   -2.1581    0.0000 C   0  0  0  0  0  0  0  0  0  0  0  0
    3.7320   -3.0600    0.0000 C   0  0  0  0  0  0  0  0  0  0  0  0
    2.8660    2.4400    0.0000 C   0  0  0  0  0  0  0  0  0  0  0  0
   10.3086    0.6521    0.0000 H   0  0  0  0  0  0  0  0  0  0  0  0
    9.6183    1.0506    0.0000 H   0  0  0  0  0  0  0  0  0  0  0  0
    6.5422   -2.1426    0.0000 H   0  0  0  0  0  0  0  0  0  0  0  0
    6.9407   -1.4523    0.0000 H   0  0  0  0  0  0  0  0  0  0  0  0
    6.3301    2.0600    0.0000 H   0  0  0  0  0  0  0  0  0  0  0  0
    9.1060   -1.2920    0.0000 H   0  0  0  0  0  0  0  0  0  0  0  0
   11.5360    0.1109    0.0000 H   0  0  0  0  0  0  0  0  0  0  0  0
    4.5981   -0.9400    0.0000 H   0  0  0  0  0  0  0  0  0  0  0  0
    6.0010   -3.3700    0.0000 H   0  0  0  0  0  0  0  0  0  0  0  0
    5.1350    2.7500    0.0000 H   0  0  0  0  0  0  0  0  0  0  0  0
    3.7320    0.3200    0.0000 H   0  0  0  0  0  0  0  0  0  0  0  0
    9.9160   -2.6950    0.0000 H   0  0  0  0  0  0  0  0  0  0  0  0
   12.3460   -1.2920    0.0000 H   0  0  0  0  0  0  0  0  0  0  0  0
    3.1951   -1.7500    0.0000 H   0  0  0  0  0  0  0  0  0  0  0  0
    4.5981   -4.1800    0.0000 H   0  0  0  0  0  0  0  0  0  0  0  0
    3.7320    3.5600    0.0000 H   0  0  0  0  0  0  0  0  0  0  0  0
    2.3291    1.1300    0.0000 H   0  0  0  0  0  0  0  0  0  0  0  0
   11.5360   -2.6950    0.0000 H   0  0  0  0  0  0  0  0  0  0  0  0
    3.1951   -3.3700    0.0000 H   0  0  0  0  0  0  0  0  0  0  0  0
   10.6027    3.1970    0.0000 H   0  0  0  0  0  0  0  0  0  0  0  0
    2.0000    3.5600    0.0000 H   0  0  0  0  0  0  0  0  0  0  0  0
  1  2  1  0  0  0  0
  1  3  1  0  0  0  0
  1  4  2  0  0  0  0
  1  5  2  0  0  0  0
  2 13  1  0  0  0  0
  3 55  1  0  0  0  0
  6 35  1  0  0  0  0
  6 56  1  0  0  0  0
  7 10  1  0  0  0  0
  7 13  1  0  0  0  0
  7 16  1  0  0  0  0
  8 10  2  0  0  0  0
  8 11  1  0  0  0  0
  9 12  2  0  0  0  0
  9 17  1  0  0  0  0
 10 12  1  0  0  0  0
 11 13  2  0  0  0  0
 11 14  1  0  0  0  0
 12 15  1  0  0  0  0
 14 18  1  0  0  0  0
 14 36  1  0  0  0  0
 14 37  1  0  0  0  0
 15 19  1  0  0  0  0
 15 38  1  0  0  0  0
 15 39  1  0  0  0  0
 16 17  2  0  0  0  0
 16 40  1  0  0  0  0
 17 20  1  0  0  0  0
 18 21  2  0  0  0  0
 18 22  1  0  0  0  0
 19 23  2  0  0  0  0
 19 24  1  0  0  0  0
 20 25  2  0  0  0  0
 20 26  1  0  0  0  0
 21 27  1  0  0  0  0
 21 41  1  0  0  0  0
 22 28  2  0  0  0  0
 22 42  1  0  0  0  0
 23 29  1  0  0  0  0
 23 43  1  0  0  0  0
 24 30  2  0  0  0  0
 24 44  1  0  0  0  0
 25 31  1  0  0  0  0
 25 45  1  0  0  0  0
 26 32  2  0  0  0  0
 26 46  1  0  0  0  0
 27 33  2  0  0  0  0
 27 47  1  0  0  0  0
 28 33  1  0  0  0  0
 28 48  1  0  0  0  0
 29 34  2  0  0  0  0
 29 49  1  0  0  0  0
 30 34  1  0  0  0  0
 30 50  1  0  0  0  0
 31 35  2  0  0  0  0
 31 51  1  0  0  0  0
 32 35  1  0  0  0  0
 32 52  1  0  0  0  0
 33 53  1  0  0  0  0
 34 54  1  0  0  0  0
M  END
> <PUBCHEM_COMPOUND_CID>
11953812

> <PUBCHEM_COMPOUND_CANONICALIZED>
1

> <PUBCHEM_CACTVS_COMPLEXITY>
772

> <PUBCHEM_CACTVS_HBOND_ACCEPTOR>
7

> <PUBCHEM_CACTVS_HBOND_DONOR>
2

> <PUBCHEM_CACTVS_ROTATABLE_BOND>
7

> <PUBCHEM_CACTVS_SUBSKEYS>
AAADceB7OABAAAAAAAAAAAAAAAAAAWAAAAA8YMEAAAAAAFgB9AAAHgAACAAADAzBnwQ9tp8MGoCgAzZnZDSCgC0xcqAJ2CA/fJiKbuLCmROUcAhswBPY2CeQ0KMOIAAAAAAAAABAAAAAAAAAAAAAAAAAAA==

> <PUBCHEM_IUPAC_OPENEYE_NAME>
[2,8-dibenzyl-6-(4-hydroxyphenyl)imidazo[1,2-a]pyrazin-3-yl] hydrogen sulfate

> <PUBCHEM_IUPAC_CAS_NAME>
sulfuric acid [6-(4-hydroxyphenyl)-2,8-bis(phenylmethyl)-3-imidazo[1,2-a]pyrazinyl] ester

> <PUBCHEM_IUPAC_NAME>
[2,8-dibenzyl-6-(4-hydroxyphenyl)imidazo[1,2-a]pyrazin-3-yl] hydrogen sulfate

> <PUBCHEM_IUPAC_SYSTEMATIC_NAME>
[6-(4-hydroxyphenyl)-2,8-bis(phenylmethyl)imidazo[1,2-a]pyrazin-3-yl] hydrogen sulfate

> <PUBCHEM_IUPAC_TRADITIONAL_NAME>
sulfuric acid [2,8-dibenzyl-6-(4-hydroxyphenyl)imidazo[1,2-a]pyrazin-3-yl] ester

> <PUBCHEM_IUPAC_INCHI>
InChI=1S/C26H21N3O5S/c30-21-13-11-20(12-14-21)24-17-29-25(22(27-24)15-18-7-3-1-4-8-18)28-23(26(29)34-35(31,32)33)16-19-9-5-2-6-10-19/h1-14,17,30H,15-16H2,(H,31,32,33)

> <PUBCHEM_IUPAC_INCHIKEY>
FWTNBXHOBWPZGV-UHFFFAOYSA-N

> <PUBCHEM_XLOGP3_AA>
5.3

> <PUBCHEM_EXACT_MASS>
487.120192

> <PUBCHEM_MOLECULAR_FORMULA>
C26H21N3O5S

> <PUBCHEM_MOLECULAR_WEIGHT>
487.52704

> <PUBCHEM_OPENEYE_CAN_SMILES>
C1=CC=C(C=C1)CC2=C(N3C=C(N=C(C3=N2)CC4=CC=CC=C4)C5=CC=C(C=C5)O)OS(=O)(=O)O

> <PUBCHEM_OPENEYE_ISO_SMILES>
C1=CC=C(C=C1)CC2=C(N3C=C(N=C(C3=N2)CC4=CC=CC=C4)C5=CC=C(C=C5)O)OS(=O)(=O)O

> <PUBCHEM_CACTVS_TPSA>
122

> <PUBCHEM_MONOISOTOPIC_WEIGHT>
487.120192

> <PUBCHEM_TOTAL_CHARGE>
0

> <PUBCHEM_HEAVY_ATOM_COUNT>
35

> <PUBCHEM_ATOM_DEF_STEREO_COUNT>
0

> <PUBCHEM_ATOM_UDEF_STEREO_COUNT>
0

> <PUBCHEM_BOND_DEF_STEREO_COUNT>
0

> <PUBCHEM_BOND_UDEF_STEREO_COUNT>
0

> <PUBCHEM_ISOTOPIC_ATOM_COUNT>
0

> <PUBCHEM_COMPONENT_COUNT>
1

> <PUBCHEM_CACTVS_TAUTO_COUNT>
2

> <PUBCHEM_COORDINATE_TYPE>
1
5
255

> <PUBCHEM_BONDANNOTATIONS>
10  12  8
11  13  8
16  17  8
18  21  8
18  22  8
19  23  8
19  24  8
20  25  8
20  26  8
21  27  8
22  28  8
23  29  8
24  30  8
25  31  8
26  32  8
27  33  8
28  33  8
29  34  8
30  34  8
31  35  8
32  35  8
7  10  8
7  13  8
7  16  8
8  10  8
8  11  8
9  12  8
9  17  8

$$$$

