56928095
  -OEChem-07051213103D

 40 41  0     1  0  0  0  0  0999 V2000
   -4.0591   -1.8797    0.0990 Br  0  0  0  0  0  0  0  0  0  0  0  0
    3.9934   -1.2636    0.4584 O   0  0  0  0  0  0  0  0  0  0  0  0
   -0.2413    0.2722    0.1172 C   0  0  2  0  0  0  0  0  0  0  0  0
   -1.3041   -0.8579   -0.3226 C   0  0  0  0  0  0  0  0  0  0  0  0
    1.0884    0.1405   -0.6972 C   0  0  0  0  0  0  0  0  0  0  0  0
    0.2249    0.1116    1.6035 C   0  0  0  0  0  0  0  0  0  0  0  0
    2.2267    0.3273    0.3028 C   0  0  1  0  0  0  0  0  0  0  0  0
    1.6846   -0.3253    1.5609 C   0  0  0  0  0  0  0  0  0  0  0  0
   -0.8565    1.6905   -0.0131 C   0  0  0  0  0  0  0  0  0  0  0  0
   -2.6509   -0.5385    0.3961 C   0  0  1  0  0  0  0  0  0  0  0  0
   -0.8193   -2.2808    0.0675 C   0  0  0  0  0  0  0  0  0  0  0  0
   -1.4866   -0.8474   -1.8686 C   0  0  0  0  0  0  0  0  0  0  0  0
   -3.2247    0.8229    0.0110 C   0  0  0  0  0  0  0  0  0  0  0  0
   -2.1863    1.8948   -0.0585 C   0  0  0  0  0  0  0  0  0  0  0  0
    3.4788   -0.3393   -0.1693 C   0  0  0  0  0  0  0  0  0  0  0  0
    0.0529    2.8963   -0.0378 C   0  0  0  0  0  0  0  0  0  0  0  0
    4.0790    0.1765   -1.4493 C   0  0  0  0  0  0  0  0  0  0  0  0
    1.1548    0.8509   -1.5280 H   0  0  0  0  0  0  0  0  0  0  0  0
    1.1886   -0.8474   -1.1582 H   0  0  0  0  0  0  0  0  0  0  0  0
   -0.3705   -0.5972    2.1845 H   0  0  0  0  0  0  0  0  0  0  0  0
    0.1634    1.0599    2.1526 H   0  0  0  0  0  0  0  0  0  0  0  0
    2.4385    1.3859    0.4845 H   0  0  0  0  0  0  0  0  0  0  0  0
    2.2290   -0.0112    2.4576 H   0  0  0  0  0  0  0  0  0  0  0  0
    1.7366   -1.4199    1.5127 H   0  0  0  0  0  0  0  0  0  0  0  0
   -2.5110   -0.5727    1.4830 H   0  0  0  0  0  0  0  0  0  0  0  0
   -2.2825   -1.5275   -2.1885 H   0  0  0  0  0  0  0  0  0  0  0  0
   -1.7307    0.1458   -2.2564 H   0  0  0  0  0  0  0  0  0  0  0  0
   -0.5808   -1.1802   -2.3856 H   0  0  0  0  0  0  0  0  0  0  0  0
   -0.8647   -2.4486    1.1479 H   0  0  0  0  0  0  0  0  0  0  0  0
   -1.4323   -3.0578   -0.4026 H   0  0  0  0  0  0  0  0  0  0  0  0
    0.2075   -2.4749   -0.2535 H   0  0  0  0  0  0  0  0  0  0  0  0
   -3.9850    1.1162    0.7460 H   0  0  0  0  0  0  0  0  0  0  0  0
   -3.7357    0.7825   -0.9593 H   0  0  0  0  0  0  0  0  0  0  0  0
   -2.5711    2.9081   -0.1493 H   0  0  0  0  0  0  0  0  0  0  0  0
    0.7009    2.9169    0.8427 H   0  0  0  0  0  0  0  0  0  0  0  0
   -0.5102    3.8366   -0.0338 H   0  0  0  0  0  0  0  0  0  0  0  0
    0.6743    2.9064   -0.9373 H   0  0  0  0  0  0  0  0  0  0  0  0
    4.1673    1.2650   -1.4046 H   0  0  0  0  0  0  0  0  0  0  0  0
    3.4586   -0.1178   -2.2988 H   0  0  0  0  0  0  0  0  0  0  0  0
    5.0798   -0.2453   -1.5786 H   0  0  0  0  0  0  0  0  0  0  0  0
  1 10  1  0  0  0  0
  2 15  2  0  0  0  0
  3  4  1  0  0  0  0
  3  5  1  0  0  0  0
  3  6  1  0  0  0  0
  3  9  1  0  0  0  0
  4 10  1  0  0  0  0
  4 11  1  0  0  0  0
  4 12  1  0  0  0  0
  5  7  1  0  0  0  0
  5 18  1  0  0  0  0
  5 19  1  0  0  0  0
  6  8  1  0  0  0  0
  6 20  1  0  0  0  0
  6 21  1  0  0  0  0
  7  8  1  0  0  0  0
  7 15  1  0  0  0  0
  7 22  1  0  0  0  0
  8 23  1  0  0  0  0
  8 24  1  0  0  0  0
  9 14  2  0  0  0  0
  9 16  1  0  0  0  0
 10 13  1  0  0  0  0
 10 25  1  0  0  0  0
 11 29  1  0  0  0  0
 11 30  1  0  0  0  0
 11 31  1  0  0  0  0
 12 26  1  0  0  0  0
 12 27  1  0  0  0  0
 12 28  1  0  0  0  0
 13 14  1  0  0  0  0
 13 32  1  0  0  0  0
 13 33  1  0  0  0  0
 14 34  1  0  0  0  0
 15 17  1  0  0  0  0
 16 35  1  0  0  0  0
 16 36  1  0  0  0  0
 16 37  1  0  0  0  0
 17 38  1  0  0  0  0
 17 39  1  0  0  0  0
 17 40  1  0  0  0  0
M  END
> <PUBCHEM_COMPOUND_CID>
56928095

> <PUBCHEM_CONFORMER_RMSD>
0.6

> <PUBCHEM_CONFORMER_DIVERSEORDER>
2
5
4
3
1

> <PUBCHEM_MMFF94_PARTIAL_CHARGES>
12
1 -0.23
10 0.23
13 0.14
14 -0.29
15 0.45
16 0.14
17 0.06
2 -0.57
3 0.14
34 0.15
7 0.06
9 -0.28

> <PUBCHEM_EFFECTIVE_ROTOR_COUNT>
2.4

> <PUBCHEM_PHARMACOPHORE_FEATURES>
5
1 1 hydrophobe
1 2 acceptor
3 4 11 12 hydrophobe
5 3 5 6 7 8 rings
6 3 4 9 10 13 14 rings

> <PUBCHEM_HEAVY_ATOM_COUNT>
17

> <PUBCHEM_ATOM_DEF_STEREO_COUNT>
3

> <PUBCHEM_ATOM_UDEF_STEREO_COUNT>
0

> <PUBCHEM_BOND_DEF_STEREO_COUNT>
0

> <PUBCHEM_BOND_UDEF_STEREO_COUNT>
0

> <PUBCHEM_ISOTOPIC_ATOM_COUNT>
0

> <PUBCHEM_COMPONENT_COUNT>
1

> <PUBCHEM_CACTVS_TAUTO_COUNT>
3

> <PUBCHEM_CONFORMER_ID>
0364A75F00000002

> <PUBCHEM_MMFF94_ENERGY>
55.8491

> <PUBCHEM_FEATURE_SELFOVERLAP>
25.376

> <PUBCHEM_SHAPE_FINGERPRINT>
10863032 1 18338796843983112387
11680986 33 17908982102567955843
12173636 292 18342180002723059836
12186901 62 18337945791865662973
12236239 1 17775001323180878200
12553582 1 18337395924435807886
12714826 92 18040431101064202318
13024252 1 17704066317804107025
13296908 3 18336835207822740760
13538477 17 18129392642491208385
13581323 91 18335139799679258526
14993402 34 18412267233475100589
15219456 202 17676501514103922336
15342168 16 16127501836512094604
16752209 62 18341066167653768487
16945 1 18339091414346620771
17804303 29 18113614556480867859
19422 9 18131631209748076874
19868273 325 18412268332591271281
200 152 17632579348752311994
20510252 161 18334012804387145617
20645476 183 18059297681309639929
20871998 184 18259705618333156909
20871999 31 18411979148258800517
21029758 27 18270109124604440757
21296965 67 18338235968546302897
22094290 60 18410852157308990606
22182313 1 18125745417063277101
22802520 49 18260270784473819962
228727 97 18060698399036257960
23402539 116 18411706503966926438
23419403 2 15951694256526461065
23493267 7 18269558410923318017
23557571 272 18261108544237538648
23559900 14 18188493600999256482
2748010 2 18265918890044216889
296302 2 13840268074224986794
43471831 8 18341615979012665819
465052 167 18266731382256785859
474 4 17273120307826151620
7364860 26 17974570195509869825
77492 1 17775287204910105224
81228 2 18191048757925397737
90525 40 18197221570801371218

> <PUBCHEM_SHAPE_MULTIPOLES>
349.92
6.38
2.29
1.3
2.79
1.04
-0.08
-2.82
-0.88
-1.38
-0.02
0.54
-0.23
-0.19

> <PUBCHEM_SHAPE_SELFOVERLAP>
705.551

> <PUBCHEM_SHAPE_VOLUME>
210.8

> <PUBCHEM_COORDINATE_TYPE>
2
5
10

$$$$

