10983572
  -OEChem-07051213113D

 19 19  0     0  0  0  0  0  0999 V2000
   -1.0514    0.0003    0.0003 C   0  0  0  0  0  0  0  0  0  0  0  0
   -1.7492    1.2080    0.0001 C   0  0  0  0  0  0  0  0  0  0  0  0
   -1.7484   -1.2079    0.0002 C   0  0  0  0  0  0  0  0  0  0  0  0
   -3.1442    1.2076   -0.0002 C   0  0  0  0  0  0  0  0  0  0  0  0
   -3.1433   -1.2084   -0.0003 C   0  0  0  0  0  0  0  0  0  0  0  0
   -3.8411   -0.0006   -0.0005 C   0  0  0  0  0  0  0  0  0  0  0  0
    0.3777    0.0008    0.0002 C   0  0  0  0  0  0  0  0  0  0  0  0
    1.5802    0.0007    0.0004 C   0  0  0  0  0  0  0  0  0  0  0  0
    5.6149   -0.0006   -0.0012 C   0  0  0  0  0  0  0  0  0  0  0  0
    2.9521    0.0001    0.0007 C   0  0  0  0  0  0  0  0  0  0  0  0
    4.1526   -0.0001    0.0003 C   0  0  0  0  0  0  0  0  0  0  0  0
   -1.2204    2.1581    0.0001 H   0  0  0  0  0  0  0  0  0  0  0  0
   -1.2188   -2.1577    0.0003 H   0  0  0  0  0  0  0  0  0  0  0  0
   -3.6877    2.1480   -0.0004 H   0  0  0  0  0  0  0  0  0  0  0  0
   -3.6862   -2.1490   -0.0005 H   0  0  0  0  0  0  0  0  0  0  0  0
   -4.9272   -0.0010   -0.0008 H   0  0  0  0  0  0  0  0  0  0  0  0
    6.0031   -0.5779   -0.8456 H   0  0  0  0  0  0  0  0  0  0  0  0
    6.0043    1.0189   -0.0795 H   0  0  0  0  0  0  0  0  0  0  0  0
    6.0048   -0.4430    0.9204 H   0  0  0  0  0  0  0  0  0  0  0  0
  1  2  2  0  0  0  0
  1  3  1  0  0  0  0
  1  7  1  0  0  0  0
  2  4  1  0  0  0  0
  2 12  1  0  0  0  0
  3  5  2  0  0  0  0
  3 13  1  0  0  0  0
  4  6  2  0  0  0  0
  4 14  1  0  0  0  0
  5  6  1  0  0  0  0
  5 15  1  0  0  0  0
  6 16  1  0  0  0  0
  7  8  3  0  0  0  0
  8 10  1  0  0  0  0
  9 11  1  0  0  0  0
  9 17  1  0  0  0  0
  9 18  1  0  0  0  0
  9 19  1  0  0  0  0
 10 11  3  0  0  0  0
M  END
> <PUBCHEM_COMPOUND_CID>
10983572

> <PUBCHEM_CONFORMER_RMSD>
0.4

> <PUBCHEM_CONFORMER_DIVERSEORDER>
1

> <PUBCHEM_MMFF94_PARTIAL_CHARGES>
14
1 0.07
11 -0.2
12 0.15
13 0.15
14 0.15
15 0.15
16 0.15
2 -0.15
3 -0.15
4 -0.15
5 -0.15
6 -0.15
7 -0.07
9 0.2

> <PUBCHEM_EFFECTIVE_ROTOR_COUNT>
0

> <PUBCHEM_PHARMACOPHORE_FEATURES>
2
1 9 hydrophobe
6 1 2 3 4 5 6 rings

> <PUBCHEM_HEAVY_ATOM_COUNT>
11

> <PUBCHEM_ATOM_DEF_STEREO_COUNT>
0

> <PUBCHEM_ATOM_UDEF_STEREO_COUNT>
0

> <PUBCHEM_BOND_DEF_STEREO_COUNT>
0

> <PUBCHEM_BOND_UDEF_STEREO_COUNT>
0

> <PUBCHEM_ISOTOPIC_ATOM_COUNT>
0

> <PUBCHEM_COMPONENT_COUNT>
1

> <PUBCHEM_CACTVS_TAUTO_COUNT>
1

> <PUBCHEM_CONFORMER_ID>
00A7989400000001

> <PUBCHEM_MMFF94_ENERGY>
14.275

> <PUBCHEM_FEATURE_SELFOVERLAP>
10.148

> <PUBCHEM_SHAPE_FINGERPRINT>
10680689 15 18410568479246113834
13024252 1 15626223520615880561
14123238 8 18407760331181273324
14325111 11 18410856594010122914
17834072 33 18271522005947421060
1986462 14 18409728465252578716
200 152 16732707155375217645
20279233 1 17749101197423258094
20645464 45 17894906330728915023
20645477 56 18338515343585069373
20645477 70 17023458776604767766
20828058 44 18410293610171742906
22485316 2 18335423474064476486
2297311 6 18261098682633742580
23402539 116 18335427867546852421
42788 4 18410573981647748612
573450 72 18271818951048113962
77779 3 18410572886230608588

> <PUBCHEM_SHAPE_MULTIPOLES>
226.37
9.88
1.15
0.62
13.43
0
0
0
0
-1.3
0
0
0
0

> <PUBCHEM_SHAPE_SELFOVERLAP>
463.846

> <PUBCHEM_SHAPE_VOLUME>
123.1

> <PUBCHEM_COORDINATE_TYPE>
2
5
10

$$$$

