440310
  -OEChem-07051212493D

 23 23  0     1  0  0  0  0  0999 V2000
    3.1491   -2.9641    0.0488 I   0  0  0  0  0  0  0  0  0  0  0  0
    2.9023    3.1191   -0.3772 I   0  0  0  0  0  0  0  0  0  0  0  0
   -2.3181   -1.5149   -0.8416 O   0  0  0  0  0  0  0  0  0  0  0  0
    4.0737    0.1040   -0.3992 O   0  0  0  0  0  0  0  0  0  0  0  0
   -3.8692    1.5316    0.2427 O   0  0  0  0  0  0  0  0  0  0  0  0
   -4.7100   -0.5335   -0.1830 O   0  0  0  0  0  0  0  0  0  0  0  0
   -1.4358   -0.0338    0.8328 C   0  0  0  0  0  0  0  0  0  0  0  0
    0.0194    0.0026    0.5079 C   0  0  0  0  0  0  0  0  0  0  0  0
   -2.3188   -0.1565   -0.4196 C   0  0  2  0  0  0  0  0  0  0  0  0
    0.6508    1.2236    0.2716 C   0  0  0  0  0  0  0  0  0  0  0  0
    0.7487   -1.1844    0.4396 C   0  0  0  0  0  0  0  0  0  0  0  0
    2.1095   -1.1506    0.1348 C   0  0  0  0  0  0  0  0  0  0  0  0
    2.0116    1.2576   -0.0331 C   0  0  0  0  0  0  0  0  0  0  0  0
    2.7410    0.0706   -0.1016 C   0  0  0  0  0  0  0  0  0  0  0  0
   -3.7541    0.2286   -0.1230 C   0  0  0  0  0  0  0  0  0  0  0  0
   -1.6889    0.8710    1.4003 H   0  0  0  0  0  0  0  0  0  0  0  0
   -1.6362   -0.8700    1.5165 H   0  0  0  0  0  0  0  0  0  0  0  0
   -1.9558    0.4623   -1.2481 H   0  0  0  0  0  0  0  0  0  0  0  0
    0.0718    2.1430    0.3250 H   0  0  0  0  0  0  0  0  0  0  0  0
    0.2465   -2.1314    0.6254 H   0  0  0  0  0  0  0  0  0  0  0  0
   -2.7941   -1.5583   -1.6885 H   0  0  0  0  0  0  0  0  0  0  0  0
    4.4120   -0.8080   -0.4025 H   0  0  0  0  0  0  0  0  0  0  0  0
   -4.7983    1.7745    0.4427 H   0  0  0  0  0  0  0  0  0  0  0  0
  1 12  1  0  0  0  0
  2 13  1  0  0  0  0
  3  9  1  0  0  0  0
  3 21  1  0  0  0  0
  4 14  1  0  0  0  0
  4 22  1  0  0  0  0
  5 15  1  0  0  0  0
  5 23  1  0  0  0  0
  6 15  2  0  0  0  0
  7  8  1  0  0  0  0
  7  9  1  0  0  0  0
  7 16  1  0  0  0  0
  7 17  1  0  0  0  0
  8 10  2  0  0  0  0
  8 11  1  0  0  0  0
  9 15  1  0  0  0  0
  9 18  1  0  0  0  0
 10 13  1  0  0  0  0
 10 19  1  0  0  0  0
 11 12  2  0  0  0  0
 11 20  1  0  0  0  0
 12 14  1  0  0  0  0
 13 14  2  0  0  0  0
M  END
> <PUBCHEM_COMPOUND_CID>
440310

> <PUBCHEM_CONFORMER_RMSD>
0.6

> <PUBCHEM_CONFORMER_DIVERSEORDER>
1
14
12
9
6
10
8
5
3
11
15
7
2
13
4

> <PUBCHEM_MMFF94_PARTIAL_CHARGES>
20
1 -0.08
10 -0.15
11 -0.15
12 0.08
13 0.08
14 0.08
15 0.66
19 0.15
2 -0.08
20 0.15
21 0.4
22 0.45
23 0.5
3 -0.68
4 -0.53
5 -0.65
6 -0.57
7 0.14
8 -0.14
9 0.34

> <PUBCHEM_EFFECTIVE_ROTOR_COUNT>
3

> <PUBCHEM_PHARMACOPHORE_FEATURES>
9
1 1 hydrophobe
1 2 hydrophobe
1 3 acceptor
1 3 donor
1 4 donor
1 5 acceptor
1 6 acceptor
3 5 6 15 anion
6 8 10 11 12 13 14 rings

> <PUBCHEM_HEAVY_ATOM_COUNT>
15

> <PUBCHEM_ATOM_DEF_STEREO_COUNT>
0

> <PUBCHEM_ATOM_UDEF_STEREO_COUNT>
1

> <PUBCHEM_BOND_DEF_STEREO_COUNT>
0

> <PUBCHEM_BOND_UDEF_STEREO_COUNT>
0

> <PUBCHEM_ISOTOPIC_ATOM_COUNT>
0

> <PUBCHEM_COMPONENT_COUNT>
1

> <PUBCHEM_CACTVS_TAUTO_COUNT>
2

> <PUBCHEM_CONFORMER_ID>
0006B7F600000001

> <PUBCHEM_MMFF94_ENERGY>
27.7671

> <PUBCHEM_FEATURE_SELFOVERLAP>
45.735

> <PUBCHEM_SHAPE_FINGERPRINT>
10608611 8 18272091573992037345
11265709 11 18053385680713522002
11471102 20 18413671322597759628
116883 192 17903917000253895238
11715629 250 18271253728925513869
12730499 353 18270952441232738939
14415576 193 18340204098634202108
14576447 43 18334020462440597175
14911166 2 18340476803893927116
15442244 35 18264768950841194497
15477762 27 18410293635751824498
16945 1 18340193134125611706
18186145 218 18201164269011411157
19422 9 18335702775766584451
20645476 183 18259705571104808911
20645477 70 18411138086246415238
20671657 1 18411979161027605734
20671657 53 18193836166094513798
21499 59 18196653986662971348
21524375 3 17769384820603175464
221490 88 18341323409998097699
2255824 54 18410856551503795466
23402655 69 18411140264116256501
23526113 38 18131064982755649786
23557571 272 14345783976785748082
23559900 14 18408327709045737850
23598291 2 18044360863117531586
25 1 18271806783379416156
2748010 2 17909529685333996816
3060560 45 18410008819670301166
3071541 37 18343014468130330444
474 4 18199468762105182900
5104073 3 18336827593283556187
5281201 14 18271525385669912725
53777708 50 18335421244881504315
543358 83 18337382842123432888
7364860 26 18410013230506625368
77779 3 18411418415046456947
81228 2 17762327424936774498
84936 182 18189054196715222224
93112 12 18408887308824259389
9709674 26 18413103957450197883
9939556 21 18334581230698039215
9981440 41 17979080383959912488

> <PUBCHEM_SHAPE_MULTIPOLES>
309.09
7.82
3.22
0.79
8.55
0.52
0
-0.06
1.07
-4.93
0.31
0.04
-0.04
-0.49

> <PUBCHEM_SHAPE_SELFOVERLAP>
598.328

> <PUBCHEM_SHAPE_VOLUME>
193.1

> <PUBCHEM_COORDINATE_TYPE>
2
5
10

$$$$

