5281501
  -OEChem-07051212572D

 49 51  0     1  0  0  0  0  0999 V2000
    7.1949    2.1490    0.0000 O   0  0  0  0  0  0  0  0  0  0  0  0
    6.6576   -1.6800    0.0000 O   0  0  0  0  0  0  0  0  0  0  0  0
    4.2704    0.3478    0.0000 O   0  0  0  0  0  0  0  0  0  0  0  0
    8.9510    1.6464    0.0000 O   0  0  0  0  0  0  0  0  0  0  0  0
    5.3598   -2.8929    0.0000 O   0  0  0  0  0  0  0  0  0  0  0  0
    3.9696    2.0535    0.0000 O   0  0  0  0  0  0  0  0  0  0  0  0
    5.7552   -0.3446    0.0000 C   0  0  2  0  0  0  0  0  0  0  0  0
    6.1949    2.1490    0.0000 C   0  0  2  0  0  0  0  0  0  0  0  0
    5.2552    0.5214    0.0000 C   0  0  1  0  0  0  0  0  0  0  0  0
    5.4288    1.5062    0.0000 C   0  0  0  0  0  0  0  0  0  0  0  0
    6.6949   -0.6866    0.0000 C   0  0  1  0  0  0  0  0  0  0  0  0
    7.9609    1.5062    0.0000 C   0  0  1  0  0  0  0  0  0  0  0  0
    6.9152    2.8418    0.0000 C   0  0  0  0  0  0  0  0  0  0  0  0
    5.1452   -1.1295    0.0000 C   0  0  0  0  0  0  0  0  0  0  0  0
    8.1346    0.5214    0.0000 C   0  0  0  0  0  0  0  0  0  0  0  0
    7.6346   -0.3446    0.0000 C   0  0  0  0  0  0  0  0  0  0  0  0
    5.5265    2.8929    0.0000 C   0  0  0  0  0  0  0  0  0  0  0  0
    7.8544    2.4999    0.0000 C   0  0  0  0  0  0  0  0  0  0  0  0
    5.7018   -1.9532    0.0000 C   0  0  0  0  0  0  0  0  0  0  0  0
    9.1194    0.3478    0.0000 C   0  0  0  0  0  0  0  0  0  0  0  0
    4.1458   -1.0964    0.0000 C   0  0  0  0  0  0  0  0  0  0  0  0
    3.6276    1.1138    0.0000 C   0  0  0  0  0  0  0  0  0  0  0  0
    2.6428    0.9402    0.0000 C   0  0  0  0  0  0  0  0  0  0  0  0
    2.0000    1.7062    0.0000 C   0  0  0  0  0  0  0  0  0  0  0  0
    2.3008    0.0005    0.0000 C   0  0  0  0  0  0  0  0  0  0  0  0
    4.9564   -0.0539    0.0000 H   0  0  0  0  0  0  0  0  0  0  0  0
    4.9932   -0.0405    0.0000 H   0  0  0  0  0  0  0  0  0  0  0  0
    5.1833    2.0755    0.0000 H   0  0  0  0  0  0  0  0  0  0  0  0
    4.8130    1.4343    0.0000 H   0  0  0  0  0  0  0  0  0  0  0  0
    7.4936   -0.9773    0.0000 H   0  0  0  0  0  0  0  0  0  0  0  0
    6.7870    3.4483    0.0000 H   0  0  0  0  0  0  0  0  0  0  0  0
    8.0331   -0.8195    0.0000 H   0  0  0  0  0  0  0  0  0  0  0  0
    5.9877    3.3072    0.0000 H   0  0  0  0  0  0  0  0  0  0  0  0
    5.1122    3.3541    0.0000 H   0  0  0  0  0  0  0  0  0  0  0  0
    5.0653    2.4785    0.0000 H   0  0  0  0  0  0  0  0  0  0  0  0
    8.3425    2.8822    0.0000 H   0  0  0  0  0  0  0  0  0  0  0  0
    9.0117   -0.2628    0.0000 H   0  0  0  0  0  0  0  0  0  0  0  0
    9.7300    0.2401    0.0000 H   0  0  0  0  0  0  0  0  0  0  0  0
    9.2270    0.9584    0.0000 H   0  0  0  0  0  0  0  0  0  0  0  0
    9.1827    2.2216    0.0000 H   0  0  0  0  0  0  0  0  0  0  0  0
    3.8537   -0.5494    0.0000 H   0  0  0  0  0  0  0  0  0  0  0  0
    3.8181   -1.6227    0.0000 H   0  0  0  0  0  0  0  0  0  0  0  0
    3.0413    0.4652    0.0000 H   0  0  0  0  0  0  0  0  0  0  0  0
    2.4750    2.1048    0.0000 H   0  0  0  0  0  0  0  0  0  0  0  0
    1.6015    2.1812    0.0000 H   0  0  0  0  0  0  0  0  0  0  0  0
    1.5250    1.3077    0.0000 H   0  0  0  0  0  0  0  0  0  0  0  0
    1.7182    0.2125    0.0000 H   0  0  0  0  0  0  0  0  0  0  0  0
    2.0887   -0.5821    0.0000 H   0  0  0  0  0  0  0  0  0  0  0  0
    2.8834   -0.2116    0.0000 H   0  0  0  0  0  0  0  0  0  0  0  0
  1  8  1  0  0  0  0
  1 12  1  0  0  0  0
  2 11  1  0  0  0  0
  2 19  1  0  0  0  0
  9  3  1  6  0  0  0
  3 22  1  0  0  0  0
 12  4  1  1  0  0  0
  4 40  1  0  0  0  0
  5 19  2  0  0  0  0
  6 22  2  0  0  0  0
  7  9  1  0  0  0  0
  7 11  1  0  0  0  0
  7 14  1  0  0  0  0
  7 26  1  1  0  0  0
  8 10  1  0  0  0  0
  8 13  1  0  0  0  0
  8 17  1  1  0  0  0
  9 10  1  0  0  0  0
  9 27  1  0  0  0  0
 10 28  1  0  0  0  0
 10 29  1  0  0  0  0
 11 16  1  0  0  0  0
 11 30  1  6  0  0  0
 12 15  1  0  0  0  0
 12 18  1  0  0  0  0
 13 18  2  0  0  0  0
 13 31  1  0  0  0  0
 14 19  1  0  0  0  0
 14 21  2  0  0  0  0
 15 16  2  0  0  0  0
 15 20  1  0  0  0  0
 16 32  1  0  0  0  0
 17 33  1  0  0  0  0
 17 34  1  0  0  0  0
 17 35  1  0  0  0  0
 18 36  1  0  0  0  0
 20 37  1  0  0  0  0
 20 38  1  0  0  0  0
 20 39  1  0  0  0  0
 21 41  1  0  0  0  0
 21 42  1  0  0  0  0
 22 23  1  0  0  0  0
 23 24  1  0  0  0  0
 23 25  1  0  0  0  0
 23 43  1  0  0  0  0
 24 44  1  0  0  0  0
 24 45  1  0  0  0  0
 24 46  1  0  0  0  0
 25 47  1  0  0  0  0
 25 48  1  0  0  0  0
 25 49  1  0  0  0  0
M  END
> <PUBCHEM_COMPOUND_CID>
5281501

> <PUBCHEM_COMPOUND_CANONICALIZED>
1

> <PUBCHEM_CACTVS_COMPLEXITY>
690

> <PUBCHEM_CACTVS_HBOND_ACCEPTOR>
6

> <PUBCHEM_CACTVS_HBOND_DONOR>
1

> <PUBCHEM_CACTVS_ROTATABLE_BOND>
3

> <PUBCHEM_CACTVS_SUBSKEYS>
AAADceB4OAAAAAAAAAAAAAAAAAAAASIAAAAAAAAAAAAAAECAAAAAGgAACAAADVSggAICCAAABgCIAiDSCAAAAAAgAAAICAEAAEgQBBIAIQACUAAFwAAMMIPK6HyOAAAAAAAAAAAAAAAAAAAAAAAAAAAAAA==

> <PUBCHEM_IUPAC_INCHI>
InChI=1S/C19H24O6/c1-10(2)16(20)24-14-9-18(5)6-7-19(22,25-18)11(3)8-13-15(14)12(4)17(21)23-13/h6-8,10,13-15,22H,4,9H2,1-3,5H3/b11-8-/t13-,14-,15+,18+,19-/m1/s1

> <PUBCHEM_IUPAC_INCHIKEY>
XJUPOHKZSDZNBE-QDHYIOMWSA-N

> <PUBCHEM_XLOGP3>
1.7

> <PUBCHEM_EXACT_MASS>
348.157288

> <PUBCHEM_MOLECULAR_FORMULA>
C19H24O6

> <PUBCHEM_MOLECULAR_WEIGHT>
348.39026

> <PUBCHEM_OPENEYE_CAN_SMILES>
CC1=CC2C(C(CC3(C=CC1(O3)O)C)OC(=O)C(C)C)C(=C)C(=O)O2

> <PUBCHEM_OPENEYE_ISO_SMILES>
C/C/1=C/[C@@H]2[C@@H]([C@@H](C[C@@]3(C=C[C@]1(O3)O)C)OC(=O)C(C)C)C(=C)C(=O)O2

> <PUBCHEM_CACTVS_TPSA>
82.1

> <PUBCHEM_MONOISOTOPIC_WEIGHT>
348.157288

> <PUBCHEM_TOTAL_CHARGE>
0

> <PUBCHEM_HEAVY_ATOM_COUNT>
25

> <PUBCHEM_ATOM_DEF_STEREO_COUNT>
5

> <PUBCHEM_ATOM_UDEF_STEREO_COUNT>
0

> <PUBCHEM_BOND_DEF_STEREO_COUNT>
1

> <PUBCHEM_BOND_UDEF_STEREO_COUNT>
0

> <PUBCHEM_ISOTOPIC_ATOM_COUNT>
0

> <PUBCHEM_COMPONENT_COUNT>
1

> <PUBCHEM_CACTVS_TAUTO_COUNT>
1

> <PUBCHEM_COORDINATE_TYPE>
1
5
255

> <PUBCHEM_BONDANNOTATIONS>
11  30  6
9  3  6
12  4  5
7  26  5
8  17  5

$$$$

