439582
  -OEChem-07051212462D

 69 71  0     1  0  0  0  0  0999 V2000
    7.0420    1.8455    0.0000 O   0  0  0  0  0  0  0  0  0  0  0  0
    5.3100   -1.1545    0.0000 O   0  0  0  0  0  0  0  0  0  0  0  0
    5.3100    0.8455    0.0000 O   0  0  0  0  0  0  0  0  0  0  0  0
    5.3100    1.8455    0.0000 O   0  0  0  0  0  0  0  0  0  0  0  0
    5.3100   -2.8865    0.0000 O   0  0  0  0  0  0  0  0  0  0  0  0
    3.3100   -1.1544    0.0000 O   0  0  0  0  0  0  0  0  0  0  0  0
    5.3100    4.8455    0.0000 O   0  0  0  0  0  0  0  0  0  0  0  0
    3.3101   -4.6186    0.0000 O   0  0  0  0  0  0  0  0  0  0  0  0
    3.5780    3.8455    0.0000 O   0  0  0  0  0  0  0  0  0  0  0  0
    6.3100   -4.6186    0.0000 O   0  0  0  0  0  0  0  0  0  0  0  0
    2.7119    2.3455    0.0000 O   0  0  0  0  0  0  0  0  0  0  0  0
    8.7741    0.8455    0.0000 N   0  0  0  0  0  0  0  0  0  0  0  0
    7.5421   -2.0205    0.0000 N   0  0  0  0  0  0  0  0  0  0  0  0
    7.0420    3.8455    0.0000 N   0  0  0  0  0  0  0  0  0  0  0  0
    2.3100   -2.8866    0.0000 N   0  0  0  0  0  0  0  0  0  0  0  0
    7.0420    0.8455    0.0000 C   0  0  1  0  0  0  0  0  0  0  0  0
    6.1760   -0.6545    0.0000 C   0  0  2  0  0  0  0  0  0  0  0  0
    6.1760    0.3455    0.0000 C   0  0  1  0  0  0  0  0  0  0  0  0
    7.9081    0.3455    0.0000 C   0  0  2  0  0  0  0  0  0  0  0  0
    7.0420   -1.1545    0.0000 C   0  0  1  0  0  0  0  0  0  0  0  0
    7.9081   -0.6545    0.0000 C   0  0  0  0  0  0  0  0  0  0  0  0
    6.1760    2.3455    0.0000 C   0  0  1  0  0  0  0  0  0  0  0  0
    4.8101   -2.0206    0.0000 C   0  0  1  0  0  0  0  0  0  0  0  0
    6.1760    3.3455    0.0000 C   0  0  1  0  0  0  0  0  0  0  0  0
    3.8100   -2.0205    0.0000 C   0  0  1  0  0  0  0  0  0  0  0  0
    3.3100   -2.8866    0.0000 C   0  0  2  0  0  0  0  0  0  0  0  0
    5.3100    3.8455    0.0000 C   0  0  2  0  0  0  0  0  0  0  0  0
    3.8101   -3.7526    0.0000 C   0  0  1  0  0  0  0  0  0  0  0  0
    4.4440    3.3455    0.0000 C   0  0  1  0  0  0  0  0  0  0  0  0
    4.8100   -3.7526    0.0000 C   0  0  1  0  0  0  0  0  0  0  0  0
    4.4440    2.3455    0.0000 C   0  0  1  0  0  0  0  0  0  0  0  0
    5.3100   -4.6186    0.0000 C   0  0  0  0  0  0  0  0  0  0  0  0
    3.5780    1.8455    0.0000 C   0  0  0  0  0  0  0  0  0  0  0  0
    6.5051    1.1555    0.0000 H   0  0  0  0  0  0  0  0  0  0  0  0
    5.6391   -0.3445    0.0000 H   0  0  0  0  0  0  0  0  0  0  0  0
    5.6391    0.0355    0.0000 H   0  0  0  0  0  0  0  0  0  0  0  0
    7.9081    0.9655    0.0000 H   0  0  0  0  0  0  0  0  0  0  0  0
    6.6037   -1.5929    0.0000 H   0  0  0  0  0  0  0  0  0  0  0  0
    8.1201   -1.2371    0.0000 H   0  0  0  0  0  0  0  0  0  0  0  0
    8.5186   -0.5468    0.0000 H   0  0  0  0  0  0  0  0  0  0  0  0
    6.7130    2.6555    0.0000 H   0  0  0  0  0  0  0  0  0  0  0  0
    4.5001   -1.4836    0.0000 H   0  0  0  0  0  0  0  0  0  0  0  0
    6.7130    3.0355    0.0000 H   0  0  0  0  0  0  0  0  0  0  0  0
    3.1900   -2.0205    0.0000 H   0  0  0  0  0  0  0  0  0  0  0  0
    3.0000   -3.4235    0.0000 H   0  0  0  0  0  0  0  0  0  0  0  0
    5.8469    4.1555    0.0000 H   0  0  0  0  0  0  0  0  0  0  0  0
    4.1201   -4.2895    0.0000 H   0  0  0  0  0  0  0  0  0  0  0  0
    4.4440    3.9655    0.0000 H   0  0  0  0  0  0  0  0  0  0  0  0
    5.4300   -3.7526    0.0000 H   0  0  0  0  0  0  0  0  0  0  0  0
    4.4440    1.7255    0.0000 H   0  0  0  0  0  0  0  0  0  0  0  0
    9.3110    0.5355    0.0000 H   0  0  0  0  0  0  0  0  0  0  0  0
    8.7741    1.4655    0.0000 H   0  0  0  0  0  0  0  0  0  0  0  0
    8.1620   -2.0205    0.0000 H   0  0  0  0  0  0  0  0  0  0  0  0
    7.2321   -2.5574    0.0000 H   0  0  0  0  0  0  0  0  0  0  0  0
    4.7731    0.5355    0.0000 H   0  0  0  0  0  0  0  0  0  0  0  0
    4.7274   -4.8306    0.0000 H   0  0  0  0  0  0  0  0  0  0  0  0
    5.4177   -5.2292    0.0000 H   0  0  0  0  0  0  0  0  0  0  0  0
    7.0420    4.4655    0.0000 H   0  0  0  0  0  0  0  0  0  0  0  0
    7.5790    3.5355    0.0000 H   0  0  0  0  0  0  0  0  0  0  0  0
    3.1794    1.3706    0.0000 H   0  0  0  0  0  0  0  0  0  0  0  0
    3.9765    1.3706    0.0000 H   0  0  0  0  0  0  0  0  0  0  0  0
    2.0000   -3.4235    0.0000 H   0  0  0  0  0  0  0  0  0  0  0  0
    2.0000   -2.3496    0.0000 H   0  0  0  0  0  0  0  0  0  0  0  0
    2.6900   -1.1544    0.0000 H   0  0  0  0  0  0  0  0  0  0  0  0
    4.7731    5.1555    0.0000 H   0  0  0  0  0  0  0  0  0  0  0  0
    3.6200   -5.1555    0.0000 H   0  0  0  0  0  0  0  0  0  0  0  0
    3.5780    4.4655    0.0000 H   0  0  0  0  0  0  0  0  0  0  0  0
    6.6200   -5.1555    0.0000 H   0  0  0  0  0  0  0  0  0  0  0  0
    2.1750    2.0355    0.0000 H   0  0  0  0  0  0  0  0  0  0  0  0
 16  1  1  6  0  0  0
 22  1  1  1  0  0  0
 17  2  1  6  0  0  0
 23  2  1  1  0  0  0
 18  3  1  1  0  0  0
  3 55  1  0  0  0  0
  4 22  1  0  0  0  0
  4 31  1  0  0  0  0
  5 23  1  0  0  0  0
  5 30  1  0  0  0  0
 25  6  1  1  0  0  0
  6 64  1  0  0  0  0
 27  7  1  6  0  0  0
  7 65  1  0  0  0  0
 28  8  1  1  0  0  0
  8 66  1  0  0  0  0
 29  9  1  1  0  0  0
  9 67  1  0  0  0  0
 10 32  1  0  0  0  0
 10 68  1  0  0  0  0
 11 33  1  0  0  0  0
 11 69  1  0  0  0  0
 19 12  1  1  0  0  0
 12 51  1  0  0  0  0
 12 52  1  0  0  0  0
 20 13  1  1  0  0  0
 13 53  1  0  0  0  0
 13 54  1  0  0  0  0
 24 14  1  1  0  0  0
 14 58  1  0  0  0  0
 14 59  1  0  0  0  0
 26 15  1  6  0  0  0
 15 62  1  0  0  0  0
 15 63  1  0  0  0  0
 16 18  1  0  0  0  0
 16 19  1  0  0  0  0
 16 34  1  0  0  0  0
 17 18  1  0  0  0  0
 17 20  1  0  0  0  0
 17 35  1  0  0  0  0
 18 36  1  0  0  0  0
 19 21  1  0  0  0  0
 19 37  1  0  0  0  0
 20 21  1  0  0  0  0
 20 38  1  0  0  0  0
 21 39  1  0  0  0  0
 21 40  1  0  0  0  0
 22 24  1  0  0  0  0
 22 41  1  0  0  0  0
 23 25  1  0  0  0  0
 23 42  1  0  0  0  0
 24 27  1  0  0  0  0
 24 43  1  0  0  0  0
 25 26  1  0  0  0  0
 25 44  1  0  0  0  0
 26 28  1  0  0  0  0
 26 45  1  0  0  0  0
 27 29  1  0  0  0  0
 27 46  1  0  0  0  0
 28 30  1  0  0  0  0
 28 47  1  0  0  0  0
 29 31  1  0  0  0  0
 29 48  1  0  0  0  0
 30 32  1  6  0  0  0
 30 49  1  0  0  0  0
 31 33  1  6  0  0  0
 31 50  1  0  0  0  0
 32 56  1  0  0  0  0
 32 57  1  0  0  0  0
 33 60  1  0  0  0  0
 33 61  1  0  0  0  0
M  END
> <PUBCHEM_COMPOUND_CID>
439582

> <PUBCHEM_COMPOUND_CANONICALIZED>
1

> <PUBCHEM_CACTVS_COMPLEXITY>
638

> <PUBCHEM_CACTVS_HBOND_ACCEPTOR>
15

> <PUBCHEM_CACTVS_HBOND_DONOR>
11

> <PUBCHEM_CACTVS_ROTATABLE_BOND>
6

> <PUBCHEM_CACTVS_SUBSKEYS>
AAADcfB7vAAAAAAAAAAAAAAAAAAAAAAAAAA0SIAAAAAAAAAAAAAAHgAQCAAACDzxgAcACABABgAAAAAAAAAAAAAAAAAAAIAAAAATEAIAwAAjQAAHEAAHAAHwcA0AAAAAAAAAAAAAgAAUCACgAAAAAAAAAA==

> <PUBCHEM_IUPAC_OPENEYE_NAME>
(2S,3R,4S,5S,6R)-4-amino-2-[(1S,2S,3R,4S,6R)-4,6-diamino-3-[(2S,3R,4R,5S,6R)-3-amino-4,5-dihydroxy-6-(hydroxymethyl)tetrahydropyran-2-yl]oxy-2-hydroxy-cyclohexoxy]-6-(hydroxymethyl)tetrahydropyran-3,5-diol

> <PUBCHEM_IUPAC_CAS_NAME>
(2S,3R,4S,5S,6R)-4-amino-2-[(1S,2S,3R,4S,6R)-4,6-diamino-3-[[(2S,3R,4R,5S,6R)-3-amino-4,5-dihydroxy-6-(hydroxymethyl)-2-oxanyl]oxy]-2-hydroxycyclohexyl]oxy-6-(hydroxymethyl)oxane-3,5-diol

> <PUBCHEM_IUPAC_NAME>
(2S,3R,4S,5S,6R)-4-amino-2-[(1S,2S,3R,4S,6R)-4,6-diamino-3-[(2S,3R,4R,5S,6R)-3-amino-4,5-dihydroxy-6-(hydroxymethyl)oxan-2-yl]oxy-2-hydroxycyclohexyl]oxy-6-(hydroxymethyl)oxane-3,5-diol

> <PUBCHEM_IUPAC_SYSTEMATIC_NAME>
(2S,3R,4S,5S,6R)-4-azanyl-2-[(1S,2S,3R,4S,6R)-4,6-bis(azanyl)-3-[(2S,3R,4R,5S,6R)-3-azanyl-6-(hydroxymethyl)-4,5-bis(oxidanyl)oxan-2-yl]oxy-2-oxidanyl-cyclohexyl]oxy-6-(hydroxymethyl)oxane-3,5-diol

> <PUBCHEM_IUPAC_TRADITIONAL_NAME>
(2S,3R,4S,5S,6R)-4-amino-2-[(1S,2S,3R,4S,6R)-4,6-diamino-3-[(2S,3R,4R,5S,6R)-3-amino-4,5-dihydroxy-6-methylol-tetrahydropyran-2-yl]oxy-2-hydroxy-cyclohexoxy]-6-methylol-tetrahydropyran-3,5-diol

> <PUBCHEM_IUPAC_INCHI>
InChI=1S/C18H36N4O11/c19-4-1-5(20)16(33-18-13(28)8(21)10(25)6(2-23)31-18)14(29)15(4)32-17-9(22)12(27)11(26)7(3-24)30-17/h4-18,23-29H,1-3,19-22H2/t4-,5+,6+,7+,8-,9+,10+,11+,12+,13+,14-,15+,16-,17+,18+/m0/s1

> <PUBCHEM_IUPAC_INCHIKEY>
WZDRWYJKESFZMB-FQSMHNGLSA-N

> <PUBCHEM_XLOGP3_AA>
-6.9

> <PUBCHEM_EXACT_MASS>
484.238058

> <PUBCHEM_MOLECULAR_FORMULA>
C18H36N4O11

> <PUBCHEM_MOLECULAR_WEIGHT>
484.49864

> <PUBCHEM_OPENEYE_CAN_SMILES>
C1C(C(C(C(C1N)OC2C(C(C(C(O2)CO)O)N)O)O)OC3C(C(C(C(O3)CO)O)O)N)N

> <PUBCHEM_OPENEYE_ISO_SMILES>
C1[C@@H]([C@H]([C@@H]([C@H]([C@@H]1N)O[C@@H]2[C@@H]([C@H]([C@@H]([C@H](O2)CO)O)N)O)O)O[C@@H]3[C@@H]([C@H]([C@@H]([C@H](O3)CO)O)O)N)N

> <PUBCHEM_CACTVS_TPSA>
283

> <PUBCHEM_MONOISOTOPIC_WEIGHT>
484.238058

> <PUBCHEM_TOTAL_CHARGE>
0

> <PUBCHEM_HEAVY_ATOM_COUNT>
33

> <PUBCHEM_ATOM_DEF_STEREO_COUNT>
15

> <PUBCHEM_ATOM_UDEF_STEREO_COUNT>
0

> <PUBCHEM_BOND_DEF_STEREO_COUNT>
0

> <PUBCHEM_BOND_UDEF_STEREO_COUNT>
0

> <PUBCHEM_ISOTOPIC_ATOM_COUNT>
0

> <PUBCHEM_COMPONENT_COUNT>
1

> <PUBCHEM_CACTVS_TAUTO_COUNT>
1

> <PUBCHEM_COORDINATE_TYPE>
1
5
255

> <PUBCHEM_BONDANNOTATIONS>
16  1  6
22  1  5
19  12  5
20  13  5
24  14  5
26  15  6
17  2  6
23  2  5
18  3  5
30  32  6
31  33  6
25  6  5
27  7  6
28  8  5
29  9  5

$$$$

