23724525
  -OEChem-07051213032D

 39 35  0     0  0  0  0  0  0999 V2000
    4.0010    2.8100    0.0000 Ca  0  2  0  0  0  0  0  0  0  0  0  0
    7.4651    5.8100    0.0000 Al  0  1  0  0  0  0  0  0  0  0  0  0
    4.8671    3.3100    0.0000 O   0  5  0  0  0  0  0  0  0  0  0  0
    3.1350    3.3100    0.0000 O   0  5  0  0  0  0  0  0  0  0  0  0
    8.3312    6.3100    0.0000 O   0  5  0  0  0  0  0  0  0  0  0  0
    7.4651    4.8100    0.0000 O   0  5  0  0  0  0  0  0  0  0  0  0
    9.1972    7.8100    0.0000 O   0  0  0  0  0  0  0  0  0  0  0  0
    5.7331    4.8100    0.0000 O   0  0  0  0  0  0  0  0  0  0  0  0
    4.5986   10.4464    0.0000 O   0  0  0  0  0  0  0  0  0  0  0  0
    6.5991    6.3100    0.0000 O   0  5  0  0  0  0  0  0  0  0  0  0
    6.5991    0.3100    0.0000 N   0  0  0  0  0  0  0  0  0  0  0  0
    1.4030    0.3100    0.0000 N   0  0  0  0  0  0  0  0  0  0  0  0
    6.5991    3.3100    0.0000 C   0  0  0  0  0  0  0  0  0  0  0  0
    1.4030    3.3100    0.0000 C   0  0  0  0  0  0  0  0  0  0  0  0
    1.4030    1.3100    0.0000 C   0  0  0  0  0  0  0  0  0  0  0  0
    6.5991    1.3100    0.0000 C   0  0  0  0  0  0  0  0  0  0  0  0
    5.7331    2.8100    0.0000 C   0  0  0  0  0  0  0  0  0  0  0  0
    2.2690    2.8100    0.0000 C   0  0  0  0  0  0  0  0  0  0  0  0
    0.5369    2.8100    0.0000 C   0  0  0  0  0  0  0  0  0  0  0  0
    7.4651    2.8100    0.0000 C   0  0  0  0  0  0  0  0  0  0  0  0
    2.2690    1.8100    0.0000 C   0  0  0  0  0  0  0  0  0  0  0  0
    5.7331    1.8100    0.0000 C   0  0  0  0  0  0  0  0  0  0  0  0
    0.5369    1.8100    0.0000 C   0  0  0  0  0  0  0  0  0  0  0  0
    7.4651    1.8100    0.0000 C   0  0  0  0  0  0  0  0  0  0  0  0
    6.5991    4.3100    0.0000 C   0  0  0  0  0  0  0  0  0  0  0  0
    8.3312    7.3100    0.0000 C   0  0  0  0  0  0  0  0  0  0  0  0
    0.0000    3.1200    0.0000 H   0  0  0  0  0  0  0  0  0  0  0  0
    8.0021    3.1200    0.0000 H   0  0  0  0  0  0  0  0  0  0  0  0
    5.1962    1.5000    0.0000 H   0  0  0  0  0  0  0  0  0  0  0  0
    2.8059    1.5000    0.0000 H   0  0  0  0  0  0  0  0  0  0  0  0
    0.0000    1.5000    0.0000 H   0  0  0  0  0  0  0  0  0  0  0  0
    8.0021    1.5000    0.0000 H   0  0  0  0  0  0  0  0  0  0  0  0
    7.1360    0.0000    0.0000 H   0  0  0  0  0  0  0  0  0  0  0  0
    6.0622    0.0000    0.0000 H   0  0  0  0  0  0  0  0  0  0  0  0
    0.8660    0.0000    0.0000 H   0  0  0  0  0  0  0  0  0  0  0  0
    1.9399    0.0000    0.0000 H   0  0  0  0  0  0  0  0  0  0  0  0
    5.1355   10.7564    0.0000 H   0  0  0  0  0  0  0  0  0  0  0  0
    4.0617   10.7564    0.0000 H   0  0  0  0  0  0  0  0  0  0  0  0
    6.5991    6.9300    0.0000 H   0  0  0  0  0  0  0  0  0  0  0  0
  3 17  1  0  0  0  0
  4 18  1  0  0  0  0
  5 26  1  0  0  0  0
  6 25  1  0  0  0  0
  7 26  2  0  0  0  0
  8 25  2  0  0  0  0
  9 37  1  0  0  0  0
  9 38  1  0  0  0  0
 10 39  1  0  0  0  0
 11 16  1  0  0  0  0
 11 33  1  0  0  0  0
 11 34  1  0  0  0  0
 12 15  1  0  0  0  0
 12 35  1  0  0  0  0
 12 36  1  0  0  0  0
 13 17  2  0  0  0  0
 13 20  1  0  0  0  0
 13 25  1  0  0  0  0
 14 18  2  0  0  0  0
 14 19  1  0  0  0  0
 14 26  1  0  0  0  0
 15 21  2  0  0  0  0
 15 23  1  0  0  0  0
 16 22  2  0  0  0  0
 16 24  1  0  0  0  0
 17 22  1  0  0  0  0
 18 21  1  0  0  0  0
 19 23  2  0  0  0  0
 19 27  1  0  0  0  0
 20 24  2  0  0  0  0
 20 28  1  0  0  0  0
 21 30  1  0  0  0  0
 22 29  1  0  0  0  0
 23 31  1  0  0  0  0
 24 32  1  0  0  0  0
M  CHG  7   1   2   2   3   3  -1   4  -1   5  -1   6  -1  10  -1
M  END
> <PUBCHEM_COMPOUND_CID>
23724525

> <PUBCHEM_COMPOUND_CANONICALIZED>
1

> <PUBCHEM_CACTVS_COMPLEXITY>
154

> <PUBCHEM_CACTVS_HBOND_ACCEPTOR>
10

> <PUBCHEM_CACTVS_HBOND_DONOR>
4

> <PUBCHEM_CACTVS_ROTATABLE_BOND>
0

> <PUBCHEM_CACTVS_SUBSKEYS>
AAADccBzPAAAABgAAAAAAAAAAAAAAAAAAAAwYAAAAAAAAAABQAAAHgAQCAAADAyBmAAwzoBAAACIAiTSSACCAAAkIgAIiAEGbMgIJzaAlZOAMUBn8BkIyYeY2SGeCAAAAgAIAAAQAAAEABAAAAAAAAAAAA==

> <PUBCHEM_IUPAC_OPENEYE_NAME>
aluminum calcium 4-amino-2-oxido-benzoate hydroxide hydrate

> <PUBCHEM_IUPAC_CAS_NAME>
aluminum calcium 4-amino-2-oxidobenzoate hydroxide hydrate

> <PUBCHEM_IUPAC_NAME>
aluminum calcium 4-amino-2-oxidobenzoate hydroxide hydrate

> <PUBCHEM_IUPAC_SYSTEMATIC_NAME>
aluminum calcium 4-azanyl-2-oxidanidyl-benzoate hydroxide hydrate

> <PUBCHEM_IUPAC_TRADITIONAL_NAME>
aluminum calcium 4-amino-2-oxido-benzoate hydroxide hydrate

> <PUBCHEM_IUPAC_INCHI>
InChI=1S/2C7H7NO3.Al.Ca.2H2O/c2*8-4-1-2-5(7(10)11)6(9)3-4;;;;/h2*1-3,9H,8H2,(H,10,11);;;2*1H2/q;;+3;+2;;/p-5

> <PUBCHEM_IUPAC_INCHIKEY>
PXYWZCMRSWPOAX-UHFFFAOYSA-I

> <PUBCHEM_EXACT_MASS>
404.01132

> <PUBCHEM_MOLECULAR_FORMULA>
C14H13AlCaN2O8

> <PUBCHEM_MOLECULAR_WEIGHT>
404.321159

> <PUBCHEM_OPENEYE_CAN_SMILES>
C1=CC(=C(C=C1N)[O-])C(=O)[O-].C1=CC(=C(C=C1N)[O-])C(=O)[O-].O.[OH-].[Al+3].[Ca+2]

> <PUBCHEM_OPENEYE_ISO_SMILES>
C1=CC(=C(C=C1N)[O-])C(=O)[O-].C1=CC(=C(C=C1N)[O-])C(=O)[O-].O.[OH-].[Al+3].[Ca+2]

> <PUBCHEM_CACTVS_TPSA>
180

> <PUBCHEM_MONOISOTOPIC_WEIGHT>
404.01132

> <PUBCHEM_TOTAL_CHARGE>
0

> <PUBCHEM_HEAVY_ATOM_COUNT>
26

> <PUBCHEM_ATOM_DEF_STEREO_COUNT>
0

> <PUBCHEM_ATOM_UDEF_STEREO_COUNT>
0

> <PUBCHEM_BOND_DEF_STEREO_COUNT>
0

> <PUBCHEM_BOND_UDEF_STEREO_COUNT>
0

> <PUBCHEM_ISOTOPIC_ATOM_COUNT>
0

> <PUBCHEM_COMPONENT_COUNT>
6

> <PUBCHEM_CACTVS_TAUTO_COUNT>
6

> <PUBCHEM_COORDINATE_TYPE>
1
5
255

> <PUBCHEM_BONDANNOTATIONS>
13  17  8
13  20  8
14  18  8
14  19  8
15  21  8
15  23  8
16  22  8
16  24  8
17  22  8
18  21  8
19  23  8
20  24  8

$$$$

