17395864
  -OEChem-06241222522D

 45 47  0     1  0  0  0  0  0999 V2000
    4.9889   -0.9008    0.0000 O   0  0  0  0  0  0  0  0  0  0  0  0
    4.9889    2.6097    0.0000 O   0  0  0  0  0  0  0  0  0  0  0  0
    9.7619   -0.0116    0.0000 O   0  0  0  0  0  0  0  0  0  0  0  0
   10.7619   -1.7436    0.0000 O   0  0  0  0  0  0  0  0  0  0  0  0
    6.7619   -0.0116    0.0000 N   0  0  3  0  0  0  0  0  0  0  0  0
    5.2619    0.8544    0.0000 N   0  0  0  0  0  0  0  0  0  0  0  0
    6.2619    0.8544    0.0000 C   0  0  0  0  0  0  0  0  0  0  0  0
    7.7619   -0.0116    0.0000 C   0  0  0  0  0  0  0  0  0  0  0  0
    3.7320    1.3544    0.0000 C   0  0  0  0  0  0  0  0  0  0  0  0
    3.7320    0.3544    0.0000 C   0  0  0  0  0  0  0  0  0  0  0  0
    4.6783    0.0497    0.0000 C   0  0  0  0  0  0  0  0  0  0  0  0
    4.6783    1.6592    0.0000 C   0  0  0  0  0  0  0  0  0  0  0  0
    8.2619   -0.8776    0.0000 C   0  0  0  0  0  0  0  0  0  0  0  0
    6.2619   -0.8776    0.0000 C   0  0  0  0  0  0  0  0  0  0  0  0
    9.2619   -0.8776    0.0000 C   0  0  0  0  0  0  0  0  0  0  0  0
    2.8660   -0.1456    0.0000 C   0  0  0  0  0  0  0  0  0  0  0  0
    2.8660    1.8544    0.0000 C   0  0  0  0  0  0  0  0  0  0  0  0
    7.7619   -1.7436    0.0000 C   0  0  0  0  0  0  0  0  0  0  0  0
    9.7619   -1.7436    0.0000 C   0  0  0  0  0  0  0  0  0  0  0  0
    2.0000    0.3544    0.0000 C   0  0  0  0  0  0  0  0  0  0  0  0
    2.0000    1.3544    0.0000 C   0  0  0  0  0  0  0  0  0  0  0  0
    8.2619   -2.6097    0.0000 C   0  0  0  0  0  0  0  0  0  0  0  0
    9.2619   -2.6097    0.0000 C   0  0  0  0  0  0  0  0  0  0  0  0
   10.7619   -0.0116    0.0000 C   0  0  0  0  0  0  0  0  0  0  0  0
   11.2619   -2.6097    0.0000 C   0  0  0  0  0  0  0  0  0  0  0  0
    6.8445    1.0665    0.0000 H   0  0  0  0  0  0  0  0  0  0  0  0
    6.1542    1.4650    0.0000 H   0  0  0  0  0  0  0  0  0  0  0  0
    8.3445    0.2005    0.0000 H   0  0  0  0  0  0  0  0  0  0  0  0
    7.6542    0.5990    0.0000 H   0  0  0  0  0  0  0  0  0  0  0  0
    5.7249   -0.5676    0.0000 H   0  0  0  0  0  0  0  0  0  0  0  0
    5.9519   -1.4146    0.0000 H   0  0  0  0  0  0  0  0  0  0  0  0
    6.7988   -1.1876    0.0000 H   0  0  0  0  0  0  0  0  0  0  0  0
    2.8660    2.4744    0.0000 H   0  0  0  0  0  0  0  0  0  0  0  0
    2.8660   -0.7656    0.0000 H   0  0  0  0  0  0  0  0  0  0  0  0
    7.1419   -1.7436    0.0000 H   0  0  0  0  0  0  0  0  0  0  0  0
    1.4631    0.0444    0.0000 H   0  0  0  0  0  0  0  0  0  0  0  0
    1.4631    1.6644    0.0000 H   0  0  0  0  0  0  0  0  0  0  0  0
    7.9519   -3.1466    0.0000 H   0  0  0  0  0  0  0  0  0  0  0  0
    9.5719   -3.1466    0.0000 H   0  0  0  0  0  0  0  0  0  0  0  0
   10.7619   -0.6316    0.0000 H   0  0  0  0  0  0  0  0  0  0  0  0
   11.3819   -0.0116    0.0000 H   0  0  0  0  0  0  0  0  0  0  0  0
   10.7619    0.6084    0.0000 H   0  0  0  0  0  0  0  0  0  0  0  0
   10.7249   -2.9197    0.0000 H   0  0  0  0  0  0  0  0  0  0  0  0
   11.5719   -3.1466    0.0000 H   0  0  0  0  0  0  0  0  0  0  0  0
   11.7988   -2.2997    0.0000 H   0  0  0  0  0  0  0  0  0  0  0  0
  1 11  2  0  0  0  0
  2 12  2  0  0  0  0
  3 15  1  0  0  0  0
  3 24  1  0  0  0  0
  4 19  1  0  0  0  0
  4 25  1  0  0  0  0
  5  7  1  0  0  0  0
  5  8  1  0  0  0  0
  5 14  1  0  0  0  0
  6  7  1  0  0  0  0
  6 11  1  0  0  0  0
  6 12  1  0  0  0  0
  7 26  1  0  0  0  0
  7 27  1  0  0  0  0
  8 13  1  0  0  0  0
  8 28  1  0  0  0  0
  8 29  1  0  0  0  0
  9 10  1  0  0  0  0
  9 12  1  0  0  0  0
  9 17  2  0  0  0  0
 10 11  1  0  0  0  0
 10 16  2  0  0  0  0
 13 15  2  0  0  0  0
 13 18  1  0  0  0  0
 14 30  1  0  0  0  0
 14 31  1  0  0  0  0
 14 32  1  0  0  0  0
 15 19  1  0  0  0  0
 16 20  1  0  0  0  0
 16 34  1  0  0  0  0
 17 21  1  0  0  0  0
 17 33  1  0  0  0  0
 18 22  2  0  0  0  0
 18 35  1  0  0  0  0
 19 23  2  0  0  0  0
 20 21  2  0  0  0  0
 20 36  1  0  0  0  0
 21 37  1  0  0  0  0
 22 23  1  0  0  0  0
 22 38  1  0  0  0  0
 23 39  1  0  0  0  0
 24 40  1  0  0  0  0
 24 41  1  0  0  0  0
 24 42  1  0  0  0  0
 25 43  1  0  0  0  0
 25 44  1  0  0  0  0
 25 45  1  0  0  0  0
M  END
> <PUBCHEM_COMPOUND_CID>
17395864

> <PUBCHEM_COMPOUND_CANONICALIZED>
1

> <PUBCHEM_CACTVS_COMPLEXITY>
474

> <PUBCHEM_CACTVS_HBOND_ACCEPTOR>
5

> <PUBCHEM_CACTVS_HBOND_DONOR>
0

> <PUBCHEM_CACTVS_ROTATABLE_BOND>
6

> <PUBCHEM_CACTVS_SUBSKEYS>
AAADceB7OAAAAAAAAAAAAAAAAAAAAWAAAAAwYAAAAAAAAFgBQAAAHgAAAAAADATBmAYzBoMABACIAiFSEACCCAAkIAAIiAEOjMiNJjKEtRuEMSpuxzOKqYe9yLCOgAABAAAYQAAAAAIAADCAAAAAAAAAAA==

> <PUBCHEM_IUPAC_OPENEYE_NAME>
2-[[(2,3-dimethoxyphenyl)methyl-methyl-amino]methyl]isoindoline-1,3-dione

> <PUBCHEM_IUPAC_CAS_NAME>
2-[[(2,3-dimethoxyphenyl)methyl-methylamino]methyl]isoindole-1,3-dione

> <PUBCHEM_IUPAC_NAME>
2-[[(2,3-dimethoxyphenyl)methyl-methylamino]methyl]isoindole-1,3-dione

> <PUBCHEM_IUPAC_SYSTEMATIC_NAME>
2-[[(2,3-dimethoxyphenyl)methyl-methyl-amino]methyl]isoindole-1,3-dione

> <PUBCHEM_IUPAC_TRADITIONAL_NAME>
2-[[methyl(o-veratryl)amino]methyl]isoindoline-1,3-quinone

> <PUBCHEM_IUPAC_INCHI>
InChI=1S/C19H20N2O4/c1-20(11-13-7-6-10-16(24-2)17(13)25-3)12-21-18(22)14-8-4-5-9-15(14)19(21)23/h4-10H,11-12H2,1-3H3

> <PUBCHEM_IUPAC_INCHIKEY>
PZMAUQGFBLJVAO-UHFFFAOYSA-N

> <PUBCHEM_XLOGP3_AA>
2.5

> <PUBCHEM_EXACT_MASS>
340.142307

> <PUBCHEM_MOLECULAR_FORMULA>
C19H20N2O4

> <PUBCHEM_MOLECULAR_WEIGHT>
340.3731

> <PUBCHEM_OPENEYE_CAN_SMILES>
CN(CC1=C(C(=CC=C1)OC)OC)CN2C(=O)C3=CC=CC=C3C2=O

> <PUBCHEM_OPENEYE_ISO_SMILES>
CN(CC1=C(C(=CC=C1)OC)OC)CN2C(=O)C3=CC=CC=C3C2=O

> <PUBCHEM_CACTVS_TPSA>
59.1

> <PUBCHEM_MONOISOTOPIC_WEIGHT>
340.142307

> <PUBCHEM_TOTAL_CHARGE>
0

> <PUBCHEM_HEAVY_ATOM_COUNT>
25

> <PUBCHEM_ATOM_DEF_STEREO_COUNT>
0

> <PUBCHEM_ATOM_UDEF_STEREO_COUNT>
0

> <PUBCHEM_BOND_DEF_STEREO_COUNT>
0

> <PUBCHEM_BOND_UDEF_STEREO_COUNT>
0

> <PUBCHEM_ISOTOPIC_ATOM_COUNT>
0

> <PUBCHEM_COMPONENT_COUNT>
1

> <PUBCHEM_CACTVS_TAUTO_COUNT>
1

> <PUBCHEM_COORDINATE_TYPE>
1
5
255

> <PUBCHEM_BONDANNOTATIONS>
10  16  8
13  15  8
13  18  8
15  19  8
16  20  8
17  21  8
18  22  8
19  23  8
20  21  8
22  23  8
9  10  8
9  17  8

$$$$

