23667630
  -OEChem-07051212542D

 51 53  0     1  0  0  0  0  0999 V2000
    2.9946   -0.9667    0.0000 S   0  0  0  0  0  0  0  0  0  0  0  0
    4.4944   -4.7346    0.0000 Na  0  3  0  0  0  0  0  0  0  0  0  0
    6.3096   -0.5186    0.0000 O   0  0  0  0  0  0  0  0  0  0  0  0
    4.0422   -3.8426    0.0000 O   0  5  0  0  0  0  0  0  0  0  0  0
    5.5871   -3.0595    0.0000 O   0  0  0  0  0  0  0  0  0  0  0  0
    6.3301    1.1999    0.0000 O   0  0  0  0  0  0  0  0  0  0  0  0
    3.7320    2.6999    0.0000 O   0  0  0  0  0  0  0  0  0  0  0  0
    4.5922   -1.2231    0.0000 N   0  0  0  0  0  0  0  0  0  0  0  0
    4.5981    1.1999    0.0000 N   0  0  0  0  0  0  0  0  0  0  0  0
    3.8866   -0.5145    0.0000 C   0  0  1  0  0  0  0  0  0  0  0  0
    3.1490   -1.9547    0.0000 C   0  0  0  0  0  0  0  0  0  0  0  0
    4.1364   -2.1132    0.0000 C   0  0  2  0  0  0  0  0  0  0  0  0
    4.5981    0.1999    0.0000 C   0  0  1  0  0  0  0  0  0  0  0  0
    5.3096   -0.5145    0.0000 C   0  0  0  0  0  0  0  0  0  0  0  0
    2.1610   -2.1091    0.0000 C   0  0  0  0  0  0  0  0  0  0  0  0
    2.9906   -2.9420    0.0000 C   0  0  0  0  0  0  0  0  0  0  0  0
    4.5886   -3.0051    0.0000 C   0  0  0  0  0  0  0  0  0  0  0  0
    5.4641    1.6999    0.0000 C   0  0  0  0  0  0  0  0  0  0  0  0
    5.4641    2.6999    0.0000 C   0  0  0  0  0  0  0  0  0  0  0  0
    6.3301    3.1999    0.0000 C   0  0  0  0  0  0  0  0  0  0  0  0
    4.5981    3.1999    0.0000 C   0  0  0  0  0  0  0  0  0  0  0  0
    6.3301    4.1999    0.0000 C   0  0  0  0  0  0  0  0  0  0  0  0
    4.5981    4.1999    0.0000 C   0  0  0  0  0  0  0  0  0  0  0  0
    7.2241    2.6652    0.0000 C   0  0  0  0  0  0  0  0  0  0  0  0
    5.4641    4.6999    0.0000 C   0  0  0  0  0  0  0  0  0  0  0  0
    7.2241    4.7346    0.0000 C   0  0  0  0  0  0  0  0  0  0  0  0
    8.1301    3.1791    0.0000 C   0  0  0  0  0  0  0  0  0  0  0  0
    8.1301    4.2207    0.0000 C   0  0  0  0  0  0  0  0  0  0  0  0
    2.8660    3.1999    0.0000 C   0  0  0  0  0  0  0  0  0  0  0  0
    2.0000    2.6999    0.0000 C   0  0  0  0  0  0  0  0  0  0  0  0
    3.3870    0.1731    0.0000 H   0  0  0  0  0  0  0  0  0  0  0  0
    4.7564   -2.1144    0.0000 H   0  0  0  0  0  0  0  0  0  0  0  0
    5.1711    0.4366    0.0000 H   0  0  0  0  0  0  0  0  0  0  0  0
    2.0653   -1.4965    0.0000 H   0  0  0  0  0  0  0  0  0  0  0  0
    1.5485   -2.2048    0.0000 H   0  0  0  0  0  0  0  0  0  0  0  0
    2.2568   -2.7216    0.0000 H   0  0  0  0  0  0  0  0  0  0  0  0
    2.3784   -2.8438    0.0000 H   0  0  0  0  0  0  0  0  0  0  0  0
    2.8923   -3.5542    0.0000 H   0  0  0  0  0  0  0  0  0  0  0  0
    3.6027   -3.0403    0.0000 H   0  0  0  0  0  0  0  0  0  0  0  0
    4.0611    1.5099    0.0000 H   0  0  0  0  0  0  0  0  0  0  0  0
    4.0611    4.5099    0.0000 H   0  0  0  0  0  0  0  0  0  0  0  0
    7.2169    2.0453    0.0000 H   0  0  0  0  0  0  0  0  0  0  0  0
    5.4641    5.3199    0.0000 H   0  0  0  0  0  0  0  0  0  0  0  0
    7.2169    5.3545    0.0000 H   0  0  0  0  0  0  0  0  0  0  0  0
    8.6659    2.8670    0.0000 H   0  0  0  0  0  0  0  0  0  0  0  0
    8.6659    4.5328    0.0000 H   0  0  0  0  0  0  0  0  0  0  0  0
    3.2646    3.6749    0.0000 H   0  0  0  0  0  0  0  0  0  0  0  0
    2.4675    3.6749    0.0000 H   0  0  0  0  0  0  0  0  0  0  0  0
    1.6900    3.2368    0.0000 H   0  0  0  0  0  0  0  0  0  0  0  0
    1.4631    2.3899    0.0000 H   0  0  0  0  0  0  0  0  0  0  0  0
    2.3100    2.1630    0.0000 H   0  0  0  0  0  0  0  0  0  0  0  0
  1 10  1  0  0  0  0
  1 11  1  0  0  0  0
  3 14  2  0  0  0  0
  4 17  1  0  0  0  0
  5 17  2  0  0  0  0
  6 18  2  0  0  0  0
  7 21  1  0  0  0  0
  7 29  1  0  0  0  0
  8 10  1  0  0  0  0
  8 12  1  0  0  0  0
  8 14  1  0  0  0  0
 13  9  1  6  0  0  0
  9 18  1  0  0  0  0
  9 40  1  0  0  0  0
 10 13  1  0  0  0  0
 10 31  1  1  0  0  0
 11 12  1  0  0  0  0
 11 15  1  0  0  0  0
 11 16  1  0  0  0  0
 12 17  1  1  0  0  0
 12 32  1  0  0  0  0
 13 14  1  0  0  0  0
 13 33  1  0  0  0  0
 15 34  1  0  0  0  0
 15 35  1  0  0  0  0
 15 36  1  0  0  0  0
 16 37  1  0  0  0  0
 16 38  1  0  0  0  0
 16 39  1  0  0  0  0
 18 19  1  0  0  0  0
 19 20  1  0  0  0  0
 19 21  2  0  0  0  0
 20 22  1  0  0  0  0
 20 24  2  0  0  0  0
 21 23  1  0  0  0  0
 22 25  1  0  0  0  0
 22 26  2  0  0  0  0
 23 25  2  0  0  0  0
 23 41  1  0  0  0  0
 24 27  1  0  0  0  0
 24 42  1  0  0  0  0
 25 43  1  0  0  0  0
 26 28  1  0  0  0  0
 26 44  1  0  0  0  0
 27 28  2  0  0  0  0
 27 45  1  0  0  0  0
 28 46  1  0  0  0  0
 29 30  1  0  0  0  0
 29 47  1  0  0  0  0
 29 48  1  0  0  0  0
 30 49  1  0  0  0  0
 30 50  1  0  0  0  0
 30 51  1  0  0  0  0
M  CHG  2   2   1   4  -1
M  END
> <PUBCHEM_COMPOUND_CID>
23667630

> <PUBCHEM_COMPOUND_CANONICALIZED>
1

> <PUBCHEM_CACTVS_COMPLEXITY>
705

> <PUBCHEM_CACTVS_HBOND_ACCEPTOR>
6

> <PUBCHEM_CACTVS_HBOND_DONOR>
1

> <PUBCHEM_CACTVS_ROTATABLE_BOND>
5

> <PUBCHEM_CACTVS_SUBSKEYS>
AAADceB7OCBAAAAAAAAAAAAAAABYAWAAAAAwYAAABYAAAADBUAAAHgQQAAAADCzl2AayDsPABAiIAiHSGACCCABkIBAIiIGODMgOZj6ktTuWOWjm9hG4qQeYyPCOoAADAAAYAABAAAYAADAAAAAAAAAAAA==

> <PUBCHEM_IUPAC_OPENEYE_NAME>
sodium (2S,5R,6R)-6-[(2-ethoxynaphthalene-1-carbonyl)amino]-3,3-dimethyl-7-oxo-4-thia-1-azabicyclo[3.2.0]heptane-2-carboxylate

> <PUBCHEM_IUPAC_CAS_NAME>
sodium (2S,5R,6R)-6-[[(2-ethoxy-1-naphthalenyl)-oxomethyl]amino]-3,3-dimethyl-7-oxo-4-thia-1-azabicyclo[3.2.0]heptane-2-carboxylate

> <PUBCHEM_IUPAC_NAME>
sodium (2S,5R,6R)-6-[(2-ethoxynaphthalene-1-carbonyl)amino]-3,3-dimethyl-7-oxo-4-thia-1-azabicyclo[3.2.0]heptane-2-carboxylate

> <PUBCHEM_IUPAC_SYSTEMATIC_NAME>
sodium (2S,5R,6R)-6-[(2-ethoxynaphthalen-1-yl)carbonylamino]-3,3-dimethyl-7-oxidanylidene-4-thia-1-azabicyclo[3.2.0]heptane-2-carboxylate

> <PUBCHEM_IUPAC_TRADITIONAL_NAME>
sodium (2S,5R,6R)-6-[(2-ethoxy-1-naphthoyl)amino]-7-keto-3,3-dimethyl-4-thia-1-azabicyclo[3.2.0]heptane-2-carboxylate

> <PUBCHEM_IUPAC_INCHI>
InChI=1S/C21H22N2O5S.Na/c1-4-28-13-10-9-11-7-5-6-8-12(11)14(13)17(24)22-15-18(25)23-16(20(26)27)21(2,3)29-19(15)23;/h5-10,15-16,19H,4H2,1-3H3,(H,22,24)(H,26,27);/q;+1/p-1/t15-,16+,19-;/m1./s1

> <PUBCHEM_IUPAC_INCHIKEY>
AYAPZOUDXCDGIF-FRFVDRIFSA-M

> <PUBCHEM_EXACT_MASS>
436.106887

> <PUBCHEM_MOLECULAR_FORMULA>
C21H21N2NaO5S

> <PUBCHEM_MOLECULAR_WEIGHT>
436.456609

> <PUBCHEM_OPENEYE_CAN_SMILES>
CCOC1=C(C2=CC=CC=C2C=C1)C(=O)NC3C4N(C3=O)C(C(S4)(C)C)C(=O)[O-].[Na+]

> <PUBCHEM_OPENEYE_ISO_SMILES>
CCOC1=C(C2=CC=CC=C2C=C1)C(=O)N[C@H]3[C@@H]4N(C3=O)[C@H](C(S4)(C)C)C(=O)[O-].[Na+]

> <PUBCHEM_CACTVS_TPSA>
124

> <PUBCHEM_MONOISOTOPIC_WEIGHT>
436.106887

> <PUBCHEM_TOTAL_CHARGE>
0

> <PUBCHEM_HEAVY_ATOM_COUNT>
30

> <PUBCHEM_ATOM_DEF_STEREO_COUNT>
3

> <PUBCHEM_ATOM_UDEF_STEREO_COUNT>
0

> <PUBCHEM_BOND_DEF_STEREO_COUNT>
0

> <PUBCHEM_BOND_UDEF_STEREO_COUNT>
0

> <PUBCHEM_ISOTOPIC_ATOM_COUNT>
0

> <PUBCHEM_COMPONENT_COUNT>
2

> <PUBCHEM_CACTVS_TAUTO_COUNT>
4

> <PUBCHEM_NONSTANDARDBOND>
2  4  7

> <PUBCHEM_COORDINATE_TYPE>
1
5
255

> <PUBCHEM_BONDANNOTATIONS>
10  31  5
12  17  5
19  20  8
19  21  8
20  22  8
20  24  8
21  23  8
22  25  8
22  26  8
23  25  8
24  27  8
26  28  8
27  28  8
13  9  6

$$$$

