51090885
  -OEChem-06241223003D

 41 42  0     0  0  0  0  0  0999 V2000
   -2.8468   -0.7972   -3.4855 Cl  0  0  0  0  0  0  0  0  0  0  0  0
    2.8238   -0.7713    0.5215 O   0  0  0  0  0  0  0  0  0  0  0  0
    0.6975    2.8586   -0.2361 O   0  0  0  0  0  0  0  0  0  0  0  0
    0.8650   -2.5603   -0.3127 O   0  0  0  0  0  0  0  0  0  0  0  0
    1.7850    1.0127   -1.1232 N   0  0  0  0  0  0  0  0  0  0  0  0
   -0.8350    1.2090    1.6717 N   0  0  0  0  0  0  0  0  0  0  0  0
    3.8802    1.3442    0.1399 C   0  0  0  0  0  0  0  0  0  0  0  0
    3.1081    1.5938   -1.1489 C   0  0  0  0  0  0  0  0  0  0  0  0
    4.0926   -0.1379    0.4237 C   0  0  0  0  0  0  0  0  0  0  0  0
   -0.6066    0.9604   -0.6771 C   0  0  0  0  0  0  0  0  0  0  0  0
   -1.3128    0.7421    0.5027 C   0  0  0  0  0  0  0  0  0  0  0  0
    0.6549    1.6935   -0.6625 C   0  0  0  0  0  0  0  0  0  0  0  0
   -2.5258    0.0262    0.4272 C   0  0  0  0  0  0  0  0  0  0  0  0
   -1.0727    0.4904   -1.9073 C   0  0  0  0  0  0  0  0  0  0  0  0
    2.9540   -2.1614    0.7864 C   0  0  0  0  0  0  0  0  0  0  0  0
   -2.9950   -0.4467   -0.8102 C   0  0  0  0  0  0  0  0  0  0  0  0
   -2.2683   -0.2142   -1.9744 C   0  0  0  0  0  0  0  0  0  0  0  0
   -3.2371   -0.1939    1.6144 C   0  0  0  0  0  0  0  0  0  0  0  0
    1.5717   -2.7745    0.9030 C   0  0  0  0  0  0  0  0  0  0  0  0
   -2.7473    0.2860    2.8206 C   0  0  0  0  0  0  0  0  0  0  0  0
   -1.5520    0.9753    2.7948 C   0  0  0  0  0  0  0  0  0  0  0  0
   -0.4336   -3.1350   -0.2680 C   0  0  0  0  0  0  0  0  0  0  0  0
    3.3265    1.7898    0.9759 H   0  0  0  0  0  0  0  0  0  0  0  0
    4.8531    1.8449    0.0841 H   0  0  0  0  0  0  0  0  0  0  0  0
    3.6368    1.1571   -2.0028 H   0  0  0  0  0  0  0  0  0  0  0  0
    3.0197    2.6716   -1.3232 H   0  0  0  0  0  0  0  0  0  0  0  0
    4.6760   -0.5960   -0.3835 H   0  0  0  0  0  0  0  0  0  0  0  0
    4.6391   -0.2557    1.3662 H   0  0  0  0  0  0  0  0  0  0  0  0
    1.6868    0.0518   -1.4386 H   0  0  0  0  0  0  0  0  0  0  0  0
    3.5103   -2.3163    1.7174 H   0  0  0  0  0  0  0  0  0  0  0  0
    3.4967   -2.6294   -0.0431 H   0  0  0  0  0  0  0  0  0  0  0  0
   -0.5035    0.6790   -2.8153 H   0  0  0  0  0  0  0  0  0  0  0  0
   -3.9318   -0.9992   -0.8584 H   0  0  0  0  0  0  0  0  0  0  0  0
   -4.1770   -0.7411    1.6058 H   0  0  0  0  0  0  0  0  0  0  0  0
    1.0211   -2.2920    1.7190 H   0  0  0  0  0  0  0  0  0  0  0  0
    1.6544   -3.8480    1.1052 H   0  0  0  0  0  0  0  0  0  0  0  0
   -3.2841    0.1247    3.7480 H   0  0  0  0  0  0  0  0  0  0  0  0
   -1.1199    1.3737    3.7069 H   0  0  0  0  0  0  0  0  0  0  0  0
   -0.9309   -2.9398   -1.2211 H   0  0  0  0  0  0  0  0  0  0  0  0
   -1.0235   -2.6930    0.5397 H   0  0  0  0  0  0  0  0  0  0  0  0
   -0.3659   -4.2185   -0.1302 H   0  0  0  0  0  0  0  0  0  0  0  0
  1 17  1  0  0  0  0
  2  9  1  0  0  0  0
  2 15  1  0  0  0  0
  3 12  2  0  0  0  0
  4 19  1  0  0  0  0
  4 22  1  0  0  0  0
  5  8  1  0  0  0  0
  5 12  1  0  0  0  0
  5 29  1  0  0  0  0
  6 11  1  0  0  0  0
  6 21  2  0  0  0  0
  7  8  1  0  0  0  0
  7  9  1  0  0  0  0
  7 23  1  0  0  0  0
  7 24  1  0  0  0  0
  8 25  1  0  0  0  0
  8 26  1  0  0  0  0
  9 27  1  0  0  0  0
  9 28  1  0  0  0  0
 10 11  2  0  0  0  0
 10 12  1  0  0  0  0
 10 14  1  0  0  0  0
 11 13  1  0  0  0  0
 13 16  2  0  0  0  0
 13 18  1  0  0  0  0
 14 17  2  0  0  0  0
 14 32  1  0  0  0  0
 15 19  1  0  0  0  0
 15 30  1  0  0  0  0
 15 31  1  0  0  0  0
 16 17  1  0  0  0  0
 16 33  1  0  0  0  0
 18 20  2  0  0  0  0
 18 34  1  0  0  0  0
 19 35  1  0  0  0  0
 19 36  1  0  0  0  0
 20 21  1  0  0  0  0
 20 37  1  0  0  0  0
 21 38  1  0  0  0  0
 22 39  1  0  0  0  0
 22 40  1  0  0  0  0
 22 41  1  0  0  0  0
M  END
> <PUBCHEM_COMPOUND_CID>
51090885

> <PUBCHEM_CONFORMER_RMSD>
1

> <PUBCHEM_CONFORMER_DIVERSEORDER>
1
72
36
24
62
45
57
94
31
78
69
99
16
82
4
63
32
52
23
87
81
34
89
11
48
67
47
27
3
19
54
65
101
79
7
92
85
88
96
73
91
35
76
29
102
70
61
33
80
50
22
56
8
74
68
66
38
100
59
83
75
6
26
46
93
58
90
20
60
64
5
84
30
97
40
53
55
41
10
44
15
2
77
28
37
12
9
13
43
39
86
25
49
98
18
42
71
14
95
17
51
21

> <PUBCHEM_MMFF94_PARTIAL_CHARGES>
26
1 -0.18
10 0.09
11 0.31
12 0.54
14 -0.15
15 0.28
16 -0.15
17 0.18
18 -0.15
19 0.28
2 -0.56
20 -0.15
21 0.16
22 0.28
29 0.37
3 -0.57
32 0.15
33 0.15
34 0.15
37 0.15
38 0.15
4 -0.56
5 -0.73
6 -0.62
8 0.3
9 0.28

> <PUBCHEM_EFFECTIVE_ROTOR_COUNT>
9

> <PUBCHEM_PHARMACOPHORE_FEATURES>
7
1 2 acceptor
1 3 acceptor
1 4 acceptor
1 5 donor
1 6 acceptor
6 10 11 13 14 16 17 rings
6 6 11 13 18 20 21 rings

> <PUBCHEM_HEAVY_ATOM_COUNT>
22

> <PUBCHEM_ATOM_DEF_STEREO_COUNT>
0

> <PUBCHEM_ATOM_UDEF_STEREO_COUNT>
0

> <PUBCHEM_BOND_DEF_STEREO_COUNT>
0

> <PUBCHEM_BOND_UDEF_STEREO_COUNT>
0

> <PUBCHEM_ISOTOPIC_ATOM_COUNT>
0

> <PUBCHEM_COMPONENT_COUNT>
1

> <PUBCHEM_CACTVS_TAUTO_COUNT>
2

> <PUBCHEM_CONFORMER_ID>
030B95C500000001

> <PUBCHEM_MMFF94_ENERGY>
53.2531

> <PUBCHEM_FEATURE_SELFOVERLAP>
35.558

> <PUBCHEM_SHAPE_FINGERPRINT>
12539773 59 17750818681619871303
12592029 89 18272939288851086191
12596599 1 17822863103346497838
13583140 156 18335690633825935289
13965767 371 17029053155595724833
14251757 17 17201938126485077877
14747281 78 17702945975426977052
14787075 74 17028564676201236232
18219364 16 18130791144257320462
18981168 100 15286494329941899072
20600515 1 16229191294419493797
21285901 2 16773788169943660299
23419403 2 17631443626534838263
23557571 272 16128362766553216437
23559900 14 16486431953181960960
238 59 18058191473769892614
35225 105 16967109664046991491
4340502 62 18264183869712568523
469060 322 17271443496337230914
539174 4 17898009281212559610
6287921 2 17896867957973058222

> <PUBCHEM_SHAPE_MULTIPOLES>
427.05
6.17
2.89
2.81
4.49
0.11
-2
-0.1
-0.01
-4.22
0.28
2.35
0.07
1.24

> <PUBCHEM_SHAPE_SELFOVERLAP>
883.112

> <PUBCHEM_SHAPE_VOLUME>
245.6

> <PUBCHEM_COORDINATE_TYPE>
2
5
10

$$$$

