17396451
  -OEChem-06241222563D

 68 71  0     0  0  0  0  0  0999 V2000
    4.5666   -0.3156   -0.5934 S   0  0  0  0  0  0  0  0  0  0  0  0
    4.4132    0.9642    2.1014 F   0  0  0  0  0  0  0  0  0  0  0  0
    0.0549   -1.4482    2.0043 O   0  0  0  0  0  0  0  0  0  0  0  0
    4.8631   -0.2663   -2.0086 O   0  0  0  0  0  0  0  0  0  0  0  0
    5.6122   -0.5380    0.3816 O   0  0  0  0  0  0  0  0  0  0  0  0
   -4.1022    0.3899    0.0370 N   0  0  0  0  0  0  0  0  0  0  0  0
   -1.3508   -2.0537    0.2474 N   0  0  0  0  0  0  0  0  0  0  0  0
    3.3085   -1.4487   -0.3260 N   0  0  0  0  0  0  0  0  0  0  0  0
   -2.9010   -0.2981   -0.4356 C   0  0  0  0  0  0  0  0  0  0  0  0
   -1.7518    0.7106   -0.6486 C   0  0  0  0  0  0  0  0  0  0  0  0
   -3.2111   -1.0345   -1.7559 C   0  0  0  0  0  0  0  0  0  0  0  0
   -2.5069   -1.3148    0.6453 C   0  0  0  0  0  0  0  0  0  0  0  0
   -1.9822    1.6528   -1.8315 C   0  0  0  0  0  0  0  0  0  0  0  0
   -3.4385   -0.0921   -2.9396 C   0  0  0  0  0  0  0  0  0  0  0  0
   -2.2777    0.8820   -3.1144 C   0  0  0  0  0  0  0  0  0  0  0  0
   -3.8273    1.0984    1.2951 C   0  0  0  0  0  0  0  0  0  0  0  0
   -5.2110   -0.5617    0.1945 C   0  0  0  0  0  0  0  0  0  0  0  0
   -5.0603    1.8640    1.7780 C   0  0  0  0  0  0  0  0  0  0  0  0
   -6.4890    0.1496    0.6416 C   0  0  0  0  0  0  0  0  0  0  0  0
   -6.2639    0.9403    1.9254 C   0  0  0  0  0  0  0  0  0  0  0  0
    0.8900   -2.9408    0.3366 C   0  0  0  0  0  0  0  0  0  0  0  0
   -0.1544   -2.0626    0.9616 C   0  0  0  0  0  0  0  0  0  0  0  0
    1.2078   -2.4947   -1.0918 C   0  0  0  0  0  0  0  0  0  0  0  0
    2.1436   -2.9821    1.2124 C   0  0  0  0  0  0  0  0  0  0  0  0
    2.0826   -1.2444   -1.1493 C   0  0  0  0  0  0  0  0  0  0  0  0
    2.9806   -1.7101    1.1045 C   0  0  0  0  0  0  0  0  0  0  0  0
    3.7303    1.1782   -0.1637 C   0  0  0  0  0  0  0  0  0  0  0  0
    3.7559    1.6435    1.1511 C   0  0  0  0  0  0  0  0  0  0  0  0
    3.0418    1.8938   -1.1434 C   0  0  0  0  0  0  0  0  0  0  0  0
    3.0931    2.8243    1.4861 C   0  0  0  0  0  0  0  0  0  0  0  0
    2.3792    3.0746   -0.8084 C   0  0  0  0  0  0  0  0  0  0  0  0
    2.4047    3.5399    0.5062 C   0  0  0  0  0  0  0  0  0  0  0  0
   -1.4668    1.2748    0.2433 H   0  0  0  0  0  0  0  0  0  0  0  0
   -0.8393    0.1522   -0.8965 H   0  0  0  0  0  0  0  0  0  0  0  0
   -2.3320   -1.6280   -2.0429 H   0  0  0  0  0  0  0  0  0  0  0  0
   -4.0031   -1.7852   -1.6958 H   0  0  0  0  0  0  0  0  0  0  0  0
   -2.2673   -0.8682    1.6108 H   0  0  0  0  0  0  0  0  0  0  0  0
   -3.2529   -2.0949    0.8122 H   0  0  0  0  0  0  0  0  0  0  0  0
   -2.8125    2.3334   -1.6090 H   0  0  0  0  0  0  0  0  0  0  0  0
   -1.0931    2.2768   -1.9798 H   0  0  0  0  0  0  0  0  0  0  0  0
   -3.5594   -0.6799   -3.8570 H   0  0  0  0  0  0  0  0  0  0  0  0
   -4.3714    0.4659   -2.7973 H   0  0  0  0  0  0  0  0  0  0  0  0
   -1.3810    0.3283   -3.4197 H   0  0  0  0  0  0  0  0  0  0  0  0
   -2.5061    1.5860   -3.9225 H   0  0  0  0  0  0  0  0  0  0  0  0
   -3.5489    0.4441    2.1253 H   0  0  0  0  0  0  0  0  0  0  0  0
   -3.0551    1.8629    1.1883 H   0  0  0  0  0  0  0  0  0  0  0  0
   -5.4934   -1.0424   -0.7440 H   0  0  0  0  0  0  0  0  0  0  0  0
   -5.0269   -1.3417    0.9383 H   0  0  0  0  0  0  0  0  0  0  0  0
   -5.2992    2.6632    1.0645 H   0  0  0  0  0  0  0  0  0  0  0  0
   -4.8471    2.3479    2.7382 H   0  0  0  0  0  0  0  0  0  0  0  0
   -7.2898   -0.5829    0.7957 H   0  0  0  0  0  0  0  0  0  0  0  0
   -6.8277    0.8300   -0.1505 H   0  0  0  0  0  0  0  0  0  0  0  0
   -6.0939    0.2467    2.7580 H   0  0  0  0  0  0  0  0  0  0  0  0
   -7.1582    1.5238    2.1695 H   0  0  0  0  0  0  0  0  0  0  0  0
   -1.4540   -2.7118   -0.5187 H   0  0  0  0  0  0  0  0  0  0  0  0
    0.4632   -3.9524    0.3026 H   0  0  0  0  0  0  0  0  0  0  0  0
    0.3070   -2.3276   -1.6913 H   0  0  0  0  0  0  0  0  0  0  0  0
    1.7512   -3.3123   -1.5850 H   0  0  0  0  0  0  0  0  0  0  0  0
    2.7604   -3.8302    0.8858 H   0  0  0  0  0  0  0  0  0  0  0  0
    1.8912   -3.1717    2.2626 H   0  0  0  0  0  0  0  0  0  0  0  0
    1.5100   -0.3901   -0.7769 H   0  0  0  0  0  0  0  0  0  0  0  0
    2.3537   -1.0591   -2.1937 H   0  0  0  0  0  0  0  0  0  0  0  0
    3.8993   -1.8638    1.6798 H   0  0  0  0  0  0  0  0  0  0  0  0
    2.4494   -0.8572    1.5354 H   0  0  0  0  0  0  0  0  0  0  0  0
    3.0057    1.5507   -2.1734 H   0  0  0  0  0  0  0  0  0  0  0  0
    3.1125    3.1859    2.5098 H   0  0  0  0  0  0  0  0  0  0  0  0
    1.8415    3.6308   -1.5708 H   0  0  0  0  0  0  0  0  0  0  0  0
    1.8878    4.4587    0.7672 H   0  0  0  0  0  0  0  0  0  0  0  0
  1  4  2  0  0  0  0
  1  5  2  0  0  0  0
  1  8  1  0  0  0  0
  1 27  1  0  0  0  0
  2 28  1  0  0  0  0
  3 22  2  0  0  0  0
  6  9  1  0  0  0  0
  6 16  1  0  0  0  0
  6 17  1  0  0  0  0
  7 12  1  0  0  0  0
  7 22  1  0  0  0  0
  7 55  1  0  0  0  0
  8 25  1  0  0  0  0
  8 26  1  0  0  0  0
  9 10  1  0  0  0  0
  9 11  1  0  0  0  0
  9 12  1  0  0  0  0
 10 13  1  0  0  0  0
 10 33  1  0  0  0  0
 10 34  1  0  0  0  0
 11 14  1  0  0  0  0
 11 35  1  0  0  0  0
 11 36  1  0  0  0  0
 12 37  1  0  0  0  0
 12 38  1  0  0  0  0
 13 15  1  0  0  0  0
 13 39  1  0  0  0  0
 13 40  1  0  0  0  0
 14 15  1  0  0  0  0
 14 41  1  0  0  0  0
 14 42  1  0  0  0  0
 15 43  1  0  0  0  0
 15 44  1  0  0  0  0
 16 18  1  0  0  0  0
 16 45  1  0  0  0  0
 16 46  1  0  0  0  0
 17 19  1  0  0  0  0
 17 47  1  0  0  0  0
 17 48  1  0  0  0  0
 18 20  1  0  0  0  0
 18 49  1  0  0  0  0
 18 50  1  0  0  0  0
 19 20  1  0  0  0  0
 19 51  1  0  0  0  0
 19 52  1  0  0  0  0
 20 53  1  0  0  0  0
 20 54  1  0  0  0  0
 21 22  1  0  0  0  0
 21 23  1  0  0  0  0
 21 24  1  0  0  0  0
 21 56  1  0  0  0  0
 23 25  1  0  0  0  0
 23 57  1  0  0  0  0
 23 58  1  0  0  0  0
 24 26  1  0  0  0  0
 24 59  1  0  0  0  0
 24 60  1  0  0  0  0
 25 61  1  0  0  0  0
 25 62  1  0  0  0  0
 26 63  1  0  0  0  0
 26 64  1  0  0  0  0
 27 28  1  0  0  0  0
 27 29  2  0  0  0  0
 28 30  2  0  0  0  0
 29 31  1  0  0  0  0
 29 65  1  0  0  0  0
 30 32  1  0  0  0  0
 30 66  1  0  0  0  0
 31 32  2  0  0  0  0
 31 67  1  0  0  0  0
 32 68  1  0  0  0  0
M  END
> <PUBCHEM_COMPOUND_CID>
17396451

> <PUBCHEM_CONFORMER_RMSD>
1.4

> <PUBCHEM_CONFORMER_DIVERSEORDER>
1
18
57
13
76
49
8
5
67
74
72
41
65
42
15
70
85
9
54
39
33
48
60
59
35
27
82
29
69
78
45
56
43
83
51
44
12
79
37
3
63
58
2
84
77
55
68
28
36
50
21
61
16
4
6
81
73
10
25
62
14
80
66
53
23
7
71
17
47
75
34
26
64
30
38
46
52
19
31
32
11
24
40
20
22

> <PUBCHEM_MMFF94_PARTIAL_CHARGES>
27
1 1.45
12 0.3
16 0.27
17 0.27
2 -0.19
21 0.06
22 0.57
25 0.36
26 0.36
27 -0.01
28 0.19
29 -0.15
3 -0.57
30 -0.15
31 -0.15
32 -0.15
4 -0.65
5 -0.65
55 0.37
6 -0.81
65 0.15
66 0.15
67 0.15
68 0.15
7 -0.73
8 -0.85
9 0.27

> <PUBCHEM_EFFECTIVE_ROTOR_COUNT>
10.6

> <PUBCHEM_PHARMACOPHORE_FEATURES>
9
1 3 acceptor
1 4 acceptor
1 5 acceptor
1 6 cation
1 7 donor
6 27 28 29 30 31 32 rings
6 6 16 17 18 19 20 rings
6 8 21 23 24 25 26 rings
6 9 10 11 13 14 15 rings

> <PUBCHEM_HEAVY_ATOM_COUNT>
32

> <PUBCHEM_ATOM_DEF_STEREO_COUNT>
0

> <PUBCHEM_ATOM_UDEF_STEREO_COUNT>
0

> <PUBCHEM_BOND_DEF_STEREO_COUNT>
0

> <PUBCHEM_BOND_UDEF_STEREO_COUNT>
0

> <PUBCHEM_ISOTOPIC_ATOM_COUNT>
0

> <PUBCHEM_COMPONENT_COUNT>
1

> <PUBCHEM_CACTVS_TAUTO_COUNT>
2

> <PUBCHEM_CONFORMER_ID>
010972E300000001

> <PUBCHEM_MMFF94_ENERGY>
53.7984

> <PUBCHEM_FEATURE_SELFOVERLAP>
45.686

> <PUBCHEM_SHAPE_FINGERPRINT>
10165383 225 18130771366075269598
12156800 1 14591417967314015056
12422481 6 17774720875323739605
12467345 10 17967524710046470617
12633257 1 18201444627592049876
12925494 130 18196094576354108353
13402501 40 18201999923850284012
14114211 80 18055327203166896310
14251764 38 18191305970742545016
14279260 333 18120083151571904942
14429115 67 11095884856725882883
144659 39 17022905683211302573
14840074 17 17560789992865567901
15328829 1 18041289794777688021
16112460 7 18338794521023705160
17980427 23 17897186769395664442
20764821 26 18129101130529335788
21033648 29 17560816436541326925
21315764 119 16226317218026326510
21458453 9 17773576258018156035
22122407 14 18191005980737283361
3633792 109 18340496630085425373
392239 28 18131632279316337351
469060 322 17346323627250451735
474 4 18411696569417543915
5081480 168 17607233548458799422
508706 21 18059590095336055924
5252454 2 18201432554381082254
633830 44 18187930542896205822

> <PUBCHEM_SHAPE_MULTIPOLES>
622.57
13
3.58
2.45
9.31
0.58
1.28
4.34
-3.77
-3.86
-1
1.8
0.57
-0.42

> <PUBCHEM_SHAPE_SELFOVERLAP>
1293.81

> <PUBCHEM_SHAPE_VOLUME>
355.5

> <PUBCHEM_COORDINATE_TYPE>
2
5
10

$$$$

