5385192
  -OEChem-07051212473D

 25 27  0     0  0  0  0  0  0999 V2000
    2.8626    0.9835   -0.1861 O   0  0  0  0  0  0  0  0  0  0  0  0
   -1.9750    1.0279   -0.1288 O   0  0  0  0  0  0  0  0  0  0  0  0
    0.3674    2.4866   -0.2840 O   0  0  0  0  0  0  0  0  0  0  0  0
    0.5932   -3.0739    0.1930 O   0  0  0  0  0  0  0  0  0  0  0  0
   -4.2635    0.9428   -0.0902 O   0  0  0  0  0  0  0  0  0  0  0  0
    1.7150   -0.9543   -0.0042 C   0  0  0  0  0  0  0  0  0  0  0  0
   -0.7043   -1.0436    0.0340 C   0  0  0  0  0  0  0  0  0  0  0  0
    1.6191    0.4292   -0.1222 C   0  0  0  0  0  0  0  0  0  0  0  0
   -0.7368    0.3458   -0.0853 C   0  0  0  0  0  0  0  0  0  0  0  0
    0.4168    1.1306   -0.1674 C   0  0  0  0  0  0  0  0  0  0  0  0
    0.5296   -1.7115    0.0761 C   0  0  0  0  0  0  0  0  0  0  0  0
    3.1050   -1.2451    0.0028 C   0  0  0  0  0  0  0  0  0  0  0  0
   -1.9627   -1.7689    0.1114 C   0  0  0  0  0  0  0  0  0  0  0  0
    3.7549   -0.0380   -0.1097 C   0  0  0  0  0  0  0  0  0  0  0  0
   -3.1251   -1.1135    0.0693 C   0  0  0  0  0  0  0  0  0  0  0  0
   -3.1889    0.3535   -0.0554 C   0  0  0  0  0  0  0  0  0  0  0  0
    0.9926    3.2492    0.7467 C   0  0  0  0  0  0  0  0  0  0  0  0
    3.5753   -2.2152    0.0804 H   0  0  0  0  0  0  0  0  0  0  0  0
   -1.9864   -2.8486    0.1840 H   0  0  0  0  0  0  0  0  0  0  0  0
    4.7957    0.2484   -0.1479 H   0  0  0  0  0  0  0  0  0  0  0  0
   -4.0659   -1.6511    0.1191 H   0  0  0  0  0  0  0  0  0  0  0  0
   -0.2094   -3.4204    0.6109 H   0  0  0  0  0  0  0  0  0  0  0  0
    0.8318    2.7987    1.7320 H   0  0  0  0  0  0  0  0  0  0  0  0
    0.5465    4.2478    0.7472 H   0  0  0  0  0  0  0  0  0  0  0  0
    2.0626    3.3524    0.5456 H   0  0  0  0  0  0  0  0  0  0  0  0
  1  8  1  0  0  0  0
  1 14  1  0  0  0  0
  2  9  1  0  0  0  0
  2 16  1  0  0  0  0
  3 10  1  0  0  0  0
  3 17  1  0  0  0  0
  4 11  1  0  0  0  0
  4 22  1  0  0  0  0
  5 16  2  0  0  0  0
  6  8  2  0  0  0  0
  6 11  1  0  0  0  0
  6 12  1  0  0  0  0
  7  9  1  0  0  0  0
  7 11  2  0  0  0  0
  7 13  1  0  0  0  0
  8 10  1  0  0  0  0
  9 10  2  0  0  0  0
 12 14  2  0  0  0  0
 12 18  1  0  0  0  0
 13 15  2  0  0  0  0
 13 19  1  0  0  0  0
 14 20  1  0  0  0  0
 15 16  1  0  0  0  0
 15 21  1  0  0  0  0
 17 23  1  0  0  0  0
 17 24  1  0  0  0  0
 17 25  1  0  0  0  0
M  END
> <PUBCHEM_COMPOUND_CID>
5385192

> <PUBCHEM_CONFORMER_RMSD>
0.6

> <PUBCHEM_CONFORMER_DIVERSEORDER>
1

> <PUBCHEM_MMFF94_PARTIAL_CHARGES>
21
1 -0.28
10 0.08
11 0.08
12 -0.15
13 -0.18
14 -0.01
15 -0.14
16 0.71
17 0.28
18 0.15
19 0.15
2 -0.23
20 0.15
21 0.15
22 0.45
3 -0.36
4 -0.53
5 -0.57
7 0.03
8 0.14
9 0.08

> <PUBCHEM_EFFECTIVE_ROTOR_COUNT>
1

> <PUBCHEM_PHARMACOPHORE_FEATURES>
7
1 1 acceptor
1 3 acceptor
1 4 donor
1 5 acceptor
5 1 6 8 12 14 rings
6 2 7 9 13 15 16 rings
6 6 7 8 9 10 11 rings

> <PUBCHEM_HEAVY_ATOM_COUNT>
17

> <PUBCHEM_ATOM_DEF_STEREO_COUNT>
0

> <PUBCHEM_ATOM_UDEF_STEREO_COUNT>
0

> <PUBCHEM_BOND_DEF_STEREO_COUNT>
0

> <PUBCHEM_BOND_UDEF_STEREO_COUNT>
0

> <PUBCHEM_ISOTOPIC_ATOM_COUNT>
0

> <PUBCHEM_COMPONENT_COUNT>
1

> <PUBCHEM_CACTVS_TAUTO_COUNT>
4

> <PUBCHEM_CONFORMER_ID>
00522BE800000001

> <PUBCHEM_MMFF94_ENERGY>
55.2006

> <PUBCHEM_FEATURE_SELFOVERLAP>
35.653

> <PUBCHEM_SHAPE_FINGERPRINT>
10608611 8 18339364046123026729
108231 29 18408882919425802688
10967382 1 18339079396907002007
11132069 177 18411705395628039138
11471102 20 18411705413082098087
11680986 33 17979916008174623378
116883 192 17974000949382169718
12382932 28 18338233868254619187
13132413 78 18408320003663567989
13140716 1 18411703222591092850
13380535 76 18413389860543419843
14648413 74 18195246620131949993
14790565 3 18338501036885982812
15042514 8 16179040726557421819
15196674 1 18411981351455866222
16945 1 18123187072163334070
193761 8 17762336916476959510
20510252 161 18190746525815045624
20511035 2 17975974267795200404
20588541 1 18342174513739070055
21029758 11 18335143085245136232
21267235 1 18411408536010298575
21501502 16 18195525891895731381
2334 1 18411417276521641726
23402539 116 18261401044178948982
23402655 69 18336840796424486781
23419403 2 16095522450281082674
23463225 33 18342740745132063842
23558518 356 17911243810454545995
23559900 14 18407757033152720860
25 1 18343024423490255527
2748010 2 18340488850586193286
3071541 12 18193554471874218852
3071541 158 18342738477204851948
335352 9 18267867361686416375
34934 24 18338243750921710583
350125 39 18195800770187680233
5104073 3 18412544292856108235
528886 8 18411142445643118746
53812653 166 18409452479006727984
589210 1 17834114139254971194
5939293 188 18408889516316409528
7364860 26 18118965793452653904
7832392 63 18407763650995905207
81228 2 18121485011036558288
8809292 202 18273490174146602923

> <PUBCHEM_SHAPE_MULTIPOLES>
320.51
5.57
2.92
0.64
2.03
1.01
-0.03
-0.06
0.24
-0.69
-0.48
-0.05
0.1
0.18

> <PUBCHEM_SHAPE_SELFOVERLAP>
720.802

> <PUBCHEM_SHAPE_VOLUME>
170.7

> <PUBCHEM_COORDINATE_TYPE>
2
5
10

$$$$

