67088
  -OEChem-07051213042D

 47 50  0     1  0  0  0  0  0999 V2000
    5.3307    2.2991    0.0000 Cl  0  0  0  0  0  0  0  0  0  0  0  0
    9.1857    2.0543    0.0000 O   0  0  0  0  0  0  0  0  0  0  0  0
    2.5357   -2.2532    0.0000 O   0  0  0  0  0  0  0  0  0  0  0  0
    7.9288    0.7991    0.0000 C   0  0  2  0  0  0  0  0  0  0  0  0
    7.9288   -0.2009    0.0000 C   0  0  2  0  0  0  0  0  0  0  0  0
    7.0628   -0.7009    0.0000 C   0  0  1  0  0  0  0  0  0  0  0  0
    6.1968   -0.2009    0.0000 C   0  0  2  0  0  0  0  0  0  0  0  0
    7.0628    1.2991    0.0000 C   0  0  0  0  0  0  0  0  0  0  0  0
    6.1968    0.7991    0.0000 C   0  0  2  0  0  0  0  0  0  0  0  0
    8.8750    1.1038    0.0000 C   0  0  2  0  0  0  0  0  0  0  0  0
    8.8750   -0.5056    0.0000 C   0  0  0  0  0  0  0  0  0  0  0  0
    9.4586    0.2991    0.0000 C   0  0  0  0  0  0  0  0  0  0  0  0
    7.0789   -1.7424    0.0000 C   0  0  0  0  0  0  0  0  0  0  0  0
    7.9288    1.7991    0.0000 C   0  0  0  0  0  0  0  0  0  0  0  0
    5.2868   -0.7078    0.0000 C   0  0  0  0  0  0  0  0  0  0  0  0
    6.1808   -2.2702    0.0000 C   0  0  0  0  0  0  0  0  0  0  0  0
    5.3307    1.2991    0.0000 C   0  0  0  0  0  0  0  0  0  0  0  0
    5.2787   -1.7494    0.0000 C   0  0  0  0  0  0  0  0  0  0  0  0
    4.3599   -0.1437    0.0000 C   0  0  0  0  0  0  0  0  0  0  0  0
    4.3433   -2.2991    0.0000 C   0  0  0  0  0  0  0  0  0  0  0  0
    3.4120   -0.6716    0.0000 C   0  0  0  0  0  0  0  0  0  0  0  0
    3.4037   -1.7566    0.0000 C   0  0  0  0  0  0  0  0  0  0  0  0
    8.0188   -1.0461    0.0000 H   0  0  0  0  0  0  0  0  0  0  0  0
    7.8022   -1.1202    0.0000 H   0  0  0  0  0  0  0  0  0  0  0  0
    5.4640    0.2297    0.0000 H   0  0  0  0  0  0  0  0  0  0  0  0
    7.4613    1.7740    0.0000 H   0  0  0  0  0  0  0  0  0  0  0  0
    6.6643    1.7740    0.0000 H   0  0  0  0  0  0  0  0  0  0  0  0
    6.1968    1.4191    0.0000 H   0  0  0  0  0  0  0  0  0  0  0  0
    9.4875    1.2000    0.0000 H   0  0  0  0  0  0  0  0  0  0  0  0
    8.6240   -1.0725    0.0000 H   0  0  0  0  0  0  0  0  0  0  0  0
    9.4124   -0.8149    0.0000 H   0  0  0  0  0  0  0  0  0  0  0  0
    9.9195   -0.1156    0.0000 H   0  0  0  0  0  0  0  0  0  0  0  0
    9.9195    0.7138    0.0000 H   0  0  0  0  0  0  0  0  0  0  0  0
    7.2969   -2.3228    0.0000 H   0  0  0  0  0  0  0  0  0  0  0  0
    7.6880   -1.6269    0.0000 H   0  0  0  0  0  0  0  0  0  0  0  0
    8.5488    1.7991    0.0000 H   0  0  0  0  0  0  0  0  0  0  0  0
    7.9288    2.4191    0.0000 H   0  0  0  0  0  0  0  0  0  0  0  0
    7.3088    1.7991    0.0000 H   0  0  0  0  0  0  0  0  0  0  0  0
    5.7835   -2.7462    0.0000 H   0  0  0  0  0  0  0  0  0  0  0  0
    6.5818   -2.7431    0.0000 H   0  0  0  0  0  0  0  0  0  0  0  0
    4.7202    1.4068    0.0000 H   0  0  0  0  0  0  0  0  0  0  0  0
    5.1187    0.7165    0.0000 H   0  0  0  0  0  0  0  0  0  0  0  0
    9.7924    2.1822    0.0000 H   0  0  0  0  0  0  0  0  0  0  0  0
    4.3719    0.4762    0.0000 H   0  0  0  0  0  0  0  0  0  0  0  0
    4.3457   -2.9191    0.0000 H   0  0  0  0  0  0  0  0  0  0  0  0
    2.8787   -0.3554    0.0000 H   0  0  0  0  0  0  0  0  0  0  0  0
    2.0000   -1.9412    0.0000 H   0  0  0  0  0  0  0  0  0  0  0  0
  1 17  1  0  0  0  0
 10  2  1  1  0  0  0
  2 43  1  0  0  0  0
  3 22  1  0  0  0  0
  3 47  1  0  0  0  0
  4  5  1  0  0  0  0
  4  8  1  0  0  0  0
  4 10  1  0  0  0  0
  4 14  1  1  0  0  0
  5  6  1  0  0  0  0
  5 11  1  0  0  0  0
  5 23  1  6  0  0  0
  6  7  1  0  0  0  0
  6 13  1  0  0  0  0
  6 24  1  1  0  0  0
  7  9  1  0  0  0  0
  7 15  1  0  0  0  0
  7 25  1  6  0  0  0
  8  9  1  0  0  0  0
  8 26  1  0  0  0  0
  8 27  1  0  0  0  0
  9 17  1  1  0  0  0
  9 28  1  0  0  0  0
 10 12  1  0  0  0  0
 10 29  1  0  0  0  0
 11 12  1  0  0  0  0
 11 30  1  0  0  0  0
 11 31  1  0  0  0  0
 12 32  1  0  0  0  0
 12 33  1  0  0  0  0
 13 16  1  0  0  0  0
 13 34  1  0  0  0  0
 13 35  1  0  0  0  0
 14 36  1  0  0  0  0
 14 37  1  0  0  0  0
 14 38  1  0  0  0  0
 15 18  2  0  0  0  0
 15 19  1  0  0  0  0
 16 18  1  0  0  0  0
 16 39  1  0  0  0  0
 16 40  1  0  0  0  0
 17 41  1  0  0  0  0
 17 42  1  0  0  0  0
 18 20  1  0  0  0  0
 19 21  2  0  0  0  0
 19 44  1  0  0  0  0
 20 22  2  0  0  0  0
 20 45  1  0  0  0  0
 21 22  1  0  0  0  0
 21 46  1  0  0  0  0
M  END
> <PUBCHEM_COMPOUND_CID>
67088

> <PUBCHEM_COMPOUND_CANONICALIZED>
1

> <PUBCHEM_CACTVS_COMPLEXITY>
428

> <PUBCHEM_CACTVS_HBOND_ACCEPTOR>
2

> <PUBCHEM_CACTVS_HBOND_DONOR>
2

> <PUBCHEM_CACTVS_ROTATABLE_BOND>
1

> <PUBCHEM_CACTVS_SUBSKEYS>
AAADceB4MAAEAAAAAAAAAAAAAAAAAYAAAAAwYMAAAAAAAGDBAAAAGgIACAAADxegmEIyBoAAAgCAAiBCAAACAAAgIAAIiAAGCogINiKDERKAcAAkwBEImAeAwPAPoAABAAAQAADAAAYAACAAAIAADAAAAA==

> <PUBCHEM_IUPAC_OPENEYE_NAME>
(8S,9R,11S,13S,14S,17S)-11-(chloromethyl)-13-methyl-6,7,8,9,11,12,14,15,16,17-decahydrocyclopenta[a]phenanthrene-3,17-diol

> <PUBCHEM_IUPAC_CAS_NAME>
(8S,9R,11S,13S,14S,17S)-11-(chloromethyl)-13-methyl-6,7,8,9,11,12,14,15,16,17-decahydrocyclopenta[a]phenanthrene-3,17-diol

> <PUBCHEM_IUPAC_NAME>
(8S,9R,11S,13S,14S,17S)-11-(chloromethyl)-13-methyl-6,7,8,9,11,12,14,15,16,17-decahydrocyclopenta[a]phenanthrene-3,17-diol

> <PUBCHEM_IUPAC_SYSTEMATIC_NAME>
(8S,9R,11S,13S,14S,17S)-11-(chloromethyl)-13-methyl-6,7,8,9,11,12,14,15,16,17-decahydrocyclopenta[a]phenanthrene-3,17-diol

> <PUBCHEM_IUPAC_TRADITIONAL_NAME>
(8S,9R,11S,13S,14S,17S)-11-(chloromethyl)-13-methyl-6,7,8,9,11,12,14,15,16,17-decahydrocyclopenta[a]phenanthrene-3,17-diol

> <PUBCHEM_IUPAC_INCHI>
InChI=1S/C19H25ClO2/c1-19-9-12(10-20)18-14-5-3-13(21)8-11(14)2-4-15(18)16(19)6-7-17(19)22/h3,5,8,12,15-18,21-22H,2,4,6-7,9-10H2,1H3/t12-,15+,16+,17+,18-,19+/m1/s1

> <PUBCHEM_IUPAC_INCHIKEY>
CADGCTOWBAPSFQ-OQFXVXKWSA-N

> <PUBCHEM_XLOGP3>
4.3

> <PUBCHEM_EXACT_MASS>
320.154308

> <PUBCHEM_MOLECULAR_FORMULA>
C19H25ClO2

> <PUBCHEM_MOLECULAR_WEIGHT>
320.8536

> <PUBCHEM_OPENEYE_CAN_SMILES>
CC12CC(C3C(C1CCC2O)CCC4=C3C=CC(=C4)O)CCl

> <PUBCHEM_OPENEYE_ISO_SMILES>
C[C@]12C[C@@H]([C@H]3[C@H]([C@@H]1CC[C@@H]2O)CCC4=C3C=CC(=C4)O)CCl

> <PUBCHEM_CACTVS_TPSA>
40.5

> <PUBCHEM_MONOISOTOPIC_WEIGHT>
320.154308

> <PUBCHEM_TOTAL_CHARGE>
0

> <PUBCHEM_HEAVY_ATOM_COUNT>
22

> <PUBCHEM_ATOM_DEF_STEREO_COUNT>
6

> <PUBCHEM_ATOM_UDEF_STEREO_COUNT>
0

> <PUBCHEM_BOND_DEF_STEREO_COUNT>
0

> <PUBCHEM_BOND_UDEF_STEREO_COUNT>
0

> <PUBCHEM_ISOTOPIC_ATOM_COUNT>
0

> <PUBCHEM_COMPONENT_COUNT>
1

> <PUBCHEM_CACTVS_TAUTO_COUNT>
9

> <PUBCHEM_COORDINATE_TYPE>
1
5
255

> <PUBCHEM_BONDANNOTATIONS>
15  18  8
15  19  8
18  20  8
19  21  8
10  2  5
20  22  8
21  22  8
4  14  5
5  23  6
6  24  5
7  25  6
9  17  5

$$$$

