13180
  -OEChem-06261207513D

 12 11  0     0  0  0  0  0  0999 V2000
   -2.9014   -1.0485    0.1698 Br  0  0  0  0  0  0  0  0  0  0  0  0
    2.8804   -1.0657   -0.1740 Br  0  0  0  0  0  0  0  0  0  0  0  0
   -0.5810    0.5081    0.3263 C   0  0  0  0  0  0  0  0  0  0  0  0
    0.5916    0.5370   -0.3247 C   0  0  0  0  0  0  0  0  0  0  0  0
   -1.9038    0.5346   -0.3590 C   0  0  0  0  0  0  0  0  0  0  0  0
    1.9142    0.5344    0.3615 C   0  0  0  0  0  0  0  0  0  0  0  0
   -0.5815    0.4885    1.4139 H   0  0  0  0  0  0  0  0  0  0  0  0
    0.5937    0.5839   -1.4115 H   0  0  0  0  0  0  0  0  0  0  0  0
   -2.4924    1.4012   -0.0475 H   0  0  0  0  0  0  0  0  0  0  0  0
   -1.8305    0.5126   -1.4494 H   0  0  0  0  0  0  0  0  0  0  0  0
    1.8388    0.5073    1.4518 H   0  0  0  0  0  0  0  0  0  0  0  0
    2.5189    1.3924    0.0577 H   0  0  0  0  0  0  0  0  0  0  0  0
  1  5  1  0  0  0  0
  2  6  1  0  0  0  0
  3  4  2  0  0  0  0
  3  5  1  0  0  0  0
  3  7  1  0  0  0  0
  4  6  1  0  0  0  0
  4  8  1  0  0  0  0
  5  9  1  0  0  0  0
  5 10  1  0  0  0  0
  6 11  1  0  0  0  0
  6 12  1  0  0  0  0
M  END
> <PUBCHEM_COMPOUND_CID>
13180

> <PUBCHEM_CONFORMER_RMSD>
0.4

> <PUBCHEM_CONFORMER_DIVERSEORDER>
1
2
4
6
5
3

> <PUBCHEM_MMFF94_PARTIAL_CHARGES>
8
1 -0.23
2 -0.23
3 -0.29
4 -0.29
5 0.37
6 0.37
7 0.15
8 0.15

> <PUBCHEM_EFFECTIVE_ROTOR_COUNT>
2

> <PUBCHEM_PHARMACOPHORE_FEATURES>
2
1 1 hydrophobe
1 2 hydrophobe

> <PUBCHEM_HEAVY_ATOM_COUNT>
6

> <PUBCHEM_ATOM_DEF_STEREO_COUNT>
0

> <PUBCHEM_ATOM_UDEF_STEREO_COUNT>
0

> <PUBCHEM_BOND_DEF_STEREO_COUNT>
0

> <PUBCHEM_BOND_UDEF_STEREO_COUNT>
1

> <PUBCHEM_ISOTOPIC_ATOM_COUNT>
0

> <PUBCHEM_COMPONENT_COUNT>
1

> <PUBCHEM_CACTVS_TAUTO_COUNT>
1

> <PUBCHEM_CONFORMER_ID>
0000337C00000001

> <PUBCHEM_MMFF94_ENERGY>
-0.0825

> <PUBCHEM_FEATURE_SELFOVERLAP>
10.149

> <PUBCHEM_SHAPE_FINGERPRINT>
12932741 1 18339939176355844748
12932764 1 17385730162021812352
14390081 3 9223231844985691527
21293036 1 14836116637490232691
23552423 10 18202843261937347070
29004967 10 18259705570909285345
5460574 1 8070034375692258833

> <PUBCHEM_SHAPE_MULTIPOLES>
135.36
5.15
1.26
0.74
0.07
0.33
0
2.45
0
-0.02
0
0
0
0.26

> <PUBCHEM_SHAPE_SELFOVERLAP>
213.466

> <PUBCHEM_SHAPE_VOLUME>
96.9

> <PUBCHEM_COORDINATE_TYPE>
2
5
10

$$$$

