583397
  -OEChem-06241222453D

 35 37  0     0  0  0  0  0  0999 V2000
   -0.2102   -1.8731   -0.9294 O   0  0  0  0  0  0  0  0  0  0  0  0
   -2.7990    1.6802   -2.2452 O   0  5  0  0  0  0  0  0  0  0  0  0
   -0.8611    0.6895   -1.9588 O   0  0  0  0  0  0  0  0  0  0  0  0
    0.6176   -0.1386    0.4449 N   0  0  0  0  0  0  0  0  0  0  0  0
   -2.0514    0.8905   -1.6218 N   0  3  0  0  0  0  0  0  0  0  0  0
    1.0559    2.2102    1.1220 C   0  0  0  0  0  0  0  0  0  0  0  0
    0.2740    0.9374    1.3953 C   0  0  0  0  0  0  0  0  0  0  0  0
    2.5388    1.9339    1.2776 C   0  0  0  0  0  0  0  0  0  0  0  0
    2.9502    0.7053    0.5087 C   0  0  0  0  0  0  0  0  0  0  0  0
    2.0199   -0.2854    0.1185 C   0  0  0  0  0  0  0  0  0  0  0  0
   -0.3788   -0.9529   -0.1309 C   0  0  0  0  0  0  0  0  0  0  0  0
    4.3173    0.5487    0.2165 C   0  0  0  0  0  0  0  0  0  0  0  0
    2.5140   -1.4182   -0.5524 C   0  0  0  0  0  0  0  0  0  0  0  0
   -1.7844   -0.6896    0.2361 C   0  0  0  0  0  0  0  0  0  0  0  0
    4.7759   -0.5723   -0.4655 C   0  0  0  0  0  0  0  0  0  0  0  0
    3.8744   -1.5561   -0.8466 C   0  0  0  0  0  0  0  0  0  0  0  0
   -2.5719    0.1989   -0.4926 C   0  0  0  0  0  0  0  0  0  0  0  0
   -2.3149   -1.3558    1.3389 C   0  0  0  0  0  0  0  0  0  0  0  0
   -3.8965    0.4225   -0.1168 C   0  0  0  0  0  0  0  0  0  0  0  0
   -3.6395   -1.1321    1.7146 C   0  0  0  0  0  0  0  0  0  0  0  0
   -4.4303   -0.2430    0.9869 C   0  0  0  0  0  0  0  0  0  0  0  0
    0.7504    3.0022    1.8147 H   0  0  0  0  0  0  0  0  0  0  0  0
    0.8427    2.5640    0.1052 H   0  0  0  0  0  0  0  0  0  0  0  0
    0.4861    0.5552    2.4020 H   0  0  0  0  0  0  0  0  0  0  0  0
   -0.7878    1.1863    1.3722 H   0  0  0  0  0  0  0  0  0  0  0  0
    2.7824    1.7794    2.3360 H   0  0  0  0  0  0  0  0  0  0  0  0
    3.1013    2.8081    0.9287 H   0  0  0  0  0  0  0  0  0  0  0  0
    5.0327    1.3077    0.5248 H   0  0  0  0  0  0  0  0  0  0  0  0
    1.8980   -2.2600   -0.8389 H   0  0  0  0  0  0  0  0  0  0  0  0
    5.8329   -0.6828   -0.6874 H   0  0  0  0  0  0  0  0  0  0  0  0
    4.2281   -2.4444   -1.3625 H   0  0  0  0  0  0  0  0  0  0  0  0
   -1.7081   -2.0506    1.9138 H   0  0  0  0  0  0  0  0  0  0  0  0
   -4.5454    1.1071   -0.6570 H   0  0  0  0  0  0  0  0  0  0  0  0
   -4.0550   -1.6500    2.5740 H   0  0  0  0  0  0  0  0  0  0  0  0
   -5.4615   -0.0691    1.2801 H   0  0  0  0  0  0  0  0  0  0  0  0
  1 11  2  0  0  0  0
  2  5  1  0  0  0  0
  3  5  2  0  0  0  0
  4  7  1  0  0  0  0
  4 10  1  0  0  0  0
  4 11  1  0  0  0  0
  5 17  1  0  0  0  0
  6  7  1  0  0  0  0
  6  8  1  0  0  0  0
  6 22  1  0  0  0  0
  6 23  1  0  0  0  0
  7 24  1  0  0  0  0
  7 25  1  0  0  0  0
  8  9  1  0  0  0  0
  8 26  1  0  0  0  0
  8 27  1  0  0  0  0
  9 10  1  0  0  0  0
  9 12  2  0  0  0  0
 10 13  2  0  0  0  0
 11 14  1  0  0  0  0
 12 15  1  0  0  0  0
 12 28  1  0  0  0  0
 13 16  1  0  0  0  0
 13 29  1  0  0  0  0
 14 17  1  0  0  0  0
 14 18  2  0  0  0  0
 15 16  2  0  0  0  0
 15 30  1  0  0  0  0
 16 31  1  0  0  0  0
 17 19  2  0  0  0  0
 18 20  1  0  0  0  0
 18 32  1  0  0  0  0
 19 21  1  0  0  0  0
 19 33  1  0  0  0  0
 20 21  2  0  0  0  0
 20 34  1  0  0  0  0
 21 35  1  0  0  0  0
M  CHG  2   2  -1   5   1
M  END
> <PUBCHEM_COMPOUND_CID>
583397

> <PUBCHEM_CONFORMER_RMSD>
0.6

> <PUBCHEM_CONFORMER_DIVERSEORDER>
1
10
4
6
5
8
7
9
2
3

> <PUBCHEM_MMFF94_PARTIAL_CHARGES>
28
1 -0.57
10 0.12
11 0.54
12 -0.15
13 -0.15
14 0.09
15 -0.15
16 -0.15
17 0.13
18 -0.15
19 -0.15
2 -0.52
20 -0.15
21 -0.15
28 0.15
29 0.15
3 -0.52
30 0.15
31 0.15
32 0.15
33 0.15
34 0.15
35 0.15
4 -0.48
5 0.91
7 0.3
8 0.14
9 -0.14

> <PUBCHEM_EFFECTIVE_ROTOR_COUNT>
3.8

> <PUBCHEM_PHARMACOPHORE_FEATURES>
7
1 1 acceptor
1 2 acceptor
1 2 anion
1 3 acceptor
6 14 17 18 19 20 21 rings
6 4 6 7 8 9 10 rings
6 9 10 12 13 15 16 rings

> <PUBCHEM_HEAVY_ATOM_COUNT>
21

> <PUBCHEM_ATOM_DEF_STEREO_COUNT>
0

> <PUBCHEM_ATOM_UDEF_STEREO_COUNT>
0

> <PUBCHEM_BOND_DEF_STEREO_COUNT>
0

> <PUBCHEM_BOND_UDEF_STEREO_COUNT>
0

> <PUBCHEM_ISOTOPIC_ATOM_COUNT>
0

> <PUBCHEM_COMPONENT_COUNT>
1

> <PUBCHEM_CACTVS_TAUTO_COUNT>
1

> <PUBCHEM_CONFORMER_ID>
0008E6E500000001

> <PUBCHEM_MMFF94_ENERGY>
79.5576

> <PUBCHEM_FEATURE_SELFOVERLAP>
35.629

> <PUBCHEM_SHAPE_FINGERPRINT>
10062212 137 16298109769874991719
10366900 7 18131074813983418707
10369192 42 17834669397471650596
104564 63 17751070517206412432
10498660 4 17203058468604071389
11471102 20 18114178627536778586
11640471 11 16153705362769699641
12011746 2 18059863865811174799
12186901 62 17775288295773652757
12236239 1 16443062807412792771
12553582 1 17894629288480356518
12623949 98 17829020166414600551
12714826 92 18202562882224776322
12788726 201 16733806667330574880
13134695 92 17967538978133673040
13140716 1 17896888651726253706
13583140 156 17987259801340373602
14178342 30 17317344817057269338
15653759 3 18202002109777595659
16945 1 18040722429007113640
17357779 13 18187649154167351440
18186145 218 18187375324000020318
18219364 16 18335709320779707339
18222031 100 17559670634468671859
18785283 64 18193835934256204352
19049666 15 18271252740882166347
200 152 17458627852121533570
20645477 70 18113899377437750638
21033648 29 18411430509010185584
21033650 10 16844149350963270182
21267235 1 17968923280542491842
21486144 27 18261961730151543480
21792961 116 18341607175136421310
22094290 60 17561360681954488771
2297311 6 17632281389554209423
23175994 123 18261664969502264190
23184049 59 17749381568556482674
23402539 116 17530685450554752974
23493267 7 17917439781804833056
23557571 272 17917991689608313516
23559900 14 17632015368059987130
238 59 17974044805013427413
2838139 119 17531804801043314625
3286 77 18261384499912047299
34934 24 17822295639756507234
350125 39 17753329772809204898
3524813 1 18342178872961992431
602551 16 17488737874642268042
6049 1 18343023272148895776
6287921 2 17840297822572507988
77492 1 16443067183704756011
7808743 9 17202210809437387605

> <PUBCHEM_SHAPE_MULTIPOLES>
404.6
8.54
1.91
1.66
1.44
0.55
-0.86
-1.05
0.77
1.74
0.23
-2.28
0.25
1.16

> <PUBCHEM_SHAPE_SELFOVERLAP>
886.913

> <PUBCHEM_SHAPE_VOLUME>
216.3

> <PUBCHEM_COORDINATE_TYPE>
2
5
10

$$$$

