5360043
  -OEChem-07051212573D

 40 43  0     0  0  0  0  0  0999 V2000
    0.1309    2.7240   -0.2391 O   0  0  0  0  0  0  0  0  0  0  0  0
    2.8502    3.1729   -0.1063 O   0  0  0  0  0  0  0  0  0  0  0  0
   -0.5585   -3.7292   -0.1639 O   0  0  0  0  0  0  0  0  0  0  0  0
   -4.2366    1.5047    0.6366 O   0  0  0  0  0  0  0  0  0  0  0  0
   -4.8197   -1.1617    0.0381 O   0  0  0  0  0  0  0  0  0  0  0  0
    2.1221   -3.1017   -0.0931 N   0  0  0  0  0  0  0  0  0  0  0  0
    1.4617   -0.7930   -0.0327 C   0  0  0  0  0  0  0  0  0  0  0  0
    0.4467    0.2983    0.0254 C   0  0  0  0  0  0  0  0  0  0  0  0
   -0.8727   -0.0381    0.1427 C   0  0  0  0  0  0  0  0  0  0  0  0
    1.1556   -2.1105   -0.0730 C   0  0  0  0  0  0  0  0  0  0  0  0
    2.9227   -0.4770    0.0082 C   0  0  0  0  0  0  0  0  0  0  0  0
   -1.2672   -1.4542    0.0470 C   0  0  0  0  0  0  0  0  0  0  0  0
    1.0061    1.6766   -0.0426 C   0  0  0  0  0  0  0  0  0  0  0  0
   -0.2596   -2.5425   -0.0754 C   0  0  0  0  0  0  0  0  0  0  0  0
    3.3031    0.8136    0.0414 C   0  0  0  0  0  0  0  0  0  0  0  0
    2.3364    1.8932   -0.0181 C   0  0  0  0  0  0  0  0  0  0  0  0
   -1.9524    0.9224    0.3990 C   0  0  0  0  0  0  0  0  0  0  0  0
    3.9190   -1.5518    0.0110 C   0  0  0  0  0  0  0  0  0  0  0  0
   -2.5558   -1.8324    0.0242 C   0  0  0  0  0  0  0  0  0  0  0  0
    3.4636   -2.8133   -0.0450 C   0  0  0  0  0  0  0  0  0  0  0  0
   -3.2475    0.5778    0.3862 C   0  0  0  0  0  0  0  0  0  0  0  0
   -3.6429   -0.8295    0.1313 C   0  0  0  0  0  0  0  0  0  0  0  0
   -0.0408    2.9799   -1.6187 C   0  0  0  0  0  0  0  0  0  0  0  0
    2.9956    3.7467    1.1787 C   0  0  0  0  0  0  0  0  0  0  0  0
   -4.6601    2.1251   -0.5622 C   0  0  0  0  0  0  0  0  0  0  0  0
    4.3536    1.0900    0.0720 H   0  0  0  0  0  0  0  0  0  0  0  0
    1.8318   -4.0712   -0.1210 H   0  0  0  0  0  0  0  0  0  0  0  0
   -1.7243    1.9431    0.6742 H   0  0  0  0  0  0  0  0  0  0  0  0
    4.9784   -1.3283    0.0501 H   0  0  0  0  0  0  0  0  0  0  0  0
   -2.8712   -2.8659   -0.0734 H   0  0  0  0  0  0  0  0  0  0  0  0
    4.1126   -3.6794   -0.0525 H   0  0  0  0  0  0  0  0  0  0  0  0
   -0.4097    2.0986   -2.1554 H   0  0  0  0  0  0  0  0  0  0  0  0
    0.8870    3.3355   -2.0799 H   0  0  0  0  0  0  0  0  0  0  0  0
   -0.7891    3.7713   -1.7253 H   0  0  0  0  0  0  0  0  0  0  0  0
    3.6915    3.1693    1.7975 H   0  0  0  0  0  0  0  0  0  0  0  0
    2.0297    3.8402    1.6874 H   0  0  0  0  0  0  0  0  0  0  0  0
    3.4093    4.7523    1.0573 H   0  0  0  0  0  0  0  0  0  0  0  0
   -5.0646    1.3934   -1.2702 H   0  0  0  0  0  0  0  0  0  0  0  0
   -3.8433    2.6872   -1.0287 H   0  0  0  0  0  0  0  0  0  0  0  0
   -5.4577    2.8326   -0.3167 H   0  0  0  0  0  0  0  0  0  0  0  0
  1 13  1  0  0  0  0
  1 23  1  0  0  0  0
  2 16  1  0  0  0  0
  2 24  1  0  0  0  0
  3 14  2  0  0  0  0
  4 21  1  0  0  0  0
  4 25  1  0  0  0  0
  5 22  2  0  0  0  0
  6 10  1  0  0  0  0
  6 20  1  0  0  0  0
  6 27  1  0  0  0  0
  7  8  1  0  0  0  0
  7 10  2  0  0  0  0
  7 11  1  0  0  0  0
  8  9  2  0  0  0  0
  8 13  1  0  0  0  0
  9 12  1  0  0  0  0
  9 17  1  0  0  0  0
 10 14  1  0  0  0  0
 11 15  2  0  0  0  0
 11 18  1  0  0  0  0
 12 14  1  0  0  0  0
 12 19  2  0  0  0  0
 13 16  2  0  0  0  0
 15 16  1  0  0  0  0
 15 26  1  0  0  0  0
 17 21  2  0  0  0  0
 17 28  1  0  0  0  0
 18 20  2  0  0  0  0
 18 29  1  0  0  0  0
 19 22  1  0  0  0  0
 19 30  1  0  0  0  0
 20 31  1  0  0  0  0
 21 22  1  0  0  0  0
 23 32  1  0  0  0  0
 23 33  1  0  0  0  0
 23 34  1  0  0  0  0
 24 35  1  0  0  0  0
 24 36  1  0  0  0  0
 24 37  1  0  0  0  0
 25 38  1  0  0  0  0
 25 39  1  0  0  0  0
 25 40  1  0  0  0  0
M  END
> <PUBCHEM_COMPOUND_CID>
5360043

> <PUBCHEM_CONFORMER_RMSD>
0.6

> <PUBCHEM_CONFORMER_DIVERSEORDER>
2
1
3
4

> <PUBCHEM_MMFF94_PARTIAL_CHARGES>
27
1 -0.36
10 0.11
12 0.01
13 0.08
14 0.54
15 -0.15
16 0.08
17 -0.15
18 -0.15
19 -0.14
2 -0.36
20 -0.05
21 0.09
22 0.54
23 0.28
24 0.28
25 0.28
26 0.15
27 0.4
28 0.15
29 0.15
3 -0.57
30 0.15
31 0.15
4 -0.36
5 -0.57
6 -0.6

> <PUBCHEM_EFFECTIVE_ROTOR_COUNT>
3

> <PUBCHEM_PHARMACOPHORE_FEATURES>
11
1 1 acceptor
1 2 acceptor
1 3 acceptor
1 4 acceptor
1 5 acceptor
1 6 cation
1 6 donor
6 6 7 10 11 18 20 rings
6 7 8 11 13 15 16 rings
6 7 8 9 10 12 14 rings
6 9 12 17 19 21 22 rings

> <PUBCHEM_HEAVY_ATOM_COUNT>
25

> <PUBCHEM_ATOM_DEF_STEREO_COUNT>
0

> <PUBCHEM_ATOM_UDEF_STEREO_COUNT>
0

> <PUBCHEM_BOND_DEF_STEREO_COUNT>
0

> <PUBCHEM_BOND_UDEF_STEREO_COUNT>
0

> <PUBCHEM_ISOTOPIC_ATOM_COUNT>
0

> <PUBCHEM_COMPONENT_COUNT>
1

> <PUBCHEM_CACTVS_TAUTO_COUNT>
1

> <PUBCHEM_CONFORMER_ID>
0051C9AB00000002

> <PUBCHEM_MMFF94_ENERGY>
111.7635

> <PUBCHEM_FEATURE_SELFOVERLAP>
55.919

> <PUBCHEM_SHAPE_FINGERPRINT>
10319926 262 17179137215239012272
10411042 1 17833829752196371730
10967382 1 18338796715234450186
1100329 8 18409728508054890002
11370993 70 18192155892925335073
11578080 2 17202221766241181894
11680986 33 18269265773015622107
12173636 292 17976824177229939764
12403259 226 18269276927161493886
12422481 6 18268734769704227744
12553582 1 18123472944954739650
12788726 201 17695338570739444778
13140716 1 18412265034056082970
13402501 40 17984142844921891613
138480 1 18337952397915721610
13965767 371 18198081204464607800
14178342 30 17979081483444983952
14790565 3 18125150546987109348
14955137 171 17976223010710532683
15042514 8 17619915393294694706
15081414 286 18118674659126000123
15196674 1 18410291449481732003
15442244 35 18409445916354747915
1601671 61 18339076111467997642
16087824 20 17690276431990182861
16945 1 18410578405189763406
17357779 13 18055081118536445773
17492 89 18410572851813673083
18681886 176 18261964045213503210
19591789 44 18411980273572042799
20739085 24 18197752544924071905
20905425 154 17327456333755528286
21267235 1 18337380621536137747
221490 88 18340759382292637219
22149856 69 18050829054697927155
22182313 1 18129680637450074157
22393880 68 18262790766351225084
2334 1 18410852148761526850
23366157 5 18201999898122678042
23558518 356 18127691526420923811
23559900 14 18334298699185598280
238 59 17838379398415121093
2748010 2 18412824676884744598
335352 9 18266739284394691415
350125 39 18410567371513797107
352729 6 17548694080379850415
4409770 3 17552365787881160918
5104073 3 18411133637050135475
5939293 188 18336829809302271482
6443956 14 18266454506635570140
7364860 26 18336826403435189498
84936 182 18115306661810700880
9709674 26 18411413999551707539
9981440 41 18049731711020241952

> <PUBCHEM_SHAPE_MULTIPOLES>
480.16
7.58
4.72
0.81
6.09
0.98
0.1
0.83
-0.6
-3.18
0.17
-0.01
0.61
0.68

> <PUBCHEM_SHAPE_SELFOVERLAP>
1074.916

> <PUBCHEM_SHAPE_VOLUME>
252.4

> <PUBCHEM_COORDINATE_TYPE>
2
5
10

$$$$

