443625
  -OEChem-07051213023D

 54 54  0     0  0  0  0  0  0999 V2000
    9.9349    0.8486   -0.2521 O   0  0  0  0  0  0  0  0  0  0  0  0
    8.9580   -1.1369    0.2670 O   0  0  0  0  0  0  0  0  0  0  0  0
   -5.1472   -0.3721   -0.1052 C   0  0  0  0  0  0  0  0  0  0  0  0
   -6.3183   -1.2982    0.2551 C   0  0  0  0  0  0  0  0  0  0  0  0
   -5.2014    0.9984    0.5870 C   0  0  0  0  0  0  0  0  0  0  0  0
   -3.8127   -1.0487    0.2328 C   0  0  0  0  0  0  0  0  0  0  0  0
   -7.5403   -1.0837   -0.6394 C   0  0  0  0  0  0  0  0  0  0  0  0
   -6.5649    1.6754    0.7051 C   0  0  0  0  0  0  0  0  0  0  0  0
   -8.3171    0.2045   -0.3945 C   0  0  0  0  0  0  0  0  0  0  0  0
   -7.4950    1.4878   -0.4880 C   0  0  0  0  0  0  0  0  0  0  0  0
   -2.5902   -0.1855   -0.0880 C   0  0  0  0  0  0  0  0  0  0  0  0
   -1.2286   -0.8335    0.1813 C   0  0  0  0  0  0  0  0  0  0  0  0
   -0.0465    0.1032   -0.0760 C   0  0  0  0  0  0  0  0  0  0  0  0
    1.2870   -0.6050    0.1784 C   0  0  0  0  0  0  0  0  0  0  0  0
    2.4702    0.3202   -0.1152 C   0  0  0  0  0  0  0  0  0  0  0  0
    3.8322   -0.3460    0.1012 C   0  0  0  0  0  0  0  0  0  0  0  0
    5.0154    0.5872   -0.1686 C   0  0  0  0  0  0  0  0  0  0  0  0
    6.3493   -0.1270    0.0743 C   0  0  0  0  0  0  0  0  0  0  0  0
    7.5514    0.7661   -0.2186 C   0  0  0  0  0  0  0  0  0  0  0  0
    8.8637    0.0452   -0.0367 C   0  0  0  0  0  0  0  0  0  0  0  0
   -5.1557   -0.2053   -1.1910 H   0  0  0  0  0  0  0  0  0  0  0  0
   -6.0077   -2.3419    0.1161 H   0  0  0  0  0  0  0  0  0  0  0  0
   -6.5895   -1.1971    1.3127 H   0  0  0  0  0  0  0  0  0  0  0  0
   -4.7810    0.9314    1.5991 H   0  0  0  0  0  0  0  0  0  0  0  0
   -4.5533    1.6891    0.0313 H   0  0  0  0  0  0  0  0  0  0  0  0
   -3.7902   -1.3180    1.2967 H   0  0  0  0  0  0  0  0  0  0  0  0
   -3.7317   -1.9886   -0.3279 H   0  0  0  0  0  0  0  0  0  0  0  0
   -7.2370   -1.1305   -1.6928 H   0  0  0  0  0  0  0  0  0  0  0  0
   -8.2291   -1.9243   -0.4865 H   0  0  0  0  0  0  0  0  0  0  0  0
   -7.0620    1.3339    1.6218 H   0  0  0  0  0  0  0  0  0  0  0  0
   -6.3902    2.7496    0.8491 H   0  0  0  0  0  0  0  0  0  0  0  0
   -9.1242    0.2572   -1.1362 H   0  0  0  0  0  0  0  0  0  0  0  0
   -8.8092    0.1515    0.5848 H   0  0  0  0  0  0  0  0  0  0  0  0
   -8.2024    2.3270   -0.4951 H   0  0  0  0  0  0  0  0  0  0  0  0
   -6.9452    1.5376   -1.4345 H   0  0  0  0  0  0  0  0  0  0  0  0
   -2.6217    0.7355    0.5046 H   0  0  0  0  0  0  0  0  0  0  0  0
   -2.6326    0.1166   -1.1421 H   0  0  0  0  0  0  0  0  0  0  0  0
   -1.1315   -1.7270   -0.4476 H   0  0  0  0  0  0  0  0  0  0  0  0
   -1.1965   -1.1754    1.2233 H   0  0  0  0  0  0  0  0  0  0  0  0
   -0.0833    0.4590   -1.1127 H   0  0  0  0  0  0  0  0  0  0  0  0
   -0.1268    0.9841    0.5721 H   0  0  0  0  0  0  0  0  0  0  0  0
    1.3341   -0.9421    1.2208 H   0  0  0  0  0  0  0  0  0  0  0  0
    1.3573   -1.4977   -0.4546 H   0  0  0  0  0  0  0  0  0  0  0  0
    2.4070    0.6719   -1.1525 H   0  0  0  0  0  0  0  0  0  0  0  0
    2.4003    1.2085    0.5249 H   0  0  0  0  0  0  0  0  0  0  0  0
    3.8899   -0.7121    1.1339 H   0  0  0  0  0  0  0  0  0  0  0  0
    3.9077   -1.2250   -0.5508 H   0  0  0  0  0  0  0  0  0  0  0  0
    4.9465    1.4676    0.4812 H   0  0  0  0  0  0  0  0  0  0  0  0
    4.9710    0.9437   -1.2047 H   0  0  0  0  0  0  0  0  0  0  0  0
    6.3960   -0.4745    1.1142 H   0  0  0  0  0  0  0  0  0  0  0  0
    6.3988   -1.0240   -0.5562 H   0  0  0  0  0  0  0  0  0  0  0  0
    7.5049    1.1226   -1.2536 H   0  0  0  0  0  0  0  0  0  0  0  0
    7.5402    1.6302    0.4548 H   0  0  0  0  0  0  0  0  0  0  0  0
   10.7822    0.3687   -0.1336 H   0  0  0  0  0  0  0  0  0  0  0  0
  1 20  1  0  0  0  0
  1 54  1  0  0  0  0
  2 20  2  0  0  0  0
  3  4  1  0  0  0  0
  3  5  1  0  0  0  0
  3  6  1  0  0  0  0
  3 21  1  0  0  0  0
  4  7  1  0  0  0  0
  4 22  1  0  0  0  0
  4 23  1  0  0  0  0
  5  8  1  0  0  0  0
  5 24  1  0  0  0  0
  5 25  1  0  0  0  0
  6 11  1  0  0  0  0
  6 26  1  0  0  0  0
  6 27  1  0  0  0  0
  7  9  1  0  0  0  0
  7 28  1  0  0  0  0
  7 29  1  0  0  0  0
  8 10  1  0  0  0  0
  8 30  1  0  0  0  0
  8 31  1  0  0  0  0
  9 10  1  0  0  0  0
  9 32  1  0  0  0  0
  9 33  1  0  0  0  0
 10 34  1  0  0  0  0
 10 35  1  0  0  0  0
 11 12  1  0  0  0  0
 11 36  1  0  0  0  0
 11 37  1  0  0  0  0
 12 13  1  0  0  0  0
 12 38  1  0  0  0  0
 12 39  1  0  0  0  0
 13 14  1  0  0  0  0
 13 40  1  0  0  0  0
 13 41  1  0  0  0  0
 14 15  1  0  0  0  0
 14 42  1  0  0  0  0
 14 43  1  0  0  0  0
 15 16  1  0  0  0  0
 15 44  1  0  0  0  0
 15 45  1  0  0  0  0
 16 17  1  0  0  0  0
 16 46  1  0  0  0  0
 16 47  1  0  0  0  0
 17 18  1  0  0  0  0
 17 48  1  0  0  0  0
 17 49  1  0  0  0  0
 18 19  1  0  0  0  0
 18 50  1  0  0  0  0
 18 51  1  0  0  0  0
 19 20  1  0  0  0  0
 19 52  1  0  0  0  0
 19 53  1  0  0  0  0
M  END
> <PUBCHEM_COMPOUND_CID>
443625

> <PUBCHEM_CONFORMER_RMSD>
1.2

> <PUBCHEM_CONFORMER_DIVERSEORDER>
1
44
10
83
98
88
13
32
40
43
56
101
34
46
4
87
6
65
37
71
8
19
89
73
12
28
7
90
76
33
57
75
38
42
91
54
26
72
22
69
16
100
55
20
48
2
84
23
27
24
77
81
68
93
94
5
18
52
51
17
29
21
25
11
58
95
39
66
63
86
59
53
96
67
14
80
49
30
50
61
74
36
35
78
45
47
31
15
9
97
85
99
60
3
70
64
62
92
41
82
79

> <PUBCHEM_MMFF94_PARTIAL_CHARGES>
5
1 -0.65
19 0.06
2 -0.57
20 0.66
54 0.5

> <PUBCHEM_EFFECTIVE_ROTOR_COUNT>
12.4

> <PUBCHEM_PHARMACOPHORE_FEATURES>
4
1 1 acceptor
1 2 acceptor
3 1 2 20 anion
7 3 4 5 7 8 9 10 rings

> <PUBCHEM_HEAVY_ATOM_COUNT>
20

> <PUBCHEM_ATOM_DEF_STEREO_COUNT>
0

> <PUBCHEM_ATOM_UDEF_STEREO_COUNT>
0

> <PUBCHEM_BOND_DEF_STEREO_COUNT>
0

> <PUBCHEM_BOND_UDEF_STEREO_COUNT>
0

> <PUBCHEM_ISOTOPIC_ATOM_COUNT>
0

> <PUBCHEM_COMPONENT_COUNT>
1

> <PUBCHEM_CACTVS_TAUTO_COUNT>
1

> <PUBCHEM_CONFORMER_ID>
0006C4E900000001

> <PUBCHEM_MMFF94_ENERGY>
16.9001

> <PUBCHEM_FEATURE_SELFOVERLAP>
20.355

> <PUBCHEM_SHAPE_FINGERPRINT>
10299344 5 18272371971074154290
11315181 36 18413107256733485379
12089408 11 18343302565925577426
12091667 2 18335137579993712171
13885169 127 18408321103111625801
14123256 10 5617537393311573820
14251764 18 18272091599476757922
14251764 46 18410575080373581303
14428016 248 17775560923751042140
14617042 71 16056022547721778732
15461852 350 17894634721529544927
155225 1 18411699924795044641
20621476 8 18131351925241389606
21150785 3 13984663654866608296
21315763 28 18335983086274401424
21360442 43 18188779332331906279
21362267 313 18269843163708954320
22224240 67 17060339608808624394
232437 2 18410292497416874414
23521765 1 18335138679051568310
246663 6 10519984872464006632
249057 3 15864075343213526868
2835820 82 17559123284290709762
28498 318 18334574655699207982
33684 2 18410856560077769378
4339292 15 16878516627400315207
5758199 1 17775568636784318482
67123 10 18335421253392116294
8209 1 18411982451600347294

> <PUBCHEM_SHAPE_MULTIPOLES>
399.85
36.19
1.32
0.71
54.36
0.19
0.01
5.1
-2.75
-2.23
0.08
-0.58
0.05
-0.62

> <PUBCHEM_SHAPE_SELFOVERLAP>
754.724

> <PUBCHEM_SHAPE_VOLUME>
245.4

> <PUBCHEM_COORDINATE_TYPE>
2
5
10

$$$$

