13469
  -OEChem-06261214312D

 42 42  0     0  0  0  0  0  0999 V2000
    4.1200    0.6200    0.0000 Cl  0  0  0  0  0  0  0  0  0  0  0  0
    0.0000    3.8700    0.0000 Cl  0  5  0  0  0  0  0  0  0  0  0  0
    4.1200    6.6200    0.0000 N   0  3  0  0  0  0  0  0  0  0  0  0
    4.1200    5.6200    0.0000 C   0  0  0  0  0  0  0  0  0  0  0  0
    4.9860    5.1200    0.0000 C   0  0  0  0  0  0  0  0  0  0  0  0
    4.1200    7.6200    0.0000 C   0  0  0  0  0  0  0  0  0  0  0  0
    3.1200    6.6200    0.0000 C   0  0  0  0  0  0  0  0  0  0  0  0
    4.9860    4.1200    0.0000 C   0  0  0  0  0  0  0  0  0  0  0  0
    5.8521    3.6200    0.0000 C   0  0  0  0  0  0  0  0  0  0  0  0
    5.8521    2.6200    0.0000 C   0  0  0  0  0  0  0  0  0  0  0  0
    6.7181    4.1200    0.0000 C   0  0  0  0  0  0  0  0  0  0  0  0
    4.9860    2.1200    0.0000 C   0  0  0  0  0  0  0  0  0  0  0  0
    6.7181    2.1200    0.0000 C   0  0  0  0  0  0  0  0  0  0  0  0
    7.5841    3.6200    0.0000 C   0  0  0  0  0  0  0  0  0  0  0  0
    6.7181    5.1200    0.0000 C   0  0  0  0  0  0  0  0  0  0  0  0
    4.9860    1.1200    0.0000 C   0  0  0  0  0  0  0  0  0  0  0  0
    6.7181    1.1200    0.0000 C   0  0  0  0  0  0  0  0  0  0  0  0
    8.4501    4.1200    0.0000 C   0  0  0  0  0  0  0  0  0  0  0  0
    7.5841    5.6200    0.0000 C   0  0  0  0  0  0  0  0  0  0  0  0
    5.8521    0.6200    0.0000 C   0  0  0  0  0  0  0  0  0  0  0  0
    8.4501    5.1200    0.0000 C   0  0  0  0  0  0  0  0  0  0  0  0
    4.7400    6.6200    0.0000 H   0  0  0  0  0  0  0  0  0  0  0  0
    3.9079    5.0374    0.0000 H   0  0  0  0  0  0  0  0  0  0  0  0
    3.5094    5.7277    0.0000 H   0  0  0  0  0  0  0  0  0  0  0  0
    5.1981    5.7026    0.0000 H   0  0  0  0  0  0  0  0  0  0  0  0
    5.5966    5.0123    0.0000 H   0  0  0  0  0  0  0  0  0  0  0  0
    4.7400    7.6200    0.0000 H   0  0  0  0  0  0  0  0  0  0  0  0
    3.5000    7.6200    0.0000 H   0  0  0  0  0  0  0  0  0  0  0  0
    4.1200    8.2400    0.0000 H   0  0  0  0  0  0  0  0  0  0  0  0
    3.1200    6.0000    0.0000 H   0  0  0  0  0  0  0  0  0  0  0  0
    2.5000    6.6200    0.0000 H   0  0  0  0  0  0  0  0  0  0  0  0
    3.1200    7.2400    0.0000 H   0  0  0  0  0  0  0  0  0  0  0  0
    4.4491    3.8100    0.0000 H   0  0  0  0  0  0  0  0  0  0  0  0
    4.4491    2.4300    0.0000 H   0  0  0  0  0  0  0  0  0  0  0  0
    7.2550    2.4300    0.0000 H   0  0  0  0  0  0  0  0  0  0  0  0
    7.5841    3.0000    0.0000 H   0  0  0  0  0  0  0  0  0  0  0  0
    6.1811    5.4300    0.0000 H   0  0  0  0  0  0  0  0  0  0  0  0
    7.2550    0.8100    0.0000 H   0  0  0  0  0  0  0  0  0  0  0  0
    8.9871    3.8100    0.0000 H   0  0  0  0  0  0  0  0  0  0  0  0
    7.5841    6.2400    0.0000 H   0  0  0  0  0  0  0  0  0  0  0  0
    5.8521    0.0000    0.0000 H   0  0  0  0  0  0  0  0  0  0  0  0
    8.9871    5.4300    0.0000 H   0  0  0  0  0  0  0  0  0  0  0  0
  1 16  1  0  0  0  0
  3  4  1  0  0  0  0
  3  6  1  0  0  0  0
  3  7  1  0  0  0  0
  3 22  1  0  0  0  0
  4  5  1  0  0  0  0
  4 23  1  0  0  0  0
  4 24  1  0  0  0  0
  5  8  1  0  0  0  0
  5 25  1  0  0  0  0
  5 26  1  0  0  0  0
  6 27  1  0  0  0  0
  6 28  1  0  0  0  0
  6 29  1  0  0  0  0
  7 30  1  0  0  0  0
  7 31  1  0  0  0  0
  7 32  1  0  0  0  0
  8  9  2  3  0  0  0
  8 33  1  0  0  0  0
  9 10  1  0  0  0  0
  9 11  1  0  0  0  0
 10 12  2  0  0  0  0
 10 13  1  0  0  0  0
 11 14  2  0  0  0  0
 11 15  1  0  0  0  0
 12 16  1  0  0  0  0
 12 34  1  0  0  0  0
 13 17  2  0  0  0  0
 13 35  1  0  0  0  0
 14 18  1  0  0  0  0
 14 36  1  0  0  0  0
 15 19  2  0  0  0  0
 15 37  1  0  0  0  0
 16 20  2  0  0  0  0
 17 20  1  0  0  0  0
 17 38  1  0  0  0  0
 18 21  2  0  0  0  0
 18 39  1  0  0  0  0
 19 21  1  0  0  0  0
 19 40  1  0  0  0  0
 20 41  1  0  0  0  0
 21 42  1  0  0  0  0
M  CHG  2   2  -1   3   1
M  END
> <PUBCHEM_COMPOUND_CID>
13469

> <PUBCHEM_COMPOUND_CANONICALIZED>
1

> <PUBCHEM_CACTVS_COMPLEXITY>
305

> <PUBCHEM_CACTVS_HBOND_ACCEPTOR>
1

> <PUBCHEM_CACTVS_HBOND_DONOR>
1

> <PUBCHEM_CACTVS_ROTATABLE_BOND>
5

> <PUBCHEM_CACTVS_SUBSKEYS>
AAADceB6AAAGAAAAAAAAAAAAAAAAAAAAAAAwYAAAAAAAAAABQAAAHAIQAAAADALBGCQyAIPAAACAAiBCAAACAAAgBQAIiIAIAogIICKBExCEIAAgkAAIiAcAgMAOAAAAIAAAAAAAAABAAAAAAAAAAAAAAA==

> <PUBCHEM_IUPAC_OPENEYE_NAME>
[4-(3-chlorophenyl)-4-phenyl-but-3-enyl]-dimethyl-ammonium chloride

> <PUBCHEM_IUPAC_CAS_NAME>
[4-(3-chlorophenyl)-4-phenylbut-3-enyl]-dimethylammonium chloride

> <PUBCHEM_IUPAC_NAME>
[4-(3-chlorophenyl)-4-phenylbut-3-enyl]-dimethylazanium chloride

> <PUBCHEM_IUPAC_SYSTEMATIC_NAME>
[4-(3-chlorophenyl)-4-phenyl-but-3-enyl]-dimethyl-azanium chloride

> <PUBCHEM_IUPAC_TRADITIONAL_NAME>
[4-(3-chlorophenyl)-4-phenyl-but-3-enyl]-dimethyl-ammonium chloride

> <PUBCHEM_IUPAC_INCHI>
InChI=1S/C18H20ClN.ClH/c1-20(2)13-7-12-18(15-8-4-3-5-9-15)16-10-6-11-17(19)14-16;/h3-6,8-12,14H,7,13H2,1-2H3;1H

> <PUBCHEM_IUPAC_INCHIKEY>
RGNBIXBMNVDFGK-UHFFFAOYSA-N

> <PUBCHEM_EXACT_MASS>
321.105105

> <PUBCHEM_MOLECULAR_FORMULA>
C18H21Cl2N

> <PUBCHEM_MOLECULAR_WEIGHT>
322.27204

> <PUBCHEM_OPENEYE_CAN_SMILES>
C[NH+](C)CCC=C(C1=CC=CC=C1)C2=CC(=CC=C2)Cl.[Cl-]

> <PUBCHEM_OPENEYE_ISO_SMILES>
C[NH+](C)CCC=C(C1=CC=CC=C1)C2=CC(=CC=C2)Cl.[Cl-]

> <PUBCHEM_CACTVS_TPSA>
4.4

> <PUBCHEM_MONOISOTOPIC_WEIGHT>
321.105105

> <PUBCHEM_TOTAL_CHARGE>
0

> <PUBCHEM_HEAVY_ATOM_COUNT>
21

> <PUBCHEM_ATOM_DEF_STEREO_COUNT>
0

> <PUBCHEM_ATOM_UDEF_STEREO_COUNT>
0

> <PUBCHEM_BOND_DEF_STEREO_COUNT>
0

> <PUBCHEM_BOND_UDEF_STEREO_COUNT>
1

> <PUBCHEM_ISOTOPIC_ATOM_COUNT>
0

> <PUBCHEM_COMPONENT_COUNT>
2

> <PUBCHEM_CACTVS_TAUTO_COUNT>
1

> <PUBCHEM_COORDINATE_TYPE>
1
5
255

> <PUBCHEM_BONDANNOTATIONS>
10  12  8
10  13  8
11  14  8
11  15  8
12  16  8
13  17  8
14  18  8
15  19  8
16  20  8
17  20  8
18  21  8
19  21  8
8  9  1

$$$$

