12861
  -OEChem-06261207282D

 21 22  0     0  0  0  0  0  0999 V2000
    6.3301    1.8100    0.0000 F   0  0  0  0  0  0  0  0  0  0  0  0
    8.0622   -1.1900    0.0000 F   0  0  0  0  0  0  0  0  0  0  0  0
    4.5981   -1.1900    0.0000 N   0  0  0  0  0  0  0  0  0  0  0  0
    6.3301   -1.1900    0.0000 N   0  0  0  0  0  0  0  0  0  0  0  0
    5.4641    0.3100    0.0000 N   0  0  0  0  0  0  0  0  0  0  0  0
    7.1962    0.3100    0.0000 N   0  0  0  0  0  0  0  0  0  0  0  0
    3.7320   -0.6900    0.0000 C   0  0  0  0  0  0  0  0  0  0  0  0
    3.7320    0.3100    0.0000 C   0  0  0  0  0  0  0  0  0  0  0  0
    2.8660   -1.1900    0.0000 C   0  0  0  0  0  0  0  0  0  0  0  0
    5.4641   -0.6900    0.0000 C   0  0  0  0  0  0  0  0  0  0  0  0
    2.8660    0.8100    0.0000 C   0  0  0  0  0  0  0  0  0  0  0  0
    2.0000   -0.6900    0.0000 C   0  0  0  0  0  0  0  0  0  0  0  0
    2.0000    0.3100    0.0000 C   0  0  0  0  0  0  0  0  0  0  0  0
    6.3301    0.8100    0.0000 C   0  0  0  0  0  0  0  0  0  0  0  0
    7.1962   -0.6900    0.0000 C   0  0  0  0  0  0  0  0  0  0  0  0
    4.5981   -1.8100    0.0000 H   0  0  0  0  0  0  0  0  0  0  0  0
    4.2690    0.6200    0.0000 H   0  0  0  0  0  0  0  0  0  0  0  0
    2.8660   -1.8100    0.0000 H   0  0  0  0  0  0  0  0  0  0  0  0
    2.8660    1.4300    0.0000 H   0  0  0  0  0  0  0  0  0  0  0  0
    1.4631   -1.0000    0.0000 H   0  0  0  0  0  0  0  0  0  0  0  0
    1.4631    0.6200    0.0000 H   0  0  0  0  0  0  0  0  0  0  0  0
  1 14  1  0  0  0  0
  2 15  1  0  0  0  0
  3  7  1  0  0  0  0
  3 10  1  0  0  0  0
  3 16  1  0  0  0  0
  4 10  2  0  0  0  0
  4 15  1  0  0  0  0
  5 10  1  0  0  0  0
  5 14  2  0  0  0  0
  6 14  1  0  0  0  0
  6 15  2  0  0  0  0
  7  8  2  0  0  0  0
  7  9  1  0  0  0  0
  8 11  1  0  0  0  0
  8 17  1  0  0  0  0
  9 12  2  0  0  0  0
  9 18  1  0  0  0  0
 11 13  2  0  0  0  0
 11 19  1  0  0  0  0
 12 13  1  0  0  0  0
 12 20  1  0  0  0  0
 13 21  1  0  0  0  0
M  END
> <PUBCHEM_COMPOUND_CID>
12861

> <PUBCHEM_COMPOUND_CANONICALIZED>
1

> <PUBCHEM_CACTVS_COMPLEXITY>
189

> <PUBCHEM_CACTVS_HBOND_ACCEPTOR>
6

> <PUBCHEM_CACTVS_HBOND_DONOR>
1

> <PUBCHEM_CACTVS_ROTATABLE_BOND>
2

> <PUBCHEM_CACTVS_SUBSKEYS>
AAADcYBzgYAAAAAAAAAAAAAAAAAAAAAAAAA8QAAAAAAAAAABwAAAHQAQAAAACAiBEAAx0IbIEACgACRCZACCAAkhAoAJiAAAZIiIKCLAmZGEIAhokAJIyCcQAAAAAAAAAAAAAAAAAAAAAAAAAAAAAAAAAA==

> <PUBCHEM_IUPAC_OPENEYE_NAME>
4,6-difluoro-N-phenyl-1,3,5-triazin-2-amine

> <PUBCHEM_IUPAC_CAS_NAME>
4,6-difluoro-N-phenyl-1,3,5-triazin-2-amine

> <PUBCHEM_IUPAC_NAME>
4,6-difluoro-N-phenyl-1,3,5-triazin-2-amine

> <PUBCHEM_IUPAC_SYSTEMATIC_NAME>
4,6-bis(fluoranyl)-N-phenyl-1,3,5-triazin-2-amine

> <PUBCHEM_IUPAC_TRADITIONAL_NAME>
(4,6-difluoro-s-triazin-2-yl)-phenyl-amine

> <PUBCHEM_IUPAC_INCHI>
InChI=1S/C9H6F2N4/c10-7-13-8(11)15-9(14-7)12-6-4-2-1-3-5-6/h1-5H,(H,12,13,14,15)

> <PUBCHEM_IUPAC_INCHIKEY>
BXWKHWCXQWEOBL-UHFFFAOYSA-N

> <PUBCHEM_XLOGP3_AA>
2.7

> <PUBCHEM_EXACT_MASS>
208.056053

> <PUBCHEM_MOLECULAR_FORMULA>
C9H6F2N4

> <PUBCHEM_MOLECULAR_WEIGHT>
208.167546

> <PUBCHEM_OPENEYE_CAN_SMILES>
C1=CC=C(C=C1)NC2=NC(=NC(=N2)F)F

> <PUBCHEM_OPENEYE_ISO_SMILES>
C1=CC=C(C=C1)NC2=NC(=NC(=N2)F)F

> <PUBCHEM_CACTVS_TPSA>
50.7

> <PUBCHEM_MONOISOTOPIC_WEIGHT>
208.056053

> <PUBCHEM_TOTAL_CHARGE>
0

> <PUBCHEM_HEAVY_ATOM_COUNT>
15

> <PUBCHEM_ATOM_DEF_STEREO_COUNT>
0

> <PUBCHEM_ATOM_UDEF_STEREO_COUNT>
0

> <PUBCHEM_BOND_DEF_STEREO_COUNT>
0

> <PUBCHEM_BOND_UDEF_STEREO_COUNT>
0

> <PUBCHEM_ISOTOPIC_ATOM_COUNT>
0

> <PUBCHEM_COMPONENT_COUNT>
1

> <PUBCHEM_CACTVS_TAUTO_COUNT>
3

> <PUBCHEM_COORDINATE_TYPE>
1
5
255

> <PUBCHEM_BONDANNOTATIONS>
11  13  8
12  13  8
4  10  8
4  15  8
5  10  8
5  14  8
6  14  8
6  15  8
7  8  8
7  9  8
8  11  8
9  12  8

$$$$

