119930
  -OEChem-07051213073D

 48 51  0     0  0  0  0  0  0999 V2000
    0.4221   -1.4276   -0.7685 C   0  0  0  0  0  0  0  0  0  0  0  0
    1.0366    1.0397   -0.8059 C   0  0  0  0  0  0  0  0  0  0  0  0
   -1.4074    0.3373   -0.8436 C   0  0  0  0  0  0  0  0  0  0  0  0
    1.4288   -0.3608   -0.2997 C   0  0  0  0  0  0  0  0  0  0  0  0
   -1.0104   -1.0620   -0.3375 C   0  0  0  0  0  0  0  0  0  0  0  0
   -0.3971    1.4010   -0.3754 C   0  0  0  0  0  0  0  0  0  0  0  0
    0.7980   -2.7654   -0.2163 C   0  0  0  0  0  0  0  0  0  0  0  0
    2.0001    2.0604   -0.2904 C   0  0  0  0  0  0  0  0  0  0  0  0
   -2.7793    0.6867   -0.3624 C   0  0  0  0  0  0  0  0  0  0  0  0
    1.6512   -3.5984   -0.9366 C   0  0  0  0  0  0  0  0  0  0  0  0
    1.7551    2.6937    0.9258 C   0  0  0  0  0  0  0  0  0  0  0  0
   -3.8906    0.3548   -1.1341 C   0  0  0  0  0  0  0  0  0  0  0  0
    0.2932   -3.1741    1.0160 C   0  0  0  0  0  0  0  0  0  0  0  0
    3.1389    2.3744   -1.0285 C   0  0  0  0  0  0  0  0  0  0  0  0
   -2.9411    1.3432    0.8554 C   0  0  0  0  0  0  0  0  0  0  0  0
    2.0015   -4.8466   -0.4218 C   0  0  0  0  0  0  0  0  0  0  0  0
    2.6536    3.6463    1.4066 C   0  0  0  0  0  0  0  0  0  0  0  0
   -5.1704    0.6811   -0.6855 C   0  0  0  0  0  0  0  0  0  0  0  0
    0.6435   -4.4223    1.5308 C   0  0  0  0  0  0  0  0  0  0  0  0
    4.0376    3.3267   -0.5478 C   0  0  0  0  0  0  0  0  0  0  0  0
   -4.2209    1.6694    1.3041 C   0  0  0  0  0  0  0  0  0  0  0  0
    1.4976   -5.2584    0.8120 C   0  0  0  0  0  0  0  0  0  0  0  0
    3.7949    3.9627    0.6697 C   0  0  0  0  0  0  0  0  0  0  0  0
   -5.3355    1.3384    0.5335 C   0  0  0  0  0  0  0  0  0  0  0  0
    0.4371   -1.4727   -1.8663 H   0  0  0  0  0  0  0  0  0  0  0  0
    1.0630    1.0414   -1.9045 H   0  0  0  0  0  0  0  0  0  0  0  0
   -1.4005    0.3338   -1.9424 H   0  0  0  0  0  0  0  0  0  0  0  0
    1.4909   -0.3599    0.7981 H   0  0  0  0  0  0  0  0  0  0  0  0
    2.4350   -0.6168   -0.6588 H   0  0  0  0  0  0  0  0  0  0  0  0
   -1.7208   -1.8130   -0.7092 H   0  0  0  0  0  0  0  0  0  0  0  0
   -1.1199   -1.0308    0.7516 H   0  0  0  0  0  0  0  0  0  0  0  0
   -0.4164    1.4122    0.7124 H   0  0  0  0  0  0  0  0  0  0  0  0
   -0.6777    2.3969   -0.7424 H   0  0  0  0  0  0  0  0  0  0  0  0
    2.0520   -3.2882   -1.8978 H   0  0  0  0  0  0  0  0  0  0  0  0
    0.9147    2.4734    1.5714 H   0  0  0  0  0  0  0  0  0  0  0  0
   -3.7753   -0.1592   -2.0845 H   0  0  0  0  0  0  0  0  0  0  0  0
   -0.3395   -2.5611    1.6451 H   0  0  0  0  0  0  0  0  0  0  0  0
    3.3402    1.8846   -1.9775 H   0  0  0  0  0  0  0  0  0  0  0  0
   -2.1301    1.5971    1.5257 H   0  0  0  0  0  0  0  0  0  0  0  0
    2.6675   -5.4973   -0.9810 H   0  0  0  0  0  0  0  0  0  0  0  0
    2.4704    4.1356    2.3588 H   0  0  0  0  0  0  0  0  0  0  0  0
   -6.0385    0.4224   -1.2848 H   0  0  0  0  0  0  0  0  0  0  0  0
    0.2594   -4.7402    2.4959 H   0  0  0  0  0  0  0  0  0  0  0  0
    4.9268    3.5724   -1.1209 H   0  0  0  0  0  0  0  0  0  0  0  0
   -4.3515    2.1732    2.2575 H   0  0  0  0  0  0  0  0  0  0  0  0
    1.7723   -6.2292    1.2140 H   0  0  0  0  0  0  0  0  0  0  0  0
    4.4958    4.7026    1.0451 H   0  0  0  0  0  0  0  0  0  0  0  0
   -6.3321    1.5904    0.8840 H   0  0  0  0  0  0  0  0  0  0  0  0
  1  4  1  0  0  0  0
  1  5  1  0  0  0  0
  1  7  1  0  0  0  0
  1 25  1  0  0  0  0
  2  4  1  0  0  0  0
  2  6  1  0  0  0  0
  2  8  1  0  0  0  0
  2 26  1  0  0  0  0
  3  5  1  0  0  0  0
  3  6  1  0  0  0  0
  3  9  1  0  0  0  0
  3 27  1  0  0  0  0
  4 28  1  0  0  0  0
  4 29  1  0  0  0  0
  5 30  1  0  0  0  0
  5 31  1  0  0  0  0
  6 32  1  0  0  0  0
  6 33  1  0  0  0  0
  7 10  2  0  0  0  0
  7 13  1  0  0  0  0
  8 11  2  0  0  0  0
  8 14  1  0  0  0  0
  9 12  2  0  0  0  0
  9 15  1  0  0  0  0
 10 16  1  0  0  0  0
 10 34  1  0  0  0  0
 11 17  1  0  0  0  0
 11 35  1  0  0  0  0
 12 18  1  0  0  0  0
 12 36  1  0  0  0  0
 13 19  2  0  0  0  0
 13 37  1  0  0  0  0
 14 20  2  0  0  0  0
 14 38  1  0  0  0  0
 15 21  2  0  0  0  0
 15 39  1  0  0  0  0
 16 22  2  0  0  0  0
 16 40  1  0  0  0  0
 17 23  2  0  0  0  0
 17 41  1  0  0  0  0
 18 24  2  0  0  0  0
 18 42  1  0  0  0  0
 19 22  1  0  0  0  0
 19 43  1  0  0  0  0
 20 23  1  0  0  0  0
 20 44  1  0  0  0  0
 21 24  1  0  0  0  0
 21 45  1  0  0  0  0
 22 46  1  0  0  0  0
 23 47  1  0  0  0  0
 24 48  1  0  0  0  0
M  END
> <PUBCHEM_COMPOUND_CID>
119930

> <PUBCHEM_CONFORMER_RMSD>
0.8

> <PUBCHEM_CONFORMER_DIVERSEORDER>
1
2

> <PUBCHEM_MMFF94_PARTIAL_CHARGES>
36
1 0.14
10 -0.15
11 -0.15
12 -0.15
13 -0.15
14 -0.15
15 -0.15
16 -0.15
17 -0.15
18 -0.15
19 -0.15
2 0.14
20 -0.15
21 -0.15
22 -0.15
23 -0.15
24 -0.15
3 0.14
34 0.15
35 0.15
36 0.15
37 0.15
38 0.15
39 0.15
40 0.15
41 0.15
42 0.15
43 0.15
44 0.15
45 0.15
46 0.15
47 0.15
48 0.15
7 -0.14
8 -0.14
9 -0.14

> <PUBCHEM_EFFECTIVE_ROTOR_COUNT>
4.2

> <PUBCHEM_PHARMACOPHORE_FEATURES>
4
6 1 2 3 4 5 6 rings
6 7 10 13 16 19 22 rings
6 8 11 14 17 20 23 rings
6 9 12 15 18 21 24 rings

> <PUBCHEM_HEAVY_ATOM_COUNT>
24

> <PUBCHEM_ATOM_DEF_STEREO_COUNT>
0

> <PUBCHEM_ATOM_UDEF_STEREO_COUNT>
0

> <PUBCHEM_BOND_DEF_STEREO_COUNT>
0

> <PUBCHEM_BOND_UDEF_STEREO_COUNT>
0

> <PUBCHEM_ISOTOPIC_ATOM_COUNT>
0

> <PUBCHEM_COMPONENT_COUNT>
1

> <PUBCHEM_CACTVS_TAUTO_COUNT>
1

> <PUBCHEM_CONFORMER_ID>
0001D47A00000001

> <PUBCHEM_MMFF94_ENERGY>
82.6191

> <PUBCHEM_FEATURE_SELFOVERLAP>
20.297

> <PUBCHEM_SHAPE_FINGERPRINT>
10074138 170 17760671177778012136
10411042 1 17761773266555067767
10794284 68 16748696481289545942
1100329 8 18409731764178118382
11056379 131 17403166003326473076
12160290 23 17690864266819600012
12549972 3 17535469219695076776
12553582 1 17763182845004997543
12643181 29 18339073767582198428
12788726 201 17546185012141491362
13004483 165 17044567943405165227
13140716 1 18411421678556976621
13533116 47 18339916130700648481
138480 1 18122343742170099500
13878862 14 18195256744394110765
13955234 65 18338792416335917769
14347424 109 14883676713690191938
14556957 393 11182402132075598555
14844126 61 17402344668002776818
14955137 171 18338518663679114034
15042514 8 17331679046626647526
15230672 131 18269827629039494388
15842332 3 17895488015735954781
15878777 1 8452936783245896127
15927050 60 18265331712481037526
17868525 174 17978789344202276969
17980427 26 18335430070622671101
1813 80 17757269649853251791
20101258 96 17473541833814884330
20505436 4 18040709239484613173
20587220 46 14957895281133732457
20600515 1 17177993116737388901
20739085 24 18272649047556597908
21033648 29 18118684318582068889
21049683 118 17974596631186506313
21120745 212 10028069890042178731
21304303 172 17180814476701945353
21344244 78 17973454492298123457
21796203 349 17761176171849143931
23366157 5 18340202011559567253
23558518 356 18049444747133433470
23559900 14 18194973070266452289
23845131 108 18340486643458462363
238918 7 17980454803580820667
249999 5 18411136965844889881
283562 15 18048040662638297615
3091708 16 9187624152182427807
3380486 145 17544802191670254990
345986 75 17121979592303848427
3759504 43 18195244403902730828
376196 1 17823137830523696636
394222 165 18259985985440381187
4058900 60 18338503188606472081
4409770 3 17692257335278314463
458136 41 18411973663765268917
474 4 18335423452410564745
6058803 2 18114748243844166549
6371380 46 18335979784394487068
6442390 28 18194673779158840169
6697151 62 17837230516792567053
6786 2 18339075969565454194
77188 2 17906173206340107318
79837 15 18122906430151647257
90316 7 17328022578080175539
9777508 108 17977378331121974328
9981440 41 18267027163473433361

> <PUBCHEM_SHAPE_MULTIPOLES>
493.91
7.94
7.8
1.31
11.28
10.27
0.26
-10.02
0.17
-11.63
2.65
0.04
0.05
-0.06

> <PUBCHEM_SHAPE_SELFOVERLAP>
1079.795

> <PUBCHEM_SHAPE_VOLUME>
249.9

> <PUBCHEM_COORDINATE_TYPE>
2
5
10

$$$$

