5281421
  -OEChem-07051212573D

 51 52  0     1  0  0  0  0  0999 V2000
   -1.9549    2.5596    0.2322 O   0  0  0  0  0  0  0  0  0  0  0  0
    2.3643    0.5989    0.1131 O   0  0  0  0  0  0  0  0  0  0  0  0
   -1.1149    4.6893    0.0374 O   0  0  0  0  0  0  0  0  0  0  0  0
    0.5601   -3.0243   -1.8964 O   0  0  0  0  0  0  0  0  0  0  0  0
   -5.1649   -0.3954   -0.9475 O   0  0  0  0  0  0  0  0  0  0  0  0
    3.2308   -0.9653   -1.3437 O   0  0  0  0  0  0  0  0  0  0  0  0
    0.0572    1.3109    0.3883 C   0  0  2  0  0  0  0  0  0  0  0  0
    1.0068    0.2064   -0.1625 C   0  0  2  0  0  0  0  0  0  0  0  0
   -1.4343    1.2389   -0.0030 C   0  0  1  0  0  0  0  0  0  0  0  0
    0.9096   -1.2155    0.4546 C   0  0  0  0  0  0  0  0  0  0  0  0
    0.2977    2.7248   -0.0817 C   0  0  0  0  0  0  0  0  0  0  0  0
   -2.2502    0.2832    0.8117 C   0  0  0  0  0  0  0  0  0  0  0  0
   -0.2986   -2.0515    0.1040 C   0  0  0  0  0  0  0  0  0  0  0  0
   -0.9681    3.4810    0.0561 C   0  0  0  0  0  0  0  0  0  0  0  0
   -3.1699   -0.5878    0.3443 C   0  0  0  0  0  0  0  0  0  0  0  0
   -3.5258   -1.7972    1.1953 C   0  0  0  0  0  0  0  0  0  0  0  0
   -2.5376   -2.9624    0.9344 C   0  0  0  0  0  0  0  0  0  0  0  0
   -1.1166   -2.4766    1.0909 C   0  0  0  0  0  0  0  0  0  0  0  0
    1.3583    3.3373   -0.6163 C   0  0  0  0  0  0  0  0  0  0  0  0
   -0.5222   -2.2863   -1.3637 C   0  0  0  0  0  0  0  0  0  0  0  0
   -3.7634   -0.5675   -1.0349 C   0  0  0  0  0  0  0  0  0  0  0  0
    3.3205   -0.2535   -0.3518 C   0  0  0  0  0  0  0  0  0  0  0  0
    4.5280   -0.1952    0.5673 C   0  0  0  0  0  0  0  0  0  0  0  0
    4.3717   -1.2165    1.6876 C   0  0  0  0  0  0  0  0  0  0  0  0
    5.8163   -0.4354   -0.2156 C   0  0  0  0  0  0  0  0  0  0  0  0
    0.1645    1.3376    1.4828 H   0  0  0  0  0  0  0  0  0  0  0  0
    0.8940    0.1677   -1.2529 H   0  0  0  0  0  0  0  0  0  0  0  0
   -1.5239    1.0319   -1.0758 H   0  0  0  0  0  0  0  0  0  0  0  0
    0.9775   -1.0898    1.5454 H   0  0  0  0  0  0  0  0  0  0  0  0
    1.7616   -1.8616    0.2269 H   0  0  0  0  0  0  0  0  0  0  0  0
   -1.9318    0.1850    1.8493 H   0  0  0  0  0  0  0  0  0  0  0  0
   -3.4993   -1.5295    2.2602 H   0  0  0  0  0  0  0  0  0  0  0  0
   -4.5516   -2.1270    0.9945 H   0  0  0  0  0  0  0  0  0  0  0  0
   -2.7238   -3.3983   -0.0509 H   0  0  0  0  0  0  0  0  0  0  0  0
   -2.7208   -3.7637    1.6598 H   0  0  0  0  0  0  0  0  0  0  0  0
   -0.8331   -2.2725    2.1231 H   0  0  0  0  0  0  0  0  0  0  0  0
    2.3021    2.8328   -0.7765 H   0  0  0  0  0  0  0  0  0  0  0  0
    1.3185    4.3784   -0.9219 H   0  0  0  0  0  0  0  0  0  0  0  0
   -0.6042   -1.3426   -1.9094 H   0  0  0  0  0  0  0  0  0  0  0  0
   -1.4317   -2.8491   -1.5803 H   0  0  0  0  0  0  0  0  0  0  0  0
   -3.5665   -1.5105   -1.5534 H   0  0  0  0  0  0  0  0  0  0  0  0
   -3.3757    0.2354   -1.6654 H   0  0  0  0  0  0  0  0  0  0  0  0
    4.5867    0.8132    0.9958 H   0  0  0  0  0  0  0  0  0  0  0  0
    5.2342   -1.1930    2.3616 H   0  0  0  0  0  0  0  0  0  0  0  0
    4.2753   -2.2329    1.2897 H   0  0  0  0  0  0  0  0  0  0  0  0
    3.4754   -1.0094    2.2819 H   0  0  0  0  0  0  0  0  0  0  0  0
    6.6919   -0.3281    0.4330 H   0  0  0  0  0  0  0  0  0  0  0  0
    5.9112    0.2838   -1.0364 H   0  0  0  0  0  0  0  0  0  0  0  0
    5.8385   -1.4398   -0.6528 H   0  0  0  0  0  0  0  0  0  0  0  0
    0.5955   -3.8784   -1.4324 H   0  0  0  0  0  0  0  0  0  0  0  0
   -5.3331    0.4606   -0.5175 H   0  0  0  0  0  0  0  0  0  0  0  0
  1  9  1  0  0  0  0
  1 14  1  0  0  0  0
  2  8  1  0  0  0  0
  2 22  1  0  0  0  0
  3 14  2  0  0  0  0
  4 20  1  0  0  0  0
  4 50  1  0  0  0  0
  5 21  1  0  0  0  0
  5 51  1  0  0  0  0
  6 22  2  0  0  0  0
  7  8  1  0  0  0  0
  7  9  1  0  0  0  0
  7 11  1  0  0  0  0
  7 26  1  0  0  0  0
  8 10  1  0  0  0  0
  8 27  1  0  0  0  0
  9 12  1  0  0  0  0
  9 28  1  0  0  0  0
 10 13  1  0  0  0  0
 10 29  1  0  0  0  0
 10 30  1  0  0  0  0
 11 14  1  0  0  0  0
 11 19  2  0  0  0  0
 12 15  2  0  0  0  0
 12 31  1  0  0  0  0
 13 18  2  0  0  0  0
 13 20  1  0  0  0  0
 15 16  1  0  0  0  0
 15 21  1  0  0  0  0
 16 17  1  0  0  0  0
 16 32  1  0  0  0  0
 16 33  1  0  0  0  0
 17 18  1  0  0  0  0
 17 34  1  0  0  0  0
 17 35  1  0  0  0  0
 18 36  1  0  0  0  0
 19 37  1  0  0  0  0
 19 38  1  0  0  0  0
 20 39  1  0  0  0  0
 20 40  1  0  0  0  0
 21 41  1  0  0  0  0
 21 42  1  0  0  0  0
 22 23  1  0  0  0  0
 23 24  1  0  0  0  0
 23 25  1  0  0  0  0
 23 43  1  0  0  0  0
 24 44  1  0  0  0  0
 24 45  1  0  0  0  0
 24 46  1  0  0  0  0
 25 47  1  0  0  0  0
 25 48  1  0  0  0  0
 25 49  1  0  0  0  0
M  END
> <PUBCHEM_COMPOUND_CID>
5281421

> <PUBCHEM_CONFORMER_RMSD>
0.8

> <PUBCHEM_CONFORMER_DIVERSEORDER>
1
18
24
27
11
7
12
30
29
8
6
13
23
26
19
14
20
4
32
25
31
15
28
34
16
2
33
21
17
10
9
3
22
5

> <PUBCHEM_MMFF94_PARTIAL_CHARGES>
29
1 -0.43
10 0.14
11 -0.12
12 -0.29
13 -0.28
14 0.71
15 -0.28
16 0.14
17 0.14
18 -0.29
19 -0.3
2 -0.43
20 0.42
21 0.42
22 0.66
23 0.06
3 -0.57
31 0.15
36 0.15
37 0.15
38 0.15
4 -0.68
5 -0.68
50 0.4
51 0.4
6 -0.57
7 0.14
8 0.28
9 0.42

> <PUBCHEM_EFFECTIVE_ROTOR_COUNT>
6

> <PUBCHEM_PHARMACOPHORE_FEATURES>
8
1 3 acceptor
1 4 acceptor
1 4 donor
1 5 acceptor
1 5 donor
1 6 acceptor
3 23 24 25 hydrophobe
5 1 7 9 11 14 rings

> <PUBCHEM_HEAVY_ATOM_COUNT>
25

> <PUBCHEM_ATOM_DEF_STEREO_COUNT>
3

> <PUBCHEM_ATOM_UDEF_STEREO_COUNT>
0

> <PUBCHEM_BOND_DEF_STEREO_COUNT>
2

> <PUBCHEM_BOND_UDEF_STEREO_COUNT>
0

> <PUBCHEM_ISOTOPIC_ATOM_COUNT>
0

> <PUBCHEM_COMPONENT_COUNT>
1

> <PUBCHEM_CACTVS_TAUTO_COUNT>
1

> <PUBCHEM_CONFORMER_ID>
0050968D00000001

> <PUBCHEM_MMFF94_ENERGY>
65.8718

> <PUBCHEM_FEATURE_SELFOVERLAP>
40.594

> <PUBCHEM_SHAPE_FINGERPRINT>
10411042 1 18268140955514560082
10675989 125 17047970382470394245
10906281 52 18338505443796046489
10930396 42 17976861685796352784
10967382 1 17978782415992156425
1100329 8 18341890741171043211
11578080 2 17273156604030085948
11680986 33 18122066407579071433
12011746 2 18411425011720903111
12553582 1 18339341024961046801
12633257 1 18196915713681060699
12788726 201 18342457067201023850
13140716 1 18267011778626259337
138480 1 15674921276477031280
14142880 1 18115577275057310409
15042514 8 18341329002688491138
15927050 60 17688310505341689533
16752209 62 18341051921241921114
16945 1 18342166769765374971
20600515 1 18116412783498191714
20642791 13 18262803007282688629
20905425 154 18192149523588983743
21033648 29 17676206853651934162
21285901 2 18113896095681693438
22113638 7 18262806137928420543
2334 1 17906445537516022003
23402539 116 18335989734915307286
23419403 2 15433460358210699866
23557571 272 18261950860217285476
23558518 356 17979354479918628567
23559900 14 18341055095228248544
238 59 17832450617523766679
2748010 2 18122337978709090603
283562 15 18337111279783561561
3084891 72 18341618126385498627
335352 9 18413387614565161295
34934 24 18267590091973207656
7226269 152 18343867714549027930
81228 2 18337096964836749648

> <PUBCHEM_SHAPE_MULTIPOLES>
479.27
8.13
4.6
1.27
6.74
4.94
-0.21
-4.17
0.38
-1.94
-0.11
0.05
-1.03
0.11

> <PUBCHEM_SHAPE_SELFOVERLAP>
985.561

> <PUBCHEM_SHAPE_VOLUME>
274.5

> <PUBCHEM_COORDINATE_TYPE>
2
5
10

$$$$

