246598
  -OEChem-07051213043D

 26 27  0     0  0  0  0  0  0999 V2000
   -1.5505    0.1131    2.5529 Cl  0  0  0  0  0  0  0  0  0  0  0  0
    5.2342    1.4053    0.0364 Cl  0  0  0  0  0  0  0  0  0  0  0  0
   -2.1346   -2.8331   -0.2059 Cl  0  0  0  0  0  0  0  0  0  0  0  0
    0.7567   -3.2733   -0.1095 Cl  0  0  0  0  0  0  0  0  0  0  0  0
   -0.3171   -0.7710   -0.1446 C   0  0  0  0  0  0  0  0  0  0  0  0
    1.0368   -0.2407   -0.1001 C   0  0  0  0  0  0  0  0  0  0  0  0
   -1.5008    0.1454   -0.1829 C   0  0  0  0  0  0  0  0  0  0  0  0
    1.6467    0.0129    1.1283 C   0  0  0  0  0  0  0  0  0  0  0  0
    1.7249    0.0142   -1.2864 C   0  0  0  0  0  0  0  0  0  0  0  0
   -2.0964    0.5759    0.9787 C   0  0  0  0  0  0  0  0  0  0  0  0
   -1.9436    0.5201   -1.4318 C   0  0  0  0  0  0  0  0  0  0  0  0
    2.9448    0.5218    1.1705 C   0  0  0  0  0  0  0  0  0  0  0  0
    3.0231    0.5229   -1.2442 C   0  0  0  0  0  0  0  0  0  0  0  0
   -3.1964    1.4289    0.8892 C   0  0  0  0  0  0  0  0  0  0  0  0
   -3.0437    1.3732   -1.5213 C   0  0  0  0  0  0  0  0  0  0  0  0
    3.6331    0.7766   -0.0157 C   0  0  0  0  0  0  0  0  0  0  0  0
   -3.6701    1.8274   -0.3608 C   0  0  0  0  0  0  0  0  0  0  0  0
   -0.5470   -2.1196   -0.1527 C   0  0  0  0  0  0  0  0  0  0  0  0
    1.1517   -0.2022    2.0686 H   0  0  0  0  0  0  0  0  0  0  0  0
    1.2652   -0.1793   -2.2527 H   0  0  0  0  0  0  0  0  0  0  0  0
   -1.4664    0.1727   -2.3437 H   0  0  0  0  0  0  0  0  0  0  0  0
    3.4102    0.7088    2.1349 H   0  0  0  0  0  0  0  0  0  0  0  0
    3.5473    0.7165   -2.1765 H   0  0  0  0  0  0  0  0  0  0  0  0
   -3.6965    1.7924    1.7835 H   0  0  0  0  0  0  0  0  0  0  0  0
   -3.4129    1.6832   -2.4945 H   0  0  0  0  0  0  0  0  0  0  0  0
   -4.5268    2.4914   -0.4306 H   0  0  0  0  0  0  0  0  0  0  0  0
  1 10  1  0  0  0  0
  2 16  1  0  0  0  0
  3 18  1  0  0  0  0
  4 18  1  0  0  0  0
  5  6  1  0  0  0  0
  5  7  1  0  0  0  0
  5 18  2  0  0  0  0
  6  8  2  0  0  0  0
  6  9  1  0  0  0  0
  7 10  1  0  0  0  0
  7 11  2  0  0  0  0
  8 12  1  0  0  0  0
  8 19  1  0  0  0  0
  9 13  2  0  0  0  0
  9 20  1  0  0  0  0
 10 14  2  0  0  0  0
 11 15  1  0  0  0  0
 11 21  1  0  0  0  0
 12 16  2  0  0  0  0
 12 22  1  0  0  0  0
 13 16  1  0  0  0  0
 13 23  1  0  0  0  0
 14 17  1  0  0  0  0
 14 24  1  0  0  0  0
 15 17  2  0  0  0  0
 15 25  1  0  0  0  0
 17 26  1  0  0  0  0
M  END
> <PUBCHEM_COMPOUND_CID>
246598

> <PUBCHEM_CONFORMER_RMSD>
0.6

> <PUBCHEM_CONFORMER_DIVERSEORDER>
1
2

> <PUBCHEM_MMFF94_PARTIAL_CHARGES>
26
1 -0.18
10 0.18
11 -0.15
12 -0.15
13 -0.15
14 -0.15
15 -0.15
16 0.18
17 -0.15
18 0.28
19 0.15
2 -0.18
20 0.15
21 0.15
22 0.15
23 0.15
24 0.15
25 0.15
26 0.15
3 -0.14
4 -0.14
5 -0.06
6 0.03
7 0.03
8 -0.15
9 -0.15

> <PUBCHEM_EFFECTIVE_ROTOR_COUNT>
2

> <PUBCHEM_PHARMACOPHORE_FEATURES>
2
6 6 8 9 12 13 16 rings
6 7 10 11 14 15 17 rings

> <PUBCHEM_HEAVY_ATOM_COUNT>
18

> <PUBCHEM_ATOM_DEF_STEREO_COUNT>
0

> <PUBCHEM_ATOM_UDEF_STEREO_COUNT>
0

> <PUBCHEM_BOND_DEF_STEREO_COUNT>
0

> <PUBCHEM_BOND_UDEF_STEREO_COUNT>
0

> <PUBCHEM_ISOTOPIC_ATOM_COUNT>
0

> <PUBCHEM_COMPONENT_COUNT>
1

> <PUBCHEM_CACTVS_TAUTO_COUNT>
1

> <PUBCHEM_CONFORMER_ID>
0003C34600000001

> <PUBCHEM_MMFF94_ENERGY>
58.0635

> <PUBCHEM_FEATURE_SELFOVERLAP>
10.149

> <PUBCHEM_SHAPE_FINGERPRINT>
10165383 225 17977622628761388021
11582403 64 16914290457384054781
11725454 13 16986624028803871789
12173636 292 18334565867616033965
12251169 10 15697994145754881080
12500047 106 18337114471608647174
12707595 3 8141790677800798292
13134695 92 17478899745260638159
13140716 1 18340768247047367138
13296908 3 9295282811846747388
13583140 156 17060345101797690413
13675066 3 17632294571531475340
13681431 1 17545034270006801351
13764800 53 18261385629198211387
14614273 12 18411132498747060311
14787075 74 17822295618234191601
14817 1 16824816410078546987
15309172 13 18341890818169367317
15775835 57 18272093798616116272
15852999 172 18260270754546472214
16752209 62 18194982758853374662
16945 1 18041296416994732911
17357779 13 17753627749683308943
1741750 31 18410295796188718828
18186145 218 18260818341454376292
18219364 16 18409157797042940809
18981168 100 18338219557376258983
19765921 60 17968386757205974651
200 152 16271089189875865995
204376 136 18411983576259358180
20510252 161 18118405046791049282
20600515 1 17261068448508544763
20645477 56 18338227168548807452
21524375 3 18201721764493315143
21756936 100 17458608043262840672
22079108 93 18114168749370551833
22907989 373 18118405033900580852
23402539 116 18119253856904143214
23402655 69 16298660693820290272
23419403 2 4888313794428378699
23557571 272 18117270368466789428
23559900 14 18186795899464694334
25 1 17894905273913810912
27216 239 18130784529839087433
283562 15 18194126217794321675
3082319 5 15574715828259371700
4028521 119 17530965821102922233
4340502 62 18189599683905896827
469060 322 18269547235714092419
474 4 18187083970456558776
495365 180 17981332497469532173
5845 1 16531441861043542951
633830 44 17968647349677515940
7097593 13 15913329108798700968
7970288 3 9295280660164266396
81228 2 18049996701728418563
84936 182 17972043801293888593

> <PUBCHEM_SHAPE_MULTIPOLES>
377.91
7.14
2.63
1.68
6.73
2.97
-0.63
-5.55
0.46
-1.44
0.33
-0.75
-0.49
0.2

> <PUBCHEM_SHAPE_SELFOVERLAP>
778.866

> <PUBCHEM_SHAPE_VOLUME>
208.6

> <PUBCHEM_COORDINATE_TYPE>
2
5
10

$$$$

