10974
  -OEChem-06261205113D

 17 16  0     0  0  0  0  0  0999 V2000
    0.5879   -0.4532   -0.2757 O   0  0  0  0  0  0  0  0  0  0  0  0
    1.9026    1.1815    0.4324 O   0  5  0  0  0  0  0  0  0  0  0  0
    2.8427   -0.7371   -0.2056 O   0  0  0  0  0  0  0  0  0  0  0  0
    1.8976    0.0268    0.0042 N   0  3  0  0  0  0  0  0  0  0  0  0
   -1.8044   -0.1046   -0.3330 C   0  0  0  0  0  0  0  0  0  0  0  0
   -0.4349    0.4959   -0.0037 C   0  0  0  0  0  0  0  0  0  0  0  0
   -2.0874   -1.3457    0.5161 C   0  0  0  0  0  0  0  0  0  0  0  0
   -2.9041    0.9363   -0.1346 C   0  0  0  0  0  0  0  0  0  0  0  0
   -1.8033   -0.4201   -1.3841 H   0  0  0  0  0  0  0  0  0  0  0  0
   -0.2858    1.3882   -0.6257 H   0  0  0  0  0  0  0  0  0  0  0  0
   -0.4135    0.7826    1.0561 H   0  0  0  0  0  0  0  0  0  0  0  0
   -3.0698   -1.7650    0.2736 H   0  0  0  0  0  0  0  0  0  0  0  0
   -2.0769   -1.1061    1.5849 H   0  0  0  0  0  0  0  0  0  0  0  0
   -1.3420   -2.1271    0.3363 H   0  0  0  0  0  0  0  0  0  0  0  0
   -3.8834    0.5225   -0.3978 H   0  0  0  0  0  0  0  0  0  0  0  0
   -2.7308    1.8116   -0.7695 H   0  0  0  0  0  0  0  0  0  0  0  0
   -2.9486    1.2755    0.9060 H   0  0  0  0  0  0  0  0  0  0  0  0
  1  4  1  0  0  0  0
  1  6  1  0  0  0  0
  2  4  1  0  0  0  0
  3  4  2  0  0  0  0
  5  6  1  0  0  0  0
  5  7  1  0  0  0  0
  5  8  1  0  0  0  0
  5  9  1  0  0  0  0
  6 10  1  0  0  0  0
  6 11  1  0  0  0  0
  7 12  1  0  0  0  0
  7 13  1  0  0  0  0
  7 14  1  0  0  0  0
  8 15  1  0  0  0  0
  8 16  1  0  0  0  0
  8 17  1  0  0  0  0
M  CHG  2   2  -1   4   1
M  END
> <PUBCHEM_COMPOUND_CID>
10974

> <PUBCHEM_CONFORMER_RMSD>
0.6

> <PUBCHEM_CONFORMER_DIVERSEORDER>
1
3
2
4

> <PUBCHEM_MMFF94_PARTIAL_CHARGES>
5
1 -0.27
2 -0.52
3 -0.52
4 1.03
6 0.28

> <PUBCHEM_EFFECTIVE_ROTOR_COUNT>
3

> <PUBCHEM_PHARMACOPHORE_FEATURES>
3
1 2 acceptor
1 3 acceptor
3 5 7 8 hydrophobe

> <PUBCHEM_HEAVY_ATOM_COUNT>
8

> <PUBCHEM_ATOM_DEF_STEREO_COUNT>
0

> <PUBCHEM_ATOM_UDEF_STEREO_COUNT>
0

> <PUBCHEM_BOND_DEF_STEREO_COUNT>
0

> <PUBCHEM_BOND_UDEF_STEREO_COUNT>
0

> <PUBCHEM_ISOTOPIC_ATOM_COUNT>
0

> <PUBCHEM_COMPONENT_COUNT>
1

> <PUBCHEM_CACTVS_TAUTO_COUNT>
1

> <PUBCHEM_CONFORMER_ID>
00002ADE00000001

> <PUBCHEM_MMFF94_ENERGY>
13.8033

> <PUBCHEM_FEATURE_SELFOVERLAP>
15.293

> <PUBCHEM_SHAPE_FINGERPRINT>
10857977 72 18197787604551899689
12932741 1 18409730642584758877
12932764 1 17822570495365714324
14325111 11 18410576171289811325
14390081 3 18335145284452936673
19973954 147 18339079293980988569
23552423 10 18131349670109382399
29004967 10 18187079533717912098
3248919 1 18271253724340038724
5460574 1 9511461130189206501

> <PUBCHEM_SHAPE_MULTIPOLES>
142.05
4.48
1.22
0.65
1.21
0.12
-0.02
-0.08
0.02
-0.45
-0.16
-0.1
0.02
0.38

> <PUBCHEM_SHAPE_SELFOVERLAP>
256.105

> <PUBCHEM_SHAPE_VOLUME>
92.9

> <PUBCHEM_COORDINATE_TYPE>
2
5
10

$$$$

