5459319
  -OEChem-07051213013D

 73 75  0     1  0  0  0  0  0999 V2000
   -3.4754   -0.2655   -0.1665 O   0  0  0  0  0  0  0  0  0  0  0  0
   -4.8894    0.8002   -1.6525 O   0  0  0  0  0  0  0  0  0  0  0  0
   -1.1986    0.8429   -1.2896 O   0  0  0  0  0  0  0  0  0  0  0  0
    1.9717    2.9449    1.0385 O   0  0  0  0  0  0  0  0  0  0  0  0
    0.3544   -2.3822   -0.2323 O   0  0  0  0  0  0  0  0  0  0  0  0
    6.7062   -0.2078   -0.8898 O   0  0  0  0  0  0  0  0  0  0  0  0
    5.3195    2.2019    0.5759 O   0  0  0  0  0  0  0  0  0  0  0  0
   -2.2423    2.3789    0.1051 N   0  0  0  0  0  0  0  0  0  0  0  0
    1.2013    2.3380   -0.9956 N   0  0  0  0  0  0  0  0  0  0  0  0
    1.0432   -1.3955    1.7537 N   0  0  0  0  0  0  0  0  0  0  0  0
   -3.8867   -1.5845   -0.6041 C   0  0  2  0  0  0  0  0  0  0  0  0
   -5.1793   -1.9624    0.1182 C   0  0  0  0  0  0  0  0  0  0  0  0
   -2.6901   -2.5417   -0.3712 C   0  0  2  0  0  0  0  0  0  0  0  0
   -5.6390   -3.3567   -0.3005 C   0  0  0  0  0  0  0  0  0  0  0  0
   -6.2694   -0.9305   -0.1594 C   0  0  0  0  0  0  0  0  0  0  0  0
   -2.9599   -3.9412   -0.9272 C   0  0  0  0  0  0  0  0  0  0  0  0
   -2.2950   -2.6420    1.0861 C   0  0  0  0  0  0  0  0  0  0  0  0
   -3.5614    2.0331   -0.1197 C   0  0  0  0  0  0  0  0  0  0  0  0
   -2.2337    3.6301    0.8968 C   0  0  0  0  0  0  0  0  0  0  0  0
   -3.6891    4.0962    0.9544 C   0  0  0  0  0  0  0  0  0  0  0  0
   -4.0486    0.8092   -0.7662 C   0  0  0  0  0  0  0  0  0  0  0  0
   -4.4198    2.9489    0.3408 C   0  0  0  0  0  0  0  0  0  0  0  0
   -1.1047   -2.4080    1.6576 C   0  0  0  0  0  0  0  0  0  0  0  0
   -1.1284    1.7429   -0.4541 C   0  0  0  0  0  0  0  0  0  0  0  0
    0.1857    2.2267   -0.0697 C   0  0  0  0  0  0  0  0  0  0  0  0
    0.1501   -2.0671    0.9343 C   0  0  0  0  0  0  0  0  0  0  0  0
    2.2222    2.7871   -0.2958 C   0  0  0  0  0  0  0  0  0  0  0  0
    0.6707    2.5668    1.1729 C   0  0  0  0  0  0  0  0  0  0  0  0
    3.5789    3.1378   -0.7641 C   0  0  0  0  0  0  0  0  0  0  0  0
    4.5223    0.7713   -1.2071 C   0  0  0  0  0  0  0  0  0  0  0  0
    5.3231   -0.3702   -0.5707 C   0  0  1  0  0  0  0  0  0  0  0  0
    4.5468    2.0446   -0.3696 C   0  0  0  0  0  0  0  0  0  0  0  0
    2.3685   -1.0026    1.3113 C   0  0  0  0  0  0  0  0  0  0  0  0
    4.8583   -1.7004   -1.1009 C   0  0  0  0  0  0  0  0  0  0  0  0
    4.3611   -2.7363   -0.3969 C   0  0  0  0  0  0  0  0  0  0  0  0
    3.3533   -2.0249    1.7874 C   0  0  0  0  0  0  0  0  0  0  0  0
    4.1973   -2.7593    1.0455 C   0  0  0  0  0  0  0  0  0  0  0  0
    3.9763   -4.0230   -1.0752 C   0  0  0  0  0  0  0  0  0  0  0  0
   -4.0651   -1.5467   -1.6884 H   0  0  0  0  0  0  0  0  0  0  0  0
   -5.0311   -1.9518    1.2046 H   0  0  0  0  0  0  0  0  0  0  0  0
   -1.8645   -2.1101   -0.9466 H   0  0  0  0  0  0  0  0  0  0  0  0
   -5.5479   -3.5381   -1.3741 H   0  0  0  0  0  0  0  0  0  0  0  0
   -6.7087   -3.4707   -0.0786 H   0  0  0  0  0  0  0  0  0  0  0  0
   -5.1749   -4.1418    0.2952 H   0  0  0  0  0  0  0  0  0  0  0  0
   -6.4774   -0.8212   -1.2276 H   0  0  0  0  0  0  0  0  0  0  0  0
   -7.2121   -1.2767    0.2856 H   0  0  0  0  0  0  0  0  0  0  0  0
   -6.0881    0.0300    0.3271 H   0  0  0  0  0  0  0  0  0  0  0  0
   -3.3825   -4.6482   -0.2117 H   0  0  0  0  0  0  0  0  0  0  0  0
   -3.5217   -3.9271   -1.8647 H   0  0  0  0  0  0  0  0  0  0  0  0
   -1.9898   -4.3888   -1.1879 H   0  0  0  0  0  0  0  0  0  0  0  0
   -3.0915   -2.9337    1.7694 H   0  0  0  0  0  0  0  0  0  0  0  0
   -1.5794    4.3729    0.4289 H   0  0  0  0  0  0  0  0  0  0  0  0
   -1.8661    3.4046    1.9030 H   0  0  0  0  0  0  0  0  0  0  0  0
   -3.8398    5.0086    0.3688 H   0  0  0  0  0  0  0  0  0  0  0  0
   -4.0092    4.2804    1.9841 H   0  0  0  0  0  0  0  0  0  0  0  0
   -5.4970    2.8899    0.2772 H   0  0  0  0  0  0  0  0  0  0  0  0
   -1.0280   -2.5010    2.7385 H   0  0  0  0  0  0  0  0  0  0  0  0
    0.2736    2.5915    2.1764 H   0  0  0  0  0  0  0  0  0  0  0  0
    3.9085    4.0834   -0.3206 H   0  0  0  0  0  0  0  0  0  0  0  0
    3.6053    3.2621   -1.8513 H   0  0  0  0  0  0  0  0  0  0  0  0
    3.4734    0.4787   -1.3232 H   0  0  0  0  0  0  0  0  0  0  0  0
    4.9261    1.0261   -2.1941 H   0  0  0  0  0  0  0  0  0  0  0  0
    0.7870   -1.1806    2.7134 H   0  0  0  0  0  0  0  0  0  0  0  0
    5.2469   -0.3254    0.5194 H   0  0  0  0  0  0  0  0  0  0  0  0
    2.5936   -0.0325    1.7640 H   0  0  0  0  0  0  0  0  0  0  0  0
    2.3602   -0.8895    0.2254 H   0  0  0  0  0  0  0  0  0  0  0  0
    4.9542   -1.8174   -2.1801 H   0  0  0  0  0  0  0  0  0  0  0  0
    3.3749   -2.1911    2.8640 H   0  0  0  0  0  0  0  0  0  0  0  0
    4.8142   -3.4945    1.5596 H   0  0  0  0  0  0  0  0  0  0  0  0
    4.5755   -4.8568   -0.6932 H   0  0  0  0  0  0  0  0  0  0  0  0
    4.1272   -3.9797   -2.1594 H   0  0  0  0  0  0  0  0  0  0  0  0
    2.9180   -4.2468   -0.9006 H   0  0  0  0  0  0  0  0  0  0  0  0
    7.1942   -0.9322   -0.4616 H   0  0  0  0  0  0  0  0  0  0  0  0
  1 11  1  0  0  0  0
  1 21  1  0  0  0  0
  2 21  2  0  0  0  0
  3 24  2  0  0  0  0
  4 27  1  0  0  0  0
  4 28  1  0  0  0  0
  5 26  2  0  0  0  0
  6 31  1  0  0  0  0
  6 73  1  0  0  0  0
  7 32  2  0  0  0  0
  8 18  1  0  0  0  0
  8 19  1  0  0  0  0
  8 24  1  0  0  0  0
  9 25  1  0  0  0  0
  9 27  2  0  0  0  0
 10 26  1  0  0  0  0
 10 33  1  0  0  0  0
 10 63  1  0  0  0  0
 11 12  1  0  0  0  0
 11 13  1  0  0  0  0
 11 39  1  0  0  0  0
 12 14  1  0  0  0  0
 12 15  1  0  0  0  0
 12 40  1  0  0  0  0
 13 16  1  0  0  0  0
 13 17  1  0  0  0  0
 13 41  1  0  0  0  0
 14 42  1  0  0  0  0
 14 43  1  0  0  0  0
 14 44  1  0  0  0  0
 15 45  1  0  0  0  0
 15 46  1  0  0  0  0
 15 47  1  0  0  0  0
 16 48  1  0  0  0  0
 16 49  1  0  0  0  0
 16 50  1  0  0  0  0
 17 23  2  0  0  0  0
 17 51  1  0  0  0  0
 18 21  1  0  0  0  0
 18 22  2  0  0  0  0
 19 20  1  0  0  0  0
 19 52  1  0  0  0  0
 19 53  1  0  0  0  0
 20 22  1  0  0  0  0
 20 54  1  0  0  0  0
 20 55  1  0  0  0  0
 22 56  1  0  0  0  0
 23 26  1  0  0  0  0
 23 57  1  0  0  0  0
 24 25  1  0  0  0  0
 25 28  2  0  0  0  0
 27 29  1  0  0  0  0
 28 58  1  0  0  0  0
 29 32  1  0  0  0  0
 29 59  1  0  0  0  0
 29 60  1  0  0  0  0
 30 31  1  0  0  0  0
 30 32  1  0  0  0  0
 30 61  1  0  0  0  0
 30 62  1  0  0  0  0
 31 34  1  0  0  0  0
 31 64  1  0  0  0  0
 33 36  1  0  0  0  0
 33 65  1  0  0  0  0
 33 66  1  0  0  0  0
 34 35  2  0  0  0  0
 34 67  1  0  0  0  0
 35 37  1  0  0  0  0
 35 38  1  0  0  0  0
 36 37  2  0  0  0  0
 36 68  1  0  0  0  0
 37 69  1  0  0  0  0
 38 70  1  0  0  0  0
 38 71  1  0  0  0  0
 38 72  1  0  0  0  0
M  END
> <PUBCHEM_COMPOUND_CID>
5459319

> <PUBCHEM_CONFORMER_RMSD>
0.8

> <PUBCHEM_CONFORMER_DIVERSEORDER>
1

> <PUBCHEM_MMFF94_PARTIAL_CHARGES>
43
1 -0.43
10 -0.73
11 0.28
13 0.14
17 -0.29
18 0.12
19 0.3
2 -0.57
20 0.14
21 0.71
22 -0.29
23 -0.14
24 0.72
25 0.14
26 0.62
27 0.3
28 -0.01
29 0.24
3 -0.57
30 0.06
31 0.42
32 0.45
33 0.44
34 -0.29
35 -0.14
36 -0.29
37 -0.15
38 0.14
4 -0.28
5 -0.57
51 0.15
56 0.15
57 0.15
58 0.15
6 -0.68
63 0.37
67 0.15
68 0.15
69 0.15
7 -0.57
73 0.4
8 -0.47
9 -0.57

> <PUBCHEM_EFFECTIVE_ROTOR_COUNT>
3

> <PUBCHEM_PHARMACOPHORE_FEATURES>
10
1 10 donor
1 2 acceptor
1 3 acceptor
1 5 acceptor
1 6 acceptor
1 6 donor
1 7 acceptor
3 12 14 15 hydrophobe
5 4 9 25 27 28 rings
5 8 18 19 20 22 rings

> <PUBCHEM_HEAVY_ATOM_COUNT>
38

> <PUBCHEM_ATOM_DEF_STEREO_COUNT>
3

> <PUBCHEM_ATOM_UDEF_STEREO_COUNT>
0

> <PUBCHEM_BOND_DEF_STEREO_COUNT>
3

> <PUBCHEM_BOND_UDEF_STEREO_COUNT>
0

> <PUBCHEM_ISOTOPIC_ATOM_COUNT>
0

> <PUBCHEM_COMPONENT_COUNT>
1

> <PUBCHEM_CACTVS_TAUTO_COUNT>
10

> <PUBCHEM_CONFORMER_ID>
00534D7700000001

> <PUBCHEM_MMFF94_ENERGY>
96.3882

> <PUBCHEM_FEATURE_SELFOVERLAP>
50.744

> <PUBCHEM_SHAPE_FINGERPRINT>
10675989 125 18051969217336369680
10864689 126 17691400137209993708
1100329 8 18195244640252240241
11186622 123 18340773654384091354
11227688 84 18117855304732255151
11285246 1 16528326919096208822
11513181 2 18334859398487226526
12107698 1 18410576176075934927
12788726 201 18338238167991857361
14117953 113 17475804619959662716
14681490 219 18266741277175139819
14790565 3 17905885134494609641
14840074 17 17629465664966540717
15001296 14 18342180002649667848
15160629 131 18188482463812169591
15250474 111 18411135840347628972
15297060 5 17897729996658439026
15320467 1 18337106770120901718
15351339 4 18342465811189871257
15448158 6 18048885092158847975
15968369 153 18190188900987769746
16067689 134 17906167709178679357
16067689 302 18052250701526000827
16112460 7 18337379543989418385
17909252 39 18334858264594079338
19311894 1 18193274319862882303
21792965 270 17614260588034271683
354706 132 17489866055398466190
354706 35 16973650538392825676
4073 2 18408319969816058584
444735 86 18267033764479704766
463206 1 18270110340323317788

> <PUBCHEM_SHAPE_MULTIPOLES>
725.99
13.98
6.32
1.42
2.96
0.58
0.31
-4.29
-3.67
-1.84
0.5
0.62
-0.44
-1.02

> <PUBCHEM_SHAPE_SELFOVERLAP>
1517.027

> <PUBCHEM_SHAPE_VOLUME>
408.4

> <PUBCHEM_COORDINATE_TYPE>
2
5
10

$$$$

