17395747
  -OEChem-06241222522D

 36 37  0     0  0  0  0  0  0999 V2000
    6.9535    3.4630    0.0000 S   0  0  0  0  0  0  0  0  0  0  0  0
    6.5856   -0.0379    0.0000 O   0  0  0  0  0  0  0  0  0  0  0  0
    2.8660   -2.1530    0.0000 O   0  0  0  0  0  0  0  0  0  0  0  0
    4.5981   -3.1530    0.0000 O   0  0  0  0  0  0  0  0  0  0  0  0
    7.0468    1.6834    0.0000 N   0  0  0  0  0  0  0  0  0  0  0  0
    5.5686    2.3415    0.0000 N   0  0  0  0  0  0  0  0  0  0  0  0
    8.0413    1.5789    0.0000 C   0  0  0  0  0  0  0  0  0  0  0  0
    8.6291    2.3879    0.0000 C   0  0  0  0  0  0  0  0  0  0  0  0
    5.4641    1.3470    0.0000 C   0  0  0  0  0  0  0  0  0  0  0  0
    6.3776    0.9403    0.0000 C   0  0  0  0  0  0  0  0  0  0  0  0
    6.5468    2.5494    0.0000 C   0  0  0  0  0  0  0  0  0  0  0  0
    4.5981    0.8470    0.0000 C   0  0  0  0  0  0  0  0  0  0  0  0
    9.6236    2.2834    0.0000 C   0  0  0  0  0  0  0  0  0  0  0  0
    4.5981   -0.1530    0.0000 C   0  0  0  0  0  0  0  0  0  0  0  0
    3.7320   -0.6530    0.0000 C   0  0  0  0  0  0  0  0  0  0  0  0
    5.4641   -0.6530    0.0000 C   0  0  0  0  0  0  0  0  0  0  0  0
    3.7320   -1.6530    0.0000 C   0  0  0  0  0  0  0  0  0  0  0  0
    5.4641   -1.6530    0.0000 C   0  0  0  0  0  0  0  0  0  0  0  0
    4.5981   -2.1530    0.0000 C   0  0  0  0  0  0  0  0  0  0  0  0
    2.0000   -1.6530    0.0000 C   0  0  0  0  0  0  0  0  0  0  0  0
    7.8704    0.9829    0.0000 H   0  0  0  0  0  0  0  0  0  0  0  0
    8.5986    1.3071    0.0000 H   0  0  0  0  0  0  0  0  0  0  0  0
    8.8000    2.9839    0.0000 H   0  0  0  0  0  0  0  0  0  0  0  0
    8.0718    2.6597    0.0000 H   0  0  0  0  0  0  0  0  0  0  0  0
    5.1079    2.7564    0.0000 H   0  0  0  0  0  0  0  0  0  0  0  0
    4.0611    1.1570    0.0000 H   0  0  0  0  0  0  0  0  0  0  0  0
    9.5588    1.6668    0.0000 H   0  0  0  0  0  0  0  0  0  0  0  0
   10.2402    2.2186    0.0000 H   0  0  0  0  0  0  0  0  0  0  0  0
    9.6884    2.9000    0.0000 H   0  0  0  0  0  0  0  0  0  0  0  0
    3.1951   -0.3430    0.0000 H   0  0  0  0  0  0  0  0  0  0  0  0
    6.0010   -0.3430    0.0000 H   0  0  0  0  0  0  0  0  0  0  0  0
    6.0010   -1.9630    0.0000 H   0  0  0  0  0  0  0  0  0  0  0  0
    5.1350   -3.4630    0.0000 H   0  0  0  0  0  0  0  0  0  0  0  0
    2.3100   -1.1160    0.0000 H   0  0  0  0  0  0  0  0  0  0  0  0
    1.4631   -1.3430    0.0000 H   0  0  0  0  0  0  0  0  0  0  0  0
    1.6900   -2.1899    0.0000 H   0  0  0  0  0  0  0  0  0  0  0  0
  1 11  2  0  0  0  0
  2 10  2  0  0  0  0
  3 17  1  0  0  0  0
  3 20  1  0  0  0  0
  4 19  1  0  0  0  0
  4 33  1  0  0  0  0
  5  7  1  0  0  0  0
  5 10  1  0  0  0  0
  5 11  1  0  0  0  0
  6  9  1  0  0  0  0
  6 11  1  0  0  0  0
  6 25  1  0  0  0  0
  7  8  1  0  0  0  0
  7 21  1  0  0  0  0
  7 22  1  0  0  0  0
  8 13  1  0  0  0  0
  8 23  1  0  0  0  0
  8 24  1  0  0  0  0
  9 10  1  0  0  0  0
  9 12  2  0  0  0  0
 12 14  1  0  0  0  0
 12 26  1  0  0  0  0
 13 27  1  0  0  0  0
 13 28  1  0  0  0  0
 13 29  1  0  0  0  0
 14 15  2  0  0  0  0
 14 16  1  0  0  0  0
 15 17  1  0  0  0  0
 15 30  1  0  0  0  0
 16 18  2  0  0  0  0
 16 31  1  0  0  0  0
 17 19  2  0  0  0  0
 18 19  1  0  0  0  0
 18 32  1  0  0  0  0
 20 34  1  0  0  0  0
 20 35  1  0  0  0  0
 20 36  1  0  0  0  0
M  END
> <PUBCHEM_COMPOUND_CID>
17395747

> <PUBCHEM_COMPOUND_CANONICALIZED>
1

> <PUBCHEM_CACTVS_COMPLEXITY>
425

> <PUBCHEM_CACTVS_HBOND_ACCEPTOR>
4

> <PUBCHEM_CACTVS_HBOND_DONOR>
2

> <PUBCHEM_CACTVS_ROTATABLE_BOND>
4

> <PUBCHEM_CACTVS_SUBSKEYS>
AAADceBzMABAAAAAAAAAAAAAAAAAAWAAAAAwAAAAAAAAAAABAAAAHgQQCAAADAzBmAYzBoPABgCMAiVSUACCCAAgIgkIiACOiMiNZiKGMTqUcCMsxxOLuYeAwBAOIAABAAAAQABAAAIAAACAAAAAAAAAAA==

> <PUBCHEM_IUPAC_OPENEYE_NAME>
(5E)-5-[(4-hydroxy-3-methoxy-phenyl)methylene]-3-propyl-2-thioxo-imidazolidin-4-one

> <PUBCHEM_IUPAC_CAS_NAME>
(5E)-5-[(4-hydroxy-3-methoxyphenyl)methylidene]-3-propyl-2-sulfanylidene-4-imidazolidinone

> <PUBCHEM_IUPAC_NAME>
(5E)-5-[(4-hydroxy-3-methoxyphenyl)methylidene]-3-propyl-2-sulfanylideneimidazolidin-4-one

> <PUBCHEM_IUPAC_SYSTEMATIC_NAME>
(5E)-5-[(3-methoxy-4-oxidanyl-phenyl)methylidene]-3-propyl-2-sulfanylidene-imidazolidin-4-one

> <PUBCHEM_IUPAC_TRADITIONAL_NAME>
(5E)-3-propyl-2-thioxo-5-vanillylidene-4-imidazolidinone

> <PUBCHEM_IUPAC_INCHI>
InChI=1S/C14H16N2O3S/c1-3-6-16-13(18)10(15-14(16)20)7-9-4-5-11(17)12(8-9)19-2/h4-5,7-8,17H,3,6H2,1-2H3,(H,15,20)/b10-7+

> <PUBCHEM_IUPAC_INCHIKEY>
AKKSIRGBPUBXDK-JXMROGBWSA-N

> <PUBCHEM_XLOGP3_AA>
2.4

> <PUBCHEM_EXACT_MASS>
292.088163

> <PUBCHEM_MOLECULAR_FORMULA>
C14H16N2O3S

> <PUBCHEM_MOLECULAR_WEIGHT>
292.35344

> <PUBCHEM_OPENEYE_CAN_SMILES>
CCCN1C(=O)C(=CC2=CC(=C(C=C2)O)OC)NC1=S

> <PUBCHEM_OPENEYE_ISO_SMILES>
CCCN1C(=O)/C(=C\C2=CC(=C(C=C2)O)OC)/NC1=S

> <PUBCHEM_CACTVS_TPSA>
93.9

> <PUBCHEM_MONOISOTOPIC_WEIGHT>
292.088163

> <PUBCHEM_TOTAL_CHARGE>
0

> <PUBCHEM_HEAVY_ATOM_COUNT>
20

> <PUBCHEM_ATOM_DEF_STEREO_COUNT>
0

> <PUBCHEM_ATOM_UDEF_STEREO_COUNT>
0

> <PUBCHEM_BOND_DEF_STEREO_COUNT>
1

> <PUBCHEM_BOND_UDEF_STEREO_COUNT>
0

> <PUBCHEM_ISOTOPIC_ATOM_COUNT>
0

> <PUBCHEM_COMPONENT_COUNT>
1

> <PUBCHEM_CACTVS_TAUTO_COUNT>
17

> <PUBCHEM_COORDINATE_TYPE>
1
5
255

> <PUBCHEM_BONDANNOTATIONS>
14  15  8
14  16  8
15  17  8
16  18  8
17  19  8
18  19  8

$$$$

