17395283
  -OEChem-06241222493D

 45 48  0     0  0  0  0  0  0999 V2000
    2.0618    2.0471   -2.8560 S   0  0  0  0  0  0  0  0  0  0  0  0
    3.0439   -0.5503    1.7480 S   0  0  0  0  0  0  0  0  0  0  0  0
   -7.2322   -0.2169   -0.9046 F   0  0  0  0  0  0  0  0  0  0  0  0
    0.0786   -1.6271    2.9836 O   0  0  0  0  0  0  0  0  0  0  0  0
   -1.2652    1.6888   -0.1545 O   0  0  0  0  0  0  0  0  0  0  0  0
    3.0019    3.3261   -0.7162 N   0  0  0  0  0  0  0  0  0  0  0  0
    3.4179    2.0808    1.3220 N   0  0  0  0  0  0  0  0  0  0  0  0
   -0.1652    0.4909    2.0669 N   0  0  0  0  0  0  0  0  0  0  0  0
   -1.4519    0.2500    1.6508 N   0  0  0  0  0  0  0  0  0  0  0  0
    2.0968   -0.1038   -1.4533 C   0  0  0  0  0  0  0  0  0  0  0  0
    2.5772    0.9284   -0.5873 C   0  0  0  0  0  0  0  0  0  0  0  0
    1.9109   -1.5080   -1.1841 C   0  0  0  0  0  0  0  0  0  0  0  0
    2.6032    2.1521   -1.2434 C   0  0  0  0  0  0  0  0  0  0  0  0
    3.0076    0.9318    0.7435 C   0  0  0  0  0  0  0  0  0  0  0  0
    1.7824    0.3658   -2.7100 C   0  0  0  0  0  0  0  0  0  0  0  0
    0.6904   -1.9677   -0.6891 C   0  0  0  0  0  0  0  0  0  0  0  0
    2.9513   -2.4071   -1.4188 C   0  0  0  0  0  0  0  0  0  0  0  0
    0.5105   -3.3263   -0.4289 C   0  0  0  0  0  0  0  0  0  0  0  0
    2.7714   -3.7656   -1.1587 C   0  0  0  0  0  0  0  0  0  0  0  0
    1.9277   -0.1031    3.0991 C   0  0  0  0  0  0  0  0  0  0  0  0
    1.5510   -4.2251   -0.6638 C   0  0  0  0  0  0  0  0  0  0  0  0
    3.3901    3.1950    0.5649 C   0  0  0  0  0  0  0  0  0  0  0  0
    0.5223   -0.5093    2.7263 C   0  0  0  0  0  0  0  0  0  0  0  0
   -3.3238    0.6028    0.1448 C   0  0  0  0  0  0  0  0  0  0  0  0
   -1.9176    0.8983    0.5228 C   0  0  0  0  0  0  0  0  0  0  0  0
   -4.0681    1.5457   -0.5646 C   0  0  0  0  0  0  0  0  0  0  0  0
   -3.9000   -0.6170    0.4995 C   0  0  0  0  0  0  0  0  0  0  0  0
   -5.3882    1.2687   -0.9192 C   0  0  0  0  0  0  0  0  0  0  0  0
   -5.2204   -0.8940    0.1448 C   0  0  0  0  0  0  0  0  0  0  0  0
   -5.9644    0.0490   -0.5644 C   0  0  0  0  0  0  0  0  0  0  0  0
    1.4008   -0.1876   -3.5578 H   0  0  0  0  0  0  0  0  0  0  0  0
   -0.1338   -1.2835   -0.5108 H   0  0  0  0  0  0  0  0  0  0  0  0
    3.9094   -2.0654   -1.8035 H   0  0  0  0  0  0  0  0  0  0  0  0
   -0.4404   -3.6839   -0.0449 H   0  0  0  0  0  0  0  0  0  0  0  0
    3.5815   -4.4655   -1.3411 H   0  0  0  0  0  0  0  0  0  0  0  0
    2.2164   -0.6598    3.9965 H   0  0  0  0  0  0  0  0  0  0  0  0
    1.9810    0.9619    3.3439 H   0  0  0  0  0  0  0  0  0  0  0  0
    1.4108   -5.2829   -0.4612 H   0  0  0  0  0  0  0  0  0  0  0  0
    3.7240    4.1040    1.0528 H   0  0  0  0  0  0  0  0  0  0  0  0
    0.2214    1.4093    1.8743 H   0  0  0  0  0  0  0  0  0  0  0  0
   -2.0122   -0.3481    2.2483 H   0  0  0  0  0  0  0  0  0  0  0  0
   -3.6383    2.5033   -0.8463 H   0  0  0  0  0  0  0  0  0  0  0  0
   -3.3460   -1.3882    1.0265 H   0  0  0  0  0  0  0  0  0  0  0  0
   -5.9683    2.0028   -1.4705 H   0  0  0  0  0  0  0  0  0  0  0  0
   -5.6679   -1.8460    0.4150 H   0  0  0  0  0  0  0  0  0  0  0  0
  1 13  1  0  0  0  0
  1 15  1  0  0  0  0
  2 14  1  0  0  0  0
  2 20  1  0  0  0  0
  3 30  1  0  0  0  0
  4 23  2  0  0  0  0
  5 25  2  0  0  0  0
  6 13  1  0  0  0  0
  6 22  2  0  0  0  0
  7 14  2  0  0  0  0
  7 22  1  0  0  0  0
  8  9  1  0  0  0  0
  8 23  1  0  0  0  0
  8 40  1  0  0  0  0
  9 25  1  0  0  0  0
  9 41  1  0  0  0  0
 10 11  1  0  0  0  0
 10 12  1  0  0  0  0
 10 15  2  0  0  0  0
 11 13  2  0  0  0  0
 11 14  1  0  0  0  0
 12 16  2  0  0  0  0
 12 17  1  0  0  0  0
 15 31  1  0  0  0  0
 16 18  1  0  0  0  0
 16 32  1  0  0  0  0
 17 19  2  0  0  0  0
 17 33  1  0  0  0  0
 18 21  2  0  0  0  0
 18 34  1  0  0  0  0
 19 21  1  0  0  0  0
 19 35  1  0  0  0  0
 20 23  1  0  0  0  0
 20 36  1  0  0  0  0
 20 37  1  0  0  0  0
 21 38  1  0  0  0  0
 22 39  1  0  0  0  0
 24 25  1  0  0  0  0
 24 26  2  0  0  0  0
 24 27  1  0  0  0  0
 26 28  1  0  0  0  0
 26 42  1  0  0  0  0
 27 29  2  0  0  0  0
 27 43  1  0  0  0  0
 28 30  2  0  0  0  0
 28 44  1  0  0  0  0
 29 30  1  0  0  0  0
 29 45  1  0  0  0  0
M  END
> <PUBCHEM_COMPOUND_CID>
17395283

> <PUBCHEM_CONFORMER_RMSD>
1

> <PUBCHEM_CONFORMER_DIVERSEORDER>
1
46
37
30
25
3
2
27
21
24
67
4
5
34
56
38
26
55
11
48
19
63
12
57
50
59
22
51
43
31
42
69
20
35
66
28
16
6
70
10
13
65
8
52
44
64
29
17
7
18
14
61
62
9
39
49
32
68
40
33
60
53
58
54
41
15
36
45
23
47

> <PUBCHEM_MMFF94_PARTIAL_CHARGES>
42
1 -0.08
10 -0.05
12 0.05
13 0.3
14 0.41
15 -0.11
16 -0.15
17 -0.15
18 -0.15
19 -0.15
2 -0.33
20 0.29
21 -0.15
22 0.47
23 0.57
24 0.09
25 0.54
26 -0.15
27 -0.15
28 -0.15
29 -0.15
3 -0.19
30 0.19
31 0.15
32 0.15
33 0.15
34 0.15
35 0.15
38 0.15
39 0.15
4 -0.57
40 0.37
41 0.37
42 0.15
43 0.15
44 0.15
45 0.15
5 -0.57
6 -0.57
7 -0.62
8 -0.43
9 -0.43

> <PUBCHEM_EFFECTIVE_ROTOR_COUNT>
8

> <PUBCHEM_PHARMACOPHORE_FEATURES>
10
1 4 acceptor
1 5 acceptor
1 7 acceptor
1 8 donor
1 9 donor
3 6 7 22 cation
5 1 10 11 13 15 rings
6 12 16 17 18 19 21 rings
6 24 26 27 28 29 30 rings
6 6 7 11 13 14 22 rings

> <PUBCHEM_HEAVY_ATOM_COUNT>
30

> <PUBCHEM_ATOM_DEF_STEREO_COUNT>
0

> <PUBCHEM_ATOM_UDEF_STEREO_COUNT>
0

> <PUBCHEM_BOND_DEF_STEREO_COUNT>
0

> <PUBCHEM_BOND_UDEF_STEREO_COUNT>
0

> <PUBCHEM_ISOTOPIC_ATOM_COUNT>
0

> <PUBCHEM_COMPONENT_COUNT>
1

> <PUBCHEM_CACTVS_TAUTO_COUNT>
4

> <PUBCHEM_CONFORMER_ID>
01096E5300000001

> <PUBCHEM_MMFF94_ENERGY>
73.2041

> <PUBCHEM_FEATURE_SELFOVERLAP>
52.363

> <PUBCHEM_SHAPE_FINGERPRINT>
10930396 42 18128268951538168554
11112662 9 18268724839285787730
11582403 64 17985552152176419256
12156800 1 17463712895594365362
12166972 35 17969498393295059415
13617811 41 18334587811521964213
13773456 73 16128363845265221849
13965767 371 18201170849159635684
14068700 675 17751638990519853246
144659 39 18129951053155029355
15324115 91 18187081750089906819
17909252 39 18337659927701284325
20578428 11 16878805785767166409
20775438 99 18340493283694991823
21860390 5 17775850116266719592
23559900 14 18265900344681063303
238 59 18194092240571124718
3052486 1 17972897864315463351
460360 51 16661203792966348481
469060 322 17546139932381465547
513532 50 18060422451344833970
550186 7 15832486215307677444
5951187 136 17632572756188698005
6669772 16 17169576050821883738

> <PUBCHEM_SHAPE_MULTIPOLES>
586.15
10.26
4.09
2.86
25.66
2.58
1.38
-2.51
-2.8
-5.71
-1.78
-2.61
-0.18
0.8

> <PUBCHEM_SHAPE_SELFOVERLAP>
1261.499

> <PUBCHEM_SHAPE_VOLUME>
327

> <PUBCHEM_COORDINATE_TYPE>
2
5
10

$$$$

