46173824
  -OEChem-07051213093D

 90 93  0     1  0  0  0  0  0999 V2000
   -4.7721    1.5853   -2.0961 Br  0  0  0  0  0  0  0  0  0  0  0  0
   -3.9048   -3.9787   -2.6198 Br  0  0  0  0  0  0  0  0  0  0  0  0
    0.3996    2.3488    0.5728 O   0  0  0  0  0  0  0  0  0  0  0  0
    1.4369    0.8766   -0.9279 O   0  0  0  0  0  0  0  0  0  0  0  0
    3.0267    0.0249    1.2926 O   0  0  0  0  0  0  0  0  0  0  0  0
    3.6730    0.3891   -1.6271 O   0  0  0  0  0  0  0  0  0  0  0  0
    2.8250   -2.0117   -0.6856 O   0  0  0  0  0  0  0  0  0  0  0  0
    0.5513   -2.2573   -0.9904 O   0  0  0  0  0  0  0  0  0  0  0  0
    4.5955   -0.4110    2.9228 O   0  0  0  0  0  0  0  0  0  0  0  0
   -5.8906    0.7609    1.7751 O   0  0  0  0  0  0  0  0  0  0  0  0
    2.8489   -4.8064    1.6683 O   0  0  0  0  0  0  0  0  0  0  0  0
   -3.9361   -3.8160    0.4958 O   0  0  0  0  0  0  0  0  0  0  0  0
    1.5224    2.1747   -0.3258 C   0  0  1  0  0  0  0  0  0  0  0  0
    1.3507    3.2708   -1.4413 C   0  0  0  0  0  0  0  0  0  0  0  0
    2.7979    2.3351    0.5401 C   0  0  0  0  0  0  0  0  0  0  0  0
    2.3198    2.9974   -2.6142 C   0  0  0  0  0  0  0  0  0  0  0  0
    2.1728    1.5701   -3.1652 C   0  0  2  0  0  0  0  0  0  0  0  0
    0.3131    1.3797    1.6256 C   0  0  1  0  0  0  0  0  0  0  0  0
    1.5289    1.5152    2.5601 C   0  0  2  0  0  0  0  0  0  0  0  0
    2.8367    1.3838    1.7507 C   0  0  1  0  0  0  0  0  0  0  0  0
    2.3068    0.5397   -2.0195 C   0  0  2  0  0  0  0  0  0  0  0  0
    1.6059    4.7002   -0.9174 C   0  0  0  0  0  0  0  0  0  0  0  0
   -0.1085    3.2553   -1.9776 C   0  0  0  0  0  0  0  0  0  0  0  0
   -1.0135    1.6418    2.3335 C   0  0  2  0  0  0  0  0  0  0  0  0
    1.8431   -0.8595   -2.4883 C   0  0  0  0  0  0  0  0  0  0  0  0
    3.1565    1.3496   -4.3193 C   0  0  0  0  0  0  0  0  0  0  0  0
    1.4771    0.5322    3.7306 C   0  0  0  0  0  0  0  0  0  0  0  0
   -2.1837    1.4453    1.3481 C   0  0  0  0  0  0  0  0  0  0  0  0
   -1.0036    3.0419    2.9529 C   0  0  0  0  0  0  0  0  0  0  0  0
   -3.5263    1.1724    2.0360 C   0  0  0  0  0  0  0  0  0  0  0  0
    1.6389   -1.8021   -1.3182 C   0  0  0  0  0  0  0  0  0  0  0  0
    3.9126   -0.7620    1.9659 C   0  0  0  0  0  0  0  0  0  0  0  0
    4.0311   -2.1531    1.3717 C   0  0  0  0  0  0  0  0  0  0  0  0
   -4.6800    0.9588    1.0420 C   0  0  1  0  0  0  0  0  0  0  0  0
    2.8010   -2.6515    0.6067 C   0  0  2  0  0  0  0  0  0  0  0  0
    2.8638   -4.1609    0.3997 C   0  0  1  0  0  0  0  0  0  0  0  0
   -4.4938   -0.2287    0.1264 C   0  0  0  0  0  0  0  0  0  0  0  0
    4.1134   -4.5745   -0.3607 C   0  0  0  0  0  0  0  0  0  0  0  0
   -4.3000   -1.4824    0.7065 C   0  0  0  0  0  0  0  0  0  0  0  0
   -4.5115   -0.0981   -1.2623 C   0  0  0  0  0  0  0  0  0  0  0  0
   -7.0250    1.1054    0.9966 C   0  0  0  0  0  0  0  0  0  0  0  0
   -4.1234   -2.6053   -0.1021 C   0  0  0  0  0  0  0  0  0  0  0  0
   -4.3354   -1.2210   -2.0708 C   0  0  0  0  0  0  0  0  0  0  0  0
   -4.1413   -2.4747   -1.4908 C   0  0  0  0  0  0  0  0  0  0  0  0
    3.7011    2.1944   -0.0586 H   0  0  0  0  0  0  0  0  0  0  0  0
    2.8349    3.3498    0.9530 H   0  0  0  0  0  0  0  0  0  0  0  0
    3.3548    3.1539   -2.2827 H   0  0  0  0  0  0  0  0  0  0  0  0
    2.1462    3.7214   -3.4214 H   0  0  0  0  0  0  0  0  0  0  0  0
    1.1637    1.4872   -3.5884 H   0  0  0  0  0  0  0  0  0  0  0  0
    0.2875    0.3718    1.1913 H   0  0  0  0  0  0  0  0  0  0  0  0
    1.5619    2.5315    2.9714 H   0  0  0  0  0  0  0  0  0  0  0  0
    3.6834    1.6872    2.3793 H   0  0  0  0  0  0  0  0  0  0  0  0
    2.6582    4.8573   -0.6588 H   0  0  0  0  0  0  0  0  0  0  0  0
    1.3538    5.4476   -1.6791 H   0  0  0  0  0  0  0  0  0  0  0  0
    1.0003    4.9161   -0.0306 H   0  0  0  0  0  0  0  0  0  0  0  0
   -0.2065    3.8814   -2.8720 H   0  0  0  0  0  0  0  0  0  0  0  0
   -0.4447    2.2465   -2.2375 H   0  0  0  0  0  0  0  0  0  0  0  0
   -0.8118    3.6471   -1.2336 H   0  0  0  0  0  0  0  0  0  0  0  0
   -1.1411    0.9089    3.1385 H   0  0  0  0  0  0  0  0  0  0  0  0
    0.8734   -0.7864   -2.9965 H   0  0  0  0  0  0  0  0  0  0  0  0
    2.5512   -1.3266   -3.1817 H   0  0  0  0  0  0  0  0  0  0  0  0
    3.0265    0.3605   -4.7683 H   0  0  0  0  0  0  0  0  0  0  0  0
    2.9946    2.0916   -5.1088 H   0  0  0  0  0  0  0  0  0  0  0  0
    4.1955    1.4399   -3.9858 H   0  0  0  0  0  0  0  0  0  0  0  0
    2.4048    0.5715    4.3109 H   0  0  0  0  0  0  0  0  0  0  0  0
    0.6652    0.7760    4.4222 H   0  0  0  0  0  0  0  0  0  0  0  0
    1.3300   -0.4970    3.3874 H   0  0  0  0  0  0  0  0  0  0  0  0
   -1.9515    0.5957    0.6945 H   0  0  0  0  0  0  0  0  0  0  0  0
   -2.2794    2.3238    0.6976 H   0  0  0  0  0  0  0  0  0  0  0  0
   -1.9883    3.2840    3.3665 H   0  0  0  0  0  0  0  0  0  0  0  0
   -0.3026    3.1187    3.7887 H   0  0  0  0  0  0  0  0  0  0  0  0
   -0.7633    3.8217    2.2230 H   0  0  0  0  0  0  0  0  0  0  0  0
    3.8183   -0.5014   -1.2719 H   0  0  0  0  0  0  0  0  0  0  0  0
   -3.4331    0.3136    2.7121 H   0  0  0  0  0  0  0  0  0  0  0  0
   -3.7887    2.0155    2.6874 H   0  0  0  0  0  0  0  0  0  0  0  0
    4.2417   -2.8159    2.2188 H   0  0  0  0  0  0  0  0  0  0  0  0
    4.9109   -2.1212    0.7181 H   0  0  0  0  0  0  0  0  0  0  0  0
   -4.7630    1.9085    0.5081 H   0  0  0  0  0  0  0  0  0  0  0  0
    1.8933   -2.3775    1.1603 H   0  0  0  0  0  0  0  0  0  0  0  0
    1.9837   -4.4948   -0.1613 H   0  0  0  0  0  0  0  0  0  0  0  0
    4.2040   -4.0643   -1.3240 H   0  0  0  0  0  0  0  0  0  0  0  0
    5.0250   -4.4072    0.2224 H   0  0  0  0  0  0  0  0  0  0  0  0
    4.0845   -5.6527   -0.5576 H   0  0  0  0  0  0  0  0  0  0  0  0
   -4.2972   -1.5958    1.7875 H   0  0  0  0  0  0  0  0  0  0  0  0
    2.8794   -5.7654    1.5106 H   0  0  0  0  0  0  0  0  0  0  0  0
   -7.9117    0.9922    1.6272 H   0  0  0  0  0  0  0  0  0  0  0  0
   -7.1421    0.4393    0.1373 H   0  0  0  0  0  0  0  0  0  0  0  0
   -6.9773    2.1488    0.6691 H   0  0  0  0  0  0  0  0  0  0  0  0
   -4.3490   -1.1196   -3.1540 H   0  0  0  0  0  0  0  0  0  0  0  0
   -3.9533   -3.7033    1.4616 H   0  0  0  0  0  0  0  0  0  0  0  0
  1 40  1  0  0  0  0
  2 44  1  0  0  0  0
  3 13  1  0  0  0  0
  3 18  1  0  0  0  0
  4 13  1  0  0  0  0
  4 21  1  0  0  0  0
  5 20  1  0  0  0  0
  5 32  1  0  0  0  0
  6 21  1  0  0  0  0
  6 73  1  0  0  0  0
  7 31  1  0  0  0  0
  7 35  1  0  0  0  0
  8 31  2  0  0  0  0
  9 32  2  0  0  0  0
 10 34  1  0  0  0  0
 10 41  1  0  0  0  0
 11 36  1  0  0  0  0
 11 85  1  0  0  0  0
 12 42  1  0  0  0  0
 12 90  1  0  0  0  0
 13 14  1  0  0  0  0
 13 15  1  0  0  0  0
 14 16  1  0  0  0  0
 14 22  1  0  0  0  0
 14 23  1  0  0  0  0
 15 20  1  0  0  0  0
 15 45  1  0  0  0  0
 15 46  1  0  0  0  0
 16 17  1  0  0  0  0
 16 47  1  0  0  0  0
 16 48  1  0  0  0  0
 17 21  1  0  0  0  0
 17 26  1  0  0  0  0
 17 49  1  0  0  0  0
 18 19  1  0  0  0  0
 18 24  1  0  0  0  0
 18 50  1  0  0  0  0
 19 20  1  0  0  0  0
 19 27  1  0  0  0  0
 19 51  1  0  0  0  0
 20 52  1  0  0  0  0
 21 25  1  0  0  0  0
 22 53  1  0  0  0  0
 22 54  1  0  0  0  0
 22 55  1  0  0  0  0
 23 56  1  0  0  0  0
 23 57  1  0  0  0  0
 23 58  1  0  0  0  0
 24 28  1  0  0  0  0
 24 29  1  0  0  0  0
 24 59  1  0  0  0  0
 25 31  1  0  0  0  0
 25 60  1  0  0  0  0
 25 61  1  0  0  0  0
 26 62  1  0  0  0  0
 26 63  1  0  0  0  0
 26 64  1  0  0  0  0
 27 65  1  0  0  0  0
 27 66  1  0  0  0  0
 27 67  1  0  0  0  0
 28 30  1  0  0  0  0
 28 68  1  0  0  0  0
 28 69  1  0  0  0  0
 29 70  1  0  0  0  0
 29 71  1  0  0  0  0
 29 72  1  0  0  0  0
 30 34  1  0  0  0  0
 30 74  1  0  0  0  0
 30 75  1  0  0  0  0
 32 33  1  0  0  0  0
 33 35  1  0  0  0  0
 33 76  1  0  0  0  0
 33 77  1  0  0  0  0
 34 37  1  0  0  0  0
 34 78  1  0  0  0  0
 35 36  1  0  0  0  0
 35 79  1  0  0  0  0
 36 38  1  0  0  0  0
 36 80  1  0  0  0  0
 37 39  2  0  0  0  0
 37 40  1  0  0  0  0
 38 81  1  0  0  0  0
 38 82  1  0  0  0  0
 38 83  1  0  0  0  0
 39 42  1  0  0  0  0
 39 84  1  0  0  0  0
 40 43  2  0  0  0  0
 41 86  1  0  0  0  0
 41 87  1  0  0  0  0
 41 88  1  0  0  0  0
 42 44  2  0  0  0  0
 43 44  1  0  0  0  0
 43 89  1  0  0  0  0
M  END
> <PUBCHEM_COMPOUND_CID>
46173824

> <PUBCHEM_CONFORMER_RMSD>
1.2

> <PUBCHEM_CONFORMER_DIVERSEORDER>
1
59
67
25
66
63
54
11
31
57
68
6
73
42
71
69
35
61
7
65
62
24
60
51
14
47
58
70
40
46
52
44
55
45
16
29
76
74
49
13
56
12
28
33
50
34
32
72
38
30
19
64
2
10
20
4
75
41
27
37
39
48
22
36
21
53
17
43
5
8
9
18
26
23
15
3

> <PUBCHEM_MMFF94_PARTIAL_CHARGES>
35
1 -0.11
10 -0.56
11 -0.68
12 -0.53
13 0.56
18 0.28
2 -0.11
20 0.28
21 0.56
25 0.06
3 -0.56
31 0.66
32 0.66
33 0.06
34 0.42
35 0.28
36 0.28
37 -0.14
39 -0.15
4 -0.56
40 0.11
41 0.28
42 0.08
43 -0.15
44 0.11
5 -0.43
6 -0.68
7 -0.43
73 0.4
8 -0.57
84 0.15
85 0.4
89 0.15
9 -0.57
90 0.45

> <PUBCHEM_EFFECTIVE_ROTOR_COUNT>
9.6

> <PUBCHEM_PHARMACOPHORE_FEATURES>
17
1 1 hydrophobe
1 10 acceptor
1 11 acceptor
1 11 donor
1 12 donor
1 2 hydrophobe
1 29 hydrophobe
1 3 acceptor
1 4 acceptor
1 6 acceptor
1 6 donor
1 8 acceptor
1 9 acceptor
3 14 22 23 hydrophobe
6 3 13 15 18 19 20 rings
6 37 39 40 42 43 44 rings
6 4 13 14 16 17 21 rings

> <PUBCHEM_HEAVY_ATOM_COUNT>
44

> <PUBCHEM_ATOM_DEF_STEREO_COUNT>
9

> <PUBCHEM_ATOM_UDEF_STEREO_COUNT>
1

> <PUBCHEM_BOND_DEF_STEREO_COUNT>
0

> <PUBCHEM_BOND_UDEF_STEREO_COUNT>
0

> <PUBCHEM_ISOTOPIC_ATOM_COUNT>
0

> <PUBCHEM_COMPONENT_COUNT>
1

> <PUBCHEM_CACTVS_TAUTO_COUNT>
3

> <PUBCHEM_CONFORMER_ID>
02C08E8000000001

> <PUBCHEM_MMFF94_ENERGY>
131.7601

> <PUBCHEM_FEATURE_SELFOVERLAP>
86.341

> <PUBCHEM_SHAPE_FINGERPRINT>
10928967 22 17898563182097357483
11621639 254 17624938959296846454
14040221 299 17242450762098225190
14674994 50 17547014481989827724
17809404 112 17750530498605539405
20764821 26 18187920634839593091
20775530 9 18122349239950421274
24941158 1 16917068802612844414
4394409 98 17901673992739405501
44802255 64 14973989778666572228
463206 1 17968361386987488785
46939830 39 17631749183752094378
5081480 168 16559033804847455501
5776283 40 11957713986390154182
6823239 73 13542198172805954701
86090 222 17035570648804704395

> <PUBCHEM_SHAPE_MULTIPOLES>
858.69
11.5
5.98
4.14
16.95
4.97
-1.15
5.47
1.11
-3.09
-0.97
-2.69
-2.22
-3.97

> <PUBCHEM_SHAPE_SELFOVERLAP>
1769.157

> <PUBCHEM_SHAPE_VOLUME>
502.7

> <PUBCHEM_COORDINATE_TYPE>
2
5
10

$$$$

