17396135
  -OEChem-06241222543D

 46 48  0     1  0  0  0  0  0999 V2000
    3.2168    2.4690    0.3857 S   0  0  0  0  0  0  0  0  0  0  0  0
    3.9673   -0.5098    0.4206 O   0  0  0  0  0  0  0  0  0  0  0  0
   -5.5187   -0.0076   -1.1468 O   0  0  0  0  0  0  0  0  0  0  0  0
    2.2023   -0.8591   -1.0790 N   0  0  0  0  0  0  0  0  0  0  0  0
   -0.3079    1.8947    2.0138 N   0  0  0  0  0  0  0  0  0  0  0  0
    0.6044    1.7209   -0.0768 N   0  0  0  0  0  0  0  0  0  0  0  0
    0.9938    2.2196    2.0149 N   0  0  0  0  0  0  0  0  0  0  0  0
    3.4541    1.3221   -1.0154 C   0  0  2  0  0  0  0  0  0  0  0  0
    3.2420   -0.1028   -0.4936 C   0  0  0  0  0  0  0  0  0  0  0  0
    1.5127   -1.8377   -0.2653 C   0  0  0  0  0  0  0  0  0  0  0  0
    4.8662    1.5163   -1.5662 C   0  0  0  0  0  0  0  0  0  0  0  0
    1.7919   -0.6928   -2.4811 C   0  0  0  0  0  0  0  0  0  0  0  0
   -1.7934    1.1855    0.2415 C   0  0  0  0  0  0  0  0  0  0  0  0
   -0.4942    1.6007    0.7253 C   0  0  0  0  0  0  0  0  0  0  0  0
    1.5287    2.1134    0.7689 C   0  0  0  0  0  0  0  0  0  0  0  0
    1.3855   -1.6371    1.1093 C   0  0  0  0  0  0  0  0  0  0  0  0
    0.9746   -2.9810   -0.8559 C   0  0  0  0  0  0  0  0  0  0  0  0
   -2.1747    1.4739   -1.0690 C   0  0  0  0  0  0  0  0  0  0  0  0
   -2.6641    0.4959    1.0854 C   0  0  0  0  0  0  0  0  0  0  0  0
    0.7201   -2.5798    1.8931 C   0  0  0  0  0  0  0  0  0  0  0  0
    0.3092   -3.9236   -0.0721 C   0  0  0  0  0  0  0  0  0  0  0  0
   -4.2971    0.3833   -0.6915 C   0  0  0  0  0  0  0  0  0  0  0  0
   -3.4264    1.0729   -1.5355 C   0  0  0  0  0  0  0  0  0  0  0  0
   -3.9159    0.0948    0.6189 C   0  0  0  0  0  0  0  0  0  0  0  0
    0.1820   -3.7230    1.3023 C   0  0  0  0  0  0  0  0  0  0  0  0
   -6.3590   -0.7087   -0.2313 C   0  0  0  0  0  0  0  0  0  0  0  0
    2.7269    1.6058   -1.7771 H   0  0  0  0  0  0  0  0  0  0  0  0
    5.6359    1.2961   -0.8175 H   0  0  0  0  0  0  0  0  0  0  0  0
    5.0177    2.5380   -1.9313 H   0  0  0  0  0  0  0  0  0  0  0  0
    5.0358    0.8351   -2.4077 H   0  0  0  0  0  0  0  0  0  0  0  0
    1.9128   -1.6341   -3.0230 H   0  0  0  0  0  0  0  0  0  0  0  0
    2.4180    0.0318   -3.0041 H   0  0  0  0  0  0  0  0  0  0  0  0
    0.7490   -0.3645   -2.5115 H   0  0  0  0  0  0  0  0  0  0  0  0
    1.7717   -0.7530    1.6055 H   0  0  0  0  0  0  0  0  0  0  0  0
    1.0613   -3.1864   -1.9173 H   0  0  0  0  0  0  0  0  0  0  0  0
   -1.5129    2.0125   -1.7431 H   0  0  0  0  0  0  0  0  0  0  0  0
   -2.3921    0.2439    2.1075 H   0  0  0  0  0  0  0  0  0  0  0  0
   -0.8799    1.9205    2.8536 H   0  0  0  0  0  0  0  0  0  0  0  0
    0.6162   -2.4212    2.9626 H   0  0  0  0  0  0  0  0  0  0  0  0
   -0.1076   -4.8154   -0.5310 H   0  0  0  0  0  0  0  0  0  0  0  0
   -3.7182    1.3008   -2.5571 H   0  0  0  0  0  0  0  0  0  0  0  0
   -4.5414   -0.4395    1.3258 H   0  0  0  0  0  0  0  0  0  0  0  0
   -0.3368   -4.4566    1.9124 H   0  0  0  0  0  0  0  0  0  0  0  0
   -5.9157   -1.6633    0.0716 H   0  0  0  0  0  0  0  0  0  0  0  0
   -6.6273   -0.0843    0.6277 H   0  0  0  0  0  0  0  0  0  0  0  0
   -7.2892   -0.9417   -0.7599 H   0  0  0  0  0  0  0  0  0  0  0  0
  1  8  1  0  0  0  0
  1 15  1  0  0  0  0
  2  9  2  0  0  0  0
  3 22  1  0  0  0  0
  3 26  1  0  0  0  0
  4  9  1  0  0  0  0
  4 10  1  0  0  0  0
  4 12  1  0  0  0  0
  5  7  1  0  0  0  0
  5 14  1  0  0  0  0
  5 38  1  0  0  0  0
  6 14  2  0  0  0  0
  6 15  1  0  0  0  0
  7 15  2  0  0  0  0
  8  9  1  0  0  0  0
  8 11  1  0  0  0  0
  8 27  1  0  0  0  0
 10 16  2  0  0  0  0
 10 17  1  0  0  0  0
 11 28  1  0  0  0  0
 11 29  1  0  0  0  0
 11 30  1  0  0  0  0
 12 31  1  0  0  0  0
 12 32  1  0  0  0  0
 12 33  1  0  0  0  0
 13 14  1  0  0  0  0
 13 18  2  0  0  0  0
 13 19  1  0  0  0  0
 16 20  1  0  0  0  0
 16 34  1  0  0  0  0
 17 21  2  0  0  0  0
 17 35  1  0  0  0  0
 18 23  1  0  0  0  0
 18 36  1  0  0  0  0
 19 24  2  0  0  0  0
 19 37  1  0  0  0  0
 20 25  2  0  0  0  0
 20 39  1  0  0  0  0
 21 25  1  0  0  0  0
 21 40  1  0  0  0  0
 22 23  2  0  0  0  0
 22 24  1  0  0  0  0
 23 41  1  0  0  0  0
 24 42  1  0  0  0  0
 25 43  1  0  0  0  0
 26 44  1  0  0  0  0
 26 45  1  0  0  0  0
 26 46  1  0  0  0  0
M  END
> <PUBCHEM_COMPOUND_CID>
17396135

> <PUBCHEM_CONFORMER_RMSD>
1

> <PUBCHEM_CONFORMER_DIVERSEORDER>
1
3
128
105
7
24
104
10
42
57
107
15
25
142
97
16
159
22
40
162
161
160
148
12
139
138
149
89
8
43
106
95
91
35
61
50
13
79
21
76
65
153
122
60
78
77
58
147
93
51
85
96
29
100
70
156
39
34
20
154
33
14
45
117
145
163
49
146
88
47
46
118
109
27
44
112
114
133
56
69
41
134
131
155
125
73
67
129
53
81
132
92
135
30
31
84
36
126
113
32
80
87
4
23
121
18
72
19
137
103
120
164
2
38
62
55
68
11
111
127
165
64
63
136
141
26
75
17
119
158
37
5
130
99
124
101
9
83
52
108
110
90
94
143
102
54
86
6
48
123
140
59
74
157
144
71
66
28
115
152
116
151
82
150
98

> <PUBCHEM_MMFF94_PARTIAL_CHARGES>
35
1 -0.28
10 0.12
12 0.3
13 0.05
14 0.13
15 0.57
16 -0.15
17 -0.15
18 -0.15
19 -0.15
2 -0.57
20 -0.15
21 -0.15
22 0.08
23 -0.15
24 -0.15
25 -0.15
26 0.28
3 -0.36
34 0.15
35 0.15
36 0.15
37 0.15
38 0.27
39 0.15
4 -0.48
40 0.15
41 0.15
42 0.15
43 0.15
5 0.3
6 -0.57
7 -0.71
8 0.29
9 0.57

> <PUBCHEM_EFFECTIVE_ROTOR_COUNT>
7

> <PUBCHEM_PHARMACOPHORE_FEATURES>
9
1 11 hydrophobe
1 2 acceptor
1 3 acceptor
1 5 donor
3 5 6 14 cation
3 6 7 15 cation
5 5 6 7 14 15 rings
6 10 16 17 20 21 25 rings
6 13 18 19 22 23 24 rings

> <PUBCHEM_HEAVY_ATOM_COUNT>
26

> <PUBCHEM_ATOM_DEF_STEREO_COUNT>
0

> <PUBCHEM_ATOM_UDEF_STEREO_COUNT>
1

> <PUBCHEM_BOND_DEF_STEREO_COUNT>
0

> <PUBCHEM_BOND_UDEF_STEREO_COUNT>
0

> <PUBCHEM_ISOTOPIC_ATOM_COUNT>
0

> <PUBCHEM_COMPONENT_COUNT>
1

> <PUBCHEM_CACTVS_TAUTO_COUNT>
3

> <PUBCHEM_CONFORMER_ID>
010971A700000001

> <PUBCHEM_MMFF94_ENERGY>
99.6125

> <PUBCHEM_FEATURE_SELFOVERLAP>
48.418

> <PUBCHEM_SHAPE_FINGERPRINT>
108634 29 18191573160806112254
11014199 57 17543347610711980495
11370993 70 17989203754677373351
11578080 2 16517952593512604962
12156800 1 17612912242617096410
12553582 1 17186991541268371162
12597179 24 17826810139642188608
13004483 165 16472064939145919954
13149001 5 18117550730941722272
13402501 40 18194391200528807907
13617811 41 17917716769664320277
13911987 19 18198886072703661308
14787075 74 18260822679091919796
15324115 91 18202284731916749679
17134984 74 18047501975377274727
17138139 8 18116729408455949255
17492 54 18340757161852307396
19026451 147 18262244450912025599
20567600 347 18273219689853851299
21344244 181 18041544859193906686
21421861 104 18049149257599632977
23559900 14 18055091001466929969
238 59 18411417314901891721
3052486 1 17842281367376523523
35225 105 17626693525406687346
404807 78 17630878297544861387
4340502 62 18263936449057209552
4409770 3 18120347901729212422
44802255 64 17272536518912917382
463206 1 18189063001808933847
484989 97 18267291050375008650
6669772 16 18264222331028432360

> <PUBCHEM_SHAPE_MULTIPOLES>
507.25
9.07
4.04
1.9
11.74
4.37
-0.04
-3.53
-4.08
-2.51
1.29
-0.55
-0.13
0.16

> <PUBCHEM_SHAPE_SELFOVERLAP>
1072.829

> <PUBCHEM_SHAPE_VOLUME>
287.6

> <PUBCHEM_COORDINATE_TYPE>
2
5
10

$$$$

