13970
  -OEChem-07051213053D

 53 56  0     1  0  0  0  0  0999 V2000
   -5.0471    0.7570    0.1804 O   0  0  0  0  0  0  0  0  0  0  0  0
   -0.3614    2.3757   -1.1199 O   0  0  0  0  0  0  0  0  0  0  0  0
    5.7002   -0.3579    1.2742 O   0  0  0  0  0  0  0  0  0  0  0  0
   -2.6046    0.4135   -0.0519 C   0  0  1  0  0  0  0  0  0  0  0  0
   -1.7795   -0.8791    0.1053 C   0  0  2  0  0  0  0  0  0  0  0  0
   -0.3879   -0.8117   -0.5469 C   0  0  1  0  0  0  0  0  0  0  0  0
    0.4218    0.3502    0.1153 C   0  0  1  0  0  0  0  0  0  0  0  0
   -3.9415   -0.0197    0.6378 C   0  0  2  0  0  0  0  0  0  0  0  0
   -1.8228    1.5583    0.6243 C   0  0  0  0  0  0  0  0  0  0  0  0
    1.9222    0.4313   -0.3839 C   0  0  2  0  0  0  0  0  0  0  0  0
   -0.3663    1.6991    0.1285 C   0  0  2  0  0  0  0  0  0  0  0  0
   -2.7483   -1.9713   -0.3362 C   0  0  0  0  0  0  0  0  0  0  0  0
   -4.1228   -1.4891    0.1664 C   0  0  0  0  0  0  0  0  0  0  0  0
    0.3478   -2.1493   -0.3622 C   0  0  0  0  0  0  0  0  0  0  0  0
   -2.9103    0.7759   -1.5340 C   0  0  0  0  0  0  0  0  0  0  0  0
    2.5579   -0.9622   -0.2907 C   0  0  0  0  0  0  0  0  0  0  0  0
    1.7704   -2.0973   -0.8978 C   0  0  0  0  0  0  0  0  0  0  0  0
    2.6828    1.4269    0.5398 C   0  0  0  0  0  0  0  0  0  0  0  0
   -3.9641    0.0539    2.1699 C   0  0  0  0  0  0  0  0  0  0  0  0
    2.0694    0.8957   -1.8498 C   0  0  0  0  0  0  0  0  0  0  0  0
    4.1956    1.3106    0.4454 C   0  0  0  0  0  0  0  0  0  0  0  0
    3.7611   -1.2068    0.2551 C   0  0  0  0  0  0  0  0  0  0  0  0
    4.6274   -0.1037    0.7307 C   0  0  0  0  0  0  0  0  0  0  0  0
   -1.5988   -1.0512    1.1777 H   0  0  0  0  0  0  0  0  0  0  0  0
   -0.4885   -0.6261   -1.6215 H   0  0  0  0  0  0  0  0  0  0  0  0
    0.4862    0.0677    1.1803 H   0  0  0  0  0  0  0  0  0  0  0  0
   -1.7662    1.3776    1.7042 H   0  0  0  0  0  0  0  0  0  0  0  0
   -2.3647    2.5027    0.4911 H   0  0  0  0  0  0  0  0  0  0  0  0
    0.1379    2.3750    0.8295 H   0  0  0  0  0  0  0  0  0  0  0  0
   -2.4927   -2.9451    0.0941 H   0  0  0  0  0  0  0  0  0  0  0  0
   -2.7565   -2.0846   -1.4261 H   0  0  0  0  0  0  0  0  0  0  0  0
   -4.8660   -1.5717   -0.6353 H   0  0  0  0  0  0  0  0  0  0  0  0
   -4.4704   -2.1331    0.9827 H   0  0  0  0  0  0  0  0  0  0  0  0
   -0.1927   -2.9491   -0.8819 H   0  0  0  0  0  0  0  0  0  0  0  0
    0.3697   -2.4224    0.7012 H   0  0  0  0  0  0  0  0  0  0  0  0
   -2.0075    0.8429   -2.1452 H   0  0  0  0  0  0  0  0  0  0  0  0
   -3.5627    0.0459   -2.0236 H   0  0  0  0  0  0  0  0  0  0  0  0
   -3.4119    1.7486   -1.5970 H   0  0  0  0  0  0  0  0  0  0  0  0
    1.7487   -1.9763   -1.9878 H   0  0  0  0  0  0  0  0  0  0  0  0
    2.2532   -3.0638   -0.7075 H   0  0  0  0  0  0  0  0  0  0  0  0
    2.3963    1.2485    1.5859 H   0  0  0  0  0  0  0  0  0  0  0  0
    2.3953    2.4607    0.3129 H   0  0  0  0  0  0  0  0  0  0  0  0
   -4.9207   -0.3204    2.5544 H   0  0  0  0  0  0  0  0  0  0  0  0
   -3.1650   -0.5279    2.6369 H   0  0  0  0  0  0  0  0  0  0  0  0
   -3.8925    1.0909    2.5158 H   0  0  0  0  0  0  0  0  0  0  0  0
    3.0791    0.7077   -2.2352 H   0  0  0  0  0  0  0  0  0  0  0  0
    1.3716    0.3800   -2.5171 H   0  0  0  0  0  0  0  0  0  0  0  0
    1.8948    1.9707   -1.9559 H   0  0  0  0  0  0  0  0  0  0  0  0
   -4.8785    1.6832    0.4246 H   0  0  0  0  0  0  0  0  0  0  0  0
    4.6542    1.9714    1.1894 H   0  0  0  0  0  0  0  0  0  0  0  0
    4.5663    1.6005   -0.5429 H   0  0  0  0  0  0  0  0  0  0  0  0
   -0.8128    3.2283   -0.9996 H   0  0  0  0  0  0  0  0  0  0  0  0
    4.1725   -2.2090    0.3115 H   0  0  0  0  0  0  0  0  0  0  0  0
  1  8  1  0  0  0  0
  1 49  1  0  0  0  0
  2 11  1  0  0  0  0
  2 52  1  0  0  0  0
  3 23  2  0  0  0  0
  4  5  1  0  0  0  0
  4  8  1  0  0  0  0
  4  9  1  0  0  0  0
  4 15  1  0  0  0  0
  5  6  1  0  0  0  0
  5 12  1  0  0  0  0
  5 24  1  0  0  0  0
  6  7  1  0  0  0  0
  6 14  1  0  0  0  0
  6 25  1  0  0  0  0
  7 10  1  0  0  0  0
  7 11  1  0  0  0  0
  7 26  1  0  0  0  0
  8 13  1  0  0  0  0
  8 19  1  0  0  0  0
  9 11  1  0  0  0  0
  9 27  1  0  0  0  0
  9 28  1  0  0  0  0
 10 16  1  0  0  0  0
 10 18  1  0  0  0  0
 10 20  1  0  0  0  0
 11 29  1  0  0  0  0
 12 13  1  0  0  0  0
 12 30  1  0  0  0  0
 12 31  1  0  0  0  0
 13 32  1  0  0  0  0
 13 33  1  0  0  0  0
 14 17  1  0  0  0  0
 14 34  1  0  0  0  0
 14 35  1  0  0  0  0
 15 36  1  0  0  0  0
 15 37  1  0  0  0  0
 15 38  1  0  0  0  0
 16 17  1  0  0  0  0
 16 22  2  0  0  0  0
 17 39  1  0  0  0  0
 17 40  1  0  0  0  0
 18 21  1  0  0  0  0
 18 41  1  0  0  0  0
 18 42  1  0  0  0  0
 19 43  1  0  0  0  0
 19 44  1  0  0  0  0
 19 45  1  0  0  0  0
 20 46  1  0  0  0  0
 20 47  1  0  0  0  0
 20 48  1  0  0  0  0
 21 23  1  0  0  0  0
 21 50  1  0  0  0  0
 21 51  1  0  0  0  0
 22 23  1  0  0  0  0
 22 53  1  0  0  0  0
M  END
> <PUBCHEM_COMPOUND_CID>
13970

> <PUBCHEM_CONFORMER_RMSD>
0.6

> <PUBCHEM_CONFORMER_DIVERSEORDER>
1

> <PUBCHEM_MMFF94_PARTIAL_CHARGES>
14
1 -0.68
10 0.14
11 0.28
16 -0.28
17 0.14
2 -0.68
21 0.06
22 -0.14
23 0.49
3 -0.57
49 0.4
52 0.4
53 0.15
8 0.28

> <PUBCHEM_EFFECTIVE_ROTOR_COUNT>
1.8

> <PUBCHEM_PHARMACOPHORE_FEATURES>
9
1 1 acceptor
1 1 donor
1 2 acceptor
1 2 donor
1 3 acceptor
5 4 5 8 12 13 rings
6 10 16 18 21 22 23 rings
6 4 5 6 7 9 11 rings
6 6 7 10 14 16 17 rings

> <PUBCHEM_HEAVY_ATOM_COUNT>
23

> <PUBCHEM_ATOM_DEF_STEREO_COUNT>
7

> <PUBCHEM_ATOM_UDEF_STEREO_COUNT>
0

> <PUBCHEM_BOND_DEF_STEREO_COUNT>
0

> <PUBCHEM_BOND_UDEF_STEREO_COUNT>
0

> <PUBCHEM_ISOTOPIC_ATOM_COUNT>
0

> <PUBCHEM_COMPONENT_COUNT>
1

> <PUBCHEM_CACTVS_TAUTO_COUNT>
5

> <PUBCHEM_CONFORMER_ID>
0000369200000001

> <PUBCHEM_MMFF94_ENERGY>
87.2031

> <PUBCHEM_FEATURE_SELFOVERLAP>
45.76

> <PUBCHEM_SHAPE_FINGERPRINT>
10062212 137 18338801113492048895
10675989 125 16755523413311911540
10967382 1 18335699468151188662
11132069 177 18408880746061632975
11796584 16 16056881338067243019
12236239 1 18131631162925306308
12251169 10 18408042914069629282
12403259 415 18408329895463964888
12403814 3 18059855048158991621
12422481 6 18337388365329796714
12553582 1 18337934741252556797
12633257 1 18186807959115735152
12839892 36 18335996328170706786
13140716 1 18336547092837068578
13224815 77 18335697230420369454
13583140 156 17489322900637561938
13675066 3 18131349700216293113
14178342 30 18261664901004586987
14223421 5 18263925608458995006
14341114 176 18335700572590780122
14341114 328 17748824094755052696
14787075 74 18336832970313733986
14790565 3 18049998892705396284
15163728 17 14202497885577088379
15196674 1 18408323259100896794
15209294 21 17676479566757554403
15375358 24 18409449210926999223
15536298 74 18113891693345658190
15788980 27 17918276441439258065
16945 1 18260539065289891957
17349148 13 18272931609465209566
1813 80 17489585680054176318
18186145 218 18187356632286472046
19141452 34 18409729547990629471
200 152 18040725749180409271
20715895 44 18127419066955263477
20775438 99 12315471778650086777
21033648 29 18268732604566144624
21267235 1 18410285891709732854
21421861 104 18057608861451292506
21857420 4 13966321344199313611
22182313 1 18268428125511812829
23184049 59 18409165498024381518
23402539 116 18411146817872340287
23557571 272 17775007937589088413
23559900 14 17969202504887781324
26918003 58 18413110567172264193
2748010 2 18196080273795533821
296302 2 15502091955636407750
34934 24 18335424595050966767
350125 39 18408887318015937976
3633792 109 17969787565633470097
392239 28 18040436555677917816
474 4 17967532359193034850
5104073 3 18337107860889153427
633830 44 17676199152738258812
7064713 232 18186517704772047818
9709674 26 18189333631297162790

> <PUBCHEM_SHAPE_MULTIPOLES>
455.72
9.53
2.16
1.33
2.48
0.33
0.01
0.25
-3.84
0.02
0.39
-0.32
-0.31
0.03

> <PUBCHEM_SHAPE_SELFOVERLAP>
977.599

> <PUBCHEM_SHAPE_VOLUME>
249.4

> <PUBCHEM_COORDINATE_TYPE>
2
5
10

$$$$

