17395571
  -OEChem-06241222513D

 42 45  0     0  0  0  0  0  0999 V2000
    1.1702    3.6451    0.1923 S   0  0  0  0  0  0  0  0  0  0  0  0
   -2.1378    2.8059   -0.3856 O   0  0  0  0  0  0  0  0  0  0  0  0
   -4.7768   -0.2423   -1.2636 O   0  0  0  0  0  0  0  0  0  0  0  0
   -3.0679    1.8764    0.0637 N   0  0  0  0  0  0  0  0  0  0  0  0
    3.3888    0.8340    1.7120 N   0  0  0  0  0  0  0  0  0  0  0  0
    2.5495    1.3597   -0.3500 N   0  0  0  0  0  0  0  0  0  0  0  0
    2.6590    1.9591    1.7486 N   0  0  0  0  0  0  0  0  0  0  0  0
   -3.0929   -0.5073    0.4320 C   0  0  0  0  0  0  0  0  0  0  0  0
   -2.4290    0.7035    0.0289 C   0  0  0  0  0  0  0  0  0  0  0  0
   -0.9736    2.1706   -0.6758 C   0  0  0  0  0  0  0  0  0  0  0  0
   -1.1061    0.8298   -0.4291 C   0  0  0  0  0  0  0  0  0  0  0  0
    0.1517    3.0287   -1.1780 C   0  0  0  0  0  0  0  0  0  0  0  0
   -4.2440   -0.9450   -0.2233 C   0  0  0  0  0  0  0  0  0  0  0  0
   -2.5711   -1.2464    1.4936 C   0  0  0  0  0  0  0  0  0  0  0  0
    3.9406   -0.6694   -0.0954 C   0  0  0  0  0  0  0  0  0  0  0  0
    3.2916    0.5110    0.4206 C   0  0  0  0  0  0  0  0  0  0  0  0
   -4.8729   -2.1219    0.1831 C   0  0  0  0  0  0  0  0  0  0  0  0
   -3.2002   -2.4232    1.9001 C   0  0  0  0  0  0  0  0  0  0  0  0
    2.1640    2.2648    0.5192 C   0  0  0  0  0  0  0  0  0  0  0  0
   -4.3511   -2.8609    1.2448 C   0  0  0  0  0  0  0  0  0  0  0  0
    3.3883   -1.3505   -1.1802 C   0  0  0  0  0  0  0  0  0  0  0  0
    5.1197   -1.1304    0.4903 C   0  0  0  0  0  0  0  0  0  0  0  0
    4.0147   -2.4924   -1.6792 C   0  0  0  0  0  0  0  0  0  0  0  0
    5.7462   -2.2724   -0.0088 C   0  0  0  0  0  0  0  0  0  0  0  0
    5.1937   -2.9533   -1.0936 C   0  0  0  0  0  0  0  0  0  0  0  0
   -5.9545   -0.7731   -1.8665 C   0  0  0  0  0  0  0  0  0  0  0  0
   -0.3555    0.0643   -0.5638 H   0  0  0  0  0  0  0  0  0  0  0  0
    0.7586    2.4818   -1.9068 H   0  0  0  0  0  0  0  0  0  0  0  0
   -0.2648    3.8966   -1.7009 H   0  0  0  0  0  0  0  0  0  0  0  0
   -1.6767   -0.9211    2.0201 H   0  0  0  0  0  0  0  0  0  0  0  0
   -5.7687   -2.5264   -0.2747 H   0  0  0  0  0  0  0  0  0  0  0  0
   -2.7945   -2.9983    2.7272 H   0  0  0  0  0  0  0  0  0  0  0  0
   -4.8401   -3.7774    1.5624 H   0  0  0  0  0  0  0  0  0  0  0  0
    2.4677   -1.0118   -1.6496 H   0  0  0  0  0  0  0  0  0  0  0  0
    5.5836   -0.6172    1.3289 H   0  0  0  0  0  0  0  0  0  0  0  0
    3.8343    0.4427    2.5377 H   0  0  0  0  0  0  0  0  0  0  0  0
    3.5842   -3.0234   -2.5232 H   0  0  0  0  0  0  0  0  0  0  0  0
    6.6658   -2.6301    0.4452 H   0  0  0  0  0  0  0  0  0  0  0  0
    5.6817   -3.8423   -1.4824 H   0  0  0  0  0  0  0  0  0  0  0  0
   -6.2381   -0.0889   -2.6732 H   0  0  0  0  0  0  0  0  0  0  0  0
   -6.7943   -0.7966   -1.1635 H   0  0  0  0  0  0  0  0  0  0  0  0
   -5.7682   -1.7476   -2.3308 H   0  0  0  0  0  0  0  0  0  0  0  0
  1 12  1  0  0  0  0
  1 19  1  0  0  0  0
  2  4  1  0  0  0  0
  2 10  1  0  0  0  0
  3 13  1  0  0  0  0
  3 26  1  0  0  0  0
  4  9  2  0  0  0  0
  5  7  1  0  0  0  0
  5 16  1  0  0  0  0
  5 36  1  0  0  0  0
  6 16  2  0  0  0  0
  6 19  1  0  0  0  0
  7 19  2  0  0  0  0
  8  9  1  0  0  0  0
  8 13  1  0  0  0  0
  8 14  2  0  0  0  0
  9 11  1  0  0  0  0
 10 11  2  0  0  0  0
 10 12  1  0  0  0  0
 11 27  1  0  0  0  0
 12 28  1  0  0  0  0
 12 29  1  0  0  0  0
 13 17  2  0  0  0  0
 14 18  1  0  0  0  0
 14 30  1  0  0  0  0
 15 16  1  0  0  0  0
 15 21  2  0  0  0  0
 15 22  1  0  0  0  0
 17 20  1  0  0  0  0
 17 31  1  0  0  0  0
 18 20  2  0  0  0  0
 18 32  1  0  0  0  0
 20 33  1  0  0  0  0
 21 23  1  0  0  0  0
 21 34  1  0  0  0  0
 22 24  2  0  0  0  0
 22 35  1  0  0  0  0
 23 25  2  0  0  0  0
 23 37  1  0  0  0  0
 24 25  1  0  0  0  0
 24 38  1  0  0  0  0
 25 39  1  0  0  0  0
 26 40  1  0  0  0  0
 26 41  1  0  0  0  0
 26 42  1  0  0  0  0
M  END
> <PUBCHEM_COMPOUND_CID>
17395571

> <PUBCHEM_CONFORMER_RMSD>
1

> <PUBCHEM_CONFORMER_DIVERSEORDER>
11
59
120
66
133
63
106
55
144
76
128
150
71
28
46
101
29
57
139
40
65
48
146
135
85
90
70
68
17
87
34
91
118
3
62
77
2
142
130
95
137
36
145
50
13
103
82
93
96
110
141
12
125
14
45
74
72
116
69
97
10
149
134
39
56
32
22
8
83
21
18
123
25
140
15
52
38
41
9
107
88
27
5
147
31
60
1
4
73
49
78
43
138
47
86
119
30
44
99
35
33
61
112
26
148
113
42
6
131
114
102
23
132
19
81
79
54
129
108
89
37
7
111
80
53
109
24
51
94
104
100
67
98
16
75
84
20
143
124
58
136
92
115
126
105
122
117
64
127
121

> <PUBCHEM_MMFF94_PARTIAL_CHARGES>
37
1 -0.28
10 -0.04
11 -0.15
12 0.41
13 0.08
14 -0.15
15 0.05
16 0.13
17 -0.15
18 -0.15
19 0.57
2 -0.02
20 -0.15
21 -0.15
22 -0.15
23 -0.15
24 -0.15
25 -0.15
26 0.28
27 0.15
3 -0.36
30 0.15
31 0.15
32 0.15
33 0.15
34 0.15
35 0.15
36 0.27
37 0.15
38 0.15
39 0.15
4 -0.41
5 0.3
6 -0.57
7 -0.71
8 0.05
9 0.23

> <PUBCHEM_EFFECTIVE_ROTOR_COUNT>
6

> <PUBCHEM_PHARMACOPHORE_FEATURES>
9
1 3 acceptor
1 4 acceptor
1 5 donor
3 5 6 16 cation
3 6 7 19 cation
5 2 4 9 10 11 rings
5 5 6 7 16 19 rings
6 15 21 22 23 24 25 rings
6 8 13 14 17 18 20 rings

> <PUBCHEM_HEAVY_ATOM_COUNT>
26

> <PUBCHEM_ATOM_DEF_STEREO_COUNT>
0

> <PUBCHEM_ATOM_UDEF_STEREO_COUNT>
0

> <PUBCHEM_BOND_DEF_STEREO_COUNT>
0

> <PUBCHEM_BOND_UDEF_STEREO_COUNT>
0

> <PUBCHEM_ISOTOPIC_ATOM_COUNT>
0

> <PUBCHEM_COMPONENT_COUNT>
1

> <PUBCHEM_CACTVS_TAUTO_COUNT>
3

> <PUBCHEM_CONFORMER_ID>
01096F730000000B

> <PUBCHEM_MMFF94_ENERGY>
75.3792

> <PUBCHEM_FEATURE_SELFOVERLAP>
48.419

> <PUBCHEM_SHAPE_FINGERPRINT>
10928967 22 18131343133285515250
11828532 37 18059287644119717763
13402501 40 18263644129303517574
13533116 47 18262518070751851865
1361 87 18201147780764356859
13911882 115 18408605843007403696
13965767 371 5905784215146542496
14866123 147 18267864068111482809
15052358 14 17988376939877909973
15352361 1 18411698798732274270
15361156 5 18408882957880418893
15510800 12 18411422786674902731
17859628 70 18193550065290429936
19315092 285 17095816403861900603
1979834 28 18120375350248243856
20403669 9 18411135861574337398
20775530 9 18338507638255192762
21279426 13 18200890513008810021
21307412 95 18267306615335983333
21315763 87 17676784110109593882
23559900 14 18272371928003246509
23572383 38 18269284464929357699
2838139 119 9871462089653586216
329604 57 18341322362874857814
404807 14 17172913300414246031
4573279 150 17769896231465920171
508706 21 18341610476964088290
5207 123 18412269423950873205
5309563 4 18409164415677208046
5326457 24 17679031400540058215
613672 6 18270131118831406777
6823239 73 18341615906234923312
9709674 26 18340489976200278457
9980921 177 17906126821880767923

> <PUBCHEM_SHAPE_MULTIPOLES>
507.25
13.7
4.45
1.62
0.42
1.83
0.08
-14.07
-2.41
1.71
-0.07
-0.57
-0.63
3.08

> <PUBCHEM_SHAPE_SELFOVERLAP>
1102.46

> <PUBCHEM_SHAPE_VOLUME>
279.5

> <PUBCHEM_COORDINATE_TYPE>
2
5
10

$$$$

