54675758
  -OEChem-07051212472D

 53 56  0     1  0  0  0  0  0999 V2000
    6.0678    1.5754    0.0000 O   0  0  0  0  0  0  0  0  0  0  0  0
    4.8427    2.0536    0.0000 O   0  0  0  0  0  0  0  0  0  0  0  0
    6.9338    2.0754    0.0000 O   0  0  0  0  0  0  0  0  0  0  0  0
    3.4037   -0.9488    0.0000 O   0  0  0  0  0  0  0  0  0  0  0  0
    8.6822    2.1100    0.0000 O   0  0  0  0  0  0  0  0  0  0  0  0
    3.4075    2.0995    0.0000 O   0  0  0  0  0  0  0  0  0  0  0  0
   10.5194    2.1530    0.0000 O   0  0  0  0  0  0  0  0  0  0  0  0
    5.1854   -1.9592    0.0000 N   0  0  0  0  0  0  0  0  0  0  0  0
    2.5357    0.6029    0.0000 N   0  0  0  0  0  0  0  0  0  0  0  0
    6.0678   -0.4246    0.0000 C   0  0  2  0  0  0  0  0  0  0  0  0
    6.0678    0.5754    0.0000 C   0  0  1  0  0  0  0  0  0  0  0  0
    5.1738   -0.9593    0.0000 C   0  0  1  0  0  0  0  0  0  0  0  0
    6.9338   -0.9246    0.0000 C   0  0  0  0  0  0  0  0  0  0  0  0
    7.7998   -0.4246    0.0000 C   0  0  0  0  0  0  0  0  0  0  0  0
    6.9338    1.0754    0.0000 C   0  0  0  0  0  0  0  0  0  0  0  0
    5.1738    1.1100    0.0000 C   0  0  0  0  0  0  0  0  0  0  0  0
    7.7998    0.5754    0.0000 C   0  0  0  0  0  0  0  0  0  0  0  0
    4.2678   -0.4455    0.0000 C   0  0  0  0  0  0  0  0  0  0  0  0
    4.2678    0.5962    0.0000 C   0  0  0  0  0  0  0  0  0  0  0  0
    8.6938   -0.9593    0.0000 C   0  0  0  0  0  0  0  0  0  0  0  0
    8.6938    1.1100    0.0000 C   0  0  0  0  0  0  0  0  0  0  0  0
    9.5998   -0.4455    0.0000 C   0  0  0  0  0  0  0  0  0  0  0  0
    9.5998    0.5962    0.0000 C   0  0  0  0  0  0  0  0  0  0  0  0
    4.3252   -2.4692    0.0000 C   0  0  0  0  0  0  0  0  0  0  0  0
    6.0572   -2.4492    0.0000 C   0  0  0  0  0  0  0  0  0  0  0  0
    8.6822   -1.9592    0.0000 C   0  0  0  0  0  0  0  0  0  0  0  0
    3.4037    1.0995    0.0000 C   0  0  0  0  0  0  0  0  0  0  0  0
   10.5310   -1.0024    0.0000 C   0  0  0  0  0  0  0  0  0  0  0  0
   10.5310    1.1531    0.0000 C   0  0  0  0  0  0  0  0  0  0  0  0
   11.4748   -0.4671    0.0000 C   0  0  0  0  0  0  0  0  0  0  0  0
   11.4748    0.6179    0.0000 C   0  0  0  0  0  0  0  0  0  0  0  0
    6.0743   -1.2746    0.0000 H   0  0  0  0  0  0  0  0  0  0  0  0
    5.7149   -1.2620    0.0000 H   0  0  0  0  0  0  0  0  0  0  0  0
    6.5353   -1.3996    0.0000 H   0  0  0  0  0  0  0  0  0  0  0  0
    7.3323   -1.3996    0.0000 H   0  0  0  0  0  0  0  0  0  0  0  0
    5.6693    2.0503    0.0000 H   0  0  0  0  0  0  0  0  0  0  0  0
    5.7534   -2.9897    0.0000 H   0  0  0  0  0  0  0  0  0  0  0  0
    6.5976   -2.7530    0.0000 H   0  0  0  0  0  0  0  0  0  0  0  0
    6.3609   -1.9087    0.0000 H   0  0  0  0  0  0  0  0  0  0  0  0
    4.0090   -1.9359    0.0000 H   0  0  0  0  0  0  0  0  0  0  0  0
    3.7919   -2.7854    0.0000 H   0  0  0  0  0  0  0  0  0  0  0  0
    4.6414   -3.0025    0.0000 H   0  0  0  0  0  0  0  0  0  0  0  0
    8.0622   -1.9521    0.0000 H   0  0  0  0  0  0  0  0  0  0  0  0
    8.6750   -2.5792    0.0000 H   0  0  0  0  0  0  0  0  0  0  0  0
    9.3022   -1.9664    0.0000 H   0  0  0  0  0  0  0  0  0  0  0  0
    4.2334    2.1683    0.0000 H   0  0  0  0  0  0  0  0  0  0  0  0
   10.5238   -1.6223    0.0000 H   0  0  0  0  0  0  0  0  0  0  0  0
    9.2155    2.4261    0.0000 H   0  0  0  0  0  0  0  0  0  0  0  0
   12.0105   -0.7792    0.0000 H   0  0  0  0  0  0  0  0  0  0  0  0
   12.0105    0.9299    0.0000 H   0  0  0  0  0  0  0  0  0  0  0  0
    2.0000    0.9149    0.0000 H   0  0  0  0  0  0  0  0  0  0  0  0
    2.5334   -0.0171    0.0000 H   0  0  0  0  0  0  0  0  0  0  0  0
   11.0528    2.4692    0.0000 H   0  0  0  0  0  0  0  0  0  0  0  0
 11  1  1  6  0  0  0
  1 36  1  0  0  0  0
  2 16  1  0  0  0  0
  2 46  1  0  0  0  0
  3 15  2  0  0  0  0
  4 18  2  0  0  0  0
  5 21  1  0  0  0  0
  5 48  1  0  0  0  0
  6 27  2  0  0  0  0
  7 29  1  0  0  0  0
  7 53  1  0  0  0  0
 12  8  1  6  0  0  0
  8 24  1  0  0  0  0
  8 25  1  0  0  0  0
  9 27  1  0  0  0  0
  9 51  1  0  0  0  0
  9 52  1  0  0  0  0
 10 11  1  0  0  0  0
 10 12  1  0  0  0  0
 10 13  1  0  0  0  0
 10 32  1  6  0  0  0
 11 15  1  0  0  0  0
 11 16  1  0  0  0  0
 12 18  1  0  0  0  0
 12 33  1  0  0  0  0
 13 14  1  0  0  0  0
 13 34  1  0  0  0  0
 13 35  1  0  0  0  0
 14 17  1  0  0  0  0
 14 20  2  0  0  0  0
 15 17  1  0  0  0  0
 16 19  2  0  0  0  0
 17 21  2  0  0  0  0
 18 19  1  0  0  0  0
 19 27  1  0  0  0  0
 20 22  1  0  0  0  0
 20 26  1  0  0  0  0
 21 23  1  0  0  0  0
 22 23  2  0  0  0  0
 22 28  1  0  0  0  0
 23 29  1  0  0  0  0
 24 40  1  0  0  0  0
 24 41  1  0  0  0  0
 24 42  1  0  0  0  0
 25 37  1  0  0  0  0
 25 38  1  0  0  0  0
 25 39  1  0  0  0  0
 26 43  1  0  0  0  0
 26 44  1  0  0  0  0
 26 45  1  0  0  0  0
 28 30  2  0  0  0  0
 28 47  1  0  0  0  0
 29 31  2  0  0  0  0
 30 31  1  0  0  0  0
 30 49  1  0  0  0  0
 31 50  1  0  0  0  0
M  END
> <PUBCHEM_COMPOUND_CID>
54675758

> <PUBCHEM_COMPOUND_CANONICALIZED>
1

> <PUBCHEM_CACTVS_COMPLEXITY>
855

> <PUBCHEM_CACTVS_HBOND_ACCEPTOR>
8

> <PUBCHEM_CACTVS_HBOND_DONOR>
5

> <PUBCHEM_CACTVS_ROTATABLE_BOND>
2

> <PUBCHEM_CACTVS_SUBSKEYS>
AAADceB7OAAAAAAAAAAAAAAAAAAAAAAAAAAwYMEAAAAAAADBUAAAHgAQCAAADWzBmAQyBsNAAgCIAqFSEAKCAAAkIAAIiAHOCMgJJz6KlTKEcUAn4BUJmQf+7vTu4AADAAAYAADAAAYAADAAAAAAAAAAAA==

> <PUBCHEM_IUPAC_OPENEYE_NAME>
(4S,4aS,12aR)-4-(dimethylamino)-1,10,11,12a-tetrahydroxy-6-methyl-3,12-dioxo-4a,5-dihydro-4H-tetracene-2-carboxamide

> <PUBCHEM_IUPAC_CAS_NAME>
(4S,4aS,12aR)-4-(dimethylamino)-1,10,11,12a-tetrahydroxy-6-methyl-3,12-dioxo-4a,5-dihydro-4H-tetracene-2-carboxamide

> <PUBCHEM_IUPAC_NAME>
(4S,4aS,12aR)-4-(dimethylamino)-1,10,11,12a-tetrahydroxy-6-methyl-3,12-dioxo-4a,5-dihydro-4H-tetracene-2-carboxamide

> <PUBCHEM_IUPAC_SYSTEMATIC_NAME>
(4S,4aS,12aR)-4-(dimethylamino)-6-methyl-1,10,11,12a-tetrakis(oxidanyl)-3,12-bis(oxidanylidene)-4a,5-dihydro-4H-tetracene-2-carboxamide

> <PUBCHEM_IUPAC_TRADITIONAL_NAME>
(4S,4aS,12aR)-4-(dimethylamino)-1,10,11,12a-tetrahydroxy-3,12-diketo-6-methyl-4a,5-dihydro-4H-tetracene-2-carboxamide

> <PUBCHEM_IUPAC_INCHI>
InChI=1S/C22H22N2O7/c1-8-9-5-4-6-12(25)13(9)17(26)14-10(8)7-11-16(24(2)3)18(27)15(21(23)30)20(29)22(11,31)19(14)28/h4-6,11,16,25-26,29,31H,7H2,1-3H3,(H2,23,30)/t11-,16-,22-/m0/s1

> <PUBCHEM_IUPAC_INCHIKEY>
KTTKGQINVKPHLY-DOCRCCHOSA-N

> <PUBCHEM_XLOGP3_AA>
2.4

> <PUBCHEM_EXACT_MASS>
426.142701

> <PUBCHEM_MOLECULAR_FORMULA>
C22H22N2O7

> <PUBCHEM_MOLECULAR_WEIGHT>
426.41928

> <PUBCHEM_OPENEYE_CAN_SMILES>
CC1=C2CC3C(C(=O)C(=C(C3(C(=O)C2=C(C4=C1C=CC=C4O)O)O)O)C(=O)N)N(C)C

> <PUBCHEM_OPENEYE_ISO_SMILES>
CC1=C2C[C@H]3[C@@H](C(=O)C(=C([C@]3(C(=O)C2=C(C4=C1C=CC=C4O)O)O)O)C(=O)N)N(C)C

> <PUBCHEM_CACTVS_TPSA>
161

> <PUBCHEM_MONOISOTOPIC_WEIGHT>
426.142701

> <PUBCHEM_TOTAL_CHARGE>
0

> <PUBCHEM_HEAVY_ATOM_COUNT>
31

> <PUBCHEM_ATOM_DEF_STEREO_COUNT>
3

> <PUBCHEM_ATOM_UDEF_STEREO_COUNT>
0

> <PUBCHEM_BOND_DEF_STEREO_COUNT>
0

> <PUBCHEM_BOND_UDEF_STEREO_COUNT>
0

> <PUBCHEM_ISOTOPIC_ATOM_COUNT>
0

> <PUBCHEM_COMPONENT_COUNT>
1

> <PUBCHEM_CACTVS_TAUTO_COUNT>
708

> <PUBCHEM_COORDINATE_TYPE>
1
5
255

> <PUBCHEM_BONDANNOTATIONS>
11  1  6
10  32  6
14  17  8
14  20  8
17  21  8
20  22  8
21  23  8
22  23  8
22  28  8
23  29  8
28  30  8
29  31  8
30  31  8
12  8  6

$$$$

