14223
  -OEChem-07051213133D

 19 18  0     0  0  0  0  0  0999 V2000
    3.1611   -1.4378    0.0103 O   0  0  0  0  0  0  0  0  0  0  0  0
   -3.2358   -1.3202   -0.0044 O   0  0  0  0  0  0  0  0  0  0  0  0
   -0.1544    2.5071   -0.4443 O   0  0  0  0  0  0  0  0  0  0  0  0
    0.0059    0.4544    0.0427 N   0  0  0  0  0  0  0  0  0  0  0  0
    0.3026    1.6980    0.3720 N   0  0  0  0  0  0  0  0  0  0  0  0
    1.0159   -0.4939    0.4883 C   0  0  0  0  0  0  0  0  0  0  0  0
   -1.3242    0.0234    0.5073 C   0  0  0  0  0  0  0  0  0  0  0  0
    2.1945   -0.5135   -0.4719 C   0  0  0  0  0  0  0  0  0  0  0  0
   -1.9657   -0.9174   -0.5001 C   0  0  0  0  0  0  0  0  0  0  0  0
    0.6220   -1.5195    0.5172 H   0  0  0  0  0  0  0  0  0  0  0  0
    1.3548   -0.2985    1.5164 H   0  0  0  0  0  0  0  0  0  0  0  0
   -2.0032    0.8827    0.6164 H   0  0  0  0  0  0  0  0  0  0  0  0
   -1.2904   -0.4293    1.5086 H   0  0  0  0  0  0  0  0  0  0  0  0
    2.6754    0.4676   -0.5444 H   0  0  0  0  0  0  0  0  0  0  0  0
    1.8821   -0.8297   -1.4730 H   0  0  0  0  0  0  0  0  0  0  0  0
   -1.3688   -1.8214   -0.6528 H   0  0  0  0  0  0  0  0  0  0  0  0
   -2.1091   -0.4331   -1.4719 H   0  0  0  0  0  0  0  0  0  0  0  0
    3.8993   -1.4348   -0.6226 H   0  0  0  0  0  0  0  0  0  0  0  0
   -3.7832   -0.5216    0.0862 H   0  0  0  0  0  0  0  0  0  0  0  0
  1  8  1  0  0  0  0
  1 18  1  0  0  0  0
  2  9  1  0  0  0  0
  2 19  1  0  0  0  0
  3  5  2  0  0  0  0
  4  5  1  0  0  0  0
  4  6  1  0  0  0  0
  4  7  1  0  0  0  0
  6  8  1  0  0  0  0
  6 10  1  0  0  0  0
  6 11  1  0  0  0  0
  7  9  1  0  0  0  0
  7 12  1  0  0  0  0
  7 13  1  0  0  0  0
  8 14  1  0  0  0  0
  8 15  1  0  0  0  0
  9 16  1  0  0  0  0
  9 17  1  0  0  0  0
M  END
> <PUBCHEM_COMPOUND_CID>
14223

> <PUBCHEM_CONFORMER_RMSD>
0.6

> <PUBCHEM_CONFORMER_DIVERSEORDER>
1
53
60
42
54
61
4
75
33
74
59
48
15
28
62
5
38
35
77
67
27
79
10
30
45
22
64
41
76
16
73
11
52
14
68
18
20
57
65
39
56
55
31
2
66
12
78
43
23
63
72
37
51
21
69
44
70
49
13
26
32
3
71
47
36
50
8
25
6
29
46
9
19
17
7
24
34
40
58

> <PUBCHEM_MMFF94_PARTIAL_CHARGES>
11
1 -0.68
18 0.4
19 0.4
2 -0.68
3 -0.16
4 -0.36
5 -0.01
6 0.27
7 0.27
8 0.28
9 0.28

> <PUBCHEM_EFFECTIVE_ROTOR_COUNT>
5

> <PUBCHEM_PHARMACOPHORE_FEATURES>
4
1 1 acceptor
1 1 donor
1 2 acceptor
1 2 donor

> <PUBCHEM_HEAVY_ATOM_COUNT>
9

> <PUBCHEM_ATOM_DEF_STEREO_COUNT>
0

> <PUBCHEM_ATOM_UDEF_STEREO_COUNT>
0

> <PUBCHEM_BOND_DEF_STEREO_COUNT>
0

> <PUBCHEM_BOND_UDEF_STEREO_COUNT>
0

> <PUBCHEM_ISOTOPIC_ATOM_COUNT>
0

> <PUBCHEM_COMPONENT_COUNT>
1

> <PUBCHEM_CACTVS_TAUTO_COUNT>
1

> <PUBCHEM_CONFORMER_ID>
0000378F00000001

> <PUBCHEM_MMFF94_ENERGY>
13.401

> <PUBCHEM_FEATURE_SELFOVERLAP>
20.297

> <PUBCHEM_SHAPE_FINGERPRINT>
14128692 85 18187641336936261775
14390081 3 10880003458015525463
20653085 51 14045449090024855166
20711985 344 18194978549853411825
21040471 1 17474676521224613248
23552423 10 18272364330227107810
23552449 1 18192714664371202432
29004967 10 18338239266944081779

> <PUBCHEM_SHAPE_MULTIPOLES>
157.65
3.98
1.98
0.72
0.02
1.51
0
-3.28
0.31
0
0.23
0.01
0
-0.06

> <PUBCHEM_SHAPE_SELFOVERLAP>
285.748

> <PUBCHEM_SHAPE_VOLUME>
102.1

> <PUBCHEM_COORDINATE_TYPE>
2
5
10

$$$$

