5281705
  -OEChem-07051212593D

 32 34  0     0  0  0  0  0  0999 V2000
   -2.0964   -1.8183   -0.3531 O   0  0  0  0  0  0  0  0  0  0  0  0
   -0.4883    1.8803    0.2695 O   0  0  0  0  0  0  0  0  0  0  0  0
    5.5737   -0.0490    0.1344 O   0  0  0  0  0  0  0  0  0  0  0  0
    1.4381   -0.7096    2.2863 O   0  0  0  0  0  0  0  0  0  0  0  0
   -6.5149   -0.0936   -0.1342 O   0  0  0  0  0  0  0  0  0  0  0  0
    4.1133    0.2212   -2.2225 O   0  0  0  0  0  0  0  0  0  0  0  0
   -0.1128   -0.4418   -0.1022 C   0  0  0  0  0  0  0  0  0  0  0  0
   -2.4204    0.5568    0.0279 C   0  0  0  0  0  0  0  0  0  0  0  0
    1.3215   -0.3390   -0.0658 C   0  0  0  0  0  0  0  0  0  0  0  0
   -0.9611    0.7666    0.0821 C   0  0  0  0  0  0  0  0  0  0  0  0
   -2.9139   -0.7297   -0.1877 C   0  0  0  0  0  0  0  0  0  0  0  0
   -0.7397   -1.6094   -0.3003 C   0  0  0  0  0  0  0  0  0  0  0  0
   -3.3012    1.6296    0.1897 C   0  0  0  0  0  0  0  0  0  0  0  0
    2.0328   -0.4946    1.2341 C   0  0  0  0  0  0  0  0  0  0  0  0
    2.0256   -0.1059   -1.1810 C   0  0  0  0  0  0  0  0  0  0  0  0
   -4.2905   -0.9508   -0.2426 C   0  0  0  0  0  0  0  0  0  0  0  0
   -5.1714    0.1186   -0.0812 C   0  0  0  0  0  0  0  0  0  0  0  0
    3.4999    0.0058   -1.1824 C   0  0  0  0  0  0  0  0  0  0  0  0
    3.5078   -0.3827    1.2311 C   0  0  0  0  0  0  0  0  0  0  0  0
   -4.6776    1.4058    0.1344 C   0  0  0  0  0  0  0  0  0  0  0  0
    4.1991   -0.1499    0.1114 C   0  0  0  0  0  0  0  0  0  0  0  0
    5.9763    1.2896    0.3522 C   0  0  0  0  0  0  0  0  0  0  0  0
   -0.2241   -2.5509   -0.4452 H   0  0  0  0  0  0  0  0  0  0  0  0
   -2.9374    2.6391    0.3584 H   0  0  0  0  0  0  0  0  0  0  0  0
    1.5371    0.0133   -2.1441 H   0  0  0  0  0  0  0  0  0  0  0  0
   -4.6773   -1.9528   -0.4106 H   0  0  0  0  0  0  0  0  0  0  0  0
    4.0117   -0.4997    2.1852 H   0  0  0  0  0  0  0  0  0  0  0  0
   -5.3565    2.2451    0.2612 H   0  0  0  0  0  0  0  0  0  0  0  0
   -6.9734    0.7542   -0.0029 H   0  0  0  0  0  0  0  0  0  0  0  0
    7.0700    1.3228    0.3400 H   0  0  0  0  0  0  0  0  0  0  0  0
    5.6106    1.9516   -0.4406 H   0  0  0  0  0  0  0  0  0  0  0  0
    5.6396    1.6525    1.3296 H   0  0  0  0  0  0  0  0  0  0  0  0
  1 11  1  0  0  0  0
  1 12  1  0  0  0  0
  2 10  2  0  0  0  0
  3 21  1  0  0  0  0
  3 22  1  0  0  0  0
  4 14  2  0  0  0  0
  5 17  1  0  0  0  0
  5 29  1  0  0  0  0
  6 18  2  0  0  0  0
  7  9  1  0  0  0  0
  7 10  1  0  0  0  0
  7 12  2  0  0  0  0
  8 10  1  0  0  0  0
  8 11  2  0  0  0  0
  8 13  1  0  0  0  0
  9 14  1  0  0  0  0
  9 15  2  0  0  0  0
 11 16  1  0  0  0  0
 12 23  1  0  0  0  0
 13 20  2  0  0  0  0
 13 24  1  0  0  0  0
 14 19  1  0  0  0  0
 15 18  1  0  0  0  0
 15 25  1  0  0  0  0
 16 17  2  0  0  0  0
 16 26  1  0  0  0  0
 17 20  1  0  0  0  0
 18 21  1  0  0  0  0
 19 21  2  0  0  0  0
 19 27  1  0  0  0  0
 20 28  1  0  0  0  0
 22 30  1  0  0  0  0
 22 31  1  0  0  0  0
 22 32  1  0  0  0  0
M  END
> <PUBCHEM_COMPOUND_CID>
5281705

> <PUBCHEM_CONFORMER_RMSD>
0.6

> <PUBCHEM_CONFORMER_DIVERSEORDER>
1
3
4
2
5
6

> <PUBCHEM_MMFF94_PARTIAL_CHARGES>
29
1 -0.16
10 0.47
11 0.08
12 -0.07
13 -0.15
14 0.54
15 -0.14
16 -0.15
17 0.08
18 0.54
19 -0.14
2 -0.57
20 -0.15
21 0.09
22 0.28
23 0.15
24 0.15
25 0.15
26 0.15
27 0.15
28 0.15
29 0.45
3 -0.36
4 -0.57
5 -0.53
6 -0.57
7 0.01
8 0.09
9 0.01

> <PUBCHEM_EFFECTIVE_ROTOR_COUNT>
2

> <PUBCHEM_PHARMACOPHORE_FEATURES>
9
1 1 acceptor
1 2 acceptor
1 3 acceptor
1 4 acceptor
1 5 donor
1 6 acceptor
6 1 7 8 10 11 12 rings
6 8 11 13 16 17 20 rings
6 9 14 15 18 19 21 rings

> <PUBCHEM_HEAVY_ATOM_COUNT>
22

> <PUBCHEM_ATOM_DEF_STEREO_COUNT>
0

> <PUBCHEM_ATOM_UDEF_STEREO_COUNT>
0

> <PUBCHEM_BOND_DEF_STEREO_COUNT>
0

> <PUBCHEM_BOND_UDEF_STEREO_COUNT>
0

> <PUBCHEM_ISOTOPIC_ATOM_COUNT>
0

> <PUBCHEM_COMPONENT_COUNT>
1

> <PUBCHEM_CACTVS_TAUTO_COUNT>
5

> <PUBCHEM_CONFORMER_ID>
005097A900000001

> <PUBCHEM_MMFF94_ENERGY>
69.2921

> <PUBCHEM_FEATURE_SELFOVERLAP>
45.702

> <PUBCHEM_SHAPE_FINGERPRINT>
10366900 7 16805327703582530099
10498660 4 18335419131393857665
11578080 2 5760282560124932113
12107183 9 16839403965793684569
12236239 1 18060422421501557066
12390115 104 17896308298708040137
12403259 415 17531258265947898377
12403814 3 17632580478798209509
12616971 3 16917068824256778446
12730499 353 16805042904691528886
12916748 109 18334572460147947888
13533116 47 18131357453386909762
13583140 156 17060327510328843361
13760787 19 17632293454671264467
13911987 19 16226322600480359852
14386348 63 17458062664094570598
14573314 32 17095237046906438433
15342168 16 15768910374035723478
200 152 16774085080705557631
20511986 3 17917164865433061301
20645477 70 15841561807020382698
21033648 29 16733278936145423033
21267235 1 18408318861898281067
21285901 2 17095515245045025132
21792961 116 17313092061211440022
221357 26 16008750242589576137
23175994 123 16587739824170587611
23402539 116 18260836985627904886
23557571 272 18113335297823423960
23559900 14 17749114352850108889
26918003 58 15267339630484575537
300161 21 18060426823943132287
3004659 81 18336261353776004166
3472631 163 18411697643697691644
34797466 226 17894904105756936548
42630746 31 16845574231906908882
4340502 62 16702295763426163547
474 4 17274814723779018052
5104073 3 18265605666874781851
542803 24 17989484130089572214
77492 1 17989490718812283070
8272917 22 16988565757295064371

> <PUBCHEM_SHAPE_MULTIPOLES>
417.53
12.96
1.44
1.26
0.59
0.2
-0.07
2.76
0.86
1.05
-0.03
-1.83
-0.16
-0.19

> <PUBCHEM_SHAPE_SELFOVERLAP>
928.013

> <PUBCHEM_SHAPE_VOLUME>
221

> <PUBCHEM_COORDINATE_TYPE>
2
5
10

$$$$

