13670
  -OEChem-06241222393D

 28 30  0     1  0  0  0  0  0999 V2000
   -2.4810   -0.3963   -0.0475 O   0  0  0  0  0  0  0  0  0  0  0  0
   -1.6817    1.7494    0.1346 O   0  0  0  0  0  0  0  0  0  0  0  0
   -0.2573   -0.0771   -0.0729 N   0  0  0  0  0  0  0  0  0  0  0  0
    0.8809    0.5714   -0.6486 C   0  0  1  0  0  0  0  0  0  0  0  0
    0.8308    0.2648    0.7912 C   0  0  2  0  0  0  0  0  0  0  0  0
    2.0820   -0.2102   -1.1608 C   0  0  2  0  0  0  0  0  0  0  0  0
    2.0062   -0.6743    1.0197 C   0  0  1  0  0  0  0  0  0  0  0  0
    2.0755   -1.4802   -0.2905 C   0  0  0  0  0  0  0  0  0  0  0  0
    3.3472    0.4936   -0.6190 C   0  0  0  0  0  0  0  0  0  0  0  0
    3.2945    0.1710    0.8963 C   0  0  0  0  0  0  0  0  0  0  0  0
   -1.4899    0.5428    0.0161 C   0  0  0  0  0  0  0  0  0  0  0  0
   -3.8204    0.1037    0.0333 C   0  0  0  0  0  0  0  0  0  0  0  0
   -4.7866   -1.0586   -0.0519 C   0  0  0  0  0  0  0  0  0  0  0  0
    0.7657    1.5829   -1.0040 H   0  0  0  0  0  0  0  0  0  0  0  0
    0.6741    1.0449    1.5190 H   0  0  0  0  0  0  0  0  0  0  0  0
    2.0789   -0.3784   -2.2390 H   0  0  0  0  0  0  0  0  0  0  0  0
    1.9339   -1.2667    1.9332 H   0  0  0  0  0  0  0  0  0  0  0  0
    1.1991   -2.1154   -0.4562 H   0  0  0  0  0  0  0  0  0  0  0  0
    2.9848   -2.0832   -0.3872 H   0  0  0  0  0  0  0  0  0  0  0  0
    3.3388    1.5731   -0.8013 H   0  0  0  0  0  0  0  0  0  0  0  0
    4.2548    0.0700   -1.0631 H   0  0  0  0  0  0  0  0  0  0  0  0
    4.1765   -0.4092    1.1888 H   0  0  0  0  0  0  0  0  0  0  0  0
    3.2586    1.0831    1.5009 H   0  0  0  0  0  0  0  0  0  0  0  0
   -3.9568    0.6294    0.9849 H   0  0  0  0  0  0  0  0  0  0  0  0
   -4.0015    0.7972   -0.7955 H   0  0  0  0  0  0  0  0  0  0  0  0
   -5.8221   -0.7117    0.0069 H   0  0  0  0  0  0  0  0  0  0  0  0
   -4.6496   -1.6057   -0.9905 H   0  0  0  0  0  0  0  0  0  0  0  0
   -4.6055   -1.7705    0.7602 H   0  0  0  0  0  0  0  0  0  0  0  0
  1 11  1  0  0  0  0
  1 12  1  0  0  0  0
  2 11  2  0  0  0  0
  3  4  1  0  0  0  0
  3  5  1  0  0  0  0
  3 11  1  0  0  0  0
  4  5  1  0  0  0  0
  4  6  1  0  0  0  0
  4 14  1  0  0  0  0
  5  7  1  0  0  0  0
  5 15  1  0  0  0  0
  6  8  1  0  0  0  0
  6  9  1  0  0  0  0
  6 16  1  0  0  0  0
  7  8  1  0  0  0  0
  7 10  1  0  0  0  0
  7 17  1  0  0  0  0
  8 18  1  0  0  0  0
  8 19  1  0  0  0  0
  9 10  1  0  0  0  0
  9 20  1  0  0  0  0
  9 21  1  0  0  0  0
 10 22  1  0  0  0  0
 10 23  1  0  0  0  0
 12 13  1  0  0  0  0
 12 24  1  0  0  0  0
 12 25  1  0  0  0  0
 13 26  1  0  0  0  0
 13 27  1  0  0  0  0
 13 28  1  0  0  0  0
M  END
> <PUBCHEM_COMPOUND_CID>
13670

> <PUBCHEM_CONFORMER_RMSD>
0.6

> <PUBCHEM_CONFORMER_DIVERSEORDER>
1
25
26
34
30
18
35
27
24
14
9
8
33
29
3
11
15
20
28
12
22
32
21
19
6
13
17
23
2
10
7
4
31
16
5

> <PUBCHEM_MMFF94_PARTIAL_CHARGES>
11
1 -0.43
11 0.78
12 0.28
14 0.1
15 0.1
2 -0.57
3 -0.36
4 -0.05
5 -0.05
6 0.09
7 0.09

> <PUBCHEM_EFFECTIVE_ROTOR_COUNT>
3.8

> <PUBCHEM_PHARMACOPHORE_FEATURES>
2
1 2 acceptor
8 3 4 5 6 7 8 9 10 rings

> <PUBCHEM_HEAVY_ATOM_COUNT>
13

> <PUBCHEM_ATOM_DEF_STEREO_COUNT>
0

> <PUBCHEM_ATOM_UDEF_STEREO_COUNT>
4

> <PUBCHEM_BOND_DEF_STEREO_COUNT>
0

> <PUBCHEM_BOND_UDEF_STEREO_COUNT>
0

> <PUBCHEM_ISOTOPIC_ATOM_COUNT>
0

> <PUBCHEM_COMPONENT_COUNT>
1

> <PUBCHEM_CACTVS_TAUTO_COUNT>
1

> <PUBCHEM_CONFORMER_ID>
0000356600000001

> <PUBCHEM_MMFF94_ENERGY>
51.2183

> <PUBCHEM_FEATURE_SELFOVERLAP>
10.148

> <PUBCHEM_SHAPE_FINGERPRINT>
10219947 1 16056879143866318748
12500047 106 10807926059619619272
12932764 1 17023195958264305277
13296908 3 17968095377792144613
13705890 14 16272205275840173571
13922767 16 12103844540513228110
14252887 29 17749098976904183671
16945 1 18341600504513802352
17844478 74 17095521820423443801
18186145 218 12535353415405355919
200 152 17561369478337531297
20279233 1 18333733515918020907
20281407 28 18259982678405240427
20281475 54 18334292085168220123
20645477 70 15985110733875960995
21501925 9 17846788424679128432
22485316 2 18334016090675274303
23402539 116 18201447977381431471
23402655 69 15626231216886311783
23557571 272 18334291010952045356
276578 36 7204781392779976949
3248919 1 17489575805381134432
522135 26 4967617169549810436
74978 22 9294992579363161381
8030462 33 16199579315874042924

> <PUBCHEM_SHAPE_MULTIPOLES>
250.81
7.35
1.18
0.98
8.78
0.01
0.01
1.53
-0.04
0.24
-0.02
-0.79
0.04
-0.13

> <PUBCHEM_SHAPE_SELFOVERLAP>
535.781

> <PUBCHEM_SHAPE_VOLUME>
145.1

> <PUBCHEM_COORDINATE_TYPE>
2
5
10

$$$$

