11375
  -OEChem-06261205362D

 19 20  0     0  0  0  0  0  0999 V2000
    4.2690    1.2927    0.0000 N   0  0  0  0  0  0  0  0  0  0  0  0
    2.5369   -0.7073    0.0000 N   0  0  0  0  0  0  0  0  0  0  0  0
    5.1350   -0.2073    0.0000 C   0  0  0  0  0  0  0  0  0  0  0  0
    5.1350    0.7927    0.0000 C   0  0  0  0  0  0  0  0  0  0  0  0
    4.2690   -0.7073    0.0000 C   0  0  0  0  0  0  0  0  0  0  0  0
    6.0290   -0.7420    0.0000 C   0  0  0  0  0  0  0  0  0  0  0  0
    3.4030   -0.2073    0.0000 C   0  0  0  0  0  0  0  0  0  0  0  0
    6.0290    1.3273    0.0000 C   0  0  0  0  0  0  0  0  0  0  0  0
    6.9350   -0.2281    0.0000 C   0  0  0  0  0  0  0  0  0  0  0  0
    3.4030    0.7927    0.0000 C   0  0  0  0  0  0  0  0  0  0  0  0
    6.9350    0.8135    0.0000 C   0  0  0  0  0  0  0  0  0  0  0  0
    4.2690   -1.3273    0.0000 H   0  0  0  0  0  0  0  0  0  0  0  0
    6.0218   -1.3620    0.0000 H   0  0  0  0  0  0  0  0  0  0  0  0
    6.0218    1.9473    0.0000 H   0  0  0  0  0  0  0  0  0  0  0  0
    7.4708   -0.5402    0.0000 H   0  0  0  0  0  0  0  0  0  0  0  0
    2.8660    1.1027    0.0000 H   0  0  0  0  0  0  0  0  0  0  0  0
    7.4708    1.1256    0.0000 H   0  0  0  0  0  0  0  0  0  0  0  0
    2.0000   -0.3973    0.0000 H   0  0  0  0  0  0  0  0  0  0  0  0
    2.5369   -1.3273    0.0000 H   0  0  0  0  0  0  0  0  0  0  0  0
  1  4  1  0  0  0  0
  1 10  2  0  0  0  0
  2  7  1  0  0  0  0
  2 18  1  0  0  0  0
  2 19  1  0  0  0  0
  3  4  1  0  0  0  0
  3  5  1  0  0  0  0
  3  6  2  0  0  0  0
  4  8  2  0  0  0  0
  5  7  2  0  0  0  0
  5 12  1  0  0  0  0
  6  9  1  0  0  0  0
  6 13  1  0  0  0  0
  7 10  1  0  0  0  0
  8 11  1  0  0  0  0
  8 14  1  0  0  0  0
  9 11  2  0  0  0  0
  9 15  1  0  0  0  0
 10 16  1  0  0  0  0
 11 17  1  0  0  0  0
M  END
> <PUBCHEM_COMPOUND_CID>
11375

> <PUBCHEM_COMPOUND_CANONICALIZED>
1

> <PUBCHEM_CACTVS_COMPLEXITY>
136

> <PUBCHEM_CACTVS_HBOND_ACCEPTOR>
2

> <PUBCHEM_CACTVS_HBOND_DONOR>
1

> <PUBCHEM_CACTVS_ROTATABLE_BOND>
0

> <PUBCHEM_CACTVS_SUBSKEYS>
AAADccBzAAAAAAAAAAAAAAAAAAAAAAAAAAA8QAAAAAAAAACx8AAAHAAQAAAADAjBHgQ8wPJIEACgAzRnRACCgCAxEiAI2CA4dJgIYOLAkZGUIAhgkADIyAcQgIAOAAAAAAACAAAAAAAAAAQAAAAAAAAAAA==

> <PUBCHEM_IUPAC_OPENEYE_NAME>
quinolin-3-amine

> <PUBCHEM_IUPAC_CAS_NAME>
3-quinolinamine

> <PUBCHEM_IUPAC_NAME>
quinolin-3-amine

> <PUBCHEM_IUPAC_SYSTEMATIC_NAME>
quinolin-3-amine

> <PUBCHEM_IUPAC_TRADITIONAL_NAME>
3-quinolylamine

> <PUBCHEM_IUPAC_INCHI>
InChI=1S/C9H8N2/c10-8-5-7-3-1-2-4-9(7)11-6-8/h1-6H,10H2

> <PUBCHEM_IUPAC_INCHIKEY>
SVNCRRZKBNSMIV-UHFFFAOYSA-N

> <PUBCHEM_XLOGP3>
1.6

> <PUBCHEM_EXACT_MASS>
144.068748

> <PUBCHEM_MOLECULAR_FORMULA>
C9H8N2

> <PUBCHEM_MOLECULAR_WEIGHT>
144.17322

> <PUBCHEM_OPENEYE_CAN_SMILES>
C1=CC=C2C(=C1)C=C(C=N2)N

> <PUBCHEM_OPENEYE_ISO_SMILES>
C1=CC=C2C(=C1)C=C(C=N2)N

> <PUBCHEM_CACTVS_TPSA>
38.9

> <PUBCHEM_MONOISOTOPIC_WEIGHT>
144.068748

> <PUBCHEM_TOTAL_CHARGE>
0

> <PUBCHEM_HEAVY_ATOM_COUNT>
11

> <PUBCHEM_ATOM_DEF_STEREO_COUNT>
0

> <PUBCHEM_ATOM_UDEF_STEREO_COUNT>
0

> <PUBCHEM_BOND_DEF_STEREO_COUNT>
0

> <PUBCHEM_BOND_UDEF_STEREO_COUNT>
0

> <PUBCHEM_ISOTOPIC_ATOM_COUNT>
0

> <PUBCHEM_COMPONENT_COUNT>
1

> <PUBCHEM_CACTVS_TAUTO_COUNT>
1

> <PUBCHEM_COORDINATE_TYPE>
1
5
255

> <PUBCHEM_BONDANNOTATIONS>
1  10  8
1  4  8
3  4  8
3  5  8
3  6  8
4  8  8
5  7  8
6  9  8
7  10  8
8  11  8
9  11  8

$$$$

