5281624
  -OEChem-07051212583D

 38 40  0     0  0  0  0  0  0999 V2000
   -1.1394    1.4396    0.2076 O   0  0  0  0  0  0  0  0  0  0  0  0
    1.3876    2.2589    0.6527 O   0  0  0  0  0  0  0  0  0  0  0  0
   -2.0712   -2.5367   -0.0444 O   0  0  0  0  0  0  0  0  0  0  0  0
   -4.5981   -1.9116   -0.4534 O   0  0  0  0  0  0  0  0  0  0  0  0
   -0.4288   -0.8960    0.2692 C   0  0  0  0  0  0  0  0  0  0  0  0
   -0.1739    0.4730    0.3456 C   0  0  0  0  0  0  0  0  0  0  0  0
    2.1667    0.0020    0.7272 C   0  0  0  0  0  0  0  0  0  0  0  0
    1.1283    0.9216    0.5753 C   0  0  0  0  0  0  0  0  0  0  0  0
   -2.8275   -0.2947   -0.1186 C   0  0  0  0  0  0  0  0  0  0  0  0
    3.5654    0.4636    0.9735 C   0  0  0  0  0  0  0  0  0  0  0  0
   -1.8084   -1.3453    0.0271 C   0  0  0  0  0  0  0  0  0  0  0  0
   -2.4331    1.0393   -0.0199 C   0  0  0  0  0  0  0  0  0  0  0  0
    0.6076   -1.8208    0.4216 C   0  0  0  0  0  0  0  0  0  0  0  0
    1.9064   -1.3664    0.6507 C   0  0  0  0  0  0  0  0  0  0  0  0
   -4.1653   -0.6242   -0.3514 C   0  0  0  0  0  0  0  0  0  0  0  0
    4.3455    0.6775   -0.2997 C   0  0  0  0  0  0  0  0  0  0  0  0
   -3.3840    2.0529   -0.1555 C   0  0  0  0  0  0  0  0  0  0  0  0
    5.4648    0.0468   -0.7036 C   0  0  0  0  0  0  0  0  0  0  0  0
   -5.1107    0.3929   -0.4856 C   0  0  0  0  0  0  0  0  0  0  0  0
   -4.7212    1.7289   -0.3878 C   0  0  0  0  0  0  0  0  0  0  0  0
    6.1933    0.3112   -1.9907 C   0  0  0  0  0  0  0  0  0  0  0  0
    6.0960   -1.0127    0.1602 C   0  0  0  0  0  0  0  0  0  0  0  0
    3.5797    1.3934    1.5557 H   0  0  0  0  0  0  0  0  0  0  0  0
    4.0560   -0.2468    1.6471 H   0  0  0  0  0  0  0  0  0  0  0  0
    0.4251   -2.8901    0.3648 H   0  0  0  0  0  0  0  0  0  0  0  0
    2.7075   -2.0919    0.7666 H   0  0  0  0  0  0  0  0  0  0  0  0
    3.9444    1.4458   -0.9603 H   0  0  0  0  0  0  0  0  0  0  0  0
   -3.0911    3.0970   -0.0811 H   0  0  0  0  0  0  0  0  0  0  0  0
   -6.1550    0.1521   -0.6664 H   0  0  0  0  0  0  0  0  0  0  0  0
   -5.4599    2.5182   -0.4927 H   0  0  0  0  0  0  0  0  0  0  0  0
    2.3134    2.4435    0.4313 H   0  0  0  0  0  0  0  0  0  0  0  0
    5.7144    1.1093   -2.5674 H   0  0  0  0  0  0  0  0  0  0  0  0
    7.2249    0.6173   -1.7891 H   0  0  0  0  0  0  0  0  0  0  0  0
    6.2086   -0.5885   -2.6142 H   0  0  0  0  0  0  0  0  0  0  0  0
    5.3791   -1.5664    0.7707 H   0  0  0  0  0  0  0  0  0  0  0  0
    6.5907   -1.7654   -0.4647 H   0  0  0  0  0  0  0  0  0  0  0  0
    6.8549   -0.5674    0.8112 H   0  0  0  0  0  0  0  0  0  0  0  0
   -3.8578   -2.5279   -0.3436 H   0  0  0  0  0  0  0  0  0  0  0  0
  1  6  1  0  0  0  0
  1 12  1  0  0  0  0
  2  8  1  0  0  0  0
  2 31  1  0  0  0  0
  3 11  2  0  0  0  0
  4 15  1  0  0  0  0
  4 38  1  0  0  0  0
  5  6  2  0  0  0  0
  5 11  1  0  0  0  0
  5 13  1  0  0  0  0
  6  8  1  0  0  0  0
  7  8  2  0  0  0  0
  7 10  1  0  0  0  0
  7 14  1  0  0  0  0
  9 11  1  0  0  0  0
  9 12  1  0  0  0  0
  9 15  2  0  0  0  0
 10 16  1  0  0  0  0
 10 23  1  0  0  0  0
 10 24  1  0  0  0  0
 12 17  2  0  0  0  0
 13 14  2  0  0  0  0
 13 25  1  0  0  0  0
 14 26  1  0  0  0  0
 15 19  1  0  0  0  0
 16 18  2  0  0  0  0
 16 27  1  0  0  0  0
 17 20  1  0  0  0  0
 17 28  1  0  0  0  0
 18 21  1  0  0  0  0
 18 22  1  0  0  0  0
 19 20  2  0  0  0  0
 19 29  1  0  0  0  0
 20 30  1  0  0  0  0
 21 32  1  0  0  0  0
 21 33  1  0  0  0  0
 21 34  1  0  0  0  0
 22 35  1  0  0  0  0
 22 36  1  0  0  0  0
 22 37  1  0  0  0  0
M  END
> <PUBCHEM_COMPOUND_CID>
5281624

> <PUBCHEM_CONFORMER_RMSD>
0.6

> <PUBCHEM_CONFORMER_DIVERSEORDER>
1
11
7
4
9
8
2
10
3
6
5

> <PUBCHEM_MMFF94_PARTIAL_CHARGES>
30
1 -0.17
10 0.28
11 0.4
12 0.08
13 -0.15
14 -0.15
15 0.08
16 -0.29
17 -0.15
18 -0.28
19 -0.15
2 -0.53
20 -0.15
21 0.14
22 0.14
25 0.15
26 0.15
27 0.15
28 0.15
29 0.15
3 -0.57
30 0.15
31 0.45
38 0.45
4 -0.53
5 0.09
6 0.08
7 -0.14
8 0.08
9 0.09

> <PUBCHEM_EFFECTIVE_ROTOR_COUNT>
2

> <PUBCHEM_PHARMACOPHORE_FEATURES>
8
1 1 acceptor
1 2 donor
1 3 acceptor
1 4 donor
3 18 21 22 hydrophobe
6 1 5 6 9 11 12 rings
6 5 6 7 8 13 14 rings
6 9 12 15 17 19 20 rings

> <PUBCHEM_HEAVY_ATOM_COUNT>
22

> <PUBCHEM_ATOM_DEF_STEREO_COUNT>
0

> <PUBCHEM_ATOM_UDEF_STEREO_COUNT>
0

> <PUBCHEM_BOND_DEF_STEREO_COUNT>
0

> <PUBCHEM_BOND_UDEF_STEREO_COUNT>
0

> <PUBCHEM_ISOTOPIC_ATOM_COUNT>
0

> <PUBCHEM_COMPONENT_COUNT>
1

> <PUBCHEM_CACTVS_TAUTO_COUNT>
14

> <PUBCHEM_CONFORMER_ID>
0050975800000001

> <PUBCHEM_MMFF94_ENERGY>
63.2794

> <PUBCHEM_FEATURE_SELFOVERLAP>
40.651

> <PUBCHEM_SHAPE_FINGERPRINT>
10411042 1 17835804093360758587
10670039 82 18271806856573579004
10759866 29 18130513044966629850
10967382 1 18265908032667059923
11315181 36 17749106686655232520
11578080 2 17129317616990643567
11796584 16 14634874158050935820
12011746 2 18409454691284235069
12236239 1 17847061082320095286
12390115 104 18188765184466363953
12670543 26 18335698377741075062
12788726 201 17969224623442049505
12954195 1 17896026801739456616
13288520 33 18333169466173286477
14251752 14 18341331176105589982
14528608 73 18201999915608651916
14790565 3 18339921640146975408
14840074 17 17060049346370823252
15099037 51 18408323289387103520
15183329 4 18409444817418029198
15196674 1 18410300211066939739
15575132 122 17489590094800911900
1601671 61 18413393159062186552
16087824 20 18411143546726499559
17870717 6 18187356632075469124
1813 80 13912313565430248960
200 152 15719389547067624514
20602899 9 16298390149582768935
21267235 1 18337953394754563003
21279426 13 18335985358755056862
21637258 2 14996282569918763110
221357 26 18261396624230203297
2215653 11 17967252009661396524
22393880 68 18335991908152973721
2297311 6 18333445426739056237
23175994 123 17095525075955887505
23366157 5 17842563121568833042
23402539 116 18408046221046884260
23559900 14 18187932738263246144
3004659 81 18343301514117863618
3298306 158 18113335332262849302
335352 9 18409172108591135957
34797466 226 17895468134237610012
350125 39 18411702097784440617
3545911 37 18409172129918194705
3759504 43 17775280551937510682
4058900 60 17916304025264486003
44062 13 18187083901895364046
474 4 17203322300044864740
4990 188 18113335327951368532
5104073 3 18339371841662626467
542803 24 17418093226276389560
543368 44 17560230324362327172
559249 180 18339366361474597690
6138700 20 18337109081456715910
9709674 26 18191032196552531817

> <PUBCHEM_SHAPE_MULTIPOLES>
429.27
13.16
2.13
0.99
11.43
0.31
0.28
-1.27
5.33
-1.92
-0.1
1.41
-0.13
-0.37

> <PUBCHEM_SHAPE_SELFOVERLAP>
946.089

> <PUBCHEM_SHAPE_VOLUME>
231.1

> <PUBCHEM_COORDINATE_TYPE>
2
5
10

$$$$

