8145
  -OEChem-06261202373D

 25 24  0     0  0  0  0  0  0999 V2000
   -3.6609    0.4524    0.0020 O   0  0  0  0  0  0  0  0  0  0  0  0
    3.6702    0.4541    0.0185 O   0  0  0  0  0  0  0  0  0  0  0  0
   -0.0056   -0.4180   -0.0072 C   0  0  0  0  0  0  0  0  0  0  0  0
   -1.2666    0.4440   -0.0260 C   0  0  0  0  0  0  0  0  0  0  0  0
    1.2585    0.4465    0.0034 C   0  0  0  0  0  0  0  0  0  0  0  0
   -2.5288   -0.4061    0.0064 C   0  0  0  0  0  0  0  0  0  0  0  0
    2.5304   -0.3927   -0.0111 C   0  0  0  0  0  0  0  0  0  0  0  0
   -4.8757   -0.2855    0.0125 C   0  0  0  0  0  0  0  0  0  0  0  0
    4.8784   -0.2946    0.0015 C   0  0  0  0  0  0  0  0  0  0  0  0
    0.0043   -1.0733   -0.8866 H   0  0  0  0  0  0  0  0  0  0  0  0
   -0.0124   -1.0643    0.8788 H   0  0  0  0  0  0  0  0  0  0  0  0
   -1.2784    1.0808   -0.9194 H   0  0  0  0  0  0  0  0  0  0  0  0
   -1.2701    1.1293    0.8309 H   0  0  0  0  0  0  0  0  0  0  0  0
    1.2638    1.0960    0.8877 H   0  0  0  0  0  0  0  0  0  0  0  0
    1.2629    1.1205   -0.8625 H   0  0  0  0  0  0  0  0  0  0  0  0
   -2.5434   -1.0249    0.9114 H   0  0  0  0  0  0  0  0  0  0  0  0
   -2.5617   -1.0625   -0.8711 H   0  0  0  0  0  0  0  0  0  0  0  0
    2.5475   -1.0553    0.8625 H   0  0  0  0  0  0  0  0  0  0  0  0
    2.5576   -1.0092   -0.9174 H   0  0  0  0  0  0  0  0  0  0  0  0
   -4.9505   -0.9141   -0.8802 H   0  0  0  0  0  0  0  0  0  0  0  0
   -5.7086    0.4228    0.0111 H   0  0  0  0  0  0  0  0  0  0  0  0
   -4.9427   -0.9014    0.9145 H   0  0  0  0  0  0  0  0  0  0  0  0
    4.9398   -0.9440    0.8801 H   0  0  0  0  0  0  0  0  0  0  0  0
    5.7175    0.4058    0.0260 H   0  0  0  0  0  0  0  0  0  0  0  0
    4.9477   -0.8904   -0.9138 H   0  0  0  0  0  0  0  0  0  0  0  0
  1  6  1  0  0  0  0
  1  8  1  0  0  0  0
  2  7  1  0  0  0  0
  2  9  1  0  0  0  0
  3  4  1  0  0  0  0
  3  5  1  0  0  0  0
  3 10  1  0  0  0  0
  3 11  1  0  0  0  0
  4  6  1  0  0  0  0
  4 12  1  0  0  0  0
  4 13  1  0  0  0  0
  5  7  1  0  0  0  0
  5 14  1  0  0  0  0
  5 15  1  0  0  0  0
  6 16  1  0  0  0  0
  6 17  1  0  0  0  0
  7 18  1  0  0  0  0
  7 19  1  0  0  0  0
  8 20  1  0  0  0  0
  8 21  1  0  0  0  0
  8 22  1  0  0  0  0
  9 23  1  0  0  0  0
  9 24  1  0  0  0  0
  9 25  1  0  0  0  0
M  END
> <PUBCHEM_COMPOUND_CID>
8145

> <PUBCHEM_CONFORMER_RMSD>
0.6

> <PUBCHEM_CONFORMER_DIVERSEORDER>
1
81
3
68
60
84
39
40
14
66
19
69
13
12
52
50
18
78
41
75
82
46
51
56
43
54
4
16
6
35
70
64
2
85
15
5
24
32
57
48
76
28
71
7
80
79
26
9
27
10
83
22
49
30
55
59
42
36
37
74
63
44
67
65
17
77
62
47
45
38
20
29
34
21
11
53
8
23
72
33
73
61
58
31
25

> <PUBCHEM_MMFF94_PARTIAL_CHARGES>
6
1 -0.56
2 -0.56
6 0.28
7 0.28
8 0.28
9 0.28

> <PUBCHEM_EFFECTIVE_ROTOR_COUNT>
6

> <PUBCHEM_PHARMACOPHORE_FEATURES>
2
1 1 acceptor
1 2 acceptor

> <PUBCHEM_HEAVY_ATOM_COUNT>
9

> <PUBCHEM_ATOM_DEF_STEREO_COUNT>
0

> <PUBCHEM_ATOM_UDEF_STEREO_COUNT>
0

> <PUBCHEM_BOND_DEF_STEREO_COUNT>
0

> <PUBCHEM_BOND_UDEF_STEREO_COUNT>
0

> <PUBCHEM_ISOTOPIC_ATOM_COUNT>
0

> <PUBCHEM_COMPONENT_COUNT>
1

> <PUBCHEM_CACTVS_TAUTO_COUNT>
1

> <PUBCHEM_CONFORMER_ID>
00001FD100000001

> <PUBCHEM_MMFF94_ENERGY>
11.7086

> <PUBCHEM_FEATURE_SELFOVERLAP>
10.149

> <PUBCHEM_SHAPE_FINGERPRINT>
11062470 55 18410855460128161792
14123238 8 18411138030332101983
17834076 25 18411135839893512718
20645477 70 18188769577864583910
20719005 15 18410573985177883362
22485316 2 18411141333151662890
23402539 116 17968101928071003821
366044 4 18411700980328234570
42788 4 18410573989446463909

> <PUBCHEM_SHAPE_MULTIPOLES>
173.48
10.41
0.75
0.6
0.06
0.01
0
0.75
-0.06
0
0
0
0.01
0.01

> <PUBCHEM_SHAPE_SELFOVERLAP>
302.334

> <PUBCHEM_SHAPE_VOLUME>
116

> <PUBCHEM_COORDINATE_TYPE>
2
5
10

$$$$

