18323
  -OEChem-07051213093D

 29 30  0     1  0  0  0  0  0999 V2000
   -1.3594   -0.3954    0.9657 O   0  0  0  0  0  0  0  0  0  0  0  0
   -0.9445    0.2115   -1.9430 O   0  0  0  0  0  0  0  0  0  0  0  0
   -3.2116    2.0134    0.2036 O   0  0  0  0  0  0  0  0  0  0  0  0
   -2.9401   -2.6768    0.7245 O   0  0  0  0  0  0  0  0  0  0  0  0
    1.6604    2.3699    0.6957 O   0  0  0  0  0  0  0  0  0  0  0  0
    4.5914   -1.0534   -0.2713 O   0  0  0  0  0  0  0  0  0  0  0  0
    0.7731    0.2559    0.2435 N   0  0  0  0  0  0  0  0  0  0  0  0
    3.1183    0.6640    0.2132 N   0  0  0  0  0  0  0  0  0  0  0  0
   -1.2791    1.0887   -0.8739 C   0  0  1  0  0  0  0  0  0  0  0  0
   -2.7354    0.8784   -0.5162 C   0  0  1  0  0  0  0  0  0  0  0  0
   -0.5848    0.6780    0.4154 C   0  0  1  0  0  0  0  0  0  0  0  0
   -2.6996   -0.3169    0.4378 C   0  0  1  0  0  0  0  0  0  0  0  0
   -3.0110   -1.6427   -0.2420 C   0  0  0  0  0  0  0  0  0  0  0  0
    1.8314    1.1839    0.4054 C   0  0  0  0  0  0  0  0  0  0  0  0
    1.0566   -1.0673   -0.0831 C   0  0  0  0  0  0  0  0  0  0  0  0
    2.2885   -1.5481   -0.2630 C   0  0  0  0  0  0  0  0  0  0  0  0
    3.4457   -0.6431   -0.1124 C   0  0  0  0  0  0  0  0  0  0  0  0
   -1.0240    2.1127   -1.1637 H   0  0  0  0  0  0  0  0  0  0  0  0
   -3.3944    0.7207   -1.3748 H   0  0  0  0  0  0  0  0  0  0  0  0
   -0.6201    1.4993    1.1415 H   0  0  0  0  0  0  0  0  0  0  0  0
   -3.3687   -0.1793    1.2954 H   0  0  0  0  0  0  0  0  0  0  0  0
   -2.2846   -1.8750   -1.0262 H   0  0  0  0  0  0  0  0  0  0  0  0
   -4.0166   -1.6334   -0.6734 H   0  0  0  0  0  0  0  0  0  0  0  0
   -1.4576    0.4906   -2.7204 H   0  0  0  0  0  0  0  0  0  0  0  0
   -2.7131    2.0959    1.0334 H   0  0  0  0  0  0  0  0  0  0  0  0
    0.2123   -1.7360   -0.2089 H   0  0  0  0  0  0  0  0  0  0  0  0
   -3.1464   -3.5104    0.2682 H   0  0  0  0  0  0  0  0  0  0  0  0
    3.8914    1.3141    0.3248 H   0  0  0  0  0  0  0  0  0  0  0  0
    2.4679   -2.5842   -0.5223 H   0  0  0  0  0  0  0  0  0  0  0  0
  1 11  1  0  0  0  0
  1 12  1  0  0  0  0
  2  9  1  0  0  0  0
  2 24  1  0  0  0  0
  3 10  1  0  0  0  0
  3 25  1  0  0  0  0
  4 13  1  0  0  0  0
  4 27  1  0  0  0  0
  5 14  2  0  0  0  0
  6 17  2  0  0  0  0
  7 11  1  0  0  0  0
  7 14  1  0  0  0  0
  7 15  1  0  0  0  0
  8 14  1  0  0  0  0
  8 17  1  0  0  0  0
  8 28  1  0  0  0  0
  9 10  1  0  0  0  0
  9 11  1  0  0  0  0
  9 18  1  0  0  0  0
 10 12  1  0  0  0  0
 10 19  1  0  0  0  0
 11 20  1  0  0  0  0
 12 13  1  0  0  0  0
 12 21  1  0  0  0  0
 13 22  1  0  0  0  0
 13 23  1  0  0  0  0
 15 16  2  0  0  0  0
 15 26  1  0  0  0  0
 16 17  1  0  0  0  0
 16 29  1  0  0  0  0
M  END
> <PUBCHEM_COMPOUND_CID>
18323

> <PUBCHEM_CONFORMER_RMSD>
0.6

> <PUBCHEM_CONFORMER_DIVERSEORDER>
1
10
8
9
2
6
4
5
7
3

> <PUBCHEM_MMFF94_PARTIAL_CHARGES>
23
1 -0.56
10 0.28
11 0.58
12 0.28
13 0.28
14 0.69
15 -0.04
16 -0.14
17 0.62
2 -0.68
24 0.4
25 0.4
26 0.15
27 0.4
28 0.37
29 0.15
3 -0.68
4 -0.68
5 -0.57
6 -0.57
7 -0.47
8 -0.49
9 0.28

> <PUBCHEM_EFFECTIVE_ROTOR_COUNT>
3

> <PUBCHEM_PHARMACOPHORE_FEATURES>
12
1 1 acceptor
1 2 acceptor
1 2 donor
1 3 acceptor
1 3 donor
1 4 acceptor
1 4 donor
1 5 acceptor
1 6 acceptor
1 8 donor
5 1 9 10 11 12 rings
6 7 8 14 15 16 17 rings

> <PUBCHEM_HEAVY_ATOM_COUNT>
17

> <PUBCHEM_ATOM_DEF_STEREO_COUNT>
4

> <PUBCHEM_ATOM_UDEF_STEREO_COUNT>
0

> <PUBCHEM_BOND_DEF_STEREO_COUNT>
0

> <PUBCHEM_BOND_UDEF_STEREO_COUNT>
0

> <PUBCHEM_ISOTOPIC_ATOM_COUNT>
0

> <PUBCHEM_COMPONENT_COUNT>
1

> <PUBCHEM_CACTVS_TAUTO_COUNT>
3

> <PUBCHEM_CONFORMER_ID>
0000479300000001

> <PUBCHEM_MMFF94_ENERGY>
45.1711

> <PUBCHEM_FEATURE_SELFOVERLAP>
60.898

> <PUBCHEM_SHAPE_FINGERPRINT>
10608611 8 18410297999169747408
12032990 46 18334008424195691070
12500047 106 18270403913853246565
12932764 1 17560529489823941992
13214271 11 18260553354894012046
13296908 3 18261115179513234680
14115302 16 18270669991161341092
14965852 173 18411136943874252593
15219456 202 18410578361797199808
15375462 6 18193557770387652397
15775835 57 17917147328786205834
16945 1 18269568297779829633
17834074 16 18411419496740210899
18175812 5 18412263921680645719
200 152 17894921715217412279
20201158 50 18338799030237549578
21501502 16 18342172241543192788
221490 88 18338230458393620434
23402539 116 16558749044468676718
23559900 14 18338806615076084305
25 1 18123757709976385461
2748010 2 18337965484311963236
2871803 45 18270689658064905203
3286 77 18339365171420055356
3312278 4 18335418023402584570
5104073 3 18408324389125520618
5493415 88 18408323285245052314
69090 78 18339928216284808645
74978 22 18409733992764959297
81228 2 17988924419164036361
8809292 202 18413666919992868698
93112 12 18410296929828112777
9709674 26 18335137605056939759

> <PUBCHEM_SHAPE_MULTIPOLES>
304.67
6.5
2.18
0.97
3.26
0.26
0.31
1.81
-0.01
-1.01
-0.38
-0.39
-0.07
0.73

> <PUBCHEM_SHAPE_SELFOVERLAP>
642.14

> <PUBCHEM_SHAPE_VOLUME>
171

> <PUBCHEM_COORDINATE_TYPE>
2
5
10

$$$$

