11030951
  -OEChem-07051213153D

 39 40  0     1  0  0  0  0  0999 V2000
   -0.3552   -0.9867   -0.4341 C   0  0  2  0  0  0  0  0  0  0  0  0
    1.2262    0.7777    0.6272 C   0  0  1  0  0  0  0  0  0  0  0  0
    0.4978   -2.1052    0.2278 C   0  0  2  0  0  0  0  0  0  0  0  0
   -0.1886    0.3471    0.2887 C   0  0  0  0  0  0  0  0  0  0  0  0
    2.0150   -0.3702    1.2667 C   0  0  0  0  0  0  0  0  0  0  0  0
    1.9507   -1.6572    0.4503 C   0  0  0  0  0  0  0  0  0  0  0  0
   -1.8386   -1.4211   -0.5138 C   0  0  0  0  0  0  0  0  0  0  0  0
    1.9334    1.3342   -0.6135 C   0  0  0  0  0  0  0  0  0  0  0  0
   -2.7706   -0.2499   -0.8103 C   0  0  0  0  0  0  0  0  0  0  0  0
   -1.2344    1.1336    0.6070 C   0  0  0  0  0  0  0  0  0  0  0  0
    0.4898   -3.4021   -0.5889 C   0  0  0  0  0  0  0  0  0  0  0  0
   -2.5981    0.8406    0.2122 C   0  0  0  0  0  0  0  0  0  0  0  0
    1.1532    2.5132   -1.1675 C   0  0  0  0  0  0  0  0  0  0  0  0
    3.3589    1.7245   -0.2644 C   0  0  0  0  0  0  0  0  0  0  0  0
   -3.6395    1.5216    0.7125 C   0  0  0  0  0  0  0  0  0  0  0  0
    0.0022   -0.8376   -1.4628 H   0  0  0  0  0  0  0  0  0  0  0  0
    1.1854    1.5778    1.3813 H   0  0  0  0  0  0  0  0  0  0  0  0
    0.0689   -2.3342    1.2138 H   0  0  0  0  0  0  0  0  0  0  0  0
    1.5737   -0.5770    2.2525 H   0  0  0  0  0  0  0  0  0  0  0  0
    3.0547   -0.1085    1.4809 H   0  0  0  0  0  0  0  0  0  0  0  0
    2.4608   -1.5229   -0.5108 H   0  0  0  0  0  0  0  0  0  0  0  0
    2.4985   -2.4419    0.9868 H   0  0  0  0  0  0  0  0  0  0  0  0
   -2.1450   -1.8910    0.4307 H   0  0  0  0  0  0  0  0  0  0  0  0
   -1.9640   -2.1769   -1.2981 H   0  0  0  0  0  0  0  0  0  0  0  0
    1.9842    0.5777   -1.4067 H   0  0  0  0  0  0  0  0  0  0  0  0
   -3.8060   -0.6105   -0.8340 H   0  0  0  0  0  0  0  0  0  0  0  0
   -2.5478    0.1524   -1.8069 H   0  0  0  0  0  0  0  0  0  0  0  0
   -1.0692    2.0553    1.1600 H   0  0  0  0  0  0  0  0  0  0  0  0
    1.1434   -4.1529   -0.1317 H   0  0  0  0  0  0  0  0  0  0  0  0
   -0.5125   -3.8377   -0.6398 H   0  0  0  0  0  0  0  0  0  0  0  0
    0.8400   -3.2277   -1.6119 H   0  0  0  0  0  0  0  0  0  0  0  0
    0.1932    2.2122   -1.5980 H   0  0  0  0  0  0  0  0  0  0  0  0
    1.7118    2.9953   -1.9782 H   0  0  0  0  0  0  0  0  0  0  0  0
    0.9697    3.2755   -0.4022 H   0  0  0  0  0  0  0  0  0  0  0  0
    4.0055    0.8518   -0.1324 H   0  0  0  0  0  0  0  0  0  0  0  0
    3.8073    2.3082   -1.0768 H   0  0  0  0  0  0  0  0  0  0  0  0
    3.4054    2.3389    0.6413 H   0  0  0  0  0  0  0  0  0  0  0  0
   -4.6553    1.3014    0.4006 H   0  0  0  0  0  0  0  0  0  0  0  0
   -3.5076    2.3134    1.4431 H   0  0  0  0  0  0  0  0  0  0  0  0
  1  3  1  0  0  0  0
  1  4  1  0  0  0  0
  1  7  1  0  0  0  0
  1 16  1  0  0  0  0
  2  4  1  0  0  0  0
  2  5  1  0  0  0  0
  2  8  1  0  0  0  0
  2 17  1  0  0  0  0
  3  6  1  0  0  0  0
  3 11  1  0  0  0  0
  3 18  1  0  0  0  0
  4 10  2  0  0  0  0
  5  6  1  0  0  0  0
  5 19  1  0  0  0  0
  5 20  1  0  0  0  0
  6 21  1  0  0  0  0
  6 22  1  0  0  0  0
  7  9  1  0  0  0  0
  7 23  1  0  0  0  0
  7 24  1  0  0  0  0
  8 13  1  0  0  0  0
  8 14  1  0  0  0  0
  8 25  1  0  0  0  0
  9 12  1  0  0  0  0
  9 26  1  0  0  0  0
  9 27  1  0  0  0  0
 10 12  1  0  0  0  0
 10 28  1  0  0  0  0
 11 29  1  0  0  0  0
 11 30  1  0  0  0  0
 11 31  1  0  0  0  0
 12 15  2  0  0  0  0
 13 32  1  0  0  0  0
 13 33  1  0  0  0  0
 13 34  1  0  0  0  0
 14 35  1  0  0  0  0
 14 36  1  0  0  0  0
 14 37  1  0  0  0  0
 15 38  1  0  0  0  0
 15 39  1  0  0  0  0
M  END
> <PUBCHEM_COMPOUND_CID>
11030951

> <PUBCHEM_CONFORMER_RMSD>
0.6

> <PUBCHEM_CONFORMER_DIVERSEORDER>
1
2
3

> <PUBCHEM_MMFF94_PARTIAL_CHARGES>
10
1 0.14
10 -0.15
12 -0.14
15 -0.3
2 0.14
28 0.15
38 0.15
39 0.15
4 -0.28
9 0.14

> <PUBCHEM_EFFECTIVE_ROTOR_COUNT>
2.2

> <PUBCHEM_PHARMACOPHORE_FEATURES>
3
3 8 13 14 hydrophobe
6 1 2 3 4 5 6 rings
6 1 4 7 9 10 12 rings

> <PUBCHEM_HEAVY_ATOM_COUNT>
15

> <PUBCHEM_ATOM_DEF_STEREO_COUNT>
3

> <PUBCHEM_ATOM_UDEF_STEREO_COUNT>
0

> <PUBCHEM_BOND_DEF_STEREO_COUNT>
0

> <PUBCHEM_BOND_UDEF_STEREO_COUNT>
0

> <PUBCHEM_ISOTOPIC_ATOM_COUNT>
0

> <PUBCHEM_COMPONENT_COUNT>
1

> <PUBCHEM_CACTVS_TAUTO_COUNT>
1

> <PUBCHEM_CONFORMER_ID>
00A851A700000001

> <PUBCHEM_MMFF94_ENERGY>
27.3824

> <PUBCHEM_FEATURE_SELFOVERLAP>
15.244

> <PUBCHEM_SHAPE_FINGERPRINT>
10382601 240 18200588219708476176
10465860 228 18191296285665587497
12326174 3 17846222201870995904
12346645 6 18341610459894917441
12423570 1 7237995963848935512
12524768 44 17903368335251391675
12644460 14 18196068144691994937
12696612 119 18339363096903592867
13140716 1 18410018761918328210
13380536 305 18338505452100975598
14181834 199 18270966859242649430
14817 1 7914946439865826892
15219459 52 18412271644105891642
15279307 12 18334010597153529367
15490181 8 18411419484034864971
15775835 57 18335416855113912457
16945 1 17972334063736529651
20510252 161 17972595485621750689
20511035 2 18042412494222062671
20559304 39 18264766734886028617
20588541 1 16101352533330487393
20645476 183 18198350550210425239
20645477 70 18342177830023502289
20671657 1 18190170368414909775
21029758 27 17761196018486628343
21501502 16 18409171021727065467
21524375 3 18129097818898709248
22802520 49 17467058662301326932
2334 1 18337962190024542035
23552423 10 18336551615727995815
23557571 272 17252864958337016392
241688 4 17329425558800917090
2748010 2 18410859849711650674
276578 36 18187915218643025425
305870 269 18412541002921903052
3060560 45 18412538825500013412
353137 74 17765719022580751588
430814 3 18341611460622050532
528862 383 18343864441451470081
53812653 8 18193840344759842467
6992083 37 18057614161583288620
7364860 26 18264201577050138220
81228 2 17331395372584080832

> <PUBCHEM_SHAPE_MULTIPOLES>
308.69
4.55
3.15
1.05
2.05
1.85
0.01
-2.7
0.31
-1.26
-0.81
-0.14
-0.18
-0.99

> <PUBCHEM_SHAPE_SELFOVERLAP>
630.543

> <PUBCHEM_SHAPE_VOLUME>
176.3

> <PUBCHEM_COORDINATE_TYPE>
2
5
10

$$$$

