5281788
  -OEChem-07051212593D

 81 84  0     1  0  0  0  0  0999 V2000
    0.1831    1.7368   -0.6437 O   0  0  0  0  0  0  0  0  0  0  0  0
    2.7605   -1.0133    0.9876 O   0  0  0  0  0  0  0  0  0  0  0  0
   -1.7808    1.9559    0.5968 O   0  0  0  0  0  0  0  0  0  0  0  0
   -0.8574   -0.7001    0.5116 O   0  0  0  0  0  0  0  0  0  0  0  0
    4.4822    0.5574    1.1000 O   0  0  0  0  0  0  0  0  0  0  0  0
    2.5780    2.6320    0.8203 O   0  0  0  0  0  0  0  0  0  0  0  0
   -0.4070    4.1680   -1.9662 O   0  0  0  0  0  0  0  0  0  0  0  0
   -3.3042    4.6962   -2.0560 O   0  0  0  0  0  0  0  0  0  0  0  0
   -4.4595    4.4535    0.5827 O   0  0  0  0  0  0  0  0  0  0  0  0
    2.0072   -3.5121    1.8506 O   0  0  0  0  0  0  0  0  0  0  0  0
   -2.9239    1.3570    3.0239 O   0  0  0  0  0  0  0  0  0  0  0  0
   -1.1719   -1.4710   -1.6435 O   0  0  0  0  0  0  0  0  0  0  0  0
    7.6264    0.2328   -2.8592 O   0  0  0  0  0  0  0  0  0  0  0  0
    8.6597   -2.3391   -2.6488 O   0  0  0  0  0  0  0  0  0  0  0  0
   -8.5354   -2.5287   -2.2235 O   0  0  0  0  0  0  0  0  0  0  0  0
   -9.2899   -2.7582    0.4412 O   0  0  0  0  0  0  0  0  0  0  0  0
    0.8209    1.0274    0.4194 C   0  0  1  0  0  0  0  0  0  0  0  0
    0.5213   -0.4612    0.2412 C   0  0  1  0  0  0  0  0  0  0  0  0
    2.3250    1.2976    0.3813 C   0  0  2  0  0  0  0  0  0  0  0  0
    1.3765   -1.3046    1.1898 C   0  0  1  0  0  0  0  0  0  0  0  0
   -0.7860    2.6581   -0.1448 C   0  0  2  0  0  0  0  0  0  0  0  0
   -1.4145    3.3738   -1.3403 C   0  0  1  0  0  0  0  0  0  0  0  0
    3.0856    0.3396    1.2982 C   0  0  1  0  0  0  0  0  0  0  0  0
   -2.5717    4.2728   -0.9049 C   0  0  2  0  0  0  0  0  0  0  0  0
   -3.5339    3.5273    0.0200 C   0  0  1  0  0  0  0  0  0  0  0  0
   -2.7710    2.8267    1.1467 C   0  0  1  0  0  0  0  0  0  0  0  0
    1.1810   -2.7982    0.9492 C   0  0  0  0  0  0  0  0  0  0  0  0
   -3.6970    1.9804    2.0146 C   0  0  0  0  0  0  0  0  0  0  0  0
    5.2409    0.0682    2.1948 C   0  0  0  0  0  0  0  0  0  0  0  0
   -1.5835   -1.2069   -0.5249 C   0  0  0  0  0  0  0  0  0  0  0  0
    6.7233    0.3305    1.9529 C   0  0  0  0  0  0  0  0  0  0  0  0
   -2.9774   -1.3843   -0.0583 C   0  0  0  0  0  0  0  0  0  0  0  0
    7.2385   -0.3784    0.7239 C   0  0  0  0  0  0  0  0  0  0  0  0
   -3.8989   -1.8728   -0.9007 C   0  0  0  0  0  0  0  0  0  0  0  0
    7.1963    0.2570   -0.5172 C   0  0  0  0  0  0  0  0  0  0  0  0
    7.7570   -1.6690    0.8294 C   0  0  0  0  0  0  0  0  0  0  0  0
    7.6728   -0.3981   -1.6528 C   0  0  0  0  0  0  0  0  0  0  0  0
    8.2332   -2.3242   -0.3063 C   0  0  0  0  0  0  0  0  0  0  0  0
   -5.3119   -2.1041   -0.5525 C   0  0  0  0  0  0  0  0  0  0  0  0
    8.1913   -1.6888   -1.5473 C   0  0  0  0  0  0  0  0  0  0  0  0
   -6.2703   -2.2095   -1.5605 C   0  0  0  0  0  0  0  0  0  0  0  0
   -5.6909   -2.2179    0.7850 C   0  0  0  0  0  0  0  0  0  0  0  0
   -7.6079   -2.4288   -1.2309 C   0  0  0  0  0  0  0  0  0  0  0  0
   -7.0285   -2.4369    1.1145 C   0  0  0  0  0  0  0  0  0  0  0  0
   -7.9870   -2.5426    0.1067 C   0  0  0  0  0  0  0  0  0  0  0  0
    0.4328    1.3558    1.3945 H   0  0  0  0  0  0  0  0  0  0  0  0
    0.7908   -0.7230   -0.7913 H   0  0  0  0  0  0  0  0  0  0  0  0
    2.6979    1.2260   -0.6473 H   0  0  0  0  0  0  0  0  0  0  0  0
    1.1236   -1.0937    2.2378 H   0  0  0  0  0  0  0  0  0  0  0  0
   -0.2706    3.3784    0.5055 H   0  0  0  0  0  0  0  0  0  0  0  0
   -1.7532    2.6461   -2.0874 H   0  0  0  0  0  0  0  0  0  0  0  0
    2.8323    0.5513    2.3465 H   0  0  0  0  0  0  0  0  0  0  0  0
   -2.1995    5.1866   -0.4270 H   0  0  0  0  0  0  0  0  0  0  0  0
   -4.1125    2.7981   -0.5604 H   0  0  0  0  0  0  0  0  0  0  0  0
   -2.2697    3.5566    1.7971 H   0  0  0  0  0  0  0  0  0  0  0  0
    1.4810   -3.0725   -0.0677 H   0  0  0  0  0  0  0  0  0  0  0  0
    0.1428   -3.1006    1.1146 H   0  0  0  0  0  0  0  0  0  0  0  0
   -4.4682    2.5922    2.4922 H   0  0  0  0  0  0  0  0  0  0  0  0
   -4.1770    1.1938    1.4239 H   0  0  0  0  0  0  0  0  0  0  0  0
    2.2480    2.7182    1.7310 H   0  0  0  0  0  0  0  0  0  0  0  0
   -0.0914    4.8205   -1.3178 H   0  0  0  0  0  0  0  0  0  0  0  0
   -3.6339    3.9037   -2.5129 H   0  0  0  0  0  0  0  0  0  0  0  0
   -3.9571    5.0967    1.1113 H   0  0  0  0  0  0  0  0  0  0  0  0
    5.0608   -1.0062    2.3216 H   0  0  0  0  0  0  0  0  0  0  0  0
    4.9373    0.5843    3.1132 H   0  0  0  0  0  0  0  0  0  0  0  0
    1.8706   -4.4590    1.6769 H   0  0  0  0  0  0  0  0  0  0  0  0
    7.3043    0.0193    2.8296 H   0  0  0  0  0  0  0  0  0  0  0  0
    6.8941    1.4084    1.8360 H   0  0  0  0  0  0  0  0  0  0  0  0
   -3.5304    0.8135    3.5553 H   0  0  0  0  0  0  0  0  0  0  0  0
   -3.1943   -1.1001    0.9643 H   0  0  0  0  0  0  0  0  0  0  0  0
   -3.6270   -2.1222   -1.9238 H   0  0  0  0  0  0  0  0  0  0  0  0
    6.7923    1.2633   -0.5990 H   0  0  0  0  0  0  0  0  0  0  0  0
    7.7932   -2.1749    1.7905 H   0  0  0  0  0  0  0  0  0  0  0  0
    8.6340   -3.3297   -0.2098 H   0  0  0  0  0  0  0  0  0  0  0  0
   -5.9789   -2.1197   -2.6048 H   0  0  0  0  0  0  0  0  0  0  0  0
   -4.9772   -2.1618    1.6015 H   0  0  0  0  0  0  0  0  0  0  0  0
    7.2368    1.1160   -2.7404 H   0  0  0  0  0  0  0  0  0  0  0  0
    8.9788   -3.2193   -2.3852 H   0  0  0  0  0  0  0  0  0  0  0  0
   -7.3099   -2.5279    2.1603 H   0  0  0  0  0  0  0  0  0  0  0  0
   -8.0926   -2.4248   -3.0832 H   0  0  0  0  0  0  0  0  0  0  0  0
   -9.3639   -2.8096    1.4097 H   0  0  0  0  0  0  0  0  0  0  0  0
  1 17  1  0  0  0  0
  1 21  1  0  0  0  0
  2 20  1  0  0  0  0
  2 23  1  0  0  0  0
  3 21  1  0  0  0  0
  3 26  1  0  0  0  0
  4 18  1  0  0  0  0
  4 30  1  0  0  0  0
  5 23  1  0  0  0  0
  5 29  1  0  0  0  0
  6 19  1  0  0  0  0
  6 60  1  0  0  0  0
  7 22  1  0  0  0  0
  7 61  1  0  0  0  0
  8 24  1  0  0  0  0
  8 62  1  0  0  0  0
  9 25  1  0  0  0  0
  9 63  1  0  0  0  0
 10 27  1  0  0  0  0
 10 66  1  0  0  0  0
 11 28  1  0  0  0  0
 11 69  1  0  0  0  0
 12 30  2  0  0  0  0
 13 37  1  0  0  0  0
 13 77  1  0  0  0  0
 14 40  1  0  0  0  0
 14 78  1  0  0  0  0
 15 43  1  0  0  0  0
 15 80  1  0  0  0  0
 16 45  1  0  0  0  0
 16 81  1  0  0  0  0
 17 18  1  0  0  0  0
 17 19  1  0  0  0  0
 17 46  1  0  0  0  0
 18 20  1  0  0  0  0
 18 47  1  0  0  0  0
 19 23  1  0  0  0  0
 19 48  1  0  0  0  0
 20 27  1  0  0  0  0
 20 49  1  0  0  0  0
 21 22  1  0  0  0  0
 21 50  1  0  0  0  0
 22 24  1  0  0  0  0
 22 51  1  0  0  0  0
 23 52  1  0  0  0  0
 24 25  1  0  0  0  0
 24 53  1  0  0  0  0
 25 26  1  0  0  0  0
 25 54  1  0  0  0  0
 26 28  1  0  0  0  0
 26 55  1  0  0  0  0
 27 56  1  0  0  0  0
 27 57  1  0  0  0  0
 28 58  1  0  0  0  0
 28 59  1  0  0  0  0
 29 31  1  0  0  0  0
 29 64  1  0  0  0  0
 29 65  1  0  0  0  0
 30 32  1  0  0  0  0
 31 33  1  0  0  0  0
 31 67  1  0  0  0  0
 31 68  1  0  0  0  0
 32 34  2  0  0  0  0
 32 70  1  0  0  0  0
 33 35  2  0  0  0  0
 33 36  1  0  0  0  0
 34 39  1  0  0  0  0
 34 71  1  0  0  0  0
 35 37  1  0  0  0  0
 35 72  1  0  0  0  0
 36 38  2  0  0  0  0
 36 73  1  0  0  0  0
 37 40  2  0  0  0  0
 38 40  1  0  0  0  0
 38 74  1  0  0  0  0
 39 41  2  0  0  0  0
 39 42  1  0  0  0  0
 41 43  1  0  0  0  0
 41 75  1  0  0  0  0
 42 44  2  0  0  0  0
 42 76  1  0  0  0  0
 43 45  2  0  0  0  0
 44 45  1  0  0  0  0
 44 79  1  0  0  0  0
M  END
> <PUBCHEM_COMPOUND_CID>
5281788

> <PUBCHEM_CONFORMER_RMSD>
1.4

> <PUBCHEM_CONFORMER_DIVERSEORDER>
1
12
8
11
21
15
20
7
19
13
5
9
6
17
16
18
4
14
3
10
2

> <PUBCHEM_MMFF94_PARTIAL_CHARGES>
63
1 -0.56
10 -0.68
11 -0.68
12 -0.57
13 -0.53
14 -0.53
15 -0.53
16 -0.53
17 0.28
18 0.28
19 0.28
2 -0.56
20 0.28
21 0.56
22 0.28
23 0.56
24 0.28
25 0.28
26 0.28
27 0.28
28 0.28
29 0.28
3 -0.56
30 0.71
31 0.14
32 -0.14
33 -0.14
34 -0.18
35 -0.15
36 -0.15
37 0.08
38 -0.15
39 0.03
4 -0.43
40 0.08
41 -0.15
42 -0.15
43 0.08
44 -0.15
45 0.08
5 -0.56
6 -0.68
60 0.4
61 0.4
62 0.4
63 0.4
66 0.4
69 0.4
7 -0.68
70 0.15
71 0.15
72 0.15
73 0.15
74 0.15
75 0.15
76 0.15
77 0.45
78 0.45
79 0.15
8 -0.68
80 0.45
81 0.45
9 -0.68

> <PUBCHEM_EFFECTIVE_ROTOR_COUNT>
14.4

> <PUBCHEM_PHARMACOPHORE_FEATURES>
25
1 1 acceptor
1 10 acceptor
1 10 donor
1 11 acceptor
1 11 donor
1 12 acceptor
1 13 donor
1 14 donor
1 15 donor
1 16 donor
1 2 acceptor
1 3 acceptor
1 5 acceptor
1 6 acceptor
1 6 donor
1 7 acceptor
1 7 donor
1 8 acceptor
1 8 donor
1 9 acceptor
1 9 donor
6 2 17 18 19 20 23 rings
6 3 21 22 24 25 26 rings
6 33 35 36 37 38 40 rings
6 39 41 42 43 44 45 rings

> <PUBCHEM_HEAVY_ATOM_COUNT>
45

> <PUBCHEM_ATOM_DEF_STEREO_COUNT>
10

> <PUBCHEM_ATOM_UDEF_STEREO_COUNT>
0

> <PUBCHEM_BOND_DEF_STEREO_COUNT>
1

> <PUBCHEM_BOND_UDEF_STEREO_COUNT>
0

> <PUBCHEM_ISOTOPIC_ATOM_COUNT>
0

> <PUBCHEM_COMPONENT_COUNT>
1

> <PUBCHEM_CACTVS_TAUTO_COUNT>
180

> <PUBCHEM_CONFORMER_ID>
005097FC00000001

> <PUBCHEM_MMFF94_ENERGY>
126.0464

> <PUBCHEM_FEATURE_SELFOVERLAP>
126.986

> <PUBCHEM_SHAPE_FINGERPRINT>
10190108 129 18411698772968070667
11331351 85 18187651241215502317
13617811 41 18202286879943989454
13782708 43 18186242827609064610
14017579 151 17531250500815832671
14295346 376 18264192768642615006
14400156 266 18410856573358460165
15198563 99 18271255984136961085
16989713 51 18411419540080423589
16991971 28 18342456985264725139
21792965 169 17988911298619683094
21814621 53 16660367030521584474
21927370 108 18342171151512790041
23576562 1 18272930523140256196
25269216 80 18410288117504560366
3552219 110 17846778503420719549
563151 40 18269269235312845626

> <PUBCHEM_SHAPE_MULTIPOLES>
832.17
26.77
5.62
2.29
19.69
6.35
-0.38
-29.5
-9.29
-10.58
-1.66
2
0.17
0.19

> <PUBCHEM_SHAPE_SELFOVERLAP>
1763.351

> <PUBCHEM_SHAPE_VOLUME>
457.5

> <PUBCHEM_COORDINATE_TYPE>
2
5
10

$$$$

