107721
  -OEChem-07051212463D

 39 40  0     1  0  0  0  0  0999 V2000
    1.7556    0.7291   -0.0955 O   0  0  0  0  0  0  0  0  0  0  0  0
   -0.2315   -0.4610   -0.3772 O   0  0  0  0  0  0  0  0  0  0  0  0
    4.0137   -2.6553   -0.6560 O   0  0  0  0  0  0  0  0  0  0  0  0
    5.2039   -0.3177    0.5582 O   0  0  0  0  0  0  0  0  0  0  0  0
    1.1723   -2.8729    0.0923 O   0  0  0  0  0  0  0  0  0  0  0  0
    2.7712    3.1394    0.7499 O   0  0  0  0  0  0  0  0  0  0  0  0
   -6.4405   -0.8313    0.2338 O   0  0  0  0  0  0  0  0  0  0  0  0
   -0.5849    2.7519   -1.4115 N   0  0  0  0  0  0  0  0  0  0  0  0
    3.2794   -1.6970    0.1075 C   0  0  1  0  0  0  0  0  0  0  0  0
    3.9356   -0.3307   -0.0918 C   0  0  1  0  0  0  0  0  0  0  0  0
    1.8229   -1.6844   -0.3566 C   0  0  2  0  0  0  0  0  0  0  0  0
    3.0590    0.7824    0.4870 C   0  0  1  0  0  0  0  0  0  0  0  0
    1.0687   -0.4820    0.2112 C   0  0  1  0  0  0  0  0  0  0  0  0
    3.6362    2.1643    0.1969 C   0  0  0  0  0  0  0  0  0  0  0  0
   -0.9947    0.6371    0.0975 C   0  0  2  0  0  0  0  0  0  0  0  0
   -2.4533    0.2443    0.1340 C   0  0  0  0  0  0  0  0  0  0  0  0
   -3.1119    0.1956    1.3513 C   0  0  0  0  0  0  0  0  0  0  0  0
   -3.1026   -0.0602   -1.0510 C   0  0  0  0  0  0  0  0  0  0  0  0
   -0.7654    1.8177   -0.7473 C   0  0  0  0  0  0  0  0  0  0  0  0
   -4.4582   -0.1680    1.3847 C   0  0  0  0  0  0  0  0  0  0  0  0
   -4.4489   -0.4237   -1.0176 C   0  0  0  0  0  0  0  0  0  0  0  0
   -5.1267   -0.4776    0.2003 C   0  0  0  0  0  0  0  0  0  0  0  0
    3.3441   -2.0186    1.1543 H   0  0  0  0  0  0  0  0  0  0  0  0
    4.1136   -0.1645   -1.1614 H   0  0  0  0  0  0  0  0  0  0  0  0
    1.7709   -1.6841   -1.4525 H   0  0  0  0  0  0  0  0  0  0  0  0
    2.9578    0.6790    1.5760 H   0  0  0  0  0  0  0  0  0  0  0  0
    0.9545   -0.5894    1.2990 H   0  0  0  0  0  0  0  0  0  0  0  0
    3.7056    2.3518   -0.8798 H   0  0  0  0  0  0  0  0  0  0  0  0
    4.6273    2.2909    0.6417 H   0  0  0  0  0  0  0  0  0  0  0  0
    4.9350   -2.6304   -0.3455 H   0  0  0  0  0  0  0  0  0  0  0  0
    5.0554   -0.4580    1.5090 H   0  0  0  0  0  0  0  0  0  0  0  0
    1.6757   -3.6285   -0.2561 H   0  0  0  0  0  0  0  0  0  0  0  0
   -0.6886    0.8900    1.1224 H   0  0  0  0  0  0  0  0  0  0  0  0
    1.8939    3.0162    0.3488 H   0  0  0  0  0  0  0  0  0  0  0  0
   -2.6038    0.4329    2.2814 H   0  0  0  0  0  0  0  0  0  0  0  0
   -2.5868   -0.0295   -2.0066 H   0  0  0  0  0  0  0  0  0  0  0  0
   -4.9748   -0.2064    2.3400 H   0  0  0  0  0  0  0  0  0  0  0  0
   -4.9639   -0.6652   -1.9434 H   0  0  0  0  0  0  0  0  0  0  0  0
   -6.7477   -0.8157    1.1566 H   0  0  0  0  0  0  0  0  0  0  0  0
  1 12  1  0  0  0  0
  1 13  1  0  0  0  0
  2 13  1  0  0  0  0
  2 15  1  0  0  0  0
  3  9  1  0  0  0  0
  3 30  1  0  0  0  0
  4 10  1  0  0  0  0
  4 31  1  0  0  0  0
  5 11  1  0  0  0  0
  5 32  1  0  0  0  0
  6 14  1  0  0  0  0
  6 34  1  0  0  0  0
  7 22  1  0  0  0  0
  7 39  1  0  0  0  0
  8 19  3  0  0  0  0
  9 10  1  0  0  0  0
  9 11  1  0  0  0  0
  9 23  1  0  0  0  0
 10 12  1  0  0  0  0
 10 24  1  0  0  0  0
 11 13  1  0  0  0  0
 11 25  1  0  0  0  0
 12 14  1  0  0  0  0
 12 26  1  0  0  0  0
 13 27  1  0  0  0  0
 14 28  1  0  0  0  0
 14 29  1  0  0  0  0
 15 16  1  0  0  0  0
 15 19  1  0  0  0  0
 15 33  1  0  0  0  0
 16 17  2  0  0  0  0
 16 18  1  0  0  0  0
 17 20  1  0  0  0  0
 17 35  1  0  0  0  0
 18 21  2  0  0  0  0
 18 36  1  0  0  0  0
 20 22  2  0  0  0  0
 20 37  1  0  0  0  0
 21 22  1  0  0  0  0
 21 38  1  0  0  0  0
M  END
> <PUBCHEM_COMPOUND_CID>
107721

> <PUBCHEM_CONFORMER_RMSD>
0.8

> <PUBCHEM_CONFORMER_DIVERSEORDER>
1
31
39
8
20
38
45
61
11
15
2
7
12
21
9
44
13
46
4
27
22
51
37
58
40
3
24
6
60
50
57
5
36
35
47
43
17
33
54
56
41
23
48
28
34
18
30
32
25
14
49
53
29
19
16
59
26
10
52
42
55

> <PUBCHEM_MMFF94_PARTIAL_CHARGES>
31
1 -0.56
10 0.28
11 0.28
12 0.28
13 0.56
14 0.28
15 0.62
16 -0.14
17 -0.15
18 -0.15
19 0.36
2 -0.56
20 -0.15
21 -0.15
22 0.08
3 -0.68
30 0.4
31 0.4
32 0.4
34 0.4
35 0.15
36 0.15
37 0.15
38 0.15
39 0.45
4 -0.68
5 -0.68
6 -0.68
7 -0.53
8 -0.56
9 0.28

> <PUBCHEM_EFFECTIVE_ROTOR_COUNT>
5.2

> <PUBCHEM_PHARMACOPHORE_FEATURES>
14
1 1 acceptor
1 2 acceptor
1 3 acceptor
1 3 donor
1 4 acceptor
1 4 donor
1 5 acceptor
1 5 donor
1 6 acceptor
1 6 donor
1 7 donor
1 8 acceptor
6 1 9 10 11 12 13 rings
6 16 17 18 20 21 22 rings

> <PUBCHEM_HEAVY_ATOM_COUNT>
22

> <PUBCHEM_ATOM_DEF_STEREO_COUNT>
6

> <PUBCHEM_ATOM_UDEF_STEREO_COUNT>
0

> <PUBCHEM_BOND_DEF_STEREO_COUNT>
0

> <PUBCHEM_BOND_UDEF_STEREO_COUNT>
0

> <PUBCHEM_ISOTOPIC_ATOM_COUNT>
0

> <PUBCHEM_COMPONENT_COUNT>
1

> <PUBCHEM_CACTVS_TAUTO_COUNT>
2

> <PUBCHEM_CONFORMER_ID>
0001A4C900000001

> <PUBCHEM_MMFF94_ENERGY>
56.6356

> <PUBCHEM_FEATURE_SELFOVERLAP>
71.102

> <PUBCHEM_SHAPE_FINGERPRINT>
10165383 225 18192712246569125656
10366900 7 18130778001704796346
11796584 16 15051729776981135785
12107183 9 17537704874351552443
12236239 1 17603302656887001931
12403259 226 18198346345706415670
12596602 18 16950565462997365843
12616971 3 18041002825825596791
13140716 1 18267587910166822658
13167823 11 18186238446426041251
13533116 47 18261109647832754009
13544653 18 18342734143930717421
13955234 65 18334861589167850194
14252887 29 18272367555668503937
14341114 328 17603863369183678081
14386348 63 17917990573069732379
14849402 71 17677624068864738576
15848702 151 18334574672103493679
17357779 13 18130516309284225765
17844677 252 18408599284286478217
1813 80 18336812182846049701
200 152 18334298695112274259
20645477 70 18341617013914453019
20681677 76 18269002049191363452
21065198 48 18040426716292873185
21197605 99 18121776128226080011
21267235 1 18335977636103444598
221490 88 18267869556878707166
23175994 123 17989201547781731405
23402539 116 18201442505899031803
23557571 272 17346605200773507445
23559900 14 17418378025309984530
239999 70 17988925539849865752
2871803 45 18201157757830570787
31174 14 18409732867773807844
312423 11 18260817245916137561
33824 294 18412547600265865898
350125 39 18410856573147696916
42630746 31 18334294254052877542
474 4 18262520265121593440
5104073 3 18265340692893091842
5283173 99 17702959157251436965
6034566 193 17480014190331856484
81228 2 17702661219443709693

> <PUBCHEM_SHAPE_MULTIPOLES>
406.68
11.48
2.63
1.07
8.2
0.62
-0.03
-3.04
-1.69
-3.75
0.39
0.95
0.25
0.71

> <PUBCHEM_SHAPE_SELFOVERLAP>
852.513

> <PUBCHEM_SHAPE_VOLUME>
225.2

> <PUBCHEM_COORDINATE_TYPE>
2
5
10

$$$$

