448348
  -OEChem-07051212452D

 91 93  0     1  0  0  0  0  0999 V2000
    5.4641   -0.5427    0.0000 P   0  0  3  0  0  0  0  0  0  0  0  0
    6.3301   -5.0427    0.0000 O   0  0  0  0  0  0  0  0  0  0  0  0
    8.0622   -3.0427    0.0000 O   0  0  0  0  0  0  0  0  0  0  0  0
    5.4641   -3.5427    0.0000 O   0  0  0  0  0  0  0  0  0  0  0  0
    5.4641   -1.5427    0.0000 O   0  0  0  0  0  0  0  0  0  0  0  0
    9.8106   -9.0773    0.0000 O   0  0  0  0  0  0  0  0  0  0  0  0
    4.5320   -6.0186    0.0000 O   0  0  0  0  0  0  0  0  0  0  0  0
    5.4641    0.4573    0.0000 O   0  0  0  0  0  0  0  0  0  0  0  0
   11.5923   -6.0186    0.0000 O   0  0  0  0  0  0  0  0  0  0  0  0
    4.4641   -0.5427    0.0000 O   0  0  0  0  0  0  0  0  0  0  0  0
    6.4641   -0.5427    0.0000 O   0  0  0  0  0  0  0  0  0  0  0  0
    5.4641    2.4573    0.0000 O   0  0  0  0  0  0  0  0  0  0  0  0
    6.3301    4.9573    0.0000 O   0  0  0  0  0  0  0  0  0  0  0  0
    2.8660    4.9573    0.0000 O   0  0  0  0  0  0  0  0  0  0  0  0
    2.0000    3.4573    0.0000 O   0  0  0  0  0  0  0  0  0  0  0  0
    7.1962    8.4573    0.0000 O   0  0  0  0  0  0  0  0  0  0  0  0
    5.4641    8.4573    0.0000 O   0  0  0  0  0  0  0  0  0  0  0  0
    9.7942    6.9573    0.0000 O   0  0  0  0  0  0  0  0  0  0  0  0
    8.9282    5.4573    0.0000 O   0  0  0  0  0  0  0  0  0  0  0  0
    8.0622   -6.0427    0.0000 N   0  0  0  0  0  0  0  0  0  0  0  0
    9.8222   -6.0080    0.0000 N   0  0  0  0  0  0  0  0  0  0  0  0
   10.7282   -7.5635    0.0000 N   0  0  0  0  0  0  0  0  0  0  0  0
    3.7320    2.4573    0.0000 N   0  0  0  0  0  0  0  0  0  0  0  0
    5.4641    6.4573    0.0000 N   0  0  0  0  0  0  0  0  0  0  0  0
    8.0622   -5.0427    0.0000 C   0  0  0  0  0  0  0  0  0  0  0  0
    7.1962   -4.5427    0.0000 C   0  0  1  0  0  0  0  0  0  0  0  0
    7.1962   -3.5427    0.0000 C   0  0  1  0  0  0  0  0  0  0  0  0
    7.1962   -6.5427    0.0000 C   0  0  0  0  0  0  0  0  0  0  0  0
    8.9282   -6.5427    0.0000 C   0  0  0  0  0  0  0  0  0  0  0  0
    8.0622   -8.0427    0.0000 C   0  0  0  0  0  0  0  0  0  0  0  0
    7.1962   -7.5427    0.0000 C   0  0  0  0  0  0  0  0  0  0  0  0
    8.9282   -7.5427    0.0000 C   0  0  0  0  0  0  0  0  0  0  0  0
    6.3301   -3.0427    0.0000 C   0  0  1  0  0  0  0  0  0  0  0  0
    6.3022   -6.0080    0.0000 C   0  0  0  0  0  0  0  0  0  0  0  0
    6.3301   -2.0427    0.0000 C   0  0  0  0  0  0  0  0  0  0  0  0
    6.3022   -8.0774    0.0000 C   0  0  0  0  0  0  0  0  0  0  0  0
    9.8222   -8.0774    0.0000 C   0  0  0  0  0  0  0  0  0  0  0  0
    5.3961   -6.5219    0.0000 C   0  0  0  0  0  0  0  0  0  0  0  0
    5.3961   -7.5635    0.0000 C   0  0  0  0  0  0  0  0  0  0  0  0
   10.7282   -6.5219    0.0000 C   0  0  0  0  0  0  0  0  0  0  0  0
    3.7320    3.4573    0.0000 C   0  0  1  0  0  0  0  0  0  0  0  0
    4.5981    3.9573    0.0000 C   0  0  0  0  0  0  0  0  0  0  0  0
    4.5981    0.9573    0.0000 C   0  0  2  0  0  0  0  0  0  0  0  0
    4.5981    4.9573    0.0000 C   0  0  0  0  0  0  0  0  0  0  0  0
    6.3301    6.9573    0.0000 C   0  0  1  0  0  0  0  0  0  0  0  0
    4.5981    1.9573    0.0000 C   0  0  0  0  0  0  0  0  0  0  0  0
    5.4641    5.4573    0.0000 C   0  0  0  0  0  0  0  0  0  0  0  0
    7.1962    6.4573    0.0000 C   0  0  0  0  0  0  0  0  0  0  0  0
    3.7320    0.4573    0.0000 C   0  0  0  0  0  0  0  0  0  0  0  0
    2.8660    3.9573    0.0000 C   0  0  0  0  0  0  0  0  0  0  0  0
    8.0622    6.9573    0.0000 C   0  0  0  0  0  0  0  0  0  0  0  0
    6.3301    7.9573    0.0000 C   0  0  0  0  0  0  0  0  0  0  0  0
    8.9282    6.4573    0.0000 C   0  0  0  0  0  0  0  0  0  0  0  0
    8.6728   -5.1504    0.0000 H   0  0  0  0  0  0  0  0  0  0  0  0
    8.2742   -4.4601    0.0000 H   0  0  0  0  0  0  0  0  0  0  0  0
    6.6592   -4.2327    0.0000 H   0  0  0  0  0  0  0  0  0  0  0  0
    7.7331   -3.8527    0.0000 H   0  0  0  0  0  0  0  0  0  0  0  0
    7.6636   -8.5176    0.0000 H   0  0  0  0  0  0  0  0  0  0  0  0
    8.4607   -8.5176    0.0000 H   0  0  0  0  0  0  0  0  0  0  0  0
    5.7932   -2.7327    0.0000 H   0  0  0  0  0  0  0  0  0  0  0  0
    6.3094   -5.3881    0.0000 H   0  0  0  0  0  0  0  0  0  0  0  0
    9.8150   -5.3881    0.0000 H   0  0  0  0  0  0  0  0  0  0  0  0
    6.9407   -2.1504    0.0000 H   0  0  0  0  0  0  0  0  0  0  0  0
    6.5422   -1.4601    0.0000 H   0  0  0  0  0  0  0  0  0  0  0  0
    6.3094   -8.6973    0.0000 H   0  0  0  0  0  0  0  0  0  0  0  0
    5.7932   -4.7327    0.0000 H   0  0  0  0  0  0  0  0  0  0  0  0
    8.0622   -2.4227    0.0000 H   0  0  0  0  0  0  0  0  0  0  0  0
    4.8604   -7.8756    0.0000 H   0  0  0  0  0  0  0  0  0  0  0  0
   11.2639   -7.8756    0.0000 H   0  0  0  0  0  0  0  0  0  0  0  0
    4.9272   -3.2327    0.0000 H   0  0  0  0  0  0  0  0  0  0  0  0
    4.2690    3.1473    0.0000 H   0  0  0  0  0  0  0  0  0  0  0  0
    4.8101    3.3747    0.0000 H   0  0  0  0  0  0  0  0  0  0  0  0
    5.2087    4.0650    0.0000 H   0  0  0  0  0  0  0  0  0  0  0  0
    3.9939   -6.3265    0.0000 H   0  0  0  0  0  0  0  0  0  0  0  0
    4.5981    0.3373    0.0000 H   0  0  0  0  0  0  0  0  0  0  0  0
    4.3860    5.5399    0.0000 H   0  0  0  0  0  0  0  0  0  0  0  0
    3.9875    4.8496    0.0000 H   0  0  0  0  0  0  0  0  0  0  0  0
    3.1951    2.1473    0.0000 H   0  0  0  0  0  0  0  0  0  0  0  0
    5.7932    7.2673    0.0000 H   0  0  0  0  0  0  0  0  0  0  0  0
    6.7976    5.9824    0.0000 H   0  0  0  0  0  0  0  0  0  0  0  0
    7.5947    5.9824    0.0000 H   0  0  0  0  0  0  0  0  0  0  0  0
    4.9272    6.7673    0.0000 H   0  0  0  0  0  0  0  0  0  0  0  0
    3.4220    0.9942    0.0000 H   0  0  0  0  0  0  0  0  0  0  0  0
    3.1951    0.1473    0.0000 H   0  0  0  0  0  0  0  0  0  0  0  0
    4.0420   -0.0796    0.0000 H   0  0  0  0  0  0  0  0  0  0  0  0
    8.4607    7.4322    0.0000 H   0  0  0  0  0  0  0  0  0  0  0  0
    7.6636    7.4322    0.0000 H   0  0  0  0  0  0  0  0  0  0  0  0
    4.1541   -1.0796    0.0000 H   0  0  0  0  0  0  0  0  0  0  0  0
    2.3291    5.2673    0.0000 H   0  0  0  0  0  0  0  0  0  0  0  0
    7.1962    9.0773    0.0000 H   0  0  0  0  0  0  0  0  0  0  0  0
   10.3312    6.6473    0.0000 H   0  0  0  0  0  0  0  0  0  0  0  0
  1  5  1  0  0  0  0
  1  8  1  0  0  0  0
  1 10  1  0  0  0  0
  1 11  2  0  0  0  0
 26  2  1  6  0  0  0
  2 66  1  0  0  0  0
 27  3  1  1  0  0  0
  3 67  1  0  0  0  0
 33  4  1  6  0  0  0
  4 70  1  0  0  0  0
  5 35  1  0  0  0  0
  6 37  2  0  0  0  0
  7 38  1  0  0  0  0
  7 74  1  0  0  0  0
 43  8  1  1  0  0  0
  9 40  2  0  0  0  0
 10 88  1  0  0  0  0
 12 46  2  0  0  0  0
 13 47  2  0  0  0  0
 14 50  1  0  0  0  0
 14 89  1  0  0  0  0
 15 50  2  0  0  0  0
 16 52  1  0  0  0  0
 16 90  1  0  0  0  0
 17 52  2  0  0  0  0
 18 53  1  0  0  0  0
 18 91  1  0  0  0  0
 19 53  2  0  0  0  0
 20 25  1  0  0  0  0
 20 28  1  0  0  0  0
 20 29  1  0  0  0  0
 21 29  1  0  0  0  0
 21 40  1  0  0  0  0
 21 62  1  0  0  0  0
 22 37  1  0  0  0  0
 22 40  1  0  0  0  0
 22 69  1  0  0  0  0
 41 23  1  6  0  0  0
 23 46  1  0  0  0  0
 23 78  1  0  0  0  0
 45 24  1  6  0  0  0
 24 47  1  0  0  0  0
 24 82  1  0  0  0  0
 25 26  1  0  0  0  0
 25 54  1  0  0  0  0
 25 55  1  0  0  0  0
 26 27  1  0  0  0  0
 26 56  1  0  0  0  0
 27 33  1  0  0  0  0
 27 57  1  0  0  0  0
 28 31  2  0  0  0  0
 28 34  1  0  0  0  0
 29 32  2  0  0  0  0
 30 31  1  0  0  0  0
 30 32  1  0  0  0  0
 30 58  1  0  0  0  0
 30 59  1  0  0  0  0
 31 36  1  0  0  0  0
 32 37  1  0  0  0  0
 33 35  1  0  0  0  0
 33 60  1  0  0  0  0
 34 38  2  0  0  0  0
 34 61  1  0  0  0  0
 35 63  1  0  0  0  0
 35 64  1  0  0  0  0
 36 39  2  0  0  0  0
 36 65  1  0  0  0  0
 38 39  1  0  0  0  0
 39 68  1  0  0  0  0
 41 42  1  0  0  0  0
 41 50  1  0  0  0  0
 41 71  1  0  0  0  0
 42 44  1  0  0  0  0
 42 72  1  0  0  0  0
 42 73  1  0  0  0  0
 43 46  1  0  0  0  0
 43 49  1  0  0  0  0
 43 75  1  0  0  0  0
 44 47  1  0  0  0  0
 44 76  1  0  0  0  0
 44 77  1  0  0  0  0
 45 48  1  0  0  0  0
 45 52  1  0  0  0  0
 45 79  1  0  0  0  0
 48 51  1  0  0  0  0
 48 80  1  0  0  0  0
 48 81  1  0  0  0  0
 49 83  1  0  0  0  0
 49 84  1  0  0  0  0
 49 85  1  0  0  0  0
 51 53  1  0  0  0  0
 51 86  1  0  0  0  0
 51 87  1  0  0  0  0
M  END
> <PUBCHEM_COMPOUND_CID>
448348

> <PUBCHEM_COMPOUND_CANONICALIZED>
1

> <PUBCHEM_CACTVS_COMPLEXITY>
1510

> <PUBCHEM_CACTVS_HBOND_ACCEPTOR>
19

> <PUBCHEM_CACTVS_HBOND_DONOR>
12

> <PUBCHEM_CACTVS_ROTATABLE_BOND>
20

> <PUBCHEM_CACTVS_SUBSKEYS>
AAADcfB7vgIAAAAAAAAAAAAAAAAAAAAAAAAwQIAAAAAAAACxAAAAHgAQCCAADDzhmAYzzoPAAxCIQiXSWIKCAAAhIgAIiIHObMiLNjLCkbOEcAhv1zvZ2Gf8/6OeIAAAAgACAABAAAAEAAQAAAAAAAAAAA==

> <PUBCHEM_IUPAC_OPENEYE_NAME>
(2S)-2-[[(4S)-4-carboxy-4-[[(2S)-2-[hydroxy-[(2R,3S,4S)-2,3,4-trihydroxy-5-(8-hydroxy-2,4-dioxo-1,5-dihydropyrimido[4,5-b]quinolin-10-yl)pentoxy]phosphoryl]oxypropanoyl]amino]butanoyl]amino]pentanedioic acid

> <PUBCHEM_IUPAC_CAS_NAME>
(2S)-2-[[(4S)-4-carboxy-4-[[(2S)-2-[hydroxy-[(2R,3S,4S)-2,3,4-trihydroxy-5-(8-hydroxy-2,4-dioxo-1,5-dihydropyrimido[4,5-b]quinolin-10-yl)pentoxy]phosphoryl]oxy-1-oxopropyl]amino]-1-oxobutyl]amino]pentanedioic acid

> <PUBCHEM_IUPAC_NAME>
(2S)-2-[[(4S)-4-carboxy-4-[[(2S)-2-[hydroxy-[(2R,3S,4S)-2,3,4-trihydroxy-5-(8-hydroxy-2,4-dioxo-1,5-dihydropyrimido[4,5-b]quinolin-10-yl)pentoxy]phosphoryl]oxypropanoyl]amino]butanoyl]amino]pentanedioic acid

> <PUBCHEM_IUPAC_SYSTEMATIC_NAME>
(2S)-2-[[(4S)-5-oxidanyl-5-oxidanylidene-4-[[(2S)-2-[oxidanyl-[(2R,3S,4S)-2,3,4-tris(oxidanyl)-5-[8-oxidanyl-2,4-bis(oxidanylidene)-1,5-dihydropyrimido[4,5-b]quinolin-10-yl]pentoxy]phosphoryl]oxypropanoyl]amino]pentanoyl]amino]pentanedioic acid

> <PUBCHEM_IUPAC_TRADITIONAL_NAME>
(2S)-2-[[(4S)-4-carboxy-4-[[(2S)-2-[hydroxy-[(2R,3S,4S)-2,3,4-trihydroxy-5-(8-hydroxy-2,4-diketo-1,5-dihydropyrimido[4,5-b]quinolin-10-yl)pentoxy]phosphoryl]oxypropanoyl]amino]butanoyl]amino]glutaric acid

> <PUBCHEM_IUPAC_INCHI>
InChI=1S/C29H38N5O18P/c1-12(25(42)31-17(28(46)47)4-6-21(38)30-16(27(44)45)5-7-22(39)40)52-53(49,50)51-11-20(37)23(41)19(36)10-34-18-9-14(35)3-2-13(18)8-15-24(34)32-29(48)33-26(15)43/h2-3,9,12,16-17,19-20,23,35-37,41H,4-8,10-11H2,1H3,(H,30,38)(H,31,42)(H,39,40)(H,44,45)(H,46,47)(H,49,50)(H2,32,33,43,48)/t12-,16-,17-,19-,20+,23-/m0/s1

> <PUBCHEM_IUPAC_INCHIKEY>
IXPYGZIWHPPILV-NALJQGANSA-N

> <PUBCHEM_XLOGP3_AA>
-4.1

> <PUBCHEM_EXACT_MASS>
775.194946

> <PUBCHEM_MOLECULAR_FORMULA>
C29H38N5O18P

> <PUBCHEM_MOLECULAR_WEIGHT>
775.608482

> <PUBCHEM_OPENEYE_CAN_SMILES>
CC(C(=O)NC(CCC(=O)NC(CCC(=O)O)C(=O)O)C(=O)O)OP(=O)(O)OCC(C(C(CN1C2=C(CC3=C1NC(=O)NC3=O)C=CC(=C2)O)O)O)O

> <PUBCHEM_OPENEYE_ISO_SMILES>
C[C@@H](C(=O)N[C@@H](CCC(=O)N[C@@H](CCC(=O)O)C(=O)O)C(=O)O)OP(=O)(O)OC[C@H]([C@H]([C@H](CN1C2=C(CC3=C1NC(=O)NC3=O)C=CC(=C2)O)O)O)O

> <PUBCHEM_CACTVS_TPSA>
368

> <PUBCHEM_MONOISOTOPIC_WEIGHT>
775.194946

> <PUBCHEM_TOTAL_CHARGE>
0

> <PUBCHEM_HEAVY_ATOM_COUNT>
53

> <PUBCHEM_ATOM_DEF_STEREO_COUNT>
6

> <PUBCHEM_ATOM_UDEF_STEREO_COUNT>
0

> <PUBCHEM_BOND_DEF_STEREO_COUNT>
0

> <PUBCHEM_BOND_UDEF_STEREO_COUNT>
0

> <PUBCHEM_ISOTOPIC_ATOM_COUNT>
0

> <PUBCHEM_COMPONENT_COUNT>
1

> <PUBCHEM_CACTVS_TAUTO_COUNT>
108

> <PUBCHEM_COORDINATE_TYPE>
1
5
255

> <PUBCHEM_BONDANNOTATIONS>
26  2  6
21  29  8
21  40  8
22  37  8
22  40  8
41  23  6
45  24  6
28  31  8
28  34  8
29  32  8
27  3  5
31  36  8
32  37  8
34  38  8
36  39  8
38  39  8
33  4  6
43  8  5

$$$$

