184887
  -OEChem-07051213102D

 37 40  0     1  0  0  0  0  0999 V2000
    3.0827   -2.3706    0.0000 Br  0  0  0  0  0  0  0  0  0  0  0  0
    9.5068    1.2642    0.0000 S   0  0  0  0  0  0  0  0  0  0  0  0
    8.1271    2.3706    0.0000 O   0  0  0  0  0  0  0  0  0  0  0  0
    2.2505   -0.5057    0.0000 O   0  0  0  0  0  0  0  0  0  0  0  0
    7.3562    1.7642    0.0000 N   0  0  3  0  0  0  0  0  0  0  0  0
    6.2810   -0.7076    0.0000 N   0  0  0  0  0  0  0  0  0  0  0  0
    7.9098   -0.8182    0.0000 N   0  0  0  0  0  0  0  0  0  0  0  0
    7.3562    0.7642    0.0000 C   0  0  2  0  0  0  0  0  0  0  0  0
    6.4902    0.2642    0.0000 C   0  0  0  0  0  0  0  0  0  0  0  0
    8.1271    0.1579    0.0000 C   0  0  1  0  0  0  0  0  0  0  0  0
    5.6242    0.7642    0.0000 C   0  0  0  0  0  0  0  0  0  0  0  0
    5.6242    1.7642    0.0000 C   0  0  0  0  0  0  0  0  0  0  0  0
    6.4902    2.2642    0.0000 C   0  0  0  0  0  0  0  0  0  0  0  0
    4.8871    0.0971    0.0000 C   0  0  0  0  0  0  0  0  0  0  0  0
    9.0824    0.3800    0.0000 C   0  0  0  0  0  0  0  0  0  0  0  0
    5.2923   -0.8107    0.0000 C   0  0  0  0  0  0  0  0  0  0  0  0
    9.0824    2.1484    0.0000 C   0  0  0  0  0  0  0  0  0  0  0  0
    3.8590    0.2203    0.0000 C   0  0  0  0  0  0  0  0  0  0  0  0
    4.6974   -1.6582    0.0000 C   0  0  0  0  0  0  0  0  0  0  0  0
    3.2447   -0.6132    0.0000 C   0  0  0  0  0  0  0  0  0  0  0  0
    3.6667   -1.5588    0.0000 C   0  0  0  0  0  0  0  0  0  0  0  0
    7.2955   -0.0836    0.0000 H   0  0  0  0  0  0  0  0  0  0  0  0
    8.5676   -0.2785    0.0000 H   0  0  0  0  0  0  0  0  0  0  0  0
    5.4121    2.3468    0.0000 H   0  0  0  0  0  0  0  0  0  0  0  0
    5.0136    1.6566    0.0000 H   0  0  0  0  0  0  0  0  0  0  0  0
    6.8887    2.7392    0.0000 H   0  0  0  0  0  0  0  0  0  0  0  0
    6.0917    2.7392    0.0000 H   0  0  0  0  0  0  0  0  0  0  0  0
    6.6950   -1.1691    0.0000 H   0  0  0  0  0  0  0  0  0  0  0  0
    9.0844   -0.2400    0.0000 H   0  0  0  0  0  0  0  0  0  0  0  0
    9.6872    0.2434    0.0000 H   0  0  0  0  0  0  0  0  0  0  0  0
    8.3666   -1.2375    0.0000 H   0  0  0  0  0  0  0  0  0  0  0  0
    7.3184   -1.0042    0.0000 H   0  0  0  0  0  0  0  0  0  0  0  0
    9.6872    2.2850    0.0000 H   0  0  0  0  0  0  0  0  0  0  0  0
    9.0844    2.7684    0.0000 H   0  0  0  0  0  0  0  0  0  0  0  0
    3.6129    0.7894    0.0000 H   0  0  0  0  0  0  0  0  0  0  0  0
    4.9565   -2.2214    0.0000 H   0  0  0  0  0  0  0  0  0  0  0  0
    2.0000    0.0615    0.0000 H   0  0  0  0  0  0  0  0  0  0  0  0
  1 21  1  0  0  0  0
  2 15  1  0  0  0  0
  2 17  1  0  0  0  0
  3  5  1  0  0  0  0
  3 17  1  0  0  0  0
  4 20  1  0  0  0  0
  4 37  1  0  0  0  0
  5  8  1  0  0  0  0
  5 13  1  0  0  0  0
  6  9  1  0  0  0  0
  6 16  1  0  0  0  0
  6 28  1  0  0  0  0
 10  7  1  1  0  0  0
  7 31  1  0  0  0  0
  7 32  1  0  0  0  0
  8  9  1  0  0  0  0
  8 10  1  0  0  0  0
  8 22  1  6  0  0  0
  9 11  2  0  0  0  0
 10 15  1  0  0  0  0
 10 23  1  0  0  0  0
 11 12  1  0  0  0  0
 11 14  1  0  0  0  0
 12 13  1  0  0  0  0
 12 24  1  0  0  0  0
 12 25  1  0  0  0  0
 13 26  1  0  0  0  0
 13 27  1  0  0  0  0
 14 16  1  0  0  0  0
 14 18  2  0  0  0  0
 15 29  1  0  0  0  0
 15 30  1  0  0  0  0
 16 19  2  0  0  0  0
 17 33  1  0  0  0  0
 17 34  1  0  0  0  0
 18 20  1  0  0  0  0
 18 35  1  0  0  0  0
 19 21  1  0  0  0  0
 19 36  1  0  0  0  0
 20 21  2  0  0  0  0
M  END
> <PUBCHEM_COMPOUND_CID>
184887

> <PUBCHEM_COMPOUND_CANONICALIZED>
1

> <PUBCHEM_CACTVS_COMPLEXITY>
404

> <PUBCHEM_CACTVS_HBOND_ACCEPTOR>
5

> <PUBCHEM_CACTVS_HBOND_DONOR>
3

> <PUBCHEM_CACTVS_ROTATABLE_BOND>
0

> <PUBCHEM_CACTVS_SUBSKEYS>
AAADceBzMABAEAAAAAAAAAAAAAAAAWAAAAA8QAAABYAAAFgB8AAAHgRUCAABrCzF3gawxvLZkgigAyRiRACCgCAhIjQgmaA+bLgIZuLi0JOUcAhk0BHI2hew0PMOgkABAAECBAAEgAIAAgQIAAAAAAAAAA==

> <PUBCHEM_IUPAC_INCHI>
InChI=1S/C14H16BrN3O2S/c15-9-4-11-8(3-12(9)19)7-1-2-18-14(13(7)17-11)10(16)5-21-6-20-18/h3-4,10,14,17,19H,1-2,5-6,16H2/t10-,14+/m1/s1

> <PUBCHEM_IUPAC_INCHIKEY>
XHYJPORPMFTSBP-YGRLFVJLSA-N

> <PUBCHEM_XLOGP3_AA>
2

> <PUBCHEM_EXACT_MASS>
369.01466

> <PUBCHEM_MOLECULAR_FORMULA>
C14H16BrN3O2S

> <PUBCHEM_MOLECULAR_WEIGHT>
370.26474

> <PUBCHEM_OPENEYE_CAN_SMILES>
C1CN2C(C(CSCO2)N)C3=C1C4=CC(=C(C=C4N3)Br)O

> <PUBCHEM_OPENEYE_ISO_SMILES>
C1CN2[C@@H]([C@@H](CSCO2)N)C3=C1C4=CC(=C(C=C4N3)Br)O

> <PUBCHEM_CACTVS_TPSA>
99.8

> <PUBCHEM_MONOISOTOPIC_WEIGHT>
369.01466

> <PUBCHEM_TOTAL_CHARGE>
0

> <PUBCHEM_HEAVY_ATOM_COUNT>
21

> <PUBCHEM_ATOM_DEF_STEREO_COUNT>
2

> <PUBCHEM_ATOM_UDEF_STEREO_COUNT>
0

> <PUBCHEM_BOND_DEF_STEREO_COUNT>
0

> <PUBCHEM_BOND_UDEF_STEREO_COUNT>
0

> <PUBCHEM_ISOTOPIC_ATOM_COUNT>
0

> <PUBCHEM_COMPONENT_COUNT>
1

> <PUBCHEM_CACTVS_TAUTO_COUNT>
15

> <PUBCHEM_COORDINATE_TYPE>
1
5
255

> <PUBCHEM_BONDANNOTATIONS>
11  14  8
14  16  8
14  18  8
16  19  8
18  20  8
19  21  8
20  21  8
6  16  8
6  9  8
10  7  5
8  22  6
9  11  8

$$$$

