17395597
  -OEChem-06241222513D

 61 64  0     1  0  0  0  0  0999 V2000
    6.1626    2.5765   -0.2840 S   0  0  0  0  0  0  0  0  0  0  0  0
   -0.7651    1.7978    0.5942 S   0  0  0  0  0  0  0  0  0  0  0  0
    7.2427    2.2179   -1.1792 O   0  0  0  0  0  0  0  0  0  0  0  0
    5.9878    3.9235    0.2181 O   0  0  0  0  0  0  0  0  0  0  0  0
    2.1094    2.2686    0.6763 O   0  0  0  0  0  0  0  0  0  0  0  0
    2.9117    0.3591   -0.3945 N   0  0  0  0  0  0  0  0  0  0  0  0
   -4.4194    0.4524    0.0850 N   0  0  0  0  0  0  0  0  0  0  0  0
   -2.3028   -0.2624   -0.4065 N   0  0  0  0  0  0  0  0  0  0  0  0
   -3.4935    1.3298    0.5005 N   0  0  0  0  0  0  0  0  0  0  0  0
    4.3017    0.7065   -0.2952 C   0  0  1  0  0  0  0  0  0  0  0  0
    4.6175    2.0278   -0.9951 C   0  0  0  0  0  0  0  0  0  0  0  0
    4.7496    0.8816    1.1581 C   0  0  0  0  0  0  0  0  0  0  0  0
    6.1653    1.4430    1.0971 C   0  0  0  0  0  0  0  0  0  0  0  0
    2.6195   -0.9152   -1.0574 C   0  0  0  0  0  0  0  0  0  0  0  0
    1.8911    1.1923    0.1145 C   0  0  0  0  0  0  0  0  0  0  0  0
    3.2142   -2.0808   -0.3213 C   0  0  0  0  0  0  0  0  0  0  0  0
    0.4790    0.6672   -0.0797 C   0  0  0  0  0  0  0  0  0  0  0  0
    2.4781   -2.7285    0.6708 C   0  0  0  0  0  0  0  0  0  0  0  0
    4.5034   -2.5158   -0.6293 C   0  0  0  0  0  0  0  0  0  0  0  0
    3.0310   -3.8112    1.3548 C   0  0  0  0  0  0  0  0  0  0  0  0
    5.0561   -3.5986    0.0545 C   0  0  0  0  0  0  0  0  0  0  0  0
   -2.2382    0.8977    0.2047 C   0  0  0  0  0  0  0  0  0  0  0  0
    4.3200   -4.2462    1.0466 C   0  0  0  0  0  0  0  0  0  0  0  0
   -4.2388   -1.7064   -1.0703 C   0  0  0  0  0  0  0  0  0  0  0  0
   -3.6479   -0.4925   -0.4565 C   0  0  0  0  0  0  0  0  0  0  0  0
   -3.8175   -3.0091   -0.3549 C   0  0  0  0  0  0  0  0  0  0  0  0
   -3.9373   -1.8258   -2.5805 C   0  0  0  0  0  0  0  0  0  0  0  0
   -5.7847    0.5956    0.2343 C   0  0  0  0  0  0  0  0  0  0  0  0
   -6.5101   -0.3512    0.9575 C   0  0  0  0  0  0  0  0  0  0  0  0
   -6.4380    1.6888   -0.3349 C   0  0  0  0  0  0  0  0  0  0  0  0
   -7.8888   -0.2051    1.1113 C   0  0  0  0  0  0  0  0  0  0  0  0
   -7.8167    1.8348   -0.1810 C   0  0  0  0  0  0  0  0  0  0  0  0
   -8.5419    0.8878    0.5421 C   0  0  0  0  0  0  0  0  0  0  0  0
    4.9379   -0.0398   -0.7720 H   0  0  0  0  0  0  0  0  0  0  0  0
    4.7433    1.8977   -2.0737 H   0  0  0  0  0  0  0  0  0  0  0  0
    3.8859    2.8194   -0.8224 H   0  0  0  0  0  0  0  0  0  0  0  0
    4.1205    1.5855    1.7112 H   0  0  0  0  0  0  0  0  0  0  0  0
    4.7265   -0.0646    1.7089 H   0  0  0  0  0  0  0  0  0  0  0  0
    6.4479    1.9712    2.0100 H   0  0  0  0  0  0  0  0  0  0  0  0
    6.8910    0.6534    0.8809 H   0  0  0  0  0  0  0  0  0  0  0  0
    3.0447   -0.8538   -2.0684 H   0  0  0  0  0  0  0  0  0  0  0  0
    1.5568   -1.1027   -1.2172 H   0  0  0  0  0  0  0  0  0  0  0  0
    0.3778   -0.2928    0.4331 H   0  0  0  0  0  0  0  0  0  0  0  0
    0.2835    0.5617   -1.1511 H   0  0  0  0  0  0  0  0  0  0  0  0
    1.4729   -2.4018    0.9211 H   0  0  0  0  0  0  0  0  0  0  0  0
    5.0825   -2.0546   -1.4242 H   0  0  0  0  0  0  0  0  0  0  0  0
    2.4576   -4.3160    2.1268 H   0  0  0  0  0  0  0  0  0  0  0  0
    6.0563   -3.9432   -0.1914 H   0  0  0  0  0  0  0  0  0  0  0  0
   -5.3320   -1.6780   -1.0110 H   0  0  0  0  0  0  0  0  0  0  0  0
    4.7497   -5.0905    1.5777 H   0  0  0  0  0  0  0  0  0  0  0  0
   -4.0818   -2.9700    0.7074 H   0  0  0  0  0  0  0  0  0  0  0  0
   -4.3174   -3.8767   -0.7982 H   0  0  0  0  0  0  0  0  0  0  0  0
   -2.7352   -3.1652   -0.4248 H   0  0  0  0  0  0  0  0  0  0  0  0
   -2.8610   -1.9222   -2.7615 H   0  0  0  0  0  0  0  0  0  0  0  0
   -4.2881   -0.9364   -3.1155 H   0  0  0  0  0  0  0  0  0  0  0  0
   -4.4362   -2.7006   -3.0105 H   0  0  0  0  0  0  0  0  0  0  0  0
   -6.0181   -1.2039    1.4191 H   0  0  0  0  0  0  0  0  0  0  0  0
   -5.8881    2.4349   -0.9036 H   0  0  0  0  0  0  0  0  0  0  0  0
   -8.4532   -0.9410    1.6766 H   0  0  0  0  0  0  0  0  0  0  0  0
   -8.3257    2.6855   -0.6245 H   0  0  0  0  0  0  0  0  0  0  0  0
   -9.6153    1.0019    0.6623 H   0  0  0  0  0  0  0  0  0  0  0  0
  1  3  2  0  0  0  0
  1  4  2  0  0  0  0
  1 11  1  0  0  0  0
  1 13  1  0  0  0  0
  2 17  1  0  0  0  0
  2 22  1  0  0  0  0
  5 15  2  0  0  0  0
  6 10  1  0  0  0  0
  6 14  1  0  0  0  0
  6 15  1  0  0  0  0
  7  9  1  0  0  0  0
  7 25  1  0  0  0  0
  7 28  1  0  0  0  0
  8 22  1  0  0  0  0
  8 25  2  0  0  0  0
  9 22  2  0  0  0  0
 10 11  1  0  0  0  0
 10 12  1  0  0  0  0
 10 34  1  0  0  0  0
 11 35  1  0  0  0  0
 11 36  1  0  0  0  0
 12 13  1  0  0  0  0
 12 37  1  0  0  0  0
 12 38  1  0  0  0  0
 13 39  1  0  0  0  0
 13 40  1  0  0  0  0
 14 16  1  0  0  0  0
 14 41  1  0  0  0  0
 14 42  1  0  0  0  0
 15 17  1  0  0  0  0
 16 18  2  0  0  0  0
 16 19  1  0  0  0  0
 17 43  1  0  0  0  0
 17 44  1  0  0  0  0
 18 20  1  0  0  0  0
 18 45  1  0  0  0  0
 19 21  2  0  0  0  0
 19 46  1  0  0  0  0
 20 23  2  0  0  0  0
 20 47  1  0  0  0  0
 21 23  1  0  0  0  0
 21 48  1  0  0  0  0
 23 50  1  0  0  0  0
 24 25  1  0  0  0  0
 24 26  1  0  0  0  0
 24 27  1  0  0  0  0
 24 49  1  0  0  0  0
 26 51  1  0  0  0  0
 26 52  1  0  0  0  0
 26 53  1  0  0  0  0
 27 54  1  0  0  0  0
 27 55  1  0  0  0  0
 27 56  1  0  0  0  0
 28 29  2  0  0  0  0
 28 30  1  0  0  0  0
 29 31  1  0  0  0  0
 29 57  1  0  0  0  0
 30 32  2  0  0  0  0
 30 58  1  0  0  0  0
 31 33  2  0  0  0  0
 31 59  1  0  0  0  0
 32 33  1  0  0  0  0
 32 60  1  0  0  0  0
 33 61  1  0  0  0  0
M  END
> <PUBCHEM_COMPOUND_CID>
17395597

> <PUBCHEM_CONFORMER_RMSD>
1

> <PUBCHEM_CONFORMER_DIVERSEORDER>
1
157
24
166
161
94
42
139
167
130
60
111
100
116
125
146
41
30
160
90
83
113
92
80
55
153
131
159
121
59
74
29
101
73
149
158
98
145
106
115
103
22
142
144
91
138
32
134
102
54
81
128
137
53
165
75
108
86
164
64
155
49
33
117
99
38
114
109
17
141
151
140
40
62
104
72
21
107
93
135
132
65
154
129
63
77
76
87
136
45
52
10
156
71
119
150
124
88
127
82
12
96
13
89
97
143
122
46
84
44
126
20
15
47
69
58
34
25
78
68
112
35
152
95
51
105
16
118
28
133
39
110
5
147
6
79
148
11
56
70
163
67
9
66
8
26
162
18
31
61
7
36
120
3
27
4
19
43
23
123
48
85
37
14
50
57
2

> <PUBCHEM_MMFF94_PARTIAL_CHARGES>
40
1 1.09
10 0.3
11 0.11
13 0.11
14 0.44
15 0.57
16 -0.14
17 0.29
18 -0.15
19 -0.15
2 -0.28
20 -0.15
21 -0.15
22 0.57
23 -0.15
24 0.18
25 0.01
28 -0.02
29 -0.15
3 -0.65
30 -0.15
31 -0.15
32 -0.15
33 -0.15
4 -0.65
45 0.15
46 0.15
47 0.15
48 0.15
5 -0.57
50 0.15
57 0.15
58 0.15
59 0.15
6 -0.66
60 0.15
61 0.15
7 0.59
8 -0.57
9 -0.71

> <PUBCHEM_EFFECTIVE_ROTOR_COUNT>
9.8

> <PUBCHEM_PHARMACOPHORE_FEATURES>
10
1 3 acceptor
1 4 acceptor
1 5 acceptor
3 24 26 27 hydrophobe
3 7 8 25 cation
3 8 9 22 cation
5 1 10 11 12 13 rings
5 7 8 9 22 25 rings
6 16 18 19 20 21 23 rings
6 28 29 30 31 32 33 rings

> <PUBCHEM_HEAVY_ATOM_COUNT>
33

> <PUBCHEM_ATOM_DEF_STEREO_COUNT>
0

> <PUBCHEM_ATOM_UDEF_STEREO_COUNT>
1

> <PUBCHEM_BOND_DEF_STEREO_COUNT>
0

> <PUBCHEM_BOND_UDEF_STEREO_COUNT>
0

> <PUBCHEM_ISOTOPIC_ATOM_COUNT>
0

> <PUBCHEM_COMPONENT_COUNT>
1

> <PUBCHEM_CACTVS_TAUTO_COUNT>
3

> <PUBCHEM_CONFORMER_ID>
01096F8D00000001

> <PUBCHEM_MMFF94_ENERGY>
104.7398

> <PUBCHEM_FEATURE_SELFOVERLAP>
53.508

> <PUBCHEM_SHAPE_FINGERPRINT>
10050765 1 18268147750063554057
10411042 1 17979354489485243154
11135926 11 18340498785083017078
11719270 70 18342457020019797296
12788726 201 17676479596996710889
13073987 5 18337389448089414233
13533116 47 18408605898024125625
14092694 8 16773232881959142823
14118638 360 18334571382475842425
14394314 77 18335136480308284105
14400156 413 18341059591680141485
15001296 14 18412548738153286986
15183329 4 17748824129637205681
15276724 80 18411136974483297717
15537594 2 18260545602377848511
15927050 60 18264491684932966382
16112460 7 18187922919614417315
16993438 75 17912919483719831914
19315958 150 18413666916272855601
20511986 3 18187655690753784581
20771845 171 17846204572006042660
21781055 127 16516233159174518603
23559900 14 17095809815556356777
3004659 81 18335699511058793527
3411729 13 18408041802010956830
4073 2 18341328886218277267
4149490 64 18201718453026486770
44317340 157 18341050799854906767
5104073 3 18188206640711421889
6441014 3 17188978354712473954
9962374 69 18189062039183216382

> <PUBCHEM_SHAPE_MULTIPOLES>
649.29
23.67
4.69
1.29
29.88
3.48
-0.4
-10.09
2.26
-10.45
0.61
0.26
0.61
-2.11

> <PUBCHEM_SHAPE_SELFOVERLAP>
1356.362

> <PUBCHEM_SHAPE_VOLUME>
370.4

> <PUBCHEM_COORDINATE_TYPE>
2
5
10

$$$$

