17395480
  -OEChem-06241222503D

 36 39  0     0  0  0  0  0  0999 V2000
    0.1840    1.0665   -0.0584 S   0  0  0  0  0  0  0  0  0  0  0  0
    4.6131   -0.1345   -0.6871 N   0  0  0  0  0  0  0  0  0  0  0  0
   -3.5900    0.7541    0.0029 N   0  0  0  0  0  0  0  0  0  0  0  0
    3.2343   -0.3050    1.0659 N   0  0  0  0  0  0  0  0  0  0  0  0
   -2.4698    1.5210   -0.0113 N   0  0  0  0  0  0  0  0  0  0  0  0
   -4.1608   -1.5809   -0.0020 N   0  0  0  0  0  0  0  0  0  0  0  0
   -1.9065   -0.6855   -0.0348 N   0  0  0  0  0  0  0  0  0  0  0  0
    2.5230   -0.3748   -0.1052 C   0  0  0  0  0  0  0  0  0  0  0  0
   -4.9303    1.1521    0.0276 C   0  0  0  0  0  0  0  0  0  0  0  0
    4.4914   -0.1601    0.6998 C   0  0  0  0  0  0  0  0  0  0  0  0
    1.0391   -0.5430   -0.0819 C   0  0  0  0  0  0  0  0  0  0  0  0
    3.3489   -0.2727   -1.1998 C   0  0  0  0  0  0  0  0  0  0  0  0
   -3.2210   -0.5941   -0.0117 C   0  0  0  0  0  0  0  0  0  0  0  0
   -5.8849    0.2090    0.0378 C   0  0  0  0  0  0  0  0  0  0  0  0
   -5.4061   -1.2061    0.0215 C   0  0  0  0  0  0  0  0  0  0  0  0
   -1.5015    0.6100   -0.0337 C   0  0  0  0  0  0  0  0  0  0  0  0
    5.8281    0.0080   -1.3514 C   0  0  0  0  0  0  0  0  0  0  0  0
    5.6923   -0.0317    1.4577 C   0  0  0  0  0  0  0  0  0  0  0  0
   -5.2479    2.6161    0.0413 C   0  0  0  0  0  0  0  0  0  0  0  0
    6.9547    0.1288   -0.6305 C   0  0  0  0  0  0  0  0  0  0  0  0
    6.8714    0.1067    0.8211 C   0  0  0  0  0  0  0  0  0  0  0  0
   -6.4617   -2.2838    0.0322 C   0  0  0  0  0  0  0  0  0  0  0  0
    0.7175   -1.1084   -0.9635 H   0  0  0  0  0  0  0  0  0  0  0  0
    0.7515   -1.1145    0.8073 H   0  0  0  0  0  0  0  0  0  0  0  0
    3.1553   -0.2857   -2.2639 H   0  0  0  0  0  0  0  0  0  0  0  0
   -6.9444    0.4262    0.0566 H   0  0  0  0  0  0  0  0  0  0  0  0
    5.8186    0.0163   -2.4345 H   0  0  0  0  0  0  0  0  0  0  0  0
    5.6426   -0.0468    2.5407 H   0  0  0  0  0  0  0  0  0  0  0  0
   -4.8159    3.0953    0.9261 H   0  0  0  0  0  0  0  0  0  0  0  0
   -6.3277    2.7990    0.0603 H   0  0  0  0  0  0  0  0  0  0  0  0
   -4.8455    3.1055   -0.8520 H   0  0  0  0  0  0  0  0  0  0  0  0
    7.9246    0.2421   -1.0992 H   0  0  0  0  0  0  0  0  0  0  0  0
    7.7954    0.2058    1.3805 H   0  0  0  0  0  0  0  0  0  0  0  0
   -6.3570   -2.8993   -0.8661 H   0  0  0  0  0  0  0  0  0  0  0  0
   -7.4696   -1.8617    0.0553 H   0  0  0  0  0  0  0  0  0  0  0  0
   -6.3231   -2.9151    0.9149 H   0  0  0  0  0  0  0  0  0  0  0  0
  1 11  1  0  0  0  0
  1 16  1  0  0  0  0
  2 10  1  0  0  0  0
  2 12  1  0  0  0  0
  2 17  1  0  0  0  0
  3  5  1  0  0  0  0
  3  9  1  0  0  0  0
  3 13  1  0  0  0  0
  4  8  1  0  0  0  0
  4 10  2  0  0  0  0
  5 16  2  0  0  0  0
  6 13  1  0  0  0  0
  6 15  2  0  0  0  0
  7 13  2  0  0  0  0
  7 16  1  0  0  0  0
  8 11  1  0  0  0  0
  8 12  2  0  0  0  0
  9 14  2  0  0  0  0
  9 19  1  0  0  0  0
 10 18  1  0  0  0  0
 11 23  1  0  0  0  0
 11 24  1  0  0  0  0
 12 25  1  0  0  0  0
 14 15  1  0  0  0  0
 14 26  1  0  0  0  0
 15 22  1  0  0  0  0
 17 20  2  0  0  0  0
 17 27  1  0  0  0  0
 18 21  2  0  0  0  0
 18 28  1  0  0  0  0
 19 29  1  0  0  0  0
 19 30  1  0  0  0  0
 19 31  1  0  0  0  0
 20 21  1  0  0  0  0
 20 32  1  0  0  0  0
 21 33  1  0  0  0  0
 22 34  1  0  0  0  0
 22 35  1  0  0  0  0
 22 36  1  0  0  0  0
M  END
> <PUBCHEM_COMPOUND_CID>
17395480

> <PUBCHEM_CONFORMER_RMSD>
0.6

> <PUBCHEM_CONFORMER_DIVERSEORDER>
1
111
47
95
102
38
96
127
63
69
101
120
8
64
126
70
7
88
129
97
67
130
60
122
46
68
87
124
59
142
98
16
110
17
45
141
39
15
49
61
123
65
23
103
66
2
133
25
104
26
41
125
55
24
145
62
56
32
18
146
78
77
113
81
135
14
114
37
33
13
134
82
11
12
137
131
106
35
132
75
20
94
136
119
76
107
93
121
19
54
53
100
91
36
99
80
79
92
10
9
83
140
109
84
139
108
71
118
34
31
28
117
5
105
72
51
6
27
43
44
52
85
112
86
57
58
22
21
144
29
30
143
116
115
50
48
89
4
128
138
90
3
42
40
74
73

> <PUBCHEM_MMFF94_PARTIAL_CHARGES>
28
1 -0.28
10 0.14
11 0.41
12 -0.3
13 0.31
14 -0.14
15 0.37
16 0.57
17 -0.18
18 -0.11
19 0.14
2 0.33
20 -0.15
21 -0.15
22 0.06
25 0.15
26 0.15
27 0.15
28 0.15
3 0.6
32 0.15
33 0.15
4 -0.57
5 -0.71
6 -0.58
7 -0.57
8 0.05
9 -0.17

> <PUBCHEM_EFFECTIVE_ROTOR_COUNT>
3

> <PUBCHEM_PHARMACOPHORE_FEATURES>
7
1 6 acceptor
3 2 4 10 cation
4 3 6 7 13 cation
5 2 4 8 10 12 rings
5 3 5 7 13 16 rings
6 2 10 17 18 20 21 rings
6 3 6 9 13 14 15 rings

> <PUBCHEM_HEAVY_ATOM_COUNT>
22

> <PUBCHEM_ATOM_DEF_STEREO_COUNT>
0

> <PUBCHEM_ATOM_UDEF_STEREO_COUNT>
0

> <PUBCHEM_BOND_DEF_STEREO_COUNT>
0

> <PUBCHEM_BOND_UDEF_STEREO_COUNT>
0

> <PUBCHEM_ISOTOPIC_ATOM_COUNT>
0

> <PUBCHEM_COMPONENT_COUNT>
1

> <PUBCHEM_CACTVS_TAUTO_COUNT>
1

> <PUBCHEM_CONFORMER_ID>
01096F1800000001

> <PUBCHEM_MMFF94_ENERGY>
37.9589

> <PUBCHEM_FEATURE_SELFOVERLAP>
35.779

> <PUBCHEM_SHAPE_FINGERPRINT>
10 15 17968105188198945610
10299344 5 17989205945020990978
10411042 1 18194401092735185095
10595046 47 18202845465630168248
10912923 1 17846780723496921969
11315181 36 18273495659341838757
11524674 6 16732984206720854319
12091667 2 18272647952856063777
12166972 35 17632576033396704364
12236239 1 17917712413776028058
12516196 113 18113054930573865736
12616971 3 17203601601451619356
12730499 353 17312819386470017718
13288520 33 18409729543959269919
13533116 47 17132121277653176144
13631057 29 18412546475580838771
1420 363 17748824111971630422
14251764 18 17846778494414156998
14341114 176 16660360368499553096
14933364 13 18187364329121210384
15183329 4 17203892950700684882
15419008 47 17822013111759202425
1577012 14 17918273177606907004
17093844 174 18411140251542688537
17844677 252 18335135367289294817
18681886 176 18410855421948443672
18927931 339 18334577915695475935
19489759 90 18411982464469314571
21033648 29 16950860192295828193
21054139 6 18131352981540185123
21267235 1 18339637846705387979
21315763 178 17632018636355519681
21623969 137 16805316691323436598
21792961 116 17167857617569522060
220451 1 18130786793265240490
22224240 67 16877943815268214191
2297311 6 18187077364833527393
2303208 19 17676198083080301718
23035841 295 18412544323174189994
23081809 10 17775847925838770840
23402539 116 17203611505836192317
23522609 53 17845067710473242804
23559900 14 18260835886317211369
3004659 81 18343016675517135172
335352 9 18411985763742975325
34797466 226 17968085384010181460
397830 11 17605004610666125538
4073 2 18201431489282226394
4325135 7 18202845452339110750
5104073 3 18041554874804368107
542803 24 17847059995461280284

> <PUBCHEM_SHAPE_MULTIPOLES>
426.71
21.1
1.66
0.99
8.91
0.3
0.01
-2.21
0.66
-4.79
0.02
2
-0.03
0.01

> <PUBCHEM_SHAPE_SELFOVERLAP>
923.554

> <PUBCHEM_SHAPE_VOLUME>
236.6

> <PUBCHEM_COORDINATE_TYPE>
2
5
10

$$$$

