192833
  -OEChem-07051212483D

 22 24  0     0  0  0  0  0  0999 V2000
    0.6014   -1.4128   -0.0012 O   0  0  0  0  0  0  0  0  0  0  0  0
    0.6013    1.4129   -0.0010 O   0  0  0  0  0  0  0  0  0  0  0  0
   -4.1106   -1.3452    0.0002 O   0  0  0  0  0  0  0  0  0  0  0  0
   -4.1107    1.3451    0.0005 O   0  0  0  0  0  0  0  0  0  0  0  0
   -0.6065   -0.7277   -0.0007 C   0  0  0  0  0  0  0  0  0  0  0  0
   -0.6065    0.7278   -0.0004 C   0  0  0  0  0  0  0  0  0  0  0  0
    1.7611   -0.6927    0.0001 C   0  0  0  0  0  0  0  0  0  0  0  0
    1.7610    0.6929   -0.0001 C   0  0  0  0  0  0  0  0  0  0  0  0
   -1.7407   -1.4411   -0.0004 C   0  0  0  0  0  0  0  0  0  0  0  0
   -1.7407    1.4411    0.0000 C   0  0  0  0  0  0  0  0  0  0  0  0
    2.9657   -1.3954    0.0007 C   0  0  0  0  0  0  0  0  0  0  0  0
    2.9658    1.3954   -0.0002 C   0  0  0  0  0  0  0  0  0  0  0  0
   -3.0439   -0.7512    0.0005 C   0  0  0  0  0  0  0  0  0  0  0  0
   -3.0439    0.7512    0.0007 C   0  0  0  0  0  0  0  0  0  0  0  0
    4.1736   -0.6976    0.0009 C   0  0  0  0  0  0  0  0  0  0  0  0
    4.1737    0.6975    0.0003 C   0  0  0  0  0  0  0  0  0  0  0  0
   -1.7394   -2.5251   -0.0007 H   0  0  0  0  0  0  0  0  0  0  0  0
   -1.7396    2.5251    0.0001 H   0  0  0  0  0  0  0  0  0  0  0  0
    2.9717   -2.4818    0.0008 H   0  0  0  0  0  0  0  0  0  0  0  0
    2.9718    2.4819   -0.0007 H   0  0  0  0  0  0  0  0  0  0  0  0
    5.1143   -1.2404    0.0013 H   0  0  0  0  0  0  0  0  0  0  0  0
    5.1143    1.2403    0.0004 H   0  0  0  0  0  0  0  0  0  0  0  0
  1  5  1  0  0  0  0
  1  7  1  0  0  0  0
  2  6  1  0  0  0  0
  2  8  1  0  0  0  0
  3 13  2  0  0  0  0
  4 14  2  0  0  0  0
  5  6  1  0  0  0  0
  5  9  2  0  0  0  0
  6 10  2  0  0  0  0
  7  8  1  0  0  0  0
  7 11  2  0  0  0  0
  8 12  2  0  0  0  0
  9 13  1  0  0  0  0
  9 17  1  0  0  0  0
 10 14  1  0  0  0  0
 10 18  1  0  0  0  0
 11 15  1  0  0  0  0
 11 19  1  0  0  0  0
 12 16  1  0  0  0  0
 12 20  1  0  0  0  0
 13 14  1  0  0  0  0
 15 16  2  0  0  0  0
 15 21  1  0  0  0  0
 16 22  1  0  0  0  0
M  END
> <PUBCHEM_COMPOUND_CID>
192833

> <PUBCHEM_CONFORMER_RMSD>
0.4

> <PUBCHEM_CONFORMER_DIVERSEORDER>
1

> <PUBCHEM_MMFF94_PARTIAL_CHARGES>
22
1 -0.16
10 -0.14
11 -0.15
12 -0.15
13 0.56
14 0.56
15 -0.15
16 -0.15
17 0.15
18 0.15
19 0.15
2 -0.16
20 0.15
21 0.15
22 0.15
3 -0.57
4 -0.57
5 0.08
6 0.08
7 0.08
8 0.08
9 -0.14

> <PUBCHEM_EFFECTIVE_ROTOR_COUNT>
0

> <PUBCHEM_PHARMACOPHORE_FEATURES>
7
1 1 acceptor
1 2 acceptor
1 3 acceptor
1 4 acceptor
6 1 2 5 6 7 8 rings
6 5 6 9 10 13 14 rings
6 7 8 11 12 15 16 rings

> <PUBCHEM_HEAVY_ATOM_COUNT>
16

> <PUBCHEM_ATOM_DEF_STEREO_COUNT>
0

> <PUBCHEM_ATOM_UDEF_STEREO_COUNT>
0

> <PUBCHEM_BOND_DEF_STEREO_COUNT>
0

> <PUBCHEM_BOND_UDEF_STEREO_COUNT>
0

> <PUBCHEM_ISOTOPIC_ATOM_COUNT>
0

> <PUBCHEM_COMPONENT_COUNT>
1

> <PUBCHEM_CACTVS_TAUTO_COUNT>
1

> <PUBCHEM_CONFORMER_ID>
0002F14100000001

> <PUBCHEM_MMFF94_ENERGY>
42.3333

> <PUBCHEM_FEATURE_SELFOVERLAP>
35.6

> <PUBCHEM_SHAPE_FINGERPRINT>
10062212 137 18409457998193002299
10411042 1 15672386125835219144
10608611 8 18410296904042705624
10616163 171 18408882897682467054
10967382 1 18410855426079802694
11132069 177 18410296925496202848
11471102 20 18410015459404773932
11806522 49 18340208471079604023
12032990 46 18410289211792974398
13221675 6 18410576197207438070
13296908 3 18411136935126101378
13380535 76 18410011061015637718
14144814 61 18410856568398581314
14325111 11 18410856559671632960
15196674 1 18410855464597195918
15219456 202 18408603664614738110
15442244 35 18194402418951398578
15536298 74 18335139791405724546
16945 1 18194401323391710152
17802600 8 18410016515618575512
17804303 29 18408600366248796276
18186145 218 17988928894013653878
18522853 276 18408041797003663985
19422 9 18411697681766477172
200 152 18040724658089754989
20510252 161 18260827107261250329
20645477 70 18334859467032343950
21267235 1 18410846646903184910
21501502 16 18410855460138717796
221490 88 18340478985447429418
23402539 116 18334303071230216524
23402655 69 18335703861987174060
23463225 33 18412545422733147564
23559900 14 18335423521477928274
2748010 2 18410573985404645894
2871803 45 18343309145414847087
3312278 4 18408602569646114577
335352 9 18266741470406217214
4214541 1 18410573998052216257
474 4 17130419091640311956
4990 188 18113889477590569340
5104073 3 18411138038958947760
69090 78 18335425681218607431
7364860 26 18264771150249890022
77779 3 18410572889966439174
8809292 202 18272365343575873243
9709674 26 18410287004238267814

> <PUBCHEM_SHAPE_MULTIPOLES>
305.8
7.89
1.78
0.59
0.02
0
0
0
0
-0.31
0
0.04
0
0

> <PUBCHEM_SHAPE_SELFOVERLAP>
688.296

> <PUBCHEM_SHAPE_VOLUME>
159.7

> <PUBCHEM_COORDINATE_TYPE>
2
5
10

$$$$

