11156
  -OEChem-06261205202D

 28 27  0     1  0  0  0  0  0999 V2000
    2.2388    0.0000    0.0000 Cl  0  0  0  0  0  0  0  0  0  0  0  0
    4.0010    3.1200    0.0000 N   0  0  0  0  0  0  0  0  0  0  0  0
    3.1350    3.6200    0.0000 C   0  0  3  0  0  0  0  0  0  0  0  0
    3.1350    4.6200    0.0000 C   0  0  0  0  0  0  0  0  0  0  0  0
    4.0010    5.1200    0.0000 C   0  0  0  0  0  0  0  0  0  0  0  0
    4.8671    4.6200    0.0000 C   0  0  0  0  0  0  0  0  0  0  0  0
    2.2690    3.1200    0.0000 C   0  0  0  0  0  0  0  0  0  0  0  0
    4.8671    3.6200    0.0000 C   0  0  0  0  0  0  0  0  0  0  0  0
    1.4030    3.6200    0.0000 C   0  0  0  0  0  0  0  0  0  0  0  0
    0.5369    3.1200    0.0000 C   0  0  0  0  0  0  0  0  0  0  0  0
    3.1350    2.7700    0.0000 H   0  0  0  0  0  0  0  0  0  0  0  0
    2.9230    5.2026    0.0000 H   0  0  0  0  0  0  0  0  0  0  0  0
    2.5244    4.5123    0.0000 H   0  0  0  0  0  0  0  0  0  0  0  0
    4.3996    5.5950    0.0000 H   0  0  0  0  0  0  0  0  0  0  0  0
    3.6025    5.5950    0.0000 H   0  0  0  0  0  0  0  0  0  0  0  0
    1.8705    2.6450    0.0000 H   0  0  0  0  0  0  0  0  0  0  0  0
    2.6675    2.6450    0.0000 H   0  0  0  0  0  0  0  0  0  0  0  0
    5.4776    4.5123    0.0000 H   0  0  0  0  0  0  0  0  0  0  0  0
    5.0791    5.2026    0.0000 H   0  0  0  0  0  0  0  0  0  0  0  0
    5.0791    3.0374    0.0000 H   0  0  0  0  0  0  0  0  0  0  0  0
    5.4776    3.7277    0.0000 H   0  0  0  0  0  0  0  0  0  0  0  0
    4.0010    2.5000    0.0000 H   0  0  0  0  0  0  0  0  0  0  0  0
    1.8015    4.0950    0.0000 H   0  0  0  0  0  0  0  0  0  0  0  0
    1.0044    4.0950    0.0000 H   0  0  0  0  0  0  0  0  0  0  0  0
    0.2269    3.6569    0.0000 H   0  0  0  0  0  0  0  0  0  0  0  0
    0.0000    2.8100    0.0000 H   0  0  0  0  0  0  0  0  0  0  0  0
    0.8469    2.5831    0.0000 H   0  0  0  0  0  0  0  0  0  0  0  0
    3.2388    0.0000    0.0000 H   0  0  0  0  0  0  0  0  0  0  0  0
  1 28  1  0  0  0  0
  2  3  1  0  0  0  0
  2  8  1  0  0  0  0
  2 22  1  0  0  0  0
  3  4  1  0  0  0  0
  3  7  1  0  0  0  0
  3 11  1  0  0  0  0
  4  5  1  0  0  0  0
  4 12  1  0  0  0  0
  4 13  1  0  0  0  0
  5  6  1  0  0  0  0
  5 14  1  0  0  0  0
  5 15  1  0  0  0  0
  6  8  1  0  0  0  0
  6 18  1  0  0  0  0
  6 19  1  0  0  0  0
  7  9  1  0  0  0  0
  7 16  1  0  0  0  0
  7 17  1  0  0  0  0
  8 20  1  0  0  0  0
  8 21  1  0  0  0  0
  9 10  1  0  0  0  0
  9 23  1  0  0  0  0
  9 24  1  0  0  0  0
 10 25  1  0  0  0  0
 10 26  1  0  0  0  0
 10 27  1  0  0  0  0
M  END
> <PUBCHEM_COMPOUND_CID>
11156

> <PUBCHEM_COMPOUND_CANONICALIZED>
1

> <PUBCHEM_CACTVS_COMPLEXITY>
71

> <PUBCHEM_CACTVS_HBOND_ACCEPTOR>
1

> <PUBCHEM_CACTVS_HBOND_DONOR>
2

> <PUBCHEM_CACTVS_ROTATABLE_BOND>
2

> <PUBCHEM_CACTVS_SUBSKEYS>
AAADceByAAAEAAAAAAAAAAAAAAAAAAAAAAAsAAAAAAAAAAAAAAAAHAAQAAAACCjBAAQCAALAAAAAAAAAAAAAAAAAAAAAAIAIAAAAAAIAgAAEAAAAEACAAAEQgIAAAAAAAAAAAAAAAAAAAAAAAAAAAAAAAA==

> <PUBCHEM_IUPAC_OPENEYE_NAME>
2-propylpiperidine hydrochloride

> <PUBCHEM_IUPAC_CAS_NAME>
2-propylpiperidine hydrochloride

> <PUBCHEM_IUPAC_NAME>
2-propylpiperidine hydrochloride

> <PUBCHEM_IUPAC_SYSTEMATIC_NAME>
2-propylpiperidine hydrochloride

> <PUBCHEM_IUPAC_TRADITIONAL_NAME>
coniine hydrochloride

> <PUBCHEM_IUPAC_INCHI>
InChI=1S/C8H17N.ClH/c1-2-5-8-6-3-4-7-9-8;/h8-9H,2-7H2,1H3;1H

> <PUBCHEM_IUPAC_INCHIKEY>
JXBWZNQZRWZJIR-UHFFFAOYSA-N

> <PUBCHEM_EXACT_MASS>
163.112777

> <PUBCHEM_MOLECULAR_FORMULA>
C8H18ClN

> <PUBCHEM_MOLECULAR_WEIGHT>
163.68822

> <PUBCHEM_OPENEYE_CAN_SMILES>
CCCC1CCCCN1.Cl

> <PUBCHEM_OPENEYE_ISO_SMILES>
CCCC1CCCCN1.Cl

> <PUBCHEM_CACTVS_TPSA>
12

> <PUBCHEM_MONOISOTOPIC_WEIGHT>
163.112777

> <PUBCHEM_TOTAL_CHARGE>
0

> <PUBCHEM_HEAVY_ATOM_COUNT>
10

> <PUBCHEM_ATOM_DEF_STEREO_COUNT>
0

> <PUBCHEM_ATOM_UDEF_STEREO_COUNT>
1

> <PUBCHEM_BOND_DEF_STEREO_COUNT>
0

> <PUBCHEM_BOND_UDEF_STEREO_COUNT>
0

> <PUBCHEM_ISOTOPIC_ATOM_COUNT>
0

> <PUBCHEM_COMPONENT_COUNT>
2

> <PUBCHEM_CACTVS_TAUTO_COUNT>
1

> <PUBCHEM_COORDINATE_TYPE>
1
5
255

> <PUBCHEM_BONDANNOTATIONS>
3  11  3

$$$$

