906426
  -OEChem-07051212593D

 49 50  0     1  0  0  0  0  0999 V2000
   -2.0237   -2.4430    0.2959 O   0  0  0  0  0  0  0  0  0  0  0  0
    0.4306    0.2344   -0.6158 O   0  0  0  0  0  0  0  0  0  0  0  0
    3.8321   -0.8099   -0.9504 O   0  0  0  0  0  0  0  0  0  0  0  0
    1.9789    1.4676    1.2338 O   0  0  0  0  0  0  0  0  0  0  0  0
    1.7684   -0.1934   -2.4367 O   0  0  0  0  0  0  0  0  0  0  0  0
   -3.6885    0.6275    0.8400 N   0  0  2  0  0  0  0  0  0  0  0  0
   -2.4529   -0.0540    0.3449 C   0  0  1  0  0  0  0  0  0  0  0  0
   -2.9029   -1.4281   -0.1556 C   0  0  2  0  0  0  0  0  0  0  0  0
   -4.8311   -0.1881    0.4011 C   0  0  0  0  0  0  0  0  0  0  0  0
   -4.2847   -1.5995    0.4514 C   0  0  0  0  0  0  0  0  0  0  0  0
   -1.8795    0.8513   -0.7030 C   0  0  0  0  0  0  0  0  0  0  0  0
   -3.6939    1.9748    0.2300 C   0  0  0  0  0  0  0  0  0  0  0  0
   -2.5796    1.9875   -0.7619 C   0  0  0  0  0  0  0  0  0  0  0  0
   -0.6711    0.4971   -1.4905 C   0  0  0  0  0  0  0  0  0  0  0  0
    2.7040   -0.3522   -0.1868 C   0  0  1  0  0  0  0  0  0  0  0  0
    2.3311   -1.5138    0.7828 C   0  0  0  0  0  0  0  0  0  0  0  0
    3.1129    0.9689    0.5137 C   0  0  1  0  0  0  0  0  0  0  0  0
    1.6033   -0.1033   -1.2255 C   0  0  0  0  0  0  0  0  0  0  0  0
    3.3720   -1.8062    1.8674 C   0  0  0  0  0  0  0  0  0  0  0  0
    1.9938   -2.8179    0.0405 C   0  0  0  0  0  0  0  0  0  0  0  0
    3.5678    2.0679   -0.4438 C   0  0  0  0  0  0  0  0  0  0  0  0
    2.3130    2.6323    1.9684 C   0  0  0  0  0  0  0  0  0  0  0  0
   -1.7441   -0.1427    1.1778 H   0  0  0  0  0  0  0  0  0  0  0  0
   -2.9682   -1.4771   -1.2494 H   0  0  0  0  0  0  0  0  0  0  0  0
   -5.1403    0.0443   -0.6264 H   0  0  0  0  0  0  0  0  0  0  0  0
   -5.6919   -0.0576    1.0634 H   0  0  0  0  0  0  0  0  0  0  0  0
   -4.2215   -1.9717    1.4817 H   0  0  0  0  0  0  0  0  0  0  0  0
   -4.8959   -2.3069   -0.1178 H   0  0  0  0  0  0  0  0  0  0  0  0
   -3.4999    2.7222    1.0071 H   0  0  0  0  0  0  0  0  0  0  0  0
   -4.6488    2.2263   -0.2447 H   0  0  0  0  0  0  0  0  0  0  0  0
   -2.3610    2.8199   -1.4147 H   0  0  0  0  0  0  0  0  0  0  0  0
   -0.4007    1.3189   -2.1647 H   0  0  0  0  0  0  0  0  0  0  0  0
   -0.8737   -0.3940   -2.0957 H   0  0  0  0  0  0  0  0  0  0  0  0
   -1.1419   -2.2449   -0.0627 H   0  0  0  0  0  0  0  0  0  0  0  0
    1.4132   -1.2199    1.3107 H   0  0  0  0  0  0  0  0  0  0  0  0
    3.9408    0.7687    1.2044 H   0  0  0  0  0  0  0  0  0  0  0  0
    3.4919   -0.9553    2.5444 H   0  0  0  0  0  0  0  0  0  0  0  0
    3.0659   -2.6608    2.4808 H   0  0  0  0  0  0  0  0  0  0  0  0
    4.3482   -2.0394    1.4302 H   0  0  0  0  0  0  0  0  0  0  0  0
    1.2350   -2.6655   -0.7325 H   0  0  0  0  0  0  0  0  0  0  0  0
    2.8791   -3.2625   -0.4251 H   0  0  0  0  0  0  0  0  0  0  0  0
    1.5914   -3.5578    0.7419 H   0  0  0  0  0  0  0  0  0  0  0  0
    4.2963    1.6897   -1.1680 H   0  0  0  0  0  0  0  0  0  0  0  0
    4.0628    2.8884    0.0866 H   0  0  0  0  0  0  0  0  0  0  0  0
    2.7250    2.5005   -0.9943 H   0  0  0  0  0  0  0  0  0  0  0  0
    3.5543   -1.5534   -1.5106 H   0  0  0  0  0  0  0  0  0  0  0  0
    3.2634    2.5246    2.5013 H   0  0  0  0  0  0  0  0  0  0  0  0
    1.5284    2.7888    2.7151 H   0  0  0  0  0  0  0  0  0  0  0  0
    2.3217    3.5176    1.3262 H   0  0  0  0  0  0  0  0  0  0  0  0
  1  8  1  0  0  0  0
  1 34  1  0  0  0  0
  2 14  1  0  0  0  0
  2 18  1  0  0  0  0
  3 15  1  0  0  0  0
  3 46  1  0  0  0  0
  4 17  1  0  0  0  0
  4 22  1  0  0  0  0
  5 18  2  0  0  0  0
  6  7  1  0  0  0  0
  6  9  1  0  0  0  0
  6 12  1  0  0  0  0
  7  8  1  0  0  0  0
  7 11  1  0  0  0  0
  7 23  1  0  0  0  0
  8 10  1  0  0  0  0
  8 24  1  0  0  0  0
  9 10  1  0  0  0  0
  9 25  1  0  0  0  0
  9 26  1  0  0  0  0
 10 27  1  0  0  0  0
 10 28  1  0  0  0  0
 11 13  2  0  0  0  0
 11 14  1  0  0  0  0
 12 13  1  0  0  0  0
 12 29  1  0  0  0  0
 12 30  1  0  0  0  0
 13 31  1  0  0  0  0
 14 32  1  0  0  0  0
 14 33  1  0  0  0  0
 15 16  1  0  0  0  0
 15 17  1  0  0  0  0
 15 18  1  0  0  0  0
 16 19  1  0  0  0  0
 16 20  1  0  0  0  0
 16 35  1  0  0  0  0
 17 21  1  0  0  0  0
 17 36  1  0  0  0  0
 19 37  1  0  0  0  0
 19 38  1  0  0  0  0
 19 39  1  0  0  0  0
 20 40  1  0  0  0  0
 20 41  1  0  0  0  0
 20 42  1  0  0  0  0
 21 43  1  0  0  0  0
 21 44  1  0  0  0  0
 21 45  1  0  0  0  0
 22 47  1  0  0  0  0
 22 48  1  0  0  0  0
 22 49  1  0  0  0  0
M  END
> <PUBCHEM_COMPOUND_CID>
906426

> <PUBCHEM_CONFORMER_RMSD>
0.8

> <PUBCHEM_CONFORMER_DIVERSEORDER>
1
11
289
82
187
207
113
149
238
221
232
301
216
169
98
65
127
195
62
180
246
170
63
167
324
286
202
166
309
75
315
319
182
333
334
152
164
80
229
136
276
228
183
132
323
205
275
297
139
322
307
290
264
262
27
121
269
181
55
292
125
196
260
312
217
66
122
277
283
189
308
198
298
270
210
81
265
79
268
159
211
305
219
123
154
200
218
78
76
83
18
74
190
331
4
25
227
235
32
107
251
93
64
302
252
21
249
316
73
234
226
208
261
253
145
28
44
135
126
94
50
128
300
90
131
273
144
313
5
100
321
272
72
193
95
69
175
278
287
294
48
185
40
96
87
147
35
108
318
245
281
201
142
134
112
59
186
255
303
8
162
296
124
263
244
158
191
114
213
317
282
36
120
327
88
225
57
230
26
314
3
33
174
130
111
60
6
271
214
52
7
310
165
143
141
109
118
39
61
67
101
222
104
168
153
133
102
12
295
329
194
288
206
280
285
15
115
151
17
71
236
220
138
97
117
41
311
77
30
332
293
155
70
279
37
51
291
105
242
2
204
304
86
58
24
20
13
116
150
29
223
171
197
106
19
188
243
258
22
259
31
103
47
85
23
284
49
91
177
34
325
299
92
237
84
248
274
176
9
212
148
233
99
56
330
38
328
43
45
267
173
199
215
184
68
254
110
54
203
192
224
10
89
14
179
161
16
231
266
172
241
160
320
209
53
256
306
335
156
146
240
46
140
129
326
257
163
247
250
239
178
157
119
42
137

> <PUBCHEM_MMFF94_PARTIAL_CHARGES>
20
1 -0.68
11 -0.28
12 0.41
13 -0.29
14 0.42
15 0.34
17 0.28
18 0.66
2 -0.43
22 0.28
3 -0.68
31 0.15
34 0.4
4 -0.56
46 0.4
5 -0.57
6 -0.81
7 0.41
8 0.28
9 0.27

> <PUBCHEM_EFFECTIVE_ROTOR_COUNT>
7.8

> <PUBCHEM_PHARMACOPHORE_FEATURES>
10
1 1 acceptor
1 1 donor
1 3 acceptor
1 3 donor
1 4 acceptor
1 5 acceptor
1 6 cation
3 16 19 20 hydrophobe
5 6 7 11 12 13 rings
5 6 7 8 9 10 rings

> <PUBCHEM_HEAVY_ATOM_COUNT>
22

> <PUBCHEM_ATOM_DEF_STEREO_COUNT>
4

> <PUBCHEM_ATOM_UDEF_STEREO_COUNT>
0

> <PUBCHEM_BOND_DEF_STEREO_COUNT>
0

> <PUBCHEM_BOND_UDEF_STEREO_COUNT>
0

> <PUBCHEM_ISOTOPIC_ATOM_COUNT>
0

> <PUBCHEM_COMPONENT_COUNT>
1

> <PUBCHEM_CACTVS_TAUTO_COUNT>
1

> <PUBCHEM_CONFORMER_ID>
000DD4BA00000001

> <PUBCHEM_MMFF94_ENERGY>
48.0923

> <PUBCHEM_FEATURE_SELFOVERLAP>
51.118

> <PUBCHEM_SHAPE_FINGERPRINT>
10366900 7 18263647268760931025
10616163 171 18271235058671185271
11552529 35 17604147009235667935
11578080 2 17846236461099810789
12403259 327 18263649622413604277
12500047 106 18270403913737254109
12553582 1 17917414390379990647
12633257 1 18335702814146821529
12670545 47 17968372364733830941
13004483 165 17680451960883760359
13224815 77 17917715694904208395
13533116 47 18410017658781769087
13583140 156 18336280014875811253
14081887 123 18266186024024574835
14178342 30 18272937081005631307
14223421 5 18409452453353014117
14289901 80 18272088275325350249
14866123 147 16028445021094611235
14955137 171 18261120712043282314
15238133 3 18117557551212605808
17980427 23 8573572098501629278
1813 80 16702016470493247309
19078846 21 18043811094318625384
20442098 301 18059573624157574367
20600515 1 17903355149944314884
20681677 76 18261405429193085837
21033648 29 15865205769477998723
21756936 100 17900555475887281968
23559900 14 18412543219293872061
339767 52 17632301112455196939
3797600 57 17750795445899021056
5104073 3 18272083937824853601
6442390 28 18194964037617756944
7097593 13 18343025535601734174
8509985 295 18048040962758558977
8988823 20 18334586711529794791
9709674 26 18341887515556288195

> <PUBCHEM_SHAPE_MULTIPOLES>
418.42
8.84
2.85
1.6
5.26
0.31
-0.12
0.29
2
-0.99
0.95
-1.46
-0.36
0.38

> <PUBCHEM_SHAPE_SELFOVERLAP>
855.412

> <PUBCHEM_SHAPE_VOLUME>
245.4

> <PUBCHEM_COORDINATE_TYPE>
2
5
10

$$$$

