3417
  -OEChem-06251223243D

 15 15  0     1  0  0  0  0  0999 V2000
   -1.2348    0.1814    0.0322 P   0  0  0  0  0  0  0  0  0  0  0  0
    1.1757   -1.1800   -0.0339 O   0  0  0  0  0  0  0  0  0  0  0  0
   -1.4094   -0.9321    1.1821 O   0  0  0  0  0  0  0  0  0  0  0  0
   -2.2118   -0.2735   -1.1643 O   0  0  0  0  0  0  0  0  0  0  0  0
   -1.2717    1.6184    0.4480 O   0  0  0  0  0  0  0  0  0  0  0  0
    0.4391   -0.0931   -0.6171 C   0  0  2  0  0  0  0  0  0  0  0  0
    1.5869    0.1453    0.3260 C   0  0  2  0  0  0  0  0  0  0  0  0
    2.9259    0.5336   -0.1730 C   0  0  0  0  0  0  0  0  0  0  0  0
    0.5928    0.1232   -1.6667 H   0  0  0  0  0  0  0  0  0  0  0  0
    1.3873    0.4834    1.3330 H   0  0  0  0  0  0  0  0  0  0  0  0
    3.7039    0.1556    0.4975 H   0  0  0  0  0  0  0  0  0  0  0  0
    3.1230    0.1412   -1.1761 H   0  0  0  0  0  0  0  0  0  0  0  0
    3.0116    1.6238   -0.2125 H   0  0  0  0  0  0  0  0  0  0  0  0
   -2.2164   -0.9212    1.7393 H   0  0  0  0  0  0  0  0  0  0  0  0
   -3.1781   -0.1323   -1.0722 H   0  0  0  0  0  0  0  0  0  0  0  0
  1  3  1  0  0  0  0
  1  4  1  0  0  0  0
  1  5  2  0  0  0  0
  1  6  1  0  0  0  0
  2  6  1  0  0  0  0
  2  7  1  0  0  0  0
  3 14  1  0  0  0  0
  4 15  1  0  0  0  0
  6  7  1  0  0  0  0
  6  9  1  0  0  0  0
  7  8  1  0  0  0  0
  7 10  1  0  0  0  0
  8 11  1  0  0  0  0
  8 12  1  0  0  0  0
  8 13  1  0  0  0  0
M  END
> <PUBCHEM_COMPOUND_CID>
3417

> <PUBCHEM_CONFORMER_RMSD>
0.4

> <PUBCHEM_CONFORMER_DIVERSEORDER>
1
3
4
2

> <PUBCHEM_MMFF94_PARTIAL_CHARGES>
12
1 1.35
10 0.1
14 0.5
15 0.5
2 -0.3
3 -0.77
4 -0.77
5 -0.7
6 -0.06
7 -0.05
8 0.09
9 0.1

> <PUBCHEM_EFFECTIVE_ROTOR_COUNT>
1.6

> <PUBCHEM_PHARMACOPHORE_FEATURES>
5
1 2 acceptor
1 3 acceptor
1 4 acceptor
1 5 acceptor
4 1 3 4 5 anion

> <PUBCHEM_HEAVY_ATOM_COUNT>
8

> <PUBCHEM_ATOM_DEF_STEREO_COUNT>
0

> <PUBCHEM_ATOM_UDEF_STEREO_COUNT>
2

> <PUBCHEM_BOND_DEF_STEREO_COUNT>
0

> <PUBCHEM_BOND_UDEF_STEREO_COUNT>
0

> <PUBCHEM_ISOTOPIC_ATOM_COUNT>
0

> <PUBCHEM_COMPONENT_COUNT>
1

> <PUBCHEM_CACTVS_TAUTO_COUNT>
1

> <PUBCHEM_CONFORMER_ID>
00000D5900000001

> <PUBCHEM_MMFF94_ENERGY>
-17.768

> <PUBCHEM_FEATURE_SELFOVERLAP>
25.406

> <PUBCHEM_SHAPE_FINGERPRINT>
12897270 3 17968389978025407725
12932741 1 18060415815942102182
14390081 3 18333734624003836984
16714656 1 17313389980615698316
21040471 1 18057309798356299848
24536 1 18201147836492676486
29004967 10 18412256212214388290
3248919 1 18272369780761964150

> <PUBCHEM_SHAPE_MULTIPOLES>
145.01
3.42
1.13
0.95
1.52
0.2
-0.01
0.37
-0.32
-0.24
0.2
-0.48
-0.13
-0.01

> <PUBCHEM_SHAPE_SELFOVERLAP>
261.313

> <PUBCHEM_SHAPE_VOLUME>
93.9

> <PUBCHEM_COORDINATE_TYPE>
2
5
10

$$$$

