334704
  -OEChem-07051212573D

 32 34  0     1  0  0  0  0  0999 V2000
   -1.7859    1.0877   -0.2629 O   0  0  0  0  0  0  0  0  0  0  0  0
   -3.7728    0.1995    1.5348 O   0  0  0  0  0  0  0  0  0  0  0  0
    3.0345    1.2133    0.0014 O   0  0  0  0  0  0  0  0  0  0  0  0
    5.3207    1.1875    0.1314 O   0  0  0  0  0  0  0  0  0  0  0  0
   -2.6591   -0.0282   -0.5798 C   0  0  2  0  0  0  0  0  0  0  0  0
   -3.9923    0.1748    0.1213 C   0  0  0  0  0  0  0  0  0  0  0  0
   -1.9662   -1.3340   -0.1610 C   0  0  0  0  0  0  0  0  0  0  0  0
   -0.5621   -0.8652   -0.1554 C   0  0  0  0  0  0  0  0  0  0  0  0
   -0.5387    0.5223   -0.1898 C   0  0  0  0  0  0  0  0  0  0  0  0
   -4.9622   -0.9671   -0.1935 C   0  0  0  0  0  0  0  0  0  0  0  0
   -4.6123    1.5192   -0.2650 C   0  0  0  0  0  0  0  0  0  0  0  0
    0.6092   -1.6000   -0.0642 C   0  0  0  0  0  0  0  0  0  0  0  0
    0.6409    1.2360   -0.1326 C   0  0  0  0  0  0  0  0  0  0  0  0
    1.8237   -0.9062   -0.0173 C   0  0  0  0  0  0  0  0  0  0  0  0
    1.8201    0.4956   -0.0509 C   0  0  0  0  0  0  0  0  0  0  0  0
    3.0992   -1.5976    0.0740 C   0  0  0  0  0  0  0  0  0  0  0  0
    4.2400   -0.9056    0.1225 C   0  0  0  0  0  0  0  0  0  0  0  0
    4.2635    0.5681    0.0870 C   0  0  0  0  0  0  0  0  0  0  0  0
   -2.8000   -0.0183   -1.6707 H   0  0  0  0  0  0  0  0  0  0  0  0
   -2.2395   -1.6758    0.8421 H   0  0  0  0  0  0  0  0  0  0  0  0
   -2.1467   -2.1340   -0.8849 H   0  0  0  0  0  0  0  0  0  0  0  0
   -4.5991   -1.9256    0.1922 H   0  0  0  0  0  0  0  0  0  0  0  0
   -5.1324   -1.0643   -1.2708 H   0  0  0  0  0  0  0  0  0  0  0  0
   -5.9310   -0.7982    0.2912 H   0  0  0  0  0  0  0  0  0  0  0  0
   -4.7683    1.5945   -1.3462 H   0  0  0  0  0  0  0  0  0  0  0  0
   -5.5807    1.6582    0.2300 H   0  0  0  0  0  0  0  0  0  0  0  0
   -3.9872    2.3591    0.0580 H   0  0  0  0  0  0  0  0  0  0  0  0
    0.5753   -2.6844   -0.0243 H   0  0  0  0  0  0  0  0  0  0  0  0
    0.6503    2.3195   -0.1537 H   0  0  0  0  0  0  0  0  0  0  0  0
   -4.6338    0.3174    1.9716 H   0  0  0  0  0  0  0  0  0  0  0  0
    3.1085   -2.6817    0.1019 H   0  0  0  0  0  0  0  0  0  0  0  0
    5.1937   -1.4177    0.1904 H   0  0  0  0  0  0  0  0  0  0  0  0
  1  5  1  0  0  0  0
  1  9  1  0  0  0  0
  2  6  1  0  0  0  0
  2 30  1  0  0  0  0
  3 15  1  0  0  0  0
  3 18  1  0  0  0  0
  4 18  2  0  0  0  0
  5  6  1  0  0  0  0
  5  7  1  0  0  0  0
  5 19  1  0  0  0  0
  6 10  1  0  0  0  0
  6 11  1  0  0  0  0
  7  8  1  0  0  0  0
  7 20  1  0  0  0  0
  7 21  1  0  0  0  0
  8  9  2  0  0  0  0
  8 12  1  0  0  0  0
  9 13  1  0  0  0  0
 10 22  1  0  0  0  0
 10 23  1  0  0  0  0
 10 24  1  0  0  0  0
 11 25  1  0  0  0  0
 11 26  1  0  0  0  0
 11 27  1  0  0  0  0
 12 14  2  0  0  0  0
 12 28  1  0  0  0  0
 13 15  2  0  0  0  0
 13 29  1  0  0  0  0
 14 15  1  0  0  0  0
 14 16  1  0  0  0  0
 16 17  2  0  0  0  0
 16 31  1  0  0  0  0
 17 18  1  0  0  0  0
 17 32  1  0  0  0  0
M  END
> <PUBCHEM_COMPOUND_CID>
334704

> <PUBCHEM_CONFORMER_RMSD>
0.6

> <PUBCHEM_CONFORMER_DIVERSEORDER>
1
3
2

> <PUBCHEM_MMFF94_PARTIAL_CHARGES>
21
1 -0.36
12 -0.15
13 -0.15
14 0.03
15 0.08
16 -0.18
17 -0.14
18 0.71
2 -0.68
28 0.15
29 0.15
3 -0.23
30 0.4
31 0.15
32 0.15
4 -0.57
5 0.28
6 0.28
7 0.14
8 -0.14
9 0.08

> <PUBCHEM_EFFECTIVE_ROTOR_COUNT>
1.6

> <PUBCHEM_PHARMACOPHORE_FEATURES>
8
1 1 acceptor
1 2 acceptor
1 2 donor
1 4 acceptor
3 6 10 11 hydrophobe
5 1 5 7 8 9 rings
6 3 14 15 16 17 18 rings
6 8 9 12 13 14 15 rings

> <PUBCHEM_HEAVY_ATOM_COUNT>
18

> <PUBCHEM_ATOM_DEF_STEREO_COUNT>
1

> <PUBCHEM_ATOM_UDEF_STEREO_COUNT>
0

> <PUBCHEM_BOND_DEF_STEREO_COUNT>
0

> <PUBCHEM_BOND_UDEF_STEREO_COUNT>
0

> <PUBCHEM_ISOTOPIC_ATOM_COUNT>
0

> <PUBCHEM_COMPONENT_COUNT>
1

> <PUBCHEM_CACTVS_TAUTO_COUNT>
1

> <PUBCHEM_CONFORMER_ID>
00051B7000000001

> <PUBCHEM_MMFF94_ENERGY>
62.0086

> <PUBCHEM_FEATURE_SELFOVERLAP>
40.73

> <PUBCHEM_SHAPE_FINGERPRINT>
11132069 177 18410859858264460638
11471102 20 18410014351261013526
12107183 9 17686334682708803619
12236239 1 17967252005434922751
12403814 3 17846504729235922583
13214271 11 18342739611608656175
13675066 3 18201997733248066813
13760787 5 18410301332185480734
14943859 89 18334296461196569290
15196674 1 18411139159982464327
15375358 24 18272368680686210891
15536298 74 18335139812838558038
16945 1 18338524139271708446
17834072 33 18114186306695717191
200 152 18259992569989210343
20279233 1 17846775209202032099
20645477 70 18338240469646116814
21267235 1 18410287029928774926
22854114 59 18411980269155515827
23402539 116 18333740121345548909
23402655 69 18333736835553058157
23559900 14 18336549421311223270
26918003 58 17704072888861327561
296302 2 18334011691985197935
335352 9 18338800142518126126
34797466 226 16515683286684356708
34934 24 18411143532343730054
3545911 37 18410011018503515862
42 15 18272369797467209598
4214541 1 18410857681085332733
449060 62 18407761435056609014
474 4 17845651444047072380
4990 188 17967526883088666086
5104073 3 18411982489801412163
537710 114 18410008828070409292
542803 24 17095521798753200923
602551 16 15984527923872320402
69090 78 18408608054113896039
77779 3 18410575106254089943
90127 26 18271517693040503027
9709674 26 18410851075046317119

> <PUBCHEM_SHAPE_MULTIPOLES>
346.95
10.43
1.65
0.73
0.45
0.11
0.14
-1.72
0.74
-0.35
-0.07
0.48
-0.01
-0.01

> <PUBCHEM_SHAPE_SELFOVERLAP>
763.478

> <PUBCHEM_SHAPE_VOLUME>
188.8

> <PUBCHEM_COORDINATE_TYPE>
2
5
10

$$$$

