10368940
  -OEChem-07051213153D

 47 49  0     1  0  0  0  0  0999 V2000
    2.0797   -2.3078    0.9449 P   0  0  1  0  0  0  0  0  0  0  0  0
    3.5415    0.0862    0.0521 P   0  0  2  0  0  0  0  0  0  0  0  0
    2.1651    1.3515   -2.2301 P   0  0  0  0  0  0  0  0  0  0  0  0
   -2.1992   -1.7800    0.7403 O   0  0  0  0  0  0  0  0  0  0  0  0
   -3.7146   -3.8598   -0.8611 O   0  0  0  0  0  0  0  0  0  0  0  0
    0.4827   -2.5678    0.9663 O   0  0  0  0  0  0  0  0  0  0  0  0
    2.2445   -0.8512    0.2659 O   0  0  0  0  0  0  0  0  0  0  0  0
    2.4641   -2.0399    2.4933 O   0  0  0  0  0  0  0  0  0  0  0  0
    2.8854   -3.3887    0.2846 O   0  0  0  0  0  0  0  0  0  0  0  0
    0.7472    1.1595    2.8323 O   0  0  0  0  0  0  0  0  0  0  0  0
    2.9738    1.3140   -0.8314 O   0  0  0  0  0  0  0  0  0  0  0  0
    4.4502   -0.7435   -0.9962 O   0  0  0  0  0  0  0  0  0  0  0  0
    4.2480    0.4967    1.3104 O   0  0  0  0  0  0  0  0  0  0  0  0
    0.7535    0.6592   -1.8551 O   0  0  0  0  0  0  0  0  0  0  0  0
    1.7842    2.9120   -2.4066 O   0  0  0  0  0  0  0  0  0  0  0  0
    2.8906    0.7331   -3.3888 O   0  0  0  0  0  0  0  0  0  0  0  0
   -2.8036    0.3366   -0.1478 N   0  0  0  0  0  0  0  0  0  0  0  0
   -3.0919    2.5269   -0.6685 N   0  0  0  0  0  0  0  0  0  0  0  0
   -0.9561    0.5409    1.4361 N   0  0  0  0  0  0  0  0  0  0  0  0
   -0.3025    2.8321    1.6960 N   0  0  0  0  0  0  0  0  0  0  0  0
   -1.3491    4.6511    0.5521 N   0  0  0  0  0  0  0  0  0  0  0  0
   -2.5516   -3.1050   -1.1936 C   0  0  2  0  0  0  0  0  0  0  0  0
   -3.1006   -1.0723   -0.1265 C   0  0  1  0  0  0  0  0  0  0  0  0
   -1.7003   -2.9466    0.0573 C   0  0  1  0  0  0  0  0  0  0  0  0
   -2.9505   -1.6829   -1.5114 C   0  0  0  0  0  0  0  0  0  0  0  0
   -0.2272   -2.7140   -0.2517 C   0  0  0  0  0  0  0  0  0  0  0  0
   -1.8425    0.9681    0.6064 C   0  0  0  0  0  0  0  0  0  0  0  0
   -3.4938    1.2914   -0.8500 C   0  0  0  0  0  0  0  0  0  0  0  0
   -2.0475    2.4033    0.2411 C   0  0  0  0  0  0  0  0  0  0  0  0
   -1.2507    3.3129    0.8112 C   0  0  0  0  0  0  0  0  0  0  0  0
   -0.1288    1.4838    2.0284 C   0  0  0  0  0  0  0  0  0  0  0  0
   -2.0453   -3.6080   -2.0223 H   0  0  0  0  0  0  0  0  0  0  0  0
   -4.1128   -1.2350    0.2622 H   0  0  0  0  0  0  0  0  0  0  0  0
   -1.8074   -3.7894    0.7493 H   0  0  0  0  0  0  0  0  0  0  0  0
   -3.8767   -1.6048   -2.0894 H   0  0  0  0  0  0  0  0  0  0  0  0
   -2.1495   -1.1890   -2.0752 H   0  0  0  0  0  0  0  0  0  0  0  0
   -0.0857   -1.8012   -0.8379 H   0  0  0  0  0  0  0  0  0  0  0  0
    0.1896   -3.5608   -0.8061 H   0  0  0  0  0  0  0  0  0  0  0  0
   -3.4214   -4.7565   -0.6250 H   0  0  0  0  0  0  0  0  0  0  0  0
   -4.3194    0.9629   -1.4981 H   0  0  0  0  0  0  0  0  0  0  0  0
    0.3061    3.5186    2.1321 H   0  0  0  0  0  0  0  0  0  0  0  0
   -2.0467    4.9944   -0.0961 H   0  0  0  0  0  0  0  0  0  0  0  0
   -0.7181    5.2922    1.0156 H   0  0  0  0  0  0  0  0  0  0  0  0
    2.5748   -2.8074    3.0941 H   0  0  0  0  0  0  0  0  0  0  0  0
    4.9812   -1.5004   -0.6685 H   0  0  0  0  0  0  0  0  0  0  0  0
    0.1071    0.4774   -2.5701 H   0  0  0  0  0  0  0  0  0  0  0  0
    1.3470    3.2035   -3.2349 H   0  0  0  0  0  0  0  0  0  0  0  0
  1  6  1  0  0  0  0
  1  7  1  0  0  0  0
  1  8  1  0  0  0  0
  1  9  2  0  0  0  0
  2  7  1  0  0  0  0
  2 11  1  0  0  0  0
  2 12  1  0  0  0  0
  2 13  2  0  0  0  0
  3 11  1  0  0  0  0
  3 14  1  0  0  0  0
  3 15  1  0  0  0  0
  3 16  2  0  0  0  0
  4 23  1  0  0  0  0
  4 24  1  0  0  0  0
  5 22  1  0  0  0  0
  5 39  1  0  0  0  0
  6 26  1  0  0  0  0
  8 44  1  0  0  0  0
 10 31  2  0  0  0  0
 12 45  1  0  0  0  0
 14 46  1  0  0  0  0
 15 47  1  0  0  0  0
 17 23  1  0  0  0  0
 17 27  1  0  0  0  0
 17 28  1  0  0  0  0
 18 28  2  0  0  0  0
 18 29  1  0  0  0  0
 19 27  2  0  0  0  0
 19 31  1  0  0  0  0
 20 30  1  0  0  0  0
 20 31  1  0  0  0  0
 20 41  1  0  0  0  0
 21 30  1  0  0  0  0
 21 42  1  0  0  0  0
 21 43  1  0  0  0  0
 22 24  1  0  0  0  0
 22 25  1  0  0  0  0
 22 32  1  0  0  0  0
 23 25  1  0  0  0  0
 23 33  1  0  0  0  0
 24 26  1  0  0  0  0
 24 34  1  0  0  0  0
 25 35  1  0  0  0  0
 25 36  1  0  0  0  0
 26 37  1  0  0  0  0
 26 38  1  0  0  0  0
 27 29  1  0  0  0  0
 28 40  1  0  0  0  0
 29 30  2  0  0  0  0
M  END
> <PUBCHEM_COMPOUND_CID>
10368940

> <PUBCHEM_CONFORMER_RMSD>
1.2

> <PUBCHEM_CONFORMER_DIVERSEORDER>
1
197
255
362
69
36
384
237
103
298
5
288
70
41
112
185
88
238
43
29
321
279
181
337
361
241
149
89
171
184
32
314
402
16
67
297
323
377
271
259
224
245
303
128
140
346
393
71
190
239
93
222
87
116
293
296
309
375
311
203
395
90
349
172
229
268
10
248
168
37
159
176
373
230
38
223
164
368
183
380
108
31
344
20
195
23
357
251
205
52
169
306
188
372
196
17
301
265
285
91
353
226
366
345
76
28
127
330
59
174
225
13
315
263
266
129
350
55
334
18
302
191
30
111
278
232
152
97
217
276
214
130
64
264
212
379
246
307
304
312
6
46
364
83
139
388
125
66
15
27
193
383
92
363
95
324
109
391
310
208
269
78
213
367
262
40
235
347
107
26
134
175
51
215
99
289
170
339
400
68
228
234
162
119
325
118
267
253
22
102
207
182
318
294
316
329
48
283
98
352
382
84
331
136
73
202
45
75
54
123
117
49
348
275
280
163
242
105
25
231
389
218
370
381
211
147
154
166
219
292
277
146
19
39
148
65
200
156
250
319
394
295
161
2
145
33
167
81
113
257
274
34
143
194
155
178
240
137
399
14
369
343
150
387
221
77
50
287
392
338
160
35
192
96
11
115
180
371
206
61
305
47
335
333
254
328
358
396
177
3
340
85
204
74
322
290
355
135
58
173
291
270
122
101
374
157
326
126
94
187
104
189
21
341
252
44
327
243
356
9
317
313
63
79
120
227
132
151
300
332
57
216
110
131
233
179
284
281
198
138
53
378
286
244
236
220
114
308
342
201
359
4
336
141
260
72
158
42
62
397
282
320
8
142
165
210
60
390
24
360
153
100
385
144
199
386
401
56
376
249
7
247
258
82
80
261
272
121
12
186
299
351
133
398
106
256
365
124
273
86
209
354

> <PUBCHEM_MMFF94_PARTIAL_CHARGES>
39
1 1.51
10 -0.57
11 -0.54
12 -0.77
13 -0.7
14 -0.77
15 -0.77
16 -0.7
17 -0.47
18 -0.62
19 -0.66
2 1.51
20 -0.54
21 -0.9
22 0.28
23 0.65
24 0.28
26 0.28
27 0.49
28 0.44
29 0.19
3 1.51
30 0.21
31 0.84
39 0.4
4 -0.56
40 0.06
41 0.37
42 0.4
43 0.4
44 0.5
45 0.5
46 0.5
47 0.5
5 -0.68
6 -0.55
7 -0.54
8 -0.77
9 -0.7

> <PUBCHEM_EFFECTIVE_ROTOR_COUNT>
9

> <PUBCHEM_PHARMACOPHORE_FEATURES>
20
1 10 acceptor
1 12 acceptor
1 13 acceptor
1 14 acceptor
1 15 acceptor
1 16 acceptor
1 19 donor
1 20 donor
1 21 cation
1 21 donor
1 4 acceptor
1 5 acceptor
1 5 donor
1 8 acceptor
1 9 acceptor
3 17 18 28 cation
4 3 14 15 16 anion
5 17 18 27 28 29 rings
5 4 22 23 24 25 rings
6 19 20 27 29 30 31 rings

> <PUBCHEM_HEAVY_ATOM_COUNT>
31

> <PUBCHEM_ATOM_DEF_STEREO_COUNT>
3

> <PUBCHEM_ATOM_UDEF_STEREO_COUNT>
0

> <PUBCHEM_BOND_DEF_STEREO_COUNT>
0

> <PUBCHEM_BOND_UDEF_STEREO_COUNT>
0

> <PUBCHEM_ISOTOPIC_ATOM_COUNT>
0

> <PUBCHEM_COMPONENT_COUNT>
1

> <PUBCHEM_CACTVS_TAUTO_COUNT>
9

> <PUBCHEM_CONFORMER_ID>
009E37AC00000001

> <PUBCHEM_MMFF94_ENERGY>
16.2962

> <PUBCHEM_FEATURE_SELFOVERLAP>
101.747

> <PUBCHEM_SHAPE_FINGERPRINT>
10708813 3 18198337558071446422
11370993 70 17904781216019014760
11513181 2 17681284569778612391
12156800 1 16263834693818265940
12788726 201 18266998623426521597
13009979 54 18270978902558469970
14790565 3 17971761231786625369
20600515 1 17749376057960714801
20691752 17 17691408512522957707
20764821 26 16178192289879233414
23419403 2 17117547168515771442
25265897 201 15437920347098564415
35225 105 17823992331630968132
463206 1 18340205168281343491
469060 322 14898858907325187830
9981440 41 17398970748070546595

> <PUBCHEM_SHAPE_MULTIPOLES>
548.31
6.56
5.31
2.45
3.1
0.31
-0.68
-2.16
-2.09
-3.38
0.43
2.22
1.11
-2.19

> <PUBCHEM_SHAPE_SELFOVERLAP>
1117.72

> <PUBCHEM_SHAPE_VOLUME>
319.2

> <PUBCHEM_COORDINATE_TYPE>
2
5
10

$$$$

