9145
  -OEChem-07051213143D

 38 43  0     0  0  0  0  0  0999 V2000
   -0.8429    0.3462    0.0002 C   0  0  0  0  0  0  0  0  0  0  0  0
   -1.2540   -0.9855   -0.0001 C   0  0  0  0  0  0  0  0  0  0  0  0
    0.5410    0.6266   -0.0006 C   0  0  0  0  0  0  0  0  0  0  0  0
   -2.6372   -1.0885   -0.0013 C   0  0  0  0  0  0  0  0  0  0  0  0
   -2.0783    1.1604    0.0006 C   0  0  0  0  0  0  0  0  0  0  0  0
   -3.1807    0.2552   -0.0012 C   0  0  0  0  0  0  0  0  0  0  0  0
   -0.4072   -2.0831    0.0004 C   0  0  0  0  0  0  0  0  0  0  0  0
    1.4794   -0.4640    0.0008 C   0  0  0  0  0  0  0  0  0  0  0  0
    0.9674   -1.7978    0.0013 C   0  0  0  0  0  0  0  0  0  0  0  0
    2.8968   -0.1900    0.0010 C   0  0  0  0  0  0  0  0  0  0  0  0
    1.0510    1.9343   -0.0038 C   0  0  0  0  0  0  0  0  0  0  0  0
   -3.2384   -2.3358   -0.0022 C   0  0  0  0  0  0  0  0  0  0  0  0
   -1.0146   -3.3547   -0.0003 C   0  0  0  0  0  0  0  0  0  0  0  0
    3.3455    1.1539   -0.0021 C   0  0  0  0  0  0  0  0  0  0  0  0
   -2.3271    2.5229    0.0039 C   0  0  0  0  0  0  0  0  0  0  0  0
   -4.4961    0.6906   -0.0010 C   0  0  0  0  0  0  0  0  0  0  0  0
   -2.4172   -3.4721   -0.0015 C   0  0  0  0  0  0  0  0  0  0  0  0
    2.4191    2.1927   -0.0048 C   0  0  0  0  0  0  0  0  0  0  0  0
    3.9100   -1.1854    0.0042 C   0  0  0  0  0  0  0  0  0  0  0  0
   -3.6559    2.9688    0.0039 C   0  0  0  0  0  0  0  0  0  0  0  0
   -4.7281    2.0641    0.0012 C   0  0  0  0  0  0  0  0  0  0  0  0
    4.7179    1.4595   -0.0028 C   0  0  0  0  0  0  0  0  0  0  0  0
    5.2727   -0.8714    0.0040 C   0  0  0  0  0  0  0  0  0  0  0  0
    5.6770    0.4530    0.0002 C   0  0  0  0  0  0  0  0  0  0  0  0
    1.6416   -2.6512    0.0017 H   0  0  0  0  0  0  0  0  0  0  0  0
    0.4029    2.8003   -0.0065 H   0  0  0  0  0  0  0  0  0  0  0  0
   -4.3178   -2.4454   -0.0032 H   0  0  0  0  0  0  0  0  0  0  0  0
   -0.4054   -4.2552    0.0000 H   0  0  0  0  0  0  0  0  0  0  0  0
   -1.5433    3.2671    0.0068 H   0  0  0  0  0  0  0  0  0  0  0  0
   -5.3273   -0.0060   -0.0022 H   0  0  0  0  0  0  0  0  0  0  0  0
   -2.8700   -4.4604   -0.0021 H   0  0  0  0  0  0  0  0  0  0  0  0
    2.7477    3.2307   -0.0076 H   0  0  0  0  0  0  0  0  0  0  0  0
    3.6617   -2.2434    0.0072 H   0  0  0  0  0  0  0  0  0  0  0  0
   -3.8605    4.0367    0.0063 H   0  0  0  0  0  0  0  0  0  0  0  0
   -5.7476    2.4401    0.0015 H   0  0  0  0  0  0  0  0  0  0  0  0
    5.0543    2.4950   -0.0055 H   0  0  0  0  0  0  0  0  0  0  0  0
    6.0118   -1.6672    0.0066 H   0  0  0  0  0  0  0  0  0  0  0  0
    6.7332    0.7040   -0.0002 H   0  0  0  0  0  0  0  0  0  0  0  0
  1  2  2  0  0  0  0
  1  3  1  0  0  0  0
  1  5  1  0  0  0  0
  2  4  1  0  0  0  0
  2  7  1  0  0  0  0
  3  8  2  0  0  0  0
  3 11  1  0  0  0  0
  4  6  1  0  0  0  0
  4 12  2  0  0  0  0
  5  6  1  0  0  0  0
  5 15  2  0  0  0  0
  6 16  2  0  0  0  0
  7  9  2  0  0  0  0
  7 13  1  0  0  0  0
  8  9  1  0  0  0  0
  8 10  1  0  0  0  0
  9 25  1  0  0  0  0
 10 14  1  0  0  0  0
 10 19  2  0  0  0  0
 11 18  2  0  0  0  0
 11 26  1  0  0  0  0
 12 17  1  0  0  0  0
 12 27  1  0  0  0  0
 13 17  2  0  0  0  0
 13 28  1  0  0  0  0
 14 18  1  0  0  0  0
 14 22  2  0  0  0  0
 15 20  1  0  0  0  0
 15 29  1  0  0  0  0
 16 21  1  0  0  0  0
 16 30  1  0  0  0  0
 17 31  1  0  0  0  0
 18 32  1  0  0  0  0
 19 23  1  0  0  0  0
 19 33  1  0  0  0  0
 20 21  2  0  0  0  0
 20 34  1  0  0  0  0
 21 35  1  0  0  0  0
 22 24  1  0  0  0  0
 22 36  1  0  0  0  0
 23 24  2  0  0  0  0
 23 37  1  0  0  0  0
 24 38  1  0  0  0  0
M  END
> <PUBCHEM_COMPOUND_CID>
9145

> <PUBCHEM_CONFORMER_RMSD>
0.6

> <PUBCHEM_CONFORMER_DIVERSEORDER>
1

> <PUBCHEM_MMFF94_PARTIAL_CHARGES>
28
11 -0.15
12 -0.15
13 -0.15
15 -0.15
16 -0.15
17 -0.15
18 -0.15
19 -0.15
20 -0.15
21 -0.15
22 -0.15
23 -0.15
24 -0.15
25 0.15
26 0.15
27 0.15
28 0.15
29 0.15
30 0.15
31 0.15
32 0.15
33 0.15
34 0.15
35 0.15
36 0.15
37 0.15
38 0.15
9 -0.15

> <PUBCHEM_EFFECTIVE_ROTOR_COUNT>
0

> <PUBCHEM_PHARMACOPHORE_FEATURES>
6
5 1 2 4 5 6 rings
6 1 2 3 7 8 9 rings
6 10 14 19 22 23 24 rings
6 2 4 7 12 13 17 rings
6 3 8 10 11 14 18 rings
6 5 6 15 16 20 21 rings

> <PUBCHEM_HEAVY_ATOM_COUNT>
24

> <PUBCHEM_ATOM_DEF_STEREO_COUNT>
0

> <PUBCHEM_ATOM_UDEF_STEREO_COUNT>
0

> <PUBCHEM_BOND_DEF_STEREO_COUNT>
0

> <PUBCHEM_BOND_UDEF_STEREO_COUNT>
0

> <PUBCHEM_ISOTOPIC_ATOM_COUNT>
0

> <PUBCHEM_COMPONENT_COUNT>
1

> <PUBCHEM_CACTVS_TAUTO_COUNT>
1

> <PUBCHEM_CONFORMER_ID>
000023B900000001

> <PUBCHEM_MMFF94_ENERGY>
108.5615

> <PUBCHEM_FEATURE_SELFOVERLAP>
30.786

> <PUBCHEM_SHAPE_FINGERPRINT>
10319926 262 18263381235030199544
10411042 1 17834394523490369539
10493431 412 18337950198945356529
10616163 171 18337952277572514190
10967382 1 18266459999988314951
1100329 8 18410012143400234968
11370993 70 18338238270796648469
11578080 2 5038851160796481104
12107183 9 18198070381489679642
12173636 292 18410578383503930757
12236239 1 17846497045792695608
12390115 104 18189882262093499617
12403259 226 18045785580862657377
12788726 201 18126855897346613027
12838862 33 18267323065187956957
13140716 1 18266732494341494755
13583140 156 17677339290651546168
13642711 20 17546455929919608967
138480 1 17185876636825900743
14178342 30 18195545717965981896
14790565 3 18266173031490613040
14866123 147 18411702088493211075
15042514 8 18268706117924557003
15131766 46 16126665026448228756
15196674 1 18410856525849724418
15256400 18 18410573981173027452
15442244 35 18411983520931159442
15927050 60 18337672022493746271
16728300 4 16910897506003115842
17492 89 18267584607385009722
1813 80 16988843882730027988
19141452 34 18413108364007216956
19591789 44 18051130590405689948
20510252 161 18335135341661506611
20775438 99 16239604507502315471
21033648 144 18339375080015888756
21033648 29 18337685203394917705
21065198 57 18410012096572157016
21133410 171 17255180671718432302
21236236 1 18408604734246484015
21267235 1 18268140964014836571
21279426 13 18264203780880129406
21307412 95 17825365622277215694
21421861 104 17845104037944292706
21478907 32 18050006597813181407
21859007 373 17843148006168395300
22182313 1 18188468255516996286
22393880 68 18265039246841265628
23227448 37 18408886239335230935
23402539 116 18334864913003097132
23558518 356 18200028413438818266
23559900 14 18333730256570645270
238 59 17265573543296160237
3091708 16 9269527881964675051
3178227 256 18339346540569850761
335352 9 18338799017637445726
34934 24 18412548721674336298
350125 39 18410570661374336833
3680242 22 18197498635226698418
4073 2 18272649005666507002
4214541 1 18410856542845087720
460360 51 18267281257928454690
484989 97 18340211766126570319
495365 180 17313401015114669064
5104073 3 18410858720609766048
532947 4 18047467009040890151
559249 180 18411985780253106626
6138700 20 18121777502894806310
7164475 11 18123469380215812460
7226269 152 18040718112422972448
9709674 26 18334571318050956158
9981440 41 18341047536222646227

> <PUBCHEM_SHAPE_MULTIPOLES>
493.91
10.2
3.74
0.62
8.6
1.51
0
-3.84
0
-3.84
0
0
0
-0.01

> <PUBCHEM_SHAPE_SELFOVERLAP>
1168.583

> <PUBCHEM_SHAPE_VOLUME>
227

> <PUBCHEM_COORDINATE_TYPE>
2
5
10

$$$$

