17395304
  -OEChem-06241222492D

 40 41  0     1  0  0  0  0  0999 V2000
    5.1350    5.0600    0.0000 Cl  0  0  0  0  0  0  0  0  0  0  0  0
    5.1350    2.0600    0.0000 S   0  0  0  0  0  0  0  0  0  0  0  0
    5.1350    0.0600    0.0000 O   0  0  0  0  0  0  0  0  0  0  0  0
    4.2690   -4.4400    0.0000 O   0  0  0  0  0  0  0  0  0  0  0  0
    3.4030    0.0600    0.0000 N   0  0  0  0  0  0  0  0  0  0  0  0
    2.5369   -4.4400    0.0000 N   0  0  0  0  0  0  0  0  0  0  0  0
    5.1350    3.0600    0.0000 C   0  0  3  0  0  0  0  0  0  0  0  0
    6.0010    3.5600    0.0000 C   0  0  0  0  0  0  0  0  0  0  0  0
    4.2690    3.5600    0.0000 C   0  0  0  0  0  0  0  0  0  0  0  0
    4.2690    1.5600    0.0000 C   0  0  0  0  0  0  0  0  0  0  0  0
    6.0010    4.5600    0.0000 C   0  0  0  0  0  0  0  0  0  0  0  0
    6.8671    3.0600    0.0000 C   0  0  0  0  0  0  0  0  0  0  0  0
    4.2690    0.5600    0.0000 C   0  0  0  0  0  0  0  0  0  0  0  0
    3.4030   -0.9400    0.0000 C   0  0  0  0  0  0  0  0  0  0  0  0
    6.8671    5.0600    0.0000 C   0  0  0  0  0  0  0  0  0  0  0  0
    7.7331    3.5600    0.0000 C   0  0  0  0  0  0  0  0  0  0  0  0
    7.7331    4.5600    0.0000 C   0  0  0  0  0  0  0  0  0  0  0  0
    2.5369   -1.4400    0.0000 C   0  0  0  0  0  0  0  0  0  0  0  0
    4.2690   -1.4400    0.0000 C   0  0  0  0  0  0  0  0  0  0  0  0
    3.4030   -2.9400    0.0000 C   0  0  0  0  0  0  0  0  0  0  0  0
    2.5369   -2.4400    0.0000 C   0  0  0  0  0  0  0  0  0  0  0  0
    4.2690   -2.4400    0.0000 C   0  0  0  0  0  0  0  0  0  0  0  0
    3.4030   -3.9400    0.0000 C   0  0  0  0  0  0  0  0  0  0  0  0
    4.5981    2.7500    0.0000 H   0  0  0  0  0  0  0  0  0  0  0  0
    4.5790    4.0969    0.0000 H   0  0  0  0  0  0  0  0  0  0  0  0
    3.7320    3.8700    0.0000 H   0  0  0  0  0  0  0  0  0  0  0  0
    3.9590    3.0231    0.0000 H   0  0  0  0  0  0  0  0  0  0  0  0
    4.0569    2.1426    0.0000 H   0  0  0  0  0  0  0  0  0  0  0  0
    3.6584    1.4523    0.0000 H   0  0  0  0  0  0  0  0  0  0  0  0
    6.8671    2.4400    0.0000 H   0  0  0  0  0  0  0  0  0  0  0  0
    6.8671    5.6800    0.0000 H   0  0  0  0  0  0  0  0  0  0  0  0
    8.2700    3.2500    0.0000 H   0  0  0  0  0  0  0  0  0  0  0  0
    2.8660    0.3700    0.0000 H   0  0  0  0  0  0  0  0  0  0  0  0
    8.2700    4.8700    0.0000 H   0  0  0  0  0  0  0  0  0  0  0  0
    2.0000   -1.1300    0.0000 H   0  0  0  0  0  0  0  0  0  0  0  0
    4.8059   -1.1300    0.0000 H   0  0  0  0  0  0  0  0  0  0  0  0
    2.0000   -2.7500    0.0000 H   0  0  0  0  0  0  0  0  0  0  0  0
    4.8059   -2.7500    0.0000 H   0  0  0  0  0  0  0  0  0  0  0  0
    2.5369   -5.0600    0.0000 H   0  0  0  0  0  0  0  0  0  0  0  0
    2.0000   -4.1300    0.0000 H   0  0  0  0  0  0  0  0  0  0  0  0
  1 11  1  0  0  0  0
  2  7  1  0  0  0  0
  2 10  1  0  0  0  0
  3 13  2  0  0  0  0
  4 23  2  0  0  0  0
  5 13  1  0  0  0  0
  5 14  1  0  0  0  0
  5 33  1  0  0  0  0
  6 23  1  0  0  0  0
  6 39  1  0  0  0  0
  6 40  1  0  0  0  0
  7  8  1  0  0  0  0
  7  9  1  0  0  0  0
  7 24  1  0  0  0  0
  8 11  1  0  0  0  0
  8 12  2  0  0  0  0
  9 25  1  0  0  0  0
  9 26  1  0  0  0  0
  9 27  1  0  0  0  0
 10 13  1  0  0  0  0
 10 28  1  0  0  0  0
 10 29  1  0  0  0  0
 11 15  2  0  0  0  0
 12 16  1  0  0  0  0
 12 30  1  0  0  0  0
 14 18  2  0  0  0  0
 14 19  1  0  0  0  0
 15 17  1  0  0  0  0
 15 31  1  0  0  0  0
 16 17  2  0  0  0  0
 16 32  1  0  0  0  0
 17 34  1  0  0  0  0
 18 21  1  0  0  0  0
 18 35  1  0  0  0  0
 19 22  2  0  0  0  0
 19 36  1  0  0  0  0
 20 21  2  0  0  0  0
 20 22  1  0  0  0  0
 20 23  1  0  0  0  0
 21 37  1  0  0  0  0
 22 38  1  0  0  0  0
M  END
> <PUBCHEM_COMPOUND_CID>
17395304

> <PUBCHEM_COMPOUND_CANONICALIZED>
1

> <PUBCHEM_CACTVS_COMPLEXITY>
413

> <PUBCHEM_CACTVS_HBOND_ACCEPTOR>
3

> <PUBCHEM_CACTVS_HBOND_DONOR>
2

> <PUBCHEM_CACTVS_ROTATABLE_BOND>
6

> <PUBCHEM_CACTVS_SUBSKEYS>
AAADceB7MABEAAAAAAAAAAAAAAAAAAAAAAAwYAAAAAAAAAABQAAAHgYQAAAADAqF2CCywILAAAiIAiVSUACCAAAlBxAIiAEAZsgIIDLhl5GEIQhglADoyYcYiYCeCAAAAAABAAAQAAAAAAIAAAAAAAAAAA==

> <PUBCHEM_IUPAC_OPENEYE_NAME>
4-[[2-[1-(2-chlorophenyl)ethylsulfanyl]acetyl]amino]benzamide

> <PUBCHEM_IUPAC_CAS_NAME>
4-[[2-[1-(2-chlorophenyl)ethylthio]-1-oxoethyl]amino]benzamide

> <PUBCHEM_IUPAC_NAME>
4-[[2-[1-(2-chlorophenyl)ethylsulfanyl]acetyl]amino]benzamide

> <PUBCHEM_IUPAC_SYSTEMATIC_NAME>
4-[2-[1-(2-chlorophenyl)ethylsulfanyl]ethanoylamino]benzamide

> <PUBCHEM_IUPAC_TRADITIONAL_NAME>
4-[[2-[1-(2-chlorophenyl)ethylthio]acetyl]amino]benzamide

> <PUBCHEM_IUPAC_INCHI>
InChI=1S/C17H17ClN2O2S/c1-11(14-4-2-3-5-15(14)18)23-10-16(21)20-13-8-6-12(7-9-13)17(19)22/h2-9,11H,10H2,1H3,(H2,19,22)(H,20,21)

> <PUBCHEM_IUPAC_INCHIKEY>
UWASRRILCITATG-UHFFFAOYSA-N

> <PUBCHEM_XLOGP3_AA>
3.2

> <PUBCHEM_EXACT_MASS>
348.069926

> <PUBCHEM_MOLECULAR_FORMULA>
C17H17ClN2O2S

> <PUBCHEM_MOLECULAR_WEIGHT>
348.84708

> <PUBCHEM_OPENEYE_CAN_SMILES>
CC(C1=CC=CC=C1Cl)SCC(=O)NC2=CC=C(C=C2)C(=O)N

> <PUBCHEM_OPENEYE_ISO_SMILES>
CC(C1=CC=CC=C1Cl)SCC(=O)NC2=CC=C(C=C2)C(=O)N

> <PUBCHEM_CACTVS_TPSA>
97.5

> <PUBCHEM_MONOISOTOPIC_WEIGHT>
348.069926

> <PUBCHEM_TOTAL_CHARGE>
0

> <PUBCHEM_HEAVY_ATOM_COUNT>
23

> <PUBCHEM_ATOM_DEF_STEREO_COUNT>
0

> <PUBCHEM_ATOM_UDEF_STEREO_COUNT>
1

> <PUBCHEM_BOND_DEF_STEREO_COUNT>
0

> <PUBCHEM_BOND_UDEF_STEREO_COUNT>
0

> <PUBCHEM_ISOTOPIC_ATOM_COUNT>
0

> <PUBCHEM_COMPONENT_COUNT>
1

> <PUBCHEM_CACTVS_TAUTO_COUNT>
12

> <PUBCHEM_COORDINATE_TYPE>
1
5
255

> <PUBCHEM_BONDANNOTATIONS>
11  15  8
12  16  8
14  18  8
14  19  8
15  17  8
16  17  8
18  21  8
19  22  8
20  21  8
20  22  8
7  9  3
8  11  8
8  12  8

$$$$

