13381
  -OEChem-06261209323D

 30 29  0     0  0  0  0  0  0999 V2000
   -0.6090    0.3658    0.1187 C   0  0  0  0  0  0  0  0  0  0  0  0
   -1.8776   -0.4704   -0.0646 C   0  0  0  0  0  0  0  0  0  0  0  0
    0.6461   -0.5055    0.0327 C   0  0  0  0  0  0  0  0  0  0  0  0
   -3.1349    0.3921    0.0590 C   0  0  0  0  0  0  0  0  0  0  0  0
    1.9470    0.2785    0.2323 C   0  0  0  0  0  0  0  0  0  0  0  0
   -4.4011   -0.4364   -0.1569 C   0  0  0  0  0  0  0  0  0  0  0  0
    3.2027   -0.5900    0.1220 C   0  0  0  0  0  0  0  0  0  0  0  0
   -5.6515    0.4240   -0.0680 C   0  0  0  0  0  0  0  0  0  0  0  0
    4.4464    0.2285    0.3126 C   0  0  0  0  0  0  0  0  0  0  0  0
    5.4319    0.3133   -0.5879 C   0  0  0  0  0  0  0  0  0  0  0  0
   -0.5667    1.1477   -0.6490 H   0  0  0  0  0  0  0  0  0  0  0  0
   -0.6368    0.8692    1.0926 H   0  0  0  0  0  0  0  0  0  0  0  0
   -1.9061   -1.2677    0.6880 H   0  0  0  0  0  0  0  0  0  0  0  0
   -1.8574   -0.9547   -1.0485 H   0  0  0  0  0  0  0  0  0  0  0  0
    0.5896   -1.2988    0.7884 H   0  0  0  0  0  0  0  0  0  0  0  0
    0.6737   -1.0017   -0.9454 H   0  0  0  0  0  0  0  0  0  0  0  0
   -3.1652    0.8599    1.0505 H   0  0  0  0  0  0  0  0  0  0  0  0
   -3.0969    1.2023   -0.6794 H   0  0  0  0  0  0  0  0  0  0  0  0
    1.9221    0.7647    1.2162 H   0  0  0  0  0  0  0  0  0  0  0  0
    1.9944    1.0827   -0.5134 H   0  0  0  0  0  0  0  0  0  0  0  0
   -4.3677   -0.9190   -1.1406 H   0  0  0  0  0  0  0  0  0  0  0  0
   -4.4571   -1.2333    0.5938 H   0  0  0  0  0  0  0  0  0  0  0  0
    3.2149   -1.0972   -0.8502 H   0  0  0  0  0  0  0  0  0  0  0  0
    3.1774   -1.3713    0.8908 H   0  0  0  0  0  0  0  0  0  0  0  0
   -5.6416    1.2105   -0.8294 H   0  0  0  0  0  0  0  0  0  0  0  0
   -6.5449   -0.1885   -0.2241 H   0  0  0  0  0  0  0  0  0  0  0  0
   -5.7321    0.8982    0.9153 H   0  0  0  0  0  0  0  0  0  0  0  0
    4.5512    0.7682    1.2504 H   0  0  0  0  0  0  0  0  0  0  0  0
    6.3102    0.9164   -0.3855 H   0  0  0  0  0  0  0  0  0  0  0  0
    5.3815   -0.2116   -1.5353 H   0  0  0  0  0  0  0  0  0  0  0  0
  1  2  1  0  0  0  0
  1  3  1  0  0  0  0
  1 11  1  0  0  0  0
  1 12  1  0  0  0  0
  2  4  1  0  0  0  0
  2 13  1  0  0  0  0
  2 14  1  0  0  0  0
  3  5  1  0  0  0  0
  3 15  1  0  0  0  0
  3 16  1  0  0  0  0
  4  6  1  0  0  0  0
  4 17  1  0  0  0  0
  4 18  1  0  0  0  0
  5  7  1  0  0  0  0
  5 19  1  0  0  0  0
  5 20  1  0  0  0  0
  6  8  1  0  0  0  0
  6 21  1  0  0  0  0
  6 22  1  0  0  0  0
  7  9  1  0  0  0  0
  7 23  1  0  0  0  0
  7 24  1  0  0  0  0
  8 25  1  0  0  0  0
  8 26  1  0  0  0  0
  8 27  1  0  0  0  0
  9 10  2  0  0  0  0
  9 28  1  0  0  0  0
 10 29  1  0  0  0  0
 10 30  1  0  0  0  0
M  END
> <PUBCHEM_COMPOUND_CID>
13381

> <PUBCHEM_CONFORMER_RMSD>
0.6

> <PUBCHEM_CONFORMER_DIVERSEORDER>
1
183
172
66
113
117
153
69
103
165
54
125
77
5
158
218
208
30
44
139
114
154
155
63
6
188
95
84
52
124
191
20
37
67
213
22
177
38
121
122
169
207
223
92
201
59
167
212
31
174
4
21
87
195
141
137
151
107
29
193
10
57
204
156
148
33
34
202
68
180
26
190
91
19
123
157
146
112
119
12
8
215
130
99
89
187
225
9
127
196
170
56
16
222
61
138
150
65
2
55
18
178
164
45
206
118
214
11
49
166
15
224
7
97
101
186
14
194
142
220
62
205
217
51
35
149
173
144
42
93
76
110
40
203
41
175
75
23
133
70
100
50
24
221
83
185
209
47
96
145
179
71
48
143
189
211
181
39
32
200
182
43
160
106
111
13
85
129
199
82
171
74
219
80
105
210
102
3
116
58
176
86
216
73
136
184
161
104
168
25
90
159
78
27
81
128
109
17
192
132
162
72
28
198
46
36
98
131
197
79
140
163
115
120
94
108
60
147
88
152
126
134
53
135
64

> <PUBCHEM_MMFF94_PARTIAL_CHARGES>
6
10 -0.3
28 0.15
29 0.15
30 0.15
7 0.14
9 -0.29

> <PUBCHEM_EFFECTIVE_ROTOR_COUNT>
7

> <PUBCHEM_PHARMACOPHORE_FEATURES>
2
1 10 hydrophobe
1 8 hydrophobe

> <PUBCHEM_HEAVY_ATOM_COUNT>
10

> <PUBCHEM_ATOM_DEF_STEREO_COUNT>
0

> <PUBCHEM_ATOM_UDEF_STEREO_COUNT>
0

> <PUBCHEM_BOND_DEF_STEREO_COUNT>
0

> <PUBCHEM_BOND_UDEF_STEREO_COUNT>
0

> <PUBCHEM_ISOTOPIC_ATOM_COUNT>
0

> <PUBCHEM_COMPONENT_COUNT>
1

> <PUBCHEM_CACTVS_TAUTO_COUNT>
1

> <PUBCHEM_CONFORMER_ID>
0000344500000001

> <PUBCHEM_MMFF94_ENERGY>
-2.8536

> <PUBCHEM_FEATURE_SELFOVERLAP>
10.149

> <PUBCHEM_SHAPE_FINGERPRINT>
11062470 55 17632578253572503146
11401426 45 13039188095656696243
114248 4 18411138030326814202
12815109 37 18342458140341460629
14123238 8 18272933821099053927
14251718 22 18202282481158785539
15242433 33 18410856564135626198
15242439 84 17313105241437540139
15501527 16 17988647454130197277
17834072 33 18339361868331793892
17834076 25 18411700988880739078
187816 3 16950281806467392795
20645477 70 18262235646550900342
20719005 15 18040435490415173370
20767249 13 9295288339543464825
20767249 213 17561081393163526565
22485316 2 18202567280387624315
23402539 116 18334583434264026189
366044 4 18411700980354601859
42788 4 18413108363933097417
8209 1 18186802482926755364

> <PUBCHEM_SHAPE_MULTIPOLES>
205.8
13.49
0.79
0.67
1.47
0.03
-0.02
-1.6
-1.38
0.06
0
-0.23
-0.01
-0.11

> <PUBCHEM_SHAPE_SELFOVERLAP>
362.012

> <PUBCHEM_SHAPE_VOLUME>
135.4

> <PUBCHEM_COORDINATE_TYPE>
2
5
10

$$$$

