11469920
  -OEChem-07051213113D

 39 38  0     0  0  0  0  0  0999 V2000
   -6.0349    1.5431    0.0995 O   0  0  0  0  0  0  0  0  0  0  0  0
   -3.7620    1.4475    0.2737 O   0  0  0  0  0  0  0  0  0  0  0  0
    3.3616   -0.0520   -0.0427 C   0  0  0  0  0  0  0  0  0  0  0  0
    2.0735   -0.3184    0.7398 C   0  0  0  0  0  0  0  0  0  0  0  0
    4.6044    0.0522    0.8506 C   0  0  0  0  0  0  0  0  0  0  0  0
    0.8294   -0.4176   -0.1505 C   0  0  0  0  0  0  0  0  0  0  0  0
    5.9236    0.3855    0.1281 C   0  0  0  0  0  0  0  0  0  0  0  0
   -0.4445   -0.7607    0.6264 C   0  0  0  0  0  0  0  0  0  0  0  0
   -1.6912   -0.8593   -0.2626 C   0  0  0  0  0  0  0  0  0  0  0  0
    6.2924   -0.7552   -0.8247 C   0  0  0  0  0  0  0  0  0  0  0  0
    5.8492    1.7017   -0.6465 C   0  0  0  0  0  0  0  0  0  0  0  0
   -2.9920   -1.2229    0.4616 C   0  0  0  0  0  0  0  0  0  0  0  0
   -4.1652   -1.3519   -0.4675 C   0  0  0  0  0  0  0  0  0  0  0  0
   -5.0186   -0.3502   -0.7186 C   0  0  0  0  0  0  0  0  0  0  0  0
   -4.8258    0.9583   -0.0667 C   0  0  0  0  0  0  0  0  0  0  0  0
    3.2301    0.8772   -0.6079 H   0  0  0  0  0  0  0  0  0  0  0  0
    3.4969   -0.8562   -0.7743 H   0  0  0  0  0  0  0  0  0  0  0  0
    1.9241    0.4806    1.4763 H   0  0  0  0  0  0  0  0  0  0  0  0
    2.1862   -1.2523    1.3044 H   0  0  0  0  0  0  0  0  0  0  0  0
    4.4242    0.8272    1.6070 H   0  0  0  0  0  0  0  0  0  0  0  0
    4.7260   -0.8884    1.4032 H   0  0  0  0  0  0  0  0  0  0  0  0
    0.9968   -1.1835   -0.9178 H   0  0  0  0  0  0  0  0  0  0  0  0
    0.6878    0.5338   -0.6777 H   0  0  0  0  0  0  0  0  0  0  0  0
    6.7111    0.4721    0.8869 H   0  0  0  0  0  0  0  0  0  0  0  0
   -0.6152    0.0018    1.3962 H   0  0  0  0  0  0  0  0  0  0  0  0
   -0.3030   -1.7142    1.1498 H   0  0  0  0  0  0  0  0  0  0  0  0
   -1.8169    0.0938   -0.7908 H   0  0  0  0  0  0  0  0  0  0  0  0
   -1.5008   -1.6111   -1.0405 H   0  0  0  0  0  0  0  0  0  0  0  0
    5.5946   -0.8360   -1.6640 H   0  0  0  0  0  0  0  0  0  0  0  0
    7.2905   -0.5890   -1.2451 H   0  0  0  0  0  0  0  0  0  0  0  0
    6.3116   -1.7156   -0.2990 H   0  0  0  0  0  0  0  0  0  0  0  0
    5.1675    1.6418   -1.5007 H   0  0  0  0  0  0  0  0  0  0  0  0
    5.5160    2.5172    0.0038 H   0  0  0  0  0  0  0  0  0  0  0  0
    6.8376    1.9692   -1.0360 H   0  0  0  0  0  0  0  0  0  0  0  0
   -2.8545   -2.2050    0.9349 H   0  0  0  0  0  0  0  0  0  0  0  0
   -3.1786   -0.5513    1.3051 H   0  0  0  0  0  0  0  0  0  0  0  0
   -4.3205   -2.3108   -0.9539 H   0  0  0  0  0  0  0  0  0  0  0  0
   -5.8743   -0.4926   -1.3684 H   0  0  0  0  0  0  0  0  0  0  0  0
   -5.9621    2.4207    0.5319 H   0  0  0  0  0  0  0  0  0  0  0  0
  1 15  1  0  0  0  0
  1 39  1  0  0  0  0
  2 15  2  0  0  0  0
  3  4  1  0  0  0  0
  3  5  1  0  0  0  0
  3 16  1  0  0  0  0
  3 17  1  0  0  0  0
  4  6  1  0  0  0  0
  4 18  1  0  0  0  0
  4 19  1  0  0  0  0
  5  7  1  0  0  0  0
  5 20  1  0  0  0  0
  5 21  1  0  0  0  0
  6  8  1  0  0  0  0
  6 22  1  0  0  0  0
  6 23  1  0  0  0  0
  7 10  1  0  0  0  0
  7 11  1  0  0  0  0
  7 24  1  0  0  0  0
  8  9  1  0  0  0  0
  8 25  1  0  0  0  0
  8 26  1  0  0  0  0
  9 12  1  0  0  0  0
  9 27  1  0  0  0  0
  9 28  1  0  0  0  0
 10 29  1  0  0  0  0
 10 30  1  0  0  0  0
 10 31  1  0  0  0  0
 11 32  1  0  0  0  0
 11 33  1  0  0  0  0
 11 34  1  0  0  0  0
 12 13  1  0  0  0  0
 12 35  1  0  0  0  0
 12 36  1  0  0  0  0
 13 14  2  0  0  0  0
 13 37  1  0  0  0  0
 14 15  1  0  0  0  0
 14 38  1  0  0  0  0
M  END
> <PUBCHEM_COMPOUND_CID>
11469920

> <PUBCHEM_CONFORMER_RMSD>
0.8

> <PUBCHEM_CONFORMER_DIVERSEORDER>
1
36
6
42
14
27
204
80
142
191
173
112
207
18
49
119
10
25
60
52
17
223
15
8
104
202
152
7
16
41
179
209
20
216
53
59
146
29
76
137
22
199
132
38
122
5
129
48
107
95
110
150
31
11
163
58
147
225
83
74
175
178
2
168
102
128
67
88
219
33
170
135
228
50
226
47
43
91
144
136
57
224
105
139
218
210
96
64
133
121
188
185
124
21
90
51
197
183
145
87
4
66
161
19
227
157
63
141
45
217
40
192
32
65
70
73
186
13
187
23
100
109
172
213
159
93
113
106
85
34
214
62
71
130
56
44
193
61
162
215
111
24
155
3
98
37
46
171
103
148
69
165
206
115
79
212
116
166
94
190
28
208
167
127
9
12
123
84
125
101
55
39
108
182
176
140
198
68
203
54
30
149
153
117
180
81
26
138
118
196
160
151
143
169
156
222
82
120
205
77
78
220
35
164
114
158
75
86
131
177
200
92
195
194
211
229
221
184
126
189
134
99
72
89
201
97
174
181
154

> <PUBCHEM_MMFF94_PARTIAL_CHARGES>
9
1 -0.65
12 0.14
13 -0.29
14 -0.14
15 0.71
2 -0.57
37 0.15
38 0.15
39 0.5

> <PUBCHEM_EFFECTIVE_ROTOR_COUNT>
9

> <PUBCHEM_PHARMACOPHORE_FEATURES>
4
1 1 acceptor
1 2 acceptor
3 1 2 15 anion
3 7 10 11 hydrophobe

> <PUBCHEM_HEAVY_ATOM_COUNT>
15

> <PUBCHEM_ATOM_DEF_STEREO_COUNT>
0

> <PUBCHEM_ATOM_UDEF_STEREO_COUNT>
0

> <PUBCHEM_BOND_DEF_STEREO_COUNT>
1

> <PUBCHEM_BOND_UDEF_STEREO_COUNT>
0

> <PUBCHEM_ISOTOPIC_ATOM_COUNT>
0

> <PUBCHEM_COMPONENT_COUNT>
1

> <PUBCHEM_CACTVS_TAUTO_COUNT>
1

> <PUBCHEM_CONFORMER_ID>
00AF046000000001

> <PUBCHEM_MMFF94_ENERGY>
15.9796

> <PUBCHEM_FEATURE_SELFOVERLAP>
20.353

> <PUBCHEM_SHAPE_FINGERPRINT>
10354089 29 16845853494964717412
10730089 173 18408886252088510585
10803635 8 17167866352699845111
10912923 1 17917161523843192402
117890 112 18341896277510468472
11858739 19 17531241786496123470
12091667 2 18409449154702469571
12555020 224 14345798231945772453
12596602 18 17203611492946178577
12670543 26 18040714783849392330
13167372 99 18343867732013869932
13288520 33 8790882991493605307
13533116 47 17060068090198972554
13668630 136 14201399369706634365
13862211 1 5689597182457513726
13955234 65 16558486257358752632
13964095 4 18334010605880718022
1420 363 13984659226787052782
14251752 14 18114181960442053550
14251764 18 17704071781345483379
14573314 32 18186235147716857494
15048467 5 18272090499970346200
15183329 4 18260826038236366954
15501527 16 18410291424144087763
15716309 27 11815896751697729441
15778101 99 18335419097782666505
17834072 33 18334296431606434958
17834072 8 17603587425976904674
17834076 25 18202004321928592866
18222031 100 13912323482488681650
19489759 90 18334014986510048043
20281389 69 17775291572670325204
20526848 3 18339922718769400553
20621476 30 6483346755073182525
20621476 66 18337387240560496649
20621476 8 18202004373810987894
20645477 56 18335422379085127955
20645477 70 16805312332406579846
20767249 213 18343865528589885841
220451 1 16845574210437529234
22061861 79 16805317808325994348
22224240 67 15769774659195052489
23081809 10 18130795529640586338
23402539 116 18333736801182809183
23402655 69 18410859845627797002
23536379 177 18409730664524026858
23559900 14 17386016034992157411
29717793 49 14129054807803097648
300161 21 17704080581316832554
3014965 18 18041276664762509606
42788 4 18412546487980196842
441001 317 18409449185167667185
531348 171 17603585274478247839
542803 24 18131072623692366370
7062679 6 18341893008645100645
7495541 125 10807930466635886126

> <PUBCHEM_SHAPE_MULTIPOLES>
296.95
18.62
1.48
0.87
8.33
0.49
0
5.8
-3.16
-1.14
-0.1
0.46
-0.08
-0.41

> <PUBCHEM_SHAPE_SELFOVERLAP>
550.177

> <PUBCHEM_SHAPE_VOLUME>
186.6

> <PUBCHEM_COORDINATE_TYPE>
2
5
10

$$$$

