5280581
  -OEChem-07051212483D

 56 55  0     0  0  0  0  0  0999 V2000
   -6.5426    0.6405    1.3325 O   0  0  0  0  0  0  0  0  0  0  0  0
   -5.6892   -0.3195   -0.5483 O   0  0  0  0  0  0  0  0  0  0  0  0
   -0.8584    1.5650   -0.9903 C   0  0  0  0  0  0  0  0  0  0  0  0
   -1.9543    1.8038    0.0509 C   0  0  0  0  0  0  0  0  0  0  0  0
    0.4405    2.3214   -0.6932 C   0  0  0  0  0  0  0  0  0  0  0  0
   -3.2165    1.0014   -0.2823 C   0  0  0  0  0  0  0  0  0  0  0  0
    1.5631    2.0243   -1.6949 C   0  0  0  0  0  0  0  0  0  0  0  0
   -4.3188    1.1906    0.7556 C   0  0  0  0  0  0  0  0  0  0  0  0
    0.2335   -3.5152    0.1157 C   0  0  0  0  0  0  0  0  0  0  0  0
    0.8458   -2.7483   -1.0627 C   0  0  0  0  0  0  0  0  0  0  0  0
    0.7577   -3.0415    1.4772 C   0  0  0  0  0  0  0  0  0  0  0  0
    0.2825   -3.1741   -2.4208 C   0  0  0  0  0  0  0  0  0  0  0  0
    2.8720    2.7349   -1.4674 C   0  0  0  0  0  0  0  0  0  0  0  0
    3.9239    2.2876   -0.7648 C   0  0  0  0  0  0  0  0  0  0  0  0
    0.4446   -1.5983    1.7452 C   0  0  0  0  0  0  0  0  0  0  0  0
   -5.5655    0.4162    0.4203 C   0  0  0  0  0  0  0  0  0  0  0  0
    0.8304   -2.3644   -3.5861 C   0  0  0  0  0  0  0  0  0  0  0  0
    3.9648    0.9577   -0.0676 C   0  0  0  0  0  0  0  0  0  0  0  0
    1.3788   -0.6614    1.9670 C   0  0  0  0  0  0  0  0  0  0  0  0
    2.8523   -0.9457    1.9736 C   0  0  0  0  0  0  0  0  0  0  0  0
    4.1255    1.1367    1.4135 C   0  0  0  0  0  0  0  0  0  0  0  0
    3.6299    0.2884    2.3270 C   0  0  0  0  0  0  0  0  0  0  0  0
   -1.2260    1.8602   -1.9808 H   0  0  0  0  0  0  0  0  0  0  0  0
   -0.6410    0.4911   -1.0413 H   0  0  0  0  0  0  0  0  0  0  0  0
   -2.1957    2.8725    0.0933 H   0  0  0  0  0  0  0  0  0  0  0  0
   -1.5863    1.5138    1.0424 H   0  0  0  0  0  0  0  0  0  0  0  0
    0.7841    2.0643    0.3158 H   0  0  0  0  0  0  0  0  0  0  0  0
    0.2361    3.3994   -0.6877 H   0  0  0  0  0  0  0  0  0  0  0  0
   -2.9631   -0.0642   -0.3536 H   0  0  0  0  0  0  0  0  0  0  0  0
   -3.5876    1.2999   -1.2709 H   0  0  0  0  0  0  0  0  0  0  0  0
    1.2155    2.3087   -2.6974 H   0  0  0  0  0  0  0  0  0  0  0  0
    1.7174    0.9414   -1.7593 H   0  0  0  0  0  0  0  0  0  0  0  0
   -3.9637    0.8557    1.7366 H   0  0  0  0  0  0  0  0  0  0  0  0
   -4.5843    2.2519    0.8182 H   0  0  0  0  0  0  0  0  0  0  0  0
   -0.8586   -3.4097    0.0895 H   0  0  0  0  0  0  0  0  0  0  0  0
    0.4497   -4.5846    0.0045 H   0  0  0  0  0  0  0  0  0  0  0  0
    1.9336   -2.8904   -1.0612 H   0  0  0  0  0  0  0  0  0  0  0  0
    0.6682   -1.6736   -0.9427 H   0  0  0  0  0  0  0  0  0  0  0  0
    0.2790   -3.6409    2.2614 H   0  0  0  0  0  0  0  0  0  0  0  0
    1.8276   -3.2639    1.5382 H   0  0  0  0  0  0  0  0  0  0  0  0
    0.5030   -4.2350   -2.5883 H   0  0  0  0  0  0  0  0  0  0  0  0
   -0.8094   -3.0742   -2.4081 H   0  0  0  0  0  0  0  0  0  0  0  0
    2.9535    3.7227   -1.9172 H   0  0  0  0  0  0  0  0  0  0  0  0
   -0.6026   -1.3072    1.7635 H   0  0  0  0  0  0  0  0  0  0  0  0
    4.8061    2.9199   -0.6942 H   0  0  0  0  0  0  0  0  0  0  0  0
    1.9183   -2.4651   -3.6530 H   0  0  0  0  0  0  0  0  0  0  0  0
    0.3961   -2.7116   -4.5287 H   0  0  0  0  0  0  0  0  0  0  0  0
    0.5906   -1.3027   -3.4699 H   0  0  0  0  0  0  0  0  0  0  0  0
    4.8413    0.4172   -0.4459 H   0  0  0  0  0  0  0  0  0  0  0  0
    3.0932    0.3493   -0.3108 H   0  0  0  0  0  0  0  0  0  0  0  0
    1.0377    0.3543    2.1535 H   0  0  0  0  0  0  0  0  0  0  0  0
    3.1760   -1.3651    1.0151 H   0  0  0  0  0  0  0  0  0  0  0  0
    3.0813   -1.6983    2.7387 H   0  0  0  0  0  0  0  0  0  0  0  0
    4.7079    1.9834    1.7703 H   0  0  0  0  0  0  0  0  0  0  0  0
    3.7967    0.4953    3.3809 H   0  0  0  0  0  0  0  0  0  0  0  0
   -7.3608    0.1414    1.1233 H   0  0  0  0  0  0  0  0  0  0  0  0
  1 16  1  0  0  0  0
  1 56  1  0  0  0  0
  2 16  2  0  0  0  0
  3  4  1  0  0  0  0
  3  5  1  0  0  0  0
  3 23  1  0  0  0  0
  3 24  1  0  0  0  0
  4  6  1  0  0  0  0
  4 25  1  0  0  0  0
  4 26  1  0  0  0  0
  5  7  1  0  0  0  0
  5 27  1  0  0  0  0
  5 28  1  0  0  0  0
  6  8  1  0  0  0  0
  6 29  1  0  0  0  0
  6 30  1  0  0  0  0
  7 13  1  0  0  0  0
  7 31  1  0  0  0  0
  7 32  1  0  0  0  0
  8 16  1  0  0  0  0
  8 33  1  0  0  0  0
  8 34  1  0  0  0  0
  9 10  1  0  0  0  0
  9 11  1  0  0  0  0
  9 35  1  0  0  0  0
  9 36  1  0  0  0  0
 10 12  1  0  0  0  0
 10 37  1  0  0  0  0
 10 38  1  0  0  0  0
 11 15  1  0  0  0  0
 11 39  1  0  0  0  0
 11 40  1  0  0  0  0
 12 17  1  0  0  0  0
 12 41  1  0  0  0  0
 12 42  1  0  0  0  0
 13 14  2  0  0  0  0
 13 43  1  0  0  0  0
 14 18  1  0  0  0  0
 14 45  1  0  0  0  0
 15 19  2  0  0  0  0
 15 44  1  0  0  0  0
 17 46  1  0  0  0  0
 17 47  1  0  0  0  0
 17 48  1  0  0  0  0
 18 21  1  0  0  0  0
 18 49  1  0  0  0  0
 18 50  1  0  0  0  0
 19 20  1  0  0  0  0
 19 51  1  0  0  0  0
 20 22  1  0  0  0  0
 20 52  1  0  0  0  0
 20 53  1  0  0  0  0
 21 22  2  0  0  0  0
 21 54  1  0  0  0  0
 22 55  1  0  0  0  0
M  END
> <PUBCHEM_COMPOUND_CID>
5280581

> <PUBCHEM_CONFORMER_RMSD>
1.4

> <PUBCHEM_CONFORMER_DIVERSEORDER>
2
97
119
79
56
77
88
54
78
41
23
58
143
96
10
126
53
51
69
32
125
70
110
7
44
81
131
101
104
59
148
36
3
5
82
93
102
62
139
145
29
42
22
127
106
43
4
146
9
34
147
67
64
57
48
47
105
50
21
35
14
80
1
73
39
112
124
11
109
74
30
18
92
137
130
27
115
135
46
72
103
129
108
12
33
76
114
142
153
99
37
117
157
52
75
20
121
13
15
113
98
26
111
100
38
155
144
123
128
91
31
87
154
24
134
55
45
141
149
120
68
28
150
116
133
95
132
84
61
122
158
25
156
152
63
19
60
94
86
8
118
107
66
140
89
136
6
16
138
71
49
17
40
85
151
83
65
90

> <PUBCHEM_MMFF94_PARTIAL_CHARGES>
21
1 -0.65
11 0.14
13 -0.29
14 -0.29
15 -0.29
16 0.66
18 0.28
19 -0.29
2 -0.57
20 0.28
21 -0.29
22 -0.29
43 0.15
44 0.15
45 0.15
51 0.15
54 0.15
55 0.15
56 0.5
7 0.14
8 0.06

> <PUBCHEM_EFFECTIVE_ROTOR_COUNT>
15

> <PUBCHEM_PHARMACOPHORE_FEATURES>
5
1 1 acceptor
1 17 hydrophobe
1 2 acceptor
3 1 2 16 anion
5 9 10 11 12 15 hydrophobe

> <PUBCHEM_HEAVY_ATOM_COUNT>
22

> <PUBCHEM_ATOM_DEF_STEREO_COUNT>
0

> <PUBCHEM_ATOM_UDEF_STEREO_COUNT>
0

> <PUBCHEM_BOND_DEF_STEREO_COUNT>
3

> <PUBCHEM_BOND_UDEF_STEREO_COUNT>
0

> <PUBCHEM_ISOTOPIC_ATOM_COUNT>
0

> <PUBCHEM_COMPONENT_COUNT>
1

> <PUBCHEM_CACTVS_TAUTO_COUNT>
1

> <PUBCHEM_CONFORMER_ID>
0050934500000002

> <PUBCHEM_MMFF94_ENERGY>
8.8369

> <PUBCHEM_FEATURE_SELFOVERLAP>
25.428

> <PUBCHEM_SHAPE_FINGERPRINT>
10816530 23 17753042796591493148
11112662 9 18340480089000602852
11118852 30 18410016550194702233
12156800 1 16840743965461942358
12788726 201 17688030812375266214
15003188 3 16244932238122766740
20771845 140 18186237317028802283
21197605 99 17702369655635599075
21304303 282 14756691035925501404
27425 322 17096671832208400673
2803657 2 17484284857567064600
445580 8 18338809943638497223
6287921 2 18191307284992150531
6438718 38 18193561060807127442

> <PUBCHEM_SHAPE_MULTIPOLES>
441.01
10.05
4.43
2.92
19.59
3.4
-1.48
-7.19
4.81
-2.45
-2.53
-2.32
2.29
-1.23

> <PUBCHEM_SHAPE_SELFOVERLAP>
823.131

> <PUBCHEM_SHAPE_VOLUME>
273.6

> <PUBCHEM_COORDINATE_TYPE>
2
5
10

$$$$

