442032
  -OEChem-07051212563D

 95101  0     1  0  0  0  0  0999 V2000
    1.1387    1.5058   -1.6222 O   0  0  0  0  0  0  0  0  0  0  0  0
    1.0364   -0.3607    0.9776 O   0  0  0  0  0  0  0  0  0  0  0  0
    1.0275   -1.7065   -0.9711 O   0  0  0  0  0  0  0  0  0  0  0  0
    0.2892   -2.6136    0.9782 O   0  0  0  0  0  0  0  0  0  0  0  0
   -3.1038   -1.4624    0.2563 O   0  0  0  0  0  0  0  0  0  0  0  0
   -2.3446    2.2086    0.0889 O   0  0  0  0  0  0  0  0  0  0  0  0
   -1.5082    4.0864   -1.6482 O   0  0  0  0  0  0  0  0  0  0  0  0
   -1.0708    2.7105   -4.1256 O   0  0  0  0  0  0  0  0  0  0  0  0
   -1.8411    4.8444    1.1826 O   0  0  0  0  0  0  0  0  0  0  0  0
   -4.4095   -1.6927    2.1382 O   0  0  0  0  0  0  0  0  0  0  0  0
   -0.6588   -0.0514   -0.7895 C   0  0  1  0  0  0  0  0  0  0  0  0
   -0.2636    0.2447    0.7024 C   0  0  2  0  0  0  0  0  0  0  0  0
   -0.0246    0.7391   -1.9084 C   0  0  1  0  0  0  0  0  0  0  0  0
   -0.0283    2.2506   -2.0389 C   0  0  1  0  0  0  0  0  0  0  0  0
   -0.4003   -1.5584   -1.0294 C   0  0  2  0  0  0  0  0  0  0  0  0
   -0.0419    1.7674    0.9694 C   0  0  1  0  0  0  0  0  0  0  0  0
   -1.3767   -0.4284    1.6329 C   0  0  1  0  0  0  0  0  0  0  0  0
   -0.8780   -2.4483    0.1432 C   0  0  2  0  0  0  0  0  0  0  0  0
   -1.0363    2.7266    0.2839 C   0  0  1  0  0  0  0  0  0  0  0  0
   -1.9326   -1.7600    1.0189 C   0  0  2  0  0  0  0  0  0  0  0  0
   -0.4963    3.2715   -1.0410 C   0  0  2  0  0  0  0  0  0  0  0  0
    1.2240   -1.6829    0.4406 C   0  0  2  0  0  0  0  0  0  0  0  0
    0.1598    2.7874   -3.4264 C   0  0  0  0  0  0  0  0  0  0  0  0
    0.0051    2.2554    2.3911 C   0  0  0  0  0  0  0  0  0  0  0  0
   -0.9245   -0.7120    3.0796 C   0  0  0  0  0  0  0  0  0  0  0  0
   -1.2311    3.7964    1.3406 C   0  0  0  0  0  0  0  0  0  0  0  0
   -1.2855   -3.8150   -0.3141 C   0  0  0  0  0  0  0  0  0  0  0  0
    2.6332   -2.1341    0.7689 C   0  0  0  0  0  0  0  0  0  0  0  0
   -0.6380    3.4007    2.6285 C   0  0  0  0  0  0  0  0  0  0  0  0
    3.6807   -1.2228    0.1230 C   0  0  0  0  0  0  0  0  0  0  0  0
   -2.4077   -3.8728   -1.3077 C   0  0  0  0  0  0  0  0  0  0  0  0
   -0.6821   -4.9238    0.1392 C   0  0  0  0  0  0  0  0  0  0  0  0
   -0.7390    4.1961    3.8697 C   0  0  0  0  0  0  0  0  0  0  0  0
   -4.2741   -1.4637    0.9463 C   0  0  0  0  0  0  0  0  0  0  0  0
    5.1240   -1.6465    0.4144 C   0  0  0  0  0  0  0  0  0  0  0  0
   -5.4093   -1.1432    0.0446 C   0  0  0  0  0  0  0  0  0  0  0  0
    6.1651   -0.6891   -0.1716 C   0  0  0  0  0  0  0  0  0  0  0  0
    7.6067   -1.0799    0.1702 C   0  0  0  0  0  0  0  0  0  0  0  0
   -5.1766   -0.8923   -1.3078 C   0  0  0  0  0  0  0  0  0  0  0  0
   -6.7085   -1.0926    0.5497 C   0  0  0  0  0  0  0  0  0  0  0  0
    8.6505   -0.1388   -0.4356 C   0  0  0  0  0  0  0  0  0  0  0  0
   -6.2432   -0.5909   -2.1547 C   0  0  0  0  0  0  0  0  0  0  0  0
   -7.7750   -0.7913   -0.2973 C   0  0  0  0  0  0  0  0  0  0  0  0
   -7.5424   -0.5404   -1.6493 C   0  0  0  0  0  0  0  0  0  0  0  0
   10.0705   -0.5809   -0.0747 C   0  0  0  0  0  0  0  0  0  0  0  0
   11.1137    0.3787   -0.6467 C   0  0  0  0  0  0  0  0  0  0  0  0
   12.5274   -0.0752   -0.3187 C   0  0  0  0  0  0  0  0  0  0  0  0
   -1.7313    0.1231   -0.9201 H   0  0  0  0  0  0  0  0  0  0  0  0
   -0.0552    0.1924   -2.8464 H   0  0  0  0  0  0  0  0  0  0  0  0
   -0.7358   -1.8554   -2.0250 H   0  0  0  0  0  0  0  0  0  0  0  0
    0.9779    2.0101    0.6356 H   0  0  0  0  0  0  0  0  0  0  0  0
   -2.2226    0.2592    1.7129 H   0  0  0  0  0  0  0  0  0  0  0  0
   -2.1943   -2.4574    1.8270 H   0  0  0  0  0  0  0  0  0  0  0  0
    0.3499    3.9413   -0.8362 H   0  0  0  0  0  0  0  0  0  0  0  0
    0.4988    3.8291   -3.4120 H   0  0  0  0  0  0  0  0  0  0  0  0
    0.9016    2.2081   -3.9886 H   0  0  0  0  0  0  0  0  0  0  0  0
    0.6099    1.7649    3.1433 H   0  0  0  0  0  0  0  0  0  0  0  0
    0.0155   -1.2666    3.1312 H   0  0  0  0  0  0  0  0  0  0  0  0
   -0.8117    0.2028    3.6611 H   0  0  0  0  0  0  0  0  0  0  0  0
   -1.6817   -1.2987    3.6127 H   0  0  0  0  0  0  0  0  0  0  0  0
    2.7856   -3.1630    0.4194 H   0  0  0  0  0  0  0  0  0  0  0  0
    2.7770   -2.1441    1.8565 H   0  0  0  0  0  0  0  0  0  0  0  0
   -2.7400    2.0124    0.9538 H   0  0  0  0  0  0  0  0  0  0  0  0
   -1.6940    4.8263   -1.0457 H   0  0  0  0  0  0  0  0  0  0  0  0
    3.5413   -0.1943    0.4783 H   0  0  0  0  0  0  0  0  0  0  0  0
    3.5384   -1.2023   -0.9643 H   0  0  0  0  0  0  0  0  0  0  0  0
   -2.4575   -4.8602   -1.7824 H   0  0  0  0  0  0  0  0  0  0  0  0
   -2.3147   -3.1507   -2.1202 H   0  0  0  0  0  0  0  0  0  0  0  0
   -3.3705   -3.7188   -0.8129 H   0  0  0  0  0  0  0  0  0  0  0  0
   -0.9169    3.0669   -5.0171 H   0  0  0  0  0  0  0  0  0  0  0  0
   -1.0002   -5.9022   -0.2094 H   0  0  0  0  0  0  0  0  0  0  0  0
    0.1265   -4.9233    0.8603 H   0  0  0  0  0  0  0  0  0  0  0  0
   -0.3288    5.1994    3.7182 H   0  0  0  0  0  0  0  0  0  0  0  0
   -0.1878    3.7272    4.6912 H   0  0  0  0  0  0  0  0  0  0  0  0
   -1.7847    4.2929    4.1778 H   0  0  0  0  0  0  0  0  0  0  0  0
    5.2656   -1.7068    1.5005 H   0  0  0  0  0  0  0  0  0  0  0  0
    5.2925   -2.6545    0.0161 H   0  0  0  0  0  0  0  0  0  0  0  0
    6.0481   -0.6551   -1.2618 H   0  0  0  0  0  0  0  0  0  0  0  0
    5.9731    0.3252    0.1995 H   0  0  0  0  0  0  0  0  0  0  0  0
    7.7237   -1.0972    1.2609 H   0  0  0  0  0  0  0  0  0  0  0  0
    7.7928   -2.1013   -0.1845 H   0  0  0  0  0  0  0  0  0  0  0  0
   -4.1821   -0.9200   -1.7439 H   0  0  0  0  0  0  0  0  0  0  0  0
   -6.9109   -1.2847    1.6000 H   0  0  0  0  0  0  0  0  0  0  0  0
    8.5367   -0.1173   -1.5261 H   0  0  0  0  0  0  0  0  0  0  0  0
    8.4766    0.8809   -0.0714 H   0  0  0  0  0  0  0  0  0  0  0  0
   -6.0627   -0.3952   -3.2077 H   0  0  0  0  0  0  0  0  0  0  0  0
   -8.7867   -0.7518    0.0959 H   0  0  0  0  0  0  0  0  0  0  0  0
   -8.3728   -0.3055   -2.3088 H   0  0  0  0  0  0  0  0  0  0  0  0
   10.2484   -1.5920   -0.4608 H   0  0  0  0  0  0  0  0  0  0  0  0
   10.1763   -0.6282    1.0160 H   0  0  0  0  0  0  0  0  0  0  0  0
   11.0020    0.4446   -1.7353 H   0  0  0  0  0  0  0  0  0  0  0  0
   10.9551    1.3853   -0.2426 H   0  0  0  0  0  0  0  0  0  0  0  0
   12.6827   -0.1227    0.7638 H   0  0  0  0  0  0  0  0  0  0  0  0
   13.2570    0.6256   -0.7363 H   0  0  0  0  0  0  0  0  0  0  0  0
   12.7288   -1.0659   -0.7389 H   0  0  0  0  0  0  0  0  0  0  0  0
  1 13  1  0  0  0  0
  1 14  1  0  0  0  0
  2 12  1  0  0  0  0
  2 22  1  0  0  0  0
  3 15  1  0  0  0  0
  3 22  1  0  0  0  0
  4 18  1  0  0  0  0
  4 22  1  0  0  0  0
  5 20  1  0  0  0  0
  5 34  1  0  0  0  0
  6 19  1  0  0  0  0
  6 63  1  0  0  0  0
  7 21  1  0  0  0  0
  7 64  1  0  0  0  0
  8 23  1  0  0  0  0
  8 70  1  0  0  0  0
  9 26  2  0  0  0  0
 10 34  2  0  0  0  0
 11 12  1  0  0  0  0
 11 13  1  0  0  0  0
 11 15  1  0  0  0  0
 11 48  1  0  0  0  0
 12 16  1  0  0  0  0
 12 17  1  0  0  0  0
 13 14  1  0  0  0  0
 13 49  1  0  0  0  0
 14 21  1  0  0  0  0
 14 23  1  0  0  0  0
 15 18  1  0  0  0  0
 15 50  1  0  0  0  0
 16 19  1  0  0  0  0
 16 24  1  0  0  0  0
 16 51  1  0  0  0  0
 17 20  1  0  0  0  0
 17 25  1  0  0  0  0
 17 52  1  0  0  0  0
 18 20  1  0  0  0  0
 18 27  1  0  0  0  0
 19 21  1  0  0  0  0
 19 26  1  0  0  0  0
 20 53  1  0  0  0  0
 21 54  1  0  0  0  0
 22 28  1  0  0  0  0
 23 55  1  0  0  0  0
 23 56  1  0  0  0  0
 24 29  2  0  0  0  0
 24 57  1  0  0  0  0
 25 58  1  0  0  0  0
 25 59  1  0  0  0  0
 25 60  1  0  0  0  0
 26 29  1  0  0  0  0
 27 31  1  0  0  0  0
 27 32  2  0  0  0  0
 28 30  1  0  0  0  0
 28 61  1  0  0  0  0
 28 62  1  0  0  0  0
 29 33  1  0  0  0  0
 30 35  1  0  0  0  0
 30 65  1  0  0  0  0
 30 66  1  0  0  0  0
 31 67  1  0  0  0  0
 31 68  1  0  0  0  0
 31 69  1  0  0  0  0
 32 71  1  0  0  0  0
 32 72  1  0  0  0  0
 33 73  1  0  0  0  0
 33 74  1  0  0  0  0
 33 75  1  0  0  0  0
 34 36  1  0  0  0  0
 35 37  1  0  0  0  0
 35 76  1  0  0  0  0
 35 77  1  0  0  0  0
 36 39  2  0  0  0  0
 36 40  1  0  0  0  0
 37 38  1  0  0  0  0
 37 78  1  0  0  0  0
 37 79  1  0  0  0  0
 38 41  1  0  0  0  0
 38 80  1  0  0  0  0
 38 81  1  0  0  0  0
 39 42  1  0  0  0  0
 39 82  1  0  0  0  0
 40 43  2  0  0  0  0
 40 83  1  0  0  0  0
 41 45  1  0  0  0  0
 41 84  1  0  0  0  0
 41 85  1  0  0  0  0
 42 44  2  0  0  0  0
 42 86  1  0  0  0  0
 43 44  1  0  0  0  0
 43 87  1  0  0  0  0
 44 88  1  0  0  0  0
 45 46  1  0  0  0  0
 45 89  1  0  0  0  0
 45 90  1  0  0  0  0
 46 47  1  0  0  0  0
 46 91  1  0  0  0  0
 46 92  1  0  0  0  0
 47 93  1  0  0  0  0
 47 94  1  0  0  0  0
 47 95  1  0  0  0  0
M  END
> <PUBCHEM_COMPOUND_CID>
442032

> <PUBCHEM_CONFORMER_RMSD>
1.4

> <PUBCHEM_CONFORMER_DIVERSEORDER>
1
8
9
7
10
6
2
5
4
3

> <PUBCHEM_MMFF94_PARTIAL_CHARGES>
48
1 -0.3
10 -0.57
11 0.09
12 0.28
13 -0.05
14 -0.04
15 0.28
16 0.14
18 0.42
19 0.34
2 -0.56
20 0.28
21 0.38
22 0.84
23 0.38
24 -0.29
26 0.49
27 -0.28
29 -0.12
3 -0.56
31 0.14
32 -0.3
33 0.14
34 0.63
36 0.09
39 -0.15
4 -0.56
40 -0.15
42 -0.15
43 -0.15
44 -0.15
49 0.1
5 -0.43
57 0.15
6 -0.68
63 0.4
64 0.4
7 -0.68
70 0.4
71 0.15
72 0.15
8 -0.68
82 0.15
83 0.15
86 0.15
87 0.15
88 0.15
9 -0.57

> <PUBCHEM_EFFECTIVE_ROTOR_COUNT>
14.4

> <PUBCHEM_PHARMACOPHORE_FEATURES>
17
1 1 acceptor
1 10 acceptor
1 2 acceptor
1 3 acceptor
1 4 acceptor
1 47 hydrophobe
1 6 acceptor
1 6 donor
1 7 acceptor
1 7 donor
1 8 acceptor
1 8 donor
1 9 acceptor
10 2 3 4 11 12 15 17 18 20 22 rings
5 16 19 24 26 29 rings
6 36 39 40 42 43 44 rings
7 11 12 13 14 16 19 21 rings

> <PUBCHEM_HEAVY_ATOM_COUNT>
47

> <PUBCHEM_ATOM_DEF_STEREO_COUNT>
11

> <PUBCHEM_ATOM_UDEF_STEREO_COUNT>
1

> <PUBCHEM_BOND_DEF_STEREO_COUNT>
0

> <PUBCHEM_BOND_UDEF_STEREO_COUNT>
0

> <PUBCHEM_ISOTOPIC_ATOM_COUNT>
0

> <PUBCHEM_COMPONENT_COUNT>
1

> <PUBCHEM_CACTVS_TAUTO_COUNT>
3

> <PUBCHEM_CONFORMER_ID>
0006BEB000000001

> <PUBCHEM_MMFF94_ENERGY>
143.9704

> <PUBCHEM_FEATURE_SELFOVERLAP>
86.452

> <PUBCHEM_SHAPE_FINGERPRINT>
10076449 9 18187086152637152714
102385 1 17613434863012698163
10930396 42 18335422353331525182
12156800 1 17680115720784105085
13383668 90 16515688844588218727
13726171 33 15839606949125234055
14068700 675 18410286991369014868
14118638 360 18340485669245132946
15131766 46 15071188822717850146
15439362 3 17972613095731840041
15513586 35 17772162282208101412
17899979 19 18202561761554907518
21927370 108 17631712938222208754
283562 15 18263641934422495619
3552219 110 18410570716961024536
469060 322 17632284727292106400
5252454 2 17764568947421279571

> <PUBCHEM_SHAPE_MULTIPOLES>
908.54
21.62
5.57
2.92
84.67
3.64
-0.54
-10.44
-6.96
-4.59
1.48
-2.71
3.78
-0.68

> <PUBCHEM_SHAPE_SELFOVERLAP>
1965.796

> <PUBCHEM_SHAPE_VOLUME>
489.7

> <PUBCHEM_COORDINATE_TYPE>
2
5
10

$$$$

