7076
  -OEChem-06261201443D

 32 34  0     0  0  0  0  0  0999 V2000
   -1.2078    0.7132    0.0001 C   0  0  0  0  0  0  0  0  0  0  0  0
    1.2082    0.7137    0.0007 C   0  0  0  0  0  0  0  0  0  0  0  0
    0.0003    0.0160    0.0016 C   0  0  0  0  0  0  0  0  0  0  0  0
   -2.4614   -0.0094    0.0001 C   0  0  0  0  0  0  0  0  0  0  0  0
    2.4616   -0.0091    0.0007 C   0  0  0  0  0  0  0  0  0  0  0  0
   -1.2082    2.1081   -0.0023 C   0  0  0  0  0  0  0  0  0  0  0  0
    1.2076    2.1087   -0.0018 C   0  0  0  0  0  0  0  0  0  0  0  0
   -0.0005    2.8058   -0.0032 C   0  0  0  0  0  0  0  0  0  0  0  0
   -3.0671   -0.3550    1.2082 C   0  0  0  0  0  0  0  0  0  0  0  0
   -3.0648   -0.3598   -1.2078 C   0  0  0  0  0  0  0  0  0  0  0  0
    3.0648   -0.3591   -1.2074 C   0  0  0  0  0  0  0  0  0  0  0  0
    3.0673   -0.3553    1.2086 C   0  0  0  0  0  0  0  0  0  0  0  0
   -4.2758   -1.0512    1.2086 C   0  0  0  0  0  0  0  0  0  0  0  0
   -4.2735   -1.0560   -1.2074 C   0  0  0  0  0  0  0  0  0  0  0  0
    4.2733   -1.0555   -1.2077 C   0  0  0  0  0  0  0  0  0  0  0  0
    4.2760   -1.0518    1.2082 C   0  0  0  0  0  0  0  0  0  0  0  0
   -4.8789   -1.4017    0.0008 C   0  0  0  0  0  0  0  0  0  0  0  0
    4.8789   -1.4018    0.0001 C   0  0  0  0  0  0  0  0  0  0  0  0
    0.0005   -1.0730    0.0031 H   0  0  0  0  0  0  0  0  0  0  0  0
   -2.1410    2.6672   -0.0037 H   0  0  0  0  0  0  0  0  0  0  0  0
    2.1401    2.6684   -0.0029 H   0  0  0  0  0  0  0  0  0  0  0  0
   -0.0009    3.8919   -0.0052 H   0  0  0  0  0  0  0  0  0  0  0  0
   -2.6104   -0.0895    2.1588 H   0  0  0  0  0  0  0  0  0  0  0  0
   -2.6062   -0.0982   -2.1586 H   0  0  0  0  0  0  0  0  0  0  0  0
    2.6062   -0.0969   -2.1580 H   0  0  0  0  0  0  0  0  0  0  0  0
    2.6109   -0.0902    2.1594 H   0  0  0  0  0  0  0  0  0  0  0  0
   -4.7473   -1.3204    2.1491 H   0  0  0  0  0  0  0  0  0  0  0  0
   -4.7434   -1.3289   -2.1478 H   0  0  0  0  0  0  0  0  0  0  0  0
    4.7429   -1.3282   -2.1484 H   0  0  0  0  0  0  0  0  0  0  0  0
    4.7478   -1.3215    2.1486 H   0  0  0  0  0  0  0  0  0  0  0  0
   -5.8201   -1.9437    0.0009 H   0  0  0  0  0  0  0  0  0  0  0  0
    5.8200   -1.9440   -0.0002 H   0  0  0  0  0  0  0  0  0  0  0  0
  1  3  2  0  0  0  0
  1  4  1  0  0  0  0
  1  6  1  0  0  0  0
  2  3  1  0  0  0  0
  2  5  1  0  0  0  0
  2  7  2  0  0  0  0
  3 19  1  0  0  0  0
  4  9  2  0  0  0  0
  4 10  1  0  0  0  0
  5 11  2  0  0  0  0
  5 12  1  0  0  0  0
  6  8  2  0  0  0  0
  6 20  1  0  0  0  0
  7  8  1  0  0  0  0
  7 21  1  0  0  0  0
  8 22  1  0  0  0  0
  9 13  1  0  0  0  0
  9 23  1  0  0  0  0
 10 14  2  0  0  0  0
 10 24  1  0  0  0  0
 11 15  1  0  0  0  0
 11 25  1  0  0  0  0
 12 16  2  0  0  0  0
 12 26  1  0  0  0  0
 13 17  2  0  0  0  0
 13 27  1  0  0  0  0
 14 17  1  0  0  0  0
 14 28  1  0  0  0  0
 15 18  2  0  0  0  0
 15 29  1  0  0  0  0
 16 18  1  0  0  0  0
 16 30  1  0  0  0  0
 17 31  1  0  0  0  0
 18 32  1  0  0  0  0
M  END
> <PUBCHEM_COMPOUND_CID>
7076

> <PUBCHEM_CONFORMER_RMSD>
0.6

> <PUBCHEM_CONFORMER_DIVERSEORDER>
1
3
2

> <PUBCHEM_MMFF94_PARTIAL_CHARGES>
28
10 -0.15
11 -0.15
12 -0.15
13 -0.15
14 -0.15
15 -0.15
16 -0.15
17 -0.15
18 -0.15
19 0.15
20 0.15
21 0.15
22 0.15
23 0.15
24 0.15
25 0.15
26 0.15
27 0.15
28 0.15
29 0.15
3 -0.15
30 0.15
31 0.15
32 0.15
6 -0.15
7 -0.15
8 -0.15
9 -0.15

> <PUBCHEM_EFFECTIVE_ROTOR_COUNT>
2

> <PUBCHEM_PHARMACOPHORE_FEATURES>
3
6 1 2 3 6 7 8 rings
6 4 9 10 13 14 17 rings
6 5 11 12 15 16 18 rings

> <PUBCHEM_HEAVY_ATOM_COUNT>
18

> <PUBCHEM_ATOM_DEF_STEREO_COUNT>
0

> <PUBCHEM_ATOM_UDEF_STEREO_COUNT>
0

> <PUBCHEM_BOND_DEF_STEREO_COUNT>
0

> <PUBCHEM_BOND_UDEF_STEREO_COUNT>
0

> <PUBCHEM_ISOTOPIC_ATOM_COUNT>
0

> <PUBCHEM_COMPONENT_COUNT>
1

> <PUBCHEM_CACTVS_TAUTO_COUNT>
1

> <PUBCHEM_CONFORMER_ID>
00001BA400000001

> <PUBCHEM_MMFF94_ENERGY>
63.1975

> <PUBCHEM_FEATURE_SELFOVERLAP>
15.223

> <PUBCHEM_SHAPE_FINGERPRINT>
10042902 136 17677046850370135030
10670039 82 8718278987126570474
11046707 91 18409729590286181225
11370993 144 16298939991126846394
11543360 7 15697995219369851175
11796584 16 17632865230381663115
12363563 72 18411696586523416940
12403259 118 5545189528230553379
12553582 1 18410570690911833926
12633257 1 15213304092888125583
12670546 177 15770058332446341030
12707595 3 18343021064509111033
12714826 92 18272373104739889725
12892183 10 15647051572889987502
13533116 47 18119243962116819779
13544653 18 18411140225155628092
13583140 156 15213307468658294729
13675066 3 17095234835135366011
14123255 52 9223230749621208066
14178342 30 17896308302111210168
1420 369 18334295366001280775
14252887 29 18261115149554049848
14341114 176 15502369024282933290
15188451 53 17168435878702033167
15342816 4 18341891922519203542
15848700 24 18408605850974624902
15885798 251 18408882936494979953
16752209 62 18130235955003549355
17834072 32 8718531823044741794
1798214 55 9295290547046002114
1813 80 18334005090641751588
18222031 100 18260831479532546279
19141452 34 17822009830846636647
193927 3 18410847763552269483
19784866 240 18187368684545213431
19862831 5 17203331125759520496
200 152 17988925595510334618
20028762 73 18042403530816110535
20388580 30 18271803493239555236
20645477 56 8574422141111340426
20645477 70 18268436737316873317
20671657 53 18272090478680431397
20693207 138 17703228387144127475
20871999 31 16200432459925337311
21065199 12 15719387356260049322
21713013 43 17203325568520453123
22950370 63 18410562990035238343
23175994 123 18343865498630655293
23402539 116 18340768238456795790
23402655 69 14045747040448595014
23559900 14 17632301120586390589
25147074 1 18338779174393477600
3004659 81 17561086929714325690
312423 11 18340756105232622676
314173 85 18333449858744418081
314194 84 18409727322680878346
351380 3 18410853261105438918
38570 142 14347219798066092602
4028521 119 12103845661352161687
465052 167 18338224977973425511
5104073 3 18407759243995853297
7064713 232 16877655756217291495
76465 3 18410860961981449862
7808743 9 8357954698740668866
7970288 3 18410855460129259619
8863177 126 17843388597815288507

> <PUBCHEM_SHAPE_MULTIPOLES>
370.43
10.41
2.1
1.26
0
1.73
0
-8.28
0.01
0
0
0
-0.46
0

> <PUBCHEM_SHAPE_SELFOVERLAP>
821.329

> <PUBCHEM_SHAPE_VOLUME>
182.9

> <PUBCHEM_COORDINATE_TYPE>
2
5
10

$$$$

