5462263
  -OEChem-07051212492D

101104  0     1  0  0  0  0  0999 V2000
    6.9303    2.2740    0.0000 P   0  0  3  0  0  0  0  0  0  0  0  0
    9.7164    0.1345    0.0000 O   0  0  0  0  0  0  0  0  0  0  0  0
   10.6870   -1.3600    0.0000 O   0  0  0  0  0  0  0  0  0  0  0  0
    7.2438   -0.6282    0.0000 O   0  0  0  0  0  0  0  0  0  0  0  0
    8.6995   -2.2449    0.0000 O   0  0  0  0  0  0  0  0  0  0  0  0
    7.3370    1.3605    0.0000 O   0  0  0  0  0  0  0  0  0  0  0  0
   12.4190   -2.3600    0.0000 O   0  0  0  0  0  0  0  0  0  0  0  0
   13.2851    0.1400    0.0000 O   0  0  0  0  0  0  0  0  0  0  0  0
   14.1511   -2.3600    0.0000 O   0  0  0  0  0  0  0  0  0  0  0  0
   22.8277   -1.3254    0.0000 O   0  0  0  0  0  0  0  0  0  0  0  0
    6.5236    3.1876    0.0000 O   0  0  0  0  0  0  0  0  0  0  0  0
    6.0168    1.8673    0.0000 O   0  0  0  0  0  0  0  0  0  0  0  0
    7.8438    2.6808    0.0000 O   0  0  0  0  0  0  0  0  0  0  0  0
    4.1278    4.3102    0.0000 O   0  0  0  0  0  0  0  0  0  0  0  0
    5.7101    5.0146    0.0000 O   0  0  0  0  0  0  0  0  0  0  0  0
    2.3644    1.8831    0.0000 O   0  0  0  0  0  0  0  0  0  0  0  0
    3.7657    0.8650    0.0000 O   0  0  0  0  0  0  0  0  0  0  0  0
   21.0793   -2.3600    0.0000 N   0  0  3  0  0  0  0  0  0  0  0  0
   21.0793   -4.3600    0.0000 N   0  0  0  0  0  0  0  0  0  0  0  0
   18.4812   -2.8600    0.0000 N   0  0  0  0  0  0  0  0  0  0  0  0
   22.8393   -4.3947    0.0000 N   0  0  0  0  0  0  0  0  0  0  0  0
   23.7453   -2.8392    0.0000 N   0  0  0  0  0  0  0  0  0  0  0  0
   24.6094   -4.3842    0.0000 N   0  0  0  0  0  0  0  0  0  0  0  0
   20.2133   -2.8600    0.0000 C   0  0  2  0  0  0  0  0  0  0  0  0
   20.2133   -3.8600    0.0000 C   0  0  2  0  0  0  0  0  0  0  0  0
   19.3472   -2.3600    0.0000 C   0  0  1  0  0  0  0  0  0  0  0  0
    8.2383   -0.5236    0.0000 C   0  0  2  0  0  0  0  0  0  0  0  0
   21.9453   -2.8600    0.0000 C   0  0  0  0  0  0  0  0  0  0  0  0
    8.7383    0.3424    0.0000 C   0  0  1  0  0  0  0  0  0  0  0  0
    8.9074   -1.2668    0.0000 C   0  0  2  0  0  0  0  0  0  0  0  0
    9.8210   -0.8600    0.0000 C   0  0  2  0  0  0  0  0  0  0  0  0
   21.9453   -3.8600    0.0000 C   0  0  0  0  0  0  0  0  0  0  0  0
   19.3472   -4.3600    0.0000 C   0  0  0  0  0  0  0  0  0  0  0  0
   19.3472   -1.3600    0.0000 C   0  0  0  0  0  0  0  0  0  0  0  0
   21.0793   -1.3600    0.0000 C   0  0  0  0  0  0  0  0  0  0  0  0
    8.3316    1.2559    0.0000 C   0  0  0  0  0  0  0  0  0  0  0  0
   17.6152   -2.3600    0.0000 C   0  0  0  0  0  0  0  0  0  0  0  0
   22.8393   -2.3254    0.0000 C   0  0  0  0  0  0  0  0  0  0  0  0
   12.4190   -1.3600    0.0000 C   0  0  2  0  0  0  0  0  0  0  0  0
   11.5530   -0.8600    0.0000 C   0  0  0  0  0  0  0  0  0  0  0  0
   13.2851   -0.8600    0.0000 C   0  0  2  0  0  0  0  0  0  0  0  0
   14.1511   -1.3600    0.0000 C   0  0  2  0  0  0  0  0  0  0  0  0
   15.0171   -0.8600    0.0000 C   0  0  0  0  0  0  0  0  0  0  0  0
   23.7453   -3.8808    0.0000 C   0  0  0  0  0  0  0  0  0  0  0  0
   15.8831   -1.3600    0.0000 C   0  0  0  0  0  0  0  0  0  0  0  0
   17.6152   -1.3600    0.0000 C   0  0  0  0  0  0  0  0  0  0  0  0
   16.7492   -2.8600    0.0000 C   0  0  0  0  0  0  0  0  0  0  0  0
   16.7492   -0.8600    0.0000 C   0  0  0  0  0  0  0  0  0  0  0  0
   15.8831   -2.3600    0.0000 C   0  0  0  0  0  0  0  0  0  0  0  0
    5.5290    3.2921    0.0000 C   0  0  1  0  0  0  0  0  0  0  0  0
    4.9413    2.4831    0.0000 C   0  0  0  0  0  0  0  0  0  0  0  0
    5.1223    4.2056    0.0000 C   0  0  0  0  0  0  0  0  0  0  0  0
    3.9467    2.5876    0.0000 C   0  0  0  0  0  0  0  0  0  0  0  0
    3.3590    1.7786    0.0000 C   0  0  0  0  0  0  0  0  0  0  0  0
   20.2133   -2.0100    0.0000 H   0  0  0  0  0  0  0  0  0  0  0  0
   20.2133   -4.4800    0.0000 H   0  0  0  0  0  0  0  0  0  0  0  0
   19.3472   -2.9800    0.0000 H   0  0  0  0  0  0  0  0  0  0  0  0
   21.0793   -4.9800    0.0000 H   0  0  0  0  0  0  0  0  0  0  0  0
    8.0161   -1.1024    0.0000 H   0  0  0  0  0  0  0  0  0  0  0  0
    9.1285    0.8242    0.0000 H   0  0  0  0  0  0  0  0  0  0  0  0
    9.3893   -1.6570    0.0000 H   0  0  0  0  0  0  0  0  0  0  0  0
    9.7885   -1.4792    0.0000 H   0  0  0  0  0  0  0  0  0  0  0  0
   19.0373   -3.8231    0.0000 H   0  0  0  0  0  0  0  0  0  0  0  0
   18.8103   -4.6700    0.0000 H   0  0  0  0  0  0  0  0  0  0  0  0
   19.6572   -4.8970    0.0000 H   0  0  0  0  0  0  0  0  0  0  0  0
   19.9673   -1.3600    0.0000 H   0  0  0  0  0  0  0  0  0  0  0  0
   19.3472   -0.7400    0.0000 H   0  0  0  0  0  0  0  0  0  0  0  0
   18.7272   -1.3600    0.0000 H   0  0  0  0  0  0  0  0  0  0  0  0
   18.4812   -3.4800    0.0000 H   0  0  0  0  0  0  0  0  0  0  0  0
   21.6993   -1.3600    0.0000 H   0  0  0  0  0  0  0  0  0  0  0  0
   21.0793   -0.7400    0.0000 H   0  0  0  0  0  0  0  0  0  0  0  0
   20.4593   -1.3600    0.0000 H   0  0  0  0  0  0  0  0  0  0  0  0
    8.9331    1.4059    0.0000 H   0  0  0  0  0  0  0  0  0  0  0  0
    8.2883    1.8744    0.0000 H   0  0  0  0  0  0  0  0  0  0  0  0
   22.8321   -5.0146    0.0000 H   0  0  0  0  0  0  0  0  0  0  0  0
   12.9560   -1.6700    0.0000 H   0  0  0  0  0  0  0  0  0  0  0  0
   11.9515   -0.3851    0.0000 H   0  0  0  0  0  0  0  0  0  0  0  0
   11.1545   -0.3851    0.0000 H   0  0  0  0  0  0  0  0  0  0  0  0
   12.7481   -0.5500    0.0000 H   0  0  0  0  0  0  0  0  0  0  0  0
   14.6880   -1.6700    0.0000 H   0  0  0  0  0  0  0  0  0  0  0  0
    6.9916   -1.1946    0.0000 H   0  0  0  0  0  0  0  0  0  0  0  0
   15.4157   -0.3851    0.0000 H   0  0  0  0  0  0  0  0  0  0  0  0
   14.6186   -0.3851    0.0000 H   0  0  0  0  0  0  0  0  0  0  0  0
    8.1099   -2.4365    0.0000 H   0  0  0  0  0  0  0  0  0  0  0  0
   18.1521   -1.0500    0.0000 H   0  0  0  0  0  0  0  0  0  0  0  0
   16.7492   -3.4800    0.0000 H   0  0  0  0  0  0  0  0  0  0  0  0
   16.7492   -0.2400    0.0000 H   0  0  0  0  0  0  0  0  0  0  0  0
   15.3462   -2.6700    0.0000 H   0  0  0  0  0  0  0  0  0  0  0  0
   11.8821   -2.6700    0.0000 H   0  0  0  0  0  0  0  0  0  0  0  0
   12.7481    0.4500    0.0000 H   0  0  0  0  0  0  0  0  0  0  0  0
   13.6142   -2.6700    0.0000 H   0  0  0  0  0  0  0  0  0  0  0  0
   25.1476   -4.0763    0.0000 H   0  0  0  0  0  0  0  0  0  0  0  0
   24.6070   -5.0042    0.0000 H   0  0  0  0  0  0  0  0  0  0  0  0
    5.8935    3.7937    0.0000 H   0  0  0  0  0  0  0  0  0  0  0  0
    5.9520    1.2507    0.0000 H   0  0  0  0  0  0  0  0  0  0  0  0
    4.7704    1.8871    0.0000 H   0  0  0  0  0  0  0  0  0  0  0  0
    5.4985    2.2113    0.0000 H   0  0  0  0  0  0  0  0  0  0  0  0
    4.1176    3.1836    0.0000 H   0  0  0  0  0  0  0  0  0  0  0  0
    3.3895    2.8594    0.0000 H   0  0  0  0  0  0  0  0  0  0  0  0
    3.8756    4.8766    0.0000 H   0  0  0  0  0  0  0  0  0  0  0  0
    2.0000    1.3815    0.0000 H   0  0  0  0  0  0  0  0  0  0  0  0
  1  6  1  0  0  0  0
  1 11  1  0  0  0  0
  1 12  1  0  0  0  0
  1 13  2  0  0  0  0
  2 29  1  0  0  0  0
  2 31  1  0  0  0  0
 31  3  1  6  0  0  0
  3 40  1  0  0  0  0
 27  4  1  6  0  0  0
  4 81  1  0  0  0  0
 30  5  1  6  0  0  0
  5 84  1  0  0  0  0
  6 36  1  0  0  0  0
 39  7  1  6  0  0  0
  7 89  1  0  0  0  0
 41  8  1  1  0  0  0
  8 90  1  0  0  0  0
 42  9  1  6  0  0  0
  9 91  1  0  0  0  0
 10 38  2  0  0  0  0
 50 11  1  1  0  0  0
 12 95  1  0  0  0  0
 14 52  1  0  0  0  0
 14100  1  0  0  0  0
 15 52  2  0  0  0  0
 16 54  1  0  0  0  0
 16101  1  0  0  0  0
 17 54  2  0  0  0  0
 18 24  1  0  0  0  0
 18 28  1  0  0  0  0
 18 35  1  0  0  0  0
 19 25  1  0  0  0  0
 19 32  1  0  0  0  0
 19 58  1  0  0  0  0
 26 20  1  6  0  0  0
 20 37  1  0  0  0  0
 20 69  1  0  0  0  0
 21 32  1  0  0  0  0
 21 44  1  0  0  0  0
 21 75  1  0  0  0  0
 22 38  1  0  0  0  0
 22 44  2  0  0  0  0
 23 44  1  0  0  0  0
 23 92  1  0  0  0  0
 23 93  1  0  0  0  0
 24 25  1  0  0  0  0
 24 26  1  0  0  0  0
 24 55  1  1  0  0  0
 25 33  1  1  0  0  0
 25 56  1  0  0  0  0
 26 34  1  0  0  0  0
 26 57  1  0  0  0  0
 27 29  1  0  0  0  0
 27 30  1  0  0  0  0
 27 59  1  0  0  0  0
 28 32  2  0  0  0  0
 28 38  1  0  0  0  0
 29 36  1  1  0  0  0
 29 60  1  0  0  0  0
 30 31  1  0  0  0  0
 30 61  1  0  0  0  0
 31 62  1  0  0  0  0
 33 63  1  0  0  0  0
 33 64  1  0  0  0  0
 33 65  1  0  0  0  0
 34 66  1  0  0  0  0
 34 67  1  0  0  0  0
 34 68  1  0  0  0  0
 35 70  1  0  0  0  0
 35 71  1  0  0  0  0
 35 72  1  0  0  0  0
 36 73  1  0  0  0  0
 36 74  1  0  0  0  0
 37 46  2  0  0  0  0
 37 47  1  0  0  0  0
 39 40  1  0  0  0  0
 39 41  1  0  0  0  0
 39 76  1  0  0  0  0
 40 77  1  0  0  0  0
 40 78  1  0  0  0  0
 41 42  1  0  0  0  0
 41 79  1  0  0  0  0
 42 43  1  0  0  0  0
 42 80  1  0  0  0  0
 43 45  1  0  0  0  0
 43 82  1  0  0  0  0
 43 83  1  0  0  0  0
 45 48  2  0  0  0  0
 45 49  1  0  0  0  0
 46 48  1  0  0  0  0
 46 85  1  0  0  0  0
 47 49  2  0  0  0  0
 47 86  1  0  0  0  0
 48 87  1  0  0  0  0
 49 88  1  0  0  0  0
 50 51  1  0  0  0  0
 50 52  1  0  0  0  0
 50 94  1  0  0  0  0
 51 53  1  0  0  0  0
 51 96  1  0  0  0  0
 51 97  1  0  0  0  0
 53 54  1  0  0  0  0
 53 98  1  0  0  0  0
 53 99  1  0  0  0  0
M  END
> <PUBCHEM_COMPOUND_CID>
5462263

> <PUBCHEM_COMPOUND_CANONICALIZED>
1

> <PUBCHEM_CACTVS_COMPLEXITY>
1450

> <PUBCHEM_CACTVS_HBOND_ACCEPTOR>
19

> <PUBCHEM_CACTVS_HBOND_DONOR>
12

> <PUBCHEM_CACTVS_ROTATABLE_BOND>
19

> <PUBCHEM_CACTVS_SUBSKEYS>
AAADcfB7vgIAAAAAAAAAAAAAAAAAASAAAAAwQIAAAAAAAACBAAAAHgAQCCAADDzxmAczyIPABxCoQiXSfIKCAAEhAgAJiIHIZMiZcDLA0bG2YAht0APPyEfa5vgOCAAAAAAAAAAQAAAAAAAAAAAAAAAAAA==

> <PUBCHEM_IUPAC_OPENEYE_NAME>
(2S)-2-[[(2R,3S,4R,5S)-5-[(2R,3S,4S)-5-[4-[[(1R)-1-[(6S,7S)-2-amino-5,7-dimethyl-4-oxo-1,6,7,8-tetrahydropteridin-6-yl]ethyl]amino]phenyl]-2,3,4-trihydroxy-pentoxy]-3,4-dihydroxy-tetrahydrofuran-2-yl]methoxy-hydroxy-phosphoryl]oxypentanedioic acid

> <PUBCHEM_IUPAC_CAS_NAME>
(2S)-2-[[(2R,3S,4R,5S)-5-[(2R,3S,4S)-5-[4-[[(1R)-1-[(6S,7S)-2-amino-5,7-dimethyl-4-oxo-1,6,7,8-tetrahydropteridin-6-yl]ethyl]amino]phenyl]-2,3,4-trihydroxypentoxy]-3,4-dihydroxy-2-oxolanyl]methoxy-hydroxyphosphoryl]oxypentanedioic acid

> <PUBCHEM_IUPAC_NAME>
(2S)-2-[[(2R,3S,4R,5S)-5-[(2R,3S,4S)-5-[4-[[(1R)-1-[(6S,7S)-2-amino-5,7-dimethyl-4-oxo-1,6,7,8-tetrahydropteridin-6-yl]ethyl]amino]phenyl]-2,3,4-trihydroxypentoxy]-3,4-dihydroxyoxolan-2-yl]methoxy-hydroxyphosphoryl]oxypentanedioic acid

> <PUBCHEM_IUPAC_SYSTEMATIC_NAME>
(2S)-2-[[(2R,3S,4R,5S)-5-[(2R,3S,4S)-5-[4-[[(1R)-1-[(6S,7S)-2-azanyl-5,7-dimethyl-4-oxidanylidene-1,6,7,8-tetrahydropteridin-6-yl]ethyl]amino]phenyl]-2,3,4-tris(oxidanyl)pentoxy]-3,4-bis(oxidanyl)oxolan-2-yl]methoxy-oxidanyl-phosphoryl]oxypentanedioic acid

> <PUBCHEM_IUPAC_TRADITIONAL_NAME>
(2S)-2-[[(2R,3S,4R,5S)-5-[(2R,3S,4S)-5-[4-[[(1R)-1-[(6S,7S)-2-amino-4-keto-5,7-dimethyl-1,6,7,8-tetrahydropteridin-6-yl]ethyl]amino]phenyl]-2,3,4-trihydroxy-pentoxy]-3,4-dihydroxy-tetrahydrofuran-2-yl]methoxy-hydroxy-phosphoryl]oxyglutaric acid

> <PUBCHEM_IUPAC_INCHI>
InChI=1S/C31H47N6O16P/c1-13(22-14(2)34-27-23(37(22)3)28(45)36-31(32)35-27)33-16-6-4-15(5-7-16)10-17(38)24(42)18(39)11-50-30-26(44)25(43)20(52-30)12-51-54(48,49)53-19(29(46)47)8-9-21(40)41/h4-7,13-14,17-20,22,24-26,30,33,38-39,42-44H,8-12H2,1-3H3,(H,40,41)(H,46,47)(H,48,49)(H4,32,34,35,36,45)/t13-,14+,17+,18-,19+,20-,22+,24+,25-,26-,30+/m1/s1

> <PUBCHEM_IUPAC_INCHIKEY>
SWBKYDXMQNCIAW-ZQPYBXQSSA-N

> <PUBCHEM_XLOGP3_AA>
-3.3

> <PUBCHEM_EXACT_MASS>
790.278616

> <PUBCHEM_MOLECULAR_FORMULA>
C31H47N6O16P

> <PUBCHEM_MOLECULAR_WEIGHT>
790.709242

> <PUBCHEM_OPENEYE_CAN_SMILES>
CC1C(N(C2=C(N1)NC(=NC2=O)N)C)C(C)NC3=CC=C(C=C3)CC(C(C(COC4C(C(C(O4)COP(=O)(O)OC(CCC(=O)O)C(=O)O)O)O)O)O)O

> <PUBCHEM_OPENEYE_ISO_SMILES>
C[C@H]1[C@@H](N(C2=C(N1)NC(=NC2=O)N)C)[C@@H](C)NC3=CC=C(C=C3)C[C@@H]([C@@H]([C@@H](CO[C@@H]4[C@@H]([C@@H]([C@H](O4)COP(=O)(O)O[C@@H](CCC(=O)O)C(=O)O)O)O)O)O)O

> <PUBCHEM_CACTVS_TPSA>
345

> <PUBCHEM_MONOISOTOPIC_WEIGHT>
790.278616

> <PUBCHEM_TOTAL_CHARGE>
0

> <PUBCHEM_HEAVY_ATOM_COUNT>
54

> <PUBCHEM_ATOM_DEF_STEREO_COUNT>
11

> <PUBCHEM_ATOM_UDEF_STEREO_COUNT>
0

> <PUBCHEM_BOND_DEF_STEREO_COUNT>
0

> <PUBCHEM_BOND_UDEF_STEREO_COUNT>
0

> <PUBCHEM_ISOTOPIC_ATOM_COUNT>
0

> <PUBCHEM_COMPONENT_COUNT>
1

> <PUBCHEM_CACTVS_TAUTO_COUNT>
17

> <PUBCHEM_COORDINATE_TYPE>
1
5
255

> <PUBCHEM_BONDANNOTATIONS>
50  11  5
26  20  6
21  32  8
21  44  8
22  38  8
22  44  8
24  55  5
25  33  5
28  32  8
28  38  8
29  36  5
31  3  6
37  46  8
37  47  8
27  4  6
45  48  8
45  49  8
46  48  8
47  49  8
30  5  6
39  7  6
41  8  5
42  9  6

$$$$

