5888
  -OEChem-06261200573D

 43 46  0     1  0  0  0  0  0999 V2000
   -5.5981    0.0420   -0.4067 O   0  0  0  0  0  0  0  0  0  0  0  0
    2.8941   -0.7676   -0.2016 C   0  0  2  0  0  0  0  0  0  0  0  0
    2.2790    0.5296    0.3567 C   0  0  2  0  0  0  0  0  0  0  0  0
    0.8121    0.6853   -0.0440 C   0  0  1  0  0  0  0  0  0  0  0  0
    0.0029   -0.5047    0.5552 C   0  0  2  0  0  0  0  0  0  0  0  0
    2.1427   -1.9538    0.4114 C   0  0  0  0  0  0  0  0  0  0  0  0
    4.3458   -0.6013    0.2709 C   0  0  0  0  0  0  0  0  0  0  0  0
    3.2817    1.6030   -0.0483 C   0  0  0  0  0  0  0  0  0  0  0  0
    0.6265   -1.8676    0.1501 C   0  0  0  0  0  0  0  0  0  0  0  0
    4.6432    0.8970    0.0728 C   0  0  0  0  0  0  0  0  0  0  0  0
    0.2035    1.9993    0.4489 C   0  0  0  0  0  0  0  0  0  0  0  0
    2.8853   -0.8848   -1.7448 C   0  0  0  0  0  0  0  0  0  0  0  0
   -1.4883   -0.3635    0.2621 C   0  0  0  0  0  0  0  0  0  0  0  0
   -1.2099    2.1547   -0.1045 C   0  0  0  0  0  0  0  0  0  0  0  0
   -2.0497    0.9046   -0.0050 C   0  0  0  0  0  0  0  0  0  0  0  0
   -2.3526   -1.4701    0.3374 C   0  0  0  0  0  0  0  0  0  0  0  0
   -3.4310    1.0240   -0.2396 C   0  0  0  0  0  0  0  0  0  0  0  0
   -3.7242   -1.3359    0.1111 C   0  0  0  0  0  0  0  0  0  0  0  0
   -4.2631   -0.0900   -0.1822 C   0  0  0  0  0  0  0  0  0  0  0  0
    2.3088    0.4860    1.4584 H   0  0  0  0  0  0  0  0  0  0  0  0
    0.7285    0.6727   -1.1386 H   0  0  0  0  0  0  0  0  0  0  0  0
    0.0836   -0.4426    1.6517 H   0  0  0  0  0  0  0  0  0  0  0  0
    2.3054   -1.9791    1.4969 H   0  0  0  0  0  0  0  0  0  0  0  0
    2.5304   -2.9020    0.0203 H   0  0  0  0  0  0  0  0  0  0  0  0
    5.0549   -1.2318   -0.2755 H   0  0  0  0  0  0  0  0  0  0  0  0
    4.4404   -0.8499    1.3354 H   0  0  0  0  0  0  0  0  0  0  0  0
    3.2313    2.4807    0.6040 H   0  0  0  0  0  0  0  0  0  0  0  0
    3.1149    1.9446   -1.0758 H   0  0  0  0  0  0  0  0  0  0  0  0
    0.4172   -2.0711   -0.9070 H   0  0  0  0  0  0  0  0  0  0  0  0
    0.1577   -2.6814    0.7154 H   0  0  0  0  0  0  0  0  0  0  0  0
    5.2362    1.0636   -0.8332 H   0  0  0  0  0  0  0  0  0  0  0  0
    5.2198    1.2869    0.9184 H   0  0  0  0  0  0  0  0  0  0  0  0
    0.8035    2.8593    0.1313 H   0  0  0  0  0  0  0  0  0  0  0  0
    0.1792    2.0146    1.5462 H   0  0  0  0  0  0  0  0  0  0  0  0
    3.3854   -1.8095   -2.0566 H   0  0  0  0  0  0  0  0  0  0  0  0
    1.8753   -0.9104   -2.1623 H   0  0  0  0  0  0  0  0  0  0  0  0
    3.4120   -0.0586   -2.2325 H   0  0  0  0  0  0  0  0  0  0  0  0
   -1.1495    2.4351   -1.1640 H   0  0  0  0  0  0  0  0  0  0  0  0
   -1.7043    2.9777    0.4256 H   0  0  0  0  0  0  0  0  0  0  0  0
   -1.9788   -2.4600    0.5812 H   0  0  0  0  0  0  0  0  0  0  0  0
   -3.8518    2.0016   -0.4668 H   0  0  0  0  0  0  0  0  0  0  0  0
   -4.3652   -2.2115    0.1702 H   0  0  0  0  0  0  0  0  0  0  0  0
   -5.7962    0.9756   -0.5940 H   0  0  0  0  0  0  0  0  0  0  0  0
  1 19  1  0  0  0  0
  1 43  1  0  0  0  0
  2  3  1  0  0  0  0
  2  6  1  0  0  0  0
  2  7  1  0  0  0  0
  2 12  1  0  0  0  0
  3  4  1  0  0  0  0
  3  8  1  0  0  0  0
  3 20  1  0  0  0  0
  4  5  1  0  0  0  0
  4 11  1  0  0  0  0
  4 21  1  0  0  0  0
  5  9  1  0  0  0  0
  5 13  1  0  0  0  0
  5 22  1  0  0  0  0
  6  9  1  0  0  0  0
  6 23  1  0  0  0  0
  6 24  1  0  0  0  0
  7 10  1  0  0  0  0
  7 25  1  0  0  0  0
  7 26  1  0  0  0  0
  8 10  1  0  0  0  0
  8 27  1  0  0  0  0
  8 28  1  0  0  0  0
  9 29  1  0  0  0  0
  9 30  1  0  0  0  0
 10 31  1  0  0  0  0
 10 32  1  0  0  0  0
 11 14  1  0  0  0  0
 11 33  1  0  0  0  0
 11 34  1  0  0  0  0
 12 35  1  0  0  0  0
 12 36  1  0  0  0  0
 12 37  1  0  0  0  0
 13 15  2  0  0  0  0
 13 16  1  0  0  0  0
 14 15  1  0  0  0  0
 14 38  1  0  0  0  0
 14 39  1  0  0  0  0
 15 17  1  0  0  0  0
 16 18  2  0  0  0  0
 16 40  1  0  0  0  0
 17 19  2  0  0  0  0
 17 41  1  0  0  0  0
 18 19  1  0  0  0  0
 18 42  1  0  0  0  0
M  END
> <PUBCHEM_COMPOUND_CID>
5888

> <PUBCHEM_CONFORMER_RMSD>
0.6

> <PUBCHEM_CONFORMER_DIVERSEORDER>
1

> <PUBCHEM_MMFF94_PARTIAL_CHARGES>
13
1 -0.53
13 -0.14
14 0.14
15 -0.14
16 -0.15
17 -0.15
18 -0.15
19 0.08
40 0.15
41 0.15
42 0.15
43 0.45
5 0.14

> <PUBCHEM_EFFECTIVE_ROTOR_COUNT>
1.4

> <PUBCHEM_PHARMACOPHORE_FEATURES>
5
1 1 donor
5 2 3 7 8 10 rings
6 13 15 16 17 18 19 rings
6 2 3 4 5 6 9 rings
6 4 5 11 13 14 15 rings

> <PUBCHEM_HEAVY_ATOM_COUNT>
19

> <PUBCHEM_ATOM_DEF_STEREO_COUNT>
4

> <PUBCHEM_ATOM_UDEF_STEREO_COUNT>
0

> <PUBCHEM_BOND_DEF_STEREO_COUNT>
0

> <PUBCHEM_BOND_UDEF_STEREO_COUNT>
0

> <PUBCHEM_ISOTOPIC_ATOM_COUNT>
0

> <PUBCHEM_COMPONENT_COUNT>
1

> <PUBCHEM_CACTVS_TAUTO_COUNT>
9

> <PUBCHEM_CONFORMER_ID>
0000170000000001

> <PUBCHEM_MMFF94_ENERGY>
61.7502

> <PUBCHEM_FEATURE_SELFOVERLAP>
25.47

> <PUBCHEM_SHAPE_FINGERPRINT>
10498660 4 18413669131927321884
10608611 8 18412547638593634233
10616163 171 18409448102614589671
10646746 165 18413388756746828644
10967382 1 18411419501040212698
11132069 177 18411703170713647608
11471102 20 18410577275154467672
11578080 2 16771279256186870150
11806522 49 18409450245861084773
12236239 1 17676205775793866507
12403259 226 18268998751268461524
12596599 1 17968359187484367015
128620 24 18333733519901550574
13140716 1 18195801878178583641
13224815 77 18411695495628104154
14115302 16 17988916752030240975
14178342 30 18048888686555552720
14252887 29 17822004324476964918
14787075 74 18263646177871035696
14790565 3 17761209221770588401
15196674 1 18411700975995837291
15375358 24 18412263913080291483
15442244 35 18051977210169910730
15536298 74 18335420170733316608
15635459 17 18187639232418202246
15848702 151 17749661969822920463
16945 1 18194393618420886824
17492 89 18268713981335053538
18186145 218 18410848906171663444
19141452 34 18114179701505657303
192875 21 16988838397724377564
200 152 18040437685396688753
20279233 1 18413102861927153490
20510252 161 18261109733236695641
20645477 70 18187645829403611918
21029758 11 18335141977507622937
21267235 1 18411130351157689939
21421861 104 17986960849714727906
21501502 16 18194964264702495120
21618674 68 18261106387720584684
221490 88 18196931072251605995
23402539 116 18337399249077721854
23402655 69 18408890667689170989
23557571 272 18260543472105919428
23559900 14 18264774431710093874
2748010 2 18267580204462483737
2871803 45 18411701010524374166
296302 2 18334574616168724464
335352 9 18411983584859738567
34934 24 18410299085965154835
351380 180 18412266125447319826
3545911 37 18342457040792844587
4028521 119 18272375299631461317
4072396 5 18342192071797550058
4214541 1 18411420647944550425
474 4 17417804024537404062
495365 180 17458919119586957696
4990 188 18259700120622030638
5104073 3 18411419539716057217
537710 114 18411134727544735153
543358 83 18336542823729357609
69090 78 18333734602212430966
7364860 26 18190181182958555665
8809292 202 18272649013512857395
9709674 26 18337386136231532094

> <PUBCHEM_SHAPE_MULTIPOLES>
385.14
9.07
2.11
0.85
3.86
0.22
0.26
-0.22
1.01
-0.28
-0.15
-0.46
-0.15
0.32

> <PUBCHEM_SHAPE_SELFOVERLAP>
838.792

> <PUBCHEM_SHAPE_VOLUME>
210.4

> <PUBCHEM_COORDINATE_TYPE>
2
5
10

$$$$

