17395692
  -OEChem-06241222513D

 51 52  0     0  0  0  0  0  0999 V2000
   -0.0388    0.7665   -0.4407 O   0  0  0  0  0  0  0  0  0  0  0  0
   -6.5912   -0.1367    1.0566 O   0  0  0  0  0  0  0  0  0  0  0  0
   -0.4752   -1.3483   -1.2106 O   0  0  0  0  0  0  0  0  0  0  0  0
    1.4641    2.8173    0.0747 O   0  0  0  0  0  0  0  0  0  0  0  0
   -6.3424   -1.4881   -0.7786 O   0  0  0  0  0  0  0  0  0  0  0  0
   -2.7237    1.1156    0.1795 N   0  0  0  0  0  0  0  0  0  0  0  0
    3.4714    1.8515   -0.5805 N   0  0  0  0  0  0  0  0  0  0  0  0
   -3.3544   -0.8975   -0.5145 C   0  0  0  0  0  0  0  0  0  0  0  0
   -4.4947   -0.2073   -0.0341 C   0  0  0  0  0  0  0  0  0  0  0  0
   -2.2734   -0.0560   -0.3707 C   0  0  0  0  0  0  0  0  0  0  0  0
   -4.0758    1.0350    0.3884 C   0  0  0  0  0  0  0  0  0  0  0  0
    4.2478    0.7313   -1.1059 C   0  0  0  0  0  0  0  0  0  0  0  0
    4.6877   -0.2063   -0.0188 C   0  0  0  0  0  0  0  0  0  0  0  0
    5.4420   -1.3423   -0.3126 C   0  0  0  0  0  0  0  0  0  0  0  0
   -3.3308   -2.2682   -1.0673 C   0  0  0  0  0  0  0  0  0  0  0  0
   -0.8703   -0.2965   -0.7183 C   0  0  0  0  0  0  0  0  0  0  0  0
   -4.8213    2.1661    0.9742 C   0  0  0  0  0  0  0  0  0  0  0  0
    2.0900    1.8568   -0.3841 C   0  0  0  0  0  0  0  0  0  0  0  0
    1.3281    0.6009   -0.7514 C   0  0  0  0  0  0  0  0  0  0  0  0
    4.3312    0.0720    1.3009 C   0  0  0  0  0  0  0  0  0  0  0  0
   -5.8515   -0.6735    0.0218 C   0  0  0  0  0  0  0  0  0  0  0  0
    4.2489    3.0347   -0.2333 C   0  0  0  0  0  0  0  0  0  0  0  0
    5.8399   -2.1998    0.7132 C   0  0  0  0  0  0  0  0  0  0  0  0
    5.8348   -1.6618   -1.7177 C   0  0  0  0  0  0  0  0  0  0  0  0
    4.7292   -0.7854    2.3266 C   0  0  0  0  0  0  0  0  0  0  0  0
    5.4834   -1.9213    2.0327 C   0  0  0  0  0  0  0  0  0  0  0  0
   -7.9548   -0.5591    1.1708 C   0  0  0  0  0  0  0  0  0  0  0  0
    5.1163    1.1345   -1.6396 H   0  0  0  0  0  0  0  0  0  0  0  0
    3.6340    0.1842   -1.8273 H   0  0  0  0  0  0  0  0  0  0  0  0
   -2.1451    1.9156    0.3972 H   0  0  0  0  0  0  0  0  0  0  0  0
   -4.2323   -2.8348   -0.8191 H   0  0  0  0  0  0  0  0  0  0  0  0
   -2.4898   -2.8418   -0.6644 H   0  0  0  0  0  0  0  0  0  0  0  0
   -3.2387   -2.2386   -2.1578 H   0  0  0  0  0  0  0  0  0  0  0  0
   -5.1005    1.9490    2.0101 H   0  0  0  0  0  0  0  0  0  0  0  0
   -4.2237    3.0842    0.9770 H   0  0  0  0  0  0  0  0  0  0  0  0
   -5.7319    2.3737    0.4030 H   0  0  0  0  0  0  0  0  0  0  0  0
    1.7300   -0.2463   -0.1880 H   0  0  0  0  0  0  0  0  0  0  0  0
    1.4335    0.4311   -1.8281 H   0  0  0  0  0  0  0  0  0  0  0  0
    3.7468    0.9345    1.6010 H   0  0  0  0  0  0  0  0  0  0  0  0
    5.0643    2.7615    0.4421 H   0  0  0  0  0  0  0  0  0  0  0  0
    3.6332    3.7974    0.2504 H   0  0  0  0  0  0  0  0  0  0  0  0
    4.6675    3.4559   -1.1524 H   0  0  0  0  0  0  0  0  0  0  0  0
    6.4276   -3.0892    0.5021 H   0  0  0  0  0  0  0  0  0  0  0  0
    4.9478   -1.8102   -2.3420 H   0  0  0  0  0  0  0  0  0  0  0  0
    6.4475   -0.8585   -2.1395 H   0  0  0  0  0  0  0  0  0  0  0  0
    6.4267   -2.5821   -1.7741 H   0  0  0  0  0  0  0  0  0  0  0  0
    4.4520   -0.5697    3.3544 H   0  0  0  0  0  0  0  0  0  0  0  0
    5.7929   -2.5889    2.8314 H   0  0  0  0  0  0  0  0  0  0  0  0
   -8.5116   -0.2817    0.2709 H   0  0  0  0  0  0  0  0  0  0  0  0
   -8.0019   -1.6391    1.3382 H   0  0  0  0  0  0  0  0  0  0  0  0
   -8.3977   -0.0494    2.0304 H   0  0  0  0  0  0  0  0  0  0  0  0
  1 16  1  0  0  0  0
  1 19  1  0  0  0  0
  2 21  1  0  0  0  0
  2 27  1  0  0  0  0
  3 16  2  0  0  0  0
  4 18  2  0  0  0  0
  5 21  2  0  0  0  0
  6 10  1  0  0  0  0
  6 11  1  0  0  0  0
  6 30  1  0  0  0  0
  7 12  1  0  0  0  0
  7 18  1  0  0  0  0
  7 22  1  0  0  0  0
  8  9  1  0  0  0  0
  8 10  2  0  0  0  0
  8 15  1  0  0  0  0
  9 11  2  0  0  0  0
  9 21  1  0  0  0  0
 10 16  1  0  0  0  0
 11 17  1  0  0  0  0
 12 13  1  0  0  0  0
 12 28  1  0  0  0  0
 12 29  1  0  0  0  0
 13 14  1  0  0  0  0
 13 20  2  0  0  0  0
 14 23  2  0  0  0  0
 14 24  1  0  0  0  0
 15 31  1  0  0  0  0
 15 32  1  0  0  0  0
 15 33  1  0  0  0  0
 17 34  1  0  0  0  0
 17 35  1  0  0  0  0
 17 36  1  0  0  0  0
 18 19  1  0  0  0  0
 19 37  1  0  0  0  0
 19 38  1  0  0  0  0
 20 25  1  0  0  0  0
 20 39  1  0  0  0  0
 22 40  1  0  0  0  0
 22 41  1  0  0  0  0
 22 42  1  0  0  0  0
 23 26  1  0  0  0  0
 23 43  1  0  0  0  0
 24 44  1  0  0  0  0
 24 45  1  0  0  0  0
 24 46  1  0  0  0  0
 25 26  2  0  0  0  0
 25 47  1  0  0  0  0
 26 48  1  0  0  0  0
 27 49  1  0  0  0  0
 27 50  1  0  0  0  0
 27 51  1  0  0  0  0
M  END
> <PUBCHEM_COMPOUND_CID>
17395692

> <PUBCHEM_CONFORMER_RMSD>
1.4

> <PUBCHEM_CONFORMER_DIVERSEORDER>
2
20
47
3
46
64
53
62
61
69
77
40
6
70
52
68
72
43
45
60
35
74
36
59
13
28
5
27
4
67
24
58
63
71
11
12
9
23
16
76
25
41
31
1
65
38
10
29
57
32
19
14
26
75
66
79
49
21
44
17
42
48
55
54
51
7
37
18
8
50
73
22
30
78
56
39
15
33
34

> <PUBCHEM_MMFF94_PARTIAL_CHARGES>
32
1 -0.43
10 -0.24
11 -0.33
12 0.44
13 -0.14
14 -0.14
15 0.18
16 0.81
17 0.18
18 0.57
19 0.34
2 -0.43
20 -0.15
21 0.81
22 0.3
23 -0.15
24 0.14
25 -0.15
26 -0.15
27 0.28
3 -0.57
30 0.27
39 0.15
4 -0.57
43 0.15
47 0.15
48 0.15
5 -0.57
6 0.03
7 -0.66
8 -0.18
9 -0.09

> <PUBCHEM_EFFECTIVE_ROTOR_COUNT>
9

> <PUBCHEM_PHARMACOPHORE_FEATURES>
7
1 3 acceptor
1 4 acceptor
1 5 acceptor
1 6 cation
1 6 donor
5 6 8 9 10 11 rings
6 13 14 20 23 25 26 rings

> <PUBCHEM_HEAVY_ATOM_COUNT>
27

> <PUBCHEM_ATOM_DEF_STEREO_COUNT>
0

> <PUBCHEM_ATOM_UDEF_STEREO_COUNT>
0

> <PUBCHEM_BOND_DEF_STEREO_COUNT>
0

> <PUBCHEM_BOND_UDEF_STEREO_COUNT>
0

> <PUBCHEM_ISOTOPIC_ATOM_COUNT>
0

> <PUBCHEM_COMPONENT_COUNT>
1

> <PUBCHEM_CACTVS_TAUTO_COUNT>
3

> <PUBCHEM_CONFORMER_ID>
01096FEC00000002

> <PUBCHEM_MMFF94_ENERGY>
61.0913

> <PUBCHEM_FEATURE_SELFOVERLAP>
35.52

> <PUBCHEM_SHAPE_FINGERPRINT>
10319926 262 18040433313056645405
10928967 22 17775017803392867338
11505856 67 14134457645271789200
117089 54 17984140637425369930
11719270 70 18113335323693727855
11991303 11 16268851941538364517
12107183 9 18265613358539099632
12166972 35 18186516600939572824
12422481 6 18187927338898258092
125118 31 5617265810072281963
12616971 3 18334862688579218639
13073987 5 18410011013781930280
13533116 47 18273216370044656408
13782708 43 17917436423488599631
13914758 101 18201729483383230093
14118638 360 18342736291225215060
14251758 9 18187932827971911772
14251764 18 18410291398147716516
14347332 77 18272376398948326125
14347424 109 18409451371121878752
14528608 73 9727629518862637326
15001296 14 18271813358726582754
15183329 4 18408321077589794173
15250474 111 18190754024538112726
15348495 7 17240493476549566394
15352257 5 16630521826219220211
1577012 14 18188206507957604509
17818456 19 18259982708370375928
17857418 61 18412833464409035238
1813 80 17847062199038311044
1979834 28 17749671883066837206
21033648 29 16370732508868935640
21150785 3 13830126166343961259
21421861 104 18341060640606254792
21703447 108 17102858620875988007
21792934 111 17822286925505455161
22061861 79 16845579720337127183
2303208 19 16988848263448742311
23081809 10 18041560235571951709
23522609 53 17914022495651086484
23559900 14 17604133918196072460
3004659 81 18408879634023942684
3411729 13 18265054635904382460
345986 75 18269851950727148088
3680242 22 18261105245259537369
397830 11 4750585742391339727
4073 2 18056472851439068448
465052 167 18272369793657707966
5104073 3 18188487965421876953
513202 73 17489030473800474981
54039377 194 17916589886147358082
8509985 295 18186520982075109668
960060 61 17132112459905942974

> <PUBCHEM_SHAPE_MULTIPOLES>
516.34
20.32
2.68
1.55
17.2
1.33
-0.57
-8.53
-5.78
-2.75
0.11
-1.97
-0.74
-2.01

> <PUBCHEM_SHAPE_SELFOVERLAP>
1087.199

> <PUBCHEM_SHAPE_VOLUME>
292

> <PUBCHEM_COORDINATE_TYPE>
2
5
10

$$$$

