440575
  -OEChem-07051212503D

 18 18  0     1  0  0  0  0  0999 V2000
   -1.2775    1.9079   -0.3524 O   0  0  0  0  0  0  0  0  0  0  0  0
    2.1384    1.1694   -0.0293 O   0  0  0  0  0  0  0  0  0  0  0  0
    2.1418   -1.0689    0.4020 O   0  0  0  0  0  0  0  0  0  0  0  0
   -0.3466   -1.3799   -0.4411 N   0  0  0  0  0  0  0  0  0  0  0  0
   -0.7419    0.8164    0.3881 C   0  0  2  0  0  0  0  0  0  0  0  0
    0.1734   -0.0146   -0.5088 C   0  0  1  0  0  0  0  0  0  0  0  0
   -1.8756   -0.1242    0.7798 C   0  0  0  0  0  0  0  0  0  0  0  0
   -1.7864   -1.2435   -0.2417 C   0  0  0  0  0  0  0  0  0  0  0  0
    1.5743   -0.0626    0.0035 C   0  0  0  0  0  0  0  0  0  0  0  0
   -0.2451    1.2201    1.2771 H   0  0  0  0  0  0  0  0  0  0  0  0
    0.1845    0.3290   -1.5494 H   0  0  0  0  0  0  0  0  0  0  0  0
   -2.8617    0.3499    0.7752 H   0  0  0  0  0  0  0  0  0  0  0  0
   -1.6871   -0.5301    1.7815 H   0  0  0  0  0  0  0  0  0  0  0  0
   -2.2385   -2.1719    0.1193 H   0  0  0  0  0  0  0  0  0  0  0  0
   -2.2751   -0.9638   -1.1820 H   0  0  0  0  0  0  0  0  0  0  0  0
    0.0369   -1.8522    0.3794 H   0  0  0  0  0  0  0  0  0  0  0  0
   -1.8773    2.3952    0.2378 H   0  0  0  0  0  0  0  0  0  0  0  0
    3.0603    1.1594    0.3057 H   0  0  0  0  0  0  0  0  0  0  0  0
  1  5  1  0  0  0  0
  1 17  1  0  0  0  0
  2  9  1  0  0  0  0
  2 18  1  0  0  0  0
  3  9  2  0  0  0  0
  4  6  1  0  0  0  0
  4  8  1  0  0  0  0
  4 16  1  0  0  0  0
  5  6  1  0  0  0  0
  5  7  1  0  0  0  0
  5 10  1  0  0  0  0
  6  9  1  0  0  0  0
  6 11  1  0  0  0  0
  7  8  1  0  0  0  0
  7 12  1  0  0  0  0
  7 13  1  0  0  0  0
  8 14  1  0  0  0  0
  8 15  1  0  0  0  0
M  END
> <PUBCHEM_COMPOUND_CID>
440575

> <PUBCHEM_CONFORMER_RMSD>
0.4

> <PUBCHEM_CONFORMER_DIVERSEORDER>
1
5
2
3
4

> <PUBCHEM_MMFF94_PARTIAL_CHARGES>
11
1 -0.68
16 0.36
17 0.4
18 0.5
2 -0.65
3 -0.57
4 -0.9
5 0.28
6 0.33
8 0.27
9 0.66

> <PUBCHEM_EFFECTIVE_ROTOR_COUNT>
2

> <PUBCHEM_PHARMACOPHORE_FEATURES>
8
1 1 acceptor
1 1 donor
1 2 acceptor
1 3 acceptor
1 4 cation
1 4 donor
3 2 3 9 anion
5 4 5 6 7 8 rings

> <PUBCHEM_HEAVY_ATOM_COUNT>
9

> <PUBCHEM_ATOM_DEF_STEREO_COUNT>
2

> <PUBCHEM_ATOM_UDEF_STEREO_COUNT>
0

> <PUBCHEM_BOND_DEF_STEREO_COUNT>
0

> <PUBCHEM_BOND_UDEF_STEREO_COUNT>
0

> <PUBCHEM_ISOTOPIC_ATOM_COUNT>
0

> <PUBCHEM_COMPONENT_COUNT>
1

> <PUBCHEM_CACTVS_TAUTO_COUNT>
1

> <PUBCHEM_CONFORMER_ID>
0006B8FF00000001

> <PUBCHEM_MMFF94_ENERGY>
10.5553

> <PUBCHEM_FEATURE_SELFOVERLAP>
40.65

> <PUBCHEM_SHAPE_FINGERPRINT>
18185500 45 18121780517328384078
21040471 1 18049155867342966629
21922407 69 16484682607857526053
23552423 10 18343017770490961982
29004967 10 17631732643020355475
369184 2 18341618100588690763
5084963 1 18041281062033203002

> <PUBCHEM_SHAPE_MULTIPOLES>
162.63
2.79
1.59
0.75
0.96
0.33
0.04
-0.21
0.36
-0.31
-0.18
-0.15
-0.01
-0.13

> <PUBCHEM_SHAPE_SELFOVERLAP>
326.384

> <PUBCHEM_SHAPE_VOLUME>
97

> <PUBCHEM_COORDINATE_TYPE>
2
5
10

$$$$

