46173963
  -OEChem-07051213102D

 52 53  0     1  0  0  0  0  0999 V2000
    6.0010   -0.0950    0.0000 O   0  0  0  0  0  0  0  0  0  0  0  0
    4.2690   -0.0950    0.0000 O   0  0  0  0  0  0  0  0  0  0  0  0
    6.3671    2.2710    0.0000 O   0  0  0  0  0  0  0  0  0  0  0  0
    8.5991    0.4050    0.0000 O   0  0  0  0  0  0  0  0  0  0  0  0
    6.0010   -2.0950    0.0000 O   0  0  0  0  0  0  0  0  0  0  0  0
    4.2690   -3.0950    0.0000 O   0  0  0  0  0  0  0  0  0  0  0  0
    2.5369   -2.0950    0.0000 O   0  0  0  0  0  0  0  0  0  0  0  0
    2.5369    0.9050    0.0000 O   0  0  0  0  0  0  0  0  0  0  0  0
    7.7331    1.9050    0.0000 C   0  0  3  0  0  0  0  0  0  0  0  0
    6.8671    1.4050    0.0000 C   0  0  3  0  0  0  0  0  0  0  0  0
    7.7331    2.9050    0.0000 C   0  0  0  0  0  0  0  0  0  0  0  0
    9.4651    2.9050    0.0000 C   0  0  3  0  0  0  0  0  0  0  0  0
    8.5991    3.4050    0.0000 C   0  0  0  0  0  0  0  0  0  0  0  0
    9.4651    1.9050    0.0000 C   0  0  0  0  0  0  0  0  0  0  0  0
    8.5991    1.4050    0.0000 C   0  0  0  0  0  0  0  0  0  0  0  0
    6.0010    0.9050    0.0000 C   0  0  0  0  0  0  0  0  0  0  0  0
    5.1350   -0.5950    0.0000 C   0  0  3  0  0  0  0  0  0  0  0  0
    5.1350   -1.5950    0.0000 C   0  0  3  0  0  0  0  0  0  0  0  0
    4.2690   -2.0950    0.0000 C   0  0  3  0  0  0  0  0  0  0  0  0
    3.4030   -1.5950    0.0000 C   0  0  3  0  0  0  0  0  0  0  0  0
    3.4030   -0.5950    0.0000 C   0  0  3  0  0  0  0  0  0  0  0  0
    7.3671    0.5390    0.0000 C   0  0  0  0  0  0  0  0  0  0  0  0
   10.3312    3.4050    0.0000 C   0  0  0  0  0  0  0  0  0  0  0  0
    2.5369   -0.0950    0.0000 C   0  0  0  0  0  0  0  0  0  0  0  0
    7.7331    1.2850    0.0000 H   0  0  0  0  0  0  0  0  0  0  0  0
    7.5210    3.4876    0.0000 H   0  0  0  0  0  0  0  0  0  0  0  0
    7.1225    2.7973    0.0000 H   0  0  0  0  0  0  0  0  0  0  0  0
   10.0021    2.5950    0.0000 H   0  0  0  0  0  0  0  0  0  0  0  0
    8.9976    3.8800    0.0000 H   0  0  0  0  0  0  0  0  0  0  0  0
    8.2006    3.8800    0.0000 H   0  0  0  0  0  0  0  0  0  0  0  0
    9.6772    1.3224    0.0000 H   0  0  0  0  0  0  0  0  0  0  0  0
   10.0757    2.0127    0.0000 H   0  0  0  0  0  0  0  0  0  0  0  0
    5.7890    1.4876    0.0000 H   0  0  0  0  0  0  0  0  0  0  0  0
    5.3905    0.7973    0.0000 H   0  0  0  0  0  0  0  0  0  0  0  0
    5.1350    0.0250    0.0000 H   0  0  0  0  0  0  0  0  0  0  0  0
    5.1350   -2.2150    0.0000 H   0  0  0  0  0  0  0  0  0  0  0  0
    4.8059   -2.4050    0.0000 H   0  0  0  0  0  0  0  0  0  0  0  0
    3.4030   -2.2150    0.0000 H   0  0  0  0  0  0  0  0  0  0  0  0
    3.4030    0.0250    0.0000 H   0  0  0  0  0  0  0  0  0  0  0  0
    6.8301    0.2290    0.0000 H   0  0  0  0  0  0  0  0  0  0  0  0
    7.6771    0.0020    0.0000 H   0  0  0  0  0  0  0  0  0  0  0  0
    7.9040    0.8490    0.0000 H   0  0  0  0  0  0  0  0  0  0  0  0
   10.6412    2.8681    0.0000 H   0  0  0  0  0  0  0  0  0  0  0  0
   10.8681    3.7150    0.0000 H   0  0  0  0  0  0  0  0  0  0  0  0
   10.0212    3.9419    0.0000 H   0  0  0  0  0  0  0  0  0  0  0  0
    5.7471    2.2710    0.0000 H   0  0  0  0  0  0  0  0  0  0  0  0
    1.9264    0.0127    0.0000 H   0  0  0  0  0  0  0  0  0  0  0  0
    2.3249   -0.6776    0.0000 H   0  0  0  0  0  0  0  0  0  0  0  0
    6.5380   -1.7850    0.0000 H   0  0  0  0  0  0  0  0  0  0  0  0
    3.7320   -3.4050    0.0000 H   0  0  0  0  0  0  0  0  0  0  0  0
    2.0000   -1.7850    0.0000 H   0  0  0  0  0  0  0  0  0  0  0  0
    2.0000    1.2150    0.0000 H   0  0  0  0  0  0  0  0  0  0  0  0
  1 16  1  0  0  0  0
  1 17  1  0  0  0  0
  2 17  1  0  0  0  0
  2 21  1  0  0  0  0
  3 10  1  0  0  0  0
  3 46  1  0  0  0  0
  4 15  2  0  0  0  0
  5 18  1  0  0  0  0
  5 49  1  0  0  0  0
  6 19  1  0  0  0  0
  6 50  1  0  0  0  0
  7 20  1  0  0  0  0
  7 51  1  0  0  0  0
  8 24  1  0  0  0  0
  8 52  1  0  0  0  0
  9 10  1  0  0  0  0
  9 11  1  0  0  0  0
  9 15  1  0  0  0  0
  9 25  1  0  0  0  0
 10 16  1  0  0  0  0
 10 22  1  0  0  0  0
 11 13  1  0  0  0  0
 11 26  1  0  0  0  0
 11 27  1  0  0  0  0
 12 13  1  0  0  0  0
 12 14  1  0  0  0  0
 12 23  1  0  0  0  0
 12 28  1  0  0  0  0
 13 29  1  0  0  0  0
 13 30  1  0  0  0  0
 14 15  1  0  0  0  0
 14 31  1  0  0  0  0
 14 32  1  0  0  0  0
 16 33  1  0  0  0  0
 16 34  1  0  0  0  0
 17 18  1  0  0  0  0
 17 35  1  0  0  0  0
 18 19  1  0  0  0  0
 18 36  1  0  0  0  0
 19 20  1  0  0  0  0
 19 37  1  0  0  0  0
 20 21  1  0  0  0  0
 20 38  1  0  0  0  0
 21 24  1  0  0  0  0
 21 39  1  0  0  0  0
 22 40  1  0  0  0  0
 22 41  1  0  0  0  0
 22 42  1  0  0  0  0
 23 43  1  0  0  0  0
 23 44  1  0  0  0  0
 23 45  1  0  0  0  0
 24 47  1  0  0  0  0
 24 48  1  0  0  0  0
M  END
> <PUBCHEM_COMPOUND_CID>
46173963

> <PUBCHEM_COMPOUND_CANONICALIZED>
1

> <PUBCHEM_CACTVS_COMPLEXITY>
444

> <PUBCHEM_CACTVS_HBOND_ACCEPTOR>
8

> <PUBCHEM_CACTVS_HBOND_DONOR>
5

> <PUBCHEM_CACTVS_ROTATABLE_BOND>
5

> <PUBCHEM_CACTVS_SUBSKEYS>
AAADceB4PAAAAAAAAAAAAAAAAAAAAAAAAAA0QAAAAAAAAAAAAAAAGgAACAAADVSwgAMCCAAABgAIAIAQAAAAAAAAAAAAAAEAAAAREBYAAAAiQAAFIAAHAAHK6PyOgAAAAAAAAACAAAAAAAAAAAAAAAAAAA==

> <PUBCHEM_IUPAC_OPENEYE_NAME>
2-[1-hydroxy-1-methyl-2-[3,4,5-trihydroxy-6-(hydroxymethyl)tetrahydropyran-2-yl]oxy-ethyl]-5-methyl-cyclohexanone

> <PUBCHEM_IUPAC_CAS_NAME>
2-[2-hydroxy-1-[[3,4,5-trihydroxy-6-(hydroxymethyl)-2-oxanyl]oxy]propan-2-yl]-5-methyl-1-cyclohexanone

> <PUBCHEM_IUPAC_NAME>
2-[2-hydroxy-1-[3,4,5-trihydroxy-6-(hydroxymethyl)oxan-2-yl]oxypropan-2-yl]-5-methylcyclohexan-1-one

> <PUBCHEM_IUPAC_SYSTEMATIC_NAME>
2-[1-[6-(hydroxymethyl)-3,4,5-tris(oxidanyl)oxan-2-yl]oxy-2-oxidanyl-propan-2-yl]-5-methyl-cyclohexan-1-one

> <PUBCHEM_IUPAC_TRADITIONAL_NAME>
2-[1-hydroxy-1-methyl-2-(3,4,5-trihydroxy-6-methylol-tetrahydropyran-2-yl)oxy-ethyl]-5-methyl-cyclohexanone

> <PUBCHEM_IUPAC_INCHI>
InChI=1S/C16H28O8/c1-8-3-4-9(10(18)5-8)16(2,22)7-23-15-14(21)13(20)12(19)11(6-17)24-15/h8-9,11-15,17,19-22H,3-7H2,1-2H3

> <PUBCHEM_IUPAC_INCHIKEY>
IRZZAYRPVZPEKL-UHFFFAOYSA-N

> <PUBCHEM_XLOGP3_AA>
-0.8

> <PUBCHEM_EXACT_MASS>
348.178418

> <PUBCHEM_MOLECULAR_FORMULA>
C16H28O8

> <PUBCHEM_MOLECULAR_WEIGHT>
348.38872

> <PUBCHEM_OPENEYE_CAN_SMILES>
CC1CCC(C(=O)C1)C(C)(COC2C(C(C(C(O2)CO)O)O)O)O

> <PUBCHEM_OPENEYE_ISO_SMILES>
CC1CCC(C(=O)C1)C(C)(COC2C(C(C(C(O2)CO)O)O)O)O

> <PUBCHEM_CACTVS_TPSA>
137

> <PUBCHEM_MONOISOTOPIC_WEIGHT>
348.178418

> <PUBCHEM_TOTAL_CHARGE>
0

> <PUBCHEM_HEAVY_ATOM_COUNT>
24

> <PUBCHEM_ATOM_DEF_STEREO_COUNT>
0

> <PUBCHEM_ATOM_UDEF_STEREO_COUNT>
8

> <PUBCHEM_BOND_DEF_STEREO_COUNT>
0

> <PUBCHEM_BOND_UDEF_STEREO_COUNT>
0

> <PUBCHEM_ISOTOPIC_ATOM_COUNT>
0

> <PUBCHEM_COMPONENT_COUNT>
1

> <PUBCHEM_CACTVS_TAUTO_COUNT>
3

> <PUBCHEM_COORDINATE_TYPE>
1
5
255

> <PUBCHEM_BONDANNOTATIONS>
17  1  3
12  23  3
21  24  3
10  3  3
18  5  3
19  6  3
20  7  3
9  15  3

$$$$

