17395580
  -OEChem-06241222513D

 39 41  0     1  0  0  0  0  0999 V2000
   -1.1110    3.1633   -0.3318 S   0  0  0  0  0  0  0  0  0  0  0  0
   -2.7378   -4.3260   -0.4973 F   0  0  0  0  0  0  0  0  0  0  0  0
   -2.1670    1.4672    2.0137 O   0  0  0  0  0  0  0  0  0  0  0  0
    1.1337    1.5829   -0.0282 N   0  0  0  0  0  0  0  0  0  0  0  0
    0.0026    1.1450   -1.8493 N   0  0  0  0  0  0  0  0  0  0  0  0
    1.0951    0.3021   -1.8019 N   0  0  0  0  0  0  0  0  0  0  0  0
    4.1116   -2.0868    0.4125 N   0  0  0  0  0  0  0  0  0  0  0  0
   -2.6287    2.1604   -0.2226 C   0  0  1  0  0  0  0  0  0  0  0  0
    0.0432    1.9045   -0.7780 C   0  0  0  0  0  0  0  0  0  0  0  0
    1.7606    0.5800   -0.7035 C   0  0  0  0  0  0  0  0  0  0  0  0
   -2.4149    1.0814    0.8556 C   0  0  0  0  0  0  0  0  0  0  0  0
   -3.8147    3.0652    0.1029 C   0  0  0  0  0  0  0  0  0  0  0  0
   -2.4988   -0.3271    0.5031 C   0  0  0  0  0  0  0  0  0  0  0  0
    2.9733   -0.0620   -0.2574 C   0  0  0  0  0  0  0  0  0  0  0  0
    1.5518    2.1734    1.2234 C   0  0  0  0  0  0  0  0  0  0  0  0
   -3.3332   -0.7372   -0.5366 C   0  0  0  0  0  0  0  0  0  0  0  0
   -1.7448   -1.2677    1.2048 C   0  0  0  0  0  0  0  0  0  0  0  0
    4.1424    0.6665   -0.0686 C   0  0  0  0  0  0  0  0  0  0  0  0
    3.0099   -1.4239   -0.0052 C   0  0  0  0  0  0  0  0  0  0  0  0
   -3.4136   -2.0881   -0.8746 C   0  0  0  0  0  0  0  0  0  0  0  0
   -1.8252   -2.6185    0.8669 C   0  0  0  0  0  0  0  0  0  0  0  0
   -2.6596   -3.0288   -0.1730 C   0  0  0  0  0  0  0  0  0  0  0  0
    5.2962    0.0199    0.3603 C   0  0  0  0  0  0  0  0  0  0  0  0
    5.2290   -1.3457    0.5849 C   0  0  0  0  0  0  0  0  0  0  0  0
   -2.7802    1.7213   -1.2110 H   0  0  0  0  0  0  0  0  0  0  0  0
   -3.6915    3.5729    1.0664 H   0  0  0  0  0  0  0  0  0  0  0  0
   -3.9653    3.8237   -0.6730 H   0  0  0  0  0  0  0  0  0  0  0  0
   -4.7331    2.4712    0.1697 H   0  0  0  0  0  0  0  0  0  0  0  0
    2.2016    3.0231    1.0004 H   0  0  0  0  0  0  0  0  0  0  0  0
    0.6780    2.5022    1.7899 H   0  0  0  0  0  0  0  0  0  0  0  0
    2.0793    1.4317    1.8276 H   0  0  0  0  0  0  0  0  0  0  0  0
   -3.9611   -0.0404   -1.0833 H   0  0  0  0  0  0  0  0  0  0  0  0
   -1.0849   -0.9652    2.0138 H   0  0  0  0  0  0  0  0  0  0  0  0
    4.1773    1.7362   -0.2592 H   0  0  0  0  0  0  0  0  0  0  0  0
    2.1306   -2.0492   -0.1318 H   0  0  0  0  0  0  0  0  0  0  0  0
   -4.0688   -2.4093   -1.6790 H   0  0  0  0  0  0  0  0  0  0  0  0
   -1.2372   -3.3510    1.4118 H   0  0  0  0  0  0  0  0  0  0  0  0
    6.2196    0.5671    0.5121 H   0  0  0  0  0  0  0  0  0  0  0  0
    6.1015   -1.8970    0.9196 H   0  0  0  0  0  0  0  0  0  0  0  0
  1  8  1  0  0  0  0
  1  9  1  0  0  0  0
  2 22  1  0  0  0  0
  3 11  2  0  0  0  0
  4  9  1  0  0  0  0
  4 10  1  0  0  0  0
  4 15  1  0  0  0  0
  5  6  1  0  0  0  0
  5  9  2  0  0  0  0
  6 10  2  0  0  0  0
  7 19  1  0  0  0  0
  7 24  2  0  0  0  0
  8 11  1  0  0  0  0
  8 12  1  0  0  0  0
  8 25  1  0  0  0  0
 10 14  1  0  0  0  0
 11 13  1  0  0  0  0
 12 26  1  0  0  0  0
 12 27  1  0  0  0  0
 12 28  1  0  0  0  0
 13 16  2  0  0  0  0
 13 17  1  0  0  0  0
 14 18  1  0  0  0  0
 14 19  2  0  0  0  0
 15 29  1  0  0  0  0
 15 30  1  0  0  0  0
 15 31  1  0  0  0  0
 16 20  1  0  0  0  0
 16 32  1  0  0  0  0
 17 21  2  0  0  0  0
 17 33  1  0  0  0  0
 18 23  2  0  0  0  0
 18 34  1  0  0  0  0
 19 35  1  0  0  0  0
 20 22  2  0  0  0  0
 20 36  1  0  0  0  0
 21 22  1  0  0  0  0
 21 37  1  0  0  0  0
 23 24  1  0  0  0  0
 23 38  1  0  0  0  0
 24 39  1  0  0  0  0
M  END
> <PUBCHEM_COMPOUND_CID>
17395580

> <PUBCHEM_CONFORMER_RMSD>
0.8

> <PUBCHEM_CONFORMER_DIVERSEORDER>
1
176
174
257
208
8
18
152
145
186
75
102
239
104
242
267
22
45
27
293
269
94
217
284
26
280
270
197
93
150
65
17
164
205
190
215
192
80
283
251
294
163
182
74
236
300
241
172
81
273
38
156
162
147
271
49
249
40
299
206
66
272
231
214
165
70
25
44
188
256
302
304
108
227
210
173
179
153
255
180
235
91
234
238
7
69
110
178
34
261
264
200
125
244
32
54
303
220
141
61
107
295
88
199
149
224
287
185
259
262
52
99
288
31
41
160
296
175
137
46
258
279
151
64
57
24
289
248
84
142
36
213
266
276
16
140
198
265
53
29
168
240
5
72
157
119
268
191
247
194
166
87
86
12
126
254
282
233
82
103
6
297
122
195
216
167
243
148
225
23
120
277
154
3
116
117
76
146
4
33
134
159
47
85
20
260
161
28
203
37
95
39
131
144
63
114
42
170
286
184
123
130
230
281
2
218
105
143
298
292
68
138
30
13
35
11
78
155
193
139
183
135
229
97
21
189
285
100
136
9
124
10
211
132
252
196
245
58
263
77
129
19
92
223
109
112
237
290
222
106
115
221
55
226
98
171
253
127
89
228
14
59
43
291
128
204
232
111
71
133
158
250
50
101
60
62
56
181
15
48
79
113
207
246
169
275
67
51
278
83
274
90
187
212
202
219
96
121
73
201
118
301
177
209

> <PUBCHEM_MMFF94_PARTIAL_CHARGES>
31
1 -0.29
10 0.13
11 0.42
13 0.09
14 0.05
15 0.26
16 -0.15
17 -0.15
18 -0.15
19 0.16
2 -0.19
20 -0.15
21 -0.15
22 0.19
23 -0.15
24 0.16
3 -0.57
32 0.15
33 0.15
34 0.15
35 0.15
36 0.15
37 0.15
38 0.15
39 0.15
4 0.05
5 -0.34
6 -0.34
7 -0.62
8 0.29
9 0.24

> <PUBCHEM_EFFECTIVE_ROTOR_COUNT>
5

> <PUBCHEM_PHARMACOPHORE_FEATURES>
8
1 12 hydrophobe
1 3 acceptor
1 7 acceptor
3 4 5 9 cation
3 4 6 10 cation
5 4 5 6 9 10 rings
6 13 16 17 20 21 22 rings
6 7 14 18 19 23 24 rings

> <PUBCHEM_HEAVY_ATOM_COUNT>
24

> <PUBCHEM_ATOM_DEF_STEREO_COUNT>
0

> <PUBCHEM_ATOM_UDEF_STEREO_COUNT>
1

> <PUBCHEM_BOND_DEF_STEREO_COUNT>
0

> <PUBCHEM_BOND_UDEF_STEREO_COUNT>
0

> <PUBCHEM_ISOTOPIC_ATOM_COUNT>
0

> <PUBCHEM_COMPONENT_COUNT>
1

> <PUBCHEM_CACTVS_TAUTO_COUNT>
2

> <PUBCHEM_CONFORMER_ID>
01096F7C00000001

> <PUBCHEM_MMFF94_ENERGY>
60.9282

> <PUBCHEM_FEATURE_SELFOVERLAP>
43.097

> <PUBCHEM_SHAPE_FINGERPRINT>
10366900 7 17459196338256534488
107951 10 16843030077869673345
11014199 57 18268703905541983538
11045977 3 18187652452939566384
11370993 70 18123470750352818152
11552529 35 18260267438947699002
11720765 8 17683266672491169263
12156800 1 16595119832574891951
12422481 6 18050250895847767419
12553582 1 18196913518408913847
12633257 1 18040701576482157361
13004483 165 18264497195681436255
13583140 156 17967827054379990352
14081887 123 18410301332586433424
14100547 121 18267027334971989954
14468879 13 14852712795080875595
14844126 61 18413109472018888115
19141452 34 18341331205542886356
20681677 274 18190465952211683256
20775530 9 18125444102984072043
23419403 2 17387152909105196929
23559900 14 18265344910224577921
23728640 28 18341044224655134985
257057 1 18121495761508420653
3178227 256 18267006423683931913
38695281 34 17978794837728854641
463206 1 17836365947585783955
484985 159 18269854136491247614
5265222 85 18054208098019875796
5924683 9 18409173211780383342

> <PUBCHEM_SHAPE_MULTIPOLES>
464.69
9.02
4.25
1.3
11.37
1.87
-0.01
3.19
-1.05
-5.2
0.11
-0.39
-0.28
-0.69

> <PUBCHEM_SHAPE_SELFOVERLAP>
991.36

> <PUBCHEM_SHAPE_VOLUME>
262.6

> <PUBCHEM_COORDINATE_TYPE>
2
5
10

$$$$

