6255
  -OEChem-06261201123D

 45 46  0     1  0  0  0  0  0999 V2000
   -0.1247   -0.3784   -0.3919 O   0  0  0  0  0  0  0  0  0  0  0  0
   -1.6785    0.3057    1.2628 O   0  0  0  0  0  0  0  0  0  0  0  0
    3.1300    1.2964   -0.2652 O   0  0  0  0  0  0  0  0  0  0  0  0
    1.5026   -2.1944    1.1603 O   0  0  0  0  0  0  0  0  0  0  0  0
   -1.3847   -2.8811   -0.5439 O   0  0  0  0  0  0  0  0  0  0  0  0
   -4.1414   -2.1228   -0.9927 O   0  0  0  0  0  0  0  0  0  0  0  0
   -4.4759    0.7282   -1.1004 O   0  0  0  0  0  0  0  0  0  0  0  0
    4.2965   -2.1309    0.2270 O   0  0  0  0  0  0  0  0  0  0  0  0
    5.3002    0.5107    0.0765 O   0  0  0  0  0  0  0  0  0  0  0  0
    1.6821    3.2878   -1.4875 O   0  0  0  0  0  0  0  0  0  0  0  0
   -2.0640    2.9850    1.6168 O   0  0  0  0  0  0  0  0  0  0  0  0
    1.1607   -0.0593    0.1344 C   0  0  1  0  0  0  0  0  0  0  0  0
    2.0246   -1.3204    0.1584 C   0  0  1  0  0  0  0  0  0  0  0  0
   -1.0183   -0.7970    0.6380 C   0  0  1  0  0  0  0  0  0  0  0  0
    1.8068    1.0253   -0.7310 C   0  0  1  0  0  0  0  0  0  0  0  0
   -2.0402   -1.8240    0.1475 C   0  0  1  0  0  0  0  0  0  0  0  0
   -3.0825   -1.1885   -0.7706 C   0  0  2  0  0  0  0  0  0  0  0  0
   -3.6762    0.0647   -0.1243 C   0  0  1  0  0  0  0  0  0  0  0  0
    3.4812   -0.9874    0.4819 C   0  0  2  0  0  0  0  0  0  0  0  0
   -2.5730    1.0012    0.3868 C   0  0  1  0  0  0  0  0  0  0  0  0
    3.9923    0.1670   -0.3801 C   0  0  1  0  0  0  0  0  0  0  0  0
    1.0229    2.3327   -0.6763 C   0  0  0  0  0  0  0  0  0  0  0  0
   -3.1405    2.1795    1.1735 C   0  0  0  0  0  0  0  0  0  0  0  0
    1.0660    0.3323    1.1584 H   0  0  0  0  0  0  0  0  0  0  0  0
    1.9469   -1.8581   -0.7946 H   0  0  0  0  0  0  0  0  0  0  0  0
   -0.4763   -1.2861    1.4483 H   0  0  0  0  0  0  0  0  0  0  0  0
    1.8637    0.7066   -1.7807 H   0  0  0  0  0  0  0  0  0  0  0  0
   -2.5564   -2.2685    1.0074 H   0  0  0  0  0  0  0  0  0  0  0  0
   -2.6501   -0.9634   -1.7534 H   0  0  0  0  0  0  0  0  0  0  0  0
   -4.3347   -0.2255    0.7046 H   0  0  0  0  0  0  0  0  0  0  0  0
   -2.0009    1.4057   -0.4559 H   0  0  0  0  0  0  0  0  0  0  0  0
    3.5753   -0.7572    1.5506 H   0  0  0  0  0  0  0  0  0  0  0  0
    4.0893   -0.1220   -1.4330 H   0  0  0  0  0  0  0  0  0  0  0  0
    0.9730    2.7322    0.3419 H   0  0  0  0  0  0  0  0  0  0  0  0
    0.0086    2.2108   -1.0607 H   0  0  0  0  0  0  0  0  0  0  0  0
   -3.6917    1.8422    2.0574 H   0  0  0  0  0  0  0  0  0  0  0  0
   -3.8036    2.7936    0.5575 H   0  0  0  0  0  0  0  0  0  0  0  0
    2.0726   -2.9820    1.1835 H   0  0  0  0  0  0  0  0  0  0  0  0
   -0.8788   -2.4879   -1.2756 H   0  0  0  0  0  0  0  0  0  0  0  0
   -4.7219   -1.7531   -1.6790 H   0  0  0  0  0  0  0  0  0  0  0  0
   -5.2455    0.1644   -1.2860 H   0  0  0  0  0  0  0  0  0  0  0  0
    5.2143   -1.8873    0.4363 H   0  0  0  0  0  0  0  0  0  0  0  0
    5.3143    0.4499    1.0462 H   0  0  0  0  0  0  0  0  0  0  0  0
    2.5859    3.3916   -1.1441 H   0  0  0  0  0  0  0  0  0  0  0  0
   -1.4758    2.4236    2.1504 H   0  0  0  0  0  0  0  0  0  0  0  0
  1 12  1  0  0  0  0
  1 14  1  0  0  0  0
  2 14  1  0  0  0  0
  2 20  1  0  0  0  0
  3 15  1  0  0  0  0
  3 21  1  0  0  0  0
  4 13  1  0  0  0  0
  4 38  1  0  0  0  0
  5 16  1  0  0  0  0
  5 39  1  0  0  0  0
  6 17  1  0  0  0  0
  6 40  1  0  0  0  0
  7 18  1  0  0  0  0
  7 41  1  0  0  0  0
  8 19  1  0  0  0  0
  8 42  1  0  0  0  0
  9 21  1  0  0  0  0
  9 43  1  0  0  0  0
 10 22  1  0  0  0  0
 10 44  1  0  0  0  0
 11 23  1  0  0  0  0
 11 45  1  0  0  0  0
 12 13  1  0  0  0  0
 12 15  1  0  0  0  0
 12 24  1  0  0  0  0
 13 19  1  0  0  0  0
 13 25  1  0  0  0  0
 14 16  1  0  0  0  0
 14 26  1  0  0  0  0
 15 22  1  0  0  0  0
 15 27  1  0  0  0  0
 16 17  1  0  0  0  0
 16 28  1  0  0  0  0
 17 18  1  0  0  0  0
 17 29  1  0  0  0  0
 18 20  1  0  0  0  0
 18 30  1  0  0  0  0
 19 21  1  0  0  0  0
 19 32  1  0  0  0  0
 20 23  1  0  0  0  0
 20 31  1  0  0  0  0
 21 33  1  0  0  0  0
 22 34  1  0  0  0  0
 22 35  1  0  0  0  0
 23 36  1  0  0  0  0
 23 37  1  0  0  0  0
M  END
> <PUBCHEM_COMPOUND_CID>
6255

> <PUBCHEM_CONFORMER_RMSD>
0.8

> <PUBCHEM_CONFORMER_DIVERSEORDER>
1
60
81
78
33
41
71
93
7
75
29
59
72
69
12
37
58
2
91
67
20
24
47
49
90
65
51
9
89
16
85
55
83
53
42
52
23
25
80
57
6
11
70
18
82
31
19
30
66
87
63
54
32
36
64
34
35
15
68
62
77
45
40
27
28
43
74
88
5
8
44
21
76
86
56
84
46
26
3
94
73
61
22
17
50
38
79
13
48
14
10
39
92
4

> <PUBCHEM_MMFF94_PARTIAL_CHARGES>
31
1 -0.56
10 -0.68
11 -0.68
12 0.28
13 0.28
14 0.56
15 0.28
16 0.28
17 0.28
18 0.28
19 0.28
2 -0.56
20 0.28
21 0.56
22 0.28
23 0.28
3 -0.56
38 0.4
39 0.4
4 -0.68
40 0.4
41 0.4
42 0.4
43 0.4
44 0.4
45 0.4
5 -0.68
6 -0.68
7 -0.68
8 -0.68
9 -0.68

> <PUBCHEM_EFFECTIVE_ROTOR_COUNT>
6.4

> <PUBCHEM_PHARMACOPHORE_FEATURES>
21
1 1 acceptor
1 10 acceptor
1 10 donor
1 11 acceptor
1 11 donor
1 2 acceptor
1 3 acceptor
1 4 acceptor
1 4 donor
1 5 acceptor
1 5 donor
1 6 acceptor
1 6 donor
1 7 acceptor
1 7 donor
1 8 acceptor
1 8 donor
1 9 acceptor
1 9 donor
6 2 14 16 17 18 20 rings
6 3 12 13 15 19 21 rings

> <PUBCHEM_HEAVY_ATOM_COUNT>
23

> <PUBCHEM_ATOM_DEF_STEREO_COUNT>
10

> <PUBCHEM_ATOM_UDEF_STEREO_COUNT>
0

> <PUBCHEM_BOND_DEF_STEREO_COUNT>
0

> <PUBCHEM_BOND_UDEF_STEREO_COUNT>
0

> <PUBCHEM_ISOTOPIC_ATOM_COUNT>
0

> <PUBCHEM_COMPONENT_COUNT>
1

> <PUBCHEM_CACTVS_TAUTO_COUNT>
1

> <PUBCHEM_CONFORMER_ID>
0000186F00000001

> <PUBCHEM_MMFF94_ENERGY>
65.6153

> <PUBCHEM_FEATURE_SELFOVERLAP>
106.682

> <PUBCHEM_SHAPE_FINGERPRINT>
12107183 9 17759238888047579066
12553582 1 18058447784807814802
12788726 201 18041267821329784561
13140716 1 18194953041958277553
13583140 156 17775278405060212235
14790565 3 18128799882156937636
15420108 30 17470449998564528345
15442244 35 18410853304381620344
16752209 62 18041571316313684195
17492 89 18338796715076870262
18335252 114 18200048364522440109
192875 21 18338235938397350236
200 152 18336552629334977079
21634736 98 18267019462433605942
23184049 59 18197767997889186256
23402539 116 18259708887124951079
23557571 272 17095514132505973377
23559900 14 18187092719504978896
23598291 2 18411417345156865330
2748010 2 16177917029846566587
34934 24 18272656766071095226
474 4 18130785633798169760
5104073 3 18412827992805486122
6992083 37 18339916142525318569
7471813 234 18116444643254565245
74978 22 18343016644961591079
7832392 63 18340196479588669568
84936 182 18049156666429085792
9709674 26 18411132502715259390
9981440 41 17477203826063774320

> <PUBCHEM_SHAPE_MULTIPOLES>
408.77
8.59
3.2
1.15
3.26
1.01
0.09
-0.77
-0.78
-0.68
-0.12
-0.65
0.51
-2.01

> <PUBCHEM_SHAPE_SELFOVERLAP>
836.165

> <PUBCHEM_SHAPE_VOLUME>
231.3

> <PUBCHEM_COORDINATE_TYPE>
2
5
10

$$$$

