4226
  -OEChem-06251223583D

 34 36  0     0  0  0  0  0  0999 V2000
    3.2183   -1.4953   -0.1148 O   0  0  0  0  0  0  0  0  0  0  0  0
   -4.4169   -2.0310    0.4467 O   0  0  0  0  0  0  0  0  0  0  0  0
   -4.0706    3.2396    0.8183 O   0  0  0  0  0  0  0  0  0  0  0  0
   -4.2334    2.3774   -1.2793 O   0  0  0  0  0  0  0  0  0  0  0  0
   -3.0416   -2.2624    0.4888 N   0  0  0  0  0  0  0  0  0  0  0  0
    1.2943   -0.3118   -0.0084 C   0  0  0  0  0  0  0  0  0  0  0  0
    2.3873    0.6022    0.0401 C   0  0  0  0  0  0  0  0  0  0  0  0
    1.8589   -1.5800   -0.1029 C   0  0  0  0  0  0  0  0  0  0  0  0
   -0.8765   -1.3746   -0.0531 C   0  0  0  0  0  0  0  0  0  0  0  0
   -0.1085   -0.2045    0.0175 C   0  0  0  0  0  0  0  0  0  0  0  0
    3.5397   -0.1745   -0.0285 C   0  0  0  0  0  0  0  0  0  0  0  0
   -2.3281   -1.2789   -0.0280 C   0  0  0  0  0  0  0  0  0  0  0  0
    1.1216   -2.7608   -0.1743 C   0  0  0  0  0  0  0  0  0  0  0  0
   -0.2697   -2.6291   -0.1470 C   0  0  0  0  0  0  0  0  0  0  0  0
   -3.0244   -0.0250   -0.6058 C   0  0  0  0  0  0  0  0  0  0  0  0
    2.5269    1.9992    0.1344 C   0  0  0  0  0  0  0  0  0  0  0  0
    4.8336    0.3432   -0.0101 C   0  0  0  0  0  0  0  0  0  0  0  0
   -3.2721    1.0224    0.4736 C   0  0  0  0  0  0  0  0  0  0  0  0
    3.8158    2.5488    0.1553 C   0  0  0  0  0  0  0  0  0  0  0  0
    4.9473    1.7333    0.0840 C   0  0  0  0  0  0  0  0  0  0  0  0
   -3.9020    2.2619   -0.1067 C   0  0  0  0  0  0  0  0  0  0  0  0
   -0.5423    0.7841    0.0806 H   0  0  0  0  0  0  0  0  0  0  0  0
    1.5996   -3.7303   -0.2490 H   0  0  0  0  0  0  0  0  0  0  0  0
   -0.8679   -3.5358   -0.2099 H   0  0  0  0  0  0  0  0  0  0  0  0
   -2.3952    0.3914   -1.4026 H   0  0  0  0  0  0  0  0  0  0  0  0
   -3.9586   -0.3117   -1.1024 H   0  0  0  0  0  0  0  0  0  0  0  0
    1.6572    2.6470    0.1905 H   0  0  0  0  0  0  0  0  0  0  0  0
    5.7069   -0.2959   -0.0656 H   0  0  0  0  0  0  0  0  0  0  0  0
   -3.9589    0.6191    1.2264 H   0  0  0  0  0  0  0  0  0  0  0  0
   -2.3530    1.3123    0.9875 H   0  0  0  0  0  0  0  0  0  0  0  0
    3.9353    3.6268    0.2280 H   0  0  0  0  0  0  0  0  0  0  0  0
    5.9351    2.1871    0.1021 H   0  0  0  0  0  0  0  0  0  0  0  0
   -4.7638   -2.8393    0.8603 H   0  0  0  0  0  0  0  0  0  0  0  0
   -4.4843    4.0411    0.4326 H   0  0  0  0  0  0  0  0  0  0  0  0
  1  8  1  0  0  0  0
  1 11  1  0  0  0  0
  2  5  1  0  0  0  0
  2 33  1  0  0  0  0
  3 21  1  0  0  0  0
  3 34  1  0  0  0  0
  4 21  2  0  0  0  0
  5 12  2  0  0  0  0
  6  7  1  0  0  0  0
  6  8  2  0  0  0  0
  6 10  1  0  0  0  0
  7 11  1  0  0  0  0
  7 16  2  0  0  0  0
  8 13  1  0  0  0  0
  9 10  2  0  0  0  0
  9 12  1  0  0  0  0
  9 14  1  0  0  0  0
 10 22  1  0  0  0  0
 11 17  2  0  0  0  0
 12 15  1  0  0  0  0
 13 14  2  0  0  0  0
 13 23  1  0  0  0  0
 14 24  1  0  0  0  0
 15 18  1  0  0  0  0
 15 25  1  0  0  0  0
 15 26  1  0  0  0  0
 16 19  1  0  0  0  0
 16 27  1  0  0  0  0
 17 20  1  0  0  0  0
 17 28  1  0  0  0  0
 18 21  1  0  0  0  0
 18 29  1  0  0  0  0
 18 30  1  0  0  0  0
 19 20  2  0  0  0  0
 19 31  1  0  0  0  0
 20 32  1  0  0  0  0
M  END
> <PUBCHEM_COMPOUND_CID>
4226

> <PUBCHEM_CONFORMER_RMSD>
0.6

> <PUBCHEM_CONFORMER_DIVERSEORDER>
1
36
40
8
6
7
43
22
4
29
16
10
34
13
5
15
12
42
39
11
19
2
24
20
14
26
35
28
3
18
27
33
17
9
37
38
21
32
41
44
23
25
31
30

> <PUBCHEM_MMFF94_PARTIAL_CHARGES>
28
1 -0.28
10 -0.15
11 0.14
12 0.3
13 -0.15
14 -0.15
15 0.06
16 -0.15
17 -0.15
18 0.06
19 -0.15
2 -0.34
20 -0.15
21 0.66
22 0.15
23 0.15
24 0.15
27 0.15
28 0.15
3 -0.65
31 0.15
32 0.15
33 0.4
34 0.5
4 -0.57
5 -0.51
8 0.14
9 0.09

> <PUBCHEM_EFFECTIVE_ROTOR_COUNT>
4

> <PUBCHEM_PHARMACOPHORE_FEATURES>
9
1 1 acceptor
1 2 anion
1 3 acceptor
1 4 acceptor
1 5 acceptor
3 3 4 21 anion
5 1 6 7 8 11 rings
6 6 8 9 10 13 14 rings
6 7 11 16 17 19 20 rings

> <PUBCHEM_HEAVY_ATOM_COUNT>
21

> <PUBCHEM_ATOM_DEF_STEREO_COUNT>
0

> <PUBCHEM_ATOM_UDEF_STEREO_COUNT>
0

> <PUBCHEM_BOND_DEF_STEREO_COUNT>
0

> <PUBCHEM_BOND_UDEF_STEREO_COUNT>
1

> <PUBCHEM_ISOTOPIC_ATOM_COUNT>
0

> <PUBCHEM_COMPONENT_COUNT>
1

> <PUBCHEM_CACTVS_TAUTO_COUNT>
2

> <PUBCHEM_CONFORMER_ID>
0000108200000001

> <PUBCHEM_MMFF94_ENERGY>
49.4917

> <PUBCHEM_FEATURE_SELFOVERLAP>
45.928

> <PUBCHEM_SHAPE_FINGERPRINT>
10498660 4 18410011052420506325
10608611 8 18411138021763500239
10646746 165 18410572873134840164
10670039 82 18199173011095005164
12107183 9 18126012799993645410
12173636 292 18193279598441376318
12390115 104 18336530660355718300
12403259 415 18188209793438865408
12403260 363 18339372859396035118
12633257 1 18128831917431040722
12769317 202 18264499536201430480
13140716 1 18341335594920218290
13464514 151 18337106868999724470
13965767 371 17845377819732378781
14466204 15 18410302393607002920
14508225 48 17107640353922323078
14790565 3 18269548344037499668
14848178 96 18337398235075530408
15196674 1 18410573977015216682
1601671 61 18341330067930337124
16760501 71 18337380647970443777
17834072 32 18410009983152952209
18186145 218 18187632605510556442
20510252 161 18336261228720455043
21279426 13 18335412505092302502
21421861 104 17773609398122884002
21864079 5 18409735053505713310
221357 26 18188489068917248221
22182937 141 18410289237995489841
23227448 37 18410293635999712125
23558518 356 18273208669210739611
23559900 14 18189335830990564802
23845131 108 18128530660784407443
283562 15 18340772529614986539
335352 9 18338236080901365614
350125 39 18338511937554385609
474 4 18265338476716547917
5104073 3 18343304781749063698
633830 44 18334579083209233910
9981440 41 18412270514635241915

> <PUBCHEM_SHAPE_MULTIPOLES>
403.71
10.14
3.69
0.73
0.3
0.83
0.06
7.11
-0.19
2.59
-0.14
0.47
0.2
0.51

> <PUBCHEM_SHAPE_SELFOVERLAP>
888.856

> <PUBCHEM_SHAPE_VOLUME>
219.6

> <PUBCHEM_COORDINATE_TYPE>
2
5
10

$$$$

