439840
  -OEChem-07051213153D

 27 26  0     1  0  0  0  0  0999 V2000
    2.9655    0.4802    0.2367 P   0  0  0  0  0  0  0  0  0  0  0  0
   -2.4387   -1.7372    0.6708 O   0  0  0  0  0  0  0  0  0  0  0  0
   -0.0565   -2.5855   -0.4911 O   0  0  0  0  0  0  0  0  0  0  0  0
   -2.8256    0.8135    1.5196 O   0  0  0  0  0  0  0  0  0  0  0  0
    1.5993   -0.3868    0.2655 O   0  0  0  0  0  0  0  0  0  0  0  0
   -3.3356    2.1247   -0.8991 O   0  0  0  0  0  0  0  0  0  0  0  0
    2.4696    1.9651   -0.1690 O   0  0  0  0  0  0  0  0  0  0  0  0
    3.6981   -0.0467   -1.1052 O   0  0  0  0  0  0  0  0  0  0  0  0
    3.7946    0.3993    1.4849 O   0  0  0  0  0  0  0  0  0  0  0  0
   -1.3527   -0.8141    0.5256 C   0  0  1  0  0  0  0  0  0  0  0  0
   -0.4791   -1.2354   -0.6715 C   0  0  1  0  0  0  0  0  0  0  0  0
   -1.9801    0.5860    0.3844 C   0  0  1  0  0  0  0  0  0  0  0  0
    0.7597   -0.3629   -0.8776 C   0  0  0  0  0  0  0  0  0  0  0  0
   -2.8185    0.7999   -0.8741 C   0  0  0  0  0  0  0  0  0  0  0  0
   -0.7810   -0.8834    1.4586 H   0  0  0  0  0  0  0  0  0  0  0  0
   -1.0738   -1.2384   -1.5911 H   0  0  0  0  0  0  0  0  0  0  0  0
   -1.1919    1.3464    0.4308 H   0  0  0  0  0  0  0  0  0  0  0  0
    1.3295   -0.7550   -1.7268 H   0  0  0  0  0  0  0  0  0  0  0  0
    0.4711    0.6675   -1.1043 H   0  0  0  0  0  0  0  0  0  0  0  0
   -3.6688    0.1114   -0.9150 H   0  0  0  0  0  0  0  0  0  0  0  0
   -2.2212    0.6714   -1.7800 H   0  0  0  0  0  0  0  0  0  0  0  0
   -2.9584   -1.4579    1.4440 H   0  0  0  0  0  0  0  0  0  0  0  0
   -0.8543   -3.1263   -0.3613 H   0  0  0  0  0  0  0  0  0  0  0  0
   -3.0511    1.7590    1.5328 H   0  0  0  0  0  0  0  0  0  0  0  0
   -4.0101    2.1902   -0.2023 H   0  0  0  0  0  0  0  0  0  0  0  0
    3.1237    2.6958   -0.1856 H   0  0  0  0  0  0  0  0  0  0  0  0
    4.6064    0.2657   -1.3040 H   0  0  0  0  0  0  0  0  0  0  0  0
  1  5  1  0  0  0  0
  1  7  1  0  0  0  0
  1  8  1  0  0  0  0
  1  9  2  0  0  0  0
  2 10  1  0  0  0  0
  2 22  1  0  0  0  0
  3 11  1  0  0  0  0
  3 23  1  0  0  0  0
  4 12  1  0  0  0  0
  4 24  1  0  0  0  0
  5 13  1  0  0  0  0
  6 14  1  0  0  0  0
  6 25  1  0  0  0  0
  7 26  1  0  0  0  0
  8 27  1  0  0  0  0
 10 11  1  0  0  0  0
 10 12  1  0  0  0  0
 10 15  1  0  0  0  0
 11 13  1  0  0  0  0
 11 16  1  0  0  0  0
 12 14  1  0  0  0  0
 12 17  1  0  0  0  0
 13 18  1  0  0  0  0
 13 19  1  0  0  0  0
 14 20  1  0  0  0  0
 14 21  1  0  0  0  0
M  END
> <PUBCHEM_COMPOUND_CID>
439840

> <PUBCHEM_CONFORMER_RMSD>
0.6

> <PUBCHEM_CONFORMER_DIVERSEORDER>
5
12
104
6
88
84
82
90
102
85
33
70
100
67
50
59
20
101
43
93
83
65
39
3
21
73
103
95
60
44
40
2
98
106
56
29
16
64
28
51
55
53
78
48
1
80
97
71
34
92
105
11
87
25
68
17
66
13
79
27
77
37
54
10
57
62
30
91
47
38
76
26
19
58
75
89
99
24
72
9
45
14
69
41
81
86
4
18
15
96
42
46
22
35
32
31
94
49
8
74
61
63
52
7
36
23

> <PUBCHEM_MMFF94_PARTIAL_CHARGES>
20
1 1.51
10 0.28
11 0.28
12 0.28
13 0.28
14 0.28
2 -0.68
22 0.4
23 0.4
24 0.4
25 0.4
26 0.5
27 0.5
3 -0.68
4 -0.68
5 -0.55
6 -0.68
7 -0.77
8 -0.77
9 -0.7

> <PUBCHEM_EFFECTIVE_ROTOR_COUNT>
6

> <PUBCHEM_PHARMACOPHORE_FEATURES>
12
1 2 acceptor
1 2 donor
1 3 acceptor
1 3 donor
1 4 acceptor
1 4 donor
1 6 acceptor
1 6 donor
1 7 acceptor
1 8 acceptor
1 9 acceptor
4 1 7 8 9 anion

> <PUBCHEM_HEAVY_ATOM_COUNT>
14

> <PUBCHEM_ATOM_DEF_STEREO_COUNT>
3

> <PUBCHEM_ATOM_UDEF_STEREO_COUNT>
0

> <PUBCHEM_BOND_DEF_STEREO_COUNT>
0

> <PUBCHEM_BOND_UDEF_STEREO_COUNT>
0

> <PUBCHEM_ISOTOPIC_ATOM_COUNT>
0

> <PUBCHEM_COMPONENT_COUNT>
1

> <PUBCHEM_CACTVS_TAUTO_COUNT>
1

> <PUBCHEM_CONFORMER_ID>
0006B62000000005

> <PUBCHEM_MMFF94_ENERGY>
-4.7704

> <PUBCHEM_FEATURE_SELFOVERLAP>
60.958

> <PUBCHEM_SHAPE_FINGERPRINT>
12932764 1 17988638562977837696
14252887 29 12391503209384120948
15276787 5 16343426214454351373
15775835 57 18201999945119476368
17834069 15 18131069359263883862
18186145 218 18113892792936082318
20281407 28 11887957635659526386
20361792 2 10879984757495446435
20645477 56 18115868508173304344
20653085 51 16877936161404071743
21069387 34 14418403434667355476
21524375 3 18334859419893094455
23402539 116 18059306387788851359
23419403 2 15361668747656431767
2748010 2 18335124419275141535
305870 269 18340209686465866322
528716 315 8286206071332063834
81228 2 17901388887650913166

> <PUBCHEM_SHAPE_MULTIPOLES>
245.01
6.37
2.01
1.21
3.33
0.41
-0.19
-3.18
-0.58
-1.09
0.33
-0.03
-0.16
0.61

> <PUBCHEM_SHAPE_SELFOVERLAP>
451.544

> <PUBCHEM_SHAPE_VOLUME>
154.9

> <PUBCHEM_COORDINATE_TYPE>
2
5
10

$$$$

