441154
  -OEChem-07051212523D

 25 26  0     1  0  0  0  0  0999 V2000
    1.7726    1.7467    1.3441 O   0  0  0  0  0  0  0  0  0  0  0  0
    3.1775    0.1949   -1.5128 O   0  0  0  0  0  0  0  0  0  0  0  0
   -3.4409   -1.2421   -0.0304 O   0  0  0  0  0  0  0  0  0  0  0  0
   -1.1557   -1.4401    0.1541 N   0  0  0  0  0  0  0  0  0  0  0  0
    1.6034    1.1216    0.0675 C   0  0  2  0  0  0  0  0  0  0  0  0
    0.2481    0.4557    0.0419 C   0  0  0  0  0  0  0  0  0  0  0  0
    2.7904    0.1505   -0.1381 C   0  0  1  0  0  0  0  0  0  0  0  0
    0.0990   -0.8745    0.1758 C   0  0  0  0  0  0  0  0  0  0  0  0
    2.4900   -1.2811    0.2154 C   0  0  0  0  0  0  0  0  0  0  0  0
   -0.9278    1.2822   -0.1417 C   0  0  0  0  0  0  0  0  0  0  0  0
    1.2399   -1.7395    0.3677 C   0  0  0  0  0  0  0  0  0  0  0  0
   -2.1661    0.7630   -0.1726 C   0  0  0  0  0  0  0  0  0  0  0  0
   -2.3279   -0.7204   -0.0119 C   0  0  0  0  0  0  0  0  0  0  0  0
   -3.4024    1.5830   -0.3592 C   0  0  0  0  0  0  0  0  0  0  0  0
    1.6451    1.9144   -0.6893 H   0  0  0  0  0  0  0  0  0  0  0  0
    3.6532    0.4828    0.4506 H   0  0  0  0  0  0  0  0  0  0  0  0
    3.3273   -1.9625    0.3356 H   0  0  0  0  0  0  0  0  0  0  0  0
   -0.7776    2.3519   -0.2541 H   0  0  0  0  0  0  0  0  0  0  0  0
    1.0722   -2.7826    0.6161 H   0  0  0  0  0  0  0  0  0  0  0  0
   -1.2263   -2.4478    0.2655 H   0  0  0  0  0  0  0  0  0  0  0  0
    1.7682    1.0504    2.0234 H   0  0  0  0  0  0  0  0  0  0  0  0
    2.4058   -0.0523   -2.0511 H   0  0  0  0  0  0  0  0  0  0  0  0
   -4.0690    1.4713    0.5021 H   0  0  0  0  0  0  0  0  0  0  0  0
   -3.9395    1.2658   -1.2590 H   0  0  0  0  0  0  0  0  0  0  0  0
   -3.1734    2.6485   -0.4666 H   0  0  0  0  0  0  0  0  0  0  0  0
  1  5  1  0  0  0  0
  1 21  1  0  0  0  0
  2  7  1  0  0  0  0
  2 22  1  0  0  0  0
  3 13  2  0  0  0  0
  4  8  1  0  0  0  0
  4 13  1  0  0  0  0
  4 20  1  0  0  0  0
  5  6  1  0  0  0  0
  5  7  1  0  0  0  0
  5 15  1  0  0  0  0
  6  8  2  0  0  0  0
  6 10  1  0  0  0  0
  7  9  1  0  0  0  0
  7 16  1  0  0  0  0
  8 11  1  0  0  0  0
  9 11  2  0  0  0  0
  9 17  1  0  0  0  0
 10 12  2  0  0  0  0
 10 18  1  0  0  0  0
 11 19  1  0  0  0  0
 12 13  1  0  0  0  0
 12 14  1  0  0  0  0
 14 23  1  0  0  0  0
 14 24  1  0  0  0  0
 14 25  1  0  0  0  0
M  END
> <PUBCHEM_COMPOUND_CID>
441154

> <PUBCHEM_CONFORMER_RMSD>
0.4

> <PUBCHEM_CONFORMER_DIVERSEORDER>
3
1
5
6
4
2

> <PUBCHEM_MMFF94_PARTIAL_CHARGES>
20
1 -0.68
10 -0.15
11 -0.15
12 -0.12
13 0.62
14 0.14
17 0.15
18 0.15
19 0.15
2 -0.68
20 0.37
21 0.4
22 0.4
3 -0.57
4 -0.54
5 0.42
6 -0.14
7 0.42
8 0.11
9 -0.29

> <PUBCHEM_EFFECTIVE_ROTOR_COUNT>
0.4

> <PUBCHEM_PHARMACOPHORE_FEATURES>
8
1 1 acceptor
1 1 donor
1 2 acceptor
1 2 donor
1 3 acceptor
1 4 donor
6 4 6 8 10 12 13 rings
6 5 6 7 8 9 11 rings

> <PUBCHEM_HEAVY_ATOM_COUNT>
14

> <PUBCHEM_ATOM_DEF_STEREO_COUNT>
0

> <PUBCHEM_ATOM_UDEF_STEREO_COUNT>
2

> <PUBCHEM_BOND_DEF_STEREO_COUNT>
0

> <PUBCHEM_BOND_UDEF_STEREO_COUNT>
0

> <PUBCHEM_ISOTOPIC_ATOM_COUNT>
0

> <PUBCHEM_COMPONENT_COUNT>
1

> <PUBCHEM_CACTVS_TAUTO_COUNT>
2

> <PUBCHEM_CONFORMER_ID>
0006BB4200000003

> <PUBCHEM_MMFF94_ENERGY>
28.2575

> <PUBCHEM_FEATURE_SELFOVERLAP>
40.617

> <PUBCHEM_SHAPE_FINGERPRINT>
10130415 120 18196097869870480506
10608611 8 18410582772881781897
10967382 1 18195531621524437963
11206711 2 18412261722847333351
12423570 1 10663808676889217504
12491281 212 18338788035210962409
12897270 3 18411983541947001631
12932764 1 18334012765964392195
13380535 21 18341323500518899571
13897977 150 18410864290924021669
14325111 11 18413109476245341525
15219456 202 18261682484215633520
15775835 57 18342170115544865933
161256 15 18336267829715754712
16945 1 18269838614368117355
17844478 74 18201427044180439747
18186145 218 18186517717778548137
21501502 16 18342740753626974987
2334 1 18412831274297389563
23402655 69 18265066897740321573
23463225 33 18200035182370736146
23552423 10 18130508629671664427
23559900 14 18334852841047305820
2748010 2 18337961103619310221
3248919 1 17489871518285103619
5084963 1 18336539421967552977
5255222 1 18269002036237954493
528886 8 18341898536130542264
53812653 166 18409174328498442704
7364860 26 18263933300888184634
74978 22 18259988201453757673
8030462 33 18341618100741756079

> <PUBCHEM_SHAPE_MULTIPOLES>
265.52
5.23
1.9
0.85
1.75
0.13
-0.05
-0.37
-0.92
0.26
0.28
-0.59
-0.25
0.15

> <PUBCHEM_SHAPE_SELFOVERLAP>
569.578

> <PUBCHEM_SHAPE_VOLUME>
146

> <PUBCHEM_COORDINATE_TYPE>
2
5
10

$$$$

