443565
  -OEChem-07051213023D

 80 82  0     1  0  0  0  0  0999 V2000
   -5.1940    2.0812   -0.4648 O   0  0  0  0  0  0  0  0  0  0  0  0
    2.5588    0.7246   -0.7424 O   0  0  0  0  0  0  0  0  0  0  0  0
   -1.0627    3.0393   -1.7400 O   0  0  0  0  0  0  0  0  0  0  0  0
   -4.6776    0.4900    1.9662 O   0  0  0  0  0  0  0  0  0  0  0  0
   -0.7429   -1.3857   -0.9068 O   0  0  0  0  0  0  0  0  0  0  0  0
   -3.1432   -1.8825    2.5316 O   0  0  0  0  0  0  0  0  0  0  0  0
    3.0828   -0.4077    1.2787 O   0  0  0  0  0  0  0  0  0  0  0  0
    6.4954   -1.2920   -0.8892 O   0  0  0  0  0  0  0  0  0  0  0  0
    1.0440   -2.0058   -2.2319 O   0  0  0  0  0  0  0  0  0  0  0  0
    6.6525    0.4883    1.3726 O   0  0  0  0  0  0  0  0  0  0  0  0
   -3.9391    1.5247   -0.0172 C   0  0  2  0  0  0  0  0  0  0  0  0
   -2.9737    2.6139    0.4194 C   0  0  0  0  0  0  0  0  0  0  0  0
   -1.5084    2.1051    0.4640 C   0  0  1  0  0  0  0  0  0  0  0  0
   -4.3743    1.4859   -1.4709 C   0  0  0  0  0  0  0  0  0  0  0  0
   -0.5518    2.9732   -0.4003 C   0  0  1  0  0  0  0  0  0  0  0  0
    0.9311    2.5081   -0.5234 C   0  0  2  0  0  0  0  0  0  0  0  0
   -4.1594    0.3360    0.8647 C   0  0  0  0  0  0  0  0  0  0  0  0
   -3.7126   -1.0299    0.3337 C   0  0  1  0  0  0  0  0  0  0  0  0
    1.1489    0.9752   -0.6834 C   0  0  1  0  0  0  0  0  0  0  0  0
   -2.5986   -1.6017    1.2368 C   0  0  2  0  0  0  0  0  0  0  0  0
   -1.0687    2.0041    1.9280 C   0  0  0  0  0  0  0  0  0  0  0  0
    0.4758    0.3481   -1.9254 C   0  0  2  0  0  0  0  0  0  0  0  0
   -1.7949   -2.8431    0.7423 C   0  0  2  0  0  0  0  0  0  0  0  0
    1.7879    3.0711    0.6248 C   0  0  0  0  0  0  0  0  0  0  0  0
   -4.9604   -1.9024    0.2142 C   0  0  0  0  0  0  0  0  0  0  0  0
   -1.1502   -2.7501   -0.6676 C   0  0  1  0  0  0  0  0  0  0  0  0
    2.8906   -0.5197   -0.1330 C   0  0  2  0  0  0  0  0  0  0  0  0
    0.3261   -1.1548   -1.7257 C   0  0  0  0  0  0  0  0  0  0  0  0
    4.0894   -1.1847   -0.8048 C   0  0  0  0  0  0  0  0  0  0  0  0
    1.2029    0.6395   -3.2389 C   0  0  0  0  0  0  0  0  0  0  0  0
   -2.4902   -4.1892    0.9827 C   0  0  0  0  0  0  0  0  0  0  0  0
    5.4022   -0.4938   -0.4404 C   0  0  1  0  0  0  0  0  0  0  0  0
    5.5110   -0.3117    1.0738 C   0  0  2  0  0  0  0  0  0  0  0  0
    4.2452    0.3430    1.6394 C   0  0  2  0  0  0  0  0  0  0  0  0
   -2.0277   -3.2143   -1.8297 C   0  0  0  0  0  0  0  0  0  0  0  0
    4.2861    0.4182    3.1629 C   0  0  0  0  0  0  0  0  0  0  0  0
   -3.2924    2.9862    1.4013 H   0  0  0  0  0  0  0  0  0  0  0  0
   -3.0614    3.4730   -0.2573 H   0  0  0  0  0  0  0  0  0  0  0  0
   -1.5052    1.0959    0.0429 H   0  0  0  0  0  0  0  0  0  0  0  0
   -3.8864    2.1450   -2.1781 H   0  0  0  0  0  0  0  0  0  0  0  0
   -4.7206    0.5566   -1.9041 H   0  0  0  0  0  0  0  0  0  0  0  0
   -0.5817    4.0024   -0.0210 H   0  0  0  0  0  0  0  0  0  0  0  0
    1.3471    2.9783   -1.4261 H   0  0  0  0  0  0  0  0  0  0  0  0
   -3.3035   -0.8641   -0.6656 H   0  0  0  0  0  0  0  0  0  0  0  0
    0.7516    0.5040    0.2235 H   0  0  0  0  0  0  0  0  0  0  0  0
   -1.8605   -0.8075    1.4007 H   0  0  0  0  0  0  0  0  0  0  0  0
   -0.1537    1.4191    2.0385 H   0  0  0  0  0  0  0  0  0  0  0  0
   -0.9009    2.9965    2.3593 H   0  0  0  0  0  0  0  0  0  0  0  0
   -1.8299    1.4998    2.5337 H   0  0  0  0  0  0  0  0  0  0  0  0
   -0.5472    0.7180   -2.0457 H   0  0  0  0  0  0  0  0  0  0  0  0
   -0.9362   -2.8668    1.4336 H   0  0  0  0  0  0  0  0  0  0  0  0
    1.6703    2.5054    1.5515 H   0  0  0  0  0  0  0  0  0  0  0  0
    2.8489    3.0485    0.3553 H   0  0  0  0  0  0  0  0  0  0  0  0
    1.5393    4.1181    0.8271 H   0  0  0  0  0  0  0  0  0  0  0  0
   -5.3490   -2.1979    1.1943 H   0  0  0  0  0  0  0  0  0  0  0  0
   -5.7636   -1.3633   -0.3014 H   0  0  0  0  0  0  0  0  0  0  0  0
   -4.7617   -2.8068   -0.3641 H   0  0  0  0  0  0  0  0  0  0  0  0
   -0.2568   -3.3893   -0.6521 H   0  0  0  0  0  0  0  0  0  0  0  0
    2.0757   -1.2332   -0.2135 H   0  0  0  0  0  0  0  0  0  0  0  0
   -0.5495    3.7117   -2.2196 H   0  0  0  0  0  0  0  0  0  0  0  0
    3.9726   -1.1979   -1.8945 H   0  0  0  0  0  0  0  0  0  0  0  0
    4.1463   -2.2328   -0.4820 H   0  0  0  0  0  0  0  0  0  0  0  0
    0.6708    0.1809   -4.0802 H   0  0  0  0  0  0  0  0  0  0  0  0
    1.2596    1.7155   -3.4283 H   0  0  0  0  0  0  0  0  0  0  0  0
    2.2205    0.2356   -3.2454 H   0  0  0  0  0  0  0  0  0  0  0  0
   -2.7526   -4.3188    2.0377 H   0  0  0  0  0  0  0  0  0  0  0  0
   -3.4038   -4.2996    0.3964 H   0  0  0  0  0  0  0  0  0  0  0  0
   -1.8219   -5.0160    0.7168 H   0  0  0  0  0  0  0  0  0  0  0  0
    5.4806    0.4748   -0.9472 H   0  0  0  0  0  0  0  0  0  0  0  0
    5.6665   -1.2895    1.5479 H   0  0  0  0  0  0  0  0  0  0  0  0
    4.1534    1.3672    1.2614 H   0  0  0  0  0  0  0  0  0  0  0  0
   -3.4648   -1.0471    2.9100 H   0  0  0  0  0  0  0  0  0  0  0  0
   -2.3206   -4.2626   -1.7259 H   0  0  0  0  0  0  0  0  0  0  0  0
   -2.9283   -2.6062   -1.9351 H   0  0  0  0  0  0  0  0  0  0  0  0
   -1.4869   -3.1165   -2.7776 H   0  0  0  0  0  0  0  0  0  0  0  0
    4.3541   -0.5830    3.6026 H   0  0  0  0  0  0  0  0  0  0  0  0
    5.1316    1.0157    3.5162 H   0  0  0  0  0  0  0  0  0  0  0  0
    3.3619    0.8661    3.5448 H   0  0  0  0  0  0  0  0  0  0  0  0
    6.4422   -2.1556   -0.4453 H   0  0  0  0  0  0  0  0  0  0  0  0
    7.4263    0.0490    0.9803 H   0  0  0  0  0  0  0  0  0  0  0  0
  1 11  1  0  0  0  0
  1 14  1  0  0  0  0
  2 19  1  0  0  0  0
  2 27  1  0  0  0  0
  3 15  1  0  0  0  0
  3 60  1  0  0  0  0
  4 17  2  0  0  0  0
  5 26  1  0  0  0  0
  5 28  1  0  0  0  0
  6 20  1  0  0  0  0
  6 72  1  0  0  0  0
  7 27  1  0  0  0  0
  7 34  1  0  0  0  0
  8 32  1  0  0  0  0
  8 79  1  0  0  0  0
  9 28  2  0  0  0  0
 10 33  1  0  0  0  0
 10 80  1  0  0  0  0
 11 12  1  0  0  0  0
 11 14  1  0  0  0  0
 11 17  1  0  0  0  0
 12 13  1  0  0  0  0
 12 37  1  0  0  0  0
 12 38  1  0  0  0  0
 13 15  1  0  0  0  0
 13 21  1  0  0  0  0
 13 39  1  0  0  0  0
 14 40  1  0  0  0  0
 14 41  1  0  0  0  0
 15 16  1  0  0  0  0
 15 42  1  0  0  0  0
 16 19  1  0  0  0  0
 16 24  1  0  0  0  0
 16 43  1  0  0  0  0
 17 18  1  0  0  0  0
 18 20  1  0  0  0  0
 18 25  1  0  0  0  0
 18 44  1  0  0  0  0
 19 22  1  0  0  0  0
 19 45  1  0  0  0  0
 20 23  1  0  0  0  0
 20 46  1  0  0  0  0
 21 47  1  0  0  0  0
 21 48  1  0  0  0  0
 21 49  1  0  0  0  0
 22 28  1  0  0  0  0
 22 30  1  0  0  0  0
 22 50  1  0  0  0  0
 23 26  1  0  0  0  0
 23 31  1  0  0  0  0
 23 51  1  0  0  0  0
 24 52  1  0  0  0  0
 24 53  1  0  0  0  0
 24 54  1  0  0  0  0
 25 55  1  0  0  0  0
 25 56  1  0  0  0  0
 25 57  1  0  0  0  0
 26 35  1  0  0  0  0
 26 58  1  0  0  0  0
 27 29  1  0  0  0  0
 27 59  1  0  0  0  0
 29 32  1  0  0  0  0
 29 61  1  0  0  0  0
 29 62  1  0  0  0  0
 30 63  1  0  0  0  0
 30 64  1  0  0  0  0
 30 65  1  0  0  0  0
 31 66  1  0  0  0  0
 31 67  1  0  0  0  0
 31 68  1  0  0  0  0
 32 33  1  0  0  0  0
 32 69  1  0  0  0  0
 33 34  1  0  0  0  0
 33 70  1  0  0  0  0
 34 36  1  0  0  0  0
 34 71  1  0  0  0  0
 35 73  1  0  0  0  0
 35 74  1  0  0  0  0
 35 75  1  0  0  0  0
 36 76  1  0  0  0  0
 36 77  1  0  0  0  0
 36 78  1  0  0  0  0
M  END
> <PUBCHEM_COMPOUND_CID>
443565

> <PUBCHEM_CONFORMER_RMSD>
0.8

> <PUBCHEM_CONFORMER_DIVERSEORDER>
1
21
25
23
14
3
28
9
15
33
35
24
22
27
29
17
31
30
36
12
11
8
32
26
19
4
7
37
2
18
13
10
6
5
34
20
16

> <PUBCHEM_MMFF94_PARTIAL_CHARGES>
31
1 -0.3
10 -0.68
11 0.05
12 0.09
14 -0.05
15 0.28
17 0.51
18 0.06
19 0.28
2 -0.56
20 0.28
22 0.06
26 0.28
27 0.56
28 0.66
3 -0.68
32 0.28
33 0.28
34 0.28
4 -0.57
40 0.1
41 0.1
5 -0.43
6 -0.68
60 0.4
7 -0.56
72 0.4
79 0.4
8 -0.68
80 0.4
9 -0.57

> <PUBCHEM_EFFECTIVE_ROTOR_COUNT>
5.8

> <PUBCHEM_PHARMACOPHORE_FEATURES>
14
1 1 acceptor
1 10 acceptor
1 10 donor
1 2 acceptor
1 3 acceptor
1 3 donor
1 4 acceptor
1 6 acceptor
1 6 donor
1 7 acceptor
1 8 acceptor
1 8 donor
1 9 acceptor
6 7 27 29 32 33 34 rings

> <PUBCHEM_HEAVY_ATOM_COUNT>
36

> <PUBCHEM_ATOM_DEF_STEREO_COUNT>
14

> <PUBCHEM_ATOM_UDEF_STEREO_COUNT>
0

> <PUBCHEM_BOND_DEF_STEREO_COUNT>
0

> <PUBCHEM_BOND_UDEF_STEREO_COUNT>
0

> <PUBCHEM_ISOTOPIC_ATOM_COUNT>
0

> <PUBCHEM_COMPONENT_COUNT>
1

> <PUBCHEM_CACTVS_TAUTO_COUNT>
2

> <PUBCHEM_CONFORMER_ID>
0006C4AD00000001

> <PUBCHEM_MMFF94_ENERGY>
103.6029

> <PUBCHEM_FEATURE_SELFOVERLAP>
71.087

> <PUBCHEM_SHAPE_FINGERPRINT>
10010297 198 17904485100058513180
10675989 125 4659951165359445847
12128747 34 18188483705115792118
12422481 6 18187078421474486840
12597179 24 17625277668305947981
12633257 1 18340192013017880043
12712778 12 18342177747706993234
13140716 1 18263072219842283037
13402501 40 18262234533531345533
13726171 33 17836601393545618445
13965767 371 17320390446801489611
14114207 22 17200536270861593795
14705955 166 17895190055962892000
15328829 1 17630863016045090478
16728300 4 17703238415930220475
19315092 285 16842182057841359763
20429585 67 12823295732126525260
20511986 3 17132119060933560384
20600515 1 18261938683489207077
20764821 26 18190165816198034309
21033648 29 17895203202894584474
23559900 14 18410293601471740392
238918 7 18188485899263448455
24893992 56 18272371920526823739
3383291 50 18412267212364748571
3493558 16 5761357955268857864
35225 105 18194708044175709010
392239 28 17168428263229041096
45266715 3 18266182910442889327
469060 322 17418102026949176766
563151 74 16009615490154226850

> <PUBCHEM_SHAPE_MULTIPOLES>
682.17
11.75
4.17
2.53
12.19
0.94
0.04
1.58
-4.78
-4.52
0.22
1.1
0.21
1.34

> <PUBCHEM_SHAPE_SELFOVERLAP>
1382.244

> <PUBCHEM_SHAPE_VOLUME>
395.2

> <PUBCHEM_COORDINATE_TYPE>
2
5
10

$$$$

