17396226
  -OEChem-06241222552D

 49 52  0     0  0  0  0  0  0999 V2000
    5.2531    3.0633    0.0000 O   0  0  0  0  0  0  0  0  0  0  0  0
    6.2619   -2.2879    0.0000 O   0  0  0  0  0  0  0  0  0  0  0  0
    5.6103    1.3684    0.0000 N   0  0  0  0  0  0  0  0  0  0  0  0
    4.6783   -1.4831    0.0000 N   0  0  0  0  0  0  0  0  0  0  0  0
    4.6783   -3.0926    0.0000 N   0  0  0  0  0  0  0  0  0  0  0  0
    4.9889   -0.5326    0.0000 C   0  0  0  0  0  0  0  0  0  0  0  0
    6.8994    2.5252    0.0000 C   0  0  0  0  0  0  0  0  0  0  0  0
    4.3211    0.2117    0.0000 C   0  0  0  0  0  0  0  0  0  0  0  0
    5.9674   -0.3264    0.0000 C   0  0  0  0  0  0  0  0  0  0  0  0
    4.6318    1.1622    0.0000 C   0  0  0  0  0  0  0  0  0  0  0  0
    6.2781    0.6241    0.0000 C   0  0  0  0  0  0  0  0  0  0  0  0
    7.5673    1.7809    0.0000 C   0  0  0  0  0  0  0  0  0  0  0  0
    7.2101    3.4757    0.0000 C   0  0  0  0  0  0  0  0  0  0  0  0
    5.9209    2.3190    0.0000 C   0  0  0  0  0  0  0  0  0  0  0  0
    8.5458    1.9871    0.0000 C   0  0  0  0  0  0  0  0  0  0  0  0
    8.1886    3.6819    0.0000 C   0  0  0  0  0  0  0  0  0  0  0  0
    8.8564    2.9376    0.0000 C   0  0  0  0  0  0  0  0  0  0  0  0
    3.7320   -1.7879    0.0000 C   0  0  0  0  0  0  0  0  0  0  0  0
    5.2619   -2.2879    0.0000 C   0  0  0  0  0  0  0  0  0  0  0  0
    3.7320   -2.7879    0.0000 C   0  0  0  0  0  0  0  0  0  0  0  0
    2.8660   -1.2879    0.0000 C   0  0  0  0  0  0  0  0  0  0  0  0
    2.8660   -3.2879    0.0000 C   0  0  0  0  0  0  0  0  0  0  0  0
    2.0000   -1.7879    0.0000 C   0  0  0  0  0  0  0  0  0  0  0  0
    2.0000   -2.7879    0.0000 C   0  0  0  0  0  0  0  0  0  0  0  0
    5.4030   -0.9941    0.0000 H   0  0  0  0  0  0  0  0  0  0  0  0
    6.4854    2.9866    0.0000 H   0  0  0  0  0  0  0  0  0  0  0  0
    3.7742    0.5037    0.0000 H   0  0  0  0  0  0  0  0  0  0  0  0
    3.9385   -0.2762    0.0000 H   0  0  0  0  0  0  0  0  0  0  0  0
    5.9880   -0.9460    0.0000 H   0  0  0  0  0  0  0  0  0  0  0  0
    6.5812   -0.4137    0.0000 H   0  0  0  0  0  0  0  0  0  0  0  0
    6.8250    0.3321    0.0000 H   0  0  0  0  0  0  0  0  0  0  0  0
    4.6112    1.7819    0.0000 H   0  0  0  0  0  0  0  0  0  0  0  0
    4.0179    1.2496    0.0000 H   0  0  0  0  0  0  0  0  0  0  0  0
    6.6607    1.1120    0.0000 H   0  0  0  0  0  0  0  0  0  0  0  0
    7.0409    1.4532    0.0000 H   0  0  0  0  0  0  0  0  0  0  0  0
    7.7985    1.2056    0.0000 H   0  0  0  0  0  0  0  0  0  0  0  0
    7.1895    4.0954    0.0000 H   0  0  0  0  0  0  0  0  0  0  0  0
    6.5963    3.5630    0.0000 H   0  0  0  0  0  0  0  0  0  0  0  0
    8.5663    1.3674    0.0000 H   0  0  0  0  0  0  0  0  0  0  0  0
    9.1596    1.8997    0.0000 H   0  0  0  0  0  0  0  0  0  0  0  0
    8.7150    4.0096    0.0000 H   0  0  0  0  0  0  0  0  0  0  0  0
    7.9573    4.2572    0.0000 H   0  0  0  0  0  0  0  0  0  0  0  0
    9.4034    2.6456    0.0000 H   0  0  0  0  0  0  0  0  0  0  0  0
    9.2390    3.4255    0.0000 H   0  0  0  0  0  0  0  0  0  0  0  0
    4.8709   -3.6819    0.0000 H   0  0  0  0  0  0  0  0  0  0  0  0
    2.8660   -0.6679    0.0000 H   0  0  0  0  0  0  0  0  0  0  0  0
    2.8660   -3.9079    0.0000 H   0  0  0  0  0  0  0  0  0  0  0  0
    1.4631   -1.4779    0.0000 H   0  0  0  0  0  0  0  0  0  0  0  0
    1.4631   -3.0979    0.0000 H   0  0  0  0  0  0  0  0  0  0  0  0
  1 14  2  0  0  0  0
  2 19  2  0  0  0  0
  3 10  1  0  0  0  0
  3 11  1  0  0  0  0
  3 14  1  0  0  0  0
  4  6  1  0  0  0  0
  4 18  1  0  0  0  0
  4 19  1  0  0  0  0
  5 19  1  0  0  0  0
  5 20  1  0  0  0  0
  5 45  1  0  0  0  0
  6  8  1  0  0  0  0
  6  9  1  0  0  0  0
  6 25  1  0  0  0  0
  7 12  1  0  0  0  0
  7 13  1  0  0  0  0
  7 14  1  0  0  0  0
  7 26  1  0  0  0  0
  8 10  1  0  0  0  0
  8 27  1  0  0  0  0
  8 28  1  0  0  0  0
  9 11  1  0  0  0  0
  9 29  1  0  0  0  0
  9 30  1  0  0  0  0
 10 32  1  0  0  0  0
 10 33  1  0  0  0  0
 11 31  1  0  0  0  0
 11 34  1  0  0  0  0
 12 15  1  0  0  0  0
 12 35  1  0  0  0  0
 12 36  1  0  0  0  0
 13 16  1  0  0  0  0
 13 37  1  0  0  0  0
 13 38  1  0  0  0  0
 15 17  1  0  0  0  0
 15 39  1  0  0  0  0
 15 40  1  0  0  0  0
 16 17  1  0  0  0  0
 16 41  1  0  0  0  0
 16 42  1  0  0  0  0
 17 43  1  0  0  0  0
 17 44  1  0  0  0  0
 18 20  1  0  0  0  0
 18 21  2  0  0  0  0
 20 22  2  0  0  0  0
 21 23  1  0  0  0  0
 21 46  1  0  0  0  0
 22 24  1  0  0  0  0
 22 47  1  0  0  0  0
 23 24  2  0  0  0  0
 23 48  1  0  0  0  0
 24 49  1  0  0  0  0
M  END
> <PUBCHEM_COMPOUND_CID>
17396226

> <PUBCHEM_COMPOUND_CANONICALIZED>
1

> <PUBCHEM_CACTVS_COMPLEXITY>
481

> <PUBCHEM_CACTVS_HBOND_ACCEPTOR>
2

> <PUBCHEM_CACTVS_HBOND_DONOR>
1

> <PUBCHEM_CACTVS_ROTATABLE_BOND>
2

> <PUBCHEM_CACTVS_SUBSKEYS>
AAADceB7MAAAAAAAAAAAAAAAAAAAAWAAAAA8YIAAAAAAAFgBAAAAHgAQAAAADSjBkAQxwIPAAACIACVSUACCAAAhAgAIiAEIdIiIYDLA0ZGUIAholgLIyCcYiACOAAAAAAAAACAAAAAAAAAAQAAAAAAAAA==

> <PUBCHEM_IUPAC_OPENEYE_NAME>
3-[1-(cyclohexanecarbonyl)-4-piperidyl]-1H-benzimidazol-2-one

> <PUBCHEM_IUPAC_CAS_NAME>
3-[1-[cyclohexyl(oxo)methyl]-4-piperidinyl]-1H-benzimidazol-2-one

> <PUBCHEM_IUPAC_NAME>
3-[1-(cyclohexanecarbonyl)piperidin-4-yl]-1H-benzimidazol-2-one

> <PUBCHEM_IUPAC_SYSTEMATIC_NAME>
3-(1-cyclohexylcarbonylpiperidin-4-yl)-1H-benzimidazol-2-one

> <PUBCHEM_IUPAC_TRADITIONAL_NAME>
3-[1-(cyclohexanecarbonyl)-4-piperidyl]-1H-benzimidazol-2-one

> <PUBCHEM_IUPAC_INCHI>
InChI=1S/C19H25N3O2/c23-18(14-6-2-1-3-7-14)21-12-10-15(11-13-21)22-17-9-5-4-8-16(17)20-19(22)24/h4-5,8-9,14-15H,1-3,6-7,10-13H2,(H,20,24)

> <PUBCHEM_IUPAC_INCHIKEY>
BBBVFULAGTVRET-UHFFFAOYSA-N

> <PUBCHEM_XLOGP3>
3.5

> <PUBCHEM_EXACT_MASS>
327.194677

> <PUBCHEM_MOLECULAR_FORMULA>
C19H25N3O2

> <PUBCHEM_MOLECULAR_WEIGHT>
327.4207

> <PUBCHEM_OPENEYE_CAN_SMILES>
C1CCC(CC1)C(=O)N2CCC(CC2)N3C4=CC=CC=C4NC3=O

> <PUBCHEM_OPENEYE_ISO_SMILES>
C1CCC(CC1)C(=O)N2CCC(CC2)N3C4=CC=CC=C4NC3=O

> <PUBCHEM_CACTVS_TPSA>
52.6

> <PUBCHEM_MONOISOTOPIC_WEIGHT>
327.194677

> <PUBCHEM_TOTAL_CHARGE>
0

> <PUBCHEM_HEAVY_ATOM_COUNT>
24

> <PUBCHEM_ATOM_DEF_STEREO_COUNT>
0

> <PUBCHEM_ATOM_UDEF_STEREO_COUNT>
0

> <PUBCHEM_BOND_DEF_STEREO_COUNT>
0

> <PUBCHEM_BOND_UDEF_STEREO_COUNT>
0

> <PUBCHEM_ISOTOPIC_ATOM_COUNT>
0

> <PUBCHEM_COMPONENT_COUNT>
1

> <PUBCHEM_CACTVS_TAUTO_COUNT>
2

> <PUBCHEM_COORDINATE_TYPE>
1
5
255

> <PUBCHEM_BONDANNOTATIONS>
18  20  8
18  21  8
20  22  8
21  23  8
22  24  8
23  24  8
4  18  8
4  19  8
5  19  8
5  20  8

$$$$

