13295
  -OEChem-06261208382D

 30 32  0     0  0  0  0  0  0999 V2000
    3.7320    2.4827    0.0000 O   0  0  0  0  0  0  0  0  0  0  0  0
    7.2622    2.5068    0.0000 O   0  0  0  0  0  0  0  0  0  0  0  0
    2.0000    2.4827    0.0000 O   0  0  0  0  0  0  0  0  0  0  0  0
    3.7320   -2.5173    0.0000 N   0  0  0  0  0  0  0  0  0  0  0  0
    4.5981    0.9827    0.0000 C   0  0  0  0  0  0  0  0  0  0  0  0
    3.7320    0.4827    0.0000 C   0  0  0  0  0  0  0  0  0  0  0  0
    4.5981    1.9827    0.0000 C   0  0  0  0  0  0  0  0  0  0  0  0
    3.7320   -0.5173    0.0000 C   0  0  0  0  0  0  0  0  0  0  0  0
    5.4920    0.4480    0.0000 C   0  0  0  0  0  0  0  0  0  0  0  0
    2.8660    0.9827    0.0000 C   0  0  0  0  0  0  0  0  0  0  0  0
    5.4920    2.5173    0.0000 C   0  0  0  0  0  0  0  0  0  0  0  0
    6.3981    2.0035    0.0000 C   0  0  0  0  0  0  0  0  0  0  0  0
    6.3981    0.9619    0.0000 C   0  0  0  0  0  0  0  0  0  0  0  0
    2.8660    1.9827    0.0000 C   0  0  0  0  0  0  0  0  0  0  0  0
    4.5981   -1.0173    0.0000 C   0  0  0  0  0  0  0  0  0  0  0  0
    2.8660   -1.0173    0.0000 C   0  0  0  0  0  0  0  0  0  0  0  0
    4.5981   -2.0173    0.0000 C   0  0  0  0  0  0  0  0  0  0  0  0
    2.8660   -2.0173    0.0000 C   0  0  0  0  0  0  0  0  0  0  0  0
    8.1301    2.0102    0.0000 C   0  0  0  0  0  0  0  0  0  0  0  0
    5.4848   -0.1720    0.0000 H   0  0  0  0  0  0  0  0  0  0  0  0
    2.3291    0.6727    0.0000 H   0  0  0  0  0  0  0  0  0  0  0  0
    5.4848    3.1373    0.0000 H   0  0  0  0  0  0  0  0  0  0  0  0
    6.9338    0.6498    0.0000 H   0  0  0  0  0  0  0  0  0  0  0  0
    5.1350   -0.7073    0.0000 H   0  0  0  0  0  0  0  0  0  0  0  0
    2.3291   -0.7073    0.0000 H   0  0  0  0  0  0  0  0  0  0  0  0
    5.1350   -2.3273    0.0000 H   0  0  0  0  0  0  0  0  0  0  0  0
    2.3291   -2.3273    0.0000 H   0  0  0  0  0  0  0  0  0  0  0  0
    7.8222    1.4720    0.0000 H   0  0  0  0  0  0  0  0  0  0  0  0
    8.6682    1.7022    0.0000 H   0  0  0  0  0  0  0  0  0  0  0  0
    8.4380    2.5483    0.0000 H   0  0  0  0  0  0  0  0  0  0  0  0
  1  7  1  0  0  0  0
  1 14  1  0  0  0  0
  2 12  1  0  0  0  0
  2 19  1  0  0  0  0
  3 14  2  0  0  0  0
  4 17  2  0  0  0  0
  4 18  1  0  0  0  0
  5  6  1  0  0  0  0
  5  7  2  0  0  0  0
  5  9  1  0  0  0  0
  6  8  1  0  0  0  0
  6 10  2  0  0  0  0
  7 11  1  0  0  0  0
  8 15  2  0  0  0  0
  8 16  1  0  0  0  0
  9 13  2  0  0  0  0
  9 20  1  0  0  0  0
 10 14  1  0  0  0  0
 10 21  1  0  0  0  0
 11 12  2  0  0  0  0
 11 22  1  0  0  0  0
 12 13  1  0  0  0  0
 13 23  1  0  0  0  0
 15 17  1  0  0  0  0
 15 24  1  0  0  0  0
 16 18  2  0  0  0  0
 16 25  1  0  0  0  0
 17 26  1  0  0  0  0
 18 27  1  0  0  0  0
 19 28  1  0  0  0  0
 19 29  1  0  0  0  0
 19 30  1  0  0  0  0
M  END
> <PUBCHEM_COMPOUND_CID>
13295

> <PUBCHEM_COMPOUND_CANONICALIZED>
1

> <PUBCHEM_CACTVS_COMPLEXITY>
374

> <PUBCHEM_CACTVS_HBOND_ACCEPTOR>
4

> <PUBCHEM_CACTVS_HBOND_DONOR>
0

> <PUBCHEM_CACTVS_ROTATABLE_BOND>
2

> <PUBCHEM_CACTVS_SUBSKEYS>
AAADccByMAAAAAAAAAAAAAAAAAAAAAAAAAA8QIAAAAAAAACBwAAAHgAAAAAADATBmgY+jpIIFACoAjD3TACCiCAxIiAI2CA+bNgMJ2LEsZuGOijlwBXI6QeQ4OwOIAAACAAIAABAAAAQABAAAAAAAAAAAA==

> <PUBCHEM_IUPAC_OPENEYE_NAME>
7-methoxy-4-(4-pyridyl)chromen-2-one

> <PUBCHEM_IUPAC_CAS_NAME>
7-methoxy-4-pyridin-4-yl-1-benzopyran-2-one

> <PUBCHEM_IUPAC_NAME>
7-methoxy-4-pyridin-4-ylchromen-2-one

> <PUBCHEM_IUPAC_SYSTEMATIC_NAME>
7-methoxy-4-pyridin-4-yl-chromen-2-one

> <PUBCHEM_IUPAC_TRADITIONAL_NAME>
7-methoxy-4-(4-pyridyl)coumarin

> <PUBCHEM_IUPAC_INCHI>
InChI=1S/C15H11NO3/c1-18-11-2-3-12-13(10-4-6-16-7-5-10)9-15(17)19-14(12)8-11/h2-9H,1H3

> <PUBCHEM_IUPAC_INCHIKEY>
IWMJGRNPLOQFAS-UHFFFAOYSA-N

> <PUBCHEM_XLOGP3>
2.4

> <PUBCHEM_EXACT_MASS>
253.073893

> <PUBCHEM_MOLECULAR_FORMULA>
C15H11NO3

> <PUBCHEM_MOLECULAR_WEIGHT>
253.25274

> <PUBCHEM_OPENEYE_CAN_SMILES>
COC1=CC2=C(C=C1)C(=CC(=O)O2)C3=CC=NC=C3

> <PUBCHEM_OPENEYE_ISO_SMILES>
COC1=CC2=C(C=C1)C(=CC(=O)O2)C3=CC=NC=C3

> <PUBCHEM_CACTVS_TPSA>
48.4

> <PUBCHEM_MONOISOTOPIC_WEIGHT>
253.073893

> <PUBCHEM_TOTAL_CHARGE>
0

> <PUBCHEM_HEAVY_ATOM_COUNT>
19

> <PUBCHEM_ATOM_DEF_STEREO_COUNT>
0

> <PUBCHEM_ATOM_UDEF_STEREO_COUNT>
0

> <PUBCHEM_BOND_DEF_STEREO_COUNT>
0

> <PUBCHEM_BOND_UDEF_STEREO_COUNT>
0

> <PUBCHEM_ISOTOPIC_ATOM_COUNT>
0

> <PUBCHEM_COMPONENT_COUNT>
1

> <PUBCHEM_CACTVS_TAUTO_COUNT>
1

> <PUBCHEM_COORDINATE_TYPE>
1
5
255

> <PUBCHEM_BONDANNOTATIONS>
1  14  8
1  7  8
10  14  8
11  12  8
12  13  8
15  17  8
16  18  8
4  17  8
4  18  8
5  6  8
5  7  8
5  9  8
6  10  8
7  11  8
8  15  8
8  16  8
9  13  8

$$$$

