17396648
  -OEChem-06241222572D

 41 43  0     1  0  0  0  0  0999 V2000
    2.0000   -1.4172    0.0000 F   0  0  0  0  0  0  0  0  0  0  0  0
    5.4641   -3.4172    0.0000 F   0  0  0  0  0  0  0  0  0  0  0  0
    5.3198   -1.2262    0.0000 O   0  0  0  0  0  0  0  0  0  0  0  0
    5.4569    2.4902    0.0000 O   0  0  0  0  0  0  0  0  0  0  0  0
    4.2320    2.1216    0.0000 O   0  0  0  0  0  0  0  0  0  0  0  0
    5.0411    0.5339    0.0000 N   0  0  0  0  0  0  0  0  0  0  0  0
    3.4230    0.5339    0.0000 N   0  0  0  0  0  0  0  0  0  0  0  0
    3.7320   -0.4172    0.0000 C   0  0  3  0  0  0  0  0  0  0  0  0
    4.7320   -0.4172    0.0000 C   0  0  0  0  0  0  0  0  0  0  0  0
    3.7320   -1.4172    0.0000 C   0  0  0  0  0  0  0  0  0  0  0  0
    5.9921    0.8429    0.0000 C   0  0  0  0  0  0  0  0  0  0  0  0
    2.7810   -0.7262    0.0000 C   0  0  0  0  0  0  0  0  0  0  0  0
    4.2320    1.1216    0.0000 C   0  0  0  0  0  0  0  0  0  0  0  0
    6.2000    1.8210    0.0000 C   0  0  3  0  0  0  0  0  0  0  0  0
    2.8660   -1.9172    0.0000 C   0  0  0  0  0  0  0  0  0  0  0  0
    4.5981   -1.9172    0.0000 C   0  0  0  0  0  0  0  0  0  0  0  0
    7.1511    2.1300    0.0000 C   0  0  0  0  0  0  0  0  0  0  0  0
    4.5981   -2.9172    0.0000 C   0  0  0  0  0  0  0  0  0  0  0  0
    2.8660   -2.9172    0.0000 C   0  0  0  0  0  0  0  0  0  0  0  0
    3.7320   -3.4172    0.0000 C   0  0  0  0  0  0  0  0  0  0  0  0
    7.8942    1.4609    0.0000 C   0  0  0  0  0  0  0  0  0  0  0  0
    7.3590    3.1082    0.0000 C   0  0  0  0  0  0  0  0  0  0  0  0
    8.8453    1.7699    0.0000 C   0  0  0  0  0  0  0  0  0  0  0  0
    8.3101    3.4172    0.0000 C   0  0  0  0  0  0  0  0  0  0  0  0
    9.0532    2.7481    0.0000 C   0  0  0  0  0  0  0  0  0  0  0  0
    2.8334    0.7254    0.0000 H   0  0  0  0  0  0  0  0  0  0  0  0
    6.0784    0.2289    0.0000 H   0  0  0  0  0  0  0  0  0  0  0  0
    6.6118    0.8212    0.0000 H   0  0  0  0  0  0  0  0  0  0  0  0
    2.5894   -0.1366    0.0000 H   0  0  0  0  0  0  0  0  0  0  0  0
    2.1913   -0.9178    0.0000 H   0  0  0  0  0  0  0  0  0  0  0  0
    2.9726   -1.3159    0.0000 H   0  0  0  0  0  0  0  0  0  0  0  0
    6.3289    2.4275    0.0000 H   0  0  0  0  0  0  0  0  0  0  0  0
    5.1350   -1.6072    0.0000 H   0  0  0  0  0  0  0  0  0  0  0  0
    2.3291   -3.2272    0.0000 H   0  0  0  0  0  0  0  0  0  0  0  0
    5.5858    3.0966    0.0000 H   0  0  0  0  0  0  0  0  0  0  0  0
    3.7320   -4.0372    0.0000 H   0  0  0  0  0  0  0  0  0  0  0  0
    7.7653    0.8545    0.0000 H   0  0  0  0  0  0  0  0  0  0  0  0
    6.8982    3.5230    0.0000 H   0  0  0  0  0  0  0  0  0  0  0  0
    9.3060    1.3551    0.0000 H   0  0  0  0  0  0  0  0  0  0  0  0
    8.4390    4.0236    0.0000 H   0  0  0  0  0  0  0  0  0  0  0  0
    9.6429    2.9397    0.0000 H   0  0  0  0  0  0  0  0  0  0  0  0
  1 15  1  0  0  0  0
  2 18  1  0  0  0  0
  3  9  2  0  0  0  0
  4 14  1  0  0  0  0
  4 35  1  0  0  0  0
  5 13  2  0  0  0  0
  6  9  1  0  0  0  0
  6 11  1  0  0  0  0
  6 13  1  0  0  0  0
  7  8  1  0  0  0  0
  7 13  1  0  0  0  0
  7 26  1  0  0  0  0
  8  9  1  0  0  0  0
  8 10  1  0  0  0  0
  8 12  1  0  0  0  0
 10 15  2  0  0  0  0
 10 16  1  0  0  0  0
 11 14  1  0  0  0  0
 11 27  1  0  0  0  0
 11 28  1  0  0  0  0
 12 29  1  0  0  0  0
 12 30  1  0  0  0  0
 12 31  1  0  0  0  0
 14 17  1  0  0  0  0
 14 32  1  0  0  0  0
 15 19  1  0  0  0  0
 16 18  2  0  0  0  0
 16 33  1  0  0  0  0
 17 21  2  0  0  0  0
 17 22  1  0  0  0  0
 18 20  1  0  0  0  0
 19 20  2  0  0  0  0
 19 34  1  0  0  0  0
 20 36  1  0  0  0  0
 21 23  1  0  0  0  0
 21 37  1  0  0  0  0
 22 24  2  0  0  0  0
 22 38  1  0  0  0  0
 23 25  2  0  0  0  0
 23 39  1  0  0  0  0
 24 25  1  0  0  0  0
 24 40  1  0  0  0  0
 25 41  1  0  0  0  0
M  END
> <PUBCHEM_COMPOUND_CID>
17396648

> <PUBCHEM_COMPOUND_CANONICALIZED>
1

> <PUBCHEM_CACTVS_COMPLEXITY>
527

> <PUBCHEM_CACTVS_HBOND_ACCEPTOR>
5

> <PUBCHEM_CACTVS_HBOND_DONOR>
2

> <PUBCHEM_CACTVS_ROTATABLE_BOND>
4

> <PUBCHEM_CACTVS_SUBSKEYS>
AAADceB7MYAAAAAAAAAAAAAAAAAAAWAAAAAwYAAAAAAAAAABQAAAHwAQCAAADJzhmA4zAIPAAgCIAiFSEACCAAAgAAAIiAGIDIiKdjKAlTGUcAhs1yOYmAeYyOCOgAAAAAAAAAAAAAAAAAAAAAAAAAAAAA==

> <PUBCHEM_IUPAC_OPENEYE_NAME>
5-(2,5-difluorophenyl)-3-(2-hydroxy-2-phenyl-ethyl)-5-methyl-imidazolidine-2,4-dione

> <PUBCHEM_IUPAC_CAS_NAME>
5-(2,5-difluorophenyl)-3-(2-hydroxy-2-phenylethyl)-5-methylimidazolidine-2,4-dione

> <PUBCHEM_IUPAC_NAME>
5-(2,5-difluorophenyl)-3-(2-hydroxy-2-phenylethyl)-5-methylimidazolidine-2,4-dione

> <PUBCHEM_IUPAC_SYSTEMATIC_NAME>
5-[2,5-bis(fluoranyl)phenyl]-5-methyl-3-(2-oxidanyl-2-phenyl-ethyl)imidazolidine-2,4-dione

> <PUBCHEM_IUPAC_TRADITIONAL_NAME>
5-(2,5-difluorophenyl)-3-(2-hydroxy-2-phenyl-ethyl)-5-methyl-hydantoin

> <PUBCHEM_IUPAC_INCHI>
InChI=1S/C18H16F2N2O3/c1-18(13-9-12(19)7-8-14(13)20)16(24)22(17(25)21-18)10-15(23)11-5-3-2-4-6-11/h2-9,15,23H,10H2,1H3,(H,21,25)

> <PUBCHEM_IUPAC_INCHIKEY>
CNPSPKXFKNJRAI-UHFFFAOYSA-N

> <PUBCHEM_XLOGP3_AA>
2.1

> <PUBCHEM_EXACT_MASS>
346.112899

> <PUBCHEM_MOLECULAR_FORMULA>
C18H16F2N2O3

> <PUBCHEM_MOLECULAR_WEIGHT>
346.328046

> <PUBCHEM_OPENEYE_CAN_SMILES>
CC1(C(=O)N(C(=O)N1)CC(C2=CC=CC=C2)O)C3=C(C=CC(=C3)F)F

> <PUBCHEM_OPENEYE_ISO_SMILES>
CC1(C(=O)N(C(=O)N1)CC(C2=CC=CC=C2)O)C3=C(C=CC(=C3)F)F

> <PUBCHEM_CACTVS_TPSA>
69.6

> <PUBCHEM_MONOISOTOPIC_WEIGHT>
346.112899

> <PUBCHEM_TOTAL_CHARGE>
0

> <PUBCHEM_HEAVY_ATOM_COUNT>
25

> <PUBCHEM_ATOM_DEF_STEREO_COUNT>
0

> <PUBCHEM_ATOM_UDEF_STEREO_COUNT>
2

> <PUBCHEM_BOND_DEF_STEREO_COUNT>
0

> <PUBCHEM_BOND_UDEF_STEREO_COUNT>
0

> <PUBCHEM_ISOTOPIC_ATOM_COUNT>
0

> <PUBCHEM_COMPONENT_COUNT>
1

> <PUBCHEM_CACTVS_TAUTO_COUNT>
2

> <PUBCHEM_COORDINATE_TYPE>
1
5
255

> <PUBCHEM_BONDANNOTATIONS>
10  15  8
10  16  8
15  19  8
16  18  8
17  21  8
17  22  8
18  20  8
19  20  8
21  23  8
22  24  8
23  25  8
24  25  8
14  4  3
8  12  3

$$$$

