43815
  -OEChem-07051212532D

 44 47  0     1  0  0  0  0  0999 V2000
    2.8660   -3.3100    0.0000 F   0  0  0  0  0  0  0  0  0  0  0  0
    5.4641    1.1900    0.0000 O   0  0  0  0  0  0  0  0  0  0  0  0
    9.0084    0.9947    0.0000 O   0  0  0  0  0  0  0  0  0  0  0  0
    9.0084   -0.6147    0.0000 O   0  0  0  0  0  0  0  0  0  0  0  0
    2.8660    2.6900    0.0000 N   0  0  0  0  0  0  0  0  0  0  0  0
    2.8660    0.6900    0.0000 C   0  0  1  0  0  0  0  0  0  0  0  0
    3.7320    1.1900    0.0000 C   0  0  1  0  0  0  0  0  0  0  0  0
    2.0000    1.1900    0.0000 C   0  0  0  0  0  0  0  0  0  0  0  0
    3.7320    2.1900    0.0000 C   0  0  0  0  0  0  0  0  0  0  0  0
    2.0000    2.1900    0.0000 C   0  0  0  0  0  0  0  0  0  0  0  0
    4.5981    0.6900    0.0000 C   0  0  0  0  0  0  0  0  0  0  0  0
    2.8660   -0.3100    0.0000 C   0  0  0  0  0  0  0  0  0  0  0  0
    2.0000   -0.8100    0.0000 C   0  0  0  0  0  0  0  0  0  0  0  0
    3.7320   -0.8100    0.0000 C   0  0  0  0  0  0  0  0  0  0  0  0
    2.0000   -1.8100    0.0000 C   0  0  0  0  0  0  0  0  0  0  0  0
    3.7320   -1.8100    0.0000 C   0  0  0  0  0  0  0  0  0  0  0  0
    6.3301    0.6900    0.0000 C   0  0  0  0  0  0  0  0  0  0  0  0
    2.8660   -2.3100    0.0000 C   0  0  0  0  0  0  0  0  0  0  0  0
    7.1962    1.1900    0.0000 C   0  0  0  0  0  0  0  0  0  0  0  0
    6.3301   -0.3100    0.0000 C   0  0  0  0  0  0  0  0  0  0  0  0
    8.0622    0.6900    0.0000 C   0  0  0  0  0  0  0  0  0  0  0  0
    8.0622   -0.3100    0.0000 C   0  0  0  0  0  0  0  0  0  0  0  0
    7.1962   -0.8100    0.0000 C   0  0  0  0  0  0  0  0  0  0  0  0
    9.5920    0.1900    0.0000 C   0  0  0  0  0  0  0  0  0  0  0  0
    3.4030    0.3800    0.0000 H   0  0  0  0  0  0  0  0  0  0  0  0
    4.2690    1.5000    0.0000 H   0  0  0  0  0  0  0  0  0  0  0  0
    1.3894    1.2977    0.0000 H   0  0  0  0  0  0  0  0  0  0  0  0
    1.7880    0.6074    0.0000 H   0  0  0  0  0  0  0  0  0  0  0  0
    4.3426    2.0823    0.0000 H   0  0  0  0  0  0  0  0  0  0  0  0
    3.9441    2.7726    0.0000 H   0  0  0  0  0  0  0  0  0  0  0  0
    1.7880    2.7726    0.0000 H   0  0  0  0  0  0  0  0  0  0  0  0
    1.3894    2.0823    0.0000 H   0  0  0  0  0  0  0  0  0  0  0  0
    4.1996    0.2151    0.0000 H   0  0  0  0  0  0  0  0  0  0  0  0
    4.9966    0.2151    0.0000 H   0  0  0  0  0  0  0  0  0  0  0  0
    2.8660    3.3100    0.0000 H   0  0  0  0  0  0  0  0  0  0  0  0
    1.4631   -0.5000    0.0000 H   0  0  0  0  0  0  0  0  0  0  0  0
    4.2690   -0.5000    0.0000 H   0  0  0  0  0  0  0  0  0  0  0  0
    1.4631   -2.1200    0.0000 H   0  0  0  0  0  0  0  0  0  0  0  0
    4.2690   -2.1200    0.0000 H   0  0  0  0  0  0  0  0  0  0  0  0
    7.1962    1.8100    0.0000 H   0  0  0  0  0  0  0  0  0  0  0  0
    5.7932   -0.6200    0.0000 H   0  0  0  0  0  0  0  0  0  0  0  0
    7.1962   -1.4300    0.0000 H   0  0  0  0  0  0  0  0  0  0  0  0
   10.0529   -0.2247    0.0000 H   0  0  0  0  0  0  0  0  0  0  0  0
   10.0529    0.6047    0.0000 H   0  0  0  0  0  0  0  0  0  0  0  0
  1 18  1  0  0  0  0
  2 11  1  0  0  0  0
  2 17  1  0  0  0  0
  3 21  1  0  0  0  0
  3 24  1  0  0  0  0
  4 22  1  0  0  0  0
  4 24  1  0  0  0  0
  5  9  1  0  0  0  0
  5 10  1  0  0  0  0
  5 35  1  0  0  0  0
  6  7  1  0  0  0  0
  6  8  1  0  0  0  0
  6 12  1  6  0  0  0
  6 25  1  0  0  0  0
  7  9  1  0  0  0  0
  7 11  1  1  0  0  0
  7 26  1  0  0  0  0
  8 10  1  0  0  0  0
  8 27  1  0  0  0  0
  8 28  1  0  0  0  0
  9 29  1  0  0  0  0
  9 30  1  0  0  0  0
 10 31  1  0  0  0  0
 10 32  1  0  0  0  0
 11 33  1  0  0  0  0
 11 34  1  0  0  0  0
 12 13  2  0  0  0  0
 12 14  1  0  0  0  0
 13 15  1  0  0  0  0
 13 36  1  0  0  0  0
 14 16  2  0  0  0  0
 14 37  1  0  0  0  0
 15 18  2  0  0  0  0
 15 38  1  0  0  0  0
 16 18  1  0  0  0  0
 16 39  1  0  0  0  0
 17 19  2  0  0  0  0
 17 20  1  0  0  0  0
 19 21  1  0  0  0  0
 19 40  1  0  0  0  0
 20 23  2  0  0  0  0
 20 41  1  0  0  0  0
 21 22  2  0  0  0  0
 22 23  1  0  0  0  0
 23 42  1  0  0  0  0
 24 43  1  0  0  0  0
 24 44  1  0  0  0  0
M  END
> <PUBCHEM_COMPOUND_CID>
43815

> <PUBCHEM_COMPOUND_CANONICALIZED>
1

> <PUBCHEM_CACTVS_COMPLEXITY>
402

> <PUBCHEM_CACTVS_HBOND_ACCEPTOR>
5

> <PUBCHEM_CACTVS_HBOND_DONOR>
1

> <PUBCHEM_CACTVS_ROTATABLE_BOND>
4

> <PUBCHEM_CACTVS_SUBSKEYS>
AAADceB6MQAAAAAAAAAAAAAAAAAAASAAAAA8YIAAAAAAAEgBQAAAHwAQAAAADQThmA8wDoLABACAAiBCAAACCAAgIAAIiIAOiIgdJyKEsRqmOCKn0BWOqAfQ8O4OgQAACAAAQAACAAAQAACAAAAAAAAAAA==

> <PUBCHEM_IUPAC_OPENEYE_NAME>
(3S,4R)-3-(1,3-benzodioxol-5-yloxymethyl)-4-(4-fluorophenyl)piperidine

> <PUBCHEM_IUPAC_CAS_NAME>
(3S,4R)-3-(1,3-benzodioxol-5-yloxymethyl)-4-(4-fluorophenyl)piperidine

> <PUBCHEM_IUPAC_NAME>
(3S,4R)-3-(1,3-benzodioxol-5-yloxymethyl)-4-(4-fluorophenyl)piperidine

> <PUBCHEM_IUPAC_SYSTEMATIC_NAME>
(3S,4R)-3-(1,3-benzodioxol-5-yloxymethyl)-4-(4-fluorophenyl)piperidine

> <PUBCHEM_IUPAC_TRADITIONAL_NAME>
(3S,4R)-3-(1,3-benzodioxol-5-yloxymethyl)-4-(4-fluorophenyl)piperidine

> <PUBCHEM_IUPAC_INCHI>
InChI=1S/C19H20FNO3/c20-15-3-1-13(2-4-15)17-7-8-21-10-14(17)11-22-16-5-6-18-19(9-16)24-12-23-18/h1-6,9,14,17,21H,7-8,10-12H2/t14-,17-/m0/s1

> <PUBCHEM_IUPAC_INCHIKEY>
AHOUBRCZNHFOSL-YOEHRIQHSA-N

> <PUBCHEM_XLOGP3_AA>
3.5

> <PUBCHEM_EXACT_MASS>
329.142722

> <PUBCHEM_MOLECULAR_FORMULA>
C19H20FNO3

> <PUBCHEM_MOLECULAR_WEIGHT>
329.365403

> <PUBCHEM_OPENEYE_CAN_SMILES>
C1CNCC(C1C2=CC=C(C=C2)F)COC3=CC4=C(C=C3)OCO4

> <PUBCHEM_OPENEYE_ISO_SMILES>
C1CNC[C@H]([C@@H]1C2=CC=C(C=C2)F)COC3=CC4=C(C=C3)OCO4

> <PUBCHEM_CACTVS_TPSA>
39.7

> <PUBCHEM_MONOISOTOPIC_WEIGHT>
329.142722

> <PUBCHEM_TOTAL_CHARGE>
0

> <PUBCHEM_HEAVY_ATOM_COUNT>
24

> <PUBCHEM_ATOM_DEF_STEREO_COUNT>
2

> <PUBCHEM_ATOM_UDEF_STEREO_COUNT>
0

> <PUBCHEM_BOND_DEF_STEREO_COUNT>
0

> <PUBCHEM_BOND_UDEF_STEREO_COUNT>
0

> <PUBCHEM_ISOTOPIC_ATOM_COUNT>
0

> <PUBCHEM_COMPONENT_COUNT>
1

> <PUBCHEM_CACTVS_TAUTO_COUNT>
1

> <PUBCHEM_COORDINATE_TYPE>
1
5
255

> <PUBCHEM_BONDANNOTATIONS>
12  13  8
12  14  8
13  15  8
14  16  8
15  18  8
16  18  8
17  19  8
17  20  8
19  21  8
20  23  8
21  22  8
22  23  8
6  12  6
7  11  5

$$$$

