12194
  -OEChem-06261206393D

 20 19  0     0  0  0  0  0  0999 V2000
   -0.0051   -1.0086    0.0004 O   0  0  0  0  0  0  0  0  0  0  0  0
    1.1486    1.0063    0.0000 N   0  0  0  0  0  0  0  0  0  0  0  0
   -1.1499    1.0095    0.0001 N   0  0  0  0  0  0  0  0  0  0  0  0
    2.4830    0.4529    0.0000 C   0  0  0  0  0  0  0  0  0  0  0  0
   -2.4818    0.4514    0.0000 C   0  0  0  0  0  0  0  0  0  0  0  0
   -0.0017    0.2217   -0.0001 C   0  0  0  0  0  0  0  0  0  0  0  0
    2.4475   -1.0659   -0.0002 C   0  0  0  0  0  0  0  0  0  0  0  0
   -2.4406   -1.0673   -0.0002 C   0  0  0  0  0  0  0  0  0  0  0  0
    2.9997    0.8318   -0.8870 H   0  0  0  0  0  0  0  0  0  0  0  0
    2.9997    0.8316    0.8870 H   0  0  0  0  0  0  0  0  0  0  0  0
   -3.0001    0.8282    0.8870 H   0  0  0  0  0  0  0  0  0  0  0  0
   -3.0000    0.8283   -0.8870 H   0  0  0  0  0  0  0  0  0  0  0  0
    1.0492    2.0166   -0.0001 H   0  0  0  0  0  0  0  0  0  0  0  0
   -1.0510    2.0198   -0.0002 H   0  0  0  0  0  0  0  0  0  0  0  0
    2.0031   -1.4847    0.9087 H   0  0  0  0  0  0  0  0  0  0  0  0
    2.0028   -1.4846   -0.9090 H   0  0  0  0  0  0  0  0  0  0  0  0
    3.4849   -1.4248   -0.0004 H   0  0  0  0  0  0  0  0  0  0  0  0
   -1.9983   -1.4860   -0.9102 H   0  0  0  0  0  0  0  0  0  0  0  0
   -1.9986   -1.4861    0.9099 H   0  0  0  0  0  0  0  0  0  0  0  0
   -3.4777   -1.4277   -0.0004 H   0  0  0  0  0  0  0  0  0  0  0  0
  1  6  2  0  0  0  0
  2  4  1  0  0  0  0
  2  6  1  0  0  0  0
  2 13  1  0  0  0  0
  3  5  1  0  0  0  0
  3  6  1  0  0  0  0
  3 14  1  0  0  0  0
  4  7  1  0  0  0  0
  4  9  1  0  0  0  0
  4 10  1  0  0  0  0
  5  8  1  0  0  0  0
  5 11  1  0  0  0  0
  5 12  1  0  0  0  0
  7 15  1  0  0  0  0
  7 16  1  0  0  0  0
  7 17  1  0  0  0  0
  8 18  1  0  0  0  0
  8 19  1  0  0  0  0
  8 20  1  0  0  0  0
M  END
> <PUBCHEM_COMPOUND_CID>
12194

> <PUBCHEM_CONFORMER_RMSD>
0.6

> <PUBCHEM_CONFORMER_DIVERSEORDER>
1

> <PUBCHEM_MMFF94_PARTIAL_CHARGES>
8
1 -0.57
13 0.37
14 0.37
2 -0.73
3 -0.73
4 0.3
5 0.3
6 0.69

> <PUBCHEM_EFFECTIVE_ROTOR_COUNT>
4

> <PUBCHEM_PHARMACOPHORE_FEATURES>
3
1 1 acceptor
1 2 donor
1 3 donor

> <PUBCHEM_HEAVY_ATOM_COUNT>
8

> <PUBCHEM_ATOM_DEF_STEREO_COUNT>
0

> <PUBCHEM_ATOM_UDEF_STEREO_COUNT>
0

> <PUBCHEM_BOND_DEF_STEREO_COUNT>
0

> <PUBCHEM_BOND_UDEF_STEREO_COUNT>
0

> <PUBCHEM_ISOTOPIC_ATOM_COUNT>
0

> <PUBCHEM_COMPONENT_COUNT>
1

> <PUBCHEM_CACTVS_TAUTO_COUNT>
2

> <PUBCHEM_CONFORMER_ID>
00002FA200000001

> <PUBCHEM_MMFF94_ENERGY>
20.7834

> <PUBCHEM_FEATURE_SELFOVERLAP>
15.274

> <PUBCHEM_SHAPE_FINGERPRINT>
10857977 72 18336557022806757753
14325111 11 18410573980861888512
16714656 1 18411138021932051965
21040471 1 18410855430348266304
23552423 10 18272930514021851702
29004967 10 16081082675621200940
5084963 1 18413389834430373920
5460574 1 9223234048266952128

> <PUBCHEM_SHAPE_MULTIPOLES>
148.8
4.22
1.27
0.58
0.02
0.17
0
0.62
0
0
0
0
0.01
0

> <PUBCHEM_SHAPE_SELFOVERLAP>
272.429

> <PUBCHEM_SHAPE_VOLUME>
95

> <PUBCHEM_COORDINATE_TYPE>
2
5
10

$$$$

