54675771
  -OEChem-07051212503D

 25 25  0     0  0  0  0  0  0999 V2000
   -0.0950   -2.1412    0.0497 O   0  0  0  0  0  0  0  0  0  0  0  0
   -0.4917    2.6206   -0.0423 O   0  0  0  0  0  0  0  0  0  0  0  0
   -4.6758   -1.4488   -0.0082 O   0  0  0  0  0  0  0  0  0  0  0  0
    4.2301   -1.8845    0.0846 O   0  0  0  0  0  0  0  0  0  0  0  0
   -5.1711    0.7834   -0.0546 O   0  0  0  0  0  0  0  0  0  0  0  0
    4.9893    0.6570   -1.0284 O   0  0  0  0  0  0  0  0  0  0  0  0
    4.0566    1.3747    0.9121 O   0  0  0  0  0  0  0  0  0  0  0  0
   -2.1412   -1.0970    0.0101 N   0  0  0  0  0  0  0  0  0  0  0  0
   -0.1405    0.2488    0.0047 C   0  0  0  0  0  0  0  0  0  0  0  0
   -2.9160    0.0330   -0.0184 C   0  0  0  0  0  0  0  0  0  0  0  0
   -0.7594   -1.1087    0.0239 C   0  0  0  0  0  0  0  0  0  0  0  0
   -0.9619    1.4897   -0.0260 C   0  0  0  0  0  0  0  0  0  0  0  0
   -2.4272    1.2766   -0.0365 C   0  0  0  0  0  0  0  0  0  0  0  0
    1.1950    0.3574    0.0155 C   0  0  0  0  0  0  0  0  0  0  0  0
    2.0796   -0.7889    0.0451 C   0  0  0  0  0  0  0  0  0  0  0  0
   -4.3706   -0.1343   -0.0298 C   0  0  0  0  0  0  0  0  0  0  0  0
    3.4268   -0.7616    0.0575 C   0  0  0  0  0  0  0  0  0  0  0  0
    4.1733    0.5240    0.0408 C   0  0  0  0  0  0  0  0  0  0  0  0
   -2.6205   -1.9931    0.0220 H   0  0  0  0  0  0  0  0  0  0  0  0
   -3.0501    2.1640   -0.0590 H   0  0  0  0  0  0  0  0  0  0  0  0
    1.6531    1.3412   -0.0079 H   0  0  0  0  0  0  0  0  0  0  0  0
    1.7761   -1.8168    0.0615 H   0  0  0  0  0  0  0  0  0  0  0  0
   -5.6447   -1.6026   -0.0148 H   0  0  0  0  0  0  0  0  0  0  0  0
    5.1572   -1.5900    0.0870 H   0  0  0  0  0  0  0  0  0  0  0  0
    5.4711    1.5114   -1.0194 H   0  0  0  0  0  0  0  0  0  0  0  0
  1 11  2  0  0  0  0
  2 12  2  0  0  0  0
  3 16  1  0  0  0  0
  3 23  1  0  0  0  0
  4 17  1  0  0  0  0
  4 24  1  0  0  0  0
  5 16  2  0  0  0  0
  6 18  1  0  0  0  0
  6 25  1  0  0  0  0
  7 18  2  0  0  0  0
  8 10  1  0  0  0  0
  8 11  1  0  0  0  0
  8 19  1  0  0  0  0
  9 11  1  0  0  0  0
  9 12  1  0  0  0  0
  9 14  2  0  0  0  0
 10 13  2  0  0  0  0
 10 16  1  0  0  0  0
 12 13  1  0  0  0  0
 13 20  1  0  0  0  0
 14 15  1  0  0  0  0
 14 21  1  0  0  0  0
 15 17  2  0  0  0  0
 15 22  1  0  0  0  0
 17 18  1  0  0  0  0
M  END
> <PUBCHEM_COMPOUND_CID>
54675771

> <PUBCHEM_CONFORMER_RMSD>
0.6

> <PUBCHEM_CONFORMER_DIVERSEORDER>
1
2

> <PUBCHEM_MMFF94_PARTIAL_CHARGES>
25
1 -0.57
10 0.12
11 0.62
12 0.54
13 -0.14
14 -0.15
15 -0.15
16 0.71
17 0.09
18 0.71
19 0.37
2 -0.57
20 0.15
21 0.15
22 0.15
23 0.5
24 0.45
25 0.5
3 -0.65
4 -0.53
5 -0.57
6 -0.65
7 -0.57
8 -0.54
9 0.03

> <PUBCHEM_EFFECTIVE_ROTOR_COUNT>
3.2

> <PUBCHEM_PHARMACOPHORE_FEATURES>
12
1 1 acceptor
1 2 acceptor
1 3 acceptor
1 4 donor
1 5 acceptor
1 6 acceptor
1 7 acceptor
1 8 donor
1 9 anion
3 3 5 16 anion
3 6 7 18 anion
6 8 9 10 11 12 13 rings

> <PUBCHEM_HEAVY_ATOM_COUNT>
18

> <PUBCHEM_ATOM_DEF_STEREO_COUNT>
0

> <PUBCHEM_ATOM_UDEF_STEREO_COUNT>
0

> <PUBCHEM_BOND_DEF_STEREO_COUNT>
2

> <PUBCHEM_BOND_UDEF_STEREO_COUNT>
0

> <PUBCHEM_ISOTOPIC_ATOM_COUNT>
0

> <PUBCHEM_COMPONENT_COUNT>
1

> <PUBCHEM_CACTVS_TAUTO_COUNT>
17

> <PUBCHEM_CONFORMER_ID>
0342493B00000001

> <PUBCHEM_MMFF94_ENERGY>
59.5493

> <PUBCHEM_FEATURE_SELFOVERLAP>
61.005

> <PUBCHEM_SHAPE_FINGERPRINT>
11401426 45 18411984659208184789
11680986 33 18051693248554744337
12032990 46 18411135840299805083
12236239 1 17775567529088677628
12403259 226 18266182914768952116
12916754 54 18263360451061058610
13533116 47 17274832401832825514
13862211 1 18410299103408949991
15196674 1 18410856581336302075
15536298 74 18408323298056107418
200 152 18113905961833313023
20510252 161 18334858367473184913
20645477 70 18336826493914904582
21029758 11 18335424556364801041
21029758 27 18271802389754654917
21267235 1 18411411847867764794
21652331 79 18410857663847525636
23402539 116 18334583438385134583
23557571 272 18261102002601439868
23559900 14 18409450289248594610
34934 24 18338241466394631050
350125 39 18268430303703932906
3545911 37 18412262831534399380
43471831 8 18199472232343858363
4463277 17 18411417324251617641
474 4 17202754900880085948
5104073 3 18410575127623328330
5374978 207 18411989070049920808
537710 114 18412822469467071124
69090 78 18334299759816050102
9709674 26 18337385049884757878

> <PUBCHEM_SHAPE_MULTIPOLES>
324.37
10.13
1.97
0.66
1.21
0.18
-0.01
-0.41
-0.46
0.09
0.07
0.39
0.09
0.06

> <PUBCHEM_SHAPE_SELFOVERLAP>
688.678

> <PUBCHEM_SHAPE_VOLUME>
177.5

> <PUBCHEM_COORDINATE_TYPE>
2
5
10

$$$$

