11384
  -OEChem-06261205363D

 25 27  0     0  0  0  0  0  0999 V2000
   -0.4261    1.4243    0.0001 N   0  0  0  0  0  0  0  0  0  0  0  0
    4.6297   -0.9312    0.0005 N   0  0  0  0  0  0  0  0  0  0  0  0
    0.9312   -0.5623   -0.0002 C   0  0  0  0  0  0  0  0  0  0  0  0
   -1.4921   -0.7326   -0.0001 C   0  0  0  0  0  0  0  0  0  0  0  0
    0.7852    0.8353   -0.0001 C   0  0  0  0  0  0  0  0  0  0  0  0
   -1.5432    0.6715    0.0000 C   0  0  0  0  0  0  0  0  0  0  0  0
   -0.2319   -1.3389   -0.0001 C   0  0  0  0  0  0  0  0  0  0  0  0
    2.2105   -1.1449   -0.0002 C   0  0  0  0  0  0  0  0  0  0  0  0
    1.9395    1.6140    0.0000 C   0  0  0  0  0  0  0  0  0  0  0  0
    3.3487   -0.3439   -0.0001 C   0  0  0  0  0  0  0  0  0  0  0  0
   -2.6774   -1.4887    0.0000 C   0  0  0  0  0  0  0  0  0  0  0  0
   -2.7951    1.2810    0.0001 C   0  0  0  0  0  0  0  0  0  0  0  0
    3.2124    1.0383   -0.0001 C   0  0  0  0  0  0  0  0  0  0  0  0
   -3.9164   -0.8549    0.0001 C   0  0  0  0  0  0  0  0  0  0  0  0
   -3.9750    0.5329    0.0001 C   0  0  0  0  0  0  0  0  0  0  0  0
   -0.1556   -2.4256   -0.0001 H   0  0  0  0  0  0  0  0  0  0  0  0
    2.3136   -2.2287    0.0000 H   0  0  0  0  0  0  0  0  0  0  0  0
    1.8589    2.6995    0.0001 H   0  0  0  0  0  0  0  0  0  0  0  0
   -2.6410   -2.5758    0.0000 H   0  0  0  0  0  0  0  0  0  0  0  0
   -2.8675    2.3672    0.0001 H   0  0  0  0  0  0  0  0  0  0  0  0
    4.0870    1.6838    0.0001 H   0  0  0  0  0  0  0  0  0  0  0  0
   -4.8301   -1.4412    0.0001 H   0  0  0  0  0  0  0  0  0  0  0  0
   -4.9367    1.0375    0.0002 H   0  0  0  0  0  0  0  0  0  0  0  0
    5.4548   -0.3463   -0.0006 H   0  0  0  0  0  0  0  0  0  0  0  0
    4.7255   -1.9379   -0.0007 H   0  0  0  0  0  0  0  0  0  0  0  0
  1  5  2  0  0  0  0
  1  6  1  0  0  0  0
  2 10  1  0  0  0  0
  2 24  1  0  0  0  0
  2 25  1  0  0  0  0
  3  5  1  0  0  0  0
  3  7  2  0  0  0  0
  3  8  1  0  0  0  0
  4  6  1  0  0  0  0
  4  7  1  0  0  0  0
  4 11  2  0  0  0  0
  5  9  1  0  0  0  0
  6 12  2  0  0  0  0
  7 16  1  0  0  0  0
  8 10  2  0  0  0  0
  8 17  1  0  0  0  0
  9 13  2  0  0  0  0
  9 18  1  0  0  0  0
 10 13  1  0  0  0  0
 11 14  1  0  0  0  0
 11 19  1  0  0  0  0
 12 15  1  0  0  0  0
 12 20  1  0  0  0  0
 13 21  1  0  0  0  0
 14 15  2  0  0  0  0
 14 22  1  0  0  0  0
 15 23  1  0  0  0  0
M  END
> <PUBCHEM_COMPOUND_CID>
11384

> <PUBCHEM_CONFORMER_RMSD>
0.4

> <PUBCHEM_CONFORMER_DIVERSEORDER>
1

> <PUBCHEM_MMFF94_PARTIAL_CHARGES>
23
1 -0.62
10 0.1
11 -0.15
12 -0.15
13 -0.15
14 -0.15
15 -0.15
16 0.15
17 0.15
18 0.15
19 0.15
2 -0.9
20 0.15
21 0.15
22 0.15
23 0.15
24 0.4
25 0.4
5 0.31
6 0.31
7 -0.15
8 -0.15
9 -0.15

> <PUBCHEM_EFFECTIVE_ROTOR_COUNT>
0

> <PUBCHEM_PHARMACOPHORE_FEATURES>
6
1 1 acceptor
1 2 cation
1 2 donor
6 1 3 4 5 6 7 rings
6 3 5 8 9 10 13 rings
6 4 6 11 12 14 15 rings

> <PUBCHEM_HEAVY_ATOM_COUNT>
15

> <PUBCHEM_ATOM_DEF_STEREO_COUNT>
0

> <PUBCHEM_ATOM_UDEF_STEREO_COUNT>
0

> <PUBCHEM_BOND_DEF_STEREO_COUNT>
0

> <PUBCHEM_BOND_UDEF_STEREO_COUNT>
0

> <PUBCHEM_ISOTOPIC_ATOM_COUNT>
0

> <PUBCHEM_COMPONENT_COUNT>
1

> <PUBCHEM_CACTVS_TAUTO_COUNT>
1

> <PUBCHEM_CONFORMER_ID>
00002C7800000001

> <PUBCHEM_MMFF94_ENERGY>
57.0654

> <PUBCHEM_FEATURE_SELFOVERLAP>
30.507

> <PUBCHEM_SHAPE_FINGERPRINT>
10062212 137 18409175415114774723
10608611 8 18410578366182045609
10967382 1 18410855490219397575
11132069 177 18409455777536356040
11471102 20 18410578366113116724
12032990 46 18411415094424956835
12251169 10 18410012151900082803
13221675 6 18411420613431623387
13288520 33 18336825385786526678
13296908 3 18410575058898569387
13380535 76 18409728473716354367
13690532 89 18411701010677406914
14115302 16 17845924174080023662
14144814 61 18410856559787521753
14325111 11 18410575063309795585
15196674 1 18410855442958907077
15219456 202 18409169878748696088
15442244 35 18266177421036223818
15536298 74 18334858286264197984
16945 1 18338797952079354501
17802600 8 18410860962028903173
17804303 29 18409163316080859324
18186145 218 17846505815562091047
18522853 276 18334859420024749016
19422 9 18412259510722910749
200 152 18040442079285356719
20201158 50 18409165532257720703
20510252 161 18260265261156791041
20645477 70 18408323284918401030
21267235 1 18411129238618845811
21501502 16 18338795619869927837
21501925 9 18410582768749903290
221490 88 18269548347661975666
2255824 54 17988923345411552186
2334 1 18338797801813540909
23402539 116 18187373142330623101
23402655 69 18408608080168439133
23463225 33 18412545409510622548
23559900 14 18334861606537837416
2748010 2 18410857624944763853
335352 9 18338799038684942845
474 4 16915371096941928156
5104073 3 18410292488705231704
528886 8 18410016532782581627
69090 78 18333455326591278839
7364860 26 18263082120069506552
77779 3 18411417293400661652
8809292 202 18272365339296730187
9709674 26 18409724041252297078
9981440 41 17405147327279534080

> <PUBCHEM_SHAPE_MULTIPOLES>
298.73
7.41
1.7
0.61
0.93
0.13
0
-0.85
0
-0.01
0
-0.02
0
0

> <PUBCHEM_SHAPE_SELFOVERLAP>
677.756

> <PUBCHEM_SHAPE_VOLUME>
155.5

> <PUBCHEM_COORDINATE_TYPE>
2
5
10

$$$$

