854064
  -OEChem-06241222473D

 40 42  0     1  0  0  0  0  0999 V2000
    1.0652    2.9295   -0.5593 O   0  0  0  0  0  0  0  0  0  0  0  0
    0.5129    0.9114    0.5131 N   0  0  0  0  0  0  0  0  0  0  0  0
    3.3532    3.0829    0.8966 N   0  0  0  0  0  0  0  0  0  0  0  0
    2.7943    1.7530    0.6432 C   0  0  2  0  0  0  0  0  0  0  0  0
    3.6459    0.9974   -0.3892 C   0  0  0  0  0  0  0  0  0  0  0  0
    3.4513   -0.4996   -0.3317 C   0  0  0  0  0  0  0  0  0  0  0  0
    1.3665    1.9587    0.1304 C   0  0  0  0  0  0  0  0  0  0  0  0
   -0.8450    0.7571    0.2315 C   0  0  0  0  0  0  0  0  0  0  0  0
   -2.8983   -0.5332    0.4257 C   0  0  0  0  0  0  0  0  0  0  0  0
   -3.5779    0.4461   -0.3373 C   0  0  0  0  0  0  0  0  0  0  0  0
   -1.5319   -0.3626    0.7015 C   0  0  0  0  0  0  0  0  0  0  0  0
   -1.5133    1.7199   -0.5188 C   0  0  0  0  0  0  0  0  0  0  0  0
   -2.8708    1.5669   -0.8021 C   0  0  0  0  0  0  0  0  0  0  0  0
    4.2620   -1.2578    0.4973 C   0  0  0  0  0  0  0  0  0  0  0  0
    2.4660   -1.0859   -1.1094 C   0  0  0  0  0  0  0  0  0  0  0  0
   -3.6055   -1.6539    0.8910 C   0  0  0  0  0  0  0  0  0  0  0  0
   -4.9444    0.2754   -0.6131 C   0  0  0  0  0  0  0  0  0  0  0  0
    4.0826   -2.6401    0.5500 C   0  0  0  0  0  0  0  0  0  0  0  0
    2.2863   -2.4681   -1.0565 C   0  0  0  0  0  0  0  0  0  0  0  0
   -4.9628   -1.8073    0.6074 C   0  0  0  0  0  0  0  0  0  0  0  0
   -5.6310   -0.8446   -0.1434 C   0  0  0  0  0  0  0  0  0  0  0  0
    3.0948   -3.2452   -0.2268 C   0  0  0  0  0  0  0  0  0  0  0  0
    2.7728    1.2171    1.5993 H   0  0  0  0  0  0  0  0  0  0  0  0
    3.4372    1.3557   -1.4066 H   0  0  0  0  0  0  0  0  0  0  0  0
    4.7120    1.2056   -0.2214 H   0  0  0  0  0  0  0  0  0  0  0  0
    0.9226    0.1678    1.0742 H   0  0  0  0  0  0  0  0  0  0  0  0
   -1.0014   -1.1120    1.2873 H   0  0  0  0  0  0  0  0  0  0  0  0
   -1.0527    2.6136   -0.9155 H   0  0  0  0  0  0  0  0  0  0  0  0
    2.7547    3.5936    1.5443 H   0  0  0  0  0  0  0  0  0  0  0  0
    3.3773    3.6222    0.0321 H   0  0  0  0  0  0  0  0  0  0  0  0
   -3.3742    2.3318   -1.3901 H   0  0  0  0  0  0  0  0  0  0  0  0
    5.0321   -0.7956    1.1081 H   0  0  0  0  0  0  0  0  0  0  0  0
    1.8362   -0.4923   -1.7656 H   0  0  0  0  0  0  0  0  0  0  0  0
   -3.1036   -2.4191    1.4795 H   0  0  0  0  0  0  0  0  0  0  0  0
   -5.4870    1.0154   -1.1979 H   0  0  0  0  0  0  0  0  0  0  0  0
    4.7115   -3.2452    1.1965 H   0  0  0  0  0  0  0  0  0  0  0  0
    1.5180   -2.9394   -1.6624 H   0  0  0  0  0  0  0  0  0  0  0  0
   -5.4980   -2.6789    0.9730 H   0  0  0  0  0  0  0  0  0  0  0  0
   -6.6877   -0.9647   -0.3638 H   0  0  0  0  0  0  0  0  0  0  0  0
    2.9550   -4.3215   -0.1858 H   0  0  0  0  0  0  0  0  0  0  0  0
  1  7  2  0  0  0  0
  2  7  1  0  0  0  0
  2  8  1  0  0  0  0
  2 26  1  0  0  0  0
  3  4  1  0  0  0  0
  3 29  1  0  0  0  0
  3 30  1  0  0  0  0
  4  5  1  0  0  0  0
  4  7  1  0  0  0  0
  4 23  1  0  0  0  0
  5  6  1  0  0  0  0
  5 24  1  0  0  0  0
  5 25  1  0  0  0  0
  6 14  2  0  0  0  0
  6 15  1  0  0  0  0
  8 11  2  0  0  0  0
  8 12  1  0  0  0  0
  9 10  1  0  0  0  0
  9 11  1  0  0  0  0
  9 16  2  0  0  0  0
 10 13  1  0  0  0  0
 10 17  2  0  0  0  0
 11 27  1  0  0  0  0
 12 13  2  0  0  0  0
 12 28  1  0  0  0  0
 13 31  1  0  0  0  0
 14 18  1  0  0  0  0
 14 32  1  0  0  0  0
 15 19  2  0  0  0  0
 15 33  1  0  0  0  0
 16 20  1  0  0  0  0
 16 34  1  0  0  0  0
 17 21  1  0  0  0  0
 17 35  1  0  0  0  0
 18 22  2  0  0  0  0
 18 36  1  0  0  0  0
 19 22  1  0  0  0  0
 19 37  1  0  0  0  0
 20 21  2  0  0  0  0
 20 38  1  0  0  0  0
 21 39  1  0  0  0  0
 22 40  1  0  0  0  0
M  END
> <PUBCHEM_COMPOUND_CID>
854064

> <PUBCHEM_CONFORMER_RMSD>
0.8

> <PUBCHEM_CONFORMER_DIVERSEORDER>
1
12
14
29
35
23
26
3
32
37
33
2
24
21
38
8
25
27
13
4
17
31
6
28
30
22
15
10
20
16
5
9
19
18
11
36
7
34

> <PUBCHEM_MMFF94_PARTIAL_CHARGES>
35
1 -0.57
11 -0.15
12 -0.15
13 -0.15
14 -0.15
15 -0.15
16 -0.15
17 -0.15
18 -0.15
19 -0.15
2 -0.55
20 -0.15
21 -0.15
22 -0.15
26 0.37
27 0.15
28 0.15
29 0.36
3 -0.99
30 0.36
31 0.15
32 0.15
33 0.15
34 0.15
35 0.15
36 0.15
37 0.15
38 0.15
39 0.15
4 0.33
40 0.15
5 0.14
6 -0.14
7 0.57
8 0.12

> <PUBCHEM_EFFECTIVE_ROTOR_COUNT>
5

> <PUBCHEM_PHARMACOPHORE_FEATURES>
7
1 1 acceptor
1 2 donor
1 3 cation
1 3 donor
6 6 14 15 18 19 22 rings
6 8 9 10 11 12 13 rings
6 9 10 16 17 20 21 rings

> <PUBCHEM_HEAVY_ATOM_COUNT>
22

> <PUBCHEM_ATOM_DEF_STEREO_COUNT>
1

> <PUBCHEM_ATOM_UDEF_STEREO_COUNT>
0

> <PUBCHEM_BOND_DEF_STEREO_COUNT>
0

> <PUBCHEM_BOND_UDEF_STEREO_COUNT>
0

> <PUBCHEM_ISOTOPIC_ATOM_COUNT>
0

> <PUBCHEM_COMPONENT_COUNT>
1

> <PUBCHEM_CACTVS_TAUTO_COUNT>
2

> <PUBCHEM_CONFORMER_ID>
000D083000000001

> <PUBCHEM_MMFF94_ENERGY>
63.4477

> <PUBCHEM_FEATURE_SELFOVERLAP>
35.546

> <PUBCHEM_SHAPE_FINGERPRINT>
10366900 7 18341597218790214814
11405975 8 18335418010866329609
114674 6 18413388718140037866
11963148 33 17981329984756395891
12107183 9 18045206400708145777
12363563 72 18266167512699893006
12553582 1 18047452694299559386
12596602 18 16153993443685861707
13402501 40 18341892982964974170
13533116 47 18187082828485388049
13955234 65 18261959527076472880
14251757 17 18343023306883011947
14341114 328 14490776566841264858
14848160 33 18335138738838459718
14863182 85 18268987579847833628
14866123 147 17760929945378660001
14910302 57 17989216966365937333
15352361 1 18339642355614037638
15635459 17 18411976953567552362
15664445 248 17418089876038830268
15848702 151 18411980244003007457
17818456 19 17460577354894248089
20403669 9 18411697729301657615
20567600 70 18342182223754480186
20645477 70 18410576167258711608
21033650 10 16486413329285809717
21197605 99 18048031870112781331
21279426 13 18270970158568972949
21285901 2 18060707165017179685
21315764 371 16081668723956850215
221490 88 18412260649068650746
22224240 67 18043260029120298896
23557571 272 17703798019718788029
23559900 14 18343582932115118501
3004659 81 18059855112393940942
33824 294 18335420119663291872
3421961 26 18409451388412244848
345986 75 17749103426426824201
38695281 34 17624681372289945372
463206 1 18262802848126162751
5104073 3 18335417980716981129
5309563 4 18408600344599964517
621550 34 18267313036122939676
6433294 58 18411134723244954354
7399639 24 18266752285314093148
9709674 26 18271805666798650275

> <PUBCHEM_SHAPE_MULTIPOLES>
436.92
11.38
3.51
0.98
8.39
0.08
0.05
-5.74
-0.32
-4.09
-0.13
-0.11
-0.1
1.36

> <PUBCHEM_SHAPE_SELFOVERLAP>
951.085

> <PUBCHEM_SHAPE_VOLUME>
236.9

> <PUBCHEM_COORDINATE_TYPE>
2
5
10

$$$$

