13400
  -OEChem-06261209393D

 22 22  0     1  0  0  0  0  0999 V2000
   -0.1579   -2.0549   -0.2252 O   0  0  0  0  0  0  0  0  0  0  0  0
   -2.0555    0.0805   -1.2403 O   0  0  0  0  0  0  0  0  0  0  0  0
   -0.3342    0.2712    0.3990 C   0  0  2  0  0  0  0  0  0  0  0  0
    0.3839    1.4395   -0.2769 C   0  0  0  0  0  0  0  0  0  0  0  0
    1.8641    1.4907    0.0979 C   0  0  0  0  0  0  0  0  0  0  0  0
    2.5637    0.1797   -0.2524 C   0  0  0  0  0  0  0  0  0  0  0  0
    1.8969   -1.0111    0.4212 C   0  0  0  0  0  0  0  0  0  0  0  0
    0.4128   -1.0237    0.1268 C   0  0  0  0  0  0  0  0  0  0  0  0
   -1.7600    0.2347   -0.0562 C   0  0  0  0  0  0  0  0  0  0  0  0
   -2.8138    0.3934    1.0061 C   0  0  0  0  0  0  0  0  0  0  0  0
   -0.3181    0.4155    1.4868 H   0  0  0  0  0  0  0  0  0  0  0  0
   -0.0958    2.3855    0.0030 H   0  0  0  0  0  0  0  0  0  0  0  0
    0.2984    1.3596   -1.3688 H   0  0  0  0  0  0  0  0  0  0  0  0
    1.9676    1.6911    1.1713 H   0  0  0  0  0  0  0  0  0  0  0  0
    2.3485    2.3184   -0.4322 H   0  0  0  0  0  0  0  0  0  0  0  0
    3.6165    0.2308    0.0467 H   0  0  0  0  0  0  0  0  0  0  0  0
    2.5444    0.0422   -1.3409 H   0  0  0  0  0  0  0  0  0  0  0  0
    2.0284   -0.9721    1.5079 H   0  0  0  0  0  0  0  0  0  0  0  0
    2.3432   -1.9427    0.0577 H   0  0  0  0  0  0  0  0  0  0  0  0
   -2.7266   -0.4176    1.7334 H   0  0  0  0  0  0  0  0  0  0  0  0
   -2.6939    1.3606    1.5004 H   0  0  0  0  0  0  0  0  0  0  0  0
   -3.8062    0.3518    0.5488 H   0  0  0  0  0  0  0  0  0  0  0  0
  1  8  2  0  0  0  0
  2  9  2  0  0  0  0
  3  4  1  0  0  0  0
  3  8  1  0  0  0  0
  3  9  1  0  0  0  0
  3 11  1  0  0  0  0
  4  5  1  0  0  0  0
  4 12  1  0  0  0  0
  4 13  1  0  0  0  0
  5  6  1  0  0  0  0
  5 14  1  0  0  0  0
  5 15  1  0  0  0  0
  6  7  1  0  0  0  0
  6 16  1  0  0  0  0
  6 17  1  0  0  0  0
  7  8  1  0  0  0  0
  7 18  1  0  0  0  0
  7 19  1  0  0  0  0
  9 10  1  0  0  0  0
 10 20  1  0  0  0  0
 10 21  1  0  0  0  0
 10 22  1  0  0  0  0
M  END
> <PUBCHEM_COMPOUND_CID>
13400

> <PUBCHEM_CONFORMER_RMSD>
0.4

> <PUBCHEM_CONFORMER_DIVERSEORDER>
1
17
20
18
4
8
10
3
16
14
5
22
2
12
13
9
11
6
7
19
21
15

> <PUBCHEM_MMFF94_PARTIAL_CHARGES>
7
1 -0.57
10 0.06
2 -0.57
3 0.12
7 0.06
8 0.45
9 0.45

> <PUBCHEM_EFFECTIVE_ROTOR_COUNT>
2

> <PUBCHEM_PHARMACOPHORE_FEATURES>
4
1 1 acceptor
1 2 acceptor
1 3 anion
6 3 4 5 6 7 8 rings

> <PUBCHEM_HEAVY_ATOM_COUNT>
10

> <PUBCHEM_ATOM_DEF_STEREO_COUNT>
0

> <PUBCHEM_ATOM_UDEF_STEREO_COUNT>
1

> <PUBCHEM_BOND_DEF_STEREO_COUNT>
0

> <PUBCHEM_BOND_UDEF_STEREO_COUNT>
0

> <PUBCHEM_ISOTOPIC_ATOM_COUNT>
0

> <PUBCHEM_COMPONENT_COUNT>
1

> <PUBCHEM_CACTVS_TAUTO_COUNT>
8

> <PUBCHEM_CONFORMER_ID>
0000345800000001

> <PUBCHEM_MMFF94_ENERGY>
8.8174

> <PUBCHEM_FEATURE_SELFOVERLAP>
20.298

> <PUBCHEM_SHAPE_FINGERPRINT>
10219947 1 18340198678422060057
10857977 72 16916777457975393465
12423570 1 15153831719231562976
15310529 11 16917067750472502876
16945 1 18412268341455226688
18185500 45 18189625010499859343
21040471 1 18339080372149362872
23235685 24 18409725149448343744
23552423 10 18055355734629407406
2748010 2 18123185710816748958
29004967 10 18271801388615584521
5084963 1 18187660088737011373
528862 383 18342454841785348587
528886 8 18409729581706809353

> <PUBCHEM_SHAPE_MULTIPOLES>
194.06
3.58
1.62
0.87
0.96
0.32
-0.06
-0.56
0.36
-0.64
-0.05
0.46
-0.03
-0.16

> <PUBCHEM_SHAPE_SELFOVERLAP>
385.712

> <PUBCHEM_SHAPE_VOLUME>
114

> <PUBCHEM_COORDINATE_TYPE>
2
5
10

$$$$

