442723
  -OEChem-07051212592D

 26 27  0     0  0  0  0  0  0999 V2000
    3.7320   -1.8419    0.0000 O   0  0  0  0  0  0  0  0  0  0  0  0
    5.4804   -1.8765    0.0000 O   0  0  0  0  0  0  0  0  0  0  0  0
    3.7320    2.1581    0.0000 O   0  0  0  0  0  0  0  0  0  0  0  0
    2.0000    1.1581    0.0000 O   0  0  0  0  0  0  0  0  0  0  0  0
    4.5981    0.6581    0.0000 C   0  0  0  0  0  0  0  0  0  0  0  0
    4.5981   -0.3419    0.0000 C   0  0  0  0  0  0  0  0  0  0  0  0
    5.4920    1.1928    0.0000 C   0  0  0  0  0  0  0  0  0  0  0  0
    3.7320   -0.8419    0.0000 C   0  0  0  0  0  0  0  0  0  0  0  0
    2.8660   -0.3419    0.0000 C   0  0  0  0  0  0  0  0  0  0  0  0
    3.7320    1.1581    0.0000 C   0  0  0  0  0  0  0  0  0  0  0  0
    5.4920   -0.8766    0.0000 C   0  0  0  0  0  0  0  0  0  0  0  0
    2.8660    0.6581    0.0000 C   0  0  0  0  0  0  0  0  0  0  0  0
    6.3981    0.6789    0.0000 C   0  0  0  0  0  0  0  0  0  0  0  0
    6.3981   -0.3627    0.0000 C   0  0  0  0  0  0  0  0  0  0  0  0
    5.4804    2.1927    0.0000 C   0  0  0  0  0  0  0  0  0  0  0  0
    2.0000   -0.8419    0.0000 C   0  0  0  0  0  0  0  0  0  0  0  0
    6.9338    0.9910    0.0000 H   0  0  0  0  0  0  0  0  0  0  0  0
    6.9338   -0.6748    0.0000 H   0  0  0  0  0  0  0  0  0  0  0  0
    6.1004    2.1999    0.0000 H   0  0  0  0  0  0  0  0  0  0  0  0
    5.4733    2.8126    0.0000 H   0  0  0  0  0  0  0  0  0  0  0  0
    4.8605    2.1855    0.0000 H   0  0  0  0  0  0  0  0  0  0  0  0
    1.6900   -0.3050    0.0000 H   0  0  0  0  0  0  0  0  0  0  0  0
    1.4631   -1.1519    0.0000 H   0  0  0  0  0  0  0  0  0  0  0  0
    2.3100   -1.3788    0.0000 H   0  0  0  0  0  0  0  0  0  0  0  0
    3.1951   -2.1519    0.0000 H   0  0  0  0  0  0  0  0  0  0  0  0
    6.0138   -2.1927    0.0000 H   0  0  0  0  0  0  0  0  0  0  0  0
  1  8  1  0  0  0  0
  1 25  1  0  0  0  0
  2 11  1  0  0  0  0
  2 26  1  0  0  0  0
  3 10  2  0  0  0  0
  4 12  2  0  0  0  0
  5  6  1  0  0  0  0
  5  7  2  0  0  0  0
  5 10  1  0  0  0  0
  6  8  1  0  0  0  0
  6 11  2  0  0  0  0
  7 13  1  0  0  0  0
  7 15  1  0  0  0  0
  8  9  2  0  0  0  0
  9 12  1  0  0  0  0
  9 16  1  0  0  0  0
 10 12  1  0  0  0  0
 11 14  1  0  0  0  0
 13 14  2  0  0  0  0
 13 17  1  0  0  0  0
 14 18  1  0  0  0  0
 15 19  1  0  0  0  0
 15 20  1  0  0  0  0
 15 21  1  0  0  0  0
 16 22  1  0  0  0  0
 16 23  1  0  0  0  0
 16 24  1  0  0  0  0
M  END
> <PUBCHEM_COMPOUND_CID>
442723

> <PUBCHEM_COMPOUND_CANONICALIZED>
1

> <PUBCHEM_CACTVS_COMPLEXITY>
383

> <PUBCHEM_CACTVS_HBOND_ACCEPTOR>
4

> <PUBCHEM_CACTVS_HBOND_DONOR>
2

> <PUBCHEM_CACTVS_ROTATABLE_BOND>
0

> <PUBCHEM_CACTVS_SUBSKEYS>
AAADccBwOAAAAAAAAAAAAAAAAAAAAAAAAAAwQAAAAAAAAACBAAAAGgAACAAADASAmAAyBoAAAgCIAqBSAAACAAAkIAAIiAEGCMgIJzKCFRKAcQAlwBEImQeKzPDOoAADAAAYAABAAAYAADAAAAAAAAAAAA==

> <PUBCHEM_IUPAC_OPENEYE_NAME>
4,5-dihydroxy-3,8-dimethyl-naphthalene-1,2-dione

> <PUBCHEM_IUPAC_CAS_NAME>
4,5-dihydroxy-3,8-dimethylnaphthalene-1,2-dione

> <PUBCHEM_IUPAC_NAME>
4,5-dihydroxy-3,8-dimethylnaphthalene-1,2-dione

> <PUBCHEM_IUPAC_SYSTEMATIC_NAME>
3,8-dimethyl-4,5-bis(oxidanyl)naphthalene-1,2-dione

> <PUBCHEM_IUPAC_TRADITIONAL_NAME>
4,5-dihydroxy-3,8-dimethyl-1,2-naphthoquinone

> <PUBCHEM_IUPAC_INCHI>
InChI=1S/C12H10O4/c1-5-3-4-7(13)9-8(5)12(16)11(15)6(2)10(9)14/h3-4,13-14H,1-2H3

> <PUBCHEM_IUPAC_INCHIKEY>
SJBCQYINLQWMKL-UHFFFAOYSA-N

> <PUBCHEM_XLOGP3_AA>
1.8

> <PUBCHEM_EXACT_MASS>
218.057909

> <PUBCHEM_MOLECULAR_FORMULA>
C12H10O4

> <PUBCHEM_MOLECULAR_WEIGHT>
218.2054

> <PUBCHEM_OPENEYE_CAN_SMILES>
CC1=C2C(=C(C=C1)O)C(=C(C(=O)C2=O)C)O

> <PUBCHEM_OPENEYE_ISO_SMILES>
CC1=C2C(=C(C=C1)O)C(=C(C(=O)C2=O)C)O

> <PUBCHEM_CACTVS_TPSA>
74.6

> <PUBCHEM_MONOISOTOPIC_WEIGHT>
218.057909

> <PUBCHEM_TOTAL_CHARGE>
0

> <PUBCHEM_HEAVY_ATOM_COUNT>
16

> <PUBCHEM_ATOM_DEF_STEREO_COUNT>
0

> <PUBCHEM_ATOM_UDEF_STEREO_COUNT>
0

> <PUBCHEM_BOND_DEF_STEREO_COUNT>
0

> <PUBCHEM_BOND_UDEF_STEREO_COUNT>
0

> <PUBCHEM_ISOTOPIC_ATOM_COUNT>
0

> <PUBCHEM_COMPONENT_COUNT>
1

> <PUBCHEM_CACTVS_TAUTO_COUNT>
108

> <PUBCHEM_COORDINATE_TYPE>
1
5
255

> <PUBCHEM_BONDANNOTATIONS>
11  14  8
13  14  8
5  6  8
5  7  8
6  11  8
7  13  8

$$$$

