22819
  -OEChem-07051212462D

 20 21  0     1  0  0  0  0  0999 V2000
    4.9889    1.3137    0.0000 O   0  0  0  0  0  0  0  0  0  0  0  0
    4.6783    0.3632    0.0000 C   0  0  3  0  0  0  0  0  0  0  0  0
    5.2619   -0.4416    0.0000 C   0  0  0  0  0  0  0  0  0  0  0  0
    4.6783   -1.2463    0.0000 C   0  0  0  0  0  0  0  0  0  0  0  0
    3.7320    0.0584    0.0000 C   0  0  0  0  0  0  0  0  0  0  0  0
    3.7320   -0.9416    0.0000 C   0  0  0  0  0  0  0  0  0  0  0  0
    2.8660    0.5584    0.0000 C   0  0  0  0  0  0  0  0  0  0  0  0
    2.8660   -1.4416    0.0000 C   0  0  0  0  0  0  0  0  0  0  0  0
    2.0000    0.0584    0.0000 C   0  0  0  0  0  0  0  0  0  0  0  0
    2.0000   -0.9416    0.0000 C   0  0  0  0  0  0  0  0  0  0  0  0
    5.2908    0.4594    0.0000 H   0  0  0  0  0  0  0  0  0  0  0  0
    5.7227   -0.8563    0.0000 H   0  0  0  0  0  0  0  0  0  0  0  0
    5.7227   -0.0268    0.0000 H   0  0  0  0  0  0  0  0  0  0  0  0
    4.4272   -1.8132    0.0000 H   0  0  0  0  0  0  0  0  0  0  0  0
    5.2156   -1.5555    0.0000 H   0  0  0  0  0  0  0  0  0  0  0  0
    2.8660    1.1784    0.0000 H   0  0  0  0  0  0  0  0  0  0  0  0
    2.8660   -2.0616    0.0000 H   0  0  0  0  0  0  0  0  0  0  0  0
    1.4631    0.3684    0.0000 H   0  0  0  0  0  0  0  0  0  0  0  0
    1.4631   -1.2516    0.0000 H   0  0  0  0  0  0  0  0  0  0  0  0
    5.5956    1.4416    0.0000 H   0  0  0  0  0  0  0  0  0  0  0  0
  1  2  1  0  0  0  0
  1 20  1  0  0  0  0
  2  3  1  0  0  0  0
  2  5  1  0  0  0  0
  2 11  1  0  0  0  0
  3  4  1  0  0  0  0
  3 12  1  0  0  0  0
  3 13  1  0  0  0  0
  4  6  1  0  0  0  0
  4 14  1  0  0  0  0
  4 15  1  0  0  0  0
  5  6  1  0  0  0  0
  5  7  2  0  0  0  0
  6  8  2  0  0  0  0
  7  9  1  0  0  0  0
  7 16  1  0  0  0  0
  8 10  1  0  0  0  0
  8 17  1  0  0  0  0
  9 10  2  0  0  0  0
  9 18  1  0  0  0  0
 10 19  1  0  0  0  0
M  END
> <PUBCHEM_COMPOUND_CID>
22819

> <PUBCHEM_COMPOUND_CANONICALIZED>
1

> <PUBCHEM_CACTVS_COMPLEXITY>
122

> <PUBCHEM_CACTVS_HBOND_ACCEPTOR>
1

> <PUBCHEM_CACTVS_HBOND_DONOR>
1

> <PUBCHEM_CACTVS_ROTATABLE_BOND>
0

> <PUBCHEM_CACTVS_SUBSKEYS>
AAADccBwIAAAAAAAAAAAAAAAAAAAAYAAAAAwAAAAAAAAAGABAAAAGgAACAAADBSgmAIwAIAAAgCAAiBCAAACAAAgAAAIiAAACIgINiKAERCAcAAkwAEImAeAwKAOgAAAAAAQAAAAAAAAACAAAIAADAAAAA==

> <PUBCHEM_IUPAC_OPENEYE_NAME>
indan-1-ol

> <PUBCHEM_IUPAC_CAS_NAME>
2,3-dihydro-1H-inden-1-ol

> <PUBCHEM_IUPAC_NAME>
2,3-dihydro-1H-inden-1-ol

> <PUBCHEM_IUPAC_SYSTEMATIC_NAME>
2,3-dihydro-1H-inden-1-ol

> <PUBCHEM_IUPAC_TRADITIONAL_NAME>
indan-1-ol

> <PUBCHEM_IUPAC_INCHI>
InChI=1S/C9H10O/c10-9-6-5-7-3-1-2-4-8(7)9/h1-4,9-10H,5-6H2

> <PUBCHEM_IUPAC_INCHIKEY>
YIAPLDFPUUJILH-UHFFFAOYSA-N

> <PUBCHEM_XLOGP3_AA>
1.5

> <PUBCHEM_EXACT_MASS>
134.073165

> <PUBCHEM_MOLECULAR_FORMULA>
C9H10O

> <PUBCHEM_MOLECULAR_WEIGHT>
134.1751

> <PUBCHEM_OPENEYE_CAN_SMILES>
C1CC2=CC=CC=C2C1O

> <PUBCHEM_OPENEYE_ISO_SMILES>
C1CC2=CC=CC=C2C1O

> <PUBCHEM_CACTVS_TPSA>
20.2

> <PUBCHEM_MONOISOTOPIC_WEIGHT>
134.073165

> <PUBCHEM_TOTAL_CHARGE>
0

> <PUBCHEM_HEAVY_ATOM_COUNT>
10

> <PUBCHEM_ATOM_DEF_STEREO_COUNT>
0

> <PUBCHEM_ATOM_UDEF_STEREO_COUNT>
1

> <PUBCHEM_BOND_DEF_STEREO_COUNT>
0

> <PUBCHEM_BOND_UDEF_STEREO_COUNT>
0

> <PUBCHEM_ISOTOPIC_ATOM_COUNT>
0

> <PUBCHEM_COMPONENT_COUNT>
1

> <PUBCHEM_CACTVS_TAUTO_COUNT>
1

> <PUBCHEM_COORDINATE_TYPE>
1
5
255

> <PUBCHEM_BONDANNOTATIONS>
2  1  3
5  6  8
5  7  8
6  8  8
7  9  8
8  10  8
9  10  8

$$$$

