442031
  -OEChem-07051212562D

 55 60  0     1  0  0  0  0  0999 V2000
    6.9805    0.3469    0.0000 N   0  0  3  0  0  0  0  0  0  0  0  0
    2.9778    1.0457    0.0000 N   0  0  3  0  0  0  0  0  0  0  0  0
    5.8688    1.8843    0.0000 N   0  0  3  0  0  0  0  0  0  0  0  0
    3.1718   -0.8418    0.0000 N   0  0  0  0  0  0  0  0  0  0  0  0
    5.3688    0.3455    0.0000 C   0  0  1  0  0  0  0  0  0  0  0  0
    4.3743    0.2410    0.0000 C   0  0  1  0  0  0  0  0  0  0  0  0
    6.1778    0.9333    0.0000 C   0  0  1  0  0  0  0  0  0  0  0  0
    3.3797    0.1364    0.0000 C   0  0  1  0  0  0  0  0  0  0  0  0
    5.6784   -0.5992    0.0000 C   0  0  0  0  0  0  0  0  0  0  0  0
    4.5784    1.2138    0.0000 C   0  0  0  0  0  0  0  0  0  0  0  0
    4.5598    0.9333    0.0000 C   0  0  0  0  0  0  0  0  0  0  0  0
    4.7811   -0.6727    0.0000 C   0  0  0  0  0  0  0  0  0  0  0  0
    6.6725   -0.5983    0.0000 C   0  0  0  0  0  0  0  0  0  0  0  0
    3.7171    1.7101    0.0000 C   0  0  0  0  0  0  0  0  0  0  0  0
    4.8688    1.8843    0.0000 C   0  0  0  0  0  0  0  0  0  0  0  0
    4.0379   -1.3418    0.0000 C   0  0  0  0  0  0  0  0  0  0  0  0
    3.5444    0.7010    0.0000 C   0  0  0  0  0  0  0  0  0  0  0  0
    5.7765   -0.9792    0.0000 C   0  0  0  0  0  0  0  0  0  0  0  0
    7.9321    0.6542    0.0000 C   0  0  0  0  0  0  0  0  0  0  0  0
    2.0000    1.2553    0.0000 C   0  0  0  0  0  0  0  0  0  0  0  0
    6.4566    2.6933    0.0000 C   0  0  0  0  0  0  0  0  0  0  0  0
    4.1838    2.6690    0.0000 C   0  0  0  0  0  0  0  0  0  0  0  0
    4.2387   -2.3638    0.0000 C   0  0  0  0  0  0  0  0  0  0  0  0
    2.8414    1.4697    0.0000 C   0  0  0  0  0  0  0  0  0  0  0  0
    6.0009   -1.9963    0.0000 C   0  0  0  0  0  0  0  0  0  0  0  0
    3.1633    2.4603    0.0000 C   0  0  0  0  0  0  0  0  0  0  0  0
    5.2268   -2.6933    0.0000 C   0  0  0  0  0  0  0  0  0  0  0  0
    6.8661    1.4320    0.0000 H   0  0  0  0  0  0  0  0  0  0  0  0
    2.5343    0.0487    0.0000 H   0  0  0  0  0  0  0  0  0  0  0  0
    5.0722   -0.7293    0.0000 H   0  0  0  0  0  0  0  0  0  0  0  0
    5.7441   -1.2157    0.0000 H   0  0  0  0  0  0  0  0  0  0  0  0
    5.1685    1.0234    0.0000 H   0  0  0  0  0  0  0  0  0  0  0  0
    4.8298    1.7806    0.0000 H   0  0  0  0  0  0  0  0  0  0  0  0
    6.6079   -1.2149    0.0000 H   0  0  0  0  0  0  0  0  0  0  0  0
    7.2789   -0.7274    0.0000 H   0  0  0  0  0  0  0  0  0  0  0  0
    4.0814    2.2118    0.0000 H   0  0  0  0  0  0  0  0  0  0  0  0
    3.2565    2.1251    0.0000 H   0  0  0  0  0  0  0  0  0  0  0  0
    2.6054   -1.0939    0.0000 H   0  0  0  0  0  0  0  0  0  0  0  0
    3.3596    0.1092    0.0000 H   0  0  0  0  0  0  0  0  0  0  0  0
    6.2324   -0.5590    0.0000 H   0  0  0  0  0  0  0  0  0  0  0  0
    8.1227    0.0643    0.0000 H   0  0  0  0  0  0  0  0  0  0  0  0
    8.5221    0.8448    0.0000 H   0  0  0  0  0  0  0  0  0  0  0  0
    7.7415    1.2442    0.0000 H   0  0  0  0  0  0  0  0  0  0  0  0
    2.1300    1.8615    0.0000 H   0  0  0  0  0  0  0  0  0  0  0  0
    1.3938    1.3852    0.0000 H   0  0  0  0  0  0  0  0  0  0  0  0
    1.8700    0.6490    0.0000 H   0  0  0  0  0  0  0  0  0  0  0  0
    6.9582    2.3289    0.0000 H   0  0  0  0  0  0  0  0  0  0  0  0
    6.8210    3.1949    0.0000 H   0  0  0  0  0  0  0  0  0  0  0  0
    5.9550    3.0578    0.0000 H   0  0  0  0  0  0  0  0  0  0  0  0
    4.3822    3.2564    0.0000 H   0  0  0  0  0  0  0  0  0  0  0  0
    3.7732   -2.7733    0.0000 H   0  0  0  0  0  0  0  0  0  0  0  0
    2.2355    1.3384    0.0000 H   0  0  0  0  0  0  0  0  0  0  0  0
    6.5913   -2.1857    0.0000 H   0  0  0  0  0  0  0  0  0  0  0  0
    2.7502    2.9227    0.0000 H   0  0  0  0  0  0  0  0  0  0  0  0
    5.3534   -3.3003    0.0000 H   0  0  0  0  0  0  0  0  0  0  0  0
  1  7  1  0  0  0  0
  1 13  1  0  0  0  0
  1 19  1  0  0  0  0
  2  8  1  0  0  0  0
  2 14  1  0  0  0  0
  2 20  1  0  0  0  0
  3  7  1  0  0  0  0
  3 15  1  0  0  0  0
  3 21  1  0  0  0  0
  4  8  1  0  0  0  0
  4 16  1  0  0  0  0
  4 38  1  0  0  0  0
  5  6  1  0  0  0  0
  5  7  1  0  0  0  0
  5  9  1  6  0  0  0
  5 11  1  0  0  0  0
  6  8  1  0  0  0  0
  6 10  1  6  0  0  0
  6 12  1  0  0  0  0
  7 28  1  1  0  0  0
  8 29  1  1  0  0  0
  9 13  1  0  0  0  0
  9 30  1  0  0  0  0
  9 31  1  0  0  0  0
 10 14  1  0  0  0  0
 10 32  1  0  0  0  0
 10 33  1  0  0  0  0
 11 15  1  0  0  0  0
 11 17  2  0  0  0  0
 12 16  1  0  0  0  0
 12 18  2  0  0  0  0
 13 34  1  0  0  0  0
 13 35  1  0  0  0  0
 14 36  1  0  0  0  0
 14 37  1  0  0  0  0
 15 22  2  0  0  0  0
 16 23  2  0  0  0  0
 17 24  1  0  0  0  0
 17 39  1  0  0  0  0
 18 25  1  0  0  0  0
 18 40  1  0  0  0  0
 19 41  1  0  0  0  0
 19 42  1  0  0  0  0
 19 43  1  0  0  0  0
 20 44  1  0  0  0  0
 20 45  1  0  0  0  0
 20 46  1  0  0  0  0
 21 47  1  0  0  0  0
 21 48  1  0  0  0  0
 21 49  1  0  0  0  0
 22 26  1  0  0  0  0
 22 50  1  0  0  0  0
 23 27  1  0  0  0  0
 23 51  1  0  0  0  0
 24 26  2  0  0  0  0
 24 52  1  0  0  0  0
 25 27  2  0  0  0  0
 25 53  1  0  0  0  0
 26 54  1  0  0  0  0
 27 55  1  0  0  0  0
M  END
> <PUBCHEM_COMPOUND_CID>
442031

> <PUBCHEM_COMPOUND_CANONICALIZED>
1

> <PUBCHEM_CACTVS_COMPLEXITY>
609

> <PUBCHEM_CACTVS_HBOND_ACCEPTOR>
4

> <PUBCHEM_CACTVS_HBOND_DONOR>
1

> <PUBCHEM_CACTVS_ROTATABLE_BOND>
1

> <PUBCHEM_CACTVS_SUBSKEYS>
AAADceB7gAAAAAAAAAAAAAAAAAAAAWLFiwAwYAAAAAAWLFgBQAAAHAAQAAAADgjBGAQzwIPAAACAAiRCQACCAAAhAgAIiIAIZIiIICLAkZGEIAhokALIyCcQgMAPgAAAAAACAAAAAAAAAAQAAAAAAAAAAA==

> <PUBCHEM_IUPAC_OPENEYE_NAME>
(3aS,8bR)-8b-[(3aR,8bR)-3-methyl-1,2,3a,4-tetrahydropyrrolo[2,3-b]indol-8b-yl]-3,4-dimethyl-2,3a-dihydro-1H-pyrrolo[2,3-b]indole

> <PUBCHEM_IUPAC_CAS_NAME>
(3aS,8bR)-8b-[(3aR,8bR)-3-methyl-1,2,3a,4-tetrahydropyrrolo[2,3-b]indol-8b-yl]-3,4-dimethyl-2,3a-dihydro-1H-pyrrolo[2,3-b]indole

> <PUBCHEM_IUPAC_NAME>
(3aS,8bR)-8b-[(3aR,8bR)-3-methyl-1,2,3a,4-tetrahydropyrrolo[2,3-b]indol-8b-yl]-3,4-dimethyl-2,3a-dihydro-1H-pyrrolo[2,3-b]indole

> <PUBCHEM_IUPAC_SYSTEMATIC_NAME>
(3aS,8bR)-8b-[(3aR,8bR)-3-methyl-1,2,3a,4-tetrahydropyrrolo[2,3-b]indol-8b-yl]-3,4-dimethyl-2,3a-dihydro-1H-pyrrolo[2,3-b]indole

> <PUBCHEM_IUPAC_TRADITIONAL_NAME>
(3aS,8bR)-8b-[(3aR,8bR)-3-methyl-1,2,3a,4-tetrahydropyrrol[2,3-b]indol-8b-yl]-3,4-dimethyl-2,3a-dihydro-1H-pyrrol[2,3-b]indole

> <PUBCHEM_IUPAC_INCHI>
InChI=1S/C23H28N4/c1-25-14-12-22(16-8-4-6-10-18(16)24-20(22)25)23-13-15-26(2)21(23)27(3)19-11-7-5-9-17(19)23/h4-11,20-21,24H,12-15H2,1-3H3/t20-,21+,22+,23+/m1/s1

> <PUBCHEM_IUPAC_INCHIKEY>
GSQUXSFTXJRLQJ-LDVJMBRRSA-N

> <PUBCHEM_XLOGP3_AA>
4.1

> <PUBCHEM_EXACT_MASS>
360.231397

> <PUBCHEM_MOLECULAR_FORMULA>
C23H28N4

> <PUBCHEM_MOLECULAR_WEIGHT>
360.49522

> <PUBCHEM_OPENEYE_CAN_SMILES>
CN1CCC2(C1NC3=CC=CC=C32)C45CCN(C4N(C6=CC=CC=C56)C)C

> <PUBCHEM_OPENEYE_ISO_SMILES>
CN1CC[C@]2([C@@H]1NC3=CC=CC=C32)[C@]45CCN([C@H]4N(C6=CC=CC=C56)C)C

> <PUBCHEM_CACTVS_TPSA>
21.8

> <PUBCHEM_MONOISOTOPIC_WEIGHT>
360.231397

> <PUBCHEM_TOTAL_CHARGE>
0

> <PUBCHEM_HEAVY_ATOM_COUNT>
27

> <PUBCHEM_ATOM_DEF_STEREO_COUNT>
4

> <PUBCHEM_ATOM_UDEF_STEREO_COUNT>
0

> <PUBCHEM_BOND_DEF_STEREO_COUNT>
0

> <PUBCHEM_BOND_UDEF_STEREO_COUNT>
0

> <PUBCHEM_ISOTOPIC_ATOM_COUNT>
0

> <PUBCHEM_COMPONENT_COUNT>
1

> <PUBCHEM_CACTVS_TAUTO_COUNT>
1

> <PUBCHEM_COORDINATE_TYPE>
1
5
255

> <PUBCHEM_BONDANNOTATIONS>
11  15  8
11  17  8
12  16  8
12  18  8
15  22  8
16  23  8
17  24  8
18  25  8
22  26  8
23  27  8
24  26  8
25  27  8
5  9  6
6  10  6
7  28  5
8  29  5

$$$$

