98033
  -OEChem-07051213082D

104111  0     1  0  0  0  0  0999 V2000
    8.3828   -2.7931    0.0000 O   0  0  0  0  0  0  0  0  0  0  0  0
   10.7645   -4.1317    0.0000 O   0  0  0  0  0  0  0  0  0  0  0  0
    7.0044   -2.0900    0.0000 O   0  0  0  0  0  0  0  0  0  0  0  0
    8.6922    4.0172    0.0000 O   0  0  0  0  0  0  0  0  0  0  0  0
    4.2884    2.4936    0.0000 O   0  0  0  0  0  0  0  0  0  0  0  0
   11.2922    4.5072    0.0000 O   0  0  0  0  0  0  0  0  0  0  0  0
    4.2781   -3.6788    0.0000 O   0  0  0  0  0  0  0  0  0  0  0  0
    2.5333    4.4734    0.0000 O   0  0  0  0  0  0  0  0  0  0  0  0
    8.6726    0.9690    0.0000 O   0  0  0  0  0  0  0  0  0  0  0  0
    7.7684   -0.5279    0.0000 O   0  0  0  0  0  0  0  0  0  0  0  0
    4.3043    1.4721    0.0000 O   0  0  0  0  0  0  0  0  0  0  0  0
   11.4204    3.0067    0.0000 N   0  0  0  0  0  0  0  0  0  0  0  0
    4.2537    5.4934    0.0000 N   0  0  0  0  0  0  0  0  0  0  0  0
    8.8928   -3.6533    0.0000 C   0  0  3  0  0  0  0  0  0  0  0  0
    9.7645   -4.1432    0.0000 C   0  0  3  0  0  0  0  0  0  0  0  0
    7.8928   -3.6648    0.0000 C   0  0  3  0  0  0  0  0  0  0  0  0
   10.2745   -5.0034    0.0000 C   0  0  3  0  0  0  0  0  0  0  0  0
    7.9044   -4.6648    0.0000 C   0  0  0  0  0  0  0  0  0  0  0  0
    7.0211   -3.1749    0.0000 C   0  0  0  0  0  0  0  0  0  0  0  0
   10.2861   -6.0034    0.0000 C   0  0  0  0  0  0  0  0  0  0  0  0
   10.4204    3.0105    0.0000 C   0  0  3  0  0  0  0  0  0  0  0  0
    6.0857   -3.7246    0.0000 C   0  0  0  0  0  0  0  0  0  0  0  0
    9.5525    2.5139    0.0000 C   0  0  0  0  0  0  0  0  0  0  0  0
   10.4243    4.0105    0.0000 C   0  0  3  0  0  0  0  0  0  0  0  0
    8.6884    3.0172    0.0000 C   0  0  3  0  0  0  0  0  0  0  0  0
    6.0524   -1.5694    0.0000 C   0  0  0  0  0  0  0  0  0  0  0  0
    9.5602    4.5138    0.0000 C   0  0  3  0  0  0  0  0  0  0  0  0
    5.1460   -3.1821    0.0000 C   0  0  0  0  0  0  0  0  0  0  0  0
    5.1544   -2.0972    0.0000 C   0  0  0  0  0  0  0  0  0  0  0  0
    7.8204    2.5205    0.0000 C   0  0  0  0  0  0  0  0  0  0  0  0
    5.1486    3.0036    0.0000 C   0  0  3  0  0  0  0  0  0  0  0  0
   10.9171    2.1426    0.0000 C   0  0  0  0  0  0  0  0  0  0  0  0
    6.0364   -0.5279    0.0000 C   0  0  0  0  0  0  0  0  0  0  0  0
    6.0203    2.5136    0.0000 C   0  0  0  0  0  0  0  0  0  0  0  0
    4.2652    4.4934    0.0000 C   0  0  3  0  0  0  0  0  0  0  0  0
    5.1370    4.0035    0.0000 C   0  0  0  0  0  0  0  0  0  0  0  0
    6.0364    1.4721    0.0000 C   0  0  0  0  0  0  0  0  0  0  0  0
    6.9024    0.9721    0.0000 C   0  0  0  0  0  0  0  0  0  0  0  0
    3.4051    3.9835    0.0000 C   0  0  3  0  0  0  0  0  0  0  0  0
    6.9184    3.0414    0.0000 C   0  0  0  0  0  0  0  0  0  0  0  0
    5.1704   -0.0279    0.0000 C   0  0  0  0  0  0  0  0  0  0  0  0
    7.8124    1.4789    0.0000 C   0  0  0  0  0  0  0  0  0  0  0  0
    3.4166    2.9835    0.0000 C   0  0  3  0  0  0  0  0  0  0  0  0
    4.2523   -1.5764    0.0000 C   0  0  0  0  0  0  0  0  0  0  0  0
    6.9024   -0.0279    0.0000 C   0  0  0  0  0  0  0  0  0  0  0  0
    9.5640    5.5138    0.0000 C   0  0  0  0  0  0  0  0  0  0  0  0
    5.1704    0.9721    0.0000 C   0  0  0  0  0  0  0  0  0  0  0  0
    4.2603   -0.5347    0.0000 C   0  0  0  0  0  0  0  0  0  0  0  0
   11.9171    2.1387    0.0000 C   0  0  0  0  0  0  0  0  0  0  0  0
   11.9237    3.8708    0.0000 C   0  0  0  0  0  0  0  0  0  0  0  0
    2.5564    2.4736    0.0000 C   0  0  0  0  0  0  0  0  0  0  0  0
    3.3844   -2.0730    0.0000 C   0  0  0  0  0  0  0  0  0  0  0  0
    3.3819    5.9833    0.0000 C   0  0  0  0  0  0  0  0  0  0  0  0
    5.1139    6.0034    0.0000 C   0  0  0  0  0  0  0  0  0  0  0  0
    9.3261   -3.2098    0.0000 H   0  0  0  0  0  0  0  0  0  0  0  0
    9.3312   -4.5867    0.0000 H   0  0  0  0  0  0  0  0  0  0  0  0
   10.8752   -5.1570    0.0000 H   0  0  0  0  0  0  0  0  0  0  0  0
    7.2844   -4.6720    0.0000 H   0  0  0  0  0  0  0  0  0  0  0  0
    7.9116   -5.2847    0.0000 H   0  0  0  0  0  0  0  0  0  0  0  0
    8.5244   -4.6576    0.0000 H   0  0  0  0  0  0  0  0  0  0  0  0
    9.6661   -6.0105    0.0000 H   0  0  0  0  0  0  0  0  0  0  0  0
   10.2932   -6.6233    0.0000 H   0  0  0  0  0  0  0  0  0  0  0  0
   10.9060   -5.9962    0.0000 H   0  0  0  0  0  0  0  0  0  0  0  0
    6.0880   -4.3446    0.0000 H   0  0  0  0  0  0  0  0  0  0  0  0
    9.1521    2.0405    0.0000 H   0  0  0  0  0  0  0  0  0  0  0  0
    9.9492    2.0374    0.0000 H   0  0  0  0  0  0  0  0  0  0  0  0
   10.4267    4.6305    0.0000 H   0  0  0  0  0  0  0  0  0  0  0  0
    8.1526    3.3293    0.0000 H   0  0  0  0  0  0  0  0  0  0  0  0
    9.0244    4.8259    0.0000 H   0  0  0  0  0  0  0  0  0  0  0  0
    5.1557    2.3836    0.0000 H   0  0  0  0  0  0  0  0  0  0  0  0
   10.3789    1.8346    0.0000 H   0  0  0  0  0  0  0  0  0  0  0  0
   11.2250    1.6044    0.0000 H   0  0  0  0  0  0  0  0  0  0  0  0
   11.4552    2.4505    0.0000 H   0  0  0  0  0  0  0  0  0  0  0  0
    3.7248    4.7972    0.0000 H   0  0  0  0  0  0  0  0  0  0  0  0
    5.7488    3.9029    0.0000 H   0  0  0  0  0  0  0  0  0  0  0  0
    5.3423    4.5885    0.0000 H   0  0  0  0  0  0  0  0  0  0  0  0
    2.8718    3.6673    0.0000 H   0  0  0  0  0  0  0  0  0  0  0  0
    6.9160    3.6614    0.0000 H   0  0  0  0  0  0  0  0  0  0  0  0
    3.4238    2.3636    0.0000 H   0  0  0  0  0  0  0  0  0  0  0  0
   10.1840    5.5115    0.0000 H   0  0  0  0  0  0  0  0  0  0  0  0
    9.5664    6.1338    0.0000 H   0  0  0  0  0  0  0  0  0  0  0  0
    8.9440    5.5162    0.0000 H   0  0  0  0  0  0  0  0  0  0  0  0
    3.7270   -0.2186    0.0000 H   0  0  0  0  0  0  0  0  0  0  0  0
   11.2946    5.1272    0.0000 H   0  0  0  0  0  0  0  0  0  0  0  0
   12.4595    3.5587    0.0000 H   0  0  0  0  0  0  0  0  0  0  0  0
   12.2358    4.4065    0.0000 H   0  0  0  0  0  0  0  0  0  0  0  0
   11.3880    4.1828    0.0000 H   0  0  0  0  0  0  0  0  0  0  0  0
   11.3789    1.8308    0.0000 H   0  0  0  0  0  0  0  0  0  0  0  0
   12.2250    1.6006    0.0000 H   0  0  0  0  0  0  0  0  0  0  0  0
   12.4552    2.4466    0.0000 H   0  0  0  0  0  0  0  0  0  0  0  0
    2.2402    3.0069    0.0000 H   0  0  0  0  0  0  0  0  0  0  0  0
    2.0231    2.1574    0.0000 H   0  0  0  0  0  0  0  0  0  0  0  0
    2.8726    1.9402    0.0000 H   0  0  0  0  0  0  0  0  0  0  0  0
    3.0764   -1.5349    0.0000 H   0  0  0  0  0  0  0  0  0  0  0  0
    2.8462   -2.3809    0.0000 H   0  0  0  0  0  0  0  0  0  0  0  0
    3.6923   -2.6111    0.0000 H   0  0  0  0  0  0  0  0  0  0  0  0
    2.0000    4.1572    0.0000 H   0  0  0  0  0  0  0  0  0  0  0  0
    3.6857    6.5238    0.0000 H   0  0  0  0  0  0  0  0  0  0  0  0
    2.8414    6.2871    0.0000 H   0  0  0  0  0  0  0  0  0  0  0  0
    3.0782    5.4428    0.0000 H   0  0  0  0  0  0  0  0  0  0  0  0
    5.4301    5.4700    0.0000 H   0  0  0  0  0  0  0  0  0  0  0  0
    5.6472    6.3195    0.0000 H   0  0  0  0  0  0  0  0  0  0  0  0
    4.7977    6.5367    0.0000 H   0  0  0  0  0  0  0  0  0  0  0  0
    8.6654    0.3490    0.0000 H   0  0  0  0  0  0  0  0  0  0  0  0
  1 14  1  0  0  0  0
  1 16  1  0  0  0  0
  2 15  1  0  0  0  0
  2 17  1  0  0  0  0
  3 19  1  0  0  0  0
  3 26  1  0  0  0  0
  4 25  1  0  0  0  0
  4 27  1  0  0  0  0
  5 31  1  0  0  0  0
  5 43  1  0  0  0  0
  6 24  1  0  0  0  0
  6 84  1  0  0  0  0
  7 28  2  0  0  0  0
  8 39  1  0  0  0  0
  8 97  1  0  0  0  0
  9 42  1  0  0  0  0
  9104  1  0  0  0  0
 10 45  2  0  0  0  0
 11 47  2  0  0  0  0
 12 21  1  0  0  0  0
 12 49  1  0  0  0  0
 12 50  1  0  0  0  0
 13 35  1  0  0  0  0
 13 53  1  0  0  0  0
 13 54  1  0  0  0  0
 14 15  1  0  0  0  0
 14 16  1  0  0  0  0
 14 55  1  0  0  0  0
 15 17  1  0  0  0  0
 15 56  1  0  0  0  0
 16 18  1  0  0  0  0
 16 19  1  0  0  0  0
 17 20  1  0  0  0  0
 17 57  1  0  0  0  0
 18 58  1  0  0  0  0
 18 59  1  0  0  0  0
 18 60  1  0  0  0  0
 19 22  2  0  0  0  0
 20 61  1  0  0  0  0
 20 62  1  0  0  0  0
 20 63  1  0  0  0  0
 21 23  1  0  0  0  0
 21 24  1  0  0  0  0
 21 32  1  0  0  0  0
 22 28  1  0  0  0  0
 22 64  1  0  0  0  0
 23 25  1  0  0  0  0
 23 65  1  0  0  0  0
 23 66  1  0  0  0  0
 24 27  1  0  0  0  0
 24 67  1  0  0  0  0
 25 30  1  0  0  0  0
 25 68  1  0  0  0  0
 26 29  2  0  0  0  0
 26 33  1  0  0  0  0
 27 46  1  0  0  0  0
 27 69  1  0  0  0  0
 28 29  1  0  0  0  0
 29 44  1  0  0  0  0
 30 40  1  0  0  0  0
 30 42  2  0  0  0  0
 31 34  1  0  0  0  0
 31 36  1  0  0  0  0
 31 70  1  0  0  0  0
 32 71  1  0  0  0  0
 32 72  1  0  0  0  0
 32 73  1  0  0  0  0
 33 41  2  0  0  0  0
 33 45  1  0  0  0  0
 34 37  1  0  0  0  0
 34 40  2  0  0  0  0
 35 36  1  0  0  0  0
 35 39  1  0  0  0  0
 35 74  1  0  0  0  0
 36 75  1  0  0  0  0
 36 76  1  0  0  0  0
 37 38  2  0  0  0  0
 37 47  1  0  0  0  0
 38 42  1  0  0  0  0
 38 45  1  0  0  0  0
 39 43  1  0  0  0  0
 39 77  1  0  0  0  0
 40 78  1  0  0  0  0
 41 47  1  0  0  0  0
 41 48  1  0  0  0  0
 43 51  1  0  0  0  0
 43 79  1  0  0  0  0
 44 48  2  0  0  0  0
 44 52  1  0  0  0  0
 46 80  1  0  0  0  0
 46 81  1  0  0  0  0
 46 82  1  0  0  0  0
 48 83  1  0  0  0  0
 49 88  1  0  0  0  0
 49 89  1  0  0  0  0
 49 90  1  0  0  0  0
 50 85  1  0  0  0  0
 50 86  1  0  0  0  0
 50 87  1  0  0  0  0
 51 91  1  0  0  0  0
 51 92  1  0  0  0  0
 51 93  1  0  0  0  0
 52 94  1  0  0  0  0
 52 95  1  0  0  0  0
 52 96  1  0  0  0  0
 53 98  1  0  0  0  0
 53 99  1  0  0  0  0
 53100  1  0  0  0  0
 54101  1  0  0  0  0
 54102  1  0  0  0  0
 54103  1  0  0  0  0
M  END
> <PUBCHEM_COMPOUND_CID>
98033

> <PUBCHEM_COMPOUND_CANONICALIZED>
1

> <PUBCHEM_CACTVS_COMPLEXITY>
1570

> <PUBCHEM_CACTVS_HBOND_ACCEPTOR>
13

> <PUBCHEM_CACTVS_HBOND_DONOR>
3

> <PUBCHEM_CACTVS_ROTATABLE_BOND>
6

> <PUBCHEM_CACTVS_SUBSKEYS>
AAADcfB/PAAAAAAAAAAAAAAAEiQAAAAAAAA0aMECAAAAAADBQAAAHgAACAAADPzhmAYyBoMABgCIAqBSAAACCAAkIAAAiAEMCMgPNzaGtRqGeWCn4BEbuYfb/v/u4AADAAAYAADAAAYAADAAAAAAAAAAAA==

> <PUBCHEM_IUPAC_OPENEYE_NAME>
10-[4-(dimethylamino)-5-hydroxy-4,6-dimethyl-tetrahydropyran-2-yl]-8-[4-(dimethylamino)-5-hydroxy-6-methyl-tetrahydropyran-2-yl]-11-hydroxy-5-methyl-2-[2-methyl-3-(3-methyloxiran-2-yl)oxiran-2-yl]naphtho[2,3-h]chromene-4,7,12-trione

> <PUBCHEM_IUPAC_CAS_NAME>
10-[4-(dimethylamino)-5-hydroxy-4,6-dimethyl-2-oxanyl]-8-[4-(dimethylamino)-5-hydroxy-6-methyl-2-oxanyl]-11-hydroxy-5-methyl-2-[2-methyl-3-(3-methyl-2-oxiranyl)-2-oxiranyl]naphtho[2,3-h][1]benzopyran-4,7,12-trione

> <PUBCHEM_IUPAC_NAME>
10-[4-(dimethylamino)-5-hydroxy-4,6-dimethyloxan-2-yl]-8-[4-(dimethylamino)-5-hydroxy-6-methyloxan-2-yl]-11-hydroxy-5-methyl-2-[2-methyl-3-(3-methyloxiran-2-yl)oxiran-2-yl]naphtho[2,3-h]chromene-4,7,12-trione

> <PUBCHEM_IUPAC_SYSTEMATIC_NAME>
10-[4-(dimethylamino)-4,6-dimethyl-5-oxidanyl-oxan-2-yl]-8-[4-(dimethylamino)-6-methyl-5-oxidanyl-oxan-2-yl]-5-methyl-2-[2-methyl-3-(3-methyloxiran-2-yl)oxiran-2-yl]-11-oxidanyl-naphtho[2,3-h]chromene-4,7,12-trione

> <PUBCHEM_IUPAC_TRADITIONAL_NAME>
10-[4-(dimethylamino)-5-hydroxy-4,6-dimethyl-tetrahydropyran-2-yl]-8-[4-(dimethylamino)-5-hydroxy-6-methyl-tetrahydropyran-2-yl]-11-hydroxy-5-methyl-2-[2-methyl-3-(3-methyloxiran-2-yl)oxiran-2-yl]naphtho[2,3-h]chromene-4,7,12-trione

> <PUBCHEM_IUPAC_INCHI>
InChI=1S/C41H50N2O11/c1-16-11-22-30(37-28(16)24(44)14-27(53-37)41(6)39(54-41)36-18(3)52-36)35(48)31-29(34(22)47)20(25-13-23(42(7)8)32(45)17(2)50-25)12-21(33(31)46)26-15-40(5,43(9)10)38(49)19(4)51-26/h11-12,14,17-19,23,25-26,32,36,38-39,45-46,49H,13,15H2,1-10H3

> <PUBCHEM_IUPAC_INCHIKEY>
RZOFHOWMWMTHDX-UHFFFAOYSA-N

> <PUBCHEM_XLOGP3_AA>
2.6

> <PUBCHEM_EXACT_MASS>
746.34146

> <PUBCHEM_MOLECULAR_FORMULA>
C41H50N2O11

> <PUBCHEM_MOLECULAR_WEIGHT>
746.8425

> <PUBCHEM_OPENEYE_CAN_SMILES>
CC1C(C(CC(O1)C2=CC(=C(C3=C2C(=O)C4=CC(=C5C(=O)C=C(OC5=C4C3=O)C6(C(O6)C7C(O7)C)C)C)O)C8CC(C(C(O8)C)O)(C)N(C)C)N(C)C)O

> <PUBCHEM_OPENEYE_ISO_SMILES>
CC1C(C(CC(O1)C2=CC(=C(C3=C2C(=O)C4=CC(=C5C(=O)C=C(OC5=C4C3=O)C6(C(O6)C7C(O7)C)C)C)O)C8CC(C(C(O8)C)O)(C)N(C)C)N(C)C)O

> <PUBCHEM_CACTVS_TPSA>
171

> <PUBCHEM_MONOISOTOPIC_WEIGHT>
746.34146

> <PUBCHEM_TOTAL_CHARGE>
0

> <PUBCHEM_HEAVY_ATOM_COUNT>
54

> <PUBCHEM_ATOM_DEF_STEREO_COUNT>
0

> <PUBCHEM_ATOM_UDEF_STEREO_COUNT>
12

> <PUBCHEM_BOND_DEF_STEREO_COUNT>
0

> <PUBCHEM_BOND_UDEF_STEREO_COUNT>
0

> <PUBCHEM_ISOTOPIC_ATOM_COUNT>
0

> <PUBCHEM_COMPONENT_COUNT>
1

> <PUBCHEM_CACTVS_TAUTO_COUNT>
29

> <PUBCHEM_COORDINATE_TYPE>
1
5
255

> <PUBCHEM_BONDANNOTATIONS>
14  1  3
35  13  3
16  18  3
17  20  3
19  22  8
15  2  3
21  32  3
22  28  8
25  30  3
26  29  8
26  33  8
27  46  3
28  29  8
29  44  8
3  19  8
3  26  8
30  40  8
30  42  8
31  34  3
33  41  8
34  37  8
34  40  8
37  38  8
38  42  8
41  48  8
43  51  3
44  48  8
24  6  3
39  8  3

$$$$

