17395670
  -OEChem-06241222512D

 48 50  0     0  0  0  0  0  0999 V2000
    2.0000   -1.7673    0.0000 F   0  0  0  0  0  0  0  0  0  0  0  0
   13.2862   -0.3020    0.0000 O   0  0  0  0  0  0  0  0  0  0  0  0
   13.2862    1.7673    0.0000 O   0  0  0  0  0  0  0  0  0  0  0  0
    9.7942   -1.2673    0.0000 O   0  0  0  0  0  0  0  0  0  0  0  0
    7.1962    1.2327    0.0000 O   0  0  0  0  0  0  0  0  0  0  0  0
    8.9282    0.2327    0.0000 N   0  0  0  0  0  0  0  0  0  0  0  0
    6.3301   -0.2673    0.0000 N   0  0  0  0  0  0  0  0  0  0  0  0
    8.0622   -0.2673    0.0000 C   0  0  0  0  0  0  0  0  0  0  0  0
   10.6603    0.2327    0.0000 C   0  0  0  0  0  0  0  0  0  0  0  0
    8.9282    1.2327    0.0000 C   0  0  0  0  0  0  0  0  0  0  0  0
    9.7942   -0.2673    0.0000 C   0  0  0  0  0  0  0  0  0  0  0  0
   12.3923    0.2327    0.0000 C   0  0  0  0  0  0  0  0  0  0  0  0
   12.3923    1.2327    0.0000 C   0  0  0  0  0  0  0  0  0  0  0  0
   11.5263   -0.2673    0.0000 C   0  0  0  0  0  0  0  0  0  0  0  0
   10.6603    1.2327    0.0000 C   0  0  0  0  0  0  0  0  0  0  0  0
    7.1962    0.2327    0.0000 C   0  0  0  0  0  0  0  0  0  0  0  0
   14.1923    0.2119    0.0000 C   0  0  0  0  0  0  0  0  0  0  0  0
   14.1923    1.2535    0.0000 C   0  0  0  0  0  0  0  0  0  0  0  0
   11.5263    1.7327    0.0000 C   0  0  0  0  0  0  0  0  0  0  0  0
    8.0622    1.7327    0.0000 C   0  0  0  0  0  0  0  0  0  0  0  0
    5.4641    0.2327    0.0000 C   0  0  0  0  0  0  0  0  0  0  0  0
    4.5981   -0.2673    0.0000 C   0  0  0  0  0  0  0  0  0  0  0  0
    3.7320    0.2327    0.0000 C   0  0  0  0  0  0  0  0  0  0  0  0
    4.5981   -1.2673    0.0000 C   0  0  0  0  0  0  0  0  0  0  0  0
    2.8660   -0.2673    0.0000 C   0  0  0  0  0  0  0  0  0  0  0  0
    3.7320   -1.7673    0.0000 C   0  0  0  0  0  0  0  0  0  0  0  0
    2.8660   -1.2673    0.0000 C   0  0  0  0  0  0  0  0  0  0  0  0
    7.6636   -0.7423    0.0000 H   0  0  0  0  0  0  0  0  0  0  0  0
    8.4607   -0.7423    0.0000 H   0  0  0  0  0  0  0  0  0  0  0  0
    9.5388    1.1250    0.0000 H   0  0  0  0  0  0  0  0  0  0  0  0
    9.1403    1.8153    0.0000 H   0  0  0  0  0  0  0  0  0  0  0  0
   11.5263   -0.8873    0.0000 H   0  0  0  0  0  0  0  0  0  0  0  0
   10.1233    1.5427    0.0000 H   0  0  0  0  0  0  0  0  0  0  0  0
   14.4014   -0.3718    0.0000 H   0  0  0  0  0  0  0  0  0  0  0  0
   14.8032    0.3179    0.0000 H   0  0  0  0  0  0  0  0  0  0  0  0
   14.8032    1.1474    0.0000 H   0  0  0  0  0  0  0  0  0  0  0  0
   14.4014    1.8372    0.0000 H   0  0  0  0  0  0  0  0  0  0  0  0
   11.5263    2.3527    0.0000 H   0  0  0  0  0  0  0  0  0  0  0  0
    8.3722    2.2696    0.0000 H   0  0  0  0  0  0  0  0  0  0  0  0
    7.5252    2.0427    0.0000 H   0  0  0  0  0  0  0  0  0  0  0  0
    7.7522    1.1957    0.0000 H   0  0  0  0  0  0  0  0  0  0  0  0
    5.8626    0.7076    0.0000 H   0  0  0  0  0  0  0  0  0  0  0  0
    5.0656    0.7076    0.0000 H   0  0  0  0  0  0  0  0  0  0  0  0
    6.3301   -0.8873    0.0000 H   0  0  0  0  0  0  0  0  0  0  0  0
    3.7320    0.8527    0.0000 H   0  0  0  0  0  0  0  0  0  0  0  0
    5.1350   -1.5773    0.0000 H   0  0  0  0  0  0  0  0  0  0  0  0
    2.3291    0.0427    0.0000 H   0  0  0  0  0  0  0  0  0  0  0  0
    3.7320   -2.3873    0.0000 H   0  0  0  0  0  0  0  0  0  0  0  0
  1 27  1  0  0  0  0
  2 12  1  0  0  0  0
  2 17  1  0  0  0  0
  3 13  1  0  0  0  0
  3 18  1  0  0  0  0
  4 11  2  0  0  0  0
  5 16  2  0  0  0  0
  6  8  1  0  0  0  0
  6 10  1  0  0  0  0
  6 11  1  0  0  0  0
  7 16  1  0  0  0  0
  7 21  1  0  0  0  0
  7 44  1  0  0  0  0
  8 16  1  0  0  0  0
  8 28  1  0  0  0  0
  8 29  1  0  0  0  0
  9 11  1  0  0  0  0
  9 14  2  0  0  0  0
  9 15  1  0  0  0  0
 10 20  1  0  0  0  0
 10 30  1  0  0  0  0
 10 31  1  0  0  0  0
 12 13  2  0  0  0  0
 12 14  1  0  0  0  0
 13 19  1  0  0  0  0
 14 32  1  0  0  0  0
 15 19  2  0  0  0  0
 15 33  1  0  0  0  0
 17 18  1  0  0  0  0
 17 34  1  0  0  0  0
 17 35  1  0  0  0  0
 18 36  1  0  0  0  0
 18 37  1  0  0  0  0
 19 38  1  0  0  0  0
 20 39  1  0  0  0  0
 20 40  1  0  0  0  0
 20 41  1  0  0  0  0
 21 22  1  0  0  0  0
 21 42  1  0  0  0  0
 21 43  1  0  0  0  0
 22 23  2  0  0  0  0
 22 24  1  0  0  0  0
 23 25  1  0  0  0  0
 23 45  1  0  0  0  0
 24 26  2  0  0  0  0
 24 46  1  0  0  0  0
 25 27  2  0  0  0  0
 25 47  1  0  0  0  0
 26 27  1  0  0  0  0
 26 48  1  0  0  0  0
M  END
> <PUBCHEM_COMPOUND_CID>
17395670

> <PUBCHEM_COMPOUND_CANONICALIZED>
1

> <PUBCHEM_CACTVS_COMPLEXITY>
510

> <PUBCHEM_CACTVS_HBOND_ACCEPTOR>
5

> <PUBCHEM_CACTVS_HBOND_DONOR>
1

> <PUBCHEM_CACTVS_ROTATABLE_BOND>
6

> <PUBCHEM_CACTVS_SUBSKEYS>
AAADceB7OQAAAAAAAAAAAAAAAAAAAAAAAAA0YIAAAAAAAACRQAAAHwAQAAAADAThmA4yBoPABACIAiFSEACCCAAkIAAIiIGOjMgNZjKEtTuWOSrk1hGKqYe63BLOIAABAAAAQABAAAIAAACAAAAAAAAAAA==

> <PUBCHEM_IUPAC_OPENEYE_NAME>
N-ethyl-N-[2-[(4-fluorophenyl)methylamino]-2-oxo-ethyl]-2,3-dihydro-1,4-benzodioxine-6-carboxamide

> <PUBCHEM_IUPAC_CAS_NAME>
N-ethyl-N-[2-[(4-fluorophenyl)methylamino]-2-oxoethyl]-2,3-dihydro-1,4-benzodioxin-6-carboxamide

> <PUBCHEM_IUPAC_NAME>
N-ethyl-N-[2-[(4-fluorophenyl)methylamino]-2-oxoethyl]-2,3-dihydro-1,4-benzodioxine-6-carboxamide

> <PUBCHEM_IUPAC_SYSTEMATIC_NAME>
N-ethyl-N-[2-[(4-fluorophenyl)methylamino]-2-oxidanylidene-ethyl]-2,3-dihydro-1,4-benzodioxine-6-carboxamide

> <PUBCHEM_IUPAC_TRADITIONAL_NAME>
N-ethyl-N-[2-[(4-fluorobenzyl)amino]-2-keto-ethyl]-2,3-dihydro-1,4-benzodioxin-6-carboxamide

> <PUBCHEM_IUPAC_INCHI>
InChI=1S/C20H21FN2O4/c1-2-23(13-19(24)22-12-14-3-6-16(21)7-4-14)20(25)15-5-8-17-18(11-15)27-10-9-26-17/h3-8,11H,2,9-10,12-13H2,1H3,(H,22,24)

> <PUBCHEM_IUPAC_INCHIKEY>
ULZYGIHEWVCYFL-UHFFFAOYSA-N

> <PUBCHEM_XLOGP3_AA>
2.4

> <PUBCHEM_EXACT_MASS>
372.148535

> <PUBCHEM_MOLECULAR_FORMULA>
C20H21FN2O4

> <PUBCHEM_MOLECULAR_WEIGHT>
372.390143

> <PUBCHEM_OPENEYE_CAN_SMILES>
CCN(CC(=O)NCC1=CC=C(C=C1)F)C(=O)C2=CC3=C(C=C2)OCCO3

> <PUBCHEM_OPENEYE_ISO_SMILES>
CCN(CC(=O)NCC1=CC=C(C=C1)F)C(=O)C2=CC3=C(C=C2)OCCO3

> <PUBCHEM_CACTVS_TPSA>
67.9

> <PUBCHEM_MONOISOTOPIC_WEIGHT>
372.148535

> <PUBCHEM_TOTAL_CHARGE>
0

> <PUBCHEM_HEAVY_ATOM_COUNT>
27

> <PUBCHEM_ATOM_DEF_STEREO_COUNT>
0

> <PUBCHEM_ATOM_UDEF_STEREO_COUNT>
0

> <PUBCHEM_BOND_DEF_STEREO_COUNT>
0

> <PUBCHEM_BOND_UDEF_STEREO_COUNT>
0

> <PUBCHEM_ISOTOPIC_ATOM_COUNT>
0

> <PUBCHEM_COMPONENT_COUNT>
1

> <PUBCHEM_CACTVS_TAUTO_COUNT>
2

> <PUBCHEM_COORDINATE_TYPE>
1
5
255

> <PUBCHEM_BONDANNOTATIONS>
12  13  8
12  14  8
13  19  8
15  19  8
22  23  8
22  24  8
23  25  8
24  26  8
25  27  8
26  27  8
9  14  8
9  15  8

$$$$

