7568
  -OEChem-06261202103D

 27 28  0     0  0  0  0  0  0999 V2000
   -0.0010    1.8770    0.0000 O   0  0  0  0  0  0  0  0  0  0  0  0
   -4.8669   -1.9821    0.8697 O   0  5  0  0  0  0  0  0  0  0  0  0
    4.8646   -1.9825   -0.8697 O   0  5  0  0  0  0  0  0  0  0  0  0
   -5.7006   -0.6509   -0.6700 O   0  0  0  0  0  0  0  0  0  0  0  0
    5.6984   -0.6513    0.6700 O   0  0  0  0  0  0  0  0  0  0  0  0
   -4.7677   -1.0050    0.0899 N   0  3  0  0  0  0  0  0  0  0  0  0
    4.7656   -1.0054   -0.0898 N   0  3  0  0  0  0  0  0  0  0  0  0
   -1.1656    1.1729    0.0222 C   0  0  0  0  0  0  0  0  0  0  0  0
    1.1839    1.1606   -0.0225 C   0  0  0  0  0  0  0  0  0  0  0  0
   -1.3045    0.0811    0.8791 C   0  0  0  0  0  0  0  0  0  0  0  0
    1.3023    0.0811   -0.8790 C   0  0  0  0  0  0  0  0  0  0  0  0
   -2.2202    1.5428   -0.8127 C   0  0  0  0  0  0  0  0  0  0  0  0
    2.2181    1.5426    0.8127 C   0  0  0  0  0  0  0  0  0  0  0  0
   -3.5526   -0.2705    0.0667 C   0  0  0  0  0  0  0  0  0  0  0  0
    3.5504   -0.2709   -0.0667 C   0  0  0  0  0  0  0  0  0  0  0  0
   -2.4979   -0.6406    0.9013 C   0  0  0  0  0  0  0  0  0  0  0  0
    2.4957   -0.6409   -0.9012 C   0  0  0  0  0  0  0  0  0  0  0  0
   -3.4137    0.8211   -0.7903 C   0  0  0  0  0  0  0  0  0  0  0  0
    3.4116    0.8209    0.7903 C   0  0  0  0  0  0  0  0  0  0  0  0
   -0.5084   -0.2154    1.5570 H   0  0  0  0  0  0  0  0  0  0  0  0
    0.5047   -0.2120   -1.5553 H   0  0  0  0  0  0  0  0  0  0  0  0
   -2.1171    2.3922   -1.4826 H   0  0  0  0  0  0  0  0  0  0  0  0
    2.1107    2.3920    1.4805 H   0  0  0  0  0  0  0  0  0  0  0  0
   -2.5719   -1.4822    1.5854 H   0  0  0  0  0  0  0  0  0  0  0  0
    2.5696   -1.4824   -1.5855 H   0  0  0  0  0  0  0  0  0  0  0  0
   -4.2133    1.1386   -1.4546 H   0  0  0  0  0  0  0  0  0  0  0  0
    4.2112    1.1383    1.4547 H   0  0  0  0  0  0  0  0  0  0  0  0
  1  8  1  0  0  0  0
  1  9  1  0  0  0  0
  2  6  1  0  0  0  0
  3  7  1  0  0  0  0
  4  6  2  0  0  0  0
  5  7  2  0  0  0  0
  6 14  1  0  0  0  0
  7 15  1  0  0  0  0
  8 10  2  0  0  0  0
  8 12  1  0  0  0  0
  9 11  2  0  0  0  0
  9 13  1  0  0  0  0
 10 16  1  0  0  0  0
 10 20  1  0  0  0  0
 11 17  1  0  0  0  0
 11 21  1  0  0  0  0
 12 18  2  0  0  0  0
 12 22  1  0  0  0  0
 13 19  2  0  0  0  0
 13 23  1  0  0  0  0
 14 16  2  0  0  0  0
 14 18  1  0  0  0  0
 15 17  2  0  0  0  0
 15 19  1  0  0  0  0
 16 24  1  0  0  0  0
 17 25  1  0  0  0  0
 18 26  1  0  0  0  0
 19 27  1  0  0  0  0
M  CHG  4   2  -1   3  -1   6   1   7   1
M  END
> <PUBCHEM_COMPOUND_CID>
7568

> <PUBCHEM_CONFORMER_RMSD>
0.6

> <PUBCHEM_CONFORMER_DIVERSEORDER>
2
1
3

> <PUBCHEM_MMFF94_PARTIAL_CHARGES>
27
1 -0.17
10 -0.15
11 -0.15
12 -0.15
13 -0.15
14 0.13
15 0.13
16 -0.15
17 -0.15
18 -0.15
19 -0.15
2 -0.52
20 0.15
21 0.15
22 0.15
23 0.15
24 0.15
25 0.15
26 0.15
27 0.15
3 -0.52
4 -0.52
5 -0.52
6 0.91
7 0.91
8 0.08
9 0.08

> <PUBCHEM_EFFECTIVE_ROTOR_COUNT>
4

> <PUBCHEM_PHARMACOPHORE_FEATURES>
9
1 1 acceptor
1 2 acceptor
1 2 anion
1 3 acceptor
1 3 anion
1 4 acceptor
1 5 acceptor
6 8 10 12 14 16 18 rings
6 9 11 13 15 17 19 rings

> <PUBCHEM_HEAVY_ATOM_COUNT>
19

> <PUBCHEM_ATOM_DEF_STEREO_COUNT>
0

> <PUBCHEM_ATOM_UDEF_STEREO_COUNT>
0

> <PUBCHEM_BOND_DEF_STEREO_COUNT>
0

> <PUBCHEM_BOND_UDEF_STEREO_COUNT>
0

> <PUBCHEM_ISOTOPIC_ATOM_COUNT>
0

> <PUBCHEM_COMPONENT_COUNT>
1

> <PUBCHEM_CACTVS_TAUTO_COUNT>
1

> <PUBCHEM_CONFORMER_ID>
00001D9000000002

> <PUBCHEM_MMFF94_ENERGY>
69.3314

> <PUBCHEM_FEATURE_SELFOVERLAP>
45.83

> <PUBCHEM_SHAPE_FINGERPRINT>
10 15 18335999575914601760
100836 57 8790884094741031154
10498660 4 8935008057429992859
11132069 177 6194844791333475729
11796584 16 18272093850176822978
12032990 46 18410573989446821189
12363563 72 18411970364918947524
12596602 18 15791734096244794042
12633257 1 15719398308447486799
12954195 1 18271817882176718541
13288520 33 18343302578393825861
13955234 65 18116154368396657360
14115302 16 17203324464534256657
14252887 29 17313099800431212764
14294032 229 16844184531489363853
14341114 328 14779551162282380930
14386348 63 18410856559639822053
16752209 62 17489596662169760769
17870717 6 17989204867564480887
18186145 218 12679165121197740460
19050596 39 15502380006181746213
19141452 34 18262235513701975287
193927 3 18410846664035139588
19784866 240 18410004442713478309
19862831 5 15769772437953414633
200 152 17822297902587294941
20028762 73 17531252724960708350
20261772 1 17821733827515998934
20281475 54 18410564093852805164
20374829 77 18272934916732439283
20645477 70 18409731759777396136
20871999 31 17489866067950791892
21065201 7 18130517404342773161
231179 274 10303808787652332044
23402539 116 17917435362362736981
23402655 69 12535350094815510736
23403322 49 18341330080034328627
23557571 272 18342179998613170117
23559900 14 18059295361769227045
26918003 58 17967533476048133433
2838139 119 10015584965293880850
2871803 45 18272936024427962898
316301 35 18412830166301874770
3286 77 18187644691242728360
4047638 21 8935004776338651392
465052 167 18259700095400970102
5104073 3 17896324786886490568
5718773 13 18410581686028683331
76465 3 18410576184174817122
9709674 26 18128816344085308345

> <PUBCHEM_SHAPE_MULTIPOLES>
351.7
11.8
1.75
1.02
0.04
0.05
0
7.29
0
0
0
0
0.04
1.29

> <PUBCHEM_SHAPE_SELFOVERLAP>
764.939

> <PUBCHEM_SHAPE_VOLUME>
193.2

> <PUBCHEM_COORDINATE_TYPE>
2
5
10

$$$$

