46173874
  -OEChem-07051213103D

 44 44  0     1  0  0  0  0  0999 V2000
    0.5465   -2.6241   -0.0001 S   0  0  0  0  0  0  0  0  0  0  0  0
   -3.9529    2.5383    0.1606 S   0  0  0  0  0  0  0  0  0  0  0  0
    0.8851   -0.0847   -0.7641 O   0  0  0  0  0  0  0  0  0  0  0  0
    4.6427    0.3920    0.8354 O   0  0  0  0  0  0  0  0  0  0  0  0
    3.1417    2.7016    0.0364 O   0  0  0  0  0  0  0  0  0  0  0  0
    2.9143   -1.6923    1.8483 O   0  0  0  0  0  0  0  0  0  0  0  0
   -0.6047    1.9339   -1.8630 O   0  0  0  0  0  0  0  0  0  0  0  0
   -0.5187   -2.0513   -2.4105 O   0  0  0  0  0  0  0  0  0  0  0  0
   -1.5713   -2.0339   -1.4948 N   0  0  0  0  0  0  0  0  0  0  0  0
    3.2147    0.4447    0.8268 C   0  0  1  0  0  0  0  0  0  0  0  0
    2.7726    1.3689   -0.3085 C   0  0  1  0  0  0  0  0  0  0  0  0
    2.6602   -0.9716    0.6434 C   0  0  2  0  0  0  0  0  0  0  0  0
    1.2602    1.2722   -0.5245 C   0  0  1  0  0  0  0  0  0  0  0  0
    1.1573   -0.9361    0.3490 C   0  0  2  0  0  0  0  0  0  0  0  0
    0.7966    2.0862   -1.7287 C   0  0  0  0  0  0  0  0  0  0  0  0
   -1.1566   -2.2820   -0.2921 C   0  0  0  0  0  0  0  0  0  0  0  0
   -2.0234   -2.3435    0.9528 C   0  0  0  0  0  0  0  0  0  0  0  0
   -3.2927   -1.4954    0.8367 C   0  0  0  0  0  0  0  0  0  0  0  0
   -3.0032   -0.0113    0.5883 C   0  0  0  0  0  0  0  0  0  0  0  0
   -4.3017    0.7794    0.4466 C   0  0  0  0  0  0  0  0  0  0  0  0
   -3.5664    3.0090    1.8622 C   0  0  0  0  0  0  0  0  0  0  0  0
    2.9203    0.8555    1.8001 H   0  0  0  0  0  0  0  0  0  0  0  0
    3.3092    1.1070   -1.2284 H   0  0  0  0  0  0  0  0  0  0  0  0
    3.2084   -1.4709   -0.1654 H   0  0  0  0  0  0  0  0  0  0  0  0
    0.7136    1.6332    0.3575 H   0  0  0  0  0  0  0  0  0  0  0  0
    0.6026   -0.5764    1.2244 H   0  0  0  0  0  0  0  0  0  0  0  0
    1.0260    3.1489   -1.6049 H   0  0  0  0  0  0  0  0  0  0  0  0
    1.2619    1.7195   -2.6496 H   0  0  0  0  0  0  0  0  0  0  0  0
    4.9366    0.0258   -0.0162 H   0  0  0  0  0  0  0  0  0  0  0  0
    2.6392    2.9571    0.8287 H   0  0  0  0  0  0  0  0  0  0  0  0
    2.4024   -1.2751    2.5622 H   0  0  0  0  0  0  0  0  0  0  0  0
   -1.4511   -2.0182    1.8291 H   0  0  0  0  0  0  0  0  0  0  0  0
   -2.3017   -3.3919    1.1117 H   0  0  0  0  0  0  0  0  0  0  0  0
   -3.8751   -1.6058    1.7594 H   0  0  0  0  0  0  0  0  0  0  0  0
   -3.9153   -1.8843    0.0211 H   0  0  0  0  0  0  0  0  0  0  0  0
   -0.8778    2.4572   -2.6356 H   0  0  0  0  0  0  0  0  0  0  0  0
   -2.4065    0.3672    1.4263 H   0  0  0  0  0  0  0  0  0  0  0  0
   -2.4025    0.1197   -0.3176 H   0  0  0  0  0  0  0  0  0  0  0  0
   -4.8662    0.4100   -0.4163 H   0  0  0  0  0  0  0  0  0  0  0  0
   -4.9412    0.6646    1.3279 H   0  0  0  0  0  0  0  0  0  0  0  0
   -0.9792   -1.8472   -3.2419 H   0  0  0  0  0  0  0  0  0  0  0  0
   -4.3939    2.7565    2.5303 H   0  0  0  0  0  0  0  0  0  0  0  0
   -3.4111    4.0907    1.9038 H   0  0  0  0  0  0  0  0  0  0  0  0
   -2.6508    2.5223    2.2056 H   0  0  0  0  0  0  0  0  0  0  0  0
  1 14  1  0  0  0  0
  1 16  1  0  0  0  0
  2 20  1  0  0  0  0
  2 21  1  0  0  0  0
  3 13  1  0  0  0  0
  3 14  1  0  0  0  0
  4 10  1  0  0  0  0
  4 29  1  0  0  0  0
  5 11  1  0  0  0  0
  5 30  1  0  0  0  0
  6 12  1  0  0  0  0
  6 31  1  0  0  0  0
  7 15  1  0  0  0  0
  7 36  1  0  0  0  0
  8  9  1  0  0  0  0
  8 41  1  0  0  0  0
  9 16  2  0  0  0  0
 10 11  1  0  0  0  0
 10 12  1  0  0  0  0
 10 22  1  0  0  0  0
 11 13  1  0  0  0  0
 11 23  1  0  0  0  0
 12 14  1  0  0  0  0
 12 24  1  0  0  0  0
 13 15  1  0  0  0  0
 13 25  1  0  0  0  0
 14 26  1  0  0  0  0
 15 27  1  0  0  0  0
 15 28  1  0  0  0  0
 16 17  1  0  0  0  0
 17 18  1  0  0  0  0
 17 32  1  0  0  0  0
 17 33  1  0  0  0  0
 18 19  1  0  0  0  0
 18 34  1  0  0  0  0
 18 35  1  0  0  0  0
 19 20  1  0  0  0  0
 19 37  1  0  0  0  0
 19 38  1  0  0  0  0
 20 39  1  0  0  0  0
 20 40  1  0  0  0  0
 21 42  1  0  0  0  0
 21 43  1  0  0  0  0
 21 44  1  0  0  0  0
M  END
> <PUBCHEM_COMPOUND_CID>
46173874

> <PUBCHEM_CONFORMER_RMSD>
1

> <PUBCHEM_CONFORMER_DIVERSEORDER>
1
11
63
14
74
35
52
88
39
8
81
83
47
22
56
91
104
32
93
12
37
65
61
50
60
72
80
82
86
92
17
2
23
79
9
107
20
119
101
115
95
45
69
31
75
87
3
76
116
55
109
90
117
49
70
84
112
18
97
111
105
120
13
106
78
54
114
103
21
85
26
99
113
58
53
30
59
46
38
96
100
67
15
51
94
16
29
73
44
68
27
36
102
7
6
42
19
110
62
48
66
57
33
64
77
41
108
4
40
98
89
34
5
25
43
24
10
28
71
118

> <PUBCHEM_MMFF94_PARTIAL_CHARGES>
24
1 -0.37
10 0.28
11 0.28
12 0.28
13 0.28
14 0.51
15 0.28
16 0.53
17 0.06
2 -0.46
20 0.23
21 0.23
29 0.4
3 -0.56
30 0.4
31 0.4
36 0.4
4 -0.68
41 0.4
5 -0.68
6 -0.68
7 -0.68
8 -0.34
9 -0.51

> <PUBCHEM_EFFECTIVE_ROTOR_COUNT>
9.2

> <PUBCHEM_PHARMACOPHORE_FEATURES>
14
1 21 hydrophobe
1 3 acceptor
1 4 acceptor
1 4 donor
1 5 acceptor
1 5 donor
1 6 acceptor
1 6 donor
1 7 acceptor
1 7 donor
1 8 anion
1 9 acceptor
5 2 17 18 19 20 hydrophobe
6 3 10 11 12 13 14 rings

> <PUBCHEM_HEAVY_ATOM_COUNT>
21

> <PUBCHEM_ATOM_DEF_STEREO_COUNT>
5

> <PUBCHEM_ATOM_UDEF_STEREO_COUNT>
0

> <PUBCHEM_BOND_DEF_STEREO_COUNT>
1

> <PUBCHEM_BOND_UDEF_STEREO_COUNT>
0

> <PUBCHEM_ISOTOPIC_ATOM_COUNT>
0

> <PUBCHEM_COMPONENT_COUNT>
1

> <PUBCHEM_CACTVS_TAUTO_COUNT>
2

> <PUBCHEM_CONFORMER_ID>
02C08EB200000001

> <PUBCHEM_MMFF94_ENERGY>
49.0405

> <PUBCHEM_FEATURE_SELFOVERLAP>
71.057

> <PUBCHEM_SHAPE_FINGERPRINT>
10382601 240 18128816524257943058
10708813 3 18342452660153303201
11221954 11 18263910198533061923
11370993 70 18337111288774617745
121448 382 7925639911958204422
12633257 1 18126847333534719673
13132413 78 18267584598435800836
14178342 30 17911807868857728466
14251757 17 17541886132071932221
14251764 38 18336825420288761401
14790565 3 18058158441720231644
17859628 37 18198617920736276639
20621476 13 17765155364570065269
20715895 44 18198344151606329609
20739085 24 17703231694432768220
21427221 339 18343577447431176057
22749437 52 18337383959231668081
23419403 2 16313060138864110259
238 59 5761649312864823250
474 4 18121215639752181785
5282274 181 18269547415696478177
5939293 188 17906165505912177283
6438718 38 18262249845211185942
7064713 232 18410015467636441481

> <PUBCHEM_SHAPE_MULTIPOLES>
399.67
7.56
3.9
1.72
2.3
0.23
0.6
4.78
-3.99
1.78
0.23
0.06
0.04
-1.17

> <PUBCHEM_SHAPE_SELFOVERLAP>
755.703

> <PUBCHEM_SHAPE_VOLUME>
248.7

> <PUBCHEM_COORDINATE_TYPE>
2
5
10

$$$$

