5866
  -OEChem-07051212503D

 58 61  0     1  0  0  0  0  0999 V2000
    2.8888    0.1371    1.9949 O   0  0  0  0  0  0  0  0  0  0  0  0
   -0.4689   -2.3405   -1.2893 O   0  0  0  0  0  0  0  0  0  0  0  0
   -5.0039   -0.6085    2.6352 O   0  0  0  0  0  0  0  0  0  0  0  0
    5.2725    0.5461   -0.1722 O   0  0  0  0  0  0  0  0  0  0  0  0
    5.7103   -2.0809    0.5405 O   0  0  0  0  0  0  0  0  0  0  0  0
   -0.5351    1.1429   -0.5399 C   0  0  1  0  0  0  0  0  0  0  0  0
    0.8048    1.1907    0.2130 C   0  0  1  0  0  0  0  0  0  0  0  0
    1.7879    0.0742   -0.2199 C   0  0  1  0  0  0  0  0  0  0  0  0
   -1.2194   -0.2347   -0.2751 C   0  0  1  0  0  0  0  0  0  0  0  0
   -2.6257   -0.3483   -0.9636 C   0  0  2  0  0  0  0  0  0  0  0  0
   -3.5149    0.8682   -0.5226 C   0  0  2  0  0  0  0  0  0  0  0  0
    3.0260    0.4809    0.6195 C   0  0  1  0  0  0  0  0  0  0  0  0
   -1.4421    2.3093   -0.1283 C   0  0  0  0  0  0  0  0  0  0  0  0
    1.6434    2.4627    0.1149 C   0  0  0  0  0  0  0  0  0  0  0  0
    1.1385   -1.2729    0.1149 C   0  0  0  0  0  0  0  0  0  0  0  0
   -2.8230    2.2188   -0.7689 C   0  0  0  0  0  0  0  0  0  0  0  0
   -0.2148   -1.3696   -0.5799 C   0  0  0  0  0  0  0  0  0  0  0  0
    3.0641    2.0209    0.5165 C   0  0  0  0  0  0  0  0  0  0  0  0
   -3.3777   -1.6596   -0.5837 C   0  0  0  0  0  0  0  0  0  0  0  0
   -3.9770    0.7730    0.9472 C   0  0  0  0  0  0  0  0  0  0  0  0
    2.1288    0.1075   -1.7365 C   0  0  0  0  0  0  0  0  0  0  0  0
   -2.4952   -0.3390   -2.5094 C   0  0  0  0  0  0  0  0  0  0  0  0
   -3.8063   -1.7365    0.8765 C   0  0  0  0  0  0  0  0  0  0  0  0
   -4.6784   -0.5461    1.2505 C   0  0  1  0  0  0  0  0  0  0  0  0
    4.3238   -0.1424    0.2009 C   0  0  0  0  0  0  0  0  0  0  0  0
    4.3932   -1.6535    0.2645 C   0  0  0  0  0  0  0  0  0  0  0  0
   -0.3346    1.2528   -1.6109 H   0  0  0  0  0  0  0  0  0  0  0  0
    0.5700    1.0569    1.2818 H   0  0  0  0  0  0  0  0  0  0  0  0
   -1.3773   -0.3144    0.8093 H   0  0  0  0  0  0  0  0  0  0  0  0
   -4.4288    0.8612   -1.1345 H   0  0  0  0  0  0  0  0  0  0  0  0
   -0.9843    3.2606   -0.4248 H   0  0  0  0  0  0  0  0  0  0  0  0
   -1.5389    2.3440    0.9632 H   0  0  0  0  0  0  0  0  0  0  0  0
    1.2712    3.2481    0.7810 H   0  0  0  0  0  0  0  0  0  0  0  0
    1.6423    2.8669   -0.9037 H   0  0  0  0  0  0  0  0  0  0  0  0
    0.9678   -1.3990    1.1897 H   0  0  0  0  0  0  0  0  0  0  0  0
    1.7518   -2.1132   -0.2231 H   0  0  0  0  0  0  0  0  0  0  0  0
   -3.4501    3.0352   -0.3898 H   0  0  0  0  0  0  0  0  0  0  0  0
   -2.7290    2.3930   -1.8473 H   0  0  0  0  0  0  0  0  0  0  0  0
    3.7607    2.3913   -0.2437 H   0  0  0  0  0  0  0  0  0  0  0  0
    3.3425    2.4884    1.4682 H   0  0  0  0  0  0  0  0  0  0  0  0
   -2.7855   -2.5470   -0.8239 H   0  0  0  0  0  0  0  0  0  0  0  0
   -4.2832   -1.7407   -1.2019 H   0  0  0  0  0  0  0  0  0  0  0  0
   -3.1371    0.9007    1.6401 H   0  0  0  0  0  0  0  0  0  0  0  0
   -4.6622    1.5995    1.1768 H   0  0  0  0  0  0  0  0  0  0  0  0
    2.8170   -0.6992   -2.0072 H   0  0  0  0  0  0  0  0  0  0  0  0
    1.2450   -0.0248   -2.3677 H   0  0  0  0  0  0  0  0  0  0  0  0
    2.6003    1.0475   -2.0400 H   0  0  0  0  0  0  0  0  0  0  0  0
   -1.9871   -1.2332   -2.8819 H   0  0  0  0  0  0  0  0  0  0  0  0
   -3.4846   -0.3192   -2.9819 H   0  0  0  0  0  0  0  0  0  0  0  0
   -1.9460    0.5273   -2.8859 H   0  0  0  0  0  0  0  0  0  0  0  0
   -4.3648   -2.6645    1.0509 H   0  0  0  0  0  0  0  0  0  0  0  0
   -2.9329   -1.7971    1.5366 H   0  0  0  0  0  0  0  0  0  0  0  0
   -5.6224   -0.5934    0.6953 H   0  0  0  0  0  0  0  0  0  0  0  0
    3.6169    0.5496    2.4904 H   0  0  0  0  0  0  0  0  0  0  0  0
    4.0711   -2.0868   -0.6847 H   0  0  0  0  0  0  0  0  0  0  0  0
    3.7630   -2.0347    1.0706 H   0  0  0  0  0  0  0  0  0  0  0  0
   -4.1739   -0.5716    3.1405 H   0  0  0  0  0  0  0  0  0  0  0  0
    6.2644   -1.8293   -0.2180 H   0  0  0  0  0  0  0  0  0  0  0  0
  1 12  1  0  0  0  0
  1 54  1  0  0  0  0
  2 17  2  0  0  0  0
  3 24  1  0  0  0  0
  3 57  1  0  0  0  0
  4 25  2  0  0  0  0
  5 26  1  0  0  0  0
  5 58  1  0  0  0  0
  6  7  1  0  0  0  0
  6  9  1  0  0  0  0
  6 13  1  0  0  0  0
  6 27  1  0  0  0  0
  7  8  1  0  0  0  0
  7 14  1  0  0  0  0
  7 28  1  0  0  0  0
  8 12  1  0  0  0  0
  8 15  1  0  0  0  0
  8 21  1  0  0  0  0
  9 10  1  0  0  0  0
  9 17  1  0  0  0  0
  9 29  1  0  0  0  0
 10 11  1  0  0  0  0
 10 19  1  0  0  0  0
 10 22  1  0  0  0  0
 11 16  1  0  0  0  0
 11 20  1  0  0  0  0
 11 30  1  0  0  0  0
 12 18  1  0  0  0  0
 12 25  1  0  0  0  0
 13 16  1  0  0  0  0
 13 31  1  0  0  0  0
 13 32  1  0  0  0  0
 14 18  1  0  0  0  0
 14 33  1  0  0  0  0
 14 34  1  0  0  0  0
 15 17  1  0  0  0  0
 15 35  1  0  0  0  0
 15 36  1  0  0  0  0
 16 37  1  0  0  0  0
 16 38  1  0  0  0  0
 18 39  1  0  0  0  0
 18 40  1  0  0  0  0
 19 23  1  0  0  0  0
 19 41  1  0  0  0  0
 19 42  1  0  0  0  0
 20 24  1  0  0  0  0
 20 43  1  0  0  0  0
 20 44  1  0  0  0  0
 21 45  1  0  0  0  0
 21 46  1  0  0  0  0
 21 47  1  0  0  0  0
 22 48  1  0  0  0  0
 22 49  1  0  0  0  0
 22 50  1  0  0  0  0
 23 24  1  0  0  0  0
 23 51  1  0  0  0  0
 23 52  1  0  0  0  0
 24 53  1  0  0  0  0
 25 26  1  0  0  0  0
 26 55  1  0  0  0  0
 26 56  1  0  0  0  0
M  END
> <PUBCHEM_COMPOUND_CID>
5866

> <PUBCHEM_CONFORMER_RMSD>
0.8

> <PUBCHEM_CONFORMER_DIVERSEORDER>
1
4
2
3

> <PUBCHEM_MMFF94_PARTIAL_CHARGES>
15
1 -0.68
12 0.34
15 0.06
17 0.45
2 -0.57
24 0.28
25 0.45
26 0.34
3 -0.68
4 -0.57
5 -0.68
54 0.4
57 0.4
58 0.4
9 0.06

> <PUBCHEM_EFFECTIVE_ROTOR_COUNT>
4

> <PUBCHEM_PHARMACOPHORE_FEATURES>
12
1 1 acceptor
1 1 donor
1 2 acceptor
1 3 acceptor
1 3 donor
1 4 acceptor
1 5 acceptor
1 5 donor
5 7 8 12 14 18 rings
6 10 11 19 20 23 24 rings
6 6 7 8 9 15 17 rings
6 6 9 10 11 13 16 rings

> <PUBCHEM_HEAVY_ATOM_COUNT>
26

> <PUBCHEM_ATOM_DEF_STEREO_COUNT>
8

> <PUBCHEM_ATOM_UDEF_STEREO_COUNT>
0

> <PUBCHEM_BOND_DEF_STEREO_COUNT>
0

> <PUBCHEM_BOND_UDEF_STEREO_COUNT>
0

> <PUBCHEM_ISOTOPIC_ATOM_COUNT>
0

> <PUBCHEM_COMPONENT_COUNT>
1

> <PUBCHEM_CACTVS_TAUTO_COUNT>
9

> <PUBCHEM_CONFORMER_ID>
000016EA00000001

> <PUBCHEM_MMFF94_ENERGY>
84.2332

> <PUBCHEM_FEATURE_SELFOVERLAP>
61.027

> <PUBCHEM_SHAPE_FINGERPRINT>
11135609 12 18201145671792320794
11552529 35 17826514366529620079
12236239 1 17775282794527325020
12403259 226 18337402551480629333
12422481 6 18187918546973602283
12553582 1 18410022009151019316
12633257 1 17603586313575295072
12670546 177 11023827258050460123
12714826 92 17275112704304432789
12788726 201 17676476285767102576
13140716 1 18335420162455040609
13224815 77 18272093760051068501
13583140 156 17416991485244270829
13675066 3 18335709342507725496
14223421 5 18412543253948833893
14341114 176 18343578551258883200
14955137 171 18337662100981518800
15196674 1 18409738369684670012
15209289 33 18272933816762064274
15209294 21 17458059361523189427
15788980 27 18413112779101416630
16945 1 18335998466583813812
17349148 13 17603590699011048566
1813 80 17560801000434354316
18186145 218 17894911823638730212
18769570 83 14346075368715773267
18927931 339 18411699928013547230
19591789 44 18410017636911170382
20261772 1 18335137562069823681
20739085 24 18339347566265349461
20775438 99 12314913201337545185
20775530 9 15121515664411796233
21033648 29 17968678093079912080
221490 88 18412829079706459272
22182313 1 18116426144803840022
23402539 116 18041858293195865636
23557571 272 17274833466953020757
23559900 14 18342469131268603996
2748010 2 18190467249223163805
2838139 119 4822111001292915371
296302 2 7132718301009589726
312423 11 17632000992709235973
335352 9 18336554926836642668
350125 39 18409446985759796309
460360 51 17972867335750739638
465052 167 18271793589287459907
5104073 3 18041003895125040130

> <PUBCHEM_SHAPE_MULTIPOLES>
505.72
10.24
2.42
1.63
4.59
0.42
0.04
-3.27
4.1
0.33
-0.09
-1.72
-0.35
0.37

> <PUBCHEM_SHAPE_SELFOVERLAP>
1081.748

> <PUBCHEM_SHAPE_VOLUME>
277.5

> <PUBCHEM_COORDINATE_TYPE>
2
5
10

$$$$

