159079
  -OEChem-07051213063D

 42 42  0     1  0  0  0  0  0999 V2000
   -1.6381   -2.0526    0.4245 S   0  3  0  0  0  0  0  0  0  0  0  0
   -1.8744    1.4818    0.9930 O   0  0  0  0  0  0  0  0  0  0  0  0
    1.4961    0.5102   -2.2030 O   0  0  0  0  0  0  0  0  0  0  0  0
    4.5811   -0.0888    2.2878 O   0  0  0  0  0  0  0  0  0  0  0  0
    5.8685   -1.2713    0.8436 O   0  0  0  0  0  0  0  0  0  0  0  0
   -4.8912   -0.4368    0.7643 O   0  0  0  0  0  0  0  0  0  0  0  0
   -6.3822    1.1994    1.2617 O   0  0  0  0  0  0  0  0  0  0  0  0
    0.1732    0.4119   -0.2962 N   0  0  0  0  0  0  0  0  0  0  0  0
   -3.3717    1.0706   -0.7338 N   0  0  0  0  0  0  0  0  0  0  0  0
    6.3143    1.0405   -0.5899 N   0  0  0  0  0  0  0  0  0  0  0  0
   -2.6336   -3.4328   -0.2826 C   0  0  0  0  0  0  0  0  0  0  0  0
   -1.1633   -3.6829   -0.2924 C   0  0  0  0  0  0  0  0  0  0  0  0
   -1.4980   -1.1771   -1.1671 C   0  0  0  0  0  0  0  0  0  0  0  0
   -1.1004    0.2813   -0.9653 C   0  0  1  0  0  0  0  0  0  0  0  0
   -2.1363    0.9961   -0.1054 C   0  0  0  0  0  0  0  0  0  0  0  0
    1.3752    0.5162   -0.9810 C   0  0  0  0  0  0  0  0  0  0  0  0
    2.5526    0.6319   -0.0277 C   0  0  0  0  0  0  0  0  0  0  0  0
    3.8894    0.7482   -0.7630 C   0  0  0  0  0  0  0  0  0  0  0  0
    5.0767    0.9386    0.1874 C   0  0  1  0  0  0  0  0  0  0  0  0
   -4.5149    1.7409   -0.1577 C   0  0  0  0  0  0  0  0  0  0  0  0
    5.2404   -0.2546    1.1115 C   0  0  0  0  0  0  0  0  0  0  0  0
   -5.3634    0.8293    0.6912 C   0  0  0  0  0  0  0  0  0  0  0  0
   -3.2362   -3.9799    0.4332 H   0  0  0  0  0  0  0  0  0  0  0  0
   -3.1353   -3.2811   -1.2307 H   0  0  0  0  0  0  0  0  0  0  0  0
   -0.7675   -4.3996    0.4185 H   0  0  0  0  0  0  0  0  0  0  0  0
   -0.6530   -3.7143   -1.2473 H   0  0  0  0  0  0  0  0  0  0  0  0
   -0.7329   -1.6570   -1.7859 H   0  0  0  0  0  0  0  0  0  0  0  0
   -2.4512   -1.2448   -1.6997 H   0  0  0  0  0  0  0  0  0  0  0  0
   -1.0437    0.7878   -1.9362 H   0  0  0  0  0  0  0  0  0  0  0  0
    0.1868    0.4115    0.7202 H   0  0  0  0  0  0  0  0  0  0  0  0
    2.3956    1.5125    0.6064 H   0  0  0  0  0  0  0  0  0  0  0  0
    2.5412   -0.2575    0.6121 H   0  0  0  0  0  0  0  0  0  0  0  0
    4.0354   -0.1536   -1.3735 H   0  0  0  0  0  0  0  0  0  0  0  0
    3.8431    1.5933   -1.4628 H   0  0  0  0  0  0  0  0  0  0  0  0
   -3.4886    0.6623   -1.6561 H   0  0  0  0  0  0  0  0  0  0  0  0
    4.9615    1.8497    0.7850 H   0  0  0  0  0  0  0  0  0  0  0  0
   -5.1234    2.1140   -0.9861 H   0  0  0  0  0  0  0  0  0  0  0  0
   -4.1689    2.5728    0.4628 H   0  0  0  0  0  0  0  0  0  0  0  0
    7.0931    1.2492    0.0342 H   0  0  0  0  0  0  0  0  0  0  0  0
    6.2490    1.8284   -1.2334 H   0  0  0  0  0  0  0  0  0  0  0  0
    4.6794   -0.8685    2.8749 H   0  0  0  0  0  0  0  0  0  0  0  0
   -5.4588   -1.0098    1.3225 H   0  0  0  0  0  0  0  0  0  0  0  0
  1 11  1  0  0  0  0
  1 12  1  0  0  0  0
  1 13  1  0  0  0  0
  2 15  2  0  0  0  0
  3 16  2  0  0  0  0
  4 21  1  0  0  0  0
  4 41  1  0  0  0  0
  5 21  2  0  0  0  0
  6 22  1  0  0  0  0
  6 42  1  0  0  0  0
  7 22  2  0  0  0  0
  8 14  1  0  0  0  0
  8 16  1  0  0  0  0
  8 30  1  0  0  0  0
  9 15  1  0  0  0  0
  9 20  1  0  0  0  0
  9 35  1  0  0  0  0
 10 19  1  0  0  0  0
 10 39  1  0  0  0  0
 10 40  1  0  0  0  0
 11 12  1  0  0  0  0
 11 23  1  0  0  0  0
 11 24  1  0  0  0  0
 12 25  1  0  0  0  0
 12 26  1  0  0  0  0
 13 14  1  0  0  0  0
 13 27  1  0  0  0  0
 13 28  1  0  0  0  0
 14 15  1  0  0  0  0
 14 29  1  0  0  0  0
 16 17  1  0  0  0  0
 17 18  1  0  0  0  0
 17 31  1  0  0  0  0
 17 32  1  0  0  0  0
 18 19  1  0  0  0  0
 18 33  1  0  0  0  0
 18 34  1  0  0  0  0
 19 21  1  0  0  0  0
 19 36  1  0  0  0  0
 20 22  1  0  0  0  0
 20 37  1  0  0  0  0
 20 38  1  0  0  0  0
M  CHG  1   1   1
M  END
> <PUBCHEM_COMPOUND_CID>
159079

> <PUBCHEM_CONFORMER_RMSD>
1

> <PUBCHEM_CONFORMER_DIVERSEORDER>
1
69
85
27
70
83
50
51
89
75
35
57
13
38
46
31
49
29
81
20
42
23
10
22
68
25
33
74
54
82
17
41
91
26
62
64
21
72
87
32
59
36
9
8
4
47
15
34
77
6
78
52
53
14
12
19
61
86
92
79
5
7
58
90
40
16
88
55
65
76
66
45
73
30
71
37
11
60
24
84
2
48
67
28
43
18
80
56
44
3
63
39

> <PUBCHEM_EFFECTIVE_ROTOR_COUNT>
12.6

> <PUBCHEM_PHARMACOPHORE_FEATURES>
12
1 10 cation
1 10 donor
1 2 acceptor
1 3 acceptor
1 4 acceptor
1 5 acceptor
1 6 acceptor
1 7 acceptor
1 8 donor
1 9 donor
3 4 5 21 anion
3 6 7 22 anion

> <PUBCHEM_HEAVY_ATOM_COUNT>
22

> <PUBCHEM_ATOM_DEF_STEREO_COUNT>
2

> <PUBCHEM_ATOM_UDEF_STEREO_COUNT>
0

> <PUBCHEM_BOND_DEF_STEREO_COUNT>
0

> <PUBCHEM_BOND_UDEF_STEREO_COUNT>
0

> <PUBCHEM_ISOTOPIC_ATOM_COUNT>
0

> <PUBCHEM_COMPONENT_COUNT>
1

> <PUBCHEM_CACTVS_TAUTO_COUNT>
4

> <PUBCHEM_CONFORMER_ID>
00026D6700000001

> <PUBCHEM_MMFF94_ENERGY>
33.2284

> <PUBCHEM_FEATURE_SELFOVERLAP>
61.01

> <PUBCHEM_SHAPE_FINGERPRINT>
10692045 39 18116713109065811102
10906281 52 17603852391100017985
11405975 8 18337395929115708592
12236239 1 18060700597790669860
12596602 18 18131349730592931024
12597179 24 18113333128580506199
12616971 3 17489040305486634184
12633257 1 18408888416957821052
13052359 8 18339920421035672407
13533116 47 17677329553960822734
13551218 46 17917996117524533898
13583140 156 17603878758742576474
14866123 147 18339643335315526371
15048467 5 13984660386955931817
15537594 2 17561089124869823434
16994733 274 16009021843932423747
1813 80 16486971834607144550
20554085 129 18115317790635031945
21033648 29 17240774930636509416
220451 1 18273495650736034724
22224240 67 18334288782892290113
23402539 116 18186806876636517325
23559900 14 18187916288596031348
23598288 3 18054211151325151423
23622692 88 18059852852845264589
25147074 1 17916011357402535868
255183 451 9870303226300619089
4340502 62 18334850658375848247
5104073 3 18265344923800102368
56633871 153 18057623138386970226
5924683 9 18265059041580648038
7226269 152 18113615694716085129
9981440 41 17385724733135697423

> <PUBCHEM_SHAPE_MULTIPOLES>
406.44
14.47
2.83
1.43
10.45
3.96
-0.11
-5.72
-6.09
-3.7
0.12
0.95
-0.15
-1.32

> <PUBCHEM_SHAPE_SELFOVERLAP>
788.266

> <PUBCHEM_SHAPE_VOLUME>
245.4

> <PUBCHEM_COORDINATE_TYPE>
2
5
10

$$$$

