439395
  -OEChem-07051212453D

 30 30  0     1  0  0  0  0  0999 V2000
   -2.1904   -1.4992   -0.3218 P   0  0  2  0  0  0  0  0  0  0  0  0
   -2.8550    1.3030    0.2784 P   0  0  0  0  0  0  0  0  0  0  0  0
    1.5938    0.5118   -0.9974 O   0  0  0  0  0  0  0  0  0  0  0  0
    3.2719   -1.5661    1.3975 O   0  0  0  0  0  0  0  0  0  0  0  0
    4.4651   -0.3436   -0.7523 O   0  0  0  0  0  0  0  0  0  0  0  0
   -0.6387   -1.1760   -0.6449 O   0  0  0  0  0  0  0  0  0  0  0  0
    2.3638    2.4759    0.0448 O   0  0  0  0  0  0  0  0  0  0  0  0
   -2.6774   -0.2692    0.6075 O   0  0  0  0  0  0  0  0  0  0  0  0
   -2.1376   -2.7445    0.7095 O   0  0  0  0  0  0  0  0  0  0  0  0
   -3.0482   -1.7331   -1.5315 O   0  0  0  0  0  0  0  0  0  0  0  0
   -3.5279    1.8863    1.6271 O   0  0  0  0  0  0  0  0  0  0  0  0
   -4.0677    1.3259   -0.7899 O   0  0  0  0  0  0  0  0  0  0  0  0
   -1.5995    1.9963   -0.1617 O   0  0  0  0  0  0  0  0  0  0  0  0
    2.7026   -0.3793    0.8871 C   0  0  2  0  0  0  0  0  0  0  0  0
    1.6453   -0.6622   -0.1675 C   0  0  1  0  0  0  0  0  0  0  0  0
    3.6863    0.4757    0.1139 C   0  0  2  0  0  0  0  0  0  0  0  0
    2.7430    1.3348   -0.7154 C   0  0  1  0  0  0  0  0  0  0  0  0
    0.2708   -0.9366    0.4167 C   0  0  0  0  0  0  0  0  0  0  0  0
    1.9286   -1.5041   -0.8117 H   0  0  0  0  0  0  0  0  0  0  0  0
    2.2857    0.2015    1.7192 H   0  0  0  0  0  0  0  0  0  0  0  0
    4.3633    1.0379    0.7628 H   0  0  0  0  0  0  0  0  0  0  0  0
    3.1898    1.6596   -1.6608 H   0  0  0  0  0  0  0  0  0  0  0  0
   -0.0806   -0.0727    0.9893 H   0  0  0  0  0  0  0  0  0  0  0  0
    0.2988   -1.8113    1.0735 H   0  0  0  0  0  0  0  0  0  0  0  0
    2.5603   -2.0777    1.8181 H   0  0  0  0  0  0  0  0  0  0  0  0
    3.8924   -0.7048   -1.4491 H   0  0  0  0  0  0  0  0  0  0  0  0
    2.0566    3.1492   -0.5857 H   0  0  0  0  0  0  0  0  0  0  0  0
   -1.9977   -3.6483    0.3548 H   0  0  0  0  0  0  0  0  0  0  0  0
   -3.6607    2.8545    1.7112 H   0  0  0  0  0  0  0  0  0  0  0  0
   -4.3155    2.1775   -1.2088 H   0  0  0  0  0  0  0  0  0  0  0  0
  1  6  1  0  0  0  0
  1  8  1  0  0  0  0
  1  9  1  0  0  0  0
  1 10  2  0  0  0  0
  2  8  1  0  0  0  0
  2 11  1  0  0  0  0
  2 12  1  0  0  0  0
  2 13  2  0  0  0  0
  3 15  1  0  0  0  0
  3 17  1  0  0  0  0
  4 14  1  0  0  0  0
  4 25  1  0  0  0  0
  5 16  1  0  0  0  0
  5 26  1  0  0  0  0
  6 18  1  0  0  0  0
  7 17  1  0  0  0  0
  7 27  1  0  0  0  0
  9 28  1  0  0  0  0
 11 29  1  0  0  0  0
 12 30  1  0  0  0  0
 14 15  1  0  0  0  0
 14 16  1  0  0  0  0
 14 20  1  0  0  0  0
 15 18  1  0  0  0  0
 15 19  1  0  0  0  0
 16 17  1  0  0  0  0
 16 21  1  0  0  0  0
 17 22  1  0  0  0  0
 18 23  1  0  0  0  0
 18 24  1  0  0  0  0
M  END
> <PUBCHEM_COMPOUND_CID>
439395

> <PUBCHEM_CONFORMER_RMSD>
0.8

> <PUBCHEM_CONFORMER_DIVERSEORDER>
1
22
64
88
33
54
25
75
58
65
39
53
27
71
28
83
34
29
70
78
35
76
52
5
44
87
47
11
18
7
24
73
46
60
49
21
74
15
55
86
16
45
67
82
4
77
56
38
36
81
66
9
42
85
72
79
30
8
59
23
17
40
14
50
62
2
10
68
13
63
89
3
84
19
51
26
41
43
6
12
57
80
37
31
20
61
32
69
48

> <PUBCHEM_MMFF94_PARTIAL_CHARGES>
24
1 1.51
10 -0.7
11 -0.77
12 -0.77
13 -0.7
14 0.28
15 0.28
16 0.28
17 0.56
18 0.28
2 1.51
25 0.4
26 0.4
27 0.4
28 0.5
29 0.5
3 -0.56
30 0.5
4 -0.68
5 -0.68
6 -0.55
7 -0.68
8 -0.54
9 -0.77

> <PUBCHEM_EFFECTIVE_ROTOR_COUNT>
6

> <PUBCHEM_PHARMACOPHORE_FEATURES>
14
1 10 acceptor
1 11 acceptor
1 12 acceptor
1 13 acceptor
1 3 acceptor
1 4 acceptor
1 4 donor
1 5 acceptor
1 5 donor
1 7 acceptor
1 7 donor
1 9 acceptor
4 2 11 12 13 anion
5 3 14 15 16 17 rings

> <PUBCHEM_HEAVY_ATOM_COUNT>
18

> <PUBCHEM_ATOM_DEF_STEREO_COUNT>
4

> <PUBCHEM_ATOM_UDEF_STEREO_COUNT>
0

> <PUBCHEM_BOND_DEF_STEREO_COUNT>
0

> <PUBCHEM_BOND_UDEF_STEREO_COUNT>
0

> <PUBCHEM_ISOTOPIC_ATOM_COUNT>
0

> <PUBCHEM_COMPONENT_COUNT>
1

> <PUBCHEM_CACTVS_TAUTO_COUNT>
1

> <PUBCHEM_CONFORMER_ID>
0006B46300000001

> <PUBCHEM_MMFF94_ENERGY>
-15.9205

> <PUBCHEM_FEATURE_SELFOVERLAP>
71.14

> <PUBCHEM_SHAPE_FINGERPRINT>
12162725 195 18410296865377301142
12633257 1 18337954600843866192
13583140 156 17775277283825945073
14144814 61 18273220776718090234
15442244 35 18341900735644583674
15775835 57 18341888619077708864
17834072 32 18410291453982486049
18186145 218 18059579027469279094
20261772 1 18341043111831649097
21524375 3 18263085577591701483
22094290 62 18341050812918663106
23402539 116 18262525797424742119
23557571 272 17458346312240401907
23559900 14 17822008757516418366
23598291 2 18270690864940146490
312423 11 18341044129802195286
7097593 13 18200882884535229058
74978 22 18342460322359004714
7615 1 18340498784909112250
7832392 63 18411980269482790784

> <PUBCHEM_SHAPE_MULTIPOLES>
313.57
7.92
2.52
1.17
1.07
0.12
0.11
1.58
0.01
-1.77
0.26
-0.33
-0.12
-1.16

> <PUBCHEM_SHAPE_SELFOVERLAP>
600.006

> <PUBCHEM_SHAPE_VOLUME>
193.1

> <PUBCHEM_COORDINATE_TYPE>
2
5
10

$$$$

