656549
  -OEChem-07051212553D

 49 50  0     1  0  0  0  0  0999 V2000
    1.1512   -0.0393    2.3587 S   0  0  0  0  0  0  0  0  0  0  0  0
   -1.2936    3.4992   -0.4991 S   0  0  0  0  0  0  0  0  0  0  0  0
    1.6207   -0.4832   -0.2346 O   0  0  0  0  0  0  0  0  0  0  0  0
    5.6146   -1.3588    0.1786 O   0  0  0  0  0  0  0  0  0  0  0  0
    4.5047   -0.7752   -2.4686 O   0  0  0  0  0  0  0  0  0  0  0  0
    4.2689    0.1698    2.2217 O   0  0  0  0  0  0  0  0  0  0  0  0
    0.3216   -0.2005   -2.6375 O   0  0  0  0  0  0  0  0  0  0  0  0
   -1.4277    2.2831    0.5811 O   0  0  0  0  0  0  0  0  0  0  0  0
   -4.5797   -1.1324   -1.2468 O   0  0  0  0  0  0  0  0  0  0  0  0
   -2.8488    3.8410   -0.8485 O   0  0  0  0  0  0  0  0  0  0  0  0
   -0.7318    4.6523    0.1795 O   0  0  0  0  0  0  0  0  0  0  0  0
   -0.6768    2.9767   -1.7040 O   0  0  0  0  0  0  0  0  0  0  0  0
   -0.1801    1.7462    0.9055 N   0  0  0  0  0  0  0  0  0  0  0  0
    3.7320   -1.0265   -1.2981 C   0  0  1  0  0  0  0  0  0  0  0  0
    4.4859   -0.5182   -0.0686 C   0  0  1  0  0  0  0  0  0  0  0  0
    2.3809   -0.3195   -1.4325 C   0  0  1  0  0  0  0  0  0  0  0  0
    3.5989   -0.5400    1.1803 C   0  0  2  0  0  0  0  0  0  0  0  0
    2.2442    0.1182    0.8999 C   0  0  2  0  0  0  0  0  0  0  0  0
    1.5559   -0.8920   -2.5807 C   0  0  0  0  0  0  0  0  0  0  0  0
   -0.2897    0.7807    1.7634 C   0  0  0  0  0  0  0  0  0  0  0  0
   -1.5857    0.2600    2.3557 C   0  0  0  0  0  0  0  0  0  0  0  0
   -2.2143   -0.8197    1.5084 C   0  0  0  0  0  0  0  0  0  0  0  0
   -3.1139   -0.4663    0.5153 C   0  0  0  0  0  0  0  0  0  0  0  0
   -1.8798   -2.1446    1.7392 C   0  0  0  0  0  0  0  0  0  0  0  0
   -3.6943   -1.4641   -0.2678 C   0  0  0  0  0  0  0  0  0  0  0  0
   -2.4603   -3.1423    0.9561 C   0  0  0  0  0  0  0  0  0  0  0  0
   -3.3676   -2.8020   -0.0473 C   0  0  0  0  0  0  0  0  0  0  0  0
   -5.1355   -2.2025   -2.0094 C   0  0  0  0  0  0  0  0  0  0  0  0
    4.8826    0.4882   -0.2515 H   0  0  0  0  0  0  0  0  0  0  0  0
    3.5903   -2.1117   -1.2185 H   0  0  0  0  0  0  0  0  0  0  0  0
    2.5203    0.7550   -1.6141 H   0  0  0  0  0  0  0  0  0  0  0  0
    3.4754   -1.5811    1.5067 H   0  0  0  0  0  0  0  0  0  0  0  0
    2.3864    1.1909    0.7182 H   0  0  0  0  0  0  0  0  0  0  0  0
    1.3284   -1.9493   -2.4113 H   0  0  0  0  0  0  0  0  0  0  0  0
    2.0620   -0.7902   -3.5454 H   0  0  0  0  0  0  0  0  0  0  0  0
    6.0649   -1.0164    0.9697 H   0  0  0  0  0  0  0  0  0  0  0  0
    5.3665   -1.2091   -2.3467 H   0  0  0  0  0  0  0  0  0  0  0  0
    3.6871    0.1581    3.0008 H   0  0  0  0  0  0  0  0  0  0  0  0
    0.5147    0.7366   -2.8110 H   0  0  0  0  0  0  0  0  0  0  0  0
   -2.2916    1.0884    2.4921 H   0  0  0  0  0  0  0  0  0  0  0  0
   -1.4112   -0.1231    3.3697 H   0  0  0  0  0  0  0  0  0  0  0  0
   -3.3838    0.5712    0.3428 H   0  0  0  0  0  0  0  0  0  0  0  0
   -1.1776   -2.4225    2.5195 H   0  0  0  0  0  0  0  0  0  0  0  0
   -2.2057   -4.1840    1.1289 H   0  0  0  0  0  0  0  0  0  0  0  0
   -3.7807   -3.6268   -0.6178 H   0  0  0  0  0  0  0  0  0  0  0  0
   -4.3642   -2.7368   -2.5746 H   0  0  0  0  0  0  0  0  0  0  0  0
   -5.7325   -2.8749   -1.3840 H   0  0  0  0  0  0  0  0  0  0  0  0
   -5.8174   -1.7575   -2.7415 H   0  0  0  0  0  0  0  0  0  0  0  0
   -3.4475    3.9246   -0.0696 H   0  0  0  0  0  0  0  0  0  0  0  0
  1 18  1  0  0  0  0
  1 20  1  0  0  0  0
  2  8  1  0  0  0  0
  2 10  1  0  0  0  0
  2 11  2  0  0  0  0
  2 12  2  0  0  0  0
  3 16  1  0  0  0  0
  3 18  1  0  0  0  0
  4 15  1  0  0  0  0
  4 36  1  0  0  0  0
  5 14  1  0  0  0  0
  5 37  1  0  0  0  0
  6 17  1  0  0  0  0
  6 38  1  0  0  0  0
  7 19  1  0  0  0  0
  7 39  1  0  0  0  0
  8 13  1  0  0  0  0
  9 25  1  0  0  0  0
  9 28  1  0  0  0  0
 10 49  1  0  0  0  0
 13 20  2  0  0  0  0
 14 15  1  0  0  0  0
 14 16  1  0  0  0  0
 14 30  1  0  0  0  0
 15 17  1  0  0  0  0
 15 29  1  0  0  0  0
 16 19  1  0  0  0  0
 16 31  1  0  0  0  0
 17 18  1  0  0  0  0
 17 32  1  0  0  0  0
 18 33  1  0  0  0  0
 19 34  1  0  0  0  0
 19 35  1  0  0  0  0
 20 21  1  0  0  0  0
 21 22  1  0  0  0  0
 21 40  1  0  0  0  0
 21 41  1  0  0  0  0
 22 23  2  0  0  0  0
 22 24  1  0  0  0  0
 23 25  1  0  0  0  0
 23 42  1  0  0  0  0
 24 26  2  0  0  0  0
 24 43  1  0  0  0  0
 25 27  2  0  0  0  0
 26 27  1  0  0  0  0
 26 44  1  0  0  0  0
 27 45  1  0  0  0  0
 28 46  1  0  0  0  0
 28 47  1  0  0  0  0
 28 48  1  0  0  0  0
M  END
> <PUBCHEM_COMPOUND_CID>
656549

> <PUBCHEM_CONFORMER_RMSD>
1

> <PUBCHEM_CONFORMER_DIVERSEORDER>
1
306
133
412
20
148
97
34
44
351
334
365
405
94
39
250
297
103
18
227
70
194
143
369
30
408
333
160
298
75
60
260
56
338
314
157
35
152
418
376
285
106
251
98
72
342
357
272
360
219
304
17
278
245
321
383
385
403
42
164
184
400
336
68
210
22
394
142
398
180
51
78
146
261
421
74
374
240
363
407
391
162
24
270
140
373
63
366
193
417
211
124
259
154
125
217
52
253
325
327
294
163
61
320
57
127
432
46
95
173
23
290
362
185
225
199
159
395
186
92
99
2
183
303
328
166
149
144
301
93
207
293
175
232
324
50
9
308
220
231
4
41
77
252
109
136
105
11
426
361
123
230
296
364
392
187
81
352
13
410
58
424
132
269
181
236
390
393
87
291
343
348
337
88
102
237
118
425
235
47
85
224
66
354
209
413
409
258
323
156
335
404
8
381
213
266
167
83
389
131
332
254
387
27
267
214
382
215
428
89
117
115
229
174
32
388
255
430
37
62
414
331
422
36
3
416
299
359
370
197
120
114
347
358
379
145
371
191
96
282
312
153
423
201
223
341
25
305
155
283
91
378
6
263
16
319
276
350
262
368
14
116
427
86
317
21
286
73
43
45
329
69
280
130
55
178
122
411
141
104
177
367
64
273
248
135
182
238
59
415
15
345
7
76
344
247
431
168
295
340
129
289
242
28
134
277
113
49
380
353
265
26
233
5
275
82
316
355
429
346
349
216
281
264
100
228
372
195
203
271
377
257
244
256
128
420
300
176
384
19
206
121
268
71
406
54
33
40
401
386
79
126
90
318
279
67
326
31
375
330
10
29
202
169
108
110
205
101
307
204
179
189
161
218
172
419
139
111
310
249
246
198
402
196
315
48
287
302
53
234
399
84
396
239
138
38
171
274
243
80
322
12
208
107
397
200
188
151
65
339
150
313
158
170
226
292
190
221
241
222
112
192
212
137
119
311
284
309
165
147
288
356

> <PUBCHEM_MMFF94_PARTIAL_CHARGES>
37
1 -0.37
10 -0.68
11 -0.65
12 -0.65
13 -0.51
14 0.28
15 0.28
16 0.28
17 0.28
18 0.51
19 0.28
2 1.67
20 0.53
21 0.2
22 -0.14
23 -0.15
24 -0.15
25 0.08
26 -0.15
27 -0.15
28 0.28
3 -0.56
36 0.4
37 0.4
38 0.4
39 0.4
4 -0.68
42 0.15
43 0.15
44 0.15
45 0.15
49 0.5
5 -0.68
6 -0.68
7 -0.68
8 -0.12
9 -0.36

> <PUBCHEM_EFFECTIVE_ROTOR_COUNT>
9.2

> <PUBCHEM_PHARMACOPHORE_FEATURES>
17
1 10 acceptor
1 11 acceptor
1 12 acceptor
1 13 acceptor
1 3 acceptor
1 4 acceptor
1 4 donor
1 5 acceptor
1 5 donor
1 6 acceptor
1 6 donor
1 7 acceptor
1 7 donor
1 9 acceptor
4 2 10 11 12 anion
6 22 23 24 25 26 27 rings
6 3 14 15 16 17 18 rings

> <PUBCHEM_HEAVY_ATOM_COUNT>
28

> <PUBCHEM_ATOM_DEF_STEREO_COUNT>
5

> <PUBCHEM_ATOM_UDEF_STEREO_COUNT>
0

> <PUBCHEM_BOND_DEF_STEREO_COUNT>
0

> <PUBCHEM_BOND_UDEF_STEREO_COUNT>
1

> <PUBCHEM_ISOTOPIC_ATOM_COUNT>
0

> <PUBCHEM_COMPONENT_COUNT>
1

> <PUBCHEM_CACTVS_TAUTO_COUNT>
1

> <PUBCHEM_CONFORMER_ID>
000A04A500000001

> <PUBCHEM_MMFF94_ENERGY>
70.2685

> <PUBCHEM_FEATURE_SELFOVERLAP>
86.341

> <PUBCHEM_SHAPE_FINGERPRINT>
11244481 83 17840035035430434455
11477941 20 17979595106121381692
11582403 64 16599915944986487296
11828532 37 17914351078593892975
12160290 23 18196641002876759041
12363563 72 18262226712559871883
12553582 1 18270386227014541123
12633257 1 15576089122514478707
12788726 201 18201433718322344633
133893 2 17761186853242424289
13544653 18 17458337499004733083
13583140 156 18116443712148729194
13681431 1 18121207680698013785
14251757 17 14548735049834119462
14341114 328 5039398855047665739
17357779 13 18040438763338800859
1813 80 18265037064480505307
20600515 1 18336827472808193835
21285901 2 18187374198650146831
21304303 282 18056772154687972397
22620623 9 18336829796406878881
23598288 3 17487307530257823953
24893989 43 16676204335800219557
26353 1 18269830935114557953
3027735 51 18338518667826589475
35225 105 17984168081790630637
3797600 57 5328471439767927658
4280585 95 18339369556655576410
46194498 28 17764880087320866091
469060 322 17534377511526511412
5081480 168 18127970811581082689
6438718 38 17628608015953650672

> <PUBCHEM_SHAPE_MULTIPOLES>
520.25
9.17
4.09
2.81
4.13
6.22
-0.58
-7.85
-3.08
-4.69
-0.97
0.82
-0.62
0.51

> <PUBCHEM_SHAPE_SELFOVERLAP>
1048.653

> <PUBCHEM_SHAPE_VOLUME>
305.5

> <PUBCHEM_COORDINATE_TYPE>
2
5
10

$$$$

