10268
  -OEChem-06261204253D

 12 12  0     0  0  0  0  0  0999 V2000
   -2.0925    0.7000    0.0008 O   0  0  0  0  0  0  0  0  0  0  0  0
    2.0695   -1.1712    0.0012 O   0  0  0  0  0  0  0  0  0  0  0  0
    2.1727    1.0996   -0.0002 O   0  0  0  0  0  0  0  0  0  0  0  0
    0.0451    0.0053   -0.0008 C   0  0  0  0  0  0  0  0  0  0  0  0
   -0.7939   -1.1346   -0.0009 C   0  0  0  0  0  0  0  0  0  0  0  0
   -0.7927    1.0963    0.0002 C   0  0  0  0  0  0  0  0  0  0  0  0
   -2.0845   -0.6589    0.0002 C   0  0  0  0  0  0  0  0  0  0  0  0
    1.4763    0.0636   -0.0004 C   0  0  0  0  0  0  0  0  0  0  0  0
   -0.5047   -2.1760   -0.0014 H   0  0  0  0  0  0  0  0  0  0  0  0
   -0.6335    2.1651    0.0009 H   0  0  0  0  0  0  0  0  0  0  0  0
   -3.0556   -1.1319    0.0006 H   0  0  0  0  0  0  0  0  0  0  0  0
    3.0482   -1.1027    0.0020 H   0  0  0  0  0  0  0  0  0  0  0  0
  1  6  1  0  0  0  0
  1  7  1  0  0  0  0
  2  8  1  0  0  0  0
  2 12  1  0  0  0  0
  3  8  2  0  0  0  0
  4  5  1  0  0  0  0
  4  6  2  0  0  0  0
  4  8  1  0  0  0  0
  5  7  2  0  0  0  0
  5  9  1  0  0  0  0
  6 10  1  0  0  0  0
  7 11  1  0  0  0  0
M  END
> <PUBCHEM_COMPOUND_CID>
10268

> <PUBCHEM_CONFORMER_RMSD>
0.4

> <PUBCHEM_CONFORMER_DIVERSEORDER>
1
2

> <PUBCHEM_MMFF94_PARTIAL_CHARGES>
12
1 -0.28
10 0.15
11 0.15
12 0.5
2 -0.65
3 -0.57
4 -0.09
5 -0.15
6 -0.01
7 -0.01
8 0.81
9 0.15

> <PUBCHEM_EFFECTIVE_ROTOR_COUNT>
1

> <PUBCHEM_PHARMACOPHORE_FEATURES>
5
1 1 acceptor
1 2 acceptor
1 3 acceptor
3 2 3 8 anion
5 1 4 5 6 7 rings

> <PUBCHEM_HEAVY_ATOM_COUNT>
8

> <PUBCHEM_ATOM_DEF_STEREO_COUNT>
0

> <PUBCHEM_ATOM_UDEF_STEREO_COUNT>
0

> <PUBCHEM_BOND_DEF_STEREO_COUNT>
0

> <PUBCHEM_BOND_UDEF_STEREO_COUNT>
0

> <PUBCHEM_ISOTOPIC_ATOM_COUNT>
0

> <PUBCHEM_COMPONENT_COUNT>
1

> <PUBCHEM_CACTVS_TAUTO_COUNT>
1

> <PUBCHEM_CONFORMER_ID>
0000281C00000001

> <PUBCHEM_MMFF94_ENERGY>
5.3033

> <PUBCHEM_FEATURE_SELFOVERLAP>
25.429

> <PUBCHEM_SHAPE_FINGERPRINT>
12897270 3 18338515223077688636
14390081 3 18261394390868464408
18185500 45 18267585706315648286
20096714 4 18411699928018529248
21040471 1 18410573998068066501
23552423 10 18272087201514753078
24536 1 18339095833878504712
29004967 10 18200025132088981555
369184 2 18410296899747374619
5084963 1 18261959655708693659

> <PUBCHEM_SHAPE_MULTIPOLES>
147.03
3
1.29
0.58
0.57
0.03
0
0.01
0
0.08
0
-0.03
0.01
0

> <PUBCHEM_SHAPE_SELFOVERLAP>
308.405

> <PUBCHEM_SHAPE_VOLUME>
85.1

> <PUBCHEM_COORDINATE_TYPE>
2
5
10

$$$$

