12571
  -OEChem-06261207063D

 23 22  0     0  0  0  0  0  0999 V2000
   -0.3977    0.3156   -0.2477 O   0  0  0  0  0  0  0  0  0  0  0  0
    0.7746   -1.4556    0.6512 O   0  0  0  0  0  0  0  0  0  0  0  0
    1.9543    0.4232   -0.3520 C   0  0  0  0  0  0  0  0  0  0  0  0
   -1.6298   -0.3150    0.1159 C   0  0  0  0  0  0  0  0  0  0  0  0
   -2.7846    0.5737   -0.3202 C   0  0  0  0  0  0  0  0  0  0  0  0
    0.7358   -0.3719    0.0834 C   0  0  0  0  0  0  0  0  0  0  0  0
    2.3800    1.3662    0.7669 C   0  0  0  0  0  0  0  0  0  0  0  0
    3.0970   -0.5096   -0.7451 C   0  0  0  0  0  0  0  0  0  0  0  0
   -4.1295   -0.0267    0.0476 C   0  0  0  0  0  0  0  0  0  0  0  0
    1.6840    1.0069   -1.2408 H   0  0  0  0  0  0  0  0  0  0  0  0
   -1.6544   -0.4589    1.2025 H   0  0  0  0  0  0  0  0  0  0  0  0
   -1.6970   -1.2907   -0.3796 H   0  0  0  0  0  0  0  0  0  0  0  0
   -2.6807    1.5637    0.1399 H   0  0  0  0  0  0  0  0  0  0  0  0
   -2.7332    0.7384   -1.4030 H   0  0  0  0  0  0  0  0  0  0  0  0
    3.2426    1.9687    0.4642 H   0  0  0  0  0  0  0  0  0  0  0  0
    2.6498    0.8122    1.6729 H   0  0  0  0  0  0  0  0  0  0  0  0
    1.5656    2.0494    1.0314 H   0  0  0  0  0  0  0  0  0  0  0  0
    3.9532    0.0605   -1.1205 H   0  0  0  0  0  0  0  0  0  0  0  0
    2.7790   -1.2026   -1.5317 H   0  0  0  0  0  0  0  0  0  0  0  0
    3.4361   -1.1100    0.1063 H   0  0  0  0  0  0  0  0  0  0  0  0
   -4.2158   -0.1624    1.1304 H   0  0  0  0  0  0  0  0  0  0  0  0
   -4.9408    0.6320   -0.2777 H   0  0  0  0  0  0  0  0  0  0  0  0
   -4.2691   -1.0002   -0.4331 H   0  0  0  0  0  0  0  0  0  0  0  0
  1  4  1  0  0  0  0
  1  6  1  0  0  0  0
  2  6  2  0  0  0  0
  3  6  1  0  0  0  0
  3  7  1  0  0  0  0
  3  8  1  0  0  0  0
  3 10  1  0  0  0  0
  4  5  1  0  0  0  0
  4 11  1  0  0  0  0
  4 12  1  0  0  0  0
  5  9  1  0  0  0  0
  5 13  1  0  0  0  0
  5 14  1  0  0  0  0
  7 15  1  0  0  0  0
  7 16  1  0  0  0  0
  7 17  1  0  0  0  0
  8 18  1  0  0  0  0
  8 19  1  0  0  0  0
  8 20  1  0  0  0  0
  9 21  1  0  0  0  0
  9 22  1  0  0  0  0
  9 23  1  0  0  0  0
M  END
> <PUBCHEM_COMPOUND_CID>
12571

> <PUBCHEM_CONFORMER_RMSD>
0.6

> <PUBCHEM_CONFORMER_DIVERSEORDER>
1
29
24
31
16
32
39
27
18
28
22
37
26
9
34
15
36
30
19
40
38
17
23
11
5
33
13
35
2
20
3
41
8
6
7
10
14
25
12
21
4

> <PUBCHEM_MMFF94_PARTIAL_CHARGES>
5
1 -0.43
2 -0.57
3 0.06
4 0.28
6 0.66

> <PUBCHEM_EFFECTIVE_ROTOR_COUNT>
4

> <PUBCHEM_PHARMACOPHORE_FEATURES>
3
1 2 acceptor
1 9 hydrophobe
3 3 7 8 hydrophobe

> <PUBCHEM_HEAVY_ATOM_COUNT>
9

> <PUBCHEM_ATOM_DEF_STEREO_COUNT>
0

> <PUBCHEM_ATOM_UDEF_STEREO_COUNT>
0

> <PUBCHEM_BOND_DEF_STEREO_COUNT>
0

> <PUBCHEM_BOND_UDEF_STEREO_COUNT>
0

> <PUBCHEM_ISOTOPIC_ATOM_COUNT>
0

> <PUBCHEM_COMPONENT_COUNT>
1

> <PUBCHEM_CACTVS_TAUTO_COUNT>
1

> <PUBCHEM_CONFORMER_ID>
0000311B00000001

> <PUBCHEM_MMFF94_ENERGY>
4.6934

> <PUBCHEM_FEATURE_SELFOVERLAP>
15.223

> <PUBCHEM_SHAPE_FINGERPRINT>
10219947 1 16343981416218069199
11062470 55 10735873959034325215
12932764 1 18411991277552302007
14325111 11 18409167684262916517
14390081 3 18410860958029419425
170605 34 18261398801704756456
190213 19 17603304856226670961
21040471 1 18201719497003881418
23235685 24 17632294566481906798
3248919 1 16153698813044734903

> <PUBCHEM_SHAPE_MULTIPOLES>
173.48
6.25
1.13
0.8
5.11
0.09
-0.02
0.59
0.63
-0.76
-0.24
-0.29
-0.02
0.38

> <PUBCHEM_SHAPE_SELFOVERLAP>
315.188

> <PUBCHEM_SHAPE_VOLUME>
112.3

> <PUBCHEM_COORDINATE_TYPE>
2
5
10

$$$$

