46173954
  -OEChem-07051213103D

 39 41  0     1  0  0  0  0  0999 V2000
   -0.2910   -1.4036   -0.6031 O   0  0  0  0  0  0  0  0  0  0  0  0
    0.8985    0.6460    2.1128 O   0  0  0  0  0  0  0  0  0  0  0  0
    1.1663    1.1768   -0.2894 C   0  0  2  0  0  0  0  0  0  0  0  0
    0.8397    0.1017    0.8065 C   0  0  2  0  0  0  0  0  0  0  0  0
   -0.5113   -0.5715    0.5587 C   0  0  1  0  0  0  0  0  0  0  0  0
    0.0141    2.2159   -0.3037 C   0  0  0  0  0  0  0  0  0  0  0  0
    1.3265    0.5763   -1.7357 C   0  0  0  0  0  0  0  0  0  0  0  0
   -1.6683    0.4300    0.4151 C   0  0  1  0  0  0  0  0  0  0  0  0
    1.1335   -1.6951   -0.6457 C   0  0  2  0  0  0  0  0  0  0  0  0
    1.6854   -1.1124    0.6136 C   0  0  0  0  0  0  0  0  0  0  0  0
   -1.3643    1.5845   -0.5471 C   0  0  0  0  0  0  0  0  0  0  0  0
    1.7478   -0.9002   -1.7934 C   0  0  0  0  0  0  0  0  0  0  0  0
    2.4784    1.9146    0.0639 C   0  0  0  0  0  0  0  0  0  0  0  0
   -2.9482   -0.2571    0.0400 C   0  0  0  0  0  0  0  0  0  0  0  0
    2.6440   -1.6241    1.3903 C   0  0  0  0  0  0  0  0  0  0  0  0
   -4.0635   -0.1696    1.0394 C   0  0  0  0  0  0  0  0  0  0  0  0
   -3.0874   -0.9123   -1.1220 C   0  0  0  0  0  0  0  0  0  0  0  0
   -0.7647   -1.2498    1.3889 H   0  0  0  0  0  0  0  0  0  0  0  0
   -0.0133    2.7522    0.6541 H   0  0  0  0  0  0  0  0  0  0  0  0
    0.1984    2.9748   -1.0747 H   0  0  0  0  0  0  0  0  0  0  0  0
    0.3850    0.6486   -2.2887 H   0  0  0  0  0  0  0  0  0  0  0  0
    2.0319    1.1737   -2.3274 H   0  0  0  0  0  0  0  0  0  0  0  0
   -1.7990    0.8900    1.4058 H   0  0  0  0  0  0  0  0  0  0  0  0
    1.2873   -2.7728   -0.7479 H   0  0  0  0  0  0  0  0  0  0  0  0
   -1.4470    1.2680   -1.5917 H   0  0  0  0  0  0  0  0  0  0  0  0
   -2.1265    2.3661   -0.4248 H   0  0  0  0  0  0  0  0  0  0  0  0
    2.8420   -0.9780   -1.7729 H   0  0  0  0  0  0  0  0  0  0  0  0
    1.4155   -1.3158   -2.7524 H   0  0  0  0  0  0  0  0  0  0  0  0
    3.3331    1.2300    0.0680 H   0  0  0  0  0  0  0  0  0  0  0  0
    2.6928    2.7057   -0.6641 H   0  0  0  0  0  0  0  0  0  0  0  0
    2.4240    2.3912    1.0486 H   0  0  0  0  0  0  0  0  0  0  0  0
    0.6700   -0.0517    2.7502 H   0  0  0  0  0  0  0  0  0  0  0  0
    2.9498   -1.1319    2.3065 H   0  0  0  0  0  0  0  0  0  0  0  0
    3.1461   -2.5465    1.1192 H   0  0  0  0  0  0  0  0  0  0  0  0
   -4.9638   -0.6923    0.6995 H   0  0  0  0  0  0  0  0  0  0  0  0
   -4.3336    0.8765    1.2171 H   0  0  0  0  0  0  0  0  0  0  0  0
   -3.7577   -0.6180    1.9903 H   0  0  0  0  0  0  0  0  0  0  0  0
   -4.0220   -1.4053   -1.3716 H   0  0  0  0  0  0  0  0  0  0  0  0
   -2.3070   -0.9592   -1.8719 H   0  0  0  0  0  0  0  0  0  0  0  0
  1  5  1  0  0  0  0
  1  9  1  0  0  0  0
  2  4  1  0  0  0  0
  2 32  1  0  0  0  0
  3  4  1  0  0  0  0
  3  6  1  0  0  0  0
  3  7  1  0  0  0  0
  3 13  1  0  0  0  0
  4  5  1  0  0  0  0
  4 10  1  0  0  0  0
  5  8  1  0  0  0  0
  5 18  1  0  0  0  0
  6 11  1  0  0  0  0
  6 19  1  0  0  0  0
  6 20  1  0  0  0  0
  7 12  1  0  0  0  0
  7 21  1  0  0  0  0
  7 22  1  0  0  0  0
  8 11  1  0  0  0  0
  8 14  1  0  0  0  0
  8 23  1  0  0  0  0
  9 10  1  0  0  0  0
  9 12  1  0  0  0  0
  9 24  1  0  0  0  0
 10 15  2  0  0  0  0
 11 25  1  0  0  0  0
 11 26  1  0  0  0  0
 12 27  1  0  0  0  0
 12 28  1  0  0  0  0
 13 29  1  0  0  0  0
 13 30  1  0  0  0  0
 13 31  1  0  0  0  0
 14 16  1  0  0  0  0
 14 17  2  0  0  0  0
 15 33  1  0  0  0  0
 15 34  1  0  0  0  0
 16 35  1  0  0  0  0
 16 36  1  0  0  0  0
 16 37  1  0  0  0  0
 17 38  1  0  0  0  0
 17 39  1  0  0  0  0
M  END
> <PUBCHEM_COMPOUND_CID>
46173954

> <PUBCHEM_CONFORMER_RMSD>
0.6

> <PUBCHEM_CONFORMER_DIVERSEORDER>
1
4
7
8
6
3
10
2
9
5

> <PUBCHEM_MMFF94_PARTIAL_CHARGES>
16
1 -0.56
10 -0.28
14 -0.28
15 -0.3
16 0.14
17 -0.3
2 -0.68
32 0.4
33 0.15
34 0.15
38 0.15
39 0.15
4 0.42
5 0.28
8 0.14
9 0.42

> <PUBCHEM_EFFECTIVE_ROTOR_COUNT>
2.2

> <PUBCHEM_PHARMACOPHORE_FEATURES>
5
1 1 acceptor
1 2 acceptor
1 2 donor
6 3 4 5 6 8 11 rings
8 1 3 4 5 7 9 10 12 rings

> <PUBCHEM_HEAVY_ATOM_COUNT>
17

> <PUBCHEM_ATOM_DEF_STEREO_COUNT>
0

> <PUBCHEM_ATOM_UDEF_STEREO_COUNT>
5

> <PUBCHEM_BOND_DEF_STEREO_COUNT>
0

> <PUBCHEM_BOND_UDEF_STEREO_COUNT>
0

> <PUBCHEM_ISOTOPIC_ATOM_COUNT>
0

> <PUBCHEM_COMPONENT_COUNT>
1

> <PUBCHEM_CACTVS_TAUTO_COUNT>
1

> <PUBCHEM_CONFORMER_ID>
02C08F0200000001

> <PUBCHEM_MMFF94_ENERGY>
64.4556

> <PUBCHEM_FEATURE_SELFOVERLAP>
25.77

> <PUBCHEM_SHAPE_FINGERPRINT>
10382601 240 18339631253065607441
10863032 1 18118683210595569772
10948715 1 17752485360985455896
11067466 332 17988347179464121981
11086676 242 18339640148063826419
12423570 1 6480219873015640988
12725867 57 18341906215563742004
13134695 92 18058467506806650796
13140716 1 17837204875184104361
14181834 199 18341903973796639542
144361 1 17896308130344115014
14817 1 7955123775866023520
16945 1 18059576823924196372
18186145 218 16558760044132986223
21501502 16 18341053024658457101
21524375 3 17904203620227451628
22112679 90 17770769410384218412
2334 1 18413671331172324781
23419403 2 17558022612387662382
23559900 14 17472987676171740470
2748010 2 18341060717039856013
528886 8 18264194829735748045
7364860 26 18408881832656599844
81228 2 17835241521015585097

> <PUBCHEM_SHAPE_MULTIPOLES>
338.11
4.53
2.04
1.6
4.71
0.6
0.09
-1.02
-0.6
-1.15
0.06
-0.59
-0.29
-0.27

> <PUBCHEM_SHAPE_SELFOVERLAP>
726.773

> <PUBCHEM_SHAPE_VOLUME>
186.6

> <PUBCHEM_COORDINATE_TYPE>
2
5
10

$$$$

