9128
  -OEChem-07051213053D

 32 36  0     0  0  0  0  0  0999 V2000
    0.8421   -0.7083    0.0001 C   0  0  0  0  0  0  0  0  0  0  0  0
    0.8421    0.7083    0.0001 C   0  0  0  0  0  0  0  0  0  0  0  0
   -0.3793   -1.4276    0.0002 C   0  0  0  0  0  0  0  0  0  0  0  0
   -0.3793    1.4276    0.0002 C   0  0  0  0  0  0  0  0  0  0  0  0
   -1.6223   -0.7119    0.0001 C   0  0  0  0  0  0  0  0  0  0  0  0
   -1.6223    0.7120    0.0001 C   0  0  0  0  0  0  0  0  0  0  0  0
    2.0862   -1.4033    0.0001 C   0  0  0  0  0  0  0  0  0  0  0  0
    2.0863    1.4033    0.0000 C   0  0  0  0  0  0  0  0  0  0  0  0
   -0.2876   -2.8435    0.0001 C   0  0  0  0  0  0  0  0  0  0  0  0
   -0.2876    2.8435    0.0001 C   0  0  0  0  0  0  0  0  0  0  0  0
    3.2892   -0.6944   -0.0002 C   0  0  0  0  0  0  0  0  0  0  0  0
    3.2892    0.6943   -0.0001 C   0  0  0  0  0  0  0  0  0  0  0  0
    2.1154   -2.7990   -0.0002 C   0  0  0  0  0  0  0  0  0  0  0  0
    2.1155    2.7989   -0.0001 C   0  0  0  0  0  0  0  0  0  0  0  0
   -2.8811   -1.3725    0.0000 C   0  0  0  0  0  0  0  0  0  0  0  0
   -2.8810    1.3725    0.0000 C   0  0  0  0  0  0  0  0  0  0  0  0
    0.9326   -3.5172   -0.0001 C   0  0  0  0  0  0  0  0  0  0  0  0
    0.9326    3.5171    0.0000 C   0  0  0  0  0  0  0  0  0  0  0  0
   -4.0953   -0.6891   -0.0003 C   0  0  0  0  0  0  0  0  0  0  0  0
   -4.0953    0.6891   -0.0003 C   0  0  0  0  0  0  0  0  0  0  0  0
   -1.1757   -3.4696    0.0001 H   0  0  0  0  0  0  0  0  0  0  0  0
   -1.1757    3.4695    0.0002 H   0  0  0  0  0  0  0  0  0  0  0  0
    4.2445   -1.2153   -0.0003 H   0  0  0  0  0  0  0  0  0  0  0  0
    4.2447    1.2152   -0.0002 H   0  0  0  0  0  0  0  0  0  0  0  0
    3.0586   -3.3407   -0.0003 H   0  0  0  0  0  0  0  0  0  0  0  0
    3.0588    3.3406   -0.0002 H   0  0  0  0  0  0  0  0  0  0  0  0
   -2.9507   -2.4572    0.0001 H   0  0  0  0  0  0  0  0  0  0  0  0
   -2.9506    2.4571    0.0001 H   0  0  0  0  0  0  0  0  0  0  0  0
    0.9535   -4.6030   -0.0002 H   0  0  0  0  0  0  0  0  0  0  0  0
    0.9535    4.6030   -0.0001 H   0  0  0  0  0  0  0  0  0  0  0  0
   -5.0314   -1.2390   -0.0004 H   0  0  0  0  0  0  0  0  0  0  0  0
   -5.0313    1.2391   -0.0004 H   0  0  0  0  0  0  0  0  0  0  0  0
  1  2  1  0  0  0  0
  1  3  1  0  0  0  0
  1  7  2  0  0  0  0
  2  4  1  0  0  0  0
  2  8  2  0  0  0  0
  3  5  1  0  0  0  0
  3  9  2  0  0  0  0
  4  6  1  0  0  0  0
  4 10  2  0  0  0  0
  5  6  1  0  0  0  0
  5 15  2  0  0  0  0
  6 16  2  0  0  0  0
  7 11  1  0  0  0  0
  7 13  1  0  0  0  0
  8 12  1  0  0  0  0
  8 14  1  0  0  0  0
  9 17  1  0  0  0  0
  9 21  1  0  0  0  0
 10 18  1  0  0  0  0
 10 22  1  0  0  0  0
 11 12  2  0  0  0  0
 11 23  1  0  0  0  0
 12 24  1  0  0  0  0
 13 17  2  0  0  0  0
 13 25  1  0  0  0  0
 14 18  2  0  0  0  0
 14 26  1  0  0  0  0
 15 19  1  0  0  0  0
 15 27  1  0  0  0  0
 16 20  1  0  0  0  0
 16 28  1  0  0  0  0
 17 29  1  0  0  0  0
 18 30  1  0  0  0  0
 19 20  2  0  0  0  0
 19 31  1  0  0  0  0
 20 32  1  0  0  0  0
M  END
> <PUBCHEM_COMPOUND_CID>
9128

> <PUBCHEM_CONFORMER_RMSD>
0.6

> <PUBCHEM_CONFORMER_DIVERSEORDER>
1

> <PUBCHEM_MMFF94_PARTIAL_CHARGES>
24
10 -0.15
11 -0.15
12 -0.15
13 -0.15
14 -0.15
15 -0.15
16 -0.15
17 -0.15
18 -0.15
19 -0.15
20 -0.15
21 0.15
22 0.15
23 0.15
24 0.15
25 0.15
26 0.15
27 0.15
28 0.15
29 0.15
30 0.15
31 0.15
32 0.15
9 -0.15

> <PUBCHEM_EFFECTIVE_ROTOR_COUNT>
0

> <PUBCHEM_PHARMACOPHORE_FEATURES>
5
6 1 2 3 4 5 6 rings
6 1 2 7 8 11 12 rings
6 1 3 7 9 13 17 rings
6 2 4 8 10 14 18 rings
6 5 6 15 16 19 20 rings

> <PUBCHEM_HEAVY_ATOM_COUNT>
20

> <PUBCHEM_ATOM_DEF_STEREO_COUNT>
0

> <PUBCHEM_ATOM_UDEF_STEREO_COUNT>
0

> <PUBCHEM_BOND_DEF_STEREO_COUNT>
0

> <PUBCHEM_BOND_UDEF_STEREO_COUNT>
0

> <PUBCHEM_ISOTOPIC_ATOM_COUNT>
0

> <PUBCHEM_COMPONENT_COUNT>
1

> <PUBCHEM_CACTVS_TAUTO_COUNT>
1

> <PUBCHEM_CONFORMER_ID>
000023A800000001

> <PUBCHEM_MMFF94_ENERGY>
79.4865

> <PUBCHEM_FEATURE_SELFOVERLAP>
25.519

> <PUBCHEM_SHAPE_FINGERPRINT>
10319926 262 16898237802563615418
10411042 1 18050286169940239687
10693767 8 18114186362356843223
10967382 1 18410855503088436230
1100329 8 18266743480899356338
11578080 2 17028857429809799377
116883 192 17760368086140982511
12553582 1 18122339348613942243
13140716 1 18410576188506688608
13583140 156 16841947904839832409
138480 1 18338797939157438402
14178342 30 18335434455984519041
14223421 5 18049446147171497522
14790565 3 18339348687484247220
15196674 1 18410855464423129088
15442244 35 18120935272317838067
16945 1 18410855464486426116
193761 8 17762338419673230628
19591789 44 18267299829002746895
20028762 73 18043532707487366999
20645477 70 18342465820465522989
20739085 24 18198600216913081945
20905425 154 17975412726612339678
21197605 99 17835224655307515211
21267235 1 18337944679643511627
21421861 104 17840866592179677050
221490 88 18341043030454078347
23184049 29 17762620989819343414
2334 1 18410575054603589100
23558518 356 17478617806606320418
23559900 14 18122071063692813738
238 59 17838664103265247655
2748010 2 18411418401496929812
3091708 16 9216277438208465625
335352 9 18410856559645110229
34934 24 18265904720809600079
350125 39 17979629035639877667
352729 6 17762056536569040879
484985 159 14754828931411639642
54173680 148 17185876632246070874
589210 1 17690280413344718594
5939293 188 18409733954199735816
6443956 14 18340204214772321069
7364860 26 18410012134904829925
7832392 63 18264488558512500009
81228 2 17764021771822349273
9709674 26 18411696582735481971

> <PUBCHEM_SHAPE_MULTIPOLES>
411.59
5.53
4.23
0.62
4.14
0
0
0
0
-2.29
0
0
0
0

> <PUBCHEM_SHAPE_SELFOVERLAP>
969.696

> <PUBCHEM_SHAPE_VOLUME>
186.4

> <PUBCHEM_COORDINATE_TYPE>
2
5
10

$$$$

