237252
  -OEChem-07051213053D

 67 71  0     1  0  0  0  0  0999 V2000
   -2.2730   -0.0647   -0.2179 O   0  0  0  0  0  0  0  0  0  0  0  0
    8.5382   -0.8308   -0.7255 O   0  0  0  0  0  0  0  0  0  0  0  0
   -3.5105    1.4625   -1.4260 O   0  0  0  0  0  0  0  0  0  0  0  0
    1.1604    1.1579   -0.1211 C   0  0  2  0  0  0  0  0  0  0  0  0
    0.1737   -0.0086    0.0828 C   0  0  2  0  0  0  0  0  0  0  0  0
    2.5325    0.8773    0.4940 C   0  0  1  0  0  0  0  0  0  0  0  0
    3.1358   -0.3884   -0.1839 C   0  0  2  0  0  0  0  0  0  0  0  0
    0.7358   -1.2395   -0.6389 C   0  0  0  0  0  0  0  0  0  0  0  0
   -1.0788    0.6070   -0.5697 C   0  0  2  0  0  0  0  0  0  0  0  0
    0.3704    2.3781    0.3441 C   0  0  0  0  0  0  0  0  0  0  0  0
    2.1532   -1.5876   -0.1502 C   0  0  0  0  0  0  0  0  0  0  0  0
    4.5285   -0.7405    0.4232 C   0  0  2  0  0  0  0  0  0  0  0  0
   -1.0777    2.0671   -0.0763 C   0  0  0  0  0  0  0  0  0  0  0  0
    3.4895    2.0639    0.3286 C   0  0  0  0  0  0  0  0  0  0  0  0
   -0.1105   -0.3659    1.5640 C   0  0  0  0  0  0  0  0  0  0  0  0
    4.8417    1.7581    0.9629 C   0  0  0  0  0  0  0  0  0  0  0  0
    5.4438    0.4771    0.4408 C   0  0  0  0  0  0  0  0  0  0  0  0
    5.1637   -1.9235   -0.3364 C   0  0  0  0  0  0  0  0  0  0  0  0
    6.6362   -2.1033   -0.0121 C   0  0  0  0  0  0  0  0  0  0  0  0
    6.7321    0.4505    0.0634 C   0  0  0  0  0  0  0  0  0  0  0  0
    7.3881   -0.8284   -0.2929 C   0  0  0  0  0  0  0  0  0  0  0  0
   -3.4365    0.4693   -0.7156 C   0  0  0  0  0  0  0  0  0  0  0  0
   -4.6119   -0.3592   -0.2495 C   0  0  0  0  0  0  0  0  0  0  0  0
   -5.9407    0.2010   -0.7508 C   0  0  0  0  0  0  0  0  0  0  0  0
   -7.1110   -0.6572   -0.3038 C   0  0  0  0  0  0  0  0  0  0  0  0
   -8.4642   -0.1008   -0.7349 C   0  0  0  0  0  0  0  0  0  0  0  0
   -7.2579   -0.7312    1.2128 C   0  0  0  0  0  0  0  0  0  0  0  0
   -9.4621   -0.8225    0.1649 C   0  0  0  0  0  0  0  0  0  0  0  0
   -8.6885   -1.2177    1.4239 C   0  0  0  0  0  0  0  0  0  0  0  0
    1.3203    1.2947   -1.2040 H   0  0  0  0  0  0  0  0  0  0  0  0
    2.4220    0.6908    1.5695 H   0  0  0  0  0  0  0  0  0  0  0  0
    3.2910   -0.1443   -1.2466 H   0  0  0  0  0  0  0  0  0  0  0  0
    0.0754   -2.1044   -0.5022 H   0  0  0  0  0  0  0  0  0  0  0  0
    0.7788   -1.0532   -1.7200 H   0  0  0  0  0  0  0  0  0  0  0  0
   -0.9728    0.5878   -1.6636 H   0  0  0  0  0  0  0  0  0  0  0  0
    0.4336    2.5070    1.4304 H   0  0  0  0  0  0  0  0  0  0  0  0
    0.7306    3.3016   -0.1207 H   0  0  0  0  0  0  0  0  0  0  0  0
    2.1057   -1.9948    0.8665 H   0  0  0  0  0  0  0  0  0  0  0  0
    2.5297   -2.3965   -0.7866 H   0  0  0  0  0  0  0  0  0  0  0  0
    4.3835   -1.0458    1.4692 H   0  0  0  0  0  0  0  0  0  0  0  0
   -1.3831    2.7460   -0.8804 H   0  0  0  0  0  0  0  0  0  0  0  0
   -1.7626    2.2296    0.7637 H   0  0  0  0  0  0  0  0  0  0  0  0
    3.6215    2.3003   -0.7351 H   0  0  0  0  0  0  0  0  0  0  0  0
    3.0721    2.9583    0.8054 H   0  0  0  0  0  0  0  0  0  0  0  0
   -0.5525    0.4683    2.1179 H   0  0  0  0  0  0  0  0  0  0  0  0
   -0.8146   -1.2036    1.6298 H   0  0  0  0  0  0  0  0  0  0  0  0
    0.7892   -0.6664    2.1073 H   0  0  0  0  0  0  0  0  0  0  0  0
    5.5109    2.6112    0.7977 H   0  0  0  0  0  0  0  0  0  0  0  0
    4.7185    1.6636    2.0495 H   0  0  0  0  0  0  0  0  0  0  0  0
    4.6376   -2.8537   -0.0935 H   0  0  0  0  0  0  0  0  0  0  0  0
    5.0568   -1.7683   -1.4186 H   0  0  0  0  0  0  0  0  0  0  0  0
    6.7836   -2.3728    1.0393 H   0  0  0  0  0  0  0  0  0  0  0  0
    7.0520   -2.9022   -0.6354 H   0  0  0  0  0  0  0  0  0  0  0  0
    7.3555    1.3379    0.0733 H   0  0  0  0  0  0  0  0  0  0  0  0
   -4.5883   -0.3663    0.8453 H   0  0  0  0  0  0  0  0  0  0  0  0
   -4.4748   -1.3816   -0.6189 H   0  0  0  0  0  0  0  0  0  0  0  0
   -6.0623    1.2315   -0.3926 H   0  0  0  0  0  0  0  0  0  0  0  0
   -5.9284    0.2564   -1.8468 H   0  0  0  0  0  0  0  0  0  0  0  0
   -6.9976   -1.6734   -0.7060 H   0  0  0  0  0  0  0  0  0  0  0  0
   -8.5188    0.9800   -0.5548 H   0  0  0  0  0  0  0  0  0  0  0  0
   -8.6684   -0.2751   -1.7959 H   0  0  0  0  0  0  0  0  0  0  0  0
   -6.5365   -1.4104    1.6773 H   0  0  0  0  0  0  0  0  0  0  0  0
   -7.1335    0.2589    1.6686 H   0  0  0  0  0  0  0  0  0  0  0  0
  -10.3225   -0.1868    0.3972 H   0  0  0  0  0  0  0  0  0  0  0  0
   -9.8430   -1.7217   -0.3331 H   0  0  0  0  0  0  0  0  0  0  0  0
   -8.7086   -2.3070    1.5449 H   0  0  0  0  0  0  0  0  0  0  0  0
   -9.1279   -0.7797    2.3259 H   0  0  0  0  0  0  0  0  0  0  0  0
  1  9  1  0  0  0  0
  1 22  1  0  0  0  0
  2 21  2  0  0  0  0
  3 22  2  0  0  0  0
  4  5  1  0  0  0  0
  4  6  1  0  0  0  0
  4 10  1  0  0  0  0
  4 30  1  0  0  0  0
  5  8  1  0  0  0  0
  5  9  1  0  0  0  0
  5 15  1  0  0  0  0
  6  7  1  0  0  0  0
  6 14  1  0  0  0  0
  6 31  1  0  0  0  0
  7 11  1  0  0  0  0
  7 12  1  0  0  0  0
  7 32  1  0  0  0  0
  8 11  1  0  0  0  0
  8 33  1  0  0  0  0
  8 34  1  0  0  0  0
  9 13  1  0  0  0  0
  9 35  1  0  0  0  0
 10 13  1  0  0  0  0
 10 36  1  0  0  0  0
 10 37  1  0  0  0  0
 11 38  1  0  0  0  0
 11 39  1  0  0  0  0
 12 17  1  0  0  0  0
 12 18  1  0  0  0  0
 12 40  1  0  0  0  0
 13 41  1  0  0  0  0
 13 42  1  0  0  0  0
 14 16  1  0  0  0  0
 14 43  1  0  0  0  0
 14 44  1  0  0  0  0
 15 45  1  0  0  0  0
 15 46  1  0  0  0  0
 15 47  1  0  0  0  0
 16 17  1  0  0  0  0
 16 48  1  0  0  0  0
 16 49  1  0  0  0  0
 17 20  2  0  0  0  0
 18 19  1  0  0  0  0
 18 50  1  0  0  0  0
 18 51  1  0  0  0  0
 19 21  1  0  0  0  0
 19 52  1  0  0  0  0
 19 53  1  0  0  0  0
 20 21  1  0  0  0  0
 20 54  1  0  0  0  0
 22 23  1  0  0  0  0
 23 24  1  0  0  0  0
 23 55  1  0  0  0  0
 23 56  1  0  0  0  0
 24 25  1  0  0  0  0
 24 57  1  0  0  0  0
 24 58  1  0  0  0  0
 25 26  1  0  0  0  0
 25 27  1  0  0  0  0
 25 59  1  0  0  0  0
 26 28  1  0  0  0  0
 26 60  1  0  0  0  0
 26 61  1  0  0  0  0
 27 29  1  0  0  0  0
 27 62  1  0  0  0  0
 27 63  1  0  0  0  0
 28 29  1  0  0  0  0
 28 64  1  0  0  0  0
 28 65  1  0  0  0  0
 29 66  1  0  0  0  0
 29 67  1  0  0  0  0
M  END
> <PUBCHEM_COMPOUND_CID>
237252

> <PUBCHEM_CONFORMER_RMSD>
1

> <PUBCHEM_CONFORMER_DIVERSEORDER>
1
18
5
16
14
12
8
2
17
15
19
9
13
4
20
10
7
3
6
11

> <PUBCHEM_MMFF94_PARTIAL_CHARGES>
13
1 -0.43
12 0.14
16 0.14
17 -0.28
19 0.06
2 -0.57
20 -0.14
21 0.49
22 0.66
23 0.06
3 -0.57
54 0.15
9 0.28

> <PUBCHEM_EFFECTIVE_ROTOR_COUNT>
7.8

> <PUBCHEM_PHARMACOPHORE_FEATURES>
7
1 2 acceptor
1 3 acceptor
5 25 26 27 28 29 rings
5 4 5 9 10 13 rings
6 12 17 18 19 20 21 rings
6 4 5 6 7 8 11 rings
6 6 7 12 14 16 17 rings

> <PUBCHEM_HEAVY_ATOM_COUNT>
29

> <PUBCHEM_ATOM_DEF_STEREO_COUNT>
6

> <PUBCHEM_ATOM_UDEF_STEREO_COUNT>
0

> <PUBCHEM_BOND_DEF_STEREO_COUNT>
0

> <PUBCHEM_BOND_UDEF_STEREO_COUNT>
0

> <PUBCHEM_ISOTOPIC_ATOM_COUNT>
0

> <PUBCHEM_COMPONENT_COUNT>
1

> <PUBCHEM_CACTVS_TAUTO_COUNT>
8

> <PUBCHEM_CONFORMER_ID>
00039EC400000001

> <PUBCHEM_MMFF94_ENERGY>
69.5806

> <PUBCHEM_FEATURE_SELFOVERLAP>
35.618

> <PUBCHEM_SHAPE_FINGERPRINT>
10076449 9 18411978070100728732
10299344 5 17821730524912929767
11315181 36 11887956563067722165
12236239 1 17312825961157553596
12522641 24 17313392201646514778
13617811 41 16845573132500555558
13673619 4 18343585140440842093
13685833 64 18410293622576544911
14028597 1 16660637497022770467
14170010 4 18410577257927489472
14251764 18 17676205767367442713
14849402 71 17750238006837852569
150020 25 18060144245624128565
15131766 46 4893262782233242138
15142383 8 6483352227388335986
15419008 47 17989214745916084989
15461852 350 15985106319198011615
15840311 113 18336830788375766101
16067689 302 18334573599043048646
16120349 18 18040442053779595833
18335252 98 18412544332149402366
18365409 1 14764052425086934129
19301679 30 17168978049487170366
19841028 212 17917435396670261026
20105231 36 18410290324116320391
20771845 140 16226050011189696318
21049683 271 18343581837194500604
21150785 3 14692572121861421191
21267235 1 18408603673305178940
21344244 181 18342737429354586738
21403212 168 8718826479270503844
21521721 280 18113622239881877075
21781051 124 18058999610289537091
21792961 116 18341057410014927229
22149856 69 18334009518948407729
232437 2 18334859403831583311
23559900 14 18410019815119128416
23576562 1 13973381519157940495
246663 6 18411135839893493239
249057 3 18335703818953293511
3178227 256 18333450936754984934
335352 9 18408040698135614702
4073 2 18199751357983812787
4093350 32 14707198954904840695
54039377 194 18410009957303865199
5937810 71 9799150539291868343
636775 8 17988636398462266831
999808 66 18343580734036218787

> <PUBCHEM_SHAPE_MULTIPOLES>
579.2
27.42
2.01
1.05
40.22
0.51
-0.19
-12.92
-1.44
-2.59
-0.08
1.21
-0.02
1.72

> <PUBCHEM_SHAPE_SELFOVERLAP>
1230.203

> <PUBCHEM_SHAPE_VOLUME>
320

> <PUBCHEM_COORDINATE_TYPE>
2
5
10

$$$$

