92365
  -OEChem-07051213133D

 21 21  0     0  0  0  0  0  0999 V2000
    2.1367   -0.1329   -0.0014 O   0  0  0  0  0  0  0  0  0  0  0  0
    0.8866   -0.7641   -0.0041 N   0  0  0  0  0  0  0  0  0  0  0  0
    0.8965    2.5267   -0.0020 N   0  0  0  0  0  0  0  0  0  0  0  0
    5.5270   -0.0519    0.0058 N   0  0  0  0  0  0  0  0  0  0  0  0
   -1.5232   -0.0715   -0.0020 C   0  0  0  0  0  0  0  0  0  0  0  0
   -2.3649    1.0409    0.0030 C   0  0  0  0  0  0  0  0  0  0  0  0
   -2.0658   -1.3565   -0.0036 C   0  0  0  0  0  0  0  0  0  0  0  0
   -3.7489    0.8681    0.0065 C   0  0  0  0  0  0  0  0  0  0  0  0
   -3.4499   -1.5294   -0.0003 C   0  0  0  0  0  0  0  0  0  0  0  0
   -4.2916   -0.4170    0.0047 C   0  0  0  0  0  0  0  0  0  0  0  0
   -0.0803    0.1084   -0.0061 C   0  0  0  0  0  0  0  0  0  0  0  0
    0.4679    1.4482   -0.0047 C   0  0  0  0  0  0  0  0  0  0  0  0
    3.1392   -1.1374    0.0006 C   0  0  0  0  0  0  0  0  0  0  0  0
    4.4706   -0.5316    0.0036 C   0  0  0  0  0  0  0  0  0  0  0  0
   -1.9896    2.0596    0.0043 H   0  0  0  0  0  0  0  0  0  0  0  0
   -1.4268   -2.2356   -0.0076 H   0  0  0  0  0  0  0  0  0  0  0  0
   -4.4049    1.7338    0.0104 H   0  0  0  0  0  0  0  0  0  0  0  0
   -3.8724   -2.5299   -0.0016 H   0  0  0  0  0  0  0  0  0  0  0  0
   -5.3693   -0.5515    0.0073 H   0  0  0  0  0  0  0  0  0  0  0  0
    3.0214   -1.7677   -0.8885 H   0  0  0  0  0  0  0  0  0  0  0  0
    3.0177   -1.7680    0.8891 H   0  0  0  0  0  0  0  0  0  0  0  0
  1  2  1  0  0  0  0
  1 13  1  0  0  0  0
  2 11  2  0  0  0  0
  3 12  3  0  0  0  0
  4 14  3  0  0  0  0
  5  6  2  0  0  0  0
  5  7  1  0  0  0  0
  5 11  1  0  0  0  0
  6  8  1  0  0  0  0
  6 15  1  0  0  0  0
  7  9  2  0  0  0  0
  7 16  1  0  0  0  0
  8 10  2  0  0  0  0
  8 17  1  0  0  0  0
  9 10  1  0  0  0  0
  9 18  1  0  0  0  0
 10 19  1  0  0  0  0
 11 12  1  0  0  0  0
 13 14  1  0  0  0  0
 13 20  1  0  0  0  0
 13 21  1  0  0  0  0
M  END
> <PUBCHEM_COMPOUND_CID>
92365

> <PUBCHEM_CONFORMER_RMSD>
0.6

> <PUBCHEM_CONFORMER_DIVERSEORDER>
1
10
9
11
2
8
12
7
5
6
3
4

> <PUBCHEM_MMFF94_PARTIAL_CHARGES>
19
1 -0.22
10 -0.15
11 0.47
12 0.45
13 0.48
14 0.36
15 0.15
16 0.15
17 0.15
18 0.15
19 0.15
2 -0.51
3 -0.56
4 -0.56
5 0.09
6 -0.15
7 -0.15
8 -0.15
9 -0.15

> <PUBCHEM_EFFECTIVE_ROTOR_COUNT>
3

> <PUBCHEM_PHARMACOPHORE_FEATURES>
4
1 2 acceptor
1 3 acceptor
1 4 acceptor
6 5 6 7 8 9 10 rings

> <PUBCHEM_HEAVY_ATOM_COUNT>
14

> <PUBCHEM_ATOM_DEF_STEREO_COUNT>
0

> <PUBCHEM_ATOM_UDEF_STEREO_COUNT>
0

> <PUBCHEM_BOND_DEF_STEREO_COUNT>
0

> <PUBCHEM_BOND_UDEF_STEREO_COUNT>
1

> <PUBCHEM_ISOTOPIC_ATOM_COUNT>
0

> <PUBCHEM_COMPONENT_COUNT>
1

> <PUBCHEM_CACTVS_TAUTO_COUNT>
1

> <PUBCHEM_CONFORMER_ID>
000168CD00000001

> <PUBCHEM_MMFF94_ENERGY>
37.2048

> <PUBCHEM_FEATURE_SELFOVERLAP>
20.297

> <PUBCHEM_SHAPE_FINGERPRINT>
10465860 250 18412267254791558048
10922049 32 9583515425898193720
11401426 45 18413672421924868534
12032990 46 18408881858405389110
13214271 11 18333735740489391542
13288520 33 18410011031393867943
14252887 29 18041270041590428102
14911166 2 18340777013438894197
15375462 189 18059859505733833770
15536298 74 18262520286633353032
17804303 29 18410291398189719461
17834072 33 18410854318067833380
18522853 276 18407758144615755713
200 152 17894920624643872279
20671657 1 18195241126948159501
21029758 11 18408326592111673553
21267235 1 18410847750772953587
21501502 16 18265045847936551469
221490 88 18198054777182227491
22485316 2 18412828018643834770
23402539 116 18335427888726367646
23532345 42 18337122193717265632
23557571 272 18188764076364424788
23559900 14 18335992964810049697
23622692 118 17898018936499650847
5104073 3 18337669715984603905
68521 5 18340203098165434428
7364860 26 18191307082854692761
8809292 202 18272366426224142939

> <PUBCHEM_SHAPE_MULTIPOLES>
267.3
9.35
1.76
0.59
9.12
0.76
0
-2.5
0.03
-0.4
0
-0.06
-0.01
0

> <PUBCHEM_SHAPE_SELFOVERLAP>
552.245

> <PUBCHEM_SHAPE_VOLUME>
148.9

> <PUBCHEM_COORDINATE_TYPE>
2
5
10

$$$$

