243754
  -OEChem-07051213052D

 57 60  0     1  0  0  0  0  0999 V2000
    2.0000   -2.0479    0.0000 F   0  0  0  0  0  0  0  0  0  0  0  0
    2.4967   -2.9159    0.0000 F   0  0  0  0  0  0  0  0  0  0  0  0
    8.7820    1.7591    0.0000 O   0  0  0  0  0  0  0  0  0  0  0  0
   10.4284    1.2211    0.0000 O   0  0  0  0  0  0  0  0  0  0  0  0
    5.7931   -0.4961    0.0000 C   0  0  1  0  0  0  0  0  0  0  0  0
    6.6591   -0.9961    0.0000 C   0  0  2  0  0  0  0  0  0  0  0  0
    7.5251   -0.4961    0.0000 C   0  0  1  0  0  0  0  0  0  0  0  0
    4.8831   -1.0030    0.0000 C   0  0  2  0  0  0  0  0  0  0  0  0
    7.5251    0.5039    0.0000 C   0  0  2  0  0  0  0  0  0  0  0  0
    4.8750   -2.0446    0.0000 C   0  0  1  0  0  0  0  0  0  0  0  0
    5.7931    0.5039    0.0000 C   0  0  0  0  0  0  0  0  0  0  0  0
    6.6591    1.0039    0.0000 C   0  0  0  0  0  0  0  0  0  0  0  0
    6.6752   -2.0376    0.0000 C   0  0  0  0  0  0  0  0  0  0  0  0
    8.4713    0.8086    0.0000 C   0  0  2  0  0  0  0  0  0  0  0  0
    8.4713   -0.8008    0.0000 C   0  0  0  0  0  0  0  0  0  0  0  0
    5.7771   -2.5654    0.0000 C   0  0  0  0  0  0  0  0  0  0  0  0
    3.9562   -0.4389    0.0000 C   0  0  0  0  0  0  0  0  0  0  0  0
    9.0550    0.0039    0.0000 C   0  0  0  0  0  0  0  0  0  0  0  0
    3.9396   -2.5943    0.0000 C   0  0  0  0  0  0  0  0  0  0  0  0
    4.8908   -0.0030    0.0000 C   0  0  0  0  0  0  0  0  0  0  0  0
    7.5251    1.5039    0.0000 C   0  0  0  0  0  0  0  0  0  0  0  0
    3.0084   -0.9668    0.0000 C   0  0  0  0  0  0  0  0  0  0  0  0
    3.0000   -2.0518    0.0000 C   0  0  0  0  0  0  0  0  0  0  0  0
    9.7605    1.9654    0.0000 C   0  0  0  0  0  0  0  0  0  0  0  0
   10.0712    2.9159    0.0000 C   0  0  0  0  0  0  0  0  0  0  0  0
    6.5292   -0.0711    0.0000 H   0  0  0  0  0  0  0  0  0  0  0  0
    7.3985   -1.4154    0.0000 H   0  0  0  0  0  0  0  0  0  0  0  0
    7.6151   -1.3413    0.0000 H   0  0  0  0  0  0  0  0  0  0  0  0
    4.8783   -2.8946    0.0000 H   0  0  0  0  0  0  0  0  0  0  0  0
    5.5810    1.0865    0.0000 H   0  0  0  0  0  0  0  0  0  0  0  0
    5.1825    0.3962    0.0000 H   0  0  0  0  0  0  0  0  0  0  0  0
    7.0576    1.4788    0.0000 H   0  0  0  0  0  0  0  0  0  0  0  0
    6.2606    1.4788    0.0000 H   0  0  0  0  0  0  0  0  0  0  0  0
    6.8932   -2.6180    0.0000 H   0  0  0  0  0  0  0  0  0  0  0  0
    7.2843   -1.9221    0.0000 H   0  0  0  0  0  0  0  0  0  0  0  0
    9.0838    0.9048    0.0000 H   0  0  0  0  0  0  0  0  0  0  0  0
    8.2203   -1.3678    0.0000 H   0  0  0  0  0  0  0  0  0  0  0  0
    9.0087   -1.1101    0.0000 H   0  0  0  0  0  0  0  0  0  0  0  0
    5.3798   -3.0413    0.0000 H   0  0  0  0  0  0  0  0  0  0  0  0
    6.1781   -3.0383    0.0000 H   0  0  0  0  0  0  0  0  0  0  0  0
    4.3644    0.0278    0.0000 H   0  0  0  0  0  0  0  0  0  0  0  0
    3.5663    0.0432    0.0000 H   0  0  0  0  0  0  0  0  0  0  0  0
    9.5158   -0.4108    0.0000 H   0  0  0  0  0  0  0  0  0  0  0  0
    9.5158    0.4186    0.0000 H   0  0  0  0  0  0  0  0  0  0  0  0
    3.5423   -3.0702    0.0000 H   0  0  0  0  0  0  0  0  0  0  0  0
    4.3406   -3.0672    0.0000 H   0  0  0  0  0  0  0  0  0  0  0  0
    5.5108   -0.0078    0.0000 H   0  0  0  0  0  0  0  0  0  0  0  0
    4.8956    0.6170    0.0000 H   0  0  0  0  0  0  0  0  0  0  0  0
    4.2708    0.0018    0.0000 H   0  0  0  0  0  0  0  0  0  0  0  0
    8.1451    1.5039    0.0000 H   0  0  0  0  0  0  0  0  0  0  0  0
    7.5251    2.1239    0.0000 H   0  0  0  0  0  0  0  0  0  0  0  0
    6.9051    1.5039    0.0000 H   0  0  0  0  0  0  0  0  0  0  0  0
    2.8038   -0.3815    0.0000 H   0  0  0  0  0  0  0  0  0  0  0  0
    2.3967   -1.0682    0.0000 H   0  0  0  0  0  0  0  0  0  0  0  0
   10.6605    2.7233    0.0000 H   0  0  0  0  0  0  0  0  0  0  0  0
   10.2638    3.5052    0.0000 H   0  0  0  0  0  0  0  0  0  0  0  0
    9.4819    3.1085    0.0000 H   0  0  0  0  0  0  0  0  0  0  0  0
  1 23  1  0  0  0  0
  2 23  1  0  0  0  0
 14  3  1  1  0  0  0
  3 24  1  0  0  0  0
  4 24  2  0  0  0  0
  5  6  1  0  0  0  0
  5  8  1  0  0  0  0
  5 11  1  0  0  0  0
  5 26  1  6  0  0  0
  6  7  1  0  0  0  0
  6 13  1  0  0  0  0
  6 27  1  1  0  0  0
  7  9  1  0  0  0  0
  7 15  1  0  0  0  0
  7 28  1  6  0  0  0
  8 10  1  0  0  0  0
  8 17  1  0  0  0  0
  8 20  1  1  0  0  0
  9 12  1  0  0  0  0
  9 14  1  0  0  0  0
  9 21  1  1  0  0  0
 10 16  1  0  0  0  0
 10 19  1  0  0  0  0
 10 29  1  6  0  0  0
 11 12  1  0  0  0  0
 11 30  1  0  0  0  0
 11 31  1  0  0  0  0
 12 32  1  0  0  0  0
 12 33  1  0  0  0  0
 13 16  1  0  0  0  0
 13 34  1  0  0  0  0
 13 35  1  0  0  0  0
 14 18  1  0  0  0  0
 14 36  1  0  0  0  0
 15 18  1  0  0  0  0
 15 37  1  0  0  0  0
 15 38  1  0  0  0  0
 16 39  1  0  0  0  0
 16 40  1  0  0  0  0
 17 22  1  0  0  0  0
 17 41  1  0  0  0  0
 17 42  1  0  0  0  0
 18 43  1  0  0  0  0
 18 44  1  0  0  0  0
 19 23  1  0  0  0  0
 19 45  1  0  0  0  0
 19 46  1  0  0  0  0
 20 47  1  0  0  0  0
 20 48  1  0  0  0  0
 20 49  1  0  0  0  0
 21 50  1  0  0  0  0
 21 51  1  0  0  0  0
 21 52  1  0  0  0  0
 22 23  1  0  0  0  0
 22 53  1  0  0  0  0
 22 54  1  0  0  0  0
 24 25  1  0  0  0  0
 25 55  1  0  0  0  0
 25 56  1  0  0  0  0
 25 57  1  0  0  0  0
M  END
> <PUBCHEM_COMPOUND_CID>
243754

> <PUBCHEM_COMPOUND_CANONICALIZED>
1

> <PUBCHEM_CACTVS_COMPLEXITY>
562

> <PUBCHEM_CACTVS_HBOND_ACCEPTOR>
4

> <PUBCHEM_CACTVS_HBOND_DONOR>
0

> <PUBCHEM_CACTVS_ROTATABLE_BOND>
2

> <PUBCHEM_CACTVS_SUBSKEYS>
AAADcfB4MYAAAAAAAAAAAAAAAAAAAYAAAAAwYMAAAAAAAGDAAAAAGwAAAAAADxSggBICCAAABAAIAACQCAAAAAAAAAAAAAAAAAAAAAIAAAACAAAEAAAAAAGAwPAPgAAAAAAAAACAAAQAACAAAIAADAAAAA==

> <PUBCHEM_IUPAC_OPENEYE_NAME>
[(5S,8R,9S,10S,13S,14S,17S)-3,3-difluoro-10,13-dimethyl-1,2,4,5,6,7,8,9,11,12,14,15,16,17-tetradecahydrocyclopenta[a]phenanthren-17-yl] acetate

> <PUBCHEM_IUPAC_CAS_NAME>
acetic acid [(5S,8R,9S,10S,13S,14S,17S)-3,3-difluoro-10,13-dimethyl-1,2,4,5,6,7,8,9,11,12,14,15,16,17-tetradecahydrocyclopenta[a]phenanthren-17-yl] ester

> <PUBCHEM_IUPAC_NAME>
[(5S,8R,9S,10S,13S,14S,17S)-3,3-difluoro-10,13-dimethyl-1,2,4,5,6,7,8,9,11,12,14,15,16,17-tetradecahydrocyclopenta[a]phenanthren-17-yl] acetate

> <PUBCHEM_IUPAC_SYSTEMATIC_NAME>
[(5S,8R,9S,10S,13S,14S,17S)-3,3-bis(fluoranyl)-10,13-dimethyl-1,2,4,5,6,7,8,9,11,12,14,15,16,17-tetradecahydrocyclopenta[a]phenanthren-17-yl] ethanoate

> <PUBCHEM_IUPAC_TRADITIONAL_NAME>
acetic acid [(5S,8R,9S,10S,13S,14S,17S)-3,3-difluoro-10,13-dimethyl-1,2,4,5,6,7,8,9,11,12,14,15,16,17-tetradecahydrocyclopenta[a]phenanthren-17-yl] ester

> <PUBCHEM_IUPAC_INCHI>
InChI=1S/C21H32F2O2/c1-13(24)25-18-7-6-16-15-5-4-14-12-21(22,23)11-10-19(14,2)17(15)8-9-20(16,18)3/h14-18H,4-12H2,1-3H3/t14-,15-,16-,17-,18-,19-,20-/m0/s1

> <PUBCHEM_IUPAC_INCHIKEY>
BUIQHUBDLNDWCY-RBZZARIASA-N

> <PUBCHEM_XLOGP3>
6

> <PUBCHEM_EXACT_MASS>
354.237037

> <PUBCHEM_MOLECULAR_FORMULA>
C21H32F2O2

> <PUBCHEM_MOLECULAR_WEIGHT>
354.474386

> <PUBCHEM_OPENEYE_CAN_SMILES>
CC(=O)OC1CCC2C1(CCC3C2CCC4C3(CCC(C4)(F)F)C)C

> <PUBCHEM_OPENEYE_ISO_SMILES>
CC(=O)O[C@H]1CC[C@@H]2[C@@]1(CC[C@H]3[C@H]2CC[C@@H]4[C@@]3(CCC(C4)(F)F)C)C

> <PUBCHEM_CACTVS_TPSA>
26.3

> <PUBCHEM_MONOISOTOPIC_WEIGHT>
354.237037

> <PUBCHEM_TOTAL_CHARGE>
0

> <PUBCHEM_HEAVY_ATOM_COUNT>
25

> <PUBCHEM_ATOM_DEF_STEREO_COUNT>
7

> <PUBCHEM_ATOM_UDEF_STEREO_COUNT>
0

> <PUBCHEM_BOND_DEF_STEREO_COUNT>
0

> <PUBCHEM_BOND_UDEF_STEREO_COUNT>
0

> <PUBCHEM_ISOTOPIC_ATOM_COUNT>
0

> <PUBCHEM_COMPONENT_COUNT>
1

> <PUBCHEM_CACTVS_TAUTO_COUNT>
1

> <PUBCHEM_COORDINATE_TYPE>
1
5
255

> <PUBCHEM_BONDANNOTATIONS>
10  29  6
14  3  5
5  26  6
6  27  5
7  28  6
8  20  5
9  21  5

$$$$

