78673
  -OEChem-07051212563D

 29 30  0     1  0  0  0  0  0999 V2000
   -1.7450    1.1212    0.3005 O   0  0  0  0  0  0  0  0  0  0  0  0
    4.5389    0.4793   -0.1483 O   0  0  0  0  0  0  0  0  0  0  0  0
   -2.3330   -0.1793    0.5709 C   0  0  2  0  0  0  0  0  0  0  0  0
   -1.3504   -1.2691    0.1117 C   0  0  0  0  0  0  0  0  0  0  0  0
   -0.0971   -0.4815    0.1261 C   0  0  0  0  0  0  0  0  0  0  0  0
   -0.4001    0.8684    0.2114 C   0  0  0  0  0  0  0  0  0  0  0  0
   -3.6581   -0.2665   -0.1094 C   0  0  0  0  0  0  0  0  0  0  0  0
    1.2130   -0.9088    0.0122 C   0  0  0  0  0  0  0  0  0  0  0  0
    0.5799    1.8415    0.1837 C   0  0  0  0  0  0  0  0  0  0  0  0
    2.2227    0.0571   -0.0049 C   0  0  0  0  0  0  0  0  0  0  0  0
    1.9078    1.4237    0.0790 C   0  0  0  0  0  0  0  0  0  0  0  0
   -3.7791    0.4571   -1.4177 C   0  0  0  0  0  0  0  0  0  0  0  0
   -4.6824   -0.9529    0.4186 C   0  0  0  0  0  0  0  0  0  0  0  0
    3.6127   -0.3554   -0.1209 C   0  0  0  0  0  0  0  0  0  0  0  0
    3.9702   -1.8347   -0.2129 C   0  0  0  0  0  0  0  0  0  0  0  0
   -2.4623   -0.2357    1.6619 H   0  0  0  0  0  0  0  0  0  0  0  0
   -1.5560   -1.6319   -0.9012 H   0  0  0  0  0  0  0  0  0  0  0  0
   -1.3343   -2.1129    0.8078 H   0  0  0  0  0  0  0  0  0  0  0  0
    1.4113   -1.9716   -0.0666 H   0  0  0  0  0  0  0  0  0  0  0  0
    0.3324    2.8953    0.2442 H   0  0  0  0  0  0  0  0  0  0  0  0
    2.6881    2.1807    0.0608 H   0  0  0  0  0  0  0  0  0  0  0  0
   -3.7148    1.5404   -1.2742 H   0  0  0  0  0  0  0  0  0  0  0  0
   -2.9889    0.1453   -2.1085 H   0  0  0  0  0  0  0  0  0  0  0  0
   -4.7370    0.2507   -1.9078 H   0  0  0  0  0  0  0  0  0  0  0  0
   -5.6427   -1.0106   -0.0828 H   0  0  0  0  0  0  0  0  0  0  0  0
   -4.5816   -1.4742    1.3648 H   0  0  0  0  0  0  0  0  0  0  0  0
    3.5322   -2.2742   -1.1127 H   0  0  0  0  0  0  0  0  0  0  0  0
    3.6396   -2.3608    0.6864 H   0  0  0  0  0  0  0  0  0  0  0  0
    5.0580   -1.9362   -0.2821 H   0  0  0  0  0  0  0  0  0  0  0  0
  1  3  1  0  0  0  0
  1  6  1  0  0  0  0
  2 14  2  0  0  0  0
  3  4  1  0  0  0  0
  3  7  1  0  0  0  0
  3 16  1  0  0  0  0
  4  5  1  0  0  0  0
  4 17  1  0  0  0  0
  4 18  1  0  0  0  0
  5  6  2  0  0  0  0
  5  8  1  0  0  0  0
  6  9  1  0  0  0  0
  7 12  1  0  0  0  0
  7 13  2  0  0  0  0
  8 10  2  0  0  0  0
  8 19  1  0  0  0  0
  9 11  2  0  0  0  0
  9 20  1  0  0  0  0
 10 11  1  0  0  0  0
 10 14  1  0  0  0  0
 11 21  1  0  0  0  0
 12 22  1  0  0  0  0
 12 23  1  0  0  0  0
 12 24  1  0  0  0  0
 13 25  1  0  0  0  0
 13 26  1  0  0  0  0
 14 15  1  0  0  0  0
 15 27  1  0  0  0  0
 15 28  1  0  0  0  0
 15 29  1  0  0  0  0
M  END
> <PUBCHEM_COMPOUND_CID>
78673

> <PUBCHEM_CONFORMER_RMSD>
0.6

> <PUBCHEM_CONFORMER_DIVERSEORDER>
1
5
8
7
6
3
4
9
2

> <PUBCHEM_MMFF94_PARTIAL_CHARGES>
20
1 -0.36
10 0.09
11 -0.15
12 0.14
13 -0.3
14 0.42
15 0.06
19 0.15
2 -0.57
20 0.15
21 0.15
25 0.15
26 0.15
3 0.42
4 0.14
5 -0.14
6 0.08
7 -0.28
8 -0.15
9 -0.15

> <PUBCHEM_EFFECTIVE_ROTOR_COUNT>
2.6

> <PUBCHEM_PHARMACOPHORE_FEATURES>
4
1 1 acceptor
1 2 acceptor
5 1 3 4 5 6 rings
6 5 6 8 9 10 11 rings

> <PUBCHEM_HEAVY_ATOM_COUNT>
15

> <PUBCHEM_ATOM_DEF_STEREO_COUNT>
1

> <PUBCHEM_ATOM_UDEF_STEREO_COUNT>
0

> <PUBCHEM_BOND_DEF_STEREO_COUNT>
0

> <PUBCHEM_BOND_UDEF_STEREO_COUNT>
0

> <PUBCHEM_ISOTOPIC_ATOM_COUNT>
0

> <PUBCHEM_COMPONENT_COUNT>
1

> <PUBCHEM_CACTVS_TAUTO_COUNT>
2

> <PUBCHEM_CONFORMER_ID>
0001335100000001

> <PUBCHEM_MMFF94_ENERGY>
41.0248

> <PUBCHEM_FEATURE_SELFOVERLAP>
20.399

> <PUBCHEM_SHAPE_FINGERPRINT>
10062212 137 18114465655879809491
11401426 45 18408329877629506777
11471102 20 18411139125902170862
11543360 7 16343407436873183526
11806522 49 18409446968616454098
12032990 46 18410570703796534515
12186901 62 17346886667355312591
12236239 1 17530963579878462643
124424 183 18272933825415263234
12715332 25 18113618946043465743
13571099 22 18411982455431038964
13690532 89 18409448098161366851
13760787 5 18409443704399104660
13862211 1 18409171021321247282
14115302 16 17845642681775763662
14252887 29 17968085439480648630
14289901 80 15140956257808247650
14350574 20 18341890749977450155
14576447 43 18114756918823562487
14911166 2 18412267229000642359
14943859 89 10952045650047126092
14993402 34 18260550017351086158
15196674 1 18410008874993062288
15536298 74 18188209797549144752
16945 1 18408600348900083177
18186145 218 18202571674497636721
18522853 276 18333729113249436633
19026448 5 16008752372787859401
19784866 170 7709463839878437515
200 152 17968101923675679605
20201158 50 18410290315494126434
20645477 70 18410571816710509614
20671657 53 18409162220816972917
21029758 11 18333735718867238680
21267235 1 18337098043148120070
21501925 9 18335706052773728008
22094290 60 17203610389308043661
221490 88 18125153840841442211
23402539 116 17967254217184857165
23402655 69 18408610283576287293
23463225 33 18409443713432183334
23557571 272 4750892428467459803
23559900 14 18411983555617822162
2748010 2 18122341276874734800
3071541 158 18201438034627632612
34934 24 18336835199792040178
4047638 21 10519983768905337910
5104073 3 18335982059914212770
69090 78 18186524280267056286
7364860 26 18190460459349841160
8809292 202 18200870665427098923

> <PUBCHEM_SHAPE_MULTIPOLES>
296.95
8.44
1.62
0.8
0.71
0.13
0.17
-2.56
1.05
-0.86
-0.05
0.62
0.05
0.43

> <PUBCHEM_SHAPE_SELFOVERLAP>
635.228

> <PUBCHEM_SHAPE_VOLUME>
167

> <PUBCHEM_COORDINATE_TYPE>
2
5
10

$$$$

