261477
  -OEChem-07051212573D

 79 85  0     1  0  0  0  0  0999 V2000
   -0.8430   -0.2111   -0.3718 O   0  0  0  0  0  0  0  0  0  0  0  0
   -3.4180   -1.8266    3.3708 O   0  0  0  0  0  0  0  0  0  0  0  0
   -1.0140   -1.6263    2.0934 O   0  0  0  0  0  0  0  0  0  0  0  0
   -1.9634   -2.7544   -1.1473 O   0  0  0  0  0  0  0  0  0  0  0  0
    2.6565    3.3905    1.1748 O   0  0  0  0  0  0  0  0  0  0  0  0
    4.8897    4.1690   -0.2345 O   0  0  0  0  0  0  0  0  0  0  0  0
   -4.3134    1.3250   -2.0869 N   0  0  1  0  0  0  0  0  0  0  0  0
    4.3393   -3.4769   -0.1681 N   0  0  0  0  0  0  0  0  0  0  0  0
   -3.0389    1.3688   -1.3297 C   0  0  2  0  0  0  0  0  0  0  0  0
   -3.1335    0.4226   -0.1338 C   0  0  0  0  0  0  0  0  0  0  0  0
   -5.4463    1.7686   -1.2704 C   0  0  0  0  0  0  0  0  0  0  0  0
   -4.3664    0.2919    0.5361 C   0  0  0  0  0  0  0  0  0  0  0  0
   -5.6336    0.8795   -0.0357 C   0  0  0  0  0  0  0  0  0  0  0  0
   -2.6328    2.8007   -0.8596 C   0  0  0  0  0  0  0  0  0  0  0  0
    3.6647   -2.1671   -0.3116 C   0  0  1  0  0  0  0  0  0  0  0  0
   -2.0216   -0.3002    0.3402 C   0  0  0  0  0  0  0  0  0  0  0  0
    2.1532   -2.3116   -0.5027 C   0  0  0  0  0  0  0  0  0  0  0  0
    1.5957   -3.5532   -0.8716 C   0  0  0  0  0  0  0  0  0  0  0  0
    2.4691   -4.7701   -1.0353 C   0  0  0  0  0  0  0  0  0  0  0  0
   -4.2597    2.0416   -3.3573 C   0  0  0  0  0  0  0  0  0  0  0  0
   -4.4464   -0.4751    1.7076 C   0  0  0  0  0  0  0  0  0  0  0  0
    3.9363   -4.4032   -1.2205 C   0  0  0  0  0  0  0  0  0  0  0  0
    4.0785   -1.3364    0.9388 C   0  0  0  0  0  0  0  0  0  0  0  0
   -1.2217    2.9380   -0.3321 C   0  0  0  0  0  0  0  0  0  0  0  0
   -2.1071   -1.0320    1.5317 C   0  0  0  0  0  0  0  0  0  0  0  0
    1.2897   -1.2130   -0.3936 C   0  0  0  0  0  0  0  0  0  0  0  0
   -0.0930   -1.3542   -0.5392 C   0  0  0  0  0  0  0  0  0  0  0  0
   -3.3177   -1.1150    2.2132 C   0  0  0  0  0  0  0  0  0  0  0  0
    0.2087   -3.6817   -1.0567 C   0  0  0  0  0  0  0  0  0  0  0  0
   -0.6360   -2.5857   -0.8954 C   0  0  0  0  0  0  0  0  0  0  0  0
    4.3058    0.1341    0.6619 C   0  0  0  0  0  0  0  0  0  0  0  0
   -0.1296    2.9070   -1.2094 C   0  0  0  0  0  0  0  0  0  0  0  0
   -0.9878    3.1256    1.0386 C   0  0  0  0  0  0  0  0  0  0  0  0
    3.4136    1.0998    1.1417 C   0  0  0  0  0  0  0  0  0  0  0  0
    1.1723    3.0519   -0.7264 C   0  0  0  0  0  0  0  0  0  0  0  0
    0.3128    3.2732    1.5255 C   0  0  0  0  0  0  0  0  0  0  0  0
    5.4143    0.5521   -0.0899 C   0  0  0  0  0  0  0  0  0  0  0  0
    1.3925    3.2191    0.6448 C   0  0  0  0  0  0  0  0  0  0  0  0
    3.5827    2.4438    0.7965 C   0  0  0  0  0  0  0  0  0  0  0  0
    5.6158    1.9060   -0.3706 C   0  0  0  0  0  0  0  0  0  0  0  0
    4.6987    2.8568    0.0715 C   0  0  0  0  0  0  0  0  0  0  0  0
   -3.7688   -3.2042    3.2562 C   0  0  0  0  0  0  0  0  0  0  0  0
   -2.3973   -2.5678   -2.4934 C   0  0  0  0  0  0  0  0  0  0  0  0
   -2.2668    0.9774   -2.0044 H   0  0  0  0  0  0  0  0  0  0  0  0
   -6.3756    1.7323   -1.8536 H   0  0  0  0  0  0  0  0  0  0  0  0
   -5.3294    2.8147   -0.9619 H   0  0  0  0  0  0  0  0  0  0  0  0
   -6.2803    0.0372   -0.3159 H   0  0  0  0  0  0  0  0  0  0  0  0
   -6.1557    1.4522    0.7402 H   0  0  0  0  0  0  0  0  0  0  0  0
   -3.3253    3.1631   -0.0887 H   0  0  0  0  0  0  0  0  0  0  0  0
   -2.7186    3.5143   -1.6878 H   0  0  0  0  0  0  0  0  0  0  0  0
    4.0590   -1.6954   -1.2215 H   0  0  0  0  0  0  0  0  0  0  0  0
    2.3502   -5.4020   -0.1458 H   0  0  0  0  0  0  0  0  0  0  0  0
    2.1397   -5.3519   -1.9045 H   0  0  0  0  0  0  0  0  0  0  0  0
   -4.2112    3.1282   -3.2348 H   0  0  0  0  0  0  0  0  0  0  0  0
   -5.1503    1.8140   -3.9539 H   0  0  0  0  0  0  0  0  0  0  0  0
   -3.3977    1.7188   -3.9514 H   0  0  0  0  0  0  0  0  0  0  0  0
   -5.3984   -0.5743    2.2247 H   0  0  0  0  0  0  0  0  0  0  0  0
    4.5513   -5.3080   -1.1654 H   0  0  0  0  0  0  0  0  0  0  0  0
    4.1130   -3.9600   -2.2084 H   0  0  0  0  0  0  0  0  0  0  0  0
    5.0318   -1.7046    1.3466 H   0  0  0  0  0  0  0  0  0  0  0  0
    3.3516   -1.4690    1.7514 H   0  0  0  0  0  0  0  0  0  0  0  0
    4.1160   -3.8783    0.7432 H   0  0  0  0  0  0  0  0  0  0  0  0
    1.6761   -0.2239   -0.1923 H   0  0  0  0  0  0  0  0  0  0  0  0
   -0.2098   -4.6462   -1.3373 H   0  0  0  0  0  0  0  0  0  0  0  0
   -0.2881    2.7757   -2.2770 H   0  0  0  0  0  0  0  0  0  0  0  0
   -1.8195    3.1609    1.7381 H   0  0  0  0  0  0  0  0  0  0  0  0
    2.5611    0.7996    1.7464 H   0  0  0  0  0  0  0  0  0  0  0  0
    1.9990    3.0393   -1.4310 H   0  0  0  0  0  0  0  0  0  0  0  0
    0.4748    3.4209    2.5895 H   0  0  0  0  0  0  0  0  0  0  0  0
    6.1296   -0.1774   -0.4618 H   0  0  0  0  0  0  0  0  0  0  0  0
   -1.2724   -2.0307    2.9392 H   0  0  0  0  0  0  0  0  0  0  0  0
    6.4843    2.2091   -0.9493 H   0  0  0  0  0  0  0  0  0  0  0  0
   -3.0444   -3.7395    2.6340 H   0  0  0  0  0  0  0  0  0  0  0  0
   -4.7736   -3.3079    2.8347 H   0  0  0  0  0  0  0  0  0  0  0  0
   -3.7624   -3.6438    4.2573 H   0  0  0  0  0  0  0  0  0  0  0  0
   -1.9813   -3.3478   -3.1386 H   0  0  0  0  0  0  0  0  0  0  0  0
   -2.1057   -1.5796   -2.8629 H   0  0  0  0  0  0  0  0  0  0  0  0
   -3.4881   -2.6402   -2.5141 H   0  0  0  0  0  0  0  0  0  0  0  0
    4.1546    4.6816    0.1444 H   0  0  0  0  0  0  0  0  0  0  0  0
  1 16  1  0  0  0  0
  1 27  1  0  0  0  0
  2 28  1  0  0  0  0
  2 42  1  0  0  0  0
  3 25  1  0  0  0  0
  3 71  1  0  0  0  0
  4 30  1  0  0  0  0
  4 43  1  0  0  0  0
  5 38  1  0  0  0  0
  5 39  1  0  0  0  0
  6 41  1  0  0  0  0
  6 79  1  0  0  0  0
  7  9  1  0  0  0  0
  7 11  1  0  0  0  0
  7 20  1  0  0  0  0
  8 15  1  0  0  0  0
  8 22  1  0  0  0  0
  8 62  1  0  0  0  0
  9 10  1  0  0  0  0
  9 14  1  0  0  0  0
  9 44  1  0  0  0  0
 10 12  1  0  0  0  0
 10 16  2  0  0  0  0
 11 13  1  0  0  0  0
 11 45  1  0  0  0  0
 11 46  1  0  0  0  0
 12 13  1  0  0  0  0
 12 21  2  0  0  0  0
 13 47  1  0  0  0  0
 13 48  1  0  0  0  0
 14 24  1  0  0  0  0
 14 49  1  0  0  0  0
 14 50  1  0  0  0  0
 15 17  1  0  0  0  0
 15 23  1  0  0  0  0
 15 51  1  0  0  0  0
 16 25  1  0  0  0  0
 17 18  1  0  0  0  0
 17 26  2  0  0  0  0
 18 19  1  0  0  0  0
 18 29  2  0  0  0  0
 19 22  1  0  0  0  0
 19 52  1  0  0  0  0
 19 53  1  0  0  0  0
 20 54  1  0  0  0  0
 20 55  1  0  0  0  0
 20 56  1  0  0  0  0
 21 28  1  0  0  0  0
 21 57  1  0  0  0  0
 22 58  1  0  0  0  0
 22 59  1  0  0  0  0
 23 31  1  0  0  0  0
 23 60  1  0  0  0  0
 23 61  1  0  0  0  0
 24 32  2  0  0  0  0
 24 33  1  0  0  0  0
 25 28  2  0  0  0  0
 26 27  1  0  0  0  0
 26 63  1  0  0  0  0
 27 30  2  0  0  0  0
 29 30  1  0  0  0  0
 29 64  1  0  0  0  0
 31 34  2  0  0  0  0
 31 37  1  0  0  0  0
 32 35  1  0  0  0  0
 32 65  1  0  0  0  0
 33 36  2  0  0  0  0
 33 66  1  0  0  0  0
 34 39  1  0  0  0  0
 34 67  1  0  0  0  0
 35 38  2  0  0  0  0
 35 68  1  0  0  0  0
 36 38  1  0  0  0  0
 36 69  1  0  0  0  0
 37 40  2  0  0  0  0
 37 70  1  0  0  0  0
 39 41  2  0  0  0  0
 40 41  1  0  0  0  0
 40 72  1  0  0  0  0
 42 73  1  0  0  0  0
 42 74  1  0  0  0  0
 42 75  1  0  0  0  0
 43 76  1  0  0  0  0
 43 77  1  0  0  0  0
 43 78  1  0  0  0  0
M  END
> <PUBCHEM_COMPOUND_CID>
261477

> <PUBCHEM_CONFORMER_RMSD>
0.8

> <PUBCHEM_CONFORMER_DIVERSEORDER>
1
4
2
3
5

> <PUBCHEM_MMFF94_PARTIAL_CHARGES>
56
1 -0.17
10 -0.14
11 0.27
12 -0.14
13 0.14
14 0.14
15 0.41
16 0.08
17 -0.14
18 -0.14
19 0.14
2 -0.36
20 0.27
21 -0.15
22 0.27
23 0.14
24 -0.14
25 0.08
26 -0.15
27 0.08
28 0.08
29 -0.15
3 -0.53
30 0.08
31 -0.14
32 -0.15
33 -0.15
34 -0.15
35 -0.15
36 -0.15
37 -0.15
38 0.08
39 0.08
4 -0.36
40 -0.15
41 0.08
42 0.28
43 0.28
5 -0.17
57 0.15
6 -0.53
62 0.36
63 0.15
64 0.15
65 0.15
66 0.15
67 0.15
68 0.15
69 0.15
7 -0.81
70 0.15
71 0.45
72 0.15
79 0.45
8 -0.9
9 0.41

> <PUBCHEM_EFFECTIVE_ROTOR_COUNT>
4

> <PUBCHEM_PHARMACOPHORE_FEATURES>
15
1 1 acceptor
1 2 acceptor
1 3 donor
1 4 acceptor
1 5 acceptor
1 6 donor
1 7 cation
1 8 cation
1 8 donor
6 10 12 16 21 25 28 rings
6 17 18 26 27 29 30 rings
6 24 32 33 35 36 38 rings
6 31 34 37 39 40 41 rings
6 7 9 10 11 12 13 rings
6 8 15 17 18 19 22 rings

> <PUBCHEM_HEAVY_ATOM_COUNT>
43

> <PUBCHEM_ATOM_DEF_STEREO_COUNT>
2

> <PUBCHEM_ATOM_UDEF_STEREO_COUNT>
0

> <PUBCHEM_BOND_DEF_STEREO_COUNT>
0

> <PUBCHEM_BOND_UDEF_STEREO_COUNT>
0

> <PUBCHEM_ISOTOPIC_ATOM_COUNT>
0

> <PUBCHEM_COMPONENT_COUNT>
1

> <PUBCHEM_CACTVS_TAUTO_COUNT>
8

> <PUBCHEM_CONFORMER_ID>
0003FD6500000001

> <PUBCHEM_MMFF94_ENERGY>
169.0199

> <PUBCHEM_FEATURE_SELFOVERLAP>
76.16

> <PUBCHEM_SHAPE_FINGERPRINT>
10190108 129 17904195928737869439
10290309 65 18338228255476395756
11285246 1 17254836897591220458
11513181 2 17751359706044503380
12422481 6 18052523388845591451
13165054 342 17980185397842176068
13165054 49 15091409382508416423
13402501 40 18342179981111534232
13583140 156 18341040934252315786
1361 2 18335154102099683029
14114211 80 18118102694442510416
14725015 67 17911256210083268904
14747282 140 17765436439819445332
150020 26 18340759330425871848
15082195 135 18117305634090095951
15320467 1 18335426802690556836
15406563 42 16773222978244332904
15444296 8 16271386096669818628
15815584 197 18264750138858272367
161222 619 18409158909481733183
19315092 285 16445921554566604929
20721686 56 18337393867805641642
20764821 26 18263943072070431204
23559900 14 17916285290211381207
3027735 51 17757006514492046047
3298306 158 18412267207394255368
4015057 19 18264496259436652783
437795 96 18341890766687964203
4435113 14 18272923930105973849
469060 322 18193553359815578671
508706 21 17988371347477328681
5265222 85 18124869058920002660

> <PUBCHEM_SHAPE_MULTIPOLES>
839.74
11.38
6.6
2.43
1.96
1.8
-0.7
-2.94
0.37
6.51
1.09
-4.31
1.25
4.03

> <PUBCHEM_SHAPE_SELFOVERLAP>
1862.541

> <PUBCHEM_SHAPE_VOLUME>
446.1

> <PUBCHEM_COORDINATE_TYPE>
2
5
10

$$$$

