441965
  -OEChem-07051212563D

 28 31  0     0  0  0  0  0  0999 V2000
    0.5496   -1.2945    0.0005 O   0  0  0  0  0  0  0  0  0  0  0  0
   -2.3850    1.7004    0.0005 O   0  0  0  0  0  0  0  0  0  0  0  0
    1.8320    2.5635    0.0040 O   0  0  0  0  0  0  0  0  0  0  0  0
   -0.7803    3.3132   -0.0021 O   0  0  0  0  0  0  0  0  0  0  0  0
   -0.3497   -0.2432   -0.0006 C   0  0  0  0  0  0  0  0  0  0  0  0
   -0.0182    1.0600   -0.0005 C   0  0  0  0  0  0  0  0  0  0  0  0
   -1.7582   -0.6489   -0.0007 C   0  0  0  0  0  0  0  0  0  0  0  0
    2.3839    0.2842   -0.0010 C   0  0  0  0  0  0  0  0  0  0  0  0
    1.8890   -1.0150   -0.0004 C   0  0  0  0  0  0  0  0  0  0  0  0
    1.4330    1.4061    0.0004 C   0  0  0  0  0  0  0  0  0  0  0  0
   -2.7372    0.3394    0.0003 C   0  0  0  0  0  0  0  0  0  0  0  0
   -1.0608    2.1193   -0.0010 C   0  0  0  0  0  0  0  0  0  0  0  0
   -2.1771   -1.9864   -0.0009 C   0  0  0  0  0  0  0  0  0  0  0  0
    3.7629    0.5123   -0.0013 C   0  0  0  0  0  0  0  0  0  0  0  0
    2.7680   -2.0986    0.0006 C   0  0  0  0  0  0  0  0  0  0  0  0
   -4.0996    0.0375    0.0010 C   0  0  0  0  0  0  0  0  0  0  0  0
   -3.5391   -2.3063   -0.0001 C   0  0  0  0  0  0  0  0  0  0  0  0
   -4.4990   -1.2953    0.0008 C   0  0  0  0  0  0  0  0  0  0  0  0
    4.6413   -0.5719   -0.0003 C   0  0  0  0  0  0  0  0  0  0  0  0
    4.1448   -1.8756    0.0009 C   0  0  0  0  0  0  0  0  0  0  0  0
   -1.4578   -2.8018   -0.0015 H   0  0  0  0  0  0  0  0  0  0  0  0
    4.1692    1.5198   -0.0018 H   0  0  0  0  0  0  0  0  0  0  0  0
    2.3886   -3.1169    0.0014 H   0  0  0  0  0  0  0  0  0  0  0  0
   -4.8439    0.8281    0.0017 H   0  0  0  0  0  0  0  0  0  0  0  0
   -3.8494   -3.3474   -0.0002 H   0  0  0  0  0  0  0  0  0  0  0  0
   -5.5552   -1.5479    0.0014 H   0  0  0  0  0  0  0  0  0  0  0  0
    5.7139   -0.4006   -0.0002 H   0  0  0  0  0  0  0  0  0  0  0  0
    4.8310   -2.7175    0.0018 H   0  0  0  0  0  0  0  0  0  0  0  0
  1  5  1  0  0  0  0
  1  9  1  0  0  0  0
  2 11  1  0  0  0  0
  2 12  1  0  0  0  0
  3 10  2  0  0  0  0
  4 12  2  0  0  0  0
  5  6  2  0  0  0  0
  5  7  1  0  0  0  0
  6 10  1  0  0  0  0
  6 12  1  0  0  0  0
  7 11  1  0  0  0  0
  7 13  2  0  0  0  0
  8  9  1  0  0  0  0
  8 10  1  0  0  0  0
  8 14  2  0  0  0  0
  9 15  2  0  0  0  0
 11 16  2  0  0  0  0
 13 17  1  0  0  0  0
 13 21  1  0  0  0  0
 14 19  1  0  0  0  0
 14 22  1  0  0  0  0
 15 20  1  0  0  0  0
 15 23  1  0  0  0  0
 16 18  1  0  0  0  0
 16 24  1  0  0  0  0
 17 18  2  0  0  0  0
 17 25  1  0  0  0  0
 18 26  1  0  0  0  0
 19 20  2  0  0  0  0
 19 27  1  0  0  0  0
 20 28  1  0  0  0  0
M  END
> <PUBCHEM_COMPOUND_CID>
441965

> <PUBCHEM_CONFORMER_RMSD>
0.6

> <PUBCHEM_CONFORMER_DIVERSEORDER>
1

> <PUBCHEM_MMFF94_PARTIAL_CHARGES>
28
1 -0.16
10 0.47
11 0.08
12 0.71
13 -0.15
14 -0.15
15 -0.15
16 -0.15
17 -0.15
18 -0.15
19 -0.15
2 -0.23
20 -0.15
21 0.15
22 0.15
23 0.15
24 0.15
25 0.15
26 0.15
27 0.15
28 0.15
3 -0.57
4 -0.57
5 0.05
6 0.03
7 0.03
8 0.09
9 0.08

> <PUBCHEM_EFFECTIVE_ROTOR_COUNT>
0

> <PUBCHEM_PHARMACOPHORE_FEATURES>
8
1 1 acceptor
1 3 acceptor
1 4 acceptor
1 6 anion
6 1 5 6 8 9 10 rings
6 2 5 6 7 11 12 rings
6 7 11 13 16 17 18 rings
6 8 9 14 15 19 20 rings

> <PUBCHEM_HEAVY_ATOM_COUNT>
20

> <PUBCHEM_ATOM_DEF_STEREO_COUNT>
0

> <PUBCHEM_ATOM_UDEF_STEREO_COUNT>
0

> <PUBCHEM_BOND_DEF_STEREO_COUNT>
0

> <PUBCHEM_BOND_UDEF_STEREO_COUNT>
0

> <PUBCHEM_ISOTOPIC_ATOM_COUNT>
0

> <PUBCHEM_COMPONENT_COUNT>
1

> <PUBCHEM_CACTVS_TAUTO_COUNT>
1

> <PUBCHEM_CONFORMER_ID>
0006BE6D00000001

> <PUBCHEM_MMFF94_ENERGY>
66.7668

> <PUBCHEM_FEATURE_SELFOVERLAP>
40.678

> <PUBCHEM_SHAPE_FINGERPRINT>
10319926 262 18048341087364257250
10411042 1 18410573972288076994
10616163 171 18337107972822488166
10618630 7 18411981355776999478
10967382 1 18266740168988934566
1100329 8 17042608085372154083
116883 192 18337105765050594278
11806522 49 18413388726676880214
12403259 226 18409454712801555248
12553582 1 18410582776992184774
13140716 1 18409161100183592569
138480 1 15095925084683069989
14115302 16 17846206739799157398
14178342 30 18268162031482973448
14223421 5 18408610274959933264
14790565 3 17688866853619738249
15042514 8 18050852414328249282
15196674 1 18410575093258288262
15352361 1 18410575076136746679
15442244 35 18410009970077841003
15536298 74 18334858260267482472
16945 1 18410575127618260484
17357779 13 18269855193073742861
17492 89 18339924947430620538
17804303 29 18408038528523002133
1813 80 17632858615925928716
19141452 34 18333447638895360839
19591789 44 18338517430517214567
200 152 18113904836356956055
20261772 1 17967536744244381166
20510252 161 18190180268119485033
20645477 70 18269844107742273079
21029758 11 18409735058270081453
21267235 1 18410846659788158247
21421861 104 18057889241079519386
221490 88 18197773306569198779
23184049 29 18410290345643105236
2334 1 18194682566376889805
23366157 5 18059295336379218404
23402539 116 18261681445434778799
23463225 33 18410009901506024855
23557571 272 18115582794301372846
23559900 14 18409455777874141536
2748010 2 18337963268166867349
2871803 45 18342462547051967190
3091708 16 9425160475331388169
335352 9 18410574020202364349
34934 24 18410300189682014143
4214541 1 18338517542185961474
5104073 3 18409167731312398354
54173680 148 18266177429789649592
7364860 26 18264770943753596416
8809292 202 18343299253952255219
9709674 26 18340483374482408995
9981440 41 17114106560747045273

> <PUBCHEM_SHAPE_MULTIPOLES>
388.11
8.29
2.95
0.6
0.78
1.33
0
-4.58
0
-0.38
0
0
-0.03
0

> <PUBCHEM_SHAPE_SELFOVERLAP>
888.968

> <PUBCHEM_SHAPE_VOLUME>
198.7

> <PUBCHEM_COORDINATE_TYPE>
2
5
10

$$$$

