442364
  -OEChem-07051212572D

 43 44  0     1  0  0  0  0  0999 V2000
    3.7690    0.3660    0.0000 O   0  0  0  0  0  0  0  0  0  0  0  0
    2.5369   -0.5000    0.0000 O   0  0  0  0  0  0  0  0  0  0  0  0
    6.8671    0.0000    0.0000 C   0  0  2  0  0  0  0  0  0  0  0  0
    6.0010   -0.5000    0.0000 C   0  0  0  0  0  0  0  0  0  0  0  0
    7.7610   -0.5347    0.0000 C   0  0  1  0  0  0  0  0  0  0  0  0
    5.1350    0.0000    0.0000 C   0  0  1  0  0  0  0  0  0  0  0  0
    6.8671    1.0000    0.0000 C   0  0  0  0  0  0  0  0  0  0  0  0
    8.6671   -0.0208    0.0000 C   0  0  0  0  0  0  0  0  0  0  0  0
    5.1350    1.0000    0.0000 C   0  0  0  0  0  0  0  0  0  0  0  0
    7.7610    1.5346    0.0000 C   0  0  0  0  0  0  0  0  0  0  0  0
    4.2690   -0.5000    0.0000 C   0  0  1  0  0  0  0  0  0  0  0  0
    8.6671    1.0208    0.0000 C   0  0  0  0  0  0  0  0  0  0  0  0
    6.8671   -1.0000    0.0000 C   0  0  0  0  0  0  0  0  0  0  0  0
    6.0010    1.5000    0.0000 C   0  0  0  0  0  0  0  0  0  0  0  0
    7.7494   -1.5346    0.0000 C   0  0  0  0  0  0  0  0  0  0  0  0
    3.4030   -1.0000    0.0000 C   0  0  0  0  0  0  0  0  0  0  0  0
    4.7690   -1.3661    0.0000 C   0  0  0  0  0  0  0  0  0  0  0  0
    5.6025   -0.9750    0.0000 H   0  0  0  0  0  0  0  0  0  0  0  0
    6.3996   -0.9750    0.0000 H   0  0  0  0  0  0  0  0  0  0  0  0
    8.2949   -0.8499    0.0000 H   0  0  0  0  0  0  0  0  0  0  0  0
    4.3989    0.4250    0.0000 H   0  0  0  0  0  0  0  0  0  0  0  0
    8.8761   -0.6045    0.0000 H   0  0  0  0  0  0  0  0  0  0  0  0
    9.2779    0.0852    0.0000 H   0  0  0  0  0  0  0  0  0  0  0  0
    4.9230    1.5826    0.0000 H   0  0  0  0  0  0  0  0  0  0  0  0
    4.5244    0.8923    0.0000 H   0  0  0  0  0  0  0  0  0  0  0  0
    8.1546    2.0136    0.0000 H   0  0  0  0  0  0  0  0  0  0  0  0
    7.3564    2.0044    0.0000 H   0  0  0  0  0  0  0  0  0  0  0  0
    9.2779    0.9147    0.0000 H   0  0  0  0  0  0  0  0  0  0  0  0
    8.8761    1.6045    0.0000 H   0  0  0  0  0  0  0  0  0  0  0  0
    6.2471   -1.0000    0.0000 H   0  0  0  0  0  0  0  0  0  0  0  0
    6.8671   -1.6200    0.0000 H   0  0  0  0  0  0  0  0  0  0  0  0
    7.4871   -1.0000    0.0000 H   0  0  0  0  0  0  0  0  0  0  0  0
    6.0010    2.1200    0.0000 H   0  0  0  0  0  0  0  0  0  0  0  0
    7.1295   -1.5275    0.0000 H   0  0  0  0  0  0  0  0  0  0  0  0
    7.7423   -2.1546    0.0000 H   0  0  0  0  0  0  0  0  0  0  0  0
    8.3694   -1.5418    0.0000 H   0  0  0  0  0  0  0  0  0  0  0  0
    3.0044   -1.4750    0.0000 H   0  0  0  0  0  0  0  0  0  0  0  0
    3.8015   -1.4750    0.0000 H   0  0  0  0  0  0  0  0  0  0  0  0
    4.2320   -1.6761    0.0000 H   0  0  0  0  0  0  0  0  0  0  0  0
    5.0790   -1.9030    0.0000 H   0  0  0  0  0  0  0  0  0  0  0  0
    5.3059   -1.0561    0.0000 H   0  0  0  0  0  0  0  0  0  0  0  0
    3.1490    0.3660    0.0000 H   0  0  0  0  0  0  0  0  0  0  0  0
    2.0000   -0.8100    0.0000 H   0  0  0  0  0  0  0  0  0  0  0  0
 11  1  1  6  0  0  0
  1 42  1  0  0  0  0
  2 16  1  0  0  0  0
  2 43  1  0  0  0  0
  3  4  1  0  0  0  0
  3  5  1  0  0  0  0
  3  7  1  0  0  0  0
  3 13  1  6  0  0  0
  4  6  1  0  0  0  0
  4 18  1  0  0  0  0
  4 19  1  0  0  0  0
  5  8  1  0  0  0  0
  5 15  1  1  0  0  0
  5 20  1  0  0  0  0
  6  9  1  0  0  0  0
  6 11  1  0  0  0  0
  6 21  1  1  0  0  0
  7 10  1  0  0  0  0
  7 14  2  0  0  0  0
  8 12  1  0  0  0  0
  8 22  1  0  0  0  0
  8 23  1  0  0  0  0
  9 14  1  0  0  0  0
  9 24  1  0  0  0  0
  9 25  1  0  0  0  0
 10 12  1  0  0  0  0
 10 26  1  0  0  0  0
 10 27  1  0  0  0  0
 11 16  1  0  0  0  0
 11 17  1  0  0  0  0
 12 28  1  0  0  0  0
 12 29  1  0  0  0  0
 13 30  1  0  0  0  0
 13 31  1  0  0  0  0
 13 32  1  0  0  0  0
 14 33  1  0  0  0  0
 15 34  1  0  0  0  0
 15 35  1  0  0  0  0
 15 36  1  0  0  0  0
 16 37  1  0  0  0  0
 16 38  1  0  0  0  0
 17 39  1  0  0  0  0
 17 40  1  0  0  0  0
 17 41  1  0  0  0  0
M  END
> <PUBCHEM_COMPOUND_CID>
442364

> <PUBCHEM_COMPOUND_CANONICALIZED>
1

> <PUBCHEM_CACTVS_COMPLEXITY>
323

> <PUBCHEM_CACTVS_HBOND_ACCEPTOR>
2

> <PUBCHEM_CACTVS_HBOND_DONOR>
2

> <PUBCHEM_CACTVS_ROTATABLE_BOND>
2

> <PUBCHEM_CACTVS_SUBSKEYS>
AAADceBwMAAAAAAAAAAAAAAAAAAAAAAAAAAwQAAAAAAAAACAAAAAGgAACAAAD0SggAICAAAAAgCAAiBCAAAAAAAgAAAACAAAAAgBEAIAAQAAQAAEgAAJAAOAwPAPgAAAAAAAAAAAAAAAACAAAAAAAAAAAA==

> <PUBCHEM_IUPAC_OPENEYE_NAME>
(2S)-2-[(2R,8R,8aR)-8,8a-dimethyl-2,3,5,6,7,8-hexahydro-1H-naphthalen-2-yl]propane-1,2-diol

> <PUBCHEM_IUPAC_CAS_NAME>
(2S)-2-[(2R,8R,8aR)-8,8a-dimethyl-2,3,5,6,7,8-hexahydro-1H-naphthalen-2-yl]propane-1,2-diol

> <PUBCHEM_IUPAC_NAME>
(2S)-2-[(2R,8R,8aR)-8,8a-dimethyl-2,3,5,6,7,8-hexahydro-1H-naphthalen-2-yl]propane-1,2-diol

> <PUBCHEM_IUPAC_SYSTEMATIC_NAME>
(2S)-2-[(2R,8R,8aR)-8,8a-dimethyl-2,3,5,6,7,8-hexahydro-1H-naphthalen-2-yl]propane-1,2-diol

> <PUBCHEM_IUPAC_TRADITIONAL_NAME>
(2S)-2-[(2R,8R,8aR)-8,8a-dimethyl-2,3,5,6,7,8-hexahydro-1H-naphthalen-2-yl]propane-1,2-diol

> <PUBCHEM_IUPAC_INCHI>
InChI=1S/C15H26O2/c1-11-5-4-6-12-7-8-13(9-14(11,12)2)15(3,17)10-16/h7,11,13,16-17H,4-6,8-10H2,1-3H3/t11-,13-,14-,15-/m1/s1

> <PUBCHEM_IUPAC_INCHIKEY>
XJXXJYGANFEEDD-NMFUWQPSSA-N

> <PUBCHEM_XLOGP3_AA>
2.7

> <PUBCHEM_EXACT_MASS>
238.19328

> <PUBCHEM_MOLECULAR_FORMULA>
C15H26O2

> <PUBCHEM_MOLECULAR_WEIGHT>
238.36574

> <PUBCHEM_OPENEYE_CAN_SMILES>
CC1CCCC2=CCC(CC12C)C(C)(CO)O

> <PUBCHEM_OPENEYE_ISO_SMILES>
C[C@@H]1CCCC2=CC[C@H](C[C@]12C)[C@@](C)(CO)O

> <PUBCHEM_CACTVS_TPSA>
40.5

> <PUBCHEM_MONOISOTOPIC_WEIGHT>
238.19328

> <PUBCHEM_TOTAL_CHARGE>
0

> <PUBCHEM_HEAVY_ATOM_COUNT>
17

> <PUBCHEM_ATOM_DEF_STEREO_COUNT>
4

> <PUBCHEM_ATOM_UDEF_STEREO_COUNT>
0

> <PUBCHEM_BOND_DEF_STEREO_COUNT>
0

> <PUBCHEM_BOND_UDEF_STEREO_COUNT>
0

> <PUBCHEM_ISOTOPIC_ATOM_COUNT>
0

> <PUBCHEM_COMPONENT_COUNT>
1

> <PUBCHEM_CACTVS_TAUTO_COUNT>
1

> <PUBCHEM_COORDINATE_TYPE>
1
5
255

> <PUBCHEM_BONDANNOTATIONS>
11  1  6
3  13  6
5  15  5
6  21  5

$$$$

