22083
  -OEChem-07051213132D

 37 36  0     1  0  0  0  0  0999 V2000
    5.4641   -0.3660    0.0000 S   0  0  0  0  0  0  0  0  0  0  0  0
    7.1962   -0.3660    0.0000 S   0  0  3  0  0  0  0  0  0  0  0  0
    5.0981   -1.7320    0.0000 S   0  0  0  0  0  0  0  0  0  0  0  0
    4.5981   -0.8660    0.0000 P   0  0  0  0  0  0  0  0  0  0  0  0
    3.7320   -1.3660    0.0000 O   0  0  0  0  0  0  0  0  0  0  0  0
    4.0981    0.0000    0.0000 O   0  0  0  0  0  0  0  0  0  0  0  0
    7.1962    0.6340    0.0000 O   0  0  0  0  0  0  0  0  0  0  0  0
    2.8660   -0.8660    0.0000 C   0  0  0  0  0  0  0  0  0  0  0  0
    4.5981    0.8660    0.0000 C   0  0  0  0  0  0  0  0  0  0  0  0
    6.3301   -0.8660    0.0000 C   0  0  0  0  0  0  0  0  0  0  0  0
    2.0000   -1.3660    0.0000 C   0  0  0  0  0  0  0  0  0  0  0  0
    2.8660    0.1340    0.0000 C   0  0  0  0  0  0  0  0  0  0  0  0
    4.0981    1.7320    0.0000 C   0  0  0  0  0  0  0  0  0  0  0  0
    5.5981    0.8660    0.0000 C   0  0  0  0  0  0  0  0  0  0  0  0
    8.0622   -0.8660    0.0000 C   0  0  0  0  0  0  0  0  0  0  0  0
    8.9282   -0.3660    0.0000 C   0  0  0  0  0  0  0  0  0  0  0  0
    3.4030   -0.5560    0.0000 H   0  0  0  0  0  0  0  0  0  0  0  0
    4.9081    0.3291    0.0000 H   0  0  0  0  0  0  0  0  0  0  0  0
    5.9316   -1.3410    0.0000 H   0  0  0  0  0  0  0  0  0  0  0  0
    6.7287   -1.3410    0.0000 H   0  0  0  0  0  0  0  0  0  0  0  0
    1.6900   -0.8291    0.0000 H   0  0  0  0  0  0  0  0  0  0  0  0
    1.4631   -1.6760    0.0000 H   0  0  0  0  0  0  0  0  0  0  0  0
    2.3100   -1.9030    0.0000 H   0  0  0  0  0  0  0  0  0  0  0  0
    3.4860    0.1340    0.0000 H   0  0  0  0  0  0  0  0  0  0  0  0
    2.8660    0.7540    0.0000 H   0  0  0  0  0  0  0  0  0  0  0  0
    2.2460    0.1340    0.0000 H   0  0  0  0  0  0  0  0  0  0  0  0
    4.6350    2.0420    0.0000 H   0  0  0  0  0  0  0  0  0  0  0  0
    3.7881    2.2690    0.0000 H   0  0  0  0  0  0  0  0  0  0  0  0
    3.5611    1.4220    0.0000 H   0  0  0  0  0  0  0  0  0  0  0  0
    5.5981    0.2460    0.0000 H   0  0  0  0  0  0  0  0  0  0  0  0
    6.2181    0.8660    0.0000 H   0  0  0  0  0  0  0  0  0  0  0  0
    5.5981    1.4860    0.0000 H   0  0  0  0  0  0  0  0  0  0  0  0
    7.6636   -1.3410    0.0000 H   0  0  0  0  0  0  0  0  0  0  0  0
    8.4607   -1.3410    0.0000 H   0  0  0  0  0  0  0  0  0  0  0  0
    9.2382   -0.9030    0.0000 H   0  0  0  0  0  0  0  0  0  0  0  0
    9.4651   -0.0560    0.0000 H   0  0  0  0  0  0  0  0  0  0  0  0
    8.6182    0.1709    0.0000 H   0  0  0  0  0  0  0  0  0  0  0  0
  1  4  1  0  0  0  0
  1 10  1  0  0  0  0
  2  7  2  0  0  0  0
  2 10  1  0  0  0  0
  2 15  1  0  0  0  0
  3  4  2  0  0  0  0
  4  5  1  0  0  0  0
  4  6  1  0  0  0  0
  5  8  1  0  0  0  0
  6  9  1  0  0  0  0
  8 11  1  0  0  0  0
  8 12  1  0  0  0  0
  8 17  1  0  0  0  0
  9 13  1  0  0  0  0
  9 14  1  0  0  0  0
  9 18  1  0  0  0  0
 10 19  1  0  0  0  0
 10 20  1  0  0  0  0
 11 21  1  0  0  0  0
 11 22  1  0  0  0  0
 11 23  1  0  0  0  0
 12 24  1  0  0  0  0
 12 25  1  0  0  0  0
 12 26  1  0  0  0  0
 13 27  1  0  0  0  0
 13 28  1  0  0  0  0
 13 29  1  0  0  0  0
 14 30  1  0  0  0  0
 14 31  1  0  0  0  0
 14 32  1  0  0  0  0
 15 16  1  0  0  0  0
 15 33  1  0  0  0  0
 15 34  1  0  0  0  0
 16 35  1  0  0  0  0
 16 36  1  0  0  0  0
 16 37  1  0  0  0  0
M  END
> <PUBCHEM_COMPOUND_CID>
22083

> <PUBCHEM_COMPOUND_CANONICALIZED>
1

> <PUBCHEM_CACTVS_COMPLEXITY>
255

> <PUBCHEM_CACTVS_HBOND_ACCEPTOR>
6

> <PUBCHEM_CACTVS_HBOND_DONOR>
0

> <PUBCHEM_CACTVS_ROTATABLE_BOND>
8

> <PUBCHEM_CACTVS_SUBSKEYS>
AAADceBwMAJgAAAAAAAAAAAAAAAAAAAAAAAAAAAAAAAAAAAAAAAAGgQAACAACBSkwAKCAAAAARoAAAAAAEBAAQAAABAAAAAAAAAAAAAAAAAAAAAAAAAAAAAAAAAAAAAAAAAAAAAAAAAAAAAAAAAAAAAAAA==

> <PUBCHEM_IUPAC_OPENEYE_NAME>
ethylsulfinylmethylsulfanyl-diisopropoxy-thioxo-$l^{5}-phosphane

> <PUBCHEM_IUPAC_CAS_NAME>
(ethylsulfinylmethylthio)-di(propan-2-yloxy)-sulfanylidenephosphorane

> <PUBCHEM_IUPAC_NAME>
ethylsulfinylmethylsulfanyl-di(propan-2-yloxy)-sulfanylidene-$l^{5}-phosphane

> <PUBCHEM_IUPAC_SYSTEMATIC_NAME>
ethylsulfinylmethylsulfanyl-di(propan-2-yloxy)-sulfanylidene-$l^{5}-phosphane

> <PUBCHEM_IUPAC_TRADITIONAL_NAME>
(ethylsulfinylmethylthio)-diisopropoxy-thioxo-phosphorane

> <PUBCHEM_IUPAC_INCHI>
InChI=1S/C9H21O3PS3/c1-6-16(10)7-15-13(14,11-8(2)3)12-9(4)5/h8-9H,6-7H2,1-5H3

> <PUBCHEM_IUPAC_INCHIKEY>
KOTOUBGHZHWCCJ-UHFFFAOYSA-N

> <PUBCHEM_XLOGP3_AA>
2.7

> <PUBCHEM_EXACT_MASS>
304.039044

> <PUBCHEM_MOLECULAR_FORMULA>
C9H21O3PS3

> <PUBCHEM_MOLECULAR_WEIGHT>
304.430002

> <PUBCHEM_OPENEYE_CAN_SMILES>
CCS(=O)CSP(=S)(OC(C)C)OC(C)C

> <PUBCHEM_OPENEYE_ISO_SMILES>
CCS(=O)CSP(=S)(OC(C)C)OC(C)C

> <PUBCHEM_CACTVS_TPSA>
112

> <PUBCHEM_MONOISOTOPIC_WEIGHT>
304.039044

> <PUBCHEM_TOTAL_CHARGE>
0

> <PUBCHEM_HEAVY_ATOM_COUNT>
16

> <PUBCHEM_ATOM_DEF_STEREO_COUNT>
0

> <PUBCHEM_ATOM_UDEF_STEREO_COUNT>
1

> <PUBCHEM_BOND_DEF_STEREO_COUNT>
0

> <PUBCHEM_BOND_UDEF_STEREO_COUNT>
0

> <PUBCHEM_ISOTOPIC_ATOM_COUNT>
0

> <PUBCHEM_COMPONENT_COUNT>
1

> <PUBCHEM_CACTVS_TAUTO_COUNT>
1

> <PUBCHEM_COORDINATE_TYPE>
1
5
255

> <PUBCHEM_BONDANNOTATIONS>
2  15  3

$$$$

