440732
  -OEChem-07051212502D

 26 26  0     0  0  0  0  0  0999 V2000
    4.5981    0.0950    0.0000 O   0  0  0  0  0  0  0  0  0  0  0  0
    2.8660   -3.9050    0.0000 O   0  0  0  0  0  0  0  0  0  0  0  0
    5.4641    3.5950    0.0000 O   0  0  0  0  0  0  0  0  0  0  0  0
    3.7320    3.5950    0.0000 O   0  0  0  0  0  0  0  0  0  0  0  0
    3.7320    1.5950    0.0000 N   0  0  0  0  0  0  0  0  0  0  0  0
    2.8660    0.0950    0.0000 C   0  0  0  0  0  0  0  0  0  0  0  0
    2.8660   -0.9050    0.0000 C   0  0  0  0  0  0  0  0  0  0  0  0
    3.7320    0.5950    0.0000 C   0  0  0  0  0  0  0  0  0  0  0  0
    2.0000   -1.4050    0.0000 C   0  0  0  0  0  0  0  0  0  0  0  0
    3.7320   -1.4050    0.0000 C   0  0  0  0  0  0  0  0  0  0  0  0
    2.0000   -2.4050    0.0000 C   0  0  0  0  0  0  0  0  0  0  0  0
    3.7320   -2.4050    0.0000 C   0  0  0  0  0  0  0  0  0  0  0  0
    4.5981    2.0950    0.0000 C   0  0  0  0  0  0  0  0  0  0  0  0
    2.8660   -2.9050    0.0000 C   0  0  0  0  0  0  0  0  0  0  0  0
    4.5981    3.0950    0.0000 C   0  0  0  0  0  0  0  0  0  0  0  0
    2.6540    0.6776    0.0000 H   0  0  0  0  0  0  0  0  0  0  0  0
    2.2554   -0.0127    0.0000 H   0  0  0  0  0  0  0  0  0  0  0  0
    1.4631   -1.0950    0.0000 H   0  0  0  0  0  0  0  0  0  0  0  0
    4.2690   -1.0950    0.0000 H   0  0  0  0  0  0  0  0  0  0  0  0
    3.1951    1.9050    0.0000 H   0  0  0  0  0  0  0  0  0  0  0  0
    4.8101    1.5124    0.0000 H   0  0  0  0  0  0  0  0  0  0  0  0
    5.2087    2.2027    0.0000 H   0  0  0  0  0  0  0  0  0  0  0  0
    1.4631   -2.7150    0.0000 H   0  0  0  0  0  0  0  0  0  0  0  0
    4.2690   -2.7150    0.0000 H   0  0  0  0  0  0  0  0  0  0  0  0
    2.3291   -4.2150    0.0000 H   0  0  0  0  0  0  0  0  0  0  0  0
    5.4641    4.2150    0.0000 H   0  0  0  0  0  0  0  0  0  0  0  0
  1  8  2  0  0  0  0
  2 14  1  0  0  0  0
  2 25  1  0  0  0  0
  3 15  1  0  0  0  0
  3 26  1  0  0  0  0
  4 15  2  0  0  0  0
  5  8  1  0  0  0  0
  5 13  1  0  0  0  0
  5 20  1  0  0  0  0
  6  7  1  0  0  0  0
  6  8  1  0  0  0  0
  6 16  1  0  0  0  0
  6 17  1  0  0  0  0
  7  9  2  0  0  0  0
  7 10  1  0  0  0  0
  9 11  1  0  0  0  0
  9 18  1  0  0  0  0
 10 12  2  0  0  0  0
 10 19  1  0  0  0  0
 11 14  2  0  0  0  0
 11 23  1  0  0  0  0
 12 14  1  0  0  0  0
 12 24  1  0  0  0  0
 13 15  1  0  0  0  0
 13 21  1  0  0  0  0
 13 22  1  0  0  0  0
M  END
> <PUBCHEM_COMPOUND_CID>
440732

> <PUBCHEM_COMPOUND_CANONICALIZED>
1

> <PUBCHEM_CACTVS_COMPLEXITY>
234

> <PUBCHEM_CACTVS_HBOND_ACCEPTOR>
4

> <PUBCHEM_CACTVS_HBOND_DONOR>
3

> <PUBCHEM_CACTVS_ROTATABLE_BOND>
4

> <PUBCHEM_CACTVS_SUBSKEYS>
AAADccByOAAAAAAAAAAAAAAAAAAAAAAAAAAwAAAAAAAAAAABAAAAHgAQCAAADATBmAQwDoLAAgCIAiHSGAACAAAgIAAIiIGOCIgKJjKClTOEcAAk1hGYmAeYyICOIAAAAAAAAABAAAAAAAAAAAAAAAAAAA==

> <PUBCHEM_IUPAC_OPENEYE_NAME>
2-[[2-(4-hydroxyphenyl)acetyl]amino]acetic acid

> <PUBCHEM_IUPAC_CAS_NAME>
2-[[2-(4-hydroxyphenyl)-1-oxoethyl]amino]acetic acid

> <PUBCHEM_IUPAC_NAME>
2-[[2-(4-hydroxyphenyl)acetyl]amino]acetic acid

> <PUBCHEM_IUPAC_SYSTEMATIC_NAME>
2-[2-(4-hydroxyphenyl)ethanoylamino]ethanoic acid

> <PUBCHEM_IUPAC_TRADITIONAL_NAME>
2-[[2-(4-hydroxyphenyl)acetyl]amino]acetic acid

> <PUBCHEM_IUPAC_INCHI>
InChI=1S/C10H11NO4/c12-8-3-1-7(2-4-8)5-9(13)11-6-10(14)15/h1-4,12H,5-6H2,(H,11,13)(H,14,15)

> <PUBCHEM_IUPAC_INCHIKEY>
CPPDWYIPKSSNNM-UHFFFAOYSA-N

> <PUBCHEM_XLOGP3_AA>
0.4

> <PUBCHEM_EXACT_MASS>
209.068808

> <PUBCHEM_MOLECULAR_FORMULA>
C10H11NO4

> <PUBCHEM_MOLECULAR_WEIGHT>
209.19864

> <PUBCHEM_OPENEYE_CAN_SMILES>
C1=CC(=CC=C1CC(=O)NCC(=O)O)O

> <PUBCHEM_OPENEYE_ISO_SMILES>
C1=CC(=CC=C1CC(=O)NCC(=O)O)O

> <PUBCHEM_CACTVS_TPSA>
86.6

> <PUBCHEM_MONOISOTOPIC_WEIGHT>
209.068808

> <PUBCHEM_TOTAL_CHARGE>
0

> <PUBCHEM_HEAVY_ATOM_COUNT>
15

> <PUBCHEM_ATOM_DEF_STEREO_COUNT>
0

> <PUBCHEM_ATOM_UDEF_STEREO_COUNT>
0

> <PUBCHEM_BOND_DEF_STEREO_COUNT>
0

> <PUBCHEM_BOND_UDEF_STEREO_COUNT>
0

> <PUBCHEM_ISOTOPIC_ATOM_COUNT>
0

> <PUBCHEM_COMPONENT_COUNT>
1

> <PUBCHEM_CACTVS_TAUTO_COUNT>
4

> <PUBCHEM_COORDINATE_TYPE>
1
5
255

> <PUBCHEM_BONDANNOTATIONS>
10  12  8
11  14  8
12  14  8
7  10  8
7  9  8
9  11  8

$$$$

