47205608
  -OEChem-06241222593D

 30 31  0     0  0  0  0  0  0999 V2000
   -6.0143   -1.0776   -0.2864 Cl  0  0  0  0  0  0  0  0  0  0  0  0
    3.2631   -0.8954   -1.5449 O   0  0  0  0  0  0  0  0  0  0  0  0
    0.6707    0.8464    0.4057 O   0  0  0  0  0  0  0  0  0  0  0  0
    2.7028   -0.8886    0.7167 N   0  0  0  0  0  0  0  0  0  0  0  0
   -0.9343   -0.8722    0.3031 N   0  0  0  0  0  0  0  0  0  0  0  0
    4.8600   -0.0738   -0.0255 C   0  0  0  0  0  0  0  0  0  0  0  0
    5.2875    1.2033   -0.6873 C   0  0  0  0  0  0  0  0  0  0  0  0
    4.9122    1.2004    0.7656 C   0  0  0  0  0  0  0  0  0  0  0  0
    3.5322   -0.6608   -0.3727 C   0  0  0  0  0  0  0  0  0  0  0  0
    1.3857   -1.4438    0.6069 C   0  0  0  0  0  0  0  0  0  0  0  0
    0.3593   -0.3398    0.4285 C   0  0  0  0  0  0  0  0  0  0  0  0
   -2.1363   -0.1863    0.1256 C   0  0  0  0  0  0  0  0  0  0  0  0
   -3.3346   -0.8927    0.0208 C   0  0  0  0  0  0  0  0  0  0  0  0
   -2.1392    1.2067    0.0533 C   0  0  0  0  0  0  0  0  0  0  0  0
   -4.5358   -0.2061   -0.1563 C   0  0  0  0  0  0  0  0  0  0  0  0
   -3.3404    1.8933   -0.1242 C   0  0  0  0  0  0  0  0  0  0  0  0
   -4.5386    1.1870   -0.2289 C   0  0  0  0  0  0  0  0  0  0  0  0
    5.6408   -0.8050    0.1582 H   0  0  0  0  0  0  0  0  0  0  0  0
    4.6085    1.6860   -1.3796 H   0  0  0  0  0  0  0  0  0  0  0  0
    6.3354    1.3163   -0.9369 H   0  0  0  0  0  0  0  0  0  0  0  0
    5.7080    1.3095    1.4925 H   0  0  0  0  0  0  0  0  0  0  0  0
    3.9869    1.6914    1.0412 H   0  0  0  0  0  0  0  0  0  0  0  0
    3.0359   -0.6468    1.6455 H   0  0  0  0  0  0  0  0  0  0  0  0
    1.3394   -2.1254   -0.2486 H   0  0  0  0  0  0  0  0  0  0  0  0
    1.1713   -1.9947    1.5277 H   0  0  0  0  0  0  0  0  0  0  0  0
   -1.0162   -1.8859    0.3461 H   0  0  0  0  0  0  0  0  0  0  0  0
   -3.3320   -1.9792    0.0773 H   0  0  0  0  0  0  0  0  0  0  0  0
   -1.2544    1.8232    0.1256 H   0  0  0  0  0  0  0  0  0  0  0  0
   -3.3440    2.9780   -0.1810 H   0  0  0  0  0  0  0  0  0  0  0  0
   -5.4670    1.7354   -0.3670 H   0  0  0  0  0  0  0  0  0  0  0  0
  1 15  1  0  0  0  0
  2  9  2  0  0  0  0
  3 11  2  0  0  0  0
  4  9  1  0  0  0  0
  4 10  1  0  0  0  0
  4 23  1  0  0  0  0
  5 11  1  0  0  0  0
  5 12  1  0  0  0  0
  5 26  1  0  0  0  0
  6  7  1  0  0  0  0
  6  8  1  0  0  0  0
  6  9  1  0  0  0  0
  6 18  1  0  0  0  0
  7  8  1  0  0  0  0
  7 19  1  0  0  0  0
  7 20  1  0  0  0  0
  8 21  1  0  0  0  0
  8 22  1  0  0  0  0
 10 11  1  0  0  0  0
 10 24  1  0  0  0  0
 10 25  1  0  0  0  0
 12 13  2  0  0  0  0
 12 14  1  0  0  0  0
 13 15  1  0  0  0  0
 13 27  1  0  0  0  0
 14 16  2  0  0  0  0
 14 28  1  0  0  0  0
 15 17  2  0  0  0  0
 16 17  1  0  0  0  0
 16 29  1  0  0  0  0
 17 30  1  0  0  0  0
M  END
> <PUBCHEM_COMPOUND_CID>
47205608

> <PUBCHEM_CONFORMER_RMSD>
0.8

> <PUBCHEM_CONFORMER_DIVERSEORDER>
1
39
28
45
13
31
25
12
19
32
37
16
49
38
24
51
41
20
42
26
7
33
27
3
34
18
30
43
48
8
21
2
10
22
40
50
4
54
44
53
15
29
47
36
52
9
17
46
6
35
14
5
23
11

> <PUBCHEM_MMFF94_PARTIAL_CHARGES>
28
1 -0.18
10 0.36
11 0.57
12 0.12
13 -0.15
14 -0.15
15 0.18
16 -0.15
17 -0.15
18 0.1
19 0.1
2 -0.57
20 0.1
21 0.1
22 0.1
23 0.37
26 0.37
27 0.15
28 0.15
29 0.15
3 -0.57
30 0.15
4 -0.73
5 -0.55
6 -0.1
7 -0.2
8 -0.2
9 0.63

> <PUBCHEM_EFFECTIVE_ROTOR_COUNT>
6.6

> <PUBCHEM_PHARMACOPHORE_FEATURES>
5
1 2 acceptor
1 3 acceptor
1 4 donor
1 5 donor
6 12 13 14 15 16 17 rings

> <PUBCHEM_HEAVY_ATOM_COUNT>
17

> <PUBCHEM_ATOM_DEF_STEREO_COUNT>
0

> <PUBCHEM_ATOM_UDEF_STEREO_COUNT>
0

> <PUBCHEM_BOND_DEF_STEREO_COUNT>
0

> <PUBCHEM_BOND_UDEF_STEREO_COUNT>
0

> <PUBCHEM_ISOTOPIC_ATOM_COUNT>
0

> <PUBCHEM_COMPONENT_COUNT>
1

> <PUBCHEM_CACTVS_TAUTO_COUNT>
4

> <PUBCHEM_CONFORMER_ID>
02D04CE800000001

> <PUBCHEM_MMFF94_ENERGY>
40.5932

> <PUBCHEM_FEATURE_SELFOVERLAP>
25.371

> <PUBCHEM_SHAPE_FINGERPRINT>
10014705 185 18201722903060919621
10498660 4 18339927124762170488
10912923 1 18271812366710248995
10968037 39 18413109438360827671
11128504 68 15140963933357865592
11287383 113 18260547818438606730
114248 4 18261111872119469363
12236239 1 17917434241397267427
12596602 18 16056594314473203568
12616999 72 17167860894234157686
12916748 109 18342452651510341515
13533116 47 16128389206846677520
13675066 3 10663811966913040754
14123238 8 18333731312240855045
14251718 22 18408323272286329671
14251758 9 9295293854386974451
14251764 18 17846502548247266762
14528608 73 18412825781065866548
15196674 1 18340207487294508521
15239154 128 18272650198728671436
15537594 2 4895556264086966037
15788980 27 12751518474640414417
15885798 251 8070029960919741282
17834072 33 18186805759543742612
17844677 252 18261385693432914040
1813 80 13767924615890805392
20300324 65 18410293627467637217
20645477 70 17458898344946509822
20871999 31 17894921680472974631
21315763 129 18410859871534880664
2215653 11 10303821972753551240
2297311 6 18040148518371012169
23016692 55 8862667945307845240
23272321 79 18343300349142333833
23402539 116 18343025480083846007
23557571 272 18334008397782302620
23559900 14 17972886040244175462
23590187 198 8142084264880500701
245318 6 16842737337415577884
26918003 58 11455892459650061854
2916195 48 18411143511021946032
300161 21 17917436462285450655
34797466 226 17676480602008618556
351380 3 5112289805678515407
42 15 9799690402766366810
4325135 7 18409730634158361340
441001 317 18413388747993519713
4463277 17 18408885144714675705
465052 167 6411297953217865588
474 4 17489581243279190500
4990 188 18187080693612399982
5104073 3 18200593725845682401
5281201 14 17968650627280641524
5312625 73 18260552177682842769
542803 24 17530682130296931569
9971528 1 17346313839077603662

> <PUBCHEM_SHAPE_MULTIPOLES>
330.02
14.08
1.62
0.86
1.99
0.41
-0.14
1.72
-1.97
-0.54
0.02
0.77
-0.08
0.09

> <PUBCHEM_SHAPE_SELFOVERLAP>
675.425

> <PUBCHEM_SHAPE_VOLUME>
190.9

> <PUBCHEM_COORDINATE_TYPE>
2
5
10

$$$$

