11953941
  -OEChem-07051212582D

 90 93  0     1  0  0  0  0  0999 V2000
    3.1226    0.8951    0.0000 O   0  0  0  0  0  0  0  0  0  0  0  0
    3.9316    0.3074    0.0000 O   0  0  0  0  0  0  0  0  0  0  0  0
    6.8132    0.0147    0.0000 O   0  0  0  0  0  0  0  0  0  0  0  0
    4.6361   -1.2750    0.0000 O   0  0  0  0  0  0  0  0  0  0  0  0
    8.8347    3.0002    0.0000 O   0  0  0  0  0  0  0  0  0  0  0  0
    3.9700   -2.6573    0.0000 O   0  0  0  0  0  0  0  0  0  0  0  0
    5.6542    1.3018    0.0000 N   0  0  0  0  0  0  0  0  0  0  0  0
    5.5496   -0.8683    0.0000 N   0  0  0  0  0  0  0  0  0  0  0  0
    8.2994    1.3529    0.0000 N   0  0  0  0  0  0  0  0  0  0  0  0
    4.4271   -3.2640    0.0000 N   0  0  0  0  0  0  0  0  0  0  0  0
   10.2016    0.7349    0.0000 N   0  0  0  0  0  0  0  0  0  0  0  0
    4.8452    0.7141    0.0000 C   0  0  1  0  0  0  0  0  0  0  0  0
    4.0362    1.3018    0.0000 C   0  0  2  0  0  0  0  0  0  0  0  0
    4.3452    2.2529    0.0000 C   0  0  0  0  0  0  0  0  0  0  0  0
    5.3452    2.2529    0.0000 C   0  0  0  0  0  0  0  0  0  0  0  0
    4.7406   -0.2805    0.0000 C   0  0  0  0  0  0  0  0  0  0  0  0
    5.4451   -1.8628    0.0000 C   0  0  1  0  0  0  0  0  0  0  0  0
    6.5225   -0.6641    0.0000 C   0  0  0  0  0  0  0  0  0  0  0  0
    6.3543   -2.2648    0.0000 C   0  0  0  0  0  0  0  0  0  0  0  0
    7.0188   -1.5254    0.0000 C   0  0  0  0  0  0  0  0  0  0  0  0
    6.6052    0.9928    0.0000 C   0  0  0  0  0  0  0  0  0  0  0  0
    7.3484    1.6620    0.0000 C   0  0  2  0  0  0  0  0  0  0  0  0
    7.1405    2.6401    0.0000 C   0  0  2  0  0  0  0  0  0  0  0  0
    4.5316   -2.2695    0.0000 C   0  0  0  0  0  0  0  0  0  0  0  0
    7.8836    3.3092    0.0000 C   0  0  0  0  0  0  0  0  0  0  0  0
    6.1894    2.9491    0.0000 C   0  0  0  0  0  0  0  0  0  0  0  0
    9.9936    1.7130    0.0000 C   0  0  2  0  0  0  0  0  0  0  0  0
    3.0181   -0.0994    0.0000 C   0  0  0  0  0  0  0  0  0  0  0  0
    9.0426    2.0221    0.0000 C   0  0  0  0  0  0  0  0  0  0  0  0
   10.7368    2.3822    0.0000 C   0  0  2  0  0  0  0  0  0  0  0  0
    7.6757    4.2874    0.0000 C   0  0  0  0  0  0  0  0  0  0  0  0
   11.6878    2.0732    0.0000 C   0  0  0  0  0  0  0  0  0  0  0  0
    3.8371   -0.6849    0.0000 C   0  0  0  0  0  0  0  0  0  0  0  0
    2.1045   -0.5062    0.0000 C   0  0  0  0  0  0  0  0  0  0  0  0
   10.5289    3.3603    0.0000 C   0  0  0  0  0  0  0  0  0  0  0  0
    3.5135   -3.6708    0.0000 C   0  0  0  0  0  0  0  0  0  0  0  0
    2.8090   -2.0885    0.0000 C   0  0  0  0  0  0  0  0  0  0  0  0
    3.7318   -1.6861    0.0000 C   0  0  0  0  0  0  0  0  0  0  0  0
    2.0000   -1.5007    0.0000 C   0  0  0  0  0  0  0  0  0  0  0  0
   11.1526    0.4259    0.0000 C   0  0  0  0  0  0  0  0  0  0  0  0
    9.4584    0.0658    0.0000 C   0  0  0  0  0  0  0  0  0  0  0  0
   12.4310    2.7423    0.0000 C   0  0  0  0  0  0  0  0  0  0  0  0
    2.7045   -3.0830    0.0000 C   0  0  0  0  0  0  0  0  0  0  0  0
    5.5813    0.2891    0.0000 H   0  0  0  0  0  0  0  0  0  0  0  0
    3.4045    1.8706    0.0000 H   0  0  0  0  0  0  0  0  0  0  0  0
    4.4100    2.8695    0.0000 H   0  0  0  0  0  0  0  0  0  0  0  0
    3.7387    2.3818    0.0000 H   0  0  0  0  0  0  0  0  0  0  0  0
    5.9516    2.3818    0.0000 H   0  0  0  0  0  0  0  0  0  0  0  0
    5.2804    2.8695    0.0000 H   0  0  0  0  0  0  0  0  0  0  0  0
    5.3563   -2.7081    0.0000 H   0  0  0  0  0  0  0  0  0  0  0  0
    7.0893   -0.4127    0.0000 H   0  0  0  0  0  0  0  0  0  0  0  0
    6.3321   -0.0741    0.0000 H   0  0  0  0  0  0  0  0  0  0  0  0
    6.0454   -2.8023    0.0000 H   0  0  0  0  0  0  0  0  0  0  0  0
    6.8564   -2.6284    0.0000 H   0  0  0  0  0  0  0  0  0  0  0  0
    7.4338   -1.9861    0.0000 H   0  0  0  0  0  0  0  0  0  0  0  0
    7.5205   -1.1611    0.0000 H   0  0  0  0  0  0  0  0  0  0  0  0
    7.8091    2.0768    0.0000 H   0  0  0  0  0  0  0  0  0  0  0  0
    7.0116    3.2466    0.0000 H   0  0  0  0  0  0  0  0  0  0  0  0
    8.4283    0.7465    0.0000 H   0  0  0  0  0  0  0  0  0  0  0  0
    8.2122    2.7834    0.0000 H   0  0  0  0  0  0  0  0  0  0  0  0
    8.4585    3.5415    0.0000 H   0  0  0  0  0  0  0  0  0  0  0  0
    6.3810    3.5388    0.0000 H   0  0  0  0  0  0  0  0  0  0  0  0
    5.5998    3.1407    0.0000 H   0  0  0  0  0  0  0  0  0  0  0  0
    5.9978    2.3595    0.0000 H   0  0  0  0  0  0  0  0  0  0  0  0
   10.5833    1.5215    0.0000 H   0  0  0  0  0  0  0  0  0  0  0  0
   10.1471    2.5738    0.0000 H   0  0  0  0  0  0  0  0  0  0  0  0
    4.9286   -3.6285    0.0000 H   0  0  0  0  0  0  0  0  0  0  0  0
    8.2822    4.4163    0.0000 H   0  0  0  0  0  0  0  0  0  0  0  0
    7.5468    4.8938    0.0000 H   0  0  0  0  0  0  0  0  0  0  0  0
    7.0692    4.1585    0.0000 H   0  0  0  0  0  0  0  0  0  0  0  0
   11.3968    1.5257    0.0000 H   0  0  0  0  0  0  0  0  0  0  0  0
   12.1764    1.6914    0.0000 H   0  0  0  0  0  0  0  0  0  0  0  0
    4.4025   -0.4305    0.0000 H   0  0  0  0  0  0  0  0  0  0  0  0
    1.6029   -0.1417    0.0000 H   0  0  0  0  0  0  0  0  0  0  0  0
   11.1353    3.4892    0.0000 H   0  0  0  0  0  0  0  0  0  0  0  0
   10.4000    3.9668    0.0000 H   0  0  0  0  0  0  0  0  0  0  0  0
    9.9224    3.2314    0.0000 H   0  0  0  0  0  0  0  0  0  0  0  0
    3.4487   -4.2874    0.0000 H   0  0  0  0  0  0  0  0  0  0  0  0
    1.4336   -1.7529    0.0000 H   0  0  0  0  0  0  0  0  0  0  0  0
   10.9610   -0.1638    0.0000 H   0  0  0  0  0  0  0  0  0  0  0  0
   11.7423    0.2343    0.0000 H   0  0  0  0  0  0  0  0  0  0  0  0
   11.3442    1.0155    0.0000 H   0  0  0  0  0  0  0  0  0  0  0  0
    9.0436    0.5265    0.0000 H   0  0  0  0  0  0  0  0  0  0  0  0
    8.9977   -0.3491    0.0000 H   0  0  0  0  0  0  0  0  0  0  0  0
    9.8733   -0.3950    0.0000 H   0  0  0  0  0  0  0  0  0  0  0  0
   12.8458    2.2815    0.0000 H   0  0  0  0  0  0  0  0  0  0  0  0
   12.8917    3.1572    0.0000 H   0  0  0  0  0  0  0  0  0  0  0  0
   12.0161    3.2030    0.0000 H   0  0  0  0  0  0  0  0  0  0  0  0
    2.1381   -3.3352    0.0000 H   0  0  0  0  0  0  0  0  0  0  0  0
    3.3679   -2.8050    0.0000 H   0  0  0  0  0  0  0  0  0  0  0  0
  1 13  1  0  0  0  0
  1 28  1  0  0  0  0
  2 16  2  0  0  0  0
  3 21  2  0  0  0  0
  4 24  2  0  0  0  0
  5 29  2  0  0  0  0
  6 38  1  0  0  0  0
  6 90  1  0  0  0  0
  7 12  1  0  0  0  0
  7 15  1  0  0  0  0
  7 21  1  0  0  0  0
  8 16  1  0  0  0  0
  8 17  1  0  0  0  0
  8 18  1  0  0  0  0
 22  9  1  6  0  0  0
  9 29  1  0  0  0  0
  9 59  1  0  0  0  0
 10 24  1  0  0  0  0
 10 36  1  0  0  0  0
 10 67  1  0  0  0  0
 27 11  1  6  0  0  0
 11 40  1  0  0  0  0
 11 41  1  0  0  0  0
 12 13  1  0  0  0  0
 12 16  1  0  0  0  0
 12 44  1  1  0  0  0
 13 14  1  0  0  0  0
 13 45  1  6  0  0  0
 14 15  1  0  0  0  0
 14 46  1  0  0  0  0
 14 47  1  0  0  0  0
 15 48  1  0  0  0  0
 15 49  1  0  0  0  0
 17 19  1  0  0  0  0
 17 24  1  0  0  0  0
 17 50  1  6  0  0  0
 18 20  1  0  0  0  0
 18 51  1  0  0  0  0
 18 52  1  0  0  0  0
 19 20  1  0  0  0  0
 19 53  1  0  0  0  0
 19 54  1  0  0  0  0
 20 55  1  0  0  0  0
 20 56  1  0  0  0  0
 21 22  1  0  0  0  0
 22 23  1  0  0  0  0
 22 57  1  0  0  0  0
 23 25  1  0  0  0  0
 23 26  1  1  0  0  0
 23 58  1  0  0  0  0
 25 31  1  0  0  0  0
 25 60  1  0  0  0  0
 25 61  1  0  0  0  0
 26 62  1  0  0  0  0
 26 63  1  0  0  0  0
 26 64  1  0  0  0  0
 27 29  1  0  0  0  0
 27 30  1  0  0  0  0
 27 65  1  0  0  0  0
 28 33  2  0  0  0  0
 28 34  1  0  0  0  0
 30 32  1  0  0  0  0
 30 35  1  1  0  0  0
 30 66  1  0  0  0  0
 31 68  1  0  0  0  0
 31 69  1  0  0  0  0
 31 70  1  0  0  0  0
 32 42  1  0  0  0  0
 32 71  1  0  0  0  0
 32 72  1  0  0  0  0
 33 38  1  0  0  0  0
 33 73  1  0  0  0  0
 34 39  2  0  0  0  0
 34 74  1  0  0  0  0
 35 75  1  0  0  0  0
 35 76  1  0  0  0  0
 35 77  1  0  0  0  0
 36 43  2  0  0  0  0
 36 78  1  0  0  0  0
 37 38  2  0  0  0  0
 37 39  1  0  0  0  0
 37 43  1  0  0  0  0
 39 79  1  0  0  0  0
 40 80  1  0  0  0  0
 40 81  1  0  0  0  0
 40 82  1  0  0  0  0
 41 83  1  0  0  0  0
 41 84  1  0  0  0  0
 41 85  1  0  0  0  0
 42 86  1  0  0  0  0
 42 87  1  0  0  0  0
 42 88  1  0  0  0  0
 43 89  1  0  0  0  0
M  END
> <PUBCHEM_COMPOUND_CID>
11953941

> <PUBCHEM_COMPOUND_CANONICALIZED>
1

> <PUBCHEM_CACTVS_COMPLEXITY>
1050

> <PUBCHEM_CACTVS_HBOND_ACCEPTOR>
7

> <PUBCHEM_CACTVS_HBOND_DONOR>
3

> <PUBCHEM_CACTVS_ROTATABLE_BOND>
8

> <PUBCHEM_CACTVS_SUBSKEYS>
AAADcfB/uAAAAAAAAAAAAAAAAAAAAWLAAAAwAAAAAAAAAAABAAAAHgAQCAAADTzhmAYyBoPABgCIAiFWUAACCAAgIgAIiIGOCIgOZzaGsTqXeCCn9hWYuAeY4SwOIAAACAAIAABAAAAQABAAAAAAAAAAAA==

> <PUBCHEM_IUPAC_INCHI>
InChI=1S/C32H47N5O6/c1-7-19(3)26(34-30(40)27(35(5)6)20(4)8-2)31(41)37-17-14-25-28(37)32(42)36-16-9-10-23(36)29(39)33-15-13-21-11-12-22(43-25)18-24(21)38/h11-13,15,18-20,23,25-28,38H,7-10,14,16-17H2,1-6H3,(H,33,39)(H,34,40)/b15-13-/t19-,20-,23-,25-,26-,27-,28-/m0/s1

> <PUBCHEM_IUPAC_INCHIKEY>
BRUITOXHBSVJME-IIMYRAIISA-N

> <PUBCHEM_XLOGP3_AA>
3.7

> <PUBCHEM_EXACT_MASS>
597.352634

> <PUBCHEM_MOLECULAR_FORMULA>
C32H47N5O6

> <PUBCHEM_MOLECULAR_WEIGHT>
597.74548

> <PUBCHEM_OPENEYE_CAN_SMILES>
CCC(C)C(C(=O)N1CCC2C1C(=O)N3CCCC3C(=O)NC=CC4=C(C=C(O2)C=C4)O)NC(=O)C(C(C)CC)N(C)C

> <PUBCHEM_OPENEYE_ISO_SMILES>
CC[C@H](C)[C@@H](C(=O)N1CC[C@H]2[C@H]1C(=O)N3CCC[C@H]3C(=O)N/C=C\C4=C(C=C(O2)C=C4)O)NC(=O)[C@H]([C@@H](C)CC)N(C)C

> <PUBCHEM_CACTVS_TPSA>
132

> <PUBCHEM_MONOISOTOPIC_WEIGHT>
597.352634

> <PUBCHEM_TOTAL_CHARGE>
0

> <PUBCHEM_HEAVY_ATOM_COUNT>
43

> <PUBCHEM_ATOM_DEF_STEREO_COUNT>
7

> <PUBCHEM_ATOM_UDEF_STEREO_COUNT>
0

> <PUBCHEM_BOND_DEF_STEREO_COUNT>
1

> <PUBCHEM_BOND_UDEF_STEREO_COUNT>
0

> <PUBCHEM_ISOTOPIC_ATOM_COUNT>
0

> <PUBCHEM_COMPONENT_COUNT>
1

> <PUBCHEM_CACTVS_TAUTO_COUNT>
4

> <PUBCHEM_COORDINATE_TYPE>
1
5
255

> <PUBCHEM_BONDANNOTATIONS>
27  11  6
12  44  5
13  45  6
17  50  6
23  26  5
28  33  8
28  34  8
30  35  5
33  38  8
34  39  8
37  38  8
37  39  8
22  9  6

$$$$

