15334777
  -OEChem-07051213133D

 42 43  0     0  0  0  0  0  0999 V2000
    1.0150    0.8445   -1.2967 O   0  0  0  0  0  0  0  0  0  0  0  0
   -1.4863    2.4912    0.2352 O   0  0  0  0  0  0  0  0  0  0  0  0
   -0.5533    1.0404    1.7154 O   0  0  0  0  0  0  0  0  0  0  0  0
   -5.3894    0.5366    1.0868 O   0  0  0  0  0  0  0  0  0  0  0  0
    2.6721   -2.5250    1.4186 O   0  0  0  0  0  0  0  0  0  0  0  0
    5.3088    1.2784    0.3910 O   0  0  0  0  0  0  0  0  0  0  0  0
   -4.3932    0.5296    0.1024 N   0  0  0  0  0  0  0  0  0  0  0  0
    1.8226   -0.8513    0.0572 N   0  0  0  0  0  0  0  0  0  0  0  0
    3.1626    1.0823   -0.4650 N   0  0  0  0  0  0  0  0  0  0  0  0
   -2.3283   -0.4835   -0.5786 C   0  0  0  0  0  0  0  0  0  0  0  0
   -1.1670    0.2812   -0.4689 C   0  0  0  0  0  0  0  0  0  0  0  0
   -0.1289    0.1085   -1.3845 C   0  0  0  0  0  0  0  0  0  0  0  0
   -2.4518   -1.4209   -1.6042 C   0  0  0  0  0  0  0  0  0  0  0  0
   -3.4317   -0.3294    0.3610 C   0  0  0  0  0  0  0  0  0  0  0  0
   -0.2524   -0.8289   -2.4101 C   0  0  0  0  0  0  0  0  0  0  0  0
   -1.4138   -1.5934   -2.5200 C   0  0  0  0  0  0  0  0  0  0  0  0
   -1.0280    1.2648    0.6004 C   0  0  0  0  0  0  0  0  0  0  0  0
   -3.4577   -1.1834    1.6314 C   0  0  0  0  0  0  0  0  0  0  0  0
    2.0492    0.3343   -0.5318 C   0  0  0  0  0  0  0  0  0  0  0  0
    2.8510   -1.3188    0.7948 C   0  0  0  0  0  0  0  0  0  0  0  0
    4.1499    0.5554    0.2885 C   0  0  0  0  0  0  0  0  0  0  0  0
    4.0496   -0.6525    0.9482 C   0  0  0  0  0  0  0  0  0  0  0  0
    1.4168   -3.1665    1.2251 C   0  0  0  0  0  0  0  0  0  0  0  0
    5.3559    2.5159   -0.3098 C   0  0  0  0  0  0  0  0  0  0  0  0
   -6.3716    1.4908    0.7138 C   0  0  0  0  0  0  0  0  0  0  0  0
   -3.3515   -2.0235   -1.7004 H   0  0  0  0  0  0  0  0  0  0  0  0
    0.5512   -0.9690   -3.1282 H   0  0  0  0  0  0  0  0  0  0  0  0
   -1.5098   -2.3233   -3.3185 H   0  0  0  0  0  0  0  0  0  0  0  0
   -4.3509   -1.8144    1.6306 H   0  0  0  0  0  0  0  0  0  0  0  0
   -2.5738   -1.8261    1.6779 H   0  0  0  0  0  0  0  0  0  0  0  0
   -3.4636   -0.5326    2.5102 H   0  0  0  0  0  0  0  0  0  0  0  0
    4.8586   -1.0515    1.5470 H   0  0  0  0  0  0  0  0  0  0  0  0
   -1.3901    3.1473    0.9581 H   0  0  0  0  0  0  0  0  0  0  0  0
    0.5978   -2.5532    1.6163 H   0  0  0  0  0  0  0  0  0  0  0  0
    1.4297   -4.1076    1.7826 H   0  0  0  0  0  0  0  0  0  0  0  0
    1.2552   -3.4021    0.1678 H   0  0  0  0  0  0  0  0  0  0  0  0
    4.5925    3.2073    0.0624 H   0  0  0  0  0  0  0  0  0  0  0  0
    5.2489    2.3604   -1.3886 H   0  0  0  0  0  0  0  0  0  0  0  0
    6.3361    2.9674   -0.1300 H   0  0  0  0  0  0  0  0  0  0  0  0
   -7.1525    1.5016    1.4788 H   0  0  0  0  0  0  0  0  0  0  0  0
   -6.8229    1.2177   -0.2452 H   0  0  0  0  0  0  0  0  0  0  0  0
   -5.9276    2.4893    0.6508 H   0  0  0  0  0  0  0  0  0  0  0  0
  1 12  1  0  0  0  0
  1 19  1  0  0  0  0
  2 17  1  0  0  0  0
  2 33  1  0  0  0  0
  3 17  2  0  0  0  0
  4  7  1  0  0  0  0
  4 25  1  0  0  0  0
  5 20  1  0  0  0  0
  5 23  1  0  0  0  0
  6 21  1  0  0  0  0
  6 24  1  0  0  0  0
  7 14  2  0  0  0  0
  8 19  1  0  0  0  0
  8 20  2  0  0  0  0
  9 19  2  0  0  0  0
  9 21  1  0  0  0  0
 10 11  2  0  0  0  0
 10 13  1  0  0  0  0
 10 14  1  0  0  0  0
 11 12  1  0  0  0  0
 11 17  1  0  0  0  0
 12 15  2  0  0  0  0
 13 16  2  0  0  0  0
 13 26  1  0  0  0  0
 14 18  1  0  0  0  0
 15 16  1  0  0  0  0
 15 27  1  0  0  0  0
 16 28  1  0  0  0  0
 18 29  1  0  0  0  0
 18 30  1  0  0  0  0
 18 31  1  0  0  0  0
 20 22  1  0  0  0  0
 21 22  2  0  0  0  0
 22 32  1  0  0  0  0
 23 34  1  0  0  0  0
 23 35  1  0  0  0  0
 23 36  1  0  0  0  0
 24 37  1  0  0  0  0
 24 38  1  0  0  0  0
 24 39  1  0  0  0  0
 25 40  1  0  0  0  0
 25 41  1  0  0  0  0
 25 42  1  0  0  0  0
M  END
> <PUBCHEM_COMPOUND_CID>
15334777

> <PUBCHEM_CONFORMER_RMSD>
0.8

> <PUBCHEM_CONFORMER_DIVERSEORDER>
1
46
14
33
38
17
2
30
47
21
18
15
35
36
51
32
13
29
27
31
28
54
50
19
43
22
42
49
48
10
52
39
11
25
20
23
53
24
40
8
37
26
34
7
44
6
9
12
5
16
4
45
3
41

> <PUBCHEM_MMFF94_PARTIAL_CHARGES>
30
1 -0.17
10 0.09
11 0.09
12 0.08
13 -0.15
14 0.3
15 -0.15
16 -0.15
17 0.63
18 0.06
19 0.7
2 -0.65
20 0.39
21 0.39
22 -0.15
23 0.28
24 0.28
25 0.28
26 0.15
27 0.15
28 0.15
3 -0.57
32 0.15
33 0.5
4 -0.22
5 -0.36
6 -0.36
7 -0.51
8 -0.62
9 -0.62

> <PUBCHEM_EFFECTIVE_ROTOR_COUNT>
7

> <PUBCHEM_PHARMACOPHORE_FEATURES>
8
1 2 acceptor
1 3 acceptor
1 6 acceptor
1 7 acceptor
3 2 3 17 anion
3 8 9 19 cation
6 10 11 12 13 15 16 rings
6 8 9 19 20 21 22 rings

> <PUBCHEM_HEAVY_ATOM_COUNT>
25

> <PUBCHEM_ATOM_DEF_STEREO_COUNT>
0

> <PUBCHEM_ATOM_UDEF_STEREO_COUNT>
0

> <PUBCHEM_BOND_DEF_STEREO_COUNT>
1

> <PUBCHEM_BOND_UDEF_STEREO_COUNT>
0

> <PUBCHEM_ISOTOPIC_ATOM_COUNT>
0

> <PUBCHEM_COMPONENT_COUNT>
1

> <PUBCHEM_CACTVS_TAUTO_COUNT>
1

> <PUBCHEM_CONFORMER_ID>
00E9FD7900000001

> <PUBCHEM_MMFF94_ENERGY>
95.4154

> <PUBCHEM_FEATURE_SELFOVERLAP>
40.652

> <PUBCHEM_SHAPE_FINGERPRINT>
10906281 52 17895457229426571569
11370993 70 18131633374184871106
12011746 2 15936125266123522177
12236239 1 18334014960782338492
12363563 72 14692565528833466391
12467345 10 18059293296380470873
12596602 18 18335415751533950211
12892183 10 18201715202178958365
13583140 156 18341333301850780741
14341114 328 18408605842321581890
14787075 74 18192997015394426570
17349148 13 11599731700630722888
1813 80 15051440644346988671
19141452 34 16917062240441049083
20691752 17 18120962528439294224
21756936 100 18265052423790009500
229495 10 18269572682904541980
23566358 27 18337393842046744854
34934 24 18260829280472419285
4072396 5 18042405897547590557
4340502 62 18273207591057553123

> <PUBCHEM_SHAPE_MULTIPOLES>
464.33
10.78
2.49
1.92
2.33
0.58
-0.82
-6.38
4.11
-1.56
0.66
0.89
1.13
-1.85

> <PUBCHEM_SHAPE_SELFOVERLAP>
984.728

> <PUBCHEM_SHAPE_VOLUME>
259.8

> <PUBCHEM_COORDINATE_TYPE>
2
5
10

$$$$

