8196
  -OEChem-06261202383D

 30 29  0     0  0  0  0  0  0999 V2000
   -2.8150   -1.0168    0.5398 S   0  0  0  0  0  0  0  0  0  0  0  0
    1.6443    0.9356    0.1340 O   0  0  0  0  0  0  0  0  0  0  0  0
   -1.0926    1.4508   -0.1373 O   0  0  0  0  0  0  0  0  0  0  0  0
   -4.9946   -2.5490   -0.4712 N   0  0  0  0  0  0  0  0  0  0  0  0
    3.3431   -0.7496    0.2217 C   0  0  0  0  0  0  0  0  0  0  0  0
    2.9020    0.5622   -0.4118 C   0  0  0  0  0  0  0  0  0  0  0  0
    4.6999   -1.2036   -0.3091 C   0  0  0  0  0  0  0  0  0  0  0  0
    1.1769    2.1581   -0.4202 C   0  0  0  0  0  0  0  0  0  0  0  0
   -0.1749    2.4896    0.1821 C   0  0  0  0  0  0  0  0  0  0  0  0
    5.1564   -2.4914    0.3576 C   0  0  0  0  0  0  0  0  0  0  0  0
   -2.3806    1.7096    0.4036 C   0  0  0  0  0  0  0  0  0  0  0  0
   -3.3551    0.6249   -0.0275 C   0  0  0  0  0  0  0  0  0  0  0  0
   -4.1098   -1.9206   -0.0617 C   0  0  0  0  0  0  0  0  0  0  0  0
    3.3830   -0.6290    1.3117 H   0  0  0  0  0  0  0  0  0  0  0  0
    2.5840   -1.5190    0.0333 H   0  0  0  0  0  0  0  0  0  0  0  0
    3.6388    1.3468   -0.2035 H   0  0  0  0  0  0  0  0  0  0  0  0
    2.8107    0.4420   -1.4977 H   0  0  0  0  0  0  0  0  0  0  0  0
    5.4497   -0.4239   -0.1318 H   0  0  0  0  0  0  0  0  0  0  0  0
    4.6428   -1.3585   -1.3928 H   0  0  0  0  0  0  0  0  0  0  0  0
    1.8893    2.9616   -0.2037 H   0  0  0  0  0  0  0  0  0  0  0  0
    1.0786    2.0423   -1.5059 H   0  0  0  0  0  0  0  0  0  0  0  0
   -0.5364    3.4433   -0.2179 H   0  0  0  0  0  0  0  0  0  0  0  0
   -0.0871    2.5622    1.2724 H   0  0  0  0  0  0  0  0  0  0  0  0
    5.2567   -2.3590    1.4396 H   0  0  0  0  0  0  0  0  0  0  0  0
    4.4433   -3.3016    0.1748 H   0  0  0  0  0  0  0  0  0  0  0  0
    6.1292   -2.7991   -0.0385 H   0  0  0  0  0  0  0  0  0  0  0  0
   -2.7430    2.6771    0.0360 H   0  0  0  0  0  0  0  0  0  0  0  0
   -2.3206    1.7604    1.4978 H   0  0  0  0  0  0  0  0  0  0  0  0
   -4.3510    0.8422    0.3725 H   0  0  0  0  0  0  0  0  0  0  0  0
   -3.4158    0.6008   -1.1211 H   0  0  0  0  0  0  0  0  0  0  0  0
  1 12  1  0  0  0  0
  1 13  1  0  0  0  0
  2  6  1  0  0  0  0
  2  8  1  0  0  0  0
  3  9  1  0  0  0  0
  3 11  1  0  0  0  0
  4 13  3  0  0  0  0
  5  6  1  0  0  0  0
  5  7  1  0  0  0  0
  5 14  1  0  0  0  0
  5 15  1  0  0  0  0
  6 16  1  0  0  0  0
  6 17  1  0  0  0  0
  7 10  1  0  0  0  0
  7 18  1  0  0  0  0
  7 19  1  0  0  0  0
  8  9  1  0  0  0  0
  8 20  1  0  0  0  0
  8 21  1  0  0  0  0
  9 22  1  0  0  0  0
  9 23  1  0  0  0  0
 10 24  1  0  0  0  0
 10 25  1  0  0  0  0
 10 26  1  0  0  0  0
 11 12  1  0  0  0  0
 11 27  1  0  0  0  0
 11 28  1  0  0  0  0
 12 29  1  0  0  0  0
 12 30  1  0  0  0  0
M  END
> <PUBCHEM_COMPOUND_CID>
8196

> <PUBCHEM_CONFORMER_RMSD>
0.8

> <PUBCHEM_CONFORMER_DIVERSEORDER>
1
431
6
404
252
352
17
362
460
448
329
383
481
170
227
374
115
53
340
256
166
288
498
146
70
195
305
35
285
482
389
123
204
200
144
293
370
332
291
267
412
214
319
5
190
4
333
388
427
86
284
344
76
318
450
414
422
466
379
19
36
349
254
122
467
287
159
41
494
408
93
418
175
58
457
372
241
496
20
313
428
77
103
29
264
16
282
22
420
456
493
181
42
382
38
434
156
429
442
34
311
111
336
221
40
497
185
356
61
478
416
390
3
49
367
331
357
276
433
259
59
137
415
387
306
25
158
172
485
462
300
81
417
272
191
351
470
233
436
218
165
96
289
411
280
139
135
347
490
405
279
294
337
261
231
413
384
192
322
215
21
130
269
78
302
113
369
292
301
37
230
106
487
239
117
492
51
109
174
203
27
10
134
157
85
407
12
476
222
210
99
307
310
410
128
225
403
82
66
395
495
133
488
373
120
483
7
330
243
361
188
360
217
299
171
308
112
260
441
458
491
89
105
143
26
237
419
88
182
131
50
297
438
15
401
240
480
32
453
316
425
290
397
13
31
258
430
296
97
186
312
475
28
147
345
46
338
116
219
443
64
149
452
168
393
151
245
150
118
472
315
220
2
421
196
206
23
212
242
400
72
8
399
335
263
363
364
142
262
465
114
91
451
45
281
55
385
380
30
249
43
121
366
298
278
44
274
406
358
198
193
473
145
398
104
375
180
435
477
484
176
60
378
359
138
100
63
326
376
124
83
489
320
79
468
153
459
321
211
177
447
343
110
136
140
350
341
250
163
80
178
266
189
471
268
148
199
226
162
92
339
426
247
444
236
228
277
377
102
119
355
469
101
455
205
56
286
197
463
84
39
303
161
394
213
368
323
160
446
295
94
464
273
179
209
365
348
275
255
67
353
229
270
437
423
201
246
71
155
152
251
107
90
127
409
325
371
184
14
402
164
173
244
445
271
396
238
449
57
169
65
454
461
216
334
232
324
48
314
224
141
346
126
125
342
248
33
154
327
424
354
75
132
52
439
486
234
54
108
73
208
194
207
18
257
183
265
479
11
62
474
392
95
68
87
129
253
167
235
391
223
304
283
24
187
74
381
69
9
202
328
47
309
440
386
432
317
98

> <PUBCHEM_MMFF94_PARTIAL_CHARGES>
10
1 -0.27
11 0.28
12 0.23
13 0.59
2 -0.56
3 -0.56
4 -0.56
6 0.28
8 0.28
9 0.28

> <PUBCHEM_EFFECTIVE_ROTOR_COUNT>
9

> <PUBCHEM_PHARMACOPHORE_FEATURES>
4
1 10 hydrophobe
1 2 acceptor
1 3 acceptor
1 4 acceptor

> <PUBCHEM_HEAVY_ATOM_COUNT>
13

> <PUBCHEM_ATOM_DEF_STEREO_COUNT>
0

> <PUBCHEM_ATOM_UDEF_STEREO_COUNT>
0

> <PUBCHEM_BOND_DEF_STEREO_COUNT>
0

> <PUBCHEM_BOND_UDEF_STEREO_COUNT>
0

> <PUBCHEM_ISOTOPIC_ATOM_COUNT>
0

> <PUBCHEM_COMPONENT_COUNT>
1

> <PUBCHEM_CACTVS_TAUTO_COUNT>
1

> <PUBCHEM_CONFORMER_ID>
0000200400000001

> <PUBCHEM_MMFF94_ENERGY>
11.0253

> <PUBCHEM_FEATURE_SELFOVERLAP>
20.301

> <PUBCHEM_SHAPE_FINGERPRINT>
10968037 57 18335696135699808555
12555020 224 18340215197515445533
12757275 245 18268145547034831904
14123255 352 8142082035586784994
1420 369 18336263461839795467
14251710 61 18410009918548795857
14251731 5 18410291389267572979
14576447 43 18340761542882596860
15352361 1 18410856559677044142
18915474 69 18272925055651155588
20281475 54 18411130333835727180
20403669 9 18408315579915993927
20621476 21 17824248522858647574
20621476 51 18260270711671048455
20621476 91 18270138889207870202
20645477 70 18055641607842507257
23403322 49 18411418414677250271
23503958 8 18187643643259918688
27216 239 7997681017769845645
5207 123 18411423878255459279
556388 4 18194121802931477079
7062679 13 18411139121264805847
76465 3 18410292497289845095
88748 71 18342168926271708019

> <PUBCHEM_SHAPE_MULTIPOLES>
254.66
11.48
3.4
0.71
4.88
0.31
-0.02
12.83
0.39
-1.23
0.09
-0.04
0.05
-0.89

> <PUBCHEM_SHAPE_SELFOVERLAP>
450.191

> <PUBCHEM_SHAPE_VOLUME>
164.5

> <PUBCHEM_COORDINATE_TYPE>
2
5
10

$$$$

