56928096
  -OEChem-07051213103D

 42 43  0     1  0  0  0  0  0999 V2000
   -4.1554    1.6583   -0.3481 Br  0  0  0  0  0  0  0  0  0  0  0  0
    4.7910   -0.1060   -0.8491 Br  0  0  0  0  0  0  0  0  0  0  0  0
    2.7965   -1.9379    0.9881 Cl  0  0  0  0  0  0  0  0  0  0  0  0
   -3.5389   -1.3875    0.0025 O   0  0  0  0  0  0  0  0  0  0  0  0
   -0.0488    0.0626    0.1590 C   0  0  2  0  0  0  0  0  0  0  0  0
   -1.4072    0.9020    0.5288 C   0  0  0  0  0  0  0  0  0  0  0  0
    1.0264    0.1639    1.3214 C   0  0  0  0  0  0  0  0  0  0  0  0
    0.5985    0.6683   -1.1385 C   0  0  0  0  0  0  0  0  0  0  0  0
   -2.4516    0.7035   -0.6361 C   0  0  1  0  0  0  0  0  0  0  0  0
   -0.5427   -1.3921   -0.1121 C   0  0  0  0  0  0  0  0  0  0  0  0
    2.5126   -0.1632    0.9925 C   0  0  2  0  0  0  0  0  0  0  0  0
    2.0150    0.1863   -1.4504 C   0  0  0  0  0  0  0  0  0  0  0  0
    2.9795    0.5175   -0.3086 C   0  0  2  0  0  0  0  0  0  0  0  0
   -2.7745   -0.7481   -1.0205 C   0  0  1  0  0  0  0  0  0  0  0  0
   -1.5065   -1.5658   -1.2724 C   0  0  0  0  0  0  0  0  0  0  0  0
   -1.1354    2.4296    0.6754 C   0  0  0  0  0  0  0  0  0  0  0  0
   -1.9628    0.4370    1.9034 C   0  0  0  0  0  0  0  0  0  0  0  0
    3.1470    2.0371   -0.1088 C   0  0  0  0  0  0  0  0  0  0  0  0
   -0.3428   -2.4656    0.6735 C   0  0  0  0  0  0  0  0  0  0  0  0
    0.7144   -0.4168    2.1973 H   0  0  0  0  0  0  0  0  0  0  0  0
    1.0421    1.1945    1.6868 H   0  0  0  0  0  0  0  0  0  0  0  0
    0.6411    1.7577   -1.0610 H   0  0  0  0  0  0  0  0  0  0  0  0
   -0.0136    0.4923   -2.0267 H   0  0  0  0  0  0  0  0  0  0  0  0
   -2.0679    1.2051   -1.5330 H   0  0  0  0  0  0  0  0  0  0  0  0
    3.1268    0.1945    1.8276 H   0  0  0  0  0  0  0  0  0  0  0  0
    1.9989   -0.8904   -1.6600 H   0  0  0  0  0  0  0  0  0  0  0  0
    2.3495    0.6671   -2.3793 H   0  0  0  0  0  0  0  0  0  0  0  0
   -3.3928   -0.7617   -1.9266 H   0  0  0  0  0  0  0  0  0  0  0  0
   -1.0332   -1.2753   -2.2145 H   0  0  0  0  0  0  0  0  0  0  0  0
   -1.7798   -2.6217   -1.3980 H   0  0  0  0  0  0  0  0  0  0  0  0
   -0.2944    2.6508    1.3353 H   0  0  0  0  0  0  0  0  0  0  0  0
   -1.9954    2.9492    1.1131 H   0  0  0  0  0  0  0  0  0  0  0  0
   -0.9410    2.9087   -0.2891 H   0  0  0  0  0  0  0  0  0  0  0  0
   -1.2619    0.6736    2.7114 H   0  0  0  0  0  0  0  0  0  0  0  0
   -2.1547   -0.6369    1.9474 H   0  0  0  0  0  0  0  0  0  0  0  0
   -2.8989    0.9427    2.1599 H   0  0  0  0  0  0  0  0  0  0  0  0
    3.4446    2.5313   -1.0413 H   0  0  0  0  0  0  0  0  0  0  0  0
    2.2299    2.5217    0.2373 H   0  0  0  0  0  0  0  0  0  0  0  0
    3.9195    2.2562    0.6383 H   0  0  0  0  0  0  0  0  0  0  0  0
    0.2026   -2.4276    1.6056 H   0  0  0  0  0  0  0  0  0  0  0  0
   -0.7830   -3.4289    0.4335 H   0  0  0  0  0  0  0  0  0  0  0  0
   -3.7509   -2.2853   -0.3051 H   0  0  0  0  0  0  0  0  0  0  0  0
  1  9  1  0  0  0  0
  2 13  1  0  0  0  0
  3 11  1  0  0  0  0
  4 14  1  0  0  0  0
  4 42  1  0  0  0  0
  5  6  1  0  0  0  0
  5  7  1  0  0  0  0
  5  8  1  0  0  0  0
  5 10  1  0  0  0  0
  6  9  1  0  0  0  0
  6 16  1  0  0  0  0
  6 17  1  0  0  0  0
  7 11  1  0  0  0  0
  7 20  1  0  0  0  0
  7 21  1  0  0  0  0
  8 12  1  0  0  0  0
  8 22  1  0  0  0  0
  8 23  1  0  0  0  0
  9 14  1  0  0  0  0
  9 24  1  0  0  0  0
 10 15  1  0  0  0  0
 10 19  2  0  0  0  0
 11 13  1  0  0  0  0
 11 25  1  0  0  0  0
 12 13  1  0  0  0  0
 12 26  1  0  0  0  0
 12 27  1  0  0  0  0
 13 18  1  0  0  0  0
 14 15  1  0  0  0  0
 14 28  1  0  0  0  0
 15 29  1  0  0  0  0
 15 30  1  0  0  0  0
 16 31  1  0  0  0  0
 16 32  1  0  0  0  0
 16 33  1  0  0  0  0
 17 34  1  0  0  0  0
 17 35  1  0  0  0  0
 17 36  1  0  0  0  0
 18 37  1  0  0  0  0
 18 38  1  0  0  0  0
 18 39  1  0  0  0  0
 19 40  1  0  0  0  0
 19 41  1  0  0  0  0
M  END
> <PUBCHEM_COMPOUND_CID>
56928096

> <PUBCHEM_CONFORMER_RMSD>
0.6

> <PUBCHEM_CONFORMER_DIVERSEORDER>
1
2
5
3
4

> <PUBCHEM_MMFF94_PARTIAL_CHARGES>
15
1 -0.23
10 -0.28
11 0.29
13 0.23
14 0.28
15 0.14
19 -0.3
2 -0.23
3 -0.29
4 -0.68
40 0.15
41 0.15
42 0.4
5 0.14
9 0.23

> <PUBCHEM_EFFECTIVE_ROTOR_COUNT>
1.8

> <PUBCHEM_PHARMACOPHORE_FEATURES>
8
1 1 hydrophobe
1 2 hydrophobe
1 4 acceptor
1 4 donor
3 2 13 18 hydrophobe
3 6 16 17 hydrophobe
6 5 6 9 10 14 15 rings
6 5 7 8 11 12 13 rings

> <PUBCHEM_HEAVY_ATOM_COUNT>
19

> <PUBCHEM_ATOM_DEF_STEREO_COUNT>
4

> <PUBCHEM_ATOM_UDEF_STEREO_COUNT>
1

> <PUBCHEM_BOND_DEF_STEREO_COUNT>
0

> <PUBCHEM_BOND_UDEF_STEREO_COUNT>
0

> <PUBCHEM_ISOTOPIC_ATOM_COUNT>
0

> <PUBCHEM_COMPONENT_COUNT>
1

> <PUBCHEM_CACTVS_TAUTO_COUNT>
1

> <PUBCHEM_CONFORMER_ID>
0364A76000000001

> <PUBCHEM_MMFF94_ENERGY>
81.2767

> <PUBCHEM_FEATURE_SELFOVERLAP>
41.555

> <PUBCHEM_SHAPE_FINGERPRINT>
10062212 137 18338532922780729855
10863032 1 18343871021642034751
10948715 1 18270965755905636853
11315181 36 17822003212866425372
11578080 2 17768575730037022972
11640471 11 18343016696606882180
12236239 1 18202001053215764124
12423570 1 12062692491976704975
12491281 212 18201721760172058508
12592029 89 18269554008745227011
13024252 1 12175629438603584327
13538477 17 18409454708126396472
13581323 91 18408598158851754086
13583140 156 18059562612209957601
14993402 34 18202569462130537158
15309172 13 18272926145950317523
15775835 57 18412545443891628861
16752209 62 18187660097496050063
16945 1 16588028982975671975
18186145 218 18341339936989801412
19862831 5 18259988188400005316
19868273 293 18335425689808593861
200 152 18272369745911686818
20510252 161 18335417920392051585
20645476 183 18341895186251451183
20871999 31 18335141942936654197
21501502 16 17676755492752822552
23402539 116 18334016094611727612
23419403 2 17103959219077697635
23493267 7 18408605868297107239
23557571 272 17459773444079213314
23559900 14 18113058242716116516
2748010 2 17970651613820804313
296302 2 16774076280280742308
4340502 62 17489013990322790769
74978 22 18341892957469074220
77492 1 18130798857717598368
9709674 26 18261101946956782318

> <PUBCHEM_SHAPE_MULTIPOLES>
398.9
7
2.29
1.47
2.23
0.31
-0.17
-1.6
1.47
-0.51
-0.28
0.02
0.1
-0.72

> <PUBCHEM_SHAPE_SELFOVERLAP>
775.354

> <PUBCHEM_SHAPE_VOLUME>
248.8

> <PUBCHEM_COORDINATE_TYPE>
2
5
10

$$$$

