46174067
  -OEChem-07051213113D

 55 54  0     1  0  0  0  0  0999 V2000
   -0.8092    3.2264    0.7466 O   0  0  0  0  0  0  0  0  0  0  0  0
    0.2164    3.1196    1.7692 O   0  0  0  0  0  0  0  0  0  0  0  0
   -6.6155    0.4885   -0.2988 O   0  0  0  0  0  0  0  0  0  0  0  0
   -1.1439   -2.7692   -1.5676 O   0  0  0  0  0  0  0  0  0  0  0  0
   -5.3931    1.0276    1.5397 O   0  0  0  0  0  0  0  0  0  0  0  0
   -1.8984    1.7471   -0.8305 C   0  0  0  0  0  0  0  0  0  0  0  0
   -3.0634    1.4633    0.1271 C   0  0  0  0  0  0  0  0  0  0  0  0
   -0.5873    2.1141   -0.1162 C   0  0  1  0  0  0  0  0  0  0  0  0
   -4.3342    1.0955   -0.6301 C   0  0  0  0  0  0  0  0  0  0  0  0
    0.5368    2.3821   -1.0848 C   0  0  0  0  0  0  0  0  0  0  0  0
   -5.4749    0.8685    0.3289 C   0  0  0  0  0  0  0  0  0  0  0  0
    1.6970    1.7101   -1.1477 C   0  0  0  0  0  0  0  0  0  0  0  0
   -0.3707   -3.4578   -0.5862 C   0  0  2  0  0  0  0  0  0  0  0  0
   -1.1880   -4.6105    0.0088 C   0  0  0  0  0  0  0  0  0  0  0  0
    2.7250    1.9949   -2.1233 C   0  0  0  0  0  0  0  0  0  0  0  0
   -0.0160   -2.4562    0.4777 C   0  0  0  0  0  0  0  0  0  0  0  0
   -1.6568   -5.6038   -1.0468 C   0  0  0  0  0  0  0  0  0  0  0  0
    4.2335    0.1957   -1.2380 C   0  0  0  0  0  0  0  0  0  0  0  0
    3.8799    1.3150   -2.1744 C   0  0  0  0  0  0  0  0  0  0  0  0
    4.0586   -1.0221    1.6603 C   0  0  0  0  0  0  0  0  0  0  0  0
    1.2017   -2.0255    0.8450 C   0  0  0  0  0  0  0  0  0  0  0  0
    4.9236    0.7034   -0.0046 C   0  0  0  0  0  0  0  0  0  0  0  0
    4.8467    0.1839    1.2320 C   0  0  0  0  0  0  0  0  0  0  0  0
    2.7268   -0.6320    2.2380 C   0  0  0  0  0  0  0  0  0  0  0  0
    1.5053   -1.0584    1.8757 C   0  0  0  0  0  0  0  0  0  0  0  0
   -2.1931    2.5778   -1.4857 H   0  0  0  0  0  0  0  0  0  0  0  0
   -1.7332    0.8734   -1.4740 H   0  0  0  0  0  0  0  0  0  0  0  0
   -2.7855    0.6480    0.8068 H   0  0  0  0  0  0  0  0  0  0  0  0
   -3.2496    2.3459    0.7515 H   0  0  0  0  0  0  0  0  0  0  0  0
   -0.3258    1.2468    0.5065 H   0  0  0  0  0  0  0  0  0  0  0  0
   -4.1756    0.1766   -1.2046 H   0  0  0  0  0  0  0  0  0  0  0  0
   -4.6163    1.9044   -1.3125 H   0  0  0  0  0  0  0  0  0  0  0  0
    0.3598    3.1933   -1.7896 H   0  0  0  0  0  0  0  0  0  0  0  0
    1.8500    0.9152   -0.4287 H   0  0  0  0  0  0  0  0  0  0  0  0
    0.5285   -3.8425   -1.0793 H   0  0  0  0  0  0  0  0  0  0  0  0
   -0.5916   -5.1396    0.7619 H   0  0  0  0  0  0  0  0  0  0  0  0
   -2.0795   -4.2199    0.5165 H   0  0  0  0  0  0  0  0  0  0  0  0
    2.5510    2.7963   -2.8357 H   0  0  0  0  0  0  0  0  0  0  0  0
   -0.8719   -2.0275    1.0010 H   0  0  0  0  0  0  0  0  0  0  0  0
   -0.8055   -6.0271   -1.5893 H   0  0  0  0  0  0  0  0  0  0  0  0
   -2.2015   -6.4271   -0.5739 H   0  0  0  0  0  0  0  0  0  0  0  0
   -2.3269   -5.1304   -1.7711 H   0  0  0  0  0  0  0  0  0  0  0  0
    3.3739   -0.4416   -1.0135 H   0  0  0  0  0  0  0  0  0  0  0  0
    4.9390   -0.4552   -1.7712 H   0  0  0  0  0  0  0  0  0  0  0  0
    4.6163    1.5926   -2.9247 H   0  0  0  0  0  0  0  0  0  0  0  0
    3.9727   -1.7302    0.8322 H   0  0  0  0  0  0  0  0  0  0  0  0
    4.6319   -1.5465    2.4349 H   0  0  0  0  0  0  0  0  0  0  0  0
    2.0455   -2.4550    0.3122 H   0  0  0  0  0  0  0  0  0  0  0  0
    5.5805    1.5630   -0.1329 H   0  0  0  0  0  0  0  0  0  0  0  0
    5.4168    0.6780    2.0174 H   0  0  0  0  0  0  0  0  0  0  0  0
   -0.3580    2.7215    2.4455 H   0  0  0  0  0  0  0  0  0  0  0  0
   -7.3536    0.3534    0.3331 H   0  0  0  0  0  0  0  0  0  0  0  0
    2.7667    0.0834    3.0595 H   0  0  0  0  0  0  0  0  0  0  0  0
    0.6506   -0.6538    2.4145 H   0  0  0  0  0  0  0  0  0  0  0  0
   -1.9829   -2.4957   -1.1583 H   0  0  0  0  0  0  0  0  0  0  0  0
  1  2  1  0  0  0  0
  1  8  1  0  0  0  0
  2 51  1  0  0  0  0
  3 11  1  0  0  0  0
  3 52  1  0  0  0  0
  4 13  1  0  0  0  0
  4 55  1  0  0  0  0
  5 11  2  0  0  0  0
  6  7  1  0  0  0  0
  6  8  1  0  0  0  0
  6 26  1  0  0  0  0
  6 27  1  0  0  0  0
  7  9  1  0  0  0  0
  7 28  1  0  0  0  0
  7 29  1  0  0  0  0
  8 10  1  0  0  0  0
  8 30  1  0  0  0  0
  9 11  1  0  0  0  0
  9 31  1  0  0  0  0
  9 32  1  0  0  0  0
 10 12  2  0  0  0  0
 10 33  1  0  0  0  0
 12 15  1  0  0  0  0
 12 34  1  0  0  0  0
 13 14  1  0  0  0  0
 13 16  1  0  0  0  0
 13 35  1  0  0  0  0
 14 17  1  0  0  0  0
 14 36  1  0  0  0  0
 14 37  1  0  0  0  0
 15 19  2  0  0  0  0
 15 38  1  0  0  0  0
 16 21  2  0  0  0  0
 16 39  1  0  0  0  0
 17 40  1  0  0  0  0
 17 41  1  0  0  0  0
 17 42  1  0  0  0  0
 18 19  1  0  0  0  0
 18 22  1  0  0  0  0
 18 43  1  0  0  0  0
 18 44  1  0  0  0  0
 19 45  1  0  0  0  0
 20 23  1  0  0  0  0
 20 24  1  0  0  0  0
 20 46  1  0  0  0  0
 20 47  1  0  0  0  0
 21 25  1  0  0  0  0
 21 48  1  0  0  0  0
 22 23  2  0  0  0  0
 22 49  1  0  0  0  0
 23 50  1  0  0  0  0
 24 25  2  0  0  0  0
 24 53  1  0  0  0  0
 25 54  1  0  0  0  0
M  END
> <PUBCHEM_COMPOUND_CID>
46174067

> <PUBCHEM_CONFORMER_RMSD>
1.4

> <PUBCHEM_CONFORMER_DIVERSEORDER>
2
120
143
7
52
162
98
125
45
67
75
93
91
49
99
44
155
96
158
152
108
86
148
135
39
4
114
32
28
118
23
127
74
136
68
61
147
63
141
164
66
102
163
157
19
153
113
154
101
119
76
121
107
123
70
89
137
42
33
77
73
160
103
145
46
156
56
131
21
134
105
9
138
117
30
128
144
15
62
109
81
1
88
116
80
65
12
92
85
161
37
36
54
150
35
38
149
129
58
97
90
20
94
40
43
112
110
11
10
78
24
82
64
132
142
51
104
60
69
133
122
124
126
139
16
17
27
159
55
83
146
87
140
18
26
34
166
6
84
115
48
29
165
41
59
151
13
111
22
25
79
100
47
5
72
8
50
53
31
57
130
95
14
106
3
71

> <PUBCHEM_MMFF94_PARTIAL_CHARGES>
34
1 -0.28
10 -0.29
11 0.66
12 -0.15
13 0.42
15 -0.15
16 -0.29
18 0.28
19 -0.29
2 -0.4
20 0.28
21 -0.15
22 -0.29
23 -0.29
24 -0.29
25 -0.15
3 -0.65
33 0.15
34 0.15
38 0.15
39 0.15
4 -0.68
45 0.15
48 0.15
49 0.15
5 -0.57
50 0.15
51 0.4
52 0.5
53 0.15
54 0.15
55 0.4
8 0.42
9 0.06

> <PUBCHEM_EFFECTIVE_ROTOR_COUNT>
14

> <PUBCHEM_PHARMACOPHORE_FEATURES>
6
1 17 hydrophobe
1 3 acceptor
1 4 acceptor
1 4 donor
1 5 acceptor
3 3 5 11 anion

> <PUBCHEM_HEAVY_ATOM_COUNT>
25

> <PUBCHEM_ATOM_DEF_STEREO_COUNT>
2

> <PUBCHEM_ATOM_UDEF_STEREO_COUNT>
0

> <PUBCHEM_BOND_DEF_STEREO_COUNT>
5

> <PUBCHEM_BOND_UDEF_STEREO_COUNT>
0

> <PUBCHEM_ISOTOPIC_ATOM_COUNT>
0

> <PUBCHEM_COMPONENT_COUNT>
1

> <PUBCHEM_CACTVS_TAUTO_COUNT>
1

> <PUBCHEM_CONFORMER_ID>
02C08F7300000002

> <PUBCHEM_MMFF94_ENERGY>
23.0557

> <PUBCHEM_FEATURE_SELFOVERLAP>
30.504

> <PUBCHEM_SHAPE_MULTIPOLES>
485.14
10.7
5.89
2.11
9.73
9.61
0.19
-5.55
1.28
4.49
-2.05
-2.16
-0.25
-2.88

> <PUBCHEM_SHAPE_SELFOVERLAP>
927.62

> <PUBCHEM_SHAPE_VOLUME>
294.6

> <PUBCHEM_COORDINATE_TYPE>
2
5
10

$$$$

