442980
  -OEChem-07051213003D

 58 62  0     1  0  0  0  0  0999 V2000
    4.3411    0.9154    0.9938 O   0  0  0  0  0  0  0  0  0  0  0  0
    2.2716    0.8682    1.9625 O   0  0  0  0  0  0  0  0  0  0  0  0
   -6.2251    0.3423   -0.0794 N   0  0  0  0  0  0  0  0  0  0  0  0
    2.5445    0.2197   -0.3999 C   0  0  1  0  0  0  0  0  0  0  0  0
    1.6801   -1.0352   -0.4599 C   0  0  2  0  0  0  0  0  0  0  0  0
    0.2957   -0.8461    0.1681 C   0  0  1  0  0  0  0  0  0  0  0  0
   -0.4354    0.3413   -0.5200 C   0  0  1  0  0  0  0  0  0  0  0  0
    3.8827   -0.2737   -0.9528 C   0  0  2  0  0  0  0  0  0  0  0  0
    1.8623    1.3584   -1.1508 C   0  0  0  0  0  0  0  0  0  0  0  0
   -1.8633    0.5908    0.1143 C   0  0  2  0  0  0  0  0  0  0  0  0
    2.5908   -2.1137    0.1024 C   0  0  0  0  0  0  0  0  0  0  0  0
    0.4510    1.6130   -0.5959 C   0  0  0  0  0  0  0  0  0  0  0  0
    3.9628   -1.7528   -0.4862 C   0  0  0  0  0  0  0  0  0  0  0  0
   -0.5350   -2.1314    0.0374 C   0  0  0  0  0  0  0  0  0  0  0  0
    4.8679    0.6879   -0.3180 C   0  0  2  0  0  0  0  0  0  0  0  0
    2.9866    0.6934    0.9882 C   0  0  0  0  0  0  0  0  0  0  0  0
   -2.6076   -0.7340    0.3267 C   0  0  0  0  0  0  0  0  0  0  0  0
   -2.6816    1.4828   -0.8661 C   0  0  0  0  0  0  0  0  0  0  0  0
   -1.9969   -1.9305    0.2749 C   0  0  0  0  0  0  0  0  0  0  0  0
   -1.7532    1.3024    1.4845 C   0  0  0  0  0  0  0  0  0  0  0  0
   -4.0949   -0.6573    0.6009 C   0  0  0  0  0  0  0  0  0  0  0  0
   -4.1710    1.5934   -0.5302 C   0  0  0  0  0  0  0  0  0  0  0  0
   -4.8135    0.2084   -0.4368 C   0  0  2  0  0  0  0  0  0  0  0  0
    6.3088    0.2186   -0.2347 C   0  0  0  0  0  0  0  0  0  0  0  0
   -6.8683   -0.9612   -0.0230 C   0  0  0  0  0  0  0  0  0  0  0  0
    1.5192   -1.2834   -1.5224 H   0  0  0  0  0  0  0  0  0  0  0  0
    0.4103   -0.6302    1.2363 H   0  0  0  0  0  0  0  0  0  0  0  0
   -0.5976    0.0317   -1.5652 H   0  0  0  0  0  0  0  0  0  0  0  0
    3.9380   -0.2340   -2.0470 H   0  0  0  0  0  0  0  0  0  0  0  0
    1.7868    1.1125   -2.2174 H   0  0  0  0  0  0  0  0  0  0  0  0
    2.4433    2.2857   -1.0805 H   0  0  0  0  0  0  0  0  0  0  0  0
    2.2812   -3.1216   -0.1904 H   0  0  0  0  0  0  0  0  0  0  0  0
    2.6234   -2.0771    1.1973 H   0  0  0  0  0  0  0  0  0  0  0  0
    0.5545    2.0635    0.3959 H   0  0  0  0  0  0  0  0  0  0  0  0
   -0.0306    2.3661   -1.2292 H   0  0  0  0  0  0  0  0  0  0  0  0
    4.7463   -1.9487    0.2498 H   0  0  0  0  0  0  0  0  0  0  0  0
    4.1732   -2.3891   -1.3541 H   0  0  0  0  0  0  0  0  0  0  0  0
   -0.1614   -2.8727    0.7541 H   0  0  0  0  0  0  0  0  0  0  0  0
   -0.4151   -2.5691   -0.9615 H   0  0  0  0  0  0  0  0  0  0  0  0
    4.8503    1.6495   -0.8469 H   0  0  0  0  0  0  0  0  0  0  0  0
   -2.5963    1.0819   -1.8854 H   0  0  0  0  0  0  0  0  0  0  0  0
   -2.2641    2.4963   -0.8985 H   0  0  0  0  0  0  0  0  0  0  0  0
   -2.5788   -2.8384    0.4141 H   0  0  0  0  0  0  0  0  0  0  0  0
   -1.0941    0.7614    2.1714 H   0  0  0  0  0  0  0  0  0  0  0  0
   -1.3676    2.3219    1.3809 H   0  0  0  0  0  0  0  0  0  0  0  0
   -2.7225    1.3951    1.9855 H   0  0  0  0  0  0  0  0  0  0  0  0
   -4.5018   -1.6751    0.6071 H   0  0  0  0  0  0  0  0  0  0  0  0
   -4.2497   -0.2571    1.6112 H   0  0  0  0  0  0  0  0  0  0  0  0
   -4.3008    2.1447    0.4094 H   0  0  0  0  0  0  0  0  0  0  0  0
   -4.6665    2.1860   -1.3097 H   0  0  0  0  0  0  0  0  0  0  0  0
   -4.7346   -0.2682   -1.4242 H   0  0  0  0  0  0  0  0  0  0  0  0
    6.4361   -0.6059    0.4728 H   0  0  0  0  0  0  0  0  0  0  0  0
    6.6854   -0.0845   -1.2159 H   0  0  0  0  0  0  0  0  0  0  0  0
    6.9411    1.0312    0.1407 H   0  0  0  0  0  0  0  0  0  0  0  0
   -6.6918    0.9154   -0.7824 H   0  0  0  0  0  0  0  0  0  0  0  0
   -6.6142   -1.5113    0.8878 H   0  0  0  0  0  0  0  0  0  0  0  0
   -6.6529   -1.5751   -0.9041 H   0  0  0  0  0  0  0  0  0  0  0  0
   -7.9538   -0.8152    0.0090 H   0  0  0  0  0  0  0  0  0  0  0  0
  1 15  1  0  0  0  0
  1 16  1  0  0  0  0
  2 16  2  0  0  0  0
  3 23  1  0  0  0  0
  3 25  1  0  0  0  0
  3 55  1  0  0  0  0
  4  5  1  0  0  0  0
  4  8  1  0  0  0  0
  4  9  1  0  0  0  0
  4 16  1  0  0  0  0
  5  6  1  0  0  0  0
  5 11  1  0  0  0  0
  5 26  1  0  0  0  0
  6  7  1  0  0  0  0
  6 14  1  0  0  0  0
  6 27  1  0  0  0  0
  7 10  1  0  0  0  0
  7 12  1  0  0  0  0
  7 28  1  0  0  0  0
  8 13  1  0  0  0  0
  8 15  1  0  0  0  0
  8 29  1  0  0  0  0
  9 12  1  0  0  0  0
  9 30  1  0  0  0  0
  9 31  1  0  0  0  0
 10 17  1  0  0  0  0
 10 18  1  0  0  0  0
 10 20  1  0  0  0  0
 11 13  1  0  0  0  0
 11 32  1  0  0  0  0
 11 33  1  0  0  0  0
 12 34  1  0  0  0  0
 12 35  1  0  0  0  0
 13 36  1  0  0  0  0
 13 37  1  0  0  0  0
 14 19  1  0  0  0  0
 14 38  1  0  0  0  0
 14 39  1  0  0  0  0
 15 24  1  0  0  0  0
 15 40  1  0  0  0  0
 17 19  2  0  0  0  0
 17 21  1  0  0  0  0
 18 22  1  0  0  0  0
 18 41  1  0  0  0  0
 18 42  1  0  0  0  0
 19 43  1  0  0  0  0
 20 44  1  0  0  0  0
 20 45  1  0  0  0  0
 20 46  1  0  0  0  0
 21 23  1  0  0  0  0
 21 47  1  0  0  0  0
 21 48  1  0  0  0  0
 22 23  1  0  0  0  0
 22 49  1  0  0  0  0
 22 50  1  0  0  0  0
 23 51  1  0  0  0  0
 24 52  1  0  0  0  0
 24 53  1  0  0  0  0
 24 54  1  0  0  0  0
 25 56  1  0  0  0  0
 25 57  1  0  0  0  0
 25 58  1  0  0  0  0
M  END
> <PUBCHEM_COMPOUND_CID>
442980

> <PUBCHEM_CONFORMER_RMSD>
0.6

> <PUBCHEM_CONFORMER_DIVERSEORDER>
1
2

> <PUBCHEM_MMFF94_PARTIAL_CHARGES>
15
1 -0.43
10 0.14
14 0.14
15 0.28
16 0.66
17 -0.28
19 -0.29
2 -0.57
21 0.14
23 0.27
25 0.27
3 -0.9
4 0.06
43 0.15
55 0.36

> <PUBCHEM_EFFECTIVE_ROTOR_COUNT>
3.2

> <PUBCHEM_PHARMACOPHORE_FEATURES>
8
1 2 acceptor
1 3 cation
1 3 donor
5 1 4 8 15 16 rings
5 4 5 8 11 13 rings
6 10 17 18 21 22 23 rings
6 4 5 6 7 9 12 rings
6 6 7 10 14 17 19 rings

> <PUBCHEM_HEAVY_ATOM_COUNT>
25

> <PUBCHEM_ATOM_DEF_STEREO_COUNT>
8

> <PUBCHEM_ATOM_UDEF_STEREO_COUNT>
0

> <PUBCHEM_BOND_DEF_STEREO_COUNT>
0

> <PUBCHEM_BOND_UDEF_STEREO_COUNT>
0

> <PUBCHEM_ISOTOPIC_ATOM_COUNT>
0

> <PUBCHEM_COMPONENT_COUNT>
1

> <PUBCHEM_CACTVS_TAUTO_COUNT>
1

> <PUBCHEM_CONFORMER_ID>
0006C26400000001

> <PUBCHEM_MMFF94_ENERGY>
66.387

> <PUBCHEM_FEATURE_SELFOVERLAP>
41.228

> <PUBCHEM_SHAPE_FINGERPRINT>
10 15 18270968943167302088
10366900 7 17894629253587693072
11578080 2 17170407208149820539
11646440 116 18334849498993368881
11963148 33 18130511830019335099
12011746 2 18334855017730697812
12107698 1 16732700562511085952
12166972 35 18409728452183722961
12236239 1 18040995168125709189
12403259 415 18335428975727944977
12516196 113 18335138683114693429
12592029 89 17989208174683998403
12730499 353 18187081750132410158
12788726 201 17168139095960336649
12838862 33 18341629091410124780
13140716 1 18126281935106944024
13224815 77 18335983146398454400
13402501 40 18410292514474989055
13533116 47 18114180881930865902
15196674 1 18341612676319276615
15238133 3 15913044373872981460
15788980 27 14979956977839836852
1601671 61 18273214205502452228
17349148 13 18411702097462362461
1813 80 16630803330975579454
18608769 82 18339358561703250843
18681886 176 18342740676207034244
200 152 18186802500264893213
20645477 70 18114460171191138550
21033648 29 18261406558537395985
21033650 10 16485559047553101764
21267235 1 18341603832760243463
21279426 13 18267303329543446983
21421861 104 17560251352743819618
21792961 116 18261377967831272998
221357 26 17748824137725740112
22149856 69 18338498787293038219
22224240 67 18410862023640062992
22393880 68 18198625638797698111
23402539 116 18335143063743705527
23557571 272 18114458938234973783
23559900 14 18334016064372688176
3004659 81 17917427605541037012
335352 9 18341890771536644262
34797466 226 17385436605771577292
34934 24 18413672400624410774
350125 39 18410853252536077215
3545911 37 18409728456573109662
4325135 7 18410013222222717679
4340502 62 18334300864165619810
495365 180 17749118776872333866
5104073 3 18269552900659476473
542803 24 14923944552654218445

> <PUBCHEM_SHAPE_MULTIPOLES>
497.77
12.97
1.98
1.1
7.3
0.61
0.35
-0.03
-0.81
0.09
-0.11
-0.47
-0.38
0.57

> <PUBCHEM_SHAPE_SELFOVERLAP>
1078.309

> <PUBCHEM_SHAPE_VOLUME>
273

> <PUBCHEM_COORDINATE_TYPE>
2
5
10

$$$$

