248981
  -OEChem-07051213062D

 51 54  0     1  0  0  0  0  0999 V2000
    8.8462    2.5489    0.0000 O   0  0  0  0  0  0  0  0  0  0  0  0
    2.8641   -2.5030    0.0000 O   0  0  0  0  0  0  0  0  0  0  0  0
    8.2572    0.5493    0.0000 C   0  0  1  0  0  0  0  0  0  0  0  0
    8.2572   -0.4507    0.0000 C   0  0  2  0  0  0  0  0  0  0  0  0
    7.3912   -0.9507    0.0000 C   0  0  1  0  0  0  0  0  0  0  0  0
    9.2034    0.8540    0.0000 C   0  0  2  0  0  0  0  0  0  0  0  0
    6.5251   -0.4507    0.0000 C   0  0  2  0  0  0  0  0  0  0  0  0
    7.3912    1.0493    0.0000 C   0  0  0  0  0  0  0  0  0  0  0  0
    9.2034   -0.7554    0.0000 C   0  0  0  0  0  0  0  0  0  0  0  0
    9.7870    0.0493    0.0000 C   0  0  0  0  0  0  0  0  0  0  0  0
    6.5251    0.5493    0.0000 C   0  0  0  0  0  0  0  0  0  0  0  0
    7.4072   -1.9922    0.0000 C   0  0  0  0  0  0  0  0  0  0  0  0
    8.2572    1.5493    0.0000 C   0  0  0  0  0  0  0  0  0  0  0  0
    5.6151   -0.9575    0.0000 C   0  0  0  0  0  0  0  0  0  0  0  0
    6.5092   -2.5200    0.0000 C   0  0  0  0  0  0  0  0  0  0  0  0
    9.5141    1.8046    0.0000 C   0  0  0  0  0  0  0  0  0  0  0  0
    5.6071   -1.9991    0.0000 C   0  0  0  0  0  0  0  0  0  0  0  0
    4.6883   -0.3935    0.0000 C   0  0  0  0  0  0  0  0  0  0  0  0
   10.4926    2.0108    0.0000 C   0  0  0  0  0  0  0  0  0  0  0  0
    4.6717   -2.5489    0.0000 C   0  0  0  0  0  0  0  0  0  0  0  0
    3.7404   -0.9214    0.0000 C   0  0  0  0  0  0  0  0  0  0  0  0
    3.7320   -2.0064    0.0000 C   0  0  0  0  0  0  0  0  0  0  0  0
    2.0000   -1.9997    0.0000 C   0  0  0  0  0  0  0  0  0  0  0  0
    8.3471   -1.2959    0.0000 H   0  0  0  0  0  0  0  0  0  0  0  0
    8.1305   -1.3700    0.0000 H   0  0  0  0  0  0  0  0  0  0  0  0
    9.8159    0.9502    0.0000 H   0  0  0  0  0  0  0  0  0  0  0  0
    7.2612   -0.0257    0.0000 H   0  0  0  0  0  0  0  0  0  0  0  0
    7.7897    1.5243    0.0000 H   0  0  0  0  0  0  0  0  0  0  0  0
    6.9926    1.5243    0.0000 H   0  0  0  0  0  0  0  0  0  0  0  0
    8.9524   -1.3223    0.0000 H   0  0  0  0  0  0  0  0  0  0  0  0
    9.7408   -1.0647    0.0000 H   0  0  0  0  0  0  0  0  0  0  0  0
   10.2479   -0.3654    0.0000 H   0  0  0  0  0  0  0  0  0  0  0  0
   10.2479    0.4640    0.0000 H   0  0  0  0  0  0  0  0  0  0  0  0
    6.3131    1.1319    0.0000 H   0  0  0  0  0  0  0  0  0  0  0  0
    5.9145    0.4416    0.0000 H   0  0  0  0  0  0  0  0  0  0  0  0
    7.6252   -2.5726    0.0000 H   0  0  0  0  0  0  0  0  0  0  0  0
    8.0164   -1.8767    0.0000 H   0  0  0  0  0  0  0  0  0  0  0  0
    8.8772    1.5493    0.0000 H   0  0  0  0  0  0  0  0  0  0  0  0
    8.2572    2.1693    0.0000 H   0  0  0  0  0  0  0  0  0  0  0  0
    7.6372    1.5493    0.0000 H   0  0  0  0  0  0  0  0  0  0  0  0
    6.1119   -2.9959    0.0000 H   0  0  0  0  0  0  0  0  0  0  0  0
    6.9101   -2.9928    0.0000 H   0  0  0  0  0  0  0  0  0  0  0  0
    4.7002    0.2264    0.0000 H   0  0  0  0  0  0  0  0  0  0  0  0
   10.6204    1.4041    0.0000 H   0  0  0  0  0  0  0  0  0  0  0  0
   11.0992    2.1386    0.0000 H   0  0  0  0  0  0  0  0  0  0  0  0
   10.3647    2.6174    0.0000 H   0  0  0  0  0  0  0  0  0  0  0  0
    4.6741   -3.1689    0.0000 H   0  0  0  0  0  0  0  0  0  0  0  0
    3.2071   -0.6052    0.0000 H   0  0  0  0  0  0  0  0  0  0  0  0
    2.3121   -1.4640    0.0000 H   0  0  0  0  0  0  0  0  0  0  0  0
    1.4643   -1.6876    0.0000 H   0  0  0  0  0  0  0  0  0  0  0  0
    1.6879   -2.5354    0.0000 H   0  0  0  0  0  0  0  0  0  0  0  0
  1 16  2  0  0  0  0
  2 22  1  0  0  0  0
  2 23  1  0  0  0  0
  3  4  1  0  0  0  0
  3  6  1  0  0  0  0
  3  8  1  0  0  0  0
  3 13  1  1  0  0  0
  4  5  1  0  0  0  0
  4  9  1  0  0  0  0
  4 24  1  6  0  0  0
  5  7  1  0  0  0  0
  5 12  1  0  0  0  0
  5 25  1  1  0  0  0
  6 10  1  0  0  0  0
  6 16  1  1  0  0  0
  6 26  1  0  0  0  0
  7 11  1  0  0  0  0
  7 14  1  0  0  0  0
  7 27  1  6  0  0  0
  8 11  1  0  0  0  0
  8 28  1  0  0  0  0
  8 29  1  0  0  0  0
  9 10  1  0  0  0  0
  9 30  1  0  0  0  0
  9 31  1  0  0  0  0
 10 32  1  0  0  0  0
 10 33  1  0  0  0  0
 11 34  1  0  0  0  0
 11 35  1  0  0  0  0
 12 15  1  0  0  0  0
 12 36  1  0  0  0  0
 12 37  1  0  0  0  0
 13 38  1  0  0  0  0
 13 39  1  0  0  0  0
 13 40  1  0  0  0  0
 14 17  2  0  0  0  0
 14 18  1  0  0  0  0
 15 17  1  0  0  0  0
 15 41  1  0  0  0  0
 15 42  1  0  0  0  0
 16 19  1  0  0  0  0
 17 20  1  0  0  0  0
 18 21  2  0  0  0  0
 18 43  1  0  0  0  0
 19 44  1  0  0  0  0
 19 45  1  0  0  0  0
 19 46  1  0  0  0  0
 20 22  2  0  0  0  0
 20 47  1  0  0  0  0
 21 22  1  0  0  0  0
 21 48  1  0  0  0  0
 23 49  1  0  0  0  0
 23 50  1  0  0  0  0
 23 51  1  0  0  0  0
M  END
> <PUBCHEM_COMPOUND_CID>
248981

> <PUBCHEM_COMPOUND_CANONICALIZED>
1

> <PUBCHEM_CACTVS_COMPLEXITY>
473

> <PUBCHEM_CACTVS_HBOND_ACCEPTOR>
2

> <PUBCHEM_CACTVS_HBOND_DONOR>
0

> <PUBCHEM_CACTVS_ROTATABLE_BOND>
2

> <PUBCHEM_CACTVS_SUBSKEYS>
AAADceB4MAAAAAAAAAAAAAAAAAAAAYAAAAAwYMAAAAAAAGDBAAAAGgAAAAAADwSAmAIyBoAABACIAqBSAAACCAAgIAAIiAEGCIgMJjKEMRqAMCAkwBEIqAeIyPCPoAABAAAQAADAAAYAACAAAQAACAAAAA==

> <PUBCHEM_IUPAC_OPENEYE_NAME>
1-[(8S,9S,13S,14S,17S)-3-methoxy-13-methyl-6,7,8,9,11,12,14,15,16,17-decahydrocyclopenta[a]phenanthren-17-yl]ethanone

> <PUBCHEM_IUPAC_CAS_NAME>
1-[(8S,9S,13S,14S,17S)-3-methoxy-13-methyl-6,7,8,9,11,12,14,15,16,17-decahydrocyclopenta[a]phenanthren-17-yl]ethanone

> <PUBCHEM_IUPAC_NAME>
1-[(8S,9S,13S,14S,17S)-3-methoxy-13-methyl-6,7,8,9,11,12,14,15,16,17-decahydrocyclopenta[a]phenanthren-17-yl]ethanone

> <PUBCHEM_IUPAC_SYSTEMATIC_NAME>
1-[(8S,9S,13S,14S,17S)-3-methoxy-13-methyl-6,7,8,9,11,12,14,15,16,17-decahydrocyclopenta[a]phenanthren-17-yl]ethanone

> <PUBCHEM_IUPAC_TRADITIONAL_NAME>
1-[(8S,9S,13S,14S,17S)-3-methoxy-13-methyl-6,7,8,9,11,12,14,15,16,17-decahydrocyclopenta[a]phenanthren-17-yl]ethanone

> <PUBCHEM_IUPAC_INCHI>
InChI=1S/C21H28O2/c1-13(22)19-8-9-20-18-6-4-14-12-15(23-3)5-7-16(14)17(18)10-11-21(19,20)2/h5,7,12,17-20H,4,6,8-11H2,1-3H3/t17-,18-,19-,20+,21-/m1/s1

> <PUBCHEM_IUPAC_INCHIKEY>
ILVARFYPEVEZSJ-SSSFQFABSA-N

> <PUBCHEM_XLOGP3_AA>
4.9

> <PUBCHEM_EXACT_MASS>
312.20893

> <PUBCHEM_MOLECULAR_FORMULA>
C21H28O2

> <PUBCHEM_MOLECULAR_WEIGHT>
312.44582

> <PUBCHEM_OPENEYE_CAN_SMILES>
CC(=O)C1CCC2C1(CCC3C2CCC4=C3C=CC(=C4)OC)C

> <PUBCHEM_OPENEYE_ISO_SMILES>
CC(=O)[C@H]1CC[C@@H]2[C@@]1(CC[C@H]3[C@H]2CCC4=C3C=CC(=C4)OC)C

> <PUBCHEM_CACTVS_TPSA>
26.3

> <PUBCHEM_MONOISOTOPIC_WEIGHT>
312.20893

> <PUBCHEM_TOTAL_CHARGE>
0

> <PUBCHEM_HEAVY_ATOM_COUNT>
23

> <PUBCHEM_ATOM_DEF_STEREO_COUNT>
5

> <PUBCHEM_ATOM_UDEF_STEREO_COUNT>
0

> <PUBCHEM_BOND_DEF_STEREO_COUNT>
0

> <PUBCHEM_BOND_UDEF_STEREO_COUNT>
0

> <PUBCHEM_ISOTOPIC_ATOM_COUNT>
0

> <PUBCHEM_COMPONENT_COUNT>
1

> <PUBCHEM_CACTVS_TAUTO_COUNT>
3

> <PUBCHEM_COORDINATE_TYPE>
1
5
255

> <PUBCHEM_BONDANNOTATIONS>
14  17  8
14  18  8
17  20  8
18  21  8
20  22  8
21  22  8
3  13  5
4  24  6
5  25  5
6  16  5
7  27  6

$$$$

