439490
  -OEChem-07051212453D

 46 48  0     1  0  0  0  0  0999 V2000
   -2.6500    2.3614   -0.1154 P   0  0  1  0  0  0  0  0  0  0  0  0
   -5.1650    0.9598    0.4976 P   0  0  2  0  0  0  0  0  0  0  0  0
   -5.1569   -1.7304   -0.7132 P   0  0  0  0  0  0  0  0  0  0  0  0
    0.4910   -0.5511   -0.6374 O   0  0  0  0  0  0  0  0  0  0  0  0
   -0.0727   -3.2948    0.6607 O   0  0  0  0  0  0  0  0  0  0  0  0
   -1.8342    0.9977   -0.4209 O   0  0  0  0  0  0  0  0  0  0  0  0
   -3.8871    1.8948    0.8129 O   0  0  0  0  0  0  0  0  0  0  0  0
   -1.7022    3.1749    0.9128 O   0  0  0  0  0  0  0  0  0  0  0  0
    6.5768    2.3445   -0.1477 O   0  0  0  0  0  0  0  0  0  0  0  0
   -3.0547    3.1402   -1.3333 O   0  0  0  0  0  0  0  0  0  0  0  0
    6.8437   -2.2977   -0.3427 O   0  0  0  0  0  0  0  0  0  0  0  0
   -4.5025   -0.3989   -0.0725 O   0  0  0  0  0  0  0  0  0  0  0  0
   -5.8251    1.6360   -0.8138 O   0  0  0  0  0  0  0  0  0  0  0  0
   -6.1096    0.7599    1.6461 O   0  0  0  0  0  0  0  0  0  0  0  0
   -3.8853   -2.7112   -0.8968 O   0  0  0  0  0  0  0  0  0  0  0  0
   -5.9648   -2.3884    0.5222 O   0  0  0  0  0  0  0  0  0  0  0  0
   -5.9648   -1.4948   -1.9553 O   0  0  0  0  0  0  0  0  0  0  0  0
    2.7113   -0.0044   -0.0055 N   0  0  0  0  0  0  0  0  0  0  0  0
    4.7467   -1.3510   -0.1800 N   0  0  0  0  0  0  0  0  0  0  0  0
    3.6381    2.0369    0.0174 N   0  0  0  0  0  0  0  0  0  0  0  0
    6.7005    0.0161   -0.2447 N   0  0  0  0  0  0  0  0  0  0  0  0
   -0.1471   -1.9655    1.1713 C   0  0  2  0  0  0  0  0  0  0  0  0
    1.6771   -1.0323    0.0183 C   0  0  1  0  0  0  0  0  0  0  0  0
   -0.6639   -1.0290    0.0843 C   0  0  1  0  0  0  0  0  0  0  0  0
    1.2593   -1.4680    1.4153 C   0  0  0  0  0  0  0  0  0  0  0  0
   -1.3989    0.1781    0.6504 C   0  0  0  0  0  0  0  0  0  0  0  0
    4.0579   -0.1757   -0.0934 C   0  0  0  0  0  0  0  0  0  0  0  0
    2.5079    1.3557    0.0592 C   0  0  0  0  0  0  0  0  0  0  0  0
    4.6049    1.0764   -0.0781 C   0  0  0  0  0  0  0  0  0  0  0  0
    6.0283    1.2488   -0.1567 C   0  0  0  0  0  0  0  0  0  0  0  0
    6.1412   -1.2879   -0.2613 C   0  0  0  0  0  0  0  0  0  0  0  0
    2.0456   -1.8785   -0.5727 H   0  0  0  0  0  0  0  0  0  0  0  0
   -0.7656   -1.9897    2.0723 H   0  0  0  0  0  0  0  0  0  0  0  0
   -1.2994   -1.5465   -0.6423 H   0  0  0  0  0  0  0  0  0  0  0  0
    1.9368   -2.2256    1.8210 H   0  0  0  0  0  0  0  0  0  0  0  0
    1.2410   -0.6133    2.1019 H   0  0  0  0  0  0  0  0  0  0  0  0
   -0.7318    0.7719    1.2837 H   0  0  0  0  0  0  0  0  0  0  0  0
   -2.2570   -0.1404    1.2485 H   0  0  0  0  0  0  0  0  0  0  0  0
    0.3467   -3.2737   -0.2155 H   0  0  0  0  0  0  0  0  0  0  0  0
    1.5210    1.7908    0.1405 H   0  0  0  0  0  0  0  0  0  0  0  0
    4.2576   -2.2395   -0.1816 H   0  0  0  0  0  0  0  0  0  0  0  0
    7.7141    0.0643   -0.3038 H   0  0  0  0  0  0  0  0  0  0  0  0
   -0.9375    3.6761    0.5574 H   0  0  0  0  0  0  0  0  0  0  0  0
   -6.3734    2.4423   -0.7073 H   0  0  0  0  0  0  0  0  0  0  0  0
   -4.0079   -3.5665   -1.3611 H   0  0  0  0  0  0  0  0  0  0  0  0
   -6.5198   -3.1805    0.3587 H   0  0  0  0  0  0  0  0  0  0  0  0
  1  6  1  0  0  0  0
  1  7  1  0  0  0  0
  1  8  1  0  0  0  0
  1 10  2  0  0  0  0
  2  7  1  0  0  0  0
  2 12  1  0  0  0  0
  2 13  1  0  0  0  0
  2 14  2  0  0  0  0
  3 12  1  0  0  0  0
  3 15  1  0  0  0  0
  3 16  1  0  0  0  0
  3 17  2  0  0  0  0
  4 23  1  0  0  0  0
  4 24  1  0  0  0  0
  5 22  1  0  0  0  0
  5 39  1  0  0  0  0
  6 26  1  0  0  0  0
  8 43  1  0  0  0  0
  9 30  2  0  0  0  0
 11 31  2  0  0  0  0
 13 44  1  0  0  0  0
 15 45  1  0  0  0  0
 16 46  1  0  0  0  0
 18 23  1  0  0  0  0
 18 27  1  0  0  0  0
 18 28  1  0  0  0  0
 19 27  1  0  0  0  0
 19 31  1  0  0  0  0
 19 41  1  0  0  0  0
 20 28  2  0  0  0  0
 20 29  1  0  0  0  0
 21 30  1  0  0  0  0
 21 31  1  0  0  0  0
 21 42  1  0  0  0  0
 22 24  1  0  0  0  0
 22 25  1  0  0  0  0
 22 33  1  0  0  0  0
 23 25  1  0  0  0  0
 23 32  1  0  0  0  0
 24 26  1  0  0  0  0
 24 34  1  0  0  0  0
 25 35  1  0  0  0  0
 25 36  1  0  0  0  0
 26 37  1  0  0  0  0
 26 38  1  0  0  0  0
 27 29  2  0  0  0  0
 28 40  1  0  0  0  0
 29 30  1  0  0  0  0
M  END
> <PUBCHEM_COMPOUND_CID>
439490

> <PUBCHEM_CONFORMER_RMSD>
1.2

> <PUBCHEM_CONFORMER_DIVERSEORDER>
1
201
182
34
131
306
120
133
60
77
91
315
54
59
291
313
290
67
83
356
311
170
139
80
203
51
304
259
318
190
12
223
162
276
351
38
156
294
277
326
155
94
258
194
95
330
108
324
5
53
70
263
74
127
262
234
50
252
16
211
30
249
245
31
214
101
308
347
357
154
6
335
264
328
361
17
107
348
285
322
192
123
216
22
90
301
25
292
307
362
271
115
340
98
4
344
62
352
46
99
145
332
220
18
147
337
106
217
327
283
176
64
265
195
20
69
343
136
130
227
132
150
10
213
310
246
32
247
329
204
27
238
113
303
178
45
126
316
78
248
125
205
135
197
71
309
175
146
278
73
39
84
105
33
221
253
134
325
168
354
43
273
355
233
206
222
116
215
89
65
3
287
75
188
111
242
299
26
269
219
295
225
110
76
286
82
19
231
40
181
165
93
28
243
275
114
158
207
58
42
240
288
186
72
314
9
47
180
360
191
346
55
202
235
244
102
281
138
103
63
365
305
140
261
198
35
129
196
289
85
364
228
331
152
52
157
166
187
267
333
296
2
317
172
24
29
41
177
96
336
363
21
298
312
260
36
149
300
97
104
160
274
359
173
284
117
334
256
268
88
137
171
121
153
293
15
367
254
61
44
224
358
189
57
13
109
49
272
164
184
37
163
241
128
141
143
86
345
167
226
144
350
151
236
169
323
321
148
319
208
185
229
23
239
279
270
66
119
342
142
100
280
230
193
302
159
255
232
81
320
251
14
7
353
122
282
199
209
79
92
68
266
174
87
179
112
218
8
257
250
212
200
297
338
339
183
237
48
366
341
118
56
349
11
161
124
210

> <PUBCHEM_MMFF94_PARTIAL_CHARGES>
38
1 1.51
10 -0.7
11 -0.57
12 -0.54
13 -0.77
14 -0.7
15 -0.77
16 -0.77
17 -0.7
18 0.05
19 -0.49
2 1.51
20 -0.57
21 -0.49
22 0.28
23 0.54
24 0.28
26 0.28
27 -0.09
28 0.04
29 0.14
3 1.51
30 0.72
31 0.69
39 0.4
4 -0.56
40 0.15
41 0.37
42 0.37
43 0.5
44 0.5
45 0.5
46 0.5
5 -0.68
6 -0.55
7 -0.54
8 -0.77
9 -0.57

> <PUBCHEM_EFFECTIVE_ROTOR_COUNT>
9

> <PUBCHEM_PHARMACOPHORE_FEATURES>
19
1 10 acceptor
1 11 acceptor
1 13 acceptor
1 14 acceptor
1 15 acceptor
1 16 acceptor
1 17 acceptor
1 19 donor
1 21 donor
1 4 acceptor
1 5 acceptor
1 5 donor
1 8 acceptor
1 9 acceptor
3 18 20 28 cation
4 3 15 16 17 anion
5 18 20 27 28 29 rings
5 4 22 23 24 25 rings
6 19 21 27 29 30 31 rings

> <PUBCHEM_HEAVY_ATOM_COUNT>
31

> <PUBCHEM_ATOM_DEF_STEREO_COUNT>
3

> <PUBCHEM_ATOM_UDEF_STEREO_COUNT>
0

> <PUBCHEM_BOND_DEF_STEREO_COUNT>
0

> <PUBCHEM_BOND_UDEF_STEREO_COUNT>
0

> <PUBCHEM_ISOTOPIC_ATOM_COUNT>
0

> <PUBCHEM_COMPONENT_COUNT>
1

> <PUBCHEM_CACTVS_TAUTO_COUNT>
6

> <PUBCHEM_CONFORMER_ID>
0006B4C200000001

> <PUBCHEM_MMFF94_ENERGY>
-12.8401

> <PUBCHEM_FEATURE_SELFOVERLAP>
96.629

> <PUBCHEM_SHAPE_FINGERPRINT>
10595046 47 18335421270598326694
10670039 82 18411143536754806915
11578080 2 16843054271573218253
12166972 35 18272645753812475948
12236239 1 18260547818591581014
12645989 146 18337667620441457038
13631057 29 18335706010251433163
13782708 43 16443355212902287991
14251764 18 18343303661516693384
14856354 85 16950278495395572181
15183329 4 18410295809190191558
1577012 14 18408601453091871392
18608769 82 18409730621263195744
21236236 1 18408602544171833235
221357 26 18408888404336377372
23402539 116 18409449172008608015
335352 9 18340482370715225542
350125 39 18412261757212313768
4098825 35 18407758136701008822
4258327 124 17130689588785933900
4325135 7 18335138696305329589
469060 322 17418380181752690021
7495541 125 17385729071200054024
9996256 80 18408886243719784260

> <PUBCHEM_SHAPE_MULTIPOLES>
547.42
18.49
3.46
1.09
8.03
0.35
0
-0.47
-3.12
-2.14
-0.07
-1.63
-0.17
-0.75

> <PUBCHEM_SHAPE_SELFOVERLAP>
1114.631

> <PUBCHEM_SHAPE_VOLUME>
318.6

> <PUBCHEM_COORDINATE_TYPE>
2
5
10

$$$$

