6705
  -OEChem-06261201272D

 28 30  0     0  0  0  0  0  0999 V2000
    4.6660   -2.0000    0.0000 O   0  0  0  0  0  0  0  0  0  0  0  0
    4.6660    2.0000    0.0000 O   0  0  0  0  0  0  0  0  0  0  0  0
    7.2746    2.5446    0.0000 O   0  5  0  0  0  0  0  0  0  0  0  0
    2.0574   -2.5446    0.0000 O   0  5  0  0  0  0  0  0  0  0  0  0
    5.5427    2.5246    0.0000 O   0  0  0  0  0  0  0  0  0  0  0  0
    3.7894   -2.5246    0.0000 O   0  0  0  0  0  0  0  0  0  0  0  0
    6.4144    2.0346    0.0000 N   0  3  0  0  0  0  0  0  0  0  0  0
    2.9176   -2.0346    0.0000 N   0  3  0  0  0  0  0  0  0  0  0  0
    5.5321    0.5000    0.0000 C   0  0  0  0  0  0  0  0  0  0  0  0
    3.8000   -0.5000    0.0000 C   0  0  0  0  0  0  0  0  0  0  0  0
    5.5321   -0.5000    0.0000 C   0  0  0  0  0  0  0  0  0  0  0  0
    3.8000    0.5000    0.0000 C   0  0  0  0  0  0  0  0  0  0  0  0
    4.6660   -1.0000    0.0000 C   0  0  0  0  0  0  0  0  0  0  0  0
    4.6660    1.0000    0.0000 C   0  0  0  0  0  0  0  0  0  0  0  0
    6.4260    1.0347    0.0000 C   0  0  0  0  0  0  0  0  0  0  0  0
    2.9061   -1.0347    0.0000 C   0  0  0  0  0  0  0  0  0  0  0  0
    6.4260   -1.0347    0.0000 C   0  0  0  0  0  0  0  0  0  0  0  0
    2.9061    1.0347    0.0000 C   0  0  0  0  0  0  0  0  0  0  0  0
    7.3321    0.5208    0.0000 C   0  0  0  0  0  0  0  0  0  0  0  0
    2.0000   -0.5208    0.0000 C   0  0  0  0  0  0  0  0  0  0  0  0
    7.3321   -0.5208    0.0000 C   0  0  0  0  0  0  0  0  0  0  0  0
    2.0000    0.5208    0.0000 C   0  0  0  0  0  0  0  0  0  0  0  0
    6.4188   -1.6546    0.0000 H   0  0  0  0  0  0  0  0  0  0  0  0
    2.9132    1.6546    0.0000 H   0  0  0  0  0  0  0  0  0  0  0  0
    7.8678    0.8329    0.0000 H   0  0  0  0  0  0  0  0  0  0  0  0
    1.4643   -0.8329    0.0000 H   0  0  0  0  0  0  0  0  0  0  0  0
    7.8678   -0.8329    0.0000 H   0  0  0  0  0  0  0  0  0  0  0  0
    1.4643    0.8329    0.0000 H   0  0  0  0  0  0  0  0  0  0  0  0
  1 13  2  0  0  0  0
  2 14  2  0  0  0  0
  3  7  1  0  0  0  0
  4  8  1  0  0  0  0
  5  7  2  0  0  0  0
  6  8  2  0  0  0  0
  7 15  1  0  0  0  0
  8 16  1  0  0  0  0
  9 11  2  0  0  0  0
  9 14  1  0  0  0  0
  9 15  1  0  0  0  0
 10 12  2  0  0  0  0
 10 13  1  0  0  0  0
 10 16  1  0  0  0  0
 11 13  1  0  0  0  0
 11 17  1  0  0  0  0
 12 14  1  0  0  0  0
 12 18  1  0  0  0  0
 15 19  2  0  0  0  0
 16 20  2  0  0  0  0
 17 21  2  0  0  0  0
 17 23  1  0  0  0  0
 18 22  2  0  0  0  0
 18 24  1  0  0  0  0
 19 21  1  0  0  0  0
 19 25  1  0  0  0  0
 20 22  1  0  0  0  0
 20 26  1  0  0  0  0
 21 27  1  0  0  0  0
 22 28  1  0  0  0  0
M  CHG  4   3  -1   4  -1   7   1   8   1
M  END
> <PUBCHEM_COMPOUND_CID>
6705

> <PUBCHEM_COMPOUND_CANONICALIZED>
1

> <PUBCHEM_CACTVS_COMPLEXITY>
488

> <PUBCHEM_CACTVS_HBOND_ACCEPTOR>
6

> <PUBCHEM_CACTVS_HBOND_DONOR>
0

> <PUBCHEM_CACTVS_ROTATABLE_BOND>
0

> <PUBCHEM_CACTVS_SUBSKEYS>
AAADcYBzOAAAAAAAAAAAAAAAAAAAAAAAAAAwYMAAAAAAAADBQAAAHgAEAAAADAyBmAAwwIAQQACJAqRSQwCCAAAkAgAoiAEAZMoIIDqAlZGAIYBggAAIyccdiMCOgAAAQAASAACAAASAACQAAAAAAAAAAA==

> <PUBCHEM_IUPAC_OPENEYE_NAME>
1,5-dinitroanthracene-9,10-dione

> <PUBCHEM_IUPAC_CAS_NAME>
1,5-dinitroanthracene-9,10-dione

> <PUBCHEM_IUPAC_NAME>
1,5-dinitroanthracene-9,10-dione

> <PUBCHEM_IUPAC_SYSTEMATIC_NAME>
1,5-dinitroanthracene-9,10-dione

> <PUBCHEM_IUPAC_TRADITIONAL_NAME>
1,5-dinitro-9,10-anthraquinone

> <PUBCHEM_IUPAC_INCHI>
InChI=1S/C14H6N2O6/c17-13-7-3-1-5-9(15(19)20)11(7)14(18)8-4-2-6-10(12(8)13)16(21)22/h1-6H

> <PUBCHEM_IUPAC_INCHIKEY>
XVMVHWDCRFNPQR-UHFFFAOYSA-N

> <PUBCHEM_XLOGP3_AA>
2.5

> <PUBCHEM_EXACT_MASS>
298.022586

> <PUBCHEM_MOLECULAR_FORMULA>
C14H6N2O6

> <PUBCHEM_MOLECULAR_WEIGHT>
298.20724

> <PUBCHEM_OPENEYE_CAN_SMILES>
C1=CC2=C(C(=C1)[N+](=O)[O-])C(=O)C3=C(C2=O)C(=CC=C3)[N+](=O)[O-]

> <PUBCHEM_OPENEYE_ISO_SMILES>
C1=CC2=C(C(=C1)[N+](=O)[O-])C(=O)C3=C(C2=O)C(=CC=C3)[N+](=O)[O-]

> <PUBCHEM_CACTVS_TPSA>
126

> <PUBCHEM_MONOISOTOPIC_WEIGHT>
298.022586

> <PUBCHEM_TOTAL_CHARGE>
0

> <PUBCHEM_HEAVY_ATOM_COUNT>
22

> <PUBCHEM_ATOM_DEF_STEREO_COUNT>
0

> <PUBCHEM_ATOM_UDEF_STEREO_COUNT>
0

> <PUBCHEM_BOND_DEF_STEREO_COUNT>
0

> <PUBCHEM_BOND_UDEF_STEREO_COUNT>
0

> <PUBCHEM_ISOTOPIC_ATOM_COUNT>
0

> <PUBCHEM_COMPONENT_COUNT>
1

> <PUBCHEM_CACTVS_TAUTO_COUNT>
1

> <PUBCHEM_COORDINATE_TYPE>
1
5
255

> <PUBCHEM_BONDANNOTATIONS>
10  12  8
10  16  8
11  17  8
12  18  8
15  19  8
16  20  8
17  21  8
18  22  8
19  21  8
20  22  8
9  11  8
9  15  8

$$$$

