47205384
  -OEChem-06241222583D

 31 31  0     1  0  0  0  0  0999 V2000
   -1.0702    1.1421    1.7822 O   0  0  0  0  0  0  0  0  0  0  0  0
    5.4470    0.5435   -0.7213 O   0  5  0  0  0  0  0  0  0  0  0  0
    5.1738   -1.5077    0.0114 O   0  0  0  0  0  0  0  0  0  0  0  0
   -1.6844    0.4401   -0.3825 N   0  0  0  0  0  0  0  0  0  0  0  0
    4.7215   -0.3683   -0.2557 N   0  3  0  0  0  0  0  0  0  0  0  0
   -6.5241    0.0001   -0.1936 N   0  0  0  0  0  0  0  0  0  0  0  0
   -3.0953    0.6894   -0.2495 C   0  0  0  0  0  0  0  0  0  0  0  0
   -3.9606   -0.5628   -0.4371 C   0  0  1  0  0  0  0  0  0  0  0  0
   -0.7815    0.6963    0.6722 C   0  0  0  0  0  0  0  0  0  0  0  0
   -3.5666   -1.6865    0.5210 C   0  0  0  0  0  0  0  0  0  0  0  0
    0.6439    0.4205    0.4317 C   0  0  0  0  0  0  0  0  0  0  0  0
   -1.2343   -0.0939   -1.6715 C   0  0  0  0  0  0  0  0  0  0  0  0
    1.4699    1.4186   -0.0851 C   0  0  0  0  0  0  0  0  0  0  0  0
    1.1691   -0.8389    0.7210 C   0  0  0  0  0  0  0  0  0  0  0  0
   -5.3953   -0.2475   -0.2997 C   0  0  0  0  0  0  0  0  0  0  0  0
    2.8209    1.1575   -0.3129 C   0  0  0  0  0  0  0  0  0  0  0  0
    2.5202   -1.1003    0.4933 C   0  0  0  0  0  0  0  0  0  0  0  0
    3.3460   -0.1021   -0.0238 C   0  0  0  0  0  0  0  0  0  0  0  0
   -3.2976    1.1340    0.7329 H   0  0  0  0  0  0  0  0  0  0  0  0
   -3.3676    1.4528   -0.9898 H   0  0  0  0  0  0  0  0  0  0  0  0
   -3.8142   -0.9423   -1.4568 H   0  0  0  0  0  0  0  0  0  0  0  0
   -3.6650   -1.3684    1.5653 H   0  0  0  0  0  0  0  0  0  0  0  0
   -4.2122   -2.5615    0.3828 H   0  0  0  0  0  0  0  0  0  0  0  0
   -2.5345   -2.0142    0.3634 H   0  0  0  0  0  0  0  0  0  0  0  0
   -1.3793   -1.1778   -1.6717 H   0  0  0  0  0  0  0  0  0  0  0  0
   -0.1848    0.1168   -1.8781 H   0  0  0  0  0  0  0  0  0  0  0  0
   -1.8272    0.3542   -2.4751 H   0  0  0  0  0  0  0  0  0  0  0  0
    1.0702    2.4032   -0.3139 H   0  0  0  0  0  0  0  0  0  0  0  0
    0.5334   -1.6234    1.1235 H   0  0  0  0  0  0  0  0  0  0  0  0
    3.4342    1.9590   -0.7166 H   0  0  0  0  0  0  0  0  0  0  0  0
    2.8944   -2.0930    0.7301 H   0  0  0  0  0  0  0  0  0  0  0  0
  1  9  2  0  0  0  0
  2  5  1  0  0  0  0
  3  5  2  0  0  0  0
  4  7  1  0  0  0  0
  4  9  1  0  0  0  0
  4 12  1  0  0  0  0
  5 18  1  0  0  0  0
  6 15  3  0  0  0  0
  7  8  1  0  0  0  0
  7 19  1  0  0  0  0
  7 20  1  0  0  0  0
  8 10  1  0  0  0  0
  8 15  1  0  0  0  0
  8 21  1  0  0  0  0
  9 11  1  0  0  0  0
 10 22  1  0  0  0  0
 10 23  1  0  0  0  0
 10 24  1  0  0  0  0
 11 13  2  0  0  0  0
 11 14  1  0  0  0  0
 12 25  1  0  0  0  0
 12 26  1  0  0  0  0
 12 27  1  0  0  0  0
 13 16  1  0  0  0  0
 13 28  1  0  0  0  0
 14 17  2  0  0  0  0
 14 29  1  0  0  0  0
 16 18  2  0  0  0  0
 16 30  1  0  0  0  0
 17 18  1  0  0  0  0
 17 31  1  0  0  0  0
M  CHG  2   2  -1   5   1
M  END
> <PUBCHEM_COMPOUND_CID>
47205384

> <PUBCHEM_CONFORMER_RMSD>
0.6

> <PUBCHEM_CONFORMER_DIVERSEORDER>
1
63
36
85
30
41
5
83
65
37
71
59
60
14
12
49
81
48
66
13
76
2
84
73
53
78
45
68
31
22
29
47
50
10
57
54
64
58
42
82
56
55
86
15
72
80
70
20
46
35
23
19
17
38
40
75
39
62
52
4
16
24
74
25
67
33
61
44
51
79
18
21
69
6
7
27
3
28
9
26
32
34
43
8
77
11

> <PUBCHEM_MMFF94_PARTIAL_CHARGES>
21
1 -0.57
11 0.09
12 0.3
13 -0.15
14 -0.15
15 0.36
16 -0.15
17 -0.15
18 0.13
2 -0.52
28 0.15
29 0.15
3 -0.52
30 0.15
31 0.15
4 -0.66
5 0.91
6 -0.56
7 0.3
8 0.2
9 0.54

> <PUBCHEM_EFFECTIVE_ROTOR_COUNT>
5

> <PUBCHEM_PHARMACOPHORE_FEATURES>
7
1 1 acceptor
1 10 hydrophobe
1 2 acceptor
1 2 anion
1 3 acceptor
1 6 acceptor
6 11 13 14 16 17 18 rings

> <PUBCHEM_HEAVY_ATOM_COUNT>
18

> <PUBCHEM_ATOM_DEF_STEREO_COUNT>
0

> <PUBCHEM_ATOM_UDEF_STEREO_COUNT>
1

> <PUBCHEM_BOND_DEF_STEREO_COUNT>
0

> <PUBCHEM_BOND_UDEF_STEREO_COUNT>
0

> <PUBCHEM_ISOTOPIC_ATOM_COUNT>
0

> <PUBCHEM_COMPONENT_COUNT>
1

> <PUBCHEM_CACTVS_TAUTO_COUNT>
1

> <PUBCHEM_CONFORMER_ID>
02D04C0800000001

> <PUBCHEM_MMFF94_ENERGY>
50.7101

> <PUBCHEM_FEATURE_SELFOVERLAP>
35.602

> <PUBCHEM_SHAPE_FINGERPRINT>
12236239 1 18259982695131682361
12251169 10 6555408730151207977
12596602 18 14490481858933184967
12730499 353 17131829876073322289
12788726 201 18188773971863476225
12916748 109 12967133838871797171
14115302 16 18334575694205483405
14251731 8 18409171026211761573
14251764 18 6843920555942375750
14576447 43 18411985762693234386
14911166 2 15410892959565542261
15048467 5 18202284710653033197
17834072 33 18412545400947191837
17834076 25 13039189203816280965
18186145 218 15554173554186636933
19489759 90 15285355129365431115
19784866 240 18409442622157120806
200 152 18408039610944405753
20344682 1 17132116852882254174
20645477 70 17988649661178995434
20767249 213 10663816382123609775
21267235 1 18409442600698102031
221490 88 18127684933503374874
23402539 116 7781511508848279249
23402655 69 17775574168897276701
23557571 272 17775007929072727693
23559900 14 18341336578731570705
26918003 58 18333732407753051067
2871803 45 18202566198118935290
29717793 49 18260264161481470437
4463277 17 17894632547796239849
465052 167 17968375637873495975

> <PUBCHEM_SHAPE_MULTIPOLES>
337.88
12.22
1.36
1.05
4.58
0.25
0.04
2.63
-2.4
-0.52
0.17
0.29
-0.15
-0.12

> <PUBCHEM_SHAPE_SELFOVERLAP>
695.478

> <PUBCHEM_SHAPE_VOLUME>
193

> <PUBCHEM_COORDINATE_TYPE>
2
5
10

$$$$

