9548602
  -OEChem-07051212473D

 23 22  0     0  0  0  0  0  0999 V2000
    2.3612    0.5112   -0.0918 P   0  0  0  0  0  0  0  0  0  0  0  0
   -3.2508    1.8784    0.4307 O   0  0  0  0  0  0  0  0  0  0  0  0
    3.1138   -0.0603    1.2304 O   0  0  0  0  0  0  0  0  0  0  0  0
    2.5709    2.1098    0.1129 O   0  0  0  0  0  0  0  0  0  0  0  0
   -2.2001    0.8362   -1.2941 O   0  0  0  0  0  0  0  0  0  0  0  0
    3.0057    0.0247   -1.3634 O   0  0  0  0  0  0  0  0  0  0  0  0
   -1.1719   -1.0983    0.2721 N   0  0  0  0  0  0  0  0  0  0  0  0
    0.7857    0.2254    0.0895 N   0  0  0  0  0  0  0  0  0  0  0  0
    0.9275   -2.1257   -0.0291 N   0  0  0  0  0  0  0  0  0  0  0  0
   -1.9567   -0.0563    0.9317 C   0  0  0  0  0  0  0  0  0  0  0  0
    0.2135   -0.9537    0.1080 C   0  0  0  0  0  0  0  0  0  0  0  0
   -1.9391   -2.2036   -0.2966 C   0  0  0  0  0  0  0  0  0  0  0  0
   -2.4597    0.9122   -0.1002 C   0  0  0  0  0  0  0  0  0  0  0  0
   -1.3497    0.4842    1.6659 H   0  0  0  0  0  0  0  0  0  0  0  0
   -2.8123   -0.4985    1.4541 H   0  0  0  0  0  0  0  0  0  0  0  0
   -1.8546   -3.0866    0.3447 H   0  0  0  0  0  0  0  0  0  0  0  0
   -1.5700   -2.4553   -1.2963 H   0  0  0  0  0  0  0  0  0  0  0  0
   -3.0020   -1.9573   -0.3939 H   0  0  0  0  0  0  0  0  0  0  0  0
    0.4809   -3.0339    0.0288 H   0  0  0  0  0  0  0  0  0  0  0  0
    1.9337   -2.1196   -0.1545 H   0  0  0  0  0  0  0  0  0  0  0  0
    4.0937   -0.0289    1.2644 H   0  0  0  0  0  0  0  0  0  0  0  0
    3.4639    2.4893   -0.0316 H   0  0  0  0  0  0  0  0  0  0  0  0
   -3.5787    2.5000   -0.2538 H   0  0  0  0  0  0  0  0  0  0  0  0
  1  3  1  0  0  0  0
  1  4  1  0  0  0  0
  1  6  2  0  0  0  0
  1  8  1  0  0  0  0
  2 13  1  0  0  0  0
  2 23  1  0  0  0  0
  3 21  1  0  0  0  0
  4 22  1  0  0  0  0
  5 13  2  0  0  0  0
  7 10  1  0  0  0  0
  7 11  1  0  0  0  0
  7 12  1  0  0  0  0
  8 11  2  0  0  0  0
  9 11  1  0  0  0  0
  9 19  1  0  0  0  0
  9 20  1  0  0  0  0
 10 13  1  0  0  0  0
 10 14  1  0  0  0  0
 10 15  1  0  0  0  0
 12 16  1  0  0  0  0
 12 17  1  0  0  0  0
 12 18  1  0  0  0  0
M  END
> <PUBCHEM_COMPOUND_CID>
9548602

> <PUBCHEM_CONFORMER_RMSD>
0.6

> <PUBCHEM_CONFORMER_DIVERSEORDER>
1
51
34
50
40
55
49
47
43
13
54
30
26
44
11
56
19
36
31
24
10
41
12
45
22
42
14
29
21
38
20
33
3
7
48
5
37
28
52
39
9
23
15
8
2
25
46
6
4
53
27
17
32
18
16
35

> <PUBCHEM_MMFF94_PARTIAL_CHARGES>
18
1 1.56
10 0.43
11 0.55
12 0.37
13 0.66
19 0.4
2 -0.65
20 0.4
21 0.5
22 0.5
23 0.5
3 -0.77
4 -0.77
5 -0.57
6 -0.7
7 -0.79
8 -0.77
9 -0.85

> <PUBCHEM_EFFECTIVE_ROTOR_COUNT>
4

> <PUBCHEM_PHARMACOPHORE_FEATURES>
9
1 2 acceptor
1 3 acceptor
1 4 acceptor
1 5 acceptor
1 6 acceptor
1 9 donor
3 2 5 13 anion
4 1 3 4 6 anion
4 7 8 9 11 cation

> <PUBCHEM_HEAVY_ATOM_COUNT>
13

> <PUBCHEM_ATOM_DEF_STEREO_COUNT>
0

> <PUBCHEM_ATOM_UDEF_STEREO_COUNT>
0

> <PUBCHEM_BOND_DEF_STEREO_COUNT>
1

> <PUBCHEM_BOND_UDEF_STEREO_COUNT>
0

> <PUBCHEM_ISOTOPIC_ATOM_COUNT>
0

> <PUBCHEM_COMPONENT_COUNT>
1

> <PUBCHEM_CACTVS_TAUTO_COUNT>
3

> <PUBCHEM_CONFORMER_ID>
0091B33A00000001

> <PUBCHEM_MMFF94_ENERGY>
-8.3712

> <PUBCHEM_FEATURE_SELFOVERLAP>
45.77

> <PUBCHEM_SHAPE_FINGERPRINT>
12932764 1 18271800181914332154
13380535 21 18340472465497377739
14614273 12 18342186518336342263
14897335 6 18337962276224568275
15775835 57 18201716241250015336
16945 1 18409729603176273402
19973954 147 18264766567250428524
20653085 51 18335974316009003977
20671657 1 18339642372714668674
21028194 46 18273216395566325841
21524375 3 18200035174123400611
23559900 14 18261382378910236446
2748010 2 18337106740055708048
3248919 1 17749387040386879336
5084963 1 18043238059723886106
74978 22 18408601461639380642
8030462 33 17845938399154028690
81228 2 18125154923025553211

> <PUBCHEM_SHAPE_MULTIPOLES>
227.09
5.24
2.14
1
1.57
0.37
0.11
-2.37
0.03
-0.94
0.06
0.23
-0.08
-0.04

> <PUBCHEM_SHAPE_SELFOVERLAP>
424.616

> <PUBCHEM_SHAPE_VOLUME>
142.6

> <PUBCHEM_COORDINATE_TYPE>
2
5
10

$$$$

