6433481
  -OEChem-07051213102D

 65 68  0     1  0  0  0  0  0999 V2000
   13.6888   -1.4210    0.0000 O   0  0  0  0  0  0  0  0  0  0  0  0
   13.6888   -3.0304    0.0000 O   0  0  0  0  0  0  0  0  0  0  0  0
   11.8765   -0.2257    0.0000 O   0  0  0  0  0  0  0  0  0  0  0  0
   11.8765   -4.2257    0.0000 O   0  0  0  0  0  0  0  0  0  0  0  0
   10.1445   -3.2257    0.0000 O   0  0  0  0  0  0  0  0  0  0  0  0
    3.2733    1.8621    0.0000 O   0  0  0  0  0  0  0  0  0  0  0  0
    9.2785   -2.7257    0.0000 O   0  0  0  0  0  0  0  0  0  0  0  0
    4.0823    0.2743    0.0000 O   0  0  0  0  0  0  0  0  0  0  0  0
    5.1701    3.6222    0.0000 O   0  0  0  0  0  0  0  0  0  0  0  0
    5.8424    1.5531    0.0000 O   0  0  0  0  0  0  0  0  0  0  0  0
    3.4013    4.5357    0.0000 O   0  0  0  0  0  0  0  0  0  0  0  0
    4.0823   -1.7257    0.0000 O   0  0  0  0  0  0  0  0  0  0  0  0
   10.1445   -1.2257    0.0000 N   0  0  0  0  0  0  0  0  0  0  0  0
   12.7426   -1.7257    0.0000 C   0  0  2  0  0  0  0  0  0  0  0  0
   12.7426   -2.7257    0.0000 C   0  0  1  0  0  0  0  0  0  0  0  0
   11.0105   -1.7257    0.0000 C   0  0  1  0  0  0  0  0  0  0  0  0
   11.8765   -1.2257    0.0000 C   0  0  1  0  0  0  0  0  0  0  0  0
   11.8765   -3.2257    0.0000 C   0  0  1  0  0  0  0  0  0  0  0  0
   11.0105   -2.7257    0.0000 C   0  0  1  0  0  0  0  0  0  0  0  0
   14.2724   -2.2257    0.0000 C   0  0  0  0  0  0  0  0  0  0  0  0
    9.2785   -1.7257    0.0000 C   0  0  0  0  0  0  0  0  0  0  0  0
    4.5823    2.8131    0.0000 C   0  0  1  0  0  0  0  0  0  0  0  0
    4.8913    1.8621    0.0000 C   0  0  1  0  0  0  0  0  0  0  0  0
    3.5823    2.8131    0.0000 C   0  0  1  0  0  0  0  0  0  0  0  0
    4.0823    1.2743    0.0000 C   0  0  1  0  0  0  0  0  0  0  0  0
    8.4124   -1.2257    0.0000 C   0  0  0  0  0  0  0  0  0  0  0  0
    2.9945    3.6222    0.0000 C   0  0  0  0  0  0  0  0  0  0  0  0
    7.5464   -1.7257    0.0000 C   0  0  0  0  0  0  0  0  0  0  0  0
    8.4124   -0.2257    0.0000 C   0  0  0  0  0  0  0  0  0  0  0  0
    6.6804   -1.2257    0.0000 C   0  0  0  0  0  0  0  0  0  0  0  0
    4.9483   -0.2257    0.0000 C   0  0  0  0  0  0  0  0  0  0  0  0
    2.0000    3.5176    0.0000 C   0  0  0  0  0  0  0  0  0  0  0  0
    4.9483   -1.2257    0.0000 C   0  0  0  0  0  0  0  0  0  0  0  0
    5.8144   -1.7257    0.0000 C   0  0  0  0  0  0  0  0  0  0  0  0
    5.8144    0.2743    0.0000 C   0  0  0  0  0  0  0  0  0  0  0  0
    6.6804   -0.2257    0.0000 C   0  0  0  0  0  0  0  0  0  0  0  0
   12.8325   -0.8805    0.0000 H   0  0  0  0  0  0  0  0  0  0  0  0
   12.8325   -3.5709    0.0000 H   0  0  0  0  0  0  0  0  0  0  0  0
   11.0105   -1.1057    0.0000 H   0  0  0  0  0  0  0  0  0  0  0  0
   11.3396   -0.9157    0.0000 H   0  0  0  0  0  0  0  0  0  0  0  0
   11.3396   -3.5357    0.0000 H   0  0  0  0  0  0  0  0  0  0  0  0
   11.0105   -3.3457    0.0000 H   0  0  0  0  0  0  0  0  0  0  0  0
   14.7333   -2.6404    0.0000 H   0  0  0  0  0  0  0  0  0  0  0  0
   14.7333   -1.8110    0.0000 H   0  0  0  0  0  0  0  0  0  0  0  0
   10.1445   -0.6057    0.0000 H   0  0  0  0  0  0  0  0  0  0  0  0
   12.4135    0.0843    0.0000 H   0  0  0  0  0  0  0  0  0  0  0  0
   12.4135   -4.5357    0.0000 H   0  0  0  0  0  0  0  0  0  0  0  0
   10.1445   -3.8457    0.0000 H   0  0  0  0  0  0  0  0  0  0  0  0
    5.1947    2.7162    0.0000 H   0  0  0  0  0  0  0  0  0  0  0  0
    5.3297    2.3005    0.0000 H   0  0  0  0  0  0  0  0  0  0  0  0
    2.9699    2.7162    0.0000 H   0  0  0  0  0  0  0  0  0  0  0  0
    4.6347    0.9928    0.0000 H   0  0  0  0  0  0  0  0  0  0  0  0
    7.5464   -2.3457    0.0000 H   0  0  0  0  0  0  0  0  0  0  0  0
    9.0324   -0.2257    0.0000 H   0  0  0  0  0  0  0  0  0  0  0  0
    8.4124    0.3943    0.0000 H   0  0  0  0  0  0  0  0  0  0  0  0
    7.7924   -0.2257    0.0000 H   0  0  0  0  0  0  0  0  0  0  0  0
    5.7867    3.5574    0.0000 H   0  0  0  0  0  0  0  0  0  0  0  0
    6.3031    1.9679    0.0000 H   0  0  0  0  0  0  0  0  0  0  0  0
    1.9352    4.1342    0.0000 H   0  0  0  0  0  0  0  0  0  0  0  0
    1.3834    3.4528    0.0000 H   0  0  0  0  0  0  0  0  0  0  0  0
    2.0648    2.9010    0.0000 H   0  0  0  0  0  0  0  0  0  0  0  0
    5.8144   -2.3457    0.0000 H   0  0  0  0  0  0  0  0  0  0  0  0
    5.8144    0.8943    0.0000 H   0  0  0  0  0  0  0  0  0  0  0  0
    7.2173    0.0843    0.0000 H   0  0  0  0  0  0  0  0  0  0  0  0
    4.0823   -2.3457    0.0000 H   0  0  0  0  0  0  0  0  0  0  0  0
  1 14  1  0  0  0  0
  1 20  1  0  0  0  0
  2 15  1  0  0  0  0
  2 20  1  0  0  0  0
 17  3  1  1  0  0  0
  3 46  1  0  0  0  0
 18  4  1  6  0  0  0
  4 47  1  0  0  0  0
 19  5  1  1  0  0  0
  5 48  1  0  0  0  0
  6 24  1  0  0  0  0
  6 25  1  0  0  0  0
  7 21  2  0  0  0  0
 25  8  1  6  0  0  0
  8 31  1  0  0  0  0
 22  9  1  1  0  0  0
  9 57  1  0  0  0  0
 23 10  1  6  0  0  0
 10 58  1  0  0  0  0
 11 27  2  0  0  0  0
 12 33  1  0  0  0  0
 12 65  1  0  0  0  0
 16 13  1  1  0  0  0
 13 21  1  0  0  0  0
 13 45  1  0  0  0  0
 14 15  1  0  0  0  0
 14 17  1  0  0  0  0
 14 37  1  1  0  0  0
 15 18  1  0  0  0  0
 15 38  1  1  0  0  0
 16 17  1  0  0  0  0
 16 19  1  0  0  0  0
 16 39  1  0  0  0  0
 17 40  1  0  0  0  0
 18 19  1  0  0  0  0
 18 41  1  0  0  0  0
 19 42  1  0  0  0  0
 20 43  1  0  0  0  0
 20 44  1  0  0  0  0
 21 26  1  0  0  0  0
 22 23  1  0  0  0  0
 22 24  1  0  0  0  0
 22 49  1  0  0  0  0
 23 25  1  0  0  0  0
 23 50  1  0  0  0  0
 24 27  1  6  0  0  0
 24 51  1  0  0  0  0
 25 52  1  0  0  0  0
 26 28  2  0  0  0  0
 26 29  1  0  0  0  0
 27 32  1  0  0  0  0
 28 30  1  0  0  0  0
 28 53  1  0  0  0  0
 29 54  1  0  0  0  0
 29 55  1  0  0  0  0
 29 56  1  0  0  0  0
 30 34  2  0  0  0  0
 30 36  1  0  0  0  0
 31 33  2  0  0  0  0
 31 35  1  0  0  0  0
 32 59  1  0  0  0  0
 32 60  1  0  0  0  0
 32 61  1  0  0  0  0
 33 34  1  0  0  0  0
 34 62  1  0  0  0  0
 35 36  2  0  0  0  0
 35 63  1  0  0  0  0
 36 64  1  0  0  0  0
M  END
> <PUBCHEM_COMPOUND_CID>
6433481

> <PUBCHEM_COMPOUND_CANONICALIZED>
1

> <PUBCHEM_CACTVS_COMPLEXITY>
853

> <PUBCHEM_CACTVS_HBOND_ACCEPTOR>
12

> <PUBCHEM_CACTVS_HBOND_DONOR>
7

> <PUBCHEM_CACTVS_ROTATABLE_BOND>
6

> <PUBCHEM_CACTVS_SUBSKEYS>
AAADceB6PAAAAAAAAAAAAAAAAAAAASJAAAAwYAAAAAAAAEgBAAAAHgAQCAAADDzxmAcyDoLABgCIAqFSEAKCCAAgIAAIiIFOiMgfNjaGsR6meCOn9hGfuYf69B8OIAABAAAAQABCgAIUAACgAAAAAAAAAA==

> <PUBCHEM_IUPAC_OPENEYE_NAME>
(E)-N-[(3aS,4R,5R,6S,7R,7aR)-4,6,7-trihydroxy-3a,4,5,6,7,7a-hexahydro-1,3-benzodioxol-5-yl]-3-[4-[(2S,3S,4S,5S)-5-acetyl-3,4-dihydroxy-tetrahydrofuran-2-yl]oxy-3-hydroxy-phenyl]-2-methyl-prop-2-enamide

> <PUBCHEM_IUPAC_CAS_NAME>
(E)-N-[(3aS,4R,5R,6S,7R,7aR)-4,6,7-trihydroxy-3a,4,5,6,7,7a-hexahydro-1,3-benzodioxol-5-yl]-3-[4-[[(2S,3S,4S,5S)-5-acetyl-3,4-dihydroxy-2-oxolanyl]oxy]-3-hydroxyphenyl]-2-methyl-2-propenamide

> <PUBCHEM_IUPAC_NAME>
(E)-N-[(3aS,4R,5R,6S,7R,7aR)-4,6,7-trihydroxy-3a,4,5,6,7,7a-hexahydro-1,3-benzodioxol-5-yl]-3-[4-[(2S,3S,4S,5S)-5-acetyl-3,4-dihydroxyoxolan-2-yl]oxy-3-hydroxyphenyl]-2-methylprop-2-enamide

> <PUBCHEM_IUPAC_SYSTEMATIC_NAME>
(E)-N-[(3aS,4R,5R,6S,7R,7aR)-4,6,7-tris(oxidanyl)-3a,4,5,6,7,7a-hexahydro-1,3-benzodioxol-5-yl]-3-[4-[(2S,3S,4S,5S)-5-ethanoyl-3,4-bis(oxidanyl)oxolan-2-yl]oxy-3-oxidanyl-phenyl]-2-methyl-prop-2-enamide

> <PUBCHEM_IUPAC_TRADITIONAL_NAME>
(E)-N-[(3aS,4R,5R,6S,7R,7aR)-4,6,7-trihydroxy-3a,4,5,6,7,7a-hexahydro-1,3-benzodioxol-5-yl]-3-[4-[(2S,3S,4S,5S)-5-acetyl-3,4-dihydroxy-tetrahydrofuran-2-yl]oxy-3-hydroxy-phenyl]-2-methyl-acrylamide

> <PUBCHEM_IUPAC_INCHI>
InChI=1S/C23H29NO12/c1-8(22(32)24-13-14(27)16(29)21-20(15(13)28)33-7-34-21)5-10-3-4-12(11(26)6-10)35-23-18(31)17(30)19(36-23)9(2)25/h3-6,13-21,23,26-31H,7H2,1-2H3,(H,24,32)/b8-5+/t13-,14+,15-,16-,17+,18+,19-,20+,21-,23-/m1/s1

> <PUBCHEM_IUPAC_INCHIKEY>
YQYJSBFKSSDGFO-IIHALWDASA-N

> <PUBCHEM_XLOGP3_AA>
-1.8

> <PUBCHEM_EXACT_MASS>
511.168975

> <PUBCHEM_MOLECULAR_FORMULA>
C23H29NO12

> <PUBCHEM_MOLECULAR_WEIGHT>
511.47586

> <PUBCHEM_OPENEYE_CAN_SMILES>
CC(=CC1=CC(=C(C=C1)OC2C(C(C(O2)C(=O)C)O)O)O)C(=O)NC3C(C(C4C(C3O)OCO4)O)O

> <PUBCHEM_OPENEYE_ISO_SMILES>
C/C(=C\C1=CC(=C(C=C1)O[C@H]2[C@H]([C@@H]([C@H](O2)C(=O)C)O)O)O)/C(=O)N[C@@H]3[C@@H]([C@H]([C@@H]4[C@H]([C@@H]3O)OCO4)O)O

> <PUBCHEM_CACTVS_TPSA>
205

> <PUBCHEM_MONOISOTOPIC_WEIGHT>
511.168975

> <PUBCHEM_TOTAL_CHARGE>
0

> <PUBCHEM_HEAVY_ATOM_COUNT>
36

> <PUBCHEM_ATOM_DEF_STEREO_COUNT>
10

> <PUBCHEM_ATOM_UDEF_STEREO_COUNT>
0

> <PUBCHEM_BOND_DEF_STEREO_COUNT>
1

> <PUBCHEM_BOND_UDEF_STEREO_COUNT>
0

> <PUBCHEM_ISOTOPIC_ATOM_COUNT>
0

> <PUBCHEM_COMPONENT_COUNT>
1

> <PUBCHEM_CACTVS_TAUTO_COUNT>
78

> <PUBCHEM_COORDINATE_TYPE>
1
5
255

> <PUBCHEM_BONDANNOTATIONS>
23  10  6
16  13  5
14  37  5
15  38  5
24  27  6
17  3  5
30  34  8
30  36  8
31  33  8
31  35  8
33  34  8
35  36  8
18  4  6
19  5  5
25  8  6
22  9  5

$$$$

