46174002
  -OEChem-07051213113D

 27 29  0     1  0  0  0  0  0999 V2000
   -1.1031   -2.1550   -0.2411 O   0  0  0  0  0  0  0  0  0  0  0  0
   -2.2450    0.0796   -1.2000 O   0  0  0  0  0  0  0  0  0  0  0  0
   -0.2882    2.3311   -0.1730 O   0  0  0  0  0  0  0  0  0  0  0  0
    1.1119   -1.0317   -0.4379 C   0  0  2  0  0  0  0  0  0  0  0  0
    1.9986    0.0787    0.0606 C   0  0  0  0  0  0  0  0  0  0  0  0
    0.8471    0.3977   -0.8531 C   0  0  2  0  0  0  0  0  0  0  0  0
    0.0851   -1.7257    0.4336 C   0  0  1  0  0  0  0  0  0  0  0  0
   -1.2525   -1.0639    0.6813 C   0  0  1  0  0  0  0  0  0  0  0  0
   -1.5690    0.2718    0.0432 C   0  0  1  0  0  0  0  0  0  0  0  0
   -0.3328    1.1113   -0.2904 C   0  0  0  0  0  0  0  0  0  0  0  0
    1.8685    0.4763    1.4914 C   0  0  0  0  0  0  0  0  0  0  0  0
    3.3955    0.1592   -0.4566 C   0  0  0  0  0  0  0  0  0  0  0  0
   -2.5163    1.0706    0.9419 C   0  0  0  0  0  0  0  0  0  0  0  0
    1.5422   -1.6753   -1.2034 H   0  0  0  0  0  0  0  0  0  0  0  0
    1.0783    0.6568   -1.8815 H   0  0  0  0  0  0  0  0  0  0  0  0
    0.4679   -2.3845    1.2049 H   0  0  0  0  0  0  0  0  0  0  0  0
   -1.7644   -1.2658    1.6121 H   0  0  0  0  0  0  0  0  0  0  0  0
    2.5331   -0.1342    2.1135 H   0  0  0  0  0  0  0  0  0  0  0  0
    0.8643    0.3728    1.9119 H   0  0  0  0  0  0  0  0  0  0  0  0
    2.1661    1.5231    1.6214 H   0  0  0  0  0  0  0  0  0  0  0  0
    4.0549   -0.5113    0.1046 H   0  0  0  0  0  0  0  0  0  0  0  0
    3.7834    1.1791   -0.3621 H   0  0  0  0  0  0  0  0  0  0  0  0
    3.4593   -0.1212   -1.5138 H   0  0  0  0  0  0  0  0  0  0  0  0
   -3.4444    0.5149    1.1211 H   0  0  0  0  0  0  0  0  0  0  0  0
   -2.8079    2.0218    0.4814 H   0  0  0  0  0  0  0  0  0  0  0  0
   -2.0560    1.2890    1.9118 H   0  0  0  0  0  0  0  0  0  0  0  0
   -2.5421    0.9465   -1.5256 H   0  0  0  0  0  0  0  0  0  0  0  0
  1  7  1  0  0  0  0
  1  8  1  0  0  0  0
  2  9  1  0  0  0  0
  2 27  1  0  0  0  0
  3 10  2  0  0  0  0
  4  5  1  0  0  0  0
  4  6  1  0  0  0  0
  4  7  1  0  0  0  0
  4 14  1  0  0  0  0
  5  6  1  0  0  0  0
  5 11  1  0  0  0  0
  5 12  1  0  0  0  0
  6 10  1  0  0  0  0
  6 15  1  0  0  0  0
  7  8  1  0  0  0  0
  7 16  1  0  0  0  0
  8  9  1  0  0  0  0
  8 17  1  0  0  0  0
  9 10  1  0  0  0  0
  9 13  1  0  0  0  0
 11 18  1  0  0  0  0
 11 19  1  0  0  0  0
 11 20  1  0  0  0  0
 12 21  1  0  0  0  0
 12 22  1  0  0  0  0
 12 23  1  0  0  0  0
 13 24  1  0  0  0  0
 13 25  1  0  0  0  0
 13 26  1  0  0  0  0
M  END
> <PUBCHEM_COMPOUND_CID>
46174002

> <PUBCHEM_CONFORMER_RMSD>
0.4

> <PUBCHEM_CONFORMER_DIVERSEORDER>
1

> <PUBCHEM_MMFF94_PARTIAL_CHARGES>
17
1 -0.3
10 0.51
11 0.09
12 0.09
14 0.1
15 0.1
16 0.1
17 0.1
2 -0.68
27 0.4
3 -0.57
4 -0.1
5 -0.19
6 -0.1
7 0.05
8 -0.05
9 0.44

> <PUBCHEM_EFFECTIVE_ROTOR_COUNT>
0.6

> <PUBCHEM_PHARMACOPHORE_FEATURES>
6
1 1 acceptor
1 2 acceptor
1 2 donor
1 3 acceptor
3 5 11 12 hydrophobe
8 1 4 5 6 7 8 9 10 rings

> <PUBCHEM_HEAVY_ATOM_COUNT>
13

> <PUBCHEM_ATOM_DEF_STEREO_COUNT>
5

> <PUBCHEM_ATOM_UDEF_STEREO_COUNT>
0

> <PUBCHEM_BOND_DEF_STEREO_COUNT>
0

> <PUBCHEM_BOND_UDEF_STEREO_COUNT>
0

> <PUBCHEM_ISOTOPIC_ATOM_COUNT>
0

> <PUBCHEM_COMPONENT_COUNT>
1

> <PUBCHEM_CACTVS_TAUTO_COUNT>
2

> <PUBCHEM_CONFORMER_ID>
02C08F3200000001

> <PUBCHEM_MMFF94_ENERGY>
32.2443

> <PUBCHEM_FEATURE_SELFOVERLAP>
30.453

> <PUBCHEM_SHAPE_FINGERPRINT>
12423570 1 9174940018804618274
12491281 212 16878492544552957969
12524768 44 18411697694825471958
13024252 1 15482672355502066478
15076042 46 18057896920744249104
15557651 10 17968659444310520880
15775835 57 18115582802374433649
16945 1 18412267263434253120
193761 8 17835230152163007117
20653085 51 16732983119840406920
20871998 184 18263912276627547471
21040471 1 18411695521376919222
21922407 69 14547297008878661558
22802520 49 18189873453247314574
23235685 24 18341888631951866317
23402539 116 18260840275689067023
23419403 2 16315906271782265343
23559900 14 18334568058998544350
241688 4 18339361838272245656
2748010 2 18194964037238065828
369184 2 16343988009103605680
5084963 1 18187656841915912820
528886 8 18411691119040650737
54338 74 18126020268567076762

> <PUBCHEM_SHAPE_MULTIPOLES>
249.93
3.55
1.85
1.09
1.32
0.25
-0.19
-0.68
-0.09
-0.67
-0.03
0.03
-0.12
-0.02

> <PUBCHEM_SHAPE_SELFOVERLAP>
533.88

> <PUBCHEM_SHAPE_VOLUME>
139.8

> <PUBCHEM_COORDINATE_TYPE>
2
5
10

$$$$

