5281492
  -OEChem-07051212573D

 44 45  0     1  0  0  0  0  0999 V2000
    3.2068   -0.5948    0.7610 O   0  0  0  0  0  0  0  0  0  0  0  0
   -0.0061    1.9502    0.4161 O   0  0  0  0  0  0  0  0  0  0  0  0
    5.0730    0.7429    0.8015 O   0  0  0  0  0  0  0  0  0  0  0  0
   -3.2654    0.9192   -0.2546 O   0  0  0  0  0  0  0  0  0  0  0  0
   -4.0976    0.8724    1.9000 O   0  0  0  0  0  0  0  0  0  0  0  0
    1.7894    0.6671   -0.6777 C   0  0  1  0  0  0  0  0  0  0  0  0
    1.8191   -0.4085    0.4290 C   0  0  1  0  0  0  0  0  0  0  0  0
    0.4960    1.5122   -0.8424 C   0  0  1  0  0  0  0  0  0  0  0  0
   -0.6538    0.8932   -1.6848 C   0  0  0  0  0  0  0  0  0  0  0  0
    3.0199    1.4317   -0.2736 C   0  0  0  0  0  0  0  0  0  0  0  0
    1.2875   -1.7248   -0.0517 C   0  0  0  0  0  0  0  0  0  0  0  0
   -1.3963   -0.2947   -1.1028 C   0  0  0  0  0  0  0  0  0  0  0  0
    3.9144    0.5360    0.4893 C   0  0  0  0  0  0  0  0  0  0  0  0
    0.3594   -2.5062    0.5368 C   0  0  0  0  0  0  0  0  0  0  0  0
   -0.3895   -3.5017   -0.3364 C   0  0  0  0  0  0  0  0  0  0  0  0
   -1.6215   -2.8391   -1.0052 C   0  0  0  0  0  0  0  0  0  0  0  0
   -1.2441   -1.5216   -1.6461 C   0  0  0  0  0  0  0  0  0  0  0  0
   -2.2554   -0.0048    0.0983 C   0  0  0  0  0  0  0  0  0  0  0  0
    3.3664    2.7055   -0.4813 C   0  0  0  0  0  0  0  0  0  0  0  0
   -0.1319   -2.3720    1.9477 C   0  0  0  0  0  0  0  0  0  0  0  0
   -4.1300    1.2794    0.7465 C   0  0  0  0  0  0  0  0  0  0  0  0
   -5.1403    2.2586    0.2301 C   0  0  0  0  0  0  0  0  0  0  0  0
    2.0270    0.2189   -1.6536 H   0  0  0  0  0  0  0  0  0  0  0  0
    1.3077   -0.0640    1.3338 H   0  0  0  0  0  0  0  0  0  0  0  0
    0.7591    2.4252   -1.3906 H   0  0  0  0  0  0  0  0  0  0  0  0
   -0.2453    0.6356   -2.6710 H   0  0  0  0  0  0  0  0  0  0  0  0
   -1.3956    1.6805   -1.8759 H   0  0  0  0  0  0  0  0  0  0  0  0
    1.5793   -1.9753   -1.0723 H   0  0  0  0  0  0  0  0  0  0  0  0
    0.2755   -3.8960   -1.1164 H   0  0  0  0  0  0  0  0  0  0  0  0
   -0.7053   -4.3692    0.2550 H   0  0  0  0  0  0  0  0  0  0  0  0
   -2.4261   -2.7395   -0.2727 H   0  0  0  0  0  0  0  0  0  0  0  0
   -2.0111   -3.5078   -1.7821 H   0  0  0  0  0  0  0  0  0  0  0  0
   -0.6289   -1.6197   -2.5397 H   0  0  0  0  0  0  0  0  0  0  0  0
    0.7084    2.4236    0.8745 H   0  0  0  0  0  0  0  0  0  0  0  0
   -1.6562    0.3801    0.9276 H   0  0  0  0  0  0  0  0  0  0  0  0
   -2.7519   -0.9032    0.4713 H   0  0  0  0  0  0  0  0  0  0  0  0
    2.7304    3.3849   -1.0364 H   0  0  0  0  0  0  0  0  0  0  0  0
    4.3014    3.1107   -0.1079 H   0  0  0  0  0  0  0  0  0  0  0  0
   -0.0464   -3.3355    2.4616 H   0  0  0  0  0  0  0  0  0  0  0  0
   -1.1816   -2.0671    1.9701 H   0  0  0  0  0  0  0  0  0  0  0  0
    0.4440   -1.6498    2.5318 H   0  0  0  0  0  0  0  0  0  0  0  0
   -5.7221    1.8005   -0.5737 H   0  0  0  0  0  0  0  0  0  0  0  0
   -4.6339    3.1592   -0.1259 H   0  0  0  0  0  0  0  0  0  0  0  0
   -5.8217    2.5378    1.0388 H   0  0  0  0  0  0  0  0  0  0  0  0
  1  7  1  0  0  0  0
  1 13  1  0  0  0  0
  2  8  1  0  0  0  0
  2 34  1  0  0  0  0
  3 13  2  0  0  0  0
  4 18  1  0  0  0  0
  4 21  1  0  0  0  0
  5 21  2  0  0  0  0
  6  7  1  0  0  0  0
  6  8  1  0  0  0  0
  6 10  1  0  0  0  0
  6 23  1  0  0  0  0
  7 11  1  0  0  0  0
  7 24  1  0  0  0  0
  8  9  1  0  0  0  0
  8 25  1  0  0  0  0
  9 12  1  0  0  0  0
  9 26  1  0  0  0  0
  9 27  1  0  0  0  0
 10 13  1  0  0  0  0
 10 19  2  0  0  0  0
 11 14  2  0  0  0  0
 11 28  1  0  0  0  0
 12 17  2  0  0  0  0
 12 18  1  0  0  0  0
 14 15  1  0  0  0  0
 14 20  1  0  0  0  0
 15 16  1  0  0  0  0
 15 29  1  0  0  0  0
 15 30  1  0  0  0  0
 16 17  1  0  0  0  0
 16 31  1  0  0  0  0
 16 32  1  0  0  0  0
 17 33  1  0  0  0  0
 18 35  1  0  0  0  0
 18 36  1  0  0  0  0
 19 37  1  0  0  0  0
 19 38  1  0  0  0  0
 20 39  1  0  0  0  0
 20 40  1  0  0  0  0
 20 41  1  0  0  0  0
 21 22  1  0  0  0  0
 22 42  1  0  0  0  0
 22 43  1  0  0  0  0
 22 44  1  0  0  0  0
M  END
> <PUBCHEM_COMPOUND_CID>
5281492

> <PUBCHEM_CONFORMER_RMSD>
0.6

> <PUBCHEM_CONFORMER_DIVERSEORDER>
3
36
4
42
1
5
17
8
18
25
11
45
22
2
9
52
32
41
46
24
21
15
7
20
14
29
55
37
35
16
10
53
40
12
47
38
28
33
51
44
50
26
13
34
49
43
39
23
19
31
54
30
27
6
48

> <PUBCHEM_MMFF94_PARTIAL_CHARGES>
27
1 -0.43
10 -0.12
11 -0.29
12 -0.28
13 0.71
14 -0.28
15 0.14
16 0.14
17 -0.29
18 0.42
19 -0.3
2 -0.68
20 0.14
21 0.66
22 0.06
28 0.15
3 -0.57
33 0.15
34 0.4
37 0.15
38 0.15
4 -0.43
5 -0.57
6 0.14
7 0.42
8 0.28
9 0.14

> <PUBCHEM_EFFECTIVE_ROTOR_COUNT>
4

> <PUBCHEM_PHARMACOPHORE_FEATURES>
5
1 2 acceptor
1 2 donor
1 3 acceptor
1 5 acceptor
5 1 6 7 10 13 rings

> <PUBCHEM_HEAVY_ATOM_COUNT>
22

> <PUBCHEM_ATOM_DEF_STEREO_COUNT>
3

> <PUBCHEM_ATOM_UDEF_STEREO_COUNT>
0

> <PUBCHEM_BOND_DEF_STEREO_COUNT>
2

> <PUBCHEM_BOND_UDEF_STEREO_COUNT>
0

> <PUBCHEM_ISOTOPIC_ATOM_COUNT>
0

> <PUBCHEM_COMPONENT_COUNT>
1

> <PUBCHEM_CACTVS_TAUTO_COUNT>
1

> <PUBCHEM_CONFORMER_ID>
005096D400000003

> <PUBCHEM_MMFF94_ENERGY>
51.3149

> <PUBCHEM_FEATURE_SELFOVERLAP>
25.371

> <PUBCHEM_SHAPE_FINGERPRINT>
10064457 181 18341607079671051681
10382601 240 18198624521810873339
104564 63 17909255889342320398
10493431 412 18409452479075487997
10948715 1 18408882923530898287
1100329 8 18337114479945945976
11640471 11 18040714814003671841
12633257 1 18270415914387614180
12788726 201 17974566897270294871
13140716 1 18343025462930337466
13583140 156 14978580316668889732
14081887 123 17543084380971952184
14142880 1 18268721527771303759
14251757 17 4822937872053690705
15420108 30 18189904282891765517
15534591 1 18186806850750623367
16945 1 17986417558464747806
17138139 8 17753646510395636623
1813 80 11815889089824434329
20157964 124 18194968659499167453
20739085 24 18198615738771551508
21197605 99 18270665469352342371
21403212 168 18264497345857559477
21731228 192 18413669106157556907
23184049 59 18343582970848886860
23419403 2 17323175698633558831
23558518 356 18048885082851417021
2748010 2 17547878681155346222
298252 57 17385442120203376999
31174 14 17911238644010023335
4340502 62 18343575266278925441
474 4 18410856590000050801
5104073 3 18126300657893294088
6438718 38 18043243548507532871
81228 2 17626118446713087290
8272917 22 18266455606532339169

> <PUBCHEM_SHAPE_MULTIPOLES>
423.4
7.64
3.62
1.47
1.54
2.25
0.12
-7.49
2.9
0.99
-0.07
0.78
0.42
-1.2

> <PUBCHEM_SHAPE_SELFOVERLAP>
871.377

> <PUBCHEM_SHAPE_VOLUME>
241.5

> <PUBCHEM_COORDINATE_TYPE>
2
5
10

$$$$

