15429182
  -OEChem-07051212513D

 53 54  0     1  0  0  0  0  0999 V2000
    3.7921   -1.8325   -2.1831 O   0  0  0  0  0  0  0  0  0  0  0  0
    3.5743    0.5776    1.9244 O   0  0  0  0  0  0  0  0  0  0  0  0
   -3.2766   -2.5791    1.4796 O   0  0  0  0  0  0  0  0  0  0  0  0
    0.3403    1.1022    0.1298 O   0  0  0  0  0  0  0  0  0  0  0  0
   -2.7705    0.3578    1.8200 O   0  0  0  0  0  0  0  0  0  0  0  0
   -0.5832    3.5745   -0.6940 O   0  0  0  0  0  0  0  0  0  0  0  0
   -3.9350    2.6584    0.8221 O   0  0  0  0  0  0  0  0  0  0  0  0
    2.9314   -0.3736   -0.0910 N   0  0  0  0  0  0  0  0  0  0  0  0
   -1.9175   -2.6884   -0.3971 N   0  0  0  0  0  0  0  0  0  0  0  0
    4.4508   -3.5936   -0.8646 N   0  0  0  0  0  0  0  0  0  0  0  0
    2.2728   -2.5329    0.9007 C   0  0  0  0  0  0  0  0  0  0  0  0
    1.0399   -2.8000    0.0265 C   0  0  0  0  0  0  0  0  0  0  0  0
    3.3671   -1.7134    0.2065 C   0  0  1  0  0  0  0  0  0  0  0  0
    0.0202   -3.6740    0.7652 C   0  0  0  0  0  0  0  0  0  0  0  0
   -1.2461   -3.9114   -0.0516 C   0  0  0  0  0  0  0  0  0  0  0  0
    3.8691   -2.3618   -1.0767 C   0  0  0  0  0  0  0  0  0  0  0  0
    3.0738    0.6760    0.8070 C   0  0  0  0  0  0  0  0  0  0  0  0
    2.5498    1.9923    0.3599 C   0  0  0  0  0  0  0  0  0  0  0  0
   -2.8928   -2.1138    0.4097 C   0  0  0  0  0  0  0  0  0  0  0  0
   -3.5105   -0.8627   -0.1008 C   0  0  0  0  0  0  0  0  0  0  0  0
    1.2021    2.1557    0.0393 C   0  0  0  0  0  0  0  0  0  0  0  0
    3.4256    3.0736    0.2641 C   0  0  0  0  0  0  0  0  0  0  0  0
   -3.4247    0.3263    0.6235 C   0  0  0  0  0  0  0  0  0  0  0  0
   -4.1819   -0.8880   -1.3232 C   0  0  0  0  0  0  0  0  0  0  0  0
    0.7303    3.4005   -0.3775 C   0  0  0  0  0  0  0  0  0  0  0  0
    2.9539    4.3183   -0.1526 C   0  0  0  0  0  0  0  0  0  0  0  0
    1.6062    4.4818   -0.4734 C   0  0  0  0  0  0  0  0  0  0  0  0
   -4.0108    1.4901    0.1255 C   0  0  0  0  0  0  0  0  0  0  0  0
   -4.7678    0.2756   -1.8211 C   0  0  0  0  0  0  0  0  0  0  0  0
   -4.6823    1.4646   -1.0969 C   0  0  0  0  0  0  0  0  0  0  0  0
    1.9539   -2.0086    1.8109 H   0  0  0  0  0  0  0  0  0  0  0  0
    2.6864   -3.4943    1.2289 H   0  0  0  0  0  0  0  0  0  0  0  0
    0.5851   -1.8433   -0.2528 H   0  0  0  0  0  0  0  0  0  0  0  0
    1.3320   -3.3038   -0.9018 H   0  0  0  0  0  0  0  0  0  0  0  0
    4.2254   -1.6434    0.8876 H   0  0  0  0  0  0  0  0  0  0  0  0
   -0.2460   -3.1936    1.7150 H   0  0  0  0  0  0  0  0  0  0  0  0
    0.4738   -4.6419    1.0096 H   0  0  0  0  0  0  0  0  0  0  0  0
   -1.9325   -4.5533    0.5115 H   0  0  0  0  0  0  0  0  0  0  0  0
   -1.0025   -4.4233   -0.9887 H   0  0  0  0  0  0  0  0  0  0  0  0
    2.4871   -0.1987   -0.9883 H   0  0  0  0  0  0  0  0  0  0  0  0
   -1.6600   -2.2322   -1.2677 H   0  0  0  0  0  0  0  0  0  0  0  0
    4.5400   -4.0060    0.0582 H   0  0  0  0  0  0  0  0  0  0  0  0
    4.8311   -4.1284   -1.6385 H   0  0  0  0  0  0  0  0  0  0  0  0
    4.4781    2.9588    0.5098 H   0  0  0  0  0  0  0  0  0  0  0  0
   -4.2607   -1.8078   -1.8971 H   0  0  0  0  0  0  0  0  0  0  0  0
    3.6359    5.1602   -0.2277 H   0  0  0  0  0  0  0  0  0  0  0  0
    1.2523    5.4570   -0.7968 H   0  0  0  0  0  0  0  0  0  0  0  0
   -5.2916    0.2558   -2.7724 H   0  0  0  0  0  0  0  0  0  0  0  0
   -5.1434    2.3637   -1.4968 H   0  0  0  0  0  0  0  0  0  0  0  0
   -0.5456    1.4052   -0.1347 H   0  0  0  0  0  0  0  0  0  0  0  0
   -2.4014   -0.5151    2.0300 H   0  0  0  0  0  0  0  0  0  0  0  0
   -0.7257    4.4991   -0.9600 H   0  0  0  0  0  0  0  0  0  0  0  0
   -4.3950    3.3552    0.3233 H   0  0  0  0  0  0  0  0  0  0  0  0
  1 16  2  0  0  0  0
  2 17  2  0  0  0  0
  3 19  2  0  0  0  0
  4 21  1  0  0  0  0
  4 50  1  0  0  0  0
  5 23  1  0  0  0  0
  5 51  1  0  0  0  0
  6 25  1  0  0  0  0
  6 52  1  0  0  0  0
  7 28  1  0  0  0  0
  7 53  1  0  0  0  0
  8 13  1  0  0  0  0
  8 17  1  0  0  0  0
  8 40  1  0  0  0  0
  9 15  1  0  0  0  0
  9 19  1  0  0  0  0
  9 41  1  0  0  0  0
 10 16  1  0  0  0  0
 10 42  1  0  0  0  0
 10 43  1  0  0  0  0
 11 12  1  0  0  0  0
 11 13  1  0  0  0  0
 11 31  1  0  0  0  0
 11 32  1  0  0  0  0
 12 14  1  0  0  0  0
 12 33  1  0  0  0  0
 12 34  1  0  0  0  0
 13 16  1  0  0  0  0
 13 35  1  0  0  0  0
 14 15  1  0  0  0  0
 14 36  1  0  0  0  0
 14 37  1  0  0  0  0
 15 38  1  0  0  0  0
 15 39  1  0  0  0  0
 17 18  1  0  0  0  0
 18 21  2  0  0  0  0
 18 22  1  0  0  0  0
 19 20  1  0  0  0  0
 20 23  2  0  0  0  0
 20 24  1  0  0  0  0
 21 25  1  0  0  0  0
 22 26  2  0  0  0  0
 22 44  1  0  0  0  0
 23 28  1  0  0  0  0
 24 29  2  0  0  0  0
 24 45  1  0  0  0  0
 25 27  2  0  0  0  0
 26 27  1  0  0  0  0
 26 46  1  0  0  0  0
 27 47  1  0  0  0  0
 28 30  2  0  0  0  0
 29 30  1  0  0  0  0
 29 48  1  0  0  0  0
 30 49  1  0  0  0  0
M  END
> <PUBCHEM_COMPOUND_CID>
15429182

> <PUBCHEM_CONFORMER_RMSD>
1.2

> <PUBCHEM_CONFORMER_DIVERSEORDER>
1
167
124
67
47
58
2
69
56
152
149
153
119
61
76
87
24
141
54
116
115
171
17
16
28
75
98
70
13
40
159
48
122
21
140
143
138
36
95
53
63
15
139
37
136
161
46
134
96
33
32
127
130
45
50
101
60
49
91
129
120
132
55
57
125
77
155
3
27
166
147
43
100
108
51
114
103
39
80
123
172
59
133
107
44
162
160
4
5
79
97
64
128
38
144
19
126
165
146
81
74
168
12
25
30
142
102
145
105
135
29
88
65
84
99
137
157
104
18
106
7
110
111
89
94
92
62
78
131
163
31
52
85
93
14
170
73
41
66
26
82
121
23
72
34
71
83
42
11
90
22
150
156
118
109
113
164
154
148
86
8
169
68
117
35
6
158
112
10
151
20
9

> <PUBCHEM_MMFF94_PARTIAL_CHARGES>
41
1 -0.57
10 -0.8
13 0.36
15 0.3
16 0.57
17 0.54
18 0.09
19 0.54
2 -0.57
20 0.09
21 0.08
22 -0.15
23 0.08
24 -0.15
25 0.08
26 -0.15
27 -0.15
28 0.08
29 -0.15
3 -0.57
30 -0.15
4 -0.53
40 0.37
41 0.37
42 0.37
43 0.37
44 0.15
45 0.15
46 0.15
47 0.15
48 0.15
49 0.15
5 -0.53
50 0.45
51 0.45
52 0.45
53 0.45
6 -0.53
7 -0.53
8 -0.73
9 -0.73

> <PUBCHEM_EFFECTIVE_ROTOR_COUNT>
11

> <PUBCHEM_PHARMACOPHORE_FEATURES>
12
1 1 acceptor
1 10 donor
1 2 acceptor
1 3 acceptor
1 4 donor
1 5 donor
1 6 donor
1 7 donor
1 8 donor
1 9 donor
6 18 21 22 25 26 27 rings
6 20 23 24 28 29 30 rings

> <PUBCHEM_HEAVY_ATOM_COUNT>
30

> <PUBCHEM_ATOM_DEF_STEREO_COUNT>
1

> <PUBCHEM_ATOM_UDEF_STEREO_COUNT>
0

> <PUBCHEM_BOND_DEF_STEREO_COUNT>
0

> <PUBCHEM_BOND_UDEF_STEREO_COUNT>
0

> <PUBCHEM_ISOTOPIC_ATOM_COUNT>
0

> <PUBCHEM_COMPONENT_COUNT>
1

> <PUBCHEM_CACTVS_TAUTO_COUNT>
998

> <PUBCHEM_CONFORMER_ID>
00EB6E3E00000001

> <PUBCHEM_MMFF94_ENERGY>
71.5449

> <PUBCHEM_FEATURE_SELFOVERLAP>
60.903

> <PUBCHEM_SHAPE_FINGERPRINT>
11513181 2 18114180809011088950
12422481 6 18189922871694930394
12553582 1 18196650915608107763
12788726 201 17693938904989455890
12978246 48 18124321497427162049
13122387 1 18339360747514128169
13533116 47 18261401014298885085
14117953 113 18339661025921165556
14251764 38 18338241474873951791
19930381 70 18269006447860002829
20621476 13 18411991264324684055
20764821 26 17259630764230343329
21860390 5 18333455339581858150
325973 47 18411423903582501861
354706 35 17544782039768007637
4280585 95 18338521966603793162
463206 1 18196362834892502872
5081480 168 17970037055403354030
550186 7 16895937061338408148

> <PUBCHEM_SHAPE_MULTIPOLES>
561.36
9.91
6.76
1.39
5.6
1.1
0.15
0.63
1.9
-5.46
0.63
0.27
-0.47
1.41

> <PUBCHEM_SHAPE_SELFOVERLAP>
1183.997

> <PUBCHEM_SHAPE_VOLUME>
311.4

> <PUBCHEM_COORDINATE_TYPE>
2
5
10

$$$$

