38687
  -OEChem-07051213122D

 33 34  0     1  0  0  0  0  0999 V2000
    2.0000   -1.4050    0.0000 Cl  0  0  0  0  0  0  0  0  0  0  0  0
    3.7320   -4.4050    0.0000 Cl  0  0  0  0  0  0  0  0  0  0  0  0
    7.1962    1.5950    0.0000 O   0  0  0  0  0  0  0  0  0  0  0  0
    3.7320   -0.4050    0.0000 O   0  0  0  0  0  0  0  0  0  0  0  0
    8.0622    4.0950    0.0000 O   0  0  0  0  0  0  0  0  0  0  0  0
    8.9282    2.5950    0.0000 O   0  0  0  0  0  0  0  0  0  0  0  0
    7.1962    2.5950    0.0000 C   0  0  3  0  0  0  0  0  0  0  0  0
    6.3301    1.0950    0.0000 C   0  0  0  0  0  0  0  0  0  0  0  0
    4.5981    0.0950    0.0000 C   0  0  0  0  0  0  0  0  0  0  0  0
    5.4641    1.5950    0.0000 C   0  0  0  0  0  0  0  0  0  0  0  0
    6.3301    0.0950    0.0000 C   0  0  0  0  0  0  0  0  0  0  0  0
    4.5981    1.0950    0.0000 C   0  0  0  0  0  0  0  0  0  0  0  0
    5.4641   -0.4050    0.0000 C   0  0  0  0  0  0  0  0  0  0  0  0
    6.3301    3.0950    0.0000 C   0  0  0  0  0  0  0  0  0  0  0  0
    3.7320   -1.4050    0.0000 C   0  0  0  0  0  0  0  0  0  0  0  0
    8.0622    3.0950    0.0000 C   0  0  0  0  0  0  0  0  0  0  0  0
    2.8660   -1.9050    0.0000 C   0  0  0  0  0  0  0  0  0  0  0  0
    4.5981   -1.9050    0.0000 C   0  0  0  0  0  0  0  0  0  0  0  0
    2.8660   -2.9050    0.0000 C   0  0  0  0  0  0  0  0  0  0  0  0
    4.5981   -2.9050    0.0000 C   0  0  0  0  0  0  0  0  0  0  0  0
    3.7320   -3.4050    0.0000 C   0  0  0  0  0  0  0  0  0  0  0  0
    6.6592    2.2850    0.0000 H   0  0  0  0  0  0  0  0  0  0  0  0
    5.4641    2.2150    0.0000 H   0  0  0  0  0  0  0  0  0  0  0  0
    6.8671   -0.2150    0.0000 H   0  0  0  0  0  0  0  0  0  0  0  0
    4.0611    1.4050    0.0000 H   0  0  0  0  0  0  0  0  0  0  0  0
    5.4641   -1.0250    0.0000 H   0  0  0  0  0  0  0  0  0  0  0  0
    6.6401    3.6319    0.0000 H   0  0  0  0  0  0  0  0  0  0  0  0
    5.7932    3.4050    0.0000 H   0  0  0  0  0  0  0  0  0  0  0  0
    6.0201    2.5581    0.0000 H   0  0  0  0  0  0  0  0  0  0  0  0
    5.1350   -1.5950    0.0000 H   0  0  0  0  0  0  0  0  0  0  0  0
    2.3291   -3.2150    0.0000 H   0  0  0  0  0  0  0  0  0  0  0  0
    5.1350   -3.2150    0.0000 H   0  0  0  0  0  0  0  0  0  0  0  0
    8.5991    4.4050    0.0000 H   0  0  0  0  0  0  0  0  0  0  0  0
  1 17  1  0  0  0  0
  2 21  1  0  0  0  0
  3  7  1  0  0  0  0
  3  8  1  0  0  0  0
  4  9  1  0  0  0  0
  4 15  1  0  0  0  0
  5 16  1  0  0  0  0
  5 33  1  0  0  0  0
  6 16  2  0  0  0  0
  7 14  1  0  0  0  0
  7 16  1  0  0  0  0
  7 22  1  0  0  0  0
  8 10  2  0  0  0  0
  8 11  1  0  0  0  0
  9 12  2  0  0  0  0
  9 13  1  0  0  0  0
 10 12  1  0  0  0  0
 10 23  1  0  0  0  0
 11 13  2  0  0  0  0
 11 24  1  0  0  0  0
 12 25  1  0  0  0  0
 13 26  1  0  0  0  0
 14 27  1  0  0  0  0
 14 28  1  0  0  0  0
 14 29  1  0  0  0  0
 15 17  2  0  0  0  0
 15 18  1  0  0  0  0
 17 19  1  0  0  0  0
 18 20  2  0  0  0  0
 18 30  1  0  0  0  0
 19 21  2  0  0  0  0
 19 31  1  0  0  0  0
 20 21  1  0  0  0  0
 20 32  1  0  0  0  0
M  END
> <PUBCHEM_COMPOUND_CID>
38687

> <PUBCHEM_COMPOUND_CANONICALIZED>
1

> <PUBCHEM_CACTVS_COMPLEXITY>
345

> <PUBCHEM_CACTVS_HBOND_ACCEPTOR>
4

> <PUBCHEM_CACTVS_HBOND_DONOR>
1

> <PUBCHEM_CACTVS_ROTATABLE_BOND>
5

> <PUBCHEM_CACTVS_SUBSKEYS>
AAADccBwOAAGAAAAAAAAAAAAAAAAAAAAAAAwYAAAAAAAAAABQAAAGgIACAAACBagkCIyDoAABgCIACDSCAICCAAgJUAIiAFGC4gNJiOFMx6CeCCkwBELqAfAQAAAASAAAACACAACQAAAAQAQAAAAAAAAAA==

> <PUBCHEM_IUPAC_OPENEYE_NAME>
2-[4-(2,4-dichlorophenoxy)phenoxy]propanoic acid

> <PUBCHEM_IUPAC_CAS_NAME>
2-[4-(2,4-dichlorophenoxy)phenoxy]propanoic acid

> <PUBCHEM_IUPAC_NAME>
2-[4-(2,4-dichlorophenoxy)phenoxy]propanoic acid

> <PUBCHEM_IUPAC_SYSTEMATIC_NAME>
2-[4-[2,4-bis(chloranyl)phenoxy]phenoxy]propanoic acid

> <PUBCHEM_IUPAC_TRADITIONAL_NAME>
2-[4-(2,4-dichlorophenoxy)phenoxy]propionic acid

> <PUBCHEM_IUPAC_INCHI>
InChI=1S/C15H12Cl2O4/c1-9(15(18)19)20-11-3-5-12(6-4-11)21-14-7-2-10(16)8-13(14)17/h2-9H,1H3,(H,18,19)

> <PUBCHEM_IUPAC_INCHIKEY>
OOLBCHYXZDXLDS-UHFFFAOYSA-N

> <PUBCHEM_XLOGP3>
5

> <PUBCHEM_EXACT_MASS>
326.011264

> <PUBCHEM_MOLECULAR_FORMULA>
C15H12Cl2O4

> <PUBCHEM_MOLECULAR_WEIGHT>
327.15938

> <PUBCHEM_OPENEYE_CAN_SMILES>
CC(C(=O)O)OC1=CC=C(C=C1)OC2=C(C=C(C=C2)Cl)Cl

> <PUBCHEM_OPENEYE_ISO_SMILES>
CC(C(=O)O)OC1=CC=C(C=C1)OC2=C(C=C(C=C2)Cl)Cl

> <PUBCHEM_CACTVS_TPSA>
55.8

> <PUBCHEM_MONOISOTOPIC_WEIGHT>
326.011264

> <PUBCHEM_TOTAL_CHARGE>
0

> <PUBCHEM_HEAVY_ATOM_COUNT>
21

> <PUBCHEM_ATOM_DEF_STEREO_COUNT>
0

> <PUBCHEM_ATOM_UDEF_STEREO_COUNT>
1

> <PUBCHEM_BOND_DEF_STEREO_COUNT>
0

> <PUBCHEM_BOND_UDEF_STEREO_COUNT>
0

> <PUBCHEM_ISOTOPIC_ATOM_COUNT>
0

> <PUBCHEM_COMPONENT_COUNT>
1

> <PUBCHEM_CACTVS_TAUTO_COUNT>
1

> <PUBCHEM_COORDINATE_TYPE>
1
5
255

> <PUBCHEM_BONDANNOTATIONS>
10  12  8
11  13  8
15  17  8
15  18  8
17  19  8
18  20  8
19  21  8
20  21  8
7  14  3
8  10  8
8  11  8
9  12  8
9  13  8

$$$$

