711
  -OEChem-07051212462D

 54 56  0     1  0  0  0  0  0999 V2000
    3.3100    3.6123    0.0000 P   0  0  0  0  0  0  0  0  0  0  0  0
    4.1760   -0.8877    0.0000 O   0  0  0  0  0  0  0  0  0  0  0  0
    5.9081    1.1123    0.0000 O   0  0  0  0  0  0  0  0  0  0  0  0
    3.3100    0.6123    0.0000 O   0  0  0  0  0  0  0  0  0  0  0  0
    3.3100    2.6123    0.0000 O   0  0  0  0  0  0  0  0  0  0  0  0
    7.6565   -4.9223    0.0000 O   0  0  0  0  0  0  0  0  0  0  0  0
    9.4382   -1.8636    0.0000 O   0  0  0  0  0  0  0  0  0  0  0  0
    3.3100    4.6123    0.0000 O   0  0  0  0  0  0  0  0  0  0  0  0
    2.3100    3.6123    0.0000 O   0  0  0  0  0  0  0  0  0  0  0  0
    4.3100    3.6123    0.0000 O   0  0  0  0  0  0  0  0  0  0  0  0
    5.9081   -1.8877    0.0000 N   0  0  0  0  0  0  0  0  0  0  0  0
    5.9081   -3.8877    0.0000 N   0  0  0  0  0  0  0  0  0  0  0  0
    7.6680   -1.8530    0.0000 N   0  0  0  0  0  0  0  0  0  0  0  0
    8.5741   -3.4085    0.0000 N   0  0  0  0  0  0  0  0  0  0  0  0
    5.0420   -0.3877    0.0000 C   0  0  3  0  0  0  0  0  0  0  0  0
    5.9081   -0.8877    0.0000 C   0  0  0  0  0  0  0  0  0  0  0  0
    5.0420    0.6123    0.0000 C   0  0  3  0  0  0  0  0  0  0  0  0
    5.0420   -2.3877    0.0000 C   0  0  0  0  0  0  0  0  0  0  0  0
    6.7741   -2.3877    0.0000 C   0  0  0  0  0  0  0  0  0  0  0  0
    4.1760    1.1123    0.0000 C   0  0  3  0  0  0  0  0  0  0  0  0
    5.0420   -3.3877    0.0000 C   0  0  0  0  0  0  0  0  0  0  0  0
    6.7741   -3.3877    0.0000 C   0  0  0  0  0  0  0  0  0  0  0  0
    4.1481   -1.8530    0.0000 C   0  0  0  0  0  0  0  0  0  0  0  0
    4.1760    2.1123    0.0000 C   0  0  0  0  0  0  0  0  0  0  0  0
    4.1481   -3.9224    0.0000 C   0  0  0  0  0  0  0  0  0  0  0  0
    3.2420   -2.3669    0.0000 C   0  0  0  0  0  0  0  0  0  0  0  0
    3.2420   -3.4085    0.0000 C   0  0  0  0  0  0  0  0  0  0  0  0
    7.6680   -3.9224    0.0000 C   0  0  0  0  0  0  0  0  0  0  0  0
    8.5741   -2.3669    0.0000 C   0  0  0  0  0  0  0  0  0  0  0  0
    2.3779   -1.8636    0.0000 C   0  0  0  0  0  0  0  0  0  0  0  0
    2.3779   -3.9118    0.0000 C   0  0  0  0  0  0  0  0  0  0  0  0
    5.0420   -1.2377    0.0000 H   0  0  0  0  0  0  0  0  0  0  0  0
    6.5187   -0.9954    0.0000 H   0  0  0  0  0  0  0  0  0  0  0  0
    6.1201   -0.3051    0.0000 H   0  0  0  0  0  0  0  0  0  0  0  0
    5.0420    1.4623    0.0000 H   0  0  0  0  0  0  0  0  0  0  0  0
    4.1760    0.2623    0.0000 H   0  0  0  0  0  0  0  0  0  0  0  0
    5.9081   -4.5077    0.0000 H   0  0  0  0  0  0  0  0  0  0  0  0
    4.1553   -1.2331    0.0000 H   0  0  0  0  0  0  0  0  0  0  0  0
    4.7866    2.0046    0.0000 H   0  0  0  0  0  0  0  0  0  0  0  0
    4.3881    2.6949    0.0000 H   0  0  0  0  0  0  0  0  0  0  0  0
    4.1553   -4.5423    0.0000 H   0  0  0  0  0  0  0  0  0  0  0  0
    7.6609   -1.2331    0.0000 H   0  0  0  0  0  0  0  0  0  0  0  0
    3.6391   -0.5777    0.0000 H   0  0  0  0  0  0  0  0  0  0  0  0
    5.9081    1.7323    0.0000 H   0  0  0  0  0  0  0  0  0  0  0  0
    2.7731    0.9223    0.0000 H   0  0  0  0  0  0  0  0  0  0  0  0
    9.1098   -3.7206    0.0000 H   0  0  0  0  0  0  0  0  0  0  0  0
    2.6900   -1.3278    0.0000 H   0  0  0  0  0  0  0  0  0  0  0  0
    1.8422   -1.5515    0.0000 H   0  0  0  0  0  0  0  0  0  0  0  0
    2.0659   -2.3993    0.0000 H   0  0  0  0  0  0  0  0  0  0  0  0
    2.0659   -3.3761    0.0000 H   0  0  0  0  0  0  0  0  0  0  0  0
    1.8422   -4.2239    0.0000 H   0  0  0  0  0  0  0  0  0  0  0  0
    2.6900   -4.4476    0.0000 H   0  0  0  0  0  0  0  0  0  0  0  0
    2.7731    4.9223    0.0000 H   0  0  0  0  0  0  0  0  0  0  0  0
    2.0000    3.0754    0.0000 H   0  0  0  0  0  0  0  0  0  0  0  0
  1  5  1  0  0  0  0
  1  8  1  0  0  0  0
  1  9  1  0  0  0  0
  1 10  2  0  0  0  0
  2 15  1  0  0  0  0
  2 43  1  0  0  0  0
  3 17  1  0  0  0  0
  3 44  1  0  0  0  0
  4 20  1  0  0  0  0
  4 45  1  0  0  0  0
  5 24  1  0  0  0  0
  6 28  2  0  0  0  0
  7 29  2  0  0  0  0
  8 53  1  0  0  0  0
  9 54  1  0  0  0  0
 11 16  1  0  0  0  0
 11 18  1  0  0  0  0
 11 19  1  0  0  0  0
 12 21  1  0  0  0  0
 12 22  1  0  0  0  0
 12 37  1  0  0  0  0
 13 19  1  0  0  0  0
 13 29  1  0  0  0  0
 13 42  1  0  0  0  0
 14 28  1  0  0  0  0
 14 29  1  0  0  0  0
 14 46  1  0  0  0  0
 15 16  1  0  0  0  0
 15 17  1  0  0  0  0
 15 32  1  0  0  0  0
 16 33  1  0  0  0  0
 16 34  1  0  0  0  0
 17 20  1  0  0  0  0
 17 35  1  0  0  0  0
 18 21  2  0  0  0  0
 18 23  1  0  0  0  0
 19 22  2  0  0  0  0
 20 24  1  0  0  0  0
 20 36  1  0  0  0  0
 21 25  1  0  0  0  0
 22 28  1  0  0  0  0
 23 26  2  0  0  0  0
 23 38  1  0  0  0  0
 24 39  1  0  0  0  0
 24 40  1  0  0  0  0
 25 27  2  0  0  0  0
 25 41  1  0  0  0  0
 26 27  1  0  0  0  0
 26 30  1  0  0  0  0
 27 31  1  0  0  0  0
 30 47  1  0  0  0  0
 30 48  1  0  0  0  0
 30 49  1  0  0  0  0
 31 50  1  0  0  0  0
 31 51  1  0  0  0  0
 31 52  1  0  0  0  0
M  END
> <PUBCHEM_COMPOUND_CID>
711

> <PUBCHEM_COMPOUND_CANONICALIZED>
1

> <PUBCHEM_CACTVS_COMPLEXITY>
803

> <PUBCHEM_CACTVS_HBOND_ACCEPTOR>
11

> <PUBCHEM_CACTVS_HBOND_DONOR>
8

> <PUBCHEM_CACTVS_ROTATABLE_BOND>
7

> <PUBCHEM_CACTVS_SUBSKEYS>
AAADceB7vAIAAAAAAAAAAAAAAAAAAAAAAAAwQIAAAAAAAACxAAAAHgAQCCAADBzhmAYzwIPAAxCIQiVSUICCAAAhAgAAiACIdMiLcCLAkbGUYAhvlSLZyGfwkIIOiAAAQAAQACAQAACAACAAQAAAAAAAAA==

> <PUBCHEM_IUPAC_OPENEYE_NAME>
[5-(7,8-dimethyl-2,4-dioxo-1,5-dihydrobenzo[g]pteridin-10-yl)-2,3,4-trihydroxy-pentyl] dihydrogen phosphate

> <PUBCHEM_IUPAC_CAS_NAME>
[5-(7,8-dimethyl-2,4-dioxo-1,5-dihydrobenzo[g]pteridin-10-yl)-2,3,4-trihydroxypentyl] dihydrogen phosphate

> <PUBCHEM_IUPAC_NAME>
[5-(7,8-dimethyl-2,4-dioxo-1,5-dihydrobenzo[g]pteridin-10-yl)-2,3,4-trihydroxypentyl] dihydrogen phosphate

> <PUBCHEM_IUPAC_SYSTEMATIC_NAME>
[5-[7,8-dimethyl-2,4-bis(oxidanylidene)-1,5-dihydrobenzo[g]pteridin-10-yl]-2,3,4-tris(oxidanyl)pentyl] dihydrogen phosphate

> <PUBCHEM_IUPAC_TRADITIONAL_NAME>
[5-(2,4-diketo-7,8-dimethyl-1,5-dihydrobenzo[g]pteridin-10-yl)-2,3,4-trihydroxy-pentyl] dihydrogen phosphate

> <PUBCHEM_IUPAC_INCHI>
InChI=1S/C17H23N4O9P/c1-7-3-9-10(4-8(7)2)21(15-13(18-9)16(25)20-17(26)19-15)5-11(22)14(24)12(23)6-30-31(27,28)29/h3-4,11-12,14,18,22-24H,5-6H2,1-2H3,(H2,27,28,29)(H2,19,20,25,26)

> <PUBCHEM_IUPAC_INCHIKEY>
YTNIXZGTHTVJBW-UHFFFAOYSA-N

> <PUBCHEM_XLOGP3_AA>
-2.3

> <PUBCHEM_EXACT_MASS>
458.120265

> <PUBCHEM_MOLECULAR_FORMULA>
C17H23N4O9P

> <PUBCHEM_MOLECULAR_WEIGHT>
458.359682

> <PUBCHEM_OPENEYE_CAN_SMILES>
CC1=CC2=C(C=C1C)N(C3=C(N2)C(=O)NC(=O)N3)CC(C(C(COP(=O)(O)O)O)O)O

> <PUBCHEM_OPENEYE_ISO_SMILES>
CC1=CC2=C(C=C1C)N(C3=C(N2)C(=O)NC(=O)N3)CC(C(C(COP(=O)(O)O)O)O)O

> <PUBCHEM_CACTVS_TPSA>
201

> <PUBCHEM_MONOISOTOPIC_WEIGHT>
458.120265

> <PUBCHEM_TOTAL_CHARGE>
0

> <PUBCHEM_HEAVY_ATOM_COUNT>
31

> <PUBCHEM_ATOM_DEF_STEREO_COUNT>
0

> <PUBCHEM_ATOM_UDEF_STEREO_COUNT>
3

> <PUBCHEM_BOND_DEF_STEREO_COUNT>
0

> <PUBCHEM_BOND_UDEF_STEREO_COUNT>
0

> <PUBCHEM_ISOTOPIC_ATOM_COUNT>
0

> <PUBCHEM_COMPONENT_COUNT>
1

> <PUBCHEM_CACTVS_TAUTO_COUNT>
16

> <PUBCHEM_COORDINATE_TYPE>
1
5
255

> <PUBCHEM_BONDANNOTATIONS>
13  19  8
13  29  8
14  28  8
14  29  8
15  32  3
17  35  3
18  21  8
18  23  8
19  22  8
20  36  3
21  25  8
22  28  8
23  26  8
25  27  8
26  27  8

$$$$

