10373
  -OEChem-07051213043D

 39 40  0     1  0  0  0  0  0999 V2000
   -0.3483    0.4904   -0.2854 O   0  0  0  0  0  0  0  0  0  0  0  0
   -0.8510   -1.7284   -0.6366 O   0  0  0  0  0  0  0  0  0  0  0  0
    3.7736    0.3189    0.4666 N   0  0  0  0  0  0  0  0  0  0  0  0
    3.0813   -0.9798    0.4023 C   0  0  0  0  0  0  0  0  0  0  0  0
    1.5531   -0.7832    0.4859 C   0  0  0  0  0  0  0  0  0  0  0  0
    1.0299    0.2317   -0.5293 C   0  0  2  0  0  0  0  0  0  0  0  0
    3.3142    1.3053   -0.5173 C   0  0  1  0  0  0  0  0  0  0  0  0
    1.8048    1.5393   -0.4052 C   0  0  0  0  0  0  0  0  0  0  0  0
    3.5418   -1.7918    1.6271 C   0  0  0  0  0  0  0  0  0  0  0  0
    3.4777   -1.7621   -0.8638 C   0  0  0  0  0  0  0  0  0  0  0  0
    4.0726    2.6134   -0.2920 C   0  0  0  0  0  0  0  0  0  0  0  0
   -1.1807   -0.5827   -0.3719 C   0  0  0  0  0  0  0  0  0  0  0  0
   -2.5839   -0.1815   -0.0989 C   0  0  0  0  0  0  0  0  0  0  0  0
   -3.6073   -0.8777   -0.7088 C   0  0  0  0  0  0  0  0  0  0  0  0
   -2.8211    0.8747    0.7568 C   0  0  0  0  0  0  0  0  0  0  0  0
   -4.9255   -0.5011   -0.4522 C   0  0  0  0  0  0  0  0  0  0  0  0
   -4.1395    1.2512    1.0136 C   0  0  0  0  0  0  0  0  0  0  0  0
   -5.1917    0.5632    0.4090 C   0  0  0  0  0  0  0  0  0  0  0  0
    1.2761   -0.4367    1.4927 H   0  0  0  0  0  0  0  0  0  0  0  0
    1.0886   -1.7675    0.3916 H   0  0  0  0  0  0  0  0  0  0  0  0
    1.1354   -0.1499   -1.5525 H   0  0  0  0  0  0  0  0  0  0  0  0
    3.5523    0.9579   -1.5297 H   0  0  0  0  0  0  0  0  0  0  0  0
    1.4673    2.2382   -1.1811 H   0  0  0  0  0  0  0  0  0  0  0  0
    1.5586    2.0223    0.5507 H   0  0  0  0  0  0  0  0  0  0  0  0
    4.7797    0.1812    0.3720 H   0  0  0  0  0  0  0  0  0  0  0  0
    3.3045   -1.2741    2.5642 H   0  0  0  0  0  0  0  0  0  0  0  0
    3.0501   -2.7711    1.6583 H   0  0  0  0  0  0  0  0  0  0  0  0
    4.6243   -1.9662    1.6101 H   0  0  0  0  0  0  0  0  0  0  0  0
    3.1668   -1.2607   -1.7852 H   0  0  0  0  0  0  0  0  0  0  0  0
    4.5636   -1.9045   -0.9175 H   0  0  0  0  0  0  0  0  0  0  0  0
    3.0170   -2.7568   -0.8665 H   0  0  0  0  0  0  0  0  0  0  0  0
    5.1525    2.4668   -0.4066 H   0  0  0  0  0  0  0  0  0  0  0  0
    3.7620    3.3699   -1.0208 H   0  0  0  0  0  0  0  0  0  0  0  0
    3.8905    3.0174    0.7103 H   0  0  0  0  0  0  0  0  0  0  0  0
   -3.4126   -1.7059   -1.3836 H   0  0  0  0  0  0  0  0  0  0  0  0
   -2.0207    1.4175    1.2505 H   0  0  0  0  0  0  0  0  0  0  0  0
   -5.7449   -1.0362   -0.9233 H   0  0  0  0  0  0  0  0  0  0  0  0
   -4.3473    2.0779    1.6866 H   0  0  0  0  0  0  0  0  0  0  0  0
   -6.2181    0.8561    0.6094 H   0  0  0  0  0  0  0  0  0  0  0  0
  1  6  1  0  0  0  0
  1 12  1  0  0  0  0
  2 12  2  0  0  0  0
  3  4  1  0  0  0  0
  3  7  1  0  0  0  0
  3 25  1  0  0  0  0
  4  5  1  0  0  0  0
  4  9  1  0  0  0  0
  4 10  1  0  0  0  0
  5  6  1  0  0  0  0
  5 19  1  0  0  0  0
  5 20  1  0  0  0  0
  6  8  1  0  0  0  0
  6 21  1  0  0  0  0
  7  8  1  0  0  0  0
  7 11  1  0  0  0  0
  7 22  1  0  0  0  0
  8 23  1  0  0  0  0
  8 24  1  0  0  0  0
  9 26  1  0  0  0  0
  9 27  1  0  0  0  0
  9 28  1  0  0  0  0
 10 29  1  0  0  0  0
 10 30  1  0  0  0  0
 10 31  1  0  0  0  0
 11 32  1  0  0  0  0
 11 33  1  0  0  0  0
 11 34  1  0  0  0  0
 12 13  1  0  0  0  0
 13 14  2  0  0  0  0
 13 15  1  0  0  0  0
 14 16  1  0  0  0  0
 14 35  1  0  0  0  0
 15 17  2  0  0  0  0
 15 36  1  0  0  0  0
 16 18  2  0  0  0  0
 16 37  1  0  0  0  0
 17 18  1  0  0  0  0
 17 38  1  0  0  0  0
 18 39  1  0  0  0  0
M  END
> <PUBCHEM_COMPOUND_CID>
10373

> <PUBCHEM_CONFORMER_RMSD>
0.6

> <PUBCHEM_CONFORMER_DIVERSEORDER>
1
61
32
60
54
19
40
70
51
85
84
41
64
92
48
80
53
12
76
52
28
44
77
73
34
4
82
65
79
66
93
8
71
29
9
45
83
78
38
31
3
81
10
75
16
47
68
36
33
27
59
88
21
11
46
72
42
43
69
87
6
50
94
30
86
15
67
49
56
58
13
37
39
57
14
23
26
25
74
91
7
90
89
22
63
62
24
2
17
55
35
20
5
18

> <PUBCHEM_MMFF94_PARTIAL_CHARGES>
19
1 -0.43
12 0.63
13 0.09
14 -0.15
15 -0.15
16 -0.15
17 -0.15
18 -0.15
2 -0.57
25 0.36
3 -0.9
35 0.15
36 0.15
37 0.15
38 0.15
39 0.15
4 0.27
6 0.28
7 0.27

> <PUBCHEM_EFFECTIVE_ROTOR_COUNT>
4.2

> <PUBCHEM_PHARMACOPHORE_FEATURES>
6
1 2 acceptor
1 3 cation
1 3 donor
3 4 9 10 hydrophobe
6 13 14 15 16 17 18 rings
6 3 4 5 6 7 8 rings

> <PUBCHEM_HEAVY_ATOM_COUNT>
18

> <PUBCHEM_ATOM_DEF_STEREO_COUNT>
0

> <PUBCHEM_ATOM_UDEF_STEREO_COUNT>
2

> <PUBCHEM_BOND_DEF_STEREO_COUNT>
0

> <PUBCHEM_BOND_UDEF_STEREO_COUNT>
0

> <PUBCHEM_ISOTOPIC_ATOM_COUNT>
0

> <PUBCHEM_COMPONENT_COUNT>
1

> <PUBCHEM_CACTVS_TAUTO_COUNT>
1

> <PUBCHEM_CONFORMER_ID>
0000288500000001

> <PUBCHEM_MMFF94_ENERGY>
36.6918

> <PUBCHEM_FEATURE_SELFOVERLAP>
30.446

> <PUBCHEM_SHAPE_FINGERPRINT>
10366900 7 17560510802389556250
10382601 240 18059582343637686216
10912923 1 18334577928158202531
10980938 120 18412826867740188660
12107183 9 17905324383632600449
12236239 1 18334859411192097744
12616971 3 18410578409532320443
12644460 14 18130791153126602840
12670546 56 18412267241970219557
128620 24 8790877476212232763
13167823 11 18408603660773659359
13533116 47 18060138769203307123
13631057 29 17908703930252849139
13675066 3 17676774257412256223
14178342 30 18051707542237352472
14252887 29 17203611479971540156
14739800 52 17823151038154618648
15142526 21 17980484460435500800
15196674 1 18335417972211279389
15536298 74 18408602560971647478
17492 89 18334854987709041047
17834072 33 18409167675657229263
17844677 252 18131349739346025461
1813 80 18197495341140016078
18186145 218 18130787871186194895
20157964 124 18342744009718457877
20279233 1 16702305628770843673
20645477 70 18341896294347771278
20715895 44 17975695314450563681
21033648 29 16917078762868805725
21065198 48 18410292506338793641
212847 35 18113899377131763153
21503847 285 18411693322712281912
2255824 54 18272650147637365762
22854114 59 17989488515520193605
23048698 100 18411980260713397801
23184049 59 18343020008126569367
23402539 116 17676779734022800309
23503953 91 18334866038374231811
23557571 272 16081357528449600117
23559900 14 17386558180313887830
25147074 1 18265348230692999830
268830 7 18411984671892990357
300161 21 18335989696503422029
341906 21 17385724720461759681
345986 75 18198075869961804176
34934 24 18263364698778771028
474 4 18057884641391123324
5104073 3 18411697677999044387
522135 26 18202563994816582126
573450 72 18187088373298664499
633830 44 18409447011872491695
7364860 26 18408321073690348708
77779 3 18408319982404632479
8272917 22 18409162225449368718
90127 26 18272642489573565977
9841814 1 18130230458194581322
9971528 1 18261394502853962758
9981440 41 17544767724436801521

> <PUBCHEM_SHAPE_MULTIPOLES>
353.71
10.91
2.07
1.05
7.65
0.52
-0.24
1.43
-1.1
-2.86
0.02
-0.27
-0.29
-1.43

> <PUBCHEM_SHAPE_SELFOVERLAP>
735.964

> <PUBCHEM_SHAPE_VOLUME>
201.2

> <PUBCHEM_COORDINATE_TYPE>
2
5
10

$$$$

