15967
  -OEChem-07051213132D

 47 47  0     0  0  0  0  0  0999 V2000
    4.5981    0.7010    0.0000 O   0  0  0  0  0  0  0  0  0  0  0  0
    6.0981    1.5670    0.0000 O   0  0  0  0  0  0  0  0  0  0  0  0
    4.5981    2.4330    0.0000 N   0  0  0  0  0  0  0  0  0  0  0  0
    6.3301   -0.2990    0.0000 C   0  0  0  0  0  0  0  0  0  0  0  0
    2.8660   -0.2990    0.0000 C   0  0  0  0  0  0  0  0  0  0  0  0
    5.4641   -0.7990    0.0000 C   0  0  0  0  0  0  0  0  0  0  0  0
    3.7320   -0.7990    0.0000 C   0  0  0  0  0  0  0  0  0  0  0  0
    4.5981   -0.2990    0.0000 C   0  0  0  0  0  0  0  0  0  0  0  0
    5.4641   -1.7990    0.0000 C   0  0  0  0  0  0  0  0  0  0  0  0
    3.7320   -1.7990    0.0000 C   0  0  0  0  0  0  0  0  0  0  0  0
    7.1962    0.2010    0.0000 C   0  0  0  0  0  0  0  0  0  0  0  0
    6.8301   -1.1651    0.0000 C   0  0  0  0  0  0  0  0  0  0  0  0
    6.3301    0.7010    0.0000 C   0  0  0  0  0  0  0  0  0  0  0  0
    2.0000    0.2010    0.0000 C   0  0  0  0  0  0  0  0  0  0  0  0
    2.3660   -1.1651    0.0000 C   0  0  0  0  0  0  0  0  0  0  0  0
    3.3660    0.5670    0.0000 C   0  0  0  0  0  0  0  0  0  0  0  0
    4.5981   -2.2990    0.0000 C   0  0  0  0  0  0  0  0  0  0  0  0
    4.5981   -3.2990    0.0000 C   0  0  0  0  0  0  0  0  0  0  0  0
    5.0981    1.5670    0.0000 C   0  0  0  0  0  0  0  0  0  0  0  0
    5.0981    3.2990    0.0000 C   0  0  0  0  0  0  0  0  0  0  0  0
    6.0010   -2.1090    0.0000 H   0  0  0  0  0  0  0  0  0  0  0  0
    3.1951   -2.1090    0.0000 H   0  0  0  0  0  0  0  0  0  0  0  0
    7.5062   -0.3360    0.0000 H   0  0  0  0  0  0  0  0  0  0  0  0
    7.7331    0.5110    0.0000 H   0  0  0  0  0  0  0  0  0  0  0  0
    6.8862    0.7379    0.0000 H   0  0  0  0  0  0  0  0  0  0  0  0
    6.2932   -1.4751    0.0000 H   0  0  0  0  0  0  0  0  0  0  0  0
    7.1401   -1.7020    0.0000 H   0  0  0  0  0  0  0  0  0  0  0  0
    7.3671   -0.8551    0.0000 H   0  0  0  0  0  0  0  0  0  0  0  0
    6.9501    0.7010    0.0000 H   0  0  0  0  0  0  0  0  0  0  0  0
    6.3301    1.3210    0.0000 H   0  0  0  0  0  0  0  0  0  0  0  0
    5.7101    0.7010    0.0000 H   0  0  0  0  0  0  0  0  0  0  0  0
    2.3100    0.7379    0.0000 H   0  0  0  0  0  0  0  0  0  0  0  0
    1.4631    0.5110    0.0000 H   0  0  0  0  0  0  0  0  0  0  0  0
    1.6900   -0.3360    0.0000 H   0  0  0  0  0  0  0  0  0  0  0  0
    1.8291   -0.8551    0.0000 H   0  0  0  0  0  0  0  0  0  0  0  0
    2.0560   -1.7020    0.0000 H   0  0  0  0  0  0  0  0  0  0  0  0
    2.9030   -1.4751    0.0000 H   0  0  0  0  0  0  0  0  0  0  0  0
    3.9030    0.2570    0.0000 H   0  0  0  0  0  0  0  0  0  0  0  0
    3.6760    1.1039    0.0000 H   0  0  0  0  0  0  0  0  0  0  0  0
    2.8291    0.8770    0.0000 H   0  0  0  0  0  0  0  0  0  0  0  0
    3.9781   -3.2990    0.0000 H   0  0  0  0  0  0  0  0  0  0  0  0
    4.5981   -3.9190    0.0000 H   0  0  0  0  0  0  0  0  0  0  0  0
    5.2181   -3.2990    0.0000 H   0  0  0  0  0  0  0  0  0  0  0  0
    3.9781    2.4330    0.0000 H   0  0  0  0  0  0  0  0  0  0  0  0
    5.6350    2.9890    0.0000 H   0  0  0  0  0  0  0  0  0  0  0  0
    5.4081    3.8360    0.0000 H   0  0  0  0  0  0  0  0  0  0  0  0
    4.5611    3.6090    0.0000 H   0  0  0  0  0  0  0  0  0  0  0  0
  1  8  1  0  0  0  0
  1 19  1  0  0  0  0
  2 19  2  0  0  0  0
  3 19  1  0  0  0  0
  3 20  1  0  0  0  0
  3 44  1  0  0  0  0
  4  6  1  0  0  0  0
  4 11  1  0  0  0  0
  4 12  1  0  0  0  0
  4 13  1  0  0  0  0
  5  7  1  0  0  0  0
  5 14  1  0  0  0  0
  5 15  1  0  0  0  0
  5 16  1  0  0  0  0
  6  8  2  0  0  0  0
  6  9  1  0  0  0  0
  7  8  1  0  0  0  0
  7 10  2  0  0  0  0
  9 17  2  0  0  0  0
  9 21  1  0  0  0  0
 10 17  1  0  0  0  0
 10 22  1  0  0  0  0
 11 23  1  0  0  0  0
 11 24  1  0  0  0  0
 11 25  1  0  0  0  0
 12 26  1  0  0  0  0
 12 27  1  0  0  0  0
 12 28  1  0  0  0  0
 13 29  1  0  0  0  0
 13 30  1  0  0  0  0
 13 31  1  0  0  0  0
 14 32  1  0  0  0  0
 14 33  1  0  0  0  0
 14 34  1  0  0  0  0
 15 35  1  0  0  0  0
 15 36  1  0  0  0  0
 15 37  1  0  0  0  0
 16 38  1  0  0  0  0
 16 39  1  0  0  0  0
 16 40  1  0  0  0  0
 17 18  1  0  0  0  0
 18 41  1  0  0  0  0
 18 42  1  0  0  0  0
 18 43  1  0  0  0  0
 20 45  1  0  0  0  0
 20 46  1  0  0  0  0
 20 47  1  0  0  0  0
M  END
> <PUBCHEM_COMPOUND_CID>
15967

> <PUBCHEM_COMPOUND_CANONICALIZED>
1

> <PUBCHEM_CACTVS_COMPLEXITY>
314

> <PUBCHEM_CACTVS_HBOND_ACCEPTOR>
2

> <PUBCHEM_CACTVS_HBOND_DONOR>
1

> <PUBCHEM_CACTVS_ROTATABLE_BOND>
4

> <PUBCHEM_CACTVS_SUBSKEYS>
AAADceB6MAAAAAAAAAAAAAAAAAAAAAAAAAAwAAAAAAAAAAABAAAAHgAQAAAADgSAmAQyDoLABACIAiBCGAACCAAgIAAAiIAMCIkMJiKEMRqIMiAkwhEIqAeAwOAPoAACAAAIAABAAAQAABAAAAAAAAAAAA==

> <PUBCHEM_IUPAC_OPENEYE_NAME>
(2,6-ditert-butyl-4-methyl-phenyl) N-methylcarbamate

> <PUBCHEM_IUPAC_CAS_NAME>
N-methylcarbamic acid (2,6-ditert-butyl-4-methylphenyl) ester

> <PUBCHEM_IUPAC_NAME>
(2,6-ditert-butyl-4-methylphenyl) N-methylcarbamate

> <PUBCHEM_IUPAC_SYSTEMATIC_NAME>
(2,6-ditert-butyl-4-methyl-phenyl) N-methylcarbamate

> <PUBCHEM_IUPAC_TRADITIONAL_NAME>
N-methylcarbamic acid (2,6-ditert-butyl-4-methyl-phenyl) ester

> <PUBCHEM_IUPAC_INCHI>
InChI=1S/C17H27NO2/c1-11-9-12(16(2,3)4)14(20-15(19)18-8)13(10-11)17(5,6)7/h9-10H,1-8H3,(H,18,19)

> <PUBCHEM_IUPAC_INCHIKEY>
PNRAZZZISDRWMV-UHFFFAOYSA-N

> <PUBCHEM_XLOGP3_AA>
5.2

> <PUBCHEM_EXACT_MASS>
277.204179

> <PUBCHEM_MOLECULAR_FORMULA>
C17H27NO2

> <PUBCHEM_MOLECULAR_WEIGHT>
277.40178

> <PUBCHEM_OPENEYE_CAN_SMILES>
CC1=CC(=C(C(=C1)C(C)(C)C)OC(=O)NC)C(C)(C)C

> <PUBCHEM_OPENEYE_ISO_SMILES>
CC1=CC(=C(C(=C1)C(C)(C)C)OC(=O)NC)C(C)(C)C

> <PUBCHEM_CACTVS_TPSA>
38.3

> <PUBCHEM_MONOISOTOPIC_WEIGHT>
277.204179

> <PUBCHEM_TOTAL_CHARGE>
0

> <PUBCHEM_HEAVY_ATOM_COUNT>
20

> <PUBCHEM_ATOM_DEF_STEREO_COUNT>
0

> <PUBCHEM_ATOM_UDEF_STEREO_COUNT>
0

> <PUBCHEM_BOND_DEF_STEREO_COUNT>
0

> <PUBCHEM_BOND_UDEF_STEREO_COUNT>
0

> <PUBCHEM_ISOTOPIC_ATOM_COUNT>
0

> <PUBCHEM_COMPONENT_COUNT>
1

> <PUBCHEM_CACTVS_TAUTO_COUNT>
2

> <PUBCHEM_COORDINATE_TYPE>
1
5
255

> <PUBCHEM_BONDANNOTATIONS>
10  17  8
6  8  8
6  9  8
7  10  8
7  8  8
9  17  8

$$$$

