442479
  -OEChem-07051212583D

 83 88  0     1  0  0  0  0  0999 V2000
   -5.3232    3.2312   -0.9476 O   0  0  0  0  0  0  0  0  0  0  0  0
    2.4708    1.5265    0.0192 N   0  0  2  0  0  0  0  0  0  0  0  0
    1.6228   -1.5869   -0.0644 N   0  0  0  0  0  0  0  0  0  0  0  0
   -4.3917    1.3851    0.1218 N   0  0  0  0  0  0  0  0  0  0  0  0
    4.7708    0.7288   -0.6294 C   0  0  2  0  0  0  0  0  0  0  0  0
    4.9128   -0.7366   -0.1320 C   0  0  1  0  0  0  0  0  0  0  0  0
    3.9213    1.6814    0.2649 C   0  0  2  0  0  0  0  0  0  0  0  0
    2.8474    0.7929   -2.3405 C   0  0  1  0  0  0  0  0  0  0  0  0
    4.3675    0.8330   -2.1102 C   0  0  0  0  0  0  0  0  0  0  0  0
    2.2668   -0.6436   -2.2882 C   0  0  1  0  0  0  0  0  0  0  0  0
    5.0924   -0.8468    1.3946 C   0  0  0  0  0  0  0  0  0  0  0  0
    4.3222    1.4911    1.7402 C   0  0  0  0  0  0  0  0  0  0  0  0
    3.9374   -1.7866   -0.6785 C   0  0  0  0  0  0  0  0  0  0  0  0
    2.1669    1.7962   -1.3939 C   0  0  0  0  0  0  0  0  0  0  0  0
    4.1454    0.0425    2.1978 C   0  0  2  0  0  0  0  0  0  0  0  0
    2.5232   -1.3319   -0.9518 C   0  0  0  0  0  0  0  0  0  0  0  0
    0.8004   -0.7226   -2.7476 C   0  0  0  0  0  0  0  0  0  0  0  0
   -2.1441   -1.7588    0.2727 C   0  0  1  0  0  0  0  0  0  0  0  0
   -2.4984   -0.2509    0.3063 C   0  0  1  0  0  0  0  0  0  0  0  0
    0.2382   -1.2406   -0.3850 C   0  0  1  0  0  0  0  0  0  0  0  0
   -0.0579   -1.5891   -1.8393 C   0  0  0  0  0  0  0  0  0  0  0  0
   -0.6650   -2.0321    0.5553 C   0  0  0  0  0  0  0  0  0  0  0  0
   -4.0107   -0.0455    0.0461 C   0  0  1  0  0  0  0  0  0  0  0  0
   -3.0294   -2.5876    1.2170 C   0  0  0  0  0  0  0  0  0  0  0  0
   -4.5314   -2.3820    0.9755 C   0  0  1  0  0  0  0  0  0  0  0  0
   -4.8911   -0.8911    0.9857 C   0  0  0  0  0  0  0  0  0  0  0  0
   -2.0484    0.4721    1.5882 C   0  0  0  0  0  0  0  0  0  0  0  0
    4.4322   -0.0859    3.6939 C   0  0  0  0  0  0  0  0  0  0  0  0
    1.6492    2.4028    0.8599 C   0  0  0  0  0  0  0  0  0  0  0  0
   -2.4342    1.9472    1.5321 C   0  0  0  0  0  0  0  0  0  0  0  0
   -3.9267    2.1235    1.2996 C   0  0  0  0  0  0  0  0  0  0  0  0
   -5.0032   -3.0710   -0.3082 C   0  0  0  0  0  0  0  0  0  0  0  0
   -5.2857    2.0131   -0.7531 C   0  0  0  0  0  0  0  0  0  0  0  0
   -6.2465    1.1222   -1.5012 C   0  0  0  0  0  0  0  0  0  0  0  0
    5.7950    1.1322   -0.5768 H   0  0  0  0  0  0  0  0  0  0  0  0
    5.8824   -1.0763   -0.5321 H   0  0  0  0  0  0  0  0  0  0  0  0
    4.1988    2.7123   -0.0022 H   0  0  0  0  0  0  0  0  0  0  0  0
    2.6767    1.1535   -3.3652 H   0  0  0  0  0  0  0  0  0  0  0  0
    4.8777    0.0718   -2.7124 H   0  0  0  0  0  0  0  0  0  0  0  0
    4.7328    1.7995   -2.4856 H   0  0  0  0  0  0  0  0  0  0  0  0
    2.8312   -1.2344   -3.0250 H   0  0  0  0  0  0  0  0  0  0  0  0
    4.9996   -1.8895    1.7223 H   0  0  0  0  0  0  0  0  0  0  0  0
    6.1266   -0.5585    1.6318 H   0  0  0  0  0  0  0  0  0  0  0  0
    3.7683    2.1732    2.3941 H   0  0  0  0  0  0  0  0  0  0  0  0
    5.3752    1.7849    1.8562 H   0  0  0  0  0  0  0  0  0  0  0  0
    3.8974   -2.6631   -0.0201 H   0  0  0  0  0  0  0  0  0  0  0  0
    4.3336   -2.1690   -1.6289 H   0  0  0  0  0  0  0  0  0  0  0  0
    2.4834    2.8145   -1.6611 H   0  0  0  0  0  0  0  0  0  0  0  0
    1.0841    1.7721   -1.5531 H   0  0  0  0  0  0  0  0  0  0  0  0
    3.1114   -0.2797    2.0299 H   0  0  0  0  0  0  0  0  0  0  0  0
    0.7609   -1.1242   -3.7684 H   0  0  0  0  0  0  0  0  0  0  0  0
    0.3476    0.2714   -2.8216 H   0  0  0  0  0  0  0  0  0  0  0  0
   -2.3756   -2.1307   -0.7309 H   0  0  0  0  0  0  0  0  0  0  0  0
   -1.9886    0.2451   -0.5308 H   0  0  0  0  0  0  0  0  0  0  0  0
    0.1149   -0.1680   -0.2155 H   0  0  0  0  0  0  0  0  0  0  0  0
   -1.0976   -1.4130   -2.1250 H   0  0  0  0  0  0  0  0  0  0  0  0
    0.1576   -2.6481   -2.0316 H   0  0  0  0  0  0  0  0  0  0  0  0
   -0.4153   -1.8015    1.5986 H   0  0  0  0  0  0  0  0  0  0  0  0
   -0.4664   -3.1065    0.4386 H   0  0  0  0  0  0  0  0  0  0  0  0
   -4.2039   -0.3747   -0.9803 H   0  0  0  0  0  0  0  0  0  0  0  0
   -2.8018   -2.3226    2.2575 H   0  0  0  0  0  0  0  0  0  0  0  0
   -2.7853   -3.6529    1.1163 H   0  0  0  0  0  0  0  0  0  0  0  0
   -5.0696   -2.8614    1.8041 H   0  0  0  0  0  0  0  0  0  0  0  0
   -5.9517   -0.7697    0.7438 H   0  0  0  0  0  0  0  0  0  0  0  0
   -4.7881   -0.5264    2.0155 H   0  0  0  0  0  0  0  0  0  0  0  0
   -0.9643    0.4106    1.7219 H   0  0  0  0  0  0  0  0  0  0  0  0
   -2.5002    0.0124    2.4743 H   0  0  0  0  0  0  0  0  0  0  0  0
    5.4540    0.2270    3.9343 H   0  0  0  0  0  0  0  0  0  0  0  0
    3.7425    0.5355    4.2749 H   0  0  0  0  0  0  0  0  0  0  0  0
    4.3082   -1.1223    4.0249 H   0  0  0  0  0  0  0  0  0  0  0  0
    0.5937    2.3365    0.5742 H   0  0  0  0  0  0  0  0  0  0  0  0
    1.9550    3.4524    0.7860 H   0  0  0  0  0  0  0  0  0  0  0  0
    1.6825    2.0931    1.9086 H   0  0  0  0  0  0  0  0  0  0  0  0
   -2.1422    2.4435    2.4641 H   0  0  0  0  0  0  0  0  0  0  0  0
   -1.8813    2.4348    0.7198 H   0  0  0  0  0  0  0  0  0  0  0  0
   -4.4950    1.7589    2.1628 H   0  0  0  0  0  0  0  0  0  0  0  0
   -4.1621    3.1882    1.1974 H   0  0  0  0  0  0  0  0  0  0  0  0
   -4.5359   -2.6563   -1.2056 H   0  0  0  0  0  0  0  0  0  0  0  0
   -4.7750   -4.1417   -0.2762 H   0  0  0  0  0  0  0  0  0  0  0  0
   -6.0878   -2.9674   -0.4213 H   0  0  0  0  0  0  0  0  0  0  0  0
   -5.7170    0.5477   -2.2647 H   0  0  0  0  0  0  0  0  0  0  0  0
   -6.9954    1.7438   -2.0025 H   0  0  0  0  0  0  0  0  0  0  0  0
   -6.7752    0.4556   -0.8196 H   0  0  0  0  0  0  0  0  0  0  0  0
  1 33  2  0  0  0  0
  2  7  1  0  0  0  0
  2 14  1  0  0  0  0
  2 29  1  0  0  0  0
  3 16  2  0  0  0  0
  3 20  1  0  0  0  0
  4 23  1  0  0  0  0
  4 31  1  0  0  0  0
  4 33  1  0  0  0  0
  5  6  1  0  0  0  0
  5  7  1  0  0  0  0
  5  9  1  0  0  0  0
  5 35  1  0  0  0  0
  6 11  1  0  0  0  0
  6 13  1  0  0  0  0
  6 36  1  0  0  0  0
  7 12  1  0  0  0  0
  7 37  1  0  0  0  0
  8  9  1  0  0  0  0
  8 10  1  0  0  0  0
  8 14  1  0  0  0  0
  8 38  1  0  0  0  0
  9 39  1  0  0  0  0
  9 40  1  0  0  0  0
 10 16  1  0  0  0  0
 10 17  1  0  0  0  0
 10 41  1  0  0  0  0
 11 15  1  0  0  0  0
 11 42  1  0  0  0  0
 11 43  1  0  0  0  0
 12 15  1  0  0  0  0
 12 44  1  0  0  0  0
 12 45  1  0  0  0  0
 13 16  1  0  0  0  0
 13 46  1  0  0  0  0
 13 47  1  0  0  0  0
 14 48  1  0  0  0  0
 14 49  1  0  0  0  0
 15 28  1  0  0  0  0
 15 50  1  0  0  0  0
 17 21  1  0  0  0  0
 17 51  1  0  0  0  0
 17 52  1  0  0  0  0
 18 19  1  0  0  0  0
 18 22  1  0  0  0  0
 18 24  1  0  0  0  0
 18 53  1  0  0  0  0
 19 23  1  0  0  0  0
 19 27  1  0  0  0  0
 19 54  1  0  0  0  0
 20 21  1  0  0  0  0
 20 22  1  0  0  0  0
 20 55  1  0  0  0  0
 21 56  1  0  0  0  0
 21 57  1  0  0  0  0
 22 58  1  0  0  0  0
 22 59  1  0  0  0  0
 23 26  1  0  0  0  0
 23 60  1  0  0  0  0
 24 25  1  0  0  0  0
 24 61  1  0  0  0  0
 24 62  1  0  0  0  0
 25 26  1  0  0  0  0
 25 32  1  0  0  0  0
 25 63  1  0  0  0  0
 26 64  1  0  0  0  0
 26 65  1  0  0  0  0
 27 30  1  0  0  0  0
 27 66  1  0  0  0  0
 27 67  1  0  0  0  0
 28 68  1  0  0  0  0
 28 69  1  0  0  0  0
 28 70  1  0  0  0  0
 29 71  1  0  0  0  0
 29 72  1  0  0  0  0
 29 73  1  0  0  0  0
 30 31  1  0  0  0  0
 30 74  1  0  0  0  0
 30 75  1  0  0  0  0
 31 76  1  0  0  0  0
 31 77  1  0  0  0  0
 32 78  1  0  0  0  0
 32 79  1  0  0  0  0
 32 80  1  0  0  0  0
 33 34  1  0  0  0  0
 34 81  1  0  0  0  0
 34 82  1  0  0  0  0
 34 83  1  0  0  0  0
M  END
> <PUBCHEM_COMPOUND_CID>
442479

> <PUBCHEM_CONFORMER_RMSD>
1

> <PUBCHEM_CONFORMER_DIVERSEORDER>
4
10
9
11
8
7
3
5
2
6
1

> <PUBCHEM_MMFF94_PARTIAL_CHARGES>
15
1 -0.57
10 0.06
13 0.06
14 0.27
16 0.33
2 -0.81
20 0.25
23 0.3
29 0.27
3 -0.7
31 0.3
33 0.57
34 0.06
4 -0.66
7 0.27

> <PUBCHEM_EFFECTIVE_ROTOR_COUNT>
6.6

> <PUBCHEM_PHARMACOPHORE_FEATURES>
9
1 1 acceptor
1 2 cation
1 3 acceptor
6 18 19 23 24 25 26 rings
6 2 5 7 8 9 14 rings
6 3 10 16 17 20 21 rings
6 4 19 23 27 30 31 rings
6 5 6 7 11 12 15 rings
7 5 6 8 9 10 13 16 rings

> <PUBCHEM_HEAVY_ATOM_COUNT>
34

> <PUBCHEM_ATOM_DEF_STEREO_COUNT>
10

> <PUBCHEM_ATOM_UDEF_STEREO_COUNT>
1

> <PUBCHEM_BOND_DEF_STEREO_COUNT>
0

> <PUBCHEM_BOND_UDEF_STEREO_COUNT>
0

> <PUBCHEM_ISOTOPIC_ATOM_COUNT>
0

> <PUBCHEM_COMPONENT_COUNT>
1

> <PUBCHEM_CACTVS_TAUTO_COUNT>
1

> <PUBCHEM_CONFORMER_ID>
0006C06F00000004

> <PUBCHEM_MMFF94_ENERGY>
98.5949

> <PUBCHEM_FEATURE_SELFOVERLAP>
46.672

> <PUBCHEM_SHAPE_FINGERPRINT>
10439779 11 18270405008938837269
12107183 9 17774166832626257210
12422481 6 16916797347884662359
12633257 1 18060140963620183254
12778500 126 15769211785923794996
13224815 77 17822556257633686571
13726171 33 18121749804287243760
14251764 38 18187639215259704809
15320295 40 17970653945476551065
15347590 135 16191954997293868865
17349148 13 18270394993000704067
19315092 285 17267253227638594810
20511986 3 18059855030763130356
20715895 44 18198624530854663909
20764821 26 18131057252126156397
21033648 29 18187654591537841786
21421861 104 16988848293872144758
21792934 111 18410001136475209235
22149856 69 15648995402876677519
23559900 14 18263354965977196414
23572383 38 18187368748415925529
3052486 1 18341324526958288464
341906 21 18411129221486170102
3737641 26 12463579512299889336
4144715 1 18341316860305164834
44317340 157 15502366838286698995
460360 51 18201429290311231195
508706 21 18261102028244850929
513532 50 17022904597016736388
6086070 43 17775019963476171583
6669772 16 5759920881034567194
77296 10 18412826906316247259
8509985 295 18272651268418127796

> <PUBCHEM_SHAPE_MULTIPOLES>
678.89
14.13
3.13
2.67
8.35
0.23
-0.37
3.01
-1.6
4.07
-0.13
-3.3
0.21
1.42

> <PUBCHEM_SHAPE_SELFOVERLAP>
1430.38

> <PUBCHEM_SHAPE_VOLUME>
372.4

> <PUBCHEM_COORDINATE_TYPE>
2
5
10

$$$$

