15559464
  -OEChem-07051213103D

 43 47  0     1  0  0  0  0  0999 V2000
    3.2151   -2.5939   -0.8873 O   0  0  0  0  0  0  0  0  0  0  0  0
    3.1106   -2.5629    1.4120 O   0  0  0  0  0  0  0  0  0  0  0  0
    0.0964    2.0950   -0.1573 N   0  0  3  0  0  0  0  0  0  0  0  0
   -1.8597   -1.0466   -0.0892 N   0  0  0  0  0  0  0  0  0  0  0  0
   -1.0450    2.9947   -0.4631 C   0  0  0  0  0  0  0  0  0  0  0  0
   -2.5343    1.0675    0.0935 C   0  0  0  0  0  0  0  0  0  0  0  0
   -0.0835    0.7025   -0.0426 C   0  0  0  0  0  0  0  0  0  0  0  0
   -2.3617    2.5435    0.2099 C   0  0  0  0  0  0  0  0  0  0  0  0
   -1.4308    0.2465   -0.0075 C   0  0  0  0  0  0  0  0  0  0  0  0
    1.4241    2.7158   -0.2099 C   0  0  0  0  0  0  0  0  0  0  0  0
   -3.6898    0.2432    0.0805 C   0  0  0  0  0  0  0  0  0  0  0  0
    2.5593    1.7303   -0.0608 C   0  0  0  0  0  0  0  0  0  0  0  0
    0.9435   -0.1584    0.0710 C   0  0  0  0  0  0  0  0  0  0  0  0
    2.3193    0.3510    0.0670 C   0  0  0  0  0  0  0  0  0  0  0  0
   -3.2402   -1.0777   -0.0362 C   0  0  0  0  0  0  0  0  0  0  0  0
   -5.0762    0.4830    0.1571 C   0  0  0  0  0  0  0  0  0  0  0  0
    3.3985   -0.5332    0.1945 C   0  0  0  0  0  0  0  0  0  0  0  0
    3.8801    2.2021   -0.0607 C   0  0  0  0  0  0  0  0  0  0  0  0
   -4.1157   -2.1687   -0.0834 C   0  0  0  0  0  0  0  0  0  0  0  0
    4.7077   -0.0509    0.1943 C   0  0  0  0  0  0  0  0  0  0  0  0
    4.9484    1.3149    0.0667 C   0  0  0  0  0  0  0  0  0  0  0  0
   -5.9609   -0.6004    0.1118 C   0  0  0  0  0  0  0  0  0  0  0  0
   -5.4860   -1.9047   -0.0069 C   0  0  0  0  0  0  0  0  0  0  0  0
    3.2284   -1.9766    0.3315 C   0  0  0  0  0  0  0  0  0  0  0  0
    3.0523   -4.0162   -0.8850 C   0  0  0  0  0  0  0  0  0  0  0  0
   -1.1794    3.0092   -1.5523 H   0  0  0  0  0  0  0  0  0  0  0  0
   -0.8186    4.0210   -0.1504 H   0  0  0  0  0  0  0  0  0  0  0  0
   -3.2067    3.0757   -0.2400 H   0  0  0  0  0  0  0  0  0  0  0  0
   -2.3327    2.8070    1.2745 H   0  0  0  0  0  0  0  0  0  0  0  0
    1.4955    3.4597    0.5928 H   0  0  0  0  0  0  0  0  0  0  0  0
    1.5378    3.2314   -1.1715 H   0  0  0  0  0  0  0  0  0  0  0  0
    0.7886   -1.2254    0.1797 H   0  0  0  0  0  0  0  0  0  0  0  0
   -1.2755   -1.8662   -0.1831 H   0  0  0  0  0  0  0  0  0  0  0  0
   -5.4618    1.4943    0.2496 H   0  0  0  0  0  0  0  0  0  0  0  0
    4.0814    3.2658   -0.1613 H   0  0  0  0  0  0  0  0  0  0  0  0
   -3.7479   -3.1853   -0.1749 H   0  0  0  0  0  0  0  0  0  0  0  0
    5.5508   -0.7305    0.2925 H   0  0  0  0  0  0  0  0  0  0  0  0
    5.9678    1.6894    0.0659 H   0  0  0  0  0  0  0  0  0  0  0  0
   -7.0311   -0.4204    0.1699 H   0  0  0  0  0  0  0  0  0  0  0  0
   -6.1913   -2.7312   -0.0403 H   0  0  0  0  0  0  0  0  0  0  0  0
    2.0920   -4.2846   -0.4346 H   0  0  0  0  0  0  0  0  0  0  0  0
    3.8781   -4.4897   -0.3459 H   0  0  0  0  0  0  0  0  0  0  0  0
    3.0641   -4.3620   -1.9220 H   0  0  0  0  0  0  0  0  0  0  0  0
  1 24  1  0  0  0  0
  1 25  1  0  0  0  0
  2 24  2  0  0  0  0
  3  5  1  0  0  0  0
  3  7  1  0  0  0  0
  3 10  1  0  0  0  0
  4  9  1  0  0  0  0
  4 15  1  0  0  0  0
  4 33  1  0  0  0  0
  5  8  1  0  0  0  0
  5 26  1  0  0  0  0
  5 27  1  0  0  0  0
  6  8  1  0  0  0  0
  6  9  2  0  0  0  0
  6 11  1  0  0  0  0
  7  9  1  0  0  0  0
  7 13  2  0  0  0  0
  8 28  1  0  0  0  0
  8 29  1  0  0  0  0
 10 12  1  0  0  0  0
 10 30  1  0  0  0  0
 10 31  1  0  0  0  0
 11 15  1  0  0  0  0
 11 16  2  0  0  0  0
 12 14  2  0  0  0  0
 12 18  1  0  0  0  0
 13 14  1  0  0  0  0
 13 32  1  0  0  0  0
 14 17  1  0  0  0  0
 15 19  2  0  0  0  0
 16 22  1  0  0  0  0
 16 34  1  0  0  0  0
 17 20  2  0  0  0  0
 17 24  1  0  0  0  0
 18 21  2  0  0  0  0
 18 35  1  0  0  0  0
 19 23  1  0  0  0  0
 19 36  1  0  0  0  0
 20 21  1  0  0  0  0
 20 37  1  0  0  0  0
 21 38  1  0  0  0  0
 22 23  2  0  0  0  0
 22 39  1  0  0  0  0
 23 40  1  0  0  0  0
 25 41  1  0  0  0  0
 25 42  1  0  0  0  0
 25 43  1  0  0  0  0
M  END
> <PUBCHEM_COMPOUND_CID>
15559464

> <PUBCHEM_CONFORMER_RMSD>
0.6

> <PUBCHEM_CONFORMER_DIVERSEORDER>
2
1

> <PUBCHEM_MMFF94_PARTIAL_CHARGES>
33
1 -0.43
10 0.51
12 -0.14
13 -0.18
14 0.03
15 -0.15
16 -0.15
17 0.09
18 -0.15
19 -0.15
2 -0.57
20 -0.15
21 -0.15
22 -0.15
23 -0.15
24 0.63
25 0.28
3 -0.84
32 0.15
33 0.27
34 0.15
35 0.15
36 0.15
37 0.15
38 0.15
39 0.15
4 0.03
40 0.15
5 0.37
6 -0.18
7 0.15
8 0.18
9 -0.2

> <PUBCHEM_EFFECTIVE_ROTOR_COUNT>
2.6

> <PUBCHEM_PHARMACOPHORE_FEATURES>
9
1 2 acceptor
1 3 cation
1 4 cation
1 4 donor
5 4 6 9 11 15 rings
6 11 15 16 19 22 23 rings
6 12 14 17 18 20 21 rings
6 3 5 6 7 8 9 rings
6 3 7 10 12 13 14 rings

> <PUBCHEM_HEAVY_ATOM_COUNT>
25

> <PUBCHEM_ATOM_DEF_STEREO_COUNT>
0

> <PUBCHEM_ATOM_UDEF_STEREO_COUNT>
0

> <PUBCHEM_BOND_DEF_STEREO_COUNT>
0

> <PUBCHEM_BOND_UDEF_STEREO_COUNT>
0

> <PUBCHEM_ISOTOPIC_ATOM_COUNT>
0

> <PUBCHEM_COMPONENT_COUNT>
1

> <PUBCHEM_CACTVS_TAUTO_COUNT>
2

> <PUBCHEM_CONFORMER_ID>
00ED6B2800000002

> <PUBCHEM_MMFF94_ENERGY>
77.6541

> <PUBCHEM_FEATURE_SELFOVERLAP>
45.898

> <PUBCHEM_SHAPE_FINGERPRINT>
10616163 171 18409166601910253854
10622 236 17680731237037870647
10906281 52 18058715906520361232
11578080 2 17201938122374759988
11963148 33 18340774732596079858
12107183 9 17902220449512105801
12236239 1 18114177485075659585
12422481 6 18117259562598007481
12553582 1 18336842887287628006
12596602 18 17241039895025815499
13140716 1 17978800012800261376
13150687 139 17985806166161310564
13167823 11 18409167692979659491
13533116 47 18187365445823269939
13544653 18 18272365343950237417
1361 2 18336829697675858975
13642711 20 16540471059236832565
14341114 176 18409724067290593441
14790565 3 17907572536951297716
14863182 85 18340762646826023742
14866123 147 17614558572453778857
15196674 1 18411700959190910633
15250474 111 18189344463732678351
15320467 1 17833832672864232631
15352361 1 18411982447020536889
15664445 248 18267285574481656588
15927050 60 17328863193559718540
17492 89 18337110193209849278
17857418 61 18410859837121894643
17909252 39 18261662792545150126
1813 80 17417807357421743069
18681886 176 18340488842993998824
1979834 28 18333456421929369274
20028762 73 18116997685066854270
20645477 70 18411982459789543654
21033650 10 15410060727847084620
21133410 32 16623427820590626458
21197605 99 18123464982096442307
21267235 1 18410848854885386836
21279426 13 18270123556116873709
21285901 2 17989494008525175813
21307412 95 17395852523849689406
21421861 104 18272658982210871538
23559900 14 18264212585330938212
239999 70 18260258625980522646
25222932 49 18190181174690413991
3004659 81 18202004317417139808
314194 84 18263363603799344219
335352 9 18411420584511649309
33824 294 18411983529600130986
3421961 26 18336547204870546214
350125 39 18410012100762090480
3882209 13 17190984899129935403
4073 2 18058726889036229899
4214541 1 18411419501620903001
4280585 95 17834110124279013198
46194498 28 17273704156752695357
463206 1 18194966240493394311
5104073 3 18335704995784830769
5283173 99 18130802191256441997
6823239 73 18042958956102061638
9709674 26 18341325664982392146
9981440 41 16827842085874858689

> <PUBCHEM_SHAPE_MULTIPOLES>
492.79
11.98
3.87
0.74
8.29
1.75
0.04
4.71
0.62
-2.97
-0.66
-0.35
0.31
0.09

> <PUBCHEM_SHAPE_SELFOVERLAP>
1114.141

> <PUBCHEM_SHAPE_VOLUME>
259.2

> <PUBCHEM_COORDINATE_TYPE>
2
5
10

$$$$

