91750
  -OEChem-07051213122D

 46 47  0     0  0  0  0  0  0999 V2000
    4.4487   -1.8345    0.0000 S   0  0  0  0  0  0  0  0  0  0  0  0
    3.9487   -2.7006    0.0000 O   0  0  0  0  0  0  0  0  0  0  0  0
    4.9487   -0.9685    0.0000 O   0  0  0  0  0  0  0  0  0  0  0  0
    4.0134    1.3073    0.0000 O   0  0  0  0  0  0  0  0  0  0  0  0
    5.1724    0.0201    0.0000 O   0  0  0  0  0  0  0  0  0  0  0  0
    6.1808   -0.8345    0.0000 O   0  0  0  0  0  0  0  0  0  0  0  0
   10.5109   -2.3345    0.0000 O   0  0  0  0  0  0  0  0  0  0  0  0
    8.7788    0.6655    0.0000 O   0  0  0  0  0  0  0  0  0  0  0  0
    2.6691   -1.7413    0.0000 N   0  0  0  0  0  0  0  0  0  0  0  0
    5.3147   -2.3345    0.0000 N   0  0  0  0  0  0  0  0  0  0  0  0
    2.0000   -0.9981    0.0000 N   0  0  0  0  0  0  0  0  0  0  0  0
    7.0468   -2.3345    0.0000 N   0  0  0  0  0  0  0  0  0  0  0  0
    8.7788   -2.3345    0.0000 N   0  0  0  0  0  0  0  0  0  0  0  0
    7.9128   -0.8345    0.0000 N   0  0  0  0  0  0  0  0  0  0  0  0
    3.5827   -1.3345    0.0000 C   0  0  0  0  0  0  0  0  0  0  0  0
    3.4782   -0.3400    0.0000 C   0  0  0  0  0  0  0  0  0  0  0  0
    2.5000   -0.1321    0.0000 C   0  0  0  0  0  0  0  0  0  0  0  0
    2.4612   -2.7194    0.0000 C   0  0  0  0  0  0  0  0  0  0  0  0
    4.2213    0.3291    0.0000 C   0  0  0  0  0  0  0  0  0  0  0  0
    6.1808   -1.8345    0.0000 C   0  0  0  0  0  0  0  0  0  0  0  0
    4.7565    1.9764    0.0000 C   0  0  0  0  0  0  0  0  0  0  0  0
    7.9128   -1.8345    0.0000 C   0  0  0  0  0  0  0  0  0  0  0  0
    4.5486    2.9545    0.0000 C   0  0  0  0  0  0  0  0  0  0  0  0
    9.6448   -1.8345    0.0000 C   0  0  0  0  0  0  0  0  0  0  0  0
    8.7788   -0.3345    0.0000 C   0  0  0  0  0  0  0  0  0  0  0  0
    9.6448   -0.8345    0.0000 C   0  0  0  0  0  0  0  0  0  0  0  0
   11.3769   -1.8345    0.0000 C   0  0  0  0  0  0  0  0  0  0  0  0
    9.6448    1.1655    0.0000 C   0  0  0  0  0  0  0  0  0  0  0  0
    2.2478    0.4343    0.0000 H   0  0  0  0  0  0  0  0  0  0  0  0
    5.3147   -2.9545    0.0000 H   0  0  0  0  0  0  0  0  0  0  0  0
    1.8548   -2.5905    0.0000 H   0  0  0  0  0  0  0  0  0  0  0  0
    2.3323   -3.3259    0.0000 H   0  0  0  0  0  0  0  0  0  0  0  0
    3.0677   -2.8483    0.0000 H   0  0  0  0  0  0  0  0  0  0  0  0
    7.0468   -2.9545    0.0000 H   0  0  0  0  0  0  0  0  0  0  0  0
    5.0851    1.4506    0.0000 H   0  0  0  0  0  0  0  0  0  0  0  0
    5.3314    2.2086    0.0000 H   0  0  0  0  0  0  0  0  0  0  0  0
    5.1551    3.0834    0.0000 H   0  0  0  0  0  0  0  0  0  0  0  0
    4.4197    3.5610    0.0000 H   0  0  0  0  0  0  0  0  0  0  0  0
    3.9422    2.8256    0.0000 H   0  0  0  0  0  0  0  0  0  0  0  0
   10.1818   -0.5245    0.0000 H   0  0  0  0  0  0  0  0  0  0  0  0
   11.6869   -2.3715    0.0000 H   0  0  0  0  0  0  0  0  0  0  0  0
   11.9138   -1.5245    0.0000 H   0  0  0  0  0  0  0  0  0  0  0  0
   11.0669   -1.2976    0.0000 H   0  0  0  0  0  0  0  0  0  0  0  0
    9.9548    0.6285    0.0000 H   0  0  0  0  0  0  0  0  0  0  0  0
   10.1818    1.4755    0.0000 H   0  0  0  0  0  0  0  0  0  0  0  0
    9.3348    1.7024    0.0000 H   0  0  0  0  0  0  0  0  0  0  0  0
  1  2  2  0  0  0  0
  1  3  2  0  0  0  0
  1 10  1  0  0  0  0
  1 15  1  0  0  0  0
  4 19  1  0  0  0  0
  4 21  1  0  0  0  0
  5 19  2  0  0  0  0
  6 20  2  0  0  0  0
  7 24  1  0  0  0  0
  7 27  1  0  0  0  0
  8 25  1  0  0  0  0
  8 28  1  0  0  0  0
  9 11  1  0  0  0  0
  9 15  1  0  0  0  0
  9 18  1  0  0  0  0
 10 20  1  0  0  0  0
 10 30  1  0  0  0  0
 11 17  2  0  0  0  0
 12 20  1  0  0  0  0
 12 22  1  0  0  0  0
 12 34  1  0  0  0  0
 13 22  1  0  0  0  0
 13 24  2  0  0  0  0
 14 22  2  0  0  0  0
 14 25  1  0  0  0  0
 15 16  2  0  0  0  0
 16 17  1  0  0  0  0
 16 19  1  0  0  0  0
 17 29  1  0  0  0  0
 18 31  1  0  0  0  0
 18 32  1  0  0  0  0
 18 33  1  0  0  0  0
 21 23  1  0  0  0  0
 21 35  1  0  0  0  0
 21 36  1  0  0  0  0
 23 37  1  0  0  0  0
 23 38  1  0  0  0  0
 23 39  1  0  0  0  0
 24 26  1  0  0  0  0
 25 26  2  0  0  0  0
 26 40  1  0  0  0  0
 27 41  1  0  0  0  0
 27 42  1  0  0  0  0
 27 43  1  0  0  0  0
 28 44  1  0  0  0  0
 28 45  1  0  0  0  0
 28 46  1  0  0  0  0
M  END
> <PUBCHEM_COMPOUND_CID>
91750

> <PUBCHEM_COMPOUND_CANONICALIZED>
1

> <PUBCHEM_CACTVS_COMPLEXITY>
645

> <PUBCHEM_CACTVS_HBOND_ACCEPTOR>
10

> <PUBCHEM_CACTVS_HBOND_DONOR>
2

> <PUBCHEM_CACTVS_ROTATABLE_BOND>
8

> <PUBCHEM_CACTVS_SUBSKEYS>
AAADceBzuABAAAAAAAAAAAAAAAAAAWAAAAAsAAAAAAAAAAAB4AAAHgQYQAAADADh2gY/nZbIFAKqAjD3fHDYnDkFoqARUDE+bFCEDYhEaEgGhKwLCQ5AIOAAAAAAAAAAAAAAAAAAAAAAAAAAAAAAAAAAAA==

> <PUBCHEM_IUPAC_OPENEYE_NAME>
ethyl 5-[(4,6-dimethoxypyrimidin-2-yl)carbamoylsulfamoyl]-1-methyl-pyrazole-4-carboxylate

> <PUBCHEM_IUPAC_CAS_NAME>
5-[[[(4,6-dimethoxy-2-pyrimidinyl)amino]-oxomethyl]sulfamoyl]-1-methyl-4-pyrazolecarboxylic acid ethyl ester

> <PUBCHEM_IUPAC_NAME>
ethyl 5-[(4,6-dimethoxypyrimidin-2-yl)carbamoylsulfamoyl]-1-methylpyrazole-4-carboxylate

> <PUBCHEM_IUPAC_SYSTEMATIC_NAME>
ethyl 5-[(4,6-dimethoxypyrimidin-2-yl)carbamoylsulfamoyl]-1-methyl-pyrazole-4-carboxylate

> <PUBCHEM_IUPAC_TRADITIONAL_NAME>
5-[(4,6-dimethoxypyrimidin-2-yl)carbamoylsulfamoyl]-1-methyl-pyrazole-4-carboxylic acid ethyl ester

> <PUBCHEM_IUPAC_INCHI>
InChI=1S/C14H18N6O7S/c1-5-27-12(21)8-7-15-20(2)11(8)28(23,24)19-14(22)18-13-16-9(25-3)6-10(17-13)26-4/h6-7H,5H2,1-4H3,(H2,16,17,18,19,22)

> <PUBCHEM_IUPAC_INCHIKEY>
BGNQYGRXEXDAIQ-UHFFFAOYSA-N

> <PUBCHEM_XLOGP3_AA>
0.7

> <PUBCHEM_EXACT_MASS>
414.095768

> <PUBCHEM_MOLECULAR_FORMULA>
C14H18N6O7S

> <PUBCHEM_MOLECULAR_WEIGHT>
414.39372

> <PUBCHEM_OPENEYE_CAN_SMILES>
CCOC(=O)C1=C(N(N=C1)C)S(=O)(=O)NC(=O)NC2=NC(=CC(=N2)OC)OC

> <PUBCHEM_OPENEYE_ISO_SMILES>
CCOC(=O)C1=C(N(N=C1)C)S(=O)(=O)NC(=O)NC2=NC(=CC(=N2)OC)OC

> <PUBCHEM_CACTVS_TPSA>
172

> <PUBCHEM_MONOISOTOPIC_WEIGHT>
414.095768

> <PUBCHEM_TOTAL_CHARGE>
0

> <PUBCHEM_HEAVY_ATOM_COUNT>
28

> <PUBCHEM_ATOM_DEF_STEREO_COUNT>
0

> <PUBCHEM_ATOM_UDEF_STEREO_COUNT>
0

> <PUBCHEM_BOND_DEF_STEREO_COUNT>
0

> <PUBCHEM_BOND_UDEF_STEREO_COUNT>
0

> <PUBCHEM_ISOTOPIC_ATOM_COUNT>
0

> <PUBCHEM_COMPONENT_COUNT>
1

> <PUBCHEM_CACTVS_TAUTO_COUNT>
5

> <PUBCHEM_COORDINATE_TYPE>
1
5
255

> <PUBCHEM_BONDANNOTATIONS>
11  17  8
13  22  8
13  24  8
14  22  8
14  25  8
15  16  8
16  17  8
24  26  8
25  26  8
9  11  8
9  15  8

$$$$

