656879
  -OEChem-07051213043D

 24 25  0     0  0  0  0  0  0999 V2000
   -1.3742   -2.3038    0.1479 O   0  0  0  0  0  0  0  0  0  0  0  0
   -3.7881   -1.0284   -0.1104 O   0  0  0  0  0  0  0  0  0  0  0  0
    4.0484   -1.0409   -0.8903 O   0  0  0  0  0  0  0  0  0  0  0  0
   -0.2100   -0.1941    0.0941 C   0  0  0  0  0  0  0  0  0  0  0  0
   -0.2742    1.2163   -0.0037 C   0  0  0  0  0  0  0  0  0  0  0  0
    2.2133   -0.0604    0.2618 C   0  0  0  0  0  0  0  0  0  0  0  0
    1.0418   -0.8171    0.2263 C   0  0  0  0  0  0  0  0  0  0  0  0
   -1.3993   -0.9399    0.0567 C   0  0  0  0  0  0  0  0  0  0  0  0
    0.9152    1.9622    0.0337 C   0  0  0  0  0  0  0  0  0  0  0  0
    2.1502    1.3266    0.1656 C   0  0  0  0  0  0  0  0  0  0  0  0
   -1.5259    1.8393   -0.1360 C   0  0  0  0  0  0  0  0  0  0  0  0
   -2.6343   -0.3043   -0.0752 C   0  0  0  0  0  0  0  0  0  0  0  0
    3.5346   -0.7381    0.4009 C   0  0  0  0  0  0  0  0  0  0  0  0
   -2.6974    1.0825   -0.1714 C   0  0  0  0  0  0  0  0  0  0  0  0
    1.1360   -1.8959    0.3187 H   0  0  0  0  0  0  0  0  0  0  0  0
    0.8896    3.0475   -0.0403 H   0  0  0  0  0  0  0  0  0  0  0  0
    3.0561    1.9265    0.1899 H   0  0  0  0  0  0  0  0  0  0  0  0
   -1.5990    2.9221   -0.2128 H   0  0  0  0  0  0  0  0  0  0  0  0
    4.2573   -0.1016    0.9223 H   0  0  0  0  0  0  0  0  0  0  0  0
    3.4516   -1.6680    0.9740 H   0  0  0  0  0  0  0  0  0  0  0  0
   -3.6564    1.5833   -0.2740 H   0  0  0  0  0  0  0  0  0  0  0  0
   -0.5614   -2.6496   -0.2532 H   0  0  0  0  0  0  0  0  0  0  0  0
   -3.5599   -1.9710   -0.0317 H   0  0  0  0  0  0  0  0  0  0  0  0
    3.3508   -1.4888   -1.3987 H   0  0  0  0  0  0  0  0  0  0  0  0
  1  8  1  0  0  0  0
  1 22  1  0  0  0  0
  2 12  1  0  0  0  0
  2 23  1  0  0  0  0
  3 13  1  0  0  0  0
  3 24  1  0  0  0  0
  4  5  2  0  0  0  0
  4  7  1  0  0  0  0
  4  8  1  0  0  0  0
  5  9  1  0  0  0  0
  5 11  1  0  0  0  0
  6  7  2  0  0  0  0
  6 10  1  0  0  0  0
  6 13  1  0  0  0  0
  7 15  1  0  0  0  0
  8 12  2  0  0  0  0
  9 10  2  0  0  0  0
  9 16  1  0  0  0  0
 10 17  1  0  0  0  0
 11 14  2  0  0  0  0
 11 18  1  0  0  0  0
 12 14  1  0  0  0  0
 13 19  1  0  0  0  0
 13 20  1  0  0  0  0
 14 21  1  0  0  0  0
M  END
> <PUBCHEM_COMPOUND_CID>
656879

> <PUBCHEM_CONFORMER_RMSD>
0.4

> <PUBCHEM_CONFORMER_DIVERSEORDER>
1
2
3
4

> <PUBCHEM_MMFF94_PARTIAL_CHARGES>
20
1 -0.53
10 -0.15
11 -0.15
12 0.08
13 0.42
14 -0.15
15 0.15
16 0.15
17 0.15
18 0.15
2 -0.53
21 0.15
22 0.45
23 0.45
24 0.4
3 -0.68
6 -0.14
7 -0.15
8 0.08
9 -0.15

> <PUBCHEM_EFFECTIVE_ROTOR_COUNT>
1

> <PUBCHEM_PHARMACOPHORE_FEATURES>
6
1 1 donor
1 2 donor
1 3 acceptor
1 3 donor
6 4 5 6 7 9 10 rings
6 4 5 8 11 12 14 rings

> <PUBCHEM_HEAVY_ATOM_COUNT>
14

> <PUBCHEM_ATOM_DEF_STEREO_COUNT>
0

> <PUBCHEM_ATOM_UDEF_STEREO_COUNT>
0

> <PUBCHEM_BOND_DEF_STEREO_COUNT>
0

> <PUBCHEM_BOND_UDEF_STEREO_COUNT>
0

> <PUBCHEM_ISOTOPIC_ATOM_COUNT>
0

> <PUBCHEM_COMPONENT_COUNT>
1

> <PUBCHEM_CACTVS_TAUTO_COUNT>
13

> <PUBCHEM_CONFORMER_ID>
000A05EF00000001

> <PUBCHEM_MMFF94_ENERGY>
42.05

> <PUBCHEM_FEATURE_SELFOVERLAP>
30.478

> <PUBCHEM_SHAPE_FINGERPRINT>
10465860 71 18338217358975216780
10967382 1 18267587896780741129
11132069 177 18337399326049581544
11206711 2 18271251615611394949
11543360 7 15626216888405907211
12032990 46 18410008840475120290
14115302 16 17988636363685719439
14144814 61 18341056301834217482
14325111 11 18411141328893755329
14911166 2 18339930423328507765
14993402 34 18342178911659013141
15219456 202 18260555506741478472
15536298 74 18335423430977744512
16945 1 18412833494463198265
17804303 29 18408039632561796728
193761 8 18051695442845143473
200 152 17894926117817386149
20201158 50 18335140924886973542
20510252 161 18260833725663662616
20645477 70 18338243643969638527
20871998 184 18259989300759501431
20871999 31 18340197592085484764
21267235 1 18411693283725559210
21501502 16 18410290276839628581
21501925 9 18339093609301898896
22721475 48 18410570678037202224
2334 1 17979919315188846818
23402539 116 18334870428052335047
23463225 33 18341334469738799032
23552423 10 18129383696148209612
23559900 14 18263647428576859414
25 1 17839482303368351445
2748010 2 18196376922369441961
43471831 8 18199191869763748883
528886 8 18267031728670442081
7364860 26 18263082111516547192
8809292 202 18271804588319098163

> <PUBCHEM_SHAPE_MULTIPOLES>
270.51
5.61
2.05
0.67
1.97
0.19
-0.03
-1.91
-0.6
-0.49
0
0.25
-0.03
0.22

> <PUBCHEM_SHAPE_SELFOVERLAP>
593.511

> <PUBCHEM_SHAPE_VOLUME>
147.1

> <PUBCHEM_COORDINATE_TYPE>
2
5
10

$$$$

