62369
  -OEChem-07051213142D

 44 41  0     1  0  0  0  0  0999 V2000
    0.0000    1.3100    0.0000 Cl  0  0  0  0  0  0  0  0  0  0  0  0
   11.2583    1.8100    0.0000 Cl  0  0  0  0  0  0  0  0  0  0  0  0
    5.1292    5.1200    0.0000 Cl  0  0  0  0  0  0  0  0  0  0  0  0
    5.1292    7.6200    0.0000 Cl  0  0  0  0  0  0  0  0  0  0  0  0
    5.1962    0.3100    0.0000 O   0  0  0  0  0  0  0  0  0  0  0  0
    6.0622    2.8100    0.0000 O   0  0  0  0  0  0  0  0  0  0  0  0
    4.3301    2.8100    0.0000 O   0  0  0  0  0  0  0  0  0  0  0  0
    6.9282    0.3100    0.0000 O   0  0  0  0  0  0  0  0  0  0  0  0
    2.5981    1.8100    0.0000 N   0  0  0  0  0  0  0  0  0  0  0  0
    8.6602    1.3100    0.0000 N   0  0  0  0  0  0  0  0  0  0  0  0
    5.1962    1.3100    0.0000 C   0  0  1  0  0  0  0  0  0  0  0  0
    6.0622    1.8100    0.0000 C   0  0  1  0  0  0  0  0  0  0  0  0
    4.3301    1.8100    0.0000 C   0  0  1  0  0  0  0  0  0  0  0  0
    6.9282    1.3100    0.0000 C   0  0  1  0  0  0  0  0  0  0  0  0
    3.4641    1.3100    0.0000 C   0  0  0  0  0  0  0  0  0  0  0  0
    7.7942    1.8100    0.0000 C   0  0  0  0  0  0  0  0  0  0  0  0
    1.7320    1.3100    0.0000 C   0  0  0  0  0  0  0  0  0  0  0  0
    9.5263    1.8100    0.0000 C   0  0  0  0  0  0  0  0  0  0  0  0
    0.8660    1.8100    0.0000 C   0  0  0  0  0  0  0  0  0  0  0  0
   10.3923    1.3100    0.0000 C   0  0  0  0  0  0  0  0  0  0  0  0
    4.6592    1.0000    0.0000 H   0  0  0  0  0  0  0  0  0  0  0  0
    5.5252    2.1200    0.0000 H   0  0  0  0  0  0  0  0  0  0  0  0
    4.8671    2.1200    0.0000 H   0  0  0  0  0  0  0  0  0  0  0  0
    7.4651    1.0000    0.0000 H   0  0  0  0  0  0  0  0  0  0  0  0
    3.0656    0.8351    0.0000 H   0  0  0  0  0  0  0  0  0  0  0  0
    3.8626    0.8351    0.0000 H   0  0  0  0  0  0  0  0  0  0  0  0
    8.1928    2.2849    0.0000 H   0  0  0  0  0  0  0  0  0  0  0  0
    7.3957    2.2849    0.0000 H   0  0  0  0  0  0  0  0  0  0  0  0
    2.5981    2.4300    0.0000 H   0  0  0  0  0  0  0  0  0  0  0  0
    8.6602    0.6900    0.0000 H   0  0  0  0  0  0  0  0  0  0  0  0
    4.6592    0.0000    0.0000 H   0  0  0  0  0  0  0  0  0  0  0  0
    6.5991    3.1200    0.0000 H   0  0  0  0  0  0  0  0  0  0  0  0
    3.7932    3.1200    0.0000 H   0  0  0  0  0  0  0  0  0  0  0  0
    7.4651    0.0000    0.0000 H   0  0  0  0  0  0  0  0  0  0  0  0
    1.3335    0.8351    0.0000 H   0  0  0  0  0  0  0  0  0  0  0  0
    2.1306    0.8351    0.0000 H   0  0  0  0  0  0  0  0  0  0  0  0
    9.9248    2.2849    0.0000 H   0  0  0  0  0  0  0  0  0  0  0  0
    9.1278    2.2849    0.0000 H   0  0  0  0  0  0  0  0  0  0  0  0
    1.2646    2.2849    0.0000 H   0  0  0  0  0  0  0  0  0  0  0  0
    0.4675    2.2849    0.0000 H   0  0  0  0  0  0  0  0  0  0  0  0
    9.9938    0.8351    0.0000 H   0  0  0  0  0  0  0  0  0  0  0  0
   10.7908    0.8351    0.0000 H   0  0  0  0  0  0  0  0  0  0  0  0
    6.1292    5.1200    0.0000 H   0  0  0  0  0  0  0  0  0  0  0  0
    6.1292    7.6200    0.0000 H   0  0  0  0  0  0  0  0  0  0  0  0
  1 19  1  0  0  0  0
  2 20  1  0  0  0  0
  3 43  1  0  0  0  0
  4 44  1  0  0  0  0
 11  5  1  6  0  0  0
  5 31  1  0  0  0  0
 12  6  1  6  0  0  0
  6 32  1  0  0  0  0
 13  7  1  1  0  0  0
  7 33  1  0  0  0  0
 14  8  1  1  0  0  0
  8 34  1  0  0  0  0
  9 15  1  0  0  0  0
  9 17  1  0  0  0  0
  9 29  1  0  0  0  0
 10 16  1  0  0  0  0
 10 18  1  0  0  0  0
 10 30  1  0  0  0  0
 11 12  1  0  0  0  0
 11 13  1  0  0  0  0
 11 21  1  0  0  0  0
 12 14  1  0  0  0  0
 12 22  1  0  0  0  0
 13 15  1  0  0  0  0
 13 23  1  0  0  0  0
 14 16  1  0  0  0  0
 14 24  1  0  0  0  0
 15 25  1  0  0  0  0
 15 26  1  0  0  0  0
 16 27  1  0  0  0  0
 16 28  1  0  0  0  0
 17 19  1  0  0  0  0
 17 35  1  0  0  0  0
 17 36  1  0  0  0  0
 18 20  1  0  0  0  0
 18 37  1  0  0  0  0
 18 38  1  0  0  0  0
 19 39  1  0  0  0  0
 19 40  1  0  0  0  0
 20 41  1  0  0  0  0
 20 42  1  0  0  0  0
M  END
> <PUBCHEM_COMPOUND_CID>
62369

> <PUBCHEM_COMPOUND_CANONICALIZED>
1

> <PUBCHEM_CACTVS_COMPLEXITY>
183

> <PUBCHEM_CACTVS_HBOND_ACCEPTOR>
6

> <PUBCHEM_CACTVS_HBOND_DONOR>
8

> <PUBCHEM_CACTVS_ROTATABLE_BOND>
11

> <PUBCHEM_CACTVS_SUBSKEYS>
AAADceBzOAAHAAAAAAAAAAAAAAAAAAAAAAAAAAAAAAAAAAAAAAAAHgIQCAAACBfhgEYAAALAAgAAAAAAAAAAAAAAAAAAAIAIAAADEAIAgABEQAAHEACRAAHwEAIAAAAAAAAAAAAAAAAAAAAAAAAAAAAAAA==

> <PUBCHEM_IUPAC_OPENEYE_NAME>
(2R,3R,4R,5R)-1,6-bis(2-chloroethylamino)hexane-2,3,4,5-tetrol dihydrochloride

> <PUBCHEM_IUPAC_CAS_NAME>
(2R,3R,4R,5R)-1,6-bis(2-chloroethylamino)hexane-2,3,4,5-tetrol dihydrochloride

> <PUBCHEM_IUPAC_NAME>
(2R,3R,4R,5R)-1,6-bis(2-chloroethylamino)hexane-2,3,4,5-tetrol dihydrochloride

> <PUBCHEM_IUPAC_SYSTEMATIC_NAME>
(2R,3R,4R,5R)-1,6-bis(2-chloroethylamino)hexane-2,3,4,5-tetrol dihydrochloride

> <PUBCHEM_IUPAC_TRADITIONAL_NAME>
(2R,3R,4R,5R)-1,6-bis(2-chloroethylamino)hexane-2,3,4,5-tetrol dihydrochloride

> <PUBCHEM_IUPAC_INCHI>
InChI=1S/C10H22Cl2N2O4.2ClH/c11-1-3-13-5-7(15)9(17)10(18)8(16)6-14-4-2-12;;/h7-10,13-18H,1-6H2;2*1H/t7-,8-,9-,10-;;/m1../s1

> <PUBCHEM_IUPAC_INCHIKEY>
GBKLAYXZNQSPBS-XYSQQLOGSA-N

> <PUBCHEM_EXACT_MASS>
378.046068

> <PUBCHEM_MOLECULAR_FORMULA>
C10H24Cl4N2O4

> <PUBCHEM_MOLECULAR_WEIGHT>
378.12056

> <PUBCHEM_OPENEYE_CAN_SMILES>
C(CCl)NCC(C(C(C(CNCCCl)O)O)O)O.Cl.Cl

> <PUBCHEM_OPENEYE_ISO_SMILES>
C(CCl)NC[C@H]([C@H]([C@@H]([C@@H](CNCCCl)O)O)O)O.Cl.Cl

> <PUBCHEM_CACTVS_TPSA>
105

> <PUBCHEM_MONOISOTOPIC_WEIGHT>
376.049018

> <PUBCHEM_TOTAL_CHARGE>
0

> <PUBCHEM_HEAVY_ATOM_COUNT>
20

> <PUBCHEM_ATOM_DEF_STEREO_COUNT>
4

> <PUBCHEM_ATOM_UDEF_STEREO_COUNT>
0

> <PUBCHEM_BOND_DEF_STEREO_COUNT>
0

> <PUBCHEM_BOND_UDEF_STEREO_COUNT>
0

> <PUBCHEM_ISOTOPIC_ATOM_COUNT>
0

> <PUBCHEM_COMPONENT_COUNT>
3

> <PUBCHEM_CACTVS_TAUTO_COUNT>
1

> <PUBCHEM_COORDINATE_TYPE>
1
5
255

> <PUBCHEM_BONDANNOTATIONS>
11  5  6
12  6  6
13  7  5
14  8  5

$$$$

