150946
  -OEChem-07051212472D

 18 19  0     0  0  0  0  0  0999 V2000
    6.2619    0.1806    0.0000 O   0  0  0  0  0  0  0  0  0  0  0  0
    4.6783    0.9853    0.0000 N   0  0  0  0  0  0  0  0  0  0  0  0
    3.7320   -0.3194    0.0000 C   0  0  0  0  0  0  0  0  0  0  0  0
    3.7320    0.6806    0.0000 C   0  0  0  0  0  0  0  0  0  0  0  0
    4.6783   -0.6241    0.0000 C   0  0  0  0  0  0  0  0  0  0  0  0
    5.2619    0.1806    0.0000 C   0  0  0  0  0  0  0  0  0  0  0  0
    2.8660   -0.8194    0.0000 C   0  0  0  0  0  0  0  0  0  0  0  0
    2.8660    1.1806    0.0000 C   0  0  0  0  0  0  0  0  0  0  0  0
    2.0000   -0.3194    0.0000 C   0  0  0  0  0  0  0  0  0  0  0  0
    2.0000    0.6806    0.0000 C   0  0  0  0  0  0  0  0  0  0  0  0
    4.9889   -1.5747    0.0000 C   0  0  0  0  0  0  0  0  0  0  0  0
    4.8709    1.5747    0.0000 H   0  0  0  0  0  0  0  0  0  0  0  0
    2.8660   -1.4394    0.0000 H   0  0  0  0  0  0  0  0  0  0  0  0
    2.8660    1.8006    0.0000 H   0  0  0  0  0  0  0  0  0  0  0  0
    1.4631   -0.6294    0.0000 H   0  0  0  0  0  0  0  0  0  0  0  0
    1.4631    0.9906    0.0000 H   0  0  0  0  0  0  0  0  0  0  0  0
    4.5749   -2.0361    0.0000 H   0  0  0  0  0  0  0  0  0  0  0  0
    5.5956   -1.7025    0.0000 H   0  0  0  0  0  0  0  0  0  0  0  0
  1  6  2  0  0  0  0
  2  4  1  0  0  0  0
  2  6  1  0  0  0  0
  2 12  1  0  0  0  0
  3  4  1  0  0  0  0
  3  5  1  0  0  0  0
  3  7  2  0  0  0  0
  4  8  2  0  0  0  0
  5  6  1  0  0  0  0
  5 11  2  0  0  0  0
  7  9  1  0  0  0  0
  7 13  1  0  0  0  0
  8 10  1  0  0  0  0
  8 14  1  0  0  0  0
  9 10  2  0  0  0  0
  9 15  1  0  0  0  0
 10 16  1  0  0  0  0
 11 17  1  0  0  0  0
 11 18  1  0  0  0  0
M  END
> <PUBCHEM_COMPOUND_CID>
150946

> <PUBCHEM_COMPOUND_CANONICALIZED>
1

> <PUBCHEM_CACTVS_COMPLEXITY>
210

> <PUBCHEM_CACTVS_HBOND_ACCEPTOR>
1

> <PUBCHEM_CACTVS_HBOND_DONOR>
1

> <PUBCHEM_CACTVS_ROTATABLE_BOND>
0

> <PUBCHEM_CACTVS_SUBSKEYS>
AAADcYByIAAAAAAAAAAAAAAAAAAAAWAAAAAwAAAAAAAAAFgBAAAAHgAQAAAADAiBmAAwwILAAACIAiVSUACCAAAhAgAIiAEAZMgIIDLAlZGEIAhglADIyIcciICOAAAAAAACAAAAAAAAAAQAAAAAAAAAAA==

> <PUBCHEM_IUPAC_OPENEYE_NAME>
3-methyleneindolin-2-one

> <PUBCHEM_IUPAC_CAS_NAME>
3-methylene-1H-indol-2-one

> <PUBCHEM_IUPAC_NAME>
3-methylidene-1H-indol-2-one

> <PUBCHEM_IUPAC_SYSTEMATIC_NAME>
3-methylidene-1H-indol-2-one

> <PUBCHEM_IUPAC_TRADITIONAL_NAME>
3-methyleneoxindole

> <PUBCHEM_IUPAC_INCHI>
InChI=1S/C9H7NO/c1-6-7-4-2-3-5-8(7)10-9(6)11/h2-5H,1H2,(H,10,11)

> <PUBCHEM_IUPAC_INCHIKEY>
IGXUUWYVUGBMFT-UHFFFAOYSA-N

> <PUBCHEM_XLOGP3_AA>
1.4

> <PUBCHEM_EXACT_MASS>
145.052764

> <PUBCHEM_MOLECULAR_FORMULA>
C9H7NO

> <PUBCHEM_MOLECULAR_WEIGHT>
145.15798

> <PUBCHEM_OPENEYE_CAN_SMILES>
C=C1C2=CC=CC=C2NC1=O

> <PUBCHEM_OPENEYE_ISO_SMILES>
C=C1C2=CC=CC=C2NC1=O

> <PUBCHEM_CACTVS_TPSA>
29.1

> <PUBCHEM_MONOISOTOPIC_WEIGHT>
145.052764

> <PUBCHEM_TOTAL_CHARGE>
0

> <PUBCHEM_HEAVY_ATOM_COUNT>
11

> <PUBCHEM_ATOM_DEF_STEREO_COUNT>
0

> <PUBCHEM_ATOM_UDEF_STEREO_COUNT>
0

> <PUBCHEM_BOND_DEF_STEREO_COUNT>
0

> <PUBCHEM_BOND_UDEF_STEREO_COUNT>
0

> <PUBCHEM_ISOTOPIC_ATOM_COUNT>
0

> <PUBCHEM_COMPONENT_COUNT>
1

> <PUBCHEM_CACTVS_TAUTO_COUNT>
2

> <PUBCHEM_COORDINATE_TYPE>
1
5
255

> <PUBCHEM_BONDANNOTATIONS>
3  4  8
3  7  8
4  8  8
7  9  8
8  10  8
9  10  8

$$$$

