3185
  -OEChem-07051213042D

 55 57  0     0  0  0  0  0  0999 V2000
    8.9282    4.8170    0.0000 S   0  0  0  0  0  0  0  0  0  0  0  0
    8.9282   -0.1830    0.0000 O   0  0  0  0  0  0  0  0  0  0  0  0
    8.4282    5.6830    0.0000 O   0  0  0  0  0  0  0  0  0  0  0  0
    9.4282    3.9510    0.0000 O   0  0  0  0  0  0  0  0  0  0  0  0
    5.4641   -1.1830    0.0000 N   0  0  0  0  0  0  0  0  0  0  0  0
    3.7320   -4.1830    0.0000 N   0  0  0  0  0  0  0  0  0  0  0  0
    8.0622    4.3170    0.0000 N   0  0  0  0  0  0  0  0  0  0  0  0
    7.1962   -0.1830    0.0000 C   0  0  0  0  0  0  0  0  0  0  0  0
    7.1962   -1.1830    0.0000 C   0  0  0  0  0  0  0  0  0  0  0  0
    6.3301    0.3170    0.0000 C   0  0  0  0  0  0  0  0  0  0  0  0
    6.3301   -1.6830    0.0000 C   0  0  0  0  0  0  0  0  0  0  0  0
    5.4641   -0.1830    0.0000 C   0  0  0  0  0  0  0  0  0  0  0  0
    4.5981   -1.6830    0.0000 C   0  0  0  0  0  0  0  0  0  0  0  0
    8.0622    0.3170    0.0000 C   0  0  0  0  0  0  0  0  0  0  0  0
    4.5981   -2.6830    0.0000 C   0  0  0  0  0  0  0  0  0  0  0  0
    8.0622    1.3170    0.0000 C   0  0  0  0  0  0  0  0  0  0  0  0
    3.7320   -3.1830    0.0000 C   0  0  0  0  0  0  0  0  0  0  0  0
    7.1962    1.8170    0.0000 C   0  0  0  0  0  0  0  0  0  0  0  0
    8.9282    1.8170    0.0000 C   0  0  0  0  0  0  0  0  0  0  0  0
    2.8660   -2.6830    0.0000 C   0  0  0  0  0  0  0  0  0  0  0  0
    7.1962    2.8170    0.0000 C   0  0  0  0  0  0  0  0  0  0  0  0
    8.9282    2.8170    0.0000 C   0  0  0  0  0  0  0  0  0  0  0  0
    8.0622    3.3170    0.0000 C   0  0  0  0  0  0  0  0  0  0  0  0
    2.8660   -4.6830    0.0000 C   0  0  0  0  0  0  0  0  0  0  0  0
    2.0000   -3.1830    0.0000 C   0  0  0  0  0  0  0  0  0  0  0  0
    2.0000   -4.1830    0.0000 C   0  0  0  0  0  0  0  0  0  0  0  0
    2.8660   -5.6830    0.0000 C   0  0  0  0  0  0  0  0  0  0  0  0
    9.7942    5.3170    0.0000 C   0  0  0  0  0  0  0  0  0  0  0  0
    7.7331   -0.4930    0.0000 H   0  0  0  0  0  0  0  0  0  0  0  0
    6.7287    0.7919    0.0000 H   0  0  0  0  0  0  0  0  0  0  0  0
    5.9316    0.7919    0.0000 H   0  0  0  0  0  0  0  0  0  0  0  0
    7.4082   -1.7656    0.0000 H   0  0  0  0  0  0  0  0  0  0  0  0
    7.8067   -1.0754    0.0000 H   0  0  0  0  0  0  0  0  0  0  0  0
    5.2520    0.3996    0.0000 H   0  0  0  0  0  0  0  0  0  0  0  0
    4.8535   -0.2907    0.0000 H   0  0  0  0  0  0  0  0  0  0  0  0
    5.9316   -2.1580    0.0000 H   0  0  0  0  0  0  0  0  0  0  0  0
    6.7287   -2.1580    0.0000 H   0  0  0  0  0  0  0  0  0  0  0  0
    4.3860   -1.1004    0.0000 H   0  0  0  0  0  0  0  0  0  0  0  0
    3.9875   -1.7907    0.0000 H   0  0  0  0  0  0  0  0  0  0  0  0
    4.8101   -3.2656    0.0000 H   0  0  0  0  0  0  0  0  0  0  0  0
    5.2087   -2.5753    0.0000 H   0  0  0  0  0  0  0  0  0  0  0  0
    6.6592    1.5070    0.0000 H   0  0  0  0  0  0  0  0  0  0  0  0
    9.4651    1.5070    0.0000 H   0  0  0  0  0  0  0  0  0  0  0  0
    2.8660   -2.0630    0.0000 H   0  0  0  0  0  0  0  0  0  0  0  0
    6.6592    3.1270    0.0000 H   0  0  0  0  0  0  0  0  0  0  0  0
    9.4651    3.1270    0.0000 H   0  0  0  0  0  0  0  0  0  0  0  0
    1.4631   -2.8730    0.0000 H   0  0  0  0  0  0  0  0  0  0  0  0
    7.5252    4.6270    0.0000 H   0  0  0  0  0  0  0  0  0  0  0  0
    1.4631   -4.4930    0.0000 H   0  0  0  0  0  0  0  0  0  0  0  0
    2.2460   -5.6830    0.0000 H   0  0  0  0  0  0  0  0  0  0  0  0
    2.8660   -6.3030    0.0000 H   0  0  0  0  0  0  0  0  0  0  0  0
    3.4860   -5.6830    0.0000 H   0  0  0  0  0  0  0  0  0  0  0  0
   10.1042    4.7800    0.0000 H   0  0  0  0  0  0  0  0  0  0  0  0
   10.3312    5.6270    0.0000 H   0  0  0  0  0  0  0  0  0  0  0  0
    9.4842    5.8539    0.0000 H   0  0  0  0  0  0  0  0  0  0  0  0
  1  3  2  0  0  0  0
  1  4  2  0  0  0  0
  1  7  1  0  0  0  0
  1 28  1  0  0  0  0
  2 14  2  0  0  0  0
  5 11  1  0  0  0  0
  5 12  1  0  0  0  0
  5 13  1  0  0  0  0
  6 17  1  0  0  0  0
  6 24  2  0  0  0  0
  7 23  1  0  0  0  0
  7 48  1  0  0  0  0
  8  9  1  0  0  0  0
  8 10  1  0  0  0  0
  8 14  1  0  0  0  0
  8 29  1  0  0  0  0
  9 11  1  0  0  0  0
  9 32  1  0  0  0  0
  9 33  1  0  0  0  0
 10 12  1  0  0  0  0
 10 30  1  0  0  0  0
 10 31  1  0  0  0  0
 11 36  1  0  0  0  0
 11 37  1  0  0  0  0
 12 34  1  0  0  0  0
 12 35  1  0  0  0  0
 13 15  1  0  0  0  0
 13 38  1  0  0  0  0
 13 39  1  0  0  0  0
 14 16  1  0  0  0  0
 15 17  1  0  0  0  0
 15 40  1  0  0  0  0
 15 41  1  0  0  0  0
 16 18  2  0  0  0  0
 16 19  1  0  0  0  0
 17 20  2  0  0  0  0
 18 21  1  0  0  0  0
 18 42  1  0  0  0  0
 19 22  2  0  0  0  0
 19 43  1  0  0  0  0
 20 25  1  0  0  0  0
 20 44  1  0  0  0  0
 21 23  2  0  0  0  0
 21 45  1  0  0  0  0
 22 23  1  0  0  0  0
 22 46  1  0  0  0  0
 24 26  1  0  0  0  0
 24 27  1  0  0  0  0
 25 26  2  0  0  0  0
 25 47  1  0  0  0  0
 26 49  1  0  0  0  0
 27 50  1  0  0  0  0
 27 51  1  0  0  0  0
 27 52  1  0  0  0  0
 28 53  1  0  0  0  0
 28 54  1  0  0  0  0
 28 55  1  0  0  0  0
M  END
> <PUBCHEM_COMPOUND_CID>
3185

> <PUBCHEM_COMPOUND_CANONICALIZED>
1

> <PUBCHEM_CACTVS_COMPLEXITY>
603

> <PUBCHEM_CACTVS_HBOND_ACCEPTOR>
6

> <PUBCHEM_CACTVS_HBOND_DONOR>
1

> <PUBCHEM_CACTVS_ROTATABLE_BOND>
7

> <PUBCHEM_CACTVS_SUBSKEYS>
AAADceB7MABAAAAAAAAAAAAAAAAAAAAAAAA8WIAAAAAAAAABwAAAHgQQQAAADQzBngSywJNIEAKoA6RyRHCCgCAlAiAImCE4ZNgIIPLA1ZGEIQhgkADIyYccicCeCAAAAAAAAAAQAAAAAAAAAAAAAAAAAA==

> <PUBCHEM_IUPAC_OPENEYE_NAME>
N-[4-[1-[2-(6-methyl-2-pyridyl)ethyl]piperidine-4-carbonyl]phenyl]methanesulfonamide

> <PUBCHEM_IUPAC_CAS_NAME>
N-[4-[[1-[2-(6-methyl-2-pyridinyl)ethyl]-4-piperidinyl]-oxomethyl]phenyl]methanesulfonamide

> <PUBCHEM_IUPAC_NAME>
N-[4-[1-[2-(6-methylpyridin-2-yl)ethyl]piperidine-4-carbonyl]phenyl]methanesulfonamide

> <PUBCHEM_IUPAC_SYSTEMATIC_NAME>
N-[4-[1-[2-(6-methylpyridin-2-yl)ethyl]piperidin-4-yl]carbonylphenyl]methanesulfonamide

> <PUBCHEM_IUPAC_TRADITIONAL_NAME>
N-[4-[1-[2-(6-methyl-2-pyridyl)ethyl]isonipecotoyl]phenyl]methanesulfonamide

> <PUBCHEM_IUPAC_INCHI>
InChI=1S/C21H27N3O3S/c1-16-4-3-5-19(22-16)12-15-24-13-10-18(11-14-24)21(25)17-6-8-20(9-7-17)23-28(2,26)27/h3-9,18,23H,10-15H2,1-2H3

> <PUBCHEM_IUPAC_INCHIKEY>
SRUISGSHWFJION-UHFFFAOYSA-N

> <PUBCHEM_XLOGP3_AA>
2.4

> <PUBCHEM_EXACT_MASS>
401.177313

> <PUBCHEM_MOLECULAR_FORMULA>
C21H27N3O3S

> <PUBCHEM_MOLECULAR_WEIGHT>
401.52238

> <PUBCHEM_OPENEYE_CAN_SMILES>
CC1=NC(=CC=C1)CCN2CCC(CC2)C(=O)C3=CC=C(C=C3)NS(=O)(=O)C

> <PUBCHEM_OPENEYE_ISO_SMILES>
CC1=NC(=CC=C1)CCN2CCC(CC2)C(=O)C3=CC=C(C=C3)NS(=O)(=O)C

> <PUBCHEM_CACTVS_TPSA>
87.8

> <PUBCHEM_MONOISOTOPIC_WEIGHT>
401.177313

> <PUBCHEM_TOTAL_CHARGE>
0

> <PUBCHEM_HEAVY_ATOM_COUNT>
28

> <PUBCHEM_ATOM_DEF_STEREO_COUNT>
0

> <PUBCHEM_ATOM_UDEF_STEREO_COUNT>
0

> <PUBCHEM_BOND_DEF_STEREO_COUNT>
0

> <PUBCHEM_BOND_UDEF_STEREO_COUNT>
0

> <PUBCHEM_ISOTOPIC_ATOM_COUNT>
0

> <PUBCHEM_COMPONENT_COUNT>
1

> <PUBCHEM_CACTVS_TAUTO_COUNT>
14

> <PUBCHEM_COORDINATE_TYPE>
1
5
255

> <PUBCHEM_BONDANNOTATIONS>
16  18  8
16  19  8
17  20  8
18  21  8
19  22  8
20  25  8
21  23  8
22  23  8
24  26  8
25  26  8
6  17  8
6  24  8

$$$$

