54691346
  -OEChem-07051213032D

 70 73  0     1  0  0  0  0  0999 V2000
   11.5426    2.4252    0.0000 Cl  0  0  0  0  0  0  0  0  0  0  0  0
   14.1962   -0.0819    0.0000 O   0  0  0  0  0  0  0  0  0  0  0  0
   16.7961   -0.5719    0.0000 O   0  0  0  0  0  0  0  0  0  0  0  0
   16.7884    1.4281    0.0000 O   0  0  0  0  0  0  0  0  0  0  0  0
   13.3244    1.4148    0.0000 O   0  0  0  0  0  0  0  0  0  0  0  0
   15.0525    2.4214    0.0000 O   0  0  0  0  0  0  0  0  0  0  0  0
    9.7942    1.3906    0.0000 O   0  0  0  0  0  0  0  0  0  0  0  0
    9.7942   -1.6094    0.0000 O   0  0  0  0  0  0  0  0  0  0  0  0
    8.0622    1.3906    0.0000 O   0  0  0  0  0  0  0  0  0  0  0  0
    7.1962    0.8906    0.0000 O   0  0  0  0  0  0  0  0  0  0  0  0
    3.7320   -2.1094    0.0000 O   0  0  0  0  0  0  0  0  0  0  0  0
    8.0622   -0.6094    0.0000 N   0  0  0  0  0  0  0  0  0  0  0  0
   15.0641   -0.5785    0.0000 C   0  0  0  0  0  0  0  0  0  0  0  0
   15.9282   -0.0752    0.0000 C   0  0  1  0  0  0  0  0  0  0  0  0
   15.9243    0.9248    0.0000 C   0  0  2  0  0  0  0  0  0  0  0  0
   15.0564    1.4215    0.0000 C   0  0  2  0  0  0  0  0  0  0  0  0
   14.1923    0.9181    0.0000 C   0  0  1  0  0  0  0  0  0  0  0  0
   15.5674   -1.4426    0.0000 C   0  0  0  0  0  0  0  0  0  0  0  0
   14.5674   -1.4465    0.0000 C   0  0  0  0  0  0  0  0  0  0  0  0
   12.4603    0.9114    0.0000 C   0  0  0  0  0  0  0  0  0  0  0  0
   11.5542    1.4253    0.0000 C   0  0  0  0  0  0  0  0  0  0  0  0
   12.4603   -0.1302    0.0000 C   0  0  0  0  0  0  0  0  0  0  0  0
   10.6603    0.8906    0.0000 C   0  0  0  0  0  0  0  0  0  0  0  0
   10.6603   -0.1094    0.0000 C   0  0  0  0  0  0  0  0  0  0  0  0
   11.5542   -0.6440    0.0000 C   0  0  0  0  0  0  0  0  0  0  0  0
    9.7942   -0.6094    0.0000 C   0  0  0  0  0  0  0  0  0  0  0  0
    8.9282   -0.1094    0.0000 C   0  0  0  0  0  0  0  0  0  0  0  0
    8.9282    0.8906    0.0000 C   0  0  0  0  0  0  0  0  0  0  0  0
    7.1962   -0.1094    0.0000 C   0  0  0  0  0  0  0  0  0  0  0  0
    6.3301   -0.6094    0.0000 C   0  0  0  0  0  0  0  0  0  0  0  0
    4.5981   -0.6094    0.0000 C   0  0  0  0  0  0  0  0  0  0  0  0
    5.4641   -0.1094    0.0000 C   0  0  0  0  0  0  0  0  0  0  0  0
    3.7320   -0.1094    0.0000 C   0  0  0  0  0  0  0  0  0  0  0  0
    6.3301   -1.6094    0.0000 C   0  0  0  0  0  0  0  0  0  0  0  0
    4.5981   -1.6094    0.0000 C   0  0  0  0  0  0  0  0  0  0  0  0
    5.4641   -2.1094    0.0000 C   0  0  0  0  0  0  0  0  0  0  0  0
    3.7320    0.8906    0.0000 C   0  0  0  0  0  0  0  0  0  0  0  0
    2.8660    1.3906    0.0000 C   0  0  0  0  0  0  0  0  0  0  0  0
    2.8660    2.3906    0.0000 C   0  0  0  0  0  0  0  0  0  0  0  0
    2.0000    0.8906    0.0000 C   0  0  0  0  0  0  0  0  0  0  0  0
   16.4639    0.2369    0.0000 H   0  0  0  0  0  0  0  0  0  0  0  0
   15.9219    1.5448    0.0000 H   0  0  0  0  0  0  0  0  0  0  0  0
   15.5921    1.7335    0.0000 H   0  0  0  0  0  0  0  0  0  0  0  0
   14.1899    1.5381    0.0000 H   0  0  0  0  0  0  0  0  0  0  0  0
   15.0317   -1.7547    0.0000 H   0  0  0  0  0  0  0  0  0  0  0  0
   15.8795   -1.9784    0.0000 H   0  0  0  0  0  0  0  0  0  0  0  0
   16.1032   -1.1306    0.0000 H   0  0  0  0  0  0  0  0  0  0  0  0
   14.0293   -1.1386    0.0000 H   0  0  0  0  0  0  0  0  0  0  0  0
   14.2595   -1.9846    0.0000 H   0  0  0  0  0  0  0  0  0  0  0  0
   15.1056   -1.7544    0.0000 H   0  0  0  0  0  0  0  0  0  0  0  0
   17.3319   -0.2598    0.0000 H   0  0  0  0  0  0  0  0  0  0  0  0
   16.7860    2.0481    0.0000 H   0  0  0  0  0  0  0  0  0  0  0  0
   14.5144    2.7294    0.0000 H   0  0  0  0  0  0  0  0  0  0  0  0
   12.9960   -0.4423    0.0000 H   0  0  0  0  0  0  0  0  0  0  0  0
   11.5470   -1.2640    0.0000 H   0  0  0  0  0  0  0  0  0  0  0  0
    8.0622   -1.2294    0.0000 H   0  0  0  0  0  0  0  0  0  0  0  0
   10.3312   -1.9194    0.0000 H   0  0  0  0  0  0  0  0  0  0  0  0
    5.4641    0.5106    0.0000 H   0  0  0  0  0  0  0  0  0  0  0  0
    3.1215   -0.0017    0.0000 H   0  0  0  0  0  0  0  0  0  0  0  0
    3.5200   -0.6920    0.0000 H   0  0  0  0  0  0  0  0  0  0  0  0
    6.8671   -1.9194    0.0000 H   0  0  0  0  0  0  0  0  0  0  0  0
    5.4641   -2.7294    0.0000 H   0  0  0  0  0  0  0  0  0  0  0  0
    4.2690    1.2006    0.0000 H   0  0  0  0  0  0  0  0  0  0  0  0
    3.4860    2.3906    0.0000 H   0  0  0  0  0  0  0  0  0  0  0  0
    1.6900    1.4276    0.0000 H   0  0  0  0  0  0  0  0  0  0  0  0
    1.4631    0.5806    0.0000 H   0  0  0  0  0  0  0  0  0  0  0  0
    2.3100    0.3537    0.0000 H   0  0  0  0  0  0  0  0  0  0  0  0
    2.8660    3.0106    0.0000 H   0  0  0  0  0  0  0  0  0  0  0  0
    2.2460    2.3906    0.0000 H   0  0  0  0  0  0  0  0  0  0  0  0
    3.7320   -2.7294    0.0000 H   0  0  0  0  0  0  0  0  0  0  0  0
  1 21  1  0  0  0  0
  2 13  1  0  0  0  0
  2 17  1  0  0  0  0
 14  3  1  1  0  0  0
  3 51  1  0  0  0  0
 15  4  1  6  0  0  0
  4 52  1  0  0  0  0
 17  5  1  1  0  0  0
  5 20  1  0  0  0  0
 16  6  1  6  0  0  0
  6 53  1  0  0  0  0
  7 23  1  0  0  0  0
  7 28  1  0  0  0  0
  8 26  1  0  0  0  0
  8 57  1  0  0  0  0
  9 28  2  0  0  0  0
 10 29  2  0  0  0  0
 11 35  1  0  0  0  0
 11 70  1  0  0  0  0
 12 27  1  0  0  0  0
 12 29  1  0  0  0  0
 12 56  1  0  0  0  0
 13 14  1  0  0  0  0
 13 18  1  0  0  0  0
 13 19  1  0  0  0  0
 14 15  1  0  0  0  0
 14 41  1  0  0  0  0
 15 16  1  0  0  0  0
 15 42  1  0  0  0  0
 16 17  1  0  0  0  0
 16 43  1  0  0  0  0
 17 44  1  0  0  0  0
 18 45  1  0  0  0  0
 18 46  1  0  0  0  0
 18 47  1  0  0  0  0
 19 48  1  0  0  0  0
 19 49  1  0  0  0  0
 19 50  1  0  0  0  0
 20 21  2  0  0  0  0
 20 22  1  0  0  0  0
 21 23  1  0  0  0  0
 22 25  2  0  0  0  0
 22 54  1  0  0  0  0
 23 24  2  0  0  0  0
 24 25  1  0  0  0  0
 24 26  1  0  0  0  0
 25 55  1  0  0  0  0
 26 27  2  0  0  0  0
 27 28  1  0  0  0  0
 29 30  1  0  0  0  0
 30 32  2  0  0  0  0
 30 34  1  0  0  0  0
 31 32  1  0  0  0  0
 31 33  1  0  0  0  0
 31 35  2  0  0  0  0
 32 58  1  0  0  0  0
 33 37  1  0  0  0  0
 33 59  1  0  0  0  0
 33 60  1  0  0  0  0
 34 36  2  0  0  0  0
 34 61  1  0  0  0  0
 35 36  1  0  0  0  0
 36 62  1  0  0  0  0
 37 38  2  0  0  0  0
 37 63  1  0  0  0  0
 38 39  1  0  0  0  0
 38 40  1  0  0  0  0
 39 64  1  0  0  0  0
 39 68  1  0  0  0  0
 39 69  1  0  0  0  0
 40 65  1  0  0  0  0
 40 66  1  0  0  0  0
 40 67  1  0  0  0  0
M  END
> <PUBCHEM_COMPOUND_CID>
54691346

> <PUBCHEM_COMPOUND_CANONICALIZED>
1

> <PUBCHEM_CACTVS_COMPLEXITY>
1030

> <PUBCHEM_CACTVS_HBOND_ACCEPTOR>
10

> <PUBCHEM_CACTVS_HBOND_DONOR>
6

> <PUBCHEM_CACTVS_ROTATABLE_BOND>
6

> <PUBCHEM_CACTVS_SUBSKEYS>
AAADceB6PAAEAAAAAAAAAAAAAAAAAAAAAAA0YIEAAAAAAACBQAAAHgIQCAAADF6xmCMyDoLABgCIAiXSWACCCAAkJEAIiAGGD8gfNzOHtzuneyjlxBWfuYfY/P7OIAACKAAICABAAARQABAQAAAAAAAAAA==

> <PUBCHEM_IUPAC_OPENEYE_NAME>
N-[8-chloro-4-hydroxy-2-oxo-7-[(2S,3R,4R,5R)-3,4,5-trihydroxy-6,6-dimethyl-tetrahydropyran-2-yl]oxy-chromen-3-yl]-4-hydroxy-3-(3-methylbut-2-enyl)benzamide

> <PUBCHEM_IUPAC_CAS_NAME>
N-[8-chloro-4-hydroxy-2-oxo-7-[[(2S,3R,4R,5R)-3,4,5-trihydroxy-6,6-dimethyl-2-oxanyl]oxy]-1-benzopyran-3-yl]-4-hydroxy-3-(3-methylbut-2-enyl)benzamide

> <PUBCHEM_IUPAC_NAME>
N-[8-chloro-4-hydroxy-2-oxo-7-[(2S,3R,4R,5R)-3,4,5-trihydroxy-6,6-dimethyloxan-2-yl]oxychromen-3-yl]-4-hydroxy-3-(3-methylbut-2-enyl)benzamide

> <PUBCHEM_IUPAC_SYSTEMATIC_NAME>
N-[8-chloranyl-7-[(2S,3R,4R,5R)-6,6-dimethyl-3,4,5-tris(oxidanyl)oxan-2-yl]oxy-4-oxidanyl-2-oxidanylidene-chromen-3-yl]-3-(3-methylbut-2-enyl)-4-oxidanyl-benzamide

> <PUBCHEM_IUPAC_TRADITIONAL_NAME>
N-[8-chloro-4-hydroxy-2-keto-7-[(2S,3R,4R,5R)-3,4,5-trihydroxy-6,6-dimethyl-tetrahydropyran-2-yl]oxy-chromen-3-yl]-4-hydroxy-3-(3-methylbut-2-enyl)benzamide

> <PUBCHEM_IUPAC_INCHI>
InChI=1S/C28H30ClNO10/c1-12(2)5-6-13-11-14(7-9-16(13)31)25(36)30-19-20(32)15-8-10-17(18(29)23(15)39-26(19)37)38-27-22(34)21(33)24(35)28(3,4)40-27/h5,7-11,21-22,24,27,31-35H,6H2,1-4H3,(H,30,36)/t21-,22+,24+,27+/m0/s1

> <PUBCHEM_IUPAC_INCHIKEY>
PVBGAGFRLSUWAK-CXTNQITHSA-N

> <PUBCHEM_XLOGP3_AA>
3

> <PUBCHEM_EXACT_MASS>
575.155824

> <PUBCHEM_MOLECULAR_FORMULA>
C28H30ClNO10

> <PUBCHEM_MOLECULAR_WEIGHT>
575.9915

> <PUBCHEM_OPENEYE_CAN_SMILES>
CC(=CCC1=C(C=CC(=C1)C(=O)NC2=C(C3=C(C(=C(C=C3)OC4C(C(C(C(O4)(C)C)O)O)O)Cl)OC2=O)O)O)C

> <PUBCHEM_OPENEYE_ISO_SMILES>
CC(=CCC1=C(C=CC(=C1)C(=O)NC2=C(C3=C(C(=C(C=C3)O[C@H]4[C@@H]([C@@H]([C@H](C(O4)(C)C)O)O)O)Cl)OC2=O)O)O)C

> <PUBCHEM_CACTVS_TPSA>
175

> <PUBCHEM_MONOISOTOPIC_WEIGHT>
575.155824

> <PUBCHEM_TOTAL_CHARGE>
0

> <PUBCHEM_HEAVY_ATOM_COUNT>
40

> <PUBCHEM_ATOM_DEF_STEREO_COUNT>
4

> <PUBCHEM_ATOM_UDEF_STEREO_COUNT>
0

> <PUBCHEM_BOND_DEF_STEREO_COUNT>
0

> <PUBCHEM_BOND_UDEF_STEREO_COUNT>
0

> <PUBCHEM_ISOTOPIC_ATOM_COUNT>
0

> <PUBCHEM_COMPONENT_COUNT>
1

> <PUBCHEM_CACTVS_TAUTO_COUNT>
41

> <PUBCHEM_COORDINATE_TYPE>
1
5
255

> <PUBCHEM_BONDANNOTATIONS>
20  21  8
20  22  8
21  23  8
22  25  8
23  24  8
24  25  8
24  26  8
26  27  8
27  28  8
14  3  5
30  32  8
30  34  8
31  32  8
31  35  8
34  36  8
35  36  8
15  4  6
17  5  5
16  6  6
7  23  8
7  28  8

$$$$

