177956
  -OEChem-07051213043D

 23 24  0     0  0  0  0  0  0999 V2000
   -0.6157    2.5412    0.0043 Cl  0  0  0  0  0  0  0  0  0  0  0  0
   -0.1792   -2.8981   -0.0046 Cl  0  0  0  0  0  0  0  0  0  0  0  0
    0.8026   -0.0567   -2.7398 Cl  0  0  0  0  0  0  0  0  0  0  0  0
    0.8020   -0.0668    2.7396 Cl  0  0  0  0  0  0  0  0  0  0  0  0
   -3.7783    2.2172    0.0029 Cl  0  0  0  0  0  0  0  0  0  0  0  0
    5.4051    0.3286    0.0004 Cl  0  0  0  0  0  0  0  0  0  0  0  0
   -4.6710   -0.6020   -0.0005 O   0  0  0  0  0  0  0  0  0  0  0  0
   -0.5394   -0.1782   -0.0003 C   0  0  0  0  0  0  0  0  0  0  0  0
    0.9115   -0.0535   -0.0001 C   0  0  0  0  0  0  0  0  0  0  0  0
   -1.3460    0.9598    0.0003 C   0  0  0  0  0  0  0  0  0  0  0  0
   -1.1216   -1.4458   -0.0012 C   0  0  0  0  0  0  0  0  0  0  0  0
    1.6056    0.0070   -1.2080 C   0  0  0  0  0  0  0  0  0  0  0  0
    1.6053    0.0034    1.2081 C   0  0  0  0  0  0  0  0  0  0  0  0
   -2.7349    0.8302    0.0000 C   0  0  0  0  0  0  0  0  0  0  0  0
   -2.5104   -1.5755   -0.0014 C   0  0  0  0  0  0  0  0  0  0  0  0
   -3.3170   -0.4375   -0.0009 C   0  0  0  0  0  0  0  0  0  0  0  0
    2.9955    0.1244   -1.2076 C   0  0  0  0  0  0  0  0  0  0  0  0
    2.9954    0.1208    1.2082 C   0  0  0  0  0  0  0  0  0  0  0  0
    3.6904    0.1814    0.0004 C   0  0  0  0  0  0  0  0  0  0  0  0
   -2.9662   -2.5632   -0.0024 H   0  0  0  0  0  0  0  0  0  0  0  0
    3.5405    0.1724   -2.1481 H   0  0  0  0  0  0  0  0  0  0  0  0
    3.5402    0.1659    2.1489 H   0  0  0  0  0  0  0  0  0  0  0  0
   -4.8793   -1.5519   -0.0009 H   0  0  0  0  0  0  0  0  0  0  0  0
  1 10  1  0  0  0  0
  2 11  1  0  0  0  0
  3 12  1  0  0  0  0
  4 13  1  0  0  0  0
  5 14  1  0  0  0  0
  6 19  1  0  0  0  0
  7 16  1  0  0  0  0
  7 23  1  0  0  0  0
  8  9  1  0  0  0  0
  8 10  1  0  0  0  0
  8 11  2  0  0  0  0
  9 12  2  0  0  0  0
  9 13  1  0  0  0  0
 10 14  2  0  0  0  0
 11 15  1  0  0  0  0
 12 17  1  0  0  0  0
 13 18  2  0  0  0  0
 14 16  1  0  0  0  0
 15 16  2  0  0  0  0
 15 20  1  0  0  0  0
 17 19  2  0  0  0  0
 17 21  1  0  0  0  0
 18 19  1  0  0  0  0
 18 22  1  0  0  0  0
M  END
> <PUBCHEM_COMPOUND_CID>
177956

> <PUBCHEM_CONFORMER_RMSD>
0.6

> <PUBCHEM_CONFORMER_DIVERSEORDER>
1

> <PUBCHEM_MMFF94_PARTIAL_CHARGES>
21
1 -0.18
10 0.18
11 0.18
12 0.18
13 0.18
14 0.18
15 -0.15
16 0.08
17 -0.15
18 -0.15
19 0.18
2 -0.18
20 0.15
21 0.15
22 0.15
23 0.45
3 -0.18
4 -0.18
5 -0.18
6 -0.18
7 -0.53

> <PUBCHEM_EFFECTIVE_ROTOR_COUNT>
1

> <PUBCHEM_PHARMACOPHORE_FEATURES>
3
1 7 donor
6 8 10 11 14 15 16 rings
6 9 12 13 17 18 19 rings

> <PUBCHEM_HEAVY_ATOM_COUNT>
19

> <PUBCHEM_ATOM_DEF_STEREO_COUNT>
0

> <PUBCHEM_ATOM_UDEF_STEREO_COUNT>
0

> <PUBCHEM_BOND_DEF_STEREO_COUNT>
0

> <PUBCHEM_BOND_UDEF_STEREO_COUNT>
0

> <PUBCHEM_ISOTOPIC_ATOM_COUNT>
0

> <PUBCHEM_COMPONENT_COUNT>
1

> <PUBCHEM_CACTVS_TAUTO_COUNT>
3

> <PUBCHEM_CONFORMER_ID>
0002B72400000001

> <PUBCHEM_MMFF94_ENERGY>
53.623

> <PUBCHEM_FEATURE_SELFOVERLAP>
15.223

> <PUBCHEM_SHAPE_FINGERPRINT>
10498660 4 18338238275139439277
10863032 1 18336264655935571330
11370993 70 18409448107284402438
12236239 1 17703792509196229178
13140716 1 18122618367528781931
13464514 151 17387686347873856657
13538477 17 17916867902767527019
13581323 91 18412549803436324090
13583140 156 17971224571343087104
13965767 371 17556576870129477813
15219456 202 17676202506759368924
16752209 62 18341346526060262459
16945 1 18410855417263099235
18175812 5 17604432894694898268
18186145 218 17894900875708972883
200 152 16487262049420081257
20233049 118 18273219685854322045
20344682 1 17676485038424829956
20510252 161 18334292093452414305
20600515 1 18336253574798998965
20645476 183 17489591113109164899
23175994 123 16877936114523396400
23402539 116 18334582334256656268
23419403 2 17170393996672279458
23493267 7 18114181951878382610
23526113 38 17314227950268071312
23557571 272 18260823800220977404
23559900 14 18261104232127082702
25 1 16588022441529477206
2748010 2 17978793407541265591
350125 39 17545876487666556521
474 4 17201913731356082700
7364860 26 17974570509174383679
77492 1 17704073984072706530

> <PUBCHEM_SHAPE_MULTIPOLES>
396.36
7.4
2.1
1.78
2.4
0.28
0
-1.68
0
-2.06
0
1.31
0.03
0

> <PUBCHEM_SHAPE_SELFOVERLAP>
810.096

> <PUBCHEM_SHAPE_VOLUME>
235.1

> <PUBCHEM_COORDINATE_TYPE>
2
5
10

$$$$

