95708
  -OEChem-07051213002D

 36 38  0     0  0  0  0  0  0999 V2000
    8.2103   -0.8047    0.0000 O   0  0  0  0  0  0  0  0  0  0  0  0
    6.3981    2.0000    0.0000 O   0  0  0  0  0  0  0  0  0  0  0  0
    4.6497    2.0346    0.0000 O   0  0  0  0  0  0  0  0  0  0  0  0
    4.6497   -2.0346    0.0000 O   0  0  0  0  0  0  0  0  0  0  0  0
    2.8680   -1.0241    0.0000 O   0  0  0  0  0  0  0  0  0  0  0  0
    6.3981   -1.0000    0.0000 N   0  0  0  0  0  0  0  0  0  0  0  0
    5.5320    0.5000    0.0000 C   0  0  0  0  0  0  0  0  0  0  0  0
    5.5320   -0.5000    0.0000 C   0  0  0  0  0  0  0  0  0  0  0  0
    6.3981    1.0000    0.0000 C   0  0  0  0  0  0  0  0  0  0  0  0
    7.2641    0.5000    0.0000 C   0  0  0  0  0  0  0  0  0  0  0  0
    4.6381    1.0347    0.0000 C   0  0  0  0  0  0  0  0  0  0  0  0
    4.6381   -1.0347    0.0000 C   0  0  0  0  0  0  0  0  0  0  0  0
    7.2641   -0.5000    0.0000 C   0  0  0  0  0  0  0  0  0  0  0  0
    3.7320   -0.5208    0.0000 C   0  0  0  0  0  0  0  0  0  0  0  0
    3.7320    0.5208    0.0000 C   0  0  0  0  0  0  0  0  0  0  0  0
    8.2103    0.8047    0.0000 C   0  0  0  0  0  0  0  0  0  0  0  0
    8.7939    0.0000    0.0000 C   0  0  0  0  0  0  0  0  0  0  0  0
    7.2641    2.5000    0.0000 C   0  0  0  0  0  0  0  0  0  0  0  0
    3.7895    2.5446    0.0000 C   0  0  0  0  0  0  0  0  0  0  0  0
    3.7895   -2.5446    0.0000 C   0  0  0  0  0  0  0  0  0  0  0  0
    2.0000   -0.5275    0.0000 C   0  0  0  0  0  0  0  0  0  0  0  0
    3.1963    0.8329    0.0000 H   0  0  0  0  0  0  0  0  0  0  0  0
    8.4029    1.3940    0.0000 H   0  0  0  0  0  0  0  0  0  0  0  0
    9.4139    0.0000    0.0000 H   0  0  0  0  0  0  0  0  0  0  0  0
    7.5741    1.9631    0.0000 H   0  0  0  0  0  0  0  0  0  0  0  0
    7.8010    2.8100    0.0000 H   0  0  0  0  0  0  0  0  0  0  0  0
    6.9541    3.0369    0.0000 H   0  0  0  0  0  0  0  0  0  0  0  0
    4.1057    3.0779    0.0000 H   0  0  0  0  0  0  0  0  0  0  0  0
    3.2562    2.8608    0.0000 H   0  0  0  0  0  0  0  0  0  0  0  0
    3.4733    2.0113    0.0000 H   0  0  0  0  0  0  0  0  0  0  0  0
    3.4733   -2.0113    0.0000 H   0  0  0  0  0  0  0  0  0  0  0  0
    3.2562   -2.8608    0.0000 H   0  0  0  0  0  0  0  0  0  0  0  0
    4.1057   -3.0779    0.0000 H   0  0  0  0  0  0  0  0  0  0  0  0
    2.3079    0.0106    0.0000 H   0  0  0  0  0  0  0  0  0  0  0  0
    1.4619   -0.2196    0.0000 H   0  0  0  0  0  0  0  0  0  0  0  0
    1.6921   -1.0656    0.0000 H   0  0  0  0  0  0  0  0  0  0  0  0
  1 13  1  0  0  0  0
  1 17  1  0  0  0  0
  2  9  1  0  0  0  0
  2 18  1  0  0  0  0
  3 11  1  0  0  0  0
  3 19  1  0  0  0  0
  4 12  1  0  0  0  0
  4 20  1  0  0  0  0
  5 14  1  0  0  0  0
  5 21  1  0  0  0  0
  6  8  1  0  0  0  0
  6 13  2  0  0  0  0
  7  8  2  0  0  0  0
  7  9  1  0  0  0  0
  7 11  1  0  0  0  0
  8 12  1  0  0  0  0
  9 10  2  0  0  0  0
 10 13  1  0  0  0  0
 10 16  1  0  0  0  0
 11 15  2  0  0  0  0
 12 14  2  0  0  0  0
 14 15  1  0  0  0  0
 15 22  1  0  0  0  0
 16 17  2  0  0  0  0
 16 23  1  0  0  0  0
 17 24  1  0  0  0  0
 18 25  1  0  0  0  0
 18 26  1  0  0  0  0
 18 27  1  0  0  0  0
 19 28  1  0  0  0  0
 19 29  1  0  0  0  0
 19 30  1  0  0  0  0
 20 31  1  0  0  0  0
 20 32  1  0  0  0  0
 20 33  1  0  0  0  0
 21 34  1  0  0  0  0
 21 35  1  0  0  0  0
 21 36  1  0  0  0  0
M  END
> <PUBCHEM_COMPOUND_CID>
95708

> <PUBCHEM_COMPOUND_CANONICALIZED>
1

> <PUBCHEM_CACTVS_COMPLEXITY>
355

> <PUBCHEM_CACTVS_HBOND_ACCEPTOR>
6

> <PUBCHEM_CACTVS_HBOND_DONOR>
0

> <PUBCHEM_CACTVS_ROTATABLE_BOND>
4

> <PUBCHEM_CACTVS_SUBSKEYS>
AAADccByOAAAAAAAAAAAAAAAAAAAASAAAAA8QAAAAAAAAFix/gAAHgAAAAAADAyhngIyxvIIFECoAy1y1ASCiCAtYCAImCEnzNgPJ/bEtJuPOWrn5B3a6Yf+/f/eIQABCgAKUABCAAIUABSgAAAAAAAAAA==

> <PUBCHEM_IUPAC_OPENEYE_NAME>
4,5,7,8-tetramethoxyfuro[2,3-b]quinoline

> <PUBCHEM_IUPAC_CAS_NAME>
4,5,7,8-tetramethoxyfuro[2,3-b]quinoline

> <PUBCHEM_IUPAC_NAME>
4,5,7,8-tetramethoxyfuro[2,3-b]quinoline

> <PUBCHEM_IUPAC_SYSTEMATIC_NAME>
4,5,7,8-tetramethoxyfuro[2,3-b]quinoline

> <PUBCHEM_IUPAC_TRADITIONAL_NAME>
4,5,7,8-tetramethoxyfuro[2,3-b]quinoline

> <PUBCHEM_IUPAC_INCHI>
InChI=1S/C15H15NO5/c1-17-9-7-10(18-2)14(20-4)12-11(9)13(19-3)8-5-6-21-15(8)16-12/h5-7H,1-4H3

> <PUBCHEM_IUPAC_INCHIKEY>
XTCGYRFLVLFRGW-UHFFFAOYSA-N

> <PUBCHEM_XLOGP3_AA>
2.8

> <PUBCHEM_EXACT_MASS>
289.095023

> <PUBCHEM_MOLECULAR_FORMULA>
C15H15NO5

> <PUBCHEM_MOLECULAR_WEIGHT>
289.2833

> <PUBCHEM_OPENEYE_CAN_SMILES>
COC1=CC(=C(C2=C1C(=C3C=COC3=N2)OC)OC)OC

> <PUBCHEM_OPENEYE_ISO_SMILES>
COC1=CC(=C(C2=C1C(=C3C=COC3=N2)OC)OC)OC

> <PUBCHEM_CACTVS_TPSA>
63

> <PUBCHEM_MONOISOTOPIC_WEIGHT>
289.095023

> <PUBCHEM_TOTAL_CHARGE>
0

> <PUBCHEM_HEAVY_ATOM_COUNT>
21

> <PUBCHEM_ATOM_DEF_STEREO_COUNT>
0

> <PUBCHEM_ATOM_UDEF_STEREO_COUNT>
0

> <PUBCHEM_BOND_DEF_STEREO_COUNT>
0

> <PUBCHEM_BOND_UDEF_STEREO_COUNT>
0

> <PUBCHEM_ISOTOPIC_ATOM_COUNT>
0

> <PUBCHEM_COMPONENT_COUNT>
1

> <PUBCHEM_CACTVS_TAUTO_COUNT>
1

> <PUBCHEM_COORDINATE_TYPE>
1
5
255

> <PUBCHEM_BONDANNOTATIONS>
1  13  8
1  17  8
10  13  8
10  16  8
11  15  8
12  14  8
14  15  8
16  17  8
6  13  8
6  8  8
7  11  8
7  8  8
7  9  8
8  12  8
9  10  8

$$$$

