73281
  -OEChem-07051213002D

 46 47  0     0  0  0  0  0  0999 V2000
    5.4641   -1.5000    0.0000 S   0  0  0  0  0  0  0  0  0  0  0  0
    6.4641   -1.5000    0.0000 O   0  0  0  0  0  0  0  0  0  0  0  0
    4.4641   -1.5000    0.0000 O   0  0  0  0  0  0  0  0  0  0  0  0
    3.7320   -1.5000    0.0000 O   0  0  0  0  0  0  0  0  0  0  0  0
    7.1962   -0.5000    0.0000 O   0  0  0  0  0  0  0  0  0  0  0  0
    8.0622    4.0000    0.0000 O   0  0  0  0  0  0  0  0  0  0  0  0
    9.7942    1.0000    0.0000 O   0  0  0  0  0  0  0  0  0  0  0  0
    2.8660   -3.0000    0.0000 N   0  0  0  0  0  0  0  0  0  0  0  0
    5.4641   -0.5000    0.0000 N   0  0  0  0  0  0  0  0  0  0  0  0
    6.3301   -3.0000    0.0000 N   0  0  0  0  0  0  0  0  0  0  0  0
    6.3301    1.0000    0.0000 N   0  0  0  0  0  0  0  0  0  0  0  0
    7.1962    2.5000    0.0000 N   0  0  0  0  0  0  0  0  0  0  0  0
    8.0622    1.0000    0.0000 N   0  0  0  0  0  0  0  0  0  0  0  0
    5.4641   -2.5000    0.0000 C   0  0  0  0  0  0  0  0  0  0  0  0
    4.5981   -3.0000    0.0000 C   0  0  0  0  0  0  0  0  0  0  0  0
    3.7320   -2.5000    0.0000 C   0  0  0  0  0  0  0  0  0  0  0  0
    4.5981   -4.0000    0.0000 C   0  0  0  0  0  0  0  0  0  0  0  0
    5.4641   -4.5000    0.0000 C   0  0  0  0  0  0  0  0  0  0  0  0
    6.3301   -4.0000    0.0000 C   0  0  0  0  0  0  0  0  0  0  0  0
    2.0000   -2.5000    0.0000 C   0  0  0  0  0  0  0  0  0  0  0  0
    2.8660   -4.0000    0.0000 C   0  0  0  0  0  0  0  0  0  0  0  0
    6.3301    0.0000    0.0000 C   0  0  0  0  0  0  0  0  0  0  0  0
    7.1962    1.5000    0.0000 C   0  0  0  0  0  0  0  0  0  0  0  0
    8.0622    3.0000    0.0000 C   0  0  0  0  0  0  0  0  0  0  0  0
    8.9282    1.5000    0.0000 C   0  0  0  0  0  0  0  0  0  0  0  0
    8.9282    2.5000    0.0000 C   0  0  0  0  0  0  0  0  0  0  0  0
    8.9282    4.5000    0.0000 C   0  0  0  0  0  0  0  0  0  0  0  0
   10.6603    1.5000    0.0000 C   0  0  0  0  0  0  0  0  0  0  0  0
    4.0611   -4.3100    0.0000 H   0  0  0  0  0  0  0  0  0  0  0  0
    4.9272   -0.1900    0.0000 H   0  0  0  0  0  0  0  0  0  0  0  0
    5.4641   -5.1200    0.0000 H   0  0  0  0  0  0  0  0  0  0  0  0
    6.8671   -4.3100    0.0000 H   0  0  0  0  0  0  0  0  0  0  0  0
    2.2460   -4.0000    0.0000 H   0  0  0  0  0  0  0  0  0  0  0  0
    2.3100   -1.9631    0.0000 H   0  0  0  0  0  0  0  0  0  0  0  0
    1.4631   -2.1900    0.0000 H   0  0  0  0  0  0  0  0  0  0  0  0
    1.6900   -3.0369    0.0000 H   0  0  0  0  0  0  0  0  0  0  0  0
    2.8660   -4.6200    0.0000 H   0  0  0  0  0  0  0  0  0  0  0  0
    3.4860   -4.0000    0.0000 H   0  0  0  0  0  0  0  0  0  0  0  0
    5.7932    1.3100    0.0000 H   0  0  0  0  0  0  0  0  0  0  0  0
    9.4651    2.8100    0.0000 H   0  0  0  0  0  0  0  0  0  0  0  0
    9.2382    3.9631    0.0000 H   0  0  0  0  0  0  0  0  0  0  0  0
    9.4651    4.8100    0.0000 H   0  0  0  0  0  0  0  0  0  0  0  0
    8.6182    5.0369    0.0000 H   0  0  0  0  0  0  0  0  0  0  0  0
   10.9703    0.9631    0.0000 H   0  0  0  0  0  0  0  0  0  0  0  0
   11.1972    1.8100    0.0000 H   0  0  0  0  0  0  0  0  0  0  0  0
   10.3503    2.0369    0.0000 H   0  0  0  0  0  0  0  0  0  0  0  0
  1  2  2  0  0  0  0
  1  3  2  0  0  0  0
  1  9  1  0  0  0  0
  1 14  1  0  0  0  0
  4 16  2  0  0  0  0
  5 22  2  0  0  0  0
  6 24  1  0  0  0  0
  6 27  1  0  0  0  0
  7 25  1  0  0  0  0
  7 28  1  0  0  0  0
  8 16  1  0  0  0  0
  8 20  1  0  0  0  0
  8 21  1  0  0  0  0
  9 22  1  0  0  0  0
  9 30  1  0  0  0  0
 10 14  1  0  0  0  0
 10 19  2  0  0  0  0
 11 22  1  0  0  0  0
 11 23  1  0  0  0  0
 11 39  1  0  0  0  0
 12 23  1  0  0  0  0
 12 24  2  0  0  0  0
 13 23  2  0  0  0  0
 13 25  1  0  0  0  0
 14 15  2  0  0  0  0
 15 16  1  0  0  0  0
 15 17  1  0  0  0  0
 17 18  2  0  0  0  0
 17 29  1  0  0  0  0
 18 19  1  0  0  0  0
 18 31  1  0  0  0  0
 19 32  1  0  0  0  0
 20 34  1  0  0  0  0
 20 35  1  0  0  0  0
 20 36  1  0  0  0  0
 21 33  1  0  0  0  0
 21 37  1  0  0  0  0
 21 38  1  0  0  0  0
 24 26  1  0  0  0  0
 25 26  2  0  0  0  0
 26 40  1  0  0  0  0
 27 41  1  0  0  0  0
 27 42  1  0  0  0  0
 27 43  1  0  0  0  0
 28 44  1  0  0  0  0
 28 45  1  0  0  0  0
 28 46  1  0  0  0  0
M  END
> <PUBCHEM_COMPOUND_CID>
73281

> <PUBCHEM_COMPOUND_CANONICALIZED>
1

> <PUBCHEM_CACTVS_COMPLEXITY>
642

> <PUBCHEM_CACTVS_HBOND_ACCEPTOR>
9

> <PUBCHEM_CACTVS_HBOND_DONOR>
2

> <PUBCHEM_CACTVS_ROTATABLE_BOND>
6

> <PUBCHEM_CACTVS_SUBSKEYS>
AAADceBzuABAAAAAAAAAAAAAAAAAAAAAAAAsWAAAAAAAAAAB4AAAHgQQQAAADADB2gY/lZfIFAKoAjF3dHDK2Dk1IqAJ2DE+bNiMLfrE/dmEJahrgw7I6eYYAQAMAAAAAAAAAAAAAAAAAAAAAAAAAAAAAA==

> <PUBCHEM_IUPAC_OPENEYE_NAME>
2-[(4,6-dimethoxypyrimidin-2-yl)carbamoylsulfamoyl]-N,N-dimethyl-pyridine-3-carboxamide

> <PUBCHEM_IUPAC_CAS_NAME>
2-[[[(4,6-dimethoxy-2-pyrimidinyl)amino]-oxomethyl]sulfamoyl]-N,N-dimethyl-3-pyridinecarboxamide

> <PUBCHEM_IUPAC_NAME>
2-[(4,6-dimethoxypyrimidin-2-yl)carbamoylsulfamoyl]-N,N-dimethylpyridine-3-carboxamide

> <PUBCHEM_IUPAC_SYSTEMATIC_NAME>
2-[(4,6-dimethoxypyrimidin-2-yl)carbamoylsulfamoyl]-N,N-dimethyl-pyridine-3-carboxamide

> <PUBCHEM_IUPAC_TRADITIONAL_NAME>
2-[(4,6-dimethoxypyrimidin-2-yl)carbamoylsulfamoyl]-N,N-dimethyl-nicotinamide

> <PUBCHEM_IUPAC_INCHI>
InChI=1S/C15H18N6O6S/c1-21(2)13(22)9-6-5-7-16-12(9)28(24,25)20-15(23)19-14-17-10(26-3)8-11(18-14)27-4/h5-8H,1-4H3,(H2,17,18,19,20,23)

> <PUBCHEM_IUPAC_INCHIKEY>
RTCOGUMHFFWOJV-UHFFFAOYSA-N

> <PUBCHEM_XLOGP3_AA>
0.6

> <PUBCHEM_EXACT_MASS>
410.100853

> <PUBCHEM_MOLECULAR_FORMULA>
C15H18N6O6S

> <PUBCHEM_MOLECULAR_WEIGHT>
410.40502

> <PUBCHEM_OPENEYE_CAN_SMILES>
CN(C)C(=O)C1=C(N=CC=C1)S(=O)(=O)NC(=O)NC2=NC(=CC(=N2)OC)OC

> <PUBCHEM_OPENEYE_ISO_SMILES>
CN(C)C(=O)C1=C(N=CC=C1)S(=O)(=O)NC(=O)NC2=NC(=CC(=N2)OC)OC

> <PUBCHEM_CACTVS_TPSA>
161

> <PUBCHEM_MONOISOTOPIC_WEIGHT>
410.100853

> <PUBCHEM_TOTAL_CHARGE>
0

> <PUBCHEM_HEAVY_ATOM_COUNT>
28

> <PUBCHEM_ATOM_DEF_STEREO_COUNT>
0

> <PUBCHEM_ATOM_UDEF_STEREO_COUNT>
0

> <PUBCHEM_BOND_DEF_STEREO_COUNT>
0

> <PUBCHEM_BOND_UDEF_STEREO_COUNT>
0

> <PUBCHEM_ISOTOPIC_ATOM_COUNT>
0

> <PUBCHEM_COMPONENT_COUNT>
1

> <PUBCHEM_CACTVS_TAUTO_COUNT>
5

> <PUBCHEM_COORDINATE_TYPE>
1
5
255

> <PUBCHEM_BONDANNOTATIONS>
10  14  8
10  19  8
12  23  8
12  24  8
13  23  8
13  25  8
14  15  8
15  17  8
17  18  8
18  19  8
24  26  8
25  26  8

$$$$

