443370
  -OEChem-07051213022D

 41 44  0     0  0  0  0  0  0999 V2000
    5.1350   -3.5000    0.0000 F   0  0  0  0  0  0  0  0  0  0  0  0
    5.1350    3.5000    0.0000 O   0  0  0  0  0  0  0  0  0  0  0  0
    3.4030    3.5000    0.0000 O   0  0  0  0  0  0  0  0  0  0  0  0
    5.1350    0.5000    0.0000 N   0  0  0  0  0  0  0  0  0  0  0  0
    2.5369    2.0000    0.0000 N   0  0  0  0  0  0  0  0  0  0  0  0
   10.3933   -0.5308    0.0000 N   0  0  0  0  0  0  0  0  0  0  0  0
    6.0010    1.0000    0.0000 C   0  0  0  0  0  0  0  0  0  0  0  0
    6.0010    2.0000    0.0000 C   0  0  0  0  0  0  0  0  0  0  0  0
    6.8950    0.4653    0.0000 C   0  0  0  0  0  0  0  0  0  0  0  0
    7.8010    0.9792    0.0000 C   0  0  0  0  0  0  0  0  0  0  0  0
    4.2690    1.0000    0.0000 C   0  0  0  0  0  0  0  0  0  0  0  0
    5.1350    2.5000    0.0000 C   0  0  0  0  0  0  0  0  0  0  0  0
    5.1350   -0.5000    0.0000 C   0  0  0  0  0  0  0  0  0  0  0  0
    4.2690    2.0000    0.0000 C   0  0  0  0  0  0  0  0  0  0  0  0
    6.8950    2.5347    0.0000 C   0  0  0  0  0  0  0  0  0  0  0  0
    7.8010    2.0208    0.0000 C   0  0  0  0  0  0  0  0  0  0  0  0
    8.6651    0.4758    0.0000 C   0  0  0  0  0  0  0  0  0  0  0  0
    4.2690   -1.0000    0.0000 C   0  0  0  0  0  0  0  0  0  0  0  0
    6.0010   -1.0000    0.0000 C   0  0  0  0  0  0  0  0  0  0  0  0
    3.4030    2.5000    0.0000 C   0  0  0  0  0  0  0  0  0  0  0  0
    9.5331    0.9725    0.0000 C   0  0  0  0  0  0  0  0  0  0  0  0
    8.6613   -0.5241    0.0000 C   0  0  0  0  0  0  0  0  0  0  0  0
    4.2690   -2.0000    0.0000 C   0  0  0  0  0  0  0  0  0  0  0  0
    6.0010   -2.0000    0.0000 C   0  0  0  0  0  0  0  0  0  0  0  0
    5.1350   -2.5000    0.0000 C   0  0  0  0  0  0  0  0  0  0  0  0
   10.3972    0.4692    0.0000 C   0  0  0  0  0  0  0  0  0  0  0  0
    9.5254   -1.0275    0.0000 C   0  0  0  0  0  0  0  0  0  0  0  0
    6.8878   -0.1546    0.0000 H   0  0  0  0  0  0  0  0  0  0  0  0
    3.7320    0.6900    0.0000 H   0  0  0  0  0  0  0  0  0  0  0  0
    6.8878    3.1546    0.0000 H   0  0  0  0  0  0  0  0  0  0  0  0
    8.3368    2.3329    0.0000 H   0  0  0  0  0  0  0  0  0  0  0  0
    3.7320   -0.6900    0.0000 H   0  0  0  0  0  0  0  0  0  0  0  0
    6.5380   -0.6900    0.0000 H   0  0  0  0  0  0  0  0  0  0  0  0
    9.5355    1.5925    0.0000 H   0  0  0  0  0  0  0  0  0  0  0  0
    8.1232   -0.8321    0.0000 H   0  0  0  0  0  0  0  0  0  0  0  0
    3.7320   -2.3100    0.0000 H   0  0  0  0  0  0  0  0  0  0  0  0
    6.5380   -2.3100    0.0000 H   0  0  0  0  0  0  0  0  0  0  0  0
   10.9353    0.7771    0.0000 H   0  0  0  0  0  0  0  0  0  0  0  0
    9.5230   -1.6475    0.0000 H   0  0  0  0  0  0  0  0  0  0  0  0
    2.0000    2.3100    0.0000 H   0  0  0  0  0  0  0  0  0  0  0  0
    2.5369    1.3800    0.0000 H   0  0  0  0  0  0  0  0  0  0  0  0
  1 25  1  0  0  0  0
  2 12  2  0  0  0  0
  3 20  2  0  0  0  0
  4  7  1  0  0  0  0
  4 11  1  0  0  0  0
  4 13  1  0  0  0  0
  5 20  1  0  0  0  0
  5 40  1  0  0  0  0
  5 41  1  0  0  0  0
  6 26  2  0  0  0  0
  6 27  1  0  0  0  0
  7  8  2  0  0  0  0
  7  9  1  0  0  0  0
  8 12  1  0  0  0  0
  8 15  1  0  0  0  0
  9 10  2  0  0  0  0
  9 28  1  0  0  0  0
 10 16  1  0  0  0  0
 10 17  1  0  0  0  0
 11 14  2  0  0  0  0
 11 29  1  0  0  0  0
 12 14  1  0  0  0  0
 13 18  2  0  0  0  0
 13 19  1  0  0  0  0
 14 20  1  0  0  0  0
 15 16  2  0  0  0  0
 15 30  1  0  0  0  0
 16 31  1  0  0  0  0
 17 21  2  0  0  0  0
 17 22  1  0  0  0  0
 18 23  1  0  0  0  0
 18 32  1  0  0  0  0
 19 24  2  0  0  0  0
 19 33  1  0  0  0  0
 21 26  1  0  0  0  0
 21 34  1  0  0  0  0
 22 27  2  0  0  0  0
 22 35  1  0  0  0  0
 23 25  2  0  0  0  0
 23 36  1  0  0  0  0
 24 25  1  0  0  0  0
 24 37  1  0  0  0  0
 26 38  1  0  0  0  0
 27 39  1  0  0  0  0
M  END
> <PUBCHEM_COMPOUND_CID>
443370

> <PUBCHEM_COMPOUND_CANONICALIZED>
1

> <PUBCHEM_CACTVS_COMPLEXITY>
609

> <PUBCHEM_CACTVS_HBOND_ACCEPTOR>
5

> <PUBCHEM_CACTVS_HBOND_DONOR>
1

> <PUBCHEM_CACTVS_ROTATABLE_BOND>
3

> <PUBCHEM_CACTVS_SUBSKEYS>
AAADccB7MQAAAAAAAAAAAAAAAAAAAAAAAAA8YIEAAAAAAACB0AAAHwAQAAAADAzBmgw8wJNIEACoArV3VACCgCA1AiAI2CE4ZNgIIHrIlZGEIYhggADIyccYicCewAAAQAACAACAAACAAAQAAAAAAAAAAA==

> <PUBCHEM_IUPAC_OPENEYE_NAME>
1-(4-fluorophenyl)-4-oxo-7-(4-pyridyl)quinoline-3-carboxamide

> <PUBCHEM_IUPAC_CAS_NAME>
1-(4-fluorophenyl)-4-oxo-7-pyridin-4-yl-3-quinolinecarboxamide

> <PUBCHEM_IUPAC_NAME>
1-(4-fluorophenyl)-4-oxo-7-pyridin-4-ylquinoline-3-carboxamide

> <PUBCHEM_IUPAC_SYSTEMATIC_NAME>
1-(4-fluorophenyl)-4-oxidanylidene-7-pyridin-4-yl-quinoline-3-carboxamide

> <PUBCHEM_IUPAC_TRADITIONAL_NAME>
1-(4-fluorophenyl)-4-keto-7-(4-pyridyl)quinoline-3-carboxamide

> <PUBCHEM_IUPAC_INCHI>
InChI=1S/C21H14FN3O2/c22-15-2-4-16(5-3-15)25-12-18(21(23)27)20(26)17-6-1-14(11-19(17)25)13-7-9-24-10-8-13/h1-12H,(H2,23,27)

> <PUBCHEM_IUPAC_INCHIKEY>
ACBLGRAOCIXXAL-UHFFFAOYSA-N

> <PUBCHEM_XLOGP3>
1.2

> <PUBCHEM_EXACT_MASS>
359.107005

> <PUBCHEM_MOLECULAR_FORMULA>
C21H14FN3O2

> <PUBCHEM_MOLECULAR_WEIGHT>
359.353163

> <PUBCHEM_OPENEYE_CAN_SMILES>
C1=CC(=CC=C1N2C=C(C(=O)C3=C2C=C(C=C3)C4=CC=NC=C4)C(=O)N)F

> <PUBCHEM_OPENEYE_ISO_SMILES>
C1=CC(=CC=C1N2C=C(C(=O)C3=C2C=C(C=C3)C4=CC=NC=C4)C(=O)N)F

> <PUBCHEM_CACTVS_TPSA>
76.3

> <PUBCHEM_MONOISOTOPIC_WEIGHT>
359.107005

> <PUBCHEM_TOTAL_CHARGE>
0

> <PUBCHEM_HEAVY_ATOM_COUNT>
27

> <PUBCHEM_ATOM_DEF_STEREO_COUNT>
0

> <PUBCHEM_ATOM_UDEF_STEREO_COUNT>
0

> <PUBCHEM_BOND_DEF_STEREO_COUNT>
0

> <PUBCHEM_BOND_UDEF_STEREO_COUNT>
0

> <PUBCHEM_ISOTOPIC_ATOM_COUNT>
0

> <PUBCHEM_COMPONENT_COUNT>
1

> <PUBCHEM_CACTVS_TAUTO_COUNT>
2

> <PUBCHEM_COORDINATE_TYPE>
1
5
255

> <PUBCHEM_BONDANNOTATIONS>
10  16  8
11  14  8
12  14  8
13  18  8
13  19  8
15  16  8
17  21  8
17  22  8
18  23  8
19  24  8
21  26  8
22  27  8
23  25  8
24  25  8
4  11  8
4  7  8
6  26  8
6  27  8
7  8  8
7  9  8
8  12  8
8  15  8
9  10  8

$$$$

