128973
  -OEChem-07051212483D

 28 29  0     1  0  0  0  0  0999 V2000
   -1.7887    0.9600    1.4042 O   0  0  0  0  0  0  0  0  0  0  0  0
    2.0184    2.5524   -0.0952 O   0  0  0  0  0  0  0  0  0  0  0  0
   -3.7551   -1.1251    1.2808 O   0  0  0  0  0  0  0  0  0  0  0  0
   -0.2597    1.1179   -0.7458 N   0  0  0  0  0  0  0  0  0  0  0  0
   -0.0938   -1.6133   -0.7143 N   0  0  0  0  0  0  0  0  0  0  0  0
    2.2109   -1.4172    0.0366 N   0  0  0  0  0  0  0  0  0  0  0  0
    3.2659    0.6734    0.3403 N   0  0  0  0  0  0  0  0  0  0  0  0
    4.3998   -1.3483    0.7396 N   0  0  0  0  0  0  0  0  0  0  0  0
   -1.5132    0.4014   -0.9158 C   0  0  1  0  0  0  0  0  0  0  0  0
   -1.2641   -1.0450   -1.3713 C   0  0  0  0  0  0  0  0  0  0  0  0
    0.9143    0.4839   -0.4003 C   0  0  0  0  0  0  0  0  0  0  0  0
    1.0159   -0.8632   -0.3576 C   0  0  0  0  0  0  0  0  0  0  0  0
   -2.2391    0.4358    0.3939 C   0  0  0  0  0  0  0  0  0  0  0  0
    2.1057    1.3280   -0.0423 C   0  0  0  0  0  0  0  0  0  0  0  0
    3.2897   -0.6339    0.3706 C   0  0  0  0  0  0  0  0  0  0  0  0
   -3.6064   -0.2096    0.4822 C   0  0  0  0  0  0  0  0  0  0  0  0
   -4.7005    0.3030   -0.4057 C   0  0  0  0  0  0  0  0  0  0  0  0
   -2.1286    0.9302   -1.6515 H   0  0  0  0  0  0  0  0  0  0  0  0
   -2.1296   -1.6927   -1.1999 H   0  0  0  0  0  0  0  0  0  0  0  0
   -1.0720   -1.0476   -2.4513 H   0  0  0  0  0  0  0  0  0  0  0  0
   -0.2717    2.1320   -0.7117 H   0  0  0  0  0  0  0  0  0  0  0  0
    0.0163   -2.6216   -0.6947 H   0  0  0  0  0  0  0  0  0  0  0  0
    2.2612   -2.4293    0.0650 H   0  0  0  0  0  0  0  0  0  0  0  0
   -4.7493    1.3926   -0.3375 H   0  0  0  0  0  0  0  0  0  0  0  0
   -5.6594   -0.1082   -0.0781 H   0  0  0  0  0  0  0  0  0  0  0  0
   -4.5135   -0.0035   -1.4373 H   0  0  0  0  0  0  0  0  0  0  0  0
    5.2591   -0.8815    1.0082 H   0  0  0  0  0  0  0  0  0  0  0  0
    4.3951   -2.3623    0.7562 H   0  0  0  0  0  0  0  0  0  0  0  0
  1 13  2  0  0  0  0
  2 14  2  0  0  0  0
  3 16  2  0  0  0  0
  4  9  1  0  0  0  0
  4 11  1  0  0  0  0
  4 21  1  0  0  0  0
  5 10  1  0  0  0  0
  5 12  1  0  0  0  0
  5 22  1  0  0  0  0
  6 12  1  0  0  0  0
  6 15  1  0  0  0  0
  6 23  1  0  0  0  0
  7 14  1  0  0  0  0
  7 15  2  0  0  0  0
  8 15  1  0  0  0  0
  8 27  1  0  0  0  0
  8 28  1  0  0  0  0
  9 10  1  0  0  0  0
  9 13  1  0  0  0  0
  9 18  1  0  0  0  0
 10 19  1  0  0  0  0
 10 20  1  0  0  0  0
 11 12  2  0  0  0  0
 11 14  1  0  0  0  0
 13 16  1  0  0  0  0
 16 17  1  0  0  0  0
 17 24  1  0  0  0  0
 17 25  1  0  0  0  0
 17 26  1  0  0  0  0
M  END
> <PUBCHEM_COMPOUND_CID>
128973

> <PUBCHEM_CONFORMER_RMSD>
0.6

> <PUBCHEM_CONFORMER_DIVERSEORDER>
31
25
4
23
6
38
2
28
33
29
27
40
3
20
8
39
30
1
36
13
35
11
41
17
12
37
14
21
32
18
16
34
15
10
24
7
19
26
5
22
9

> <PUBCHEM_MMFF94_PARTIAL_CHARGES>
22
1 -0.57
10 0.37
11 0.11
12 0.2
13 0.51
14 0.77
15 0.55
16 0.51
17 0.06
2 -0.57
21 0.4
22 0.4
23 0.4
27 0.4
28 0.4
3 -0.57
4 -0.87
5 -0.87
6 -0.55
7 -0.66
8 -0.85
9 0.43

> <PUBCHEM_EFFECTIVE_ROTOR_COUNT>
2.8

> <PUBCHEM_PHARMACOPHORE_FEATURES>
12
1 1 acceptor
1 2 acceptor
1 3 acceptor
1 4 cation
1 4 donor
1 5 cation
1 5 donor
1 6 donor
1 7 donor
1 8 donor
6 4 5 9 10 11 12 rings
6 6 7 11 12 14 15 rings

> <PUBCHEM_HEAVY_ATOM_COUNT>
17

> <PUBCHEM_ATOM_DEF_STEREO_COUNT>
0

> <PUBCHEM_ATOM_UDEF_STEREO_COUNT>
1

> <PUBCHEM_BOND_DEF_STEREO_COUNT>
0

> <PUBCHEM_BOND_UDEF_STEREO_COUNT>
0

> <PUBCHEM_ISOTOPIC_ATOM_COUNT>
0

> <PUBCHEM_COMPONENT_COUNT>
1

> <PUBCHEM_CACTVS_TAUTO_COUNT>
187

> <PUBCHEM_CONFORMER_ID>
0001F7CD0000001F

> <PUBCHEM_MMFF94_ENERGY>
48.2964

> <PUBCHEM_FEATURE_SELFOVERLAP>
61.087

> <PUBCHEM_SHAPE_FINGERPRINT>
10498660 4 13840530939520030163
11132069 177 17385441025229354879
11471102 22 18342167869239923419
12202030 40 16271383996705253082
12251169 10 18335140894811646462
12696612 119 18408602565446060396
13296908 3 17632008672484917465
13538477 17 17895759486931953413
13581323 91 17168146753681231364
14943859 89 14779273020168741039
15309172 13 18261396671390616686
15375462 189 18341623641703313530
15375462 478 18187645838051444993
15775835 57 18188207594014656868
16945 1 18260545645037416839
17844478 74 18060142054494514340
18175812 5 18202562865414100863
200 152 18260839206637537239
20559304 39 18186795890020321088
20645477 70 18411985767077885695
21029758 27 18343301509374250364
21501502 16 18190187775980852718
22854114 111 18335702710867353752
23402539 116 15936708024608498541
23557571 272 15482678974579478852
23559900 14 17203889660628934374
26918003 58 18412826897868133483
2748010 2 17829897881777545086
31174 14 18200877283771137740
3286 77 18201999927897279257

> <PUBCHEM_SHAPE_MULTIPOLES>
307.34
7.46
1.72
1.08
2.08
0.44
-0.05
-1.12
-2.19
-1.27
0.07
0.67
-0.15
-0.18

> <PUBCHEM_SHAPE_SELFOVERLAP>
654.405

> <PUBCHEM_SHAPE_VOLUME>
166.9

> <PUBCHEM_COORDINATE_TYPE>
2
5
10

$$$$

