241763
  -OEChem-07051213063D

 56 59  0     1  0  0  0  0  0999 V2000
    5.2079    0.9824    0.2429 O   0  0  0  0  0  0  0  0  0  0  0  0
   -0.1640    2.6894   -0.2363 O   0  0  0  0  0  0  0  0  0  0  0  0
   -5.4988   -0.5909   -1.0825 O   0  0  0  0  0  0  0  0  0  0  0  0
    2.8078    0.4295    0.2180 C   0  0  1  0  0  0  0  0  0  0  0  0
    2.0781   -0.8210   -0.3107 C   0  0  2  0  0  0  0  0  0  0  0  0
    0.6843   -1.0036    0.3029 C   0  0  1  0  0  0  0  0  0  0  0  0
   -0.2072    0.2426   -0.0268 C   0  0  1  0  0  0  0  0  0  0  0  0
    4.2001    0.2649   -0.4667 C   0  0  2  0  0  0  0  0  0  0  0  0
   -1.6796    0.0905    0.5616 C   0  0  2  0  0  0  0  0  0  0  0  0
    1.9741    1.6490   -0.1894 C   0  0  0  0  0  0  0  0  0  0  0  0
    0.5240    1.5773    0.3351 C   0  0  1  0  0  0  0  0  0  0  0  0
    3.1039   -1.9358   -0.1241 C   0  0  0  0  0  0  0  0  0  0  0  0
    4.4661   -1.2600   -0.3625 C   0  0  0  0  0  0  0  0  0  0  0  0
    0.0209   -2.2871   -0.2115 C   0  0  0  0  0  0  0  0  0  0  0  0
    2.9882    0.4409    1.7636 C   0  0  0  0  0  0  0  0  0  0  0  0
   -2.2440   -1.2865    0.1751 C   0  0  0  0  0  0  0  0  0  0  0  0
   -1.3512   -2.4791    0.4146 C   0  0  0  0  0  0  0  0  0  0  0  0
   -2.5956    1.2117   -0.0168 C   0  0  0  0  0  0  0  0  0  0  0  0
    4.2760    0.7291   -1.9269 C   0  0  0  0  0  0  0  0  0  0  0  0
   -1.6851    0.2005    2.1042 C   0  0  0  0  0  0  0  0  0  0  0  0
   -4.0938    0.9443    0.1467 C   0  0  2  0  0  0  0  0  0  0  0  0
   -3.4668   -1.4889   -0.3430 C   0  0  0  0  0  0  0  0  0  0  0  0
   -4.4354   -0.3812   -0.5028 C   0  0  0  0  0  0  0  0  0  0  0  0
   -4.9098    2.0820   -0.4645 C   0  0  0  0  0  0  0  0  0  0  0  0
    1.9263   -0.7168   -1.3959 H   0  0  0  0  0  0  0  0  0  0  0  0
    0.7862   -1.1044    1.3885 H   0  0  0  0  0  0  0  0  0  0  0  0
   -0.3284    0.2534   -1.1225 H   0  0  0  0  0  0  0  0  0  0  0  0
    1.9314    1.7433   -1.2820 H   0  0  0  0  0  0  0  0  0  0  0  0
    2.4455    2.5771    0.1588 H   0  0  0  0  0  0  0  0  0  0  0  0
    0.5232    1.7285    1.4177 H   0  0  0  0  0  0  0  0  0  0  0  0
    2.9439   -2.7589   -0.8283 H   0  0  0  0  0  0  0  0  0  0  0  0
    3.0608   -2.3550    0.8876 H   0  0  0  0  0  0  0  0  0  0  0  0
    5.1512   -1.4953    0.4606 H   0  0  0  0  0  0  0  0  0  0  0  0
    4.9288   -1.6515   -1.2757 H   0  0  0  0  0  0  0  0  0  0  0  0
    0.6390   -3.1588    0.0323 H   0  0  0  0  0  0  0  0  0  0  0  0
   -0.0683   -2.2559   -1.3052 H   0  0  0  0  0  0  0  0  0  0  0  0
    2.0416    0.3799    2.3063 H   0  0  0  0  0  0  0  0  0  0  0  0
    3.6080   -0.3890    2.1177 H   0  0  0  0  0  0  0  0  0  0  0  0
    3.4733    1.3689    2.0885 H   0  0  0  0  0  0  0  0  0  0  0  0
   -1.2472   -2.6386    1.4948 H   0  0  0  0  0  0  0  0  0  0  0  0
   -1.7939   -3.3986    0.0120 H   0  0  0  0  0  0  0  0  0  0  0  0
   -2.3805    1.3374   -1.0875 H   0  0  0  0  0  0  0  0  0  0  0  0
   -2.3730    2.1684    0.4695 H   0  0  0  0  0  0  0  0  0  0  0  0
    5.2752    0.5342   -2.3348 H   0  0  0  0  0  0  0  0  0  0  0  0
    3.5481    0.2289   -2.5714 H   0  0  0  0  0  0  0  0  0  0  0  0
    4.1304    1.8121   -2.0059 H   0  0  0  0  0  0  0  0  0  0  0  0
   -1.4338    1.2135    2.4356 H   0  0  0  0  0  0  0  0  0  0  0  0
   -2.6703   -0.0374    2.5217 H   0  0  0  0  0  0  0  0  0  0  0  0
   -0.9717   -0.4829    2.5745 H   0  0  0  0  0  0  0  0  0  0  0  0
   -4.3565    0.8675    1.2082 H   0  0  0  0  0  0  0  0  0  0  0  0
    4.9784    1.9269    0.2102 H   0  0  0  0  0  0  0  0  0  0  0  0
   -3.8138   -2.4784   -0.6226 H   0  0  0  0  0  0  0  0  0  0  0  0
   -0.1912    2.5637   -1.2002 H   0  0  0  0  0  0  0  0  0  0  0  0
   -5.9825    1.9167   -0.3163 H   0  0  0  0  0  0  0  0  0  0  0  0
   -4.6522    3.0403   -0.0014 H   0  0  0  0  0  0  0  0  0  0  0  0
   -4.7349    2.1641   -1.5430 H   0  0  0  0  0  0  0  0  0  0  0  0
  1  8  1  0  0  0  0
  1 51  1  0  0  0  0
  2 11  1  0  0  0  0
  2 53  1  0  0  0  0
  3 23  2  0  0  0  0
  4  5  1  0  0  0  0
  4  8  1  0  0  0  0
  4 10  1  0  0  0  0
  4 15  1  0  0  0  0
  5  6  1  0  0  0  0
  5 12  1  0  0  0  0
  5 25  1  0  0  0  0
  6  7  1  0  0  0  0
  6 14  1  0  0  0  0
  6 26  1  0  0  0  0
  7  9  1  0  0  0  0
  7 11  1  0  0  0  0
  7 27  1  0  0  0  0
  8 13  1  0  0  0  0
  8 19  1  0  0  0  0
  9 16  1  0  0  0  0
  9 18  1  0  0  0  0
  9 20  1  0  0  0  0
 10 11  1  0  0  0  0
 10 28  1  0  0  0  0
 10 29  1  0  0  0  0
 11 30  1  0  0  0  0
 12 13  1  0  0  0  0
 12 31  1  0  0  0  0
 12 32  1  0  0  0  0
 13 33  1  0  0  0  0
 13 34  1  0  0  0  0
 14 17  1  0  0  0  0
 14 35  1  0  0  0  0
 14 36  1  0  0  0  0
 15 37  1  0  0  0  0
 15 38  1  0  0  0  0
 15 39  1  0  0  0  0
 16 17  1  0  0  0  0
 16 22  2  0  0  0  0
 17 40  1  0  0  0  0
 17 41  1  0  0  0  0
 18 21  1  0  0  0  0
 18 42  1  0  0  0  0
 18 43  1  0  0  0  0
 19 44  1  0  0  0  0
 19 45  1  0  0  0  0
 19 46  1  0  0  0  0
 20 47  1  0  0  0  0
 20 48  1  0  0  0  0
 20 49  1  0  0  0  0
 21 23  1  0  0  0  0
 21 24  1  0  0  0  0
 21 50  1  0  0  0  0
 22 23  1  0  0  0  0
 22 52  1  0  0  0  0
 24 54  1  0  0  0  0
 24 55  1  0  0  0  0
 24 56  1  0  0  0  0
M  END
> <PUBCHEM_COMPOUND_CID>
241763

> <PUBCHEM_CONFORMER_RMSD>
0.6

> <PUBCHEM_CONFORMER_DIVERSEORDER>
1
2

> <PUBCHEM_MMFF94_PARTIAL_CHARGES>
14
1 -0.68
11 0.28
16 -0.28
17 0.14
2 -0.68
21 0.06
22 -0.14
23 0.49
3 -0.57
51 0.4
52 0.15
53 0.4
8 0.28
9 0.14

> <PUBCHEM_EFFECTIVE_ROTOR_COUNT>
1.8

> <PUBCHEM_PHARMACOPHORE_FEATURES>
9
1 1 acceptor
1 1 donor
1 2 acceptor
1 2 donor
1 3 acceptor
5 4 5 8 12 13 rings
6 4 5 6 7 10 11 rings
6 6 7 9 14 16 17 rings
6 9 16 18 21 22 23 rings

> <PUBCHEM_HEAVY_ATOM_COUNT>
24

> <PUBCHEM_ATOM_DEF_STEREO_COUNT>
8

> <PUBCHEM_ATOM_UDEF_STEREO_COUNT>
0

> <PUBCHEM_BOND_DEF_STEREO_COUNT>
0

> <PUBCHEM_BOND_UDEF_STEREO_COUNT>
0

> <PUBCHEM_ISOTOPIC_ATOM_COUNT>
0

> <PUBCHEM_COMPONENT_COUNT>
1

> <PUBCHEM_CACTVS_TAUTO_COUNT>
5

> <PUBCHEM_CONFORMER_ID>
0003B06300000001

> <PUBCHEM_MMFF94_ENERGY>
88.1841

> <PUBCHEM_FEATURE_SELFOVERLAP>
45.76

> <PUBCHEM_SHAPE_FINGERPRINT>
10366900 7 17240478096503424458
10411042 1 17042888461233363043
10498660 4 18410005542330607620
10967382 1 18338795718759781090
11315181 36 17749102288808979936
12011746 2 18334573534259030790
12236239 1 17821726148272442907
12403259 415 18260833678798661497
12553582 1 18266437885354838200
12592029 89 18343303691112421315
12788726 201 18189893291395637664
13140716 1 18266169715738677875
13224815 77 17967529073448159618
14790565 3 18194112152209002537
15099037 51 18413108355443357245
15196674 1 18410012160564019871
15375358 24 18410009918875895514
15420108 30 16529462727127891970
15788980 27 18202560700376108577
1601671 61 18413670218707080540
16752209 62 18411984667202118033
16945 1 18194117417379432442
17349148 13 17967810552820038355
1813 80 5328743002323681163
18186145 218 18040712563235119643
18608769 82 18268705005470206611
19862831 5 18040995154787224035
200 152 17603305942758535779
20645477 70 17167859747256168012
20715895 44 18055640761481223437
20775438 99 16670820916348489343
20871999 31 18412539894783151079
21029758 11 18333732394694134513
21033648 29 17895486846818957315
21267235 1 18409159996556611583
21279426 13 18337109093571121183
21285901 2 18272091642473741813
21421861 104 17702114753679837162
221357 26 18335990805116453709
22393880 68 18260832609140697671
23402539 116 18335425698335056247
23559900 14 18187368735752349032
3004659 81 18343020038703322534
3286 77 17385728032145204386
335352 9 18339359785747649558
34797466 226 17168141200341479596
34934 24 18413109446660514530
350125 39 18411131412700024561
4280585 95 17322380957911942622
474 4 17632293462712351879
5104073 3 18410011061105263931
5283173 99 18340773753089802725
542803 24 17632292380406889197
633830 44 17704351095441960787
9709674 26 18264773151535604595

> <PUBCHEM_SHAPE_MULTIPOLES>
476.3
10.29
2.4
1.21
1.74
0.22
0.29
-1.63
-3.11
0.69
-0.18
-0.45
-0.2
-0.03

> <PUBCHEM_SHAPE_SELFOVERLAP>
1019.355

> <PUBCHEM_SHAPE_VOLUME>
263

> <PUBCHEM_COORDINATE_TYPE>
2
5
10

$$$$

