62
  -OEChem-07051212512D

 15 15  0     1  0  0  0  0  0999 V2000
    3.7320   -2.1550    0.0000 Cl  0  0  0  0  0  0  0  0  0  0  0  0
    2.0000    0.8450    0.0000 Cl  0  0  0  0  0  0  0  0  0  0  0  0
    5.4641   -1.1550    0.0000 Cl  0  0  0  0  0  0  0  0  0  0  0  0
    3.7320    1.8450    0.0000 O   0  0  0  0  0  0  0  0  0  0  0  0
    3.7320    0.8450    0.0000 C   0  0  3  0  0  0  0  0  0  0  0  0
    3.7320   -1.1550    0.0000 C   0  0  3  0  0  0  0  0  0  0  0  0
    2.8660    0.3450    0.0000 C   0  0  0  0  0  0  0  0  0  0  0  0
    4.5981    0.3450    0.0000 C   0  0  0  0  0  0  0  0  0  0  0  0
    4.5981   -0.6550    0.0000 C   0  0  0  0  0  0  0  0  0  0  0  0
    2.8660   -0.6550    0.0000 C   0  0  0  0  0  0  0  0  0  0  0  0
    4.4682    1.2700    0.0000 H   0  0  0  0  0  0  0  0  0  0  0  0
    4.4682   -1.5800    0.0000 H   0  0  0  0  0  0  0  0  0  0  0  0
    5.1350    0.6550    0.0000 H   0  0  0  0  0  0  0  0  0  0  0  0
    2.3291   -0.9650    0.0000 H   0  0  0  0  0  0  0  0  0  0  0  0
    4.2690    2.1550    0.0000 H   0  0  0  0  0  0  0  0  0  0  0  0
  1  6  1  0  0  0  0
  2  7  1  0  0  0  0
  3  9  1  0  0  0  0
  4  5  1  0  0  0  0
  4 15  1  0  0  0  0
  5  7  1  0  0  0  0
  5  8  1  0  0  0  0
  5 11  1  0  0  0  0
  6  9  1  0  0  0  0
  6 10  1  0  0  0  0
  6 12  1  0  0  0  0
  7 10  2  0  0  0  0
  8  9  2  0  0  0  0
  8 13  1  0  0  0  0
 10 14  1  0  0  0  0
M  END
> <PUBCHEM_COMPOUND_CID>
62

> <PUBCHEM_COMPOUND_CANONICALIZED>
1

> <PUBCHEM_CACTVS_COMPLEXITY>
197

> <PUBCHEM_CACTVS_HBOND_ACCEPTOR>
1

> <PUBCHEM_CACTVS_HBOND_DONOR>
1

> <PUBCHEM_CACTVS_ROTATABLE_BOND>
0

> <PUBCHEM_CACTVS_SUBSKEYS>
AAADcYBgIAAGAAAAAAAAAAAAAAAAAAAAAAAgAAAAAAAAAAAAAAAAGgIACAAACBeggEIAAAAAAgCAACBCAAAAAAAgAAAACEAAAwgAFAAAAQAAEAAAAAAIEAIAAAAAAAAAAAAAAAAAAAAAAAAAAAAAAAAAAA==

> <PUBCHEM_IUPAC_OPENEYE_NAME>
2,4,5-trichlorocyclohexa-2,5-dien-1-ol

> <PUBCHEM_IUPAC_CAS_NAME>
2,4,5-trichloro-1-cyclohexa-2,5-dienol

> <PUBCHEM_IUPAC_NAME>
2,4,5-trichlorocyclohexa-2,5-dien-1-ol

> <PUBCHEM_IUPAC_SYSTEMATIC_NAME>
2,4,5-tris(chloranyl)cyclohexa-2,5-dien-1-ol

> <PUBCHEM_IUPAC_TRADITIONAL_NAME>
2,4,5-trichlorocyclohexa-2,5-dien-1-ol

> <PUBCHEM_IUPAC_INCHI>
InChI=1S/C6H5Cl3O/c7-3-1-5(9)6(10)2-4(3)8/h1-3,6,10H

> <PUBCHEM_IUPAC_INCHIKEY>
KRQUJBMPSDPYMT-UHFFFAOYSA-N

> <PUBCHEM_XLOGP3_AA>
1.9

> <PUBCHEM_EXACT_MASS>
197.940598

> <PUBCHEM_MOLECULAR_FORMULA>
C6H5Cl3O

> <PUBCHEM_MOLECULAR_WEIGHT>
199.4623

> <PUBCHEM_OPENEYE_CAN_SMILES>
C1=C(C(C=C(C1O)Cl)Cl)Cl

> <PUBCHEM_OPENEYE_ISO_SMILES>
C1=C(C(C=C(C1O)Cl)Cl)Cl

> <PUBCHEM_CACTVS_TPSA>
20.2

> <PUBCHEM_MONOISOTOPIC_WEIGHT>
197.940598

> <PUBCHEM_TOTAL_CHARGE>
0

> <PUBCHEM_HEAVY_ATOM_COUNT>
10

> <PUBCHEM_ATOM_DEF_STEREO_COUNT>
0

> <PUBCHEM_ATOM_UDEF_STEREO_COUNT>
2

> <PUBCHEM_BOND_DEF_STEREO_COUNT>
0

> <PUBCHEM_BOND_UDEF_STEREO_COUNT>
0

> <PUBCHEM_ISOTOPIC_ATOM_COUNT>
0

> <PUBCHEM_COMPONENT_COUNT>
1

> <PUBCHEM_CACTVS_TAUTO_COUNT>
1

> <PUBCHEM_COORDINATE_TYPE>
1
5
255

> <PUBCHEM_BONDANNOTATIONS>
5  11  3
6  12  3

$$$$

