12637
  -OEChem-06261207113D

 23 23  0     1  0  0  0  0  0999 V2000
    0.6233   -0.6979   -0.2644 N   0  0  2  0  0  0  0  0  0  0  0  0
    0.6466    0.6705    0.3021 C   0  0  2  0  0  0  0  0  0  0  0  0
   -0.6127    1.4495   -0.1285 C   0  0  0  0  0  0  0  0  0  0  0  0
   -1.8928    0.7172    0.2524 C   0  0  0  0  0  0  0  0  0  0  0  0
   -1.8616   -0.7059   -0.2827 C   0  0  0  0  0  0  0  0  0  0  0  0
   -0.5879   -1.4263    0.1531 C   0  0  0  0  0  0  0  0  0  0  0  0
    1.8790    1.4729   -0.1390 C   0  0  0  0  0  0  0  0  0  0  0  0
    1.8061   -1.4799    0.1070 C   0  0  0  0  0  0  0  0  0  0  0  0
    0.6572    0.6124    1.3996 H   0  0  0  0  0  0  0  0  0  0  0  0
   -0.5992    1.6110   -1.2147 H   0  0  0  0  0  0  0  0  0  0  0  0
   -0.6181    2.4419    0.3388 H   0  0  0  0  0  0  0  0  0  0  0  0
   -2.7636    1.2500   -0.1449 H   0  0  0  0  0  0  0  0  0  0  0  0
   -1.9954    0.6993    1.3442 H   0  0  0  0  0  0  0  0  0  0  0  0
   -2.7395   -1.2553    0.0757 H   0  0  0  0  0  0  0  0  0  0  0  0
   -1.9198   -0.6889   -1.3784 H   0  0  0  0  0  0  0  0  0  0  0  0
   -0.5988   -1.5675    1.2421 H   0  0  0  0  0  0  0  0  0  0  0  0
   -0.5960   -2.4240   -0.3031 H   0  0  0  0  0  0  0  0  0  0  0  0
    1.8044    2.5132    0.1973 H   0  0  0  0  0  0  0  0  0  0  0  0
    2.8009    1.0681    0.2902 H   0  0  0  0  0  0  0  0  0  0  0  0
    1.9807    1.4809   -1.2299 H   0  0  0  0  0  0  0  0  0  0  0  0
    2.7148   -1.0631   -0.3380 H   0  0  0  0  0  0  0  0  0  0  0  0
    1.7316   -2.5025   -0.2814 H   0  0  0  0  0  0  0  0  0  0  0  0
    1.9384   -1.5362    1.1933 H   0  0  0  0  0  0  0  0  0  0  0  0
  1  2  1  0  0  0  0
  1  6  1  0  0  0  0
  1  8  1  0  0  0  0
  2  3  1  0  0  0  0
  2  7  1  0  0  0  0
  2  9  1  0  0  0  0
  3  4  1  0  0  0  0
  3 10  1  0  0  0  0
  3 11  1  0  0  0  0
  4  5  1  0  0  0  0
  4 12  1  0  0  0  0
  4 13  1  0  0  0  0
  5  6  1  0  0  0  0
  5 14  1  0  0  0  0
  5 15  1  0  0  0  0
  6 16  1  0  0  0  0
  6 17  1  0  0  0  0
  7 18  1  0  0  0  0
  7 19  1  0  0  0  0
  7 20  1  0  0  0  0
  8 21  1  0  0  0  0
  8 22  1  0  0  0  0
  8 23  1  0  0  0  0
M  END
> <PUBCHEM_COMPOUND_CID>
12637

> <PUBCHEM_CONFORMER_RMSD>
0.4

> <PUBCHEM_CONFORMER_DIVERSEORDER>
1
3
2
4

> <PUBCHEM_MMFF94_PARTIAL_CHARGES>
4
1 -0.81
2 0.27
6 0.27
8 0.27

> <PUBCHEM_EFFECTIVE_ROTOR_COUNT>
1.2

> <PUBCHEM_PHARMACOPHORE_FEATURES>
2
1 1 cation
6 1 2 3 4 5 6 rings

> <PUBCHEM_HEAVY_ATOM_COUNT>
8

> <PUBCHEM_ATOM_DEF_STEREO_COUNT>
0

> <PUBCHEM_ATOM_UDEF_STEREO_COUNT>
1

> <PUBCHEM_BOND_DEF_STEREO_COUNT>
0

> <PUBCHEM_BOND_UDEF_STEREO_COUNT>
0

> <PUBCHEM_ISOTOPIC_ATOM_COUNT>
0

> <PUBCHEM_COMPONENT_COUNT>
1

> <PUBCHEM_CACTVS_TAUTO_COUNT>
1

> <PUBCHEM_CONFORMER_ID>
0000315D00000001

> <PUBCHEM_MMFF94_ENERGY>
3.1569

> <PUBCHEM_FEATURE_SELFOVERLAP>
10.148

> <PUBCHEM_SHAPE_FINGERPRINT>
16714656 1 17906448827350454204
18185500 45 17979355592230904987
21040471 1 18337954476289619649
23235685 24 18195813959784469229
23552423 10 18342174453556812862
241688 4 18339928228631731553
2748010 2 18411419514120267421
29004967 10 18200869552877205001
5084963 1 18188500193077756219

> <PUBCHEM_SHAPE_MULTIPOLES>
159.66
2.58
1.94
0.65
0.01
0.08
-0.01
-0.07
0.04
0.55
0
-0.02
-0.01
-0.12

> <PUBCHEM_SHAPE_SELFOVERLAP>
301.882

> <PUBCHEM_SHAPE_VOLUME>
98.6

> <PUBCHEM_COORDINATE_TYPE>
2
5
10

$$$$

