7475
  -OEChem-07051212462D

 16 16  0     0  0  0  0  0  0999 V2000
    3.7320    2.4050    0.0000 O   0  5  0  0  0  0  0  0  0  0  0  0
    2.0000    2.4050    0.0000 O   0  0  0  0  0  0  0  0  0  0  0  0
    2.8660    1.9050    0.0000 N   0  3  0  0  0  0  0  0  0  0  0  0
    2.8660   -2.0950    0.0000 N   0  0  0  0  0  0  0  0  0  0  0  0
    2.8660    0.9050    0.0000 C   0  0  0  0  0  0  0  0  0  0  0  0
    2.8660   -1.0950    0.0000 C   0  0  0  0  0  0  0  0  0  0  0  0
    2.0000    0.4050    0.0000 C   0  0  0  0  0  0  0  0  0  0  0  0
    3.7320    0.4050    0.0000 C   0  0  0  0  0  0  0  0  0  0  0  0
    2.0000   -0.5950    0.0000 C   0  0  0  0  0  0  0  0  0  0  0  0
    3.7320   -0.5950    0.0000 C   0  0  0  0  0  0  0  0  0  0  0  0
    1.4631    0.7150    0.0000 H   0  0  0  0  0  0  0  0  0  0  0  0
    4.2690    0.7150    0.0000 H   0  0  0  0  0  0  0  0  0  0  0  0
    1.4631   -0.9050    0.0000 H   0  0  0  0  0  0  0  0  0  0  0  0
    4.2690   -0.9050    0.0000 H   0  0  0  0  0  0  0  0  0  0  0  0
    2.3291   -2.4050    0.0000 H   0  0  0  0  0  0  0  0  0  0  0  0
    3.4030   -2.4050    0.0000 H   0  0  0  0  0  0  0  0  0  0  0  0
  1  3  1  0  0  0  0
  2  3  2  0  0  0  0
  3  5  1  0  0  0  0
  4  6  1  0  0  0  0
  4 15  1  0  0  0  0
  4 16  1  0  0  0  0
  5  7  2  0  0  0  0
  5  8  1  0  0  0  0
  6  9  2  0  0  0  0
  6 10  1  0  0  0  0
  7  9  1  0  0  0  0
  7 11  1  0  0  0  0
  8 10  2  0  0  0  0
  8 12  1  0  0  0  0
  9 13  1  0  0  0  0
 10 14  1  0  0  0  0
M  CHG  2   1  -1   3   1
M  END
> <PUBCHEM_COMPOUND_CID>
7475

> <PUBCHEM_COMPOUND_CANONICALIZED>
1

> <PUBCHEM_CACTVS_COMPLEXITY>
124

> <PUBCHEM_CACTVS_HBOND_ACCEPTOR>
3

> <PUBCHEM_CACTVS_HBOND_DONOR>
1

> <PUBCHEM_CACTVS_ROTATABLE_BOND>
0

> <PUBCHEM_CACTVS_SUBSKEYS>
AAADcYBjMAAAAAAAAAAAAAAAAAAAAAAAAAAwAAAAAAAAAAABAAAAHAAUAAAACAiBEAAwwIBQQACBACRCQwCCAAAgAgAoiAAAZIoIICKAkZGAIABgkAAIyAcQAAAAAACAAAAAAAAAAQAAAAAAAAAAAAAAAA==

> <PUBCHEM_IUPAC_OPENEYE_NAME>
4-nitroaniline

> <PUBCHEM_IUPAC_CAS_NAME>
4-nitroaniline

> <PUBCHEM_IUPAC_NAME>
4-nitroaniline

> <PUBCHEM_IUPAC_SYSTEMATIC_NAME>
4-nitroaniline

> <PUBCHEM_IUPAC_TRADITIONAL_NAME>
(4-nitrophenyl)amine

> <PUBCHEM_IUPAC_INCHI>
InChI=1S/C6H6N2O2/c7-5-1-3-6(4-2-5)8(9)10/h1-4H,7H2

> <PUBCHEM_IUPAC_INCHIKEY>
TYMLOMAKGOJONV-UHFFFAOYSA-N

> <PUBCHEM_XLOGP3>
1.4

> <PUBCHEM_EXACT_MASS>
138.042927

> <PUBCHEM_MOLECULAR_FORMULA>
C6H6N2O2

> <PUBCHEM_MOLECULAR_WEIGHT>
138.12404

> <PUBCHEM_OPENEYE_CAN_SMILES>
C1=CC(=CC=C1N)[N+](=O)[O-]

> <PUBCHEM_OPENEYE_ISO_SMILES>
C1=CC(=CC=C1N)[N+](=O)[O-]

> <PUBCHEM_CACTVS_TPSA>
71.8

> <PUBCHEM_MONOISOTOPIC_WEIGHT>
138.042927

> <PUBCHEM_TOTAL_CHARGE>
0

> <PUBCHEM_HEAVY_ATOM_COUNT>
10

> <PUBCHEM_ATOM_DEF_STEREO_COUNT>
0

> <PUBCHEM_ATOM_UDEF_STEREO_COUNT>
0

> <PUBCHEM_BOND_DEF_STEREO_COUNT>
0

> <PUBCHEM_BOND_UDEF_STEREO_COUNT>
0

> <PUBCHEM_ISOTOPIC_ATOM_COUNT>
0

> <PUBCHEM_COMPONENT_COUNT>
1

> <PUBCHEM_CACTVS_TAUTO_COUNT>
1

> <PUBCHEM_COORDINATE_TYPE>
1
5
255

> <PUBCHEM_BONDANNOTATIONS>
5  7  8
5  8  8
6  10  8
6  9  8
7  9  8
8  10  8

$$$$

