97627
  -OEChem-07051213013D

 31 33  0     1  0  0  0  0  0999 V2000
    1.6879   -0.1297   -1.1887 O   0  0  0  0  0  0  0  0  0  0  0  0
    1.7757    2.7656   -0.0005 O   0  0  0  0  0  0  0  0  0  0  0  0
    3.5721    1.3783    1.4713 O   0  0  0  0  0  0  0  0  0  0  0  0
    4.7514   -1.1930    0.2545 O   0  0  0  0  0  0  0  0  0  0  0  0
    3.0671   -2.3186   -0.7904 O   0  0  0  0  0  0  0  0  0  0  0  0
   -0.4824   -0.0489   -0.2144 N   0  0  0  0  0  0  0  0  0  0  0  0
   -1.6676   -1.7719    0.5635 N   0  0  0  0  0  0  0  0  0  0  0  0
   -2.2818    1.5173   -0.6747 N   0  0  0  0  0  0  0  0  0  0  0  0
   -4.4561    0.5622   -0.1124 N   0  0  0  0  0  0  0  0  0  0  0  0
   -4.6980   -1.6461    0.7777 N   0  0  0  0  0  0  0  0  0  0  0  0
    0.6828    0.7379   -0.6231 C   0  0  1  0  0  0  0  0  0  0  0  0
    1.3381    1.5099    0.5188 C   0  0  1  0  0  0  0  0  0  0  0  0
    2.5262    0.6388    0.8741 C   0  0  1  0  0  0  0  0  0  0  0  0
    2.9146    0.0674   -0.4747 C   0  0  1  0  0  0  0  0  0  0  0  0
   -1.7921    0.3410   -0.2547 C   0  0  0  0  0  0  0  0  0  0  0  0
    3.5526   -1.2781   -0.3721 C   0  0  0  0  0  0  0  0  0  0  0  0
   -0.4607   -1.3259    0.2841 C   0  0  0  0  0  0  0  0  0  0  0  0
   -2.5095   -0.7403    0.2316 C   0  0  0  0  0  0  0  0  0  0  0  0
   -3.8922   -0.6001    0.2958 C   0  0  0  0  0  0  0  0  0  0  0  0
   -3.6282    1.5343   -0.5656 C   0  0  0  0  0  0  0  0  0  0  0  0
    0.3433    1.3970   -1.4307 H   0  0  0  0  0  0  0  0  0  0  0  0
    0.6867    1.7121    1.3744 H   0  0  0  0  0  0  0  0  0  0  0  0
    2.2213   -0.1596    1.5618 H   0  0  0  0  0  0  0  0  0  0  0  0
    3.5601    0.7305   -1.0616 H   0  0  0  0  0  0  0  0  0  0  0  0
    0.9814    3.2755   -0.2346 H   0  0  0  0  0  0  0  0  0  0  0  0
    0.4552   -1.8818    0.4285 H   0  0  0  0  0  0  0  0  0  0  0  0
    3.2125    1.7979    2.2714 H   0  0  0  0  0  0  0  0  0  0  0  0
    5.1865   -2.0687    0.3336 H   0  0  0  0  0  0  0  0  0  0  0  0
   -4.1137    2.4507   -0.8838 H   0  0  0  0  0  0  0  0  0  0  0  0
   -5.7004   -1.5203    0.8144 H   0  0  0  0  0  0  0  0  0  0  0  0
   -4.2795   -2.5145    1.0826 H   0  0  0  0  0  0  0  0  0  0  0  0
  1 11  1  0  0  0  0
  1 14  1  0  0  0  0
  2 12  1  0  0  0  0
  2 25  1  0  0  0  0
  3 13  1  0  0  0  0
  3 27  1  0  0  0  0
  4 16  1  0  0  0  0
  4 28  1  0  0  0  0
  5 16  2  0  0  0  0
  6 11  1  0  0  0  0
  6 15  1  0  0  0  0
  6 17  1  0  0  0  0
  7 17  2  0  0  0  0
  7 18  1  0  0  0  0
  8 15  2  0  0  0  0
  8 20  1  0  0  0  0
  9 19  1  0  0  0  0
  9 20  2  0  0  0  0
 10 19  1  0  0  0  0
 10 30  1  0  0  0  0
 10 31  1  0  0  0  0
 11 12  1  0  0  0  0
 11 21  1  0  0  0  0
 12 13  1  0  0  0  0
 12 22  1  0  0  0  0
 13 14  1  0  0  0  0
 13 23  1  0  0  0  0
 14 16  1  0  0  0  0
 14 24  1  0  0  0  0
 15 18  1  0  0  0  0
 17 26  1  0  0  0  0
 18 19  2  0  0  0  0
 20 29  1  0  0  0  0
M  END
> <PUBCHEM_COMPOUND_CID>
97627

> <PUBCHEM_CONFORMER_RMSD>
0.6

> <PUBCHEM_CONFORMER_DIVERSEORDER>
1
21
6
4
5
17
15
11
20
14
19
8
16
12
9
10
13
18
3
2
22
7

> <PUBCHEM_MMFF94_PARTIAL_CHARGES>
27
1 -0.56
10 -0.9
11 0.54
12 0.28
13 0.28
14 0.34
15 0.11
16 0.66
17 0.04
18 0.23
19 0.41
2 -0.68
20 0.47
25 0.4
26 0.15
27 0.4
28 0.5
29 0.15
3 -0.68
30 0.4
31 0.4
4 -0.65
5 -0.57
6 0.05
7 -0.57
8 -0.57
9 -0.62

> <PUBCHEM_EFFECTIVE_ROTOR_COUNT>
3

> <PUBCHEM_PHARMACOPHORE_FEATURES>
16
1 1 acceptor
1 10 cation
1 10 donor
1 2 acceptor
1 2 donor
1 3 acceptor
1 3 donor
1 4 acceptor
1 5 acceptor
3 4 5 16 anion
3 6 7 17 cation
3 6 8 15 cation
3 8 9 20 cation
5 1 11 12 13 14 rings
5 6 7 15 17 18 rings
6 8 9 15 18 19 20 rings

> <PUBCHEM_HEAVY_ATOM_COUNT>
20

> <PUBCHEM_ATOM_DEF_STEREO_COUNT>
4

> <PUBCHEM_ATOM_UDEF_STEREO_COUNT>
0

> <PUBCHEM_BOND_DEF_STEREO_COUNT>
0

> <PUBCHEM_BOND_UDEF_STEREO_COUNT>
0

> <PUBCHEM_ISOTOPIC_ATOM_COUNT>
0

> <PUBCHEM_COMPONENT_COUNT>
1

> <PUBCHEM_CACTVS_TAUTO_COUNT>
3

> <PUBCHEM_CONFORMER_ID>
00017D5B00000001

> <PUBCHEM_MMFF94_ENERGY>
42.129

> <PUBCHEM_FEATURE_SELFOVERLAP>
81.876

> <PUBCHEM_SHAPE_FINGERPRINT>
10608611 8 18411139104369649901
10922523 26 18410013234305714079
1100329 8 16608573709775043080
11132069 177 18343866606806083541
11405975 8 18261105292783525057
12236239 1 16415758647712687476
12403259 226 18412546496633454517
12403259 415 18411983581002926285
12507560 40 18408890611532953120
13134695 92 17603596252414799136
13581323 91 18201159862606905101
13583140 156 17314245366550243747
13675066 3 18410576171574700003
14004511 7 18335415807405175089
14866123 147 17254267342083469474
15196674 1 18413387639717721495
15219456 202 18334861601604410573
15536298 74 18409451383853520411
15653759 3 18411981364409274909
17804303 29 18343298175967841087
1813 80 16988851587932881756
18186145 218 18187354437690065385
19049666 15 18336549407840460128
19784866 170 18263093132661091904
200 152 17603874420514078901
20510252 161 18411135806151323433
20645477 70 17894632573629139550
21065199 12 18408888408235907417
21065201 7 18131074856843134881
23184049 59 17822012046881014830
23402539 116 18261964036965875453
23559900 14 18410575089375037604
3004659 81 17987510580708799470
3286 77 18410853248547156269
42 15 18413105073872247063
495365 180 17895210908213385130
5104073 3 18410572890256655369
69090 78 18260271819825026951
7364860 26 18339074866186217652
9709674 26 18269273474034350091

> <PUBCHEM_SHAPE_MULTIPOLES>
357.34
8.75
2.19
0.94
2.2
0.24
-0.08
-2.08
-0.83
-0.63
-0.06
-0.46
0.09
1.41

> <PUBCHEM_SHAPE_SELFOVERLAP>
785.241

> <PUBCHEM_SHAPE_VOLUME>
189.7

> <PUBCHEM_COORDINATE_TYPE>
2
5
10

$$$$

