71476
  -OEChem-07051213042D

 66 65  0     1  0  0  0  0  0999 V2000
    0.0000    5.2172    0.0000 Cl  0  0  0  0  0  0  0  0  0  0  0  0
    7.0010    1.3100    0.0000 S   0  0  0  0  0  0  0  0  0  0  0  0
    6.1350    2.8100    0.0000 O   0  0  0  0  0  0  0  0  0  0  0  0
    3.5369    3.3100    0.0000 O   0  0  0  0  0  0  0  0  0  0  0  0
    3.5369    1.3100    0.0000 O   0  0  0  0  0  0  0  0  0  0  0  0
    5.2690    0.3100    0.0000 O   0  0  0  0  0  0  0  0  0  0  0  0
    5.2690    6.3100    0.0000 O   0  0  0  0  0  0  0  0  0  0  0  0
    4.4030    5.8100    0.0000 O   0  0  0  0  0  0  0  0  0  0  0  0
    7.3886   10.4344    0.0000 O   0  0  0  0  0  0  0  0  0  0  0  0
    7.1056    7.3045    0.0000 N   0  0  3  0  0  0  0  0  0  0  0  0
    6.1350    4.8100    0.0000 N   0  0  0  0  0  0  0  0  0  0  0  0
    8.5837    6.6464    0.0000 C   0  0  2  0  0  0  0  0  0  0  0  0
    7.0010    6.3100    0.0000 C   0  0  1  0  0  0  0  0  0  0  0  0
    7.9146    5.9033    0.0000 C   0  0  0  0  0  0  0  0  0  0  0  0
    8.0837    7.5124    0.0000 C   0  0  0  0  0  0  0  0  0  0  0  0
    5.2690    3.3100    0.0000 C   0  0  2  0  0  0  0  0  0  0  0  0
    5.2690    4.3100    0.0000 C   0  0  1  0  0  0  0  0  0  0  0  0
    4.4030    2.8100    0.0000 C   0  0  1  0  0  0  0  0  0  0  0  0
    9.5782    6.5419    0.0000 C   0  0  0  0  0  0  0  0  0  0  0  0
    4.4030    1.8100    0.0000 C   0  0  1  0  0  0  0  0  0  0  0  0
    6.1350    5.8100    0.0000 C   0  0  0  0  0  0  0  0  0  0  0  0
    5.2690    1.3100    0.0000 C   0  0  2  0  0  0  0  0  0  0  0  0
    4.4030    4.8100    0.0000 C   0  0  1  0  0  0  0  0  0  0  0  0
    6.1350    1.8100    0.0000 C   0  0  1  0  0  0  0  0  0  0  0  0
    6.3624    7.9736    0.0000 C   0  0  0  0  0  0  0  0  0  0  0  0
   10.1660    7.3509    0.0000 C   0  0  0  0  0  0  0  0  0  0  0  0
    3.5369    4.3100    0.0000 C   0  0  0  0  0  0  0  0  0  0  0  0
   11.1605    7.2464    0.0000 C   0  0  0  0  0  0  0  0  0  0  0  0
    7.8671    1.8100    0.0000 C   0  0  0  0  0  0  0  0  0  0  0  0
    8.9214    7.1664    0.0000 H   0  0  0  0  0  0  0  0  0  0  0  0
    6.4811    6.6477    0.0000 H   0  0  0  0  0  0  0  0  0  0  0  0
    7.6046    5.3663    0.0000 H   0  0  0  0  0  0  0  0  0  0  0  0
    8.4162    5.5388    0.0000 H   0  0  0  0  0  0  0  0  0  0  0  0
    8.6501    7.7646    0.0000 H   0  0  0  0  0  0  0  0  0  0  0  0
    7.8921    8.1021    0.0000 H   0  0  0  0  0  0  0  0  0  0  0  0
    6.0051    3.7350    0.0000 H   0  0  0  0  0  0  0  0  0  0  0  0
    5.8059    4.0000    0.0000 H   0  0  0  0  0  0  0  0  0  0  0  0
    4.4030    3.4300    0.0000 H   0  0  0  0  0  0  0  0  0  0  0  0
    9.4073    5.9459    0.0000 H   0  0  0  0  0  0  0  0  0  0  0  0
   10.1355    6.2701    0.0000 H   0  0  0  0  0  0  0  0  0  0  0  0
    4.4030    1.1900    0.0000 H   0  0  0  0  0  0  0  0  0  0  0  0
    6.6720    4.5000    0.0000 H   0  0  0  0  0  0  0  0  0  0  0  0
    5.8059    1.0000    0.0000 H   0  0  0  0  0  0  0  0  0  0  0  0
    4.9399    5.1200    0.0000 H   0  0  0  0  0  0  0  0  0  0  0  0
    6.1350    1.1900    0.0000 H   0  0  0  0  0  0  0  0  0  0  0  0
    6.7773    8.4344    0.0000 H   0  0  0  0  0  0  0  0  0  0  0  0
    5.9017    8.3885    0.0000 H   0  0  0  0  0  0  0  0  0  0  0  0
    5.9476    7.5129    0.0000 H   0  0  0  0  0  0  0  0  0  0  0  0
   10.3369    7.9469    0.0000 H   0  0  0  0  0  0  0  0  0  0  0  0
    9.6088    7.6227    0.0000 H   0  0  0  0  0  0  0  0  0  0  0  0
    3.2269    4.8469    0.0000 H   0  0  0  0  0  0  0  0  0  0  0  0
    3.0000    4.0000    0.0000 H   0  0  0  0  0  0  0  0  0  0  0  0
    3.8469    3.7731    0.0000 H   0  0  0  0  0  0  0  0  0  0  0  0
    3.0000    3.0000    0.0000 H   0  0  0  0  0  0  0  0  0  0  0  0
    3.5369    0.6900    0.0000 H   0  0  0  0  0  0  0  0  0  0  0  0
   11.0957    6.6298    0.0000 H   0  0  0  0  0  0  0  0  0  0  0  0
   11.7771    7.1816    0.0000 H   0  0  0  0  0  0  0  0  0  0  0  0
   11.2254    7.8630    0.0000 H   0  0  0  0  0  0  0  0  0  0  0  0
    5.8059    0.0000    0.0000 H   0  0  0  0  0  0  0  0  0  0  0  0
    3.8660    6.1200    0.0000 H   0  0  0  0  0  0  0  0  0  0  0  0
    8.1771    1.2731    0.0000 H   0  0  0  0  0  0  0  0  0  0  0  0
    8.4040    2.1200    0.0000 H   0  0  0  0  0  0  0  0  0  0  0  0
    7.5571    2.3469    0.0000 H   0  0  0  0  0  0  0  0  0  0  0  0
    7.9255   10.7444    0.0000 H   0  0  0  0  0  0  0  0  0  0  0  0
    6.8516   10.7444    0.0000 H   0  0  0  0  0  0  0  0  0  0  0  0
    1.0000    5.2172    0.0000 H   0  0  0  0  0  0  0  0  0  0  0  0
  1 66  1  0  0  0  0
 24  2  1  6  0  0  0
  2 29  1  0  0  0  0
  3 16  1  0  0  0  0
  3 24  1  0  0  0  0
 18  4  1  1  0  0  0
  4 54  1  0  0  0  0
 20  5  1  1  0  0  0
  5 55  1  0  0  0  0
 22  6  1  6  0  0  0
  6 59  1  0  0  0  0
  7 21  2  0  0  0  0
 23  8  1  1  0  0  0
  8 60  1  0  0  0  0
  9 64  1  0  0  0  0
  9 65  1  0  0  0  0
 10 13  1  0  0  0  0
 10 15  1  0  0  0  0
 10 25  1  0  0  0  0
 17 11  1  1  0  0  0
 11 21  1  0  0  0  0
 11 42  1  0  0  0  0
 12 14  1  0  0  0  0
 12 15  1  0  0  0  0
 12 19  1  6  0  0  0
 12 30  1  0  0  0  0
 13 14  1  0  0  0  0
 13 21  1  1  0  0  0
 13 31  1  0  0  0  0
 14 32  1  0  0  0  0
 14 33  1  0  0  0  0
 15 34  1  0  0  0  0
 15 35  1  0  0  0  0
 16 17  1  0  0  0  0
 16 18  1  0  0  0  0
 16 36  1  6  0  0  0
 17 23  1  0  0  0  0
 17 37  1  0  0  0  0
 18 20  1  0  0  0  0
 18 38  1  0  0  0  0
 19 26  1  0  0  0  0
 19 39  1  0  0  0  0
 19 40  1  0  0  0  0
 20 22  1  0  0  0  0
 20 41  1  0  0  0  0
 22 24  1  0  0  0  0
 22 43  1  0  0  0  0
 23 27  1  0  0  0  0
 23 44  1  0  0  0  0
 24 45  1  0  0  0  0
 25 46  1  0  0  0  0
 25 47  1  0  0  0  0
 25 48  1  0  0  0  0
 26 28  1  0  0  0  0
 26 49  1  0  0  0  0
 26 50  1  0  0  0  0
 27 51  1  0  0  0  0
 27 52  1  0  0  0  0
 27 53  1  0  0  0  0
 28 56  1  0  0  0  0
 28 57  1  0  0  0  0
 28 58  1  0  0  0  0
 29 61  1  0  0  0  0
 29 62  1  0  0  0  0
 29 63  1  0  0  0  0
M  END
> <PUBCHEM_COMPOUND_CID>
71476

> <PUBCHEM_COMPOUND_CANONICALIZED>
1

> <PUBCHEM_CACTVS_COMPLEXITY>
499

> <PUBCHEM_CACTVS_HBOND_ACCEPTOR>
9

> <PUBCHEM_CACTVS_HBOND_DONOR>
7

> <PUBCHEM_CACTVS_ROTATABLE_BOND>
7

> <PUBCHEM_CACTVS_SUBSKEYS>
AAADcfB7OABEAAAAAAAAAAAAAAAAAWAAAAAkAAAAAAAAAAAAAAAAHgQQCAAADTzlwAaCAAPABggIAAEQEAAAAAAAABAAAIGIAAADUBIggCAXQAAHFgCTAAH4+aeOAAAAAAAAAAAAAAAAAAAAAAAAAAAAAA==

> <PUBCHEM_IUPAC_OPENEYE_NAME>
(2S,4R)-N-[(1R,2R)-2-hydroxy-1-[(2R,3R,4S,5R,6R)-3,4,5-trihydroxy-6-methylsulfanyl-tetrahydropyran-2-yl]propyl]-1-methyl-4-propyl-pyrrolidine-2-carboxamide hydrate hydrochloride

> <PUBCHEM_IUPAC_CAS_NAME>
(2S,4R)-N-[(1R,2R)-2-hydroxy-1-[(2R,3R,4S,5R,6R)-3,4,5-trihydroxy-6-(methylthio)-2-oxanyl]propyl]-1-methyl-4-propyl-2-pyrrolidinecarboxamide hydrate hydrochloride

> <PUBCHEM_IUPAC_NAME>
(2S,4R)-N-[(1R,2R)-2-hydroxy-1-[(2R,3R,4S,5R,6R)-3,4,5-trihydroxy-6-methylsulfanyloxan-2-yl]propyl]-1-methyl-4-propylpyrrolidine-2-carboxamide hydrate hydrochloride

> <PUBCHEM_IUPAC_SYSTEMATIC_NAME>
(2S,4R)-1-methyl-N-[(1R,2R)-1-[(2R,3R,4S,5R,6R)-6-methylsulfanyl-3,4,5-tris(oxidanyl)oxan-2-yl]-2-oxidanyl-propyl]-4-propyl-pyrrolidine-2-carboxamide hydrate hydrochloride

> <PUBCHEM_IUPAC_TRADITIONAL_NAME>
(2S,4R)-N-[(1R,2R)-2-hydroxy-1-[(2R,3R,4S,5R,6R)-3,4,5-trihydroxy-6-(methylthio)tetrahydropyran-2-yl]propyl]-1-methyl-4-propyl-pyrrolidine-2-carboxamide hydrate hydrochloride

> <PUBCHEM_IUPAC_INCHI>
InChI=1S/C18H34N2O6S.ClH.H2O/c1-5-6-10-7-11(20(3)8-10)17(25)19-12(9(2)21)16-14(23)13(22)15(24)18(26-16)27-4;;/h9-16,18,21-24H,5-8H2,1-4H3,(H,19,25);1H;1H2/t9-,10-,11+,12-,13+,14-,15-,16-,18-;;/m1../s1

> <PUBCHEM_IUPAC_INCHIKEY>
LFZGYTBWUHCAKF-DCNJEFSFSA-N

> <PUBCHEM_EXACT_MASS>
460.201

> <PUBCHEM_MOLECULAR_FORMULA>
C18H37ClN2O7S

> <PUBCHEM_MOLECULAR_WEIGHT>
461.01358

> <PUBCHEM_OPENEYE_CAN_SMILES>
CCCC1CC(N(C1)C)C(=O)NC(C2C(C(C(C(O2)SC)O)O)O)C(C)O.O.Cl

> <PUBCHEM_OPENEYE_ISO_SMILES>
CCC[C@@H]1C[C@H](N(C1)C)C(=O)N[C@@H]([C@@H]2[C@@H]([C@@H]([C@H]([C@H](O2)SC)O)O)O)[C@@H](C)O.O.Cl

> <PUBCHEM_CACTVS_TPSA>
149

> <PUBCHEM_MONOISOTOPIC_WEIGHT>
460.201

> <PUBCHEM_TOTAL_CHARGE>
0

> <PUBCHEM_HEAVY_ATOM_COUNT>
29

> <PUBCHEM_ATOM_DEF_STEREO_COUNT>
9

> <PUBCHEM_ATOM_UDEF_STEREO_COUNT>
0

> <PUBCHEM_BOND_DEF_STEREO_COUNT>
0

> <PUBCHEM_BOND_UDEF_STEREO_COUNT>
0

> <PUBCHEM_ISOTOPIC_ATOM_COUNT>
0

> <PUBCHEM_COMPONENT_COUNT>
3

> <PUBCHEM_CACTVS_TAUTO_COUNT>
2

> <PUBCHEM_COORDINATE_TYPE>
1
5
255

> <PUBCHEM_BONDANNOTATIONS>
17  11  5
12  19  6
13  21  5
16  36  6
24  2  6
18  4  5
20  5  5
22  6  6
23  8  5

$$$$

