5280899
  -OEChem-07051212512D

 98 99  0     1  0  0  0  0  0999 V2000
   11.6603   10.2500    0.0000 O   0  0  0  0  0  0  0  0  0  0  0  0
    3.8660  -10.2500    0.0000 O   0  0  0  0  0  0  0  0  0  0  0  0
    3.0000   -7.7500    0.0000 C   0  0  0  0  0  0  0  0  0  0  0  0
   12.5263    7.7500    0.0000 C   0  0  0  0  0  0  0  0  0  0  0  0
    3.0000   -8.7500    0.0000 C   0  0  0  0  0  0  0  0  0  0  0  0
   12.5263    8.7500    0.0000 C   0  0  0  0  0  0  0  0  0  0  0  0
   11.6603    9.2500    0.0000 C   0  0  1  0  0  0  0  0  0  0  0  0
    3.8660   -9.2500    0.0000 C   0  0  1  0  0  0  0  0  0  0  0  0
   11.6603    7.2500    0.0000 C   0  0  0  0  0  0  0  0  0  0  0  0
    3.8660   -7.2500    0.0000 C   0  0  0  0  0  0  0  0  0  0  0  0
    4.7320   -8.7500    0.0000 C   0  0  0  0  0  0  0  0  0  0  0  0
   10.7942    8.7500    0.0000 C   0  0  0  0  0  0  0  0  0  0  0  0
   10.7942    7.7500    0.0000 C   0  0  0  0  0  0  0  0  0  0  0  0
    4.7320   -7.7500    0.0000 C   0  0  0  0  0  0  0  0  0  0  0  0
   13.5263    7.7500    0.0000 C   0  0  0  0  0  0  0  0  0  0  0  0
   13.0263    6.8840    0.0000 C   0  0  0  0  0  0  0  0  0  0  0  0
    2.0000   -7.7500    0.0000 C   0  0  0  0  0  0  0  0  0  0  0  0
    2.5000   -6.8840    0.0000 C   0  0  0  0  0  0  0  0  0  0  0  0
   11.6603    6.2500    0.0000 C   0  0  0  0  0  0  0  0  0  0  0  0
    3.8660   -6.2500    0.0000 C   0  0  0  0  0  0  0  0  0  0  0  0
    9.9282    7.2500    0.0000 C   0  0  0  0  0  0  0  0  0  0  0  0
    5.5981   -7.2500    0.0000 C   0  0  0  0  0  0  0  0  0  0  0  0
   10.7942    5.7500    0.0000 C   0  0  0  0  0  0  0  0  0  0  0  0
    4.7320   -5.7500    0.0000 C   0  0  0  0  0  0  0  0  0  0  0  0
    4.7320   -4.7500    0.0000 C   0  0  0  0  0  0  0  0  0  0  0  0
   10.7942    4.7500    0.0000 C   0  0  0  0  0  0  0  0  0  0  0  0
   11.6603    4.2500    0.0000 C   0  0  0  0  0  0  0  0  0  0  0  0
    3.8660   -4.2500    0.0000 C   0  0  0  0  0  0  0  0  0  0  0  0
    9.9282    4.2500    0.0000 C   0  0  0  0  0  0  0  0  0  0  0  0
    5.5981   -4.2500    0.0000 C   0  0  0  0  0  0  0  0  0  0  0  0
    5.5981   -3.2500    0.0000 C   0  0  0  0  0  0  0  0  0  0  0  0
    9.9282    3.2500    0.0000 C   0  0  0  0  0  0  0  0  0  0  0  0
    6.4641   -2.7500    0.0000 C   0  0  0  0  0  0  0  0  0  0  0  0
    9.0622    2.7500    0.0000 C   0  0  0  0  0  0  0  0  0  0  0  0
    6.4641   -1.7500    0.0000 C   0  0  0  0  0  0  0  0  0  0  0  0
    9.0622    1.7500    0.0000 C   0  0  0  0  0  0  0  0  0  0  0  0
    9.9282    1.2500    0.0000 C   0  0  0  0  0  0  0  0  0  0  0  0
    5.5981   -1.2500    0.0000 C   0  0  0  0  0  0  0  0  0  0  0  0
    7.3301   -1.2500    0.0000 C   0  0  0  0  0  0  0  0  0  0  0  0
    8.1962    1.2500    0.0000 C   0  0  0  0  0  0  0  0  0  0  0  0
    7.3301   -0.2500    0.0000 C   0  0  0  0  0  0  0  0  0  0  0  0
    8.1962    0.2500    0.0000 C   0  0  0  0  0  0  0  0  0  0  0  0
    2.3894   -8.6423    0.0000 H   0  0  0  0  0  0  0  0  0  0  0  0
    2.7880   -9.3326    0.0000 H   0  0  0  0  0  0  0  0  0  0  0  0
   13.1369    8.6423    0.0000 H   0  0  0  0  0  0  0  0  0  0  0  0
   12.7383    9.3326    0.0000 H   0  0  0  0  0  0  0  0  0  0  0  0
    4.4030   -9.5600    0.0000 H   0  0  0  0  0  0  0  0  0  0  0  0
   12.1972    9.5600    0.0000 H   0  0  0  0  0  0  0  0  0  0  0  0
   10.5822    9.3326    0.0000 H   0  0  0  0  0  0  0  0  0  0  0  0
   10.1836    8.6423    0.0000 H   0  0  0  0  0  0  0  0  0  0  0  0
    4.9441   -9.3326    0.0000 H   0  0  0  0  0  0  0  0  0  0  0  0
    5.3426   -8.6423    0.0000 H   0  0  0  0  0  0  0  0  0  0  0  0
   12.4893    6.5740    0.0000 H   0  0  0  0  0  0  0  0  0  0  0  0
   13.5263    7.1300    0.0000 H   0  0  0  0  0  0  0  0  0  0  0  0
   14.1463    7.7500    0.0000 H   0  0  0  0  0  0  0  0  0  0  0  0
   13.5263    8.3700    0.0000 H   0  0  0  0  0  0  0  0  0  0  0  0
    2.0000   -7.1300    0.0000 H   0  0  0  0  0  0  0  0  0  0  0  0
    1.3800   -7.7500    0.0000 H   0  0  0  0  0  0  0  0  0  0  0  0
    2.0000   -8.3700    0.0000 H   0  0  0  0  0  0  0  0  0  0  0  0
    3.0369   -6.5740    0.0000 H   0  0  0  0  0  0  0  0  0  0  0  0
    2.1900   -6.3470    0.0000 H   0  0  0  0  0  0  0  0  0  0  0  0
    1.9631   -7.1940    0.0000 H   0  0  0  0  0  0  0  0  0  0  0  0
   13.3363    6.3470    0.0000 H   0  0  0  0  0  0  0  0  0  0  0  0
   13.5632    7.1940    0.0000 H   0  0  0  0  0  0  0  0  0  0  0  0
   12.1972    5.9400    0.0000 H   0  0  0  0  0  0  0  0  0  0  0  0
    3.3291   -5.9400    0.0000 H   0  0  0  0  0  0  0  0  0  0  0  0
    5.9081   -7.7869    0.0000 H   0  0  0  0  0  0  0  0  0  0  0  0
    9.6182    7.7869    0.0000 H   0  0  0  0  0  0  0  0  0  0  0  0
    9.3913    6.9400    0.0000 H   0  0  0  0  0  0  0  0  0  0  0  0
   10.2382    6.7131    0.0000 H   0  0  0  0  0  0  0  0  0  0  0  0
    6.1350   -6.9400    0.0000 H   0  0  0  0  0  0  0  0  0  0  0  0
    5.2881   -6.7131    0.0000 H   0  0  0  0  0  0  0  0  0  0  0  0
   12.1972   10.5600    0.0000 H   0  0  0  0  0  0  0  0  0  0  0  0
    4.4030  -10.5600    0.0000 H   0  0  0  0  0  0  0  0  0  0  0  0
   10.2573    6.0600    0.0000 H   0  0  0  0  0  0  0  0  0  0  0  0
    5.2690   -6.0600    0.0000 H   0  0  0  0  0  0  0  0  0  0  0  0
    4.1760   -3.7131    0.0000 H   0  0  0  0  0  0  0  0  0  0  0  0
   11.3503    3.7131    0.0000 H   0  0  0  0  0  0  0  0  0  0  0  0
   12.1972    3.9400    0.0000 H   0  0  0  0  0  0  0  0  0  0  0  0
   11.9703    4.7869    0.0000 H   0  0  0  0  0  0  0  0  0  0  0  0
    3.3291   -3.9400    0.0000 H   0  0  0  0  0  0  0  0  0  0  0  0
    3.5560   -4.7869    0.0000 H   0  0  0  0  0  0  0  0  0  0  0  0
    6.1350   -4.5600    0.0000 H   0  0  0  0  0  0  0  0  0  0  0  0
    9.3913    4.5600    0.0000 H   0  0  0  0  0  0  0  0  0  0  0  0
    5.0611   -2.9400    0.0000 H   0  0  0  0  0  0  0  0  0  0  0  0
   10.4651    2.9400    0.0000 H   0  0  0  0  0  0  0  0  0  0  0  0
    7.0010   -3.0600    0.0000 H   0  0  0  0  0  0  0  0  0  0  0  0
    8.5252    3.0600    0.0000 H   0  0  0  0  0  0  0  0  0  0  0  0
    9.6182    0.7131    0.0000 H   0  0  0  0  0  0  0  0  0  0  0  0
    5.9081   -0.7131    0.0000 H   0  0  0  0  0  0  0  0  0  0  0  0
    5.0611   -0.9400    0.0000 H   0  0  0  0  0  0  0  0  0  0  0  0
    5.2881   -1.7869    0.0000 H   0  0  0  0  0  0  0  0  0  0  0  0
   10.4651    0.9400    0.0000 H   0  0  0  0  0  0  0  0  0  0  0  0
   10.2382    1.7869    0.0000 H   0  0  0  0  0  0  0  0  0  0  0  0
    7.6592    1.5600    0.0000 H   0  0  0  0  0  0  0  0  0  0  0  0
    7.8671   -1.5600    0.0000 H   0  0  0  0  0  0  0  0  0  0  0  0
    6.7932    0.0600    0.0000 H   0  0  0  0  0  0  0  0  0  0  0  0
    8.7331   -0.0600    0.0000 H   0  0  0  0  0  0  0  0  0  0  0  0
  7  1  1  1  0  0  0
  1 73  1  0  0  0  0
  8  2  1  1  0  0  0
  2 74  1  0  0  0  0
  3  5  1  0  0  0  0
  3 10  1  0  0  0  0
  3 17  1  0  0  0  0
  3 18  1  0  0  0  0
  4  6  1  0  0  0  0
  4  9  1  0  0  0  0
  4 15  1  0  0  0  0
  4 16  1  0  0  0  0
  5  8  1  0  0  0  0
  5 43  1  0  0  0  0
  5 44  1  0  0  0  0
  6  7  1  0  0  0  0
  6 45  1  0  0  0  0
  6 46  1  0  0  0  0
  7 12  1  0  0  0  0
  7 48  1  0  0  0  0
  8 11  1  0  0  0  0
  8 47  1  0  0  0  0
  9 13  2  0  0  0  0
  9 19  1  0  0  0  0
 10 14  2  0  0  0  0
 10 20  1  0  0  0  0
 11 14  1  0  0  0  0
 11 51  1  0  0  0  0
 11 52  1  0  0  0  0
 12 13  1  0  0  0  0
 12 49  1  0  0  0  0
 12 50  1  0  0  0  0
 13 21  1  0  0  0  0
 14 22  1  0  0  0  0
 15 54  1  0  0  0  0
 15 55  1  0  0  0  0
 15 56  1  0  0  0  0
 16 53  1  0  0  0  0
 16 63  1  0  0  0  0
 16 64  1  0  0  0  0
 17 57  1  0  0  0  0
 17 58  1  0  0  0  0
 17 59  1  0  0  0  0
 18 60  1  0  0  0  0
 18 61  1  0  0  0  0
 18 62  1  0  0  0  0
 19 23  2  0  0  0  0
 19 65  1  0  0  0  0
 20 24  2  0  0  0  0
 20 66  1  0  0  0  0
 21 68  1  0  0  0  0
 21 69  1  0  0  0  0
 21 70  1  0  0  0  0
 22 67  1  0  0  0  0
 22 71  1  0  0  0  0
 22 72  1  0  0  0  0
 23 26  1  0  0  0  0
 23 75  1  0  0  0  0
 24 25  1  0  0  0  0
 24 76  1  0  0  0  0
 25 28  1  0  0  0  0
 25 30  2  0  0  0  0
 26 27  1  0  0  0  0
 26 29  2  0  0  0  0
 27 78  1  0  0  0  0
 27 79  1  0  0  0  0
 27 80  1  0  0  0  0
 28 77  1  0  0  0  0
 28 81  1  0  0  0  0
 28 82  1  0  0  0  0
 29 32  1  0  0  0  0
 29 84  1  0  0  0  0
 30 31  1  0  0  0  0
 30 83  1  0  0  0  0
 31 33  2  0  0  0  0
 31 85  1  0  0  0  0
 32 34  2  0  0  0  0
 32 86  1  0  0  0  0
 33 35  1  0  0  0  0
 33 87  1  0  0  0  0
 34 36  1  0  0  0  0
 34 88  1  0  0  0  0
 35 38  1  0  0  0  0
 35 39  2  0  0  0  0
 36 37  1  0  0  0  0
 36 40  2  0  0  0  0
 37 89  1  0  0  0  0
 37 93  1  0  0  0  0
 37 94  1  0  0  0  0
 38 90  1  0  0  0  0
 38 91  1  0  0  0  0
 38 92  1  0  0  0  0
 39 41  1  0  0  0  0
 39 96  1  0  0  0  0
 40 42  1  0  0  0  0
 40 95  1  0  0  0  0
 41 42  2  0  0  0  0
 41 97  1  0  0  0  0
 42 98  1  0  0  0  0
M  END
> <PUBCHEM_COMPOUND_CID>
5280899

> <PUBCHEM_COMPOUND_CANONICALIZED>
1

> <PUBCHEM_CACTVS_COMPLEXITY>
1190

> <PUBCHEM_CACTVS_HBOND_ACCEPTOR>
2

> <PUBCHEM_CACTVS_HBOND_DONOR>
2

> <PUBCHEM_CACTVS_ROTATABLE_BOND>
10

> <PUBCHEM_CACTVS_SUBSKEYS>
AAADcfB8MAAAAAAAAAAAAAAAAAAAAAAAAAAgQAAAAAAAAAAAAAAAGgAACAAADhSggAICAAAAAgCAAiBCAAAAAAAgAAAICAAAAAgIEAIAAQAAQAAEwAAIgAOAgMAPAAAAAAAAAAAAAAAAAAAAAAAAAAAAAA==

> <PUBCHEM_IUPAC_OPENEYE_NAME>
(1R)-4-[(1E,3E,5E,7E,9E,11E,13E,15E,17E)-18-[(4R)-4-hydroxy-2,6,6-trimethyl-cyclohexen-1-yl]-3,7,12,16-tetramethyl-octadeca-1,3,5,7,9,11,13,15,17-nonaenyl]-3,5,5-trimethyl-cyclohex-3-en-1-ol

> <PUBCHEM_IUPAC_CAS_NAME>
(1R)-4-[(1E,3E,5E,7E,9E,11E,13E,15E,17E)-18-[(4R)-4-hydroxy-2,6,6-trimethyl-1-cyclohexenyl]-3,7,12,16-tetramethyloctadeca-1,3,5,7,9,11,13,15,17-nonaenyl]-3,5,5-trimethyl-1-cyclohex-3-enol

> <PUBCHEM_IUPAC_NAME>
(1R)-4-[(1E,3E,5E,7E,9E,11E,13E,15E,17E)-18-[(4R)-4-hydroxy-2,6,6-trimethylcyclohexen-1-yl]-3,7,12,16-tetramethyloctadeca-1,3,5,7,9,11,13,15,17-nonaenyl]-3,5,5-trimethylcyclohex-3-en-1-ol

> <PUBCHEM_IUPAC_SYSTEMATIC_NAME>
(1R)-3,5,5-trimethyl-4-[(1E,3E,5E,7E,9E,11E,13E,15E,17E)-3,7,12,16-tetramethyl-18-[(4R)-2,6,6-trimethyl-4-oxidanyl-cyclohexen-1-yl]octadeca-1,3,5,7,9,11,13,15,17-nonaenyl]cyclohex-3-en-1-ol

> <PUBCHEM_IUPAC_TRADITIONAL_NAME>
(1R)-4-[(1E,3E,5E,7E,9E,11E,13E,15E,17E)-18-[(4R)-4-hydroxy-2,6,6-trimethyl-cyclohexen-1-yl]-3,7,12,16-tetramethyl-octadeca-1,3,5,7,9,11,13,15,17-nonaenyl]-3,5,5-trimethyl-cyclohex-3-en-1-ol

> <PUBCHEM_IUPAC_INCHI>
InChI=1S/C40H56O2/c1-29(17-13-19-31(3)21-23-37-33(5)25-35(41)27-39(37,7)8)15-11-12-16-30(2)18-14-20-32(4)22-24-38-34(6)26-36(42)28-40(38,9)10/h11-24,35-36,41-42H,25-28H2,1-10H3/b12-11+,17-13+,18-14+,23-21+,24-22+,29-15+,30-16+,31-19+,32-20+/t35-,36-/m1/s1

> <PUBCHEM_IUPAC_INCHIKEY>
JKQXZKUSFCKOGQ-QAYBQHTQSA-N

> <PUBCHEM_XLOGP3_AA>
10.9

> <PUBCHEM_EXACT_MASS>
568.428031

> <PUBCHEM_MOLECULAR_FORMULA>
C40H56O2

> <PUBCHEM_MOLECULAR_WEIGHT>
568.87144

> <PUBCHEM_OPENEYE_CAN_SMILES>
CC1=C(C(CC(C1)O)(C)C)C=CC(=CC=CC(=CC=CC=C(C)C=CC=C(C)C=CC2=C(CC(CC2(C)C)O)C)C)C

> <PUBCHEM_OPENEYE_ISO_SMILES>
CC1=C(C(C[C@@H](C1)O)(C)C)/C=C/C(=C/C=C/C(=C/C=C/C=C(/C=C/C=C(/C=C/C2=C(C[C@H](CC2(C)C)O)C)\C)\C)/C)/C

> <PUBCHEM_CACTVS_TPSA>
40.5

> <PUBCHEM_MONOISOTOPIC_WEIGHT>
568.428031

> <PUBCHEM_TOTAL_CHARGE>
0

> <PUBCHEM_HEAVY_ATOM_COUNT>
42

> <PUBCHEM_ATOM_DEF_STEREO_COUNT>
2

> <PUBCHEM_ATOM_UDEF_STEREO_COUNT>
0

> <PUBCHEM_BOND_DEF_STEREO_COUNT>
9

> <PUBCHEM_BOND_UDEF_STEREO_COUNT>
0

> <PUBCHEM_ISOTOPIC_ATOM_COUNT>
0

> <PUBCHEM_COMPONENT_COUNT>
1

> <PUBCHEM_CACTVS_TAUTO_COUNT>
1

> <PUBCHEM_COORDINATE_TYPE>
1
5
255

> <PUBCHEM_BONDANNOTATIONS>
7  1  5
8  2  5

$$$$

