439873
  -OEChem-07051212473D

 18 18  0     1  0  0  0  0  0999 V2000
    0.2320    1.0563    0.1596 O   0  0  0  0  0  0  0  0  0  0  0  0
    0.2258   -1.7714    1.1978 O   0  0  0  0  0  0  0  0  0  0  0  0
   -2.0328   -0.5835   -1.3382 O   0  0  0  0  0  0  0  0  0  0  0  0
    3.0042    0.9204   -0.3990 O   0  0  0  0  0  0  0  0  0  0  0  0
   -1.9171    1.6849    0.6542 O   0  0  0  0  0  0  0  0  0  0  0  0
   -0.0769   -1.2457   -0.0905 C   0  0  2  0  0  0  0  0  0  0  0  0
    0.8406   -0.0907   -0.4546 C   0  0  2  0  0  0  0  0  0  0  0  0
   -1.4407   -0.5868   -0.0577 C   0  0  1  0  0  0  0  0  0  0  0  0
    2.2756   -0.2204    0.0241 C   0  0  0  0  0  0  0  0  0  0  0  0
   -1.1107    0.8368    0.3043 C   0  0  0  0  0  0  0  0  0  0  0  0
    0.0032   -2.0590   -0.8190 H   0  0  0  0  0  0  0  0  0  0  0  0
    0.8251    0.0985   -1.5358 H   0  0  0  0  0  0  0  0  0  0  0  0
   -2.1096   -1.0323    0.6844 H   0  0  0  0  0  0  0  0  0  0  0  0
    2.7530   -1.1109   -0.3949 H   0  0  0  0  0  0  0  0  0  0  0  0
    2.3416   -0.2612    1.1160 H   0  0  0  0  0  0  0  0  0  0  0  0
   -0.4129   -2.4817    1.3798 H   0  0  0  0  0  0  0  0  0  0  0  0
   -2.9037   -0.1583   -1.2578 H   0  0  0  0  0  0  0  0  0  0  0  0
    2.5650    1.7040   -0.0260 H   0  0  0  0  0  0  0  0  0  0  0  0
  1  7  1  0  0  0  0
  1 10  1  0  0  0  0
  2  6  1  0  0  0  0
  2 16  1  0  0  0  0
  3  8  1  0  0  0  0
  3 17  1  0  0  0  0
  4  9  1  0  0  0  0
  4 18  1  0  0  0  0
  5 10  2  0  0  0  0
  6  7  1  0  0  0  0
  6  8  1  0  0  0  0
  6 11  1  0  0  0  0
  7  9  1  0  0  0  0
  7 12  1  0  0  0  0
  8 10  1  0  0  0  0
  8 13  1  0  0  0  0
  9 14  1  0  0  0  0
  9 15  1  0  0  0  0
M  END
> <PUBCHEM_COMPOUND_CID>
439873

> <PUBCHEM_CONFORMER_RMSD>
0.4

> <PUBCHEM_CONFORMER_DIVERSEORDER>
2
6
3
4
5
1

> <PUBCHEM_MMFF94_PARTIAL_CHARGES>
13
1 -0.43
10 0.66
16 0.4
17 0.4
18 0.4
2 -0.68
3 -0.68
4 -0.68
5 -0.57
6 0.28
7 0.28
8 0.34
9 0.28

> <PUBCHEM_EFFECTIVE_ROTOR_COUNT>
1.8

> <PUBCHEM_PHARMACOPHORE_FEATURES>
8
1 2 acceptor
1 2 donor
1 3 acceptor
1 3 donor
1 4 acceptor
1 4 donor
1 5 acceptor
5 1 6 7 8 10 rings

> <PUBCHEM_HEAVY_ATOM_COUNT>
10

> <PUBCHEM_ATOM_DEF_STEREO_COUNT>
3

> <PUBCHEM_ATOM_UDEF_STEREO_COUNT>
0

> <PUBCHEM_BOND_DEF_STEREO_COUNT>
0

> <PUBCHEM_BOND_UDEF_STEREO_COUNT>
0

> <PUBCHEM_ISOTOPIC_ATOM_COUNT>
0

> <PUBCHEM_COMPONENT_COUNT>
1

> <PUBCHEM_CACTVS_TAUTO_COUNT>
6

> <PUBCHEM_CONFORMER_ID>
0006B64100000002

> <PUBCHEM_MMFF94_ENERGY>
14.2455

> <PUBCHEM_FEATURE_SELFOVERLAP>
40.596

> <PUBCHEM_SHAPE_FINGERPRINT>
12423570 1 8862675649677424359
13024252 1 12679192552594534774
137420 1 16739516430754269513
16945 1 18188216394365528278
18185500 45 18266751370379791067
20653085 51 17969481857749486592
21040471 1 17971191675476637273
23552423 10 18337670939960930078
369184 2 16486980544463106028
5084963 1 18272379667439134542

> <PUBCHEM_SHAPE_MULTIPOLES>
176.45
3.05
1.56
0.92
1.79
0
0.04
-0.96
0.52
-0.38
-0.4
-0.28
0.25
-0.47

> <PUBCHEM_SHAPE_SELFOVERLAP>
358.122

> <PUBCHEM_SHAPE_VOLUME>
103.9

> <PUBCHEM_COORDINATE_TYPE>
2
5
10

$$$$

