11954116
  -OEChem-07051213062D

 63 66  0     1  0  0  0  0  0999 V2000
    3.8114   -2.6065    0.0000 S   0  0  0  0  0  0  0  0  0  0  0  0
    8.6500    2.7469    0.0000 O   0  0  0  0  0  0  0  0  0  0  0  0
    2.0000   -1.5607    0.0000 O   0  0  0  0  0  0  0  0  0  0  0  0
   10.2963    2.2088    0.0000 O   0  0  0  0  0  0  0  0  0  0  0  0
    2.0794   -2.6132    0.0000 O   0  0  0  0  0  0  0  0  0  0  0  0
    7.3931    0.4916    0.0000 C   0  0  2  0  0  0  0  0  0  0  0  0
    7.3931    1.4916    0.0000 C   0  0  2  0  0  0  0  0  0  0  0  0
    6.5271   -0.0084    0.0000 C   0  0  1  0  0  0  0  0  0  0  0  0
    5.6610    0.4916    0.0000 C   0  0  1  0  0  0  0  0  0  0  0  0
    4.7510   -0.0152    0.0000 C   0  0  2  0  0  0  0  0  0  0  0  0
    6.5271    1.9916    0.0000 C   0  0  0  0  0  0  0  0  0  0  0  0
    5.6610    1.4916    0.0000 C   0  0  0  0  0  0  0  0  0  0  0  0
    8.3393    1.7964    0.0000 C   0  0  2  0  0  0  0  0  0  0  0  0
    8.3393    0.1869    0.0000 C   0  0  0  0  0  0  0  0  0  0  0  0
    6.5431   -1.0499    0.0000 C   0  0  0  0  0  0  0  0  0  0  0  0
    8.9229    0.9916    0.0000 C   0  0  0  0  0  0  0  0  0  0  0  0
    4.7430   -1.0568    0.0000 C   0  0  0  0  0  0  0  0  0  0  0  0
    5.6451   -1.5776    0.0000 C   0  0  0  0  0  0  0  0  0  0  0  0
    7.3931    2.4916    0.0000 C   0  0  0  0  0  0  0  0  0  0  0  0
    3.8242    0.5489    0.0000 C   0  0  0  0  0  0  0  0  0  0  0  0
    4.7587    0.9848    0.0000 C   0  0  0  0  0  0  0  0  0  0  0  0
    2.8763    0.0209    0.0000 C   0  0  0  0  0  0  0  0  0  0  0  0
    3.8076   -1.6065    0.0000 C   0  0  0  0  0  0  0  0  0  0  0  0
    2.8680   -1.0640    0.0000 C   0  0  0  0  0  0  0  0  0  0  0  0
    9.6285    2.9531    0.0000 C   0  0  0  0  0  0  0  0  0  0  0  0
    9.9391    3.9036    0.0000 C   0  0  0  0  0  0  0  0  0  0  0  0
    2.9473   -3.1099    0.0000 C   0  0  0  0  0  0  0  0  0  0  0  0
   10.9176    4.1098    0.0000 C   0  0  0  0  0  0  0  0  0  0  0  0
    2.9512   -4.1098    0.0000 C   0  0  0  0  0  0  0  0  0  0  0  0
    7.4830   -0.3536    0.0000 H   0  0  0  0  0  0  0  0  0  0  0  0
    7.2664   -0.4277    0.0000 H   0  0  0  0  0  0  0  0  0  0  0  0
    6.3972    0.9166    0.0000 H   0  0  0  0  0  0  0  0  0  0  0  0
    6.9256    2.4666    0.0000 H   0  0  0  0  0  0  0  0  0  0  0  0
    6.1285    2.4666    0.0000 H   0  0  0  0  0  0  0  0  0  0  0  0
    5.4490    2.0742    0.0000 H   0  0  0  0  0  0  0  0  0  0  0  0
    5.0504    1.3840    0.0000 H   0  0  0  0  0  0  0  0  0  0  0  0
    7.9018    2.2357    0.0000 H   0  0  0  0  0  0  0  0  0  0  0  0
    8.0883   -0.3800    0.0000 H   0  0  0  0  0  0  0  0  0  0  0  0
    8.8767   -0.1223    0.0000 H   0  0  0  0  0  0  0  0  0  0  0  0
    6.7612   -1.6303    0.0000 H   0  0  0  0  0  0  0  0  0  0  0  0
    7.1523   -0.9344    0.0000 H   0  0  0  0  0  0  0  0  0  0  0  0
    9.3838    0.5769    0.0000 H   0  0  0  0  0  0  0  0  0  0  0  0
    9.3838    1.4064    0.0000 H   0  0  0  0  0  0  0  0  0  0  0  0
    5.2478   -2.0536    0.0000 H   0  0  0  0  0  0  0  0  0  0  0  0
    6.0460   -2.0505    0.0000 H   0  0  0  0  0  0  0  0  0  0  0  0
    8.0131    2.4916    0.0000 H   0  0  0  0  0  0  0  0  0  0  0  0
    7.3931    3.1116    0.0000 H   0  0  0  0  0  0  0  0  0  0  0  0
    6.7731    2.4916    0.0000 H   0  0  0  0  0  0  0  0  0  0  0  0
    4.2324    1.0155    0.0000 H   0  0  0  0  0  0  0  0  0  0  0  0
    3.4343    1.0309    0.0000 H   0  0  0  0  0  0  0  0  0  0  0  0
    5.3787    0.9800    0.0000 H   0  0  0  0  0  0  0  0  0  0  0  0
    4.7635    1.6047    0.0000 H   0  0  0  0  0  0  0  0  0  0  0  0
    4.1388    0.9895    0.0000 H   0  0  0  0  0  0  0  0  0  0  0  0
    2.6718    0.6062    0.0000 H   0  0  0  0  0  0  0  0  0  0  0  0
    2.2647   -0.0805    0.0000 H   0  0  0  0  0  0  0  0  0  0  0  0
    9.9186    4.5233    0.0000 H   0  0  0  0  0  0  0  0  0  0  0  0
    9.3253    3.9910    0.0000 H   0  0  0  0  0  0  0  0  0  0  0  0
   11.0455    3.5032    0.0000 H   0  0  0  0  0  0  0  0  0  0  0  0
   11.5243    4.2377    0.0000 H   0  0  0  0  0  0  0  0  0  0  0  0
   10.7898    4.7165    0.0000 H   0  0  0  0  0  0  0  0  0  0  0  0
    2.3312   -4.1122    0.0000 H   0  0  0  0  0  0  0  0  0  0  0  0
    2.9536   -4.7298    0.0000 H   0  0  0  0  0  0  0  0  0  0  0  0
    3.5712   -4.1075    0.0000 H   0  0  0  0  0  0  0  0  0  0  0  0
  1 23  1  0  0  0  0
  1 27  1  0  0  0  0
 13  2  1  1  0  0  0
  2 25  1  0  0  0  0
  3 24  2  0  0  0  0
  4 25  2  0  0  0  0
  5 27  2  0  0  0  0
  6  7  1  0  0  0  0
  6  8  1  0  0  0  0
  6 14  1  0  0  0  0
  6 30  1  6  0  0  0
  7 11  1  0  0  0  0
  7 13  1  0  0  0  0
  7 19  1  1  0  0  0
  8  9  1  0  0  0  0
  8 15  1  0  0  0  0
  8 31  1  1  0  0  0
  9 10  1  0  0  0  0
  9 12  1  0  0  0  0
  9 32  1  6  0  0  0
 10 17  1  0  0  0  0
 10 20  1  0  0  0  0
 10 21  1  1  0  0  0
 11 12  1  0  0  0  0
 11 33  1  0  0  0  0
 11 34  1  0  0  0  0
 12 35  1  0  0  0  0
 12 36  1  0  0  0  0
 13 16  1  0  0  0  0
 13 37  1  0  0  0  0
 14 16  1  0  0  0  0
 14 38  1  0  0  0  0
 14 39  1  0  0  0  0
 15 18  1  0  0  0  0
 15 40  1  0  0  0  0
 15 41  1  0  0  0  0
 16 42  1  0  0  0  0
 16 43  1  0  0  0  0
 17 18  1  0  0  0  0
 17 23  2  0  0  0  0
 18 44  1  0  0  0  0
 18 45  1  0  0  0  0
 19 46  1  0  0  0  0
 19 47  1  0  0  0  0
 19 48  1  0  0  0  0
 20 22  1  0  0  0  0
 20 49  1  0  0  0  0
 20 50  1  0  0  0  0
 21 51  1  0  0  0  0
 21 52  1  0  0  0  0
 21 53  1  0  0  0  0
 22 24  1  0  0  0  0
 22 54  1  0  0  0  0
 22 55  1  0  0  0  0
 23 24  1  0  0  0  0
 25 26  1  0  0  0  0
 26 28  1  0  0  0  0
 26 56  1  0  0  0  0
 26 57  1  0  0  0  0
 27 29  1  0  0  0  0
 28 58  1  0  0  0  0
 28 59  1  0  0  0  0
 28 60  1  0  0  0  0
 29 61  1  0  0  0  0
 29 62  1  0  0  0  0
 29 63  1  0  0  0  0
M  END
> <PUBCHEM_COMPOUND_CID>
11954116

> <PUBCHEM_COMPOUND_CANONICALIZED>
1

> <PUBCHEM_CACTVS_COMPLEXITY>
771

> <PUBCHEM_CACTVS_HBOND_ACCEPTOR>
5

> <PUBCHEM_CACTVS_HBOND_DONOR>
0

> <PUBCHEM_CACTVS_ROTATABLE_BOND>
5

> <PUBCHEM_CACTVS_SUBSKEYS>
AAADcfB4OABAAAAAAAAAAAAAAAAAAYAAAAAwYIAAAAAAAGDAAAAAGgQAAAAADxSgwAICCAAABAiIAoDQCAAAAAAgABAACAEAAEgAABIgAAACAAAEgAAoAQOIyPCPgAAAAAAAAACAAAQAACAAAIAADAAAAA==

> <PUBCHEM_IUPAC_OPENEYE_NAME>
[(8R,9S,10R,13S,14S,17S)-4-acetylsulfanyl-10,13-dimethyl-3-oxo-1,2,6,7,8,9,11,12,14,15,16,17-dodecahydrocyclopenta[a]phenanthren-17-yl] propanoate

> <PUBCHEM_IUPAC_CAS_NAME>
propanoic acid [(8R,9S,10R,13S,14S,17S)-4-(acetylthio)-10,13-dimethyl-3-oxo-1,2,6,7,8,9,11,12,14,15,16,17-dodecahydrocyclopenta[a]phenanthren-17-yl] ester

> <PUBCHEM_IUPAC_NAME>
[(8R,9S,10R,13S,14S,17S)-4-acetylsulfanyl-10,13-dimethyl-3-oxo-1,2,6,7,8,9,11,12,14,15,16,17-dodecahydrocyclopenta[a]phenanthren-17-yl] propanoate

> <PUBCHEM_IUPAC_SYSTEMATIC_NAME>
[(8R,9S,10R,13S,14S,17S)-4-ethanoylsulfanyl-10,13-dimethyl-3-oxidanylidene-1,2,6,7,8,9,11,12,14,15,16,17-dodecahydrocyclopenta[a]phenanthren-17-yl] propanoate

> <PUBCHEM_IUPAC_TRADITIONAL_NAME>
propionic acid [(8R,9S,10R,13S,14S,17S)-4-(acetylthio)-3-keto-10,13-dimethyl-1,2,6,7,8,9,11,12,14,15,16,17-dodecahydrocyclopenta[a]phenanthren-17-yl] ester

> <PUBCHEM_IUPAC_INCHI>
InChI=1S/C24H34O4S/c1-5-21(27)28-20-9-8-16-15-6-7-18-22(29-14(2)25)19(26)11-13-23(18,3)17(15)10-12-24(16,20)4/h15-17,20H,5-13H2,1-4H3/t15-,16-,17-,20-,23+,24-/m0/s1

> <PUBCHEM_IUPAC_INCHIKEY>
AJPSTLTYGUDWEO-FHSUWLEUSA-N

> <PUBCHEM_XLOGP3_AA>
4.9

> <PUBCHEM_EXACT_MASS>
418.217781

> <PUBCHEM_MOLECULAR_FORMULA>
C24H34O4S

> <PUBCHEM_MOLECULAR_WEIGHT>
418.58936

> <PUBCHEM_OPENEYE_CAN_SMILES>
CCC(=O)OC1CCC2C1(CCC3C2CCC4=C(C(=O)CCC34C)SC(=O)C)C

> <PUBCHEM_OPENEYE_ISO_SMILES>
CCC(=O)O[C@H]1CC[C@@H]2[C@@]1(CC[C@H]3[C@H]2CCC4=C(C(=O)CC[C@]34C)SC(=O)C)C

> <PUBCHEM_CACTVS_TPSA>
85.7

> <PUBCHEM_MONOISOTOPIC_WEIGHT>
418.217781

> <PUBCHEM_TOTAL_CHARGE>
0

> <PUBCHEM_HEAVY_ATOM_COUNT>
29

> <PUBCHEM_ATOM_DEF_STEREO_COUNT>
6

> <PUBCHEM_ATOM_UDEF_STEREO_COUNT>
0

> <PUBCHEM_BOND_DEF_STEREO_COUNT>
0

> <PUBCHEM_BOND_UDEF_STEREO_COUNT>
0

> <PUBCHEM_ISOTOPIC_ATOM_COUNT>
0

> <PUBCHEM_COMPONENT_COUNT>
1

> <PUBCHEM_CACTVS_TAUTO_COUNT>
5

> <PUBCHEM_COORDINATE_TYPE>
1
5
255

> <PUBCHEM_BONDANNOTATIONS>
10  21  5
13  2  5
6  30  6
7  19  5
8  31  5
9  32  6

$$$$

