18096
  -OEChem-07051213133D

 25 24  0     0  0  0  0  0  0999 V2000
    0.0023   -0.2525   -0.2804 S   0  0  0  0  0  0  0  0  0  0  0  0
   -1.2749    0.6537    0.1890 O   0  0  0  0  0  0  0  0  0  0  0  0
    1.2743    0.6622    0.1872 O   0  0  0  0  0  0  0  0  0  0  0  0
    0.0015   -0.3140   -1.7305 O   0  0  0  0  0  0  0  0  0  0  0  0
    0.0070   -1.4683    0.5124 O   0  0  0  0  0  0  0  0  0  0  0  0
   -2.5830    0.2355   -0.1706 C   0  0  0  0  0  0  0  0  0  0  0  0
    2.5845    0.2527   -0.1742 C   0  0  0  0  0  0  0  0  0  0  0  0
   -2.8484   -1.1411    0.4195 C   0  0  0  0  0  0  0  0  0  0  0  0
   -3.5900    1.2655    0.3180 C   0  0  0  0  0  0  0  0  0  0  0  0
    3.5905    1.2556    0.3699 C   0  0  0  0  0  0  0  0  0  0  0  0
    2.8363   -1.1492    0.3597 C   0  0  0  0  0  0  0  0  0  0  0  0
   -2.6525    0.1851   -1.2637 H   0  0  0  0  0  0  0  0  0  0  0  0
    2.6648    0.2483   -1.2677 H   0  0  0  0  0  0  0  0  0  0  0  0
   -3.9138   -1.3894    0.3589 H   0  0  0  0  0  0  0  0  0  0  0  0
   -2.3205   -1.9257   -0.1308 H   0  0  0  0  0  0  0  0  0  0  0  0
   -2.5434   -1.1958    1.4700 H   0  0  0  0  0  0  0  0  0  0  0  0
   -4.6113    0.9916    0.0366 H   0  0  0  0  0  0  0  0  0  0  0  0
   -3.3631    2.2503   -0.1043 H   0  0  0  0  0  0  0  0  0  0  0  0
   -3.5418    1.3719    1.4074 H   0  0  0  0  0  0  0  0  0  0  0  0
    4.6137    0.9887    0.0890 H   0  0  0  0  0  0  0  0  0  0  0  0
    3.3733    2.2588   -0.0125 H   0  0  0  0  0  0  0  0  0  0  0  0
    3.5298    1.3155    1.4622 H   0  0  0  0  0  0  0  0  0  0  0  0
    3.9007   -1.4008    0.2941 H   0  0  0  0  0  0  0  0  0  0  0  0
    2.3087   -1.9079   -0.2261 H   0  0  0  0  0  0  0  0  0  0  0  0
    2.5283   -1.2452    1.4063 H   0  0  0  0  0  0  0  0  0  0  0  0
  1  2  1  0  0  0  0
  1  3  1  0  0  0  0
  1  4  2  0  0  0  0
  1  5  2  0  0  0  0
  2  6  1  0  0  0  0
  3  7  1  0  0  0  0
  6  8  1  0  0  0  0
  6  9  1  0  0  0  0
  6 12  1  0  0  0  0
  7 10  1  0  0  0  0
  7 11  1  0  0  0  0
  7 13  1  0  0  0  0
  8 14  1  0  0  0  0
  8 15  1  0  0  0  0
  8 16  1  0  0  0  0
  9 17  1  0  0  0  0
  9 18  1  0  0  0  0
  9 19  1  0  0  0  0
 10 20  1  0  0  0  0
 10 21  1  0  0  0  0
 10 22  1  0  0  0  0
 11 23  1  0  0  0  0
 11 24  1  0  0  0  0
 11 25  1  0  0  0  0
M  END
> <PUBCHEM_COMPOUND_CID>
18096

> <PUBCHEM_CONFORMER_RMSD>
0.6

> <PUBCHEM_CONFORMER_DIVERSEORDER>
1
19
11
10
16
14
6
20
21
8
3
4
5
2
12
15
18
17
13
9
7

> <PUBCHEM_MMFF94_PARTIAL_CHARGES>
7
1 1.67
2 -0.46
3 -0.46
4 -0.65
5 -0.65
6 0.28
7 0.28

> <PUBCHEM_EFFECTIVE_ROTOR_COUNT>
4

> <PUBCHEM_PHARMACOPHORE_FEATURES>
4
1 4 acceptor
1 5 acceptor
3 6 8 9 hydrophobe
3 7 10 11 hydrophobe

> <PUBCHEM_HEAVY_ATOM_COUNT>
11

> <PUBCHEM_ATOM_DEF_STEREO_COUNT>
0

> <PUBCHEM_ATOM_UDEF_STEREO_COUNT>
0

> <PUBCHEM_BOND_DEF_STEREO_COUNT>
0

> <PUBCHEM_BOND_UDEF_STEREO_COUNT>
0

> <PUBCHEM_ISOTOPIC_ATOM_COUNT>
0

> <PUBCHEM_COMPONENT_COUNT>
1

> <PUBCHEM_CACTVS_TAUTO_COUNT>
1

> <PUBCHEM_CONFORMER_ID>
000046B000000001

> <PUBCHEM_MMFF94_ENERGY>
10.6065

> <PUBCHEM_FEATURE_SELFOVERLAP>
20.315

> <PUBCHEM_SHAPE_FINGERPRINT>
10219947 1 17060334141204278567
12932764 1 18410848867369232231
14325111 11 18411699880773908560
14993402 34 16916780747577704238
15775835 57 18260548917802690896
17834069 15 18342458170479980781
18186145 218 18411134766341709828
20711983 171 18334857220711330021
20711985 327 16343704296506911068
3248919 1 17346312661581175090
449060 50 18201435831609804020

> <PUBCHEM_SHAPE_MULTIPOLES>
206.75
6.32
1.41
0.9
0.02
0.1
-0.34
-1.82
1.22
0
0.27
0
0.1
0.04

> <PUBCHEM_SHAPE_SELFOVERLAP>
372.313

> <PUBCHEM_SHAPE_VOLUME>
134.8

> <PUBCHEM_COORDINATE_TYPE>
2
5
10

$$$$

