442727
  -OEChem-07051212593D

 73 77  0     1  0  0  0  0  0999 V2000
    3.5407   -1.4977   -1.0256 O   0  0  0  0  0  0  0  0  0  0  0  0
    2.6647    0.6934    1.7934 O   0  0  0  0  0  0  0  0  0  0  0  0
    3.7722   -1.6185    3.0782 O   0  0  0  0  0  0  0  0  0  0  0  0
    5.8577   -2.8318    1.4973 O   0  0  0  0  0  0  0  0  0  0  0  0
   -2.3532   -1.2600    0.9441 O   0  0  0  0  0  0  0  0  0  0  0  0
   -3.7273   -0.2140   -0.6248 O   0  0  0  0  0  0  0  0  0  0  0  0
    5.2170   -2.8384   -2.7296 O   0  0  0  0  0  0  0  0  0  0  0  0
   -4.6531   -2.1497    2.3324 O   0  0  0  0  0  0  0  0  0  0  0  0
   -6.9532   -0.3570    1.9129 O   0  0  0  0  0  0  0  0  0  0  0  0
   -7.3635    0.1197   -0.9085 O   0  0  0  0  0  0  0  0  0  0  0  0
   -1.1174    0.9032    1.6339 O   0  0  0  0  0  0  0  0  0  0  0  0
   -0.7255    3.4586    1.6363 O   0  0  0  0  0  0  0  0  0  0  0  0
   -3.8743    0.5282   -3.2675 O   0  0  0  0  0  0  0  0  0  0  0  0
    4.1220    5.2779   -0.0295 O   0  0  0  0  0  0  0  0  0  0  0  0
    3.1697   -0.2798   -0.3744 C   0  0  1  0  0  0  0  0  0  0  0  0
    1.9291    0.2514   -1.0859 C   0  0  1  0  0  0  0  0  0  0  0  0
    2.9187   -0.5343    1.1158 C   0  0  1  0  0  0  0  0  0  0  0  0
    4.1371   -1.1922    1.7640 C   0  0  2  0  0  0  0  0  0  0  0  0
    4.6106   -2.4026    0.9578 C   0  0  1  0  0  0  0  0  0  0  0  0
    4.7644   -2.0409   -0.5231 C   0  0  1  0  0  0  0  0  0  0  0  0
    0.7872   -0.7329   -0.9351 C   0  0  0  0  0  0  0  0  0  0  0  0
    1.6067    1.6453   -0.5874 C   0  0  0  0  0  0  0  0  0  0  0  0
   -0.2757   -0.4987   -0.0538 C   0  0  0  0  0  0  0  0  0  0  0  0
    0.5460    1.8851    0.2952 C   0  0  0  0  0  0  0  0  0  0  0  0
    5.1037   -3.2557   -1.3810 C   0  0  0  0  0  0  0  0  0  0  0  0
   -0.3462    0.7755    0.6917 C   0  0  0  0  0  0  0  0  0  0  0  0
    2.4091    2.7285   -0.9822 C   0  0  0  0  0  0  0  0  0  0  0  0
    0.8030   -1.9340   -1.6635 C   0  0  0  0  0  0  0  0  0  0  0  0
   -1.2919   -1.4486    0.1094 C   0  0  0  0  0  0  0  0  0  0  0  0
   -3.6509   -1.2514    0.3500 C   0  0  2  0  0  0  0  0  0  0  0  0
   -4.6755   -1.0198    1.4606 C   0  0  1  0  0  0  0  0  0  0  0  0
   -6.0836   -0.8465    0.8908 C   0  0  2  0  0  0  0  0  0  0  0  0
   -6.0946    0.1589   -0.2608 C   0  0  1  0  0  0  0  0  0  0  0  0
   -4.9976   -0.1673   -1.2770 C   0  0  1  0  0  0  0  0  0  0  0  0
    0.3016    3.1738    0.7862 C   0  0  0  0  0  0  0  0  0  0  0  0
    2.1627    4.0141   -0.4992 C   0  0  0  0  0  0  0  0  0  0  0  0
   -0.2118   -2.8786   -1.5065 C   0  0  0  0  0  0  0  0  0  0  0  0
   -1.2560   -2.6374   -0.6179 C   0  0  0  0  0  0  0  0  0  0  0  0
    1.1121    4.2353    0.3871 C   0  0  0  0  0  0  0  0  0  0  0  0
   -4.9125    0.8887   -2.3747 C   0  0  0  0  0  0  0  0  0  0  0  0
    3.0279    5.1502   -0.9294 C   0  0  0  0  0  0  0  0  0  0  0  0
    3.9917    0.4395   -0.4949 H   0  0  0  0  0  0  0  0  0  0  0  0
    2.1260    0.3301   -2.1652 H   0  0  0  0  0  0  0  0  0  0  0  0
    2.0612   -1.1952    1.2821 H   0  0  0  0  0  0  0  0  0  0  0  0
    4.9527   -0.4684    1.8873 H   0  0  0  0  0  0  0  0  0  0  0  0
    3.8967   -3.2257    1.0830 H   0  0  0  0  0  0  0  0  0  0  0  0
    5.5589   -1.2955   -0.6639 H   0  0  0  0  0  0  0  0  0  0  0  0
    4.3153   -4.0140   -1.3308 H   0  0  0  0  0  0  0  0  0  0  0  0
    6.0510   -3.7109   -1.0783 H   0  0  0  0  0  0  0  0  0  0  0  0
    3.2379    2.5601   -1.6671 H   0  0  0  0  0  0  0  0  0  0  0  0
    1.5928   -2.1420   -2.3806 H   0  0  0  0  0  0  0  0  0  0  0  0
   -3.8459   -2.2234   -0.1213 H   0  0  0  0  0  0  0  0  0  0  0  0
   -4.4003   -0.1448    2.0626 H   0  0  0  0  0  0  0  0  0  0  0  0
    2.3611    0.4795    2.6915 H   0  0  0  0  0  0  0  0  0  0  0  0
   -6.4972   -1.8104    0.5718 H   0  0  0  0  0  0  0  0  0  0  0  0
   -5.9544    1.1742    0.1316 H   0  0  0  0  0  0  0  0  0  0  0  0
   -5.1820   -1.1392   -1.7549 H   0  0  0  0  0  0  0  0  0  0  0  0
    3.6081   -0.8231    3.6120 H   0  0  0  0  0  0  0  0  0  0  0  0
    6.5067   -2.1215    1.3563 H   0  0  0  0  0  0  0  0  0  0  0  0
   -0.1851   -3.8029   -2.0761 H   0  0  0  0  0  0  0  0  0  0  0  0
   -2.0210   -3.3990   -0.4972 H   0  0  0  0  0  0  0  0  0  0  0  0
    0.9175    5.2355    0.7671 H   0  0  0  0  0  0  0  0  0  0  0  0
   -5.8452    0.9603   -2.9414 H   0  0  0  0  0  0  0  0  0  0  0  0
   -4.6720    1.8750   -1.9641 H   0  0  0  0  0  0  0  0  0  0  0  0
    4.3703   -2.4331   -2.9839 H   0  0  0  0  0  0  0  0  0  0  0  0
    2.4731    6.0943   -0.9394 H   0  0  0  0  0  0  0  0  0  0  0  0
    3.4201    4.9953   -1.9404 H   0  0  0  0  0  0  0  0  0  0  0  0
   -3.7436   -2.2435    2.6640 H   0  0  0  0  0  0  0  0  0  0  0  0
   -6.6029    0.4943    2.2260 H   0  0  0  0  0  0  0  0  0  0  0  0
   -8.0395    0.3085   -0.2353 H   0  0  0  0  0  0  0  0  0  0  0  0
   -1.2819    2.6769    1.7732 H   0  0  0  0  0  0  0  0  0  0  0  0
   -3.0524    0.4613   -2.7517 H   0  0  0  0  0  0  0  0  0  0  0  0
    4.5263    4.4010    0.0857 H   0  0  0  0  0  0  0  0  0  0  0  0
  1 15  1  0  0  0  0
  1 20  1  0  0  0  0
  2 17  1  0  0  0  0
  2 54  1  0  0  0  0
  3 18  1  0  0  0  0
  3 58  1  0  0  0  0
  4 19  1  0  0  0  0
  4 59  1  0  0  0  0
  5 29  1  0  0  0  0
  5 30  1  0  0  0  0
  6 30  1  0  0  0  0
  6 34  1  0  0  0  0
  7 25  1  0  0  0  0
  7 65  1  0  0  0  0
  8 31  1  0  0  0  0
  8 68  1  0  0  0  0
  9 32  1  0  0  0  0
  9 69  1  0  0  0  0
 10 33  1  0  0  0  0
 10 70  1  0  0  0  0
 11 26  2  0  0  0  0
 12 35  1  0  0  0  0
 12 71  1  0  0  0  0
 13 40  1  0  0  0  0
 13 72  1  0  0  0  0
 14 41  1  0  0  0  0
 14 73  1  0  0  0  0
 15 16  1  0  0  0  0
 15 17  1  0  0  0  0
 15 42  1  0  0  0  0
 16 21  1  0  0  0  0
 16 22  1  0  0  0  0
 16 43  1  0  0  0  0
 17 18  1  0  0  0  0
 17 44  1  0  0  0  0
 18 19  1  0  0  0  0
 18 45  1  0  0  0  0
 19 20  1  0  0  0  0
 19 46  1  0  0  0  0
 20 25  1  0  0  0  0
 20 47  1  0  0  0  0
 21 23  2  0  0  0  0
 21 28  1  0  0  0  0
 22 24  2  0  0  0  0
 22 27  1  0  0  0  0
 23 26  1  0  0  0  0
 23 29  1  0  0  0  0
 24 26  1  0  0  0  0
 24 35  1  0  0  0  0
 25 48  1  0  0  0  0
 25 49  1  0  0  0  0
 27 36  2  0  0  0  0
 27 50  1  0  0  0  0
 28 37  2  0  0  0  0
 28 51  1  0  0  0  0
 29 38  2  0  0  0  0
 30 31  1  0  0  0  0
 30 52  1  0  0  0  0
 31 32  1  0  0  0  0
 31 53  1  0  0  0  0
 32 33  1  0  0  0  0
 32 55  1  0  0  0  0
 33 34  1  0  0  0  0
 33 56  1  0  0  0  0
 34 40  1  0  0  0  0
 34 57  1  0  0  0  0
 35 39  2  0  0  0  0
 36 39  1  0  0  0  0
 36 41  1  0  0  0  0
 37 38  1  0  0  0  0
 37 60  1  0  0  0  0
 38 61  1  0  0  0  0
 39 62  1  0  0  0  0
 40 63  1  0  0  0  0
 40 64  1  0  0  0  0
 41 66  1  0  0  0  0
 41 67  1  0  0  0  0
M  END
> <PUBCHEM_COMPOUND_CID>
442727

> <PUBCHEM_CONFORMER_RMSD>
1

> <PUBCHEM_CONFORMER_DIVERSEORDER>
1
31
40
24
16
13
19
2
26
36
39
9
23
37
43
35
27
15
46
30
25
17
44
8
3
45
21
28
42
4
38
18
10
14
29
33
41
12
7
32
11
5
20
34
6
22

> <PUBCHEM_MMFF94_PARTIAL_CHARGES>
56
1 -0.56
10 -0.68
11 -0.57
12 -0.53
13 -0.68
14 -0.68
15 0.28
16 0.29
17 0.28
18 0.28
19 0.28
2 -0.68
20 0.28
21 -0.14
22 -0.14
23 0.09
24 0.09
25 0.28
26 0.4
27 -0.15
28 -0.15
29 0.08
3 -0.68
30 0.56
31 0.28
32 0.28
33 0.28
34 0.28
35 0.08
36 -0.14
37 -0.15
38 -0.15
39 -0.15
4 -0.68
40 0.28
41 0.42
5 -0.36
50 0.15
51 0.15
54 0.4
58 0.4
59 0.4
6 -0.56
60 0.15
61 0.15
62 0.15
65 0.4
68 0.4
69 0.4
7 -0.68
70 0.4
71 0.45
72 0.4
73 0.4
8 -0.68
9 -0.68

> <PUBCHEM_EFFECTIVE_ROTOR_COUNT>
8.6

> <PUBCHEM_PHARMACOPHORE_FEATURES>
28
1 1 acceptor
1 10 acceptor
1 10 donor
1 11 acceptor
1 12 donor
1 13 acceptor
1 13 donor
1 14 acceptor
1 14 donor
1 2 acceptor
1 2 donor
1 3 acceptor
1 3 donor
1 4 acceptor
1 4 donor
1 5 acceptor
1 6 acceptor
1 7 acceptor
1 7 donor
1 8 acceptor
1 8 donor
1 9 acceptor
1 9 donor
6 1 15 17 18 19 20 rings
6 16 21 22 23 24 26 rings
6 21 23 28 29 37 38 rings
6 22 24 27 35 36 39 rings
6 6 30 31 32 33 34 rings

> <PUBCHEM_HEAVY_ATOM_COUNT>
41

> <PUBCHEM_ATOM_DEF_STEREO_COUNT>
11

> <PUBCHEM_ATOM_UDEF_STEREO_COUNT>
0

> <PUBCHEM_BOND_DEF_STEREO_COUNT>
0

> <PUBCHEM_BOND_UDEF_STEREO_COUNT>
0

> <PUBCHEM_ISOTOPIC_ATOM_COUNT>
0

> <PUBCHEM_COMPONENT_COUNT>
1

> <PUBCHEM_CACTVS_TAUTO_COUNT>
22

> <PUBCHEM_CONFORMER_ID>
0006C16700000001

> <PUBCHEM_MMFF94_ENERGY>
141.3015

> <PUBCHEM_FEATURE_SELFOVERLAP>
142.218

> <PUBCHEM_SHAPE_FINGERPRINT>
10369192 42 17554605089367415341
10675989 125 18120925119185189508
10930396 42 17976299925665449594
11007060 377 12247092235606357511
11135926 11 18192148200924069188
11331351 85 17823135790408501472
11456790 92 18201430446427723209
11578080 2 18058450893994924253
12128747 34 17632865222028903835
12166972 35 18260546740612922595
12422481 6 17458626778168712959
12788726 201 18200023092655294738
13004483 165 18338814402442492914
13583140 156 18059019376140457547
13617811 41 18336540616834060350
13757389 114 17542760446286832500
13782708 43 18201149954893534819
14004853 49 17762353413711069232
140371 6 18262506091687402759
14068700 675 18041278880358556780
14955137 171 18410287029918478875
15198563 99 18121487214613459220
17349148 13 18040433295977327923
21033648 29 17823433736574295322
21133665 82 17834385724094326364
21927370 108 18266463290434339164
23559900 14 18337100198757647998
376196 1 17030773522232350740
392239 28 16805615814173346322
394071 54 18335144163798496402
4058900 60 17767127497508838556
460360 51 18192164698109419159
5252454 2 17977382729517073797
6086070 43 18198085675799765695
613672 6 18337677519930143518

> <PUBCHEM_SHAPE_MULTIPOLES>
761.59
13.86
5.51
2.35
18.79
8.07
0.08
-7.95
-0.69
-10.11
0.79
0.44
-1.12
0.85

> <PUBCHEM_SHAPE_SELFOVERLAP>
1663.719

> <PUBCHEM_SHAPE_VOLUME>
405

> <PUBCHEM_COORDINATE_TYPE>
2
5
10

$$$$

