11954189
  -OEChem-07051213072D

 55 55  0     0  0  0  0  0  0999 V2000
    2.5369   -2.0000    0.0000 O   0  0  0  0  0  0  0  0  0  0  0  0
    2.5369   -4.0000    0.0000 O   0  0  0  0  0  0  0  0  0  0  0  0
    4.2690   -5.0000    0.0000 O   0  0  0  0  0  0  0  0  0  0  0  0
    6.0010   -4.0000    0.0000 O   0  0  0  0  0  0  0  0  0  0  0  0
    6.0010    1.0000    0.0000 C   0  0  0  0  0  0  0  0  0  0  0  0
    6.0010    2.0000    0.0000 C   0  0  0  0  0  0  0  0  0  0  0  0
    5.1350    0.5000    0.0000 C   0  0  0  0  0  0  0  0  0  0  0  0
    6.8671    2.5000    0.0000 C   0  0  0  0  0  0  0  0  0  0  0  0
    5.1350   -0.5000    0.0000 C   0  0  0  0  0  0  0  0  0  0  0  0
    6.8671    3.5000    0.0000 C   0  0  0  0  0  0  0  0  0  0  0  0
    4.2690   -1.0000    0.0000 C   0  0  0  0  0  0  0  0  0  0  0  0
    7.7331    4.0000    0.0000 C   0  0  0  0  0  0  0  0  0  0  0  0
    4.2690   -2.0000    0.0000 C   0  0  0  0  0  0  0  0  0  0  0  0
    7.7331    5.0000    0.0000 C   0  0  0  0  0  0  0  0  0  0  0  0
    5.1350   -2.5000    0.0000 C   0  0  0  0  0  0  0  0  0  0  0  0
    3.4030   -2.5000    0.0000 C   0  0  0  0  0  0  0  0  0  0  0  0
    5.1350   -3.5000    0.0000 C   0  0  0  0  0  0  0  0  0  0  0  0
    3.4030   -3.5000    0.0000 C   0  0  0  0  0  0  0  0  0  0  0  0
    8.5991    5.5000    0.0000 C   0  0  0  0  0  0  0  0  0  0  0  0
    4.2690   -4.0000    0.0000 C   0  0  0  0  0  0  0  0  0  0  0  0
    6.0010   -2.0000    0.0000 C   0  0  0  0  0  0  0  0  0  0  0  0
    2.5369   -5.0000    0.0000 C   0  0  0  0  0  0  0  0  0  0  0  0
    5.1350   -5.5000    0.0000 C   0  0  0  0  0  0  0  0  0  0  0  0
    6.2131    0.4174    0.0000 H   0  0  0  0  0  0  0  0  0  0  0  0
    6.6116    1.1077    0.0000 H   0  0  0  0  0  0  0  0  0  0  0  0
    5.7890    2.5826    0.0000 H   0  0  0  0  0  0  0  0  0  0  0  0
    5.3905    1.8923    0.0000 H   0  0  0  0  0  0  0  0  0  0  0  0
    4.9230    1.0826    0.0000 H   0  0  0  0  0  0  0  0  0  0  0  0
    4.5244    0.3923    0.0000 H   0  0  0  0  0  0  0  0  0  0  0  0
    7.0791    1.9174    0.0000 H   0  0  0  0  0  0  0  0  0  0  0  0
    7.4776    2.6077    0.0000 H   0  0  0  0  0  0  0  0  0  0  0  0
    5.3471   -1.0826    0.0000 H   0  0  0  0  0  0  0  0  0  0  0  0
    5.7456   -0.3923    0.0000 H   0  0  0  0  0  0  0  0  0  0  0  0
    6.6550    4.0826    0.0000 H   0  0  0  0  0  0  0  0  0  0  0  0
    6.2565    3.3923    0.0000 H   0  0  0  0  0  0  0  0  0  0  0  0
    4.0569   -0.4174    0.0000 H   0  0  0  0  0  0  0  0  0  0  0  0
    3.6584   -1.1077    0.0000 H   0  0  0  0  0  0  0  0  0  0  0  0
    7.9451    3.4174    0.0000 H   0  0  0  0  0  0  0  0  0  0  0  0
    8.3437    4.1077    0.0000 H   0  0  0  0  0  0  0  0  0  0  0  0
    7.5210    5.5826    0.0000 H   0  0  0  0  0  0  0  0  0  0  0  0
    7.1225    4.8923    0.0000 H   0  0  0  0  0  0  0  0  0  0  0  0
    8.9091    4.9631    0.0000 H   0  0  0  0  0  0  0  0  0  0  0  0
    9.1360    5.8100    0.0000 H   0  0  0  0  0  0  0  0  0  0  0  0
    8.2891    6.0369    0.0000 H   0  0  0  0  0  0  0  0  0  0  0  0
    6.3110   -2.5369    0.0000 H   0  0  0  0  0  0  0  0  0  0  0  0
    6.5380   -1.6900    0.0000 H   0  0  0  0  0  0  0  0  0  0  0  0
    5.6910   -1.4631    0.0000 H   0  0  0  0  0  0  0  0  0  0  0  0
    2.0000   -2.3100    0.0000 H   0  0  0  0  0  0  0  0  0  0  0  0
    6.5380   -3.6900    0.0000 H   0  0  0  0  0  0  0  0  0  0  0  0
    1.9169   -5.0000    0.0000 H   0  0  0  0  0  0  0  0  0  0  0  0
    2.5369   -5.6200    0.0000 H   0  0  0  0  0  0  0  0  0  0  0  0
    3.1569   -5.0000    0.0000 H   0  0  0  0  0  0  0  0  0  0  0  0
    4.8250   -6.0369    0.0000 H   0  0  0  0  0  0  0  0  0  0  0  0
    5.6720   -5.8100    0.0000 H   0  0  0  0  0  0  0  0  0  0  0  0
    5.4450   -4.9631    0.0000 H   0  0  0  0  0  0  0  0  0  0  0  0
  1 16  1  0  0  0  0
  1 48  1  0  0  0  0
  2 18  1  0  0  0  0
  2 22  1  0  0  0  0
  3 20  1  0  0  0  0
  3 23  1  0  0  0  0
  4 17  1  0  0  0  0
  4 49  1  0  0  0  0
  5  6  1  0  0  0  0
  5  7  1  0  0  0  0
  5 24  1  0  0  0  0
  5 25  1  0  0  0  0
  6  8  1  0  0  0  0
  6 26  1  0  0  0  0
  6 27  1  0  0  0  0
  7  9  1  0  0  0  0
  7 28  1  0  0  0  0
  7 29  1  0  0  0  0
  8 10  1  0  0  0  0
  8 30  1  0  0  0  0
  8 31  1  0  0  0  0
  9 11  1  0  0  0  0
  9 32  1  0  0  0  0
  9 33  1  0  0  0  0
 10 12  1  0  0  0  0
 10 34  1  0  0  0  0
 10 35  1  0  0  0  0
 11 13  1  0  0  0  0
 11 36  1  0  0  0  0
 11 37  1  0  0  0  0
 12 14  1  0  0  0  0
 12 38  1  0  0  0  0
 12 39  1  0  0  0  0
 13 15  2  0  0  0  0
 13 16  1  0  0  0  0
 14 19  1  0  0  0  0
 14 40  1  0  0  0  0
 14 41  1  0  0  0  0
 15 17  1  0  0  0  0
 15 21  1  0  0  0  0
 16 18  2  0  0  0  0
 17 20  2  0  0  0  0
 18 20  1  0  0  0  0
 19 42  1  0  0  0  0
 19 43  1  0  0  0  0
 19 44  1  0  0  0  0
 21 45  1  0  0  0  0
 21 46  1  0  0  0  0
 21 47  1  0  0  0  0
 22 50  1  0  0  0  0
 22 51  1  0  0  0  0
 22 52  1  0  0  0  0
 23 53  1  0  0  0  0
 23 54  1  0  0  0  0
 23 55  1  0  0  0  0
M  END
> <PUBCHEM_COMPOUND_CID>
11954189

> <PUBCHEM_COMPOUND_CANONICALIZED>
1

> <PUBCHEM_CACTVS_COMPLEXITY>
297

> <PUBCHEM_CACTVS_HBOND_ACCEPTOR>
4

> <PUBCHEM_CACTVS_HBOND_DONOR>
2

> <PUBCHEM_CACTVS_ROTATABLE_BOND>
11

> <PUBCHEM_CACTVS_SUBSKEYS>
AAADcfB4OAAAAAAAAAAAAAAAAAAAAAAAAAAwAAAAAAAAAAABAAAAGgAACAAADASAmAICBoAABgCAAgBAAAACCAAgIAAAiAAEiIgNJyKGMBqAcCMlwBULuAfA4PwOoQABCAAYQABCAAIQADCAAAAAAAAAAA==

> <PUBCHEM_IUPAC_OPENEYE_NAME>
2-decyl-5,6-dimethoxy-3-methyl-benzene-1,4-diol

> <PUBCHEM_IUPAC_CAS_NAME>
2-decyl-5,6-dimethoxy-3-methylbenzene-1,4-diol

> <PUBCHEM_IUPAC_NAME>
2-decyl-5,6-dimethoxy-3-methylbenzene-1,4-diol

> <PUBCHEM_IUPAC_SYSTEMATIC_NAME>
2-decyl-5,6-dimethoxy-3-methyl-benzene-1,4-diol

> <PUBCHEM_IUPAC_TRADITIONAL_NAME>
2-decyl-5,6-dimethoxy-3-methyl-hydroquinone

> <PUBCHEM_IUPAC_INCHI>
InChI=1S/C19H32O4/c1-5-6-7-8-9-10-11-12-13-15-14(2)16(20)18(22-3)19(23-4)17(15)21/h20-21H,5-13H2,1-4H3

> <PUBCHEM_IUPAC_INCHIKEY>
FZPHMACGWIAGFA-UHFFFAOYSA-N

> <PUBCHEM_XLOGP3>
6.4

> <PUBCHEM_EXACT_MASS>
324.23006

> <PUBCHEM_MOLECULAR_FORMULA>
C19H32O4

> <PUBCHEM_MOLECULAR_WEIGHT>
324.45498

> <PUBCHEM_OPENEYE_CAN_SMILES>
CCCCCCCCCCC1=C(C(=C(C(=C1O)OC)OC)O)C

> <PUBCHEM_OPENEYE_ISO_SMILES>
CCCCCCCCCCC1=C(C(=C(C(=C1O)OC)OC)O)C

> <PUBCHEM_CACTVS_TPSA>
58.9

> <PUBCHEM_MONOISOTOPIC_WEIGHT>
324.23006

> <PUBCHEM_TOTAL_CHARGE>
0

> <PUBCHEM_HEAVY_ATOM_COUNT>
23

> <PUBCHEM_ATOM_DEF_STEREO_COUNT>
0

> <PUBCHEM_ATOM_UDEF_STEREO_COUNT>
0

> <PUBCHEM_BOND_DEF_STEREO_COUNT>
0

> <PUBCHEM_BOND_UDEF_STEREO_COUNT>
0

> <PUBCHEM_ISOTOPIC_ATOM_COUNT>
0

> <PUBCHEM_COMPONENT_COUNT>
1

> <PUBCHEM_CACTVS_TAUTO_COUNT>
28

> <PUBCHEM_COORDINATE_TYPE>
1
5
255

> <PUBCHEM_BONDANNOTATIONS>
13  15  8
13  16  8
15  17  8
16  18  8
17  20  8
18  20  8

$$$$

