10089
  -OEChem-06261204183D

 55 57  0     1  0  0  0  0  0999 V2000
   -5.6008   -0.3573    1.2535 O   0  0  0  0  0  0  0  0  0  0  0  0
    1.3873    0.2547   -2.6011 O   0  0  0  0  0  0  0  0  0  0  0  0
   -3.0314   -0.5610    0.0459 N   0  0  0  0  0  0  0  0  0  0  0  0
    0.8712   -0.0850   -0.2177 C   0  0  0  0  0  0  0  0  0  0  0  0
   -1.7896    0.0170   -0.4637 C   0  0  1  0  0  0  0  0  0  0  0  0
   -0.5514   -0.5412    0.2842 C   0  0  0  0  0  0  0  0  0  0  0  0
   -3.1866   -0.2821    1.4803 C   0  0  0  0  0  0  0  0  0  0  0  0
   -4.1903   -0.0446   -0.6957 C   0  0  0  0  0  0  0  0  0  0  0  0
    0.9621    1.4544   -0.0174 C   0  0  0  0  0  0  0  0  0  0  0  0
    2.0316   -0.7889    0.5562 C   0  0  0  0  0  0  0  0  0  0  0  0
    1.0843   -0.5431   -1.7096 C   0  0  0  0  0  0  0  0  0  0  0  0
   -1.6925   -0.2945   -1.9600 C   0  0  0  0  0  0  0  0  0  0  0  0
   -4.4942   -0.8846    1.9861 C   0  0  0  0  0  0  0  0  0  0  0  0
   -5.4746   -0.6516   -0.1382 C   0  0  0  0  0  0  0  0  0  0  0  0
    1.0330   -2.0401   -2.0150 C   0  0  0  0  0  0  0  0  0  0  0  0
    1.4951    1.9110    1.1524 C   0  0  0  0  0  0  0  0  0  0  0  0
    3.3057   -0.4594    0.2100 C   0  0  0  0  0  0  0  0  0  0  0  0
    0.5038    2.2529   -1.0242 C   0  0  0  0  0  0  0  0  0  0  0  0
    1.6883   -1.6825    1.5236 C   0  0  0  0  0  0  0  0  0  0  0  0
    1.2461   -2.3415   -3.4897 C   0  0  0  0  0  0  0  0  0  0  0  0
    1.5769    3.2919    1.3321 C   0  0  0  0  0  0  0  0  0  0  0  0
    4.3419   -1.0876    0.9010 C   0  0  0  0  0  0  0  0  0  0  0  0
    0.5858    3.6337   -0.8445 C   0  0  0  0  0  0  0  0  0  0  0  0
    2.7245   -2.3105    2.2145 C   0  0  0  0  0  0  0  0  0  0  0  0
    1.1224    4.1531    0.3337 C   0  0  0  0  0  0  0  0  0  0  0  0
    4.0513   -2.0130    1.9032 C   0  0  0  0  0  0  0  0  0  0  0  0
   -1.8275    1.1054   -0.3372 H   0  0  0  0  0  0  0  0  0  0  0  0
   -0.6171   -0.2411    1.3368 H   0  0  0  0  0  0  0  0  0  0  0  0
   -0.6328   -1.6354    0.2451 H   0  0  0  0  0  0  0  0  0  0  0  0
   -3.1830    0.7995    1.6667 H   0  0  0  0  0  0  0  0  0  0  0  0
   -2.3978   -0.7434    2.0802 H   0  0  0  0  0  0  0  0  0  0  0  0
   -4.2398    1.0497   -0.6290 H   0  0  0  0  0  0  0  0  0  0  0  0
   -4.1923   -0.3373   -1.7476 H   0  0  0  0  0  0  0  0  0  0  0  0
   -1.7115   -1.3686   -2.1644 H   0  0  0  0  0  0  0  0  0  0  0  0
   -2.5230    0.1432   -2.5225 H   0  0  0  0  0  0  0  0  0  0  0  0
   -0.8767    0.1741   -2.4855 H   0  0  0  0  0  0  0  0  0  0  0  0
   -4.4928   -1.9789    1.9096 H   0  0  0  0  0  0  0  0  0  0  0  0
   -4.6410   -0.6269    3.0400 H   0  0  0  0  0  0  0  0  0  0  0  0
   -6.3433   -0.2220   -0.6478 H   0  0  0  0  0  0  0  0  0  0  0  0
   -5.5076   -1.7382   -0.2862 H   0  0  0  0  0  0  0  0  0  0  0  0
    0.0814   -2.4653   -1.6944 H   0  0  0  0  0  0  0  0  0  0  0  0
    1.8274   -2.5421   -1.4549 H   0  0  0  0  0  0  0  0  0  0  0  0
    1.8193    1.2795    1.9709 H   0  0  0  0  0  0  0  0  0  0  0  0
    3.5460    0.2554   -0.5696 H   0  0  0  0  0  0  0  0  0  0  0  0
    0.0359    1.9234   -1.9374 H   0  0  0  0  0  0  0  0  0  0  0  0
    0.6845   -1.9507    1.8202 H   0  0  0  0  0  0  0  0  0  0  0  0
    2.2205   -1.9764   -3.8308 H   0  0  0  0  0  0  0  0  0  0  0  0
    1.2064   -3.4207   -3.6671 H   0  0  0  0  0  0  0  0  0  0  0  0
    0.4739   -1.8654   -4.1029 H   0  0  0  0  0  0  0  0  0  0  0  0
    1.9848    3.6969    2.2537 H   0  0  0  0  0  0  0  0  0  0  0  0
    5.3750   -0.8566    0.6582 H   0  0  0  0  0  0  0  0  0  0  0  0
    0.2216    4.3056   -1.6165 H   0  0  0  0  0  0  0  0  0  0  0  0
    2.4995   -3.0298    2.9967 H   0  0  0  0  0  0  0  0  0  0  0  0
    1.1816    5.2283    0.4756 H   0  0  0  0  0  0  0  0  0  0  0  0
    4.8581   -2.5018    2.4415 H   0  0  0  0  0  0  0  0  0  0  0  0
  1 13  1  0  0  0  0
  1 14  1  0  0  0  0
  2 11  2  0  0  0  0
  3  5  1  0  0  0  0
  3  7  1  0  0  0  0
  3  8  1  0  0  0  0
  4  6  1  0  0  0  0
  4  9  1  0  0  0  0
  4 10  1  0  0  0  0
  4 11  1  0  0  0  0
  5  6  1  0  0  0  0
  5 12  1  0  0  0  0
  5 27  1  0  0  0  0
  6 28  1  0  0  0  0
  6 29  1  0  0  0  0
  7 13  1  0  0  0  0
  7 30  1  0  0  0  0
  7 31  1  0  0  0  0
  8 14  1  0  0  0  0
  8 32  1  0  0  0  0
  8 33  1  0  0  0  0
  9 16  2  0  0  0  0
  9 18  1  0  0  0  0
 10 17  2  0  0  0  0
 10 19  1  0  0  0  0
 11 15  1  0  0  0  0
 12 34  1  0  0  0  0
 12 35  1  0  0  0  0
 12 36  1  0  0  0  0
 13 37  1  0  0  0  0
 13 38  1  0  0  0  0
 14 39  1  0  0  0  0
 14 40  1  0  0  0  0
 15 20  1  0  0  0  0
 15 41  1  0  0  0  0
 15 42  1  0  0  0  0
 16 21  1  0  0  0  0
 16 43  1  0  0  0  0
 17 22  1  0  0  0  0
 17 44  1  0  0  0  0
 18 23  2  0  0  0  0
 18 45  1  0  0  0  0
 19 24  2  0  0  0  0
 19 46  1  0  0  0  0
 20 47  1  0  0  0  0
 20 48  1  0  0  0  0
 20 49  1  0  0  0  0
 21 25  2  0  0  0  0
 21 50  1  0  0  0  0
 22 26  2  0  0  0  0
 22 51  1  0  0  0  0
 23 25  1  0  0  0  0
 23 52  1  0  0  0  0
 24 26  1  0  0  0  0
 24 53  1  0  0  0  0
 25 54  1  0  0  0  0
 26 55  1  0  0  0  0
M  END
> <PUBCHEM_COMPOUND_CID>
10089

> <PUBCHEM_CONFORMER_RMSD>
0.8

> <PUBCHEM_CONFORMER_DIVERSEORDER>
1
30
48
44
19
52
14
43
33
24
29
50
28
47
23
32
46
25
12
49
15
45
13
41
51
26
35
21
3
39
9
27
38
16
31
36
37
5
20
42
2
34
40
10
6
22
11
17
18
4
7
8

> <PUBCHEM_MMFF94_PARTIAL_CHARGES>
33
1 -0.56
10 -0.14
11 0.45
13 0.28
14 0.28
15 0.06
16 -0.15
17 -0.15
18 -0.15
19 -0.15
2 -0.57
21 -0.15
22 -0.15
23 -0.15
24 -0.15
25 -0.15
26 -0.15
3 -0.81
4 0.35
43 0.15
44 0.15
45 0.15
46 0.15
5 0.27
50 0.15
51 0.15
52 0.15
53 0.15
54 0.15
55 0.15
7 0.27
8 0.27
9 -0.14

> <PUBCHEM_EFFECTIVE_ROTOR_COUNT>
8.2

> <PUBCHEM_PHARMACOPHORE_FEATURES>
7
1 1 acceptor
1 2 acceptor
1 20 hydrophobe
1 3 cation
6 1 3 7 8 13 14 rings
6 10 17 19 22 24 26 rings
6 9 16 18 21 23 25 rings

> <PUBCHEM_HEAVY_ATOM_COUNT>
26

> <PUBCHEM_ATOM_DEF_STEREO_COUNT>
0

> <PUBCHEM_ATOM_UDEF_STEREO_COUNT>
1

> <PUBCHEM_BOND_DEF_STEREO_COUNT>
0

> <PUBCHEM_BOND_UDEF_STEREO_COUNT>
0

> <PUBCHEM_ISOTOPIC_ATOM_COUNT>
0

> <PUBCHEM_COMPONENT_COUNT>
1

> <PUBCHEM_CACTVS_TAUTO_COUNT>
2

> <PUBCHEM_CONFORMER_ID>
0000276900000001

> <PUBCHEM_MMFF94_ENERGY>
101.1248

> <PUBCHEM_FEATURE_SELFOVERLAP>
35.52

> <PUBCHEM_SHAPE_FINGERPRINT>
10305334 12 16449573917725775640
10382601 240 18264487278375596593
107951 10 17479714041332812396
11578080 2 17559977522160270412
11582403 64 17252002958300235722
11640471 11 17680435442191333413
12160290 23 17549244283071297533
12293681 25 17683250526786087029
12293681 4 18051711111498405965
12403259 327 18343297055203442619
12633257 1 18335138679094117275
12788726 201 17549295925578281624
13134695 92 18342470234932508061
133893 2 18121524374079477989
13533116 47 18131065979947763179
13544653 18 17845660372851655082
13583140 156 18200032824955969163
13965767 371 18041282058814191225
14178342 30 17313110735133716199
14713325 29 17391905239316073046
14787075 74 18130507440619669258
14943834 7 17466538627814283806
14950920 106 18268968948869840283
14955137 171 18114451289156117148
15238133 3 17985533697182190769
15420108 30 17896611578442479844
17349148 13 17895203177625914007
17980427 23 17532110326981586029
1813 80 18261949747235044014
18681886 176 17604989213224264620
19078846 21 18269259313870040625
20600515 1 18200589336204625270
20723712 36 17603872182604113080
20739085 24 18187083944902851024
21330990 113 17313942056334470222
21524375 3 17686616840548786677
21756936 100 17117758047147355540
23419403 2 17701293345299972436
23558518 356 17400933994531735172
23559900 14 16774080648911452123
244849 19 17629235721344992765
3286 77 18130785655589517451
3380486 145 17897749757597200493
35225 105 17258198100342130864
394222 165 17973162833505781793
497634 4 17414444106752472706
513202 73 17972887144362195390
5895379 119 16951381348107550433
6786 2 17337571372690239612
81228 2 17759793037180558524
9841814 1 18340194246179295371

> <PUBCHEM_SHAPE_MULTIPOLES>
518.35
8.05
3.72
2.7
12.41
5.1
1.62
-5.06
-5.29
-3.64
-0.01
-0.86
-2.11
-0.17

> <PUBCHEM_SHAPE_SELFOVERLAP>
1101.67

> <PUBCHEM_SHAPE_VOLUME>
286.4

> <PUBCHEM_COORDINATE_TYPE>
2
5
10

$$$$

