5484731
  -OEChem-07051213092D

 60 65  0     1  0  0  0  0  0999 V2000
    5.3664   -1.7922    0.0000 O   0  0  0  0  0  0  0  0  0  0  0  0
    5.1350   -4.2472    0.0000 O   0  0  0  0  0  0  0  0  0  0  0  0
    5.1350    0.5572    0.0000 O   0  0  0  0  0  0  0  0  0  0  0  0
    4.2690    2.0572    0.0000 O   0  0  0  0  0  0  0  0  0  0  0  0
    6.8671    1.5572    0.0000 O   0  0  0  0  0  0  0  0  0  0  0  0
    6.8671    3.5572    0.0000 O   0  0  0  0  0  0  0  0  0  0  0  0
    5.1350    4.5572    0.0000 O   0  0  0  0  0  0  0  0  0  0  0  0
    2.5369    3.0572    0.0000 O   0  0  0  0  0  0  0  0  0  0  0  0
    3.4030    4.5572    0.0000 O   0  0  0  0  0  0  0  0  0  0  0  0
    9.2956   -2.7961    0.0000 N   0  0  3  0  0  0  0  0  0  0  0  0
    6.8247   -2.3205    0.0000 C   0  0  1  0  0  0  0  0  0  0  0  0
    7.6483   -2.7961    0.0000 C   0  0  2  0  0  0  0  0  0  0  0  0
    8.4720   -2.3205    0.0000 C   0  0  1  0  0  0  0  0  0  0  0  0
    6.0010   -2.7961    0.0000 C   0  0  2  0  0  0  0  0  0  0  0  0
    7.3742   -1.6231    0.0000 C   0  0  0  0  0  0  0  0  0  0  0  0
    6.8247   -1.3695    0.0000 C   0  0  0  0  0  0  0  0  0  0  0  0
    8.4720   -1.3695    0.0000 C   0  0  0  0  0  0  0  0  0  0  0  0
    8.7268   -1.6231    0.0000 C   0  0  0  0  0  0  0  0  0  0  0  0
    7.6483   -0.8939    0.0000 C   0  0  0  0  0  0  0  0  0  0  0  0
    6.0010   -3.7472    0.0000 C   0  0  2  0  0  0  0  0  0  0  0  0
    7.6483   -3.7472    0.0000 C   0  0  0  0  0  0  0  0  0  0  0  0
    6.0010   -0.8939    0.0000 C   0  0  0  0  0  0  0  0  0  0  0  0
    6.8247   -4.2227    0.0000 C   0  0  0  0  0  0  0  0  0  0  0  0
    7.6483    0.0571    0.0000 C   0  0  0  0  0  0  0  0  0  0  0  0
    9.9768   -3.5282    0.0000 C   0  0  0  0  0  0  0  0  0  0  0  0
    6.0010    0.0571    0.0000 C   0  0  0  0  0  0  0  0  0  0  0  0
    6.8247    0.5327    0.0000 C   0  0  0  0  0  0  0  0  0  0  0  0
    5.1350    1.5572    0.0000 C   0  0  2  0  0  0  0  0  0  0  0  0
    6.0010    2.0572    0.0000 C   0  0  1  0  0  0  0  0  0  0  0  0
    6.0010    3.0572    0.0000 C   0  0  2  0  0  0  0  0  0  0  0  0
    5.1350    3.5572    0.0000 C   0  0  1  0  0  0  0  0  0  0  0  0
    4.2690    3.0572    0.0000 C   0  0  1  0  0  0  0  0  0  0  0  0
    3.4030    3.5572    0.0000 C   0  0  0  0  0  0  0  0  0  0  0  0
    8.1947   -3.4472    0.0000 H   0  0  0  0  0  0  0  0  0  0  0  0
    8.7634   -3.1190    0.0000 H   0  0  0  0  0  0  0  0  0  0  0  0
    5.1846   -3.0325    0.0000 H   0  0  0  0  0  0  0  0  0  0  0  0
    7.5110   -1.0184    0.0000 H   0  0  0  0  0  0  0  0  0  0  0  0
    6.8145   -1.3563    0.0000 H   0  0  0  0  0  0  0  0  0  0  0  0
    9.0826   -1.4771    0.0000 H   0  0  0  0  0  0  0  0  0  0  0  0
    8.6840   -0.7869    0.0000 H   0  0  0  0  0  0  0  0  0  0  0  0
    9.3190   -1.4393    0.0000 H   0  0  0  0  0  0  0  0  0  0  0  0
    8.6339   -1.0101    0.0000 H   0  0  0  0  0  0  0  0  0  0  0  0
    6.0010   -4.3672    0.0000 H   0  0  0  0  0  0  0  0  0  0  0  0
    8.1853   -4.0572    0.0000 H   0  0  0  0  0  0  0  0  0  0  0  0
    6.8247   -4.8427    0.0000 H   0  0  0  0  0  0  0  0  0  0  0  0
    8.1853    0.3671    0.0000 H   0  0  0  0  0  0  0  0  0  0  0  0
    9.5229   -3.9505    0.0000 H   0  0  0  0  0  0  0  0  0  0  0  0
   10.3991   -3.9821    0.0000 H   0  0  0  0  0  0  0  0  0  0  0  0
   10.4307   -3.1059    0.0000 H   0  0  0  0  0  0  0  0  0  0  0  0
    6.8247    1.1527    0.0000 H   0  0  0  0  0  0  0  0  0  0  0  0
    5.1350   -4.8672    0.0000 H   0  0  0  0  0  0  0  0  0  0  0  0
    4.5981    1.2472    0.0000 H   0  0  0  0  0  0  0  0  0  0  0  0
    6.0010    1.4372    0.0000 H   0  0  0  0  0  0  0  0  0  0  0  0
    6.0010    3.6772    0.0000 H   0  0  0  0  0  0  0  0  0  0  0  0
    5.6720    3.8672    0.0000 H   0  0  0  0  0  0  0  0  0  0  0  0
    3.7320    2.7472    0.0000 H   0  0  0  0  0  0  0  0  0  0  0  0
    7.4040    1.8671    0.0000 H   0  0  0  0  0  0  0  0  0  0  0  0
    7.4040    3.2471    0.0000 H   0  0  0  0  0  0  0  0  0  0  0  0
    5.6720    4.8672    0.0000 H   0  0  0  0  0  0  0  0  0  0  0  0
    2.0000    3.3672    0.0000 H   0  0  0  0  0  0  0  0  0  0  0  0
  1 14  1  0  0  0  0
  1 22  1  0  0  0  0
 20  2  1  6  0  0  0
  2 51  1  0  0  0  0
  3 26  1  0  0  0  0
 28  3  1  6  0  0  0
  4 28  1  0  0  0  0
  4 32  1  0  0  0  0
 29  5  1  1  0  0  0
  5 57  1  0  0  0  0
 30  6  1  6  0  0  0
  6 58  1  0  0  0  0
 31  7  1  1  0  0  0
  7 59  1  0  0  0  0
  8 33  1  0  0  0  0
  8 60  1  0  0  0  0
  9 33  2  0  0  0  0
 10 13  1  0  0  0  0
 10 18  1  0  0  0  0
 10 25  1  0  0  0  0
 11 12  1  0  0  0  0
 11 14  1  0  0  0  0
 11 15  1  1  0  0  0
 11 16  1  0  0  0  0
 12 13  1  0  0  0  0
 12 21  1  0  0  0  0
 12 34  1  1  0  0  0
 13 17  1  0  0  0  0
 13 35  1  6  0  0  0
 14 20  1  0  0  0  0
 14 36  1  1  0  0  0
 15 18  1  0  0  0  0
 15 37  1  0  0  0  0
 15 38  1  0  0  0  0
 16 19  2  0  0  0  0
 16 22  1  0  0  0  0
 17 19  1  0  0  0  0
 17 39  1  0  0  0  0
 17 40  1  0  0  0  0
 18 41  1  0  0  0  0
 18 42  1  0  0  0  0
 19 24  1  0  0  0  0
 20 23  1  0  0  0  0
 20 43  1  0  0  0  0
 21 23  2  0  0  0  0
 21 44  1  0  0  0  0
 22 26  2  0  0  0  0
 23 45  1  0  0  0  0
 24 27  2  0  0  0  0
 24 46  1  0  0  0  0
 25 47  1  0  0  0  0
 25 48  1  0  0  0  0
 25 49  1  0  0  0  0
 26 27  1  0  0  0  0
 27 50  1  0  0  0  0
 28 29  1  0  0  0  0
 28 52  1  0  0  0  0
 29 30  1  0  0  0  0
 29 53  1  0  0  0  0
 30 31  1  0  0  0  0
 30 54  1  0  0  0  0
 31 32  1  0  0  0  0
 31 55  1  0  0  0  0
 32 33  1  6  0  0  0
 32 56  1  0  0  0  0
M  END
> <PUBCHEM_COMPOUND_CID>
5484731

> <PUBCHEM_COMPOUND_CANONICALIZED>
1

> <PUBCHEM_CACTVS_COMPLEXITY>
839

> <PUBCHEM_CACTVS_HBOND_ACCEPTOR>
10

> <PUBCHEM_CACTVS_HBOND_DONOR>
5

> <PUBCHEM_CACTVS_ROTATABLE_BOND>
3

> <PUBCHEM_CACTVS_SUBSKEYS>
AAADceB6PAAAAAAAAAAAAAAAAAAAASAAAAA8aIECAAAWAEjBAAAAHgAACAAADzzxmAcyDoMABgCIAiDSCAICCAAgIAAIiAFOiIgdNjaEsR+meCKl4BGPuAf6/P9PoAABAAAYQADQAAaAADSAAAAAAAAAAA==

> <PUBCHEM_IUPAC_OPENEYE_NAME>
(2S,3S,4S,5R,6S)-6-[[(4R,4aR,7S,7aR,12bS)-7-hydroxy-3-methyl-2,4,4a,7,7a,13-hexahydro-1H-4,12-methanobenzofuro[3,2-e]isoquinoline-9-yl]oxy]-3,4,5-trihydroxy-tetrahydropyran-2-carboxylic acid

> <PUBCHEM_IUPAC_CAS_NAME>
(2S,3S,4S,5R,6S)-6-[[(4R,4aR,7S,7aR,12bS)-7-hydroxy-3-methyl-2,4,4a,7,7a,13-hexahydro-1H-4,12-methanobenzofuro[3,2-e]isoquinoline-9-yl]oxy]-3,4,5-trihydroxy-2-oxanecarboxylic acid

> <PUBCHEM_IUPAC_NAME>
(2S,3S,4S,5R,6S)-6-[[(4R,4aR,7S,7aR,12bS)-7-hydroxy-3-methyl-2,4,4a,7,7a,13-hexahydro-1H-4,12-methanobenzofuro[3,2-e]isoquinoline-9-yl]oxy]-3,4,5-trihydroxyoxane-2-carboxylic acid

> <PUBCHEM_IUPAC_SYSTEMATIC_NAME>
(2S,3S,4S,5R,6S)-6-[[(4R,4aR,7S,7aR,12bS)-3-methyl-7-oxidanyl-2,4,4a,7,7a,13-hexahydro-1H-4,12-methanobenzofuro[3,2-e]isoquinoline-9-yl]oxy]-3,4,5-tris(oxidanyl)oxane-2-carboxylic acid

> <PUBCHEM_IUPAC_TRADITIONAL_NAME>
(2S,3S,4S,5R,6S)-6-[[(4R,4aR,7S,7aR,12bS)-7-hydroxy-3-methyl-2,4,4a,7,7a,13-hexahydro-1H-4,12-methanobenzofuro[3,2-e]isoquinoline-9-yl]oxy]-3,4,5-trihydroxy-tetrahydropyran-2-carboxylic acid

> <PUBCHEM_IUPAC_INCHI>
InChI=1S/C23H27NO9/c1-24-7-6-23-10-3-4-12(25)20(23)32-18-13(5-2-9(14(18)23)8-11(10)24)31-22-17(28)15(26)16(27)19(33-22)21(29)30/h2-5,10-12,15-17,19-20,22,25-28H,6-8H2,1H3,(H,29,30)/t10-,11+,12-,15-,16-,17+,19-,20-,22+,23-/m0/s1

> <PUBCHEM_IUPAC_INCHIKEY>
WAEXKFONHRHFBZ-ZXDZBKESSA-N

> <PUBCHEM_XLOGP3>
-3

> <PUBCHEM_EXACT_MASS>
461.168581

> <PUBCHEM_MOLECULAR_FORMULA>
C23H27NO9

> <PUBCHEM_MOLECULAR_WEIGHT>
461.46178

> <PUBCHEM_OPENEYE_CAN_SMILES>
CN1CCC23C4C1CC5=C2C(=C(C=C5)OC6C(C(C(C(O6)C(=O)O)O)O)O)OC3C(C=C4)O

> <PUBCHEM_OPENEYE_ISO_SMILES>
CN1CC[C@]23[C@@H]4[C@H]1CC5=C2C(=C(C=C5)O[C@H]6[C@@H]([C@H]([C@@H]([C@H](O6)C(=O)O)O)O)O)O[C@H]3[C@H](C=C4)O

> <PUBCHEM_CACTVS_TPSA>
149

> <PUBCHEM_MONOISOTOPIC_WEIGHT>
461.168581

> <PUBCHEM_TOTAL_CHARGE>
0

> <PUBCHEM_HEAVY_ATOM_COUNT>
33

> <PUBCHEM_ATOM_DEF_STEREO_COUNT>
10

> <PUBCHEM_ATOM_UDEF_STEREO_COUNT>
0

> <PUBCHEM_BOND_DEF_STEREO_COUNT>
0

> <PUBCHEM_BOND_UDEF_STEREO_COUNT>
0

> <PUBCHEM_ISOTOPIC_ATOM_COUNT>
0

> <PUBCHEM_COMPONENT_COUNT>
1

> <PUBCHEM_CACTVS_TAUTO_COUNT>
1

> <PUBCHEM_COORDINATE_TYPE>
1
5
255

> <PUBCHEM_BONDANNOTATIONS>
11  15  5
12  34  5
13  35  6
14  36  5
16  19  8
16  22  8
19  24  8
20  2  6
22  26  8
24  27  8
26  27  8
28  3  6
32  33  6
29  5  5
30  6  6
31  7  5

$$$$

