17396315
  -OEChem-06241222553D

 41 43  0     0  0  0  0  0  0999 V2000
    7.4419    0.8367   -0.1085 F   0  0  0  0  0  0  0  0  0  0  0  0
   -0.4114    1.2716    0.1654 O   0  0  0  0  0  0  0  0  0  0  0  0
   -6.2319    1.8766    0.0398 O   0  0  0  0  0  0  0  0  0  0  0  0
    1.6303   -1.0567   -1.7066 O   0  0  0  0  0  0  0  0  0  0  0  0
   -2.9705   -1.2835    0.3147 N   0  0  0  0  0  0  0  0  0  0  0  0
    1.3549   -0.6758    0.5770 N   0  0  0  0  0  0  0  0  0  0  0  0
    3.1720    0.0799    1.9115 N   0  0  0  0  0  0  0  0  0  0  0  0
   -2.3759   -0.0567    0.1750 C   0  0  0  0  0  0  0  0  0  0  0  0
   -3.3679    0.8680   -0.0658 C   0  0  0  0  0  0  0  0  0  0  0  0
   -4.6024    0.1727   -0.0708 C   0  0  0  0  0  0  0  0  0  0  0  0
   -4.3271   -1.1557    0.1673 C   0  0  0  0  0  0  0  0  0  0  0  0
   -0.0477   -1.0604    0.5542 C   0  0  0  0  0  0  0  0  0  0  0  0
   -0.9224    0.1554    0.2781 C   0  0  0  0  0  0  0  0  0  0  0  0
   -3.1807    2.3186   -0.2800 C   0  0  0  0  0  0  0  0  0  0  0  0
   -5.2151   -2.3301    0.2717 C   0  0  0  0  0  0  0  0  0  0  0  0
   -5.9178    0.7087   -0.2799 C   0  0  0  0  0  0  0  0  0  0  0  0
    2.0805   -0.7165   -0.6167 C   0  0  0  0  0  0  0  0  0  0  0  0
    3.4987   -0.3073   -0.4935 C   0  0  0  0  0  0  0  0  0  0  0  0
    3.9841    0.0732    0.7650 C   0  0  0  0  0  0  0  0  0  0  0  0
    1.9399   -0.2820    1.7667 C   0  0  0  0  0  0  0  0  0  0  0  0
   -7.0168   -0.1426   -0.9152 C   0  0  0  0  0  0  0  0  0  0  0  0
    4.3340   -0.3027   -1.6154 C   0  0  0  0  0  0  0  0  0  0  0  0
    5.3241    0.4591    0.8821 C   0  0  0  0  0  0  0  0  0  0  0  0
    5.6664    0.0847   -1.4813 C   0  0  0  0  0  0  0  0  0  0  0  0
    6.1612    0.4649   -0.2350 C   0  0  0  0  0  0  0  0  0  0  0  0
   -2.4888   -2.1530    0.4990 H   0  0  0  0  0  0  0  0  0  0  0  0
   -0.2124   -1.8078   -0.2286 H   0  0  0  0  0  0  0  0  0  0  0  0
   -0.3235   -1.4769    1.5291 H   0  0  0  0  0  0  0  0  0  0  0  0
   -2.9942    2.8245    0.6728 H   0  0  0  0  0  0  0  0  0  0  0  0
   -2.3351    2.5141   -0.9474 H   0  0  0  0  0  0  0  0  0  0  0  0
   -4.0502    2.7874   -0.7484 H   0  0  0  0  0  0  0  0  0  0  0  0
   -5.6201   -2.6081   -0.7056 H   0  0  0  0  0  0  0  0  0  0  0  0
   -4.6749   -3.2030    0.6559 H   0  0  0  0  0  0  0  0  0  0  0  0
   -6.0404   -2.1405    0.9643 H   0  0  0  0  0  0  0  0  0  0  0  0
    1.2595   -0.2910    2.6325 H   0  0  0  0  0  0  0  0  0  0  0  0
   -7.5002   -0.7621   -0.1577 H   0  0  0  0  0  0  0  0  0  0  0  0
   -6.6101   -0.7523   -1.7257 H   0  0  0  0  0  0  0  0  0  0  0  0
   -7.7701    0.5207   -1.3528 H   0  0  0  0  0  0  0  0  0  0  0  0
    3.9671   -0.5957   -2.5950 H   0  0  0  0  0  0  0  0  0  0  0  0
    5.7255    0.7586    1.8473 H   0  0  0  0  0  0  0  0  0  0  0  0
    6.3201    0.0903   -2.3487 H   0  0  0  0  0  0  0  0  0  0  0  0
  1 25  1  0  0  0  0
  2 13  2  0  0  0  0
  3 16  2  0  0  0  0
  4 17  2  0  0  0  0
  5  8  1  0  0  0  0
  5 11  1  0  0  0  0
  5 26  1  0  0  0  0
  6 12  1  0  0  0  0
  6 17  1  0  0  0  0
  6 20  1  0  0  0  0
  7 19  1  0  0  0  0
  7 20  2  0  0  0  0
  8  9  2  0  0  0  0
  8 13  1  0  0  0  0
  9 10  1  0  0  0  0
  9 14  1  0  0  0  0
 10 11  2  0  0  0  0
 10 16  1  0  0  0  0
 11 15  1  0  0  0  0
 12 13  1  0  0  0  0
 12 27  1  0  0  0  0
 12 28  1  0  0  0  0
 14 29  1  0  0  0  0
 14 30  1  0  0  0  0
 14 31  1  0  0  0  0
 15 32  1  0  0  0  0
 15 33  1  0  0  0  0
 15 34  1  0  0  0  0
 16 21  1  0  0  0  0
 17 18  1  0  0  0  0
 18 19  2  0  0  0  0
 18 22  1  0  0  0  0
 19 23  1  0  0  0  0
 20 35  1  0  0  0  0
 21 36  1  0  0  0  0
 21 37  1  0  0  0  0
 21 38  1  0  0  0  0
 22 24  2  0  0  0  0
 22 39  1  0  0  0  0
 23 25  2  0  0  0  0
 23 40  1  0  0  0  0
 24 25  1  0  0  0  0
 24 41  1  0  0  0  0
M  END
> <PUBCHEM_COMPOUND_CID>
17396315

> <PUBCHEM_CONFORMER_RMSD>
0.8

> <PUBCHEM_CONFORMER_DIVERSEORDER>
2
72
27
43
25
83
33
55
49
104
111
22
84
71
23
63
41
26
39
1
44
37
108
100
46
59
80
50
107
34
66
92
19
47
73
65
76
9
29
13
48
70
36
56
18
67
88
32
61
52
77
5
96
79
114
31
64
89
51
35
112
38
109
21
106
57
4
42
94
20
110
45
86
102
14
28
85
93
91
98
101
82
78
10
58
40
15
53
30
3
118
74
6
68
87
105
95
62
99
81
90
24
54
17
103
115
69
11
60
75
117
16
8
113
7
12
116
97

> <PUBCHEM_MMFF94_PARTIAL_CHARGES>
30
1 -0.19
10 -0.09
11 -0.33
12 0.36
13 0.59
14 0.18
15 0.18
16 0.6
17 0.54
18 0.09
19 0.18
2 -0.57
20 0.45
21 0.06
22 -0.15
23 -0.15
24 -0.15
25 0.19
26 0.27
3 -0.57
35 0.06
39 0.15
4 -0.57
40 0.15
41 0.15
5 0.03
6 -0.42
7 -0.63
8 -0.24
9 -0.18

> <PUBCHEM_EFFECTIVE_ROTOR_COUNT>
4

> <PUBCHEM_PHARMACOPHORE_FEATURES>
8
1 2 acceptor
1 3 acceptor
1 4 acceptor
1 5 cation
1 5 donor
5 5 8 9 10 11 rings
6 18 19 22 23 24 25 rings
6 6 7 17 18 19 20 rings

> <PUBCHEM_HEAVY_ATOM_COUNT>
25

> <PUBCHEM_ATOM_DEF_STEREO_COUNT>
0

> <PUBCHEM_ATOM_UDEF_STEREO_COUNT>
0

> <PUBCHEM_BOND_DEF_STEREO_COUNT>
0

> <PUBCHEM_BOND_UDEF_STEREO_COUNT>
0

> <PUBCHEM_ISOTOPIC_ATOM_COUNT>
0

> <PUBCHEM_COMPONENT_COUNT>
1

> <PUBCHEM_CACTVS_TAUTO_COUNT>
52

> <PUBCHEM_CONFORMER_ID>
0109725B00000002

> <PUBCHEM_MMFF94_ENERGY>
53.5703

> <PUBCHEM_FEATURE_SELFOVERLAP>
40.624

> <PUBCHEM_SHAPE_FINGERPRINT>
10554248 39 17843426191600486111
11089746 13 17417809509537669246
11315181 36 18130787833264510825
11719270 70 17676772067501662518
12236239 1 17561085795689894298
12390115 104 18116710923602840529
12516196 113 17458347437785733721
12596602 18 17131828746481144480
12616971 3 16558749009755698655
12730499 353 17458063759817828254
13533116 47 17203619211571744872
13631057 29 16987711291380507995
13668630 136 14634869742845524269
14251764 18 6699803202759767794
15183329 4 14996281422877690756
15475509 35 9727369979017943004
1577012 14 17561367270756223738
17844677 252 16515399673056519953
18681886 176 18339646633237758944
19377110 9 17346313821586517649
19489759 90 18201999923607586706
20511986 3 17346611741649982967
21033648 29 17458920308881429057
21033650 10 17914312809427151636
21150785 3 18113059320642008375
21267235 1 18339641141129900931
21521721 280 16877941599560772842
21792961 116 17676479580243991942
22061861 79 16660646279818985661
221357 26 16660646279966731208
22224240 67 15554448470970047344
2297311 6 18261108569891083569
23081809 10 17775292655223799075
23402539 116 18272090478485103374
23557571 272 18261389000874548461
23559900 14 18334017164243285025
23569943 247 13985757733819640372
300161 21 17489872643856802443
335352 9 18341341029388106941
34797466 226 18186516588065116204
4325135 7 18272652350369974500
4340502 62 14117796929494581432
46194498 28 17894352155478738232
465052 167 14129061395818978653
542803 24 17489869340794791219
5758199 1 16917066642914253128

> <PUBCHEM_SHAPE_MULTIPOLES>
474.66
18.54
1.56
1.31
0.01
0.13
0.02
3.26
3.45
2.94
-0.03
-1.96
-0.17
0.2

> <PUBCHEM_SHAPE_SELFOVERLAP>
1038.214

> <PUBCHEM_SHAPE_VOLUME>
259.1

> <PUBCHEM_COORDINATE_TYPE>
2
5
10

$$$$

