6324770
  -OEChem-07051212552D

 44 46  0     1  0  0  0  0  0999 V2000
    7.6279   -3.4376    0.0000 O   0  5  0  0  0  0  0  0  0  0  0  0
    7.6279   -1.7055    0.0000 O   0  0  0  0  0  0  0  0  0  0  0  0
    2.0000   -3.5716    0.0000 O   0  0  0  0  0  0  0  0  0  0  0  0
    2.0000   -1.5716    0.0000 O   0  0  0  0  0  0  0  0  0  0  0  0
    6.4298    3.7301    0.0000 O   0  0  0  0  0  0  0  0  0  0  0  0
    5.1406    2.5734    0.0000 O   0  0  0  0  0  0  0  0  0  0  0  0
   10.0796    0.9591    0.0000 O   0  0  0  0  0  0  0  0  0  0  0  0
    9.7225    2.6539    0.0000 O   0  0  0  0  0  0  0  0  0  0  0  0
    5.5443   -1.7668    0.0000 N   0  3  0  0  0  0  0  0  0  0  0  0
    7.7654    2.2415    0.0000 N   0  0  0  0  0  0  0  0  0  0  0  0
    6.1279   -2.5715    0.0000 C   0  0  1  0  0  0  0  0  0  0  0  0
    5.5443   -3.3763    0.0000 C   0  0  0  0  0  0  0  0  0  0  0  0
    4.5981   -3.0715    0.0000 C   0  0  0  0  0  0  0  0  0  0  0  0
    4.5981   -2.0715    0.0000 C   0  0  0  0  0  0  0  0  0  0  0  0
    5.8550   -0.8163    0.0000 C   0  0  0  0  0  0  0  0  0  0  0  0
    3.7320   -3.5716    0.0000 C   0  0  0  0  0  0  0  0  0  0  0  0
    3.7320   -1.5716    0.0000 C   0  0  0  0  0  0  0  0  0  0  0  0
    6.4763    1.0847    0.0000 C   0  0  0  0  0  0  0  0  0  0  0  0
    6.7870    2.0353    0.0000 C   0  0  1  0  0  0  0  0  0  0  0  0
    7.1441    0.3404    0.0000 C   0  0  0  0  0  0  0  0  0  0  0  0
    7.1279   -2.5715    0.0000 C   0  0  0  0  0  0  0  0  0  0  0  0
    6.8335   -0.6101    0.0000 C   0  0  0  0  0  0  0  0  0  0  0  0
    2.8660   -3.0715    0.0000 C   0  0  0  0  0  0  0  0  0  0  0  0
    2.8660   -2.0715    0.0000 C   0  0  0  0  0  0  0  0  0  0  0  0
    8.1226    0.5467    0.0000 C   0  0  0  0  0  0  0  0  0  0  0  0
    8.4333    1.4972    0.0000 C   0  0  0  0  0  0  0  0  0  0  0  0
    6.1191    2.7796    0.0000 C   0  0  0  0  0  0  0  0  0  0  0  0
    9.4118    1.7034    0.0000 C   0  0  0  0  0  0  0  0  0  0  0  0
    6.4096   -2.0192    0.0000 H   0  0  0  0  0  0  0  0  0  0  0  0
    5.2933   -3.9432    0.0000 H   0  0  0  0  0  0  0  0  0  0  0  0
    6.0817   -3.6855    0.0000 H   0  0  0  0  0  0  0  0  0  0  0  0
    5.4409   -0.3548    0.0000 H   0  0  0  0  0  0  0  0  0  0  0  0
    3.7320   -4.1916    0.0000 H   0  0  0  0  0  0  0  0  0  0  0  0
    5.9294    1.3768    0.0000 H   0  0  0  0  0  0  0  0  0  0  0  0
    6.0937    0.5968    0.0000 H   0  0  0  0  0  0  0  0  0  0  0  0
    3.7320   -0.9516    0.0000 H   0  0  0  0  0  0  0  0  0  0  0  0
    6.9796    2.6246    0.0000 H   0  0  0  0  0  0  0  0  0  0  0  0
    7.2475   -1.0716    0.0000 H   0  0  0  0  0  0  0  0  0  0  0  0
    7.9581    2.8308    0.0000 H   0  0  0  0  0  0  0  0  0  0  0  0
    8.5367    0.0852    0.0000 H   0  0  0  0  0  0  0  0  0  0  0  0
    2.0000   -4.1916    0.0000 H   0  0  0  0  0  0  0  0  0  0  0  0
    2.0000   -0.9516    0.0000 H   0  0  0  0  0  0  0  0  0  0  0  0
    6.0157    4.1916    0.0000 H   0  0  0  0  0  0  0  0  0  0  0  0
   10.6863    1.0870    0.0000 H   0  0  0  0  0  0  0  0  0  0  0  0
  1 21  1  0  0  0  0
  2 21  2  0  0  0  0
  3 23  1  0  0  0  0
  3 41  1  0  0  0  0
  4 24  1  0  0  0  0
  4 42  1  0  0  0  0
  5 27  1  0  0  0  0
  5 43  1  0  0  0  0
  6 27  2  0  0  0  0
  7 28  1  0  0  0  0
  7 44  1  0  0  0  0
  8 28  2  0  0  0  0
  9 11  1  0  0  0  0
  9 14  1  0  0  0  0
  9 15  2  0  0  0  0
 10 19  1  0  0  0  0
 10 26  1  0  0  0  0
 10 39  1  0  0  0  0
 11 12  1  0  0  0  0
 11 21  1  6  0  0  0
 11 29  1  0  0  0  0
 12 13  1  0  0  0  0
 12 30  1  0  0  0  0
 12 31  1  0  0  0  0
 13 14  1  0  0  0  0
 13 16  2  0  0  0  0
 14 17  2  0  0  0  0
 15 22  1  0  0  0  0
 15 32  1  0  0  0  0
 16 23  1  0  0  0  0
 16 33  1  0  0  0  0
 17 24  1  0  0  0  0
 17 36  1  0  0  0  0
 18 19  1  0  0  0  0
 18 20  1  0  0  0  0
 18 34  1  0  0  0  0
 18 35  1  0  0  0  0
 19 27  1  1  0  0  0
 19 37  1  0  0  0  0
 20 22  2  0  0  0  0
 20 25  1  0  0  0  0
 22 38  1  0  0  0  0
 23 24  2  0  0  0  0
 25 26  2  0  0  0  0
 25 40  1  0  0  0  0
 26 28  1  0  0  0  0
M  CHG  2   1  -1   9   1
M  END
> <PUBCHEM_COMPOUND_CID>
6324770

> <PUBCHEM_COMPOUND_CANONICALIZED>
1

> <PUBCHEM_CACTVS_COMPLEXITY>
781

> <PUBCHEM_CACTVS_HBOND_ACCEPTOR>
9

> <PUBCHEM_CACTVS_HBOND_DONOR>
5

> <PUBCHEM_CACTVS_ROTATABLE_BOND>
3

> <PUBCHEM_CACTVS_SUBSKEYS>
AAADceB7PAAAAAAAAAAAAAAAAAAAAWAAAAAwQAAAAAAAAFgBAAAAHgAQCAAADCzBmAQwzoPAAgCoAjTzTACCAAAhIgAAiIGe7NgLJjLCkbOEcAlm0BnZ2Ye42bOeIEABAgACQABAgAIEAASAAAAAAAAAAA==

> <PUBCHEM_IUPAC_OPENEYE_NAME>
(2S)-1-[(2E)-2-[(2S)-2,6-dicarboxy-2,3-dihydro-1H-pyridin-4-ylidene]ethylidene]-5,6-dihydroxy-indolin-1-ium-2-carboxylate

> <PUBCHEM_IUPAC_CAS_NAME>
(2S)-1-[(2E)-2-[(2S)-2,6-dicarboxy-2,3-dihydro-1H-pyridin-4-ylidene]ethylidene]-5,6-dihydroxy-2,3-dihydroindol-1-ium-2-carboxylate

> <PUBCHEM_IUPAC_NAME>
(2S)-1-[(2E)-2-[(2S)-2,6-dicarboxy-2,3-dihydro-1H-pyridin-4-ylidene]ethylidene]-5,6-dihydroxy-2,3-dihydroindol-1-ium-2-carboxylate

> <PUBCHEM_IUPAC_SYSTEMATIC_NAME>
(2S)-1-[(2E)-2-[(2S)-2,6-dicarboxy-2,3-dihydro-1H-pyridin-4-ylidene]ethylidene]-5,6-bis(oxidanyl)-2,3-dihydroindol-1-ium-2-carboxylate

> <PUBCHEM_IUPAC_TRADITIONAL_NAME>
(2S)-1-[(2E)-2-[(2S)-2,6-dicarboxy-2,3-dihydro-1H-pyridin-4-ylidene]ethylidene]-5,6-dihydroxy-indolin-1-ium-2-carboxylate

> <PUBCHEM_IUPAC_INCHI>
InChI=1S/C18H16N2O8/c21-14-6-9-5-13(18(27)28)20(12(9)7-15(14)22)2-1-8-3-10(16(23)24)19-11(4-8)17(25)26/h1-3,6-7,11,13H,4-5H2,(H5,21,22,23,24,25,26,27,28)/t11-,13-/m0/s1

> <PUBCHEM_IUPAC_INCHIKEY>
XHJKHSXHWJCBLX-AAEUAGOBSA-N

> <PUBCHEM_XLOGP3_AA>
0.9

> <PUBCHEM_EXACT_MASS>
388.090665

> <PUBCHEM_MOLECULAR_FORMULA>
C18H16N2O8

> <PUBCHEM_MOLECULAR_WEIGHT>
388.32824

> <PUBCHEM_OPENEYE_CAN_SMILES>
C1C(NC(=CC1=CC=[N+]2C(CC3=CC(=C(C=C32)O)O)C(=O)[O-])C(=O)O)C(=O)O

> <PUBCHEM_OPENEYE_ISO_SMILES>
C\1[C@H](NC(=C/C1=C/C=[N+]2[C@@H](CC3=CC(=C(C=C32)O)O)C(=O)[O-])C(=O)O)C(=O)O

> <PUBCHEM_CACTVS_TPSA>
170

> <PUBCHEM_MONOISOTOPIC_WEIGHT>
388.090665

> <PUBCHEM_TOTAL_CHARGE>
0

> <PUBCHEM_HEAVY_ATOM_COUNT>
28

> <PUBCHEM_ATOM_DEF_STEREO_COUNT>
2

> <PUBCHEM_ATOM_UDEF_STEREO_COUNT>
0

> <PUBCHEM_BOND_DEF_STEREO_COUNT>
1

> <PUBCHEM_BOND_UDEF_STEREO_COUNT>
0

> <PUBCHEM_ISOTOPIC_ATOM_COUNT>
0

> <PUBCHEM_COMPONENT_COUNT>
1

> <PUBCHEM_CACTVS_TAUTO_COUNT>
12

> <PUBCHEM_COORDINATE_TYPE>
1
5
255

> <PUBCHEM_BONDANNOTATIONS>
11  21  6
13  14  8
13  16  8
14  17  8
16  23  8
17  24  8
19  27  5
23  24  8

$$$$

