67136
  -OEChem-07051212533D

 24 24  0     0  0  0  0  0  0999 V2000
    2.6949   -2.2683    0.0905 Cl  0  0  0  0  0  0  0  0  0  0  0  0
   -2.7276    0.8688   -0.0946 S   0  0  0  0  0  0  0  0  0  0  0  0
    2.6648    0.9658    0.0962 S   0  0  0  0  0  0  0  0  0  0  0  0
   -2.4592    2.1859   -0.6507 O   0  0  0  0  0  0  0  0  0  0  0  0
   -3.7408    0.0172   -0.6981 O   0  0  0  0  0  0  0  0  0  0  0  0
    2.3417    2.2685    0.6561 O   0  0  0  0  0  0  0  0  0  0  0  0
    3.7110    0.1540    0.6974 O   0  0  0  0  0  0  0  0  0  0  0  0
   -2.3980   -2.1615   -0.0891 N   0  0  0  0  0  0  0  0  0  0  0  0
   -3.0626    1.0283    1.5724 N   0  0  0  0  0  0  0  0  0  0  0  0
    2.9921    1.1431   -1.5701 N   0  0  0  0  0  0  0  0  0  0  0  0
   -1.2201   -0.0207   -0.0432 C   0  0  0  0  0  0  0  0  0  0  0  0
    1.1940    0.0148    0.0419 C   0  0  0  0  0  0  0  0  0  0  0  0
   -0.0233    0.6945    0.0004 C   0  0  0  0  0  0  0  0  0  0  0  0
   -1.1996   -1.4154   -0.0452 C   0  0  0  0  0  0  0  0  0  0  0  0
    1.2147   -1.3800    0.0399 C   0  0  0  0  0  0  0  0  0  0  0  0
    0.0178   -2.0952   -0.0037 C   0  0  0  0  0  0  0  0  0  0  0  0
   -0.0415    1.7805    0.0012 H   0  0  0  0  0  0  0  0  0  0  0  0
    0.0308   -3.1832   -0.0053 H   0  0  0  0  0  0  0  0  0  0  0  0
   -3.2999   -1.7119   -0.0345 H   0  0  0  0  0  0  0  0  0  0  0  0
   -2.3536   -3.1724   -0.0810 H   0  0  0  0  0  0  0  0  0  0  0  0
   -2.9661    1.9613    1.9914 H   0  0  0  0  0  0  0  0  0  0  0  0
   -3.8398    0.4779    1.9576 H   0  0  0  0  0  0  0  0  0  0  0  0
    2.8569    2.0723   -1.9869 H   0  0  0  0  0  0  0  0  0  0  0  0
    3.7911    0.6263   -1.9573 H   0  0  0  0  0  0  0  0  0  0  0  0
  1 15  1  0  0  0  0
  2  4  2  0  0  0  0
  2  5  2  0  0  0  0
  2  9  1  0  0  0  0
  2 11  1  0  0  0  0
  3  6  2  0  0  0  0
  3  7  2  0  0  0  0
  3 10  1  0  0  0  0
  3 12  1  0  0  0  0
  8 14  1  0  0  0  0
  8 19  1  0  0  0  0
  8 20  1  0  0  0  0
  9 21  1  0  0  0  0
  9 22  1  0  0  0  0
 10 23  1  0  0  0  0
 10 24  1  0  0  0  0
 11 13  2  0  0  0  0
 11 14  1  0  0  0  0
 12 13  1  0  0  0  0
 12 15  2  0  0  0  0
 13 17  1  0  0  0  0
 14 16  2  0  0  0  0
 15 16  1  0  0  0  0
 16 18  1  0  0  0  0
M  END
> <PUBCHEM_COMPOUND_CID>
67136

> <PUBCHEM_CONFORMER_RMSD>
0.6

> <PUBCHEM_CONFORMER_DIVERSEORDER>
1
4
2
3

> <PUBCHEM_MMFF94_PARTIAL_CHARGES>
24
1 -0.18
10 -0.98
11 -0.01
12 -0.01
13 -0.15
14 0.1
15 0.18
16 -0.15
17 0.15
18 0.15
19 0.4
2 1.45
20 0.4
21 0.42
22 0.42
23 0.42
24 0.42
3 1.45
4 -0.65
5 -0.65
6 -0.65
7 -0.65
8 -0.9
9 -0.98

> <PUBCHEM_EFFECTIVE_ROTOR_COUNT>
2

> <PUBCHEM_PHARMACOPHORE_FEATURES>
9
1 10 donor
1 4 acceptor
1 5 acceptor
1 6 acceptor
1 7 acceptor
1 8 cation
1 8 donor
1 9 donor
6 11 12 13 14 15 16 rings

> <PUBCHEM_HEAVY_ATOM_COUNT>
16

> <PUBCHEM_ATOM_DEF_STEREO_COUNT>
0

> <PUBCHEM_ATOM_UDEF_STEREO_COUNT>
0

> <PUBCHEM_BOND_DEF_STEREO_COUNT>
0

> <PUBCHEM_BOND_UDEF_STEREO_COUNT>
0

> <PUBCHEM_ISOTOPIC_ATOM_COUNT>
0

> <PUBCHEM_COMPONENT_COUNT>
1

> <PUBCHEM_CACTVS_TAUTO_COUNT>
1

> <PUBCHEM_CONFORMER_ID>
0001064000000001

> <PUBCHEM_MMFF94_ENERGY>
21.4871

> <PUBCHEM_FEATURE_SELFOVERLAP>
45.704

> <PUBCHEM_SHAPE_FINGERPRINT>
10608611 8 18410862061492915244
10967382 1 18410579508511055306
10980938 120 18339079392907349442
11206711 2 18265052427393932591
11680986 33 18410292557841984674
12491281 212 18409720751285619419
13140716 1 18410571829115331434
13380535 21 18339067242170724778
13380535 76 18410863152420272930
13583140 156 16845578642516477449
13897977 150 18409453569949558999
14144814 61 18410014350944483001
14614273 12 18341062804483229917
14897335 6 18409737261108438335
15279308 100 18267866262348842238
15442244 35 18265621063900066178
15536298 74 18261679263449214122
15775835 57 18410849958301598280
16945 1 18410853248230560356
18186145 218 18114739446738125412
193761 8 18410578374645470594
20510252 161 17974569095918653272
20671657 1 18408884066192607058
21501502 16 18410293605402418215
21524375 3 18410576179885345447
22094290 62 18266462185947431082
2334 1 18410854326288911894
23402539 116 18046078059456156551
23463225 33 18343027692018312050
23557571 272 17756142293746293102
2748010 2 18410849958275542974
3071541 158 18053944227939979254
53812653 166 18334581217865794040
6333449 129 18336829684663525055
7364860 26 18335706082801958894
74978 22 18335700576289765106
81228 2 17906167347967987171

> <PUBCHEM_SHAPE_MULTIPOLES>
300.42
5.89
2.55
0.94
0.71
0.57
0
-1.69
0.04
-0.58
-0.02
0.03
-0.38
-0.21

> <PUBCHEM_SHAPE_SELFOVERLAP>
597.064

> <PUBCHEM_SHAPE_VOLUME>
179.5

> <PUBCHEM_COORDINATE_TYPE>
2
5
10

$$$$

