19829
  -OEChem-07051212503D

 21 21  0     0  0  0  0  0  0999 V2000
    1.9623   -1.7489   -0.4113 O   0  0  0  0  0  0  0  0  0  0  0  0
    2.8357    0.8683   -0.1712 O   0  0  0  0  0  0  0  0  0  0  0  0
    0.9898    2.9045    0.1662 O   0  0  0  0  0  0  0  0  0  0  0  0
   -2.8982   -1.6325   -0.1085 O   0  0  0  0  0  0  0  0  0  0  0  0
   -3.5491    0.5272    0.1717 O   0  0  0  0  0  0  0  0  0  0  0  0
    1.0670   -0.7360   -0.2433 C   0  0  0  0  0  0  0  0  0  0  0  0
   -1.2234    0.0015   -0.0247 C   0  0  0  0  0  0  0  0  0  0  0  0
    1.5033    0.5835   -0.1225 C   0  0  0  0  0  0  0  0  0  0  0  0
   -0.2964   -1.0269   -0.1945 C   0  0  0  0  0  0  0  0  0  0  0  0
    0.5761    1.6118    0.0472 C   0  0  0  0  0  0  0  0  0  0  0  0
   -0.7872    1.3209    0.0961 C   0  0  0  0  0  0  0  0  0  0  0  0
   -2.6451   -0.3018    0.0259 C   0  0  0  0  0  0  0  0  0  0  0  0
    2.4652   -2.3717    0.7690 C   0  0  0  0  0  0  0  0  0  0  0  0
   -0.6001   -2.0659   -0.2935 H   0  0  0  0  0  0  0  0  0  0  0  0
   -1.5048    2.1271    0.2286 H   0  0  0  0  0  0  0  0  0  0  0  0
    1.6507   -2.8358    1.3342 H   0  0  0  0  0  0  0  0  0  0  0  0
    2.9904   -1.6440    1.3956 H   0  0  0  0  0  0  0  0  0  0  0  0
    3.1720   -3.1508    0.4707 H   0  0  0  0  0  0  0  0  0  0  0  0
    2.9481    1.8295   -0.0702 H   0  0  0  0  0  0  0  0  0  0  0  0
    0.2121    3.4780    0.2764 H   0  0  0  0  0  0  0  0  0  0  0  0
   -3.8592   -1.8265   -0.0737 H   0  0  0  0  0  0  0  0  0  0  0  0
  1  6  1  0  0  0  0
  1 13  1  0  0  0  0
  2  8  1  0  0  0  0
  2 19  1  0  0  0  0
  3 10  1  0  0  0  0
  3 20  1  0  0  0  0
  4 12  1  0  0  0  0
  4 21  1  0  0  0  0
  5 12  2  0  0  0  0
  6  8  1  0  0  0  0
  6  9  2  0  0  0  0
  7  9  1  0  0  0  0
  7 11  2  0  0  0  0
  7 12  1  0  0  0  0
  8 10  2  0  0  0  0
  9 14  1  0  0  0  0
 10 11  1  0  0  0  0
 11 15  1  0  0  0  0
 13 16  1  0  0  0  0
 13 17  1  0  0  0  0
 13 18  1  0  0  0  0
M  END
> <PUBCHEM_COMPOUND_CID>
19829

> <PUBCHEM_CONFORMER_RMSD>
0.6

> <PUBCHEM_CONFORMER_DIVERSEORDER>
1
3
2

> <PUBCHEM_MMFF94_PARTIAL_CHARGES>
18
1 -0.36
10 0.08
11 -0.15
12 0.63
13 0.28
14 0.15
15 0.15
19 0.45
2 -0.53
20 0.45
21 0.5
3 -0.53
4 -0.65
5 -0.57
6 0.08
7 0.09
8 0.08
9 -0.15

> <PUBCHEM_EFFECTIVE_ROTOR_COUNT>
2

> <PUBCHEM_PHARMACOPHORE_FEATURES>
7
1 1 acceptor
1 2 donor
1 3 donor
1 4 acceptor
1 5 acceptor
3 4 5 12 anion
6 6 7 8 9 10 11 rings

> <PUBCHEM_HEAVY_ATOM_COUNT>
13

> <PUBCHEM_ATOM_DEF_STEREO_COUNT>
0

> <PUBCHEM_ATOM_UDEF_STEREO_COUNT>
0

> <PUBCHEM_BOND_DEF_STEREO_COUNT>
0

> <PUBCHEM_BOND_UDEF_STEREO_COUNT>
0

> <PUBCHEM_ISOTOPIC_ATOM_COUNT>
0

> <PUBCHEM_COMPONENT_COUNT>
1

> <PUBCHEM_CACTVS_TAUTO_COUNT>
12

> <PUBCHEM_CONFORMER_ID>
00004D7500000001

> <PUBCHEM_MMFF94_ENERGY>
45.1536

> <PUBCHEM_FEATURE_SELFOVERLAP>
35.583

> <PUBCHEM_SHAPE_FINGERPRINT>
1 1 18194684765421426484
10130415 120 18268710683115810651
13380535 76 17542225662348740244
15442244 35 18336543940800727553
16945 1 18338801108890931581
17990270 104 18410573959598159115
19021347 11 18339361842699263414
193761 8 18122061172320009372
20201158 50 18341050727019453515
20645476 183 17555439636315215388
20645477 70 18410015434004755191
20711985 365 18124316270409939733
20871998 184 17756438414556565742
20871998 22 18118116102992928406
21040471 1 17616814327600332900
21501502 16 18338232790297117925
21650355 55 17478068497733204378
2334 1 18337952397509604660
23402655 69 18334586759033313965
23463225 33 18338799021563140974
23552423 10 18338795594411230517
241688 4 18194398024915037848
2748010 2 18265337385515299596
53812653 166 18334296422695020040
7364860 26 18334857177872394312
81228 2 17760360389496070200

> <PUBCHEM_SHAPE_MULTIPOLES>
238.19
4.32
2.55
0.66
2.25
0.67
-0.03
-1.83
-0.29
-1.47
-0.29
-0.15
-0.12
-0.31

> <PUBCHEM_SHAPE_SELFOVERLAP>
503.497

> <PUBCHEM_SHAPE_VOLUME>
134.1

> <PUBCHEM_COORDINATE_TYPE>
2
5
10

$$$$

