440054
  -OEChem-07051212482D

 56 59  0     1  0  0  0  0  0999 V2000
    8.0319    1.8625    0.0000 O   0  0  0  0  0  0  0  0  0  0  0  0
    4.7950    1.1062    0.0000 O   0  0  0  0  0  0  0  0  0  0  0  0
    9.0465    2.4920    0.0000 O   0  0  0  0  0  0  0  0  0  0  0  0
    2.0000   -2.4462    0.0000 O   0  0  0  0  0  0  0  0  0  0  0  0
   10.8722    1.6754    0.0000 O   0  0  0  0  0  0  0  0  0  0  0  0
    7.3931   -0.3938    0.0000 C   0  0  1  0  0  0  0  0  0  0  0  0
    6.5271   -0.8938    0.0000 C   0  0  1  0  0  0  0  0  0  0  0  0
    7.3931    0.6062    0.0000 C   0  0  1  0  0  0  0  0  0  0  0  0
    5.6610   -0.3938    0.0000 C   0  0  1  0  0  0  0  0  0  0  0  0
    4.7510   -0.9007    0.0000 C   0  0  2  0  0  0  0  0  0  0  0  0
    8.3393    0.9109    0.0000 C   0  0  1  0  0  0  0  0  0  0  0  0
    4.7430   -1.9423    0.0000 C   0  0  1  0  0  0  0  0  0  0  0  0
    8.3393   -0.6986    0.0000 C   0  0  0  0  0  0  0  0  0  0  0  0
    6.5431   -1.9353    0.0000 C   0  0  0  0  0  0  0  0  0  0  0  0
    6.5271    1.1062    0.0000 C   0  0  0  0  0  0  0  0  0  0  0  0
    8.9229    0.1062    0.0000 C   0  0  0  0  0  0  0  0  0  0  0  0
    5.6451   -2.4631    0.0000 C   0  0  0  0  0  0  0  0  0  0  0  0
    5.6610    0.6062    0.0000 C   0  0  0  0  0  0  0  0  0  0  0  0
    3.8242   -0.3366    0.0000 C   0  0  0  0  0  0  0  0  0  0  0  0
    7.3931    1.6062    0.0000 C   0  0  0  0  0  0  0  0  0  0  0  0
    3.8076   -2.4920    0.0000 C   0  0  0  0  0  0  0  0  0  0  0  0
    4.7587    0.0993    0.0000 C   0  0  0  0  0  0  0  0  0  0  0  0
    2.8763   -0.8645    0.0000 C   0  0  0  0  0  0  0  0  0  0  0  0
    9.1493    1.4973    0.0000 C   0  0  0  0  0  0  0  0  0  0  0  0
    2.8680   -1.9495    0.0000 C   0  0  0  0  0  0  0  0  0  0  0  0
   10.0622    1.0890    0.0000 C   0  0  0  0  0  0  0  0  0  0  0  0
    7.4830   -1.2390    0.0000 H   0  0  0  0  0  0  0  0  0  0  0  0
    7.2664   -1.3131    0.0000 H   0  0  0  0  0  0  0  0  0  0  0  0
    6.3972    0.0312    0.0000 H   0  0  0  0  0  0  0  0  0  0  0  0
    4.7463   -2.7923    0.0000 H   0  0  0  0  0  0  0  0  0  0  0  0
    8.0883   -1.2655    0.0000 H   0  0  0  0  0  0  0  0  0  0  0  0
    8.8767   -1.0078    0.0000 H   0  0  0  0  0  0  0  0  0  0  0  0
    6.7612   -2.5157    0.0000 H   0  0  0  0  0  0  0  0  0  0  0  0
    7.1523   -1.8198    0.0000 H   0  0  0  0  0  0  0  0  0  0  0  0
    6.9256    1.5811    0.0000 H   0  0  0  0  0  0  0  0  0  0  0  0
    6.1285    1.5811    0.0000 H   0  0  0  0  0  0  0  0  0  0  0  0
    9.3838   -0.3086    0.0000 H   0  0  0  0  0  0  0  0  0  0  0  0
    9.3838    0.5209    0.0000 H   0  0  0  0  0  0  0  0  0  0  0  0
    5.2478   -2.9390    0.0000 H   0  0  0  0  0  0  0  0  0  0  0  0
    6.0460   -2.9360    0.0000 H   0  0  0  0  0  0  0  0  0  0  0  0
    4.2324    0.1301    0.0000 H   0  0  0  0  0  0  0  0  0  0  0  0
    3.4343    0.1455    0.0000 H   0  0  0  0  0  0  0  0  0  0  0  0
    8.0131    1.6062    0.0000 H   0  0  0  0  0  0  0  0  0  0  0  0
    7.3931    2.2262    0.0000 H   0  0  0  0  0  0  0  0  0  0  0  0
    6.7731    1.6062    0.0000 H   0  0  0  0  0  0  0  0  0  0  0  0
    3.4103   -2.9680    0.0000 H   0  0  0  0  0  0  0  0  0  0  0  0
    4.2085   -2.9649    0.0000 H   0  0  0  0  0  0  0  0  0  0  0  0
    5.3787    0.0945    0.0000 H   0  0  0  0  0  0  0  0  0  0  0  0
    4.7635    0.7193    0.0000 H   0  0  0  0  0  0  0  0  0  0  0  0
    4.1388    0.1041    0.0000 H   0  0  0  0  0  0  0  0  0  0  0  0
    2.6718   -0.2792    0.0000 H   0  0  0  0  0  0  0  0  0  0  0  0
    2.2647   -0.9659    0.0000 H   0  0  0  0  0  0  0  0  0  0  0  0
    8.4476    2.3225    0.0000 H   0  0  0  0  0  0  0  0  0  0  0  0
    9.7146    0.5756    0.0000 H   0  0  0  0  0  0  0  0  0  0  0  0
   10.5074    0.6575    0.0000 H   0  0  0  0  0  0  0  0  0  0  0  0
   11.4382    1.4222    0.0000 H   0  0  0  0  0  0  0  0  0  0  0  0
 11  1  1  6  0  0  0
  1 53  1  0  0  0  0
  2 18  2  0  0  0  0
  3 24  2  0  0  0  0
  4 25  2  0  0  0  0
  5 26  1  0  0  0  0
  5 56  1  0  0  0  0
  6  7  1  0  0  0  0
  6  8  1  0  0  0  0
  6 13  1  0  0  0  0
  6 27  1  6  0  0  0
  7  9  1  0  0  0  0
  7 14  1  0  0  0  0
  7 28  1  1  0  0  0
  8 11  1  0  0  0  0
  8 15  1  0  0  0  0
  8 20  1  1  0  0  0
  9 10  1  0  0  0  0
  9 18  1  0  0  0  0
  9 29  1  6  0  0  0
 10 12  1  0  0  0  0
 10 19  1  0  0  0  0
 10 22  1  1  0  0  0
 11 16  1  0  0  0  0
 11 24  1  0  0  0  0
 12 17  1  0  0  0  0
 12 21  1  0  0  0  0
 12 30  1  6  0  0  0
 13 16  1  0  0  0  0
 13 31  1  0  0  0  0
 13 32  1  0  0  0  0
 14 17  1  0  0  0  0
 14 33  1  0  0  0  0
 14 34  1  0  0  0  0
 15 18  1  0  0  0  0
 15 35  1  0  0  0  0
 15 36  1  0  0  0  0
 16 37  1  0  0  0  0
 16 38  1  0  0  0  0
 17 39  1  0  0  0  0
 17 40  1  0  0  0  0
 19 23  1  0  0  0  0
 19 41  1  0  0  0  0
 19 42  1  0  0  0  0
 20 43  1  0  0  0  0
 20 44  1  0  0  0  0
 20 45  1  0  0  0  0
 21 25  1  0  0  0  0
 21 46  1  0  0  0  0
 21 47  1  0  0  0  0
 22 48  1  0  0  0  0
 22 49  1  0  0  0  0
 22 50  1  0  0  0  0
 23 25  1  0  0  0  0
 23 51  1  0  0  0  0
 23 52  1  0  0  0  0
 24 26  1  0  0  0  0
 26 54  1  0  0  0  0
 26 55  1  0  0  0  0
M  END
> <PUBCHEM_COMPOUND_CID>
440054

> <PUBCHEM_COMPOUND_CANONICALIZED>
1

> <PUBCHEM_CACTVS_COMPLEXITY>
671

> <PUBCHEM_CACTVS_HBOND_ACCEPTOR>
5

> <PUBCHEM_CACTVS_HBOND_DONOR>
2

> <PUBCHEM_CACTVS_ROTATABLE_BOND>
2

> <PUBCHEM_CACTVS_SUBSKEYS>
AAADceB4OAAAAAAAAAAAAAAAAAAAAYAAAAAwYMAAAAAAAGDAAAAAGgAACAAAD0SggAICAAAAAgAIAIAQAAIAAAAAAAAAAAFAAAAAEBIAAAAAQAAFAAAAAAGKyvCvgAAAAAAAAACAAAQAACAAAYAADAAAAA==

> <PUBCHEM_IUPAC_OPENEYE_NAME>
(5S,8S,9S,10S,13S,14S,17R)-17-hydroxy-17-(2-hydroxyacetyl)-10,13-dimethyl-1,2,4,5,6,7,8,9,12,14,15,16-dodecahydrocyclopenta[a]phenanthrene-3,11-dione

> <PUBCHEM_IUPAC_CAS_NAME>
(5S,8S,9S,10S,13S,14S,17R)-17-hydroxy-17-(2-hydroxy-1-oxoethyl)-10,13-dimethyl-1,2,4,5,6,7,8,9,12,14,15,16-dodecahydrocyclopenta[a]phenanthrene-3,11-dione

> <PUBCHEM_IUPAC_NAME>
(5S,8S,9S,10S,13S,14S,17R)-17-hydroxy-17-(2-hydroxyacetyl)-10,13-dimethyl-1,2,4,5,6,7,8,9,12,14,15,16-dodecahydrocyclopenta[a]phenanthrene-3,11-dione

> <PUBCHEM_IUPAC_SYSTEMATIC_NAME>
(5S,8S,9S,10S,13S,14S,17R)-10,13-dimethyl-17-oxidanyl-17-(2-oxidanylethanoyl)-1,2,4,5,6,7,8,9,12,14,15,16-dodecahydrocyclopenta[a]phenanthrene-3,11-dione

> <PUBCHEM_IUPAC_TRADITIONAL_NAME>
(5S,8S,9S,10S,13S,14S,17R)-17-glycoloyl-17-hydroxy-10,13-dimethyl-1,2,4,5,6,7,8,9,12,14,15,16-dodecahydrocyclopenta[a]phenanthrene-3,11-quinone

> <PUBCHEM_IUPAC_INCHI>
InChI=1S/C21H30O5/c1-19-7-5-13(23)9-12(19)3-4-14-15-6-8-21(26,17(25)11-22)20(15,2)10-16(24)18(14)19/h12,14-15,18,22,26H,3-11H2,1-2H3/t12-,14-,15-,18+,19-,20-,21-/m0/s1

> <PUBCHEM_IUPAC_INCHIKEY>
YCLWEYIBFOLMEM-FZPGBCFJSA-N

> <PUBCHEM_XLOGP3_AA>
1.8

> <PUBCHEM_EXACT_MASS>
362.209324

> <PUBCHEM_MOLECULAR_FORMULA>
C21H30O5

> <PUBCHEM_MOLECULAR_WEIGHT>
362.4599

> <PUBCHEM_OPENEYE_CAN_SMILES>
CC12CCC(=O)CC1CCC3C2C(=O)CC4(C3CCC4(C(=O)CO)O)C

> <PUBCHEM_OPENEYE_ISO_SMILES>
C[C@]12CCC(=O)C[C@@H]1CC[C@@H]3[C@@H]2C(=O)C[C@]4([C@H]3CC[C@@]4(C(=O)CO)O)C

> <PUBCHEM_CACTVS_TPSA>
91.7

> <PUBCHEM_MONOISOTOPIC_WEIGHT>
362.209324

> <PUBCHEM_TOTAL_CHARGE>
0

> <PUBCHEM_HEAVY_ATOM_COUNT>
26

> <PUBCHEM_ATOM_DEF_STEREO_COUNT>
7

> <PUBCHEM_ATOM_UDEF_STEREO_COUNT>
0

> <PUBCHEM_BOND_DEF_STEREO_COUNT>
0

> <PUBCHEM_BOND_UDEF_STEREO_COUNT>
0

> <PUBCHEM_ISOTOPIC_ATOM_COUNT>
0

> <PUBCHEM_COMPONENT_COUNT>
1

> <PUBCHEM_CACTVS_TAUTO_COUNT>
27

> <PUBCHEM_COORDINATE_TYPE>
1
5
255

> <PUBCHEM_BONDANNOTATIONS>
11  1  6
10  22  5
12  30  6
6  27  6
7  28  5
8  20  5
9  29  6

$$$$

