440054
  -OEChem-07051212483D

 56 59  0     1  0  0  0  0  0999 V2000
   -3.3215   -0.2963    1.8623 O   0  0  0  0  0  0  0  0  0  0  0  0
    0.4319    2.4506   -0.5833 O   0  0  0  0  0  0  0  0  0  0  0  0
   -5.4217   -0.4090   -0.6272 O   0  0  0  0  0  0  0  0  0  0  0  0
    6.5015    0.3891    0.9689 O   0  0  0  0  0  0  0  0  0  0  0  0
   -5.8929    2.1328    0.3313 O   0  0  0  0  0  0  0  0  0  0  0  0
   -1.0530   -1.2261    0.2670 C   0  0  1  0  0  0  0  0  0  0  0  0
    0.3742   -1.1198   -0.2917 C   0  0  1  0  0  0  0  0  0  0  0  0
   -1.9633   -0.0495   -0.1641 C   0  0  1  0  0  0  0  0  0  0  0  0
    1.0216    0.2068    0.2143 C   0  0  1  0  0  0  0  0  0  0  0  0
    2.5058    0.3702   -0.2754 C   0  0  2  0  0  0  0  0  0  0  0  0
   -3.3027   -0.5215    0.4553 C   0  0  1  0  0  0  0  0  0  0  0  0
    3.2930   -0.9049    0.1849 C   0  0  1  0  0  0  0  0  0  0  0  0
   -1.8782   -2.4623   -0.0837 C   0  0  0  0  0  0  0  0  0  0  0  0
    1.2179   -2.3368    0.1104 C   0  0  0  0  0  0  0  0  0  0  0  0
   -1.3666    1.2391    0.4112 C   0  0  0  0  0  0  0  0  0  0  0  0
   -3.3375   -2.0392    0.1762 C   0  0  0  0  0  0  0  0  0  0  0  0
    2.6703   -2.2051   -0.3349 C   0  0  0  0  0  0  0  0  0  0  0  0
    0.0724    1.3942   -0.0672 C   0  0  0  0  0  0  0  0  0  0  0  0
    3.1841    1.5845    0.4256 C   0  0  0  0  0  0  0  0  0  0  0  0
   -2.0948    0.0948   -1.7059 C   0  0  0  0  0  0  0  0  0  0  0  0
    4.7859   -0.8485   -0.1524 C   0  0  0  0  0  0  0  0  0  0  0  0
    2.5669    0.5560   -1.8118 C   0  0  0  0  0  0  0  0  0  0  0  0
    4.6808    1.7072    0.1481 C   0  0  0  0  0  0  0  0  0  0  0  0
   -4.5171    0.1950   -0.0526 C   0  0  0  0  0  0  0  0  0  0  0  0
    5.4037    0.4087    0.4129 C   0  0  0  0  0  0  0  0  0  0  0  0
   -4.5605    1.6900    0.1819 C   0  0  0  0  0  0  0  0  0  0  0  0
   -0.9619   -1.2169    1.3657 H   0  0  0  0  0  0  0  0  0  0  0  0
    0.3202   -1.1103   -1.3854 H   0  0  0  0  0  0  0  0  0  0  0  0
    1.0589    0.1557    1.3141 H   0  0  0  0  0  0  0  0  0  0  0  0
    3.2274   -0.9430    1.2841 H   0  0  0  0  0  0  0  0  0  0  0  0
   -1.6017   -3.3246    0.5319 H   0  0  0  0  0  0  0  0  0  0  0  0
   -1.7446   -2.7501   -1.1325 H   0  0  0  0  0  0  0  0  0  0  0  0
    0.7974   -3.2498   -0.3271 H   0  0  0  0  0  0  0  0  0  0  0  0
    1.1870   -2.4666    1.1999 H   0  0  0  0  0  0  0  0  0  0  0  0
   -1.3474    1.2424    1.5065 H   0  0  0  0  0  0  0  0  0  0  0  0
   -1.9200    2.1241    0.0856 H   0  0  0  0  0  0  0  0  0  0  0  0
   -3.9340   -2.3064   -0.7029 H   0  0  0  0  0  0  0  0  0  0  0  0
   -3.7403   -2.5978    1.0288 H   0  0  0  0  0  0  0  0  0  0  0  0
    3.2333   -3.0656    0.0472 H   0  0  0  0  0  0  0  0  0  0  0  0
    2.7324   -2.2565   -1.4280 H   0  0  0  0  0  0  0  0  0  0  0  0
    3.0402    1.4958    1.5110 H   0  0  0  0  0  0  0  0  0  0  0  0
    2.7140    2.5273    0.1299 H   0  0  0  0  0  0  0  0  0  0  0  0
   -1.1329    0.2842   -2.1916 H   0  0  0  0  0  0  0  0  0  0  0  0
   -2.5206   -0.7974   -2.1755 H   0  0  0  0  0  0  0  0  0  0  0  0
   -2.7394    0.9375   -1.9743 H   0  0  0  0  0  0  0  0  0  0  0  0
    4.9713   -0.8779   -1.2304 H   0  0  0  0  0  0  0  0  0  0  0  0
    5.2982   -1.7094    0.2935 H   0  0  0  0  0  0  0  0  0  0  0  0
    3.5939    0.6035   -2.1847 H   0  0  0  0  0  0  0  0  0  0  0  0
    2.0778   -0.2584   -2.3522 H   0  0  0  0  0  0  0  0  0  0  0  0
    2.0845    1.4863   -2.1252 H   0  0  0  0  0  0  0  0  0  0  0  0
    5.1055    2.4828    0.7951 H   0  0  0  0  0  0  0  0  0  0  0  0
    4.8721    2.0016   -0.8886 H   0  0  0  0  0  0  0  0  0  0  0  0
   -4.0993   -0.7472    2.2333 H   0  0  0  0  0  0  0  0  0  0  0  0
   -4.1243    2.2061   -0.6755 H   0  0  0  0  0  0  0  0  0  0  0  0
   -4.0224    1.9704    1.0897 H   0  0  0  0  0  0  0  0  0  0  0  0
   -6.2454    1.7321    1.1443 H   0  0  0  0  0  0  0  0  0  0  0  0
  1 11  1  0  0  0  0
  1 53  1  0  0  0  0
  2 18  2  0  0  0  0
  3 24  2  0  0  0  0
  4 25  2  0  0  0  0
  5 26  1  0  0  0  0
  5 56  1  0  0  0  0
  6  7  1  0  0  0  0
  6  8  1  0  0  0  0
  6 13  1  0  0  0  0
  6 27  1  0  0  0  0
  7  9  1  0  0  0  0
  7 14  1  0  0  0  0
  7 28  1  0  0  0  0
  8 11  1  0  0  0  0
  8 15  1  0  0  0  0
  8 20  1  0  0  0  0
  9 10  1  0  0  0  0
  9 18  1  0  0  0  0
  9 29  1  0  0  0  0
 10 12  1  0  0  0  0
 10 19  1  0  0  0  0
 10 22  1  0  0  0  0
 11 16  1  0  0  0  0
 11 24  1  0  0  0  0
 12 17  1  0  0  0  0
 12 21  1  0  0  0  0
 12 30  1  0  0  0  0
 13 16  1  0  0  0  0
 13 31  1  0  0  0  0
 13 32  1  0  0  0  0
 14 17  1  0  0  0  0
 14 33  1  0  0  0  0
 14 34  1  0  0  0  0
 15 18  1  0  0  0  0
 15 35  1  0  0  0  0
 15 36  1  0  0  0  0
 16 37  1  0  0  0  0
 16 38  1  0  0  0  0
 17 39  1  0  0  0  0
 17 40  1  0  0  0  0
 19 23  1  0  0  0  0
 19 41  1  0  0  0  0
 19 42  1  0  0  0  0
 20 43  1  0  0  0  0
 20 44  1  0  0  0  0
 20 45  1  0  0  0  0
 21 25  1  0  0  0  0
 21 46  1  0  0  0  0
 21 47  1  0  0  0  0
 22 48  1  0  0  0  0
 22 49  1  0  0  0  0
 22 50  1  0  0  0  0
 23 25  1  0  0  0  0
 23 51  1  0  0  0  0
 23 52  1  0  0  0  0
 24 26  1  0  0  0  0
 26 54  1  0  0  0  0
 26 55  1  0  0  0  0
M  END
> <PUBCHEM_COMPOUND_CID>
440054

> <PUBCHEM_CONFORMER_RMSD>
0.8

> <PUBCHEM_CONFORMER_DIVERSEORDER>
1
2

> <PUBCHEM_MMFF94_PARTIAL_CHARGES>
16
1 -0.68
11 0.34
15 0.06
18 0.45
2 -0.57
21 0.06
23 0.06
24 0.45
25 0.45
26 0.34
3 -0.57
4 -0.57
5 -0.68
53 0.4
56 0.4
9 0.06

> <PUBCHEM_EFFECTIVE_ROTOR_COUNT>
3.8

> <PUBCHEM_PHARMACOPHORE_FEATURES>
11
1 1 acceptor
1 1 donor
1 2 acceptor
1 3 acceptor
1 4 acceptor
1 5 acceptor
1 5 donor
5 6 8 11 13 16 rings
6 10 12 19 21 23 25 rings
6 6 7 8 9 15 18 rings
6 7 9 10 12 14 17 rings

> <PUBCHEM_HEAVY_ATOM_COUNT>
26

> <PUBCHEM_ATOM_DEF_STEREO_COUNT>
7

> <PUBCHEM_ATOM_UDEF_STEREO_COUNT>
0

> <PUBCHEM_BOND_DEF_STEREO_COUNT>
0

> <PUBCHEM_BOND_UDEF_STEREO_COUNT>
0

> <PUBCHEM_ISOTOPIC_ATOM_COUNT>
0

> <PUBCHEM_COMPONENT_COUNT>
1

> <PUBCHEM_CACTVS_TAUTO_COUNT>
27

> <PUBCHEM_CONFORMER_ID>
0006B6F600000001

> <PUBCHEM_MMFF94_ENERGY>
82.437

> <PUBCHEM_FEATURE_SELFOVERLAP>
55.914

> <PUBCHEM_SHAPE_FINGERPRINT>
10 15 18272370833039676984
10906281 52 18200577151825446476
11089746 13 17749115486531772208
11132069 177 18342172237295789262
11578080 2 16843058656740368566
12236239 1 17748829630783170239
12403814 3 17704076174917588551
12422481 6 18131073748878891540
12633257 1 16702019742746727314
12788726 201 17313662771211020905
13140716 1 18194394485730013169
13224815 77 18408882910814905326
13402501 40 18411420600984448058
13583140 156 17967815990333135147
13675066 3 18202558454124141074
14790565 3 18411133619533064476
15196674 1 18410573955340147522
15238133 3 18272641368217895476
15375358 24 18408882927730926519
15788980 27 18060419075706105304
15840311 113 18046335608146286241
1601671 61 18410855468850231536
16945 1 18340193091017864911
17980427 23 17988079985559554852
1813 80 17060335232315882878
18608769 82 18337952291248681139
19141452 34 18411981338766006823
200 152 18113622278800443447
20511986 3 18115040678580105075
20642791 178 18200583688460183916
20715895 44 18268431402936284765
21033648 29 18270700704789375232
21267235 1 18410846646897994595
21279426 13 18264768929308102045
21304253 335 18340480162062772965
21421861 104 17987809643180572226
21452121 103 18408605889882772042
21859007 373 17487067914153712525
22182313 1 17986960828229075414
23402539 116 18335427829034564878
23559900 14 18335140873774783376
335352 9 18410854395271834334
34797466 226 16153704263537730920
34934 24 18410014355329445755
350125 39 18411982464744036876
3545911 37 18411418405929261518
3633792 109 18261677099070403637
3680242 22 18270684276623403506
4073 2 18201997686563025074
4214541 1 18410293596928248905
5104073 3 18342736338327028355
542803 24 17846777403925032500
7226269 152 18186518821659295449
7495541 125 13254789123107897332
9709674 26 18335414707540671726

> <PUBCHEM_SHAPE_MULTIPOLES>
505.72
11.97
2.44
1.06
1.81
0.39
0.22
-3.79
-2.01
-0.61
-0.04
-0.1
-0.1
0.08

> <PUBCHEM_SHAPE_SELFOVERLAP>
1086.556

> <PUBCHEM_SHAPE_VOLUME>
276.4

> <PUBCHEM_COORDINATE_TYPE>
2
5
10

$$$$

