5205
  -OEChem-06261200342D

 39 42  0     1  0  0  0  0  0999 V2000
    3.7815   -1.9815    0.0000 N   0  0  3  0  0  0  0  0  0  0  0  0
    3.6428    0.0831    0.0000 C   0  0  0  0  0  0  0  0  0  0  0  0
    4.5438   -0.3508    0.0000 C   0  0  0  0  0  0  0  0  0  0  0  0
    2.7732   -0.4903    0.0000 C   0  0  0  0  0  0  0  0  0  0  0  0
    4.6376   -1.3882    0.0000 C   0  0  0  0  0  0  0  0  0  0  0  0
    2.8430   -1.5296    0.0000 C   0  0  0  0  0  0  0  0  0  0  0  0
    3.4203    1.0581    0.0000 C   0  0  0  0  0  0  0  0  0  0  0  0
    5.4447    0.0831    0.0000 C   0  0  0  0  0  0  0  0  0  0  0  0
    4.0438    1.8399    0.0000 C   0  0  0  0  0  0  0  0  0  0  0  0
    5.6673    1.0581    0.0000 C   0  0  0  0  0  0  0  0  0  0  0  0
    5.0438    1.8399    0.0000 C   0  0  0  0  0  0  0  0  0  0  0  0
    3.8601   -2.9784    0.0000 C   0  0  0  0  0  0  0  0  0  0  0  0
    2.3880    1.1974    0.0000 C   0  0  0  0  0  0  0  0  0  0  0  0
    6.1973   -0.6370    0.0000 C   0  0  0  0  0  0  0  0  0  0  0  0
    3.6782    2.8153    0.0000 C   0  0  0  0  0  0  0  0  0  0  0  0
    6.6578    1.3804    0.0000 C   0  0  0  0  0  0  0  0  0  0  0  0
    2.0000    2.1641    0.0000 C   0  0  0  0  0  0  0  0  0  0  0  0
    7.1950   -0.3377    0.0000 C   0  0  0  0  0  0  0  0  0  0  0  0
    2.6494    2.9784    0.0000 C   0  0  0  0  0  0  0  0  0  0  0  0
    7.4268    0.6778    0.0000 C   0  0  0  0  0  0  0  0  0  0  0  0
    2.5255    0.0781    0.0000 H   0  0  0  0  0  0  0  0  0  0  0  0
    2.1708   -0.6371    0.0000 H   0  0  0  0  0  0  0  0  0  0  0  0
    4.8984   -1.9506    0.0000 H   0  0  0  0  0  0  0  0  0  0  0  0
    5.2364   -1.2274    0.0000 H   0  0  0  0  0  0  0  0  0  0  0  0
    2.2265   -1.4647    0.0000 H   0  0  0  0  0  0  0  0  0  0  0  0
    2.6736   -2.1260    0.0000 H   0  0  0  0  0  0  0  0  0  0  0  0
    5.6024    2.1089    0.0000 H   0  0  0  0  0  0  0  0  0  0  0  0
    4.9058    2.4443    0.0000 H   0  0  0  0  0  0  0  0  0  0  0  0
    3.2420   -3.0272    0.0000 H   0  0  0  0  0  0  0  0  0  0  0  0
    3.9088   -3.5965    0.0000 H   0  0  0  0  0  0  0  0  0  0  0  0
    4.4782   -2.9297    0.0000 H   0  0  0  0  0  0  0  0  0  0  0  0
    2.0071    0.7082    0.0000 H   0  0  0  0  0  0  0  0  0  0  0  0
    6.0524   -1.2399    0.0000 H   0  0  0  0  0  0  0  0  0  0  0  0
    4.0704    3.2955    0.0000 H   0  0  0  0  0  0  0  0  0  0  0  0
    6.7887    1.9864    0.0000 H   0  0  0  0  0  0  0  0  0  0  0  0
    1.3866    2.2541    0.0000 H   0  0  0  0  0  0  0  0  0  0  0  0
    7.6478   -0.7612    0.0000 H   0  0  0  0  0  0  0  0  0  0  0  0
    2.4252    3.5565    0.0000 H   0  0  0  0  0  0  0  0  0  0  0  0
    8.0185    0.8628    0.0000 H   0  0  0  0  0  0  0  0  0  0  0  0
  1  5  1  0  0  0  0
  1  6  1  0  0  0  0
  1 12  1  0  0  0  0
  2  3  2  0  0  0  0
  2  4  1  0  0  0  0
  2  7  1  0  0  0  0
  3  5  1  0  0  0  0
  3  8  1  0  0  0  0
  4  6  1  0  0  0  0
  4 21  1  0  0  0  0
  4 22  1  0  0  0  0
  5 23  1  0  0  0  0
  5 24  1  0  0  0  0
  6 25  1  0  0  0  0
  6 26  1  0  0  0  0
  7  9  1  0  0  0  0
  7 13  2  0  0  0  0
  8 10  1  0  0  0  0
  8 14  2  0  0  0  0
  9 11  1  0  0  0  0
  9 15  2  0  0  0  0
 10 11  1  0  0  0  0
 10 16  2  0  0  0  0
 11 27  1  0  0  0  0
 11 28  1  0  0  0  0
 12 29  1  0  0  0  0
 12 30  1  0  0  0  0
 12 31  1  0  0  0  0
 13 17  1  0  0  0  0
 13 32  1  0  0  0  0
 14 18  1  0  0  0  0
 14 33  1  0  0  0  0
 15 19  1  0  0  0  0
 15 34  1  0  0  0  0
 16 20  1  0  0  0  0
 16 35  1  0  0  0  0
 17 19  2  0  0  0  0
 17 36  1  0  0  0  0
 18 20  2  0  0  0  0
 18 37  1  0  0  0  0
 19 38  1  0  0  0  0
 20 39  1  0  0  0  0
M  END
> <PUBCHEM_COMPOUND_CID>
5205

> <PUBCHEM_COMPOUND_CANONICALIZED>
1

> <PUBCHEM_CACTVS_COMPLEXITY>
397

> <PUBCHEM_CACTVS_HBOND_ACCEPTOR>
1

> <PUBCHEM_CACTVS_HBOND_DONOR>
0

> <PUBCHEM_CACTVS_ROTATABLE_BOND>
0

> <PUBCHEM_CACTVS_SUBSKEYS>
AAADceB6AAAAAAAAAAAAAAAAAAAAAAAAAAAwYIAABAAAAAABQAAAHAAAAAAADADBGAQyAIMAAACAAiBCAACCAAAgAAAIiAAIAIgIICKAkRGEIAAggACIiAcQgMAOgAAAAAAQAAAAAAAAACAAAAAAAAAAAA==

> <PUBCHEM_IUPAC_INCHI>
InChI=1S/C19H19N/c1-20-11-10-18-16-8-4-2-6-14(16)12-15-7-3-5-9-17(15)19(18)13-20/h2-9H,10-13H2,1H3

> <PUBCHEM_IUPAC_INCHIKEY>
GVPIXRLYKVFFMK-UHFFFAOYSA-N

> <PUBCHEM_XLOGP3_AA>
3.3

> <PUBCHEM_EXACT_MASS>
261.15175

> <PUBCHEM_MOLECULAR_FORMULA>
C19H19N

> <PUBCHEM_MOLECULAR_WEIGHT>
261.36086

> <PUBCHEM_OPENEYE_CAN_SMILES>
CN1CCC2=C(C1)C3=CC=CC=C3CC4=CC=CC=C24

> <PUBCHEM_OPENEYE_ISO_SMILES>
CN1CCC2=C(C1)C3=CC=CC=C3CC4=CC=CC=C24

> <PUBCHEM_CACTVS_TPSA>
3.2

> <PUBCHEM_MONOISOTOPIC_WEIGHT>
261.15175

> <PUBCHEM_TOTAL_CHARGE>
0

> <PUBCHEM_HEAVY_ATOM_COUNT>
20

> <PUBCHEM_ATOM_DEF_STEREO_COUNT>
0

> <PUBCHEM_ATOM_UDEF_STEREO_COUNT>
0

> <PUBCHEM_BOND_DEF_STEREO_COUNT>
0

> <PUBCHEM_BOND_UDEF_STEREO_COUNT>
0

> <PUBCHEM_ISOTOPIC_ATOM_COUNT>
0

> <PUBCHEM_COMPONENT_COUNT>
1

> <PUBCHEM_CACTVS_TAUTO_COUNT>
1

> <PUBCHEM_COORDINATE_TYPE>
1
5
255

> <PUBCHEM_BONDANNOTATIONS>
10  16  8
13  17  8
14  18  8
15  19  8
16  20  8
17  19  8
18  20  8
7  13  8
7  9  8
8  10  8
8  14  8
9  15  8

$$$$

