23724603
  -OEChem-07051213082D

116117  0     1  0  0  0  0  0999 V2000
    4.2690   -9.0950    0.0000 O   0  0  0  0  0  0  0  0  0  0  0  0
    6.0010   -9.0950    0.0000 O   0  0  0  0  0  0  0  0  0  0  0  0
    6.0010  -11.0950    0.0000 O   0  0  0  0  0  0  0  0  0  0  0  0
    4.2690  -12.0950    0.0000 O   0  0  0  0  0  0  0  0  0  0  0  0
    2.5369  -11.0950    0.0000 O   0  0  0  0  0  0  0  0  0  0  0  0
    2.5369   -8.0950    0.0000 O   0  0  0  0  0  0  0  0  0  0  0  0
    5.1350  -10.5950    0.0000 C   0  0  2  0  0  0  0  0  0  0  0  0
    4.2690  -11.0950    0.0000 C   0  0  2  0  0  0  0  0  0  0  0  0
    5.1350   -9.5950    0.0000 C   0  0  1  0  0  0  0  0  0  0  0  0
    3.4030  -10.5950    0.0000 C   0  0  1  0  0  0  0  0  0  0  0  0
    3.4030   -9.5950    0.0000 C   0  0  1  0  0  0  0  0  0  0  0  0
    6.0010   -8.0950    0.0000 C   0  0  0  0  0  0  0  0  0  0  0  0
    6.0010   -7.0950    0.0000 C   0  0  0  0  0  0  0  0  0  0  0  0
    2.5369   -9.0950    0.0000 C   0  0  0  0  0  0  0  0  0  0  0  0
    7.0010   -8.0950    0.0000 C   0  0  0  0  0  0  0  0  0  0  0  0
    5.0010   -8.0950    0.0000 C   0  0  0  0  0  0  0  0  0  0  0  0
    6.8671   -6.5950    0.0000 C   0  0  0  0  0  0  0  0  0  0  0  0
    6.8671   -5.5950    0.0000 C   0  0  0  0  0  0  0  0  0  0  0  0
    7.7331   -5.0950    0.0000 C   0  0  0  0  0  0  0  0  0  0  0  0
    8.5991   -5.5950    0.0000 C   0  0  0  0  0  0  0  0  0  0  0  0
    7.7331   -4.0950    0.0000 C   0  0  0  0  0  0  0  0  0  0  0  0
    8.5991   -3.5950    0.0000 C   0  0  0  0  0  0  0  0  0  0  0  0
    8.5991   -2.5950    0.0000 C   0  0  0  0  0  0  0  0  0  0  0  0
    9.4651   -2.0950    0.0000 C   0  0  0  0  0  0  0  0  0  0  0  0
   10.3312   -2.5950    0.0000 C   0  0  0  0  0  0  0  0  0  0  0  0
    9.4651   -1.0950    0.0000 C   0  0  0  0  0  0  0  0  0  0  0  0
   10.3312   -0.5950    0.0000 C   0  0  0  0  0  0  0  0  0  0  0  0
   16.3933   10.9050    0.0000 C   0  0  0  0  0  0  0  0  0  0  0  0
   16.3933    9.9050    0.0000 C   0  0  0  0  0  0  0  0  0  0  0  0
   17.2594   11.4050    0.0000 C   0  0  0  0  0  0  0  0  0  0  0  0
   17.2594    9.4050    0.0000 C   0  0  0  0  0  0  0  0  0  0  0  0
   10.3312    0.4050    0.0000 C   0  0  0  0  0  0  0  0  0  0  0  0
   18.1254   10.9050    0.0000 C   0  0  0  0  0  0  0  0  0  0  0  0
   18.1254    9.9050    0.0000 C   0  0  0  0  0  0  0  0  0  0  0  0
   15.5273   11.4050    0.0000 C   0  0  0  0  0  0  0  0  0  0  0  0
   15.5273    9.4050    0.0000 C   0  0  0  0  0  0  0  0  0  0  0  0
   17.2594   12.4050    0.0000 C   0  0  0  0  0  0  0  0  0  0  0  0
   17.2594    8.4050    0.0000 C   0  0  0  0  0  0  0  0  0  0  0  0
   11.1972    0.9050    0.0000 C   0  0  0  0  0  0  0  0  0  0  0  0
   15.5273    8.4050    0.0000 C   0  0  0  0  0  0  0  0  0  0  0  0
   14.6613    7.9050    0.0000 C   0  0  0  0  0  0  0  0  0  0  0  0
   12.0632    0.4050    0.0000 C   0  0  0  0  0  0  0  0  0  0  0  0
   11.1972    1.9050    0.0000 C   0  0  0  0  0  0  0  0  0  0  0  0
   13.7953    8.4050    0.0000 C   0  0  0  0  0  0  0  0  0  0  0  0
   14.6613    6.9050    0.0000 C   0  0  0  0  0  0  0  0  0  0  0  0
   12.0632    2.4050    0.0000 C   0  0  0  0  0  0  0  0  0  0  0  0
   13.7953    6.4050    0.0000 C   0  0  0  0  0  0  0  0  0  0  0  0
   13.7953    5.4050    0.0000 C   0  0  0  0  0  0  0  0  0  0  0  0
   12.9292    4.9050    0.0000 C   0  0  0  0  0  0  0  0  0  0  0  0
   12.0632    3.4050    0.0000 C   0  0  0  0  0  0  0  0  0  0  0  0
   12.9292    3.9050    0.0000 C   0  0  0  0  0  0  0  0  0  0  0  0
   12.0632    5.4050    0.0000 C   0  0  0  0  0  0  0  0  0  0  0  0
    5.1350  -11.2150    0.0000 H   0  0  0  0  0  0  0  0  0  0  0  0
    4.8059  -11.4050    0.0000 H   0  0  0  0  0  0  0  0  0  0  0  0
    5.1350   -8.9750    0.0000 H   0  0  0  0  0  0  0  0  0  0  0  0
    3.4030  -11.2150    0.0000 H   0  0  0  0  0  0  0  0  0  0  0  0
    3.4030   -8.9750    0.0000 H   0  0  0  0  0  0  0  0  0  0  0  0
    5.7890   -6.5124    0.0000 H   0  0  0  0  0  0  0  0  0  0  0  0
    5.3905   -7.2027    0.0000 H   0  0  0  0  0  0  0  0  0  0  0  0
    1.9264   -8.9873    0.0000 H   0  0  0  0  0  0  0  0  0  0  0  0
    2.3249   -9.6776    0.0000 H   0  0  0  0  0  0  0  0  0  0  0  0
    7.0010   -8.7150    0.0000 H   0  0  0  0  0  0  0  0  0  0  0  0
    7.6210   -8.0950    0.0000 H   0  0  0  0  0  0  0  0  0  0  0  0
    7.0010   -7.4750    0.0000 H   0  0  0  0  0  0  0  0  0  0  0  0
    5.0010   -7.4750    0.0000 H   0  0  0  0  0  0  0  0  0  0  0  0
    4.3810   -8.0950    0.0000 H   0  0  0  0  0  0  0  0  0  0  0  0
    5.0010   -8.7150    0.0000 H   0  0  0  0  0  0  0  0  0  0  0  0
    7.0791   -7.1776    0.0000 H   0  0  0  0  0  0  0  0  0  0  0  0
    7.4776   -6.4873    0.0000 H   0  0  0  0  0  0  0  0  0  0  0  0
    6.5380  -10.7850    0.0000 H   0  0  0  0  0  0  0  0  0  0  0  0
    3.7320  -12.4050    0.0000 H   0  0  0  0  0  0  0  0  0  0  0  0
    2.0000  -10.7850    0.0000 H   0  0  0  0  0  0  0  0  0  0  0  0
    6.6550   -5.0124    0.0000 H   0  0  0  0  0  0  0  0  0  0  0  0
    6.2565   -5.7027    0.0000 H   0  0  0  0  0  0  0  0  0  0  0  0
    2.0000   -7.7850    0.0000 H   0  0  0  0  0  0  0  0  0  0  0  0
    8.2891   -6.1319    0.0000 H   0  0  0  0  0  0  0  0  0  0  0  0
    9.1360   -5.9050    0.0000 H   0  0  0  0  0  0  0  0  0  0  0  0
    8.9091   -5.0581    0.0000 H   0  0  0  0  0  0  0  0  0  0  0  0
    7.1962   -3.7850    0.0000 H   0  0  0  0  0  0  0  0  0  0  0  0
    9.1360   -3.9050    0.0000 H   0  0  0  0  0  0  0  0  0  0  0  0
    8.0622   -2.2850    0.0000 H   0  0  0  0  0  0  0  0  0  0  0  0
   10.0212   -3.1319    0.0000 H   0  0  0  0  0  0  0  0  0  0  0  0
   10.8681   -2.9050    0.0000 H   0  0  0  0  0  0  0  0  0  0  0  0
   10.6412   -2.0581    0.0000 H   0  0  0  0  0  0  0  0  0  0  0  0
    8.9282   -0.7850    0.0000 H   0  0  0  0  0  0  0  0  0  0  0  0
   10.8681   -0.9050    0.0000 H   0  0  0  0  0  0  0  0  0  0  0  0
   18.6623   11.2150    0.0000 H   0  0  0  0  0  0  0  0  0  0  0  0
   18.6623    9.5950    0.0000 H   0  0  0  0  0  0  0  0  0  0  0  0
    9.7942    0.7150    0.0000 H   0  0  0  0  0  0  0  0  0  0  0  0
   15.8373   11.9419    0.0000 H   0  0  0  0  0  0  0  0  0  0  0  0
   14.9904   11.7150    0.0000 H   0  0  0  0  0  0  0  0  0  0  0  0
   15.2173   10.8681    0.0000 H   0  0  0  0  0  0  0  0  0  0  0  0
   14.9904    9.7150    0.0000 H   0  0  0  0  0  0  0  0  0  0  0  0
   17.8794   12.4050    0.0000 H   0  0  0  0  0  0  0  0  0  0  0  0
   17.2594   13.0250    0.0000 H   0  0  0  0  0  0  0  0  0  0  0  0
   16.6394   12.4050    0.0000 H   0  0  0  0  0  0  0  0  0  0  0  0
   16.6394    8.4050    0.0000 H   0  0  0  0  0  0  0  0  0  0  0  0
   17.2594    7.7850    0.0000 H   0  0  0  0  0  0  0  0  0  0  0  0
   17.8794    8.4050    0.0000 H   0  0  0  0  0  0  0  0  0  0  0  0
   16.0643    8.0950    0.0000 H   0  0  0  0  0  0  0  0  0  0  0  0
   11.7532   -0.1319    0.0000 H   0  0  0  0  0  0  0  0  0  0  0  0
   12.6002    0.0950    0.0000 H   0  0  0  0  0  0  0  0  0  0  0  0
   12.3732    0.9419    0.0000 H   0  0  0  0  0  0  0  0  0  0  0  0
   10.6603    2.2150    0.0000 H   0  0  0  0  0  0  0  0  0  0  0  0
   14.1053    8.9419    0.0000 H   0  0  0  0  0  0  0  0  0  0  0  0
   13.2583    8.7150    0.0000 H   0  0  0  0  0  0  0  0  0  0  0  0
   13.4853    7.8681    0.0000 H   0  0  0  0  0  0  0  0  0  0  0  0
   15.1982    6.5950    0.0000 H   0  0  0  0  0  0  0  0  0  0  0  0
   13.2583    6.7150    0.0000 H   0  0  0  0  0  0  0  0  0  0  0  0
   12.6002    2.0950    0.0000 H   0  0  0  0  0  0  0  0  0  0  0  0
   14.3322    5.0950    0.0000 H   0  0  0  0  0  0  0  0  0  0  0  0
   11.5263    3.7150    0.0000 H   0  0  0  0  0  0  0  0  0  0  0  0
   13.4662    3.5950    0.0000 H   0  0  0  0  0  0  0  0  0  0  0  0
   12.3732    5.9419    0.0000 H   0  0  0  0  0  0  0  0  0  0  0  0
   11.5263    5.7150    0.0000 H   0  0  0  0  0  0  0  0  0  0  0  0
   11.7532    4.8681    0.0000 H   0  0  0  0  0  0  0  0  0  0  0  0
  1  9  1  0  0  0  0
  1 11  1  0  0  0  0
  9  2  1  1  0  0  0
  2 12  1  0  0  0  0
  7  3  1  6  0  0  0
  3 70  1  0  0  0  0
  8  4  1  1  0  0  0
  4 71  1  0  0  0  0
 10  5  1  6  0  0  0
  5 72  1  0  0  0  0
  6 14  1  0  0  0  0
  6 75  1  0  0  0  0
  7  8  1  0  0  0  0
  7  9  1  0  0  0  0
  7 53  1  0  0  0  0
  8 10  1  0  0  0  0
  8 54  1  0  0  0  0
  9 55  1  0  0  0  0
 10 11  1  0  0  0  0
 10 56  1  0  0  0  0
 11 14  1  1  0  0  0
 11 57  1  0  0  0  0
 12 13  1  0  0  0  0
 12 15  1  0  0  0  0
 12 16  1  0  0  0  0
 13 17  1  0  0  0  0
 13 58  1  0  0  0  0
 13 59  1  0  0  0  0
 14 60  1  0  0  0  0
 14 61  1  0  0  0  0
 15 62  1  0  0  0  0
 15 63  1  0  0  0  0
 15 64  1  0  0  0  0
 16 65  1  0  0  0  0
 16 66  1  0  0  0  0
 16 67  1  0  0  0  0
 17 18  1  0  0  0  0
 17 68  1  0  0  0  0
 17 69  1  0  0  0  0
 18 19  1  0  0  0  0
 18 73  1  0  0  0  0
 18 74  1  0  0  0  0
 19 20  1  0  0  0  0
 19 21  2  0  0  0  0
 20 76  1  0  0  0  0
 20 77  1  0  0  0  0
 20 78  1  0  0  0  0
 21 22  1  0  0  0  0
 21 79  1  0  0  0  0
 22 23  2  0  0  0  0
 22 80  1  0  0  0  0
 23 24  1  0  0  0  0
 23 81  1  0  0  0  0
 24 25  1  0  0  0  0
 24 26  2  0  0  0  0
 25 82  1  0  0  0  0
 25 83  1  0  0  0  0
 25 84  1  0  0  0  0
 26 27  1  0  0  0  0
 26 85  1  0  0  0  0
 27 32  2  0  0  0  0
 27 86  1  0  0  0  0
 28 29  1  0  0  0  0
 28 30  2  0  0  0  0
 28 35  1  0  0  0  0
 29 31  2  0  0  0  0
 29 36  1  0  0  0  0
 30 33  1  0  0  0  0
 30 37  1  0  0  0  0
 31 34  1  0  0  0  0
 31 38  1  0  0  0  0
 32 39  1  0  0  0  0
 32 89  1  0  0  0  0
 33 34  2  0  0  0  0
 33 87  1  0  0  0  0
 34 88  1  0  0  0  0
 35 90  1  0  0  0  0
 35 91  1  0  0  0  0
 35 92  1  0  0  0  0
 36 40  2  0  0  0  0
 36 93  1  0  0  0  0
 37 94  1  0  0  0  0
 37 95  1  0  0  0  0
 37 96  1  0  0  0  0
 38 97  1  0  0  0  0
 38 98  1  0  0  0  0
 38 99  1  0  0  0  0
 39 42  1  0  0  0  0
 39 43  2  0  0  0  0
 40 41  1  0  0  0  0
 40100  1  0  0  0  0
 41 44  1  0  0  0  0
 41 45  2  0  0  0  0
 42101  1  0  0  0  0
 42102  1  0  0  0  0
 42103  1  0  0  0  0
 43 46  1  0  0  0  0
 43104  1  0  0  0  0
 44105  1  0  0  0  0
 44106  1  0  0  0  0
 44107  1  0  0  0  0
 45 47  1  0  0  0  0
 45108  1  0  0  0  0
 46 50  2  0  0  0  0
 46110  1  0  0  0  0
 47 48  2  0  0  0  0
 47109  1  0  0  0  0
 48 49  1  0  0  0  0
 48111  1  0  0  0  0
 49 51  2  0  0  0  0
 49 52  1  0  0  0  0
 50 51  1  0  0  0  0
 50112  1  0  0  0  0
 51113  1  0  0  0  0
 52114  1  0  0  0  0
 52115  1  0  0  0  0
 52116  1  0  0  0  0
M  END
> <PUBCHEM_COMPOUND_CID>
23724603

> <PUBCHEM_COMPOUND_CANONICALIZED>
1

> <PUBCHEM_CACTVS_COMPLEXITY>
1400

> <PUBCHEM_CACTVS_HBOND_ACCEPTOR>
6

> <PUBCHEM_CACTVS_HBOND_DONOR>
4

> <PUBCHEM_CACTVS_ROTATABLE_BOND>
17

> <PUBCHEM_CACTVS_SUBSKEYS>
AAADcfB8OAAAAAAAAAAAAAAAAAAAAAAAAAA0QAAAAAAAAAABAAAAGgAACAAADFSwmAMyCIAABgCAAiBCAAACAAAgAAAIiAAAAIgZMCKAERCiYAAlgAAPiAfA4MwOwAACAAAQAACAAAQAACAAAAAAAAAAAA==

> <PUBCHEM_IUPAC_OPENEYE_NAME>
(2S,3R,4S,5S,6R)-2-[(5E,7E,9E,11E,13E,15E,17E,19E,21E,23E)-1,1,5,9,13,18,22-heptamethyl-24-(2,3,6-trimethylphenyl)tetracosa-5,7,9,11,13,15,17,19,21,23-decaenoxy]-6-(hydroxymethyl)tetrahydropyran-3,4,5-triol

> <PUBCHEM_IUPAC_CAS_NAME>
(2S,3R,4S,5S,6R)-2-[(6E,8E,10E,12E,14E,16E,18E,20E,22E,24E)-2,6,10,14,19,23-hexamethyl-25-(2,3,6-trimethylphenyl)pentacosa-6,8,10,12,14,16,18,20,22,24-decaen-2-yl]oxy-6-(hydroxymethyl)oxane-3,4,5-triol

> <PUBCHEM_IUPAC_NAME>
(2S,3R,4S,5S,6R)-2-[(6E,8E,10E,12E,14E,16E,18E,20E,22E,24E)-2,6,10,14,19,23-hexamethyl-25-(2,3,6-trimethylphenyl)pentacosa-6,8,10,12,14,16,18,20,22,24-decaen-2-yl]oxy-6-(hydroxymethyl)oxane-3,4,5-triol

> <PUBCHEM_IUPAC_SYSTEMATIC_NAME>
(2S,3R,4S,5S,6R)-2-[(6E,8E,10E,12E,14E,16E,18E,20E,22E,24E)-2,6,10,14,19,23-hexamethyl-25-(2,3,6-trimethylphenyl)pentacosa-6,8,10,12,14,16,18,20,22,24-decaen-2-yl]oxy-6-(hydroxymethyl)oxane-3,4,5-triol

> <PUBCHEM_IUPAC_TRADITIONAL_NAME>
(2S,3R,4S,5S,6R)-2-[(5E,7E,9E,11E,13E,15E,17E,19E,21E,23E)-1,1,5,9,13,18,22-heptamethyl-24-(2,3,6-trimethylphenyl)tetracosa-5,7,9,11,13,15,17,19,21,23-decaenoxy]-6-methylol-tetrahydropyran-3,4,5-triol

> <PUBCHEM_IUPAC_INCHI>
InChI=1S/C46H64O6/c1-32(17-11-12-18-33(2)20-15-24-36(5)26-29-40-38(7)28-27-37(6)39(40)8)19-13-21-34(3)22-14-23-35(4)25-16-30-46(9,10)52-45-44(50)43(49)42(48)41(31-47)51-45/h11-15,17-24,26-29,41-45,47-50H,16,25,30-31H2,1-10H3/b12-11+,19-13+,20-15+,22-14+,29-26+,32-17+,33-18+,34-21+,35-23+,36-24+/t41-,42-,43+,44-,45+/m1/s1

> <PUBCHEM_IUPAC_INCHIKEY>
GYOAOIUWKMSJGW-SAGFKILGSA-N

> <PUBCHEM_XLOGP3_AA>
11.9

> <PUBCHEM_EXACT_MASS>
712.47029

> <PUBCHEM_MOLECULAR_FORMULA>
C46H64O6

> <PUBCHEM_MOLECULAR_WEIGHT>
712.99676

> <PUBCHEM_OPENEYE_CAN_SMILES>
CC1=C(C(=C(C=C1)C)C=CC(=CC=CC(=CC=CC=C(C)C=CC=C(C)C=CC=C(C)CCCC(C)(C)OC2C(C(C(C(O2)CO)O)O)O)C)C)C

> <PUBCHEM_OPENEYE_ISO_SMILES>
CC1=C(C(=C(C=C1)C)/C=C/C(=C/C=C/C(=C/C=C/C=C(\C)/C=C/C=C(\C)/C=C/C=C(\C)/CCCC(C)(C)O[C@H]2[C@@H]([C@H]([C@@H]([C@H](O2)CO)O)O)O)/C)/C)C

> <PUBCHEM_CACTVS_TPSA>
99.4

> <PUBCHEM_MONOISOTOPIC_WEIGHT>
712.47029

> <PUBCHEM_TOTAL_CHARGE>
0

> <PUBCHEM_HEAVY_ATOM_COUNT>
52

> <PUBCHEM_ATOM_DEF_STEREO_COUNT>
5

> <PUBCHEM_ATOM_UDEF_STEREO_COUNT>
0

> <PUBCHEM_BOND_DEF_STEREO_COUNT>
10

> <PUBCHEM_BOND_UDEF_STEREO_COUNT>
0

> <PUBCHEM_ISOTOPIC_ATOM_COUNT>
0

> <PUBCHEM_COMPONENT_COUNT>
1

> <PUBCHEM_CACTVS_TAUTO_COUNT>
1

> <PUBCHEM_COORDINATE_TYPE>
1
5
255

> <PUBCHEM_BONDANNOTATIONS>
11  14  5
9  2  5
28  29  8
28  30  8
29  31  8
7  3  6
30  33  8
31  34  8
33  34  8
8  4  5
10  5  6

$$$$

