54675783
  -OEChem-07051212533D

 60 63  0     1  0  0  0  0  0999 V2000
   -2.7996   -1.3246    1.8801 O   0  0  0  0  0  0  0  0  0  0  0  0
   -0.4899   -2.5253    1.8456 O   0  0  0  0  0  0  0  0  0  0  0  0
   -2.0449   -2.4364   -0.8206 O   0  0  0  0  0  0  0  0  0  0  0  0
    1.6677   -2.9127    0.2696 O   0  0  0  0  0  0  0  0  0  0  0  0
   -4.1455    1.8153   -1.4048 O   0  0  0  0  0  0  0  0  0  0  0  0
    4.3102   -2.9882    0.2570 O   0  0  0  0  0  0  0  0  0  0  0  0
   -4.6524   -0.7100   -2.9376 O   0  0  0  0  0  0  0  0  0  0  0  0
   -4.2372    1.1826    1.5451 N   0  0  0  0  0  0  0  0  0  0  0  0
    4.4448    2.5143   -0.5399 N   0  0  0  0  0  0  0  0  0  0  0  0
   -2.4088   -0.9602   -3.4234 N   0  0  0  0  0  0  0  0  0  0  0  0
   -1.7888    0.7434    1.1635 C   0  0  1  0  0  0  0  0  0  0  0  0
   -1.8807   -0.7740    0.9291 C   0  0  1  0  0  0  0  0  0  0  0  0
   -0.5767    1.3596    0.4366 C   0  0  0  0  0  0  0  0  0  0  0  0
    0.7574    0.7177    0.8420 C   0  0  1  0  0  0  0  0  0  0  0  0
   -3.0745    1.4558    0.7028 C   0  0  1  0  0  0  0  0  0  0  0  0
    0.7124   -0.7859    0.7701 C   0  0  0  0  0  0  0  0  0  0  0  0
   -0.5419   -1.4536    1.2400 C   0  0  0  0  0  0  0  0  0  0  0  0
    1.8728    1.3176   -0.0405 C   0  0  0  0  0  0  0  0  0  0  0  0
   -2.3705   -1.1403   -0.4580 C   0  0  0  0  0  0  0  0  0  0  0  0
   -3.4669    1.0564   -0.7100 C   0  0  0  0  0  0  0  0  0  0  0  0
    3.1327    0.4929   -0.0624 C   0  0  0  0  0  0  0  0  0  0  0  0
   -3.0701   -0.2918   -1.2410 C   0  0  0  0  0  0  0  0  0  0  0  0
    1.7599   -1.5389    0.3825 C   0  0  0  0  0  0  0  0  0  0  0  0
    3.0687   -0.9039    0.1047 C   0  0  0  0  0  0  0  0  0  0  0  0
    4.3616    1.1188   -0.3225 C   0  0  0  0  0  0  0  0  0  0  0  0
   -5.3880    1.9610    1.0912 C   0  0  0  0  0  0  0  0  0  0  0  0
   -3.9339    1.4821    2.9431 C   0  0  0  0  0  0  0  0  0  0  0  0
    4.2655   -1.6377    0.0499 C   0  0  0  0  0  0  0  0  0  0  0  0
   -3.4733   -0.6708   -2.6074 C   0  0  0  0  0  0  0  0  0  0  0  0
    5.5345    0.3718   -0.3860 C   0  0  0  0  0  0  0  0  0  0  0  0
    5.4867   -1.0046   -0.1954 C   0  0  0  0  0  0  0  0  0  0  0  0
    4.6618    3.4148    0.5726 C   0  0  0  0  0  0  0  0  0  0  0  0
    4.3070    3.0549   -1.8756 C   0  0  0  0  0  0  0  0  0  0  0  0
   -1.6009    0.9308    2.2270 H   0  0  0  0  0  0  0  0  0  0  0  0
   -0.5298    2.4344    0.6579 H   0  0  0  0  0  0  0  0  0  0  0  0
   -0.7073    1.2793   -0.6503 H   0  0  0  0  0  0  0  0  0  0  0  0
    0.9652    0.9792    1.8895 H   0  0  0  0  0  0  0  0  0  0  0  0
   -2.8692    2.5364    0.6855 H   0  0  0  0  0  0  0  0  0  0  0  0
    2.0594    2.3347    0.3213 H   0  0  0  0  0  0  0  0  0  0  0  0
    1.5307    1.4044   -1.0807 H   0  0  0  0  0  0  0  0  0  0  0  0
   -2.9350   -2.2641    1.6666 H   0  0  0  0  0  0  0  0  0  0  0  0
   -3.2628    0.7481    3.3972 H   0  0  0  0  0  0  0  0  0  0  0  0
   -3.5145    2.4865    3.0743 H   0  0  0  0  0  0  0  0  0  0  0  0
   -4.8448    1.4259    3.5521 H   0  0  0  0  0  0  0  0  0  0  0  0
   -5.1538    3.0205    0.9356 H   0  0  0  0  0  0  0  0  0  0  0  0
   -5.8411    1.5425    0.1876 H   0  0  0  0  0  0  0  0  0  0  0  0
   -6.1952    1.9164    1.8335 H   0  0  0  0  0  0  0  0  0  0  0  0
   -2.4076   -2.6186   -1.7030 H   0  0  0  0  0  0  0  0  0  0  0  0
    0.7495   -3.1959    0.4057 H   0  0  0  0  0  0  0  0  0  0  0  0
    6.4901    0.8506   -0.5832 H   0  0  0  0  0  0  0  0  0  0  0  0
    6.4121   -1.5735   -0.2384 H   0  0  0  0  0  0  0  0  0  0  0  0
   -1.4440   -0.9043   -3.1118 H   0  0  0  0  0  0  0  0  0  0  0  0
   -2.5550   -1.2367   -4.3887 H   0  0  0  0  0  0  0  0  0  0  0  0
    5.2277   -3.3011    0.1815 H   0  0  0  0  0  0  0  0  0  0  0  0
    4.1658    3.0574    1.4818 H   0  0  0  0  0  0  0  0  0  0  0  0
    5.7330    3.5049    0.7800 H   0  0  0  0  0  0  0  0  0  0  0  0
    4.2694    4.4148    0.3592 H   0  0  0  0  0  0  0  0  0  0  0  0
    4.9413    2.5116   -2.5846 H   0  0  0  0  0  0  0  0  0  0  0  0
    3.2688    2.9836   -2.2151 H   0  0  0  0  0  0  0  0  0  0  0  0
    4.6025    4.1088   -1.9160 H   0  0  0  0  0  0  0  0  0  0  0  0
  1 12  1  0  0  0  0
  1 41  1  0  0  0  0
  2 17  2  0  0  0  0
  3 19  1  0  0  0  0
  3 48  1  0  0  0  0
  4 23  1  0  0  0  0
  4 49  1  0  0  0  0
  5 20  2  0  0  0  0
  6 28  1  0  0  0  0
  6 54  1  0  0  0  0
  7 29  2  0  0  0  0
  8 15  1  0  0  0  0
  8 26  1  0  0  0  0
  8 27  1  0  0  0  0
  9 25  1  0  0  0  0
  9 32  1  0  0  0  0
  9 33  1  0  0  0  0
 10 29  1  0  0  0  0
 10 52  1  0  0  0  0
 10 53  1  0  0  0  0
 11 12  1  0  0  0  0
 11 13  1  0  0  0  0
 11 15  1  0  0  0  0
 11 34  1  0  0  0  0
 12 17  1  0  0  0  0
 12 19  1  0  0  0  0
 13 14  1  0  0  0  0
 13 35  1  0  0  0  0
 13 36  1  0  0  0  0
 14 16  1  0  0  0  0
 14 18  1  0  0  0  0
 14 37  1  0  0  0  0
 15 20  1  0  0  0  0
 15 38  1  0  0  0  0
 16 17  1  0  0  0  0
 16 23  2  0  0  0  0
 18 21  1  0  0  0  0
 18 39  1  0  0  0  0
 18 40  1  0  0  0  0
 19 22  2  0  0  0  0
 20 22  1  0  0  0  0
 21 24  1  0  0  0  0
 21 25  2  0  0  0  0
 22 29  1  0  0  0  0
 23 24  1  0  0  0  0
 24 28  2  0  0  0  0
 25 30  1  0  0  0  0
 26 45  1  0  0  0  0
 26 46  1  0  0  0  0
 26 47  1  0  0  0  0
 27 42  1  0  0  0  0
 27 43  1  0  0  0  0
 27 44  1  0  0  0  0
 28 31  1  0  0  0  0
 30 31  2  0  0  0  0
 30 50  1  0  0  0  0
 31 51  1  0  0  0  0
 32 55  1  0  0  0  0
 32 56  1  0  0  0  0
 32 57  1  0  0  0  0
 33 58  1  0  0  0  0
 33 59  1  0  0  0  0
 33 60  1  0  0  0  0
M  END
> <PUBCHEM_COMPOUND_CID>
54675783

> <PUBCHEM_CONFORMER_RMSD>
0.8

> <PUBCHEM_CONFORMER_DIVERSEORDER>
1
4
5
3
2

> <PUBCHEM_MMFF94_PARTIAL_CHARGES>
39
1 -0.68
10 -0.8
12 0.48
14 0.14
15 0.33
16 -0.12
17 0.49
18 0.14
19 -0.06
2 -0.57
20 0.49
21 -0.14
22 0.03
23 0.05
24 0.03
25 0.1
26 0.27
27 0.27
28 0.08
29 0.62
3 -0.53
30 -0.15
31 -0.15
32 0.37
33 0.37
4 -0.53
41 0.4
48 0.45
49 0.45
5 -0.57
50 0.15
51 0.15
52 0.37
53 0.37
54 0.45
6 -0.53
7 -0.57
8 -0.81
9 -0.84

> <PUBCHEM_EFFECTIVE_ROTOR_COUNT>
3.6

> <PUBCHEM_PHARMACOPHORE_FEATURES>
16
1 1 acceptor
1 1 donor
1 10 donor
1 2 acceptor
1 22 anion
1 3 donor
1 4 donor
1 5 acceptor
1 6 donor
1 7 acceptor
1 8 cation
1 9 cation
6 11 12 13 14 16 17 rings
6 11 12 15 19 20 22 rings
6 14 16 18 21 23 24 rings
6 21 24 25 28 30 31 rings

> <PUBCHEM_HEAVY_ATOM_COUNT>
33

> <PUBCHEM_ATOM_DEF_STEREO_COUNT>
4

> <PUBCHEM_ATOM_UDEF_STEREO_COUNT>
0

> <PUBCHEM_BOND_DEF_STEREO_COUNT>
0

> <PUBCHEM_BOND_UDEF_STEREO_COUNT>
0

> <PUBCHEM_ISOTOPIC_ATOM_COUNT>
0

> <PUBCHEM_COMPONENT_COUNT>
1

> <PUBCHEM_CACTVS_TAUTO_COUNT>
288

> <PUBCHEM_CONFORMER_ID>
0342494700000001

> <PUBCHEM_MMFF94_ENERGY>
126.5864

> <PUBCHEM_FEATURE_SELFOVERLAP>
81.326

> <PUBCHEM_SHAPE_FINGERPRINT>
10369192 42 17556549103629931844
11135926 11 18272646858272776414
11331351 85 17826229885866476050
11578080 2 15982286239376477435
12236239 1 18114742762901271321
12403259 415 17489583484972524644
12616971 3 18333729147899318592
12714826 92 15647059226996319927
12788726 201 17314216937909044129
13140716 1 18341321233050565514
13224815 77 18334858294970118896
13583140 156 16200161966953578368
13726171 33 16806158831268046832
13782708 43 17059198405865248203
14790565 3 18264476468159268945
14848178 96 18272090444827095292
15484559 13 15748117956209109252
17349148 13 18411990186862750122
17980427 23 18262534675317068346
20511986 3 18041573532379386168
20775438 99 15948572622751341191
20775530 9 15868599665725974399
21033648 144 18272653403264709500
21033648 29 16988569000169290324
21033650 10 15720216435340449504
22122407 14 18052525853999336897
22182313 1 17346316024466727837
22393880 68 17240765038947453504
22907989 373 18041848290054016103
23557571 272 15482382162079290147
23559900 14 18410851080242780154
27425 322 18263354936576232301
335352 9 18341600560828568046
4015057 19 18412266129758332536
4169191 19 18198624321066411260
469060 322 16630240291339885323
497634 4 18340763759143704591
5081480 168 18058995294480200342
5104073 3 18271516516794568768
574716 61 18334305257379379772
6086070 43 17774741791830483922
633830 44 18410003334791231490

> <PUBCHEM_SHAPE_MULTIPOLES>
623.1
12.15
3.24
2.33
6.17
0.45
-1.4
5.29
-2.21
3.08
0.22
-4.26
-0.16
-2.55

> <PUBCHEM_SHAPE_SELFOVERLAP>
1367.891

> <PUBCHEM_SHAPE_VOLUME>
331.5

> <PUBCHEM_COORDINATE_TYPE>
2
5
10

$$$$

