156652
  -OEChem-07051213153D

 29 29  0     0  0  0  0  0  0999 V2000
    0.2126   -1.0516    1.4351 O   0  0  0  0  0  0  0  0  0  0  0  0
   -4.6033    1.6620   -0.2925 O   0  5  0  0  0  0  0  0  0  0  0  0
    5.3998   -0.3013    0.7024 O   0  0  0  0  0  0  0  0  0  0  0  0
    3.8317    0.2651   -0.5895 N   0  0  0  0  0  0  0  0  0  0  0  0
   -3.8196    0.6599   -0.2333 N   0  3  0  0  0  0  0  0  0  0  0  0
    4.3404   -0.6758    0.1854 N   0  0  0  0  0  0  0  0  0  0  0  0
    1.8859    1.1379    0.6199 C   0  0  0  0  0  0  0  0  0  0  0  0
    0.3588    1.2341    0.6738 C   0  0  0  0  0  0  0  0  0  0  0  0
    2.3745    0.3303   -0.5842 C   0  0  0  0  0  0  0  0  0  0  0  0
   -0.3258   -0.1139    0.8515 C   0  0  0  0  0  0  0  0  0  0  0  0
   -1.7055   -0.2901    0.3151 C   0  0  0  0  0  0  0  0  0  0  0  0
    4.3211    0.1481   -1.9704 C   0  0  0  0  0  0  0  0  0  0  0  0
   -2.5368    0.8006    0.2601 C   0  0  0  0  0  0  0  0  0  0  0  0
   -2.1030   -1.5338   -0.1062 C   0  0  0  0  0  0  0  0  0  0  0  0
   -3.3921   -1.6868   -0.6046 C   0  0  0  0  0  0  0  0  0  0  0  0
   -4.2388   -0.5847   -0.6627 C   0  0  0  0  0  0  0  0  0  0  0  0
    2.2479    0.6871    1.5526 H   0  0  0  0  0  0  0  0  0  0  0  0
    2.2991    2.1536    0.5757 H   0  0  0  0  0  0  0  0  0  0  0  0
    0.0083    1.7074   -0.2503 H   0  0  0  0  0  0  0  0  0  0  0  0
    0.0671    1.8688    1.5182 H   0  0  0  0  0  0  0  0  0  0  0  0
    2.0095    0.8516   -1.4801 H   0  0  0  0  0  0  0  0  0  0  0  0
    1.9289   -0.6727   -0.6154 H   0  0  0  0  0  0  0  0  0  0  0  0
    3.9660   -0.7681   -2.4589 H   0  0  0  0  0  0  0  0  0  0  0  0
    5.4180    0.1526   -2.0067 H   0  0  0  0  0  0  0  0  0  0  0  0
    3.9953    1.0068   -2.5693 H   0  0  0  0  0  0  0  0  0  0  0  0
   -2.2970    1.8019    0.5847 H   0  0  0  0  0  0  0  0  0  0  0  0
   -1.4427   -2.3947   -0.0670 H   0  0  0  0  0  0  0  0  0  0  0  0
   -3.7359   -2.6576   -0.9473 H   0  0  0  0  0  0  0  0  0  0  0  0
   -5.2517   -0.6217   -1.0363 H   0  0  0  0  0  0  0  0  0  0  0  0
  1 10  2  0  0  0  0
  2  5  1  0  0  0  0
  3  6  2  0  0  0  0
  4  6  1  0  0  0  0
  4  9  1  0  0  0  0
  4 12  1  0  0  0  0
  5 13  1  0  0  0  0
  5 16  2  0  0  0  0
  7  8  1  0  0  0  0
  7  9  1  0  0  0  0
  7 17  1  0  0  0  0
  7 18  1  0  0  0  0
  8 10  1  0  0  0  0
  8 19  1  0  0  0  0
  8 20  1  0  0  0  0
  9 21  1  0  0  0  0
  9 22  1  0  0  0  0
 10 11  1  0  0  0  0
 11 13  2  0  0  0  0
 11 14  1  0  0  0  0
 12 23  1  0  0  0  0
 12 24  1  0  0  0  0
 12 25  1  0  0  0  0
 13 26  1  0  0  0  0
 14 15  2  0  0  0  0
 14 27  1  0  0  0  0
 15 16  1  0  0  0  0
 15 28  1  0  0  0  0
 16 29  1  0  0  0  0
M  CHG  2   2  -1   5   1
M  END
> <PUBCHEM_COMPOUND_CID>
156652

> <PUBCHEM_CONFORMER_RMSD>
0.8

> <PUBCHEM_CONFORMER_DIVERSEORDER>
1
215
107
197
131
169
31
143
259
151
93
5
11
248
217
180
76
203
251
48
239
87
80
185
8
167
160
221
145
121
136
138
53
90
41
91
15
38
220
83
69
231
79
165
58
92
55
85
196
177
128
65
182
14
82
211
207
188
47
23
205
40
233
208
172
86
161
62
33
72
17
230
100
234
105
22
127
4
19
113
214
56
135
104
198
45
173
37
52
96
32
262
139
156
9
154
240
150
130
178
140
18
171
36
74
49
97
46
168
109
6
110
77
126
44
134
176
202
122
228
99
245
146
199
225
194
35
193
51
12
124
263
204
119
166
103
59
223
25
213
29
26
133
142
61
244
200
28
94
158
246
163
189
54
112
164
20
68
116
120
30
174
88
114
260
123
187
73
13
81
149
64
108
179
184
183
229
129
2
218
170
256
255
89
181
43
125
50
152
137
159
115
24
75
209
206
60
153
57
254
21
39
222
102
157
118
224
236
70
210
63
190
3
258
132
144
7
235
95
111
175
42
117
148
257
141
147
71
155
226
238
247
10
253
101
191
34
106
243
227
242
16
252
232
250
78
249
241
192
212
27
67
98
237
219
216
162
186
66
84
261
195
201

> <PUBCHEM_MMFF94_PARTIAL_CHARGES>
19
1 -0.57
10 0.42
11 0.09
12 0.27
13 -0.06
14 -0.15
15 -0.15
16 -0.06
2 -0.75
26 0.15
27 0.15
28 0.15
29 0.15
3 -0.16
4 -0.36
5 0.57
6 -0.01
8 0.06
9 0.27

> <PUBCHEM_EFFECTIVE_ROTOR_COUNT>
6

> <PUBCHEM_PHARMACOPHORE_FEATURES>
3
1 1 acceptor
1 2 anion
6 5 11 13 14 15 16 rings

> <PUBCHEM_HEAVY_ATOM_COUNT>
16

> <PUBCHEM_ATOM_DEF_STEREO_COUNT>
0

> <PUBCHEM_ATOM_UDEF_STEREO_COUNT>
0

> <PUBCHEM_BOND_DEF_STEREO_COUNT>
0

> <PUBCHEM_BOND_UDEF_STEREO_COUNT>
0

> <PUBCHEM_ISOTOPIC_ATOM_COUNT>
0

> <PUBCHEM_COMPONENT_COUNT>
1

> <PUBCHEM_CACTVS_TAUTO_COUNT>
2

> <PUBCHEM_CONFORMER_ID>
000263EC00000001

> <PUBCHEM_MMFF94_ENERGY>
37.2596

> <PUBCHEM_FEATURE_SELFOVERLAP>
15.223

> <PUBCHEM_SHAPE_FINGERPRINT>
10062212 137 18341901796158861458
10366900 7 14273458059552124442
10922049 32 13973964311585664312
11401426 45 18408889538059966240
11458722 120 17846220002974470624
12186901 62 18409729543811661431
12251169 10 8718828690951755987
12815109 37 18187368731620794960
13544653 18 15646765700162041592
13549 16 18411980256281215432
13897977 58 9439401345596716290
14252887 29 16370718232603339636
15375358 24 17458343052623832118
15880784 105 4823218299168877942
17834072 14 17675923188236107272
17834072 8 18333733532950177685
17870717 6 17968361412234780629
1798214 20 17894346692063592198
18186145 218 15267060311919012132
19784866 170 10735887196160448195
1986462 14 18409731733938988223
200 152 15357695301437545825
20325693 3 18411694375311572519
20374829 77 18261114066795049036
20432913 95 15430032154164637958
20645477 70 17458061526091761036
20671657 53 17240752965525248968
22485316 2 18333170561753768448
231179 274 14476969969186843542
23175994 123 16877657942508333641
23402539 116 18271812332445579212
23402655 69 18201715154834156340
23403322 49 17603859009712667007
23503958 25 12463576149308653614
23559900 14 18113341882098226208
3004659 81 18341893039422080166
32948 21 18413390951280236972
449060 50 10735887178737998963
4990 188 18334295365995661640
5283173 99 18333736835849198024
559249 180 18411143575314729434
633830 44 16917066663745433442
9709674 26 18046634408223905939
9882013 296 7781519213333734400
9981440 41 17263842482107634832

> <PUBCHEM_SHAPE_MULTIPOLES>
296.72
10.56
1.47
1.19
6.94
0
0.21
1.04
3.11
-1.51
0.01
1.19
0.14
0.24

> <PUBCHEM_SHAPE_SELFOVERLAP>
602.349

> <PUBCHEM_SHAPE_VOLUME>
173.3

> <PUBCHEM_COORDINATE_TYPE>
2
5
10

$$$$

