440298
  -OEChem-07051212492D

 98102  0     1  0  0  0  0  0999 V2000
    5.9467   -0.5023    0.0000 P   0  0  3  0  0  0  0  0  0  0  0  0
    9.4294   -0.9622    0.0000 O   0  0  0  0  0  0  0  0  0  0  0  0
   11.0171   -1.7712    0.0000 O   0  0  0  0  0  0  0  0  0  0  0  0
   20.0252    3.3584    0.0000 O   0  0  0  0  0  0  0  0  0  0  0  0
    7.6693   -2.8590    0.0000 O   0  0  0  0  0  0  0  0  0  0  0  0
    9.7384   -3.5312    0.0000 O   0  0  0  0  0  0  0  0  0  0  0  0
    6.7557   -1.0901    0.0000 O   0  0  0  0  0  0  0  0  0  0  0  0
   14.5171   -0.9052    0.0000 O   0  0  0  0  0  0  0  0  0  0  0  0
   12.5171    0.8269    0.0000 O   0  0  0  0  0  0  0  0  0  0  0  0
   13.0171   -1.7712    0.0000 O   0  0  0  0  0  0  0  0  0  0  0  0
    5.1377    0.0854    0.0000 O   0  0  0  0  0  0  0  0  0  0  0  0
    5.3589   -1.3114    0.0000 O   0  0  0  0  0  0  0  0  0  0  0  0
    6.5345    0.3067    0.0000 O   0  0  0  0  0  0  0  0  0  0  0  0
    2.5016   -0.1402    0.0000 O   0  0  0  0  0  0  0  0  0  0  0  0
    3.5197    1.2610    0.0000 O   0  0  0  0  0  0  0  0  0  0  0  0
    2.1880   -3.1238    0.0000 O   0  0  0  0  0  0  0  0  0  0  0  0
    3.9106   -3.3049    0.0000 O   0  0  0  0  0  0  0  0  0  0  0  0
   20.0470    1.3269    0.0000 N   0  3  0  0  0  0  0  0  0  0  0  0
   18.5171    0.8269    0.0000 N   0  0  0  0  0  0  0  0  0  0  0  0
   21.7790    0.3269    0.0000 N   0  0  0  0  0  0  0  0  0  0  0  0
   22.6890    1.8338    0.0000 N   0  0  0  0  0  0  0  0  0  0  0  0
   21.7950    3.3962    0.0000 N   0  0  0  0  0  0  0  0  0  0  0  0
   23.5650    3.3720    0.0000 N   0  0  0  0  0  0  0  0  0  0  0  0
   20.0470    0.3269    0.0000 C   0  0  1  0  0  0  0  0  0  0  0  0
   19.1007    0.0222    0.0000 C   0  0  1  0  0  0  0  0  0  0  0  0
   20.9130   -0.1731    0.0000 C   0  0  2  0  0  0  0  0  0  0  0  0
   19.1007    1.6316    0.0000 C   0  0  0  0  0  0  0  0  0  0  0  0
   20.9130    1.8269    0.0000 C   0  0  0  0  0  0  0  0  0  0  0  0
   18.7901   -0.9284    0.0000 C   0  0  0  0  0  0  0  0  0  0  0  0
   21.7790    1.3269    0.0000 C   0  0  0  0  0  0  0  0  0  0  0  0
   20.9130   -1.1731    0.0000 C   0  0  0  0  0  0  0  0  0  0  0  0
   17.5171    0.8269    0.0000 C   0  0  0  0  0  0  0  0  0  0  0  0
   20.8969    2.8684    0.0000 C   0  0  0  0  0  0  0  0  0  0  0  0
   17.0171    1.6929    0.0000 C   0  0  0  0  0  0  0  0  0  0  0  0
   17.0171   -0.0391    0.0000 C   0  0  0  0  0  0  0  0  0  0  0  0
    8.4783   -2.2712    0.0000 C   0  0  1  0  0  0  0  0  0  0  0  0
    9.4294   -2.5802    0.0000 C   0  0  2  0  0  0  0  0  0  0  0  0
    8.4783   -1.2712    0.0000 C   0  0  1  0  0  0  0  0  0  0  0  0
   10.0171   -1.7712    0.0000 C   0  0  2  0  0  0  0  0  0  0  0  0
   22.6970    2.8754    0.0000 C   0  0  0  0  0  0  0  0  0  0  0  0
   15.5171    0.8269    0.0000 C   0  0  0  0  0  0  0  0  0  0  0  0
   16.0171    1.6929    0.0000 C   0  0  0  0  0  0  0  0  0  0  0  0
   16.0171   -0.0391    0.0000 C   0  0  0  0  0  0  0  0  0  0  0  0
   14.5171    0.8269    0.0000 C   0  0  0  0  0  0  0  0  0  0  0  0
   14.0171   -0.0391    0.0000 C   0  0  1  0  0  0  0  0  0  0  0  0
   13.0171   -0.0391    0.0000 C   0  0  1  0  0  0  0  0  0  0  0  0
    7.6693   -0.6834    0.0000 C   0  0  0  0  0  0  0  0  0  0  0  0
   12.5171   -0.9052    0.0000 C   0  0  1  0  0  0  0  0  0  0  0  0
   11.5171   -0.9052    0.0000 C   0  0  0  0  0  0  0  0  0  0  0  0
    4.2242   -0.3213    0.0000 C   0  0  1  0  0  0  0  0  0  0  0  0
    4.1196   -1.3158    0.0000 C   0  0  0  0  0  0  0  0  0  0  0  0
    3.4151    0.2665    0.0000 C   0  0  0  0  0  0  0  0  0  0  0  0
    3.2061   -1.7226    0.0000 C   0  0  0  0  0  0  0  0  0  0  0  0
    3.1016   -2.7171    0.0000 C   0  0  0  0  0  0  0  0  0  0  0  0
   19.9570   -0.5183    0.0000 H   0  0  0  0  0  0  0  0  0  0  0  0
   18.4883   -0.0740    0.0000 H   0  0  0  0  0  0  0  0  0  0  0  0
   21.4499   -0.4831    0.0000 H   0  0  0  0  0  0  0  0  0  0  0  0
   18.9081    2.2210    0.0000 H   0  0  0  0  0  0  0  0  0  0  0  0
   22.3160    0.0169    0.0000 H   0  0  0  0  0  0  0  0  0  0  0  0
   18.2008   -0.7357    0.0000 H   0  0  0  0  0  0  0  0  0  0  0  0
   18.5975   -1.5177    0.0000 H   0  0  0  0  0  0  0  0  0  0  0  0
   19.3794   -1.1210    0.0000 H   0  0  0  0  0  0  0  0  0  0  0  0
   20.2930   -1.1731    0.0000 H   0  0  0  0  0  0  0  0  0  0  0  0
   20.9130   -1.7931    0.0000 H   0  0  0  0  0  0  0  0  0  0  0  0
   21.5330   -1.1731    0.0000 H   0  0  0  0  0  0  0  0  0  0  0  0
   23.2223    1.5176    0.0000 H   0  0  0  0  0  0  0  0  0  0  0  0
   17.3271    2.2299    0.0000 H   0  0  0  0  0  0  0  0  0  0  0  0
   17.3271   -0.5761    0.0000 H   0  0  0  0  0  0  0  0  0  0  0  0
    8.5753   -2.8835    0.0000 H   0  0  0  0  0  0  0  0  0  0  0  0
   10.0417   -2.6772    0.0000 H   0  0  0  0  0  0  0  0  0  0  0  0
    8.5753   -0.6588    0.0000 H   0  0  0  0  0  0  0  0  0  0  0  0
   10.2986   -2.3236    0.0000 H   0  0  0  0  0  0  0  0  0  0  0  0
   15.7071    2.2299    0.0000 H   0  0  0  0  0  0  0  0  0  0  0  0
   15.7071   -0.5761    0.0000 H   0  0  0  0  0  0  0  0  0  0  0  0
   14.6248    1.4375    0.0000 H   0  0  0  0  0  0  0  0  0  0  0  0
   13.9345    1.0390    0.0000 H   0  0  0  0  0  0  0  0  0  0  0  0
   13.7071   -0.5761    0.0000 H   0  0  0  0  0  0  0  0  0  0  0  0
   13.3271    0.4978    0.0000 H   0  0  0  0  0  0  0  0  0  0  0  0
    8.1153   -0.2527    0.0000 H   0  0  0  0  0  0  0  0  0  0  0  0
    7.3226   -0.1694    0.0000 H   0  0  0  0  0  0  0  0  0  0  0  0
   13.1371   -0.9052    0.0000 H   0  0  0  0  0  0  0  0  0  0  0  0
   11.6248   -0.2946    0.0000 H   0  0  0  0  0  0  0  0  0  0  0  0
   10.9345   -0.6931    0.0000 H   0  0  0  0  0  0  0  0  0  0  0  0
   23.5674    3.9920    0.0000 H   0  0  0  0  0  0  0  0  0  0  0  0
   24.1007    3.0599    0.0000 H   0  0  0  0  0  0  0  0  0  0  0  0
    7.7341   -3.4756    0.0000 H   0  0  0  0  0  0  0  0  0  0  0  0
    9.3235   -3.9920    0.0000 H   0  0  0  0  0  0  0  0  0  0  0  0
   14.2071   -1.4421    0.0000 H   0  0  0  0  0  0  0  0  0  0  0  0
   11.8971    0.8269    0.0000 H   0  0  0  0  0  0  0  0  0  0  0  0
   12.7071   -2.3081    0.0000 H   0  0  0  0  0  0  0  0  0  0  0  0
    4.2890    0.2953    0.0000 H   0  0  0  0  0  0  0  0  0  0  0  0
    5.6111   -1.8778    0.0000 H   0  0  0  0  0  0  0  0  0  0  0  0
    4.2696   -1.9174    0.0000 H   0  0  0  0  0  0  0  0  0  0  0  0
    4.7381   -1.2726    0.0000 H   0  0  0  0  0  0  0  0  0  0  0  0
    3.0561   -1.1210    0.0000 H   0  0  0  0  0  0  0  0  0  0  0  0
    2.5876   -1.7658    0.0000 H   0  0  0  0  0  0  0  0  0  0  0  0
    2.0000    0.2242    0.0000 H   0  0  0  0  0  0  0  0  0  0  0  0
    2.1232   -3.7404    0.0000 H   0  0  0  0  0  0  0  0  0  0  0  0
  1  7  1  0  0  0  0
  1 11  1  0  0  0  0
  1 12  1  0  0  0  0
  1 13  2  0  0  0  0
  2 38  1  0  0  0  0
  2 39  1  0  0  0  0
 39  3  1  6  0  0  0
  3 49  1  0  0  0  0
  4 33  2  0  0  0  0
 36  5  1  6  0  0  0
  5 86  1  0  0  0  0
 37  6  1  6  0  0  0
  6 87  1  0  0  0  0
  7 47  1  0  0  0  0
 45  8  1  6  0  0  0
  8 88  1  0  0  0  0
 46  9  1  1  0  0  0
  9 89  1  0  0  0  0
 48 10  1  6  0  0  0
 10 90  1  0  0  0  0
 50 11  1  1  0  0  0
 12 92  1  0  0  0  0
 14 52  1  0  0  0  0
 14 97  1  0  0  0  0
 15 52  2  0  0  0  0
 16 54  1  0  0  0  0
 16 98  1  0  0  0  0
 17 54  2  0  0  0  0
 18 24  1  0  0  0  0
 18 27  2  0  0  0  0
 18 28  1  0  0  0  0
 19 25  1  0  0  0  0
 19 27  1  0  0  0  0
 19 32  1  0  0  0  0
 20 26  1  0  0  0  0
 20 30  1  0  0  0  0
 20 59  1  0  0  0  0
 21 30  1  0  0  0  0
 21 40  1  0  0  0  0
 21 66  1  0  0  0  0
 22 33  1  0  0  0  0
 22 40  2  0  0  0  0
 23 40  1  0  0  0  0
 23 84  1  0  0  0  0
 23 85  1  0  0  0  0
 24 25  1  0  0  0  0
 24 26  1  0  0  0  0
 24 55  1  1  0  0  0
 25 29  1  1  0  0  0
 25 56  1  0  0  0  0
 26 31  1  1  0  0  0
 26 57  1  0  0  0  0
 27 58  1  0  0  0  0
 28 30  2  0  0  0  0
 28 33  1  0  0  0  0
 29 60  1  0  0  0  0
 29 61  1  0  0  0  0
 29 62  1  0  0  0  0
 31 63  1  0  0  0  0
 31 64  1  0  0  0  0
 31 65  1  0  0  0  0
 32 34  2  0  0  0  0
 32 35  1  0  0  0  0
 34 42  1  0  0  0  0
 34 67  1  0  0  0  0
 35 43  2  0  0  0  0
 35 68  1  0  0  0  0
 36 37  1  0  0  0  0
 36 38  1  0  0  0  0
 36 69  1  0  0  0  0
 37 39  1  0  0  0  0
 37 70  1  0  0  0  0
 38 47  1  1  0  0  0
 38 71  1  0  0  0  0
 39 72  1  0  0  0  0
 41 42  2  0  0  0  0
 41 43  1  0  0  0  0
 41 44  1  0  0  0  0
 42 73  1  0  0  0  0
 43 74  1  0  0  0  0
 44 45  1  0  0  0  0
 44 75  1  0  0  0  0
 44 76  1  0  0  0  0
 45 46  1  0  0  0  0
 45 77  1  0  0  0  0
 46 48  1  0  0  0  0
 46 78  1  0  0  0  0
 47 79  1  0  0  0  0
 47 80  1  0  0  0  0
 48 49  1  0  0  0  0
 48 81  1  0  0  0  0
 49 82  1  0  0  0  0
 49 83  1  0  0  0  0
 50 51  1  0  0  0  0
 50 52  1  0  0  0  0
 50 91  1  0  0  0  0
 51 53  1  0  0  0  0
 51 93  1  0  0  0  0
 51 94  1  0  0  0  0
 53 54  1  0  0  0  0
 53 95  1  0  0  0  0
 53 96  1  0  0  0  0
M  CHG  1  18   1
M  END
> <PUBCHEM_COMPOUND_CID>
440298

> <PUBCHEM_COMPOUND_CANONICALIZED>
1

> <PUBCHEM_CACTVS_COMPLEXITY>
1560

> <PUBCHEM_CACTVS_HBOND_ACCEPTOR>
17

> <PUBCHEM_CACTVS_HBOND_DONOR>
11

> <PUBCHEM_CACTVS_ROTATABLE_BOND>
17

> <PUBCHEM_CACTVS_SUBSKEYS>
AAADcfB7vgIAAAAAAAAAAAAAAAAAASIAAAAwQIAAAAAAAECBAAAAHgAQCCAADDzxmAczyIPABxCoQiXTfIKCAAEhAgAJiIHIZMiZcDLA2bG2YAht0APPyEfa5vgOCAAAAAAAAAAQAAAAAAAAAAAAAAAAAA==

> <PUBCHEM_IUPAC_OPENEYE_NAME>
(2S)-2-[[(2R,3S,4R,5S)-5-[(2R,3S,4S)-5-[4-[(6S,6aR,7R)-3-amino-6,7-dimethyl-1-oxo-5,6,6a,7-tetrahydro-4H-imidazo[1,5-f]pteridin-10-ium-8-yl]phenyl]-2,3,4-trihydroxy-pentoxy]-3,4-dihydroxy-tetrahydrofuran-2-yl]methoxy-hydroxy-phosphoryl]oxypentanedioic acid

> <PUBCHEM_IUPAC_CAS_NAME>
(2S)-2-[[(2R,3S,4R,5S)-5-[(2R,3S,4S)-5-[4-[(6S,6aR,7R)-3-amino-6,7-dimethyl-1-oxo-5,6,6a,7-tetrahydro-4H-imidazo[1,5-f]pteridin-10-ium-8-yl]phenyl]-2,3,4-trihydroxypentoxy]-3,4-dihydroxy-2-oxolanyl]methoxy-hydroxyphosphoryl]oxypentanedioic acid

> <PUBCHEM_IUPAC_NAME>
(2S)-2-[[(2R,3S,4R,5S)-5-[(2R,3S,4S)-5-[4-[(6S,6aR,7R)-3-amino-6,7-dimethyl-1-oxo-5,6,6a,7-tetrahydro-4H-imidazo[1,5-f]pteridin-10-ium-8-yl]phenyl]-2,3,4-trihydroxypentoxy]-3,4-dihydroxyoxolan-2-yl]methoxy-hydroxyphosphoryl]oxypentanedioic acid

> <PUBCHEM_IUPAC_SYSTEMATIC_NAME>
(2S)-2-[[(2R,3S,4R,5S)-5-[(2R,3S,4S)-5-[4-[(6S,6aR,7R)-3-azanyl-6,7-dimethyl-1-oxidanylidene-5,6,6a,7-tetrahydro-4H-imidazo[1,5-f]pteridin-10-ium-8-yl]phenyl]-2,3,4-tris(oxidanyl)pentoxy]-3,4-bis(oxidanyl)oxolan-2-yl]methoxy-oxidanyl-phosphoryl]oxypentanedioic acid

> <PUBCHEM_IUPAC_TRADITIONAL_NAME>
(2S)-2-[[(2R,3S,4R,5S)-5-[(2R,3S,4S)-5-[4-[(6S,6aR,7R)-3-amino-1-keto-6,7-dimethyl-5,6,6a,7-tetrahydro-4H-imidazo[1,5-f]pteridin-10-ium-8-yl]phenyl]-2,3,4-trihydroxy-pentoxy]-3,4-dihydroxy-tetrahydrofuran-2-yl]methoxy-hydroxy-phosphoryl]oxyglutaric acid

> <PUBCHEM_IUPAC_INCHI>
InChI=1S/C31H43N6O16P/c1-13-22-14(2)36(12-37(22)23-27(33-13)34-31(32)35-28(23)45)16-5-3-15(4-6-16)9-17(38)24(42)18(39)10-50-30-26(44)25(43)20(52-30)11-51-54(48,49)53-19(29(46)47)7-8-21(40)41/h3-6,12-14,17-20,22,24-26,30,38-39,42-44H,7-11H2,1-2H3,(H6-,32,33,34,35,40,41,45,46,47,48,49)/p+1/t13-,14+,17-,18+,19-,20+,22+,24-,25+,26+,30-/m0/s1

> <PUBCHEM_IUPAC_INCHIKEY>
RANKJVUGLXUXOL-CAFBYHECSA-O

> <PUBCHEM_XLOGP3_AA>
-4.5

> <PUBCHEM_EXACT_MASS>
787.255141

> <PUBCHEM_MOLECULAR_FORMULA>
C31H44N6O16P+

> <PUBCHEM_MOLECULAR_WEIGHT>
787.685422

> <PUBCHEM_OPENEYE_CAN_SMILES>
CC1C2C(N(C=[N+]2C3=C(N1)NC(=NC3=O)N)C4=CC=C(C=C4)CC(C(C(COC5C(C(C(O5)COP(=O)(O)OC(CCC(=O)O)C(=O)O)O)O)O)O)O)C

> <PUBCHEM_OPENEYE_ISO_SMILES>
C[C@H]1[C@@H]2[C@H](N(C=[N+]2C3=C(N1)NC(=NC3=O)N)C4=CC=C(C=C4)C[C@@H]([C@@H]([C@@H](CO[C@@H]5[C@@H]([C@@H]([C@H](O5)COP(=O)(O)O[C@@H](CCC(=O)O)C(=O)O)O)O)O)O)O)C

> <PUBCHEM_CACTVS_TPSA>
336

> <PUBCHEM_MONOISOTOPIC_WEIGHT>
787.255141

> <PUBCHEM_TOTAL_CHARGE>
1

> <PUBCHEM_HEAVY_ATOM_COUNT>
54

> <PUBCHEM_ATOM_DEF_STEREO_COUNT>
11

> <PUBCHEM_ATOM_UDEF_STEREO_COUNT>
0

> <PUBCHEM_BOND_DEF_STEREO_COUNT>
0

> <PUBCHEM_BOND_UDEF_STEREO_COUNT>
0

> <PUBCHEM_ISOTOPIC_ATOM_COUNT>
0

> <PUBCHEM_COMPONENT_COUNT>
1

> <PUBCHEM_CACTVS_TAUTO_COUNT>
17

> <PUBCHEM_COORDINATE_TYPE>
1
5
255

> <PUBCHEM_BONDANNOTATIONS>
48  10  6
50  11  5
21  30  8
21  40  8
22  33  8
22  40  8
24  55  5
25  29  5
26  31  5
28  30  8
28  33  8
39  3  6
32  34  8
32  35  8
34  42  8
35  43  8
38  47  5
41  42  8
41  43  8
36  5  6
37  6  6
45  8  6
46  9  5

$$$$

