49999
  -OEChem-07051213093D

 35 36  0     0  0  0  0  0  0999 V2000
    1.9755   -0.7894    0.1085 O   0  0  0  0  0  0  0  0  0  0  0  0
   -2.0584   -2.6063    0.8262 O   0  0  0  0  0  0  0  0  0  0  0  0
    3.7248   -0.9009   -1.3907 O   0  0  0  0  0  0  0  0  0  0  0  0
   -5.0839    2.3405    0.0406 O   0  0  0  0  0  0  0  0  0  0  0  0
    4.2478    1.3796    0.9292 C   0  0  0  0  0  0  0  0  0  0  0  0
    4.1057   -0.1499    0.8923 C   0  0  0  0  0  0  0  0  0  0  0  0
   -1.2105   -0.2762   -0.4041 C   0  0  0  0  0  0  0  0  0  0  0  0
   -0.2936   -1.3866   -0.3167 C   0  0  0  0  0  0  0  0  0  0  0  0
   -2.5576   -0.3702    0.1414 C   0  0  0  0  0  0  0  0  0  0  0  0
    4.8914    1.9129   -0.3533 C   0  0  0  0  0  0  0  0  0  0  0  0
    2.8768    2.0285    1.1281 C   0  0  0  0  0  0  0  0  0  0  0  0
    1.0852   -1.2808   -0.8794 C   0  0  0  0  0  0  0  0  0  0  0  0
    3.2834   -0.6432   -0.2792 C   0  0  0  0  0  0  0  0  0  0  0  0
   -3.2351    0.8767   -0.0896 C   0  0  0  0  0  0  0  0  0  0  0  0
   -1.1052    0.9585   -0.9262 C   0  0  0  0  0  0  0  0  0  0  0  0
   -2.3628    1.6735   -0.7303 C   0  0  0  0  0  0  0  0  0  0  0  0
   -0.7745   -2.4876    0.2950 C   0  0  0  0  0  0  0  0  0  0  0  0
   -2.9193   -1.5165    0.7258 C   0  0  0  0  0  0  0  0  0  0  0  0
   -4.5896    1.2373    0.2824 C   0  0  0  0  0  0  0  0  0  0  0  0
    4.8881    1.6430    1.7797 H   0  0  0  0  0  0  0  0  0  0  0  0
    3.6663   -0.5241    1.8251 H   0  0  0  0  0  0  0  0  0  0  0  0
    5.0934   -0.6218    0.8194 H   0  0  0  0  0  0  0  0  0  0  0  0
    4.2505    1.7707   -1.2293 H   0  0  0  0  0  0  0  0  0  0  0  0
    5.0860    2.9872   -0.2613 H   0  0  0  0  0  0  0  0  0  0  0  0
    5.8490    1.4170   -0.5433 H   0  0  0  0  0  0  0  0  0  0  0  0
    2.2209    1.8876    0.2629 H   0  0  0  0  0  0  0  0  0  0  0  0
    2.3741    1.6216    2.0118 H   0  0  0  0  0  0  0  0  0  0  0  0
    2.9879    3.1079    1.2794 H   0  0  0  0  0  0  0  0  0  0  0  0
    1.1051   -0.6353   -1.7658 H   0  0  0  0  0  0  0  0  0  0  0  0
    1.4266   -2.2749   -1.1969 H   0  0  0  0  0  0  0  0  0  0  0  0
   -0.2471    1.3911   -1.4159 H   0  0  0  0  0  0  0  0  0  0  0  0
   -2.5276    2.6863   -1.0629 H   0  0  0  0  0  0  0  0  0  0  0  0
   -0.2189   -3.4029    0.4438 H   0  0  0  0  0  0  0  0  0  0  0  0
   -3.8790   -1.7298    1.1717 H   0  0  0  0  0  0  0  0  0  0  0  0
   -5.1690    0.4593    0.8050 H   0  0  0  0  0  0  0  0  0  0  0  0
  1 12  1  0  0  0  0
  1 13  1  0  0  0  0
  2 17  1  0  0  0  0
  2 18  1  0  0  0  0
  3 13  2  0  0  0  0
  4 19  2  0  0  0  0
  5  6  1  0  0  0  0
  5 10  1  0  0  0  0
  5 11  1  0  0  0  0
  5 20  1  0  0  0  0
  6 13  1  0  0  0  0
  6 21  1  0  0  0  0
  6 22  1  0  0  0  0
  7  8  1  0  0  0  0
  7  9  1  0  0  0  0
  7 15  2  0  0  0  0
  8 12  1  0  0  0  0
  8 17  2  0  0  0  0
  9 14  1  0  0  0  0
  9 18  2  0  0  0  0
 10 23  1  0  0  0  0
 10 24  1  0  0  0  0
 10 25  1  0  0  0  0
 11 26  1  0  0  0  0
 11 27  1  0  0  0  0
 11 28  1  0  0  0  0
 12 29  1  0  0  0  0
 12 30  1  0  0  0  0
 14 16  2  0  0  0  0
 14 19  1  0  0  0  0
 15 16  1  0  0  0  0
 15 31  1  0  0  0  0
 16 32  1  0  0  0  0
 17 33  1  0  0  0  0
 18 34  1  0  0  0  0
 19 35  1  0  0  0  0
M  END
> <PUBCHEM_COMPOUND_CID>
49999

> <PUBCHEM_CONFORMER_RMSD>
0.8

> <PUBCHEM_CONFORMER_DIVERSEORDER>
1
13
59
27
50
49
38
47
18
3
14
58
6
24
23
30
54
44
37
57
32
42
45
53
9
40
28
21
2
35
17
33
26
20
60
5
56
51
25
8
22
48
4
41
19
12
10
11
52
7
55
29
46
39
16
36
31
43
34
15

> <PUBCHEM_MMFF94_PARTIAL_CHARGES>
19
1 -0.43
12 0.42
13 0.66
14 0.01
15 -0.15
16 -0.15
17 -0.07
18 -0.07
19 0.5
2 -0.15
3 -0.57
31 0.15
32 0.15
33 0.15
34 0.15
35 0.06
4 -0.57
6 0.06
8 -0.14

> <PUBCHEM_EFFECTIVE_ROTOR_COUNT>
6

> <PUBCHEM_PHARMACOPHORE_FEATURES>
6
1 2 acceptor
1 3 acceptor
1 4 acceptor
3 5 10 11 hydrophobe
5 7 9 14 15 16 rings
6 2 7 8 9 17 18 rings

> <PUBCHEM_HEAVY_ATOM_COUNT>
19

> <PUBCHEM_ATOM_DEF_STEREO_COUNT>
0

> <PUBCHEM_ATOM_UDEF_STEREO_COUNT>
0

> <PUBCHEM_BOND_DEF_STEREO_COUNT>
0

> <PUBCHEM_BOND_UDEF_STEREO_COUNT>
0

> <PUBCHEM_ISOTOPIC_ATOM_COUNT>
0

> <PUBCHEM_COMPONENT_COUNT>
1

> <PUBCHEM_CACTVS_TAUTO_COUNT>
1

> <PUBCHEM_CONFORMER_ID>
0000C34F00000001

> <PUBCHEM_MMFF94_ENERGY>
58.832

> <PUBCHEM_FEATURE_SELFOVERLAP>
30.544

> <PUBCHEM_SHAPE_FINGERPRINT>
10319926 262 18340780269272343162
10366900 7 18122911932500911522
10608611 8 18408323272365632822
10764073 3 8712412155961935319
11132069 177 18272647961214019815
11405975 8 18412830200830184290
122479 349 18408326579216131182
12390115 104 18336249180988990961
12403259 415 18336252505304376935
12596602 18 15697706069450535308
12633257 1 18270414870462498976
12769317 202 18120107331557227117
12824470 246 14763198048897087323
13583140 156 15913061905855909933
14341114 328 17703515381285974680
14787075 74 18333739031056968545
15163728 17 15720495724764673913
15196674 1 18409731742412995096
15295992 7 18335424590481680090
15806764 133 18043505301500620974
17834072 32 18410011039567090536
18186145 218 18260831552710533446
20645477 56 18342735255973910199
21864079 5 18116163164637151160
22079108 93 18410011065990814181
22182937 141 18407758123193673577
23227448 37 18334018263596280517
23557571 272 18337380527209822478
23559900 14 18339633538515749390
27216 239 18336551495131262586
474 4 18187368774016716409
495365 180 17894920680167619958
5104073 3 18272370879920483162
53917941 68 18272104816045988143
633830 44 18261117421185619743
7097593 13 17845112803666783442
7808743 9 18270678663228053124
90316 7 17418102021989682308

> <PUBCHEM_SHAPE_MULTIPOLES>
367.53
10.05
2.73
1.05
4.23
0.21
0.04
-6.82
-1.31
-1.25
-0.35
0.62
0
1.14

> <PUBCHEM_SHAPE_SELFOVERLAP>
777.3

> <PUBCHEM_SHAPE_VOLUME>
205.7

> <PUBCHEM_COORDINATE_TYPE>
2
5
10

$$$$

