9828112
  -OEChem-07051212463D

 19 19  0     1  0  0  0  0  0999 V2000
   -0.2075   -1.0301    0.3508 O   0  0  0  0  0  0  0  0  0  0  0  0
    1.2403    1.6969    0.7451 O   0  0  0  0  0  0  0  0  0  0  0  0
    2.1353   -1.1696    0.5030 O   0  0  0  0  0  0  0  0  0  0  0  0
   -2.9460   -0.5071    0.2432 O   0  0  0  0  0  0  0  0  0  0  0  0
    0.3656    1.1951   -0.2629 C   0  0  2  0  0  0  0  0  0  0  0  0
   -0.7086    0.3207    0.3704 C   0  0  1  0  0  0  0  0  0  0  0  0
    1.1126    0.2297   -1.1581 C   0  0  0  0  0  0  0  0  0  0  0  0
    1.0240   -1.0735   -0.3808 C   0  0  2  0  0  0  0  0  0  0  0  0
   -2.0157    0.3378   -0.4109 C   0  0  0  0  0  0  0  0  0  0  0  0
   -0.0317    2.0556   -0.8097 H   0  0  0  0  0  0  0  0  0  0  0  0
   -0.8913    0.5786    1.4196 H   0  0  0  0  0  0  0  0  0  0  0  0
    0.5712    0.1247   -2.1052 H   0  0  0  0  0  0  0  0  0  0  0  0
    2.1431    0.5358   -1.3619 H   0  0  0  0  0  0  0  0  0  0  0  0
    1.0306   -1.9512   -1.0328 H   0  0  0  0  0  0  0  0  0  0  0  0
   -1.8828   -0.0506   -1.4253 H   0  0  0  0  0  0  0  0  0  0  0  0
   -2.4369    1.3460   -0.4713 H   0  0  0  0  0  0  0  0  0  0  0  0
    0.7146    2.2744    1.3244 H   0  0  0  0  0  0  0  0  0  0  0  0
    2.3708   -0.2772    0.8068 H   0  0  0  0  0  0  0  0  0  0  0  0
   -3.1000   -0.1447    1.1323 H   0  0  0  0  0  0  0  0  0  0  0  0
  1  6  1  0  0  0  0
  1  8  1  0  0  0  0
  2  5  1  0  0  0  0
  2 17  1  0  0  0  0
  3  8  1  0  0  0  0
  3 18  1  0  0  0  0
  4  9  1  0  0  0  0
  4 19  1  0  0  0  0
  5  6  1  0  0  0  0
  5  7  1  0  0  0  0
  5 10  1  0  0  0  0
  6  9  1  0  0  0  0
  6 11  1  0  0  0  0
  7  8  1  0  0  0  0
  7 12  1  0  0  0  0
  7 13  1  0  0  0  0
  8 14  1  0  0  0  0
  9 15  1  0  0  0  0
  9 16  1  0  0  0  0
M  END
> <PUBCHEM_COMPOUND_CID>
9828112

> <PUBCHEM_CONFORMER_RMSD>
0.4

> <PUBCHEM_CONFORMER_DIVERSEORDER>
3
10
7
1
6
8
2
9
4
5

> <PUBCHEM_MMFF94_PARTIAL_CHARGES>
11
1 -0.56
17 0.4
18 0.4
19 0.4
2 -0.68
3 -0.68
4 -0.68
5 0.28
6 0.28
8 0.56
9 0.28

> <PUBCHEM_EFFECTIVE_ROTOR_COUNT>
2

> <PUBCHEM_PHARMACOPHORE_FEATURES>
8
1 1 acceptor
1 2 acceptor
1 2 donor
1 3 acceptor
1 3 donor
1 4 acceptor
1 4 donor
5 1 5 6 7 8 rings

> <PUBCHEM_HEAVY_ATOM_COUNT>
9

> <PUBCHEM_ATOM_DEF_STEREO_COUNT>
2

> <PUBCHEM_ATOM_UDEF_STEREO_COUNT>
1

> <PUBCHEM_BOND_DEF_STEREO_COUNT>
0

> <PUBCHEM_BOND_UDEF_STEREO_COUNT>
0

> <PUBCHEM_ISOTOPIC_ATOM_COUNT>
0

> <PUBCHEM_COMPONENT_COUNT>
1

> <PUBCHEM_CACTVS_TAUTO_COUNT>
1

> <PUBCHEM_CONFORMER_ID>
0095F71000000003

> <PUBCHEM_MMFF94_ENERGY>
16.6465

> <PUBCHEM_FEATURE_SELFOVERLAP>
40.642

> <PUBCHEM_SHAPE_FINGERPRINT>
12423570 1 16381967052040131196
137420 1 12026739371970390132
14128692 85 18129651027797666766
18185500 45 18052530260091670287
20653091 64 18340477924242269841
21040471 1 18124589782496035229
23552449 11 18334017193996468681
29004967 10 18115310106210584119
5084963 1 17846777416714839439
5943 1 17264085912326509572

> <PUBCHEM_SHAPE_MULTIPOLES>
161.74
2.81
1.44
0.89
1.93
0.26
0.14
-0.73
-0.13
-0.63
-0.24
-0.25
0.11
0.08

> <PUBCHEM_SHAPE_SELFOVERLAP>
319.464

> <PUBCHEM_SHAPE_VOLUME>
96.6

> <PUBCHEM_COORDINATE_TYPE>
2
5
10

$$$$

