11535
  -OEChem-06261205482D

 10  9  0     0  0  0  0  0  0999 V2000
    2.0000    0.0000    0.0000 C   0  0  0  0  0  0  0  0  0  0  0  0
    2.8660   -0.5000    0.0000 C   0  0  0  0  0  0  0  0  0  0  0  0
    3.7320    0.0000    0.0000 C   0  0  0  0  0  0  0  0  0  0  0  0
    4.5981    0.5000    0.0000 C   0  0  0  0  0  0  0  0  0  0  0  0
    2.3100    0.5369    0.0000 H   0  0  0  0  0  0  0  0  0  0  0  0
    1.4631    0.3100    0.0000 H   0  0  0  0  0  0  0  0  0  0  0  0
    1.6900   -0.5369    0.0000 H   0  0  0  0  0  0  0  0  0  0  0  0
    2.8660   -1.1200    0.0000 H   0  0  0  0  0  0  0  0  0  0  0  0
    5.1350    0.1900    0.0000 H   0  0  0  0  0  0  0  0  0  0  0  0
    4.5981    1.1200    0.0000 H   0  0  0  0  0  0  0  0  0  0  0  0
  1  2  1  0  0  0  0
  1  5  1  0  0  0  0
  1  6  1  0  0  0  0
  1  7  1  0  0  0  0
  2  3  2  0  0  0  0
  2  8  1  0  0  0  0
  3  4  2  0  0  0  0
  4  9  1  0  0  0  0
  4 10  1  0  0  0  0
M  END
> <PUBCHEM_COMPOUND_CID>
11535

> <PUBCHEM_COMPOUND_CANONICALIZED>
1

> <PUBCHEM_CACTVS_COMPLEXITY>
38

> <PUBCHEM_CACTVS_HBOND_ACCEPTOR>
0

> <PUBCHEM_CACTVS_HBOND_DONOR>
0

> <PUBCHEM_CACTVS_ROTATABLE_BOND>
0

> <PUBCHEM_CACTVS_SUBSKEYS>
AAADcYBgAAAAAAAAAAAAAAAAAAAAAAAAAAAAAAAAAAAAAAAAAAAAGAAAAAAACACAAAACAAAAAACAACBCAAAAAAAAAAAAAAAAAAAAAAAAAAAAAAAAAAAAAAAAAAAAAAAAAAAAAAAAAAAAAAAAAAAAAAAAAA==

> <PUBCHEM_IUPAC_OPENEYE_NAME>
buta-1,2-diene

> <PUBCHEM_IUPAC_CAS_NAME>
buta-1,2-diene

> <PUBCHEM_IUPAC_NAME>
buta-1,2-diene

> <PUBCHEM_IUPAC_SYSTEMATIC_NAME>
buta-1,2-diene

> <PUBCHEM_IUPAC_TRADITIONAL_NAME>
buta-1,2-diene

> <PUBCHEM_IUPAC_INCHI>
InChI=1S/C4H6/c1-3-4-2/h4H,1H2,2H3

> <PUBCHEM_IUPAC_INCHIKEY>
QNRMTGGDHLBXQZ-UHFFFAOYSA-N

> <PUBCHEM_XLOGP3_AA>
1

> <PUBCHEM_EXACT_MASS>
54.04695

> <PUBCHEM_MOLECULAR_FORMULA>
C4H6

> <PUBCHEM_MOLECULAR_WEIGHT>
54.09044

> <PUBCHEM_OPENEYE_CAN_SMILES>
CC=C=C

> <PUBCHEM_OPENEYE_ISO_SMILES>
CC=C=C

> <PUBCHEM_CACTVS_TPSA>
0

> <PUBCHEM_MONOISOTOPIC_WEIGHT>
54.04695

> <PUBCHEM_TOTAL_CHARGE>
0

> <PUBCHEM_HEAVY_ATOM_COUNT>
4

> <PUBCHEM_ATOM_DEF_STEREO_COUNT>
0

> <PUBCHEM_ATOM_UDEF_STEREO_COUNT>
0

> <PUBCHEM_BOND_DEF_STEREO_COUNT>
0

> <PUBCHEM_BOND_UDEF_STEREO_COUNT>
0

> <PUBCHEM_ISOTOPIC_ATOM_COUNT>
0

> <PUBCHEM_COMPONENT_COUNT>
1

> <PUBCHEM_CACTVS_TAUTO_COUNT>
1

> <PUBCHEM_COORDINATE_TYPE>
1
5
255

$$$$

