25200469
  -OEChem-07051212463D

 59 62  0     1  0  0  0  0  0999 V2000
    1.4792   -3.2866    0.9896 P   0  0  2  0  0  0  0  0  0  0  0  0
    3.4790   -1.1309    0.8845 P   0  0  1  0  0  0  0  0  0  0  0  0
   -2.4774   -2.1639   -0.3276 O   0  0  0  0  0  0  0  0  0  0  0  0
    1.4015    1.6100   -0.3314 O   0  0  0  0  0  0  0  0  0  0  0  0
   -3.0363   -2.6327   -3.2681 O   0  0  0  0  0  0  0  0  0  0  0  0
   -3.1317    0.1081   -3.0459 O   0  0  0  0  0  0  0  0  0  0  0  0
    0.0124   -3.2972    0.3072 O   0  0  0  0  0  0  0  0  0  0  0  0
    3.2324    0.4519    0.6529 O   0  0  0  0  0  0  0  0  0  0  0  0
    3.0077    3.8419   -2.6404 O   0  0  0  0  0  0  0  0  0  0  0  0
    4.1194    2.8132   -0.3457 O   0  0  0  0  0  0  0  0  0  0  0  0
    2.0300   -1.8065    0.6448 O   0  0  0  0  0  0  0  0  0  0  0  0
   -0.9888    2.9872   -0.9215 O   0  0  0  0  0  0  0  0  0  0  0  0
    2.3637   -4.2376    0.0252 O   0  0  0  0  0  0  0  0  0  0  0  0
    4.3259   -1.6005   -0.4116 O   0  0  0  0  0  0  0  0  0  0  0  0
    1.5224   -3.6454    2.4462 O   0  0  0  0  0  0  0  0  0  0  0  0
    4.1126   -1.4834    2.1991 O   0  0  0  0  0  0  0  0  0  0  0  0
   -3.1428    0.1326    0.1658 N   0  0  0  0  0  0  0  0  0  0  0  0
   -3.8570    1.9330    1.2694 N   0  0  0  0  0  0  0  0  0  0  0  0
   -1.0837   -0.3088    1.3764 N   0  0  0  0  0  0  0  0  0  0  0  0
   -0.7366    1.3219    3.1587 N   0  0  0  0  0  0  0  0  0  0  0  0
   -2.2786    3.0996    3.5921 N   0  0  0  0  0  0  0  0  0  0  0  0
   -1.9355   -1.9825   -2.6343 C   0  0  1  0  0  0  0  0  0  0  0  0
   -2.3530   -0.6203   -2.1175 C   0  0  2  0  0  0  0  0  0  0  0  0
   -1.6248   -2.7333   -1.3459 C   0  0  1  0  0  0  0  0  0  0  0  0
   -3.1214   -0.9839   -0.8512 C   0  0  1  0  0  0  0  0  0  0  0  0
    2.5470    2.6008   -2.1507 C   0  0  1  0  0  0  0  0  0  0  0  0
   -0.1779   -2.5773   -0.8981 C   0  0  0  0  0  0  0  0  0  0  0  0
    3.5536    1.8891   -1.2727 C   0  0  2  0  0  0  0  0  0  0  0  0
    1.3744    2.7656   -1.1921 C   0  0  1  0  0  0  0  0  0  0  0  0
    2.6406    0.9085   -0.5503 C   0  0  2  0  0  0  0  0  0  0  0  0
   -2.2080    0.3803    1.1303 C   0  0  0  0  0  0  0  0  0  0  0  0
    0.0316    2.8466   -1.8964 C   0  0  0  0  0  0  0  0  0  0  0  0
   -4.1127    1.0919    0.2893 C   0  0  0  0  0  0  0  0  0  0  0  0
   -2.6695    1.5001    1.8038 C   0  0  0  0  0  0  0  0  0  0  0  0
   -1.8869    1.9694    2.8539 C   0  0  0  0  0  0  0  0  0  0  0  0
   -0.4112    0.2390    2.4121 C   0  0  0  0  0  0  0  0  0  0  0  0
   -1.1111   -1.9408   -3.3520 H   0  0  0  0  0  0  0  0  0  0  0  0
   -1.4665   -0.0260   -1.8685 H   0  0  0  0  0  0  0  0  0  0  0  0
   -1.8797   -3.7973   -1.4088 H   0  0  0  0  0  0  0  0  0  0  0  0
   -4.1755   -1.2164   -1.0460 H   0  0  0  0  0  0  0  0  0  0  0  0
    2.2697    1.9630   -2.9993 H   0  0  0  0  0  0  0  0  0  0  0  0
    4.3731    1.4148   -1.8181 H   0  0  0  0  0  0  0  0  0  0  0  0
    1.4925    3.6493   -0.5525 H   0  0  0  0  0  0  0  0  0  0  0  0
    0.0562   -1.5230   -0.7282 H   0  0  0  0  0  0  0  0  0  0  0  0
    0.4993   -2.9699   -1.6631 H   0  0  0  0  0  0  0  0  0  0  0  0
    2.4036    0.0647   -1.2094 H   0  0  0  0  0  0  0  0  0  0  0  0
   -2.7315   -3.5122   -3.5496 H   0  0  0  0  0  0  0  0  0  0  0  0
   -2.6023    0.2067   -3.8555 H   0  0  0  0  0  0  0  0  0  0  0  0
   -0.1697    1.9313   -2.4614 H   0  0  0  0  0  0  0  0  0  0  0  0
   -0.0070    3.7053   -2.5737 H   0  0  0  0  0  0  0  0  0  0  0  0
   -4.9760    1.1273   -0.3608 H   0  0  0  0  0  0  0  0  0  0  0  0
    3.8218    3.6721   -3.1443 H   0  0  0  0  0  0  0  0  0  0  0  0
    3.4565    3.0256    0.3323 H   0  0  0  0  0  0  0  0  0  0  0  0
   -1.8372    3.0127   -1.3960 H   0  0  0  0  0  0  0  0  0  0  0  0
    0.5164   -0.2538    2.6832 H   0  0  0  0  0  0  0  0  0  0  0  0
    2.4242   -4.0279   -0.9309 H   0  0  0  0  0  0  0  0  0  0  0  0
    4.6980   -2.5079   -0.4310 H   0  0  0  0  0  0  0  0  0  0  0  0
   -3.1367    3.5845    3.3671 H   0  0  0  0  0  0  0  0  0  0  0  0
   -1.6929    3.4209    4.3509 H   0  0  0  0  0  0  0  0  0  0  0  0
  1  7  1  0  0  0  0
  1 11  1  0  0  0  0
  1 13  1  0  0  0  0
  1 15  2  0  0  0  0
  2  8  1  0  0  0  0
  2 11  1  0  0  0  0
  2 14  1  0  0  0  0
  2 16  2  0  0  0  0
  3 24  1  0  0  0  0
  3 25  1  0  0  0  0
  4 29  1  0  0  0  0
  4 30  1  0  0  0  0
  5 22  1  0  0  0  0
  5 47  1  0  0  0  0
  6 23  1  0  0  0  0
  6 48  1  0  0  0  0
  7 27  1  0  0  0  0
  8 30  1  0  0  0  0
  9 26  1  0  0  0  0
  9 52  1  0  0  0  0
 10 28  1  0  0  0  0
 10 53  1  0  0  0  0
 12 32  1  0  0  0  0
 12 54  1  0  0  0  0
 13 56  1  0  0  0  0
 14 57  1  0  0  0  0
 17 25  1  0  0  0  0
 17 31  1  0  0  0  0
 17 33  1  0  0  0  0
 18 33  2  0  0  0  0
 18 34  1  0  0  0  0
 19 31  2  0  0  0  0
 19 36  1  0  0  0  0
 20 35  1  0  0  0  0
 20 36  2  0  0  0  0
 21 35  1  0  0  0  0
 21 58  1  0  0  0  0
 21 59  1  0  0  0  0
 22 23  1  0  0  0  0
 22 24  1  0  0  0  0
 22 37  1  0  0  0  0
 23 25  1  0  0  0  0
 23 38  1  0  0  0  0
 24 27  1  0  0  0  0
 24 39  1  0  0  0  0
 25 40  1  0  0  0  0
 26 28  1  0  0  0  0
 26 29  1  0  0  0  0
 26 41  1  0  0  0  0
 27 44  1  0  0  0  0
 27 45  1  0  0  0  0
 28 30  1  0  0  0  0
 28 42  1  0  0  0  0
 29 32  1  0  0  0  0
 29 43  1  0  0  0  0
 30 46  1  0  0  0  0
 31 34  1  0  0  0  0
 32 49  1  0  0  0  0
 32 50  1  0  0  0  0
 33 51  1  0  0  0  0
 34 35  2  0  0  0  0
 36 55  1  0  0  0  0
M  END
> <PUBCHEM_COMPOUND_CID>
25200469

> <PUBCHEM_CONFORMER_RMSD>
1.4

> <PUBCHEM_CONFORMER_DIVERSEORDER>
1
203
107
221
95
129
154
190
72
93
5
149
114
136
85
112
216
14
215
6
80
168
39
67
197
135
97
22
153
109
229
191
65
264
148
225
232
179
2
117
128
210
234
218
9
273
27
125
126
208
256
131
104
26
240
176
230
57
167
200
46
170
76
213
241
267
54
212
3
219
132
78
269
223
162
214
247
34
49
87
193
61
141
157
188
15
238
19
239
101
103
50
220
151
201
53
82
113
189
236
207
12
105
32
250
66
119
245
96
183
194
233
21
228
222
173
31
152
181
122
88
16
164
44
161
134
186
90
163
139
166
143
55
271
142
260
261
209
24
51
235
30
243
253
268
237
258
59
11
265
84
140
120
248
94
159
110
249
266
255
106
47
211
147
182
244
185
71
254
206
56
198
42
60
199
202
184
252
83
171
259
158
138
144
257
137
226
63
69
217
145
251
270
165
169
52
37
73
4
10
155
91
43
177
262
150
180
127
174
62
86
35
102
64
160
175
133
89
74
195
146
98
123
124
99
227
246
36
231
100
7
274
224
178
272
79
121
130
172
108
58
18
70
205
204
263
25
115
45
41
187
116
48
13
192
29
75
118
68
38
28
111
77
17
8
81
242
20
40
196
92
156
33
23

> <PUBCHEM_MMFF94_PARTIAL_CHARGES>
47
1 1.51
10 -0.68
11 -0.54
12 -0.68
13 -0.77
14 -0.77
15 -0.7
16 -0.7
17 0.05
18 -0.57
19 -0.57
2 1.51
20 -0.62
21 -0.9
22 0.28
23 0.28
24 0.28
25 0.54
26 0.28
27 0.28
28 0.28
29 0.28
3 -0.56
30 0.56
31 0.11
32 0.28
33 0.04
34 0.23
35 0.41
36 0.47
4 -0.56
47 0.4
48 0.4
5 -0.68
51 0.15
52 0.4
53 0.4
54 0.4
55 0.15
56 0.5
57 0.5
58 0.4
59 0.4
6 -0.68
7 -0.55
8 -0.55
9 -0.68

> <PUBCHEM_EFFECTIVE_ROTOR_COUNT>
11

> <PUBCHEM_PHARMACOPHORE_FEATURES>
25
1 10 acceptor
1 10 donor
1 12 acceptor
1 12 donor
1 13 acceptor
1 14 acceptor
1 15 acceptor
1 16 acceptor
1 21 cation
1 21 donor
1 3 acceptor
1 4 acceptor
1 5 acceptor
1 5 donor
1 6 acceptor
1 6 donor
1 9 acceptor
1 9 donor
3 17 18 33 cation
3 17 19 31 cation
3 19 20 36 cation
5 17 18 31 33 34 rings
5 3 22 23 24 25 rings
5 4 26 28 29 30 rings
6 19 20 31 34 35 36 rings

> <PUBCHEM_HEAVY_ATOM_COUNT>
36

> <PUBCHEM_ATOM_DEF_STEREO_COUNT>
8

> <PUBCHEM_ATOM_UDEF_STEREO_COUNT>
0

> <PUBCHEM_BOND_DEF_STEREO_COUNT>
0

> <PUBCHEM_BOND_UDEF_STEREO_COUNT>
0

> <PUBCHEM_ISOTOPIC_ATOM_COUNT>
0

> <PUBCHEM_COMPONENT_COUNT>
1

> <PUBCHEM_CACTVS_TAUTO_COUNT>
3

> <PUBCHEM_CONFORMER_ID>
0180875500000001

> <PUBCHEM_MMFF94_ENERGY>
50.7319

> <PUBCHEM_FEATURE_SELFOVERLAP>
127.514

> <PUBCHEM_SHAPE_FINGERPRINT>
10032420 55 17246985955051474688
11513181 2 16807864414342040839
11578080 2 17469656013651121768
12156800 1 16299536992224764309
12422481 6 17691390233153339105
12539773 59 18187927321860611875
12655364 131 18268723714907047288
12788726 201 17898270733183312533
133893 2 17761731395034722953
13965767 371 17685210973356887098
14114206 34 17971188128023808605
14289585 56 17909252921831103486
15276724 80 17544742887438065902
19311894 1 17910932683772580548
19319366 153 18335987467558385547
19930381 70 18059856151649114291
20764821 26 17551224499259633334
21315764 21 17771660912424372479
21860390 5 17913750971954376752
238 59 17343243838823684812
35225 105 17604968387059897237
469060 322 18127715892012909114
513202 73 17407674477789574074

> <PUBCHEM_SHAPE_MULTIPOLES>
641.49
7.1
5.33
3.64
2.87
1.71
-0.49
-1.7
0.65
2.83
0.68
-2.21
-1.25
-5.51

> <PUBCHEM_SHAPE_SELFOVERLAP>
1336.264

> <PUBCHEM_SHAPE_VOLUME>
367.2

> <PUBCHEM_COORDINATE_TYPE>
2
5
10

$$$$

