442043
  -OEChem-07051212563D

 77 82  0     1  0  0  0  0  0999 V2000
    1.5421   -0.2015   -1.0745 O   0  0  0  0  0  0  0  0  0  0  0  0
   -0.6433    1.9941    2.1871 O   0  0  0  0  0  0  0  0  0  0  0  0
    2.0000   -2.4157    0.3504 O   0  0  0  0  0  0  0  0  0  0  0  0
   -0.9937   -0.9880   -1.8692 O   0  0  0  0  0  0  0  0  0  0  0  0
   -3.7690    0.4483   -0.9175 O   0  0  0  0  0  0  0  0  0  0  0  0
    1.9763   -2.7774   -1.9228 O   0  0  0  0  0  0  0  0  0  0  0  0
   -5.4318    0.7763   -2.4757 O   0  0  0  0  0  0  0  0  0  0  0  0
    1.0602    3.6705    0.4374 C   0  0  1  0  0  0  0  0  0  0  0  0
    2.4529    3.3105    0.9441 C   0  0  2  0  0  0  0  0  0  0  0  0
    2.2818    4.1839   -0.2745 C   0  0  0  0  0  0  0  0  0  0  0  0
    0.3069    2.4660    0.0185 C   0  0  1  0  0  0  0  0  0  0  0  0
    3.0406    1.9117    0.7595 C   0  0  0  0  0  0  0  0  0  0  0  0
    0.8881    0.3581    1.2752 C   0  0  2  0  0  0  0  0  0  0  0  0
    2.3917    0.7543    1.5931 C   0  0  2  0  0  0  0  0  0  0  0  0
    0.5640   -0.4293   -0.0648 C   0  0  1  0  0  0  0  0  0  0  0  0
    0.0851    1.6304    1.2662 C   0  0  0  0  0  0  0  0  0  0  0  0
    2.5872    3.6847   -1.6466 C   0  0  0  0  0  0  0  0  0  0  0  0
    2.6001    5.6328   -0.1069 C   0  0  0  0  0  0  0  0  0  0  0  0
   -0.9834    2.4092   -0.6928 C   0  0  0  0  0  0  0  0  0  0  0  0
    0.3233   -0.6150    2.2868 C   0  0  0  0  0  0  0  0  0  0  0  0
   -0.9052   -0.1813   -0.6801 C   0  0  1  0  0  0  0  0  0  0  0  0
    0.6663   -1.9242    0.3760 C   0  0  2  0  0  0  0  0  0  0  0  0
    2.6138    1.0679    3.0882 C   0  0  0  0  0  0  0  0  0  0  0  0
   -1.5108    1.2073   -1.0202 C   0  0  0  0  0  0  0  0  0  0  0  0
    0.2240   -1.8593    1.8031 C   0  0  0  0  0  0  0  0  0  0  0  0
   -2.8510    1.1667   -1.7144 C   0  0  0  0  0  0  0  0  0  0  0  0
   -0.2295   -3.0695    2.5353 C   0  0  0  0  0  0  0  0  0  0  0  0
    2.5674   -2.5403   -0.8808 C   0  0  0  0  0  0  0  0  0  0  0  0
    4.0378   -2.3490   -0.8039 C   0  0  0  0  0  0  0  0  0  0  0  0
   -5.0357    0.3229   -1.4131 C   0  0  0  0  0  0  0  0  0  0  0  0
    4.6999   -1.8252   -1.8955 C   0  0  0  0  0  0  0  0  0  0  0  0
    4.6964   -2.7003    0.3566 C   0  0  0  0  0  0  0  0  0  0  0  0
   -5.8998   -0.4486   -0.4843 C   0  0  0  0  0  0  0  0  0  0  0  0
    6.0813   -1.6452   -1.8233 C   0  0  0  0  0  0  0  0  0  0  0  0
    6.0776   -2.5201    0.4287 C   0  0  0  0  0  0  0  0  0  0  0  0
   -7.2517   -0.1748   -0.4487 C   0  0  0  0  0  0  0  0  0  0  0  0
   -5.3242   -1.4157    0.3140 C   0  0  0  0  0  0  0  0  0  0  0  0
    6.7701   -1.9925   -0.6613 C   0  0  0  0  0  0  0  0  0  0  0  0
   -8.0637   -0.8997    0.4235 C   0  0  0  0  0  0  0  0  0  0  0  0
   -6.1362   -2.1407    1.1862 C   0  0  0  0  0  0  0  0  0  0  0  0
   -7.5060   -1.8826    1.2409 C   0  0  0  0  0  0  0  0  0  0  0  0
    0.4705    4.3615    1.0279 H   0  0  0  0  0  0  0  0  0  0  0  0
    2.7669    3.7642    1.8769 H   0  0  0  0  0  0  0  0  0  0  0  0
    0.9555    1.9345   -0.6653 H   0  0  0  0  0  0  0  0  0  0  0  0
    4.0953    1.9868    1.0606 H   0  0  0  0  0  0  0  0  0  0  0  0
    3.0991    1.6149   -0.2862 H   0  0  0  0  0  0  0  0  0  0  0  0
    3.0054   -0.1346    1.3951 H   0  0  0  0  0  0  0  0  0  0  0  0
    2.0886    4.3178   -2.3903 H   0  0  0  0  0  0  0  0  0  0  0  0
    2.2964    2.6616   -1.8840 H   0  0  0  0  0  0  0  0  0  0  0  0
    3.6652    3.7553   -1.8333 H   0  0  0  0  0  0  0  0  0  0  0  0
    3.6645    5.8167   -0.2888 H   0  0  0  0  0  0  0  0  0  0  0  0
    2.3716    5.9964    0.9014 H   0  0  0  0  0  0  0  0  0  0  0  0
    2.0234    6.2405   -0.8126 H   0  0  0  0  0  0  0  0  0  0  0  0
   -1.4817    3.3373   -0.9530 H   0  0  0  0  0  0  0  0  0  0  0  0
    0.0727   -0.3496    3.3057 H   0  0  0  0  0  0  0  0  0  0  0  0
   -1.6165   -0.6132    0.0387 H   0  0  0  0  0  0  0  0  0  0  0  0
    0.0189   -2.5949   -0.1977 H   0  0  0  0  0  0  0  0  0  0  0  0
    3.6514    1.3667    3.2746 H   0  0  0  0  0  0  0  0  0  0  0  0
    2.4278    0.1889    3.7132 H   0  0  0  0  0  0  0  0  0  0  0  0
    1.9638    1.8778    3.4340 H   0  0  0  0  0  0  0  0  0  0  0  0
    2.4226   -0.2298   -0.6737 H   0  0  0  0  0  0  0  0  0  0  0  0
   -3.2390    2.1791   -1.8830 H   0  0  0  0  0  0  0  0  0  0  0  0
   -2.7454    0.6849   -2.6938 H   0  0  0  0  0  0  0  0  0  0  0  0
   -1.1092   -3.5014    2.0480 H   0  0  0  0  0  0  0  0  0  0  0  0
   -0.4984   -2.8371    3.5708 H   0  0  0  0  0  0  0  0  0  0  0  0
    0.5629   -3.8241    2.5545 H   0  0  0  0  0  0  0  0  0  0  0  0
   -1.3649   -1.8500   -1.6163 H   0  0  0  0  0  0  0  0  0  0  0  0
    4.1737   -1.5467   -2.8036 H   0  0  0  0  0  0  0  0  0  0  0  0
    4.1825   -3.1238    1.2143 H   0  0  0  0  0  0  0  0  0  0  0  0
    6.6204   -1.2332   -2.6714 H   0  0  0  0  0  0  0  0  0  0  0  0
    6.6148   -2.7927    1.3325 H   0  0  0  0  0  0  0  0  0  0  0  0
   -7.6970    0.5903   -1.0778 H   0  0  0  0  0  0  0  0  0  0  0  0
   -4.2630   -1.6442    0.2806 H   0  0  0  0  0  0  0  0  0  0  0  0
    7.8456   -1.8524   -0.6052 H   0  0  0  0  0  0  0  0  0  0  0  0
   -9.1302   -0.6984    0.4667 H   0  0  0  0  0  0  0  0  0  0  0  0
   -5.7027   -2.9082    1.8207 H   0  0  0  0  0  0  0  0  0  0  0  0
   -8.1383   -2.4474    1.9198 H   0  0  0  0  0  0  0  0  0  0  0  0
  1 15  1  0  0  0  0
  1 61  1  0  0  0  0
  2 16  2  0  0  0  0
  3 22  1  0  0  0  0
  3 28  1  0  0  0  0
  4 21  1  0  0  0  0
  4 67  1  0  0  0  0
  5 26  1  0  0  0  0
  5 30  1  0  0  0  0
  6 28  2  0  0  0  0
  7 30  2  0  0  0  0
  8  9  1  0  0  0  0
  8 10  1  0  0  0  0
  8 11  1  0  0  0  0
  8 42  1  0  0  0  0
  9 10  1  0  0  0  0
  9 12  1  0  0  0  0
  9 43  1  0  0  0  0
 10 17  1  0  0  0  0
 10 18  1  0  0  0  0
 11 16  1  0  0  0  0
 11 19  1  0  0  0  0
 11 44  1  0  0  0  0
 12 14  1  0  0  0  0
 12 45  1  0  0  0  0
 12 46  1  0  0  0  0
 13 14  1  0  0  0  0
 13 15  1  0  0  0  0
 13 16  1  0  0  0  0
 13 20  1  0  0  0  0
 14 23  1  0  0  0  0
 14 47  1  0  0  0  0
 15 21  1  0  0  0  0
 15 22  1  0  0  0  0
 17 48  1  0  0  0  0
 17 49  1  0  0  0  0
 17 50  1  0  0  0  0
 18 51  1  0  0  0  0
 18 52  1  0  0  0  0
 18 53  1  0  0  0  0
 19 24  2  0  0  0  0
 19 54  1  0  0  0  0
 20 25  2  0  0  0  0
 20 55  1  0  0  0  0
 21 24  1  0  0  0  0
 21 56  1  0  0  0  0
 22 25  1  0  0  0  0
 22 57  1  0  0  0  0
 23 58  1  0  0  0  0
 23 59  1  0  0  0  0
 23 60  1  0  0  0  0
 24 26  1  0  0  0  0
 25 27  1  0  0  0  0
 26 62  1  0  0  0  0
 26 63  1  0  0  0  0
 27 64  1  0  0  0  0
 27 65  1  0  0  0  0
 27 66  1  0  0  0  0
 28 29  1  0  0  0  0
 29 31  2  0  0  0  0
 29 32  1  0  0  0  0
 30 33  1  0  0  0  0
 31 34  1  0  0  0  0
 31 68  1  0  0  0  0
 32 35  2  0  0  0  0
 32 69  1  0  0  0  0
 33 36  2  0  0  0  0
 33 37  1  0  0  0  0
 34 38  2  0  0  0  0
 34 70  1  0  0  0  0
 35 38  1  0  0  0  0
 35 71  1  0  0  0  0
 36 39  1  0  0  0  0
 36 72  1  0  0  0  0
 37 40  2  0  0  0  0
 37 73  1  0  0  0  0
 38 74  1  0  0  0  0
 39 41  2  0  0  0  0
 39 75  1  0  0  0  0
 40 41  1  0  0  0  0
 40 76  1  0  0  0  0
 41 77  1  0  0  0  0
M  END
> <PUBCHEM_COMPOUND_CID>
442043

> <PUBCHEM_CONFORMER_RMSD>
1

> <PUBCHEM_CONFORMER_DIVERSEORDER>
1
64
6
25
15
35
72
55
89
42
44
73
75
32
17
102
51
88
28
68
63
103
84
105
34
80
65
76
99
86
38
107
87
31
104
37
92
50
77
52
23
48
26
81
71
62
85
66
8
47
60
33
83
36
56
90
70
43
12
95
14
98
97
19
13
20
93
59
45
53
101
9
11
78
39
54
27
49
57
96
91
82
10
46
7
41
3
61
4
100
21
79
22
94
58
29
40
67
2
69
5
18
24
106
16
74
30

> <PUBCHEM_MMFF94_PARTIAL_CHARGES>
55
1 -0.68
10 -0.19
11 0.29
12 0.09
13 0.2
15 0.28
16 0.45
17 0.09
18 0.09
19 -0.29
2 -0.57
20 -0.29
21 0.42
22 0.42
24 -0.28
25 -0.28
26 0.42
27 0.14
28 0.63
29 0.09
3 -0.43
30 0.63
31 -0.15
32 -0.15
33 0.09
34 -0.15
35 -0.15
36 -0.15
37 -0.15
38 -0.15
39 -0.15
4 -0.68
40 -0.15
41 -0.15
42 0.1
43 0.1
5 -0.43
54 0.15
55 0.15
6 -0.57
61 0.4
67 0.4
68 0.15
69 0.15
7 -0.57
70 0.15
71 0.15
72 0.15
73 0.15
74 0.15
75 0.15
76 0.15
77 0.15
8 -0.19
9 -0.19

> <PUBCHEM_EFFECTIVE_ROTOR_COUNT>
8

> <PUBCHEM_PHARMACOPHORE_FEATURES>
13
1 1 acceptor
1 1 donor
1 2 acceptor
1 4 acceptor
1 4 donor
1 6 acceptor
1 7 acceptor
3 10 17 18 hydrophobe
5 13 15 20 22 25 rings
6 29 31 32 34 35 38 rings
6 33 36 37 39 40 41 rings
7 11 13 15 16 19 21 24 rings
7 8 9 11 12 13 14 16 rings

> <PUBCHEM_HEAVY_ATOM_COUNT>
41

> <PUBCHEM_ATOM_DEF_STEREO_COUNT>
8

> <PUBCHEM_ATOM_UDEF_STEREO_COUNT>
0

> <PUBCHEM_BOND_DEF_STEREO_COUNT>
0

> <PUBCHEM_BOND_UDEF_STEREO_COUNT>
0

> <PUBCHEM_ISOTOPIC_ATOM_COUNT>
0

> <PUBCHEM_COMPONENT_COUNT>
1

> <PUBCHEM_CACTVS_TAUTO_COUNT>
1

> <PUBCHEM_CONFORMER_ID>
0006BEBB00000001

> <PUBCHEM_MMFF94_ENERGY>
164.6753

> <PUBCHEM_FEATURE_SELFOVERLAP>
66.128

> <PUBCHEM_SHAPE_FINGERPRINT>
10169797 241 17917710154871248539
10930396 42 18126875835929441042
11093857 5 17631728258877196555
11421498 54 17982176917814695734
11488393 25 18339074896050450713
11513181 2 17980199678123007723
12156800 1 15409473382685422952
12758862 65 18339909468711253639
12857493 111 18411132537190919152
14955137 171 18336558169526550457
15324884 4 17904244547255957320
15815584 197 17694553368991843128
16992787 43 18259984843295786240
17686467 74 18189342428614245538
21049683 271 18412539921138966108
21927370 108 18262792012097559658
23559900 14 17989490732340458701
24771750 20 18267856190835072164
3552219 110 17676482891669006874
437795 51 18341609278762931311
469060 322 18117825823607203682
484989 97 18130213900568653986
5776283 40 18129932391153070535
6669772 16 18266177219389467892
6823239 73 18272378585592809131
9962374 69 18260557702082028391

> <PUBCHEM_SHAPE_MULTIPOLES>
802.68
15.68
5.42
2.36
28.77
6.23
-0.67
-13.74
3.96
-8.23
-0.14
-0.56
-0.41
2.97

> <PUBCHEM_SHAPE_SELFOVERLAP>
1766.33

> <PUBCHEM_SHAPE_VOLUME>
428.7

> <PUBCHEM_COORDINATE_TYPE>
2
5
10

$$$$

