46174053
  -OEChem-07051213113D

 23 26  0     1  0  0  0  0  0999 V2000
    3.3322   -1.1611   -1.1631 Cl  0  0  0  0  0  0  0  0  0  0  0  0
   -1.8285   -2.0454    1.7416 Cl  0  0  0  0  0  0  0  0  0  0  0  0
   -1.1964    2.6711   -1.0631 Cl  0  0  0  0  0  0  0  0  0  0  0  0
    2.9314    2.2759    0.3504 Cl  0  0  0  0  0  0  0  0  0  0  0  0
   -3.5256    0.2630   -0.1963 Cl  0  0  0  0  0  0  0  0  0  0  0  0
   -2.1590    1.4135    2.0615 Cl  0  0  0  0  0  0  0  0  0  0  0  0
   -0.8542   -2.7765   -1.3380 Cl  0  0  0  0  0  0  0  0  0  0  0  0
   -0.4788    0.1442   -3.0780 Cl  0  0  0  0  0  0  0  0  0  0  0  0
    2.7267   -0.5897    1.4471 O   0  0  0  0  0  0  0  0  0  0  0  0
    0.2846   -0.2999    1.2742 C   0  0  2  0  0  0  0  0  0  0  0  0
    0.4644    1.0624    0.4845 C   0  0  2  0  0  0  0  0  0  0  0  0
    1.4937   -1.1168    0.9463 C   0  0  1  0  0  0  0  0  0  0  0  0
    2.4126   -0.3402    0.0705 C   0  0  2  0  0  0  0  0  0  0  0  0
   -1.0774   -0.8328    0.7245 C   0  0  2  0  0  0  0  0  0  0  0  0
   -0.8218    1.0870   -0.4152 C   0  0  1  0  0  0  0  0  0  0  0  0
    1.8281    1.0033   -0.2417 C   0  0  2  0  0  0  0  0  0  0  0  0
   -1.8978    0.4871    0.5485 C   0  0  0  0  0  0  0  0  0  0  0  0
   -0.8937   -1.1940   -0.7375 C   0  0  0  0  0  0  0  0  0  0  0  0
   -0.7408   -0.0508   -1.4163 C   0  0  0  0  0  0  0  0  0  0  0  0
    0.2439   -0.1092    2.3535 H   0  0  0  0  0  0  0  0  0  0  0  0
    0.4356    1.8977    1.1959 H   0  0  0  0  0  0  0  0  0  0  0  0
    1.3818   -2.1863    0.8988 H   0  0  0  0  0  0  0  0  0  0  0  0
    1.7259    1.1742   -1.3160 H   0  0  0  0  0  0  0  0  0  0  0  0
  1 13  1  0  0  0  0
  2 14  1  0  0  0  0
  3 15  1  0  0  0  0
  4 16  1  0  0  0  0
  5 17  1  0  0  0  0
  6 17  1  0  0  0  0
  7 18  1  0  0  0  0
  8 19  1  0  0  0  0
  9 12  1  0  0  0  0
  9 13  1  0  0  0  0
 10 11  1  0  0  0  0
 10 12  1  0  0  0  0
 10 14  1  0  0  0  0
 10 20  1  0  0  0  0
 11 15  1  0  0  0  0
 11 16  1  0  0  0  0
 11 21  1  0  0  0  0
 12 13  1  0  0  0  0
 12 22  1  0  0  0  0
 13 16  1  0  0  0  0
 14 17  1  0  0  0  0
 14 18  1  0  0  0  0
 15 17  1  0  0  0  0
 15 19  1  0  0  0  0
 16 23  1  0  0  0  0
 18 19  2  0  0  0  0
M  END
> <PUBCHEM_COMPOUND_CID>
46174053

> <PUBCHEM_CONFORMER_RMSD>
0.6

> <PUBCHEM_CONFORMER_DIVERSEORDER>
1
4
2
3
6
5
7
8

> <PUBCHEM_MMFF94_PARTIAL_CHARGES>
17
1 -0.23
10 0.09
12 -0.05
13 0.28
14 0.43
15 0.43
16 0.38
17 0.58
2 -0.29
22 0.1
3 -0.29
4 -0.29
5 -0.29
6 -0.29
7 -0.14
8 -0.14
9 -0.3

> <PUBCHEM_EFFECTIVE_ROTOR_COUNT>
0.6

> <PUBCHEM_PHARMACOPHORE_FEATURES>
3
1 9 acceptor
6 9 10 11 12 13 16 rings
7 10 11 14 15 17 18 19 rings

> <PUBCHEM_HEAVY_ATOM_COUNT>
19

> <PUBCHEM_ATOM_DEF_STEREO_COUNT>
2

> <PUBCHEM_ATOM_UDEF_STEREO_COUNT>
5

> <PUBCHEM_BOND_DEF_STEREO_COUNT>
0

> <PUBCHEM_BOND_UDEF_STEREO_COUNT>
0

> <PUBCHEM_ISOTOPIC_ATOM_COUNT>
0

> <PUBCHEM_COMPONENT_COUNT>
1

> <PUBCHEM_CACTVS_TAUTO_COUNT>
1

> <PUBCHEM_CONFORMER_ID>
02C08F6500000001

> <PUBCHEM_MMFF94_ENERGY>
82.7809

> <PUBCHEM_FEATURE_SELFOVERLAP>
15.278

> <PUBCHEM_SHAPE_FINGERPRINT>
10863032 1 18263073340681067087
10948715 1 18337674113793945113
12423570 1 10435647850952109245
12808571 1 17895746413088596585
13024252 1 16773801436685998987
13140716 1 18273211963228648866
13299463 15 17623887558942244222
13538477 17 18115032891851844184
14142880 1 17980775834784301184
14181834 199 15048333209406167307
144361 1 17749388131044835039
14817 1 8984940402077839030
15881359 60 18043555964433691213
16945 1 18130779118068998801
18981168 100 17203339948076267828
20525323 117 18124041126404713248
20645476 183 16950274083889432068
2334 1 18057033606284231274
23419403 2 14932328526389748432
23559900 14 18272925043304395214
2748010 2 18200585874460913322
3286 77 17916318288518494888
5845 1 14429110791914285653

> <PUBCHEM_SHAPE_MULTIPOLES>
400.1
4.24
2.56
2.22
1.94
0
-0.93
0.42
0.78
-0.22
-0.3
-0.7
-0.27
0.21

> <PUBCHEM_SHAPE_SELFOVERLAP>
816.336

> <PUBCHEM_SHAPE_VOLUME>
236.9

> <PUBCHEM_COORDINATE_TYPE>
2
5
10

$$$$

