442823
  -OEChem-07051212593D

 38 41  0     1  0  0  0  0  0999 V2000
   -1.2224    0.7338   -1.6235 O   0  0  0  0  0  0  0  0  0  0  0  0
    0.0164   -2.1202    0.8137 O   0  0  0  0  0  0  0  0  0  0  0  0
    3.8229    1.5374   -0.7953 O   0  0  0  0  0  0  0  0  0  0  0  0
    4.1752    0.0261    1.5098 O   0  0  0  0  0  0  0  0  0  0  0  0
   -4.8155    2.3518    1.1462 O   0  0  0  0  0  0  0  0  0  0  0  0
   -1.5165   -1.6040   -1.0438 C   0  0  2  0  0  0  0  0  0  0  0  0
   -0.5411   -0.5496   -1.5972 C   0  0  2  0  0  0  0  0  0  0  0  0
   -2.4576   -0.7111   -0.3143 C   0  0  0  0  0  0  0  0  0  0  0  0
   -0.8115   -2.6670   -0.2168 C   0  0  0  0  0  0  0  0  0  0  0  0
    0.7276   -0.4287   -0.7867 C   0  0  0  0  0  0  0  0  0  0  0  0
   -2.2504    0.5976   -0.7248 C   0  0  0  0  0  0  0  0  0  0  0  0
    0.9289   -1.2039    0.3614 C   0  0  0  0  0  0  0  0  0  0  0  0
   -3.4613   -1.0156    0.5887 C   0  0  0  0  0  0  0  0  0  0  0  0
    1.7189    0.4869   -1.1687 C   0  0  0  0  0  0  0  0  0  0  0  0
   -3.0233    1.6445   -0.2608 C   0  0  0  0  0  0  0  0  0  0  0  0
    2.0786   -1.0369    1.1372 C   0  0  0  0  0  0  0  0  0  0  0  0
    2.8765    0.6389   -0.4045 C   0  0  0  0  0  0  0  0  0  0  0  0
   -4.2484    0.0290    1.0813 C   0  0  0  0  0  0  0  0  0  0  0  0
    3.0534   -0.1190    0.7508 C   0  0  0  0  0  0  0  0  0  0  0  0
   -4.0316    1.3503    0.6579 C   0  0  0  0  0  0  0  0  0  0  0  0
    4.8500    1.0610   -1.6626 C   0  0  0  0  0  0  0  0  0  0  0  0
    4.1312    0.9986    2.5522 C   0  0  0  0  0  0  0  0  0  0  0  0
   -2.0730   -2.0698   -1.8670 H   0  0  0  0  0  0  0  0  0  0  0  0
   -0.2656   -0.8124   -2.6268 H   0  0  0  0  0  0  0  0  0  0  0  0
   -1.5417   -3.3220    0.2711 H   0  0  0  0  0  0  0  0  0  0  0  0
   -0.1921   -3.3068   -0.8590 H   0  0  0  0  0  0  0  0  0  0  0  0
   -3.6455   -2.0366    0.9047 H   0  0  0  0  0  0  0  0  0  0  0  0
    1.5823    1.0916   -2.0625 H   0  0  0  0  0  0  0  0  0  0  0  0
   -2.8435    2.6593   -0.5990 H   0  0  0  0  0  0  0  0  0  0  0  0
    2.2183   -1.6300    2.0379 H   0  0  0  0  0  0  0  0  0  0  0  0
   -5.0406   -0.1897    1.7930 H   0  0  0  0  0  0  0  0  0  0  0  0
   -4.5321    3.1943    0.7513 H   0  0  0  0  0  0  0  0  0  0  0  0
    4.4214    0.7042   -2.6045 H   0  0  0  0  0  0  0  0  0  0  0  0
    5.4200    0.2600   -1.1814 H   0  0  0  0  0  0  0  0  0  0  0  0
    5.5279    1.8911   -1.8790 H   0  0  0  0  0  0  0  0  0  0  0  0
    3.3537    0.7457    3.2799 H   0  0  0  0  0  0  0  0  0  0  0  0
    3.9508    1.9968    2.1407 H   0  0  0  0  0  0  0  0  0  0  0  0
    5.0992    0.9997    3.0606 H   0  0  0  0  0  0  0  0  0  0  0  0
  1  7  1  0  0  0  0
  1 11  1  0  0  0  0
  2  9  1  0  0  0  0
  2 12  1  0  0  0  0
  3 17  1  0  0  0  0
  3 21  1  0  0  0  0
  4 19  1  0  0  0  0
  4 22  1  0  0  0  0
  5 20  1  0  0  0  0
  5 32  1  0  0  0  0
  6  7  1  0  0  0  0
  6  8  1  0  0  0  0
  6  9  1  0  0  0  0
  6 23  1  0  0  0  0
  7 10  1  0  0  0  0
  7 24  1  0  0  0  0
  8 11  2  0  0  0  0
  8 13  1  0  0  0  0
  9 25  1  0  0  0  0
  9 26  1  0  0  0  0
 10 12  1  0  0  0  0
 10 14  2  0  0  0  0
 11 15  1  0  0  0  0
 12 16  2  0  0  0  0
 13 18  2  0  0  0  0
 13 27  1  0  0  0  0
 14 17  1  0  0  0  0
 14 28  1  0  0  0  0
 15 20  2  0  0  0  0
 15 29  1  0  0  0  0
 16 19  1  0  0  0  0
 16 30  1  0  0  0  0
 17 19  2  0  0  0  0
 18 20  1  0  0  0  0
 18 31  1  0  0  0  0
 21 33  1  0  0  0  0
 21 34  1  0  0  0  0
 21 35  1  0  0  0  0
 22 36  1  0  0  0  0
 22 37  1  0  0  0  0
 22 38  1  0  0  0  0
M  END
> <PUBCHEM_COMPOUND_CID>
442823

> <PUBCHEM_CONFORMER_RMSD>
0.6

> <PUBCHEM_CONFORMER_DIVERSEORDER>
1
4
2
3

> <PUBCHEM_MMFF94_PARTIAL_CHARGES>
28
1 -0.36
10 -0.14
11 0.08
12 0.08
13 -0.15
14 -0.15
15 -0.15
16 -0.15
17 0.08
18 -0.15
19 0.08
2 -0.36
20 0.08
21 0.28
22 0.28
27 0.15
28 0.15
29 0.15
3 -0.36
30 0.15
31 0.15
32 0.45
4 -0.36
5 -0.53
6 0.14
7 0.42
8 -0.14
9 0.28

> <PUBCHEM_EFFECTIVE_ROTOR_COUNT>
2.6

> <PUBCHEM_PHARMACOPHORE_FEATURES>
9
1 1 acceptor
1 2 acceptor
1 3 acceptor
1 4 acceptor
1 5 donor
5 1 6 7 8 11 rings
6 10 12 14 16 17 19 rings
6 2 6 7 9 10 12 rings
6 8 11 13 15 18 20 rings

> <PUBCHEM_HEAVY_ATOM_COUNT>
22

> <PUBCHEM_ATOM_DEF_STEREO_COUNT>
2

> <PUBCHEM_ATOM_UDEF_STEREO_COUNT>
0

> <PUBCHEM_BOND_DEF_STEREO_COUNT>
0

> <PUBCHEM_BOND_UDEF_STEREO_COUNT>
0

> <PUBCHEM_ISOTOPIC_ATOM_COUNT>
0

> <PUBCHEM_COMPONENT_COUNT>
1

> <PUBCHEM_CACTVS_TAUTO_COUNT>
3

> <PUBCHEM_CONFORMER_ID>
0006C1C700000001

> <PUBCHEM_MMFF94_ENERGY>
91.3552

> <PUBCHEM_FEATURE_SELFOVERLAP>
46.069

> <PUBCHEM_SHAPE_FINGERPRINT>
10498660 4 17022907895303868857
11221954 11 17316223353451041896
11552529 35 17344335662307390987
11796584 16 11455890235316269897
12173636 292 18187937152967393351
12202030 40 13326310224407114530
12251169 10 17917428774141178951
12363563 72 12319729280745389325
12403259 118 18059586818455700941
12633257 1 17346880078437747937
12644460 14 17132117927341359792
12788726 201 17981888536256935723
12892183 10 16559027211977872941
13544653 18 14333406740127118991
13965767 371 18194688300380211449
14341114 328 18059566997308003369
14848178 5 13110954306576905209
14950920 106 16917353648991813680
15209294 21 18408895039528119435
15238133 3 18335139808691569912
15309172 13 17988932162346862926
15342816 4 9727628397686450920
16945 1 18337957770603661991
18186145 218 16153423943764655406
193927 3 11671771694008898193
19862831 5 5256409400501547822
20671657 53 8934991556197361591
20739085 24 17346877871235916748
20775438 99 9074551382070072833
21731228 192 18412830217725281539
21756936 100 18410289169154655148
21864079 5 18336548196781294208
23227448 37 17604442773357238081
23379529 103 10446770618075037985
23557571 272 16951423013199893226
23559900 14 18191291870154247415
2748010 2 17123433069724929174
2838139 119 17387137666356083489
38570 142 17344883275850411612
4028521 119 16732703865472642625
463206 1 9727336997294332285
5161694 15 16298102073351586964
7064713 232 18413390955722812937
7808743 9 18336818706590375804

> <PUBCHEM_SHAPE_MULTIPOLES>
423.4
9.21
2.11
1.81
1.93
0.39
-0.36
-6.09
-2.8
-1.62
-0.27
1.94
-0.45
-0.66

> <PUBCHEM_SHAPE_SELFOVERLAP>
946.346

> <PUBCHEM_SHAPE_VOLUME>
224.6

> <PUBCHEM_COORDINATE_TYPE>
2
5
10

$$$$

