442171
  -OEChem-07051212573D

 40 43  0     1  0  0  0  0  0999 V2000
   -3.4194    0.2714   -1.5671 O   0  0  0  0  0  0  0  0  0  0  0  0
   -2.5592   -2.5892    0.5248 O   0  0  0  0  0  0  0  0  0  0  0  0
    0.3529   -2.3780    0.2926 O   0  0  0  0  0  0  0  0  0  0  0  0
    2.8517    1.2273    0.3327 O   0  0  0  0  0  0  0  0  0  0  0  0
    4.6950   -0.1396    0.2866 O   0  0  0  0  0  0  0  0  0  0  0  0
   -1.1813   -0.4953    0.5685 C   0  0  1  0  0  0  0  0  0  0  0  0
   -1.4434    0.8606   -0.1801 C   0  0  1  0  0  0  0  0  0  0  0  0
   -2.9445    0.8703   -0.3582 C   0  0  2  0  0  0  0  0  0  0  0  0
   -3.4045   -0.5514   -0.4004 C   0  0  2  0  0  0  0  0  0  0  0  0
   -2.1938   -1.4269   -0.1989 C   0  0  2  0  0  0  0  0  0  0  0  0
   -0.8518    2.1222    0.4487 C   0  0  1  0  0  0  0  0  0  0  0  0
    0.3128   -0.9671    0.5211 C   0  0  2  0  0  0  0  0  0  0  0  0
    1.1867   -0.2541   -0.5355 C   0  0  1  0  0  0  0  0  0  0  0  0
    0.6334    1.9535    0.8101 C   0  0  0  0  0  0  0  0  0  0  0  0
   -1.6000   -0.4288    2.0644 C   0  0  0  0  0  0  0  0  0  0  0  0
    1.5097    1.2183   -0.2150 C   0  0  1  0  0  0  0  0  0  0  0  0
   -1.0274    3.3230   -0.4931 C   0  0  0  0  0  0  0  0  0  0  0  0
    2.5725   -0.8071   -0.6394 C   0  0  0  0  0  0  0  0  0  0  0  0
    3.5259    0.0868    0.0331 C   0  0  0  0  0  0  0  0  0  0  0  0
    2.9844   -1.8959   -1.2950 C   0  0  0  0  0  0  0  0  0  0  0  0
   -1.0434    0.7874   -1.2005 H   0  0  0  0  0  0  0  0  0  0  0  0
   -3.5269    1.6020    0.1760 H   0  0  0  0  0  0  0  0  0  0  0  0
   -4.3266   -0.8337    0.0807 H   0  0  0  0  0  0  0  0  0  0  0  0
   -1.7868   -1.7361   -1.1689 H   0  0  0  0  0  0  0  0  0  0  0  0
   -1.3979    2.3652    1.3694 H   0  0  0  0  0  0  0  0  0  0  0  0
    0.7860   -0.8180    1.5003 H   0  0  0  0  0  0  0  0  0  0  0  0
    0.7097   -0.3412   -1.5195 H   0  0  0  0  0  0  0  0  0  0  0  0
    1.0759    2.9414    1.0013 H   0  0  0  0  0  0  0  0  0  0  0  0
    0.7231    1.4508    1.7805 H   0  0  0  0  0  0  0  0  0  0  0  0
   -1.4582   -1.3974    2.5574 H   0  0  0  0  0  0  0  0  0  0  0  0
   -1.0008    0.2971    2.6217 H   0  0  0  0  0  0  0  0  0  0  0  0
   -2.6485   -0.1412    2.1938 H   0  0  0  0  0  0  0  0  0  0  0  0
    1.5500    1.8031   -1.1430 H   0  0  0  0  0  0  0  0  0  0  0  0
   -0.5132    3.1645   -1.4468 H   0  0  0  0  0  0  0  0  0  0  0  0
   -2.0852    3.5073   -0.7068 H   0  0  0  0  0  0  0  0  0  0  0  0
   -0.6232    4.2343   -0.0393 H   0  0  0  0  0  0  0  0  0  0  0  0
   -3.0981   -2.3300    1.2905 H   0  0  0  0  0  0  0  0  0  0  0  0
   -0.1283   -2.8064    1.0209 H   0  0  0  0  0  0  0  0  0  0  0  0
    2.2759   -2.5266   -1.8214 H   0  0  0  0  0  0  0  0  0  0  0  0
    4.0296   -2.1843   -1.3290 H   0  0  0  0  0  0  0  0  0  0  0  0
  1  8  1  0  0  0  0
  1  9  1  0  0  0  0
  2 10  1  0  0  0  0
  2 37  1  0  0  0  0
  3 12  1  0  0  0  0
  3 38  1  0  0  0  0
  4 16  1  0  0  0  0
  4 19  1  0  0  0  0
  5 19  2  0  0  0  0
  6  7  1  0  0  0  0
  6 10  1  0  0  0  0
  6 12  1  0  0  0  0
  6 15  1  0  0  0  0
  7  8  1  0  0  0  0
  7 11  1  0  0  0  0
  7 21  1  0  0  0  0
  8  9  1  0  0  0  0
  8 22  1  0  0  0  0
  9 10  1  0  0  0  0
  9 23  1  0  0  0  0
 10 24  1  0  0  0  0
 11 14  1  0  0  0  0
 11 17  1  0  0  0  0
 11 25  1  0  0  0  0
 12 13  1  0  0  0  0
 12 26  1  0  0  0  0
 13 16  1  0  0  0  0
 13 18  1  0  0  0  0
 13 27  1  0  0  0  0
 14 16  1  0  0  0  0
 14 28  1  0  0  0  0
 14 29  1  0  0  0  0
 15 30  1  0  0  0  0
 15 31  1  0  0  0  0
 15 32  1  0  0  0  0
 16 33  1  0  0  0  0
 17 34  1  0  0  0  0
 17 35  1  0  0  0  0
 17 36  1  0  0  0  0
 18 19  1  0  0  0  0
 18 20  2  0  0  0  0
 20 39  1  0  0  0  0
 20 40  1  0  0  0  0
M  END
> <PUBCHEM_COMPOUND_CID>
442171

> <PUBCHEM_CONFORMER_RMSD>
0.6

> <PUBCHEM_CONFORMER_DIVERSEORDER>
1
3
2

> <PUBCHEM_MMFF94_PARTIAL_CHARGES>
21
1 -0.3
10 0.38
12 0.28
13 0.14
16 0.28
18 -0.12
19 0.71
2 -0.68
20 -0.3
22 0.1
23 0.1
3 -0.68
37 0.4
38 0.4
39 0.15
4 -0.43
40 0.15
5 -0.57
7 0.09
8 -0.05
9 -0.05

> <PUBCHEM_EFFECTIVE_ROTOR_COUNT>
1.2

> <PUBCHEM_PHARMACOPHORE_FEATURES>
9
1 1 acceptor
1 2 acceptor
1 2 donor
1 3 acceptor
1 3 donor
1 5 acceptor
5 4 13 16 18 19 rings
6 1 6 7 8 9 10 rings
7 6 7 11 12 13 14 16 rings

> <PUBCHEM_HEAVY_ATOM_COUNT>
20

> <PUBCHEM_ATOM_DEF_STEREO_COUNT>
9

> <PUBCHEM_ATOM_UDEF_STEREO_COUNT>
0

> <PUBCHEM_BOND_DEF_STEREO_COUNT>
0

> <PUBCHEM_BOND_UDEF_STEREO_COUNT>
0

> <PUBCHEM_ISOTOPIC_ATOM_COUNT>
0

> <PUBCHEM_COMPONENT_COUNT>
1

> <PUBCHEM_CACTVS_TAUTO_COUNT>
1

> <PUBCHEM_CONFORMER_ID>
0006BF3B00000001

> <PUBCHEM_MMFF94_ENERGY>
80.6047

> <PUBCHEM_FEATURE_SELFOVERLAP>
45.721

> <PUBCHEM_SHAPE_FINGERPRINT>
10863032 1 18338801087358163797
10948715 1 12247678292293394165
10967382 1 18410293596806760631
11132069 177 18261117340008456712
11315181 36 18202282516415192904
12553582 1 18264188280163991524
12714826 92 17702359811201615715
13140716 1 18339356370837134145
13544592 271 18266187127525312192
14115302 16 18201714050806073901
14251745 187 18335990838896125192
14289901 80 15574708114840876050
14614273 12 18128540551123736829
14790565 3 17975690916087703721
16945 1 18341895259255150649
17357779 13 18335143102577902124
18186145 218 18272372013775751653
19591789 44 17760639670156481849
19765921 60 17417540236505030851
19868273 325 18412539890672923393
200 152 17458348532764750830
20201158 50 18408324380271808556
21524375 3 17334765873987302289
22721475 48 18408600348958365120
22802520 49 18336265652410071721
2334 1 18194960747129508737
23402539 116 18336839640408273436
23419403 2 17242199931285708824
23493267 7 17274827973537062841
23557571 272 18409442570638742110
23559900 14 18409453596584532640
25 1 18272098244281554237
2748010 2 18267305339614566777
353137 74 18340492286802882977
81228 2 18339913922027609984
8809292 202 18341895160339040602
9709674 26 18335136544394683286

> <PUBCHEM_SHAPE_MULTIPOLES>
382.24
5.97
2.76
1.18
3.75
0.93
0.21
-1.43
-1.23
-0.85
-0.08
-0.49
-0.17
0.79

> <PUBCHEM_SHAPE_SELFOVERLAP>
828.757

> <PUBCHEM_SHAPE_VOLUME>
208.4

> <PUBCHEM_COORDINATE_TYPE>
2
5
10

$$$$

