24892727
  -OEChem-07051212463D

 66 70  0     1  0  0  0  0  0999 V2000
    3.0746    2.0252    0.8628 O   0  0  0  0  0  0  0  0  0  0  0  0
    1.3806    1.1609   -1.9614 O   0  0  0  0  0  0  0  0  0  0  0  0
   -3.9703   -1.4698   -0.7887 O   0  0  0  0  0  0  0  0  0  0  0  0
    1.7085    3.3735   -2.3205 O   0  0  0  0  0  0  0  0  0  0  0  0
    5.6880   -1.3806   -1.8912 O   0  0  0  0  0  0  0  0  0  0  0  0
    5.0041   -2.4044    0.0232 O   0  0  0  0  0  0  0  0  0  0  0  0
   -4.0732   -3.6579   -1.2824 O   0  0  0  0  0  0  0  0  0  0  0  0
   -5.0026    2.9219   -0.2933 O   0  0  0  0  0  0  0  0  0  0  0  0
    1.5742    0.2259    0.3207 C   0  0  1  0  0  0  0  0  0  0  0  0
    3.0475   -0.2888    0.3572 C   0  0  2  0  0  0  0  0  0  0  0  0
    0.7092   -0.5977    1.2967 C   0  0  1  0  0  0  0  0  0  0  0  0
    1.6817    1.6881    0.7938 C   0  0  2  0  0  0  0  0  0  0  0  0
    3.8289    0.8282    1.0932 C   0  0  0  0  0  0  0  0  0  0  0  0
    0.8622    0.1810   -1.0459 C   0  0  0  0  0  0  0  0  0  0  0  0
   -0.2610    0.3114    2.0605 C   0  0  0  0  0  0  0  0  0  0  0  0
   -2.2719   -0.6317    0.8052 C   0  0  2  0  0  0  0  0  0  0  0  0
    0.0037   -1.7319    0.5635 C   0  0  0  0  0  0  0  0  0  0  0  0
   -1.4848    0.6397    1.2170 C   0  0  0  0  0  0  0  0  0  0  0  0
    0.9986    2.6890   -0.1281 C   0  0  0  0  0  0  0  0  0  0  0  0
    3.6375   -0.6683   -1.0062 C   0  0  0  0  0  0  0  0  0  0  0  0
   -1.3350   -1.7473    0.3421 C   0  0  0  0  0  0  0  0  0  0  0  0
    5.2549    1.0890    0.6014 C   0  0  0  0  0  0  0  0  0  0  0  0
    3.8865    0.5810    2.6105 C   0  0  0  0  0  0  0  0  0  0  0  0
   -3.1804   -0.3184   -0.4159 C   0  0  2  0  0  0  0  0  0  0  0  0
    1.4049    2.4591   -1.5618 C   0  0  0  0  0  0  0  0  0  0  0  0
   -1.9911   -2.8789   -0.4111 C   0  0  0  0  0  0  0  0  0  0  0  0
   -3.0652   -1.1528    2.0281 C   0  0  0  0  0  0  0  0  0  0  0  0
    0.9277   -2.8508    0.1379 C   0  0  0  0  0  0  0  0  0  0  0  0
    4.8217   -1.5865   -0.8660 C   0  0  0  0  0  0  0  0  0  0  0  0
   -3.4254   -2.7019   -0.8591 C   0  0  0  0  0  0  0  0  0  0  0  0
   -4.1418    0.8462   -0.2446 C   0  0  0  0  0  0  0  0  0  0  0  0
   -5.4459    0.8008    0.3034 C   0  0  0  0  0  0  0  0  0  0  0  0
   -3.9190    2.1583   -0.5925 C   0  0  0  0  0  0  0  0  0  0  0  0
   -5.9272    2.0884    0.2515 C   0  0  0  0  0  0  0  0  0  0  0  0
    3.1115   -1.1911    0.9762 H   0  0  0  0  0  0  0  0  0  0  0  0
    1.3350   -1.0465    2.0795 H   0  0  0  0  0  0  0  0  0  0  0  0
    1.4009    1.9280    1.8075 H   0  0  0  0  0  0  0  0  0  0  0  0
    0.9653   -0.7665   -1.5741 H   0  0  0  0  0  0  0  0  0  0  0  0
   -0.2074    0.3713   -1.0270 H   0  0  0  0  0  0  0  0  0  0  0  0
    0.0978    1.1723    2.6159 H   0  0  0  0  0  0  0  0  0  0  0  0
   -0.6175   -0.2979    2.9057 H   0  0  0  0  0  0  0  0  0  0  0  0
   -2.1379    1.2816    1.8246 H   0  0  0  0  0  0  0  0  0  0  0  0
   -1.2510    1.2436    0.3508 H   0  0  0  0  0  0  0  0  0  0  0  0
    1.3478    3.6967    0.1338 H   0  0  0  0  0  0  0  0  0  0  0  0
   -0.0860    2.7128   -0.0662 H   0  0  0  0  0  0  0  0  0  0  0  0
    2.9408   -1.2479   -1.6144 H   0  0  0  0  0  0  0  0  0  0  0  0
    3.9025    0.2199   -1.5878 H   0  0  0  0  0  0  0  0  0  0  0  0
    5.6968    1.9250    1.1588 H   0  0  0  0  0  0  0  0  0  0  0  0
    5.2837    1.4083   -0.4448 H   0  0  0  0  0  0  0  0  0  0  0  0
    5.9086    0.2242    0.7437 H   0  0  0  0  0  0  0  0  0  0  0  0
    4.3417    1.4350    3.1257 H   0  0  0  0  0  0  0  0  0  0  0  0
    4.4689   -0.3162    2.8448 H   0  0  0  0  0  0  0  0  0  0  0  0
    2.8896    0.4654    3.0466 H   0  0  0  0  0  0  0  0  0  0  0  0
   -2.5601   -0.0827   -1.2934 H   0  0  0  0  0  0  0  0  0  0  0  0
   -1.4201   -3.0947   -1.3221 H   0  0  0  0  0  0  0  0  0  0  0  0
   -1.9860   -3.7632    0.2385 H   0  0  0  0  0  0  0  0  0  0  0  0
   -3.6748   -0.3588    2.4732 H   0  0  0  0  0  0  0  0  0  0  0  0
   -2.4064   -1.5379    2.8139 H   0  0  0  0  0  0  0  0  0  0  0  0
   -3.7463   -1.9697    1.7673 H   0  0  0  0  0  0  0  0  0  0  0  0
    1.4454   -2.6442   -0.7972 H   0  0  0  0  0  0  0  0  0  0  0  0
    0.3944   -3.7974    0.0055 H   0  0  0  0  0  0  0  0  0  0  0  0
    1.6743   -3.0492    0.9143 H   0  0  0  0  0  0  0  0  0  0  0  0
   -5.9739   -0.0587    0.6911 H   0  0  0  0  0  0  0  0  0  0  0  0
   -3.0875    2.6841   -1.0391 H   0  0  0  0  0  0  0  0  0  0  0  0
    6.4737   -1.9646   -1.8285 H   0  0  0  0  0  0  0  0  0  0  0  0
   -6.8574    2.5512    0.5467 H   0  0  0  0  0  0  0  0  0  0  0  0
  1 12  1  0  0  0  0
  1 13  1  0  0  0  0
  2 14  1  0  0  0  0
  2 25  1  0  0  0  0
  3 24  1  0  0  0  0
  3 30  1  0  0  0  0
  4 25  2  0  0  0  0
  5 29  1  0  0  0  0
  5 65  1  0  0  0  0
  6 29  2  0  0  0  0
  7 30  2  0  0  0  0
  8 33  1  0  0  0  0
  8 34  1  0  0  0  0
  9 10  1  0  0  0  0
  9 11  1  0  0  0  0
  9 12  1  0  0  0  0
  9 14  1  0  0  0  0
 10 13  1  0  0  0  0
 10 20  1  0  0  0  0
 10 35  1  0  0  0  0
 11 15  1  0  0  0  0
 11 17  1  0  0  0  0
 11 36  1  0  0  0  0
 12 19  1  0  0  0  0
 12 37  1  0  0  0  0
 13 22  1  0  0  0  0
 13 23  1  0  0  0  0
 14 38  1  0  0  0  0
 14 39  1  0  0  0  0
 15 18  1  0  0  0  0
 15 40  1  0  0  0  0
 15 41  1  0  0  0  0
 16 18  1  0  0  0  0
 16 21  1  0  0  0  0
 16 24  1  0  0  0  0
 16 27  1  0  0  0  0
 17 21  2  0  0  0  0
 17 28  1  0  0  0  0
 18 42  1  0  0  0  0
 18 43  1  0  0  0  0
 19 25  1  0  0  0  0
 19 44  1  0  0  0  0
 19 45  1  0  0  0  0
 20 29  1  0  0  0  0
 20 46  1  0  0  0  0
 20 47  1  0  0  0  0
 21 26  1  0  0  0  0
 22 48  1  0  0  0  0
 22 49  1  0  0  0  0
 22 50  1  0  0  0  0
 23 51  1  0  0  0  0
 23 52  1  0  0  0  0
 23 53  1  0  0  0  0
 24 31  1  0  0  0  0
 24 54  1  0  0  0  0
 26 30  1  0  0  0  0
 26 55  1  0  0  0  0
 26 56  1  0  0  0  0
 27 57  1  0  0  0  0
 27 58  1  0  0  0  0
 27 59  1  0  0  0  0
 28 60  1  0  0  0  0
 28 61  1  0  0  0  0
 28 62  1  0  0  0  0
 31 32  1  0  0  0  0
 31 33  2  0  0  0  0
 32 34  2  0  0  0  0
 32 63  1  0  0  0  0
 33 64  1  0  0  0  0
 34 66  1  0  0  0  0
M  END
> <PUBCHEM_COMPOUND_CID>
24892727

> <PUBCHEM_CONFORMER_RMSD>
1

> <PUBCHEM_CONFORMER_DIVERSEORDER>
1
3
2
4

> <PUBCHEM_MMFF94_PARTIAL_CHARGES>
31
1 -0.56
11 0.14
12 0.28
13 0.28
14 0.28
16 0.14
17 -0.28
19 0.06
2 -0.43
20 0.06
21 -0.28
24 0.46
25 0.66
26 0.2
28 0.14
29 0.66
3 -0.43
30 0.66
31 -0.18
32 -0.15
33 -0.01
34 -0.01
4 -0.57
5 -0.65
6 -0.57
63 0.15
64 0.15
65 0.5
66 0.15
7 -0.57
8 -0.28

> <PUBCHEM_EFFECTIVE_ROTOR_COUNT>
6.4

> <PUBCHEM_PHARMACOPHORE_FEATURES>
13
1 1 acceptor
1 4 acceptor
1 5 acceptor
1 6 acceptor
1 7 acceptor
1 8 acceptor
3 13 22 23 hydrophobe
3 5 6 29 anion
5 1 9 10 12 13 rings
5 8 31 32 33 34 rings
6 11 15 16 17 18 21 rings
6 2 9 12 14 19 25 rings
6 3 16 21 24 26 30 rings

> <PUBCHEM_HEAVY_ATOM_COUNT>
34

> <PUBCHEM_ATOM_DEF_STEREO_COUNT>
6

> <PUBCHEM_ATOM_UDEF_STEREO_COUNT>
0

> <PUBCHEM_BOND_DEF_STEREO_COUNT>
0

> <PUBCHEM_BOND_UDEF_STEREO_COUNT>
0

> <PUBCHEM_ISOTOPIC_ATOM_COUNT>
0

> <PUBCHEM_COMPONENT_COUNT>
1

> <PUBCHEM_CACTVS_TAUTO_COUNT>
1

> <PUBCHEM_CONFORMER_ID>
017BD53700000001

> <PUBCHEM_MMFF94_ENERGY>
132.2947

> <PUBCHEM_FEATURE_SELFOVERLAP>
66.305

> <PUBCHEM_SHAPE_FINGERPRINT>
11513181 2 18267013973365311924
11578080 2 18187371978194526224
12107698 1 17845934014319240337
12403260 363 18126016974601402251
12422481 6 17912954921066963120
12633257 1 16988847172516623241
12788726 201 17979348660881520823
13140716 1 17988361464657678401
13224815 77 16951392231227123339
13583140 156 17241620424491369080
13944108 23 16970557097400739573
14294032 229 18408042897665402313
144659 39 17386005036097935263
14955137 171 18131060576077213385
15238133 3 17275107270685935344
1601671 61 18131069384996939760
17349148 13 18192156988363385738
17492 89 18263365780689030126
17980427 23 18129394721313674688
1813 80 18130785625735684212
21033648 29 18335428949794364808
22121540 332 17269492211237739957
22393880 68 18334017202481492850
23557571 272 18114744815858565897
23559900 14 17967817150227545458
25222932 49 16302333917403202678
32027 91 17896034502932654262
3388396 114 17621885288724897157
340366 18 18410287021591658421
439807 62 15864939572792340949
44062 13 18334012787634823519
5081480 168 17346594136684461260
508706 21 18411984624553469575
5283173 99 18260555510672286675
5895379 119 18340769217540865860
633830 44 17846776278300729290
7164475 11 18192997006889057143

> <PUBCHEM_SHAPE_MULTIPOLES>
652.75
11.55
3.72
1.86
2.08
0.56
0.21
-1.16
-1.26
2.2
-1.68
-1.42
-0.44
0.14

> <PUBCHEM_SHAPE_SELFOVERLAP>
1424.27

> <PUBCHEM_SHAPE_VOLUME>
350.9

> <PUBCHEM_COORDINATE_TYPE>
2
5
10

$$$$

