441861
  -OEChem-07051212563D

 76 83  0     1  0  0  0  0  0999 V2000
    1.5604    2.8354   -0.8483 O   0  0  0  0  0  0  0  0  0  0  0  0
    3.7034    2.4350    0.6812 O   0  0  0  0  0  0  0  0  0  0  0  0
    0.5991   -1.2271   -2.1420 O   0  0  0  0  0  0  0  0  0  0  0  0
   -4.1346   -1.0183   -0.6624 O   0  0  0  0  0  0  0  0  0  0  0  0
   -5.0925    1.4630    0.2413 O   0  0  0  0  0  0  0  0  0  0  0  0
    2.9453   -1.9192   -1.3046 O   0  0  0  0  0  0  0  0  0  0  0  0
    8.0053   -0.9084    0.7019 O   0  0  0  0  0  0  0  0  0  0  0  0
   -5.8586   -0.2454    1.6771 O   0  0  0  0  0  0  0  0  0  0  0  0
   -5.9324   -0.2479   -1.9954 O   0  0  0  0  0  0  0  0  0  0  0  0
   -6.7095   -2.7475   -1.3547 O   0  0  0  0  0  0  0  0  0  0  0  0
    8.4208   -2.9096   -0.3556 O   0  0  0  0  0  0  0  0  0  0  0  0
    1.4958    1.6953    0.0226 C   0  0  1  0  0  0  0  0  0  0  0  0
    0.5819    0.5779   -0.4698 C   0  0  1  0  0  0  0  0  0  0  0  0
    2.8485    1.2807    0.5700 C   0  0  1  0  0  0  0  0  0  0  0  0
    0.9182    3.0420    0.4183 C   0  0  2  0  0  0  0  0  0  0  0  0
   -0.9023    1.0349   -0.7982 C   0  0  2  0  0  0  0  0  0  0  0  0
    3.5845    0.1613   -0.2443 C   0  0  1  0  0  0  0  0  0  0  0  0
   -1.3621    2.0424    0.3151 C   0  0  1  0  0  0  0  0  0  0  0  0
   -0.5372    3.3317    0.3145 C   0  0  0  0  0  0  0  0  0  0  0  0
    1.3418   -0.1577   -1.5857 C   0  0  1  0  0  0  0  0  0  0  0  0
    2.7372    0.7200    1.9915 C   0  0  0  0  0  0  0  0  0  0  0  0
    4.2886   -0.7144    0.8653 C   0  0  2  0  0  0  0  0  0  0  0  0
   -1.8635   -0.1986   -0.7413 C   0  0  0  0  0  0  0  0  0  0  0  0
    2.6285   -0.7567   -1.0345 C   0  0  0  0  0  0  0  0  0  0  0  0
    4.0785    0.0328    2.1864 C   0  0  0  0  0  0  0  0  0  0  0  0
   -2.8612    2.3839    0.2678 C   0  0  0  0  0  0  0  0  0  0  0  0
   -1.0024    1.6547   -2.2143 C   0  0  0  0  0  0  0  0  0  0  0  0
   -3.3479    0.1713   -0.7900 C   0  0  2  0  0  0  0  0  0  0  0  0
   -3.7077    1.1207    0.3416 C   0  0  2  0  0  0  0  0  0  0  0  0
    4.5465    0.7425   -1.2982 C   0  0  0  0  0  0  0  0  0  0  0  0
    5.7231   -1.0807    0.6495 C   0  0  0  0  0  0  0  0  0  0  0  0
   -5.5345   -0.7332   -0.7212 C   0  0  2  0  0  0  0  0  0  0  0  0
    6.8238   -0.2010    1.0925 C   0  0  0  0  0  0  0  0  0  0  0  0
   -5.9290    0.2967    0.3518 C   0  0  2  0  0  0  0  0  0  0  0  0
    6.1916   -2.1800    0.0648 C   0  0  0  0  0  0  0  0  0  0  0  0
   -6.2346   -2.0582   -0.4534 C   0  0  0  0  0  0  0  0  0  0  0  0
    7.6514   -2.0778    0.0936 C   0  0  0  0  0  0  0  0  0  0  0  0
   -6.2504   -2.5216    0.9824 C   0  0  0  0  0  0  0  0  0  0  0  0
   -6.7252   -1.3683    1.8561 C   0  0  1  0  0  0  0  0  0  0  0  0
   -6.6887   -1.7508    3.3288 C   0  0  0  0  0  0  0  0  0  0  0  0
    0.4833   -0.1224    0.3717 H   0  0  0  0  0  0  0  0  0  0  0  0
    1.4278    3.6655    1.1397 H   0  0  0  0  0  0  0  0  0  0  0  0
   -1.1860    1.5489    1.2841 H   0  0  0  0  0  0  0  0  0  0  0  0
   -0.7428    3.9370   -0.5762 H   0  0  0  0  0  0  0  0  0  0  0  0
   -0.8318    3.9465    1.1741 H   0  0  0  0  0  0  0  0  0  0  0  0
    1.6153    0.5186   -2.4025 H   0  0  0  0  0  0  0  0  0  0  0  0
    1.9252   -0.0090    2.0872 H   0  0  0  0  0  0  0  0  0  0  0  0
    2.5854    1.5012    2.7441 H   0  0  0  0  0  0  0  0  0  0  0  0
    3.7315   -1.6569    0.9769 H   0  0  0  0  0  0  0  0  0  0  0  0
   -1.6760   -0.7789    0.1726 H   0  0  0  0  0  0  0  0  0  0  0  0
   -1.6740   -0.8914   -1.5671 H   0  0  0  0  0  0  0  0  0  0  0  0
    4.8476    0.7774    2.4102 H   0  0  0  0  0  0  0  0  0  0  0  0
    4.0471   -0.6573    3.0372 H   0  0  0  0  0  0  0  0  0  0  0  0
   -3.1263    3.0384    1.1084 H   0  0  0  0  0  0  0  0  0  0  0  0
   -3.1119    2.9578   -0.6329 H   0  0  0  0  0  0  0  0  0  0  0  0
   -0.2704    2.4472   -2.3831 H   0  0  0  0  0  0  0  0  0  0  0  0
   -0.8400    0.8992   -2.9906 H   0  0  0  0  0  0  0  0  0  0  0  0
   -1.9863    2.0927   -2.4048 H   0  0  0  0  0  0  0  0  0  0  0  0
   -3.5814    0.6192   -1.7633 H   0  0  0  0  0  0  0  0  0  0  0  0
   -3.5428    0.6398    1.3151 H   0  0  0  0  0  0  0  0  0  0  0  0
    5.3417    1.3567   -0.8713 H   0  0  0  0  0  0  0  0  0  0  0  0
    5.0175   -0.0481   -1.8939 H   0  0  0  0  0  0  0  0  0  0  0  0
    3.9990    1.3769   -2.0059 H   0  0  0  0  0  0  0  0  0  0  0  0
    4.5907    2.1647    0.9648 H   0  0  0  0  0  0  0  0  0  0  0  0
    0.3724   -1.8397   -1.4213 H   0  0  0  0  0  0  0  0  0  0  0  0
    6.8286    0.7794    0.6131 H   0  0  0  0  0  0  0  0  0  0  0  0
    6.8609   -0.0812    2.1788 H   0  0  0  0  0  0  0  0  0  0  0  0
   -6.9541    0.6486    0.1828 H   0  0  0  0  0  0  0  0  0  0  0  0
    5.6363   -2.9998   -0.3568 H   0  0  0  0  0  0  0  0  0  0  0  0
   -5.8934   -0.9906   -2.6216 H   0  0  0  0  0  0  0  0  0  0  0  0
   -6.9171   -3.3845    1.0790 H   0  0  0  0  0  0  0  0  0  0  0  0
   -5.2314   -2.8313    1.2402 H   0  0  0  0  0  0  0  0  0  0  0  0
   -7.7485   -1.0734    1.5907 H   0  0  0  0  0  0  0  0  0  0  0  0
   -7.0121   -0.9079    3.9492 H   0  0  0  0  0  0  0  0  0  0  0  0
   -7.3404   -2.6054    3.5343 H   0  0  0  0  0  0  0  0  0  0  0  0
   -5.6699   -2.0003    3.6456 H   0  0  0  0  0  0  0  0  0  0  0  0
  1 12  1  0  0  0  0
  1 15  1  0  0  0  0
  2 14  1  0  0  0  0
  2 64  1  0  0  0  0
  3 20  1  0  0  0  0
  3 65  1  0  0  0  0
  4 28  1  0  0  0  0
  4 32  1  0  0  0  0
  5 29  1  0  0  0  0
  5 34  1  0  0  0  0
  6 24  2  0  0  0  0
  7 33  1  0  0  0  0
  7 37  1  0  0  0  0
  8 34  1  0  0  0  0
  8 39  1  0  0  0  0
  9 32  1  0  0  0  0
  9 70  1  0  0  0  0
 10 36  2  0  0  0  0
 11 37  2  0  0  0  0
 12 13  1  0  0  0  0
 12 14  1  0  0  0  0
 12 15  1  0  0  0  0
 13 16  1  0  0  0  0
 13 20  1  0  0  0  0
 13 41  1  0  0  0  0
 14 17  1  0  0  0  0
 14 21  1  0  0  0  0
 15 19  1  0  0  0  0
 15 42  1  0  0  0  0
 16 18  1  0  0  0  0
 16 23  1  0  0  0  0
 16 27  1  0  0  0  0
 17 22  1  0  0  0  0
 17 24  1  0  0  0  0
 17 30  1  0  0  0  0
 18 19  1  0  0  0  0
 18 26  1  0  0  0  0
 18 43  1  0  0  0  0
 19 44  1  0  0  0  0
 19 45  1  0  0  0  0
 20 24  1  0  0  0  0
 20 46  1  0  0  0  0
 21 25  1  0  0  0  0
 21 47  1  0  0  0  0
 21 48  1  0  0  0  0
 22 25  1  0  0  0  0
 22 31  1  0  0  0  0
 22 49  1  0  0  0  0
 23 28  1  0  0  0  0
 23 50  1  0  0  0  0
 23 51  1  0  0  0  0
 25 52  1  0  0  0  0
 25 53  1  0  0  0  0
 26 29  1  0  0  0  0
 26 54  1  0  0  0  0
 26 55  1  0  0  0  0
 27 56  1  0  0  0  0
 27 57  1  0  0  0  0
 27 58  1  0  0  0  0
 28 29  1  0  0  0  0
 28 59  1  0  0  0  0
 29 60  1  0  0  0  0
 30 61  1  0  0  0  0
 30 62  1  0  0  0  0
 30 63  1  0  0  0  0
 31 33  1  0  0  0  0
 31 35  2  0  0  0  0
 32 34  1  0  0  0  0
 32 36  1  0  0  0  0
 33 66  1  0  0  0  0
 33 67  1  0  0  0  0
 34 68  1  0  0  0  0
 35 37  1  0  0  0  0
 35 69  1  0  0  0  0
 36 38  1  0  0  0  0
 38 39  1  0  0  0  0
 38 71  1  0  0  0  0
 38 72  1  0  0  0  0
 39 40  1  0  0  0  0
 39 73  1  0  0  0  0
 40 74  1  0  0  0  0
 40 75  1  0  0  0  0
 40 76  1  0  0  0  0
M  END
> <PUBCHEM_COMPOUND_CID>
441861

> <PUBCHEM_CONFORMER_RMSD>
0.8

> <PUBCHEM_CONFORMER_DIVERSEORDER>
3
1
2

> <PUBCHEM_MMFF94_PARTIAL_CHARGES>
36
1 -0.3
10 -0.57
11 -0.57
12 -0.04
13 0.09
14 0.38
15 -0.05
17 0.06
19 0.09
2 -0.68
20 0.34
22 0.14
24 0.45
28 0.28
29 0.28
3 -0.68
31 -0.28
32 0.62
33 0.42
34 0.56
35 -0.14
36 0.45
37 0.71
38 0.06
39 0.28
4 -0.56
42 0.1
5 -0.56
6 -0.57
64 0.4
65 0.4
69 0.15
7 -0.43
70 0.4
8 -0.56
9 -0.68

> <PUBCHEM_EFFECTIVE_ROTOR_COUNT>
4

> <PUBCHEM_PHARMACOPHORE_FEATURES>
20
1 1 acceptor
1 10 acceptor
1 11 acceptor
1 2 acceptor
1 2 donor
1 3 acceptor
1 3 donor
1 4 acceptor
1 5 acceptor
1 6 acceptor
1 8 acceptor
1 9 acceptor
1 9 donor
5 14 17 21 22 25 rings
5 7 31 33 35 37 rings
6 12 13 14 17 20 24 rings
6 16 18 23 26 28 29 rings
6 4 5 28 29 32 34 rings
6 8 32 34 36 38 39 rings
7 1 12 13 15 16 18 19 rings

> <PUBCHEM_HEAVY_ATOM_COUNT>
40

> <PUBCHEM_ATOM_DEF_STEREO_COUNT>
14

> <PUBCHEM_ATOM_UDEF_STEREO_COUNT>
0

> <PUBCHEM_BOND_DEF_STEREO_COUNT>
0

> <PUBCHEM_BOND_UDEF_STEREO_COUNT>
0

> <PUBCHEM_ISOTOPIC_ATOM_COUNT>
0

> <PUBCHEM_COMPONENT_COUNT>
1

> <PUBCHEM_CACTVS_TAUTO_COUNT>
8

> <PUBCHEM_CONFORMER_ID>
0006BE0500000003

> <PUBCHEM_MMFF94_ENERGY>
118.7391

> <PUBCHEM_FEATURE_SELFOVERLAP>
101.883

> <PUBCHEM_SHAPE_FINGERPRINT>
10169797 241 18265031562273814786
10675989 125 9510919092790648484
11115154 58 15913335735901461293
11456790 92 16371015148399722634
117089 54 18412539895021366235
12106331 60 18343028825573147953
12166972 35 17775001280247127468
12218070 45 17168154382150376919
12422481 6 17749382672859144901
12522641 126 18200871769745663604
13782708 43 18131072636123457628
13811026 1 18342461426192051794
13947930 73 18129941170303854139
14294032 229 7420936556953652616
14849402 71 17168440242446796200
15064986 96 16806165609005514958
15289351 153 9871754581601063172
15510800 12 18130501959941051131
16992727 255 10303807709610519414
16994733 274 6771859667480194878
18608769 82 18261679263533434830
19246450 95 17822284752004018593
19841028 212 18120373147990771683
20028762 73 18334581221829166670
20511986 3 8358254826665296352
20715895 44 9439113291648109954
21033648 29 4678548987709162009
21033650 10 15913059771784697885
21298829 104 9223232970235793082
21304304 249 18334301958781316406
21756936 100 5906038253951112517
21781051 124 18186792609425105790
21792965 106 8574170288261248862
21987483 16 17099486475339965343
22122407 14 14346081880086758003
2260408 40 16588290718055921982
23522609 53 18194932258744544109
23576562 1 10159108646226289402
25269216 80 14117512118135104731
2747138 104 18336269024513384808
2838139 119 5978092557643100090
3178227 256 17894630362211670074
3383291 50 18272089378958373050
3862424 121 16772650141207657395
392239 28 16805044004092452081
4112364 45 5328166888195465746
4169191 19 9007061257769202403
4353968 344 14979129123843268082
439807 62 17989481901755828907
4461854 278 18113334198339073582
465052 167 18411416189826480588
484989 97 17274247362356335243
5104073 3 17677604440083011827
54039377 194 18412541042399645598
563151 248 16443358541701909134
6009941 240 18272372031578625949
6201320 82 7492741297936420267
636775 8 18337949113046975534
6691757 9 15719406018167199589
9555976 147 16660640701374237199
9896288 288 17824260625126694025
9962374 69 18265904561990879327
999808 66 18409167735670960722

> <PUBCHEM_SHAPE_MULTIPOLES>
758.62
21.58
3.22
2.02
2.65
0.72
0.57
-22.16
6.05
-0.16
0.22
-2.13
-0.7
1.27

> <PUBCHEM_SHAPE_SELFOVERLAP>
1686.782

> <PUBCHEM_SHAPE_VOLUME>
397

> <PUBCHEM_COORDINATE_TYPE>
2
5
10

$$$$

