5411
  -OEChem-07051212533D

 43 43  0     0  0  0  0  0  0999 V2000
    2.6684   -0.0653    0.1074 O   0  0  0  0  0  0  0  0  0  0  0  0
    2.0965   -2.2942    0.1680 O   0  0  0  0  0  0  0  0  0  0  0  0
   -3.5615    0.7635   -0.0856 N   0  0  0  0  0  0  0  0  0  0  0  0
    6.3012    0.5659    0.1994 N   0  0  0  0  0  0  0  0  0  0  0  0
   -6.0051    0.7101   -0.0830 C   0  0  0  0  0  0  0  0  0  0  0  0
   -4.7143   -0.1045   -0.0863 C   0  0  0  0  0  0  0  0  0  0  0  0
   -7.2574   -0.1691   -0.0366 C   0  0  0  0  0  0  0  0  0  0  0  0
   -2.2537    0.3064   -0.0369 C   0  0  0  0  0  0  0  0  0  0  0  0
    4.8792    0.8682    0.1340 C   0  0  0  0  0  0  0  0  0  0  0  0
    4.0570   -0.4103    0.1558 C   0  0  0  0  0  0  0  0  0  0  0  0
   -8.5234    0.6711    0.0321 C   0  0  0  0  0  0  0  0  0  0  0  0
    0.4012   -0.6208    0.0649 C   0  0  0  0  0  0  0  0  0  0  0  0
   -1.1737    1.2084   -0.0376 C   0  0  0  0  0  0  0  0  0  0  0  0
   -1.9718   -1.0713    0.0160 C   0  0  0  0  0  0  0  0  0  0  0  0
    0.1423    0.7488    0.0128 C   0  0  0  0  0  0  0  0  0  0  0  0
   -0.6558   -1.5309    0.0666 C   0  0  0  0  0  0  0  0  0  0  0  0
    1.7733   -1.1000    0.1189 C   0  0  0  0  0  0  0  0  0  0  0  0
    7.0927    1.7984    0.2207 C   0  0  0  0  0  0  0  0  0  0  0  0
    6.7051   -0.2744   -0.9307 C   0  0  0  0  0  0  0  0  0  0  0  0
   -6.0037    1.3862    0.7818 H   0  0  0  0  0  0  0  0  0  0  0  0
   -6.0382    1.3483   -0.9754 H   0  0  0  0  0  0  0  0  0  0  0  0
   -4.7033   -0.7446    0.8042 H   0  0  0  0  0  0  0  0  0  0  0  0
   -4.7007   -0.7496   -0.9730 H   0  0  0  0  0  0  0  0  0  0  0  0
   -7.2937   -0.8098   -0.9251 H   0  0  0  0  0  0  0  0  0  0  0  0
   -7.2168   -0.8280    0.8385 H   0  0  0  0  0  0  0  0  0  0  0  0
   -3.7056    1.7663   -0.1329 H   0  0  0  0  0  0  0  0  0  0  0  0
    4.5815    1.4838    0.9930 H   0  0  0  0  0  0  0  0  0  0  0  0
    4.6246    1.4550   -0.7591 H   0  0  0  0  0  0  0  0  0  0  0  0
    4.2535   -0.9801    1.0719 H   0  0  0  0  0  0  0  0  0  0  0  0
    4.2557   -1.0413   -0.7158 H   0  0  0  0  0  0  0  0  0  0  0  0
   -8.5308    1.2974    0.9298 H   0  0  0  0  0  0  0  0  0  0  0  0
   -9.4059    0.0244    0.0618 H   0  0  0  0  0  0  0  0  0  0  0  0
   -8.6090    1.3231   -0.8430 H   0  0  0  0  0  0  0  0  0  0  0  0
   -1.3583    2.2797   -0.0776 H   0  0  0  0  0  0  0  0  0  0  0  0
   -2.7639   -1.8153    0.0175 H   0  0  0  0  0  0  0  0  0  0  0  0
    0.9332    1.4936    0.0099 H   0  0  0  0  0  0  0  0  0  0  0  0
   -0.4756   -2.6020    0.1066 H   0  0  0  0  0  0  0  0  0  0  0  0
    6.8155    2.4183    1.0807 H   0  0  0  0  0  0  0  0  0  0  0  0
    6.9578    2.3918   -0.6909 H   0  0  0  0  0  0  0  0  0  0  0  0
    8.1588    1.5705    0.3311 H   0  0  0  0  0  0  0  0  0  0  0  0
    6.3354   -1.2994   -0.8300 H   0  0  0  0  0  0  0  0  0  0  0  0
    7.7973   -0.3720   -0.9612 H   0  0  0  0  0  0  0  0  0  0  0  0
    6.3819    0.1358   -1.8945 H   0  0  0  0  0  0  0  0  0  0  0  0
  1 10  1  0  0  0  0
  1 17  1  0  0  0  0
  2 17  2  0  0  0  0
  3  6  1  0  0  0  0
  3  8  1  0  0  0  0
  3 26  1  0  0  0  0
  4  9  1  0  0  0  0
  4 18  1  0  0  0  0
  4 19  1  0  0  0  0
  5  6  1  0  0  0  0
  5  7  1  0  0  0  0
  5 20  1  0  0  0  0
  5 21  1  0  0  0  0
  6 22  1  0  0  0  0
  6 23  1  0  0  0  0
  7 11  1  0  0  0  0
  7 24  1  0  0  0  0
  7 25  1  0  0  0  0
  8 13  2  0  0  0  0
  8 14  1  0  0  0  0
  9 10  1  0  0  0  0
  9 27  1  0  0  0  0
  9 28  1  0  0  0  0
 10 29  1  0  0  0  0
 10 30  1  0  0  0  0
 11 31  1  0  0  0  0
 11 32  1  0  0  0  0
 11 33  1  0  0  0  0
 12 15  2  0  0  0  0
 12 16  1  0  0  0  0
 12 17  1  0  0  0  0
 13 15  1  0  0  0  0
 13 34  1  0  0  0  0
 14 16  2  0  0  0  0
 14 35  1  0  0  0  0
 15 36  1  0  0  0  0
 16 37  1  0  0  0  0
 18 38  1  0  0  0  0
 18 39  1  0  0  0  0
 18 40  1  0  0  0  0
 19 41  1  0  0  0  0
 19 42  1  0  0  0  0
 19 43  1  0  0  0  0
M  END
> <PUBCHEM_COMPOUND_CID>
5411

> <PUBCHEM_CONFORMER_RMSD>
0.8

> <PUBCHEM_CONFORMER_DIVERSEORDER>
1
119
112
158
193
124
132
206
170
122
101
82
217
35
86
85
167
189
185
123
224
140
169
210
83
207
74
209
165
142
143
73
229
69
17
150
18
216
164
199
107
37
186
192
121
92
191
71
41
28
146
130
213
24
114
32
190
220
171
162
211
187
103
221
155
67
12
152
62
178
84
182
181
113
135
219
177
110
57
139
173
6
208
48
166
163
96
89
43
126
93
144
226
22
38
81
50
161
108
40
55
39
34
156
102
70
205
174
109
120
100
63
131
223
197
184
148
77
198
203
15
88
25
98
56
136
172
79
99
129
31
153
145
115
201
13
222
16
128
47
195
116
5
76
159
196
44
53
176
157
218
30
54
94
228
175
4
14
97
45
95
133
80
160
180
212
225
134
72
20
141
183
33
64
19
21
61
46
23
111
58
10
51
3
104
68
202
230
27
66
36
52
87
149
179
200
204
9
154
137
168
188
227
194
151
75
7
65
118
11
8
138
147
29
60
106
26
105
125
42
78
127
117
215
59
2
90
49
214
91

> <PUBCHEM_MMFF94_PARTIAL_CHARGES>
21
1 -0.43
10 0.28
12 0.09
13 -0.15
14 -0.15
15 -0.15
16 -0.15
17 0.63
18 0.27
19 0.27
2 -0.57
26 0.4
3 -0.87
34 0.15
35 0.15
36 0.15
37 0.15
4 -0.81
6 0.37
8 0.1
9 0.27

> <PUBCHEM_EFFECTIVE_ROTOR_COUNT>
9

> <PUBCHEM_PHARMACOPHORE_FEATURES>
6
1 11 hydrophobe
1 2 acceptor
1 3 cation
1 3 donor
1 4 cation
6 8 12 13 14 15 16 rings

> <PUBCHEM_HEAVY_ATOM_COUNT>
19

> <PUBCHEM_ATOM_DEF_STEREO_COUNT>
0

> <PUBCHEM_ATOM_UDEF_STEREO_COUNT>
0

> <PUBCHEM_BOND_DEF_STEREO_COUNT>
0

> <PUBCHEM_BOND_UDEF_STEREO_COUNT>
0

> <PUBCHEM_ISOTOPIC_ATOM_COUNT>
0

> <PUBCHEM_COMPONENT_COUNT>
1

> <PUBCHEM_CACTVS_TAUTO_COUNT>
2

> <PUBCHEM_CONFORMER_ID>
0000152300000001

> <PUBCHEM_MMFF94_ENERGY>
48.5585

> <PUBCHEM_FEATURE_SELFOVERLAP>
30.446

> <PUBCHEM_SHAPE_FINGERPRINT>
10 15 17846499214561451584
10354089 29 17489588957446570988
106641 1 17846777386982481873
10968037 39 18409450289586133375
11315181 36 18260265253748212377
11638347 137 16415485973683265960
13073987 5 16988290892800354217
13288520 33 9007063469613816098
13533116 47 18260833756234984930
13885169 127 9151184147095998875
14123256 10 18408886243656662629
14251752 14 5328748448025623179
14251764 18 18273498970751009611
14251764 46 18410012139025749896
15048467 5 18410294704945343737
15690457 1 11383831554620019537
17834076 25 18335139795241866413
20281389 69 18202568388895348956
21095086 128 16660364788237178823
21150785 3 17022620871155233597
21267235 1 18338515369344434090
221357 26 17676204685131091288
22224240 67 17988926656235479083
23035841 295 14996004346000199813
23402539 116 18334862671889979206
23521765 1 18335139795721940277
23559900 14 18187654539697651432
246663 6 6338956676827335781
28498 318 8646775486744989945
33532 11 8862949368028114196
335352 9 18410855434406071540
33684 2 18410575097547993801
34797466 226 17822005420020829228
3545911 37 18412544318879164174
4325135 7 18411136944116898005
4340502 62 16773798112513486563
4463277 17 18409167727608325741
5486654 2 18408603656109394467
5758199 1 18410572899163094027
8209 1 18407759239769151605

> <PUBCHEM_SHAPE_MULTIPOLES>
369.31
21.83
1.54
0.66
10.75
0.34
-0.05
-8.94
-1.24
-1.41
0.1
-0.32
0.01
0.29

> <PUBCHEM_SHAPE_SELFOVERLAP>
732.995

> <PUBCHEM_SHAPE_VOLUME>
221

> <PUBCHEM_COORDINATE_TYPE>
2
5
10

$$$$

