3226
  -OEChem-07051212533D

 12 11  0     1  0  0  0  0  0999 V2000
   -1.9365   -1.8721    0.2904 Cl  0  0  0  0  0  0  0  0  0  0  0  0
   -0.3320    1.5743   -0.6925 F   0  0  0  0  0  0  0  0  0  0  0  0
   -0.3487    0.5508    1.2412 F   0  0  0  0  0  0  0  0  0  0  0  0
   -2.7497    0.5308   -0.0514 F   0  0  0  0  0  0  0  0  0  0  0  0
    2.8896   -0.7258   -0.6384 F   0  0  0  0  0  0  0  0  0  0  0  0
    2.0400    0.1805    1.1502 F   0  0  0  0  0  0  0  0  0  0  0  0
    0.6725   -0.4405   -0.5315 O   0  0  0  0  0  0  0  0  0  0  0  0
   -0.4218    0.3577   -0.0974 C   0  0  0  0  0  0  0  0  0  0  0  0
   -1.7418   -0.2794   -0.4718 C   0  0  1  0  0  0  0  0  0  0  0  0
    1.9284    0.1237   -0.1988 C   0  0  0  0  0  0  0  0  0  0  0  0
   -1.8330   -0.4069   -1.5542 H   0  0  0  0  0  0  0  0  0  0  0  0
    2.0804    1.1129   -0.6413 H   0  0  0  0  0  0  0  0  0  0  0  0
  1  9  1  0  0  0  0
  2  8  1  0  0  0  0
  3  8  1  0  0  0  0
  4  9  1  0  0  0  0
  5 10  1  0  0  0  0
  6 10  1  0  0  0  0
  7  8  1  0  0  0  0
  7 10  1  0  0  0  0
  8  9  1  0  0  0  0
  9 11  1  0  0  0  0
 10 12  1  0  0  0  0
M  END
> <PUBCHEM_COMPOUND_CID>
3226

> <PUBCHEM_CONFORMER_RMSD>
0.6

> <PUBCHEM_CONFORMER_DIVERSEORDER>
1
9
14
17
7
6
8
12
2
4
13
3
10
16
5
11
15

> <PUBCHEM_MMFF94_PARTIAL_CHARGES>
10
1 -0.29
10 0.96
2 -0.34
3 -0.34
4 -0.34
5 -0.34
6 -0.34
7 -0.56
8 0.96
9 0.63

> <PUBCHEM_EFFECTIVE_ROTOR_COUNT>
3

> <PUBCHEM_PHARMACOPHORE_FEATURES>
1
1 7 acceptor

> <PUBCHEM_HEAVY_ATOM_COUNT>
10

> <PUBCHEM_ATOM_DEF_STEREO_COUNT>
0

> <PUBCHEM_ATOM_UDEF_STEREO_COUNT>
1

> <PUBCHEM_BOND_DEF_STEREO_COUNT>
0

> <PUBCHEM_BOND_UDEF_STEREO_COUNT>
0

> <PUBCHEM_ISOTOPIC_ATOM_COUNT>
0

> <PUBCHEM_COMPONENT_COUNT>
1

> <PUBCHEM_CACTVS_TAUTO_COUNT>
1

> <PUBCHEM_CONFORMER_ID>
00000C9A00000001

> <PUBCHEM_MMFF94_ENERGY>
6.1176

> <PUBCHEM_FEATURE_SELFOVERLAP>
5.074

> <PUBCHEM_SHAPE_FINGERPRINT>
10857977 72 18263936448740152706
12716758 59 18341338880596417451
12932741 1 18186240610693620782
12932764 1 17418381280805387796
14128692 85 18125429826559609887
15310529 11 15913612786956230983
16714656 1 18271809055300973917
20653085 51 11815628513657536623
21040471 1 18269560596977106653
23552423 10 18059573529615546302
29004967 10 17821730485683113698
5084963 1 18262234525299983700

> <PUBCHEM_SHAPE_MULTIPOLES>
165.43
3.6
1.33
0.92
0.84
0.23
-0.22
1.02
0.16
-0.74
0.08
0.24
-0.04
0.23

> <PUBCHEM_SHAPE_SELFOVERLAP>
313.163

> <PUBCHEM_SHAPE_VOLUME>
103.4

> <PUBCHEM_COORDINATE_TYPE>
2
5
10

$$$$

