5281031
  -OEChem-07051212533D

 52 51  0     1  0  0  0  0  0999 V2000
   -0.3945   -1.6447    1.5600 O   0  0  0  0  0  0  0  0  0  0  0  0
   -1.8037   -2.0535   -1.8080 O   0  0  0  0  0  0  0  0  0  0  0  0
    7.7751    1.2012   -0.5312 O   0  0  0  0  0  0  0  0  0  0  0  0
    7.0707   -0.3585    0.9618 O   0  0  0  0  0  0  0  0  0  0  0  0
    0.6486   -0.9894   -0.5349 C   0  0  0  0  0  0  0  0  0  0  0  0
    2.0490   -1.1724    0.0609 C   0  0  0  0  0  0  0  0  0  0  0  0
   -0.3914   -1.8861    0.1521 C   0  0  2  0  0  0  0  0  0  0  0  0
    3.0620   -0.2419   -0.6105 C   0  0  0  0  0  0  0  0  0  0  0  0
   -1.8110   -1.7103   -0.4214 C   0  0  2  0  0  0  0  0  0  0  0  0
    4.4553   -0.4022    0.0036 C   0  0  0  0  0  0  0  0  0  0  0  0
    5.4838    0.5323   -0.6249 C   0  0  0  0  0  0  0  0  0  0  0  0
   -2.8572   -2.5561    0.2494 C   0  0  0  0  0  0  0  0  0  0  0  0
   -3.9587   -2.0552    0.8290 C   0  0  0  0  0  0  0  0  0  0  0  0
    6.8353    0.4031    0.0323 C   0  0  0  0  0  0  0  0  0  0  0  0
   -4.2811   -0.5906    0.8787 C   0  0  0  0  0  0  0  0  0  0  0  0
   -5.0912   -0.1667   -0.3117 C   0  0  0  0  0  0  0  0  0  0  0  0
   -5.0456    1.0638   -0.8446 C   0  0  0  0  0  0  0  0  0  0  0  0
   -4.1787    2.1692   -0.3162 C   0  0  0  0  0  0  0  0  0  0  0  0
   -2.8624    2.2301   -1.0345 C   0  0  0  0  0  0  0  0  0  0  0  0
   -1.7407    2.7290   -0.4935 C   0  0  0  0  0  0  0  0  0  0  0  0
   -1.6618    3.2881    0.8962 C   0  0  0  0  0  0  0  0  0  0  0  0
   -1.3018    2.2109    1.9074 C   0  0  0  0  0  0  0  0  0  0  0  0
    0.3545    0.0606   -0.4133 H   0  0  0  0  0  0  0  0  0  0  0  0
    0.6770   -1.1995   -1.6103 H   0  0  0  0  0  0  0  0  0  0  0  0
    2.0300   -0.9628    1.1368 H   0  0  0  0  0  0  0  0  0  0  0  0
    2.3668   -2.2149   -0.0613 H   0  0  0  0  0  0  0  0  0  0  0  0
   -0.0800   -2.9289    0.0096 H   0  0  0  0  0  0  0  0  0  0  0  0
    3.1071   -0.4578   -1.6847 H   0  0  0  0  0  0  0  0  0  0  0  0
    2.7332    0.7988   -0.5024 H   0  0  0  0  0  0  0  0  0  0  0  0
   -2.0484   -0.6461   -0.3782 H   0  0  0  0  0  0  0  0  0  0  0  0
    4.7870   -1.4422   -0.1095 H   0  0  0  0  0  0  0  0  0  0  0  0
    4.3978   -0.2096    1.0827 H   0  0  0  0  0  0  0  0  0  0  0  0
    5.1554    1.5722   -0.5206 H   0  0  0  0  0  0  0  0  0  0  0  0
    5.5955    0.2985   -1.6892 H   0  0  0  0  0  0  0  0  0  0  0  0
   -2.7110   -3.6332    0.2486 H   0  0  0  0  0  0  0  0  0  0  0  0
   -0.6853   -0.7276    1.6998 H   0  0  0  0  0  0  0  0  0  0  0  0
   -2.6828   -1.8457   -2.1689 H   0  0  0  0  0  0  0  0  0  0  0  0
   -4.6729   -2.7428    1.2750 H   0  0  0  0  0  0  0  0  0  0  0  0
   -4.8897   -0.4269    1.7777 H   0  0  0  0  0  0  0  0  0  0  0  0
   -3.3798    0.0021    1.0285 H   0  0  0  0  0  0  0  0  0  0  0  0
   -5.7811   -0.8860   -0.7475 H   0  0  0  0  0  0  0  0  0  0  0  0
   -5.6699    1.2836   -1.7070 H   0  0  0  0  0  0  0  0  0  0  0  0
    8.6504    1.0967   -0.1008 H   0  0  0  0  0  0  0  0  0  0  0  0
   -4.0716    2.0933    0.7695 H   0  0  0  0  0  0  0  0  0  0  0  0
   -4.7122    3.1112   -0.4973 H   0  0  0  0  0  0  0  0  0  0  0  0
   -2.8188    1.8793   -2.0632 H   0  0  0  0  0  0  0  0  0  0  0  0
   -0.8296    2.7321   -1.0859 H   0  0  0  0  0  0  0  0  0  0  0  0
   -0.8910    4.0680    0.9080 H   0  0  0  0  0  0  0  0  0  0  0  0
   -2.5925    3.7860    1.1894 H   0  0  0  0  0  0  0  0  0  0  0  0
   -0.3748    1.6984    1.6291 H   0  0  0  0  0  0  0  0  0  0  0  0
   -2.0907    1.4633    2.0077 H   0  0  0  0  0  0  0  0  0  0  0  0
   -1.1502    2.6620    2.8936 H   0  0  0  0  0  0  0  0  0  0  0  0
  1  7  1  0  0  0  0
  1 36  1  0  0  0  0
  2  9  1  0  0  0  0
  2 37  1  0  0  0  0
  3 14  1  0  0  0  0
  3 43  1  0  0  0  0
  4 14  2  0  0  0  0
  5  6  1  0  0  0  0
  5  7  1  0  0  0  0
  5 23  1  0  0  0  0
  5 24  1  0  0  0  0
  6  8  1  0  0  0  0
  6 25  1  0  0  0  0
  6 26  1  0  0  0  0
  7  9  1  0  0  0  0
  7 27  1  0  0  0  0
  8 10  1  0  0  0  0
  8 28  1  0  0  0  0
  8 29  1  0  0  0  0
  9 12  1  0  0  0  0
  9 30  1  0  0  0  0
 10 11  1  0  0  0  0
 10 31  1  0  0  0  0
 10 32  1  0  0  0  0
 11 14  1  0  0  0  0
 11 33  1  0  0  0  0
 11 34  1  0  0  0  0
 12 13  2  0  0  0  0
 12 35  1  0  0  0  0
 13 15  1  0  0  0  0
 13 38  1  0  0  0  0
 15 16  1  0  0  0  0
 15 39  1  0  0  0  0
 15 40  1  0  0  0  0
 16 17  2  0  0  0  0
 16 41  1  0  0  0  0
 17 18  1  0  0  0  0
 17 42  1  0  0  0  0
 18 19  1  0  0  0  0
 18 44  1  0  0  0  0
 18 45  1  0  0  0  0
 19 20  2  0  0  0  0
 19 46  1  0  0  0  0
 20 21  1  0  0  0  0
 20 47  1  0  0  0  0
 21 22  1  0  0  0  0
 21 48  1  0  0  0  0
 21 49  1  0  0  0  0
 22 50  1  0  0  0  0
 22 51  1  0  0  0  0
 22 52  1  0  0  0  0
M  END
> <PUBCHEM_COMPOUND_CID>
5281031

> <PUBCHEM_CONFORMER_RMSD>
1.2

> <PUBCHEM_CONFORMER_DIVERSEORDER>
1
79
24
100
76
50
75
30
20
25
74
2
96
73
98
9
70
19
92
43
63
67
80
34
64
106
44
104
52
65
77
59
31
108
7
42
28
27
61
66
10
105
38
3
72
87
69
101
82
95
94
109
18
11
68
93
51
102
23
78
88
85
13
6
91
17
40
5
48
8
90
81
107
33
60
56
46
35
86
41
22
45
49
14
84
36
97
89
29
62
54
32
53
99
26
16
83
55
47
37
103
57
4
58
12
21
15
39
71

> <PUBCHEM_MMFF94_PARTIAL_CHARGES>
26
1 -0.68
11 0.06
12 -0.29
13 -0.29
14 0.66
15 0.28
16 -0.29
17 -0.29
18 0.28
19 -0.29
2 -0.68
20 -0.29
21 0.14
3 -0.65
35 0.15
36 0.4
37 0.4
38 0.15
4 -0.57
41 0.15
42 0.15
43 0.5
46 0.15
47 0.15
7 0.28
9 0.42

> <PUBCHEM_EFFECTIVE_ROTOR_COUNT>
13

> <PUBCHEM_PHARMACOPHORE_FEATURES>
9
1 1 acceptor
1 1 donor
1 2 acceptor
1 2 donor
1 22 hydrophobe
1 3 acceptor
1 4 acceptor
3 3 4 14 anion
5 5 6 8 10 11 hydrophobe

> <PUBCHEM_HEAVY_ATOM_COUNT>
22

> <PUBCHEM_ATOM_DEF_STEREO_COUNT>
2

> <PUBCHEM_ATOM_UDEF_STEREO_COUNT>
0

> <PUBCHEM_BOND_DEF_STEREO_COUNT>
3

> <PUBCHEM_BOND_UDEF_STEREO_COUNT>
0

> <PUBCHEM_ISOTOPIC_ATOM_COUNT>
0

> <PUBCHEM_COMPONENT_COUNT>
1

> <PUBCHEM_CACTVS_TAUTO_COUNT>
1

> <PUBCHEM_CONFORMER_ID>
0050950700000001

> <PUBCHEM_MMFF94_ENERGY>
20.4672

> <PUBCHEM_FEATURE_SELFOVERLAP>
45.727

> <PUBCHEM_SHAPE_FINGERPRINT>
100830 39 18341050804978010236
10087517 78 18343303647835343204
10454371 7 18335693932708893508
10730089 173 18411700989112821780
12596602 18 17560803212901460042
12838862 33 18270976729916700925
13167372 99 18272933804852926422
13403585 85 18412262813911431590
13947920 24 18334294300944083993
14251764 38 17974003156673541343
14765038 42 18116418427476155009
15876981 60 18269836415651207591
17492 54 18267043789887922053
18336668 15 17988639666874468069
20101258 96 18050846620528721451
20765182 40 18409173220713209584
21236236 1 18412826885051790292
23198884 109 15647054867129858455
445580 37 18341319047144281356
6299153 45 18058736943813295098
7226269 152 18412825772122575690
9862886 166 18409449185162886080

> <PUBCHEM_SHAPE_MULTIPOLES>
429.27
16.02
3.5
1.29
39.17
1.51
0.25
3.94
-0.99
-4.81
0.42
-0.71
0.2
0.23

> <PUBCHEM_SHAPE_SELFOVERLAP>
814.536

> <PUBCHEM_SHAPE_VOLUME>
262.5

> <PUBCHEM_COORDINATE_TYPE>
2
5
10

$$$$

