443197
  -OEChem-07051213013D

 25 28  0     1  0  0  0  0  0999 V2000
    3.4284   -0.4564    0.9063 O   0  0  0  0  0  0  0  0  0  0  0  0
    2.6906   -0.8146   -0.2730 C   0  0  2  0  0  0  0  0  0  0  0  0
    3.4157    0.5091   -0.1555 C   0  0  1  0  0  0  0  0  0  0  0  0
    1.1813   -0.8072   -0.1758 C   0  0  0  0  0  0  0  0  0  0  0  0
    0.4445    0.4102   -0.1130 C   0  0  0  0  0  0  0  0  0  0  0  0
    2.5612    1.6994   -0.1394 C   0  0  0  0  0  0  0  0  0  0  0  0
    1.2180    1.6791   -0.1276 C   0  0  0  0  0  0  0  0  0  0  0  0
   -0.9856    0.3939   -0.0320 C   0  0  0  0  0  0  0  0  0  0  0  0
    0.4811   -2.0183   -0.1494 C   0  0  0  0  0  0  0  0  0  0  0  0
   -1.6479   -0.8613   -0.0122 C   0  0  0  0  0  0  0  0  0  0  0  0
   -0.9074   -2.0461   -0.0697 C   0  0  0  0  0  0  0  0  0  0  0  0
   -1.8079    1.5483    0.0339 C   0  0  0  0  0  0  0  0  0  0  0  0
   -3.0493   -0.9288    0.0668 C   0  0  0  0  0  0  0  0  0  0  0  0
   -3.2009    1.4659    0.1122 C   0  0  0  0  0  0  0  0  0  0  0  0
   -3.8218    0.2268    0.1283 C   0  0  0  0  0  0  0  0  0  0  0  0
    3.1434   -1.5555   -0.9250 H   0  0  0  0  0  0  0  0  0  0  0  0
    4.3350    0.6250   -0.7185 H   0  0  0  0  0  0  0  0  0  0  0  0
    3.0633    2.6630   -0.1431 H   0  0  0  0  0  0  0  0  0  0  0  0
    0.6933    2.6260   -0.1226 H   0  0  0  0  0  0  0  0  0  0  0  0
    1.0248   -2.9596   -0.1940 H   0  0  0  0  0  0  0  0  0  0  0  0
   -1.4058   -3.0136   -0.0539 H   0  0  0  0  0  0  0  0  0  0  0  0
   -1.3808    2.5472    0.0259 H   0  0  0  0  0  0  0  0  0  0  0  0
   -3.5567   -1.8919    0.0818 H   0  0  0  0  0  0  0  0  0  0  0  0
   -3.7953    2.3737    0.1606 H   0  0  0  0  0  0  0  0  0  0  0  0
   -4.9036    0.1575    0.1893 H   0  0  0  0  0  0  0  0  0  0  0  0
  1  2  1  0  0  0  0
  1  3  1  0  0  0  0
  2  3  1  0  0  0  0
  2  4  1  0  0  0  0
  2 16  1  0  0  0  0
  3  6  1  0  0  0  0
  3 17  1  0  0  0  0
  4  5  2  0  0  0  0
  4  9  1  0  0  0  0
  5  7  1  0  0  0  0
  5  8  1  0  0  0  0
  6  7  2  0  0  0  0
  6 18  1  0  0  0  0
  7 19  1  0  0  0  0
  8 10  1  0  0  0  0
  8 12  2  0  0  0  0
  9 11  2  0  0  0  0
  9 20  1  0  0  0  0
 10 11  1  0  0  0  0
 10 13  2  0  0  0  0
 11 21  1  0  0  0  0
 12 14  1  0  0  0  0
 12 22  1  0  0  0  0
 13 15  1  0  0  0  0
 13 23  1  0  0  0  0
 14 15  2  0  0  0  0
 14 24  1  0  0  0  0
 15 25  1  0  0  0  0
M  END
> <PUBCHEM_COMPOUND_CID>
443197

> <PUBCHEM_CONFORMER_RMSD>
0.4

> <PUBCHEM_CONFORMER_DIVERSEORDER>
1

> <PUBCHEM_MMFF94_PARTIAL_CHARGES>
23
1 -0.3
11 -0.15
12 -0.15
13 -0.15
14 -0.15
15 -0.15
16 0.1
17 0.1
18 0.15
19 0.15
2 0.08
20 0.15
21 0.15
22 0.15
23 0.15
24 0.15
25 0.15
3 0.09
4 -0.03
5 0.03
6 -0.19
7 -0.18
9 -0.15

> <PUBCHEM_EFFECTIVE_ROTOR_COUNT>
0.2

> <PUBCHEM_PHARMACOPHORE_FEATURES>
4
1 1 acceptor
6 4 5 8 9 10 11 rings
6 8 10 12 13 14 15 rings
7 1 2 3 4 5 6 7 rings

> <PUBCHEM_HEAVY_ATOM_COUNT>
15

> <PUBCHEM_ATOM_DEF_STEREO_COUNT>
2

> <PUBCHEM_ATOM_UDEF_STEREO_COUNT>
0

> <PUBCHEM_BOND_DEF_STEREO_COUNT>
0

> <PUBCHEM_BOND_UDEF_STEREO_COUNT>
0

> <PUBCHEM_ISOTOPIC_ATOM_COUNT>
0

> <PUBCHEM_COMPONENT_COUNT>
1

> <PUBCHEM_CACTVS_TAUTO_COUNT>
1

> <PUBCHEM_CONFORMER_ID>
0006C33D00000001

> <PUBCHEM_MMFF94_ENERGY>
45.7281

> <PUBCHEM_FEATURE_SELFOVERLAP>
20.331

> <PUBCHEM_SHAPE_FINGERPRINT>
10411042 1 15960614319996020470
10608611 8 18410294705024796285
10967382 1 18410291427895742461
10980938 120 18339358672918453442
11132069 177 18408327700091611297
11471102 20 18410295843338465701
12251169 10 18341619204743335024
12382932 28 18337109067774949873
12491281 212 18340476807497953872
13140716 1 18338797814613936707
13221675 6 18411418410123956527
13380535 76 18410012152174688263
13897977 150 18410856594384688893
14144814 61 18411417302032917752
14325111 11 18410854347811006797
15196674 1 18410855455838501773
15309172 13 18409439302384790963
15442244 35 18339363071239245186
15536298 74 18188489189324298470
15775835 57 18342733001247877044
16945 1 18410288107907381559
17802600 8 18410863156957696989
17804303 29 18410007749985898348
1813 80 17059217128461029914
18186145 218 18187918534072746133
193761 8 17689434888892480853
200 152 18186814569270753269
20510252 161 18260543390359129385
20645476 183 17844791608378585238
21267235 1 18411127030936979959
21501502 16 18338518512901227068
21524375 3 18410013238743430863
22094290 62 18412263921838985480
2334 1 18266457603233059533
23402539 116 18334024881866577069
23402655 69 18263094374101624493
23463225 33 18342177782214430988
23559900 14 18259980458508795060
25 1 18339078297563978071
2748010 2 18410569565735670269
335352 9 18194400223811504575
5104073 3 18410854347747502833
528886 8 18410015446150541962
53812653 166 18335143128125880312
69090 78 18334580122691461383
7364860 26 18118400880636024335
84936 31 16517090837740860222
8809292 202 18272081682434331171
9709674 26 18336259059466909158

> <PUBCHEM_SHAPE_MULTIPOLES>
302.82
5.98
2.12
0.67
0.37
0.21
0.03
-1.29
0.47
0.11
-0.08
-0.15
0.02
-0.12

> <PUBCHEM_SHAPE_SELFOVERLAP>
684.444

> <PUBCHEM_SHAPE_VOLUME>
158.5

> <PUBCHEM_COORDINATE_TYPE>
2
5
10

$$$$

