11051
  -OEChem-06261205163D

 37 40  0     1  0  0  0  0  0999 V2000
    3.6759   -1.2081    2.2823 O   0  0  0  0  0  0  0  0  0  0  0  0
    2.2938    1.0896   -1.1837 N   0  0  2  0  0  0  0  0  0  0  0  0
   -3.2322    1.2206    1.2153 N   0  0  0  0  0  0  0  0  0  0  0  0
    0.8393    0.9869   -0.9667 C   0  0  1  0  0  0  0  0  0  0  0  0
    0.4423   -0.5489   -1.0746 C   0  0  2  0  0  0  0  0  0  0  0  0
    0.3275    1.7237    0.3320 C   0  0  0  0  0  0  0  0  0  0  0  0
   -1.0180   -0.7577   -0.7242 C   0  0  0  0  0  0  0  0  0  0  0  0
   -1.0997    1.3883    0.5988 C   0  0  0  0  0  0  0  0  0  0  0  0
   -1.6484    0.2020    0.0742 C   0  0  0  0  0  0  0  0  0  0  0  0
    1.3549   -1.4188   -0.2453 C   0  0  0  0  0  0  0  0  0  0  0  0
    3.0740    0.3863   -0.1545 C   0  0  0  0  0  0  0  0  0  0  0  0
    2.5522   -0.9904    0.1905 C   0  0  0  0  0  0  0  0  0  0  0  0
   -2.9730    0.1008    0.4551 C   0  0  0  0  0  0  0  0  0  0  0  0
   -2.1017    2.0075    1.3087 C   0  0  0  0  0  0  0  0  0  0  0  0
   -1.7934   -1.8539   -1.1215 C   0  0  0  0  0  0  0  0  0  0  0  0
    2.7600    2.4613   -1.3585 C   0  0  0  0  0  0  0  0  0  0  0  0
    3.4436   -1.8460    1.0403 C   0  0  0  0  0  0  0  0  0  0  0  0
   -3.7595   -0.9835    0.0646 C   0  0  0  0  0  0  0  0  0  0  0  0
   -3.1374   -1.9596   -0.7328 C   0  0  0  0  0  0  0  0  0  0  0  0
    0.3372    1.4759   -1.8162 H   0  0  0  0  0  0  0  0  0  0  0  0
    0.5695   -0.8508   -2.1244 H   0  0  0  0  0  0  0  0  0  0  0  0
    0.4323    2.8080    0.2112 H   0  0  0  0  0  0  0  0  0  0  0  0
    0.9148    1.4294    1.2089 H   0  0  0  0  0  0  0  0  0  0  0  0
    1.0249   -2.4266   -0.0057 H   0  0  0  0  0  0  0  0  0  0  0  0
    3.1276    0.9809    0.7664 H   0  0  0  0  0  0  0  0  0  0  0  0
    4.1004    0.2776   -0.5275 H   0  0  0  0  0  0  0  0  0  0  0  0
   -2.1241    2.9293    1.8728 H   0  0  0  0  0  0  0  0  0  0  0  0
   -1.3559   -2.6348   -1.7383 H   0  0  0  0  0  0  0  0  0  0  0  0
    3.8113    2.4679   -1.6676 H   0  0  0  0  0  0  0  0  0  0  0  0
    2.6744    3.0569   -0.4435 H   0  0  0  0  0  0  0  0  0  0  0  0
    2.1980    2.9638   -2.1533 H   0  0  0  0  0  0  0  0  0  0  0  0
   -4.1214    1.4371    1.6438 H   0  0  0  0  0  0  0  0  0  0  0  0
    4.4041   -2.0027    0.5379 H   0  0  0  0  0  0  0  0  0  0  0  0
    2.9996   -2.8277    1.2368 H   0  0  0  0  0  0  0  0  0  0  0  0
   -4.7991   -1.0736    0.3585 H   0  0  0  0  0  0  0  0  0  0  0  0
   -3.7158   -2.8217   -1.0576 H   0  0  0  0  0  0  0  0  0  0  0  0
    4.2697   -1.7833    2.7942 H   0  0  0  0  0  0  0  0  0  0  0  0
  1 17  1  0  0  0  0
  1 37  1  0  0  0  0
  2  4  1  0  0  0  0
  2 11  1  0  0  0  0
  2 16  1  0  0  0  0
  3 13  1  0  0  0  0
  3 14  1  0  0  0  0
  3 32  1  0  0  0  0
  4  5  1  0  0  0  0
  4  6  1  0  0  0  0
  4 20  1  0  0  0  0
  5  7  1  0  0  0  0
  5 10  1  0  0  0  0
  5 21  1  0  0  0  0
  6  8  1  0  0  0  0
  6 22  1  0  0  0  0
  6 23  1  0  0  0  0
  7  9  2  0  0  0  0
  7 15  1  0  0  0  0
  8  9  1  0  0  0  0
  8 14  2  0  0  0  0
  9 13  1  0  0  0  0
 10 12  2  0  0  0  0
 10 24  1  0  0  0  0
 11 12  1  0  0  0  0
 11 25  1  0  0  0  0
 11 26  1  0  0  0  0
 12 17  1  0  0  0  0
 13 18  2  0  0  0  0
 14 27  1  0  0  0  0
 15 19  2  0  0  0  0
 15 28  1  0  0  0  0
 16 29  1  0  0  0  0
 16 30  1  0  0  0  0
 16 31  1  0  0  0  0
 17 33  1  0  0  0  0
 17 34  1  0  0  0  0
 18 19  1  0  0  0  0
 18 35  1  0  0  0  0
 19 36  1  0  0  0  0
M  END
> <PUBCHEM_COMPOUND_CID>
11051

> <PUBCHEM_CONFORMER_RMSD>
0.6

> <PUBCHEM_CONFORMER_DIVERSEORDER>
1
4
12
2
11
7
6
3
8
5
10
9

> <PUBCHEM_MMFF94_PARTIAL_CHARGES>
25
1 -0.68
10 -0.29
11 0.41
12 -0.28
13 -0.15
14 -0.3
15 -0.15
16 0.27
17 0.42
18 -0.15
19 -0.15
2 -0.81
24 0.15
27 0.15
28 0.15
3 0.03
32 0.27
35 0.15
36 0.15
37 0.4
4 0.27
5 0.28
6 0.18
7 -0.14
8 -0.18

> <PUBCHEM_EFFECTIVE_ROTOR_COUNT>
1.6

> <PUBCHEM_PHARMACOPHORE_FEATURES>
9
1 1 acceptor
1 1 donor
1 2 cation
1 3 cation
1 3 donor
5 3 8 9 13 14 rings
6 2 4 5 10 11 12 rings
6 4 5 6 7 8 9 rings
6 7 9 13 15 18 19 rings

> <PUBCHEM_HEAVY_ATOM_COUNT>
19

> <PUBCHEM_ATOM_DEF_STEREO_COUNT>
0

> <PUBCHEM_ATOM_UDEF_STEREO_COUNT>
2

> <PUBCHEM_BOND_DEF_STEREO_COUNT>
0

> <PUBCHEM_BOND_UDEF_STEREO_COUNT>
0

> <PUBCHEM_ISOTOPIC_ATOM_COUNT>
0

> <PUBCHEM_COMPONENT_COUNT>
1

> <PUBCHEM_CACTVS_TAUTO_COUNT>
1

> <PUBCHEM_CONFORMER_ID>
00002B2B00000001

> <PUBCHEM_MMFF94_ENERGY>
42.1752

> <PUBCHEM_FEATURE_SELFOVERLAP>
45.96

> <PUBCHEM_SHAPE_FINGERPRINT>
10062212 137 18409168805486965451
10759866 29 18340758239625387445
11132069 177 18041561446357161379
11578080 2 18196965251311911804
11582403 64 14469416126551216782
11725454 13 16156264136828781665
12202030 40 15984806151795693555
12251169 10 18263645228635680162
12382932 28 18114459075689166827
12553582 1 17824541868739744767
13009979 54 18408321103386088506
13140716 1 18335413612487002361
13221675 6 18042954398708763007
13296909 8 18041577930156910715
13538477 17 18334569144391062565
13583140 156 17845633916196113425
13965767 371 17326039054386941880
14178342 30 18263083386657597427
14787075 74 17259328982405872279
15375462 189 18265607689588067251
15669948 3 18041551447688997479
16752209 62 17968089820420864575
16945 1 18194391427845193173
17349148 13 18188502379442950533
17492 89 18410848867586412951
17804303 29 17680138870436291150
1813 80 17986946543848876318
20361792 2 17632016472003251558
20510252 161 17604132784082041177
20559304 39 18334292050502552790
20715895 44 18123192570302319589
21197605 99 5946004909296195854
21249577 28 18334569101573297229
21486144 27 14418129586898583775
21501502 16 18409440376100267029
21731516 1 17774163547240026154
22112679 90 18407758140199391204
22149856 69 17391322464137480569
22445834 79 18413103978755735454
2255824 54 18130498653037421614
2334 1 18042386084557518701
23388829 49 18336267855490872390
23419403 2 17687236041588410260
23463225 33 18409724071290122781
23557571 272 17385719192749126543
23559900 14 17677598916855114508
23598291 2 18341880922733535668
2748010 2 17184452760493146421
34934 24 17824823330593754221
394222 165 17984142561348203824
4072396 5 18261107526424877819
4340502 62 17631157594845837659
474 4 17914323585743067404
6992083 37 18195809789297202926
7097593 13 18265899253263952650
7615 1 18410575076110165253
77492 1 18411975845349776591
90316 7 18267028438720322608
9981440 41 17036684458558086996

> <PUBCHEM_SHAPE_MULTIPOLES>
375.18
6.38
2.51
1.46
0.44
0.43
0.38
-1.65
1.64
0.25
-0.02
1
0.02
-2.48

> <PUBCHEM_SHAPE_SELFOVERLAP>
832.679

> <PUBCHEM_SHAPE_VOLUME>
200.8

> <PUBCHEM_COORDINATE_TYPE>
2
5
10

$$$$

