15509899
  -OEChem-07051213113D

 23 24  0     0  0  0  0  0  0999 V2000
    1.0068    0.5541    2.7560 Br  0  0  0  0  0  0  0  0  0  0  0  0
    0.6409    1.4250   -2.8642 Br  0  0  0  0  0  0  0  0  0  0  0  0
   -2.7357    3.1578    0.5777 Br  0  0  0  0  0  0  0  0  0  0  0  0
    3.9690   -1.0182    2.2888 Br  0  0  0  0  0  0  0  0  0  0  0  0
    5.1500   -1.2848   -0.8928 Br  0  0  0  0  0  0  0  0  0  0  0  0
   -2.0131   -3.2973   -0.5021 Br  0  0  0  0  0  0  0  0  0  0  0  0
   -5.1460   -1.8971   -0.0456 Br  0  0  0  0  0  0  0  0  0  0  0  0
   -0.1357    1.4949    0.1200 O   0  0  0  0  0  0  0  0  0  0  0  0
    1.0751    0.8533   -0.0726 C   0  0  0  0  0  0  0  0  0  0  0  0
   -1.2668    0.7348    0.0820 C   0  0  0  0  0  0  0  0  0  0  0  0
    1.7679    0.3429    1.0140 C   0  0  0  0  0  0  0  0  0  0  0  0
    1.5709    0.7353   -1.3619 C   0  0  0  0  0  0  0  0  0  0  0  0
   -2.5291    1.2993    0.2662 C   0  0  0  0  0  0  0  0  0  0  0  0
   -1.1421   -0.6356   -0.1455 C   0  0  0  0  0  0  0  0  0  0  0  0
    2.9875   -0.3017    0.8063 C   0  0  0  0  0  0  0  0  0  0  0  0
    2.7903    0.0908   -1.5696 C   0  0  0  0  0  0  0  0  0  0  0  0
    3.4985   -0.4278   -0.4856 C   0  0  0  0  0  0  0  0  0  0  0  0
   -2.2797   -1.4417   -0.1890 C   0  0  0  0  0  0  0  0  0  0  0  0
   -3.6667    0.4933    0.2228 C   0  0  0  0  0  0  0  0  0  0  0  0
   -3.5420   -0.8773   -0.0048 C   0  0  0  0  0  0  0  0  0  0  0  0
   -0.1907   -1.1349   -0.2955 H   0  0  0  0  0  0  0  0  0  0  0  0
    3.1852   -0.0055   -2.5790 H   0  0  0  0  0  0  0  0  0  0  0  0
   -4.6498    0.9366    0.3671 H   0  0  0  0  0  0  0  0  0  0  0  0
  1 11  1  0  0  0  0
  2 12  1  0  0  0  0
  3 13  1  0  0  0  0
  4 15  1  0  0  0  0
  5 17  1  0  0  0  0
  6 18  1  0  0  0  0
  7 20  1  0  0  0  0
  8  9  1  0  0  0  0
  8 10  1  0  0  0  0
  9 11  2  0  0  0  0
  9 12  1  0  0  0  0
 10 13  1  0  0  0  0
 10 14  2  0  0  0  0
 11 15  1  0  0  0  0
 12 16  2  0  0  0  0
 13 19  2  0  0  0  0
 14 18  1  0  0  0  0
 14 21  1  0  0  0  0
 15 17  2  0  0  0  0
 16 17  1  0  0  0  0
 16 22  1  0  0  0  0
 18 20  2  0  0  0  0
 19 20  1  0  0  0  0
 19 23  1  0  0  0  0
M  END
> <PUBCHEM_COMPOUND_CID>
15509899

> <PUBCHEM_CONFORMER_RMSD>
0.6

> <PUBCHEM_CONFORMER_DIVERSEORDER>
1
8
6
5
7
2
9
10
4
3

> <PUBCHEM_MMFF94_PARTIAL_CHARGES>
23
1 -0.11
10 0.08
11 0.11
12 0.11
13 0.11
14 -0.15
15 0.11
16 -0.15
17 0.11
18 0.11
19 -0.15
2 -0.11
20 0.11
21 0.15
22 0.15
23 0.15
3 -0.11
4 -0.11
5 -0.11
6 -0.11
7 -0.11
8 -0.17
9 0.08

> <PUBCHEM_EFFECTIVE_ROTOR_COUNT>
2

> <PUBCHEM_PHARMACOPHORE_FEATURES>
10
1 1 hydrophobe
1 2 hydrophobe
1 3 hydrophobe
1 4 hydrophobe
1 5 hydrophobe
1 6 hydrophobe
1 7 hydrophobe
1 8 acceptor
6 10 13 14 18 19 20 rings
6 9 11 12 15 16 17 rings

> <PUBCHEM_HEAVY_ATOM_COUNT>
20

> <PUBCHEM_ATOM_DEF_STEREO_COUNT>
0

> <PUBCHEM_ATOM_UDEF_STEREO_COUNT>
0

> <PUBCHEM_BOND_DEF_STEREO_COUNT>
0

> <PUBCHEM_BOND_UDEF_STEREO_COUNT>
0

> <PUBCHEM_ISOTOPIC_ATOM_COUNT>
0

> <PUBCHEM_COMPONENT_COUNT>
1

> <PUBCHEM_CACTVS_TAUTO_COUNT>
1

> <PUBCHEM_CONFORMER_ID>
00ECA98B00000001

> <PUBCHEM_MMFF94_ENERGY>
65.0049

> <PUBCHEM_FEATURE_SELFOVERLAP>
50.744

> <PUBCHEM_SHAPE_FINGERPRINT>
10366900 7 17604440586865313339
11471102 22 15791725330506167076
11578080 2 17701009649636129948
11582403 64 16740063046910771049
11725454 13 16954819627977946753
11796584 16 18044650052172263910
12236239 1 17988916803617477044
12403259 327 17968112922638831098
12500047 106 18190178064933176260
12553582 1 18264487295892744647
12633257 1 17313960597017639170
12788726 201 18339914935903038369
13009979 54 18273213114269412185
13583140 156 17386299799476398326
14115302 16 18270396079938543247
14178342 30 18337679731526584115
14294032 229 18124874819083167109
14576447 43 17704352152325688386
16752209 62 18341624706944672179
16945 1 18408604789943811325
17804303 29 18259983769020972051
1813 80 17846501452281675918
18186145 218 16271914992091487948
19049666 15 17386561517403366545
19784866 135 18408036308331092787
19862831 5 17418093183084103983
20600515 1 18188217485894149689
20645477 70 15482392036103732624
21065201 7 18261110837180011722
21197605 99 6446486122475564810
21634736 98 17916578726808654214
22112679 90 17917720148859498248
23175994 123 16805599317419947640
23402539 116 18114183017415348463
23419403 2 16395567006075250261
23557571 272 18040427810902975769
23559900 14 17969499497712850006
23598288 3 18200009803873194669
23598291 2 17846775247429534781
238 59 15625950768037435259
3004659 81 18272932674807354135
3060560 45 15841275835381594218
4340502 62 14056990587015916559
474 4 17272841005754921460
568465 68 16950554472233941006
602551 16 18334859445995110298
6992083 37 18059292187983600277
77492 1 17917423263276411336
90525 40 18059008505393309549

> <PUBCHEM_SHAPE_MULTIPOLES>
447.32
9.01
2.82
2.28
0.76
0.32
-0.17
5.17
-0.43
-3.73
0.26
2.76
-0.74
-0.92

> <PUBCHEM_SHAPE_SELFOVERLAP>
860.819

> <PUBCHEM_SHAPE_VOLUME>
287.6

> <PUBCHEM_COORDINATE_TYPE>
2
5
10

$$$$

