442877
  -OEChem-07051213003D

 26 28  0     0  0  0  0  0  0999 V2000
   -2.3723   -0.4767   -0.0924 N   0  0  0  0  0  0  0  0  0  0  0  0
   -2.1838   -1.7831   -0.2393 N   0  0  0  0  0  0  0  0  0  0  0  0
   -1.5937    1.7040    0.1520 C   0  0  0  0  0  0  0  0  0  0  0  0
   -1.2525    0.2793   -0.0010 C   0  0  0  0  0  0  0  0  0  0  0  0
   -3.1078    1.6317    0.5003 C   0  0  0  0  0  0  0  0  0  0  0  0
   -3.6106    0.2677   -0.0156 C   0  0  0  0  0  0  0  0  0  0  0  0
   -0.2046   -0.5917   -0.0913 C   0  0  0  0  0  0  0  0  0  0  0  0
   -0.8411   -1.8581   -0.2377 C   0  0  0  0  0  0  0  0  0  0  0  0
    1.1749   -0.2237   -0.0429 C   0  0  0  0  0  0  0  0  0  0  0  0
    2.1249   -1.1135    0.4687 C   0  0  0  0  0  0  0  0  0  0  0  0
    1.5861    1.0299   -0.5071 C   0  0  0  0  0  0  0  0  0  0  0  0
    3.4717   -0.7536    0.5155 C   0  0  0  0  0  0  0  0  0  0  0  0
    2.9330    1.3897   -0.4602 C   0  0  0  0  0  0  0  0  0  0  0  0
    3.8759    0.4980    0.0510 C   0  0  0  0  0  0  0  0  0  0  0  0
   -1.0299    2.2005    0.9461 H   0  0  0  0  0  0  0  0  0  0  0  0
   -1.4517    2.2431   -0.7901 H   0  0  0  0  0  0  0  0  0  0  0  0
   -3.2250    1.6678    1.5915 H   0  0  0  0  0  0  0  0  0  0  0  0
   -3.6729    2.4714    0.0845 H   0  0  0  0  0  0  0  0  0  0  0  0
   -4.2967   -0.2249    0.6767 H   0  0  0  0  0  0  0  0  0  0  0  0
   -4.0276    0.3298   -1.0243 H   0  0  0  0  0  0  0  0  0  0  0  0
   -0.3826   -2.8313   -0.3467 H   0  0  0  0  0  0  0  0  0  0  0  0
    1.8364   -2.0932    0.8423 H   0  0  0  0  0  0  0  0  0  0  0  0
    0.8910    1.7440   -0.9380 H   0  0  0  0  0  0  0  0  0  0  0  0
    4.2059   -1.4474    0.9145 H   0  0  0  0  0  0  0  0  0  0  0  0
    3.2490    2.3618   -0.8275 H   0  0  0  0  0  0  0  0  0  0  0  0
    4.9247    0.7777    0.0863 H   0  0  0  0  0  0  0  0  0  0  0  0
  1  2  1  0  0  0  0
  1  4  1  0  0  0  0
  1  6  1  0  0  0  0
  2  8  2  0  0  0  0
  3  4  1  0  0  0  0
  3  5  1  0  0  0  0
  3 15  1  0  0  0  0
  3 16  1  0  0  0  0
  4  7  2  0  0  0  0
  5  6  1  0  0  0  0
  5 17  1  0  0  0  0
  5 18  1  0  0  0  0
  6 19  1  0  0  0  0
  6 20  1  0  0  0  0
  7  8  1  0  0  0  0
  7  9  1  0  0  0  0
  8 21  1  0  0  0  0
  9 10  2  0  0  0  0
  9 11  1  0  0  0  0
 10 12  1  0  0  0  0
 10 22  1  0  0  0  0
 11 13  2  0  0  0  0
 11 23  1  0  0  0  0
 12 14  2  0  0  0  0
 12 24  1  0  0  0  0
 13 14  1  0  0  0  0
 13 25  1  0  0  0  0
 14 26  1  0  0  0  0
M  END
> <PUBCHEM_COMPOUND_CID>
442877

> <PUBCHEM_CONFORMER_RMSD>
0.6

> <PUBCHEM_CONFORMER_DIVERSEORDER>
1

> <PUBCHEM_MMFF94_PARTIAL_CHARGES>
19
1 0.31
10 -0.15
11 -0.15
12 -0.15
13 -0.15
14 -0.15
2 -0.71
21 0.15
22 0.15
23 0.15
24 0.15
25 0.15
26 0.15
3 0.18
4 -0.33
6 0.26
7 -0.05
8 0.14
9 0.05

> <PUBCHEM_EFFECTIVE_ROTOR_COUNT>
1.6

> <PUBCHEM_PHARMACOPHORE_FEATURES>
4
1 2 acceptor
5 1 2 4 7 8 rings
5 1 3 4 5 6 rings
6 9 10 11 12 13 14 rings

> <PUBCHEM_HEAVY_ATOM_COUNT>
14

> <PUBCHEM_ATOM_DEF_STEREO_COUNT>
0

> <PUBCHEM_ATOM_UDEF_STEREO_COUNT>
0

> <PUBCHEM_BOND_DEF_STEREO_COUNT>
0

> <PUBCHEM_BOND_UDEF_STEREO_COUNT>
0

> <PUBCHEM_ISOTOPIC_ATOM_COUNT>
0

> <PUBCHEM_COMPONENT_COUNT>
1

> <PUBCHEM_CACTVS_TAUTO_COUNT>
1

> <PUBCHEM_CONFORMER_ID>
0006C1FD00000001

> <PUBCHEM_MMFF94_ENERGY>
38.2631

> <PUBCHEM_FEATURE_SELFOVERLAP>
20.589

> <PUBCHEM_SHAPE_FINGERPRINT>
10465860 228 17900811953494446697
10608611 8 18334860489482388992
10967382 1 18410574032406647420
10980938 120 18201157749688619880
11132069 177 18410016541515174760
12162725 195 18410576188591032284
12251169 10 18341614840914176336
12491281 212 18341604915223740928
12932764 1 17386010520586548950
13380535 76 18335701671590899751
13538477 17 18412549777555815478
14144814 61 18412826901878244472
14325111 11 18410574002373635264
14897335 6 18410295821599813526
15309172 13 18339355361699024499
15375462 189 17702955867311464010
15442244 35 18267869561194909810
15536298 74 18408886248347099854
15669948 3 18261678069031425318
15775835 57 18412257346159854224
16945 1 18339923839069705295
17802600 8 18410864264859033112
1813 80 17202199823776057430
18186145 218 18189329246109082109
19422 9 18343582923894507362
200 152 18338249167197315551
20279233 1 16298105380571447918
20510252 161 18187359930874083601
20871998 184 18114740426333859471
21267235 1 18412254030492606914
21501502 16 18411983529294227774
21524375 3 18335985375897957135
22445834 79 18201725084577115610
2255824 54 17846497028813416498
23402539 116 18260278438522240791
23463225 33 18341895224953356588
23557571 272 17822849771456456006
23559900 14 18113057151957849768
2748010 2 17403461165667019502
474 4 17559388064122358812
5104073 3 18412546496511882744
69090 78 18408890650329953695
6992083 37 18272930539765418404
7364860 26 18262798604951629854
74978 22 18410854343769045780
77492 1 18201722834040392110
7832392 63 18411138047928955868
9709674 26 18335697234921649902
9981440 41 17478612309386571544

> <PUBCHEM_SHAPE_MULTIPOLES>
278.15
6.48
1.87
0.7
1.42
0.12
-0.01
-1.46
-0.56
-0.66
0.05
0.12
-0.04
-0.67

> <PUBCHEM_SHAPE_SELFOVERLAP>
615.257

> <PUBCHEM_SHAPE_VOLUME>
152.8

> <PUBCHEM_COORDINATE_TYPE>
2
5
10

$$$$

