149096
  -OEChem-07051212543D

 46 49  0     1  0  0  0  0  0999 V2000
   -1.6954   -2.8989   -0.2014 F   0  0  0  0  0  0  0  0  0  0  0  0
   -1.0001    1.7595    0.2511 O   0  0  0  0  0  0  0  0  0  0  0  0
    3.3312   -2.4088   -0.0781 O   0  0  0  0  0  0  0  0  0  0  0  0
    5.6199   -1.2542   -0.6385 O   0  0  0  0  0  0  0  0  0  0  0  0
    5.9734    0.6276    0.6121 O   0  0  0  0  0  0  0  0  0  0  0  0
   -2.7213   -0.3486    0.0160 N   0  0  0  0  0  0  0  0  0  0  0  0
    1.8461    1.3746    0.1655 N   0  0  0  0  0  0  0  0  0  0  0  0
   -5.5669   -0.1342   -0.1096 N   0  0  0  0  0  0  0  0  0  0  0  0
   -3.5512   -0.9730    1.0509 C   0  0  0  0  0  0  0  0  0  0  0  0
   -3.3853   -0.1080   -1.2713 C   0  0  0  0  0  0  0  0  0  0  0  0
    1.2583    2.7168    0.1438 C   0  0  2  0  0  0  0  0  0  0  0  0
   -1.3384   -0.5623    0.0128 C   0  0  0  0  0  0  0  0  0  0  0  0
    0.9384    0.2982    0.1030 C   0  0  0  0  0  0  0  0  0  0  0  0
   -0.4488    0.5071    0.1313 C   0  0  0  0  0  0  0  0  0  0  0  0
   -4.8858   -0.2358    1.1867 C   0  0  0  0  0  0  0  0  0  0  0  0
   -4.7244    0.6021   -1.0601 C   0  0  0  0  0  0  0  0  0  0  0  0
   -0.0942    2.6867    0.8573 C   0  0  0  0  0  0  0  0  0  0  0  0
    1.4128   -1.0234    0.0026 C   0  0  0  0  0  0  0  0  0  0  0  0
   -0.8501   -1.8632   -0.0975 C   0  0  0  0  0  0  0  0  0  0  0  0
    3.2037    1.1260    0.1461 C   0  0  0  0  0  0  0  0  0  0  0  0
    0.5242   -2.0994   -0.0962 C   0  0  0  0  0  0  0  0  0  0  0  0
    1.1371    3.2138   -1.2992 C   0  0  0  0  0  0  0  0  0  0  0  0
    2.8787   -1.2731   -0.0067 C   0  0  0  0  0  0  0  0  0  0  0  0
   -6.8641    0.5237    0.0424 C   0  0  0  0  0  0  0  0  0  0  0  0
    3.7708   -0.0847    0.0727 C   0  0  0  0  0  0  0  0  0  0  0  0
    5.2315   -0.1688    0.0640 C   0  0  0  0  0  0  0  0  0  0  0  0
   -3.7356   -2.0249    0.8001 H   0  0  0  0  0  0  0  0  0  0  0  0
   -3.0354   -0.9472    2.0187 H   0  0  0  0  0  0  0  0  0  0  0  0
   -2.7566    0.5161   -1.9184 H   0  0  0  0  0  0  0  0  0  0  0  0
   -3.5398   -1.0645   -1.7866 H   0  0  0  0  0  0  0  0  0  0  0  0
    1.9097    3.4113    0.6902 H   0  0  0  0  0  0  0  0  0  0  0  0
   -5.5117   -0.7883    1.8979 H   0  0  0  0  0  0  0  0  0  0  0  0
   -4.7114    0.7619    1.6120 H   0  0  0  0  0  0  0  0  0  0  0  0
   -4.5444    1.6263   -0.7062 H   0  0  0  0  0  0  0  0  0  0  0  0
   -5.2296    0.6763   -2.0308 H   0  0  0  0  0  0  0  0  0  0  0  0
    0.0215    2.4267    1.9182 H   0  0  0  0  0  0  0  0  0  0  0  0
   -0.5644    3.6756    0.8199 H   0  0  0  0  0  0  0  0  0  0  0  0
    3.7950    2.0351    0.1900 H   0  0  0  0  0  0  0  0  0  0  0  0
    0.8817   -3.1218   -0.1788 H   0  0  0  0  0  0  0  0  0  0  0  0
    0.6965    4.2158   -1.3263 H   0  0  0  0  0  0  0  0  0  0  0  0
    2.1226    3.2678   -1.7745 H   0  0  0  0  0  0  0  0  0  0  0  0
    0.5148    2.5534   -1.9125 H   0  0  0  0  0  0  0  0  0  0  0  0
   -6.7696    1.5447    0.4298 H   0  0  0  0  0  0  0  0  0  0  0  0
   -7.5060   -0.0455    0.7239 H   0  0  0  0  0  0  0  0  0  0  0  0
   -7.3880    0.5669   -0.9189 H   0  0  0  0  0  0  0  0  0  0  0  0
    6.5963   -1.3448   -0.6668 H   0  0  0  0  0  0  0  0  0  0  0  0
  1 19  1  0  0  0  0
  2 14  1  0  0  0  0
  2 17  1  0  0  0  0
  3 23  2  0  0  0  0
  4 26  1  0  0  0  0
  4 46  1  0  0  0  0
  5 26  2  0  0  0  0
  6  9  1  0  0  0  0
  6 10  1  0  0  0  0
  6 12  1  0  0  0  0
  7 11  1  0  0  0  0
  7 13  1  0  0  0  0
  7 20  1  0  0  0  0
  8 15  1  0  0  0  0
  8 16  1  0  0  0  0
  8 24  1  0  0  0  0
  9 15  1  0  0  0  0
  9 27  1  0  0  0  0
  9 28  1  0  0  0  0
 10 16  1  0  0  0  0
 10 29  1  0  0  0  0
 10 30  1  0  0  0  0
 11 17  1  0  0  0  0
 11 22  1  0  0  0  0
 11 31  1  0  0  0  0
 12 14  1  0  0  0  0
 12 19  2  0  0  0  0
 13 14  2  0  0  0  0
 13 18  1  0  0  0  0
 15 32  1  0  0  0  0
 15 33  1  0  0  0  0
 16 34  1  0  0  0  0
 16 35  1  0  0  0  0
 17 36  1  0  0  0  0
 17 37  1  0  0  0  0
 18 21  2  0  0  0  0
 18 23  1  0  0  0  0
 19 21  1  0  0  0  0
 20 25  2  0  0  0  0
 20 38  1  0  0  0  0
 21 39  1  0  0  0  0
 22 40  1  0  0  0  0
 22 41  1  0  0  0  0
 22 42  1  0  0  0  0
 23 25  1  0  0  0  0
 24 43  1  0  0  0  0
 24 44  1  0  0  0  0
 24 45  1  0  0  0  0
 25 26  1  0  0  0  0
M  END
> <PUBCHEM_COMPOUND_CID>
149096

> <PUBCHEM_CONFORMER_RMSD>
0.8

> <PUBCHEM_CONFORMER_DIVERSEORDER>
1
5
2
3
4
6

> <PUBCHEM_MMFF94_PARTIAL_CHARGES>
28
1 -0.19
10 0.37
11 0.37
12 0.1
13 0.1
14 0.08
15 0.27
16 0.27
17 0.28
18 0.09
19 0.19
2 -0.36
20 -0.05
21 -0.15
23 0.47
24 0.27
25 0.03
26 0.71
3 -0.57
38 0.15
39 0.15
4 -0.65
46 0.5
5 -0.57
6 -0.84
7 -0.57
8 -0.81
9 0.37

> <PUBCHEM_EFFECTIVE_ROTOR_COUNT>
3.8

> <PUBCHEM_PHARMACOPHORE_FEATURES>
13
1 2 acceptor
1 25 anion
1 3 acceptor
1 4 acceptor
1 5 acceptor
1 6 cation
1 7 cation
1 8 cation
3 4 5 26 anion
6 12 13 14 18 19 21 rings
6 2 7 11 13 14 17 rings
6 6 8 9 10 15 16 rings
6 7 13 18 20 23 25 rings

> <PUBCHEM_HEAVY_ATOM_COUNT>
26

> <PUBCHEM_ATOM_DEF_STEREO_COUNT>
1

> <PUBCHEM_ATOM_UDEF_STEREO_COUNT>
0

> <PUBCHEM_BOND_DEF_STEREO_COUNT>
0

> <PUBCHEM_BOND_UDEF_STEREO_COUNT>
0

> <PUBCHEM_ISOTOPIC_ATOM_COUNT>
0

> <PUBCHEM_COMPONENT_COUNT>
1

> <PUBCHEM_CACTVS_TAUTO_COUNT>
1

> <PUBCHEM_CONFORMER_ID>
0002466800000001

> <PUBCHEM_MMFF94_ENERGY>
89.0332

> <PUBCHEM_FEATURE_SELFOVERLAP>
66.452

> <PUBCHEM_SHAPE_FINGERPRINT>
10411042 1 18121780801102862690
10673678 19 17416664883594801732
10688039 33 18059574736533362548
10906281 52 18261657217228830196
10967382 1 18409449185152063602
1100329 8 18338234847702302586
11421498 54 13758088423275896781
11646440 116 18261106361818957921
12011746 2 18410009948576591702
12035758 1 18341901761651118288
12166972 35 18113621149556471457
12236239 1 17458346338537635351
12516196 113 18260832600413580369
12553582 1 18409456890365668674
12788726 201 18263931093037351856
12838862 33 18337410278622426664
13004483 165 18340497771745190986
13140716 1 18192992612957938010
13402501 40 18343868844410289501
13583140 156 17847061060887801707
13862211 1 18408889550839671690
14170010 4 18410013226169615905
14464042 87 18040431127150751553
14790565 3 18337101354061691688
14840074 17 17967816050478391660
14955137 171 18337097991054390987
15081414 286 18336259115522536204
15099037 51 18410857637824364975
15196674 1 18337672988528188442
15849732 13 18040435486378779791
1601671 61 18412265038372161928
16087824 20 18338795740704733037
16945 1 18409167671451971568
17349148 13 17749102267017781547
17357779 13 18338245945813698396
18785283 64 18057878039799458189
19141452 34 18186803543631034710
200 152 18041002855626772913
20642791 178 18055910992523579908
20739085 24 18193534861074137969
21029758 11 18333736822932108088
21033648 29 18200892720215999989
21033650 10 15865443152425748931
21236236 1 18262517121353466169
21267235 1 18409160043663926366
21279426 13 18196093467797930109
21285901 2 18337387261881885126
21641784 216 18129082572108097132
21709351 56 18411707552371593591
21792934 111 18265065785032185306
21792961 116 17988364879298863214
221357 26 18411990186921110141
22182313 1 18269578133408360204
23402539 116 18186806876230081878
23559900 14 18189903024503576200
23569943 247 17534326014627040118
2748010 2 18265900339953481708
3004659 81 18202281412244548940
3178227 256 18342165670971152787
335352 9 18409729543300010670
34934 24 18409455765147793906
350125 39 18411135844458232913
4340502 62 16845574231616940826
5104073 3 18266464200603591850
7495541 125 17703502203914528977

> <PUBCHEM_SHAPE_MULTIPOLES>
489.37
12.21
2.85
0.94
6.31
1.11
0.07
-1.31
-0.24
-1.62
0.29
0.68
0.26
0.37

> <PUBCHEM_SHAPE_SELFOVERLAP>
1072.629

> <PUBCHEM_SHAPE_VOLUME>
265.7

> <PUBCHEM_COORDINATE_TYPE>
2
5
10

$$$$

