17396455
  -OEChem-06241222563D

 39 40  0     0  0  0  0  0  0999 V2000
    5.7833    0.9055    0.3096 O   0  0  0  0  0  0  0  0  0  0  0  0
   -1.2653    1.5967   -0.7765 O   0  0  0  0  0  0  0  0  0  0  0  0
    5.2421   -1.2982    0.0252 O   0  0  0  0  0  0  0  0  0  0  0  0
   -2.3911   -0.3043    0.0138 N   0  0  0  0  0  0  0  0  0  0  0  0
    3.6067    0.3826    0.0551 N   0  0  0  0  0  0  0  0  0  0  0  0
   -4.6818   -0.7490    0.4790 N   0  0  0  0  0  0  0  0  0  0  0  0
    0.0027   -0.3054   -0.3463 C   0  0  0  0  0  0  0  0  0  0  0  0
    2.4087   -0.3088   -0.1281 C   0  0  0  0  0  0  0  0  0  0  0  0
    1.2000    0.3864   -0.1637 C   0  0  0  0  0  0  0  0  0  0  0  0
    0.0142   -1.6925   -0.4937 C   0  0  0  0  0  0  0  0  0  0  0  0
   -1.2578    0.4186   -0.3843 C   0  0  0  0  0  0  0  0  0  0  0  0
    2.4202   -1.6958   -0.2755 C   0  0  0  0  0  0  0  0  0  0  0  0
   -3.7405    0.1248    0.0572 C   0  0  0  0  0  0  0  0  0  0  0  0
    1.2229   -2.3877   -0.4583 C   0  0  0  0  0  0  0  0  0  0  0  0
   -5.9548   -0.2948    0.5035 C   0  0  0  0  0  0  0  0  0  0  0  0
   -4.0107    1.4246   -0.3395 C   0  0  0  0  0  0  0  0  0  0  0  0
   -6.3288    0.9855    0.1281 C   0  0  0  0  0  0  0  0  0  0  0  0
   -5.3321    1.8554   -0.3002 C   0  0  0  0  0  0  0  0  0  0  0  0
    4.9020   -0.1251    0.1190 C   0  0  0  0  0  0  0  0  0  0  0  0
   -6.9979   -1.2543    0.9710 C   0  0  0  0  0  0  0  0  0  0  0  0
    7.1661    0.5423    0.3978 C   0  0  0  0  0  0  0  0  0  0  0  0
    7.9921    1.7936    0.6069 C   0  0  0  0  0  0  0  0  0  0  0  0
    1.1981    1.4676   -0.0430 H   0  0  0  0  0  0  0  0  0  0  0  0
   -0.8872   -2.2700   -0.6760 H   0  0  0  0  0  0  0  0  0  0  0  0
    3.3159   -2.3011   -0.2610 H   0  0  0  0  0  0  0  0  0  0  0  0
    1.2320   -3.4669   -0.5819 H   0  0  0  0  0  0  0  0  0  0  0  0
   -2.2764   -1.2537    0.3563 H   0  0  0  0  0  0  0  0  0  0  0  0
    3.5256    1.3917    0.1555 H   0  0  0  0  0  0  0  0  0  0  0  0
   -3.2960    2.1541   -0.6819 H   0  0  0  0  0  0  0  0  0  0  0  0
   -7.3632    1.3103    0.1635 H   0  0  0  0  0  0  0  0  0  0  0  0
   -5.5866    2.8670   -0.6025 H   0  0  0  0  0  0  0  0  0  0  0  0
   -7.5015   -0.8650    1.8615 H   0  0  0  0  0  0  0  0  0  0  0  0
   -6.5549   -2.2218    1.2294 H   0  0  0  0  0  0  0  0  0  0  0  0
   -7.7404   -1.4226    0.1845 H   0  0  0  0  0  0  0  0  0  0  0  0
    7.4728    0.0469   -0.5301 H   0  0  0  0  0  0  0  0  0  0  0  0
    7.3104   -0.1417    1.2414 H   0  0  0  0  0  0  0  0  0  0  0  0
    9.0563    1.5522    0.6787 H   0  0  0  0  0  0  0  0  0  0  0  0
    7.6840    2.3103    1.5218 H   0  0  0  0  0  0  0  0  0  0  0  0
    7.8438    2.4959   -0.2201 H   0  0  0  0  0  0  0  0  0  0  0  0
  1 19  1  0  0  0  0
  1 21  1  0  0  0  0
  2 11  2  0  0  0  0
  3 19  2  0  0  0  0
  4 11  1  0  0  0  0
  4 13  1  0  0  0  0
  4 27  1  0  0  0  0
  5  8  1  0  0  0  0
  5 19  1  0  0  0  0
  5 28  1  0  0  0  0
  6 13  1  0  0  0  0
  6 15  2  0  0  0  0
  7  9  2  0  0  0  0
  7 10  1  0  0  0  0
  7 11  1  0  0  0  0
  8  9  1  0  0  0  0
  8 12  2  0  0  0  0
  9 23  1  0  0  0  0
 10 14  2  0  0  0  0
 10 24  1  0  0  0  0
 12 14  1  0  0  0  0
 12 25  1  0  0  0  0
 13 16  2  0  0  0  0
 14 26  1  0  0  0  0
 15 17  1  0  0  0  0
 15 20  1  0  0  0  0
 16 18  1  0  0  0  0
 16 29  1  0  0  0  0
 17 18  2  0  0  0  0
 17 30  1  0  0  0  0
 18 31  1  0  0  0  0
 20 32  1  0  0  0  0
 20 33  1  0  0  0  0
 20 34  1  0  0  0  0
 21 22  1  0  0  0  0
 21 35  1  0  0  0  0
 21 36  1  0  0  0  0
 22 37  1  0  0  0  0
 22 38  1  0  0  0  0
 22 39  1  0  0  0  0
M  END
> <PUBCHEM_COMPOUND_CID>
17396455

> <PUBCHEM_CONFORMER_RMSD>
0.8

> <PUBCHEM_CONFORMER_DIVERSEORDER>
2
35
27
42
11
18
13
10
15
7
51
32
60
49
21
1
20
17
62
63
46
54
19
4
41
47
61
37
31
26
16
50
6
14
33
45
29
12
25
5
57
40
28
48
34
56
43
8
39
3
36
22
24
44
38
23
58
9
55
59
30
52
53

> <PUBCHEM_MMFF94_PARTIAL_CHARGES>
30
1 -0.43
10 -0.15
11 0.54
12 -0.15
13 0.43
14 -0.15
15 0.17
16 -0.15
17 -0.15
18 -0.15
19 0.78
2 -0.57
20 0.14
21 0.28
23 0.15
24 0.15
25 0.15
26 0.15
27 0.37
28 0.37
29 0.15
3 -0.57
30 0.15
31 0.15
4 -0.55
5 -0.55
6 -0.62
7 0.09
8 0.12
9 -0.15

> <PUBCHEM_EFFECTIVE_ROTOR_COUNT>
7

> <PUBCHEM_PHARMACOPHORE_FEATURES>
7
1 2 acceptor
1 3 acceptor
1 4 donor
1 5 donor
1 6 acceptor
6 6 13 15 16 17 18 rings
6 7 8 9 10 12 14 rings

> <PUBCHEM_HEAVY_ATOM_COUNT>
22

> <PUBCHEM_ATOM_DEF_STEREO_COUNT>
0

> <PUBCHEM_ATOM_UDEF_STEREO_COUNT>
0

> <PUBCHEM_BOND_DEF_STEREO_COUNT>
0

> <PUBCHEM_BOND_UDEF_STEREO_COUNT>
0

> <PUBCHEM_ISOTOPIC_ATOM_COUNT>
0

> <PUBCHEM_COMPONENT_COUNT>
1

> <PUBCHEM_CACTVS_TAUTO_COUNT>
6

> <PUBCHEM_CONFORMER_ID>
010972E700000002

> <PUBCHEM_MMFF94_ENERGY>
64.2259

> <PUBCHEM_FEATURE_SELFOVERLAP>
35.52

> <PUBCHEM_SHAPE_FINGERPRINT>
10 15 18342459223258580552
106641 1 18343300327561827250
10835480 77 18340492283041114173
11315181 36 18260548931821807513
11408170 108 14476694047693116176
11578080 2 13841364386651033385
11724838 91 18343022160084630222
12091667 2 18261114071786264277
12596602 18 18130510824368122937
12670543 26 8214144053377639567
12730499 353 18186798110793012342
13073987 5 18201435943584818107
13533116 47 14707200072466619454
14251732 16 18413388743619294715
14251764 18 18060420196956320068
14251764 46 17060339617435248025
14849402 71 18187363169185402048
14933364 13 18409166623580301544
15183329 4 8142093052088092044
15475509 35 16629413622295250562
15728490 51 18114747032515962679
17093844 174 17704074015113748509
1768 4 18040714710872008728
17834072 8 9367347024803876779
18006028 8 11815900054939244542
20281389 69 18411421709402703424
20735858 18 18413670197116075938
21130935 74 18342455997121697123
21365058 27 16588021299458847047
21521721 280 18113336397334987018
220451 1 15574716914817169100
22224240 67 18341615897529145154
23402539 116 17847062203422565351
23559900 14 17906737260733769383
249999 5 18336549442928913226
3545911 37 18333448755217443287
4073 2 18272645766570621515
4340502 62 17418094343105433386
5104073 3 18269268144422801075
5758199 1 18259701194400953306
6438161 24 7420955236668756300

> <PUBCHEM_SHAPE_MULTIPOLES>
420.2
20.86
1.95
0.76
12.39
0.35
-0.03
-8.03
-6.31
0.33
0.18
-0.33
0.02
1.47

> <PUBCHEM_SHAPE_SELFOVERLAP>
887.515

> <PUBCHEM_SHAPE_VOLUME>
234

> <PUBCHEM_COORDINATE_TYPE>
2
5
10

$$$$

