10130163
  -OEChem-07051213022D

 25 25  0     1  0  0  0  0  0999 V2000
    3.2601   -2.7694    0.0000 O   0  0  0  0  0  0  0  0  0  0  0  0
    2.0000   -1.5094    0.0000 O   0  0  0  0  0  0  0  0  0  0  0  0
    5.4921   -0.2306    0.0000 O   0  0  0  0  0  0  0  0  0  0  0  0
    3.7601   -0.2306    0.0000 N   0  0  0  0  0  0  0  0  0  0  0  0
    3.7601   -1.2306    0.0000 C   0  0  1  0  0  0  0  0  0  0  0  0
    4.5691   -1.8184    0.0000 C   0  0  0  0  0  0  0  0  0  0  0  0
    4.2601   -2.7694    0.0000 C   0  0  0  0  0  0  0  0  0  0  0  0
    2.9511   -1.8184    0.0000 C   0  0  0  0  0  0  0  0  0  0  0  0
    4.6261    1.2694    0.0000 C   0  0  0  0  0  0  0  0  0  0  0  0
    4.6261    0.2694    0.0000 C   0  0  0  0  0  0  0  0  0  0  0  0
    5.4921    1.7694    0.0000 C   0  0  0  0  0  0  0  0  0  0  0  0
    5.4921    2.7694    0.0000 C   0  0  0  0  0  0  0  0  0  0  0  0
    4.3125   -0.9491    0.0000 H   0  0  0  0  0  0  0  0  0  0  0  0
    5.1355   -2.0705    0.0000 H   0  0  0  0  0  0  0  0  0  0  0  0
    4.8791   -1.2814    0.0000 H   0  0  0  0  0  0  0  0  0  0  0  0
    4.1953   -3.3860    0.0000 H   0  0  0  0  0  0  0  0  0  0  0  0
    4.8665   -2.8983    0.0000 H   0  0  0  0  0  0  0  0  0  0  0  0
    3.2231    0.0794    0.0000 H   0  0  0  0  0  0  0  0  0  0  0  0
    4.4140    1.8520    0.0000 H   0  0  0  0  0  0  0  0  0  0  0  0
    4.0155    1.1618    0.0000 H   0  0  0  0  0  0  0  0  0  0  0  0
    5.7042    1.1868    0.0000 H   0  0  0  0  0  0  0  0  0  0  0  0
    6.1027    1.8771    0.0000 H   0  0  0  0  0  0  0  0  0  0  0  0
    6.1121    2.7694    0.0000 H   0  0  0  0  0  0  0  0  0  0  0  0
    5.4921    3.3894    0.0000 H   0  0  0  0  0  0  0  0  0  0  0  0
    4.8721    2.7694    0.0000 H   0  0  0  0  0  0  0  0  0  0  0  0
  1  7  1  0  0  0  0
  1  8  1  0  0  0  0
  2  8  2  0  0  0  0
  3 10  2  0  0  0  0
  5  4  1  1  0  0  0
  4 10  1  0  0  0  0
  4 18  1  0  0  0  0
  5  6  1  0  0  0  0
  5  8  1  0  0  0  0
  5 13  1  0  0  0  0
  6  7  1  0  0  0  0
  6 14  1  0  0  0  0
  6 15  1  0  0  0  0
  7 16  1  0  0  0  0
  7 17  1  0  0  0  0
  9 10  1  0  0  0  0
  9 11  1  0  0  0  0
  9 19  1  0  0  0  0
  9 20  1  0  0  0  0
 11 12  1  0  0  0  0
 11 21  1  0  0  0  0
 11 22  1  0  0  0  0
 12 23  1  0  0  0  0
 12 24  1  0  0  0  0
 12 25  1  0  0  0  0
M  END
> <PUBCHEM_COMPOUND_CID>
10130163

> <PUBCHEM_COMPOUND_CANONICALIZED>
1

> <PUBCHEM_CACTVS_COMPLEXITY>
191

> <PUBCHEM_CACTVS_HBOND_ACCEPTOR>
3

> <PUBCHEM_CACTVS_HBOND_DONOR>
1

> <PUBCHEM_CACTVS_ROTATABLE_BOND>
3

> <PUBCHEM_CACTVS_SUBSKEYS>
AAADccByMAAAAAAAAAAAAAAAAAAAASAAAAAAAAAAAAAAAAAAAAAAHgAQAAAACCjhgAYCCALABAAIAAGQGAAAAAAAAAAAAIGIAAACABAAgCAHAAAGFgCQAAACAAAAAAAAAAAAAAAAAAAAAAAAAAAAAAAAAA==

> <PUBCHEM_IUPAC_OPENEYE_NAME>
N-[(3S)-2-oxotetrahydrofuran-3-yl]butanamide

> <PUBCHEM_IUPAC_CAS_NAME>
N-[(3S)-2-oxo-3-oxolanyl]butanamide

> <PUBCHEM_IUPAC_NAME>
N-[(3S)-2-oxooxolan-3-yl]butanamide

> <PUBCHEM_IUPAC_SYSTEMATIC_NAME>
N-[(3S)-2-oxidanylideneoxolan-3-yl]butanamide

> <PUBCHEM_IUPAC_TRADITIONAL_NAME>
N-[(3S)-2-ketotetrahydrofuran-3-yl]butyramide

> <PUBCHEM_IUPAC_INCHI>
InChI=1S/C8H13NO3/c1-2-3-7(10)9-6-4-5-12-8(6)11/h6H,2-5H2,1H3,(H,9,10)/t6-/m0/s1

> <PUBCHEM_IUPAC_INCHIKEY>
VFFNZZXXTGXBOG-LURJTMIESA-N

> <PUBCHEM_XLOGP3_AA>
0.5

> <PUBCHEM_EXACT_MASS>
171.089543

> <PUBCHEM_MOLECULAR_FORMULA>
C8H13NO3

> <PUBCHEM_MOLECULAR_WEIGHT>
171.19372

> <PUBCHEM_OPENEYE_CAN_SMILES>
CCCC(=O)NC1CCOC1=O

> <PUBCHEM_OPENEYE_ISO_SMILES>
CCCC(=O)N[C@H]1CCOC1=O

> <PUBCHEM_CACTVS_TPSA>
55.4

> <PUBCHEM_MONOISOTOPIC_WEIGHT>
171.089543

> <PUBCHEM_TOTAL_CHARGE>
0

> <PUBCHEM_HEAVY_ATOM_COUNT>
12

> <PUBCHEM_ATOM_DEF_STEREO_COUNT>
1

> <PUBCHEM_ATOM_UDEF_STEREO_COUNT>
0

> <PUBCHEM_BOND_DEF_STEREO_COUNT>
0

> <PUBCHEM_BOND_UDEF_STEREO_COUNT>
0

> <PUBCHEM_ISOTOPIC_ATOM_COUNT>
0

> <PUBCHEM_COMPONENT_COUNT>
1

> <PUBCHEM_CACTVS_TAUTO_COUNT>
4

> <PUBCHEM_COORDINATE_TYPE>
1
5
255

> <PUBCHEM_BONDANNOTATIONS>
5  4  5

$$$$

