6189
  -OEChem-06261201102D

 89 90  0     1  0  0  0  0  0999 V2000
    5.2825    0.0000    0.0000 I   0  5  0  0  0  0  0  0  0  0  0  0
    5.2825    2.5448    0.0000 I   0  5  0  0  0  0  0  0  0  0  0  0
    8.9177   10.8033    0.0000 N   0  3  0  0  0  0  0  0  0  0  0  0
    2.2678    6.4957    0.0000 N   0  3  0  0  0  0  0  0  0  0  0  0
    7.6609    9.5480    0.0000 C   0  0  1  0  0  0  0  0  0  0  0  0
    7.6609    8.5480    0.0000 C   0  0  3  0  0  0  0  0  0  0  0  0
    6.7948    8.0480    0.0000 C   0  0  1  0  0  0  0  0  0  0  0  0
    5.9288    8.5480    0.0000 C   0  0  3  0  0  0  0  0  0  0  0  0
    5.0188    8.0412    0.0000 C   0  0  2  0  0  0  0  0  0  0  0  0
    8.6071    9.8528    0.0000 C   0  0  1  0  0  0  0  0  0  0  0  0
    5.0108    6.9996    0.0000 C   0  0  3  0  0  0  0  0  0  0  0  0
    6.7948   10.0480    0.0000 C   0  0  0  0  0  0  0  0  0  0  0  0
    5.9288    9.5480    0.0000 C   0  0  0  0  0  0  0  0  0  0  0  0
    8.6071    8.2433    0.0000 C   0  0  0  0  0  0  0  0  0  0  0  0
    6.8109    7.0065    0.0000 C   0  0  0  0  0  0  0  0  0  0  0  0
    9.1907    9.0480    0.0000 C   0  0  0  0  0  0  0  0  0  0  0  0
    5.9129    6.4788    0.0000 C   0  0  0  0  0  0  0  0  0  0  0  0
    4.0920    8.6053    0.0000 C   0  0  0  0  0  0  0  0  0  0  0  0
    4.0754    6.4499    0.0000 C   0  0  0  0  0  0  0  0  0  0  0  0
    7.6609   10.5480    0.0000 C   0  0  0  0  0  0  0  0  0  0  0  0
    3.1357    6.9924    0.0000 C   0  0  1  0  0  0  0  0  0  0  0  0
    3.1441    8.0773    0.0000 C   0  0  0  0  0  0  0  0  0  0  0  0
    5.0265    9.0412    0.0000 C   0  0  0  0  0  0  0  0  0  0  0  0
    9.2284   11.7538    0.0000 C   0  0  0  0  0  0  0  0  0  0  0  0
    9.8683   10.4926    0.0000 C   0  0  0  0  0  0  0  0  0  0  0  0
    7.9672   11.1139    0.0000 C   0  0  0  0  0  0  0  0  0  0  0  0
    1.3998    5.9990    0.0000 C   0  0  0  0  0  0  0  0  0  0  0  0
    1.7711    7.3636    0.0000 C   0  0  0  0  0  0  0  0  0  0  0  0
    2.7644    5.6278    0.0000 C   0  0  0  0  0  0  0  0  0  0  0  0
   10.2069   11.9600    0.0000 C   0  0  0  0  0  0  0  0  0  0  0  0
   10.6126   11.1605    0.0000 C   0  0  0  0  0  0  0  0  0  0  0  0
    0.5357    6.5024    0.0000 C   0  0  0  0  0  0  0  0  0  0  0  0
    0.7711    7.3675    0.0000 C   0  0  0  0  0  0  0  0  0  0  0  0
    7.7265    7.9315    0.0000 H   0  0  0  0  0  0  0  0  0  0  0  0
    7.5342    7.6287    0.0000 H   0  0  0  0  0  0  0  0  0  0  0  0
    6.4657    8.8580    0.0000 H   0  0  0  0  0  0  0  0  0  0  0  0
    9.2196    9.9490    0.0000 H   0  0  0  0  0  0  0  0  0  0  0  0
    5.0132    6.3796    0.0000 H   0  0  0  0  0  0  0  0  0  0  0  0
    7.1934   10.5230    0.0000 H   0  0  0  0  0  0  0  0  0  0  0  0
    6.3963   10.5230    0.0000 H   0  0  0  0  0  0  0  0  0  0  0  0
    5.7168   10.1306    0.0000 H   0  0  0  0  0  0  0  0  0  0  0  0
    5.3182    9.4404    0.0000 H   0  0  0  0  0  0  0  0  0  0  0  0
    8.3560    7.6764    0.0000 H   0  0  0  0  0  0  0  0  0  0  0  0
    9.1445    7.9341    0.0000 H   0  0  0  0  0  0  0  0  0  0  0  0
    7.0289    6.4261    0.0000 H   0  0  0  0  0  0  0  0  0  0  0  0
    7.4200    7.1220    0.0000 H   0  0  0  0  0  0  0  0  0  0  0  0
    9.6516    8.6333    0.0000 H   0  0  0  0  0  0  0  0  0  0  0  0
    9.6516    9.4628    0.0000 H   0  0  0  0  0  0  0  0  0  0  0  0
    5.5156    6.0028    0.0000 H   0  0  0  0  0  0  0  0  0  0  0  0
    6.3138    6.0059    0.0000 H   0  0  0  0  0  0  0  0  0  0  0  0
    4.5002    9.0719    0.0000 H   0  0  0  0  0  0  0  0  0  0  0  0
    3.7020    9.0873    0.0000 H   0  0  0  0  0  0  0  0  0  0  0  0
    3.6780    5.9739    0.0000 H   0  0  0  0  0  0  0  0  0  0  0  0
    4.4763    5.9770    0.0000 H   0  0  0  0  0  0  0  0  0  0  0  0
    8.2809   10.5480    0.0000 H   0  0  0  0  0  0  0  0  0  0  0  0
    7.6609   11.1680    0.0000 H   0  0  0  0  0  0  0  0  0  0  0  0
    7.0409   10.5480    0.0000 H   0  0  0  0  0  0  0  0  0  0  0  0
    3.1345    6.3724    0.0000 H   0  0  0  0  0  0  0  0  0  0  0  0
    2.9395    8.6626    0.0000 H   0  0  0  0  0  0  0  0  0  0  0  0
    2.5324    7.9759    0.0000 H   0  0  0  0  0  0  0  0  0  0  0  0
    5.6465    9.0364    0.0000 H   0  0  0  0  0  0  0  0  0  0  0  0
    5.0313    9.6611    0.0000 H   0  0  0  0  0  0  0  0  0  0  0  0
    4.4065    9.0459    0.0000 H   0  0  0  0  0  0  0  0  0  0  0  0
    9.5762    9.9457    0.0000 H   0  0  0  0  0  0  0  0  0  0  0  0
   10.3562   10.1101    0.0000 H   0  0  0  0  0  0  0  0  0  0  0  0
    9.2078   12.3735    0.0000 H   0  0  0  0  0  0  0  0  0  0  0  0
    8.6146   11.8412    0.0000 H   0  0  0  0  0  0  0  0  0  0  0  0
    8.1598   11.7033    0.0000 H   0  0  0  0  0  0  0  0  0  0  0  0
    7.3779   11.3066    0.0000 H   0  0  0  0  0  0  0  0  0  0  0  0
    7.7746   10.5246    0.0000 H   0  0  0  0  0  0  0  0  0  0  0  0
    2.3545    7.5734    0.0000 H   0  0  0  0  0  0  0  0  0  0  0  0
    1.6658    7.9746    0.0000 H   0  0  0  0  0  0  0  0  0  0  0  0
    0.9995    5.5256    0.0000 H   0  0  0  0  0  0  0  0  0  0  0  0
    1.7965    5.5226    0.0000 H   0  0  0  0  0  0  0  0  0  0  0  0
    2.2263    5.3198    0.0000 H   0  0  0  0  0  0  0  0  0  0  0  0
    3.0724    5.0896    0.0000 H   0  0  0  0  0  0  0  0  0  0  0  0
    3.3026    5.9357    0.0000 H   0  0  0  0  0  0  0  0  0  0  0  0
   11.0266   10.6990    0.0000 H   0  0  0  0  0  0  0  0  0  0  0  0
   11.0740   11.5745    0.0000 H   0  0  0  0  0  0  0  0  0  0  0  0
   10.1985   11.6219    0.0000 H   0  0  0  0  0  0  0  0  0  0  0  0
   10.3348   11.3533    0.0000 H   0  0  0  0  0  0  0  0  0  0  0  0
   10.8136   12.0879    0.0000 H   0  0  0  0  0  0  0  0  0  0  0  0
   10.0791   12.5667    0.0000 H   0  0  0  0  0  0  0  0  0  0  0  0
    0.8478    7.0381    0.0000 H   0  0  0  0  0  0  0  0  0  0  0  0
    0.0000    6.8144    0.0000 H   0  0  0  0  0  0  0  0  0  0  0  0
    0.2237    5.9666    0.0000 H   0  0  0  0  0  0  0  0  0  0  0  0
    0.7735    7.9875    0.0000 H   0  0  0  0  0  0  0  0  0  0  0  0
    0.1511    7.3699    0.0000 H   0  0  0  0  0  0  0  0  0  0  0  0
    0.7687    6.7475    0.0000 H   0  0  0  0  0  0  0  0  0  0  0  0
 10  3  1  6  0  0  0
  3 24  1  0  0  0  0
  3 25  1  0  0  0  0
  3 26  1  0  0  0  0
 21  4  1  6  0  0  0
  4 27  1  0  0  0  0
  4 28  1  0  0  0  0
  4 29  1  0  0  0  0
  5  6  1  0  0  0  0
  5 10  1  0  0  0  0
  5 12  1  0  0  0  0
  5 20  1  1  0  0  0
  6  7  1  0  0  0  0
  6 14  1  0  0  0  0
  6 34  1  0  0  0  0
  7  8  1  0  0  0  0
  7 15  1  0  0  0  0
  7 35  1  1  0  0  0
  8  9  1  0  0  0  0
  8 13  1  0  0  0  0
  8 36  1  0  0  0  0
  9 11  1  0  0  0  0
  9 18  1  0  0  0  0
  9 23  1  1  0  0  0
 10 16  1  0  0  0  0
 10 37  1  0  0  0  0
 11 17  1  0  0  0  0
 11 19  1  0  0  0  0
 11 38  1  0  0  0  0
 12 13  1  0  0  0  0
 12 39  1  0  0  0  0
 12 40  1  0  0  0  0
 13 41  1  0  0  0  0
 13 42  1  0  0  0  0
 14 16  1  0  0  0  0
 14 43  1  0  0  0  0
 14 44  1  0  0  0  0
 15 17  1  0  0  0  0
 15 45  1  0  0  0  0
 15 46  1  0  0  0  0
 16 47  1  0  0  0  0
 16 48  1  0  0  0  0
 17 49  1  0  0  0  0
 17 50  1  0  0  0  0
 18 22  1  0  0  0  0
 18 51  1  0  0  0  0
 18 52  1  0  0  0  0
 19 21  1  0  0  0  0
 19 53  1  0  0  0  0
 19 54  1  0  0  0  0
 20 55  1  0  0  0  0
 20 56  1  0  0  0  0
 20 57  1  0  0  0  0
 21 22  1  0  0  0  0
 21 58  1  0  0  0  0
 22 59  1  0  0  0  0
 22 60  1  0  0  0  0
 23 61  1  0  0  0  0
 23 62  1  0  0  0  0
 23 63  1  0  0  0  0
 24 30  1  0  0  0  0
 24 66  1  0  0  0  0
 24 67  1  0  0  0  0
 25 31  1  0  0  0  0
 25 64  1  0  0  0  0
 25 65  1  0  0  0  0
 26 68  1  0  0  0  0
 26 69  1  0  0  0  0
 26 70  1  0  0  0  0
 27 32  1  0  0  0  0
 27 73  1  0  0  0  0
 27 74  1  0  0  0  0
 28 33  1  0  0  0  0
 28 71  1  0  0  0  0
 28 72  1  0  0  0  0
 29 75  1  0  0  0  0
 29 76  1  0  0  0  0
 29 77  1  0  0  0  0
 30 81  1  0  0  0  0
 30 82  1  0  0  0  0
 30 83  1  0  0  0  0
 31 78  1  0  0  0  0
 31 79  1  0  0  0  0
 31 80  1  0  0  0  0
 32 84  1  0  0  0  0
 32 85  1  0  0  0  0
 32 86  1  0  0  0  0
 33 87  1  0  0  0  0
 33 88  1  0  0  0  0
 33 89  1  0  0  0  0
M  CHG  4   1  -1   2  -1   3   1   4   1
M  END
> <PUBCHEM_COMPOUND_CID>
6189

> <PUBCHEM_COMPOUND_CANONICALIZED>
1

> <PUBCHEM_CACTVS_COMPLEXITY>
635

> <PUBCHEM_CACTVS_HBOND_ACCEPTOR>
2

> <PUBCHEM_CACTVS_HBOND_DONOR>
0

> <PUBCHEM_CACTVS_ROTATABLE_BOND>
6

> <PUBCHEM_CACTVS_SUBSKEYS>
AAADcfB7AAAAAwAAAAAAAAAAAAAAAYAAAAAwYMAAAAAAAGDAAAAAHAAAAAAADyjBAAQCAAMAAAAAAAAAAAAAAAAAAAAAAAAIAAAAAAIAgAAEAAAAAACAAAEQgMAPgAAAAAAAAACQAASAACAAACAACQAAAA==

> <PUBCHEM_IUPAC_OPENEYE_NAME>
[(3R,8R,10S,13S,17R)-3-[diethyl(methyl)ammonio]-10,13-dimethyl-2,3,4,5,6,7,8,9,11,12,14,15,16,17-tetradecahydro-1H-cyclopenta[a]phenanthren-17-yl]-diethyl-methyl-ammonium diiodide

> <PUBCHEM_IUPAC_CAS_NAME>
[(3R,8R,10S,13S,17R)-3-[diethyl(methyl)ammonio]-10,13-dimethyl-2,3,4,5,6,7,8,9,11,12,14,15,16,17-tetradecahydro-1H-cyclopenta[a]phenanthren-17-yl]-diethyl-methylammonium diiodide

> <PUBCHEM_IUPAC_NAME>
[(3R,8R,10S,13S,17R)-3-[diethyl(methyl)azaniumyl]-10,13-dimethyl-2,3,4,5,6,7,8,9,11,12,14,15,16,17-tetradecahydro-1H-cyclopenta[a]phenanthren-17-yl]-diethyl-methylazanium diiodide

> <PUBCHEM_IUPAC_SYSTEMATIC_NAME>
[(3R,8R,10S,13S,17R)-3-[diethyl(methyl)azaniumyl]-10,13-dimethyl-2,3,4,5,6,7,8,9,11,12,14,15,16,17-tetradecahydro-1H-cyclopenta[a]phenanthren-17-yl]-diethyl-methyl-azanium diiodide

> <PUBCHEM_IUPAC_TRADITIONAL_NAME>
[(3R,8R,10S,13S,17R)-3-[diethyl(methyl)ammonio]-10,13-dimethyl-2,3,4,5,6,7,8,9,11,12,14,15,16,17-tetradecahydro-1H-cyclopenta[a]phenanthren-17-yl]-diethyl-methyl-ammonium diiodide

> <PUBCHEM_IUPAC_INCHI>
InChI=1S/C29H56N2.2HI/c1-9-30(7,10-2)23-17-19-28(5)22(21-23)13-14-24-25-15-16-27(31(8,11-3)12-4)29(25,6)20-18-26(24)28;;/h22-27H,9-21H2,1-8H3;2*1H/q+2;;/p-2/t22?,23-,24+,25?,26?,27-,28+,29+;;/m1../s1

> <PUBCHEM_IUPAC_INCHIKEY>
HQYJGSBDTMCORH-UVLJULLJSA-L

> <PUBCHEM_EXACT_MASS>
686.253296

> <PUBCHEM_MOLECULAR_FORMULA>
C29H56I2N2

> <PUBCHEM_MOLECULAR_WEIGHT>
686.57728

> <PUBCHEM_OPENEYE_CAN_SMILES>
CC[N+](C)(CC)C1CCC2(C(C1)CCC3C2CCC4(C3CCC4[N+](C)(CC)CC)C)C.[I-].[I-]

> <PUBCHEM_OPENEYE_ISO_SMILES>
CC[N+](C)(CC)[C@@H]1CC[C@]2(C(C1)CC[C@@H]3C2CC[C@]4(C3CC[C@H]4[N+](C)(CC)CC)C)C.[I-].[I-]

> <PUBCHEM_CACTVS_TPSA>
0

> <PUBCHEM_MONOISOTOPIC_WEIGHT>
686.253296

> <PUBCHEM_TOTAL_CHARGE>
0

> <PUBCHEM_HEAVY_ATOM_COUNT>
33

> <PUBCHEM_ATOM_DEF_STEREO_COUNT>
5

> <PUBCHEM_ATOM_UDEF_STEREO_COUNT>
3

> <PUBCHEM_BOND_DEF_STEREO_COUNT>
0

> <PUBCHEM_BOND_UDEF_STEREO_COUNT>
0

> <PUBCHEM_ISOTOPIC_ATOM_COUNT>
0

> <PUBCHEM_COMPONENT_COUNT>
3

> <PUBCHEM_CACTVS_TAUTO_COUNT>
1

> <PUBCHEM_COORDINATE_TYPE>
1
5
255

> <PUBCHEM_BONDANNOTATIONS>
11  19  3
10  3  6
21  4  6
5  20  5
6  14  3
7  35  5
8  13  3
9  23  5

$$$$

