443242
  -OEChem-07051213013D

 39 39  0     1  0  0  0  0  0999 V2000
   -4.2353    0.9376   -0.1530 P   0  0  0  0  0  0  0  0  0  0  0  0
    1.9436   -0.4748    1.1199 O   0  0  0  0  0  0  0  0  0  0  0  0
   -0.0544   -0.2564   -0.1420 O   0  0  0  0  0  0  0  0  0  0  0  0
    2.5965    3.0498   -0.9700 O   0  0  0  0  0  0  0  0  0  0  0  0
    4.1242    0.6506   -1.6123 O   0  0  0  0  0  0  0  0  0  0  0  0
    1.7861    2.3570    1.5838 O   0  0  0  0  0  0  0  0  0  0  0  0
    3.4649   -2.7286    0.8464 O   0  0  0  0  0  0  0  0  0  0  0  0
   -2.8549    0.1185   -0.3405 O   0  0  0  0  0  0  0  0  0  0  0  0
   -1.9776   -3.2755   -0.0517 O   0  0  0  0  0  0  0  0  0  0  0  0
   -0.7442   -2.3382   -1.7173 O   0  0  0  0  0  0  0  0  0  0  0  0
   -5.1873   -0.1357    0.5930 O   0  0  0  0  0  0  0  0  0  0  0  0
   -3.8944    2.0057    1.0123 O   0  0  0  0  0  0  0  0  0  0  0  0
   -4.8046    1.5221   -1.4126 O   0  0  0  0  0  0  0  0  0  0  0  0
    2.1483    1.7192   -0.7259 C   0  0  1  0  0  0  0  0  0  0  0  0
    3.3367    0.8012   -0.4340 C   0  0  1  0  0  0  0  0  0  0  0  0
    1.1730    1.7362    0.4525 C   0  0  1  0  0  0  0  0  0  0  0  0
    2.8386   -0.5801    0.0097 C   0  0  1  0  0  0  0  0  0  0  0  0
    0.7795    0.3171    0.8592 C   0  0  2  0  0  0  0  0  0  0  0  0
    3.9937   -1.4794    0.4408 C   0  0  0  0  0  0  0  0  0  0  0  0
   -0.9726   -1.1853    0.4162 C   0  0  1  0  0  0  0  0  0  0  0  0
   -2.2550   -0.4650    0.8110 C   0  0  0  0  0  0  0  0  0  0  0  0
   -1.2049   -2.2959   -0.5854 C   0  0  0  0  0  0  0  0  0  0  0  0
    1.6363    1.3870   -1.6366 H   0  0  0  0  0  0  0  0  0  0  0  0
    3.9711    1.2572    0.3363 H   0  0  0  0  0  0  0  0  0  0  0  0
    0.2850    2.3248    0.1938 H   0  0  0  0  0  0  0  0  0  0  0  0
    2.3127   -1.0841   -0.8124 H   0  0  0  0  0  0  0  0  0  0  0  0
    0.2442    0.3873    1.8147 H   0  0  0  0  0  0  0  0  0  0  0  0
    4.5248   -1.0484    1.2961 H   0  0  0  0  0  0  0  0  0  0  0  0
    4.7013   -1.6537   -0.3746 H   0  0  0  0  0  0  0  0  0  0  0  0
   -0.5241   -1.6699    1.2945 H   0  0  0  0  0  0  0  0  0  0  0  0
    3.1842    3.3112   -0.2413 H   0  0  0  0  0  0  0  0  0  0  0  0
    4.9807    0.2724   -1.3517 H   0  0  0  0  0  0  0  0  0  0  0  0
    1.9133    3.2963    1.3678 H   0  0  0  0  0  0  0  0  0  0  0  0
   -2.9606   -1.1665    1.2669 H   0  0  0  0  0  0  0  0  0  0  0  0
   -2.0400    0.3310    1.5299 H   0  0  0  0  0  0  0  0  0  0  0  0
    4.2151   -3.2821    1.1229 H   0  0  0  0  0  0  0  0  0  0  0  0
   -2.1263   -4.0100   -0.6846 H   0  0  0  0  0  0  0  0  0  0  0  0
   -6.1301    0.0896    0.7428 H   0  0  0  0  0  0  0  0  0  0  0  0
   -4.5731    2.6684    1.2620 H   0  0  0  0  0  0  0  0  0  0  0  0
  1  8  1  0  0  0  0
  1 11  1  0  0  0  0
  1 12  1  0  0  0  0
  1 13  2  0  0  0  0
  2 17  1  0  0  0  0
  2 18  1  0  0  0  0
  3 18  1  0  0  0  0
  3 20  1  0  0  0  0
  4 14  1  0  0  0  0
  4 31  1  0  0  0  0
  5 15  1  0  0  0  0
  5 32  1  0  0  0  0
  6 16  1  0  0  0  0
  6 33  1  0  0  0  0
  7 19  1  0  0  0  0
  7 36  1  0  0  0  0
  8 21  1  0  0  0  0
  9 22  1  0  0  0  0
  9 37  1  0  0  0  0
 10 22  2  0  0  0  0
 11 38  1  0  0  0  0
 12 39  1  0  0  0  0
 14 15  1  0  0  0  0
 14 16  1  0  0  0  0
 14 23  1  0  0  0  0
 15 17  1  0  0  0  0
 15 24  1  0  0  0  0
 16 18  1  0  0  0  0
 16 25  1  0  0  0  0
 17 19  1  0  0  0  0
 17 26  1  0  0  0  0
 18 27  1  0  0  0  0
 19 28  1  0  0  0  0
 19 29  1  0  0  0  0
 20 21  1  0  0  0  0
 20 22  1  0  0  0  0
 20 30  1  0  0  0  0
 21 34  1  0  0  0  0
 21 35  1  0  0  0  0
M  END
> <PUBCHEM_COMPOUND_CID>
443242

> <PUBCHEM_CONFORMER_RMSD>
0.8

> <PUBCHEM_CONFORMER_DIVERSEORDER>
1
189
123
173
258
214
255
215
32
102
109
243
61
79
235
208
251
110
149
253
271
15
142
25
159
50
187
207
151
204
209
154
130
101
161
249
202
88
223
236
134
137
199
160
234
104
217
225
68
24
233
265
14
193
156
12
92
262
157
94
268
42
259
74
169
274
163
106
272
86
128
124
168
69
85
212
230
89
139
97
126
221
198
37
254
132
95
220
146
238
43
82
147
46
152
39
227
237
269
5
57
231
90
270
8
222
40
48
257
113
182
180
216
167
83
65
112
60
47
100
38
99
118
247
194
201
72
141
129
44
177
184
261
206
144
190
71
54
153
197
136
116
96
22
244
239
133
240
78
138
33
34
241
49
226
232
196
70
185
219
135
122
224
263
242
158
62
73
63
80
115
59
145
164
98
172
16
56
121
229
81
117
150
174
52
195
127
246
266
210
27
41
114
19
218
186
143
166
9
64
31
200
176
55
155
170
120
228
248
119
191
103
30
107
6
250
20
211
36
76
45
75
140
260
267
17
108
84
148
188
213
125
29
175
13
58
256
93
171
28
165
203
26
21
105
18
66
179
53
252
7
51
183
245
205
10
23
264
91
273
87
181
35
77
162
2
11
111
3
178
67
131
4
192

> <PUBCHEM_MMFF94_PARTIAL_CHARGES>
29
1 1.51
10 -0.57
11 -0.77
12 -0.77
13 -0.7
14 0.28
15 0.28
16 0.28
17 0.28
18 0.56
19 0.28
2 -0.56
20 0.34
21 0.28
22 0.66
3 -0.56
31 0.4
32 0.4
33 0.4
36 0.4
37 0.5
38 0.5
39 0.5
4 -0.68
5 -0.68
6 -0.68
7 -0.68
8 -0.55
9 -0.65

> <PUBCHEM_EFFECTIVE_ROTOR_COUNT>
8.2

> <PUBCHEM_PHARMACOPHORE_FEATURES>
18
1 10 acceptor
1 11 acceptor
1 12 acceptor
1 13 acceptor
1 2 acceptor
1 3 acceptor
1 4 acceptor
1 4 donor
1 5 acceptor
1 5 donor
1 6 acceptor
1 6 donor
1 7 acceptor
1 7 donor
1 9 acceptor
3 9 10 22 anion
4 1 11 12 13 anion
6 2 14 15 16 17 18 rings

> <PUBCHEM_HEAVY_ATOM_COUNT>
22

> <PUBCHEM_ATOM_DEF_STEREO_COUNT>
5

> <PUBCHEM_ATOM_UDEF_STEREO_COUNT>
1

> <PUBCHEM_BOND_DEF_STEREO_COUNT>
0

> <PUBCHEM_BOND_UDEF_STEREO_COUNT>
0

> <PUBCHEM_ISOTOPIC_ATOM_COUNT>
0

> <PUBCHEM_COMPONENT_COUNT>
1

> <PUBCHEM_CACTVS_TAUTO_COUNT>
1

> <PUBCHEM_CONFORMER_ID>
0006C36A00000001

> <PUBCHEM_MMFF94_ENERGY>
15.29

> <PUBCHEM_FEATURE_SELFOVERLAP>
91.499

> <PUBCHEM_SHAPE_FINGERPRINT>
11578080 2 17678185884134007456
12403260 363 18335988640384390459
12788726 201 17895745318114997208
13004483 165 18055369182663096258
13583140 156 18059558162475853651
14178342 30 18122925126455601338
15099037 51 18338801224776115646
15664445 248 16529497306131722399
16752209 62 17968931019572243768
17349148 13 17530961414761427331
17834072 14 5689591684625204701
18186145 218 17894916204996021609
18981168 100 15912511071989204918
192875 21 18041005084989307913
20645476 183 18410005499038420175
20671657 1 18411140216560418937
21069387 34 14562803361357022310
21524375 3 18408606985299853507
22094290 62 18410016541477978795
22393880 68 18190733134122672100
22907989 373 18044936758365965207
23557571 272 17972327204652789057
23558518 356 18126578829064454547
23559900 14 17967527948910585024
23598291 2 18341339911246533446
34934 24 18409168792828728594
3797600 57 10447922871900480806
7164475 11 18044957674677880967
74978 22 18187646843036719746
7832392 63 18340206271998326252
81228 2 17833566600161335171
9999458 23 17989205979702826963

> <PUBCHEM_SHAPE_MULTIPOLES>
386.17
8.91
3.22
1.28
6.95
0.86
-0.19
-2.25
-0.83
-0.78
-0.31
-0.2
-0.23
-0.82

> <PUBCHEM_SHAPE_SELFOVERLAP>
762.963

> <PUBCHEM_SHAPE_VOLUME>
229.7

> <PUBCHEM_COORDINATE_TYPE>
2
5
10

$$$$

