3453
  -OEChem-06251223253D

 50 49  0     0  0  0  0  0  0999 V2000
    2.7158   -2.4097    1.3768 O   0  0  0  0  0  0  0  0  0  0  0  0
    0.8789   -1.4057    2.2707 O   0  0  0  0  0  0  0  0  0  0  0  0
    2.5911    1.2903   -0.0762 C   0  0  0  0  0  0  0  0  0  0  0  0
    3.9599    1.1689   -0.7500 C   0  0  0  0  0  0  0  0  0  0  0  0
    2.1064    2.7422   -0.0610 C   0  0  0  0  0  0  0  0  0  0  0  0
   -1.5086   -3.0903   -0.9513 C   0  0  0  0  0  0  0  0  0  0  0  0
    4.4575   -0.2742   -0.8555 C   0  0  0  0  0  0  0  0  0  0  0  0
   -0.8063   -2.4153    0.2303 C   0  0  0  0  0  0  0  0  0  0  0  0
   -3.0220   -2.8528   -0.9825 C   0  0  0  0  0  0  0  0  0  0  0  0
    0.6918   -2.7172    0.2247 C   0  0  0  0  0  0  0  0  0  0  0  0
    0.7468    2.8516    0.5657 C   0  0  0  0  0  0  0  0  0  0  0  0
    5.7826   -0.4114   -1.5890 C   0  0  0  0  0  0  0  0  0  0  0  0
   -3.3858   -1.4020   -1.1051 C   0  0  0  0  0  0  0  0  0  0  0  0
   -0.3293    3.3430   -0.0663 C   0  0  0  0  0  0  0  0  0  0  0  0
   -1.6853    3.4679    0.5655 C   0  0  0  0  0  0  0  0  0  0  0  0
   -4.0732   -0.7235   -0.1742 C   0  0  0  0  0  0  0  0  0  0  0  0
   -4.4150    0.7319   -0.2969 C   0  0  0  0  0  0  0  0  0  0  0  0
   -2.6985    2.6041   -0.1288 C   0  0  0  0  0  0  0  0  0  0  0  0
   -3.4034    1.5921    0.4021 C   0  0  0  0  0  0  0  0  0  0  0  0
    1.3965   -2.0899    1.4009 C   0  0  0  0  0  0  0  0  0  0  0  0
    1.8657    0.6637   -0.6109 H   0  0  0  0  0  0  0  0  0  0  0  0
    2.6539    0.9045    0.9490 H   0  0  0  0  0  0  0  0  0  0  0  0
    4.6942    1.7643   -0.1935 H   0  0  0  0  0  0  0  0  0  0  0  0
    3.9035    1.5980   -1.7583 H   0  0  0  0  0  0  0  0  0  0  0  0
    2.8065    3.3597    0.5142 H   0  0  0  0  0  0  0  0  0  0  0  0
    2.0953    3.1395   -1.0832 H   0  0  0  0  0  0  0  0  0  0  0  0
   -1.0650   -2.7336   -1.8897 H   0  0  0  0  0  0  0  0  0  0  0  0
   -1.3291   -4.1718   -0.9103 H   0  0  0  0  0  0  0  0  0  0  0  0
    4.5685   -0.6905    0.1523 H   0  0  0  0  0  0  0  0  0  0  0  0
    3.7051   -0.8828   -1.3711 H   0  0  0  0  0  0  0  0  0  0  0  0
   -1.2521   -2.7630    1.1705 H   0  0  0  0  0  0  0  0  0  0  0  0
   -0.9516   -1.3290    0.1932 H   0  0  0  0  0  0  0  0  0  0  0  0
   -3.4479   -3.3879   -1.8397 H   0  0  0  0  0  0  0  0  0  0  0  0
   -3.4741   -3.2927   -0.0850 H   0  0  0  0  0  0  0  0  0  0  0  0
    0.8507   -3.8004    0.2706 H   0  0  0  0  0  0  0  0  0  0  0  0
    1.1455   -2.3273   -0.6932 H   0  0  0  0  0  0  0  0  0  0  0  0
    0.6545    2.5184    1.5966 H   0  0  0  0  0  0  0  0  0  0  0  0
    5.7003   -0.0412   -2.6157 H   0  0  0  0  0  0  0  0  0  0  0  0
    6.5694    0.1555   -1.0814 H   0  0  0  0  0  0  0  0  0  0  0  0
    6.0891   -1.4612   -1.6281 H   0  0  0  0  0  0  0  0  0  0  0  0
   -3.0643   -0.8914   -2.0097 H   0  0  0  0  0  0  0  0  0  0  0  0
   -0.2322    3.6863   -1.0938 H   0  0  0  0  0  0  0  0  0  0  0  0
   -1.6425    3.2212    1.6334 H   0  0  0  0  0  0  0  0  0  0  0  0
   -2.0090    4.5133    0.4999 H   0  0  0  0  0  0  0  0  0  0  0  0
   -4.3865   -1.2287    0.7361 H   0  0  0  0  0  0  0  0  0  0  0  0
   -4.4994    1.0169   -1.3529 H   0  0  0  0  0  0  0  0  0  0  0  0
   -5.4022    0.9014    0.1485 H   0  0  0  0  0  0  0  0  0  0  0  0
   -2.8718    2.8400   -1.1781 H   0  0  0  0  0  0  0  0  0  0  0  0
   -3.2446    1.3689    1.4565 H   0  0  0  0  0  0  0  0  0  0  0  0
    3.2009   -2.0180    2.1341 H   0  0  0  0  0  0  0  0  0  0  0  0
  1 20  1  0  0  0  0
  1 50  1  0  0  0  0
  2 20  2  0  0  0  0
  3  4  1  0  0  0  0
  3  5  1  0  0  0  0
  3 21  1  0  0  0  0
  3 22  1  0  0  0  0
  4  7  1  0  0  0  0
  4 23  1  0  0  0  0
  4 24  1  0  0  0  0
  5 11  1  0  0  0  0
  5 25  1  0  0  0  0
  5 26  1  0  0  0  0
  6  8  1  0  0  0  0
  6  9  1  0  0  0  0
  6 27  1  0  0  0  0
  6 28  1  0  0  0  0
  7 12  1  0  0  0  0
  7 29  1  0  0  0  0
  7 30  1  0  0  0  0
  8 10  1  0  0  0  0
  8 31  1  0  0  0  0
  8 32  1  0  0  0  0
  9 13  1  0  0  0  0
  9 33  1  0  0  0  0
  9 34  1  0  0  0  0
 10 20  1  0  0  0  0
 10 35  1  0  0  0  0
 10 36  1  0  0  0  0
 11 14  2  0  0  0  0
 11 37  1  0  0  0  0
 12 38  1  0  0  0  0
 12 39  1  0  0  0  0
 12 40  1  0  0  0  0
 13 16  2  0  0  0  0
 13 41  1  0  0  0  0
 14 15  1  0  0  0  0
 14 42  1  0  0  0  0
 15 18  1  0  0  0  0
 15 43  1  0  0  0  0
 15 44  1  0  0  0  0
 16 17  1  0  0  0  0
 16 45  1  0  0  0  0
 17 19  1  0  0  0  0
 17 46  1  0  0  0  0
 17 47  1  0  0  0  0
 18 19  2  0  0  0  0
 18 48  1  0  0  0  0
 19 49  1  0  0  0  0
M  END
> <PUBCHEM_COMPOUND_CID>
3453

> <PUBCHEM_CONFORMER_RMSD>
1.2

> <PUBCHEM_CONFORMER_DIVERSEORDER>
1
46
82
35
91
31
76
34
112
104
101
78
38
96
66
93
127
72
19
77
120
108
30
126
67
17
16
61
56
6
27
50
33
28
39
114
57
95
130
122
21
24
98
102
118
11
86
90
75
14
79
124
84
100
59
32
3
74
60
29
89
23
65
83
62
81
44
105
117
7
26
123
4
103
109
80
129
54
121
22
97
8
52
5
110
53
99
64
20
51
47
87
63
85
48
71
13
42
107
45
36
88
12
37
111
49
113
125
119
69
106
43
116
94
40
68
70
41
25
58
128
55
15
115
18
92
10
73
9
2

> <PUBCHEM_MMFF94_PARTIAL_CHARGES>
21
1 -0.65
10 0.06
11 -0.29
13 -0.29
14 -0.29
15 0.28
16 -0.29
17 0.28
18 -0.29
19 -0.29
2 -0.57
20 0.66
37 0.15
41 0.15
42 0.15
45 0.15
48 0.15
49 0.15
5 0.14
50 0.5
9 0.14

> <PUBCHEM_EFFECTIVE_ROTOR_COUNT>
13

> <PUBCHEM_PHARMACOPHORE_FEATURES>
6
1 1 acceptor
1 12 hydrophobe
1 2 acceptor
3 1 2 20 anion
5 3 4 5 7 11 hydrophobe
5 6 8 9 10 13 hydrophobe

> <PUBCHEM_HEAVY_ATOM_COUNT>
20

> <PUBCHEM_ATOM_DEF_STEREO_COUNT>
0

> <PUBCHEM_ATOM_UDEF_STEREO_COUNT>
0

> <PUBCHEM_BOND_DEF_STEREO_COUNT>
0

> <PUBCHEM_BOND_UDEF_STEREO_COUNT>
3

> <PUBCHEM_ISOTOPIC_ATOM_COUNT>
0

> <PUBCHEM_COMPONENT_COUNT>
1

> <PUBCHEM_CACTVS_TAUTO_COUNT>
1

> <PUBCHEM_CONFORMER_ID>
00000D7D00000001

> <PUBCHEM_MMFF94_ENERGY>
1.4383

> <PUBCHEM_FEATURE_SELFOVERLAP>
30.503

> <PUBCHEM_SHAPE_FINGERPRINT>
10670039 82 18410295830469764958
12038231 1 18265901250565767157
13122387 1 17833274499150619441
14117953 113 17402340759108088997
14251740 79 18335127705141205652
14251751 93 18335419097002120324
14251757 17 18118683210453190434
14251757 5 18266724827861769044
14289585 56 17346029099873176756
14931854 50 18340210669896976133
15322534 239 18342449318916549566
17977149 70 18262230136006970068
19930381 70 16606888609522040287
20765182 5 18266202619936345688
437795 70 18261936514989548902
474144 1 18058181672543727370

> <PUBCHEM_SHAPE_MULTIPOLES>
399.85
9.38
5.51
1.37
6.64
1.41
0.44
-0.78
-4.63
-2.31
0.6
0.98
-1.04
-1.43

> <PUBCHEM_SHAPE_SELFOVERLAP>
745.52

> <PUBCHEM_SHAPE_VOLUME>
248.4

> <PUBCHEM_COORDINATE_TYPE>
2
5
10

$$$$

