130805
  -OEChem-07051212493D

 35 35  0     1  0  0  0  0  0999 V2000
   -4.5136    1.4972   -0.0924 P   0  0  0  0  0  0  0  0  0  0  0  0
   -0.6526   -0.2960   -0.9045 O   0  0  0  0  0  0  0  0  0  0  0  0
   -1.4126   -3.1030    1.1999 O   0  0  0  0  0  0  0  0  0  0  0  0
    0.3849   -3.2283   -0.8757 O   0  0  0  0  0  0  0  0  0  0  0  0
   -3.3371    0.4771   -0.5358 O   0  0  0  0  0  0  0  0  0  0  0  0
    3.5243   -0.4067   -0.9745 O   0  0  0  0  0  0  0  0  0  0  0  0
   -5.4726    0.5684    0.8201 O   0  0  0  0  0  0  0  0  0  0  0  0
   -3.7963    2.4644    0.9869 O   0  0  0  0  0  0  0  0  0  0  0  0
   -5.2033    2.1998   -1.2251 O   0  0  0  0  0  0  0  0  0  0  0  0
    6.2432    0.6806    0.7876 O   0  0  0  0  0  0  0  0  0  0  0  0
    1.4681    0.1265   -0.0281 N   0  0  0  0  0  0  0  0  0  0  0  0
    4.5085    1.9994   -0.0655 N   0  0  0  0  0  0  0  0  0  0  0  0
   -0.7665   -1.9102    0.8102 C   0  0  2  0  0  0  0  0  0  0  0  0
   -1.5924   -1.1114   -0.1839 C   0  0  1  0  0  0  0  0  0  0  0  0
    0.5185   -2.1442    0.0411 C   0  0  2  0  0  0  0  0  0  0  0  0
    0.6691   -0.8405   -0.7319 C   0  0  1  0  0  0  0  0  0  0  0  0
   -2.6362   -0.2265    0.4747 C   0  0  0  0  0  0  0  0  0  0  0  0
    2.8418    0.2672   -0.2068 C   0  0  0  0  0  0  0  0  0  0  0  0
    3.4042    1.4006    0.6242 C   0  0  0  0  0  0  0  0  0  0  0  0
    5.8206    1.5855    0.0794 C   0  0  0  0  0  0  0  0  0  0  0  0
   -0.5586   -1.3091    1.7042 H   0  0  0  0  0  0  0  0  0  0  0  0
   -2.0816   -1.7664   -0.9162 H   0  0  0  0  0  0  0  0  0  0  0  0
    1.3690   -2.3725    0.6912 H   0  0  0  0  0  0  0  0  0  0  0  0
    1.0995   -1.0035   -1.7261 H   0  0  0  0  0  0  0  0  0  0  0  0
   -2.1525    0.5016    1.1341 H   0  0  0  0  0  0  0  0  0  0  0  0
   -3.3362   -0.8322    1.0582 H   0  0  0  0  0  0  0  0  0  0  0  0
    0.9914    0.7224    0.6418 H   0  0  0  0  0  0  0  0  0  0  0  0
   -0.7934   -3.5997    1.7617 H   0  0  0  0  0  0  0  0  0  0  0  0
    0.1722   -4.0219   -0.3555 H   0  0  0  0  0  0  0  0  0  0  0  0
    3.7325    0.9981    1.5875 H   0  0  0  0  0  0  0  0  0  0  0  0
    2.6549    2.1801    0.7902 H   0  0  0  0  0  0  0  0  0  0  0  0
    4.3138    2.7611   -0.7090 H   0  0  0  0  0  0  0  0  0  0  0  0
   -6.3227    0.9366    1.1424 H   0  0  0  0  0  0  0  0  0  0  0  0
   -4.3001    3.2217    1.3543 H   0  0  0  0  0  0  0  0  0  0  0  0
    6.4897    2.1927   -0.5523 H   0  0  0  0  0  0  0  0  0  0  0  0
  1  5  1  0  0  0  0
  1  7  1  0  0  0  0
  1  8  1  0  0  0  0
  1  9  2  0  0  0  0
  2 14  1  0  0  0  0
  2 16  1  0  0  0  0
  3 13  1  0  0  0  0
  3 28  1  0  0  0  0
  4 15  1  0  0  0  0
  4 29  1  0  0  0  0
  5 17  1  0  0  0  0
  6 18  2  0  0  0  0
  7 33  1  0  0  0  0
  8 34  1  0  0  0  0
 10 20  2  0  0  0  0
 11 16  1  0  0  0  0
 11 18  1  0  0  0  0
 11 27  1  0  0  0  0
 12 19  1  0  0  0  0
 12 20  1  0  0  0  0
 12 32  1  0  0  0  0
 13 14  1  0  0  0  0
 13 15  1  0  0  0  0
 13 21  1  0  0  0  0
 14 17  1  0  0  0  0
 14 22  1  0  0  0  0
 15 16  1  0  0  0  0
 15 23  1  0  0  0  0
 16 24  1  0  0  0  0
 17 25  1  0  0  0  0
 17 26  1  0  0  0  0
 18 19  1  0  0  0  0
 19 30  1  0  0  0  0
 19 31  1  0  0  0  0
 20 35  1  0  0  0  0
M  END
> <PUBCHEM_COMPOUND_CID>
130805

> <PUBCHEM_CONFORMER_RMSD>
0.8

> <PUBCHEM_CONFORMER_DIVERSEORDER>
9
66
40
73
5
26
72
30
69
59
17
38
55
74
49
11
61
12
50
27
60
44
68
18
57
23
76
24
64
65
62
4
29
70
20
67
22
48
47
34
42
71
41
15
21
13
75
52
28
33
54
19
46
31
53
63
3
36
43
58
39
10
32
35
51
56
14
7
45
37
2
1
25
16
6
8

> <PUBCHEM_MMFF94_PARTIAL_CHARGES>
27
1 1.51
10 -0.57
11 -0.73
12 -0.73
13 0.28
14 0.28
15 0.28
16 0.58
17 0.28
18 0.57
19 0.36
2 -0.56
20 0.57
27 0.37
28 0.4
29 0.4
3 -0.68
32 0.37
33 0.5
34 0.5
35 0.06
4 -0.68
5 -0.55
6 -0.57
7 -0.77
8 -0.77
9 -0.7

> <PUBCHEM_EFFECTIVE_ROTOR_COUNT>
9

> <PUBCHEM_PHARMACOPHORE_FEATURES>
14
1 10 acceptor
1 11 donor
1 12 donor
1 2 acceptor
1 3 acceptor
1 3 donor
1 4 acceptor
1 4 donor
1 6 acceptor
1 7 acceptor
1 8 acceptor
1 9 acceptor
4 1 7 8 9 anion
5 2 13 14 15 16 rings

> <PUBCHEM_HEAVY_ATOM_COUNT>
20

> <PUBCHEM_ATOM_DEF_STEREO_COUNT>
4

> <PUBCHEM_ATOM_UDEF_STEREO_COUNT>
0

> <PUBCHEM_BOND_DEF_STEREO_COUNT>
0

> <PUBCHEM_BOND_UDEF_STEREO_COUNT>
0

> <PUBCHEM_ISOTOPIC_ATOM_COUNT>
0

> <PUBCHEM_COMPONENT_COUNT>
1

> <PUBCHEM_CACTVS_TAUTO_COUNT>
4

> <PUBCHEM_CONFORMER_ID>
0001FEF500000009

> <PUBCHEM_MMFF94_ENERGY>
5.8287

> <PUBCHEM_FEATURE_SELFOVERLAP>
71.089

> <PUBCHEM_SHAPE_FINGERPRINT>
10042902 136 11095584693988382112
10692045 39 18340495585728475418
12107183 9 18342186583430544242
122479 349 18410854317888517726
12403259 415 18339911688733890495
12500047 106 18189618250828100798
12596602 18 16988560169437572041
12633257 1 15482665754126991120
12769317 202 18335713792136594321
12788726 201 17411880800606393594
13103583 49 14045734963290884541
13740256 8 9223228559219626661
14123255 352 18411420617816521341
14123255 52 18410856577099272581
14178342 30 17916860206197078482
15061688 2 18411982481322318015
17980427 26 18196667395588235047
20281475 54 9511461143027018855
20374829 77 8646774382711723341
20567600 254 18341341054066342085
20645477 56 18338793425094049808
21401589 2 18411131420788994657
21403212 168 18129958874100168362
23402539 116 18187936032239112604
2838139 119 17749395875008623968
2916195 48 18409449180662021413
293599 30 18408885122802138636
314194 84 9943508731066194149
474 4 18337112366552497659
5104073 3 18058159704471784897
56616090 284 6050443734255098037
56616090 46 18412261736149083454
633830 44 18334015037880688639
77188 2 16969705490678490671
84936 182 18190460652501407289
9981440 41 18410290298430640187

> <PUBCHEM_SHAPE_MULTIPOLES>
352.65
12.42
3.1
1.01
6.48
1.6
0
-13.18
-1.2
-1.57
-0.26
-0.44
0.1
0.87

> <PUBCHEM_SHAPE_SELFOVERLAP>
692.509

> <PUBCHEM_SHAPE_VOLUME>
210.9

> <PUBCHEM_COORDINATE_TYPE>
2
5
10

$$$$

