5372015
  -OEChem-07051213143D

 35 36  0     0  0  0  0  0  0999 V2000
   -3.5726    2.5642   -0.1115 O   0  0  0  0  0  0  0  0  0  0  0  0
    5.7134   -1.5092   -0.1550 O   0  0  0  0  0  0  0  0  0  0  0  0
   -0.7032   -0.2269   -0.7119 N   0  0  0  0  0  0  0  0  0  0  0  0
    4.7292    0.5682    0.3681 N   0  0  0  0  0  0  0  0  0  0  0  0
   -1.5937    0.7669   -0.5309 N   0  0  0  0  0  0  0  0  0  0  0  0
    0.6596   -0.0273   -0.4410 C   0  0  0  0  0  0  0  0  0  0  0  0
    3.3743    0.3696    0.1000 C   0  0  0  0  0  0  0  0  0  0  0  0
   -4.3934   -1.4113    0.2706 C   0  0  0  0  0  0  0  0  0  0  0  0
   -2.7726    0.3464   -0.2158 C   0  0  0  0  0  0  0  0  0  0  0  0
    1.5756   -1.0659   -0.6350 C   0  0  0  0  0  0  0  0  0  0  0  0
    1.1109    1.2112    0.0254 C   0  0  0  0  0  0  0  0  0  0  0  0
    2.9297   -0.8679   -0.3650 C   0  0  0  0  0  0  0  0  0  0  0  0
    2.4650    1.4092    0.2952 C   0  0  0  0  0  0  0  0  0  0  0  0
   -3.1367   -1.0798   -0.0623 C   0  0  0  0  0  0  0  0  0  0  0  0
   -5.4157   -0.4064    0.4870 C   0  0  0  0  0  0  0  0  0  0  0  0
   -3.8437    1.3797    0.0101 C   0  0  0  0  0  0  0  0  0  0  0  0
   -5.1932    0.9072    0.3736 C   0  0  0  0  0  0  0  0  0  0  0  0
   -4.8188   -2.8398    0.4395 C   0  0  0  0  0  0  0  0  0  0  0  0
    5.7812   -0.3472    0.2323 C   0  0  0  0  0  0  0  0  0  0  0  0
    7.1045    0.2592    0.6268 C   0  0  0  0  0  0  0  0  0  0  0  0
    1.2412   -2.0354   -0.9963 H   0  0  0  0  0  0  0  0  0  0  0  0
    0.4312    2.0433    0.1893 H   0  0  0  0  0  0  0  0  0  0  0  0
    3.5726   -1.7192   -0.5399 H   0  0  0  0  0  0  0  0  0  0  0  0
    2.7981    2.3788    0.6569 H   0  0  0  0  0  0  0  0  0  0  0  0
   -2.4071   -1.8686   -0.1924 H   0  0  0  0  0  0  0  0  0  0  0  0
   -0.9521   -1.0721   -1.2123 H   0  0  0  0  0  0  0  0  0  0  0  0
   -6.4108   -0.7505    0.7547 H   0  0  0  0  0  0  0  0  0  0  0  0
   -5.9742    1.6388    0.5402 H   0  0  0  0  0  0  0  0  0  0  0  0
    4.9737    1.4977    0.7037 H   0  0  0  0  0  0  0  0  0  0  0  0
   -5.1827   -3.0153    1.4577 H   0  0  0  0  0  0  0  0  0  0  0  0
   -3.9951   -3.5391    0.2591 H   0  0  0  0  0  0  0  0  0  0  0  0
   -5.6213   -3.0882   -0.2636 H   0  0  0  0  0  0  0  0  0  0  0  0
    7.3345    1.1027   -0.0300 H   0  0  0  0  0  0  0  0  0  0  0  0
    7.8969   -0.4888    0.5361 H   0  0  0  0  0  0  0  0  0  0  0  0
    7.0604    0.6043    1.6636 H   0  0  0  0  0  0  0  0  0  0  0  0
  1 16  2  0  0  0  0
  2 19  2  0  0  0  0
  3  5  1  0  0  0  0
  3  6  1  0  0  0  0
  3 26  1  0  0  0  0
  4  7  1  0  0  0  0
  4 19  1  0  0  0  0
  4 29  1  0  0  0  0
  5  9  2  0  0  0  0
  6 10  2  0  0  0  0
  6 11  1  0  0  0  0
  7 12  2  0  0  0  0
  7 13  1  0  0  0  0
  8 14  2  0  0  0  0
  8 15  1  0  0  0  0
  8 18  1  0  0  0  0
  9 14  1  0  0  0  0
  9 16  1  0  0  0  0
 10 12  1  0  0  0  0
 10 21  1  0  0  0  0
 11 13  2  0  0  0  0
 11 22  1  0  0  0  0
 12 23  1  0  0  0  0
 13 24  1  0  0  0  0
 14 25  1  0  0  0  0
 15 17  2  0  0  0  0
 15 27  1  0  0  0  0
 16 17  1  0  0  0  0
 17 28  1  0  0  0  0
 18 30  1  0  0  0  0
 18 31  1  0  0  0  0
 18 32  1  0  0  0  0
 19 20  1  0  0  0  0
 20 33  1  0  0  0  0
 20 34  1  0  0  0  0
 20 35  1  0  0  0  0
M  END
> <PUBCHEM_COMPOUND_CID>
5372015

> <PUBCHEM_CONFORMER_RMSD>
0.6

> <PUBCHEM_CONFORMER_DIVERSEORDER>
1
7
12
5
10
4
2
3
8
6
9
11

> <PUBCHEM_MMFF94_PARTIAL_CHARGES>
29
1 -0.57
10 -0.15
11 -0.15
12 -0.15
13 -0.15
14 -0.14
15 -0.15
16 0.56
17 -0.14
18 0.14
19 0.57
2 -0.57
20 0.06
21 0.15
22 0.15
23 0.15
24 0.15
25 0.15
26 0.4
27 0.15
28 0.15
29 0.37
3 -0.46
4 -0.55
5 -0.49
6 0.1
7 0.12
8 -0.14
9 0.44

> <PUBCHEM_EFFECTIVE_ROTOR_COUNT>
4

> <PUBCHEM_PHARMACOPHORE_FEATURES>
7
1 1 acceptor
1 2 acceptor
1 3 donor
1 4 donor
1 5 acceptor
6 6 7 10 11 12 13 rings
6 8 9 14 15 16 17 rings

> <PUBCHEM_HEAVY_ATOM_COUNT>
20

> <PUBCHEM_ATOM_DEF_STEREO_COUNT>
0

> <PUBCHEM_ATOM_UDEF_STEREO_COUNT>
0

> <PUBCHEM_BOND_DEF_STEREO_COUNT>
1

> <PUBCHEM_BOND_UDEF_STEREO_COUNT>
0

> <PUBCHEM_ISOTOPIC_ATOM_COUNT>
0

> <PUBCHEM_COMPONENT_COUNT>
1

> <PUBCHEM_CACTVS_TAUTO_COUNT>
2

> <PUBCHEM_CONFORMER_ID>
0051F86F00000001

> <PUBCHEM_MMFF94_ENERGY>
64.5645

> <PUBCHEM_FEATURE_SELFOVERLAP>
35.527

> <PUBCHEM_SHAPE_FINGERPRINT>
10 15 18261120634564981688
10319926 262 18336839635949808777
11315181 36 18202282481311824821
12107183 9 17693664022797951625
12236239 1 17346595270466181861
12507557 5 17894630344499083657
12596602 18 18408325484542576010
12670543 26 9871477534440300656
13288520 33 18272933808657237741
13668630 136 14836118858278306841
13675066 3 18041002834336598220
14251732 16 18339924814602326912
14341114 176 18411132532874469233
14844126 61 18341609253837763611
14849402 71 18268146453764210800
14933364 13 18334857212902279576
15348495 7 18260834748197753274
15716309 27 17775286071244343944
17093844 174 18130793360671428841
17844677 252 18410849950049631080
18222031 100 16988571160574685556
18927931 339 18341326726408909463
19433438 28 18334580113758745993
19489759 90 18272370875815178905
21033648 29 17313965102517148785
21065198 57 18409445908239664373
21267235 1 18411694378931358335
220451 1 17988922310166379802
23402539 116 18060704987273321557
23522609 53 17845065507492500140
23559900 14 18410581660875571009
26918003 58 18333448742474803897
3545911 37 18334575767557764781
4073 2 18272082790889503482
4214541 1 18411136952775579413
4463277 17 18335140895587119348
465052 167 18409165511674453878
5104073 3 18334859415539774312
7495541 125 18340204098945379884
9709674 26 18334849554975779567

> <PUBCHEM_SHAPE_MULTIPOLES>
384.91
16.47
2.03
0.74
13.98
0.32
0
3.23
-3.85
-2.97
-0.12
0.06
0.05
0.66

> <PUBCHEM_SHAPE_SELFOVERLAP>
815.433

> <PUBCHEM_SHAPE_VOLUME>
213.6

> <PUBCHEM_COORDINATE_TYPE>
2
5
10

$$$$

