151138
  -OEChem-07051212493D

 22 22  0     0  0  0  0  0  0999 V2000
   -2.9656    0.0113   -0.9269 O   0  0  0  0  0  0  0  0  0  0  0  0
    2.6371    0.8456   -0.4873 O   0  0  0  0  0  0  0  0  0  0  0  0
    1.7398   -1.1876   -0.9945 O   0  0  0  0  0  0  0  0  0  0  0  0
    0.8945    0.0735    0.8894 C   0  0  0  0  0  0  0  0  0  0  0  0
    0.1312    1.3864    0.6999 C   0  0  0  0  0  0  0  0  0  0  0  0
   -0.0298   -1.1174    1.1524 C   0  0  0  0  0  0  0  0  0  0  0  0
   -1.9600    0.1135    0.0757 C   0  0  0  0  0  0  0  0  0  0  0  0
   -1.0283    1.2658   -0.2859 C   0  0  0  0  0  0  0  0  0  0  0  0
   -1.1980   -1.2052    0.1727 C   0  0  0  0  0  0  0  0  0  0  0  0
    1.7791   -0.1860   -0.2953 C   0  0  0  0  0  0  0  0  0  0  0  0
    1.5670    0.1690    1.7524 H   0  0  0  0  0  0  0  0  0  0  0  0
    0.7902    2.2025    0.3830 H   0  0  0  0  0  0  0  0  0  0  0  0
   -0.2773    1.6889    1.6732 H   0  0  0  0  0  0  0  0  0  0  0  0
   -0.4397   -1.0186    2.1662 H   0  0  0  0  0  0  0  0  0  0  0  0
    0.5299   -2.0604    1.1383 H   0  0  0  0  0  0  0  0  0  0  0  0
   -2.4585    0.3296    1.0281 H   0  0  0  0  0  0  0  0  0  0  0  0
   -1.5956    2.2043   -0.3112 H   0  0  0  0  0  0  0  0  0  0  0  0
   -0.6438    1.1280   -1.3048 H   0  0  0  0  0  0  0  0  0  0  0  0
   -0.8458   -1.5017   -0.8229 H   0  0  0  0  0  0  0  0  0  0  0  0
   -1.8825   -2.0034    0.4855 H   0  0  0  0  0  0  0  0  0  0  0  0
   -3.5521   -0.7239   -0.6797 H   0  0  0  0  0  0  0  0  0  0  0  0
    3.2246    0.6949   -1.2583 H   0  0  0  0  0  0  0  0  0  0  0  0
  1  7  1  0  0  0  0
  1 21  1  0  0  0  0
  2 10  1  0  0  0  0
  2 22  1  0  0  0  0
  3 10  2  0  0  0  0
  4  5  1  0  0  0  0
  4  6  1  0  0  0  0
  4 10  1  0  0  0  0
  4 11  1  0  0  0  0
  5  8  1  0  0  0  0
  5 12  1  0  0  0  0
  5 13  1  0  0  0  0
  6  9  1  0  0  0  0
  6 14  1  0  0  0  0
  6 15  1  0  0  0  0
  7  8  1  0  0  0  0
  7  9  1  0  0  0  0
  7 16  1  0  0  0  0
  8 17  1  0  0  0  0
  8 18  1  0  0  0  0
  9 19  1  0  0  0  0
  9 20  1  0  0  0  0
M  END
> <PUBCHEM_COMPOUND_CID>
151138

> <PUBCHEM_CONFORMER_RMSD>
0.4

> <PUBCHEM_CONFORMER_DIVERSEORDER>
3
8
13
11
17
2
12
15
5
9
20
1
4
16
6
18
14
21
10
7
19

> <PUBCHEM_MMFF94_PARTIAL_CHARGES>
8
1 -0.68
10 0.66
2 -0.65
21 0.4
22 0.5
3 -0.57
4 0.06
7 0.28

> <PUBCHEM_EFFECTIVE_ROTOR_COUNT>
2.2

> <PUBCHEM_PHARMACOPHORE_FEATURES>
6
1 1 acceptor
1 1 donor
1 2 acceptor
1 3 acceptor
3 2 3 10 anion
6 4 5 6 7 8 9 rings

> <PUBCHEM_HEAVY_ATOM_COUNT>
10

> <PUBCHEM_ATOM_DEF_STEREO_COUNT>
0

> <PUBCHEM_ATOM_UDEF_STEREO_COUNT>
0

> <PUBCHEM_BOND_DEF_STEREO_COUNT>
0

> <PUBCHEM_BOND_UDEF_STEREO_COUNT>
0

> <PUBCHEM_ISOTOPIC_ATOM_COUNT>
0

> <PUBCHEM_COMPONENT_COUNT>
1

> <PUBCHEM_CACTVS_TAUTO_COUNT>
1

> <PUBCHEM_CONFORMER_ID>
00024E6200000003

> <PUBCHEM_MMFF94_ENERGY>
10.9667

> <PUBCHEM_FEATURE_SELFOVERLAP>
30.502

> <PUBCHEM_SHAPE_FINGERPRINT>
10702982 57 16886361933729827680
12423570 1 8456855069062109467
12897270 3 18335413543794003308
137420 1 17116104411833610682
14128692 85 16371011741434965453
15775835 57 16702584913245694324
16945 1 18261107443923849753
18185500 45 17334222715190011451
20201158 50 18334574637859890894
20653085 51 16414900990262649158
20653091 64 5687581811665999917
21040471 1 18130241401296367819
21293036 1 18271529710802069903
23552423 10 18194963165233272971
2748010 2 17833553396835839713
29004967 10 17530966882106894242
369184 2 16486968436865948112
4369600 1 18339655485318369329
5084963 1 18200880706706741042

> <PUBCHEM_SHAPE_MULTIPOLES>
188.19
3.18
1.44
1.05
0.35
0.05
-0.07
0.19
1.29
0
-0.13
-0.11
-0.14
0.17

> <PUBCHEM_SHAPE_SELFOVERLAP>
374.371

> <PUBCHEM_SHAPE_VOLUME>
110

> <PUBCHEM_COORDINATE_TYPE>
2
5
10

$$$$

