11257
  -OEChem-06261205273D

 34 35  0     0  0  0  0  0  0999 V2000
   -1.2758    1.7444   -0.3602 S   0  0  0  0  0  0  0  0  0  0  0  0
   -1.3205    2.1195   -1.7665 O   0  0  0  0  0  0  0  0  0  0  0  0
   -1.4892    2.7569    0.6659 O   0  0  0  0  0  0  0  0  0  0  0  0
    4.7951   -1.2011   -1.3783 O   0  0  0  0  0  0  0  0  0  0  0  0
    4.1192   -0.4534    0.7534 N   0  0  0  0  0  0  0  0  0  0  0  0
   -5.2679   -2.6065    0.3408 N   0  0  0  0  0  0  0  0  0  0  0  0
    0.3366    1.0874   -0.0271 C   0  0  0  0  0  0  0  0  0  0  0  0
   -2.4478    0.4668   -0.1545 C   0  0  0  0  0  0  0  0  0  0  0  0
    1.0661    0.5417   -1.0659 C   0  0  0  0  0  0  0  0  0  0  0  0
    0.8272    1.1362    1.2637 C   0  0  0  0  0  0  0  0  0  0  0  0
   -3.0355    0.2536    1.0926 C   0  0  0  0  0  0  0  0  0  0  0  0
   -2.7966   -0.3410   -1.2370 C   0  0  0  0  0  0  0  0  0  0  0  0
    2.8498    0.0635    0.4916 C   0  0  0  0  0  0  0  0  0  0  0  0
    2.3348    0.0246   -0.8039 C   0  0  0  0  0  0  0  0  0  0  0  0
    2.0961    0.6193    1.5255 C   0  0  0  0  0  0  0  0  0  0  0  0
   -3.9716   -0.7673    1.2573 C   0  0  0  0  0  0  0  0  0  0  0  0
   -3.7329   -1.3618   -1.0722 C   0  0  0  0  0  0  0  0  0  0  0  0
   -4.3204   -1.5749    0.1749 C   0  0  0  0  0  0  0  0  0  0  0  0
    4.9736   -1.0326   -0.1767 C   0  0  0  0  0  0  0  0  0  0  0  0
    6.2595   -1.4751    0.4767 C   0  0  0  0  0  0  0  0  0  0  0  0
    0.6770    0.4971   -2.0784 H   0  0  0  0  0  0  0  0  0  0  0  0
    0.2533    1.5554    2.0840 H   0  0  0  0  0  0  0  0  0  0  0  0
   -2.7740    0.8669    1.9503 H   0  0  0  0  0  0  0  0  0  0  0  0
   -2.3467   -0.1998   -2.2156 H   0  0  0  0  0  0  0  0  0  0  0  0
    2.8449   -0.3870   -1.6621 H   0  0  0  0  0  0  0  0  0  0  0  0
    2.4846    0.6541    2.5402 H   0  0  0  0  0  0  0  0  0  0  0  0
   -4.4215   -0.9243    2.2344 H   0  0  0  0  0  0  0  0  0  0  0  0
   -3.9952   -1.9856   -1.9229 H   0  0  0  0  0  0  0  0  0  0  0  0
    4.4359   -0.3945    1.7187 H   0  0  0  0  0  0  0  0  0  0  0  0
   -5.6931   -2.7627    1.2451 H   0  0  0  0  0  0  0  0  0  0  0  0
   -5.5199   -3.1933   -0.4434 H   0  0  0  0  0  0  0  0  0  0  0  0
    6.7726   -0.6114    0.9091 H   0  0  0  0  0  0  0  0  0  0  0  0
    6.9128   -1.9387   -0.2678 H   0  0  0  0  0  0  0  0  0  0  0  0
    6.0456   -2.2053    1.2626 H   0  0  0  0  0  0  0  0  0  0  0  0
  1  2  2  0  0  0  0
  1  3  2  0  0  0  0
  1  7  1  0  0  0  0
  1  8  1  0  0  0  0
  4 19  2  0  0  0  0
  5 13  1  0  0  0  0
  5 19  1  0  0  0  0
  5 29  1  0  0  0  0
  6 18  1  0  0  0  0
  6 30  1  0  0  0  0
  6 31  1  0  0  0  0
  7  9  2  0  0  0  0
  7 10  1  0  0  0  0
  8 11  2  0  0  0  0
  8 12  1  0  0  0  0
  9 14  1  0  0  0  0
  9 21  1  0  0  0  0
 10 15  2  0  0  0  0
 10 22  1  0  0  0  0
 11 16  1  0  0  0  0
 11 23  1  0  0  0  0
 12 17  2  0  0  0  0
 12 24  1  0  0  0  0
 13 14  2  0  0  0  0
 13 15  1  0  0  0  0
 14 25  1  0  0  0  0
 15 26  1  0  0  0  0
 16 18  2  0  0  0  0
 16 27  1  0  0  0  0
 17 18  1  0  0  0  0
 17 28  1  0  0  0  0
 19 20  1  0  0  0  0
 20 32  1  0  0  0  0
 20 33  1  0  0  0  0
 20 34  1  0  0  0  0
M  END
> <PUBCHEM_COMPOUND_CID>
11257

> <PUBCHEM_CONFORMER_RMSD>
0.6

> <PUBCHEM_CONFORMER_DIVERSEORDER>
1
2
4
3

> <PUBCHEM_MMFF94_PARTIAL_CHARGES>
31
1 1.32
10 -0.15
11 -0.15
12 -0.15
13 0.12
14 -0.15
15 -0.15
16 -0.15
17 -0.15
18 0.1
19 0.57
2 -0.65
20 0.06
21 0.15
22 0.15
23 0.15
24 0.15
25 0.15
26 0.15
27 0.15
28 0.15
29 0.37
3 -0.65
30 0.4
31 0.4
4 -0.57
5 -0.55
6 -0.9
7 -0.01
8 -0.01
9 -0.15

> <PUBCHEM_EFFECTIVE_ROTOR_COUNT>
4

> <PUBCHEM_PHARMACOPHORE_FEATURES>
8
1 2 acceptor
1 3 acceptor
1 4 acceptor
1 5 donor
1 6 cation
1 6 donor
6 7 9 10 13 14 15 rings
6 8 11 12 16 17 18 rings

> <PUBCHEM_HEAVY_ATOM_COUNT>
20

> <PUBCHEM_ATOM_DEF_STEREO_COUNT>
0

> <PUBCHEM_ATOM_UDEF_STEREO_COUNT>
0

> <PUBCHEM_BOND_DEF_STEREO_COUNT>
0

> <PUBCHEM_BOND_UDEF_STEREO_COUNT>
0

> <PUBCHEM_ISOTOPIC_ATOM_COUNT>
0

> <PUBCHEM_COMPONENT_COUNT>
1

> <PUBCHEM_CACTVS_TAUTO_COUNT>
2

> <PUBCHEM_CONFORMER_ID>
00002BF900000001

> <PUBCHEM_MMFF94_ENERGY>
53.4332

> <PUBCHEM_FEATURE_SELFOVERLAP>
40.612

> <PUBCHEM_SHAPE_FINGERPRINT>
10014705 185 9583513222379257462
10042902 136 18338515223057122255
10498660 4 10447662287718771743
11046707 91 18411983567817038605
11089746 13 11815894536212029374
11370993 144 16805876419972121102
11796584 16 18339082712954206798
12363563 72 18342176618568366209
12403259 118 14201392747431494947
12553582 1 17632298964950684313
12596602 18 14273460266864952982
12633257 1 16443344217917592607
12670546 177 15626222424961682026
12892183 10 15864332680326405919
13103583 49 17749658628470538547
13288520 33 18411136952290016403
13544653 18 18410295774376610033
13675066 3 14490471993577532232
14123255 352 9439404631378689858
1420 369 18410572860012840643
14251732 14 18340190943787444606
14251740 79 17632853135769543258
14251757 5 16916210079842710290
14251758 9 5689323382814461324
14251764 30 18411980234759497458
14251764 38 9366187035636903334
14341114 328 15430592832328513339
14576447 43 17561368383295093858
15209289 33 18187362125317976555
15209294 21 5689586174393088876
17780758 139 17603867827243713003
1813 80 18411408488723356877
18785283 64 17750246811800046256
193927 3 18341604902096356151
19784866 240 18270961242185282471
200 152 16917345948125565516
20361792 2 18200599082050052181
20871999 31 16486978397000466121
21054139 6 17846218891174423570
21713013 43 16630246888393613099
22393880 68 15195285292063363786
23379529 103 17773301353629849283
23402539 116 17202761639630876108
23402655 69 13686308984172979263
23559900 14 18342188751455981612
270888 7 8790620194971592491
312423 11 18411689972527586452
3286 77 17967814899268952409
3472631 163 9727642687348912043
351380 3 18343863307707126819
3737641 26 18042113422796495806
4028521 119 11527954447756200567
5104073 3 17968104174528648466
5352402 22 17676200282314664134
7495541 125 18335141995130408816
7970288 3 18343019952287635891

> <PUBCHEM_SHAPE_MULTIPOLES>
387.87
11.76
2.21
1.46
9.87
0.3
-0.1
-10.97
0.99
-1.92
-0.07
-0.19
0.23
0.5

> <PUBCHEM_SHAPE_SELFOVERLAP>
816.72

> <PUBCHEM_SHAPE_VOLUME>
218.1

> <PUBCHEM_COORDINATE_TYPE>
2
5
10

$$$$

