3634
  -OEChem-06251223332D

 49 51  0     0  0  0  0  0  0999 V2000
    4.6660   -2.1999    0.0000 S   0  0  0  0  0  0  0  0  0  0  0  0
    4.6660    0.8001    0.0000 O   0  0  0  0  0  0  0  0  0  0  0  0
    7.2746   -3.7445    0.0000 O   0  0  0  0  0  0  0  0  0  0  0  0
    8.1232    2.8546    0.0000 N   0  0  0  0  0  0  0  0  0  0  0  0
    6.4144    0.8347    0.0000 N   0  0  0  0  0  0  0  0  0  0  0  0
    7.2631    2.3446    0.0000 C   0  0  0  0  0  0  0  0  0  0  0  0
    7.2746    1.3446    0.0000 C   0  0  0  0  0  0  0  0  0  0  0  0
    6.4260   -0.1653    0.0000 C   0  0  0  0  0  0  0  0  0  0  0  0
    5.5321   -0.6999    0.0000 C   0  0  0  0  0  0  0  0  0  0  0  0
    5.5321   -1.6999    0.0000 C   0  0  0  0  0  0  0  0  0  0  0  0
    8.1117    3.8545    0.0000 C   0  0  0  0  0  0  0  0  0  0  0  0
    8.9950    2.3646    0.0000 C   0  0  0  0  0  0  0  0  0  0  0  0
    6.4260   -2.2346    0.0000 C   0  0  0  0  0  0  0  0  0  0  0  0
    4.6660   -0.1999    0.0000 C   0  0  0  0  0  0  0  0  0  0  0  0
    7.3321   -0.6791    0.0000 C   0  0  0  0  0  0  0  0  0  0  0  0
    3.8000   -0.6999    0.0000 C   0  0  0  0  0  0  0  0  0  0  0  0
    7.3321   -1.7208    0.0000 C   0  0  0  0  0  0  0  0  0  0  0  0
    3.8000   -1.6999    0.0000 C   0  0  0  0  0  0  0  0  0  0  0  0
    9.8552    2.8746    0.0000 C   0  0  0  0  0  0  0  0  0  0  0  0
    8.9719    4.3645    0.0000 C   0  0  0  0  0  0  0  0  0  0  0  0
    6.4144   -3.2345    0.0000 C   0  0  0  0  0  0  0  0  0  0  0  0
    2.9061   -0.1653    0.0000 C   0  0  0  0  0  0  0  0  0  0  0  0
    2.9061   -2.2346    0.0000 C   0  0  0  0  0  0  0  0  0  0  0  0
    2.0000   -0.6791    0.0000 C   0  0  0  0  0  0  0  0  0  0  0  0
    2.0000   -1.7208    0.0000 C   0  0  0  0  0  0  0  0  0  0  0  0
    7.0443    2.9247    0.0000 H   0  0  0  0  0  0  0  0  0  0  0  0
    6.6538    2.2299    0.0000 H   0  0  0  0  0  0  0  0  0  0  0  0
    7.4934    0.7645    0.0000 H   0  0  0  0  0  0  0  0  0  0  0  0
    7.8839    1.4594    0.0000 H   0  0  0  0  0  0  0  0  0  0  0  0
    5.8740    1.1384    0.0000 H   0  0  0  0  0  0  0  0  0  0  0  0
    8.6020    1.8851    0.0000 H   0  0  0  0  0  0  0  0  0  0  0  0
    9.3990    1.8943    0.0000 H   0  0  0  0  0  0  0  0  0  0  0  0
    7.8929    4.4346    0.0000 H   0  0  0  0  0  0  0  0  0  0  0  0
    7.5024    3.7398    0.0000 H   0  0  0  0  0  0  0  0  0  0  0  0
    7.8678   -0.3671    0.0000 H   0  0  0  0  0  0  0  0  0  0  0  0
    7.8678   -2.0328    0.0000 H   0  0  0  0  0  0  0  0  0  0  0  0
    9.2881    3.8312    0.0000 H   0  0  0  0  0  0  0  0  0  0  0  0
   10.1714    2.3413    0.0000 H   0  0  0  0  0  0  0  0  0  0  0  0
   10.3885    3.1908    0.0000 H   0  0  0  0  0  0  0  0  0  0  0  0
    9.5390    3.4079    0.0000 H   0  0  0  0  0  0  0  0  0  0  0  0
    9.5052    4.6807    0.0000 H   0  0  0  0  0  0  0  0  0  0  0  0
    8.6557    4.8978    0.0000 H   0  0  0  0  0  0  0  0  0  0  0  0
    5.8051   -3.1198    0.0000 H   0  0  0  0  0  0  0  0  0  0  0  0
    6.1957   -3.8146    0.0000 H   0  0  0  0  0  0  0  0  0  0  0  0
    2.9132    0.4547    0.0000 H   0  0  0  0  0  0  0  0  0  0  0  0
    2.9132   -2.8546    0.0000 H   0  0  0  0  0  0  0  0  0  0  0  0
    1.4643   -0.3671    0.0000 H   0  0  0  0  0  0  0  0  0  0  0  0
    1.4643   -2.0328    0.0000 H   0  0  0  0  0  0  0  0  0  0  0  0
    7.2674   -4.3645    0.0000 H   0  0  0  0  0  0  0  0  0  0  0  0
  1 10  1  0  0  0  0
  1 18  1  0  0  0  0
  2 14  2  0  0  0  0
  3 21  1  0  0  0  0
  3 49  1  0  0  0  0
  4  6  1  0  0  0  0
  4 11  1  0  0  0  0
  4 12  1  0  0  0  0
  5  7  1  0  0  0  0
  5  8  1  0  0  0  0
  5 30  1  0  0  0  0
  6  7  1  0  0  0  0
  6 26  1  0  0  0  0
  6 27  1  0  0  0  0
  7 28  1  0  0  0  0
  7 29  1  0  0  0  0
  8  9  2  0  0  0  0
  8 15  1  0  0  0  0
  9 10  1  0  0  0  0
  9 14  1  0  0  0  0
 10 13  2  0  0  0  0
 11 20  1  0  0  0  0
 11 33  1  0  0  0  0
 11 34  1  0  0  0  0
 12 19  1  0  0  0  0
 12 31  1  0  0  0  0
 12 32  1  0  0  0  0
 13 17  1  0  0  0  0
 13 21  1  0  0  0  0
 14 16  1  0  0  0  0
 15 17  2  0  0  0  0
 15 35  1  0  0  0  0
 16 18  1  0  0  0  0
 16 22  2  0  0  0  0
 17 36  1  0  0  0  0
 18 23  2  0  0  0  0
 19 38  1  0  0  0  0
 19 39  1  0  0  0  0
 19 40  1  0  0  0  0
 20 37  1  0  0  0  0
 20 41  1  0  0  0  0
 20 42  1  0  0  0  0
 21 43  1  0  0  0  0
 21 44  1  0  0  0  0
 22 24  1  0  0  0  0
 22 45  1  0  0  0  0
 23 25  1  0  0  0  0
 23 46  1  0  0  0  0
 24 25  2  0  0  0  0
 24 47  1  0  0  0  0
 25 48  1  0  0  0  0
M  END
> <PUBCHEM_COMPOUND_CID>
3634

> <PUBCHEM_COMPOUND_CANONICALIZED>
1

> <PUBCHEM_CACTVS_COMPLEXITY>
443

> <PUBCHEM_CACTVS_HBOND_ACCEPTOR>
5

> <PUBCHEM_CACTVS_HBOND_DONOR>
2

> <PUBCHEM_CACTVS_ROTATABLE_BOND>
7

> <PUBCHEM_CACTVS_SUBSKEYS>
AAADceB7MABAAAAAAAAAAAAAAAAAAAAAAAA0YIAAAAAAAACRQAAAHgQQCAAADAzh2AYywYPAAgiIAqRSQACCAAAlChAIiJkIbMgIdjrglZGUcYxk0AHo2ceY3OOOCAACACAGAAAQAAQAQAwAAAAAAAAAAA==

> <PUBCHEM_IUPAC_OPENEYE_NAME>
1-[2-(diethylamino)ethylamino]-4-(hydroxymethyl)thioxanthen-9-one

> <PUBCHEM_IUPAC_CAS_NAME>
1-[2-(diethylamino)ethylamino]-4-(hydroxymethyl)-9-thioxanthenone

> <PUBCHEM_IUPAC_NAME>
1-[2-(diethylamino)ethylamino]-4-(hydroxymethyl)thioxanthen-9-one

> <PUBCHEM_IUPAC_SYSTEMATIC_NAME>
1-[2-(diethylamino)ethylamino]-4-(hydroxymethyl)thioxanthen-9-one

> <PUBCHEM_IUPAC_TRADITIONAL_NAME>
1-[2-(diethylamino)ethylamino]-4-methylol-thioxanthen-9-one

> <PUBCHEM_IUPAC_INCHI>
InChI=1S/C20H24N2O2S/c1-3-22(4-2)12-11-21-16-10-9-14(13-23)20-18(16)19(24)15-7-5-6-8-17(15)25-20/h5-10,21,23H,3-4,11-13H2,1-2H3

> <PUBCHEM_IUPAC_INCHIKEY>
MFZWMTSUNYWVBU-UHFFFAOYSA-N

> <PUBCHEM_XLOGP3>
2.7

> <PUBCHEM_EXACT_MASS>
356.155849

> <PUBCHEM_MOLECULAR_FORMULA>
C20H24N2O2S

> <PUBCHEM_MOLECULAR_WEIGHT>
356.48176

> <PUBCHEM_OPENEYE_CAN_SMILES>
CCN(CC)CCNC1=C2C(=C(C=C1)CO)SC3=CC=CC=C3C2=O

> <PUBCHEM_OPENEYE_ISO_SMILES>
CCN(CC)CCNC1=C2C(=C(C=C1)CO)SC3=CC=CC=C3C2=O

> <PUBCHEM_CACTVS_TPSA>
77.9

> <PUBCHEM_MONOISOTOPIC_WEIGHT>
356.155849

> <PUBCHEM_TOTAL_CHARGE>
0

> <PUBCHEM_HEAVY_ATOM_COUNT>
25

> <PUBCHEM_ATOM_DEF_STEREO_COUNT>
0

> <PUBCHEM_ATOM_UDEF_STEREO_COUNT>
0

> <PUBCHEM_BOND_DEF_STEREO_COUNT>
0

> <PUBCHEM_BOND_UDEF_STEREO_COUNT>
0

> <PUBCHEM_ISOTOPIC_ATOM_COUNT>
0

> <PUBCHEM_COMPONENT_COUNT>
1

> <PUBCHEM_CACTVS_TAUTO_COUNT>
5

> <PUBCHEM_COORDINATE_TYPE>
1
5
255

> <PUBCHEM_BONDANNOTATIONS>
1  10  8
1  18  8
10  13  8
13  17  8
14  16  8
15  17  8
16  18  8
16  22  8
18  23  8
22  24  8
23  25  8
24  25  8
8  15  8
8  9  8
9  10  8
9  14  8

$$$$

