222805
  -OEChem-07051213072D

 55 58  0     1  0  0  0  0  0999 V2000
    4.7950    1.6888    0.0000 O   0  0  0  0  0  0  0  0  0  0  0  0
    5.6489   -2.8804    0.0000 O   0  0  0  0  0  0  0  0  0  0  0  0
    7.9821    3.1884    0.0000 O   0  0  0  0  0  0  0  0  0  0  0  0
    2.0000   -1.8635    0.0000 O   0  0  0  0  0  0  0  0  0  0  0  0
    7.3931    0.1888    0.0000 C   0  0  2  0  0  0  0  0  0  0  0  0
    7.3931    1.1888    0.0000 C   0  0  2  0  0  0  0  0  0  0  0  0
    6.5271   -0.3112    0.0000 C   0  0  1  0  0  0  0  0  0  0  0  0
    5.6610    0.1888    0.0000 C   0  0  1  0  0  0  0  0  0  0  0  0
    4.7510   -0.3180    0.0000 C   0  0  2  0  0  0  0  0  0  0  0  0
    6.5271    1.6888    0.0000 C   0  0  0  0  0  0  0  0  0  0  0  0
    8.3393    1.4936    0.0000 C   0  0  2  0  0  0  0  0  0  0  0  0
    5.6610    1.1888    0.0000 C   0  0  1  0  0  0  0  0  0  0  0  0
    8.3393   -0.1159    0.0000 C   0  0  0  0  0  0  0  0  0  0  0  0
    6.5431   -1.3527    0.0000 C   0  0  0  0  0  0  0  0  0  0  0  0
    8.9229    0.6888    0.0000 C   0  0  0  0  0  0  0  0  0  0  0  0
    4.7430   -1.3596    0.0000 C   0  0  0  0  0  0  0  0  0  0  0  0
    5.6451   -1.8804    0.0000 C   0  0  2  0  0  0  0  0  0  0  0  0
    7.3931    2.1888    0.0000 C   0  0  0  0  0  0  0  0  0  0  0  0
    3.8242    0.2460    0.0000 C   0  0  0  0  0  0  0  0  0  0  0  0
    4.7587    0.6819    0.0000 C   0  0  0  0  0  0  0  0  0  0  0  0
    8.6500    2.4441    0.0000 C   0  0  0  0  0  0  0  0  0  0  0  0
    2.8763   -0.2819    0.0000 C   0  0  0  0  0  0  0  0  0  0  0  0
    3.8076   -1.9094    0.0000 C   0  0  0  0  0  0  0  0  0  0  0  0
    2.8680   -1.3669    0.0000 C   0  0  0  0  0  0  0  0  0  0  0  0
    9.6285    2.6503    0.0000 C   0  0  0  0  0  0  0  0  0  0  0  0
    7.4830   -0.6564    0.0000 H   0  0  0  0  0  0  0  0  0  0  0  0
    7.2664   -0.7305    0.0000 H   0  0  0  0  0  0  0  0  0  0  0  0
    6.3972    0.6138    0.0000 H   0  0  0  0  0  0  0  0  0  0  0  0
    6.9256    2.1638    0.0000 H   0  0  0  0  0  0  0  0  0  0  0  0
    6.1285    2.1638    0.0000 H   0  0  0  0  0  0  0  0  0  0  0  0
    7.9018    1.9329    0.0000 H   0  0  0  0  0  0  0  0  0  0  0  0
    5.6610    1.8088    0.0000 H   0  0  0  0  0  0  0  0  0  0  0  0
    8.0883   -0.6828    0.0000 H   0  0  0  0  0  0  0  0  0  0  0  0
    8.8767   -0.4251    0.0000 H   0  0  0  0  0  0  0  0  0  0  0  0
    6.7612   -1.9331    0.0000 H   0  0  0  0  0  0  0  0  0  0  0  0
    7.1523   -1.2372    0.0000 H   0  0  0  0  0  0  0  0  0  0  0  0
    9.3838    0.2741    0.0000 H   0  0  0  0  0  0  0  0  0  0  0  0
    9.3838    1.1035    0.0000 H   0  0  0  0  0  0  0  0  0  0  0  0
    5.1087   -2.1915    0.0000 H   0  0  0  0  0  0  0  0  0  0  0  0
    8.0131    2.1888    0.0000 H   0  0  0  0  0  0  0  0  0  0  0  0
    7.3931    2.8088    0.0000 H   0  0  0  0  0  0  0  0  0  0  0  0
    6.7731    2.1888    0.0000 H   0  0  0  0  0  0  0  0  0  0  0  0
    4.2324    0.7127    0.0000 H   0  0  0  0  0  0  0  0  0  0  0  0
    3.4343    0.7281    0.0000 H   0  0  0  0  0  0  0  0  0  0  0  0
    5.3787    0.6772    0.0000 H   0  0  0  0  0  0  0  0  0  0  0  0
    4.7635    1.3019    0.0000 H   0  0  0  0  0  0  0  0  0  0  0  0
    4.1388    0.6867    0.0000 H   0  0  0  0  0  0  0  0  0  0  0  0
    2.6718    0.3034    0.0000 H   0  0  0  0  0  0  0  0  0  0  0  0
    2.2647   -0.3833    0.0000 H   0  0  0  0  0  0  0  0  0  0  0  0
    4.7950    2.3088    0.0000 H   0  0  0  0  0  0  0  0  0  0  0  0
    3.8100   -2.5294    0.0000 H   0  0  0  0  0  0  0  0  0  0  0  0
    6.1871   -3.1884    0.0000 H   0  0  0  0  0  0  0  0  0  0  0  0
    9.7563    2.0436    0.0000 H   0  0  0  0  0  0  0  0  0  0  0  0
   10.2351    2.7781    0.0000 H   0  0  0  0  0  0  0  0  0  0  0  0
    9.5006    3.2570    0.0000 H   0  0  0  0  0  0  0  0  0  0  0  0
 12  1  1  6  0  0  0
  1 50  1  0  0  0  0
 17  2  1  1  0  0  0
  2 52  1  0  0  0  0
  3 21  2  0  0  0  0
  4 24  2  0  0  0  0
  5  6  1  0  0  0  0
  5  7  1  0  0  0  0
  5 13  1  0  0  0  0
  5 26  1  6  0  0  0
  6 10  1  0  0  0  0
  6 11  1  0  0  0  0
  6 18  1  1  0  0  0
  7  8  1  0  0  0  0
  7 14  1  0  0  0  0
  7 27  1  1  0  0  0
  8  9  1  0  0  0  0
  8 12  1  0  0  0  0
  8 28  1  6  0  0  0
  9 16  1  0  0  0  0
  9 19  1  0  0  0  0
  9 20  1  1  0  0  0
 10 12  1  0  0  0  0
 10 29  1  0  0  0  0
 10 30  1  0  0  0  0
 11 15  1  0  0  0  0
 11 21  1  1  0  0  0
 11 31  1  0  0  0  0
 12 32  1  0  0  0  0
 13 15  1  0  0  0  0
 13 33  1  0  0  0  0
 13 34  1  0  0  0  0
 14 17  1  0  0  0  0
 14 35  1  0  0  0  0
 14 36  1  0  0  0  0
 15 37  1  0  0  0  0
 15 38  1  0  0  0  0
 16 17  1  0  0  0  0
 16 23  2  0  0  0  0
 17 39  1  0  0  0  0
 18 40  1  0  0  0  0
 18 41  1  0  0  0  0
 18 42  1  0  0  0  0
 19 22  1  0  0  0  0
 19 43  1  0  0  0  0
 19 44  1  0  0  0  0
 20 45  1  0  0  0  0
 20 46  1  0  0  0  0
 20 47  1  0  0  0  0
 21 25  1  0  0  0  0
 22 24  1  0  0  0  0
 22 48  1  0  0  0  0
 22 49  1  0  0  0  0
 23 24  1  0  0  0  0
 23 51  1  0  0  0  0
 25 53  1  0  0  0  0
 25 54  1  0  0  0  0
 25 55  1  0  0  0  0
M  END
> <PUBCHEM_COMPOUND_CID>
222805

> <PUBCHEM_COMPOUND_CANONICALIZED>
1

> <PUBCHEM_CACTVS_COMPLEXITY>
652

> <PUBCHEM_CACTVS_HBOND_ACCEPTOR>
4

> <PUBCHEM_CACTVS_HBOND_DONOR>
2

> <PUBCHEM_CACTVS_ROTATABLE_BOND>
1

> <PUBCHEM_CACTVS_SUBSKEYS>
AAADceB4OAAAAAAAAAAAAAAAAAAAAYAAAAAwYIAAAAAAAGDAAAAAGgAACAAADxSggAICAAAAAgCIAqBSAAAAAAAgAAAACAEAAEgAFBIAAQAAUAAEgAAIEQOI7PTPgAAAAAAAAADAAAYAADAAAQAACAAAAA==

> <PUBCHEM_IUPAC_OPENEYE_NAME>
(6R,8S,9S,10R,11R,13S,14S,17S)-17-acetyl-6,11-dihydroxy-10,13-dimethyl-1,2,6,7,8,9,11,12,14,15,16,17-dodecahydrocyclopenta[a]phenanthren-3-one

> <PUBCHEM_IUPAC_CAS_NAME>
(6R,8S,9S,10R,11R,13S,14S,17S)-17-acetyl-6,11-dihydroxy-10,13-dimethyl-1,2,6,7,8,9,11,12,14,15,16,17-dodecahydrocyclopenta[a]phenanthren-3-one

> <PUBCHEM_IUPAC_NAME>
(6R,8S,9S,10R,11R,13S,14S,17S)-17-acetyl-6,11-dihydroxy-10,13-dimethyl-1,2,6,7,8,9,11,12,14,15,16,17-dodecahydrocyclopenta[a]phenanthren-3-one

> <PUBCHEM_IUPAC_SYSTEMATIC_NAME>
(6R,8S,9S,10R,11R,13S,14S,17S)-17-ethanoyl-10,13-dimethyl-6,11-bis(oxidanyl)-1,2,6,7,8,9,11,12,14,15,16,17-dodecahydrocyclopenta[a]phenanthren-3-one

> <PUBCHEM_IUPAC_TRADITIONAL_NAME>
(6R,8S,9S,10R,11R,13S,14S,17S)-17-acetyl-6,11-dihydroxy-10,13-dimethyl-1,2,6,7,8,9,11,12,14,15,16,17-dodecahydrocyclopenta[a]phenanthren-3-one

> <PUBCHEM_IUPAC_INCHI>
InChI=1S/C21H30O4/c1-11(22)14-4-5-15-13-9-17(24)16-8-12(23)6-7-20(16,2)19(13)18(25)10-21(14,15)3/h8,13-15,17-19,24-25H,4-7,9-10H2,1-3H3/t13-,14+,15-,17+,18+,19+,20-,21+/m0/s1

> <PUBCHEM_IUPAC_INCHIKEY>
KDHBHXVDYRGRDL-KDZLLLCRSA-N

> <PUBCHEM_XLOGP3>
1.1

> <PUBCHEM_EXACT_MASS>
346.214409

> <PUBCHEM_MOLECULAR_FORMULA>
C21H30O4

> <PUBCHEM_MOLECULAR_WEIGHT>
346.4605

> <PUBCHEM_OPENEYE_CAN_SMILES>
CC(=O)C1CCC2C1(CC(C3C2CC(C4=CC(=O)CCC34C)O)O)C

> <PUBCHEM_OPENEYE_ISO_SMILES>
CC(=O)[C@H]1CC[C@@H]2[C@@]1(C[C@H]([C@H]3[C@H]2C[C@H](C4=CC(=O)CC[C@]34C)O)O)C

> <PUBCHEM_CACTVS_TPSA>
74.6

> <PUBCHEM_MONOISOTOPIC_WEIGHT>
346.214409

> <PUBCHEM_TOTAL_CHARGE>
0

> <PUBCHEM_HEAVY_ATOM_COUNT>
25

> <PUBCHEM_ATOM_DEF_STEREO_COUNT>
8

> <PUBCHEM_ATOM_UDEF_STEREO_COUNT>
0

> <PUBCHEM_BOND_DEF_STEREO_COUNT>
0

> <PUBCHEM_BOND_UDEF_STEREO_COUNT>
0

> <PUBCHEM_ISOTOPIC_ATOM_COUNT>
0

> <PUBCHEM_COMPONENT_COUNT>
1

> <PUBCHEM_CACTVS_TAUTO_COUNT>
6

> <PUBCHEM_COORDINATE_TYPE>
1
5
255

> <PUBCHEM_BONDANNOTATIONS>
12  1  6
11  21  5
17  2  5
5  26  6
6  18  5
7  27  5
8  28  6
9  20  5

$$$$

