23724683
  -OEChem-07051213082D

 29 29  0     0  0  0  0  0  0999 V2000
    4.2690   -0.4050    0.0000 O   0  0  0  0  0  0  0  0  0  0  0  0
    2.5369   -2.4050    0.0000 O   0  0  0  0  0  0  0  0  0  0  0  0
    3.4030   -0.9050    0.0000 O   0  0  0  0  0  0  0  0  0  0  0  0
    6.0010    2.5950    0.0000 O   0  0  0  0  0  0  0  0  0  0  0  0
    7.7331    3.5950    0.0000 O   0  0  0  0  0  0  0  0  0  0  0  0
    8.5991    2.0950    0.0000 O   0  0  0  0  0  0  0  0  0  0  0  0
    5.1350   -1.9050    0.0000 C   0  0  0  0  0  0  0  0  0  0  0  0
    4.2690   -2.4050    0.0000 C   0  0  0  0  0  0  0  0  0  0  0  0
    6.0010   -2.4050    0.0000 C   0  0  0  0  0  0  0  0  0  0  0  0
    5.1350   -0.9050    0.0000 C   0  0  0  0  0  0  0  0  0  0  0  0
    4.2690   -3.4050    0.0000 C   0  0  0  0  0  0  0  0  0  0  0  0
    6.0010   -3.4050    0.0000 C   0  0  0  0  0  0  0  0  0  0  0  0
    5.1350   -3.9050    0.0000 C   0  0  0  0  0  0  0  0  0  0  0  0
    6.0010   -0.4050    0.0000 C   0  0  0  0  0  0  0  0  0  0  0  0
    3.4030   -1.9050    0.0000 C   0  0  0  0  0  0  0  0  0  0  0  0
    6.0010    0.5950    0.0000 C   0  0  0  0  0  0  0  0  0  0  0  0
    6.8671    1.0950    0.0000 C   0  0  0  0  0  0  0  0  0  0  0  0
    6.8671    2.0950    0.0000 C   0  0  0  0  0  0  0  0  0  0  0  0
    7.7331    2.5950    0.0000 C   0  0  0  0  0  0  0  0  0  0  0  0
    6.5380   -2.0950    0.0000 H   0  0  0  0  0  0  0  0  0  0  0  0
    3.7320   -3.7150    0.0000 H   0  0  0  0  0  0  0  0  0  0  0  0
    6.5380   -3.7150    0.0000 H   0  0  0  0  0  0  0  0  0  0  0  0
    5.1350   -4.5250    0.0000 H   0  0  0  0  0  0  0  0  0  0  0  0
    6.5380   -0.7150    0.0000 H   0  0  0  0  0  0  0  0  0  0  0  0
    5.4641    0.9050    0.0000 H   0  0  0  0  0  0  0  0  0  0  0  0
    4.2690    0.2150    0.0000 H   0  0  0  0  0  0  0  0  0  0  0  0
    7.4040    0.7850    0.0000 H   0  0  0  0  0  0  0  0  0  0  0  0
    2.0000   -2.0950    0.0000 H   0  0  0  0  0  0  0  0  0  0  0  0
    8.2700    3.9050    0.0000 H   0  0  0  0  0  0  0  0  0  0  0  0
  1 10  1  0  0  0  0
  1 26  1  0  0  0  0
  2 15  1  0  0  0  0
  2 28  1  0  0  0  0
  3 15  2  0  0  0  0
  4 18  2  0  0  0  0
  5 19  1  0  0  0  0
  5 29  1  0  0  0  0
  6 19  2  0  0  0  0
  7  8  1  0  0  0  0
  7  9  2  0  0  0  0
  7 10  1  0  0  0  0
  8 11  2  0  0  0  0
  8 15  1  0  0  0  0
  9 12  1  0  0  0  0
  9 20  1  0  0  0  0
 10 14  2  0  0  0  0
 11 13  1  0  0  0  0
 11 21  1  0  0  0  0
 12 13  2  0  0  0  0
 12 22  1  0  0  0  0
 13 23  1  0  0  0  0
 14 16  1  0  0  0  0
 14 24  1  0  0  0  0
 16 17  2  0  0  0  0
 16 25  1  0  0  0  0
 17 18  1  0  0  0  0
 17 27  1  0  0  0  0
 18 19  1  0  0  0  0
M  END
> <PUBCHEM_COMPOUND_CID>
23724683

> <PUBCHEM_COMPOUND_CANONICALIZED>
1

> <PUBCHEM_CACTVS_COMPLEXITY>
434

> <PUBCHEM_CACTVS_HBOND_ACCEPTOR>
6

> <PUBCHEM_CACTVS_HBOND_DONOR>
3

> <PUBCHEM_CACTVS_ROTATABLE_BOND>
5

> <PUBCHEM_CACTVS_SUBSKEYS>
AAADccBwOAAAAAAAAAAAAAAAAAAAAAAAAAAwAAAAAAAAAAABAAAAGgAACAAADASAmAAwCIAAAgCIAqDSCAICAAAkIAAIiAFACMgIJjKAFRCAcQAkwAEImYfKyKCOgAAAAAAQAAAAAAAAACAAAAAAAAAAAA==

> <PUBCHEM_IUPAC_OPENEYE_NAME>
2-[(1Z,3E)-5-carboxy-1-hydroxy-5-oxo-penta-1,3-dienyl]benzoic acid

> <PUBCHEM_IUPAC_CAS_NAME>
2-[(1Z,3E)-5-carboxy-1-hydroxy-5-oxopenta-1,3-dienyl]benzoic acid

> <PUBCHEM_IUPAC_NAME>
2-[(1Z,3E)-5-carboxy-1-hydroxy-5-oxopenta-1,3-dienyl]benzoic acid

> <PUBCHEM_IUPAC_SYSTEMATIC_NAME>
2-[(1Z,3E)-1,6-bis(oxidanyl)-5,6-bis(oxidanylidene)hexa-1,3-dienyl]benzoic acid

> <PUBCHEM_IUPAC_TRADITIONAL_NAME>
2-[(1Z,3E)-5-carboxy-1-hydroxy-5-keto-penta-1,3-dienyl]benzoic acid

> <PUBCHEM_IUPAC_INCHI>
InChI=1S/C13H10O6/c14-10(6-3-7-11(15)13(18)19)8-4-1-2-5-9(8)12(16)17/h1-7,14H,(H,16,17)(H,18,19)/b7-3+,10-6-

> <PUBCHEM_IUPAC_INCHIKEY>
AGCCSGUKFYOOTJ-JSXJEZROSA-N

> <PUBCHEM_XLOGP3_AA>
1.4

> <PUBCHEM_EXACT_MASS>
262.047738

> <PUBCHEM_MOLECULAR_FORMULA>
C13H10O6

> <PUBCHEM_MOLECULAR_WEIGHT>
262.2149

> <PUBCHEM_OPENEYE_CAN_SMILES>
C1=CC=C(C(=C1)C(=CC=CC(=O)C(=O)O)O)C(=O)O

> <PUBCHEM_OPENEYE_ISO_SMILES>
C1=CC=C(C(=C1)/C(=C/C=C/C(=O)C(=O)O)/O)C(=O)O

> <PUBCHEM_CACTVS_TPSA>
112

> <PUBCHEM_MONOISOTOPIC_WEIGHT>
262.047738

> <PUBCHEM_TOTAL_CHARGE>
0

> <PUBCHEM_HEAVY_ATOM_COUNT>
19

> <PUBCHEM_ATOM_DEF_STEREO_COUNT>
0

> <PUBCHEM_ATOM_UDEF_STEREO_COUNT>
0

> <PUBCHEM_BOND_DEF_STEREO_COUNT>
2

> <PUBCHEM_BOND_UDEF_STEREO_COUNT>
0

> <PUBCHEM_ISOTOPIC_ATOM_COUNT>
0

> <PUBCHEM_COMPONENT_COUNT>
1

> <PUBCHEM_CACTVS_TAUTO_COUNT>
4

> <PUBCHEM_COORDINATE_TYPE>
1
5
255

> <PUBCHEM_BONDANNOTATIONS>
11  13  8
12  13  8
7  8  8
7  9  8
8  11  8
9  12  8

$$$$

