441809
  -OEChem-07051212563D

 69 73  0     1  0  0  0  0  0999 V2000
   -1.5175   -2.4447   -1.7415 O   0  0  0  0  0  0  0  0  0  0  0  0
    0.4149    1.8400   -0.4886 O   0  0  0  0  0  0  0  0  0  0  0  0
   -2.6113   -2.9611    0.2833 O   0  0  0  0  0  0  0  0  0  0  0  0
   -0.0963   -2.8000    1.6309 O   0  0  0  0  0  0  0  0  0  0  0  0
    2.9605   -0.3190    0.6248 O   0  0  0  0  0  0  0  0  0  0  0  0
   -3.9067   -1.2820    1.7682 O   0  0  0  0  0  0  0  0  0  0  0  0
    2.2194    2.1921    0.7892 O   0  0  0  0  0  0  0  0  0  0  0  0
   -5.6814    0.6645    2.1548 O   0  0  0  0  0  0  0  0  0  0  0  0
    3.3689    0.5463   -1.4757 O   0  0  0  0  0  0  0  0  0  0  0  0
    5.2876    1.0661    1.8945 O   0  0  0  0  0  0  0  0  0  0  0  0
   -0.4048   -0.4296   -1.1189 C   0  0  2  0  0  0  0  0  0  0  0  0
   -1.4568   -0.7922   -0.0367 C   0  0  1  0  0  0  0  0  0  0  0  0
   -2.8261    0.0324   -0.0727 C   0  0  2  0  0  0  0  0  0  0  0  0
    1.0282   -0.9279   -0.7081 C   0  0  2  0  0  0  0  0  0  0  0  0
   -1.4941   -2.3183   -0.3030 C   0  0  2  0  0  0  0  0  0  0  0  0
   -0.3061    1.0500   -1.4706 C   0  0  1  0  0  0  0  0  0  0  0  0
   -2.4956    1.5517   -0.3235 C   0  0  1  0  0  0  0  0  0  0  0  0
    1.0604   -2.4782   -0.4883 C   0  0  2  0  0  0  0  0  0  0  0  0
   -0.8889   -1.2797   -2.3061 C   0  0  0  0  0  0  0  0  0  0  0  0
   -0.2050   -2.9959    0.2219 C   0  0  1  0  0  0  0  0  0  0  0  0
   -1.6690    1.7335   -1.6110 C   0  0  0  0  0  0  0  0  0  0  0  0
    1.5641   -0.0903    0.4548 C   0  0  2  0  0  0  0  0  0  0  0  0
   -3.5042    0.0040    1.3397 C   0  0  1  0  0  0  0  0  0  0  0  0
   -3.8321   -0.4988   -1.1341 C   0  0  0  0  0  0  0  0  0  0  0  0
   -3.7179    2.4577   -0.2030 C   0  0  0  0  0  0  0  0  0  0  0  0
    2.3349   -3.0325    0.1518 C   0  0  0  0  0  0  0  0  0  0  0  0
    1.4532    1.3986    0.2459 C   0  0  0  0  0  0  0  0  0  0  0  0
   -4.7235    0.9136    1.4237 C   0  0  0  0  0  0  0  0  0  0  0  0
   -4.7380    2.1559    0.6164 C   0  0  0  0  0  0  0  0  0  0  0  0
   -3.7436    3.7562   -0.9610 C   0  0  0  0  0  0  0  0  0  0  0  0
    3.7535    0.0483   -0.4254 C   0  0  0  0  0  0  0  0  0  0  0  0
    5.2011   -0.2694   -0.1239 C   0  0  0  0  0  0  0  0  0  0  0  0
    5.9195    0.8604    0.6292 C   0  0  0  0  0  0  0  0  0  0  0  0
    7.3748    0.4624    0.8956 C   0  0  0  0  0  0  0  0  0  0  0  0
    5.8781    2.1859   -0.1327 C   0  0  0  0  0  0  0  0  0  0  0  0
   -1.0493   -0.6005    0.9618 H   0  0  0  0  0  0  0  0  0  0  0  0
    1.6479   -0.7849   -1.5984 H   0  0  0  0  0  0  0  0  0  0  0  0
    0.2407    1.1774   -2.4134 H   0  0  0  0  0  0  0  0  0  0  0  0
   -1.8478    1.8839    0.5034 H   0  0  0  0  0  0  0  0  0  0  0  0
    1.0425   -2.9250   -1.4932 H   0  0  0  0  0  0  0  0  0  0  0  0
   -1.6169   -0.7755   -2.9434 H   0  0  0  0  0  0  0  0  0  0  0  0
   -0.0786   -1.5979   -2.9709 H   0  0  0  0  0  0  0  0  0  0  0  0
   -0.2788   -4.0789    0.0566 H   0  0  0  0  0  0  0  0  0  0  0  0
   -2.2094    1.3714   -2.4902 H   0  0  0  0  0  0  0  0  0  0  0  0
   -1.4795    2.7999   -1.7838 H   0  0  0  0  0  0  0  0  0  0  0  0
    1.0710   -0.3338    1.3997 H   0  0  0  0  0  0  0  0  0  0  0  0
   -2.7988    0.3740    2.0946 H   0  0  0  0  0  0  0  0  0  0  0  0
   -4.7938    0.0221   -1.0942 H   0  0  0  0  0  0  0  0  0  0  0  0
   -3.4772   -0.3727   -2.1562 H   0  0  0  0  0  0  0  0  0  0  0  0
   -4.0664   -1.5569   -1.0010 H   0  0  0  0  0  0  0  0  0  0  0  0
    2.2941   -4.1273    0.1863 H   0  0  0  0  0  0  0  0  0  0  0  0
    3.2143   -2.7669   -0.4425 H   0  0  0  0  0  0  0  0  0  0  0  0
    2.4831   -2.6836    1.1775 H   0  0  0  0  0  0  0  0  0  0  0  0
   -2.4179   -3.9093    0.3668 H   0  0  0  0  0  0  0  0  0  0  0  0
    0.5327   -3.4559    1.9756 H   0  0  0  0  0  0  0  0  0  0  0  0
   -5.6012    2.8035    0.7257 H   0  0  0  0  0  0  0  0  0  0  0  0
   -4.5616   -1.6249    1.1379 H   0  0  0  0  0  0  0  0  0  0  0  0
   -4.6325    4.3535   -0.7292 H   0  0  0  0  0  0  0  0  0  0  0  0
   -3.7504    3.5727   -2.0401 H   0  0  0  0  0  0  0  0  0  0  0  0
   -2.8701    4.3648   -0.7059 H   0  0  0  0  0  0  0  0  0  0  0  0
    5.6986   -0.4882   -1.0766 H   0  0  0  0  0  0  0  0  0  0  0  0
    5.2236   -1.2001    0.4577 H   0  0  0  0  0  0  0  0  0  0  0  0
    7.4230   -0.4528    1.4969 H   0  0  0  0  0  0  0  0  0  0  0  0
    7.9239    0.2947   -0.0367 H   0  0  0  0  0  0  0  0  0  0  0  0
    7.8966    1.2363    1.4703 H   0  0  0  0  0  0  0  0  0  0  0  0
    4.8556    2.5677   -0.2209 H   0  0  0  0  0  0  0  0  0  0  0  0
    6.3023    2.0851   -1.1370 H   0  0  0  0  0  0  0  0  0  0  0  0
    6.4416    2.9605    0.4006 H   0  0  0  0  0  0  0  0  0  0  0  0
    5.7640    1.7752    2.3592 H   0  0  0  0  0  0  0  0  0  0  0  0
  1 15  1  0  0  0  0
  1 19  1  0  0  0  0
  2 16  1  0  0  0  0
  2 27  1  0  0  0  0
  3 15  1  0  0  0  0
  3 54  1  0  0  0  0
  4 20  1  0  0  0  0
  4 55  1  0  0  0  0
  5 22  1  0  0  0  0
  5 31  1  0  0  0  0
  6 23  1  0  0  0  0
  6 57  1  0  0  0  0
  7 27  2  0  0  0  0
  8 28  2  0  0  0  0
  9 31  2  0  0  0  0
 10 33  1  0  0  0  0
 10 69  1  0  0  0  0
 11 12  1  0  0  0  0
 11 14  1  0  0  0  0
 11 16  1  0  0  0  0
 11 19  1  0  0  0  0
 12 13  1  0  0  0  0
 12 15  1  0  0  0  0
 12 36  1  0  0  0  0
 13 17  1  0  0  0  0
 13 23  1  0  0  0  0
 13 24  1  0  0  0  0
 14 18  1  0  0  0  0
 14 22  1  0  0  0  0
 14 37  1  0  0  0  0
 15 20  1  0  0  0  0
 16 21  1  0  0  0  0
 16 38  1  0  0  0  0
 17 21  1  0  0  0  0
 17 25  1  0  0  0  0
 17 39  1  0  0  0  0
 18 20  1  0  0  0  0
 18 26  1  0  0  0  0
 18 40  1  0  0  0  0
 19 41  1  0  0  0  0
 19 42  1  0  0  0  0
 20 43  1  0  0  0  0
 21 44  1  0  0  0  0
 21 45  1  0  0  0  0
 22 27  1  0  0  0  0
 22 46  1  0  0  0  0
 23 28  1  0  0  0  0
 23 47  1  0  0  0  0
 24 48  1  0  0  0  0
 24 49  1  0  0  0  0
 24 50  1  0  0  0  0
 25 29  2  0  0  0  0
 25 30  1  0  0  0  0
 26 51  1  0  0  0  0
 26 52  1  0  0  0  0
 26 53  1  0  0  0  0
 28 29  1  0  0  0  0
 29 56  1  0  0  0  0
 30 58  1  0  0  0  0
 30 59  1  0  0  0  0
 30 60  1  0  0  0  0
 31 32  1  0  0  0  0
 32 33  1  0  0  0  0
 32 61  1  0  0  0  0
 32 62  1  0  0  0  0
 33 34  1  0  0  0  0
 33 35  1  0  0  0  0
 34 63  1  0  0  0  0
 34 64  1  0  0  0  0
 34 65  1  0  0  0  0
 35 66  1  0  0  0  0
 35 67  1  0  0  0  0
 35 68  1  0  0  0  0
M  END
> <PUBCHEM_COMPOUND_CID>
441809

> <PUBCHEM_CONFORMER_RMSD>
0.8

> <PUBCHEM_CONFORMER_DIVERSEORDER>
1
3
2
5
4
7
6

> <PUBCHEM_MMFF94_PARTIAL_CHARGES>
30
1 -0.56
10 -0.68
15 0.56
16 0.28
17 0.14
19 0.28
2 -0.43
20 0.28
22 0.34
23 0.34
25 -0.28
27 0.66
28 0.49
29 -0.14
3 -0.68
30 0.14
31 0.66
32 0.06
33 0.28
4 -0.68
5 -0.43
54 0.4
55 0.4
56 0.15
57 0.4
6 -0.68
69 0.4
7 -0.57
8 -0.57
9 -0.57

> <PUBCHEM_EFFECTIVE_ROTOR_COUNT>
5.6

> <PUBCHEM_PHARMACOPHORE_FEATURES>
17
1 1 acceptor
1 10 acceptor
1 10 donor
1 3 acceptor
1 3 donor
1 4 acceptor
1 4 donor
1 6 acceptor
1 6 donor
1 7 acceptor
1 8 acceptor
1 9 acceptor
3 33 34 35 hydrophobe
6 11 12 13 16 17 21 rings
6 13 17 23 25 28 29 rings
6 2 11 14 16 22 27 rings
8 1 11 12 14 15 18 19 20 rings

> <PUBCHEM_HEAVY_ATOM_COUNT>
35

> <PUBCHEM_ATOM_DEF_STEREO_COUNT>
11

> <PUBCHEM_ATOM_UDEF_STEREO_COUNT>
0

> <PUBCHEM_BOND_DEF_STEREO_COUNT>
0

> <PUBCHEM_BOND_UDEF_STEREO_COUNT>
0

> <PUBCHEM_ISOTOPIC_ATOM_COUNT>
0

> <PUBCHEM_COMPONENT_COUNT>
1

> <PUBCHEM_CACTVS_TAUTO_COUNT>
13

> <PUBCHEM_CONFORMER_ID>
0006BDD100000001

> <PUBCHEM_MMFF94_ENERGY>
139.4493

> <PUBCHEM_FEATURE_SELFOVERLAP>
86.497

> <PUBCHEM_SHAPE_FINGERPRINT>
10 15 18343861108947719272
10006869 2 18117844527847120344
10165383 225 18334008402425559849
10493431 412 18409729577549011444
10675989 125 17188984947466089573
11007060 377 18334869289670080736
11112241 14 17241061907239661680
11115154 58 17391384830982928983
11445158 3 17560515089125458796
11578080 2 18193556903501006889
1200032 147 13913697940975104427
12166972 35 6699514026875274504
12422481 6 18200322133995108874
12633257 1 18410853226761239217
131258 38 16190559674273931803
13140716 1 18196927765089669735
13544653 18 12391508689461528534
13690498 29 7132132248913269841
13726171 33 18121767350046097976
13782708 43 12391245933034196552
14068700 675 18048042865835500167
14466204 15 18408888425705861968
14790565 3 18411420571167947636
14856354 85 18269551650776799446
14950920 106 16988555762969528600
14955137 171 18343012307735998076
15021287 119 17418097586095872636
15183329 4 5761659166226896304
16110190 28 18341890745514087020
16945 1 18410007719958369183
17913733 40 18334572494723964450
1813 80 15697419127027761039
18927931 339 11887675108400290032
21033648 29 18339353188635931381
21033650 10 13912606104253165827
21236236 1 18336552616618795774
21756936 100 18335426759434876598
2838139 119 16660363714152827416
3411729 13 18264766743412542553
350125 39 18263646177786405861
3680242 22 18411145762243861066
392239 28 18130777920147780179
4340502 62 18338507642502518122
469060 322 18201727215065238095
50009960 94 17056369148489608299
5104073 3 18129380582428730968
5265222 85 18340195286410811388
56638632 10 18186804681903357281
56638632 33 16051537939369262955
6086070 43 16660943110058095410
7226269 152 18040718074037298544

> <PUBCHEM_SHAPE_MULTIPOLES>
661.59
12.35
3.62
1.68
16.18
0.93
-0.01
-8.78
-5.88
-1.87
0.28
-1.23
0.13
0.55

> <PUBCHEM_SHAPE_SELFOVERLAP>
1441.723

> <PUBCHEM_SHAPE_VOLUME>
351.2

> <PUBCHEM_COORDINATE_TYPE>
2
5
10

$$$$

