13161
  -OEChem-06261207502D

 20 19  0     0  0  0  0  0  0999 V2000
    4.5981   -0.5950    0.0000 S   0  0  0  0  0  0  0  0  0  0  0  0
    3.7321    0.9050    0.0000 O   0  0  0  0  0  0  0  0  0  0  0  0
    5.4641    0.9050    0.0000 N   0  0  0  0  0  0  0  0  0  0  0  0
    2.8660    0.4050    0.0000 C   0  0  0  0  0  0  0  0  0  0  0  0
    2.0000    0.9050    0.0000 C   0  0  0  0  0  0  0  0  0  0  0  0
    6.3301    0.4050    0.0000 C   0  0  0  0  0  0  0  0  0  0  0  0
    4.5981    0.4050    0.0000 C   0  0  0  0  0  0  0  0  0  0  0  0
    7.1962    0.9050    0.0000 C   0  0  0  0  0  0  0  0  0  0  0  0
    8.0622    0.4050    0.0000 C   0  0  0  0  0  0  0  0  0  0  0  0
    2.4675   -0.0699    0.0000 H   0  0  0  0  0  0  0  0  0  0  0  0
    3.2646   -0.0699    0.0000 H   0  0  0  0  0  0  0  0  0  0  0  0
    2.3100    1.4419    0.0000 H   0  0  0  0  0  0  0  0  0  0  0  0
    1.4631    1.2150    0.0000 H   0  0  0  0  0  0  0  0  0  0  0  0
    1.6900    0.3681    0.0000 H   0  0  0  0  0  0  0  0  0  0  0  0
    5.9316   -0.0699    0.0000 H   0  0  0  0  0  0  0  0  0  0  0  0
    6.7287   -0.0699    0.0000 H   0  0  0  0  0  0  0  0  0  0  0  0
    7.1962    1.5250    0.0000 H   0  0  0  0  0  0  0  0  0  0  0  0
    8.0622   -0.2150    0.0000 H   0  0  0  0  0  0  0  0  0  0  0  0
    8.5991    0.7150    0.0000 H   0  0  0  0  0  0  0  0  0  0  0  0
    4.0611   -0.9050    0.0000 H   0  0  0  0  0  0  0  0  0  0  0  0
  1  7  1  0  0  0  0
  1 20  1  0  0  0  0
  2  4  1  0  0  0  0
  2  7  1  0  0  0  0
  3  6  1  0  0  0  0
  3  7  2  0  0  0  0
  4  5  1  0  0  0  0
  4 10  1  0  0  0  0
  4 11  1  0  0  0  0
  5 12  1  0  0  0  0
  5 13  1  0  0  0  0
  5 14  1  0  0  0  0
  6  8  1  0  0  0  0
  6 15  1  0  0  0  0
  6 16  1  0  0  0  0
  8  9  2  0  0  0  0
  8 17  1  0  0  0  0
  9 18  1  0  0  0  0
  9 19  1  0  0  0  0
M  END
> <PUBCHEM_COMPOUND_CID>
13161

> <PUBCHEM_COMPOUND_CANONICALIZED>
1

> <PUBCHEM_CACTVS_COMPLEXITY>
112

> <PUBCHEM_CACTVS_HBOND_ACCEPTOR>
3

> <PUBCHEM_CACTVS_HBOND_DONOR>
1

> <PUBCHEM_CACTVS_ROTATABLE_BOND>
4

> <PUBCHEM_CACTVS_SUBSKEYS>
AAADccBiIABAAAAAAAAAAAAAAAAAAAAAAAAAAAAAAAAAAAAAAAAAHgQAAAAACADhgAYCAAIABASgACBCBACAEAAAAAAIAAAAAAAAAAAAAQAAAAAAAAAAAAAAAAAAAAAAAAAAAAAAAAAAAAAAAAAAAAAAAA==

> <PUBCHEM_IUPAC_OPENEYE_NAME>
N-allyl-1-ethoxy-methanimidothioic acid

> <PUBCHEM_IUPAC_CAS_NAME>
1-ethoxy-N-prop-2-enylmethanimidothioic acid

> <PUBCHEM_IUPAC_NAME>
1-ethoxy-N-prop-2-enylmethanimidothioic acid

> <PUBCHEM_IUPAC_SYSTEMATIC_NAME>
1-ethoxy-N-prop-2-enyl-methanimidothioic acid

> <PUBCHEM_IUPAC_TRADITIONAL_NAME>
N-allyl-1-ethoxy-thioformimidic acid

> <PUBCHEM_IUPAC_INCHI>
InChI=1S/C6H11NOS/c1-3-5-7-6(9)8-4-2/h3H,1,4-5H2,2H3,(H,7,9)

> <PUBCHEM_IUPAC_INCHIKEY>
ZRPRNLNEYWYWLO-UHFFFAOYSA-N

> <PUBCHEM_XLOGP3_AA>
2

> <PUBCHEM_EXACT_MASS>
145.056135

> <PUBCHEM_MOLECULAR_FORMULA>
C6H11NOS

> <PUBCHEM_MOLECULAR_WEIGHT>
145.22264

> <PUBCHEM_OPENEYE_CAN_SMILES>
CCOC(=NCC=C)S

> <PUBCHEM_OPENEYE_ISO_SMILES>
CCOC(=NCC=C)S

> <PUBCHEM_CACTVS_TPSA>
22.6

> <PUBCHEM_MONOISOTOPIC_WEIGHT>
145.056135

> <PUBCHEM_TOTAL_CHARGE>
0

> <PUBCHEM_HEAVY_ATOM_COUNT>
9

> <PUBCHEM_ATOM_DEF_STEREO_COUNT>
0

> <PUBCHEM_ATOM_UDEF_STEREO_COUNT>
0

> <PUBCHEM_BOND_DEF_STEREO_COUNT>
0

> <PUBCHEM_BOND_UDEF_STEREO_COUNT>
0

> <PUBCHEM_ISOTOPIC_ATOM_COUNT>
0

> <PUBCHEM_COMPONENT_COUNT>
1

> <PUBCHEM_CACTVS_TAUTO_COUNT>
2

> <PUBCHEM_COORDINATE_TYPE>
1
5
255

$$$$

