13005
  -OEChem-06261207382D

 16 16  0     0  0  0  0  0  0999 V2000
    2.0000   -0.0093    0.0000 O   0  0  0  0  0  0  0  0  0  0  0  0
    5.5202   -0.0093    0.0000 O   0  0  0  0  0  0  0  0  0  0  0  0
    3.7601    0.2694    0.0000 C   0  0  0  0  0  0  0  0  0  0  0  0
    3.2601   -1.2694    0.0000 C   0  0  0  0  0  0  0  0  0  0  0  0
    4.2601   -1.2694    0.0000 C   0  0  0  0  0  0  0  0  0  0  0  0
    2.9511   -0.3184    0.0000 C   0  0  0  0  0  0  0  0  0  0  0  0
    4.5691   -0.3184    0.0000 C   0  0  0  0  0  0  0  0  0  0  0  0
    3.7601    1.2694    0.0000 C   0  0  0  0  0  0  0  0  0  0  0  0
    4.3125    0.5509    0.0000 H   0  0  0  0  0  0  0  0  0  0  0  0
    2.6536   -1.3983    0.0000 H   0  0  0  0  0  0  0  0  0  0  0  0
    3.3249   -1.8860    0.0000 H   0  0  0  0  0  0  0  0  0  0  0  0
    4.1953   -1.8860    0.0000 H   0  0  0  0  0  0  0  0  0  0  0  0
    4.8665   -1.3983    0.0000 H   0  0  0  0  0  0  0  0  0  0  0  0
    4.3801    1.2694    0.0000 H   0  0  0  0  0  0  0  0  0  0  0  0
    3.7601    1.8894    0.0000 H   0  0  0  0  0  0  0  0  0  0  0  0
    3.1401    1.2694    0.0000 H   0  0  0  0  0  0  0  0  0  0  0  0
  1  6  2  0  0  0  0
  2  7  2  0  0  0  0
  3  6  1  0  0  0  0
  3  7  1  0  0  0  0
  3  8  1  0  0  0  0
  3  9  1  0  0  0  0
  4  5  1  0  0  0  0
  4  6  1  0  0  0  0
  4 10  1  0  0  0  0
  4 11  1  0  0  0  0
  5  7  1  0  0  0  0
  5 12  1  0  0  0  0
  5 13  1  0  0  0  0
  8 14  1  0  0  0  0
  8 15  1  0  0  0  0
  8 16  1  0  0  0  0
M  END
> <PUBCHEM_COMPOUND_CID>
13005

> <PUBCHEM_COMPOUND_CANONICALIZED>
1

> <PUBCHEM_CACTVS_COMPLEXITY>
122

> <PUBCHEM_CACTVS_HBOND_ACCEPTOR>
2

> <PUBCHEM_CACTVS_HBOND_DONOR>
0

> <PUBCHEM_CACTVS_ROTATABLE_BOND>
0

> <PUBCHEM_CACTVS_SUBSKEYS>
AAADccBgMAAAAAAAAAAAAAAAAAAAAYAAAAAAAAAAAAAAAAAAAAAAGgAAAAAADQSAgAACAAAAAAAIAIAQAAAAAAAAAAAAAAEAAAAAABIIAAAAAAAAAAAAAAEJCAAOAAAAAAAAAAAAAAAAAAAAAAAAAAAAAA==

> <PUBCHEM_IUPAC_OPENEYE_NAME>
2-methylcyclopentane-1,3-dione

> <PUBCHEM_IUPAC_CAS_NAME>
2-methylcyclopentane-1,3-dione

> <PUBCHEM_IUPAC_NAME>
2-methylcyclopentane-1,3-dione

> <PUBCHEM_IUPAC_SYSTEMATIC_NAME>
2-methylcyclopentane-1,3-dione

> <PUBCHEM_IUPAC_TRADITIONAL_NAME>
2-methylcyclopentane-1,3-quinone

> <PUBCHEM_IUPAC_INCHI>
InChI=1S/C6H8O2/c1-4-5(7)2-3-6(4)8/h4H,2-3H2,1H3

> <PUBCHEM_IUPAC_INCHIKEY>
HXZILEQYFQYQCE-UHFFFAOYSA-N

> <PUBCHEM_XLOGP3_AA>
0.2

> <PUBCHEM_EXACT_MASS>
112.052429

> <PUBCHEM_MOLECULAR_FORMULA>
C6H8O2

> <PUBCHEM_MOLECULAR_WEIGHT>
112.12652

> <PUBCHEM_OPENEYE_CAN_SMILES>
CC1C(=O)CCC1=O

> <PUBCHEM_OPENEYE_ISO_SMILES>
CC1C(=O)CCC1=O

> <PUBCHEM_CACTVS_TPSA>
34.1

> <PUBCHEM_MONOISOTOPIC_WEIGHT>
112.052429

> <PUBCHEM_TOTAL_CHARGE>
0

> <PUBCHEM_HEAVY_ATOM_COUNT>
8

> <PUBCHEM_ATOM_DEF_STEREO_COUNT>
0

> <PUBCHEM_ATOM_UDEF_STEREO_COUNT>
0

> <PUBCHEM_BOND_DEF_STEREO_COUNT>
0

> <PUBCHEM_BOND_UDEF_STEREO_COUNT>
0

> <PUBCHEM_ISOTOPIC_ATOM_COUNT>
0

> <PUBCHEM_COMPONENT_COUNT>
1

> <PUBCHEM_CACTVS_TAUTO_COUNT>
5

> <PUBCHEM_COORDINATE_TYPE>
1
5
255

$$$$

