4595
  -OEChem-07051212533D

 41 44  0     1  0  0  0  0  0999 V2000
    0.8253    1.0488    1.3014 O   0  0  0  0  0  0  0  0  0  0  0  0
   -2.6613   -1.3397   -0.4516 N   0  0  0  0  0  0  0  0  0  0  0  0
    2.9959    0.1029   -0.5578 N   0  0  0  0  0  0  0  0  0  0  0  0
    4.7173    1.4580   -0.2637 N   0  0  0  0  0  0  0  0  0  0  0  0
    1.3784   -1.2331    0.7488 C   0  0  2  0  0  0  0  0  0  0  0  0
    0.6255   -2.5795    0.8384 C   0  0  0  0  0  0  0  0  0  0  0  0
   -0.5502   -2.6918   -0.1450 C   0  0  0  0  0  0  0  0  0  0  0  0
   -1.3560   -1.4474   -0.0667 C   0  0  0  0  0  0  0  0  0  0  0  0
   -0.9324   -0.2196    0.3941 C   0  0  0  0  0  0  0  0  0  0  0  0
    0.4288   -0.0313    0.8704 C   0  0  0  0  0  0  0  0  0  0  0  0
    2.1877   -1.1067   -0.5393 C   0  0  0  0  0  0  0  0  0  0  0  0
   -2.0343    0.6775    0.2932 C   0  0  0  0  0  0  0  0  0  0  0  0
   -3.1036   -0.0514   -0.2407 C   0  0  0  0  0  0  0  0  0  0  0  0
   -3.4676   -2.4125   -0.9961 C   0  0  0  0  0  0  0  0  0  0  0  0
   -2.2357    2.0395    0.5993 C   0  0  0  0  0  0  0  0  0  0  0  0
   -4.3599    0.5168   -0.4814 C   0  0  0  0  0  0  0  0  0  0  0  0
    4.2713    0.2321   -0.1019 C   0  0  0  0  0  0  0  0  0  0  0  0
    2.5932    1.3090   -1.0405 C   0  0  0  0  0  0  0  0  0  0  0  0
   -3.4876    2.6193    0.3633 C   0  0  0  0  0  0  0  0  0  0  0  0
   -4.5321    1.8676   -0.1689 C   0  0  0  0  0  0  0  0  0  0  0  0
    3.6759    2.1346   -0.8478 C   0  0  0  0  0  0  0  0  0  0  0  0
    5.0214   -0.8932    0.4927 C   0  0  0  0  0  0  0  0  0  0  0  0
    2.0529   -1.1833    1.6140 H   0  0  0  0  0  0  0  0  0  0  0  0
    0.2331   -2.6834    1.8598 H   0  0  0  0  0  0  0  0  0  0  0  0
    1.3178   -3.4153    0.6834 H   0  0  0  0  0  0  0  0  0  0  0  0
   -1.1450   -3.5740    0.1155 H   0  0  0  0  0  0  0  0  0  0  0  0
   -0.1777   -2.8279   -1.1665 H   0  0  0  0  0  0  0  0  0  0  0  0
    1.5381   -1.0612   -1.4220 H   0  0  0  0  0  0  0  0  0  0  0  0
    2.8545   -1.9643   -0.6773 H   0  0  0  0  0  0  0  0  0  0  0  0
   -3.9914   -2.8959   -0.1679 H   0  0  0  0  0  0  0  0  0  0  0  0
   -4.1801   -2.0056   -1.7174 H   0  0  0  0  0  0  0  0  0  0  0  0
   -2.8264   -3.1292   -1.5147 H   0  0  0  0  0  0  0  0  0  0  0  0
   -1.4334    2.6428    1.0142 H   0  0  0  0  0  0  0  0  0  0  0  0
   -5.1826   -0.0592   -0.8915 H   0  0  0  0  0  0  0  0  0  0  0  0
    1.6165    1.4793   -1.4721 H   0  0  0  0  0  0  0  0  0  0  0  0
   -3.6446    3.6686    0.5987 H   0  0  0  0  0  0  0  0  0  0  0  0
   -5.4967    2.3375   -0.3434 H   0  0  0  0  0  0  0  0  0  0  0  0
    3.7591    3.1811   -1.1024 H   0  0  0  0  0  0  0  0  0  0  0  0
    5.9959   -0.5507    0.8560 H   0  0  0  0  0  0  0  0  0  0  0  0
    4.4860   -1.3251    1.3432 H   0  0  0  0  0  0  0  0  0  0  0  0
    5.2020   -1.6782   -0.2481 H   0  0  0  0  0  0  0  0  0  0  0  0
  1 10  2  0  0  0  0
  2  8  1  0  0  0  0
  2 13  1  0  0  0  0
  2 14  1  0  0  0  0
  3 11  1  0  0  0  0
  3 17  1  0  0  0  0
  3 18  1  0  0  0  0
  4 17  2  0  0  0  0
  4 21  1  0  0  0  0
  5  6  1  0  0  0  0
  5 10  1  0  0  0  0
  5 11  1  0  0  0  0
  5 23  1  0  0  0  0
  6  7  1  0  0  0  0
  6 24  1  0  0  0  0
  6 25  1  0  0  0  0
  7  8  1  0  0  0  0
  7 26  1  0  0  0  0
  7 27  1  0  0  0  0
  8  9  2  0  0  0  0
  9 10  1  0  0  0  0
  9 12  1  0  0  0  0
 11 28  1  0  0  0  0
 11 29  1  0  0  0  0
 12 13  1  0  0  0  0
 12 15  2  0  0  0  0
 13 16  2  0  0  0  0
 14 30  1  0  0  0  0
 14 31  1  0  0  0  0
 14 32  1  0  0  0  0
 15 19  1  0  0  0  0
 15 33  1  0  0  0  0
 16 20  1  0  0  0  0
 16 34  1  0  0  0  0
 17 22  1  0  0  0  0
 18 21  2  0  0  0  0
 18 35  1  0  0  0  0
 19 20  2  0  0  0  0
 19 36  1  0  0  0  0
 20 37  1  0  0  0  0
 21 38  1  0  0  0  0
 22 39  1  0  0  0  0
 22 40  1  0  0  0  0
 22 41  1  0  0  0  0
M  END
> <PUBCHEM_COMPOUND_CID>
4595

> <PUBCHEM_CONFORMER_RMSD>
0.6

> <PUBCHEM_CONFORMER_DIVERSEORDER>
2
18
1
12
8
6
5
13
10
4
15
9
11
7
14
17
16
3

> <PUBCHEM_MMFF94_PARTIAL_CHARGES>
26
1 -0.57
10 0.6
11 0.26
13 -0.15
14 0.26
15 -0.15
16 -0.15
17 0.01
18 -0.3
19 -0.15
2 0.05
20 -0.15
21 0.08
22 0.18
3 0.05
33 0.15
34 0.15
35 0.15
36 0.15
37 0.15
38 0.15
4 -0.57
5 0.06
7 0.18
8 -0.33
9 -0.09

> <PUBCHEM_EFFECTIVE_ROTOR_COUNT>
2.6

> <PUBCHEM_PHARMACOPHORE_FEATURES>
7
1 1 acceptor
1 2 cation
3 3 4 17 cation
5 2 8 9 12 13 rings
5 3 4 17 18 21 rings
6 12 13 15 16 19 20 rings
6 5 6 7 8 9 10 rings

> <PUBCHEM_HEAVY_ATOM_COUNT>
22

> <PUBCHEM_ATOM_DEF_STEREO_COUNT>
0

> <PUBCHEM_ATOM_UDEF_STEREO_COUNT>
1

> <PUBCHEM_BOND_DEF_STEREO_COUNT>
0

> <PUBCHEM_BOND_UDEF_STEREO_COUNT>
0

> <PUBCHEM_ISOTOPIC_ATOM_COUNT>
0

> <PUBCHEM_COMPONENT_COUNT>
1

> <PUBCHEM_CACTVS_TAUTO_COUNT>
2

> <PUBCHEM_CONFORMER_ID>
000011F300000002

> <PUBCHEM_MMFF94_ENERGY>
38.0407

> <PUBCHEM_FEATURE_SELFOVERLAP>
35.695

> <PUBCHEM_SHAPE_FINGERPRINT>
10062212 137 18411987965990332418
10369192 42 12605399869954745966
10411042 1 17545882624890505570
10498660 4 18410578374998664757
10948715 1 18412259562294348743
11370993 70 18410009944529680964
11578080 2 6555123870556341227
11640471 11 18201431471890691318
12173636 292 18409170995677433813
12403260 363 18340775836522967798
12788726 201 17340381758749617394
13583140 156 17489580199143163345
13911987 19 16081649951340282992
14251751 93 18334576836862054191
14739800 52 18120952607550403920
14767858 380 18335720334104438317
14790565 3 18116703200961615537
15196674 1 18411981338934727428
15420108 30 16965471847731755648
16752209 62 18335149643655033115
17492 89 18411133602849528694
18186145 218 18263345010606221598
20715895 44 18266462203090773269
20871999 31 18261395494896326247
21033650 10 18190434152711686804
21524375 3 18272367602707298930
22393880 68 18261664875583066636
23227448 37 18410008845091873869
23366157 5 18055070132100214699
23402539 116 18409173190585070022
23557571 272 18114738244131413038
23559900 14 18041559260704481262
25147074 1 18266759020276156243
335352 9 18341048623018365246
345986 75 17200258094857350608
350125 39 18336825304282186561
394222 165 18200314449613100634
404807 14 16164102697596148838
4340502 62 17274530027824710225
474 4 18060696199823052696
5104073 3 18343584019163792728
6328613 192 18200864107819081668
633830 44 17632855313570753432
9709674 26 18335691703341220478
9981440 41 18269275664900305234

> <PUBCHEM_SHAPE_MULTIPOLES>
431.94
9.46
3.02
0.99
4.26
0.52
-0.02
-4.55
1.62
-1.5
0.14
0.17
0
-1.4

> <PUBCHEM_SHAPE_SELFOVERLAP>
959.177

> <PUBCHEM_SHAPE_VOLUME>
232.5

> <PUBCHEM_COORDINATE_TYPE>
2
5
10

$$$$

