163695
  -OEChem-07051212582D

 40 41  0     1  0  0  0  0  0999 V2000
    5.1165    2.0055    0.0000 O   0  0  0  0  0  0  0  0  0  0  0  0
    2.3096    1.4269    0.0000 O   0  0  0  0  0  0  0  0  0  0  0  0
    2.0000   -0.9745    0.0000 O   0  0  0  0  0  0  0  0  0  0  0  0
    5.6888   -0.5901    0.0000 C   0  0  2  0  0  0  0  0  0  0  0  0
    5.6838    0.4099    0.0000 C   0  0  1  0  0  0  0  0  0  0  0  0
    7.2161   -0.0824    0.0000 C   0  0  0  0  0  0  0  0  0  0  0  0
    6.6365   -0.8901    0.0000 C   0  0  0  0  0  0  0  0  0  0  0  0
    6.6285    0.7194    0.0000 C   0  0  0  0  0  0  0  0  0  0  0  0
    4.9101   -1.2174    0.0000 C   0  0  2  0  0  0  0  0  0  0  0  0
    4.8989    1.0295    0.0000 C   0  0  1  0  0  0  0  0  0  0  0  0
    3.9250    0.8021    0.0000 C   0  0  2  0  0  0  0  0  0  0  0  0
    8.0280   -0.6662    0.0000 C   0  0  0  0  0  0  0  0  0  0  0  0
    8.0222    0.5094    0.0000 C   0  0  0  0  0  0  0  0  0  0  0  0
    3.9340   -0.9998    0.0000 C   0  0  0  0  0  0  0  0  0  0  0  0
    3.4957   -0.1010    0.0000 C   0  0  0  0  0  0  0  0  0  0  0  0
    5.1374   -2.1912    0.0000 C   0  0  0  0  0  0  0  0  0  0  0  0
    3.2977    1.5808    0.0000 C   0  0  0  0  0  0  0  0  0  0  0  0
    2.4957   -0.1060    0.0000 C   0  0  0  0  0  0  0  0  0  0  0  0
    5.8458   -1.4254    0.0000 H   0  0  0  0  0  0  0  0  0  0  0  0
    5.8325    1.2468    0.0000 H   0  0  0  0  0  0  0  0  0  0  0  0
    6.3883   -1.4582    0.0000 H   0  0  0  0  0  0  0  0  0  0  0  0
    7.1754   -1.1966    0.0000 H   0  0  0  0  0  0  0  0  0  0  0  0
    7.1643    1.0313    0.0000 H   0  0  0  0  0  0  0  0  0  0  0  0
    6.3746    1.2850    0.0000 H   0  0  0  0  0  0  0  0  0  0  0  0
    4.4738   -1.6580    0.0000 H   0  0  0  0  0  0  0  0  0  0  0  0
    5.4830    1.2372    0.0000 H   0  0  0  0  0  0  0  0  0  0  0  0
    4.1269    1.3884    0.0000 H   0  0  0  0  0  0  0  0  0  0  0  0
    7.6661   -1.1696    0.0000 H   0  0  0  0  0  0  0  0  0  0  0  0
    8.5314   -1.0281    0.0000 H   0  0  0  0  0  0  0  0  0  0  0  0
    8.3900   -0.1628    0.0000 H   0  0  0  0  0  0  0  0  0  0  0  0
    8.3891    0.0096    0.0000 H   0  0  0  0  0  0  0  0  0  0  0  0
    8.5219    0.8763    0.0000 H   0  0  0  0  0  0  0  0  0  0  0  0
    7.6552    1.0092    0.0000 H   0  0  0  0  0  0  0  0  0  0  0  0
    3.5499   -1.4864    0.0000 H   0  0  0  0  0  0  0  0  0  0  0  0
    4.5337   -2.3322    0.0000 H   0  0  0  0  0  0  0  0  0  0  0  0
    5.2784   -2.7950    0.0000 H   0  0  0  0  0  0  0  0  0  0  0  0
    5.7412   -2.0503    0.0000 H   0  0  0  0  0  0  0  0  0  0  0  0
    5.7080    2.1912    0.0000 H   0  0  0  0  0  0  0  0  0  0  0  0
    3.5213    2.1591    0.0000 H   0  0  0  0  0  0  0  0  0  0  0  0
    2.1830    0.4294    0.0000 H   0  0  0  0  0  0  0  0  0  0  0  0
 10  1  1  1  0  0  0
  1 38  1  0  0  0  0
  2 17  2  0  0  0  0
  3 18  2  0  0  0  0
  4  5  1  0  0  0  0
  4  7  1  0  0  0  0
  4  9  1  0  0  0  0
  4 19  1  1  0  0  0
  5  8  1  0  0  0  0
  5 10  1  0  0  0  0
  5 20  1  1  0  0  0
  6  7  1  0  0  0  0
  6  8  1  0  0  0  0
  6 12  1  0  0  0  0
  6 13  1  0  0  0  0
  7 21  1  0  0  0  0
  7 22  1  0  0  0  0
  8 23  1  0  0  0  0
  8 24  1  0  0  0  0
  9 14  1  0  0  0  0
  9 16  1  1  0  0  0
  9 25  1  0  0  0  0
 10 11  1  0  0  0  0
 10 26  1  0  0  0  0
 11 15  1  0  0  0  0
 11 17  1  6  0  0  0
 11 27  1  0  0  0  0
 12 28  1  0  0  0  0
 12 29  1  0  0  0  0
 12 30  1  0  0  0  0
 13 31  1  0  0  0  0
 13 32  1  0  0  0  0
 13 33  1  0  0  0  0
 14 15  2  0  0  0  0
 14 34  1  0  0  0  0
 15 18  1  0  0  0  0
 16 35  1  0  0  0  0
 16 36  1  0  0  0  0
 16 37  1  0  0  0  0
 17 39  1  0  0  0  0
 18 40  1  0  0  0  0
M  END
> <PUBCHEM_COMPOUND_CID>
163695

> <PUBCHEM_COMPOUND_CANONICALIZED>
1

> <PUBCHEM_CACTVS_COMPLEXITY>
383

> <PUBCHEM_CACTVS_HBOND_ACCEPTOR>
3

> <PUBCHEM_CACTVS_HBOND_DONOR>
1

> <PUBCHEM_CACTVS_ROTATABLE_BOND>
2

> <PUBCHEM_CACTVS_SUBSKEYS>
AAADceBwMAAAAAAAAAAAAAAAAAAAAYAAAAAAAAAABAAAAACAAAAAGgAACAAADxSggAICAAAAAgCIAihSgAAAAAAgAAAACAEAAEgAEBYAAQAAQAAE4AAIAYOLyPCPgAAAAAAAAAAAAAAAAAAAAQAACAAAAA==

> <PUBCHEM_IUPAC_OPENEYE_NAME>
(3aR,4S,5S,8R,8aR)-4-hydroxy-2,2,8-trimethyl-3,3a,4,5,8,8a-hexahydro-1H-azulene-5,6-dicarbaldehyde

> <PUBCHEM_IUPAC_CAS_NAME>
(3aR,4S,5S,8R,8aR)-4-hydroxy-2,2,8-trimethyl-3,3a,4,5,8,8a-hexahydro-1H-azulene-5,6-dicarboxaldehyde

> <PUBCHEM_IUPAC_NAME>
(3aR,4S,5S,8R,8aR)-4-hydroxy-2,2,8-trimethyl-3,3a,4,5,8,8a-hexahydro-1H-azulene-5,6-dicarbaldehyde

> <PUBCHEM_IUPAC_SYSTEMATIC_NAME>
(3aR,4S,5S,8R,8aR)-2,2,8-trimethyl-4-oxidanyl-3,3a,4,5,8,8a-hexahydro-1H-azulene-5,6-dicarbaldehyde

> <PUBCHEM_IUPAC_TRADITIONAL_NAME>
(3aR,4S,5S,8R,8aR)-4-hydroxy-2,2,8-trimethyl-3,3a,4,5,8,8a-hexahydro-1H-azulene-5,6-dicarbaldehyde

> <PUBCHEM_IUPAC_INCHI>
InChI=1S/C15H22O3/c1-9-4-10(7-16)13(8-17)14(18)12-6-15(2,3)5-11(9)12/h4,7-9,11-14,18H,5-6H2,1-3H3/t9-,11+,12+,13-,14-/m0/s1

> <PUBCHEM_IUPAC_INCHIKEY>
XXMVNOYKYOCDTD-OMRNGCIESA-N

> <PUBCHEM_XLOGP3_AA>
2.4

> <PUBCHEM_EXACT_MASS>
250.156895

> <PUBCHEM_MOLECULAR_FORMULA>
C15H22O3

> <PUBCHEM_MOLECULAR_WEIGHT>
250.33338

> <PUBCHEM_OPENEYE_CAN_SMILES>
CC1C=C(C(C(C2C1CC(C2)(C)C)O)C=O)C=O

> <PUBCHEM_OPENEYE_ISO_SMILES>
C[C@H]1C=C([C@@H]([C@H]([C@H]2[C@@H]1CC(C2)(C)C)O)C=O)C=O

> <PUBCHEM_CACTVS_TPSA>
54.4

> <PUBCHEM_MONOISOTOPIC_WEIGHT>
250.156895

> <PUBCHEM_TOTAL_CHARGE>
0

> <PUBCHEM_HEAVY_ATOM_COUNT>
18

> <PUBCHEM_ATOM_DEF_STEREO_COUNT>
5

> <PUBCHEM_ATOM_UDEF_STEREO_COUNT>
0

> <PUBCHEM_BOND_DEF_STEREO_COUNT>
0

> <PUBCHEM_BOND_UDEF_STEREO_COUNT>
0

> <PUBCHEM_ISOTOPIC_ATOM_COUNT>
0

> <PUBCHEM_COMPONENT_COUNT>
1

> <PUBCHEM_CACTVS_TAUTO_COUNT>
3

> <PUBCHEM_COORDINATE_TYPE>
1
5
255

> <PUBCHEM_BONDANNOTATIONS>
10  1  5
11  17  6
4  19  5
5  20  5
9  16  5

$$$$

