449304
  -OEChem-07051212483D

 22 21  0     1  0  0  0  0  0999 V2000
    2.8675    0.2823   -0.0083 P   0  0  0  0  0  0  0  0  0  0  0  0
    1.5321   -0.4467   -0.5607 O   0  0  0  0  0  0  0  0  0  0  0  0
   -0.5465   -2.3293   -0.4875 O   0  0  0  0  0  0  0  0  0  0  0  0
   -2.1667   -0.9471    1.4207 O   0  0  0  0  0  0  0  0  0  0  0  0
   -2.8510    1.1538   -1.4006 O   0  0  0  0  0  0  0  0  0  0  0  0
    2.8649   -0.0583    1.5726 O   0  0  0  0  0  0  0  0  0  0  0  0
    2.4675    1.8485   -0.0520 O   0  0  0  0  0  0  0  0  0  0  0  0
   -2.8393    1.5495    0.8330 O   0  0  0  0  0  0  0  0  0  0  0  0
    4.1305   -0.0699   -0.7385 O   0  0  0  0  0  0  0  0  0  0  0  0
   -0.8484   -0.9370   -0.5723 C   0  0  1  0  0  0  0  0  0  0  0  0
   -2.2349   -0.6628    0.0246 C   0  0  2  0  0  0  0  0  0  0  0  0
    0.2967   -0.1664    0.0763 C   0  0  0  0  0  0  0  0  0  0  0  0
   -2.6725    0.7833   -0.1073 C   0  0  0  0  0  0  0  0  0  0  0  0
   -0.8671   -0.6980   -1.6427 H   0  0  0  0  0  0  0  0  0  0  0  0
   -2.9940   -1.3222   -0.4089 H   0  0  0  0  0  0  0  0  0  0  0  0
    0.3878   -0.4544    1.1288 H   0  0  0  0  0  0  0  0  0  0  0  0
    0.1046    0.9095    0.0243 H   0  0  0  0  0  0  0  0  0  0  0  0
    0.3257   -2.4661   -0.8955 H   0  0  0  0  0  0  0  0  0  0  0  0
   -3.0711   -0.8926    1.7744 H   0  0  0  0  0  0  0  0  0  0  0  0
   -3.1268    2.0920   -1.4777 H   0  0  0  0  0  0  0  0  0  0  0  0
    3.6272    0.2260    2.1205 H   0  0  0  0  0  0  0  0  0  0  0  0
    3.1530    2.5193    0.1532 H   0  0  0  0  0  0  0  0  0  0  0  0
  1  2  1  0  0  0  0
  1  6  1  0  0  0  0
  1  7  1  0  0  0  0
  1  9  2  0  0  0  0
  2 12  1  0  0  0  0
  3 10  1  0  0  0  0
  3 18  1  0  0  0  0
  4 11  1  0  0  0  0
  4 19  1  0  0  0  0
  5 13  1  0  0  0  0
  5 20  1  0  0  0  0
  6 21  1  0  0  0  0
  7 22  1  0  0  0  0
  8 13  2  0  0  0  0
 10 11  1  0  0  0  0
 10 12  1  0  0  0  0
 10 14  1  0  0  0  0
 11 13  1  0  0  0  0
 11 15  1  0  0  0  0
 12 16  1  0  0  0  0
 12 17  1  0  0  0  0
M  END
> <PUBCHEM_COMPOUND_CID>
449304

> <PUBCHEM_CONFORMER_RMSD>
0.6

> <PUBCHEM_CONFORMER_DIVERSEORDER>
1
49
8
45
20
23
46
38
9
5
47
31
35
44
17
15
4
22
21
2
7
36
41
34
14
29
48
13
37
24
10
12
25
16
33
6
40
42
19
43
11
28
32
18
30
27
26
39
3

> <PUBCHEM_MMFF94_PARTIAL_CHARGES>
18
1 1.51
10 0.28
11 0.34
12 0.28
13 0.66
18 0.4
19 0.4
2 -0.55
20 0.5
21 0.5
22 0.5
3 -0.68
4 -0.68
5 -0.65
6 -0.77
7 -0.77
8 -0.57
9 -0.7

> <PUBCHEM_EFFECTIVE_ROTOR_COUNT>
5

> <PUBCHEM_PHARMACOPHORE_FEATURES>
11
1 3 acceptor
1 3 donor
1 4 acceptor
1 4 donor
1 5 acceptor
1 6 acceptor
1 7 acceptor
1 8 acceptor
1 9 acceptor
3 5 8 13 anion
4 1 6 7 9 anion

> <PUBCHEM_HEAVY_ATOM_COUNT>
13

> <PUBCHEM_ATOM_DEF_STEREO_COUNT>
2

> <PUBCHEM_ATOM_UDEF_STEREO_COUNT>
0

> <PUBCHEM_BOND_DEF_STEREO_COUNT>
0

> <PUBCHEM_BOND_UDEF_STEREO_COUNT>
0

> <PUBCHEM_ISOTOPIC_ATOM_COUNT>
0

> <PUBCHEM_COMPONENT_COUNT>
1

> <PUBCHEM_CACTVS_TAUTO_COUNT>
1

> <PUBCHEM_CONFORMER_ID>
0006DB1800000001

> <PUBCHEM_MMFF94_ENERGY>
-16.1329

> <PUBCHEM_FEATURE_SELFOVERLAP>
55.928

> <PUBCHEM_SHAPE_FINGERPRINT>
11127187 94 9151175320747873209
124424 183 18342746242805974524
12932764 1 17989212516695376708
13618510 140 18408885156924461228
14144814 61 18272939306009641754
15775835 57 18131632309027602452
17834069 15 17632582694378770140
18186145 218 18114181972941723228
20281407 28 11240000065902061100
20645464 45 18261381252521191167
20653085 51 18187641418651338691
305870 269 18338797943484443999
3248919 1 18259991448438315020
74978 22 18336270046346127862
81228 2 17464268127233645310

> <PUBCHEM_SHAPE_MULTIPOLES>
224.43
6.24
1.64
1.13
3.8
0.15
-0.25
-2.09
0.04
-0.73
0.14
-0.17
-0.02
0.2

> <PUBCHEM_SHAPE_SELFOVERLAP>
418.766

> <PUBCHEM_SHAPE_VOLUME>
140.2

> <PUBCHEM_COORDINATE_TYPE>
2
5
10

$$$$

