442694
  -OEChem-07051212593D

 37 39  0     0  0  0  0  0  0999 V2000
   -1.1648   -2.2633    0.2683 O   0  0  0  0  0  0  0  0  0  0  0  0
   -4.9987    0.4176   -0.0639 O   0  0  0  0  0  0  0  0  0  0  0  0
    4.8387    0.1921    0.2511 O   0  0  0  0  0  0  0  0  0  0  0  0
    3.4751   -2.2194    0.4090 O   0  0  0  0  0  0  0  0  0  0  0  0
   -0.8039    0.1646    0.0841 C   0  0  0  0  0  0  0  0  0  0  0  0
    0.6348    0.1297    0.1304 C   0  0  0  0  0  0  0  0  0  0  0  0
   -1.4624    1.4161   -0.0374 C   0  0  0  0  0  0  0  0  0  0  0  0
    1.3599    1.3475    0.0530 C   0  0  0  0  0  0  0  0  0  0  0  0
   -1.6301   -0.9852    0.1524 C   0  0  0  0  0  0  0  0  0  0  0  0
   -0.7141    2.5936   -0.1106 C   0  0  0  0  0  0  0  0  0  0  0  0
    0.6758    2.5599   -0.0663 C   0  0  0  0  0  0  0  0  0  0  0  0
    1.3982   -1.0586    0.2507 C   0  0  0  0  0  0  0  0  0  0  0  0
   -2.8655    1.4841   -0.0850 C   0  0  0  0  0  0  0  0  0  0  0  0
    2.7646    1.3474    0.0953 C   0  0  0  0  0  0  0  0  0  0  0  0
   -3.0244   -0.9034    0.1038 C   0  0  0  0  0  0  0  0  0  0  0  0
   -3.6422    0.3319   -0.0147 C   0  0  0  0  0  0  0  0  0  0  0  0
    2.7951   -1.0445    0.2918 C   0  0  0  0  0  0  0  0  0  0  0  0
    3.4784    0.1590    0.2140 C   0  0  0  0  0  0  0  0  0  0  0  0
   -0.9083   -2.9689   -0.9427 C   0  0  0  0  0  0  0  0  0  0  0  0
   -5.7307   -0.8051    0.0135 C   0  0  0  0  0  0  0  0  0  0  0  0
    5.5246    0.1050   -0.9968 C   0  0  0  0  0  0  0  0  0  0  0  0
   -1.2064    3.5599   -0.2040 H   0  0  0  0  0  0  0  0  0  0  0  0
    1.2192    3.5011   -0.1266 H   0  0  0  0  0  0  0  0  0  0  0  0
    0.9689   -2.0386    0.3806 H   0  0  0  0  0  0  0  0  0  0  0  0
   -3.3641    2.4479   -0.1784 H   0  0  0  0  0  0  0  0  0  0  0  0
    3.3133    2.2865    0.0359 H   0  0  0  0  0  0  0  0  0  0  0  0
   -3.5742   -1.8374    0.1654 H   0  0  0  0  0  0  0  0  0  0  0  0
    4.4262   -2.0230    0.4624 H   0  0  0  0  0  0  0  0  0  0  0  0
   -0.3899   -2.3459   -1.6791 H   0  0  0  0  0  0  0  0  0  0  0  0
   -1.8524   -3.3236   -1.3685 H   0  0  0  0  0  0  0  0  0  0  0  0
   -0.2867   -3.8391   -0.7134 H   0  0  0  0  0  0  0  0  0  0  0  0
   -5.5156   -1.4577   -0.8395 H   0  0  0  0  0  0  0  0  0  0  0  0
   -6.7939   -0.5489   -0.0405 H   0  0  0  0  0  0  0  0  0  0  0  0
   -5.5719   -1.3092    0.9729 H   0  0  0  0  0  0  0  0  0  0  0  0
    6.5997    0.1063   -0.7974 H   0  0  0  0  0  0  0  0  0  0  0  0
    5.2839    0.9684   -1.6251 H   0  0  0  0  0  0  0  0  0  0  0  0
    5.2665   -0.8221   -1.5186 H   0  0  0  0  0  0  0  0  0  0  0  0
  1  9  1  0  0  0  0
  1 19  1  0  0  0  0
  2 16  1  0  0  0  0
  2 20  1  0  0  0  0
  3 18  1  0  0  0  0
  3 21  1  0  0  0  0
  4 17  1  0  0  0  0
  4 28  1  0  0  0  0
  5  6  1  0  0  0  0
  5  7  1  0  0  0  0
  5  9  2  0  0  0  0
  6  8  1  0  0  0  0
  6 12  2  0  0  0  0
  7 10  1  0  0  0  0
  7 13  2  0  0  0  0
  8 11  1  0  0  0  0
  8 14  2  0  0  0  0
  9 15  1  0  0  0  0
 10 11  2  0  0  0  0
 10 22  1  0  0  0  0
 11 23  1  0  0  0  0
 12 17  1  0  0  0  0
 12 24  1  0  0  0  0
 13 16  1  0  0  0  0
 13 25  1  0  0  0  0
 14 18  1  0  0  0  0
 14 26  1  0  0  0  0
 15 16  2  0  0  0  0
 15 27  1  0  0  0  0
 17 18  2  0  0  0  0
 19 29  1  0  0  0  0
 19 30  1  0  0  0  0
 19 31  1  0  0  0  0
 20 32  1  0  0  0  0
 20 33  1  0  0  0  0
 20 34  1  0  0  0  0
 21 35  1  0  0  0  0
 21 36  1  0  0  0  0
 21 37  1  0  0  0  0
M  END
> <PUBCHEM_COMPOUND_CID>
442694

> <PUBCHEM_CONFORMER_RMSD>
0.6

> <PUBCHEM_CONFORMER_DIVERSEORDER>
1
2
3
4

> <PUBCHEM_MMFF94_PARTIAL_CHARGES>
24
1 -0.36
10 -0.15
11 -0.15
12 -0.15
13 -0.15
14 -0.15
15 -0.15
16 0.08
17 0.08
18 0.08
19 0.28
2 -0.36
20 0.28
21 0.28
22 0.15
23 0.15
24 0.15
25 0.15
26 0.15
27 0.15
28 0.45
3 -0.36
4 -0.53
9 0.08

> <PUBCHEM_EFFECTIVE_ROTOR_COUNT>
3

> <PUBCHEM_PHARMACOPHORE_FEATURES>
7
1 1 acceptor
1 2 acceptor
1 3 acceptor
1 4 donor
6 5 6 7 8 10 11 rings
6 5 7 9 13 15 16 rings
6 6 8 12 14 17 18 rings

> <PUBCHEM_HEAVY_ATOM_COUNT>
21

> <PUBCHEM_ATOM_DEF_STEREO_COUNT>
0

> <PUBCHEM_ATOM_UDEF_STEREO_COUNT>
0

> <PUBCHEM_BOND_DEF_STEREO_COUNT>
0

> <PUBCHEM_BOND_UDEF_STEREO_COUNT>
0

> <PUBCHEM_ISOTOPIC_ATOM_COUNT>
0

> <PUBCHEM_COMPONENT_COUNT>
1

> <PUBCHEM_CACTVS_TAUTO_COUNT>
3

> <PUBCHEM_CONFORMER_ID>
0006C14600000001

> <PUBCHEM_MMFF94_ENERGY>
103.5984

> <PUBCHEM_FEATURE_SELFOVERLAP>
35.569

> <PUBCHEM_SHAPE_FINGERPRINT>
10616163 171 18410290277229999302
10906281 52 18267847528060225513
10967382 1 18411140233639755864
1100329 8 18338799983509123952
11578080 2 16953670346469163659
11680986 33 18196652891720500745
12011746 2 18409446990059655341
12236239 1 17775566450798776124
12403814 3 17489872656441128260
12507560 14 18334016099012001201
12553582 1 18338248097676339108
12715332 25 18187928318625483431
12788726 201 18187361094668218408
12838862 33 18339100219066896932
13140716 1 18122633760048090040
13862211 1 18411143528133022387
14115302 16 18201712912539572052
14178342 30 17903939758926913848
14617045 38 18412256238153146402
14790565 3 18410283748516082745
15042514 8 18266456504270493139
15099037 51 18411418393191877391
15196674 1 18339926033834897305
15536298 74 18335141942783946088
16945 1 18338524010464971897
17804303 29 18335981986921230552
1813 80 17418094338683716052
19141452 34 18114463361961267199
19591789 44 18338801233540084619
200 152 18187367631871998185
20028762 73 18041283150200361999
20510252 161 18188773984221318296
20905425 154 17831862725983581231
21029758 11 18408609162526811681
21029758 27 18273208677768980077
21267235 1 18411410709236895937
21279426 13 18197503037678881469
221490 88 18127405662229833539
23175994 123 17167858660365971200
23184049 59 18408884036259620395
2334 1 18338802319997966472
23402539 116 18261118465221297149
23463225 33 18412263960319708793
23557571 272 18260540165255505732
23559900 14 18264212422117504112
238 59 14439851173914576302
2748010 2 18339650065006468005
2871803 45 18341894112889266200
335352 9 18410573959534829957
34934 24 18411706448206302034
350125 39 18411417336920702929
5104073 3 18338801237645109816
69090 78 18409172091031406419
7364860 26 18265054634944345208
7832392 63 18265339412840148378
9709674 26 18410289229025967854
9981440 41 17260189891458098473

> <PUBCHEM_SHAPE_MULTIPOLES>
408.69
9.52
2.71
0.72
0.1
0.37
-0.08
1.52
-0.76
0.23
-0.29
-0.27
0.14
-0.2

> <PUBCHEM_SHAPE_SELFOVERLAP>
904.226

> <PUBCHEM_SHAPE_VOLUME>
222.2

> <PUBCHEM_COORDINATE_TYPE>
2
5
10

$$$$

