16667369
  -OEChem-07051213033D

 61 63  0     1  0  0  0  0  0999 V2000
   -3.6672   -1.4760    0.1707 P   0  0  1  0  0  0  0  0  0  0  0  0
   -1.6748   -3.0848    1.6196 P   0  0  2  0  0  0  0  0  0  0  0  0
    1.4360   -1.0766   -0.8085 O   0  0  0  0  0  0  0  0  0  0  0  0
   -3.5284    1.6666   -0.9961 O   0  0  0  0  0  0  0  0  0  0  0  0
    3.1409   -3.1588   -2.1304 O   0  0  0  0  0  0  0  0  0  0  0  0
    4.9452   -1.7881   -0.6126 O   0  0  0  0  0  0  0  0  0  0  0  0
   -2.5793   -0.4099   -0.3634 O   0  0  0  0  0  0  0  0  0  0  0  0
   -0.5145    3.5158    0.0367 O   0  0  0  0  0  0  0  0  0  0  0  0
   -1.0655   -0.4365   -2.6866 O   0  0  0  0  0  0  0  0  0  0  0  0
   -0.5737   -2.3225    0.7121 O   0  0  0  0  0  0  0  0  0  0  0  0
   -4.6764    3.2057    0.9411 O   0  0  0  0  0  0  0  0  0  0  0  0
   -2.9812   -2.1440    1.4733 O   0  0  0  0  0  0  0  0  0  0  0  0
   -4.8512   -0.5699    0.7990 O   0  0  0  0  0  0  0  0  0  0  0  0
    4.6358    1.4974   -0.9655 O   0  0  0  0  0  0  0  0  0  0  0  0
   -1.1913   -2.8019    3.1372 O   0  0  0  0  0  0  0  0  0  0  0  0
   -4.1260   -2.4667   -0.8597 O   0  0  0  0  0  0  0  0  0  0  0  0
   -1.9054   -4.5299    1.2869 O   0  0  0  0  0  0  0  0  0  0  0  0
    2.9200    3.6691    2.7202 O   0  0  0  0  0  0  0  0  0  0  0  0
    2.8535    0.5029    0.1716 N   0  0  0  0  0  0  0  0  0  0  0  0
    0.4496    2.0689   -2.2851 N   0  0  0  0  0  0  0  0  0  0  0  0
    3.7805    2.5770    0.8706 N   0  0  0  0  0  0  0  0  0  0  0  0
    2.8344   -2.9877   -0.7468 C   0  0  1  0  0  0  0  0  0  0  0  0
    3.6001   -1.8103   -0.1811 C   0  0  2  0  0  0  0  0  0  0  0  0
    1.3923   -2.5108   -0.6413 C   0  0  1  0  0  0  0  0  0  0  0  0
    2.7984   -0.6316   -0.7057 C   0  0  1  0  0  0  0  0  0  0  0  0
   -0.6772    1.6309   -1.4527 C   0  0  1  0  0  0  0  0  0  0  0  0
   -1.3949    2.8612   -0.8735 C   0  0  1  0  0  0  0  0  0  0  0  0
   -1.6640    0.7851   -2.2683 C   0  0  2  0  0  0  0  0  0  0  0  0
   -2.6861    2.4532   -0.1462 C   0  0  1  0  0  0  0  0  0  0  0  0
   -2.9117    0.4594   -1.4446 C   0  0  2  0  0  0  0  0  0  0  0  0
    0.7560   -2.8118    0.7092 C   0  0  0  0  0  0  0  0  0  0  0  0
   -3.5047    3.6648    0.2924 C   0  0  0  0  0  0  0  0  0  0  0  0
    3.8155    1.5173   -0.0455 C   0  0  0  0  0  0  0  0  0  0  0  0
    1.9617    0.6031    1.2332 C   0  0  0  0  0  0  0  0  0  0  0  0
    1.9407    1.6193    2.0980 C   0  0  0  0  0  0  0  0  0  0  0  0
    2.9126    2.7201    1.9420 C   0  0  0  0  0  0  0  0  0  0  0  0
    3.0451   -3.9310   -0.2353 H   0  0  0  0  0  0  0  0  0  0  0  0
    3.5883   -1.8536    0.9147 H   0  0  0  0  0  0  0  0  0  0  0  0
    0.7595   -2.9015   -1.4460 H   0  0  0  0  0  0  0  0  0  0  0  0
    3.1342   -0.3368   -1.7073 H   0  0  0  0  0  0  0  0  0  0  0  0
   -0.2587    1.0273   -0.6402 H   0  0  0  0  0  0  0  0  0  0  0  0
   -1.6348    3.5636   -1.6822 H   0  0  0  0  0  0  0  0  0  0  0  0
   -1.9612    1.3463   -3.1641 H   0  0  0  0  0  0  0  0  0  0  0  0
   -2.4549    1.8666    0.7530 H   0  0  0  0  0  0  0  0  0  0  0  0
   -3.6326   -0.0583   -2.0871 H   0  0  0  0  0  0  0  0  0  0  0  0
    1.2920   -2.3494    1.5415 H   0  0  0  0  0  0  0  0  0  0  0  0
    0.7490   -3.8947    0.8757 H   0  0  0  0  0  0  0  0  0  0  0  0
   -3.8139    4.2599   -0.5733 H   0  0  0  0  0  0  0  0  0  0  0  0
   -2.9415    4.2981    0.9845 H   0  0  0  0  0  0  0  0  0  0  0  0
    0.9478    1.2525   -2.6376 H   0  0  0  0  0  0  0  0  0  0  0  0
    1.1139    2.5872   -1.7114 H   0  0  0  0  0  0  0  0  0  0  0  0
    2.5995   -3.8970   -2.4587 H   0  0  0  0  0  0  0  0  0  0  0  0
    5.3449   -0.9664   -0.2802 H   0  0  0  0  0  0  0  0  0  0  0  0
   -0.3408    2.9074    0.7747 H   0  0  0  0  0  0  0  0  0  0  0  0
   -1.7268   -0.9265   -3.2044 H   0  0  0  0  0  0  0  0  0  0  0  0
    1.2391   -0.1886    1.3633 H   0  0  0  0  0  0  0  0  0  0  0  0
   -5.1830    3.9914    1.2085 H   0  0  0  0  0  0  0  0  0  0  0  0
    4.4629    3.3174    0.7338 H   0  0  0  0  0  0  0  0  0  0  0  0
    1.2281    1.6650    2.9125 H   0  0  0  0  0  0  0  0  0  0  0  0
   -5.6907   -1.0032    1.0629 H   0  0  0  0  0  0  0  0  0  0  0  0
   -1.0456   -1.8749    3.4228 H   0  0  0  0  0  0  0  0  0  0  0  0
  1  7  1  0  0  0  0
  1 12  1  0  0  0  0
  1 13  1  0  0  0  0
  1 16  2  0  0  0  0
  2 10  1  0  0  0  0
  2 12  1  0  0  0  0
  2 15  1  0  0  0  0
  2 17  2  0  0  0  0
  3 24  1  0  0  0  0
  3 25  1  0  0  0  0
  4 29  1  0  0  0  0
  4 30  1  0  0  0  0
  5 22  1  0  0  0  0
  5 52  1  0  0  0  0
  6 23  1  0  0  0  0
  6 53  1  0  0  0  0
  7 30  1  0  0  0  0
  8 27  1  0  0  0  0
  8 54  1  0  0  0  0
  9 28  1  0  0  0  0
  9 55  1  0  0  0  0
 10 31  1  0  0  0  0
 11 32  1  0  0  0  0
 11 57  1  0  0  0  0
 13 60  1  0  0  0  0
 14 33  2  0  0  0  0
 15 61  1  0  0  0  0
 18 36  2  0  0  0  0
 19 25  1  0  0  0  0
 19 33  1  0  0  0  0
 19 34  1  0  0  0  0
 20 26  1  0  0  0  0
 20 50  1  0  0  0  0
 20 51  1  0  0  0  0
 21 33  1  0  0  0  0
 21 36  1  0  0  0  0
 21 58  1  0  0  0  0
 22 23  1  0  0  0  0
 22 24  1  0  0  0  0
 22 37  1  0  0  0  0
 23 25  1  0  0  0  0
 23 38  1  0  0  0  0
 24 31  1  0  0  0  0
 24 39  1  0  0  0  0
 25 40  1  0  0  0  0
 26 27  1  0  0  0  0
 26 28  1  0  0  0  0
 26 41  1  0  0  0  0
 27 29  1  0  0  0  0
 27 42  1  0  0  0  0
 28 30  1  0  0  0  0
 28 43  1  0  0  0  0
 29 32  1  0  0  0  0
 29 44  1  0  0  0  0
 30 45  1  0  0  0  0
 31 46  1  0  0  0  0
 31 47  1  0  0  0  0
 32 48  1  0  0  0  0
 32 49  1  0  0  0  0
 34 35  2  0  0  0  0
 34 56  1  0  0  0  0
 35 36  1  0  0  0  0
 35 59  1  0  0  0  0
M  END
> <PUBCHEM_COMPOUND_CID>
16667369

> <PUBCHEM_CONFORMER_RMSD>
1.4

> <PUBCHEM_CONFORMER_DIVERSEORDER>
1
124
94
14
88
92
121
123
67
29
98
113
97
108
96
69
85
56
2
74
91
24
46
102
81
3
109
64
116
59
71
70
31
95
119
61
12
120
33
82
93
21
114
27
118
7
79
51
86
35
57
107
103
34
9
68
62
122
43
75
41
20
100
99
42
106
89
4
84
19
55
26
36
63
28
39
110
11
104
111
10
90
115
105
101
48
50
53
22
73
45
112
60
44
80
72
78
38
5
18
76
6
54
65
16
52
23
32
40
117
47
49
58
25
15
66
8
30
83
77
17
87
37
13

> <PUBCHEM_MMFF94_PARTIAL_CHARGES>
48
1 1.51
10 -0.55
11 -0.68
12 -0.54
13 -0.77
14 -0.57
15 -0.77
16 -0.7
17 -0.7
18 -0.57
19 -0.47
2 1.51
20 -0.99
21 -0.49
22 0.28
23 0.28
24 0.28
25 0.58
26 0.27
27 0.28
28 0.28
29 0.28
3 -0.56
30 0.56
31 0.28
32 0.28
33 0.69
34 -0.04
35 -0.14
36 0.62
4 -0.56
5 -0.68
50 0.36
51 0.36
52 0.4
53 0.4
54 0.4
55 0.4
56 0.15
57 0.4
58 0.37
59 0.15
6 -0.68
60 0.5
61 0.5
7 -0.55
8 -0.68
9 -0.68

> <PUBCHEM_EFFECTIVE_ROTOR_COUNT>
11.2

> <PUBCHEM_PHARMACOPHORE_FEATURES>
24
1 11 acceptor
1 11 donor
1 13 acceptor
1 14 acceptor
1 15 acceptor
1 16 acceptor
1 17 acceptor
1 18 acceptor
1 20 cation
1 20 donor
1 21 donor
1 3 acceptor
1 4 acceptor
1 5 acceptor
1 5 donor
1 6 acceptor
1 6 donor
1 8 acceptor
1 8 donor
1 9 acceptor
1 9 donor
5 3 22 23 24 25 rings
6 19 21 33 34 35 36 rings
6 4 26 27 28 29 30 rings

> <PUBCHEM_HEAVY_ATOM_COUNT>
36

> <PUBCHEM_ATOM_DEF_STEREO_COUNT>
9

> <PUBCHEM_ATOM_UDEF_STEREO_COUNT>
0

> <PUBCHEM_BOND_DEF_STEREO_COUNT>
0

> <PUBCHEM_BOND_UDEF_STEREO_COUNT>
0

> <PUBCHEM_ISOTOPIC_ATOM_COUNT>
0

> <PUBCHEM_COMPONENT_COUNT>
1

> <PUBCHEM_CACTVS_TAUTO_COUNT>
3

> <PUBCHEM_CONFORMER_ID>
00FE52E900000001

> <PUBCHEM_MMFF94_ENERGY>
45.5516

> <PUBCHEM_FEATURE_SELFOVERLAP>
121.832

> <PUBCHEM_SHAPE_FINGERPRINT>
10165383 225 18118959188352063380
11112241 14 18044391426453008385
12156800 1 17547797042084778140
12293681 4 17540529549751650046
12633257 1 18125730229372628896
13140716 1 18127974311615626719
13402501 40 18341047428358242522
1361 2 17613455350011552687
14020679 6 18191299596953451969
140371 6 18198619930896924781
14279260 333 17398668395231838982
161222 10 17703785907705109213
17974551 9 18261674890782415837
19311894 1 17396980635780921615
19319366 153 17908141332190937942
20600515 1 17559132977276618847
20764821 26 18271251632733209386
23536364 44 18044065034961160668
23559900 14 18341338871896142461
238 59 18115891658010152070
238918 7 18263936427787555930
392239 28 18197488726789672785
469060 322 17322699382370383023
6004065 56 17760663469029244183
6287921 2 18410854339163147740
9981440 41 17755621202776448960

> <PUBCHEM_SHAPE_MULTIPOLES>
639.71
8.57
5.87
2.41
0.06
0.68
0.43
-1.84
0.02
1.14
2.61
-0.27
-0.06
3.17

> <PUBCHEM_SHAPE_SELFOVERLAP>
1303.396

> <PUBCHEM_SHAPE_VOLUME>
371.2

> <PUBCHEM_COORDINATE_TYPE>
2
5
10

$$$$

