442995
  -OEChem-07051213003D

 82 88  0     1  0  0  0  0  0999 V2000
   -1.9121    0.8870    0.3905 O   0  0  0  0  0  0  0  0  0  0  0  0
    3.2011   -1.3151    0.1542 O   0  0  0  0  0  0  0  0  0  0  0  0
   -3.8493   -0.1974    1.0293 O   0  0  0  0  0  0  0  0  0  0  0  0
    1.6551    0.3403   -0.3002 O   0  0  0  0  0  0  0  0  0  0  0  0
   -2.3262    4.7919   -0.5701 N   0  0  0  0  0  0  0  0  0  0  0  0
    7.0868   -0.2043    0.0567 N   0  0  0  0  0  0  0  0  0  0  0  0
   -3.6072    4.0727   -0.7038 C   0  0  2  0  0  0  0  0  0  0  0  0
   -2.0136    4.6351    0.8630 C   0  0  1  0  0  0  0  0  0  0  0  0
    6.5207   -0.0409    1.4092 C   0  0  1  0  0  0  0  0  0  0  0  0
    6.2603    0.7097   -0.7540 C   0  0  2  0  0  0  0  0  0  0  0  0
   -4.4109    4.4883    0.5332 C   0  0  0  0  0  0  0  0  0  0  0  0
   -3.3525    4.8616    1.5741 C   0  0  0  0  0  0  0  0  0  0  0  0
   -3.2634    2.5702   -0.6881 C   0  0  0  0  0  0  0  0  0  0  0  0
   -1.5061    3.1906    1.0400 C   0  0  0  0  0  0  0  0  0  0  0  0
    6.2903    1.4680    1.5483 C   0  0  0  0  0  0  0  0  0  0  0  0
    6.1171    1.9665    0.1114 C   0  0  0  0  0  0  0  0  0  0  0  0
   -2.5416    2.1456    0.5985 C   0  0  0  0  0  0  0  0  0  0  0  0
    5.1957   -0.8285    1.4219 C   0  0  0  0  0  0  0  0  0  0  0  0
    4.9084   -0.0006   -0.9638 C   0  0  0  0  0  0  0  0  0  0  0  0
    4.2046   -0.3285    0.3614 C   0  0  0  0  0  0  0  0  0  0  0  0
   -2.4177    6.1913   -0.9793 C   0  0  0  0  0  0  0  0  0  0  0  0
    8.5106    0.1170   -0.0032 C   0  0  0  0  0  0  0  0  0  0  0  0
   -1.8851   -1.4726    0.3804 C   0  0  1  0  0  0  0  0  0  0  0  0
    1.0165   -1.9832   -0.3604 C   0  0  2  0  0  0  0  0  0  0  0  0
   -0.7069   -1.4417    1.3931 C   0  0  0  0  0  0  0  0  0  0  0  0
    0.4278   -2.3799    0.9928 C   0  0  0  0  0  0  0  0  0  0  0  0
   -2.6874   -0.2051    0.6459 C   0  0  0  0  0  0  0  0  0  0  0  0
   -1.3749   -1.3955   -1.0686 C   0  0  0  0  0  0  0  0  0  0  0  0
    1.9671   -0.8359   -0.1726 C   0  0  0  0  0  0  0  0  0  0  0  0
   -0.0278   -1.6537   -1.4011 C   0  0  0  0  0  0  0  0  0  0  0  0
   -2.7493   -2.7215    0.6645 C   0  0  0  0  0  0  0  0  0  0  0  0
   -2.2811   -1.1082   -2.1124 C   0  0  0  0  0  0  0  0  0  0  0  0
    0.3756   -1.5957   -2.7491 C   0  0  0  0  0  0  0  0  0  0  0  0
   -2.9967   -3.6443   -0.3518 C   0  0  0  0  0  0  0  0  0  0  0  0
   -3.2819   -2.9265    1.9374 C   0  0  0  0  0  0  0  0  0  0  0  0
   -1.8642   -1.0558   -3.4423 C   0  0  0  0  0  0  0  0  0  0  0  0
   -0.5345   -1.2975   -3.7606 C   0  0  0  0  0  0  0  0  0  0  0  0
   -3.7767   -4.7720   -0.0955 C   0  0  0  0  0  0  0  0  0  0  0  0
   -4.0618   -4.0542    2.1937 C   0  0  0  0  0  0  0  0  0  0  0  0
   -4.3092   -4.9769    1.1772 C   0  0  0  0  0  0  0  0  0  0  0  0
   -4.1327    4.3085   -1.6360 H   0  0  0  0  0  0  0  0  0  0  0  0
   -1.2399    5.3297    1.2087 H   0  0  0  0  0  0  0  0  0  0  0  0
    7.1759   -0.4327    2.1954 H   0  0  0  0  0  0  0  0  0  0  0  0
    6.7028    0.9300   -1.7320 H   0  0  0  0  0  0  0  0  0  0  0  0
   -5.0322    5.3649    0.3141 H   0  0  0  0  0  0  0  0  0  0  0  0
   -5.0757    3.6960    0.8928 H   0  0  0  0  0  0  0  0  0  0  0  0
   -3.4525    4.2693    2.4895 H   0  0  0  0  0  0  0  0  0  0  0  0
   -3.4694    5.9162    1.8507 H   0  0  0  0  0  0  0  0  0  0  0  0
   -4.1781    1.9761   -0.8066 H   0  0  0  0  0  0  0  0  0  0  0  0
   -2.6395    2.3261   -1.5590 H   0  0  0  0  0  0  0  0  0  0  0  0
   -1.2354    3.0084    2.0876 H   0  0  0  0  0  0  0  0  0  0  0  0
   -0.5777    3.0516    0.4689 H   0  0  0  0  0  0  0  0  0  0  0  0
    7.1646    1.9523    1.9992 H   0  0  0  0  0  0  0  0  0  0  0  0
    5.4235    1.7094    2.1721 H   0  0  0  0  0  0  0  0  0  0  0  0
    6.9085    2.6887   -0.1219 H   0  0  0  0  0  0  0  0  0  0  0  0
    5.1571    2.4732   -0.0322 H   0  0  0  0  0  0  0  0  0  0  0  0
   -3.2751    2.0650    1.4116 H   0  0  0  0  0  0  0  0  0  0  0  0
    5.3997   -1.8962    1.2618 H   0  0  0  0  0  0  0  0  0  0  0  0
    4.7263   -0.7651    2.4117 H   0  0  0  0  0  0  0  0  0  0  0  0
    4.2492    0.6226   -1.5809 H   0  0  0  0  0  0  0  0  0  0  0  0
    5.0615   -0.9248   -1.5379 H   0  0  0  0  0  0  0  0  0  0  0  0
    3.7504    0.5879    0.7607 H   0  0  0  0  0  0  0  0  0  0  0  0
   -2.6627    6.2548   -2.0453 H   0  0  0  0  0  0  0  0  0  0  0  0
   -1.4474    6.6836   -0.8507 H   0  0  0  0  0  0  0  0  0  0  0  0
   -3.1655    6.7683   -0.4258 H   0  0  0  0  0  0  0  0  0  0  0  0
    8.8802   -0.0080   -1.0270 H   0  0  0  0  0  0  0  0  0  0  0  0
    8.7507    1.1347    0.3210 H   0  0  0  0  0  0  0  0  0  0  0  0
    9.0788   -0.5802    0.6224 H   0  0  0  0  0  0  0  0  0  0  0  0
    1.5924   -2.8396   -0.7391 H   0  0  0  0  0  0  0  0  0  0  0  0
   -1.0237   -1.6858    2.4133 H   0  0  0  0  0  0  0  0  0  0  0  0
   -0.2810   -0.4336    1.4818 H   0  0  0  0  0  0  0  0  0  0  0  0
    0.0486   -3.4082    0.9412 H   0  0  0  0  0  0  0  0  0  0  0  0
    1.2003   -2.3728    1.7715 H   0  0  0  0  0  0  0  0  0  0  0  0
   -3.3311   -0.9218   -1.8962 H   0  0  0  0  0  0  0  0  0  0  0  0
    1.4126   -1.7871   -3.0169 H   0  0  0  0  0  0  0  0  0  0  0  0
   -2.5882   -3.5656   -1.3516 H   0  0  0  0  0  0  0  0  0  0  0  0
   -3.1204   -2.2195    2.7461 H   0  0  0  0  0  0  0  0  0  0  0  0
   -2.5798   -0.8286   -4.2269 H   0  0  0  0  0  0  0  0  0  0  0  0
   -0.2052   -1.2582   -4.7944 H   0  0  0  0  0  0  0  0  0  0  0  0
   -3.9637   -5.4949   -0.8842 H   0  0  0  0  0  0  0  0  0  0  0  0
   -4.4793   -4.2125    3.1838 H   0  0  0  0  0  0  0  0  0  0  0  0
   -4.9156   -5.8555    1.3772 H   0  0  0  0  0  0  0  0  0  0  0  0
  1 17  1  0  0  0  0
  1 27  1  0  0  0  0
  2 20  1  0  0  0  0
  2 29  1  0  0  0  0
  3 27  2  0  0  0  0
  4 29  2  0  0  0  0
  5  7  1  0  0  0  0
  5  8  1  0  0  0  0
  5 21  1  0  0  0  0
  6  9  1  0  0  0  0
  6 10  1  0  0  0  0
  6 22  1  0  0  0  0
  7 11  1  0  0  0  0
  7 13  1  0  0  0  0
  7 41  1  0  0  0  0
  8 12  1  0  0  0  0
  8 14  1  0  0  0  0
  8 42  1  0  0  0  0
  9 15  1  0  0  0  0
  9 18  1  0  0  0  0
  9 43  1  0  0  0  0
 10 16  1  0  0  0  0
 10 19  1  0  0  0  0
 10 44  1  0  0  0  0
 11 12  1  0  0  0  0
 11 45  1  0  0  0  0
 11 46  1  0  0  0  0
 12 47  1  0  0  0  0
 12 48  1  0  0  0  0
 13 17  1  0  0  0  0
 13 49  1  0  0  0  0
 13 50  1  0  0  0  0
 14 17  1  0  0  0  0
 14 51  1  0  0  0  0
 14 52  1  0  0  0  0
 15 16  1  0  0  0  0
 15 53  1  0  0  0  0
 15 54  1  0  0  0  0
 16 55  1  0  0  0  0
 16 56  1  0  0  0  0
 17 57  1  0  0  0  0
 18 20  1  0  0  0  0
 18 58  1  0  0  0  0
 18 59  1  0  0  0  0
 19 20  1  0  0  0  0
 19 60  1  0  0  0  0
 19 61  1  0  0  0  0
 20 62  1  0  0  0  0
 21 63  1  0  0  0  0
 21 64  1  0  0  0  0
 21 65  1  0  0  0  0
 22 66  1  0  0  0  0
 22 67  1  0  0  0  0
 22 68  1  0  0  0  0
 23 25  1  0  0  0  0
 23 27  1  0  0  0  0
 23 28  1  0  0  0  0
 23 31  1  0  0  0  0
 24 26  1  0  0  0  0
 24 29  1  0  0  0  0
 24 30  1  0  0  0  0
 24 69  1  0  0  0  0
 25 26  1  0  0  0  0
 25 70  1  0  0  0  0
 25 71  1  0  0  0  0
 26 72  1  0  0  0  0
 26 73  1  0  0  0  0
 28 30  1  0  0  0  0
 28 32  2  0  0  0  0
 30 33  2  0  0  0  0
 31 34  2  0  0  0  0
 31 35  1  0  0  0  0
 32 36  1  0  0  0  0
 32 74  1  0  0  0  0
 33 37  1  0  0  0  0
 33 75  1  0  0  0  0
 34 38  1  0  0  0  0
 34 76  1  0  0  0  0
 35 39  2  0  0  0  0
 35 77  1  0  0  0  0
 36 37  2  0  0  0  0
 36 78  1  0  0  0  0
 37 79  1  0  0  0  0
 38 40  2  0  0  0  0
 38 80  1  0  0  0  0
 39 40  1  0  0  0  0
 39 81  1  0  0  0  0
 40 82  1  0  0  0  0
M  END
> <PUBCHEM_COMPOUND_CID>
442995

> <PUBCHEM_CONFORMER_RMSD>
1.2

> <PUBCHEM_CONFORMER_DIVERSEORDER>
1
3
10
33
22
24
8
41
42
2
47
48
6
31
34
43
30
23
38
4
17
40
46
14
29
32
16
11
9
44
5
37
15
39
49
26
21
36
35
25
27
28
13
45
19
20
12
18
7

> <PUBCHEM_MMFF94_PARTIAL_CHARGES>
39
1 -0.43
10 0.27
17 0.28
2 -0.43
20 0.28
21 0.27
22 0.27
23 0.35
24 0.2
27 0.66
28 -0.14
29 0.66
3 -0.57
30 -0.14
31 -0.14
32 -0.15
33 -0.15
34 -0.15
35 -0.15
36 -0.15
37 -0.15
38 -0.15
39 -0.15
4 -0.57
40 -0.15
5 -0.81
6 -0.81
7 0.27
74 0.15
75 0.15
76 0.15
77 0.15
78 0.15
79 0.15
8 0.27
80 0.15
81 0.15
82 0.15
9 0.27

> <PUBCHEM_EFFECTIVE_ROTOR_COUNT>
10.2

> <PUBCHEM_PHARMACOPHORE_FEATURES>
9
1 3 acceptor
1 4 acceptor
1 5 cation
1 6 cation
6 23 24 25 26 28 30 rings
6 28 30 32 33 36 37 rings
6 31 34 35 38 39 40 rings
8 5 7 8 11 12 13 14 17 rings
8 6 9 10 15 16 18 19 20 rings

> <PUBCHEM_HEAVY_ATOM_COUNT>
40

> <PUBCHEM_ATOM_DEF_STEREO_COUNT>
2

> <PUBCHEM_ATOM_UDEF_STEREO_COUNT>
4

> <PUBCHEM_BOND_DEF_STEREO_COUNT>
0

> <PUBCHEM_BOND_UDEF_STEREO_COUNT>
0

> <PUBCHEM_ISOTOPIC_ATOM_COUNT>
0

> <PUBCHEM_COMPONENT_COUNT>
1

> <PUBCHEM_CACTVS_TAUTO_COUNT>
1

> <PUBCHEM_CONFORMER_ID>
0006C27300000001

> <PUBCHEM_MMFF94_ENERGY>
112.9919

> <PUBCHEM_FEATURE_SELFOVERLAP>
45.689

> <PUBCHEM_SHAPE_FINGERPRINT>
11059845 2 18052846885882605490
11297750 10 17465615291561695583
11607047 74 17402617845593781661
11763715 3 17982424058722927359
11828422 8 17188127332400721588
12107183 9 17912092947729089706
12660671 118 17468735422272109279
12788726 201 18265916772936582847
14068700 675 17915739773625302599
14856354 85 18192143803236507830
15444296 8 18336544906836027511
15513586 35 18116999875621644288
15684970 41 17618752805308354450
15876981 60 18200869570088755343
15968369 153 18116163168636940088
16114785 44 18336828701569733879
16992779 147 16965181567593054105
17980427 26 17619927479232419895
18393751 57 18125434470026639361
18470217 77 18336256869033406319
19304152 47 18261391118710111678
19309040 13 16663167593347814249
19315092 285 17629192715526565726
21223535 225 18336555984648641792
21639891 77 18200033916062382567
21772528 278 18191584361690975692
21927370 108 18196638606633576731
22956985 138 17333924258472398867
23522609 53 17559936845695653972
27425 322 17903639932225172269
3418910 222 18125996062981326532
3552219 110 17702090383487071458
376196 1 17756145940184096629
4144715 1 18339352080951256514
44249763 50 17531833276596826104
44802255 64 17748828519061900734
497634 4 17917999339235575270
508706 21 18262816107006703968
5219985 13 18050288360241412553
550186 7 18334004012757941222
5951187 136 17181373028329423885
6376802 137 17843671176065915947
6695519 79 13682591402790782502
6700243 42 17901064647948003246
7288768 16 18267026252682150381
9896288 288 18412259549879465202

> <PUBCHEM_SHAPE_MULTIPOLES>
789.74
14.72
8.09
2.46
43.35
10.08
-2.33
1.64
5.35
-19.5
2.16
-1.48
-1.63
1.43

> <PUBCHEM_SHAPE_SELFOVERLAP>
1734.271

> <PUBCHEM_SHAPE_VOLUME>
425.1

> <PUBCHEM_COORDINATE_TYPE>
2
5
10

$$$$

