17396248
  -OEChem-06241222552D

 40 42  0     0  0  0  0  0  0999 V2000
    2.0000   -2.5670    0.0000 O   0  0  0  0  0  0  0  0  0  0  0  0
    2.8660    1.9330    0.0000 O   0  0  0  0  0  0  0  0  0  0  0  0
    3.7320   -2.5670    0.0000 N   0  0  0  0  0  0  0  0  0  0  0  0
    4.5981    1.9330    0.0000 N   0  0  0  0  0  0  0  0  0  0  0  0
    2.8660   -4.0670    0.0000 C   0  0  0  0  0  0  0  0  0  0  0  0
    3.3660   -4.9330    0.0000 C   0  0  0  0  0  0  0  0  0  0  0  0
    2.3660   -4.9330    0.0000 C   0  0  0  0  0  0  0  0  0  0  0  0
    2.8660   -3.0670    0.0000 C   0  0  0  0  0  0  0  0  0  0  0  0
    3.7320   -1.5670    0.0000 C   0  0  0  0  0  0  0  0  0  0  0  0
    4.5981   -1.0670    0.0000 C   0  0  0  0  0  0  0  0  0  0  0  0
    2.8660   -1.0670    0.0000 C   0  0  0  0  0  0  0  0  0  0  0  0
    3.7320    0.4330    0.0000 C   0  0  0  0  0  0  0  0  0  0  0  0
    4.5981   -0.0670    0.0000 C   0  0  0  0  0  0  0  0  0  0  0  0
    2.8660   -0.0670    0.0000 C   0  0  0  0  0  0  0  0  0  0  0  0
    3.7320    1.4330    0.0000 C   0  0  0  0  0  0  0  0  0  0  0  0
    4.5981    2.9330    0.0000 C   0  0  0  0  0  0  0  0  0  0  0  0
    5.4641    3.4330    0.0000 C   0  0  0  0  0  0  0  0  0  0  0  0
    5.4641    4.4330    0.0000 C   0  0  0  0  0  0  0  0  0  0  0  0
    3.7320    3.4330    0.0000 C   0  0  0  0  0  0  0  0  0  0  0  0
    4.5981    4.9330    0.0000 C   0  0  0  0  0  0  0  0  0  0  0  0
    3.7320    4.4330    0.0000 C   0  0  0  0  0  0  0  0  0  0  0  0
    6.3301    4.9330    0.0000 C   0  0  0  0  0  0  0  0  0  0  0  0
    3.4649   -3.9065    0.0000 H   0  0  0  0  0  0  0  0  0  0  0  0
    3.4737   -5.5436    0.0000 H   0  0  0  0  0  0  0  0  0  0  0  0
    3.9486   -4.7210    0.0000 H   0  0  0  0  0  0  0  0  0  0  0  0
    1.7834   -4.7210    0.0000 H   0  0  0  0  0  0  0  0  0  0  0  0
    2.2584   -5.5436    0.0000 H   0  0  0  0  0  0  0  0  0  0  0  0
    4.2690   -2.8770    0.0000 H   0  0  0  0  0  0  0  0  0  0  0  0
    5.1350   -1.3770    0.0000 H   0  0  0  0  0  0  0  0  0  0  0  0
    2.3291   -1.3770    0.0000 H   0  0  0  0  0  0  0  0  0  0  0  0
    5.1350    0.2430    0.0000 H   0  0  0  0  0  0  0  0  0  0  0  0
    2.3291    0.2430    0.0000 H   0  0  0  0  0  0  0  0  0  0  0  0
    5.1350    1.6230    0.0000 H   0  0  0  0  0  0  0  0  0  0  0  0
    6.0010    3.1230    0.0000 H   0  0  0  0  0  0  0  0  0  0  0  0
    3.1951    3.1230    0.0000 H   0  0  0  0  0  0  0  0  0  0  0  0
    4.5981    5.5530    0.0000 H   0  0  0  0  0  0  0  0  0  0  0  0
    3.1951    4.7430    0.0000 H   0  0  0  0  0  0  0  0  0  0  0  0
    6.6401    4.3961    0.0000 H   0  0  0  0  0  0  0  0  0  0  0  0
    6.8671    5.2430    0.0000 H   0  0  0  0  0  0  0  0  0  0  0  0
    6.0201    5.4700    0.0000 H   0  0  0  0  0  0  0  0  0  0  0  0
  1  8  2  0  0  0  0
  2 15  2  0  0  0  0
  3  8  1  0  0  0  0
  3  9  1  0  0  0  0
  3 28  1  0  0  0  0
  4 15  1  0  0  0  0
  4 16  1  0  0  0  0
  4 33  1  0  0  0  0
  5  6  1  0  0  0  0
  5  7  1  0  0  0  0
  5  8  1  0  0  0  0
  5 23  1  0  0  0  0
  6  7  1  0  0  0  0
  6 24  1  0  0  0  0
  6 25  1  0  0  0  0
  7 26  1  0  0  0  0
  7 27  1  0  0  0  0
  9 10  2  0  0  0  0
  9 11  1  0  0  0  0
 10 13  1  0  0  0  0
 10 29  1  0  0  0  0
 11 14  2  0  0  0  0
 11 30  1  0  0  0  0
 12 13  2  0  0  0  0
 12 14  1  0  0  0  0
 12 15  1  0  0  0  0
 13 31  1  0  0  0  0
 14 32  1  0  0  0  0
 16 17  1  0  0  0  0
 16 19  2  0  0  0  0
 17 18  2  0  0  0  0
 17 34  1  0  0  0  0
 18 20  1  0  0  0  0
 18 22  1  0  0  0  0
 19 21  1  0  0  0  0
 19 35  1  0  0  0  0
 20 21  2  0  0  0  0
 20 36  1  0  0  0  0
 21 37  1  0  0  0  0
 22 38  1  0  0  0  0
 22 39  1  0  0  0  0
 22 40  1  0  0  0  0
M  END
> <PUBCHEM_COMPOUND_CID>
17396248

> <PUBCHEM_COMPOUND_CANONICALIZED>
1

> <PUBCHEM_CACTVS_COMPLEXITY>
411

> <PUBCHEM_CACTVS_HBOND_ACCEPTOR>
2

> <PUBCHEM_CACTVS_HBOND_DONOR>
2

> <PUBCHEM_CACTVS_ROTATABLE_BOND>
4

> <PUBCHEM_CACTVS_SUBSKEYS>
AAADceB7MAAAAAAAAAAAAAAAGAAAAAAAAAAwYAAAAAAAAAABQAAAHgAQAAAADQiBmAAywILAAACIAiVSUACCAAAlAgAIiAEAZMgIIDLAlZGEIQhglADIyYcYiQCeCAAAQAAAAAAQAACAAAAAAAAAAAAAAA==

> <PUBCHEM_IUPAC_OPENEYE_NAME>
4-(cyclopropanecarbonylamino)-N-(m-tolyl)benzamide

> <PUBCHEM_IUPAC_CAS_NAME>
4-[[cyclopropyl(oxo)methyl]amino]-N-(3-methylphenyl)benzamide

> <PUBCHEM_IUPAC_NAME>
4-(cyclopropanecarbonylamino)-N-(3-methylphenyl)benzamide

> <PUBCHEM_IUPAC_SYSTEMATIC_NAME>
4-(cyclopropylcarbonylamino)-N-(3-methylphenyl)benzamide

> <PUBCHEM_IUPAC_TRADITIONAL_NAME>
4-(cyclopropanecarbonylamino)-N-(m-tolyl)benzamide

> <PUBCHEM_IUPAC_INCHI>
InChI=1S/C18H18N2O2/c1-12-3-2-4-16(11-12)20-18(22)14-7-9-15(10-8-14)19-17(21)13-5-6-13/h2-4,7-11,13H,5-6H2,1H3,(H,19,21)(H,20,22)

> <PUBCHEM_IUPAC_INCHIKEY>
PDTRREDQCZKDRD-UHFFFAOYSA-N

> <PUBCHEM_XLOGP3_AA>
2.8

> <PUBCHEM_EXACT_MASS>
294.136828

> <PUBCHEM_MOLECULAR_FORMULA>
C18H18N2O2

> <PUBCHEM_MOLECULAR_WEIGHT>
294.34772

> <PUBCHEM_OPENEYE_CAN_SMILES>
CC1=CC(=CC=C1)NC(=O)C2=CC=C(C=C2)NC(=O)C3CC3

> <PUBCHEM_OPENEYE_ISO_SMILES>
CC1=CC(=CC=C1)NC(=O)C2=CC=C(C=C2)NC(=O)C3CC3

> <PUBCHEM_CACTVS_TPSA>
58.2

> <PUBCHEM_MONOISOTOPIC_WEIGHT>
294.136828

> <PUBCHEM_TOTAL_CHARGE>
0

> <PUBCHEM_HEAVY_ATOM_COUNT>
22

> <PUBCHEM_ATOM_DEF_STEREO_COUNT>
0

> <PUBCHEM_ATOM_UDEF_STEREO_COUNT>
0

> <PUBCHEM_BOND_DEF_STEREO_COUNT>
0

> <PUBCHEM_BOND_UDEF_STEREO_COUNT>
0

> <PUBCHEM_ISOTOPIC_ATOM_COUNT>
0

> <PUBCHEM_COMPONENT_COUNT>
1

> <PUBCHEM_CACTVS_TAUTO_COUNT>
12

> <PUBCHEM_COORDINATE_TYPE>
1
5
255

> <PUBCHEM_BONDANNOTATIONS>
10  13  8
11  14  8
12  13  8
12  14  8
16  17  8
16  19  8
17  18  8
18  20  8
19  21  8
20  21  8
9  10  8
9  11  8

$$$$

