10584
  -OEChem-06261204432D

 16 15  0     0  0  0  0  0  0999 V2000
    3.0000    0.7500    0.0000 S   0  0  0  0  0  0  0  0  0  0  0  0
    3.8660    2.2500    0.0000 Na  0  3  0  0  0  0  0  0  0  0  0  0
    3.0000    1.7500    0.0000 O   0  5  0  0  0  0  0  0  0  0  0  0
    4.0000    0.7500    0.0000 O   0  0  0  0  0  0  0  0  0  0  0  0
    2.0000    0.7500    0.0000 O   0  0  0  0  0  0  0  0  0  0  0  0
    3.0000   -0.2500    0.0000 C   0  0  0  0  0  0  0  0  0  0  0  0
    3.8660   -0.7500    0.0000 C   0  0  0  0  0  0  0  0  0  0  0  0
    2.1340   -0.7500    0.0000 C   0  0  0  0  0  0  0  0  0  0  0  0
    3.8660   -1.7500    0.0000 C   0  0  0  0  0  0  0  0  0  0  0  0
    2.1340   -1.7500    0.0000 C   0  0  0  0  0  0  0  0  0  0  0  0
    3.0000   -2.2500    0.0000 C   0  0  0  0  0  0  0  0  0  0  0  0
    4.4030   -0.4400    0.0000 H   0  0  0  0  0  0  0  0  0  0  0  0
    1.5970   -0.4400    0.0000 H   0  0  0  0  0  0  0  0  0  0  0  0
    4.4030   -2.0600    0.0000 H   0  0  0  0  0  0  0  0  0  0  0  0
    1.5970   -2.0600    0.0000 H   0  0  0  0  0  0  0  0  0  0  0  0
    3.0000   -2.8700    0.0000 H   0  0  0  0  0  0  0  0  0  0  0  0
  1  3  1  0  0  0  0
  1  4  2  0  0  0  0
  1  5  2  0  0  0  0
  1  6  1  0  0  0  0
  6  7  2  0  0  0  0
  6  8  1  0  0  0  0
  7  9  1  0  0  0  0
  7 12  1  0  0  0  0
  8 10  2  0  0  0  0
  8 13  1  0  0  0  0
  9 11  2  0  0  0  0
  9 14  1  0  0  0  0
 10 11  1  0  0  0  0
 10 15  1  0  0  0  0
 11 16  1  0  0  0  0
M  CHG  2   2   1   3  -1
M  END
> <PUBCHEM_COMPOUND_CID>
10584

> <PUBCHEM_COMPOUND_CANONICALIZED>
1

> <PUBCHEM_CACTVS_COMPLEXITY>
170

> <PUBCHEM_CACTVS_HBOND_ACCEPTOR>
3

> <PUBCHEM_CACTVS_HBOND_DONOR>
0

> <PUBCHEM_CACTVS_ROTATABLE_BOND>
0

> <PUBCHEM_CACTVS_SUBSKEYS>
AAADcYBgMCBAAAAAAAAAAAAAAAAAAAAAAAAwAAAAAAAAAAABAAAAGAQAAAAACACAUAAwAYAAAAKAACBCAHBCAEAgAAAIiBgAAIgIICKAERCAIAAggAAIiAcAAAAAAAAAAAAAAAAAAAAAAAAAAAAAAAAAAA==

> <PUBCHEM_IUPAC_OPENEYE_NAME>
sodium benzenesulfonate

> <PUBCHEM_IUPAC_CAS_NAME>
sodium benzenesulfonate

> <PUBCHEM_IUPAC_NAME>
sodium benzenesulfonate

> <PUBCHEM_IUPAC_SYSTEMATIC_NAME>
sodium benzenesulfonate

> <PUBCHEM_IUPAC_TRADITIONAL_NAME>
sodium besylate

> <PUBCHEM_IUPAC_INCHI>
InChI=1S/C6H6O3S.Na/c7-10(8,9)6-4-2-1-3-5-6;/h1-5H,(H,7,8,9);/q;+1/p-1

> <PUBCHEM_IUPAC_INCHIKEY>
MZSDGDXXBZSFTG-UHFFFAOYSA-M

> <PUBCHEM_EXACT_MASS>
179.985709

> <PUBCHEM_MOLECULAR_FORMULA>
C6H5NaO3S

> <PUBCHEM_MOLECULAR_WEIGHT>
180.156869

> <PUBCHEM_OPENEYE_CAN_SMILES>
C1=CC=C(C=C1)S(=O)(=O)[O-].[Na+]

> <PUBCHEM_OPENEYE_ISO_SMILES>
C1=CC=C(C=C1)S(=O)(=O)[O-].[Na+]

> <PUBCHEM_CACTVS_TPSA>
65.6

> <PUBCHEM_MONOISOTOPIC_WEIGHT>
179.985709

> <PUBCHEM_TOTAL_CHARGE>
0

> <PUBCHEM_HEAVY_ATOM_COUNT>
11

> <PUBCHEM_ATOM_DEF_STEREO_COUNT>
0

> <PUBCHEM_ATOM_UDEF_STEREO_COUNT>
0

> <PUBCHEM_BOND_DEF_STEREO_COUNT>
0

> <PUBCHEM_BOND_UDEF_STEREO_COUNT>
0

> <PUBCHEM_ISOTOPIC_ATOM_COUNT>
0

> <PUBCHEM_COMPONENT_COUNT>
2

> <PUBCHEM_CACTVS_TAUTO_COUNT>
1

> <PUBCHEM_COORDINATE_TYPE>
1
5
255

> <PUBCHEM_BONDANNOTATIONS>
10  11  8
6  7  8
6  8  8
7  9  8
8  10  8
9  11  8

$$$$

