13132
  -OEChem-06261207483D

  8  7  0     0  0  0  0  0  0999 V2000
   -1.4520   -1.4387   -0.4729 Cl  0  0  0  0  0  0  0  0  0  0  0  0
   -1.4210    1.4732   -0.4209 Cl  0  0  0  0  0  0  0  0  0  0  0  0
   -0.4710   -0.0263    1.4256 F   0  0  0  0  0  0  0  0  0  0  0  0
    1.5250    1.0857   -0.0614 F   0  0  0  0  0  0  0  0  0  0  0  0
    1.5271   -1.0866   -0.0376 F   0  0  0  0  0  0  0  0  0  0  0  0
   -0.5562   -0.0013    0.0678 C   0  0  0  0  0  0  0  0  0  0  0  0
    0.8479   -0.0061   -0.5006 C   0  0  0  0  0  0  0  0  0  0  0  0
    0.8750   -0.0160   -1.5947 H   0  0  0  0  0  0  0  0  0  0  0  0
  1  6  1  0  0  0  0
  2  6  1  0  0  0  0
  3  6  1  0  0  0  0
  4  7  1  0  0  0  0
  5  7  1  0  0  0  0
  6  7  1  0  0  0  0
  7  8  1  0  0  0  0
M  END
> <PUBCHEM_COMPOUND_CID>
13132

> <PUBCHEM_CONFORMER_RMSD>
0.4

> <PUBCHEM_CONFORMER_DIVERSEORDER>
1
2
3

> <PUBCHEM_MMFF94_PARTIAL_CHARGES>
7
1 -0.29
2 -0.29
3 -0.34
4 -0.34
5 -0.34
6 0.92
7 0.68

> <PUBCHEM_EFFECTIVE_ROTOR_COUNT>
1

> <PUBCHEM_PHARMACOPHORE_FEATURES>
0

> <PUBCHEM_HEAVY_ATOM_COUNT>
7

> <PUBCHEM_ATOM_DEF_STEREO_COUNT>
0

> <PUBCHEM_ATOM_UDEF_STEREO_COUNT>
0

> <PUBCHEM_BOND_DEF_STEREO_COUNT>
0

> <PUBCHEM_BOND_UDEF_STEREO_COUNT>
0

> <PUBCHEM_ISOTOPIC_ATOM_COUNT>
0

> <PUBCHEM_COMPONENT_COUNT>
1

> <PUBCHEM_CACTVS_TAUTO_COUNT>
1

> <PUBCHEM_CONFORMER_ID>
0000334C00000001

> <PUBCHEM_MMFF94_ENERGY>
0.5067

> <PUBCHEM_FEATURE_SELFOVERLAP>
0

> <PUBCHEM_SHAPE_FINGERPRINT>
137420 1 10221439913075426113
20096714 4 18127974324141891053
21040471 1 18266743678003771237
29004967 10 17982165617697607243
5943 1 6090254632393516921

> <PUBCHEM_SHAPE_MULTIPOLES>
125.98
1.96
1.59
0.9
0.31
0.03
0.27
-0.02
-0.29
-0.59
-0.26
-0.13
-0.01
-0.02

> <PUBCHEM_SHAPE_SELFOVERLAP>
219.928

> <PUBCHEM_SHAPE_VOLUME>
84.5

> <PUBCHEM_COORDINATE_TYPE>
2
5
10

$$$$

