3035008
  -OEChem-07051213153D

 39 43  0     1  0  0  0  0  0999 V2000
    4.3731    0.0481    0.4397 O   0  0  0  0  0  0  0  0  0  0  0  0
    2.9997    1.6456   -0.6800 O   0  0  0  0  0  0  0  0  0  0  0  0
    3.6732   -2.7706   -0.3790 O   0  0  0  0  0  0  0  0  0  0  0  0
   -0.3817   -1.6195   -0.4504 O   0  0  0  0  0  0  0  0  0  0  0  0
    2.8826   -0.3908    2.2074 O   0  0  0  0  0  0  0  0  0  0  0  0
   -1.4761    3.1000    0.1513 O   0  0  0  0  0  0  0  0  0  0  0  0
   -4.7401   -2.1527    0.1895 O   0  0  0  0  0  0  0  0  0  0  0  0
   -2.0024   -3.2429   -0.3529 O   0  0  0  0  0  0  0  0  0  0  0  0
    2.4847   -0.7414   -0.8266 C   0  0  1  0  0  0  0  0  0  0  0  0
    3.5870    0.3247   -0.7325 C   0  0  2  0  0  0  0  0  0  0  0  0
    2.8745   -1.7574    0.2290 C   0  0  2  0  0  0  0  0  0  0  0  0
    1.2960    0.0959   -0.5356 C   0  0  0  0  0  0  0  0  0  0  0  0
    3.7214   -0.9668    1.2134 C   0  0  1  0  0  0  0  0  0  0  0  0
    1.6621    1.4290   -0.4848 C   0  0  0  0  0  0  0  0  0  0  0  0
   -0.0319   -0.2541   -0.3662 C   0  0  0  0  0  0  0  0  0  0  0  0
   -0.9985    0.7318   -0.1274 C   0  0  0  0  0  0  0  0  0  0  0  0
   -2.3759    0.2963    0.0483 C   0  0  0  0  0  0  0  0  0  0  0  0
    0.7406    2.4357   -0.2582 C   0  0  0  0  0  0  0  0  0  0  0  0
   -0.5997    2.0794   -0.0741 C   0  0  0  0  0  0  0  0  0  0  0  0
   -3.5351    1.1986    0.3166 C   0  0  0  0  0  0  0  0  0  0  0  0
   -2.6698   -1.0024   -0.0289 C   0  0  0  0  0  0  0  0  0  0  0  0
   -4.7319    0.2543    0.4157 C   0  0  0  0  0  0  0  0  0  0  0  0
   -4.1200   -1.1003    0.1909 C   0  0  0  0  0  0  0  0  0  0  0  0
   -1.6941   -2.0601   -0.2855 C   0  0  0  0  0  0  0  0  0  0  0  0
   -0.9379    4.4196    0.1803 C   0  0  0  0  0  0  0  0  0  0  0  0
    2.4158   -1.1518   -1.8401 H   0  0  0  0  0  0  0  0  0  0  0  0
    4.2606    0.2843   -1.5957 H   0  0  0  0  0  0  0  0  0  0  0  0
    2.0223   -2.2460    0.7115 H   0  0  0  0  0  0  0  0  0  0  0  0
    4.4817   -1.5860    1.7008 H   0  0  0  0  0  0  0  0  0  0  0  0
    1.1340    3.4442   -0.2378 H   0  0  0  0  0  0  0  0  0  0  0  0
   -3.4149    1.7494    1.2556 H   0  0  0  0  0  0  0  0  0  0  0  0
   -3.6920    1.9147   -0.4972 H   0  0  0  0  0  0  0  0  0  0  0  0
    3.1115   -3.2365   -1.0219 H   0  0  0  0  0  0  0  0  0  0  0  0
   -5.4735    0.4642   -0.3603 H   0  0  0  0  0  0  0  0  0  0  0  0
   -5.1948    0.2969    1.4057 H   0  0  0  0  0  0  0  0  0  0  0  0
    3.4451   -0.1912    2.9748 H   0  0  0  0  0  0  0  0  0  0  0  0
   -0.2337    4.5567    1.0084 H   0  0  0  0  0  0  0  0  0  0  0  0
   -1.7758    5.0984    0.3732 H   0  0  0  0  0  0  0  0  0  0  0  0
   -0.5209    4.7131   -0.7894 H   0  0  0  0  0  0  0  0  0  0  0  0
  1 10  1  0  0  0  0
  1 13  1  0  0  0  0
  2 10  1  0  0  0  0
  2 14  1  0  0  0  0
  3 11  1  0  0  0  0
  3 33  1  0  0  0  0
  4 15  1  0  0  0  0
  4 24  1  0  0  0  0
  5 13  1  0  0  0  0
  5 36  1  0  0  0  0
  6 19  1  0  0  0  0
  6 25  1  0  0  0  0
  7 23  2  0  0  0  0
  8 24  2  0  0  0  0
  9 10  1  0  0  0  0
  9 11  1  0  0  0  0
  9 12  1  0  0  0  0
  9 26  1  0  0  0  0
 10 27  1  0  0  0  0
 11 13  1  0  0  0  0
 11 28  1  0  0  0  0
 12 14  1  0  0  0  0
 12 15  2  0  0  0  0
 13 29  1  0  0  0  0
 14 18  2  0  0  0  0
 15 16  1  0  0  0  0
 16 17  1  0  0  0  0
 16 19  2  0  0  0  0
 17 20  1  0  0  0  0
 17 21  2  0  0  0  0
 18 19  1  0  0  0  0
 18 30  1  0  0  0  0
 20 22  1  0  0  0  0
 20 31  1  0  0  0  0
 20 32  1  0  0  0  0
 21 23  1  0  0  0  0
 21 24  1  0  0  0  0
 22 23  1  0  0  0  0
 22 34  1  0  0  0  0
 22 35  1  0  0  0  0
 25 37  1  0  0  0  0
 25 38  1  0  0  0  0
 25 39  1  0  0  0  0
M  END
> <PUBCHEM_COMPOUND_CID>
3035008

> <PUBCHEM_CONFORMER_RMSD>
0.6

> <PUBCHEM_CONFORMER_DIVERSEORDER>
1
2

> <PUBCHEM_MMFF94_PARTIAL_CHARGES>
28
1 -0.56
10 0.56
11 0.28
12 -0.14
13 0.56
14 0.08
15 0.08
16 0.03
17 -0.17
18 -0.15
19 0.08
2 -0.36
20 0.14
21 0.03
22 0.06
23 0.49
24 0.71
25 0.28
3 -0.68
30 0.15
33 0.4
36 0.4
4 -0.23
5 -0.68
6 -0.36
7 -0.57
8 -0.57
9 0.14

> <PUBCHEM_EFFECTIVE_ROTOR_COUNT>
2.2

> <PUBCHEM_PHARMACOPHORE_FEATURES>
15
1 1 acceptor
1 2 acceptor
1 21 anion
1 3 acceptor
1 3 donor
1 5 acceptor
1 5 donor
1 6 acceptor
1 7 acceptor
1 8 acceptor
5 1 9 10 11 13 rings
5 17 20 21 22 23 rings
5 2 9 10 12 14 rings
6 12 14 15 16 18 19 rings
6 4 15 16 17 21 24 rings

> <PUBCHEM_HEAVY_ATOM_COUNT>
25

> <PUBCHEM_ATOM_DEF_STEREO_COUNT>
4

> <PUBCHEM_ATOM_UDEF_STEREO_COUNT>
0

> <PUBCHEM_BOND_DEF_STEREO_COUNT>
0

> <PUBCHEM_BOND_UDEF_STEREO_COUNT>
0

> <PUBCHEM_ISOTOPIC_ATOM_COUNT>
0

> <PUBCHEM_COMPONENT_COUNT>
1

> <PUBCHEM_CACTVS_TAUTO_COUNT>
10

> <PUBCHEM_CONFORMER_ID>
002E4F8000000001

> <PUBCHEM_MMFF94_ENERGY>
84.2233

> <PUBCHEM_FEATURE_SELFOVERLAP>
76.949

> <PUBCHEM_SHAPE_FINGERPRINT>
10319926 262 18120112812562952866
10616163 171 18266170647809955862
10967382 1 18337947870824980517
12236239 1 18060418010955155630
12293681 160 17763148399135513300
12422481 6 17977359944905395273
12553582 1 18337393746823565790
12788726 201 18342736342816940208
13140716 1 18339082579704530802
13583140 156 14201399421420152757
138480 1 15240601015262622509
14022347 108 18266716087170681271
14081887 123 18262815028832379232
14178342 30 18053394468036715906
14223421 5 18408890667757885536
14787075 74 18130784512885584488
14790565 3 18265036115557385977
14866123 147 17690559010625295539
15196674 1 18410851062435260631
15256400 18 18192992840327479735
15375462 189 18130508556651705410
15442244 35 18410570686743389415
16752209 62 18268148849537420652
16945 1 18409450310359707332
17349148 13 18113900408277361527
17492 89 18340766034954599778
1813 80 17561079224315961766
19591789 44 16536785504686430519
20510252 161 18189335843247706544
20715895 44 18054514874828801237
21033648 29 17240205421461354114
21197605 99 5149739666524014042
21267235 1 18339348687167197014
21421861 104 18272934938217929648
2255824 54 17982728576188352340
23184049 29 18411418444742216444
2334 1 18121778331221568669
23366157 5 17767407881453313653
23402539 116 18260553320718896751
23558518 356 18126555941394087176
23559900 14 18262514926582551262
3004659 81 18202844352843261734
3091708 16 9352823588365942041
314173 41 18194108634255402935
335352 9 18267016353083012221
345986 75 17987538037542569353
34934 24 18338233739527049588
350125 39 18048308139688394548
352729 6 18122057877916875077
3680242 22 18339913939787130459
4990 188 12319739180318069626
5104073 3 18337946788967950241
7097593 13 18267866077802437431
7164475 11 18341046423499380356
7364860 26 17975972060177248557
79837 15 17688586486797110553
90316 7 18410576214556365809
9709674 26 18339914944214099455

> <PUBCHEM_SHAPE_MULTIPOLES>
467.53
8.16
3.76
0.95
1.36
2.51
-0.37
-4.16
-1.43
1.54
0.13
-0.91
-0.12
-0.52

> <PUBCHEM_SHAPE_SELFOVERLAP>
1066.793

> <PUBCHEM_SHAPE_VOLUME>
243.6

> <PUBCHEM_COORDINATE_TYPE>
2
5
10

$$$$

