13183
  -OEChem-06261207523D

 16 15  0     0  0  0  0  0  0999 V2000
   -0.5353    0.3206   -0.0066 N   0  0  0  0  0  0  0  0  0  0  0  0
    0.5351   -0.3203   -0.0066 N   0  0  0  0  0  0  0  0  0  0  0  0
   -1.6958   -0.5682   -0.0063 C   0  0  0  0  0  0  0  0  0  0  0  0
    1.6960    0.5683   -0.0063 C   0  0  0  0  0  0  0  0  0  0  0  0
   -2.9592    0.2675    0.0129 C   0  0  0  0  0  0  0  0  0  0  0  0
    2.9592   -0.2679    0.0129 C   0  0  0  0  0  0  0  0  0  0  0  0
   -1.6904   -1.2017   -0.9012 H   0  0  0  0  0  0  0  0  0  0  0  0
   -1.6766   -1.2206    0.8748 H   0  0  0  0  0  0  0  0  0  0  0  0
    1.6906    1.2017   -0.9011 H   0  0  0  0  0  0  0  0  0  0  0  0
    1.6768    1.2207    0.8748 H   0  0  0  0  0  0  0  0  0  0  0  0
   -3.8448   -0.3752    0.0133 H   0  0  0  0  0  0  0  0  0  0  0  0
   -2.9946    0.9027    0.9042 H   0  0  0  0  0  0  0  0  0  0  0  0
   -3.0090    0.9214   -0.8642 H   0  0  0  0  0  0  0  0  0  0  0  0
    3.8450    0.3745    0.0131 H   0  0  0  0  0  0  0  0  0  0  0  0
    2.9944   -0.9029    0.9044 H   0  0  0  0  0  0  0  0  0  0  0  0
    3.0087   -0.9218   -0.8641 H   0  0  0  0  0  0  0  0  0  0  0  0
  1  2  2  0  0  0  0
  1  3  1  0  0  0  0
  2  4  1  0  0  0  0
  3  5  1  0  0  0  0
  3  7  1  0  0  0  0
  3  8  1  0  0  0  0
  4  6  1  0  0  0  0
  4  9  1  0  0  0  0
  4 10  1  0  0  0  0
  5 11  1  0  0  0  0
  5 12  1  0  0  0  0
  5 13  1  0  0  0  0
  6 14  1  0  0  0  0
  6 15  1  0  0  0  0
  6 16  1  0  0  0  0
M  END
> <PUBCHEM_COMPOUND_CID>
13183

> <PUBCHEM_CONFORMER_RMSD>
0.4

> <PUBCHEM_CONFORMER_DIVERSEORDER>
1
7
5
9
10
4
6
2
3
8

> <PUBCHEM_MMFF94_PARTIAL_CHARGES>
4
1 -0.25
2 -0.25
3 0.25
4 0.25

> <PUBCHEM_EFFECTIVE_ROTOR_COUNT>
2

> <PUBCHEM_PHARMACOPHORE_FEATURES>
0

> <PUBCHEM_HEAVY_ATOM_COUNT>
6

> <PUBCHEM_ATOM_DEF_STEREO_COUNT>
0

> <PUBCHEM_ATOM_UDEF_STEREO_COUNT>
0

> <PUBCHEM_BOND_DEF_STEREO_COUNT>
0

> <PUBCHEM_BOND_UDEF_STEREO_COUNT>
0

> <PUBCHEM_ISOTOPIC_ATOM_COUNT>
0

> <PUBCHEM_COMPONENT_COUNT>
1

> <PUBCHEM_CACTVS_TAUTO_COUNT>
1

> <PUBCHEM_CONFORMER_ID>
0000337F00000001

> <PUBCHEM_MMFF94_ENERGY>
-2.4237

> <PUBCHEM_FEATURE_SELFOVERLAP>
0

> <PUBCHEM_SHAPE_FINGERPRINT>
14390081 3 18259989258010489777
16714656 1 18343585139918024269
29004967 10 14779540167224099422
5460574 1 9223234048145489924

> <PUBCHEM_SHAPE_MULTIPOLES>
113.52
4.88
0.76
0.59
0
0
0
0
0.03
0
0
0
0
-0.01

> <PUBCHEM_SHAPE_SELFOVERLAP>
192.491

> <PUBCHEM_SHAPE_VOLUME>
77.6

> <PUBCHEM_COORDINATE_TYPE>
2
5
10

$$$$

