442659
  -OEChem-07051212593D

 55 58  0     1  0  0  0  0  0999 V2000
    3.8563   -0.7467   -0.7027 O   0  0  0  0  0  0  0  0  0  0  0  0
    3.3409    2.0824    1.5778 O   0  0  0  0  0  0  0  0  0  0  0  0
    5.8768    0.9039    2.4810 O   0  0  0  0  0  0  0  0  0  0  0  0
    7.3465   -0.1980    0.2605 O   0  0  0  0  0  0  0  0  0  0  0  0
    5.0764   -2.0948   -2.7615 O   0  0  0  0  0  0  0  0  0  0  0  0
    2.0885   -2.0842    0.3437 O   0  0  0  0  0  0  0  0  0  0  0  0
    1.4286    2.5388   -0.6314 O   0  0  0  0  0  0  0  0  0  0  0  0
   -2.3393   -0.4321   -0.0010 O   0  0  0  0  0  0  0  0  0  0  0  0
   -1.0426    3.3455   -0.8056 O   0  0  0  0  0  0  0  0  0  0  0  0
   -6.7522   -2.2155    1.6077 O   0  0  0  0  0  0  0  0  0  0  0  0
   -8.6497   -0.8842    0.0751 O   0  0  0  0  0  0  0  0  0  0  0  0
    3.8385    0.8028    1.1869 C   0  0  2  0  0  0  0  0  0  0  0  0
    5.3683    0.8543    1.1469 C   0  0  2  0  0  0  0  0  0  0  0  0
    3.2638    0.4528   -0.1943 C   0  0  2  0  0  0  0  0  0  0  0  0
    5.9487   -0.3853    0.4666 C   0  0  1  0  0  0  0  0  0  0  0  0
    5.2687   -0.6336   -0.8812 C   0  0  1  0  0  0  0  0  0  0  0  0
    1.7633    0.2403   -0.1466 C   0  0  0  0  0  0  0  0  0  0  0  0
    5.7536   -1.9263   -1.5295 C   0  0  0  0  0  0  0  0  0  0  0  0
    0.8970    1.3106   -0.3723 C   0  0  0  0  0  0  0  0  0  0  0  0
    1.2532   -1.0307    0.1225 C   0  0  0  0  0  0  0  0  0  0  0  0
   -0.4830    1.1002   -0.3263 C   0  0  0  0  0  0  0  0  0  0  0  0
   -0.1258   -1.2367    0.1673 C   0  0  0  0  0  0  0  0  0  0  0  0
   -0.9943   -0.1683   -0.0575 C   0  0  0  0  0  0  0  0  0  0  0  0
   -1.4213    2.2083   -0.5614 C   0  0  0  0  0  0  0  0  0  0  0  0
   -3.2267    0.6119   -0.2136 C   0  0  0  0  0  0  0  0  0  0  0  0
   -2.8579    1.8734   -0.4873 C   0  0  0  0  0  0  0  0  0  0  0  0
    1.4816   -3.3466    0.6112 C   0  0  0  0  0  0  0  0  0  0  0  0
   -4.6475    0.2169   -0.1361 C   0  0  0  0  0  0  0  0  0  0  0  0
   -5.0413   -0.8244    0.7078 C   0  0  0  0  0  0  0  0  0  0  0  0
   -5.6040    0.8830   -0.9062 C   0  0  0  0  0  0  0  0  0  0  0  0
   -6.3835   -1.1973    0.7814 C   0  0  0  0  0  0  0  0  0  0  0  0
   -6.9461    0.5099   -0.8328 C   0  0  0  0  0  0  0  0  0  0  0  0
   -7.3359   -0.5301    0.0110 C   0  0  0  0  0  0  0  0  0  0  0  0
    3.5156    0.0803    1.9464 H   0  0  0  0  0  0  0  0  0  0  0  0
    5.7183    1.7667    0.6486 H   0  0  0  0  0  0  0  0  0  0  0  0
    3.4821    1.2514   -0.9157 H   0  0  0  0  0  0  0  0  0  0  0  0
    5.8276   -1.2533    1.1261 H   0  0  0  0  0  0  0  0  0  0  0  0
    5.4666    0.1903   -1.5802 H   0  0  0  0  0  0  0  0  0  0  0  0
    5.5295   -2.7967   -0.9038 H   0  0  0  0  0  0  0  0  0  0  0  0
    6.8289   -1.9018   -1.7279 H   0  0  0  0  0  0  0  0  0  0  0  0
    3.6218    2.7314    0.9103 H   0  0  0  0  0  0  0  0  0  0  0  0
    5.4804    1.6796    2.9134 H   0  0  0  0  0  0  0  0  0  0  0  0
    7.4634    0.5642   -0.3320 H   0  0  0  0  0  0  0  0  0  0  0  0
   -0.5859   -2.1979    0.3707 H   0  0  0  0  0  0  0  0  0  0  0  0
    4.1225   -2.1128   -2.5727 H   0  0  0  0  0  0  0  0  0  0  0  0
    0.7297    3.1976   -0.7600 H   0  0  0  0  0  0  0  0  0  0  0  0
   -3.5533    2.6903   -0.6408 H   0  0  0  0  0  0  0  0  0  0  0  0
    2.2926   -4.0668    0.7620 H   0  0  0  0  0  0  0  0  0  0  0  0
    0.8970   -3.7035   -0.2436 H   0  0  0  0  0  0  0  0  0  0  0  0
    0.8993   -3.3272    1.5387 H   0  0  0  0  0  0  0  0  0  0  0  0
   -4.3160   -1.3526    1.3230 H   0  0  0  0  0  0  0  0  0  0  0  0
   -5.3383    1.6834   -1.5916 H   0  0  0  0  0  0  0  0  0  0  0  0
   -7.6828    1.0304   -1.4388 H   0  0  0  0  0  0  0  0  0  0  0  0
   -7.5973   -2.5890    1.3099 H   0  0  0  0  0  0  0  0  0  0  0  0
   -8.8245   -1.3429    0.9126 H   0  0  0  0  0  0  0  0  0  0  0  0
  1 14  1  0  0  0  0
  1 16  1  0  0  0  0
  2 12  1  0  0  0  0
  2 41  1  0  0  0  0
  3 13  1  0  0  0  0
  3 42  1  0  0  0  0
  4 15  1  0  0  0  0
  4 43  1  0  0  0  0
  5 18  1  0  0  0  0
  5 45  1  0  0  0  0
  6 20  1  0  0  0  0
  6 27  1  0  0  0  0
  7 19  1  0  0  0  0
  7 46  1  0  0  0  0
  8 23  1  0  0  0  0
  8 25  1  0  0  0  0
  9 24  2  0  0  0  0
 10 31  1  0  0  0  0
 10 54  1  0  0  0  0
 11 33  1  0  0  0  0
 11 55  1  0  0  0  0
 12 13  1  0  0  0  0
 12 14  1  0  0  0  0
 12 34  1  0  0  0  0
 13 15  1  0  0  0  0
 13 35  1  0  0  0  0
 14 17  1  0  0  0  0
 14 36  1  0  0  0  0
 15 16  1  0  0  0  0
 15 37  1  0  0  0  0
 16 18  1  0  0  0  0
 16 38  1  0  0  0  0
 17 19  1  0  0  0  0
 17 20  2  0  0  0  0
 18 39  1  0  0  0  0
 18 40  1  0  0  0  0
 19 21  2  0  0  0  0
 20 22  1  0  0  0  0
 21 23  1  0  0  0  0
 21 24  1  0  0  0  0
 22 23  2  0  0  0  0
 22 44  1  0  0  0  0
 24 26  1  0  0  0  0
 25 26  2  0  0  0  0
 25 28  1  0  0  0  0
 26 47  1  0  0  0  0
 27 48  1  0  0  0  0
 27 49  1  0  0  0  0
 27 50  1  0  0  0  0
 28 29  2  0  0  0  0
 28 30  1  0  0  0  0
 29 31  1  0  0  0  0
 29 51  1  0  0  0  0
 30 32  2  0  0  0  0
 30 52  1  0  0  0  0
 31 33  2  0  0  0  0
 32 33  1  0  0  0  0
 32 53  1  0  0  0  0
M  END
> <PUBCHEM_COMPOUND_CID>
442659

> <PUBCHEM_CONFORMER_RMSD>
0.8

> <PUBCHEM_CONFORMER_DIVERSEORDER>
5
10
31
30
38
4
21
23
35
18
15
36
28
27
11
8
22
32
17
20
39
37
29
14
3
24
25
16
9
34
7
12
2
13
19
33
6
26
1

> <PUBCHEM_MMFF94_PARTIAL_CHARGES>
45
1 -0.56
10 -0.53
11 -0.53
12 0.28
13 0.28
14 0.42
15 0.28
16 0.28
17 -0.14
18 0.28
19 0.08
2 -0.68
20 0.08
21 0.09
22 -0.15
23 0.08
24 0.47
25 0.05
26 -0.14
27 0.28
28 0.03
29 -0.15
3 -0.68
30 -0.15
31 0.08
32 -0.15
33 0.08
4 -0.68
41 0.4
42 0.4
43 0.4
44 0.15
45 0.4
46 0.45
47 0.15
5 -0.68
51 0.15
52 0.15
53 0.15
54 0.45
55 0.45
6 -0.36
7 -0.53
8 -0.16
9 -0.57

> <PUBCHEM_EFFECTIVE_ROTOR_COUNT>
5.2

> <PUBCHEM_PHARMACOPHORE_FEATURES>
19
1 1 acceptor
1 10 donor
1 11 donor
1 2 acceptor
1 2 donor
1 3 acceptor
1 3 donor
1 4 acceptor
1 4 donor
1 5 acceptor
1 5 donor
1 6 acceptor
1 7 donor
1 8 acceptor
1 9 acceptor
6 1 12 13 14 15 16 rings
6 17 19 20 21 22 23 rings
6 28 29 30 31 32 33 rings
6 8 21 23 24 25 26 rings

> <PUBCHEM_HEAVY_ATOM_COUNT>
33

> <PUBCHEM_ATOM_DEF_STEREO_COUNT>
5

> <PUBCHEM_ATOM_UDEF_STEREO_COUNT>
0

> <PUBCHEM_BOND_DEF_STEREO_COUNT>
0

> <PUBCHEM_BOND_UDEF_STEREO_COUNT>
0

> <PUBCHEM_ISOTOPIC_ATOM_COUNT>
0

> <PUBCHEM_COMPONENT_COUNT>
1

> <PUBCHEM_CACTVS_TAUTO_COUNT>
57

> <PUBCHEM_CONFORMER_ID>
0006C12300000005

> <PUBCHEM_MMFF94_ENERGY>
115.4623

> <PUBCHEM_FEATURE_SELFOVERLAP>
96.487

> <PUBCHEM_SHAPE_FINGERPRINT>
10 15 18341902844304831736
10050765 1 18054232308228133853
10076449 9 18041267851752719318
10299344 5 16056884628623926099
10316853 100 18343300345011234978
11181472 205 14188753964665767295
11578080 2 16300099809150354090
11646440 116 18333730199955524417
11719270 70 18272092699094270515
11963148 33 18131077017212783291
12107698 1 15863789495807155075
12120059 9 18338536182903786583
12516196 113 18411140234415482189
12596602 18 17603300458396516323
12730499 353 18113901576740580934
13140716 1 18197784293000382056
13533116 47 17240481425308813254
13617811 41 18130783473588103356
13692114 37 18340773637062915123
13782708 43 18188205523903789078
14068700 675 17561081414886959421
14170010 4 18186803565195385960
14294032 229 17487054720056975245
14849402 71 16371297601821440049
14955137 171 18340486673539375765
15131766 46 16010181682117523344
15183329 4 13470695849641955601
15301273 46 18333450963173472833
15419008 47 18409173216123778569
15419008 91 18270983279336178205
15849732 13 18333733507633840623
18608769 82 18411982442905151570
18681886 176 18131630063271637276
19841028 212 16701475579708247434
20028762 73 18410009914264910975
21267235 1 18412823594685088717
21344244 181 17968366940344007534
21781051 124 17917415510865925211
22149856 69 18337938053125984089
22956985 138 17270901750943793458
23522609 53 16199574926655221109
23559900 14 18129661882055911681
23569914 152 16818286818305689693
23569943 247 17975122451021773434
24771293 8 18190475856855024568
2747138 104 18412258428839759809
3004659 81 17704352152383860325
3178227 256 18411135805607686257
335352 9 18342738490015582639
3383291 50 18342455912087443083
4093350 32 17240482528762253558
5104073 3 18266463281633564633

> <PUBCHEM_SHAPE_MULTIPOLES>
614.56
20.56
2.66
1.41
18.99
0.07
-0.04
7.31
1.57
-0.49
-0.15
-2.34
0.3
3.39

> <PUBCHEM_SHAPE_SELFOVERLAP>
1352.869

> <PUBCHEM_SHAPE_VOLUME>
328

> <PUBCHEM_COORDINATE_TYPE>
2
5
10

$$$$

