12031
  -OEChem-06261206252D

 24 24  0     0  0  0  0  0  0999 V2000
    4.5981    2.1900    0.0000 O   0  0  0  0  0  0  0  0  0  0  0  0
    5.4641    0.6900    0.0000 O   0  0  0  0  0  0  0  0  0  0  0  0
    4.5981   -0.8100    0.0000 O   0  0  0  0  0  0  0  0  0  0  0  0
    2.8660    2.1900    0.0000 O   0  0  0  0  0  0  0  0  0  0  0  0
    2.8660    0.1900    0.0000 C   0  0  0  0  0  0  0  0  0  0  0  0
    3.7320    0.6900    0.0000 C   0  0  0  0  0  0  0  0  0  0  0  0
    2.8660   -0.8100    0.0000 C   0  0  0  0  0  0  0  0  0  0  0  0
    2.0000   -1.3100    0.0000 C   0  0  0  0  0  0  0  0  0  0  0  0
    3.7320   -1.3100    0.0000 C   0  0  0  0  0  0  0  0  0  0  0  0
    3.7320    1.6900    0.0000 C   0  0  0  0  0  0  0  0  0  0  0  0
    4.5981    0.1900    0.0000 C   0  0  0  0  0  0  0  0  0  0  0  0
    2.0000   -2.3100    0.0000 C   0  0  0  0  0  0  0  0  0  0  0  0
    3.7320   -2.3100    0.0000 C   0  0  0  0  0  0  0  0  0  0  0  0
    2.8660   -2.8100    0.0000 C   0  0  0  0  0  0  0  0  0  0  0  0
    2.6540    0.7726    0.0000 H   0  0  0  0  0  0  0  0  0  0  0  0
    2.2554    0.0823    0.0000 H   0  0  0  0  0  0  0  0  0  0  0  0
    3.7320    0.0700    0.0000 H   0  0  0  0  0  0  0  0  0  0  0  0
    1.4631   -1.0000    0.0000 H   0  0  0  0  0  0  0  0  0  0  0  0
    4.2690   -1.0000    0.0000 H   0  0  0  0  0  0  0  0  0  0  0  0
    1.4631   -2.6200    0.0000 H   0  0  0  0  0  0  0  0  0  0  0  0
    4.2690   -2.6200    0.0000 H   0  0  0  0  0  0  0  0  0  0  0  0
    2.8660   -3.4300    0.0000 H   0  0  0  0  0  0  0  0  0  0  0  0
    4.5981    2.8100    0.0000 H   0  0  0  0  0  0  0  0  0  0  0  0
    6.0010    0.3800    0.0000 H   0  0  0  0  0  0  0  0  0  0  0  0
  1 10  1  0  0  0  0
  1 23  1  0  0  0  0
  2 11  1  0  0  0  0
  2 24  1  0  0  0  0
  3 11  2  0  0  0  0
  4 10  2  0  0  0  0
  5  6  1  0  0  0  0
  5  7  1  0  0  0  0
  5 15  1  0  0  0  0
  5 16  1  0  0  0  0
  6 10  1  0  0  0  0
  6 11  1  0  0  0  0
  6 17  1  0  0  0  0
  7  8  2  0  0  0  0
  7  9  1  0  0  0  0
  8 12  1  0  0  0  0
  8 18  1  0  0  0  0
  9 13  2  0  0  0  0
  9 19  1  0  0  0  0
 12 14  2  0  0  0  0
 12 20  1  0  0  0  0
 13 14  1  0  0  0  0
 13 21  1  0  0  0  0
 14 22  1  0  0  0  0
M  END
> <PUBCHEM_COMPOUND_CID>
12031

> <PUBCHEM_COMPOUND_CANONICALIZED>
1

> <PUBCHEM_CACTVS_COMPLEXITY>
204

> <PUBCHEM_CACTVS_HBOND_ACCEPTOR>
4

> <PUBCHEM_CACTVS_HBOND_DONOR>
2

> <PUBCHEM_CACTVS_ROTATABLE_BOND>
4

> <PUBCHEM_CACTVS_SUBSKEYS>
AAADccBwOAAAAAAAAAAAAAAAAAAAAAAAAAAwAAAAAAAAAAABAAAAGgAACAAADQCAmAAwCIAAAgCIAiDSCAACAAAgAAAIiAEAAIgIIDaIERCAYAAloAAIiAeIyOCOAAAAAAAAAAAAAAAAAAAAAAAAAAAAAA==

> <PUBCHEM_IUPAC_OPENEYE_NAME>
2-benzylpropanedioic acid

> <PUBCHEM_IUPAC_CAS_NAME>
2-(phenylmethyl)propanedioic acid

> <PUBCHEM_IUPAC_NAME>
2-benzylpropanedioic acid

> <PUBCHEM_IUPAC_SYSTEMATIC_NAME>
2-(phenylmethyl)propanedioic acid

> <PUBCHEM_IUPAC_TRADITIONAL_NAME>
2-benzylmalonic acid

> <PUBCHEM_IUPAC_INCHI>
InChI=1S/C10H10O4/c11-9(12)8(10(13)14)6-7-4-2-1-3-5-7/h1-5,8H,6H2,(H,11,12)(H,13,14)

> <PUBCHEM_IUPAC_INCHIKEY>
JAEJSNFTJMYIEF-UHFFFAOYSA-N

> <PUBCHEM_XLOGP3_AA>
1.5

> <PUBCHEM_EXACT_MASS>
194.057909

> <PUBCHEM_MOLECULAR_FORMULA>
C10H10O4

> <PUBCHEM_MOLECULAR_WEIGHT>
194.184

> <PUBCHEM_OPENEYE_CAN_SMILES>
C1=CC=C(C=C1)CC(C(=O)O)C(=O)O

> <PUBCHEM_OPENEYE_ISO_SMILES>
C1=CC=C(C=C1)CC(C(=O)O)C(=O)O

> <PUBCHEM_CACTVS_TPSA>
74.6

> <PUBCHEM_MONOISOTOPIC_WEIGHT>
194.057909

> <PUBCHEM_TOTAL_CHARGE>
0

> <PUBCHEM_HEAVY_ATOM_COUNT>
14

> <PUBCHEM_ATOM_DEF_STEREO_COUNT>
0

> <PUBCHEM_ATOM_UDEF_STEREO_COUNT>
0

> <PUBCHEM_BOND_DEF_STEREO_COUNT>
0

> <PUBCHEM_BOND_UDEF_STEREO_COUNT>
0

> <PUBCHEM_ISOTOPIC_ATOM_COUNT>
0

> <PUBCHEM_COMPONENT_COUNT>
1

> <PUBCHEM_CACTVS_TAUTO_COUNT>
1

> <PUBCHEM_COORDINATE_TYPE>
1
5
255

> <PUBCHEM_BONDANNOTATIONS>
12  14  8
13  14  8
7  8  8
7  9  8
8  12  8
9  13  8

$$$$

