49787012
  -OEChem-07051212522D

 52 57  0     1  0  0  0  0  0999 V2000
    1.0694    0.6792    0.0000 O   0  0  0  0  0  0  0  0  0  0  0  0
    2.3837    3.3698    0.0000 O   0  0  0  0  0  0  0  0  0  0  0  0
    2.7543    4.7185    0.0000 O   0  0  0  0  0  0  0  0  0  0  0  0
   10.0399   -1.4536    0.0000 O   0  0  0  0  0  0  0  0  0  0  0  0
    7.9920   -3.4903    0.0000 O   0  0  0  0  0  0  0  0  0  0  0  0
    6.6648    2.1918    0.0000 O   0  0  0  0  0  0  0  0  0  0  0  0
    4.6302   -1.3322    0.0000 O   0  0  0  0  0  0  0  0  0  0  0  0
    6.1998   -2.2881    0.0000 O   0  0  0  0  0  0  0  0  0  0  0  0
    8.2774    1.3105    0.0000 O   0  0  0  0  0  0  0  0  0  0  0  0
    8.8887   -5.1569    0.0000 O   0  0  0  0  0  0  0  0  0  0  0  0
    2.6425    2.4039    0.0000 C   0  0  1  0  0  0  0  0  0  0  0  0
    3.0131    3.7526    0.0000 C   0  0  1  0  0  0  0  0  0  0  0  0
    2.9013    1.4380    0.0000 C   0  0  2  0  0  0  0  0  0  0  0  0
    0.8105    1.6451    0.0000 C   0  0  1  0  0  0  0  0  0  0  0  0
    5.1334    1.3040    0.0000 C   0  0  0  0  0  0  0  0  0  0  0  0
    3.8791    3.2526    0.0000 C   0  0  0  0  0  0  0  0  0  0  0  0
    4.6334    0.4380    0.0000 C   0  0  0  0  0  0  0  0  0  0  0  0
    6.1749    1.3201    0.0000 C   0  0  0  0  0  0  0  0  0  0  0  0
    5.1402   -0.4720    0.0000 C   0  0  0  0  0  0  0  0  0  0  0  0
    6.7026    0.4220    0.0000 C   0  0  0  0  0  0  0  0  0  0  0  0
    6.1818   -0.4800    0.0000 C   0  0  0  0  0  0  0  0  0  0  0  0
   -0.0555    2.1451    0.0000 C   0  0  0  0  0  0  0  0  0  0  0  0
    8.3446   -2.4236    0.0000 C   0  0  1  0  0  0  0  0  0  0  0  0
    7.7947   -1.4363    0.0000 C   0  0  0  0  0  0  0  0  0  0  0  0
    9.4748   -2.4324    0.0000 C   0  0  2  0  0  0  0  0  0  0  0  0
    8.3372   -0.4967    0.0000 C   0  0  0  0  0  0  0  0  0  0  0  0
    6.7098   -1.4279    0.0000 C   0  0  0  0  0  0  0  0  0  0  0  0
    7.7875    0.4388    0.0000 C   0  0  0  0  0  0  0  0  0  0  0  0
    9.4672   -0.4792    0.0000 C   0  0  2  0  0  0  0  0  0  0  0  0
    9.8109   -3.5044    0.0000 C   0  0  0  0  0  0  0  0  0  0  0  0
    8.8964   -4.1569    0.0000 C   0  0  0  0  0  0  0  0  0  0  0  0
    9.9572    0.3925    0.0000 C   0  0  0  0  0  0  0  0  0  0  0  0
    2.3931    3.7545    0.0000 H   0  0  0  0  0  0  0  0  0  0  0  0
    3.1213    0.6169    0.0000 H   0  0  0  0  0  0  0  0  0  0  0  0
    0.3187    1.2677    0.0000 H   0  0  0  0  0  0  0  0  0  0  0  0
    4.1838    3.7925    0.0000 H   0  0  0  0  0  0  0  0  0  0  0  0
    4.4220    2.9531    0.0000 H   0  0  0  0  0  0  0  0  0  0  0  0
   -0.3655    1.6082    0.0000 H   0  0  0  0  0  0  0  0  0  0  0  0
   -0.5924    2.4551    0.0000 H   0  0  0  0  0  0  0  0  0  0  0  0
    0.2545    2.6820    0.0000 H   0  0  0  0  0  0  0  0  0  0  0  0
    7.4984   -2.5038    0.0000 H   0  0  0  0  0  0  0  0  0  0  0  0
   10.3196   -2.5256    0.0000 H   0  0  0  0  0  0  0  0  0  0  0  0
    1.7848    3.5303    0.0000 H   0  0  0  0  0  0  0  0  0  0  0  0
   10.0872   -0.4733    0.0000 H   0  0  0  0  0  0  0  0  0  0  0  0
    3.1927    5.1569    0.0000 H   0  0  0  0  0  0  0  0  0  0  0  0
   10.3797   -3.2577    0.0000 H   0  0  0  0  0  0  0  0  0  0  0  0
   10.1160   -4.0441    0.0000 H   0  0  0  0  0  0  0  0  0  0  0  0
    9.4167    0.6963    0.0000 H   0  0  0  0  0  0  0  0  0  0  0  0
   10.2610    0.9330    0.0000 H   0  0  0  0  0  0  0  0  0  0  0  0
   10.4977    0.0887    0.0000 H   0  0  0  0  0  0  0  0  0  0  0  0
    6.5035   -2.8286    0.0000 H   0  0  0  0  0  0  0  0  0  0  0  0
    8.8974    1.3177    0.0000 H   0  0  0  0  0  0  0  0  0  0  0  0
  1 13  1  0  0  0  0
  1 14  1  0  0  0  0
 11  2  1  6  0  0  0
  2 43  1  0  0  0  0
 12  3  1  6  0  0  0
  3 45  1  0  0  0  0
  4 25  1  0  0  0  0
  4 29  1  0  0  0  0
  5 23  1  0  0  0  0
  5 31  1  0  0  0  0
  6 18  2  0  0  0  0
  7 19  2  0  0  0  0
  8 27  1  0  0  0  0
  8 51  1  0  0  0  0
  9 28  1  0  0  0  0
  9 52  1  0  0  0  0
 10 31  2  0  0  0  0
 11 12  1  0  0  0  0
 11 14  1  0  0  0  0
 11 15  1  0  0  0  0
 12 16  1  0  0  0  0
 12 33  1  0  0  0  0
 13 16  1  0  0  0  0
 13 17  1  0  0  0  0
 13 34  1  1  0  0  0
 14 22  1  6  0  0  0
 14 35  1  0  0  0  0
 15 17  2  0  0  0  0
 15 18  1  0  0  0  0
 16 36  1  0  0  0  0
 16 37  1  0  0  0  0
 17 19  1  0  0  0  0
 18 20  1  0  0  0  0
 19 21  1  0  0  0  0
 20 21  1  0  0  0  0
 20 28  2  0  0  0  0
 21 27  2  0  0  0  0
 22 38  1  0  0  0  0
 22 39  1  0  0  0  0
 22 40  1  0  0  0  0
 23 24  1  0  0  0  0
 23 25  1  0  0  0  0
 23 41  1  6  0  0  0
 24 26  2  0  0  0  0
 24 27  1  0  0  0  0
 25 30  1  0  0  0  0
 25 42  1  6  0  0  0
 26 28  1  0  0  0  0
 26 29  1  0  0  0  0
 29 32  1  6  0  0  0
 29 44  1  0  0  0  0
 30 31  1  0  0  0  0
 30 46  1  0  0  0  0
 30 47  1  0  0  0  0
 32 48  1  0  0  0  0
 32 49  1  0  0  0  0
 32 50  1  0  0  0  0
M  END
> <PUBCHEM_COMPOUND_CID>
49787012

> <PUBCHEM_COMPOUND_CANONICALIZED>
1

> <PUBCHEM_CACTVS_COMPLEXITY>
958

> <PUBCHEM_CACTVS_HBOND_ACCEPTOR>
10

> <PUBCHEM_CACTVS_HBOND_DONOR>
4

> <PUBCHEM_CACTVS_ROTATABLE_BOND>
0

> <PUBCHEM_CACTVS_SUBSKEYS>
AAADceB4PAAAAAAAAAAAAAAAAAAAASAAAAA0SIECAAAAAEiRAAAAGgAACAAADFSgmAICDoAABgCIAoDQCAACAAAkIAAAiAEECMgJNzaCNBqCcUAl4BELuQfL7PzOwQADAAAYAACCAAYAADAAAAAAAAAAAA==

> <PUBCHEM_IUPAC_INCHI>
InChI=1S/C22H20O10/c1-5-11-15(21-8(30-5)4-10(24)32-21)19(27)13-14(17(11)25)20(28)16-12(18(13)26)7-3-9(23)22(16,29)6(2)31-7/h5-9,21,23,25,27,29H,3-4H2,1-2H3/t5-,6+,7+,8-,9+,21+,22+/m0/s1

> <PUBCHEM_IUPAC_INCHIKEY>
ONQCWTVJMHJRFM-LHKCJDRRSA-N

> <PUBCHEM_XLOGP3_AA>
-0.4

> <PUBCHEM_EXACT_MASS>
444.105647

> <PUBCHEM_MOLECULAR_FORMULA>
C22H20O10

> <PUBCHEM_MOLECULAR_WEIGHT>
444.3882

> <PUBCHEM_OPENEYE_CAN_SMILES>
CC1C2=C(C3=C(C(=C2C4C(O1)CC(=O)O4)O)C(=O)C5=C(C3=O)C6(C(OC5CC6O)C)O)O

> <PUBCHEM_OPENEYE_ISO_SMILES>
C[C@H]1C2=C(C3=C(C(=C2[C@H]4[C@@H](O1)CC(=O)O4)O)C(=O)C5=C(C3=O)[C@]6([C@H](O[C@@H]5C[C@H]6O)C)O)O

> <PUBCHEM_CACTVS_TPSA>
160

> <PUBCHEM_MONOISOTOPIC_WEIGHT>
444.105647

> <PUBCHEM_TOTAL_CHARGE>
0

> <PUBCHEM_HEAVY_ATOM_COUNT>
32

> <PUBCHEM_ATOM_DEF_STEREO_COUNT>
7

> <PUBCHEM_ATOM_UDEF_STEREO_COUNT>
0

> <PUBCHEM_BOND_DEF_STEREO_COUNT>
0

> <PUBCHEM_BOND_UDEF_STEREO_COUNT>
0

> <PUBCHEM_ISOTOPIC_ATOM_COUNT>
0

> <PUBCHEM_COMPONENT_COUNT>
1

> <PUBCHEM_CACTVS_TAUTO_COUNT>
30

> <PUBCHEM_COORDINATE_TYPE>
1
5
255

> <PUBCHEM_BONDANNOTATIONS>
13  34  5
14  22  6
11  2  6
20  21  8
20  28  8
21  27  8
23  41  6
24  26  8
24  27  8
25  42  6
26  28  8
29  32  6
12  3  6

$$$$

