53297330
  -OEChem-07051212462D

148147  0     0  0  0  0  0  0999 V2000
   22.7846    0.4400    0.0000 C   0  0  0  0  0  0  0  0  0  0  0  0
   19.3205    0.4400    0.0000 C   0  0  0  0  0  0  0  0  0  0  0  0
   26.2487    0.4400    0.0000 C   0  0  0  0  0  0  0  0  0  0  0  0
   15.8564    0.4400    0.0000 C   0  0  0  0  0  0  0  0  0  0  0  0
   21.9186   -0.0600    0.0000 C   0  0  0  0  0  0  0  0  0  0  0  0
   18.4545   -0.0600    0.0000 C   0  0  0  0  0  0  0  0  0  0  0  0
   25.3827   -0.0600    0.0000 C   0  0  0  0  0  0  0  0  0  0  0  0
   14.9904   -0.0600    0.0000 C   0  0  0  0  0  0  0  0  0  0  0  0
   29.7128    0.4400    0.0000 C   0  0  0  0  0  0  0  0  0  0  0  0
   20.1865   -0.0600    0.0000 C   0  0  0  0  0  0  0  0  0  0  0  0
   12.3923    0.4400    0.0000 C   0  0  0  0  0  0  0  0  0  0  0  0
   23.6506   -0.0600    0.0000 C   0  0  0  0  0  0  0  0  0  0  0  0
   28.8468   -0.0600    0.0000 C   0  0  0  0  0  0  0  0  0  0  0  0
   16.7224   -0.0600    0.0000 C   0  0  0  0  0  0  0  0  0  0  0  0
   27.1147   -0.0600    0.0000 C   0  0  0  0  0  0  0  0  0  0  0  0
   11.5263   -0.0600    0.0000 C   0  0  0  0  0  0  0  0  0  0  0  0
   13.2583   -0.0600    0.0000 C   0  0  0  0  0  0  0  0  0  0  0  0
   21.0526    0.4400    0.0000 C   0  0  0  0  0  0  0  0  0  0  0  0
   30.5788   -0.0600    0.0000 C   0  0  0  0  0  0  0  0  0  0  0  0
   24.5167    0.4400    0.0000 C   0  0  0  0  0  0  0  0  0  0  0  0
   17.5885    0.4400    0.0000 C   0  0  0  0  0  0  0  0  0  0  0  0
   32.3109   -0.0600    0.0000 C   0  0  0  0  0  0  0  0  0  0  0  0
   27.9808    0.4400    0.0000 C   0  0  0  0  0  0  0  0  0  0  0  0
   14.1244    0.4400    0.0000 C   0  0  0  0  0  0  0  0  0  0  0  0
   33.1769    0.4400    0.0000 C   0  0  0  0  0  0  0  0  0  0  0  0
    8.9282    0.4400    0.0000 C   0  0  0  0  0  0  0  0  0  0  0  0
    9.7942   -0.0600    0.0000 C   0  0  0  0  0  0  0  0  0  0  0  0
   31.4449    0.4400    0.0000 C   0  0  0  0  0  0  0  0  0  0  0  0
   10.6603    0.4400    0.0000 C   0  0  0  0  0  0  0  0  0  0  0  0
    8.0622   -0.0600    0.0000 C   0  0  0  0  0  0  0  0  0  0  0  0
   34.0429   -0.0600    0.0000 C   0  0  0  0  0  0  0  0  0  0  0  0
   20.1865   -1.0600    0.0000 C   0  0  0  0  0  0  0  0  0  0  0  0
   23.6506   -1.0600    0.0000 C   0  0  0  0  0  0  0  0  0  0  0  0
   16.7224   -1.0600    0.0000 C   0  0  0  0  0  0  0  0  0  0  0  0
   27.1147   -1.0600    0.0000 C   0  0  0  0  0  0  0  0  0  0  0  0
   35.7750   -0.0600    0.0000 C   0  0  0  0  0  0  0  0  0  0  0  0
   13.2583   -1.0600    0.0000 C   0  0  0  0  0  0  0  0  0  0  0  0
   34.9090    0.4400    0.0000 C   0  0  0  0  0  0  0  0  0  0  0  0
    7.1962    0.4400    0.0000 C   0  0  0  0  0  0  0  0  0  0  0  0
   30.5788   -1.0600    0.0000 C   0  0  0  0  0  0  0  0  0  0  0  0
    6.3301   -0.0600    0.0000 C   0  0  0  0  0  0  0  0  0  0  0  0
   36.6410    0.4400    0.0000 C   0  0  0  0  0  0  0  0  0  0  0  0
    5.4641    0.4400    0.0000 C   0  0  0  0  0  0  0  0  0  0  0  0
    9.7942   -1.0600    0.0000 C   0  0  0  0  0  0  0  0  0  0  0  0
   34.0429   -1.0600    0.0000 C   0  0  0  0  0  0  0  0  0  0  0  0
    4.5981   -0.0600    0.0000 C   0  0  0  0  0  0  0  0  0  0  0  0
   37.5070   -0.0600    0.0000 C   0  0  0  0  0  0  0  0  0  0  0  0
    6.3301   -1.0600    0.0000 C   0  0  0  0  0  0  0  0  0  0  0  0
   38.3731    0.4400    0.0000 C   0  0  0  0  0  0  0  0  0  0  0  0
    3.7320    0.4400    0.0000 C   0  0  0  0  0  0  0  0  0  0  0  0
   37.5070   -1.0600    0.0000 C   0  0  0  0  0  0  0  0  0  0  0  0
   39.2391   -0.0600    0.0000 C   0  0  0  0  0  0  0  0  0  0  0  0
    2.8660   -0.0600    0.0000 C   0  0  0  0  0  0  0  0  0  0  0  0
   40.1051    0.4400    0.0000 C   0  0  0  0  0  0  0  0  0  0  0  0
    2.0000    0.4400    0.0000 C   0  0  0  0  0  0  0  0  0  0  0  0
    2.8660   -1.0600    0.0000 C   0  0  0  0  0  0  0  0  0  0  0  0
   23.1831    0.9149    0.0000 H   0  0  0  0  0  0  0  0  0  0  0  0
   22.3861    0.9149    0.0000 H   0  0  0  0  0  0  0  0  0  0  0  0
   19.7190    0.9149    0.0000 H   0  0  0  0  0  0  0  0  0  0  0  0
   18.9220    0.9149    0.0000 H   0  0  0  0  0  0  0  0  0  0  0  0
   26.6472    0.9149    0.0000 H   0  0  0  0  0  0  0  0  0  0  0  0
   25.8502    0.9149    0.0000 H   0  0  0  0  0  0  0  0  0  0  0  0
   16.2549    0.9149    0.0000 H   0  0  0  0  0  0  0  0  0  0  0  0
   15.4579    0.9149    0.0000 H   0  0  0  0  0  0  0  0  0  0  0  0
   21.5201   -0.5349    0.0000 H   0  0  0  0  0  0  0  0  0  0  0  0
   22.3171   -0.5349    0.0000 H   0  0  0  0  0  0  0  0  0  0  0  0
   18.0560   -0.5349    0.0000 H   0  0  0  0  0  0  0  0  0  0  0  0
   18.8530   -0.5349    0.0000 H   0  0  0  0  0  0  0  0  0  0  0  0
   24.9842   -0.5349    0.0000 H   0  0  0  0  0  0  0  0  0  0  0  0
   25.7812   -0.5349    0.0000 H   0  0  0  0  0  0  0  0  0  0  0  0
   14.5919   -0.5349    0.0000 H   0  0  0  0  0  0  0  0  0  0  0  0
   15.3889   -0.5349    0.0000 H   0  0  0  0  0  0  0  0  0  0  0  0
   30.1113    0.9149    0.0000 H   0  0  0  0  0  0  0  0  0  0  0  0
   29.3143    0.9149    0.0000 H   0  0  0  0  0  0  0  0  0  0  0  0
   12.7908    0.9149    0.0000 H   0  0  0  0  0  0  0  0  0  0  0  0
   11.9938    0.9149    0.0000 H   0  0  0  0  0  0  0  0  0  0  0  0
   28.4483   -0.5349    0.0000 H   0  0  0  0  0  0  0  0  0  0  0  0
   29.2453   -0.5349    0.0000 H   0  0  0  0  0  0  0  0  0  0  0  0
   11.1278   -0.5349    0.0000 H   0  0  0  0  0  0  0  0  0  0  0  0
   11.9248   -0.5349    0.0000 H   0  0  0  0  0  0  0  0  0  0  0  0
   21.0526    1.0600    0.0000 H   0  0  0  0  0  0  0  0  0  0  0  0
   24.5167    1.0600    0.0000 H   0  0  0  0  0  0  0  0  0  0  0  0
   17.5885    1.0600    0.0000 H   0  0  0  0  0  0  0  0  0  0  0  0
   31.9124   -0.5349    0.0000 H   0  0  0  0  0  0  0  0  0  0  0  0
   32.7094   -0.5349    0.0000 H   0  0  0  0  0  0  0  0  0  0  0  0
   27.9808    1.0600    0.0000 H   0  0  0  0  0  0  0  0  0  0  0  0
   14.1244    1.0600    0.0000 H   0  0  0  0  0  0  0  0  0  0  0  0
   33.5754    0.9149    0.0000 H   0  0  0  0  0  0  0  0  0  0  0  0
   32.7784    0.9149    0.0000 H   0  0  0  0  0  0  0  0  0  0  0  0
    9.3267    0.9149    0.0000 H   0  0  0  0  0  0  0  0  0  0  0  0
    8.5297    0.9149    0.0000 H   0  0  0  0  0  0  0  0  0  0  0  0
   31.4449    1.0600    0.0000 H   0  0  0  0  0  0  0  0  0  0  0  0
   10.6603    1.0600    0.0000 H   0  0  0  0  0  0  0  0  0  0  0  0
    7.6636   -0.5349    0.0000 H   0  0  0  0  0  0  0  0  0  0  0  0
    8.4607   -0.5349    0.0000 H   0  0  0  0  0  0  0  0  0  0  0  0
   19.5665   -1.0600    0.0000 H   0  0  0  0  0  0  0  0  0  0  0  0
   20.1865   -1.6800    0.0000 H   0  0  0  0  0  0  0  0  0  0  0  0
   20.8065   -1.0600    0.0000 H   0  0  0  0  0  0  0  0  0  0  0  0
   23.0306   -1.0600    0.0000 H   0  0  0  0  0  0  0  0  0  0  0  0
   23.6506   -1.6800    0.0000 H   0  0  0  0  0  0  0  0  0  0  0  0
   24.2706   -1.0600    0.0000 H   0  0  0  0  0  0  0  0  0  0  0  0
   16.1024   -1.0600    0.0000 H   0  0  0  0  0  0  0  0  0  0  0  0
   16.7224   -1.6800    0.0000 H   0  0  0  0  0  0  0  0  0  0  0  0
   17.3424   -1.0600    0.0000 H   0  0  0  0  0  0  0  0  0  0  0  0
   26.4947   -1.0600    0.0000 H   0  0  0  0  0  0  0  0  0  0  0  0
   27.1147   -1.6800    0.0000 H   0  0  0  0  0  0  0  0  0  0  0  0
   27.7347   -1.0600    0.0000 H   0  0  0  0  0  0  0  0  0  0  0  0
   35.3765   -0.5349    0.0000 H   0  0  0  0  0  0  0  0  0  0  0  0
   36.1735   -0.5349    0.0000 H   0  0  0  0  0  0  0  0  0  0  0  0
   12.6383   -1.0600    0.0000 H   0  0  0  0  0  0  0  0  0  0  0  0
   13.2583   -1.6800    0.0000 H   0  0  0  0  0  0  0  0  0  0  0  0
   13.8783   -1.0600    0.0000 H   0  0  0  0  0  0  0  0  0  0  0  0
   34.9090    1.0600    0.0000 H   0  0  0  0  0  0  0  0  0  0  0  0
    7.1962    1.0600    0.0000 H   0  0  0  0  0  0  0  0  0  0  0  0
   29.9588   -1.0600    0.0000 H   0  0  0  0  0  0  0  0  0  0  0  0
   30.5788   -1.6800    0.0000 H   0  0  0  0  0  0  0  0  0  0  0  0
   31.1988   -1.0600    0.0000 H   0  0  0  0  0  0  0  0  0  0  0  0
   37.0395    0.9149    0.0000 H   0  0  0  0  0  0  0  0  0  0  0  0
   36.2425    0.9149    0.0000 H   0  0  0  0  0  0  0  0  0  0  0  0
    5.8626    0.9149    0.0000 H   0  0  0  0  0  0  0  0  0  0  0  0
    5.0656    0.9149    0.0000 H   0  0  0  0  0  0  0  0  0  0  0  0
    9.1742   -1.0600    0.0000 H   0  0  0  0  0  0  0  0  0  0  0  0
    9.7942   -1.6800    0.0000 H   0  0  0  0  0  0  0  0  0  0  0  0
   10.4142   -1.0600    0.0000 H   0  0  0  0  0  0  0  0  0  0  0  0
   33.4229   -1.0600    0.0000 H   0  0  0  0  0  0  0  0  0  0  0  0
   34.0429   -1.6800    0.0000 H   0  0  0  0  0  0  0  0  0  0  0  0
   34.6629   -1.0600    0.0000 H   0  0  0  0  0  0  0  0  0  0  0  0
    4.1996   -0.5349    0.0000 H   0  0  0  0  0  0  0  0  0  0  0  0
    4.9966   -0.5349    0.0000 H   0  0  0  0  0  0  0  0  0  0  0  0
    5.7101   -1.0600    0.0000 H   0  0  0  0  0  0  0  0  0  0  0  0
    6.3301   -1.6800    0.0000 H   0  0  0  0  0  0  0  0  0  0  0  0
    6.9501   -1.0600    0.0000 H   0  0  0  0  0  0  0  0  0  0  0  0
   38.3731    1.0600    0.0000 H   0  0  0  0  0  0  0  0  0  0  0  0
    3.7320    1.0600    0.0000 H   0  0  0  0  0  0  0  0  0  0  0  0
   36.8870   -1.0600    0.0000 H   0  0  0  0  0  0  0  0  0  0  0  0
   37.5070   -1.6800    0.0000 H   0  0  0  0  0  0  0  0  0  0  0  0
   38.1270   -1.0600    0.0000 H   0  0  0  0  0  0  0  0  0  0  0  0
   38.8406   -0.5349    0.0000 H   0  0  0  0  0  0  0  0  0  0  0  0
   39.6376   -0.5349    0.0000 H   0  0  0  0  0  0  0  0  0  0  0  0
   40.4151   -0.0969    0.0000 H   0  0  0  0  0  0  0  0  0  0  0  0
   40.6421    0.7500    0.0000 H   0  0  0  0  0  0  0  0  0  0  0  0
   39.7951    0.9769    0.0000 H   0  0  0  0  0  0  0  0  0  0  0  0
    2.3100    0.9769    0.0000 H   0  0  0  0  0  0  0  0  0  0  0  0
    1.4631    0.7500    0.0000 H   0  0  0  0  0  0  0  0  0  0  0  0
    1.6900   -0.0969    0.0000 H   0  0  0  0  0  0  0  0  0  0  0  0
    2.2460   -1.0600    0.0000 H   0  0  0  0  0  0  0  0  0  0  0  0
    2.8660   -1.6800    0.0000 H   0  0  0  0  0  0  0  0  0  0  0  0
    3.4860   -1.0600    0.0000 H   0  0  0  0  0  0  0  0  0  0  0  0
  1  5  1  0  0  0  0
  1 12  1  0  0  0  0
  1 57  1  0  0  0  0
  1 58  1  0  0  0  0
  2  6  1  0  0  0  0
  2 10  1  0  0  0  0
  2 59  1  0  0  0  0
  2 60  1  0  0  0  0
  3  7  1  0  0  0  0
  3 15  1  0  0  0  0
  3 61  1  0  0  0  0
  3 62  1  0  0  0  0
  4  8  1  0  0  0  0
  4 14  1  0  0  0  0
  4 63  1  0  0  0  0
  4 64  1  0  0  0  0
  5 18  1  0  0  0  0
  5 65  1  0  0  0  0
  5 66  1  0  0  0  0
  6 21  1  0  0  0  0
  6 67  1  0  0  0  0
  6 68  1  0  0  0  0
  7 20  1  0  0  0  0
  7 69  1  0  0  0  0
  7 70  1  0  0  0  0
  8 24  1  0  0  0  0
  8 71  1  0  0  0  0
  8 72  1  0  0  0  0
  9 13  1  0  0  0  0
  9 19  1  0  0  0  0
  9 73  1  0  0  0  0
  9 74  1  0  0  0  0
 10 18  2  0  0  0  0
 10 32  1  0  0  0  0
 11 16  1  0  0  0  0
 11 17  1  0  0  0  0
 11 75  1  0  0  0  0
 11 76  1  0  0  0  0
 12 20  2  0  0  0  0
 12 33  1  0  0  0  0
 13 23  1  0  0  0  0
 13 77  1  0  0  0  0
 13 78  1  0  0  0  0
 14 21  2  0  0  0  0
 14 34  1  0  0  0  0
 15 23  2  0  0  0  0
 15 35  1  0  0  0  0
 16 29  1  0  0  0  0
 16 79  1  0  0  0  0
 16 80  1  0  0  0  0
 17 24  2  0  0  0  0
 17 37  1  0  0  0  0
 18 81  1  0  0  0  0
 19 28  2  0  0  0  0
 19 40  1  0  0  0  0
 20 82  1  0  0  0  0
 21 83  1  0  0  0  0
 22 25  1  0  0  0  0
 22 28  1  0  0  0  0
 22 84  1  0  0  0  0
 22 85  1  0  0  0  0
 23 86  1  0  0  0  0
 24 87  1  0  0  0  0
 25 31  1  0  0  0  0
 25 88  1  0  0  0  0
 25 89  1  0  0  0  0
 26 27  1  0  0  0  0
 26 30  1  0  0  0  0
 26 90  1  0  0  0  0
 26 91  1  0  0  0  0
 27 29  2  0  0  0  0
 27 44  1  0  0  0  0
 28 92  1  0  0  0  0
 29 93  1  0  0  0  0
 30 39  1  0  0  0  0
 30 94  1  0  0  0  0
 30 95  1  0  0  0  0
 31 38  2  0  0  0  0
 31 45  1  0  0  0  0
 32 96  1  0  0  0  0
 32 97  1  0  0  0  0
 32 98  1  0  0  0  0
 33 99  1  0  0  0  0
 33100  1  0  0  0  0
 33101  1  0  0  0  0
 34102  1  0  0  0  0
 34103  1  0  0  0  0
 34104  1  0  0  0  0
 35105  1  0  0  0  0
 35106  1  0  0  0  0
 35107  1  0  0  0  0
 36 38  1  0  0  0  0
 36 42  1  0  0  0  0
 36108  1  0  0  0  0
 36109  1  0  0  0  0
 37110  1  0  0  0  0
 37111  1  0  0  0  0
 37112  1  0  0  0  0
 38113  1  0  0  0  0
 39 41  2  0  0  0  0
 39114  1  0  0  0  0
 40115  1  0  0  0  0
 40116  1  0  0  0  0
 40117  1  0  0  0  0
 41 43  1  0  0  0  0
 41 48  1  0  0  0  0
 42 47  1  0  0  0  0
 42118  1  0  0  0  0
 42119  1  0  0  0  0
 43 46  1  0  0  0  0
 43120  1  0  0  0  0
 43121  1  0  0  0  0
 44122  1  0  0  0  0
 44123  1  0  0  0  0
 44124  1  0  0  0  0
 45125  1  0  0  0  0
 45126  1  0  0  0  0
 45127  1  0  0  0  0
 46 50  1  0  0  0  0
 46128  1  0  0  0  0
 46129  1  0  0  0  0
 47 49  2  0  0  0  0
 47 51  1  0  0  0  0
 48130  1  0  0  0  0
 48131  1  0  0  0  0
 48132  1  0  0  0  0
 49 52  1  0  0  0  0
 49133  1  0  0  0  0
 50 53  2  0  0  0  0
 50134  1  0  0  0  0
 51135  1  0  0  0  0
 51136  1  0  0  0  0
 51137  1  0  0  0  0
 52 54  1  0  0  0  0
 52138  1  0  0  0  0
 52139  1  0  0  0  0
 53 55  1  0  0  0  0
 53 56  1  0  0  0  0
 54140  1  0  0  0  0
 54141  1  0  0  0  0
 54142  1  0  0  0  0
 55143  1  0  0  0  0
 55144  1  0  0  0  0
 55145  1  0  0  0  0
 56146  1  0  0  0  0
 56147  1  0  0  0  0
 56148  1  0  0  0  0
M  END
> <PUBCHEM_COMPOUND_CID>
53297330

> <PUBCHEM_COMPOUND_CANONICALIZED>
1

> <PUBCHEM_CACTVS_COMPLEXITY>
1410

> <PUBCHEM_CACTVS_HBOND_ACCEPTOR>
0

> <PUBCHEM_CACTVS_HBOND_DONOR>
0

> <PUBCHEM_CACTVS_ROTATABLE_BOND>
31

> <PUBCHEM_CACTVS_SUBSKEYS>
AAADcfB8AAAAAAAAAAAAAAAAAAAAAAAAAAAAAAAAAAAAAAAAAAAAGAAAAAAADACAAAACAAAAAACAAiBCAAAAAAAgAAAACAAAAAgAAAIAAQAAAAAAgAAIAAIAAAAAAAAAAAAAAAAAAAAAAAAAAAAAAAAAAA==

> <PUBCHEM_IUPAC_OPENEYE_NAME>
(6E,10E,14E,18E,22E,26E,30E,34E,38E,42E)-2,6,10,14,18,22,26,30,34,38,42-undecamethylpentatetraconta-2,6,10,14,18,22,26,30,34,38,42-undecaene

> <PUBCHEM_IUPAC_CAS_NAME>
(6E,10E,14E,18E,22E,26E,30E,34E,38E,42E)-2,6,10,14,18,22,26,30,34,38,42-undecamethylpentatetraconta-2,6,10,14,18,22,26,30,34,38,42-undecaene

> <PUBCHEM_IUPAC_NAME>
(6E,10E,14E,18E,22E,26E,30E,34E,38E,42E)-2,6,10,14,18,22,26,30,34,38,42-undecamethylpentatetraconta-2,6,10,14,18,22,26,30,34,38,42-undecaene

> <PUBCHEM_IUPAC_SYSTEMATIC_NAME>
(6E,10E,14E,18E,22E,26E,30E,34E,38E,42E)-2,6,10,14,18,22,26,30,34,38,42-undecamethylpentatetraconta-2,6,10,14,18,22,26,30,34,38,42-undecaene

> <PUBCHEM_IUPAC_TRADITIONAL_NAME>
(6E,10E,14E,18E,22E,26E,30E,34E,38E,42E)-2,6,10,14,18,22,26,30,34,38,42-undecamethylpentatetraconta-2,6,10,14,18,22,26,30,34,38,42-undecaene

> <PUBCHEM_IUPAC_INCHI>
InChI=1S/C56H92/c1-14-25-47(4)28-16-29-49(6)32-18-33-51(8)36-20-37-53(10)40-22-41-55(12)44-24-45-56(13)43-23-42-54(11)39-21-38-52(9)35-19-34-50(7)31-17-30-48(5)27-15-26-46(2)3/h25-26,29-30,33-34,37-38,41-42,45H,14-24,27-28,31-32,35-36,39-40,43-44H2,1-13H3/b47-25+,48-30+,49-29+,50-34+,51-33+,52-38+,53-37+,54-42+,55-41+,56-45+

> <PUBCHEM_IUPAC_INCHIKEY>
VAJPCGVYTGDDAV-RPAYVJDFSA-N

> <PUBCHEM_XLOGP3_AA>
21.3

> <PUBCHEM_EXACT_MASS>
764.719903

> <PUBCHEM_MOLECULAR_FORMULA>
C56H92

> <PUBCHEM_MOLECULAR_WEIGHT>
765.32968

> <PUBCHEM_OPENEYE_CAN_SMILES>
CCC=C(C)CCC=C(C)CCC=C(C)CCC=C(C)CCC=C(C)CCC=C(C)CCC=C(C)CCC=C(C)CCC=C(C)CCC=C(C)CCC=C(C)C

> <PUBCHEM_OPENEYE_ISO_SMILES>
CC/C=C(\C)/CC/C=C(\C)/CC/C=C(\C)/CC/C=C(\C)/CC/C=C(\C)/CC/C=C(\C)/CC/C=C(\C)/CC/C=C(\C)/CC/C=C(\C)/CC/C=C(\C)/CCC=C(C)C

> <PUBCHEM_CACTVS_TPSA>
0

> <PUBCHEM_MONOISOTOPIC_WEIGHT>
764.719903

> <PUBCHEM_TOTAL_CHARGE>
0

> <PUBCHEM_HEAVY_ATOM_COUNT>
56

> <PUBCHEM_ATOM_DEF_STEREO_COUNT>
0

> <PUBCHEM_ATOM_UDEF_STEREO_COUNT>
0

> <PUBCHEM_BOND_DEF_STEREO_COUNT>
10

> <PUBCHEM_BOND_UDEF_STEREO_COUNT>
0

> <PUBCHEM_ISOTOPIC_ATOM_COUNT>
0

> <PUBCHEM_COMPONENT_COUNT>
1

> <PUBCHEM_CACTVS_TAUTO_COUNT>
1

> <PUBCHEM_COORDINATE_TYPE>
1
5
255

$$$$

