442744
  -OEChem-07051212592D

 47 50  0     1  0  0  0  0  0999 V2000
   10.8402   -1.1131    0.0000 O   0  0  0  0  0  0  0  0  0  0  0  0
   10.8114    1.4743    0.0000 O   0  0  0  0  0  0  0  0  0  0  0  0
    9.0602   -1.1995    0.0000 O   0  0  0  0  0  0  0  0  0  0  0  0
    9.2960    0.9632    0.0000 O   0  0  0  0  0  0  0  0  0  0  0  0
   12.7475    0.4887    0.0000 O   0  0  0  0  0  0  0  0  0  0  0  0
    7.2785    1.8592    0.0000 O   0  0  0  0  0  0  0  0  0  0  0  0
    5.5301   -2.1754    0.0000 O   0  0  0  0  0  0  0  0  0  0  0  0
    5.5301    1.8246    0.0000 O   0  0  0  0  0  0  0  0  0  0  0  0
    3.7817    1.8592    0.0000 O   0  0  0  0  0  0  0  0  0  0  0  0
   11.0155    0.4954    0.0000 C   0  0  1  0  0  0  0  0  0  0  0  0
   10.0366    0.2912    0.0000 C   0  0  2  0  0  0  0  0  0  0  0  0
    9.9282   -0.7029    0.0000 C   0  0  1  0  0  0  0  0  0  0  0  0
   11.5122   -0.3726    0.0000 C   0  0  0  0  0  0  0  0  0  0  0  0
   11.8834    0.9920    0.0000 C   0  0  0  0  0  0  0  0  0  0  0  0
    8.1962   -0.6962    0.0000 C   0  0  0  0  0  0  0  0  0  0  0  0
    6.3961   -0.6754    0.0000 C   0  0  0  0  0  0  0  0  0  0  0  0
    7.2901   -1.2100    0.0000 C   0  0  0  0  0  0  0  0  0  0  0  0
    6.3961    0.3246    0.0000 C   0  0  0  0  0  0  0  0  0  0  0  0
    8.1962    0.3454    0.0000 C   0  0  0  0  0  0  0  0  0  0  0  0
    7.2901    0.8593    0.0000 C   0  0  0  0  0  0  0  0  0  0  0  0
    4.6641   -0.6754    0.0000 C   0  0  0  0  0  0  0  0  0  0  0  0
    4.6641    0.3246    0.0000 C   0  0  0  0  0  0  0  0  0  0  0  0
    5.5301   -1.1754    0.0000 C   0  0  0  0  0  0  0  0  0  0  0  0
    5.5301    0.8246    0.0000 C   0  0  0  0  0  0  0  0  0  0  0  0
    3.7702   -1.2100    0.0000 C   0  0  0  0  0  0  0  0  0  0  0  0
    3.7702    0.8593    0.0000 C   0  0  0  0  0  0  0  0  0  0  0  0
    2.8641   -0.6962    0.0000 C   0  0  0  0  0  0  0  0  0  0  0  0
    2.8641    0.3454    0.0000 C   0  0  0  0  0  0  0  0  0  0  0  0
    2.0000   -1.1995    0.0000 C   0  0  0  0  0  0  0  0  0  0  0  0
   10.1993    0.8895    0.0000 H   0  0  0  0  0  0  0  0  0  0  0  0
    9.4095   -0.3632    0.0000 H   0  0  0  0  0  0  0  0  0  0  0  0
   11.9252   -0.8349    0.0000 H   0  0  0  0  0  0  0  0  0  0  0  0
   12.0152   -0.0101    0.0000 H   0  0  0  0  0  0  0  0  0  0  0  0
   12.2838    1.4654    0.0000 H   0  0  0  0  0  0  0  0  0  0  0  0
   11.4868    1.4685    0.0000 H   0  0  0  0  0  0  0  0  0  0  0  0
   11.2737    1.8874    0.0000 H   0  0  0  0  0  0  0  0  0  0  0  0
    9.4272    1.5692    0.0000 H   0  0  0  0  0  0  0  0  0  0  0  0
   13.2857    0.7966    0.0000 H   0  0  0  0  0  0  0  0  0  0  0  0
    7.2829   -1.8300    0.0000 H   0  0  0  0  0  0  0  0  0  0  0  0
    8.7319    0.6575    0.0000 H   0  0  0  0  0  0  0  0  0  0  0  0
    3.7773   -1.8300    0.0000 H   0  0  0  0  0  0  0  0  0  0  0  0
    2.3284    0.6575    0.0000 H   0  0  0  0  0  0  0  0  0  0  0  0
    7.8118    2.1754    0.0000 H   0  0  0  0  0  0  0  0  0  0  0  0
    1.6879   -0.6638    0.0000 H   0  0  0  0  0  0  0  0  0  0  0  0
    1.4643   -1.5116    0.0000 H   0  0  0  0  0  0  0  0  0  0  0  0
    2.3121   -1.7353    0.0000 H   0  0  0  0  0  0  0  0  0  0  0  0
    3.2484    2.1754    0.0000 H   0  0  0  0  0  0  0  0  0  0  0  0
  1 12  1  0  0  0  0
  1 13  1  0  0  0  0
 10  2  1  6  0  0  0
  2 36  1  0  0  0  0
 12  3  1  1  0  0  0
  3 15  1  0  0  0  0
 11  4  1  6  0  0  0
  4 37  1  0  0  0  0
  5 14  1  0  0  0  0
  5 38  1  0  0  0  0
  6 20  1  0  0  0  0
  6 43  1  0  0  0  0
  7 23  2  0  0  0  0
  8 24  2  0  0  0  0
  9 26  1  0  0  0  0
  9 47  1  0  0  0  0
 10 11  1  0  0  0  0
 10 13  1  0  0  0  0
 10 14  1  0  0  0  0
 11 12  1  0  0  0  0
 11 30  1  0  0  0  0
 12 31  1  0  0  0  0
 13 32  1  0  0  0  0
 13 33  1  0  0  0  0
 14 34  1  0  0  0  0
 14 35  1  0  0  0  0
 15 17  2  0  0  0  0
 15 19  1  0  0  0  0
 16 17  1  0  0  0  0
 16 18  2  0  0  0  0
 16 23  1  0  0  0  0
 17 39  1  0  0  0  0
 18 20  1  0  0  0  0
 18 24  1  0  0  0  0
 19 20  2  0  0  0  0
 19 40  1  0  0  0  0
 21 22  2  0  0  0  0
 21 23  1  0  0  0  0
 21 25  1  0  0  0  0
 22 24  1  0  0  0  0
 22 26  1  0  0  0  0
 25 27  2  0  0  0  0
 25 41  1  0  0  0  0
 26 28  2  0  0  0  0
 27 28  1  0  0  0  0
 27 29  1  0  0  0  0
 28 42  1  0  0  0  0
 29 44  1  0  0  0  0
 29 45  1  0  0  0  0
 29 46  1  0  0  0  0
M  END
> <PUBCHEM_COMPOUND_CID>
442744

> <PUBCHEM_COMPOUND_CANONICALIZED>
1

> <PUBCHEM_CACTVS_COMPLEXITY>
668

> <PUBCHEM_CACTVS_HBOND_ACCEPTOR>
9

> <PUBCHEM_CACTVS_HBOND_DONOR>
5

> <PUBCHEM_CACTVS_ROTATABLE_BOND>
3

> <PUBCHEM_CACTVS_SUBSKEYS>
AAADceB4PAAAAAAAAAAAAAAAAAAAASAAAAAwYMAAAAAAAADBQAAAGgAACAAADFSwmAMyDoAABgCIAqBSAAACCAAkIAAAiAEGCMgdNzaGNRqieWCl4BUPuYfL7PzO4AADCAAYAADAAAYQADAAAAAAAAAAAA==

> <PUBCHEM_IUPAC_OPENEYE_NAME>
3-[(2S,3R,4R)-3,4-dihydroxy-4-(hydroxymethyl)tetrahydrofuran-2-yl]oxy-1,8-dihydroxy-6-methyl-anthracene-9,10-dione

> <PUBCHEM_IUPAC_CAS_NAME>
3-[[(2S,3R,4R)-3,4-dihydroxy-4-(hydroxymethyl)-2-oxolanyl]oxy]-1,8-dihydroxy-6-methylanthracene-9,10-dione

> <PUBCHEM_IUPAC_NAME>
3-[(2S,3R,4R)-3,4-dihydroxy-4-(hydroxymethyl)oxolan-2-yl]oxy-1,8-dihydroxy-6-methylanthracene-9,10-dione

> <PUBCHEM_IUPAC_SYSTEMATIC_NAME>
3-[(2S,3R,4R)-4-(hydroxymethyl)-3,4-bis(oxidanyl)oxolan-2-yl]oxy-6-methyl-1,8-bis(oxidanyl)anthracene-9,10-dione

> <PUBCHEM_IUPAC_TRADITIONAL_NAME>
3-[(2S,3R,4R)-3,4-dihydroxy-4-methylol-tetrahydrofuran-2-yl]oxy-1,8-dihydroxy-6-methyl-9,10-anthraquinone

> <PUBCHEM_IUPAC_INCHI>
InChI=1S/C20H18O9/c1-8-2-10-14(12(22)3-8)17(25)15-11(16(10)24)4-9(5-13(15)23)29-19-18(26)20(27,6-21)7-28-19/h2-5,18-19,21-23,26-27H,6-7H2,1H3/t18-,19-,20+/m0/s1

> <PUBCHEM_IUPAC_INCHIKEY>
AEQMIFRODRFTJF-SLFFLAALSA-N

> <PUBCHEM_XLOGP3_AA>
1.3

> <PUBCHEM_EXACT_MASS>
402.095082

> <PUBCHEM_MOLECULAR_FORMULA>
C20H18O9

> <PUBCHEM_MOLECULAR_WEIGHT>
402.35152

> <PUBCHEM_OPENEYE_CAN_SMILES>
CC1=CC(=C2C(=C1)C(=O)C3=CC(=CC(=C3C2=O)O)OC4C(C(CO4)(CO)O)O)O

> <PUBCHEM_OPENEYE_ISO_SMILES>
CC1=CC(=C2C(=C1)C(=O)C3=CC(=CC(=C3C2=O)O)O[C@H]4[C@@H]([C@](CO4)(CO)O)O)O

> <PUBCHEM_CACTVS_TPSA>
154

> <PUBCHEM_MONOISOTOPIC_WEIGHT>
402.095082

> <PUBCHEM_TOTAL_CHARGE>
0

> <PUBCHEM_HEAVY_ATOM_COUNT>
29

> <PUBCHEM_ATOM_DEF_STEREO_COUNT>
3

> <PUBCHEM_ATOM_UDEF_STEREO_COUNT>
0

> <PUBCHEM_BOND_DEF_STEREO_COUNT>
0

> <PUBCHEM_BOND_UDEF_STEREO_COUNT>
0

> <PUBCHEM_ISOTOPIC_ATOM_COUNT>
0

> <PUBCHEM_COMPONENT_COUNT>
1

> <PUBCHEM_CACTVS_TAUTO_COUNT>
57

> <PUBCHEM_COORDINATE_TYPE>
1
5
255

> <PUBCHEM_BONDANNOTATIONS>
15  17  8
15  19  8
16  17  8
16  18  8
18  20  8
19  20  8
10  2  6
21  22  8
21  25  8
22  26  8
25  27  8
26  28  8
27  28  8
12  3  5
11  4  6

$$$$

