13896
  -OEChem-06241222403D

 15 15  0     0  0  0  0  0  0999 V2000
   -1.1145    2.7004    0.0282 Cl  0  0  0  0  0  0  0  0  0  0  0  0
   -1.1112   -2.7013    0.0279 Cl  0  0  0  0  0  0  0  0  0  0  0  0
    2.0446   -2.7197   -0.0021 Cl  0  0  0  0  0  0  0  0  0  0  0  0
    2.0416    2.7212   -0.0011 Cl  0  0  0  0  0  0  0  0  0  0  0  0
    3.6181    0.0014   -0.0190 Cl  0  0  0  0  0  0  0  0  0  0  0  0
   -2.9038    0.0008   -1.2093 O   0  0  0  0  0  0  0  0  0  0  0  0
   -3.0740   -0.0024    1.0573 O   0  0  0  0  0  0  0  0  0  0  0  0
   -0.9150   -0.0005    0.0265 C   0  0  0  0  0  0  0  0  0  0  0  0
   -0.2183    1.2078    0.0196 C   0  0  0  0  0  0  0  0  0  0  0  0
   -0.2171   -1.2082    0.0194 C   0  0  0  0  0  0  0  0  0  0  0  0
    1.1778   -1.2076    0.0056 C   0  0  0  0  0  0  0  0  0  0  0  0
    1.1765    1.2085    0.0057 C   0  0  0  0  0  0  0  0  0  0  0  0
    1.8746    0.0008   -0.0013 C   0  0  0  0  0  0  0  0  0  0  0  0
   -2.3793   -0.0012    0.0427 C   0  0  0  0  0  0  0  0  0  0  0  0
   -3.8846    0.0008   -1.1953 H   0  0  0  0  0  0  0  0  0  0  0  0
  1  9  1  0  0  0  0
  2 10  1  0  0  0  0
  3 11  1  0  0  0  0
  4 12  1  0  0  0  0
  5 13  1  0  0  0  0
  6 14  1  0  0  0  0
  6 15  1  0  0  0  0
  7 14  2  0  0  0  0
  8  9  2  0  0  0  0
  8 10  1  0  0  0  0
  8 14  1  0  0  0  0
  9 12  1  0  0  0  0
 10 11  2  0  0  0  0
 11 13  1  0  0  0  0
 12 13  2  0  0  0  0
M  END
> <PUBCHEM_COMPOUND_CID>
13896

> <PUBCHEM_CONFORMER_RMSD>
0.4

> <PUBCHEM_CONFORMER_DIVERSEORDER>
1

> <PUBCHEM_MMFF94_PARTIAL_CHARGES>
15
1 -0.18
10 0.18
11 0.18
12 0.18
13 0.18
14 0.63
15 0.5
2 -0.18
3 -0.18
4 -0.18
5 -0.18
6 -0.65
7 -0.57
8 0.09
9 0.18

> <PUBCHEM_EFFECTIVE_ROTOR_COUNT>
1

> <PUBCHEM_PHARMACOPHORE_FEATURES>
4
1 6 acceptor
1 7 acceptor
3 6 7 14 anion
6 8 9 10 11 12 13 rings

> <PUBCHEM_HEAVY_ATOM_COUNT>
14

> <PUBCHEM_ATOM_DEF_STEREO_COUNT>
0

> <PUBCHEM_ATOM_UDEF_STEREO_COUNT>
0

> <PUBCHEM_BOND_DEF_STEREO_COUNT>
0

> <PUBCHEM_BOND_UDEF_STEREO_COUNT>
0

> <PUBCHEM_ISOTOPIC_ATOM_COUNT>
0

> <PUBCHEM_COMPONENT_COUNT>
1

> <PUBCHEM_CACTVS_TAUTO_COUNT>
1

> <PUBCHEM_CONFORMER_ID>
0000364800000001

> <PUBCHEM_MMFF94_ENERGY>
42.533

> <PUBCHEM_FEATURE_SELFOVERLAP>
20.355

> <PUBCHEM_SHAPE_FINGERPRINT>
10967382 1 18410573972525018616
11132069 177 18338807732257873442
11206711 2 18339641251807520964
11471102 22 18197753614381134171
12524768 44 18340768156572757851
13140716 1 18266458702939723584
13380535 21 18123458380894504284
13380535 76 18410580565363693130
13897977 150 18266178331674895916
14790565 3 18266717182662589876
16945 1 18410856559877153418
193761 8 17690279730455500528
20588541 1 18410851062377270674
21501502 16 18122064475065106636
2334 1 17978510828230257280
23402539 116 18262812868564056006
23419403 2 16114941182794983530
23526114 1 18122626046360412772
23559900 14 18262788572693860932
241688 4 17906452478220063336
2748010 2 18122342372360368564
528886 8 18409452449089773418
81228 2 17258500466282245066

> <PUBCHEM_SHAPE_MULTIPOLES>
285.72
4.32
3.35
0.75
0.17
0
-0.03
0
-0.01
0.92
0.03
-0.36
0
0

> <PUBCHEM_SHAPE_SELFOVERLAP>
561.545

> <PUBCHEM_SHAPE_VOLUME>
175.9

> <PUBCHEM_COORDINATE_TYPE>
2
5
10

$$$$

