10100906
  -OEChem-07051213083D

 75 79  0     1  0  0  0  0  0999 V2000
   -2.1715   -1.2689   -0.3536 O   0  0  0  0  0  0  0  0  0  0  0  0
    3.7726   -0.1333   -0.5267 O   0  0  0  0  0  0  0  0  0  0  0  0
   -1.3241   -0.5812    1.7087 O   0  0  0  0  0  0  0  0  0  0  0  0
    3.4701    0.9843    1.4990 O   0  0  0  0  0  0  0  0  0  0  0  0
   -2.9863   -5.0270    1.0883 O   0  0  0  0  0  0  0  0  0  0  0  0
   -2.8908   -4.5712   -1.7646 O   0  0  0  0  0  0  0  0  0  0  0  0
    6.6635   -2.5585    1.0945 O   0  0  0  0  0  0  0  0  0  0  0  0
    6.4225   -2.3305   -1.7771 O   0  0  0  0  0  0  0  0  0  0  0  0
   -1.0515   -3.2915    2.4757 O   0  0  0  0  0  0  0  0  0  0  0  0
    5.9642   -0.0085    2.3940 O   0  0  0  0  0  0  0  0  0  0  0  0
   -2.3385   -0.5634   -3.0051 O   0  0  0  0  0  0  0  0  0  0  0  0
    3.1808   -0.0178   -3.2086 O   0  0  0  0  0  0  0  0  0  0  0  0
   -0.8709    2.6593    0.0141 O   0  3  0  0  0  0  0  0  0  0  0  0
    3.1543    5.1446   -0.7970 O   0  0  0  0  0  0  0  0  0  0  0  0
   -5.9095    0.1168    2.0939 O   0  0  0  0  0  0  0  0  0  0  0  0
   -5.5390    2.6350   -1.9628 O   0  0  0  0  0  0  0  0  0  0  0  0
   -7.1062    1.3269   -0.0911 O   0  0  0  0  0  0  0  0  0  0  0  0
   -2.1824   -4.0197    0.4722 C   0  0  1  0  0  0  0  0  0  0  0  0
   -2.9089   -3.5375   -0.7835 C   0  0  1  0  0  0  0  0  0  0  0  0
    6.1690   -1.3950    0.4296 C   0  0  1  0  0  0  0  0  0  0  0  0
    5.4581   -1.8457   -0.8466 C   0  0  1  0  0  0  0  0  0  0  0  0
   -1.9603   -2.8724    1.4579 C   0  0  2  0  0  0  0  0  0  0  0  0
    5.2149   -0.6445    1.3590 C   0  0  2  0  0  0  0  0  0  0  0  0
   -2.2358   -2.2869   -1.3539 C   0  0  1  0  0  0  0  0  0  0  0  0
    4.6859   -0.6843   -1.4771 C   0  0  1  0  0  0  0  0  0  0  0  0
   -1.3675   -1.6477    0.7612 C   0  0  1  0  0  0  0  0  0  0  0  0
    4.4338    0.4306    0.6035 C   0  0  1  0  0  0  0  0  0  0  0  0
   -3.0107   -1.7191   -2.5388 C   0  0  0  0  0  0  0  0  0  0  0  0
    3.8737   -1.1369   -2.6865 C   0  0  0  0  0  0  0  0  0  0  0  0
   -0.8055    0.5677    1.1546 C   0  0  0  0  0  0  0  0  0  0  0  0
    2.7264    1.9595    0.8711 C   0  0  0  0  0  0  0  0  0  0  0  0
    1.2974    1.7376    0.8007 C   0  0  0  0  0  0  0  0  0  0  0  0
    0.6263    0.6831    1.2827 C   0  0  0  0  0  0  0  0  0  0  0  0
   -1.5265    1.5240    0.5410 C   0  0  0  0  0  0  0  0  0  0  0  0
    0.4205    2.7524    0.1348 C   0  0  0  0  0  0  0  0  0  0  0  0
    3.2730    3.0665    0.3442 C   0  0  0  0  0  0  0  0  0  0  0  0
    1.1242    3.9460   -0.4181 C   0  0  0  0  0  0  0  0  0  0  0  0
    2.4552    4.0649   -0.3053 C   0  0  0  0  0  0  0  0  0  0  0  0
   -2.9800    1.4726    0.3763 C   0  0  0  0  0  0  0  0  0  0  0  0
   -3.5811    2.0833   -0.7256 C   0  0  0  0  0  0  0  0  0  0  0  0
   -3.7678    0.8129    1.3209 C   0  0  0  0  0  0  0  0  0  0  0  0
   -5.1531    0.7640    1.1640 C   0  0  0  0  0  0  0  0  0  0  0  0
   -4.9662    2.0345   -0.8824 C   0  0  0  0  0  0  0  0  0  0  0  0
   -5.7522    1.3749    0.0624 C   0  0  0  0  0  0  0  0  0  0  0  0
   -1.2302   -4.4984    0.2124 H   0  0  0  0  0  0  0  0  0  0  0  0
   -3.9576   -3.3337   -0.5305 H   0  0  0  0  0  0  0  0  0  0  0  0
    7.0441   -0.7790    0.1874 H   0  0  0  0  0  0  0  0  0  0  0  0
    4.7816   -2.6768   -0.6123 H   0  0  0  0  0  0  0  0  0  0  0  0
   -2.9010   -2.6147    1.9591 H   0  0  0  0  0  0  0  0  0  0  0  0
    4.5234   -1.3445    1.8447 H   0  0  0  0  0  0  0  0  0  0  0  0
   -1.2147   -2.5104   -1.6920 H   0  0  0  0  0  0  0  0  0  0  0  0
    5.3685    0.1112   -1.8061 H   0  0  0  0  0  0  0  0  0  0  0  0
   -0.3431   -1.8645    0.4251 H   0  0  0  0  0  0  0  0  0  0  0  0
    5.1380    1.2097    0.2808 H   0  0  0  0  0  0  0  0  0  0  0  0
   -3.0746   -2.4290   -3.3675 H   0  0  0  0  0  0  0  0  0  0  0  0
   -4.0235   -1.4206   -2.2481 H   0  0  0  0  0  0  0  0  0  0  0  0
    3.1279   -1.8850   -2.3972 H   0  0  0  0  0  0  0  0  0  0  0  0
    4.5157   -1.5499   -3.4703 H   0  0  0  0  0  0  0  0  0  0  0  0
   -3.1219   -5.7326    0.4328 H   0  0  0  0  0  0  0  0  0  0  0  0
   -3.5507   -4.3495   -2.4427 H   0  0  0  0  0  0  0  0  0  0  0  0
    7.1867   -2.2620    1.8579 H   0  0  0  0  0  0  0  0  0  0  0  0
    7.0208   -1.5969   -1.9996 H   0  0  0  0  0  0  0  0  0  0  0  0
   -0.2086   -3.5244    2.0501 H   0  0  0  0  0  0  0  0  0  0  0  0
    6.3843   -0.7055    2.9252 H   0  0  0  0  0  0  0  0  0  0  0  0
    1.1458   -0.1240    1.7920 H   0  0  0  0  0  0  0  0  0  0  0  0
   -2.2403    0.0454   -2.2538 H   0  0  0  0  0  0  0  0  0  0  0  0
    2.6658   -0.3297   -3.9721 H   0  0  0  0  0  0  0  0  0  0  0  0
    4.3400    3.2487    0.4200 H   0  0  0  0  0  0  0  0  0  0  0  0
    0.5176    4.6992   -0.9069 H   0  0  0  0  0  0  0  0  0  0  0  0
   -2.9784    2.5977   -1.4711 H   0  0  0  0  0  0  0  0  0  0  0  0
   -3.3494    0.3798    2.2238 H   0  0  0  0  0  0  0  0  0  0  0  0
    4.1022    5.0302   -0.6155 H   0  0  0  0  0  0  0  0  0  0  0  0
   -5.3266   -0.2522    2.7793 H   0  0  0  0  0  0  0  0  0  0  0  0
   -6.5016    2.5026   -1.9116 H   0  0  0  0  0  0  0  0  0  0  0  0
   -7.4823    0.8302    0.6563 H   0  0  0  0  0  0  0  0  0  0  0  0
  1 24  1  0  0  0  0
  1 26  1  0  0  0  0
  2 25  1  0  0  0  0
  2 27  1  0  0  0  0
  3 26  1  0  0  0  0
  3 30  1  0  0  0  0
  4 27  1  0  0  0  0
  4 31  1  0  0  0  0
  5 18  1  0  0  0  0
  5 59  1  0  0  0  0
  6 19  1  0  0  0  0
  6 60  1  0  0  0  0
  7 20  1  0  0  0  0
  7 61  1  0  0  0  0
  8 21  1  0  0  0  0
  8 62  1  0  0  0  0
  9 22  1  0  0  0  0
  9 63  1  0  0  0  0
 10 23  1  0  0  0  0
 10 64  1  0  0  0  0
 11 28  1  0  0  0  0
 11 66  1  0  0  0  0
 12 29  1  0  0  0  0
 12 67  1  0  0  0  0
 13 34  1  0  0  0  0
 13 35  2  0  0  0  0
 14 38  1  0  0  0  0
 14 72  1  0  0  0  0
 15 42  1  0  0  0  0
 15 73  1  0  0  0  0
 16 43  1  0  0  0  0
 16 74  1  0  0  0  0
 17 44  1  0  0  0  0
 17 75  1  0  0  0  0
 18 19  1  0  0  0  0
 18 22  1  0  0  0  0
 18 45  1  0  0  0  0
 19 24  1  0  0  0  0
 19 46  1  0  0  0  0
 20 21  1  0  0  0  0
 20 23  1  0  0  0  0
 20 47  1  0  0  0  0
 21 25  1  0  0  0  0
 21 48  1  0  0  0  0
 22 26  1  0  0  0  0
 22 49  1  0  0  0  0
 23 27  1  0  0  0  0
 23 50  1  0  0  0  0
 24 28  1  0  0  0  0
 24 51  1  0  0  0  0
 25 29  1  0  0  0  0
 25 52  1  0  0  0  0
 26 53  1  0  0  0  0
 27 54  1  0  0  0  0
 28 55  1  0  0  0  0
 28 56  1  0  0  0  0
 29 57  1  0  0  0  0
 29 58  1  0  0  0  0
 30 33  1  0  0  0  0
 30 34  2  0  0  0  0
 31 32  1  0  0  0  0
 31 36  2  0  0  0  0
 32 33  2  0  0  0  0
 32 35  1  0  0  0  0
 33 65  1  0  0  0  0
 34 39  1  0  0  0  0
 35 37  1  0  0  0  0
 36 38  1  0  0  0  0
 36 68  1  0  0  0  0
 37 38  2  0  0  0  0
 37 69  1  0  0  0  0
 39 40  2  0  0  0  0
 39 41  1  0  0  0  0
 40 43  1  0  0  0  0
 40 70  1  0  0  0  0
 41 42  2  0  0  0  0
 41 71  1  0  0  0  0
 42 44  1  0  0  0  0
 43 44  2  0  0  0  0
M  CHG  1  13   1
M  END
> <PUBCHEM_COMPOUND_CID>
10100906

> <PUBCHEM_CONFORMER_RMSD>
1.2

> <PUBCHEM_CONFORMER_DIVERSEORDER>
1
17
32
89
72
102
176
168
86
57
143
111
119
154
174
93
148
90
126
121
36
116
177
156
55
169
81
117
158
142
175
179
85
146
75
58
112
37
59
136
53
157
162
108
42
104
4
14
71
170
166
178
125
77
139
35
27
130
45
131
49
153
120
149
88
128
33
68
167
152
103
164
23
150
107
115
135
95
91
118
100
11
94
66
44
30
31
132
29
180
106
161
70
6
41
52
16
109
65
78
76
39
5
127
87
26
2
145
98
171
151
64
172
92
8
99
56
97
47
133
140
38
155
48
3
79
12
54
74
73
25
13
19
163
105
129
22
51
34
15
173
50
96
110
123
62
159
9
160
84
21
61
101
82
165
113
141
46
144
114
40
60
83
24
124
181
18
7
28
63
137
10
69
67
134
43
138
122
80
147
20

> <PUBCHEM_MMFF94_PARTIAL_CHARGES>
61
1 -0.56
10 -0.68
11 -0.68
12 -0.68
13 -0.86
14 -0.53
15 -0.53
16 -0.53
17 -0.53
18 0.28
19 0.28
2 -0.56
20 0.28
21 0.28
22 0.28
23 0.28
24 0.28
25 0.28
26 0.56
27 0.56
28 0.28
29 0.28
3 -0.36
30 0.08
31 0.08
32 0.01
33 -0.15
34 0.88
35 0.92
36 -0.15
37 -0.14
38 0.08
39 0.03
4 -0.36
40 -0.15
41 -0.15
42 0.08
43 0.08
44 0.08
5 -0.68
59 0.4
6 -0.68
60 0.4
61 0.4
62 0.4
63 0.4
64 0.4
65 0.15
66 0.4
67 0.4
68 0.15
69 0.15
7 -0.68
70 0.15
71 0.15
72 0.45
73 0.45
74 0.45
75 0.45
8 -0.68
9 -0.68

> <PUBCHEM_EFFECTIVE_ROTOR_COUNT>
9.4

> <PUBCHEM_PHARMACOPHORE_FEATURES>
29
1 1 acceptor
1 10 acceptor
1 10 donor
1 11 acceptor
1 11 donor
1 12 acceptor
1 12 donor
1 14 donor
1 15 donor
1 16 donor
1 17 donor
1 2 acceptor
1 3 acceptor
1 4 acceptor
1 5 acceptor
1 5 donor
1 6 acceptor
1 6 donor
1 7 acceptor
1 7 donor
1 8 acceptor
1 8 donor
1 9 acceptor
1 9 donor
6 1 18 19 22 24 26 rings
6 13 30 32 33 34 35 rings
6 2 20 21 23 25 27 rings
6 31 32 35 36 37 38 rings
6 39 40 41 42 43 44 rings

> <PUBCHEM_HEAVY_ATOM_COUNT>
44

> <PUBCHEM_ATOM_DEF_STEREO_COUNT>
10

> <PUBCHEM_ATOM_UDEF_STEREO_COUNT>
0

> <PUBCHEM_BOND_DEF_STEREO_COUNT>
0

> <PUBCHEM_BOND_UDEF_STEREO_COUNT>
0

> <PUBCHEM_ISOTOPIC_ATOM_COUNT>
0

> <PUBCHEM_COMPONENT_COUNT>
1

> <PUBCHEM_CACTVS_TAUTO_COUNT>
71

> <PUBCHEM_CONFORMER_ID>
009A20AA00000001

> <PUBCHEM_MMFF94_ENERGY>
139.9375

> <PUBCHEM_FEATURE_SELFOVERLAP>
147.32

> <PUBCHEM_SHAPE_FINGERPRINT>
10254770 206 18198072563333196026
11297010 23 18055094287814206093
11513181 2 18120930603820347206
11991303 11 18272365370005248143
12422481 6 17899667130600417515
12633046 712 17917707959758169226
12977781 61 16590875562841024411
13782708 43 18201707419883075313
14725015 67 17686888832417108190
14856354 85 16988838423847868785
15274700 34 17896598385020781407
15351334 14 17560241293186769845
15361156 5 18260830380553908612
15392192 29 18261663853465089886
16628084 112 17909272729935962162
17809404 112 17894625946742930862
19301679 30 17906164054229932923
19311894 1 18335713715285501765
19319366 153 17703505618540676570
20764821 26 18335411336349612006
21781051 124 17988062462166853193
22440779 20 16483557717305078546
23559900 14 18333727992706499992
23572383 38 17967538978138947678
3298306 158 18272088361403596371
3383291 50 18335137635158608331
340366 18 18410572877155858068
4015057 19 17313116249496911665
4394409 98 18200029697691991110
44062 13 18409727339945221778
460360 51 18189611648956776572
463206 1 18411983598377968010
4918855 1 14261349193117911333
5081480 168 17275387582116970988
563151 74 16589173570908005128
5912855 24 18049158870026552385

> <PUBCHEM_SHAPE_MULTIPOLES>
805.72
14.89
5.95
2.43
7.35
1.55
1.21
2.16
0.27
-1.44
0.74
0.42
1.5
0.81

> <PUBCHEM_SHAPE_SELFOVERLAP>
1752.69

> <PUBCHEM_SHAPE_VOLUME>
430.1

> <PUBCHEM_COORDINATE_TYPE>
2
5
10

$$$$

