5316511
  -OEChem-07051213113D

 31 33  0     0  0  0  0  0  0999 V2000
   -0.0549    0.1030   -0.0009 O   0  0  0  0  0  0  0  0  0  0  0  0
   -1.5193    1.9559    0.0000 O   0  0  0  0  0  0  0  0  0  0  0  0
    4.7694    0.5736    0.0012 O   0  0  0  0  0  0  0  0  0  0  0  0
    2.7522   -3.7260    0.0003 O   0  0  0  0  0  0  0  0  0  0  0  0
    3.1227    2.6486    0.0001 O   0  0  0  0  0  0  0  0  0  0  0  0
   -5.5516   -1.8019    0.0003 O   0  0  0  0  0  0  0  0  0  0  0  0
    2.3560    0.4008   -0.0004 C   0  0  0  0  0  0  0  0  0  0  0  0
    1.2193   -0.4053   -0.0007 C   0  0  0  0  0  0  0  0  0  0  0  0
    3.6298   -0.1721    0.0000 C   0  0  0  0  0  0  0  0  0  0  0  0
    2.1868    1.8612   -0.0004 C   0  0  0  0  0  0  0  0  0  0  0  0
    1.3509   -1.7943   -0.0005 C   0  0  0  0  0  0  0  0  0  0  0  0
   -0.2235    1.4797    0.0001 C   0  0  0  0  0  0  0  0  0  0  0  0
    0.7956    2.3530    0.0003 C   0  0  0  0  0  0  0  0  0  0  0  0
    2.6213   -2.3710   -0.0001 C   0  0  0  0  0  0  0  0  0  0  0  0
    3.7582   -1.5615    0.0002 C   0  0  0  0  0  0  0  0  0  0  0  0
   -2.5179    1.0250   -0.0001 C   0  0  0  0  0  0  0  0  0  0  0  0
   -3.0249    0.5524    1.2079 C   0  0  0  0  0  0  0  0  0  0  0  0
   -3.0251    0.5520   -1.2081 C   0  0  0  0  0  0  0  0  0  0  0  0
   -4.0449   -0.3991    1.2082 C   0  0  0  0  0  0  0  0  0  0  0  0
   -4.0452   -0.3993   -1.2078 C   0  0  0  0  0  0  0  0  0  0  0  0
   -4.5551   -0.8748    0.0005 C   0  0  0  0  0  0  0  0  0  0  0  0
    0.4669   -2.4271   -0.0006 H   0  0  0  0  0  0  0  0  0  0  0  0
    0.6321    3.4246    0.0007 H   0  0  0  0  0  0  0  0  0  0  0  0
    4.7451   -2.0184    0.0007 H   0  0  0  0  0  0  0  0  0  0  0  0
   -2.6325    0.9197    2.1523 H   0  0  0  0  0  0  0  0  0  0  0  0
   -2.6328    0.9190   -2.1526 H   0  0  0  0  0  0  0  0  0  0  0  0
   -4.4382   -0.7654    2.1525 H   0  0  0  0  0  0  0  0  0  0  0  0
   -4.4343   -0.7617   -2.1555 H   0  0  0  0  0  0  0  0  0  0  0  0
    5.5427   -0.0161    0.0015 H   0  0  0  0  0  0  0  0  0  0  0  0
    3.6982   -3.9520    0.0006 H   0  0  0  0  0  0  0  0  0  0  0  0
   -5.7820   -2.0166   -0.9200 H   0  0  0  0  0  0  0  0  0  0  0  0
  1  8  1  0  0  0  0
  1 12  1  0  0  0  0
  2 12  1  0  0  0  0
  2 16  1  0  0  0  0
  3  9  1  0  0  0  0
  3 29  1  0  0  0  0
  4 14  1  0  0  0  0
  4 30  1  0  0  0  0
  5 10  2  0  0  0  0
  6 21  1  0  0  0  0
  6 31  1  0  0  0  0
  7  8  1  0  0  0  0
  7  9  2  0  0  0  0
  7 10  1  0  0  0  0
  8 11  2  0  0  0  0
  9 15  1  0  0  0  0
 10 13  1  0  0  0  0
 11 14  1  0  0  0  0
 11 22  1  0  0  0  0
 12 13  2  0  0  0  0
 13 23  1  0  0  0  0
 14 15  2  0  0  0  0
 15 24  1  0  0  0  0
 16 17  2  0  0  0  0
 16 18  1  0  0  0  0
 17 19  1  0  0  0  0
 17 25  1  0  0  0  0
 18 20  2  0  0  0  0
 18 26  1  0  0  0  0
 19 21  2  0  0  0  0
 19 27  1  0  0  0  0
 20 21  1  0  0  0  0
 20 28  1  0  0  0  0
M  END
> <PUBCHEM_COMPOUND_CID>
5316511

> <PUBCHEM_CONFORMER_RMSD>
0.6

> <PUBCHEM_CONFORMER_DIVERSEORDER>
1
4
5
10
3
8
6
9
7
2

> <PUBCHEM_MMFF94_PARTIAL_CHARGES>
31
1 -0.16
10 0.47
11 -0.15
12 0.15
13 -0.14
14 0.08
15 -0.15
16 0.08
17 -0.15
18 -0.15
19 -0.15
2 -0.16
20 -0.15
21 0.08
22 0.15
23 0.15
24 0.15
25 0.15
26 0.15
27 0.15
28 0.15
29 0.45
3 -0.53
30 0.45
31 0.45
4 -0.53
5 -0.57
6 -0.53
7 0.09
8 0.08
9 0.08

> <PUBCHEM_EFFECTIVE_ROTOR_COUNT>
2

> <PUBCHEM_PHARMACOPHORE_FEATURES>
9
1 1 acceptor
1 2 acceptor
1 3 donor
1 4 donor
1 5 acceptor
1 6 donor
6 1 7 8 10 12 13 rings
6 16 17 18 19 20 21 rings
6 7 8 9 11 14 15 rings

> <PUBCHEM_HEAVY_ATOM_COUNT>
21

> <PUBCHEM_ATOM_DEF_STEREO_COUNT>
0

> <PUBCHEM_ATOM_UDEF_STEREO_COUNT>
0

> <PUBCHEM_BOND_DEF_STEREO_COUNT>
0

> <PUBCHEM_BOND_UDEF_STEREO_COUNT>
0

> <PUBCHEM_ISOTOPIC_ATOM_COUNT>
0

> <PUBCHEM_COMPONENT_COUNT>
1

> <PUBCHEM_CACTVS_TAUTO_COUNT>
24

> <PUBCHEM_CONFORMER_ID>
00511F9F00000001

> <PUBCHEM_MMFF94_ENERGY>
63.5952

> <PUBCHEM_FEATURE_SELFOVERLAP>
45.735

> <PUBCHEM_SHAPE_FINGERPRINT>
10074138 170 17328901723821679408
108634 29 17774432772659273211
10967382 1 18410573977083820932
11806522 49 18412544323052844612
12107183 9 17830159561545706185
12236239 1 17749104474652096697
12553582 1 18265328602323165774
12596599 1 17824527798115340947
12596602 18 17168141200483761955
13009979 54 17677888127163201978
13140716 1 18265055722013552776
13224815 77 18410575119059740561
13533116 47 18261110730449466123
13544653 18 18342171202340344869
13862211 1 18411983594299167834
13911987 19 17911226226927911325
14576447 43 18408045099918021182
14767858 380 18269535248776686086
14844126 61 16686264084972016986
15196674 1 18410856602594743777
15352361 1 18411419557133633539
15375462 189 17967816024714069969
15635459 17 18272087188782767315
17492 89 18337392754908315815
200 152 18334017177307333289
20028762 73 18187930521596222670
20261772 1 18040720251047575855
20291156 8 18335702809746332743
20645477 70 18271531913804067321
21033650 10 15984264187316426309
21267235 1 18408315575451838182
221490 88 18340486763395598204
2255824 54 18337668620805229684
23379529 103 17684642517335098038
23559900 14 18267594669917663264
23598288 3 17750230468980232705
2871803 45 18272656744527537515
33824 294 18339644443089248544
46194498 28 17632016334748954221
4921388 177 16558739140500861137
5104073 3 18263086672497022520
602551 16 15285650849788495901
9709674 26 18343295994230248739

> <PUBCHEM_SHAPE_MULTIPOLES>
396.95
9.86
2.96
0.89
6.78
1.01
0
4.16
0
-3.01
0
1.07
-0.01
0

> <PUBCHEM_SHAPE_SELFOVERLAP>
885.275

> <PUBCHEM_SHAPE_VOLUME>
209

> <PUBCHEM_COORDINATE_TYPE>
2
5
10

$$$$

