1989
  -OEChem-07051212523D

 42 43  0     0  0  0  0  0  0999 V2000
    0.6028   -2.5729   -0.2386 S   0  0  0  0  0  0  0  0  0  0  0  0
   -1.3659   -1.1044    1.6626 O   0  0  0  0  0  0  0  0  0  0  0  0
    0.5443   -3.1883    1.0732 O   0  0  0  0  0  0  0  0  0  0  0  0
    0.9369   -3.3636   -1.4075 O   0  0  0  0  0  0  0  0  0  0  0  0
    5.1284    2.3381   -1.0336 O   0  0  0  0  0  0  0  0  0  0  0  0
   -2.7759   -0.4787   -0.0591 N   0  0  0  0  0  0  0  0  0  0  0  0
   -0.8508   -1.7219   -0.5304 N   0  0  0  0  0  0  0  0  0  0  0  0
   -3.7422    0.2290    0.7511 C   0  0  0  0  0  0  0  0  0  0  0  0
   -3.3378    1.6956    0.9350 C   0  0  0  0  0  0  0  0  0  0  0  0
   -5.1502    0.1112    0.1582 C   0  0  0  0  0  0  0  0  0  0  0  0
   -3.5076    2.5141   -0.3448 C   0  0  0  0  0  0  0  0  0  0  0  0
   -5.3170    0.9323   -1.1206 C   0  0  0  0  0  0  0  0  0  0  0  0
   -4.9194    2.3900   -0.9096 C   0  0  0  0  0  0  0  0  0  0  0  0
   -1.6573   -1.0924    0.4703 C   0  0  0  0  0  0  0  0  0  0  0  0
    1.7655   -1.2434   -0.1714 C   0  0  0  0  0  0  0  0  0  0  0  0
    2.0286   -0.6369    1.0448 C   0  0  0  0  0  0  0  0  0  0  0  0
    2.3907   -0.8326   -1.3360 C   0  0  0  0  0  0  0  0  0  0  0  0
    3.5845    0.8404   -0.0658 C   0  0  0  0  0  0  0  0  0  0  0  0
    2.9452    0.4132    1.0979 C   0  0  0  0  0  0  0  0  0  0  0  0
    3.3074    0.2175   -1.2827 C   0  0  0  0  0  0  0  0  0  0  0  0
    4.5408    1.9345   -0.0102 C   0  0  0  0  0  0  0  0  0  0  0  0
    4.8492    2.6193    1.3170 C   0  0  0  0  0  0  0  0  0  0  0  0
   -3.7488   -0.2477    1.7394 H   0  0  0  0  0  0  0  0  0  0  0  0
   -2.2984    1.7691    1.2769 H   0  0  0  0  0  0  0  0  0  0  0  0
   -3.9612    2.1402    1.7214 H   0  0  0  0  0  0  0  0  0  0  0  0
   -5.8796    0.4620    0.8994 H   0  0  0  0  0  0  0  0  0  0  0  0
   -5.3889   -0.9386   -0.0506 H   0  0  0  0  0  0  0  0  0  0  0  0
   -2.7819    2.1802   -1.0964 H   0  0  0  0  0  0  0  0  0  0  0  0
   -3.2865    3.5674   -0.1379 H   0  0  0  0  0  0  0  0  0  0  0  0
   -6.3610    0.8832   -1.4509 H   0  0  0  0  0  0  0  0  0  0  0  0
   -4.7133    0.5001   -1.9271 H   0  0  0  0  0  0  0  0  0  0  0  0
   -5.6296    2.8649   -0.2214 H   0  0  0  0  0  0  0  0  0  0  0  0
   -4.9858    2.9318   -1.8597 H   0  0  0  0  0  0  0  0  0  0  0  0
   -2.8938   -0.4893   -1.0674 H   0  0  0  0  0  0  0  0  0  0  0  0
   -1.1892   -1.6982   -1.5007 H   0  0  0  0  0  0  0  0  0  0  0  0
    1.5383   -0.9526    1.9604 H   0  0  0  0  0  0  0  0  0  0  0  0
    2.1826   -1.2986   -2.2941 H   0  0  0  0  0  0  0  0  0  0  0  0
    3.1307    0.8704    2.0649 H   0  0  0  0  0  0  0  0  0  0  0  0
    3.7913    0.5336   -2.2031 H   0  0  0  0  0  0  0  0  0  0  0  0
    5.2779    1.9022    2.0219 H   0  0  0  0  0  0  0  0  0  0  0  0
    3.9458    3.0821    1.7226 H   0  0  0  0  0  0  0  0  0  0  0  0
    5.5873    3.4100    1.1486 H   0  0  0  0  0  0  0  0  0  0  0  0
  1  3  2  0  0  0  0
  1  4  2  0  0  0  0
  1  7  1  0  0  0  0
  1 15  1  0  0  0  0
  2 14  2  0  0  0  0
  5 21  2  0  0  0  0
  6  8  1  0  0  0  0
  6 14  1  0  0  0  0
  6 34  1  0  0  0  0
  7 14  1  0  0  0  0
  7 35  1  0  0  0  0
  8  9  1  0  0  0  0
  8 10  1  0  0  0  0
  8 23  1  0  0  0  0
  9 11  1  0  0  0  0
  9 24  1  0  0  0  0
  9 25  1  0  0  0  0
 10 12  1  0  0  0  0
 10 26  1  0  0  0  0
 10 27  1  0  0  0  0
 11 13  1  0  0  0  0
 11 28  1  0  0  0  0
 11 29  1  0  0  0  0
 12 13  1  0  0  0  0
 12 30  1  0  0  0  0
 12 31  1  0  0  0  0
 13 32  1  0  0  0  0
 13 33  1  0  0  0  0
 15 16  2  0  0  0  0
 15 17  1  0  0  0  0
 16 19  1  0  0  0  0
 16 36  1  0  0  0  0
 17 20  2  0  0  0  0
 17 37  1  0  0  0  0
 18 19  2  0  0  0  0
 18 20  1  0  0  0  0
 18 21  1  0  0  0  0
 19 38  1  0  0  0  0
 20 39  1  0  0  0  0
 21 22  1  0  0  0  0
 22 40  1  0  0  0  0
 22 41  1  0  0  0  0
 22 42  1  0  0  0  0
M  END
> <PUBCHEM_COMPOUND_CID>
1989

> <PUBCHEM_CONFORMER_RMSD>
0.8

> <PUBCHEM_CONFORMER_DIVERSEORDER>
1
28
47
65
82
50
54
34
108
78
94
69
64
79
63
89
101
88
87
48
55
73
44
74
80
96
51
70
58
4
68
15
90
72
53
9
84
102
83
36
104
98
91
107
32
25
17
41
20
16
18
49
77
52
5
86
81
26
29
61
59
33
21
76
71
57
30
93
31
13
66
60
6
95
40
42
11
23
92
105
22
7
12
75
106
37
97
8
35
19
56
85
100
39
67
103
99
27
62
38
24
46
45
14
3
43
2
10

> <PUBCHEM_MMFF94_PARTIAL_CHARGES>
23
1 1.45
14 0.87
15 -0.01
16 -0.15
17 -0.15
18 0.09
19 -0.15
2 -0.57
20 -0.15
21 0.42
22 0.06
3 -0.65
34 0.37
35 0.42
36 0.15
37 0.15
38 0.15
39 0.15
4 -0.65
5 -0.57
6 -0.73
7 -0.79
8 0.3

> <PUBCHEM_EFFECTIVE_ROTOR_COUNT>
7.2

> <PUBCHEM_PHARMACOPHORE_FEATURES>
8
1 2 acceptor
1 3 acceptor
1 4 acceptor
1 5 acceptor
1 6 donor
1 7 donor
6 15 16 17 18 19 20 rings
6 8 9 10 11 12 13 rings

> <PUBCHEM_HEAVY_ATOM_COUNT>
22

> <PUBCHEM_ATOM_DEF_STEREO_COUNT>
0

> <PUBCHEM_ATOM_UDEF_STEREO_COUNT>
0

> <PUBCHEM_BOND_DEF_STEREO_COUNT>
0

> <PUBCHEM_BOND_UDEF_STEREO_COUNT>
0

> <PUBCHEM_ISOTOPIC_ATOM_COUNT>
0

> <PUBCHEM_COMPONENT_COUNT>
1

> <PUBCHEM_CACTVS_TAUTO_COUNT>
6

> <PUBCHEM_CONFORMER_ID>
000007C500000001

> <PUBCHEM_MMFF94_ENERGY>
21.4562

> <PUBCHEM_FEATURE_SELFOVERLAP>
40.657

> <PUBCHEM_SHAPE_FINGERPRINT>
10498660 4 18408038520128480345
10928967 22 6411005444528727229
11796584 16 6988045613404593853
12107183 9 18271259270213697170
12363563 72 9583524230438485390
12549972 3 17415252178266729851
12596602 18 16916787323178143384
12633257 1 15697998496661902682
12769317 202 18260553328924138160
12788726 201 17054684648650784658
13103583 49 11815623033521606957
13402501 40 18409733936846637960
13551218 46 9150588233590613693
13965767 371 17846789537012458558
14251764 30 6699803220288381485
14251764 38 18124882519310084317
14341114 328 16415473818456286796
14420673 8 8790614732015681221
14468879 13 18341887485512142459
14848178 96 18337951289492639705
21401589 2 18339354163276542435
23559900 14 18051979413852539675
2838139 119 18335994090228689500
314194 84 10447636981359643562
341906 21 17632005425431606469
3459 39 18190765075705126400
34797466 226 18114180887169670053
4371632 12 14782382250442848856
474 4 18271807964506076027
56633871 153 11455892468736674641
5895379 119 17610907072493729499
7808743 9 18267584615773945048
7970288 3 8213880170856791508
88748 71 7997965791176028805
9981440 41 18272933799914751955

> <PUBCHEM_SHAPE_MULTIPOLES>
423.16
12.1
3.58
1.4
5.85
1
0.02
-12.54
-1.59
-1.84
-0.25
-0.49
0.06
1.15

> <PUBCHEM_SHAPE_SELFOVERLAP>
863.602

> <PUBCHEM_SHAPE_VOLUME>
244.9

> <PUBCHEM_COORDINATE_TYPE>
2
5
10

$$$$

