17395627
  -OEChem-06241222513D

 46 47  0     1  0  0  0  0  0999 V2000
    3.4065    1.6530   -0.4525 S   0  0  0  0  0  0  0  0  0  0  0  0
    0.7450    3.1146   -1.0394 O   0  0  0  0  0  0  0  0  0  0  0  0
   -4.1199    0.1427   -1.2127 O   0  0  0  0  0  0  0  0  0  0  0  0
   -3.9059   -1.4464    0.4260 O   0  0  0  0  0  0  0  0  0  0  0  0
   -0.6307    1.0474    1.5297 N   0  0  0  0  0  0  0  0  0  0  0  0
    3.3209   -2.2101   -1.1441 N   0  0  0  0  0  0  0  0  0  0  0  0
    2.1089   -0.7172    0.0948 N   0  0  0  0  0  0  0  0  0  0  0  0
    3.7950   -0.9618   -1.2736 N   0  0  0  0  0  0  0  0  0  0  0  0
   -0.3788    1.4786    0.2536 C   0  0  0  0  0  0  0  0  0  0  0  0
   -1.3845    1.0032   -0.5587 C   0  0  0  0  0  0  0  0  0  0  0  0
   -2.2724    0.2602    0.2580 C   0  0  0  0  0  0  0  0  0  0  0  0
   -1.7824    0.3046    1.5445 C   0  0  0  0  0  0  0  0  0  0  0  0
    2.0843    2.1650    0.6924 C   0  0  2  0  0  0  0  0  0  0  0  0
    0.7883    2.3054   -0.1082 C   0  0  0  0  0  0  0  0  0  0  0  0
    1.4635   -3.1458    0.1315 C   0  0  0  0  0  0  0  0  0  0  0  0
   -1.5145    1.2256   -2.0143 C   0  0  0  0  0  0  0  0  0  0  0  0
    2.3015   -2.0082   -0.3067 C   0  0  0  0  0  0  0  0  0  0  0  0
   -2.2886   -0.2847    2.7995 C   0  0  0  0  0  0  0  0  0  0  0  0
    2.4744    3.4824    1.3583 C   0  0  0  0  0  0  0  0  0  0  0  0
   -3.4701   -0.4267   -0.1358 C   0  0  0  0  0  0  0  0  0  0  0  0
   -0.0138   -3.0140   -0.3055 C   0  0  0  0  0  0  0  0  0  0  0  0
    1.5274   -3.3941    1.6563 C   0  0  0  0  0  0  0  0  0  0  0  0
    3.0691   -0.0805   -0.5344 C   0  0  0  0  0  0  0  0  0  0  0  0
   -5.3231   -0.4932   -1.6586 C   0  0  0  0  0  0  0  0  0  0  0  0
    1.9828    1.4148    1.4813 H   0  0  0  0  0  0  0  0  0  0  0  0
   -0.0650    1.2544    2.3415 H   0  0  0  0  0  0  0  0  0  0  0  0
    1.8415   -4.0623   -0.3438 H   0  0  0  0  0  0  0  0  0  0  0  0
   -1.9034    0.3359   -2.5200 H   0  0  0  0  0  0  0  0  0  0  0  0
   -0.5503    1.4440   -2.4832 H   0  0  0  0  0  0  0  0  0  0  0  0
   -2.1891    2.0639   -2.2155 H   0  0  0  0  0  0  0  0  0  0  0  0
   -1.7581    0.1044    3.6749 H   0  0  0  0  0  0  0  0  0  0  0  0
   -3.3522   -0.0613    2.9319 H   0  0  0  0  0  0  0  0  0  0  0  0
   -2.1637   -1.3723    2.7877 H   0  0  0  0  0  0  0  0  0  0  0  0
    2.6157    4.2873    0.6277 H   0  0  0  0  0  0  0  0  0  0  0  0
    1.6816    3.8077    2.0415 H   0  0  0  0  0  0  0  0  0  0  0  0
    3.3947    3.3785    1.9433 H   0  0  0  0  0  0  0  0  0  0  0  0
   -0.0871   -2.8676   -1.3886 H   0  0  0  0  0  0  0  0  0  0  0  0
   -0.5786   -3.9145   -0.0432 H   0  0  0  0  0  0  0  0  0  0  0  0
   -0.4900   -2.1592    0.1822 H   0  0  0  0  0  0  0  0  0  0  0  0
    0.9475   -4.2813    1.9309 H   0  0  0  0  0  0  0  0  0  0  0  0
    2.5627   -3.5494    1.9790 H   0  0  0  0  0  0  0  0  0  0  0  0
    1.1287   -2.5377    2.2115 H   0  0  0  0  0  0  0  0  0  0  0  0
    3.7310   -3.0093   -1.6197 H   0  0  0  0  0  0  0  0  0  0  0  0
   -5.1104   -1.5158   -1.9834 H   0  0  0  0  0  0  0  0  0  0  0  0
   -6.0705   -0.4876   -0.8599 H   0  0  0  0  0  0  0  0  0  0  0  0
   -5.7118    0.0730   -2.5091 H   0  0  0  0  0  0  0  0  0  0  0  0
  1 13  1  0  0  0  0
  1 23  1  0  0  0  0
  2 14  2  0  0  0  0
  3 20  1  0  0  0  0
  3 24  1  0  0  0  0
  4 20  2  0  0  0  0
  5  9  1  0  0  0  0
  5 12  1  0  0  0  0
  5 26  1  0  0  0  0
  6  8  1  0  0  0  0
  6 17  1  0  0  0  0
  6 43  1  0  0  0  0
  7 17  2  0  0  0  0
  7 23  1  0  0  0  0
  8 23  2  0  0  0  0
  9 10  2  0  0  0  0
  9 14  1  0  0  0  0
 10 11  1  0  0  0  0
 10 16  1  0  0  0  0
 11 12  2  0  0  0  0
 11 20  1  0  0  0  0
 12 18  1  0  0  0  0
 13 14  1  0  0  0  0
 13 19  1  0  0  0  0
 13 25  1  0  0  0  0
 15 17  1  0  0  0  0
 15 21  1  0  0  0  0
 15 22  1  0  0  0  0
 15 27  1  0  0  0  0
 16 28  1  0  0  0  0
 16 29  1  0  0  0  0
 16 30  1  0  0  0  0
 18 31  1  0  0  0  0
 18 32  1  0  0  0  0
 18 33  1  0  0  0  0
 19 34  1  0  0  0  0
 19 35  1  0  0  0  0
 19 36  1  0  0  0  0
 21 37  1  0  0  0  0
 21 38  1  0  0  0  0
 21 39  1  0  0  0  0
 22 40  1  0  0  0  0
 22 41  1  0  0  0  0
 22 42  1  0  0  0  0
 24 44  1  0  0  0  0
 24 45  1  0  0  0  0
 24 46  1  0  0  0  0
M  END
> <PUBCHEM_COMPOUND_CID>
17395627

> <PUBCHEM_CONFORMER_RMSD>
1.2

> <PUBCHEM_CONFORMER_DIVERSEORDER>
1
69
82
91
54
27
78
66
8
52
44
20
76
4
13
41
42
56
32
23
29
75
84
15
63
33
57
18
34
39
7
30
31
48
45
55
72
62
6
71
88
21
51
70
37
90
87
24
35
25
50
58
77
3
89
46
83
65
11
67
86
43
26
61
73
60
81
80
12
5
64
36
85
19
2
10
40
49
68
17
14
47
22
28
38
16
53
9
79
59
74

> <PUBCHEM_MMFF94_PARTIAL_CHARGES>
23
1 -0.28
10 -0.18
11 -0.09
12 -0.33
13 0.29
14 0.59
15 0.18
16 0.18
17 0.01
18 0.18
2 -0.57
20 0.81
23 0.57
24 0.28
26 0.27
3 -0.43
4 -0.57
43 0.27
5 0.03
6 0.3
7 -0.57
8 -0.71
9 -0.24

> <PUBCHEM_EFFECTIVE_ROTOR_COUNT>
7

> <PUBCHEM_PHARMACOPHORE_FEATURES>
11
1 19 hydrophobe
1 2 acceptor
1 4 acceptor
1 5 cation
1 5 donor
1 6 donor
3 15 21 22 hydrophobe
3 6 7 17 cation
3 7 8 23 cation
5 5 9 10 11 12 rings
5 6 7 8 17 23 rings

> <PUBCHEM_HEAVY_ATOM_COUNT>
24

> <PUBCHEM_ATOM_DEF_STEREO_COUNT>
0

> <PUBCHEM_ATOM_UDEF_STEREO_COUNT>
1

> <PUBCHEM_BOND_DEF_STEREO_COUNT>
0

> <PUBCHEM_BOND_UDEF_STEREO_COUNT>
0

> <PUBCHEM_ISOTOPIC_ATOM_COUNT>
0

> <PUBCHEM_COMPONENT_COUNT>
1

> <PUBCHEM_CACTVS_TAUTO_COUNT>
90

> <PUBCHEM_CONFORMER_ID>
01096FAB00000001

> <PUBCHEM_MMFF94_ENERGY>
45.2286

> <PUBCHEM_FEATURE_SELFOVERLAP>
58.566

> <PUBCHEM_SHAPE_FINGERPRINT>
10366900 7 18131062787879791614
11370993 70 18048326543681546585
11578080 2 17460621304888737560
11796584 16 17531531976024476445
12553582 1 18194391427824315042
12596599 1 17605255475484971766
12788726 201 17545880894075986704
13533116 47 18259985942875927421
13583140 156 17968373442987478273
13911987 19 18200015271503797788
14251757 17 18129397019738155565
14787075 74 16739741594594409289
17138139 8 17101175294676119903
17492 54 18341038645592928926
17818456 19 17678448887037146161
20645477 70 18340207397316648449
21285901 2 17988095425904063749
23559900 14 17846503638124461468
238 59 18413669114826651818
3323516 105 18342182171897770181
4340502 62 17972604281978523193
6443956 14 18409725183687243445

> <PUBCHEM_SHAPE_MULTIPOLES>
460.23
7.25
4.14
1.9
6.31
1.46
0.75
0.9
-2.97
-4.58
0.73
1.26
-0.08
0.79

> <PUBCHEM_SHAPE_SELFOVERLAP>
947.25

> <PUBCHEM_SHAPE_VOLUME>
270.6

> <PUBCHEM_COORDINATE_TYPE>
2
5
10

$$$$

