585218
  -OEChem-06241222452D

 28 29  0     0  0  0  0  0  0999 V2000
    3.7321    1.0000    0.0000 Si  0  0  0  0  0  0  0  0  0  0  0  0
    2.8660   -1.5000    0.0000 N   0  3  0  0  0  0  0  0  0  0  0  0
    4.7321    1.0000    0.0000 C   0  0  0  0  0  0  0  0  0  0  0  0
    3.7321    2.0000    0.0000 C   0  0  0  0  0  0  0  0  0  0  0  0
    4.7321    2.0000    0.0000 C   0  0  0  0  0  0  0  0  0  0  0  0
    3.7321    0.0000    0.0000 C   0  0  0  0  0  0  0  0  0  0  0  0
    2.7321    1.0000    0.0000 C   0  0  0  0  0  0  0  0  0  0  0  0
    2.8660   -0.5000    0.0000 C   0  0  0  0  0  0  0  0  0  0  0  0
    4.5981   -0.5000    0.0000 C   0  0  0  0  0  0  0  0  0  0  0  0
    4.5981   -1.5000    0.0000 C   0  0  0  0  0  0  0  0  0  0  0  0
    3.7321   -2.0000    0.0000 C   0  0  0  0  0  0  0  0  0  0  0  0
    2.0000   -2.0000    0.0000 C   0  0  0  0  0  0  0  0  0  0  0  0
    4.7321    0.3800    0.0000 H   0  0  0  0  0  0  0  0  0  0  0  0
    5.3521    1.0000    0.0000 H   0  0  0  0  0  0  0  0  0  0  0  0
    3.7321    2.6200    0.0000 H   0  0  0  0  0  0  0  0  0  0  0  0
    3.1121    2.0000    0.0000 H   0  0  0  0  0  0  0  0  0  0  0  0
    5.3521    2.0000    0.0000 H   0  0  0  0  0  0  0  0  0  0  0  0
    4.7321    2.6200    0.0000 H   0  0  0  0  0  0  0  0  0  0  0  0
    2.7321    0.3800    0.0000 H   0  0  0  0  0  0  0  0  0  0  0  0
    2.1121    1.0000    0.0000 H   0  0  0  0  0  0  0  0  0  0  0  0
    2.7321    1.6200    0.0000 H   0  0  0  0  0  0  0  0  0  0  0  0
    2.3291   -0.1900    0.0000 H   0  0  0  0  0  0  0  0  0  0  0  0
    5.1350   -0.1900    0.0000 H   0  0  0  0  0  0  0  0  0  0  0  0
    5.1350   -1.8100    0.0000 H   0  0  0  0  0  0  0  0  0  0  0  0
    3.7321   -2.6200    0.0000 H   0  0  0  0  0  0  0  0  0  0  0  0
    1.6900   -1.4631    0.0000 H   0  0  0  0  0  0  0  0  0  0  0  0
    1.4631   -2.3100    0.0000 H   0  0  0  0  0  0  0  0  0  0  0  0
    2.3100   -2.5369    0.0000 H   0  0  0  0  0  0  0  0  0  0  0  0
  1  3  1  0  0  0  0
  1  4  1  0  0  0  0
  1  6  1  0  0  0  0
  1  7  1  0  0  0  0
  2  8  1  0  0  0  0
  2 11  2  0  0  0  0
  2 12  1  0  0  0  0
  3  5  1  0  0  0  0
  3 13  1  0  0  0  0
  3 14  1  0  0  0  0
  4  5  1  0  0  0  0
  4 15  1  0  0  0  0
  4 16  1  0  0  0  0
  5 17  1  0  0  0  0
  5 18  1  0  0  0  0
  6  8  2  0  0  0  0
  6  9  1  0  0  0  0
  7 19  1  0  0  0  0
  7 20  1  0  0  0  0
  7 21  1  0  0  0  0
  8 22  1  0  0  0  0
  9 10  2  0  0  0  0
  9 23  1  0  0  0  0
 10 11  1  0  0  0  0
 10 24  1  0  0  0  0
 11 25  1  0  0  0  0
 12 26  1  0  0  0  0
 12 27  1  0  0  0  0
 12 28  1  0  0  0  0
M  CHG  1   2   1
M  END
> <PUBCHEM_COMPOUND_CID>
585218

> <PUBCHEM_COMPOUND_CANONICALIZED>
1

> <PUBCHEM_CACTVS_COMPLEXITY>
165

> <PUBCHEM_CACTVS_HBOND_ACCEPTOR>
0

> <PUBCHEM_CACTVS_HBOND_DONOR>
0

> <PUBCHEM_CACTVS_ROTATABLE_BOND>
1

> <PUBCHEM_CACTVS_SUBSKEYS>
AAADceByAAgAAAAAAAAAAAAAAABIAAAAAAAsAAAAAAAAAAABgAAAHBAAAAAACADBMgR+gJMMEAGgADBnRACCgCAxAiAI2CA4ZJgIIOLAkZGEIAhggADIyAYQAAAAAAAAAAAAAAAAAAAAAAAAAAAAAAAAAA==

> <PUBCHEM_IUPAC_OPENEYE_NAME>
1-methyl-3-(1-methylsiletan-1-yl)pyridin-1-ium

> <PUBCHEM_IUPAC_CAS_NAME>
1-methyl-3-(1-methyl-1-siletanyl)pyridin-1-ium

> <PUBCHEM_IUPAC_NAME>
1-methyl-3-(1-methylsiletan-1-yl)pyridin-1-ium

> <PUBCHEM_IUPAC_SYSTEMATIC_NAME>
1-methyl-3-(1-methylsiletan-1-yl)pyridin-1-ium

> <PUBCHEM_IUPAC_TRADITIONAL_NAME>
1-methyl-3-(1-methylsiletan-1-yl)pyridin-1-ium

> <PUBCHEM_IUPAC_INCHI>
InChI=1S/C10H16NSi/c1-11-6-3-5-10(9-11)12(2)7-4-8-12/h3,5-6,9H,4,7-8H2,1-2H3/q+1

> <PUBCHEM_IUPAC_INCHIKEY>
VJROEYHCJAGAGR-UHFFFAOYSA-N

> <PUBCHEM_EXACT_MASS>
178.105201

> <PUBCHEM_MOLECULAR_FORMULA>
C10H16NSi+

> <PUBCHEM_MOLECULAR_WEIGHT>
178.32624

> <PUBCHEM_OPENEYE_CAN_SMILES>
C[N+]1=CC=CC(=C1)[Si]2(CCC2)C

> <PUBCHEM_OPENEYE_ISO_SMILES>
C[N+]1=CC=CC(=C1)[Si]2(CCC2)C

> <PUBCHEM_CACTVS_TPSA>
3.9

> <PUBCHEM_MONOISOTOPIC_WEIGHT>
178.105201

> <PUBCHEM_TOTAL_CHARGE>
1

> <PUBCHEM_HEAVY_ATOM_COUNT>
12

> <PUBCHEM_ATOM_DEF_STEREO_COUNT>
0

> <PUBCHEM_ATOM_UDEF_STEREO_COUNT>
0

> <PUBCHEM_BOND_DEF_STEREO_COUNT>
0

> <PUBCHEM_BOND_UDEF_STEREO_COUNT>
0

> <PUBCHEM_ISOTOPIC_ATOM_COUNT>
0

> <PUBCHEM_COMPONENT_COUNT>
1

> <PUBCHEM_CACTVS_TAUTO_COUNT>
1

> <PUBCHEM_COORDINATE_TYPE>
1
5
255

> <PUBCHEM_BONDANNOTATIONS>
10  11  8
2  11  8
2  8  8
6  8  8
6  9  8
9  10  8

$$$$

