5284566
  -OEChem-07051212522D

 47 50  0     1  0  0  0  0  0999 V2000
    4.3211   -0.5519    0.0000 O   0  0  0  0  0  0  0  0  0  0  0  0
    8.7985    2.6881    0.0000 N   0  0  0  0  0  0  0  0  0  0  0  0
    5.9674   -1.0900    0.0000 N   0  0  0  0  0  0  0  0  0  0  0  0
    5.2619   -3.0514    0.0000 N   0  0  0  0  0  0  0  0  0  0  0  0
    4.6783   -3.8562    0.0000 N   0  0  0  0  0  0  0  0  0  0  0  0
    6.8270    2.3163    0.0000 C   0  0  2  0  0  0  0  0  0  0  0  0
    7.7775    2.0057    0.0000 C   0  0  1  0  0  0  0  0  0  0  0  0
    5.6917    0.6706    0.0000 C   0  0  0  0  0  0  0  0  0  0  0  0
    7.2297    0.1679    0.0000 C   0  0  0  0  0  0  0  0  0  0  0  0
    6.2781   -0.1394    0.0000 C   0  0  0  0  0  0  0  0  0  0  0  0
    5.6687    3.9164    0.0000 C   0  0  0  0  0  0  0  0  0  0  0  0
    7.1116    4.6485    0.0000 C   0  0  0  0  0  0  0  0  0  0  0  0
    6.1242    4.8067    0.0000 C   0  0  0  0  0  0  0  0  0  0  0  0
    9.6903    3.1405    0.0000 C   0  0  0  0  0  0  0  0  0  0  0  0
    4.9889   -1.2962    0.0000 C   0  0  0  0  0  0  0  0  0  0  0  0
    4.6783   -2.2467    0.0000 C   0  0  0  0  0  0  0  0  0  0  0  0
    3.7320   -2.5514    0.0000 C   0  0  0  0  0  0  0  0  0  0  0  0
    3.7320   -3.5514    0.0000 C   0  0  0  0  0  0  0  0  0  0  0  0
    2.8660   -2.0514    0.0000 C   0  0  0  0  0  0  0  0  0  0  0  0
    2.8660   -4.0514    0.0000 C   0  0  0  0  0  0  0  0  0  0  0  0
    4.9889   -4.8067    0.0000 C   0  0  0  0  0  0  0  0  0  0  0  0
    2.0000   -2.5514    0.0000 C   0  0  0  0  0  0  0  0  0  0  0  0
    2.0000   -3.5514    0.0000 C   0  0  0  0  0  0  0  0  0  0  0  0
    6.0190    2.5804    0.0000 H   0  0  0  0  0  0  0  0  0  0  0  0
    8.5854    1.7416    0.0000 H   0  0  0  0  0  0  0  0  0  0  0  0
    5.2245    1.0782    0.0000 H   0  0  0  0  0  0  0  0  0  0  0  0
    5.2339    0.2525    0.0000 H   0  0  0  0  0  0  0  0  0  0  0  0
    7.2988   -0.4482    0.0000 H   0  0  0  0  0  0  0  0  0  0  0  0
    7.8472    0.1128    0.0000 H   0  0  0  0  0  0  0  0  0  0  0  0
    5.6656   -0.2354    0.0000 H   0  0  0  0  0  0  0  0  0  0  0  0
    5.1677    4.2818    0.0000 H   0  0  0  0  0  0  0  0  0  0  0  0
    5.2295    3.4788    0.0000 H   0  0  0  0  0  0  0  0  0  0  0  0
    7.7278    4.7176    0.0000 H   0  0  0  0  0  0  0  0  0  0  0  0
    7.1262    5.2684    0.0000 H   0  0  0  0  0  0  0  0  0  0  0  0
    6.2857    5.4053    0.0000 H   0  0  0  0  0  0  0  0  0  0  0  0
    5.5458    5.0299    0.0000 H   0  0  0  0  0  0  0  0  0  0  0  0
    9.9708    2.5876    0.0000 H   0  0  0  0  0  0  0  0  0  0  0  0
   10.2432    3.4210    0.0000 H   0  0  0  0  0  0  0  0  0  0  0  0
    9.4098    3.6934    0.0000 H   0  0  0  0  0  0  0  0  0  0  0  0
    6.3815   -1.5514    0.0000 H   0  0  0  0  0  0  0  0  0  0  0  0
    2.8660   -1.4314    0.0000 H   0  0  0  0  0  0  0  0  0  0  0  0
    2.8660   -4.6714    0.0000 H   0  0  0  0  0  0  0  0  0  0  0  0
    4.3996   -4.9993    0.0000 H   0  0  0  0  0  0  0  0  0  0  0  0
    5.1815   -5.3960    0.0000 H   0  0  0  0  0  0  0  0  0  0  0  0
    5.5783   -4.6141    0.0000 H   0  0  0  0  0  0  0  0  0  0  0  0
    1.4631   -2.2414    0.0000 H   0  0  0  0  0  0  0  0  0  0  0  0
    1.4631   -3.8614    0.0000 H   0  0  0  0  0  0  0  0  0  0  0  0
  1 15  2  0  0  0  0
  2  6  1  0  0  0  0
  2  7  1  0  0  0  0
  2 14  1  0  0  0  0
  3 10  1  0  0  0  0
  3 15  1  0  0  0  0
  3 40  1  0  0  0  0
  4  5  1  0  0  0  0
  4 16  2  0  0  0  0
  5 18  1  0  0  0  0
  5 21  1  0  0  0  0
  6  8  1  0  0  0  0
  6 11  1  0  0  0  0
  6 24  1  1  0  0  0
  7  9  1  0  0  0  0
  7 12  1  0  0  0  0
  7 25  1  6  0  0  0
  8 10  1  0  0  0  0
  8 26  1  0  0  0  0
  8 27  1  0  0  0  0
  9 10  1  0  0  0  0
  9 28  1  0  0  0  0
  9 29  1  0  0  0  0
 10 30  1  0  0  0  0
 11 13  1  0  0  0  0
 11 31  1  0  0  0  0
 11 32  1  0  0  0  0
 12 13  1  0  0  0  0
 12 33  1  0  0  0  0
 12 34  1  0  0  0  0
 13 35  1  0  0  0  0
 13 36  1  0  0  0  0
 14 37  1  0  0  0  0
 14 38  1  0  0  0  0
 14 39  1  0  0  0  0
 15 16  1  0  0  0  0
 16 17  1  0  0  0  0
 17 18  1  0  0  0  0
 17 19  2  0  0  0  0
 18 20  2  0  0  0  0
 19 22  1  0  0  0  0
 19 41  1  0  0  0  0
 20 23  1  0  0  0  0
 20 42  1  0  0  0  0
 21 43  1  0  0  0  0
 21 44  1  0  0  0  0
 21 45  1  0  0  0  0
 22 23  2  0  0  0  0
 22 46  1  0  0  0  0
 23 47  1  0  0  0  0
M  END
> <PUBCHEM_COMPOUND_CID>
5284566

> <PUBCHEM_COMPOUND_CANONICALIZED>
1

> <PUBCHEM_CACTVS_COMPLEXITY>
442

> <PUBCHEM_CACTVS_HBOND_ACCEPTOR>
3

> <PUBCHEM_CACTVS_HBOND_DONOR>
1

> <PUBCHEM_CACTVS_ROTATABLE_BOND>
2

> <PUBCHEM_CACTVS_SUBSKEYS>
AAADceB7oAAAAAAAAAAAAAAAAAAAAWAAAAA8WIAAAAAYAFgB8AAAHgAYAAAADCjBngQywPPIAACqAyVyVACSBAAnggAY2KG4ZNgIYLLA1dGUpQhgngDIyQcciICOAAAAAAACAAAAAAAAAAQAAAAAAAAAAA==

> <PUBCHEM_IUPAC_OPENEYE_NAME>
1-methyl-N-[(1S,5R)-9-methyl-9-azabicyclo[3.3.1]nonan-3-yl]indazole-3-carboxamide

> <PUBCHEM_IUPAC_CAS_NAME>
1-methyl-N-[(1S,5R)-9-methyl-9-azabicyclo[3.3.1]nonan-3-yl]-3-indazolecarboxamide

> <PUBCHEM_IUPAC_NAME>
1-methyl-N-[(1S,5R)-9-methyl-9-azabicyclo[3.3.1]nonan-3-yl]indazole-3-carboxamide

> <PUBCHEM_IUPAC_SYSTEMATIC_NAME>
1-methyl-N-[(1S,5R)-9-methyl-9-azabicyclo[3.3.1]nonan-3-yl]indazole-3-carboxamide

> <PUBCHEM_IUPAC_TRADITIONAL_NAME>
1-methyl-N-[(1S,5R)-9-methyl-9-azabicyclo[3.3.1]nonan-3-yl]indazole-3-carboxamide

> <PUBCHEM_IUPAC_INCHI>
InChI=1S/C18H24N4O/c1-21-13-6-5-7-14(21)11-12(10-13)19-18(23)17-15-8-3-4-9-16(15)22(2)20-17/h3-4,8-9,12-14H,5-7,10-11H2,1-2H3,(H,19,23)/t12?,13-,14+

> <PUBCHEM_IUPAC_INCHIKEY>
MFWNKCLOYSRHCJ-AGUYFDCRSA-N

> <PUBCHEM_XLOGP3_AA>
2.8

> <PUBCHEM_EXACT_MASS>
312.195011

> <PUBCHEM_MOLECULAR_FORMULA>
C18H24N4O

> <PUBCHEM_MOLECULAR_WEIGHT>
312.40936

> <PUBCHEM_OPENEYE_CAN_SMILES>
CN1C2CCCC1CC(C2)NC(=O)C3=NN(C4=CC=CC=C43)C

> <PUBCHEM_OPENEYE_ISO_SMILES>
CN1[C@@H]2CCC[C@H]1CC(C2)NC(=O)C3=NN(C4=CC=CC=C43)C

> <PUBCHEM_CACTVS_TPSA>
50.2

> <PUBCHEM_MONOISOTOPIC_WEIGHT>
312.195011

> <PUBCHEM_TOTAL_CHARGE>
0

> <PUBCHEM_HEAVY_ATOM_COUNT>
23

> <PUBCHEM_ATOM_DEF_STEREO_COUNT>
2

> <PUBCHEM_ATOM_UDEF_STEREO_COUNT>
0

> <PUBCHEM_BOND_DEF_STEREO_COUNT>
0

> <PUBCHEM_BOND_UDEF_STEREO_COUNT>
0

> <PUBCHEM_ISOTOPIC_ATOM_COUNT>
0

> <PUBCHEM_COMPONENT_COUNT>
1

> <PUBCHEM_CACTVS_TAUTO_COUNT>
2

> <PUBCHEM_COORDINATE_TYPE>
1
5
255

> <PUBCHEM_BONDANNOTATIONS>
16  17  8
17  18  8
17  19  8
18  20  8
19  22  8
20  23  8
22  23  8
4  16  8
4  5  8
5  18  8
6  24  5
7  25  6

$$$$

