440473
  -OEChem-07051212493D

 24 24  0     1  0  0  0  0  0999 V2000
   -1.5052   -1.0118   -1.5758 O   0  0  0  0  0  0  0  0  0  0  0  0
    2.4253   -2.0168    0.7919 O   0  0  0  0  0  0  0  0  0  0  0  0
   -2.9655   -1.6842    0.0249 O   0  0  0  0  0  0  0  0  0  0  0  0
    3.8371   -0.0275   -0.6288 O   0  0  0  0  0  0  0  0  0  0  0  0
    0.0132    0.7419    0.4957 N   0  0  0  0  0  0  0  0  0  0  0  0
   -3.7277    0.9375    0.3721 N   0  0  0  0  0  0  0  0  0  0  0  0
   -1.3455    1.0386    0.9363 C   0  0  0  0  0  0  0  0  0  0  0  0
   -2.3802    0.6791   -0.1310 C   0  0  1  0  0  0  0  0  0  0  0  0
    0.6168   -0.4700    0.8020 C   0  0  0  0  0  0  0  0  0  0  0  0
    0.7715    1.6892   -0.1770 C   0  0  0  0  0  0  0  0  0  0  0  0
   -2.3342   -0.7888   -0.5207 C   0  0  0  0  0  0  0  0  0  0  0  0
    1.8723   -0.8014    0.4686 C   0  0  0  0  0  0  0  0  0  0  0  0
    2.0366    1.5103   -0.5793 C   0  0  0  0  0  0  0  0  0  0  0  0
    2.6854    0.2039   -0.2788 C   0  0  0  0  0  0  0  0  0  0  0  0
   -1.5560    0.4923    1.8667 H   0  0  0  0  0  0  0  0  0  0  0  0
   -1.4315    2.1026    1.1961 H   0  0  0  0  0  0  0  0  0  0  0  0
   -2.2340    1.2793   -1.0365 H   0  0  0  0  0  0  0  0  0  0  0  0
   -0.0170   -1.1594    1.3496 H   0  0  0  0  0  0  0  0  0  0  0  0
    0.2522    2.6211   -0.3719 H   0  0  0  0  0  0  0  0  0  0  0  0
   -3.8154    1.9228    0.6191 H   0  0  0  0  0  0  0  0  0  0  0  0
   -3.8804    0.4205    1.2379 H   0  0  0  0  0  0  0  0  0  0  0  0
    2.5964    2.2710   -1.1076 H   0  0  0  0  0  0  0  0  0  0  0  0
   -1.4798   -1.9599   -1.8259 H   0  0  0  0  0  0  0  0  0  0  0  0
    3.3356   -2.0212    0.4486 H   0  0  0  0  0  0  0  0  0  0  0  0
  1 11  1  0  0  0  0
  1 23  1  0  0  0  0
  2 12  1  0  0  0  0
  2 24  1  0  0  0  0
  3 11  2  0  0  0  0
  4 14  2  0  0  0  0
  5  7  1  0  0  0  0
  5  9  1  0  0  0  0
  5 10  1  0  0  0  0
  6  8  1  0  0  0  0
  6 20  1  0  0  0  0
  6 21  1  0  0  0  0
  7  8  1  0  0  0  0
  7 15  1  0  0  0  0
  7 16  1  0  0  0  0
  8 11  1  0  0  0  0
  8 17  1  0  0  0  0
  9 12  2  0  0  0  0
  9 18  1  0  0  0  0
 10 13  2  0  0  0  0
 10 19  1  0  0  0  0
 12 14  1  0  0  0  0
 13 14  1  0  0  0  0
 13 22  1  0  0  0  0
M  END
> <PUBCHEM_COMPOUND_CID>
440473

> <PUBCHEM_CONFORMER_RMSD>
0.6

> <PUBCHEM_CONFORMER_DIVERSEORDER>
1
13
8
9
15
7
3
5
10
14
11
12
4
6
2

> <PUBCHEM_MMFF94_PARTIAL_CHARGES>
21
1 -0.65
10 -0.05
11 0.66
12 0.09
13 -0.14
14 0.54
18 0.15
19 0.15
2 -0.53
20 0.36
21 0.36
22 0.15
23 0.5
24 0.45
3 -0.57
4 -0.57
5 -0.57
6 -0.99
7 0.37
8 0.33
9 -0.05

> <PUBCHEM_EFFECTIVE_ROTOR_COUNT>
3

> <PUBCHEM_PHARMACOPHORE_FEATURES>
9
1 1 acceptor
1 2 donor
1 3 acceptor
1 4 acceptor
1 5 cation
1 6 cation
1 6 donor
3 1 3 11 anion
6 5 9 10 12 13 14 rings

> <PUBCHEM_HEAVY_ATOM_COUNT>
14

> <PUBCHEM_ATOM_DEF_STEREO_COUNT>
1

> <PUBCHEM_ATOM_UDEF_STEREO_COUNT>
0

> <PUBCHEM_BOND_DEF_STEREO_COUNT>
0

> <PUBCHEM_BOND_UDEF_STEREO_COUNT>
0

> <PUBCHEM_ISOTOPIC_ATOM_COUNT>
0

> <PUBCHEM_COMPONENT_COUNT>
1

> <PUBCHEM_CACTVS_TAUTO_COUNT>
2

> <PUBCHEM_CONFORMER_ID>
0006B89900000001

> <PUBCHEM_MMFF94_ENERGY>
23.6061

> <PUBCHEM_FEATURE_SELFOVERLAP>
45.728

> <PUBCHEM_SHAPE_FINGERPRINT>
11031198 65 17846486050207068892
12932764 1 18411140250835858617
14128692 85 18334013856780687856
14993402 34 18262236728523605277
15279307 12 18409726283346239547
15375462 189 18410851070687494385
15775835 57 18343295981123625293
16945 1 18272376360240697320
18186145 218 18202004296200980772
18619055 16 18268437991141498329
19422 9 18336538314156037061
19786989 88 16343121555460214742
20279233 1 16081372963865547820
20645476 183 18409728465416368991
232386 152 17968105217588508998
23402539 116 18411981369542869556
23402655 69 18201437016704461621
23552423 10 18339645525368330937
23559900 14 17530965804856131800
23598291 2 18268151027222976723
2748010 2 16104431557020720344
465052 167 17825661150455567935
528886 8 18272370875530485312
7832392 63 18411138051976308625
9939556 21 18411699893954436809

> <PUBCHEM_SHAPE_MULTIPOLES>
254.67
5.58
1.78
1
0.71
0.24
-0.13
0.65
-0.6
-0.15
0.08
0.12
0.14
-0.84

> <PUBCHEM_SHAPE_SELFOVERLAP>
522.782

> <PUBCHEM_SHAPE_VOLUME>
145.5

> <PUBCHEM_COORDINATE_TYPE>
2
5
10

$$$$

