65074
  -OEChem-07051212502D

 31 32  0     1  0  0  0  0  0999 V2000
    7.7953    1.6834    0.0000 O   0  0  0  0  0  0  0  0  0  0  0  0
    8.6709   -0.8133    0.0000 O   0  0  0  0  0  0  0  0  0  0  0  0
   10.3991    0.1934    0.0000 O   0  0  0  0  0  0  0  0  0  0  0  0
    4.2690    1.6592    0.0000 O   0  0  0  0  0  0  0  0  0  0  0  0
    6.0290   -1.3755    0.0000 N   0  0  0  0  0  0  0  0  0  0  0  0
    6.0290    0.6939    0.0000 N   0  0  0  0  0  0  0  0  0  0  0  0
    4.2690   -1.3408    0.0000 N   0  0  0  0  0  0  0  0  0  0  0  0
    3.4030    0.1592    0.0000 N   0  0  0  0  0  0  0  0  0  0  0  0
    2.5369   -1.3408    0.0000 N   0  0  0  0  0  0  0  0  0  0  0  0
    7.7991    0.6834    0.0000 C   0  0  1  0  0  0  0  0  0  0  0  0
    6.9350    0.1800    0.0000 C   0  0  0  0  0  0  0  0  0  0  0  0
    8.6671    0.1867    0.0000 C   0  0  1  0  0  0  0  0  0  0  0  0
    6.9350   -0.8616    0.0000 C   0  0  0  0  0  0  0  0  0  0  0  0
    5.1350   -0.8408    0.0000 C   0  0  0  0  0  0  0  0  0  0  0  0
    5.1350    0.1592    0.0000 C   0  0  0  0  0  0  0  0  0  0  0  0
    9.5312    0.6900    0.0000 C   0  0  0  0  0  0  0  0  0  0  0  0
    4.2690    0.6592    0.0000 C   0  0  0  0  0  0  0  0  0  0  0  0
    3.4030   -0.8408    0.0000 C   0  0  0  0  0  0  0  0  0  0  0  0
    7.2610    0.9913    0.0000 H   0  0  0  0  0  0  0  0  0  0  0  0
    8.1313   -0.1254    0.0000 H   0  0  0  0  0  0  0  0  0  0  0  0
    7.1441   -1.4453    0.0000 H   0  0  0  0  0  0  0  0  0  0  0  0
    7.5459   -0.7555    0.0000 H   0  0  0  0  0  0  0  0  0  0  0  0
    6.0218   -1.9954    0.0000 H   0  0  0  0  0  0  0  0  0  0  0  0
    9.9278    1.1665    0.0000 H   0  0  0  0  0  0  0  0  0  0  0  0
    9.1308    1.1634    0.0000 H   0  0  0  0  0  0  0  0  0  0  0  0
    4.2690   -1.9608    0.0000 H   0  0  0  0  0  0  0  0  0  0  0  0
    8.3310    1.9954    0.0000 H   0  0  0  0  0  0  0  0  0  0  0  0
    9.2090   -1.1212    0.0000 H   0  0  0  0  0  0  0  0  0  0  0  0
   10.9348    0.5054    0.0000 H   0  0  0  0  0  0  0  0  0  0  0  0
    2.0000   -1.0308    0.0000 H   0  0  0  0  0  0  0  0  0  0  0  0
    2.5369   -1.9608    0.0000 H   0  0  0  0  0  0  0  0  0  0  0  0
 10  1  1  6  0  0  0
  1 27  1  0  0  0  0
 12  2  1  1  0  0  0
  2 28  1  0  0  0  0
  3 16  1  0  0  0  0
  3 29  1  0  0  0  0
  4 17  2  0  0  0  0
  5 13  1  0  0  0  0
  5 14  1  0  0  0  0
  5 23  1  0  0  0  0
  6 11  2  0  0  0  0
  6 15  1  0  0  0  0
  7 14  1  0  0  0  0
  7 18  1  0  0  0  0
  7 26  1  0  0  0  0
  8 17  1  0  0  0  0
  8 18  2  0  0  0  0
  9 18  1  0  0  0  0
  9 30  1  0  0  0  0
  9 31  1  0  0  0  0
 10 11  1  0  0  0  0
 10 12  1  0  0  0  0
 10 19  1  0  0  0  0
 11 13  1  0  0  0  0
 12 16  1  0  0  0  0
 12 20  1  0  0  0  0
 13 21  1  0  0  0  0
 13 22  1  0  0  0  0
 14 15  2  0  0  0  0
 15 17  1  0  0  0  0
 16 24  1  0  0  0  0
 16 25  1  0  0  0  0
M  END
> <PUBCHEM_COMPOUND_CID>
65074

> <PUBCHEM_COMPOUND_CANONICALIZED>
1

> <PUBCHEM_CACTVS_COMPLEXITY>
470

> <PUBCHEM_CACTVS_HBOND_ACCEPTOR>
6

> <PUBCHEM_CACTVS_HBOND_DONOR>
6

> <PUBCHEM_CACTVS_ROTATABLE_BOND>
3

> <PUBCHEM_CACTVS_SUBSKEYS>
AAADccBzuAAAAAAAAAAAAAAAAAAAAAAAAAAgQAAAAAAAAACAAAAAHgAQCAAACBzhgAYBAALAAgCoAQVwdASAAAEAAAABAIC4AECBUAIAgAAEQAAPAAIBAECwEAIAAAAAAAAAAAAAAAAAAAAAAAAAAAAAAA==

> <PUBCHEM_IUPAC_OPENEYE_NAME>
2-amino-6-[(1S,2R)-1,2,3-trihydroxypropyl]-7,8-dihydro-1H-pteridin-4-one

> <PUBCHEM_IUPAC_CAS_NAME>
2-amino-6-[(1S,2R)-1,2,3-trihydroxypropyl]-7,8-dihydro-1H-pteridin-4-one

> <PUBCHEM_IUPAC_NAME>
2-amino-6-[(1S,2R)-1,2,3-trihydroxypropyl]-7,8-dihydro-1H-pteridin-4-one

> <PUBCHEM_IUPAC_SYSTEMATIC_NAME>
2-azanyl-6-[(1S,2R)-1,2,3-tris(oxidanyl)propyl]-7,8-dihydro-1H-pteridin-4-one

> <PUBCHEM_IUPAC_TRADITIONAL_NAME>
2-amino-6-[(1S,2R)-1,2,3-trihydroxypropyl]-7,8-dihydro-1H-pteridin-4-one

> <PUBCHEM_IUPAC_INCHI>
InChI=1S/C9H13N5O4/c10-9-13-7-5(8(18)14-9)12-3(1-11-7)6(17)4(16)2-15/h4,6,15-17H,1-2H2,(H4,10,11,13,14,18)/t4-,6+/m1/s1

> <PUBCHEM_IUPAC_INCHIKEY>
YQIFAMYNGGOTFB-XINAWCOVSA-N

> <PUBCHEM_XLOGP3_AA>
-3.3

> <PUBCHEM_EXACT_MASS>
255.096754

> <PUBCHEM_MOLECULAR_FORMULA>
C9H13N5O4

> <PUBCHEM_MOLECULAR_WEIGHT>
255.23062

> <PUBCHEM_OPENEYE_CAN_SMILES>
C1C(=NC2=C(N1)NC(=NC2=O)N)C(C(CO)O)O

> <PUBCHEM_OPENEYE_ISO_SMILES>
C1C(=NC2=C(N1)NC(=NC2=O)N)[C@@H]([C@@H](CO)O)O

> <PUBCHEM_CACTVS_TPSA>
153

> <PUBCHEM_MONOISOTOPIC_WEIGHT>
255.096754

> <PUBCHEM_TOTAL_CHARGE>
0

> <PUBCHEM_HEAVY_ATOM_COUNT>
18

> <PUBCHEM_ATOM_DEF_STEREO_COUNT>
2

> <PUBCHEM_ATOM_UDEF_STEREO_COUNT>
0

> <PUBCHEM_BOND_DEF_STEREO_COUNT>
0

> <PUBCHEM_BOND_UDEF_STEREO_COUNT>
0

> <PUBCHEM_ISOTOPIC_ATOM_COUNT>
0

> <PUBCHEM_COMPONENT_COUNT>
1

> <PUBCHEM_CACTVS_TAUTO_COUNT>
145

> <PUBCHEM_COORDINATE_TYPE>
1
5
255

> <PUBCHEM_BONDANNOTATIONS>
10  1  6
14  15  8
15  17  8
12  2  5
7  14  8
7  18  8
8  17  8
8  18  8

$$$$

