119518
  -OEChem-07051213053D

 23 24  0     0  0  0  0  0  0999 V2000
    0.1293    2.6053   -0.0204 Cl  0  0  0  0  0  0  0  0  0  0  0  0
    3.2747    2.5223   -0.2606 Cl  0  0  0  0  0  0  0  0  0  0  0  0
    3.0381   -2.9367   -0.1658 Cl  0  0  0  0  0  0  0  0  0  0  0  0
    4.7578   -0.2578   -0.3355 Cl  0  0  0  0  0  0  0  0  0  0  0  0
   -4.3181   -0.1836   -2.3912 Cl  0  0  0  0  0  0  0  0  0  0  0  0
   -1.0976   -0.0867    2.5207 O   0  0  0  0  0  0  0  0  0  0  0  0
    0.2402   -0.1038    0.0091 C   0  0  0  0  0  0  0  0  0  0  0  0
   -1.2046   -0.1169    0.1200 C   0  0  0  0  0  0  0  0  0  0  0  0
    0.9737    1.0823   -0.0631 C   0  0  0  0  0  0  0  0  0  0  0  0
    0.9026   -1.3323   -0.0250 C   0  0  0  0  0  0  0  0  0  0  0  0
   -1.8264   -0.1084    1.3685 C   0  0  0  0  0  0  0  0  0  0  0  0
   -1.9749   -0.1395   -1.0427 C   0  0  0  0  0  0  0  0  0  0  0  0
    2.3638    1.0398   -0.1692 C   0  0  0  0  0  0  0  0  0  0  0  0
    2.2927   -1.3748   -0.1309 C   0  0  0  0  0  0  0  0  0  0  0  0
    3.0234   -0.1888   -0.2030 C   0  0  0  0  0  0  0  0  0  0  0  0
   -3.2186   -0.1222    1.4543 C   0  0  0  0  0  0  0  0  0  0  0  0
   -3.3670   -0.1536   -0.9569 C   0  0  0  0  0  0  0  0  0  0  0  0
   -3.9889   -0.1448    0.2916 C   0  0  0  0  0  0  0  0  0  0  0  0
    0.3342   -2.2594    0.0318 H   0  0  0  0  0  0  0  0  0  0  0  0
   -1.4931   -0.1464   -2.0188 H   0  0  0  0  0  0  0  0  0  0  0  0
   -3.7096   -0.1157    2.4237 H   0  0  0  0  0  0  0  0  0  0  0  0
   -5.0728   -0.1557    0.3738 H   0  0  0  0  0  0  0  0  0  0  0  0
   -0.1461   -0.0721    2.3327 H   0  0  0  0  0  0  0  0  0  0  0  0
  1  9  1  0  0  0  0
  2 13  1  0  0  0  0
  3 14  1  0  0  0  0
  4 15  1  0  0  0  0
  5 17  1  0  0  0  0
  6 11  1  0  0  0  0
  6 23  1  0  0  0  0
  7  8  1  0  0  0  0
  7  9  1  0  0  0  0
  7 10  2  0  0  0  0
  8 11  2  0  0  0  0
  8 12  1  0  0  0  0
  9 13  2  0  0  0  0
 10 14  1  0  0  0  0
 10 19  1  0  0  0  0
 11 16  1  0  0  0  0
 12 17  2  0  0  0  0
 12 20  1  0  0  0  0
 13 15  1  0  0  0  0
 14 15  2  0  0  0  0
 16 18  2  0  0  0  0
 16 21  1  0  0  0  0
 17 18  1  0  0  0  0
 18 22  1  0  0  0  0
M  END
> <PUBCHEM_COMPOUND_CID>
119518

> <PUBCHEM_CONFORMER_RMSD>
0.6

> <PUBCHEM_CONFORMER_DIVERSEORDER>
1
2

> <PUBCHEM_MMFF94_PARTIAL_CHARGES>
21
1 -0.18
10 -0.15
11 0.08
12 -0.15
13 0.18
14 0.18
15 0.18
16 -0.15
17 0.18
18 -0.15
19 0.15
2 -0.18
20 0.15
21 0.15
22 0.15
23 0.45
3 -0.18
4 -0.18
5 -0.18
6 -0.53
9 0.18

> <PUBCHEM_EFFECTIVE_ROTOR_COUNT>
1

> <PUBCHEM_PHARMACOPHORE_FEATURES>
3
1 6 donor
6 7 9 10 13 14 15 rings
6 8 11 12 16 17 18 rings

> <PUBCHEM_HEAVY_ATOM_COUNT>
18

> <PUBCHEM_ATOM_DEF_STEREO_COUNT>
0

> <PUBCHEM_ATOM_UDEF_STEREO_COUNT>
0

> <PUBCHEM_BOND_DEF_STEREO_COUNT>
0

> <PUBCHEM_BOND_UDEF_STEREO_COUNT>
0

> <PUBCHEM_ISOTOPIC_ATOM_COUNT>
0

> <PUBCHEM_COMPONENT_COUNT>
1

> <PUBCHEM_CACTVS_TAUTO_COUNT>
3

> <PUBCHEM_CONFORMER_ID>
0001D2DE00000001

> <PUBCHEM_MMFF94_ENERGY>
53.6034

> <PUBCHEM_FEATURE_SELFOVERLAP>
15.223

> <PUBCHEM_SHAPE_FINGERPRINT>
10062212 137 17603866723975103127
11471102 20 18411981343409146812
11543360 7 18338533945309676143
11582403 64 17195214393669395433
11725454 13 17414470245078956045
11796584 16 16558756758393633698
12236239 1 17676483951961445587
12403259 415 17704353243131324133
12500047 106 16487258759375074994
12553582 1 18265042703920712350
13009979 54 17531241811459052190
13134695 92 18340771528528332380
13140716 1 18266736884161938202
13911987 19 18270951354996247732
14576447 43 18115039527555653287
15219456 202 17988922228108287873
15375358 24 17989211421236214044
16945 1 18411128152550892870
17357779 13 18271526493655593028
1813 80 17899114282125148806
18186145 218 17489589012806320781
18219364 16 18125714595792301080
19049666 15 17703511098670421369
200 152 18260269654797181325
20279233 1 17775279469457935187
204376 136 18195241114564202920
20600515 1 16128110931119786828
20645477 70 18341896285778890142
21065201 7 16271926012682092659
21639500 275 18337673001312999905
22112679 90 17313093155531555225
2255824 54 18334569144971486622
23175994 123 18130777979887120316
232386 152 16443354143760840159
2334 1 17977941285961070046
23402539 116 18259985993634676796
23493267 7 16989126444048640288
23526113 38 17987529254281694126
23557571 272 16988838371954391719
23559900 14 16917073304171360234
23598291 2 17894908516519265237
2748010 2 18051678963804572030
350125 39 17547279009015317928
474 4 18189336767140357456
602551 16 15213027020184231366
6049 1 17631999919104230367
633830 44 18043505275541211916
7615 1 17821728364148585201
77492 1 17748821921427507195
81228 2 17986389103932501948
88987 49 15769772429437255211
9981440 41 16595364723115212008

> <PUBCHEM_SHAPE_MULTIPOLES>
373.91
8.09
2.27
1.56
1.1
0.33
-0.21
-1.19
2.6
-3.34
0.2
2.51
-0.12
-0.14

> <PUBCHEM_SHAPE_SELFOVERLAP>
768.375

> <PUBCHEM_SHAPE_VOLUME>
220.2

> <PUBCHEM_COORDINATE_TYPE>
2
5
10

$$$$

