17395408
  -OEChem-06241222503D

 32 33  0     0  0  0  0  0  0999 V2000
    4.4326   -1.9054   -0.7257 F   0  0  0  0  0  0  0  0  0  0  0  0
    5.2882    0.6212   -0.0450 O   0  0  0  0  0  0  0  0  0  0  0  0
   -0.4835   -1.8709    0.3256 O   0  0  0  0  0  0  0  0  0  0  0  0
   -1.0463    0.3853   -0.0215 N   0  0  0  0  0  0  0  0  0  0  0  0
   -3.1160    1.2289   -0.7899 N   0  0  0  0  0  0  0  0  0  0  0  0
    1.2539   -0.3447    0.1027 C   0  0  0  0  0  0  0  0  0  0  0  0
   -0.1590   -0.6845    0.1557 C   0  0  0  0  0  0  0  0  0  0  0  0
   -2.4433    0.3265   -0.0411 C   0  0  0  0  0  0  0  0  0  0  0  0
    2.1860   -1.3036   -0.2944 C   0  0  0  0  0  0  0  0  0  0  0  0
    1.6778    0.9383    0.4494 C   0  0  0  0  0  0  0  0  0  0  0  0
    3.9653    0.3037    0.0018 C   0  0  0  0  0  0  0  0  0  0  0  0
   -5.1683    0.1842   -0.0537 C   0  0  0  0  0  0  0  0  0  0  0  0
    3.5418   -0.9794   -0.3448 C   0  0  0  0  0  0  0  0  0  0  0  0
    3.0333    1.2624    0.3989 C   0  0  0  0  0  0  0  0  0  0  0  0
   -3.0523   -0.6610    0.7164 C   0  0  0  0  0  0  0  0  0  0  0  0
   -4.4412   -0.7267    0.7046 C   0  0  0  0  0  0  0  0  0  0  0  0
   -4.4646    1.1340   -0.7766 C   0  0  0  0  0  0  0  0  0  0  0  0
   -6.6545    0.1404   -0.0851 C   0  0  0  0  0  0  0  0  0  0  0  0
    5.6500    1.9514    0.3227 C   0  0  0  0  0  0  0  0  0  0  0  0
    1.8783   -2.3079   -0.5733 H   0  0  0  0  0  0  0  0  0  0  0  0
    0.9883    1.7044    0.7931 H   0  0  0  0  0  0  0  0  0  0  0  0
   -0.6746    1.2538   -0.3973 H   0  0  0  0  0  0  0  0  0  0  0  0
    3.2941    2.2748    0.6881 H   0  0  0  0  0  0  0  0  0  0  0  0
   -2.5150   -1.3528    1.3533 H   0  0  0  0  0  0  0  0  0  0  0  0
   -4.9470   -1.4830    1.2988 H   0  0  0  0  0  0  0  0  0  0  0  0
   -4.9755    1.8731   -1.3858 H   0  0  0  0  0  0  0  0  0  0  0  0
   -7.0664    0.7375    0.7345 H   0  0  0  0  0  0  0  0  0  0  0  0
   -7.0423    0.5319   -1.0317 H   0  0  0  0  0  0  0  0  0  0  0  0
   -7.0200   -0.8876    0.0109 H   0  0  0  0  0  0  0  0  0  0  0  0
    6.7378    2.0289    0.2253 H   0  0  0  0  0  0  0  0  0  0  0  0
    5.4076    2.1593    1.3703 H   0  0  0  0  0  0  0  0  0  0  0  0
    5.2149    2.6901   -0.3590 H   0  0  0  0  0  0  0  0  0  0  0  0
  1 13  1  0  0  0  0
  2 11  1  0  0  0  0
  2 19  1  0  0  0  0
  3  7  2  0  0  0  0
  4  7  1  0  0  0  0
  4  8  1  0  0  0  0
  4 22  1  0  0  0  0
  5  8  2  0  0  0  0
  5 17  1  0  0  0  0
  6  7  1  0  0  0  0
  6  9  2  0  0  0  0
  6 10  1  0  0  0  0
  8 15  1  0  0  0  0
  9 13  1  0  0  0  0
  9 20  1  0  0  0  0
 10 14  2  0  0  0  0
 10 21  1  0  0  0  0
 11 13  2  0  0  0  0
 11 14  1  0  0  0  0
 12 16  1  0  0  0  0
 12 17  2  0  0  0  0
 12 18  1  0  0  0  0
 14 23  1  0  0  0  0
 15 16  2  0  0  0  0
 15 24  1  0  0  0  0
 16 25  1  0  0  0  0
 17 26  1  0  0  0  0
 18 27  1  0  0  0  0
 18 28  1  0  0  0  0
 18 29  1  0  0  0  0
 19 30  1  0  0  0  0
 19 31  1  0  0  0  0
 19 32  1  0  0  0  0
M  END
> <PUBCHEM_COMPOUND_CID>
17395408

> <PUBCHEM_CONFORMER_RMSD>
0.6

> <PUBCHEM_CONFORMER_DIVERSEORDER>
1
7
8
2
4
6
3
5

> <PUBCHEM_MMFF94_PARTIAL_CHARGES>
26
1 -0.19
10 -0.15
11 0.08
12 -0.14
13 0.19
14 -0.15
15 -0.15
16 -0.15
17 0.16
18 0.14
19 0.28
2 -0.36
20 0.15
21 0.15
22 0.37
23 0.15
24 0.15
25 0.15
26 0.15
3 -0.57
4 -0.55
5 -0.62
6 0.09
7 0.54
8 0.43
9 -0.15

> <PUBCHEM_EFFECTIVE_ROTOR_COUNT>
4

> <PUBCHEM_PHARMACOPHORE_FEATURES>
5
1 2 acceptor
1 3 acceptor
1 4 donor
6 5 8 12 15 16 17 rings
6 6 9 10 11 13 14 rings

> <PUBCHEM_HEAVY_ATOM_COUNT>
19

> <PUBCHEM_ATOM_DEF_STEREO_COUNT>
0

> <PUBCHEM_ATOM_UDEF_STEREO_COUNT>
0

> <PUBCHEM_BOND_DEF_STEREO_COUNT>
0

> <PUBCHEM_BOND_UDEF_STEREO_COUNT>
0

> <PUBCHEM_ISOTOPIC_ATOM_COUNT>
0

> <PUBCHEM_COMPONENT_COUNT>
1

> <PUBCHEM_CACTVS_TAUTO_COUNT>
3

> <PUBCHEM_CONFORMER_ID>
01096ED000000001

> <PUBCHEM_MMFF94_ENERGY>
66.6124

> <PUBCHEM_FEATURE_SELFOVERLAP>
25.371

> <PUBCHEM_SHAPE_FINGERPRINT>
10 15 18200881660970761560
11128504 68 15864072040183365928
11287383 113 18412824676879417882
11471102 20 18333731329895562362
12236239 1 17168142360499347905
12403259 415 18201159948638224069
12730499 353 18408599254031822578
12916748 109 18343301487203250193
13081056 2 18413108381218565701
13533116 47 17749389303671510202
1420 363 18131063845116713131
14341114 176 18411694405102186145
15196674 1 18337672017755011129
15475509 35 5689042956147258580
15961568 22 17632571609559544300
17834072 33 17894635842315529279
17844677 252 18335413620971805501
19489759 90 17060340721532045385
200 152 17822012029943621641
20645477 56 18341052925800005536
20645477 70 18187643660862086126
21033648 29 18339656589304741169
21267235 1 18260822757050326830
220451 1 16950282901736664543
221357 26 18333733550088102025
23402539 116 18341056228645680535
23402655 69 18186522107092420388
23557571 272 17917433150523352717
23559900 14 18344144799794842483
2916195 48 18342743987705888816
29717793 49 17240475953251342644
300161 21 18187651275633022450
3004659 81 18343017839790778290
335352 9 18335136480682233006
351380 180 18272933812783477937
3545911 37 18408603638929421336
4072396 5 18261967293146970410
4073 2 18201433636517779195
42630746 31 18260547831935457862
4325135 7 18261959553225675319
4340502 62 17203612583988996138
5104073 3 17987798652369622929
542803 24 16805321106802770641
6025842 7 18113897178657257430
90127 26 18270954743129357785

> <PUBCHEM_SHAPE_MULTIPOLES>
362.04
14.54
1.64
0.77
5.72
0.15
0
-3.92
-0.58
-1.79
-0.09
0.25
-0.01
1.25

> <PUBCHEM_SHAPE_SELFOVERLAP>
777.233

> <PUBCHEM_SHAPE_VOLUME>
201.8

> <PUBCHEM_COORDINATE_TYPE>
2
5
10

$$$$

