15032
  -OEChem-07051213073D

 56 59  0     1  0  0  0  0  0999 V2000
    5.0114   -1.1880   -1.0764 O   0  0  0  0  0  0  0  0  0  0  0  0
   -6.7672    0.2341    0.3998 O   0  0  0  0  0  0  0  0  0  0  0  0
    4.7707    2.7303    1.3848 N   0  0  0  0  0  0  0  0  0  0  0  0
    1.9089   -0.6827   -0.1535 C   0  0  1  0  0  0  0  0  0  0  0  0
    1.1965    0.6779   -0.0232 C   0  0  2  0  0  0  0  0  0  0  0  0
   -0.2618    0.6461   -0.4930 C   0  0  1  0  0  0  0  0  0  0  0  0
   -1.0484   -0.4221    0.3213 C   0  0  1  0  0  0  0  0  0  0  0  0
   -2.5530   -0.5206   -0.1552 C   0  0  2  0  0  0  0  0  0  0  0  0
    3.3181   -0.2759    0.3367 C   0  0  2  0  0  0  0  0  0  0  0  0
    1.1753   -1.6762    0.7585 C   0  0  0  0  0  0  0  0  0  0  0  0
   -0.3130   -1.7889    0.3864 C   0  0  0  0  0  0  0  0  0  0  0  0
    2.1620    1.6541   -0.6924 C   0  0  0  0  0  0  0  0  0  0  0  0
    3.5609    1.1161   -0.3066 C   0  0  1  0  0  0  0  0  0  0  0  0
   -0.9170    2.0254   -0.3262 C   0  0  0  0  0  0  0  0  0  0  0  0
   -3.1563    0.8775   -0.3492 C   0  0  0  0  0  0  0  0  0  0  0  0
    1.9555   -1.2300   -1.6036 C   0  0  0  0  0  0  0  0  0  0  0  0
   -3.3629   -1.2780    0.9393 C   0  0  0  0  0  0  0  0  0  0  0  0
   -2.4095    1.9939   -0.4076 C   0  0  0  0  0  0  0  0  0  0  0  0
   -2.6696   -1.2822   -1.4975 C   0  0  0  0  0  0  0  0  0  0  0  0
   -4.6600    0.9694   -0.4693 C   0  0  0  0  0  0  0  0  0  0  0  0
    4.3918   -1.2612   -0.0164 C   0  0  0  0  0  0  0  0  0  0  0  0
   -4.8788   -1.2186    0.7557 C   0  0  0  0  0  0  0  0  0  0  0  0
   -5.3668    0.2232    0.6577 C   0  0  2  0  0  0  0  0  0  0  0  0
    4.2375    2.0189    0.6393 C   0  0  0  0  0  0  0  0  0  0  0  0
    4.6757   -2.3425    0.9907 C   0  0  0  0  0  0  0  0  0  0  0  0
    1.1754    0.9532    1.0451 H   0  0  0  0  0  0  0  0  0  0  0  0
   -0.2933    0.3911   -1.5583 H   0  0  0  0  0  0  0  0  0  0  0  0
   -1.0659   -0.0531    1.3599 H   0  0  0  0  0  0  0  0  0  0  0  0
    3.3141   -0.1715    1.4315 H   0  0  0  0  0  0  0  0  0  0  0  0
    1.2533   -1.3603    1.8067 H   0  0  0  0  0  0  0  0  0  0  0  0
    1.6301   -2.6707    0.6977 H   0  0  0  0  0  0  0  0  0  0  0  0
   -0.3889   -2.3129   -0.5706 H   0  0  0  0  0  0  0  0  0  0  0  0
   -0.7980   -2.4342    1.1275 H   0  0  0  0  0  0  0  0  0  0  0  0
    1.9888    2.6851   -0.3648 H   0  0  0  0  0  0  0  0  0  0  0  0
    2.0371    1.6331   -1.7815 H   0  0  0  0  0  0  0  0  0  0  0  0
    4.1702    1.0612   -1.2162 H   0  0  0  0  0  0  0  0  0  0  0  0
   -0.5371    2.6982   -1.1045 H   0  0  0  0  0  0  0  0  0  0  0  0
   -0.6423    2.4701    0.6384 H   0  0  0  0  0  0  0  0  0  0  0  0
    0.9623   -1.3349   -2.0479 H   0  0  0  0  0  0  0  0  0  0  0  0
    2.5336   -0.5884   -2.2761 H   0  0  0  0  0  0  0  0  0  0  0  0
    2.4151   -2.2249   -1.6279 H   0  0  0  0  0  0  0  0  0  0  0  0
   -3.1277   -0.8577    1.9266 H   0  0  0  0  0  0  0  0  0  0  0  0
   -3.0640   -2.3324    0.9744 H   0  0  0  0  0  0  0  0  0  0  0  0
   -2.8964    2.9591   -0.5255 H   0  0  0  0  0  0  0  0  0  0  0  0
   -3.6906   -1.2739   -1.8937 H   0  0  0  0  0  0  0  0  0  0  0  0
   -2.0285   -0.8452   -2.2700 H   0  0  0  0  0  0  0  0  0  0  0  0
   -2.3954   -2.3366   -1.3897 H   0  0  0  0  0  0  0  0  0  0  0  0
   -5.0029    2.0123   -0.4702 H   0  0  0  0  0  0  0  0  0  0  0  0
   -4.9739    0.5704   -1.4423 H   0  0  0  0  0  0  0  0  0  0  0  0
   -5.1811   -1.7853   -0.1335 H   0  0  0  0  0  0  0  0  0  0  0  0
   -5.3751   -1.7157    1.5983 H   0  0  0  0  0  0  0  0  0  0  0  0
   -5.2025    0.7383    1.6114 H   0  0  0  0  0  0  0  0  0  0  0  0
    4.8570   -1.8990    1.9730 H   0  0  0  0  0  0  0  0  0  0  0  0
    3.8412   -3.0429    1.0392 H   0  0  0  0  0  0  0  0  0  0  0  0
    5.5746   -2.8894    0.6913 H   0  0  0  0  0  0  0  0  0  0  0  0
   -6.9236   -0.2356   -0.4372 H   0  0  0  0  0  0  0  0  0  0  0  0
  1 21  2  0  0  0  0
  2 23  1  0  0  0  0
  2 56  1  0  0  0  0
  3 24  3  0  0  0  0
  4  5  1  0  0  0  0
  4  9  1  0  0  0  0
  4 10  1  0  0  0  0
  4 16  1  0  0  0  0
  5  6  1  0  0  0  0
  5 12  1  0  0  0  0
  5 26  1  0  0  0  0
  6  7  1  0  0  0  0
  6 14  1  0  0  0  0
  6 27  1  0  0  0  0
  7  8  1  0  0  0  0
  7 11  1  0  0  0  0
  7 28  1  0  0  0  0
  8 15  1  0  0  0  0
  8 17  1  0  0  0  0
  8 19  1  0  0  0  0
  9 13  1  0  0  0  0
  9 21  1  0  0  0  0
  9 29  1  0  0  0  0
 10 11  1  0  0  0  0
 10 30  1  0  0  0  0
 10 31  1  0  0  0  0
 11 32  1  0  0  0  0
 11 33  1  0  0  0  0
 12 13  1  0  0  0  0
 12 34  1  0  0  0  0
 12 35  1  0  0  0  0
 13 24  1  0  0  0  0
 13 36  1  0  0  0  0
 14 18  1  0  0  0  0
 14 37  1  0  0  0  0
 14 38  1  0  0  0  0
 15 18  2  0  0  0  0
 15 20  1  0  0  0  0
 16 39  1  0  0  0  0
 16 40  1  0  0  0  0
 16 41  1  0  0  0  0
 17 22  1  0  0  0  0
 17 42  1  0  0  0  0
 17 43  1  0  0  0  0
 18 44  1  0  0  0  0
 19 45  1  0  0  0  0
 19 46  1  0  0  0  0
 19 47  1  0  0  0  0
 20 23  1  0  0  0  0
 20 48  1  0  0  0  0
 20 49  1  0  0  0  0
 21 25  1  0  0  0  0
 22 23  1  0  0  0  0
 22 50  1  0  0  0  0
 22 51  1  0  0  0  0
 23 52  1  0  0  0  0
 25 53  1  0  0  0  0
 25 54  1  0  0  0  0
 25 55  1  0  0  0  0
M  END
> <PUBCHEM_COMPOUND_CID>
15032

> <PUBCHEM_CONFORMER_RMSD>
0.6

> <PUBCHEM_CONFORMER_DIVERSEORDER>
1
2

> <PUBCHEM_MMFF94_PARTIAL_CHARGES>
16
1 -0.57
13 0.2
14 0.14
15 -0.28
18 -0.29
2 -0.68
20 0.14
21 0.45
23 0.28
24 0.36
25 0.06
3 -0.56
44 0.15
56 0.4
8 0.14
9 0.06

> <PUBCHEM_EFFECTIVE_ROTOR_COUNT>
3

> <PUBCHEM_PHARMACOPHORE_FEATURES>
8
1 1 acceptor
1 2 acceptor
1 2 donor
1 3 acceptor
5 4 5 9 12 13 rings
6 4 5 6 7 10 11 rings
6 6 7 8 14 15 18 rings
6 8 15 17 20 22 23 rings

> <PUBCHEM_HEAVY_ATOM_COUNT>
25

> <PUBCHEM_ATOM_DEF_STEREO_COUNT>
8

> <PUBCHEM_ATOM_UDEF_STEREO_COUNT>
0

> <PUBCHEM_BOND_DEF_STEREO_COUNT>
0

> <PUBCHEM_BOND_UDEF_STEREO_COUNT>
0

> <PUBCHEM_ISOTOPIC_ATOM_COUNT>
0

> <PUBCHEM_COMPONENT_COUNT>
1

> <PUBCHEM_CACTVS_TAUTO_COUNT>
3

> <PUBCHEM_CONFORMER_ID>
00003AB800000001

> <PUBCHEM_MMFF94_ENERGY>
74.0862

> <PUBCHEM_FEATURE_SELFOVERLAP>
40.69

> <PUBCHEM_SHAPE_FINGERPRINT>
11405975 8 18409450318828147256
11578080 2 17242468118129218018
12166972 35 17346589794382834415
12236239 1 18113617872675642155
12403259 226 18272093837492706036
12403259 415 18272375290699012308
12507560 40 18411702084113574757
12596602 18 18113330887187326155
12616971 3 18114189639374152174
12633257 1 17675926490823286887
12788726 201 16226033509967354785
13140716 1 18339927142153075408
13224815 77 18411420600530780305
13533116 47 18412545431333761770
13675066 3 18413388713559850285
14341114 176 18272083907211273657
15196674 1 18341894082534279809
15536298 74 18411139130260584564
15788980 27 18040718077662086127
16945 1 18198339542720909348
17349148 13 18335703874734828302
17844677 252 18409443717437344713
1813 80 16988844955970750549
18186145 218 17989213646103107046
19141452 34 18113899351799932839
200 152 18260268576987275805
20028762 73 18335706052437157351
21033648 29 17489320701609045213
21130935 74 18410569579349073019
21267235 1 18341886441555572543
21279426 13 18199753699051900581
21452121 103 18410016503213832320
21792934 111 18343026627341559817
22149856 69 18269816680898344489
22182313 1 18058750068690117196
23402539 116 18411141337847661023
23522609 53 17983823895775567020
23559900 14 18343300366754661348
239999 70 18411132546207582222
296302 2 17967532324696198237
335352 9 18270963552191814487
3411729 13 18336832979758386528
34797466 226 16805592626098432837
34934 24 18261958457856046709
350125 39 18341330080430097428
3545911 37 18413388718103068748
3886686 26 16835198342375663136
4073 2 17988073387967697938
4093350 32 17458058270965564524
495365 180 17967538939626264210
5104073 3 18411417332256088033
633830 44 18412551998249216494
9709674 26 18271521996661115026

> <PUBCHEM_SHAPE_MULTIPOLES>
497.77
12.3
2.5
1.14
6.08
0.6
0.18
-0.08
-2.61
-2.47
-0.45
-0.39
-0.19
0.9

> <PUBCHEM_SHAPE_SELFOVERLAP>
1061.174

> <PUBCHEM_SHAPE_VOLUME>
273.7

> <PUBCHEM_COORDINATE_TYPE>
2
5
10

$$$$

