3289
  -OEChem-07051213122D

 32 31  0     0  0  0  0  0  0999 V2000
    6.3301   -0.3660    0.0000 S   0  0  0  0  0  0  0  0  0  0  0  0
    4.5981   -1.3660    0.0000 S   0  0  0  0  0  0  0  0  0  0  0  0
    5.4641   -0.8660    0.0000 P   0  0  0  0  0  0  0  0  0  0  0  0
    4.9641    0.0000    0.0000 O   0  0  0  0  0  0  0  0  0  0  0  0
    5.9641   -1.7320    0.0000 O   0  0  0  0  0  0  0  0  0  0  0  0
    7.1962   -0.8660    0.0000 C   0  0  0  0  0  0  0  0  0  0  0  0
    3.7320   -0.8660    0.0000 C   0  0  0  0  0  0  0  0  0  0  0  0
    8.0622   -0.3660    0.0000 C   0  0  0  0  0  0  0  0  0  0  0  0
    2.8660   -1.3660    0.0000 C   0  0  0  0  0  0  0  0  0  0  0  0
    8.9282   -0.8660    0.0000 C   0  0  0  0  0  0  0  0  0  0  0  0
    2.0000   -0.8660    0.0000 C   0  0  0  0  0  0  0  0  0  0  0  0
    5.4641    0.8660    0.0000 C   0  0  0  0  0  0  0  0  0  0  0  0
    4.9641    1.7320    0.0000 C   0  0  0  0  0  0  0  0  0  0  0  0
    4.1306   -0.3911    0.0000 H   0  0  0  0  0  0  0  0  0  0  0  0
    3.3335   -0.3911    0.0000 H   0  0  0  0  0  0  0  0  0  0  0  0
    6.7976   -1.3410    0.0000 H   0  0  0  0  0  0  0  0  0  0  0  0
    7.5947   -1.3410    0.0000 H   0  0  0  0  0  0  0  0  0  0  0  0
    8.4607    0.1089    0.0000 H   0  0  0  0  0  0  0  0  0  0  0  0
    7.6636    0.1089    0.0000 H   0  0  0  0  0  0  0  0  0  0  0  0
    2.4675   -1.8410    0.0000 H   0  0  0  0  0  0  0  0  0  0  0  0
    3.2646   -1.8410    0.0000 H   0  0  0  0  0  0  0  0  0  0  0  0
    2.3100   -0.3291    0.0000 H   0  0  0  0  0  0  0  0  0  0  0  0
    1.4631   -0.5560    0.0000 H   0  0  0  0  0  0  0  0  0  0  0  0
    1.6900   -1.4030    0.0000 H   0  0  0  0  0  0  0  0  0  0  0  0
    8.6182   -1.4030    0.0000 H   0  0  0  0  0  0  0  0  0  0  0  0
    9.4651   -1.1760    0.0000 H   0  0  0  0  0  0  0  0  0  0  0  0
    9.2382   -0.3291    0.0000 H   0  0  0  0  0  0  0  0  0  0  0  0
    5.9390    0.4675    0.0000 H   0  0  0  0  0  0  0  0  0  0  0  0
    5.9390    1.2646    0.0000 H   0  0  0  0  0  0  0  0  0  0  0  0
    5.5010    2.0420    0.0000 H   0  0  0  0  0  0  0  0  0  0  0  0
    4.6541    2.2690    0.0000 H   0  0  0  0  0  0  0  0  0  0  0  0
    4.4272    1.4220    0.0000 H   0  0  0  0  0  0  0  0  0  0  0  0
  1  3  1  0  0  0  0
  1  6  1  0  0  0  0
  2  3  1  0  0  0  0
  2  7  1  0  0  0  0
  3  4  1  0  0  0  0
  3  5  2  0  0  0  0
  4 12  1  0  0  0  0
  6  8  1  0  0  0  0
  6 16  1  0  0  0  0
  6 17  1  0  0  0  0
  7  9  1  0  0  0  0
  7 14  1  0  0  0  0
  7 15  1  0  0  0  0
  8 10  1  0  0  0  0
  8 18  1  0  0  0  0
  8 19  1  0  0  0  0
  9 11  1  0  0  0  0
  9 20  1  0  0  0  0
  9 21  1  0  0  0  0
 10 25  1  0  0  0  0
 10 26  1  0  0  0  0
 10 27  1  0  0  0  0
 11 22  1  0  0  0  0
 11 23  1  0  0  0  0
 11 24  1  0  0  0  0
 12 13  1  0  0  0  0
 12 28  1  0  0  0  0
 12 29  1  0  0  0  0
 13 30  1  0  0  0  0
 13 31  1  0  0  0  0
 13 32  1  0  0  0  0
M  END
> <PUBCHEM_COMPOUND_CID>
3289

> <PUBCHEM_COMPOUND_CANONICALIZED>
1

> <PUBCHEM_CACTVS_COMPLEXITY>
152

> <PUBCHEM_CACTVS_HBOND_ACCEPTOR>
4

> <PUBCHEM_CACTVS_HBOND_DONOR>
0

> <PUBCHEM_CACTVS_ROTATABLE_BOND>
8

> <PUBCHEM_CACTVS_SUBSKEYS>
AAADceBwMAJgAAAAAAAAAAAAAAAAAAAAAAAAAAAAAAAAAAAAAAAAGgQAACAACACkwAKCAAAAARAAQAAAAIAAAAAAAAAAAAAAAAAAAAAAAAAAAAAAAAAAAAAAAAAAAAAAAAAAAAAAAAAAAAAAAAAAAAAAAA==

> <PUBCHEM_IUPAC_OPENEYE_NAME>
1-[ethoxy(propylsulfanyl)phosphoryl]sulfanylpropane

> <PUBCHEM_IUPAC_CAS_NAME>
1-[[ethoxy-(propylthio)phosphoryl]thio]propane

> <PUBCHEM_IUPAC_NAME>
1-[ethoxy(propylsulfanyl)phosphoryl]sulfanylpropane

> <PUBCHEM_IUPAC_SYSTEMATIC_NAME>
1-[ethoxy(propylsulfanyl)phosphoryl]sulfanylpropane

> <PUBCHEM_IUPAC_TRADITIONAL_NAME>
1-[[ethoxy-(propylthio)phosphoryl]thio]propane

> <PUBCHEM_IUPAC_INCHI>
InChI=1S/C8H19O2PS2/c1-4-7-12-11(9,10-6-3)13-8-5-2/h4-8H2,1-3H3

> <PUBCHEM_IUPAC_INCHIKEY>
VJYFKVYYMZPMAB-UHFFFAOYSA-N

> <PUBCHEM_XLOGP3>
3.6

> <PUBCHEM_EXACT_MASS>
242.056408

> <PUBCHEM_MOLECULAR_FORMULA>
C8H19O2PS2

> <PUBCHEM_MOLECULAR_WEIGHT>
242.339022

> <PUBCHEM_OPENEYE_CAN_SMILES>
CCCSP(=O)(OCC)SCCC

> <PUBCHEM_OPENEYE_ISO_SMILES>
CCCSP(=O)(OCC)SCCC

> <PUBCHEM_CACTVS_TPSA>
76.9

> <PUBCHEM_MONOISOTOPIC_WEIGHT>
242.056408

> <PUBCHEM_TOTAL_CHARGE>
0

> <PUBCHEM_HEAVY_ATOM_COUNT>
13

> <PUBCHEM_ATOM_DEF_STEREO_COUNT>
0

> <PUBCHEM_ATOM_UDEF_STEREO_COUNT>
0

> <PUBCHEM_BOND_DEF_STEREO_COUNT>
0

> <PUBCHEM_BOND_UDEF_STEREO_COUNT>
0

> <PUBCHEM_ISOTOPIC_ATOM_COUNT>
0

> <PUBCHEM_COMPONENT_COUNT>
1

> <PUBCHEM_CACTVS_TAUTO_COUNT>
1

> <PUBCHEM_COORDINATE_TYPE>
1
5
255

$$$$

