442968
  -OEChem-07051213002D

 38 40  0     1  0  0  0  0  0999 V2000
    2.0000   -0.6420    0.0000 O   0  0  0  0  0  0  0  0  0  0  0  0
    8.6914   -0.0390    0.0000 N   0  0  3  0  0  0  0  0  0  0  0  0
    3.7608   -0.4600    0.0000 N   0  0  0  0  0  0  0  0  0  0  0  0
    6.4683    1.3423    0.0000 C   0  0  2  0  0  0  0  0  0  0  0  0
    6.2095    0.3764    0.0000 C   0  0  1  0  0  0  0  0  0  0  0  0
    8.3330    0.8946    0.0000 C   0  0  1  0  0  0  0  0  0  0  0  0
    5.7317    2.3249    0.0000 C   0  0  0  0  0  0  0  0  0  0  0  0
    7.9142   -0.6683    0.0000 C   0  0  0  0  0  0  0  0  0  0  0  0
    3.8654    0.5345    0.0000 C   0  0  0  0  0  0  0  0  0  0  0  0
    4.6744   -0.8668    0.0000 C   0  0  0  0  0  0  0  0  0  0  0  0
    8.8776    1.7333    0.0000 C   0  0  0  0  0  0  0  0  0  0  0  0
    9.6573   -0.2978    0.0000 C   0  0  0  0  0  0  0  0  0  0  0  0
    4.7992   -1.9009    0.0000 C   0  0  0  0  0  0  0  0  0  0  0  0
    2.9088   -1.0592    0.0000 C   0  0  0  0  0  0  0  0  0  0  0  0
    9.8763    1.6810    0.0000 C   0  0  0  0  0  0  0  0  0  0  0  0
    3.9612   -2.5196    0.0000 C   0  0  0  0  0  0  0  0  0  0  0  0
    3.0097   -2.0960    0.0000 C   0  0  0  0  0  0  0  0  0  0  0  0
   10.4209    2.5196    0.0000 C   0  0  0  0  0  0  0  0  0  0  0  0
    6.6883    2.1633    0.0000 H   0  0  0  0  0  0  0  0  0  0  0  0
    5.9895   -0.4447    0.0000 H   0  0  0  0  0  0  0  0  0  0  0  0
    8.9496    0.8298    0.0000 H   0  0  0  0  0  0  0  0  0  0  0  0
    6.0495    2.8573    0.0000 H   0  0  0  0  0  0  0  0  0  0  0  0
    5.1186    2.4169    0.0000 H   0  0  0  0  0  0  0  0  0  0  0  0
    7.5325   -1.1568    0.0000 H   0  0  0  0  0  0  0  0  0  0  0  0
    8.3564   -1.1028    0.0000 H   0  0  0  0  0  0  0  0  0  0  0  0
    3.7631    1.1460    0.0000 H   0  0  0  0  0  0  0  0  0  0  0  0
    3.2456    0.5156    0.0000 H   0  0  0  0  0  0  0  0  0  0  0  0
    9.0171    2.3374    0.0000 H   0  0  0  0  0  0  0  0  0  0  0  0
    8.3069    1.9756    0.0000 H   0  0  0  0  0  0  0  0  0  0  0  0
    9.4968   -0.8966    0.0000 H   0  0  0  0  0  0  0  0  0  0  0  0
   10.2562   -0.4582    0.0000 H   0  0  0  0  0  0  0  0  0  0  0  0
    9.8178    0.3011    0.0000 H   0  0  0  0  0  0  0  0  0  0  0  0
    5.3685   -2.1465    0.0000 H   0  0  0  0  0  0  0  0  0  0  0  0
   10.1577    1.1285    0.0000 H   0  0  0  0  0  0  0  0  0  0  0  0
    4.0284   -3.1360    0.0000 H   0  0  0  0  0  0  0  0  0  0  0  0
    2.5067   -2.4585    0.0000 H   0  0  0  0  0  0  0  0  0  0  0  0
   11.0401    2.4872    0.0000 H   0  0  0  0  0  0  0  0  0  0  0  0
   10.1394    3.0721    0.0000 H   0  0  0  0  0  0  0  0  0  0  0  0
  1 14  2  0  0  0  0
  2  6  1  0  0  0  0
  2  8  1  0  0  0  0
  2 12  1  0  0  0  0
  3  9  1  0  0  0  0
  3 10  1  0  0  0  0
  3 14  1  0  0  0  0
  4  6  1  0  0  0  0
  4  7  1  0  0  0  0
  4  9  1  0  0  0  0
  4 19  1  6  0  0  0
  5  7  1  0  0  0  0
  5  8  1  0  0  0  0
  5 10  1  0  0  0  0
  5 20  1  6  0  0  0
  6 11  1  1  0  0  0
  6 21  1  0  0  0  0
  7 22  1  0  0  0  0
  7 23  1  0  0  0  0
  8 24  1  0  0  0  0
  8 25  1  0  0  0  0
  9 26  1  0  0  0  0
  9 27  1  0  0  0  0
 10 13  2  0  0  0  0
 11 15  1  0  0  0  0
 11 28  1  0  0  0  0
 11 29  1  0  0  0  0
 12 30  1  0  0  0  0
 12 31  1  0  0  0  0
 12 32  1  0  0  0  0
 13 16  1  0  0  0  0
 13 33  1  0  0  0  0
 14 17  1  0  0  0  0
 15 18  2  0  0  0  0
 15 34  1  0  0  0  0
 16 17  2  0  0  0  0
 16 35  1  0  0  0  0
 17 36  1  0  0  0  0
 18 37  1  0  0  0  0
 18 38  1  0  0  0  0
M  END
> <PUBCHEM_COMPOUND_CID>
442968

> <PUBCHEM_COMPOUND_CANONICALIZED>
1

> <PUBCHEM_CACTVS_COMPLEXITY>
438

> <PUBCHEM_CACTVS_HBOND_ACCEPTOR>
2

> <PUBCHEM_CACTVS_HBOND_DONOR>
0

> <PUBCHEM_CACTVS_ROTATABLE_BOND>
2

> <PUBCHEM_CACTVS_SUBSKEYS>
AAADceBzIAAAAAAAAAAAAAAAAAAAAAAAAAAsWIAAAAAWAACAAAAAHgAAAAAADSjBgAQCAAMAAACIACVSUACAAAAgAgAICAAIAEgIAAIAwQAEAAAAhgCIgYMQgEAOAAAAAAAAAAAAAAAAAAAAAAAAAAAAAA==

> <PUBCHEM_IUPAC_INCHI>
InChI=1S/C15H20N2O/c1-3-5-13-12-8-11(9-16(13)2)14-6-4-7-15(18)17(14)10-12/h3-4,6-7,11-13H,1,5,8-10H2,2H3/t11-,12+,13+/m0/s1

> <PUBCHEM_IUPAC_INCHIKEY>
VUJISNFQYSHCGH-YNEHKIRRSA-N

> <PUBCHEM_XLOGP3_AA>
1.8

> <PUBCHEM_EXACT_MASS>
244.157563

> <PUBCHEM_MOLECULAR_FORMULA>
C15H20N2O

> <PUBCHEM_MOLECULAR_WEIGHT>
244.3321

> <PUBCHEM_OPENEYE_CAN_SMILES>
CN1CC2CC(C1CC=C)CN3C2=CC=CC3=O

> <PUBCHEM_OPENEYE_ISO_SMILES>
CN1C[C@@H]2C[C@@H]([C@H]1CC=C)CN3C2=CC=CC3=O

> <PUBCHEM_CACTVS_TPSA>
23.6

> <PUBCHEM_MONOISOTOPIC_WEIGHT>
244.157563

> <PUBCHEM_TOTAL_CHARGE>
0

> <PUBCHEM_HEAVY_ATOM_COUNT>
18

> <PUBCHEM_ATOM_DEF_STEREO_COUNT>
3

> <PUBCHEM_ATOM_UDEF_STEREO_COUNT>
0

> <PUBCHEM_BOND_DEF_STEREO_COUNT>
0

> <PUBCHEM_BOND_UDEF_STEREO_COUNT>
0

> <PUBCHEM_ISOTOPIC_ATOM_COUNT>
0

> <PUBCHEM_COMPONENT_COUNT>
1

> <PUBCHEM_CACTVS_TAUTO_COUNT>
3

> <PUBCHEM_COORDINATE_TYPE>
1
5
255

> <PUBCHEM_BONDANNOTATIONS>
10  13  8
13  16  8
14  17  8
16  17  8
3  10  8
3  14  8
4  19  6
5  20  6
6  11  5

$$$$

