47205307
  -OEChem-06241222583D

 31 33  0     0  0  0  0  0  0999 V2000
   -4.8594    0.3100    0.3048 O   0  0  0  0  0  0  0  0  0  0  0  0
    0.9425   -2.1801    0.4163 O   0  0  0  0  0  0  0  0  0  0  0  0
    1.2509   -0.4420   -1.0872 N   0  0  0  0  0  0  0  0  0  0  0  0
    3.7825    1.3483   -0.4498 N   0  0  0  0  0  0  0  0  0  0  0  0
    4.6111    1.8025    0.5057 N   0  0  0  0  0  0  0  0  0  0  0  0
   -2.6504    0.8011   -0.1378 C   0  0  0  0  0  0  0  0  0  0  0  0
   -3.3480    2.0844   -0.3699 C   0  0  0  0  0  0  0  0  0  0  0  0
   -3.5767   -0.1684    0.2169 C   0  0  0  0  0  0  0  0  0  0  0  0
   -4.6923    1.7476    0.2772 C   0  0  0  0  0  0  0  0  0  0  0  0
   -1.3131    0.4834   -0.2881 C   0  0  0  0  0  0  0  0  0  0  0  0
   -0.9201   -0.8384   -0.0618 C   0  0  0  0  0  0  0  0  0  0  0  0
   -3.2134   -1.4833    0.4327 C   0  0  0  0  0  0  0  0  0  0  0  0
   -1.8645   -1.8156    0.2949 C   0  0  0  0  0  0  0  0  0  0  0  0
    0.4789   -1.2089   -0.2070 C   0  0  0  0  0  0  0  0  0  0  0  0
    2.6475   -0.6988   -1.3563 C   0  0  0  0  0  0  0  0  0  0  0  0
    3.5464    0.0065   -0.3824 C   0  0  0  0  0  0  0  0  0  0  0  0
    4.2715   -0.4486    0.6917 C   0  0  0  0  0  0  0  0  0  0  0  0
    4.9065    0.7003    1.2000 C   0  0  0  0  0  0  0  0  0  0  0  0
   -3.4611    2.2657   -1.4435 H   0  0  0  0  0  0  0  0  0  0  0  0
   -2.8694    2.9428    0.1081 H   0  0  0  0  0  0  0  0  0  0  0  0
   -5.5267    2.1986   -0.2697 H   0  0  0  0  0  0  0  0  0  0  0  0
   -4.7331    2.1080    1.3132 H   0  0  0  0  0  0  0  0  0  0  0  0
   -0.6162    1.2715   -0.5512 H   0  0  0  0  0  0  0  0  0  0  0  0
   -3.9458   -2.2358    0.7026 H   0  0  0  0  0  0  0  0  0  0  0  0
   -1.5624   -2.8469    0.4615 H   0  0  0  0  0  0  0  0  0  0  0  0
    2.8274   -1.7788   -1.3178 H   0  0  0  0  0  0  0  0  0  0  0  0
    2.8555   -0.3587   -2.3766 H   0  0  0  0  0  0  0  0  0  0  0  0
    0.8243    0.3099   -1.6177 H   0  0  0  0  0  0  0  0  0  0  0  0
    4.3315   -1.4639    1.0556 H   0  0  0  0  0  0  0  0  0  0  0  0
    3.4121    2.0129   -1.1178 H   0  0  0  0  0  0  0  0  0  0  0  0
    5.5719    0.7802    2.0476 H   0  0  0  0  0  0  0  0  0  0  0  0
  1  8  1  0  0  0  0
  1  9  1  0  0  0  0
  2 14  2  0  0  0  0
  3 14  1  0  0  0  0
  3 15  1  0  0  0  0
  3 28  1  0  0  0  0
  4  5  1  0  0  0  0
  4 16  1  0  0  0  0
  4 30  1  0  0  0  0
  5 18  2  0  0  0  0
  6  7  1  0  0  0  0
  6  8  2  0  0  0  0
  6 10  1  0  0  0  0
  7  9  1  0  0  0  0
  7 19  1  0  0  0  0
  7 20  1  0  0  0  0
  8 12  1  0  0  0  0
  9 21  1  0  0  0  0
  9 22  1  0  0  0  0
 10 11  2  0  0  0  0
 10 23  1  0  0  0  0
 11 13  1  0  0  0  0
 11 14  1  0  0  0  0
 12 13  2  0  0  0  0
 12 24  1  0  0  0  0
 13 25  1  0  0  0  0
 15 16  1  0  0  0  0
 15 26  1  0  0  0  0
 15 27  1  0  0  0  0
 16 17  2  0  0  0  0
 17 18  1  0  0  0  0
 17 29  1  0  0  0  0
 18 31  1  0  0  0  0
M  END
> <PUBCHEM_COMPOUND_CID>
47205307

> <PUBCHEM_CONFORMER_RMSD>
0.6

> <PUBCHEM_CONFORMER_DIVERSEORDER>
1
67
55
33
65
11
30
69
62
57
10
60
23
42
71
54
49
58
72
34
35
22
73
47
39
38
12
20
64
26
43
66
21
51
27
46
68
53
32
52
70
40
9
37
18
31
63
6
24
19
59
14
61
5
3
50
25
4
17
44
36
13
41
8
2
56
7
48
15
29
16
45
28

> <PUBCHEM_MMFF94_PARTIAL_CHARGES>
25
1 -0.36
10 -0.15
11 0.09
12 -0.15
13 -0.15
14 0.54
15 0.48
16 -0.33
17 -0.15
18 0.14
2 -0.57
23 0.15
24 0.15
25 0.15
28 0.37
29 0.15
3 -0.73
30 0.27
31 0.15
4 0.3
5 -0.71
6 -0.14
7 0.14
8 0.08
9 0.28

> <PUBCHEM_EFFECTIVE_ROTOR_COUNT>
4.6

> <PUBCHEM_PHARMACOPHORE_FEATURES>
8
1 1 acceptor
1 2 acceptor
1 3 donor
1 4 donor
1 5 acceptor
5 1 6 7 8 9 rings
5 4 5 16 17 18 rings
6 6 8 10 11 12 13 rings

> <PUBCHEM_HEAVY_ATOM_COUNT>
18

> <PUBCHEM_ATOM_DEF_STEREO_COUNT>
0

> <PUBCHEM_ATOM_UDEF_STEREO_COUNT>
0

> <PUBCHEM_BOND_DEF_STEREO_COUNT>
0

> <PUBCHEM_BOND_UDEF_STEREO_COUNT>
0

> <PUBCHEM_ISOTOPIC_ATOM_COUNT>
0

> <PUBCHEM_COMPONENT_COUNT>
1

> <PUBCHEM_CACTVS_TAUTO_COUNT>
4

> <PUBCHEM_CONFORMER_ID>
02D04BBB00000001

> <PUBCHEM_MMFF94_ENERGY>
38.1757

> <PUBCHEM_FEATURE_SELFOVERLAP>
40.698

> <PUBCHEM_SHAPE_FINGERPRINT>
10014705 185 18334858325077016341
10319926 262 18411708673374135546
10646746 165 18411696599782923838
11128504 68 5039947464283828064
11132069 177 18272081712746762303
11405975 8 18334570295753930234
11543360 7 16443070516773431839
12173636 292 18340483486805173639
12403259 415 18260535711268762310
12596602 18 16916785132950453120
12633257 1 15841831131924704058
12670546 177 6050441522526054682
12670546 56 18130798853565302882
12788726 201 17054684653183278242
12892183 10 18201441312162199138
13675066 3 17346599698551129022
13914758 101 15338850776661537319
14178342 30 17989198235787342419
14251764 38 18333728018249703744
15209294 21 18343865532515652887
15375358 24 18259982686562574015
1741750 31 18337949090780490595
17959699 21 17895470444360283849
1813 80 15697999691174930054
18186145 218 18042105670316709646
18915474 69 7781517027464380234
193927 3 12607411035170909168
20281475 54 9583250443680192070
20645477 56 18410847793970468639
20645477 70 17023173977065024046
21065198 48 18130511838597576186
212916 134 18413114956750322514
21452121 103 18336267950423550122
21859007 373 16842212071351574397
22950370 63 9295288369439560831
23227448 37 18187931616611753829
23402539 116 18336273370239469038
23557571 272 18189315923110104262
23559900 14 18189611812493224582
2871803 45 8430599406006898844
2916195 48 18261115183808539961
341906 21 18412822465335406788
351380 180 18335423469616352992
3545911 37 18335977640614468910
3680242 22 18340482378055070224
465052 167 12679456508631955456
495365 180 17822294621702052414
5104073 3 18199460147012120083
573450 72 18060142015771308155
633830 44 18408888430064217502
7064713 232 18272082846571156109
7364860 26 18194962074412378310
7808743 9 18121781630563930536
90316 7 17275389819325128493
960060 61 7420943188562459912
9981440 41 18343582962760528691

> <PUBCHEM_SHAPE_MULTIPOLES>
343.75
11.2
2.06
0.95
4.82
0.11
-0.09
5.81
2.53
-0.96
0.17
0.88
-0.03
0.64

> <PUBCHEM_SHAPE_SELFOVERLAP>
751.598

> <PUBCHEM_SHAPE_VOLUME>
187.8

> <PUBCHEM_COORDINATE_TYPE>
2
5
10

$$$$

