11816
  -OEChem-06261206093D

 30 31  0     0  0  0  0  0  0999 V2000
   -0.4794    0.5578    2.2966 O   0  0  0  0  0  0  0  0  0  0  0  0
    2.0268   -2.2656   -0.6330 O   0  0  0  0  0  0  0  0  0  0  0  0
    0.7490   -1.8842    1.2434 O   0  0  0  0  0  0  0  0  0  0  0  0
    0.8253    0.9440    0.3942 C   0  0  0  0  0  0  0  0  0  0  0  0
    1.7051   -0.0559    0.0484 C   0  0  0  0  0  0  0  0  0  0  0  0
   -0.4695    0.6027    1.0574 C   0  0  0  0  0  0  0  0  0  0  0  0
   -1.6832    0.3305    0.3042 C   0  0  0  0  0  0  0  0  0  0  0  0
    1.0818    2.2760    0.1544 C   0  0  0  0  0  0  0  0  0  0  0  0
    2.9057    0.2934   -0.5702 C   0  0  0  0  0  0  0  0  0  0  0  0
    2.2824    2.6250   -0.4640 C   0  0  0  0  0  0  0  0  0  0  0  0
    3.1942    1.6338   -0.8262 C   0  0  0  0  0  0  0  0  0  0  0  0
   -1.6653    0.3822   -1.0897 C   0  0  0  0  0  0  0  0  0  0  0  0
   -2.8653    0.0172    0.9753 C   0  0  0  0  0  0  0  0  0  0  0  0
    1.4324   -1.4645    0.3021 C   0  0  0  0  0  0  0  0  0  0  0  0
   -2.8294    0.1209   -1.8124 C   0  0  0  0  0  0  0  0  0  0  0  0
   -4.0293   -0.2443    0.2526 C   0  0  0  0  0  0  0  0  0  0  0  0
   -4.0113   -0.1924   -1.1413 C   0  0  0  0  0  0  0  0  0  0  0  0
    1.8302   -3.6766   -0.4916 C   0  0  0  0  0  0  0  0  0  0  0  0
    0.3759    3.0521    0.4345 H   0  0  0  0  0  0  0  0  0  0  0  0
    3.6445   -0.4522   -0.8522 H   0  0  0  0  0  0  0  0  0  0  0  0
    2.5074    3.6687   -0.6627 H   0  0  0  0  0  0  0  0  0  0  0  0
    4.1304    1.9064   -1.3047 H   0  0  0  0  0  0  0  0  0  0  0  0
   -0.7680    0.6210   -1.6523 H   0  0  0  0  0  0  0  0  0  0  0  0
   -2.9059   -0.0301    2.0603 H   0  0  0  0  0  0  0  0  0  0  0  0
   -2.8159    0.1608   -2.8978 H   0  0  0  0  0  0  0  0  0  0  0  0
   -4.9498   -0.4884    0.7747 H   0  0  0  0  0  0  0  0  0  0  0  0
   -4.9176   -0.3962   -1.7039 H   0  0  0  0  0  0  0  0  0  0  0  0
    0.7654   -3.9177   -0.5622 H   0  0  0  0  0  0  0  0  0  0  0  0
    2.2422   -4.0209    0.4616 H   0  0  0  0  0  0  0  0  0  0  0  0
    2.3598   -4.1775   -1.3062 H   0  0  0  0  0  0  0  0  0  0  0  0
  1  6  2  0  0  0  0
  2 14  1  0  0  0  0
  2 18  1  0  0  0  0
  3 14  2  0  0  0  0
  4  5  1  0  0  0  0
  4  6  1  0  0  0  0
  4  8  2  0  0  0  0
  5  9  2  0  0  0  0
  5 14  1  0  0  0  0
  6  7  1  0  0  0  0
  7 12  2  0  0  0  0
  7 13  1  0  0  0  0
  8 10  1  0  0  0  0
  8 19  1  0  0  0  0
  9 11  1  0  0  0  0
  9 20  1  0  0  0  0
 10 11  2  0  0  0  0
 10 21  1  0  0  0  0
 11 22  1  0  0  0  0
 12 15  1  0  0  0  0
 12 23  1  0  0  0  0
 13 16  2  0  0  0  0
 13 24  1  0  0  0  0
 15 17  2  0  0  0  0
 15 25  1  0  0  0  0
 16 17  1  0  0  0  0
 16 26  1  0  0  0  0
 17 27  1  0  0  0  0
 18 28  1  0  0  0  0
 18 29  1  0  0  0  0
 18 30  1  0  0  0  0
M  END
> <PUBCHEM_COMPOUND_CID>
11816

> <PUBCHEM_CONFORMER_RMSD>
0.6

> <PUBCHEM_CONFORMER_DIVERSEORDER>
1
2
5
6
3
4

> <PUBCHEM_MMFF94_PARTIAL_CHARGES>
27
1 -0.57
10 -0.15
11 -0.15
12 -0.15
13 -0.15
14 0.63
15 -0.15
16 -0.15
17 -0.15
18 0.28
19 0.15
2 -0.43
20 0.15
21 0.15
22 0.15
23 0.15
24 0.15
25 0.15
26 0.15
27 0.15
3 -0.57
4 0.09
5 0.09
6 0.4
7 0.09
8 -0.15
9 -0.15

> <PUBCHEM_EFFECTIVE_ROTOR_COUNT>
4

> <PUBCHEM_PHARMACOPHORE_FEATURES>
4
1 1 acceptor
1 3 acceptor
6 4 5 8 9 10 11 rings
6 7 12 13 15 16 17 rings

> <PUBCHEM_HEAVY_ATOM_COUNT>
18

> <PUBCHEM_ATOM_DEF_STEREO_COUNT>
0

> <PUBCHEM_ATOM_UDEF_STEREO_COUNT>
0

> <PUBCHEM_BOND_DEF_STEREO_COUNT>
0

> <PUBCHEM_BOND_UDEF_STEREO_COUNT>
0

> <PUBCHEM_ISOTOPIC_ATOM_COUNT>
0

> <PUBCHEM_COMPONENT_COUNT>
1

> <PUBCHEM_CACTVS_TAUTO_COUNT>
1

> <PUBCHEM_CONFORMER_ID>
00002E2800000001

> <PUBCHEM_MMFF94_ENERGY>
63.9724

> <PUBCHEM_FEATURE_SELFOVERLAP>
20.299

> <PUBCHEM_SHAPE_FINGERPRINT>
107287 299 18202004287563514789
116883 192 17906744939491515261
12553582 1 17907004432841740890
12730499 353 18130786725141856113
13009979 54 17532645943594869754
13083527 12 18124333837454168522
14817 1 15592088953791491600
15375462 189 17749388170042516467
15502722 9 18413109459023280967
15852999 172 18201153235593706496
16752209 62 16660640800163461001
16945 1 18335422343923594768
1813 80 17826784030230079934
18186145 218 18265328417629133004
19786989 88 18271812267947164581
20344682 1 17773873108276295677
20361792 2 18119534485777304527
20645477 70 18341059579284732487
20671657 53 18125446563989523210
21421566 26 17034695952781131574
21452121 199 18124610922615535018
21524375 3 18056480552178124168
21639500 275 18340487768307500388
21947302 44 17989213645908025624
22112679 90 17532077461786465880
2255824 54 18335704892774154180
22802520 49 17987806340013247501
23114952 82 18202001079006517877
232386 152 16805617970452163031
23402539 116 16558198085557621445
23419403 2 17626337421152023594
23598291 2 17898831698577000257
23728640 28 15963716784362669634
238 59 18198650785778416943
25 1 18341608170703670404
2748010 2 17980459193073754784
3060560 45 18340774719488859212
3323516 105 18272082782193696631
404807 14 14255191048468065706
4175511 335 18411419505456590644
77492 1 17821998809617916921
81228 2 17330851621271570704
8272917 22 18336538396108484293

> <PUBCHEM_SHAPE_MULTIPOLES>
352.82
5.96
2.84
1.47
4.92
2.52
0.23
-0.7
-2.07
-3.85
-0.43
0.9
-0.09
-0.14

> <PUBCHEM_SHAPE_SELFOVERLAP>
766.989

> <PUBCHEM_SHAPE_VOLUME>
192.5

> <PUBCHEM_COORDINATE_TYPE>
2
5
10

$$$$

