247838
  -OEChem-07051213062D

 54 57  0     1  0  0  0  0  0999 V2000
    5.0182    1.1725    0.0000 F   0  0  0  0  0  0  0  0  0  0  0  0
    9.1493    2.2976    0.0000 O   0  0  0  0  0  0  0  0  0  0  0  0
    4.7950    1.9065    0.0000 O   0  0  0  0  0  0  0  0  0  0  0  0
    2.0000   -1.6459    0.0000 O   0  0  0  0  0  0  0  0  0  0  0  0
    7.3931    0.4065    0.0000 C   0  0  2  0  0  0  0  0  0  0  0  0
    7.3931    1.4065    0.0000 C   0  0  1  0  0  0  0  0  0  0  0  0
    6.5271   -0.0935    0.0000 C   0  0  1  0  0  0  0  0  0  0  0  0
    5.6610    0.4065    0.0000 C   0  0  2  0  0  0  0  0  0  0  0  0
    8.3393    1.7112    0.0000 C   0  0  2  0  0  0  0  0  0  0  0  0
    4.7510   -0.1004    0.0000 C   0  0  2  0  0  0  0  0  0  0  0  0
    8.3393    0.1017    0.0000 C   0  0  0  0  0  0  0  0  0  0  0  0
    6.5271    1.9065    0.0000 C   0  0  0  0  0  0  0  0  0  0  0  0
    6.5431   -1.1350    0.0000 C   0  0  0  0  0  0  0  0  0  0  0  0
    8.9229    0.9065    0.0000 C   0  0  0  0  0  0  0  0  0  0  0  0
    5.6610    1.4065    0.0000 C   0  0  0  0  0  0  0  0  0  0  0  0
    5.6451   -1.6628    0.0000 C   0  0  1  0  0  0  0  0  0  0  0  0
    4.7430   -1.1420    0.0000 C   0  0  0  0  0  0  0  0  0  0  0  0
    7.3931    2.4065    0.0000 C   0  0  0  0  0  0  0  0  0  0  0  0
    3.8242    0.4637    0.0000 C   0  0  0  0  0  0  0  0  0  0  0  0
    8.0319    2.6628    0.0000 C   0  0  0  0  0  0  0  0  0  0  0  0
    4.4163    0.8419    0.0000 C   0  0  0  0  0  0  0  0  0  0  0  0
    2.8763   -0.0642    0.0000 C   0  0  0  0  0  0  0  0  0  0  0  0
    3.8076   -1.6917    0.0000 C   0  0  0  0  0  0  0  0  0  0  0  0
    5.6489   -2.6628    0.0000 C   0  0  0  0  0  0  0  0  0  0  0  0
    2.8680   -1.1492    0.0000 C   0  0  0  0  0  0  0  0  0  0  0  0
    7.4830   -0.4388    0.0000 H   0  0  0  0  0  0  0  0  0  0  0  0
    7.2664   -0.5128    0.0000 H   0  0  0  0  0  0  0  0  0  0  0  0
    8.0883   -0.4652    0.0000 H   0  0  0  0  0  0  0  0  0  0  0  0
    8.8767   -0.2075    0.0000 H   0  0  0  0  0  0  0  0  0  0  0  0
    6.9256    2.3814    0.0000 H   0  0  0  0  0  0  0  0  0  0  0  0
    6.1285    2.3814    0.0000 H   0  0  0  0  0  0  0  0  0  0  0  0
    6.7612   -1.7154    0.0000 H   0  0  0  0  0  0  0  0  0  0  0  0
    7.1523   -1.0195    0.0000 H   0  0  0  0  0  0  0  0  0  0  0  0
    9.3838    0.4917    0.0000 H   0  0  0  0  0  0  0  0  0  0  0  0
    9.3838    1.3212    0.0000 H   0  0  0  0  0  0  0  0  0  0  0  0
    5.1087   -1.9738    0.0000 H   0  0  0  0  0  0  0  0  0  0  0  0
    8.0131    2.4065    0.0000 H   0  0  0  0  0  0  0  0  0  0  0  0
    7.3931    3.0265    0.0000 H   0  0  0  0  0  0  0  0  0  0  0  0
    6.7731    2.4065    0.0000 H   0  0  0  0  0  0  0  0  0  0  0  0
    4.2324    0.9304    0.0000 H   0  0  0  0  0  0  0  0  0  0  0  0
    3.4343    0.9457    0.0000 H   0  0  0  0  0  0  0  0  0  0  0  0
    8.6219    2.8534    0.0000 H   0  0  0  0  0  0  0  0  0  0  0  0
    7.8414    3.2528    0.0000 H   0  0  0  0  0  0  0  0  0  0  0  0
    7.4420    2.4722    0.0000 H   0  0  0  0  0  0  0  0  0  0  0  0
    5.0005    1.0495    0.0000 H   0  0  0  0  0  0  0  0  0  0  0  0
    4.2087    1.4262    0.0000 H   0  0  0  0  0  0  0  0  0  0  0  0
    3.8320    0.6344    0.0000 H   0  0  0  0  0  0  0  0  0  0  0  0
    9.7153    2.0444    0.0000 H   0  0  0  0  0  0  0  0  0  0  0  0
    2.6718    0.5210    0.0000 H   0  0  0  0  0  0  0  0  0  0  0  0
    2.2647   -0.1656    0.0000 H   0  0  0  0  0  0  0  0  0  0  0  0
    3.8100   -2.3117    0.0000 H   0  0  0  0  0  0  0  0  0  0  0  0
    5.0289   -2.6652    0.0000 H   0  0  0  0  0  0  0  0  0  0  0  0
    5.6513   -3.2828    0.0000 H   0  0  0  0  0  0  0  0  0  0  0  0
    6.2689   -2.6604    0.0000 H   0  0  0  0  0  0  0  0  0  0  0  0
  8  1  1  6  0  0  0
  9  2  1  1  0  0  0
  2 48  1  0  0  0  0
  3 15  2  0  0  0  0
  4 25  2  0  0  0  0
  5  6  1  0  0  0  0
  5  7  1  0  0  0  0
  5 11  1  0  0  0  0
  5 26  1  6  0  0  0
  6  9  1  0  0  0  0
  6 12  1  0  0  0  0
  6 18  1  1  0  0  0
  7  8  1  0  0  0  0
  7 13  1  0  0  0  0
  7 27  1  1  0  0  0
  8 10  1  0  0  0  0
  8 15  1  0  0  0  0
  9 14  1  0  0  0  0
  9 20  1  0  0  0  0
 10 17  1  0  0  0  0
 10 19  1  0  0  0  0
 10 21  1  1  0  0  0
 11 14  1  0  0  0  0
 11 28  1  0  0  0  0
 11 29  1  0  0  0  0
 12 15  1  0  0  0  0
 12 30  1  0  0  0  0
 12 31  1  0  0  0  0
 13 16  1  0  0  0  0
 13 32  1  0  0  0  0
 13 33  1  0  0  0  0
 14 34  1  0  0  0  0
 14 35  1  0  0  0  0
 16 17  1  0  0  0  0
 16 24  1  6  0  0  0
 16 36  1  0  0  0  0
 17 23  2  0  0  0  0
 18 37  1  0  0  0  0
 18 38  1  0  0  0  0
 18 39  1  0  0  0  0
 19 22  1  0  0  0  0
 19 40  1  0  0  0  0
 19 41  1  0  0  0  0
 20 42  1  0  0  0  0
 20 43  1  0  0  0  0
 20 44  1  0  0  0  0
 21 45  1  0  0  0  0
 21 46  1  0  0  0  0
 21 47  1  0  0  0  0
 22 25  1  0  0  0  0
 22 49  1  0  0  0  0
 22 50  1  0  0  0  0
 23 25  1  0  0  0  0
 23 51  1  0  0  0  0
 24 52  1  0  0  0  0
 24 53  1  0  0  0  0
 24 54  1  0  0  0  0
M  END
> <PUBCHEM_COMPOUND_CID>
247838

> <PUBCHEM_COMPOUND_CANONICALIZED>
1

> <PUBCHEM_CACTVS_COMPLEXITY>
699

> <PUBCHEM_CACTVS_HBOND_ACCEPTOR>
4

> <PUBCHEM_CACTVS_HBOND_DONOR>
1

> <PUBCHEM_CACTVS_ROTATABLE_BOND>
0

> <PUBCHEM_CACTVS_SUBSKEYS>
AAADceB4MQAAAAAAAAAAAAAAAAAAAYAAAAAwYIAAAAAAAGDAAAAAGwAACAAAD0SAgAACAAAAAgCIAqBSAAAAAAAgAAAACAEAAEgAABIAAQAAQAAEgAAIAQOKyPCPgAAAAAAAAACAAAQAACAAAYAADAAAAA==

> <PUBCHEM_IUPAC_OPENEYE_NAME>
(6S,8S,9R,10S,13S,14S,17S)-9-fluoro-17-hydroxy-6,10,13,17-tetramethyl-2,6,7,8,12,14,15,16-octahydro-1H-cyclopenta[a]phenanthrene-3,11-dione

> <PUBCHEM_IUPAC_CAS_NAME>
(6S,8S,9R,10S,13S,14S,17S)-9-fluoro-17-hydroxy-6,10,13,17-tetramethyl-2,6,7,8,12,14,15,16-octahydro-1H-cyclopenta[a]phenanthrene-3,11-dione

> <PUBCHEM_IUPAC_NAME>
(6S,8S,9R,10S,13S,14S,17S)-9-fluoro-17-hydroxy-6,10,13,17-tetramethyl-2,6,7,8,12,14,15,16-octahydro-1H-cyclopenta[a]phenanthrene-3,11-dione

> <PUBCHEM_IUPAC_SYSTEMATIC_NAME>
(6S,8S,9R,10S,13S,14S,17S)-9-fluoranyl-6,10,13,17-tetramethyl-17-oxidanyl-2,6,7,8,12,14,15,16-octahydro-1H-cyclopenta[a]phenanthrene-3,11-dione

> <PUBCHEM_IUPAC_TRADITIONAL_NAME>
(6S,8S,9R,10S,13S,14S,17S)-9-fluoro-17-hydroxy-6,10,13,17-tetramethyl-2,6,7,8,12,14,15,16-octahydro-1H-cyclopenta[a]phenanthrene-3,11-quinone

> <PUBCHEM_IUPAC_INCHI>
InChI=1S/C21H29FO3/c1-12-9-16-14-6-8-20(4,25)19(14,3)11-17(24)21(16,22)18(2)7-5-13(23)10-15(12)18/h10,12,14,16,25H,5-9,11H2,1-4H3/t12-,14-,16-,18-,19-,20-,21-/m0/s1

> <PUBCHEM_IUPAC_INCHIKEY>
ROEQORMRPIEYSE-FXZCQDAKSA-N

> <PUBCHEM_XLOGP3_AA>
2.5

> <PUBCHEM_EXACT_MASS>
348.210073

> <PUBCHEM_MOLECULAR_FORMULA>
C21H29FO3

> <PUBCHEM_MOLECULAR_WEIGHT>
348.451563

> <PUBCHEM_OPENEYE_CAN_SMILES>
CC1CC2C3CCC(C3(CC(=O)C2(C4(C1=CC(=O)CC4)C)F)C)(C)O

> <PUBCHEM_OPENEYE_ISO_SMILES>
C[C@H]1C[C@H]2[C@@H]3CC[C@]([C@]3(CC(=O)[C@@]2([C@@]4(C1=CC(=O)CC4)C)F)C)(C)O

> <PUBCHEM_CACTVS_TPSA>
54.4

> <PUBCHEM_MONOISOTOPIC_WEIGHT>
348.210073

> <PUBCHEM_TOTAL_CHARGE>
0

> <PUBCHEM_HEAVY_ATOM_COUNT>
25

> <PUBCHEM_ATOM_DEF_STEREO_COUNT>
7

> <PUBCHEM_ATOM_UDEF_STEREO_COUNT>
0

> <PUBCHEM_BOND_DEF_STEREO_COUNT>
0

> <PUBCHEM_BOND_UDEF_STEREO_COUNT>
0

> <PUBCHEM_ISOTOPIC_ATOM_COUNT>
0

> <PUBCHEM_COMPONENT_COUNT>
1

> <PUBCHEM_CACTVS_TAUTO_COUNT>
10

> <PUBCHEM_COORDINATE_TYPE>
1
5
255

> <PUBCHEM_BONDANNOTATIONS>
8  1  6
10  21  5
16  24  6
9  2  5
5  26  6
6  18  5
7  27  5

$$$$

