440542
  -OEChem-07051212503D

 71 73  0     1  0  0  0  0  0999 V2000
   -0.6395    2.8156   -0.8230 S   0  0  0  0  0  0  0  0  0  0  0  0
   -0.2039    0.3188    2.2515 O   0  0  0  0  0  0  0  0  0  0  0  0
    2.8059   -3.0733   -1.0094 O   0  0  0  0  0  0  0  0  0  0  0  0
    2.4694   -2.6443    1.2039 O   0  0  0  0  0  0  0  0  0  0  0  0
    0.2287    2.9609   -1.9757 O   0  0  0  0  0  0  0  0  0  0  0  0
   -1.3801    3.9561   -0.3187 O   0  0  0  0  0  0  0  0  0  0  0  0
    0.1339   -1.4421    0.7663 N   0  0  0  0  0  0  0  0  0  0  0  0
    0.2362    2.1139    0.4564 N   0  0  0  0  0  0  0  0  0  0  0  0
   -3.0097    1.9590    0.8787 N   0  0  0  0  0  0  0  0  0  0  0  0
    5.2972    0.7986   -0.0569 N   0  0  0  0  0  0  0  0  0  0  0  0
    7.2620   -0.4099    0.1690 N   0  0  0  0  0  0  0  0  0  0  0  0
    7.3689    1.8274    0.5911 N   0  0  0  0  0  0  0  0  0  0  0  0
   -0.7490   -4.0340   -0.2639 C   0  0  1  0  0  0  0  0  0  0  0  0
   -0.0641   -3.0098   -1.1794 C   0  0  0  0  0  0  0  0  0  0  0  0
    0.7995   -1.9973   -0.4227 C   0  0  2  0  0  0  0  0  0  0  0  0
   -1.4961   -3.3092    0.8588 C   0  0  0  0  0  0  0  0  0  0  0  0
   -0.5555   -2.3993    1.6388 C   0  0  0  0  0  0  0  0  0  0  0  0
    0.9513    0.8395    0.2507 C   0  0  2  0  0  0  0  0  0  0  0  0
    0.2443   -0.1109    1.1852 C   0  0  0  0  0  0  0  0  0  0  0  0
   -1.6993   -4.9242   -1.0626 C   0  0  0  0  0  0  0  0  0  0  0  0
    2.0960   -2.5945    0.0413 C   0  0  0  0  0  0  0  0  0  0  0  0
    2.4183    0.9965    0.6190 C   0  0  0  0  0  0  0  0  0  0  0  0
   -5.2695    1.0636    1.1909 C   0  0  2  0  0  0  0  0  0  0  0  0
   -4.9520   -0.0850    0.2203 C   0  0  0  0  0  0  0  0  0  0  0  0
   -2.8707    1.2550   -0.3113 C   0  0  0  0  0  0  0  0  0  0  0  0
   -3.7992    0.2650   -0.6900 C   0  0  0  0  0  0  0  0  0  0  0  0
   -3.9787    1.5324    1.8703 C   0  0  0  0  0  0  0  0  0  0  0  0
   -1.8170    1.5590   -1.1854 C   0  0  0  0  0  0  0  0  0  0  0  0
    3.1555    1.9483   -0.3314 C   0  0  0  0  0  0  0  0  0  0  0  0
   -6.3065    0.6312    2.2239 C   0  0  0  0  0  0  0  0  0  0  0  0
   -3.6335   -0.4289   -1.8970 C   0  0  0  0  0  0  0  0  0  0  0  0
   -1.6657    0.8731   -2.3916 C   0  0  0  0  0  0  0  0  0  0  0  0
    4.6306    2.0991    0.0249 C   0  0  0  0  0  0  0  0  0  0  0  0
   -2.5708   -0.1234   -2.7449 C   0  0  0  0  0  0  0  0  0  0  0  0
    6.5631    0.7730    0.2227 C   0  0  0  0  0  0  0  0  0  0  0  0
    0.0207   -4.6767    0.1832 H   0  0  0  0  0  0  0  0  0  0  0  0
   -0.8424   -2.4524   -1.7170 H   0  0  0  0  0  0  0  0  0  0  0  0
    0.5196   -3.5336   -1.9458 H   0  0  0  0  0  0  0  0  0  0  0  0
    1.0775   -1.2218   -1.1331 H   0  0  0  0  0  0  0  0  0  0  0  0
   -2.3131   -2.7103    0.4362 H   0  0  0  0  0  0  0  0  0  0  0  0
   -1.9499   -4.0365    1.5421 H   0  0  0  0  0  0  0  0  0  0  0  0
    0.1984   -2.9919    2.1674 H   0  0  0  0  0  0  0  0  0  0  0  0
   -1.1295   -1.8671    2.4049 H   0  0  0  0  0  0  0  0  0  0  0  0
    0.8495    0.5747   -0.7982 H   0  0  0  0  0  0  0  0  0  0  0  0
   -2.4960   -4.3373   -1.5324 H   0  0  0  0  0  0  0  0  0  0  0  0
   -1.1597   -5.4567   -1.8528 H   0  0  0  0  0  0  0  0  0  0  0  0
   -2.1675   -5.6716   -0.4135 H   0  0  0  0  0  0  0  0  0  0  0  0
    2.5124    1.3708    1.6471 H   0  0  0  0  0  0  0  0  0  0  0  0
    2.9044    0.0163    0.6057 H   0  0  0  0  0  0  0  0  0  0  0  0
   -5.6863    1.9026    0.6160 H   0  0  0  0  0  0  0  0  0  0  0  0
    0.0962    2.4364    1.4216 H   0  0  0  0  0  0  0  0  0  0  0  0
   -4.6855   -0.9933    0.7756 H   0  0  0  0  0  0  0  0  0  0  0  0
   -5.8445   -0.3073   -0.3774 H   0  0  0  0  0  0  0  0  0  0  0  0
   -3.5449    0.7264    2.4753 H   0  0  0  0  0  0  0  0  0  0  0  0
   -4.1864    2.3694    2.5461 H   0  0  0  0  0  0  0  0  0  0  0  0
    3.0667    1.5732   -1.3586 H   0  0  0  0  0  0  0  0  0  0  0  0
    2.6915    2.9408   -0.3067 H   0  0  0  0  0  0  0  0  0  0  0  0
   -2.2913    2.6111    1.1660 H   0  0  0  0  0  0  0  0  0  0  0  0
   -7.2316    0.3104    1.7336 H   0  0  0  0  0  0  0  0  0  0  0  0
   -5.9394   -0.2016    2.8333 H   0  0  0  0  0  0  0  0  0  0  0  0
   -6.5525    1.4596    2.8965 H   0  0  0  0  0  0  0  0  0  0  0  0
   -4.3346   -1.2088   -2.1826 H   0  0  0  0  0  0  0  0  0  0  0  0
   -0.8516    1.0850   -3.0780 H   0  0  0  0  0  0  0  0  0  0  0  0
    5.0871    2.8053   -0.6791 H   0  0  0  0  0  0  0  0  0  0  0  0
    4.7148    2.5122    1.0374 H   0  0  0  0  0  0  0  0  0  0  0  0
   -2.4497   -0.6624   -3.6799 H   0  0  0  0  0  0  0  0  0  0  0  0
    3.6585   -3.4672   -0.7263 H   0  0  0  0  0  0  0  0  0  0  0  0
    8.2523   -0.4511    0.3831 H   0  0  0  0  0  0  0  0  0  0  0  0
    6.8039   -1.2774   -0.0883 H   0  0  0  0  0  0  0  0  0  0  0  0
    7.0154    2.7734    0.6792 H   0  0  0  0  0  0  0  0  0  0  0  0
    8.3544    1.6882    0.7870 H   0  0  0  0  0  0  0  0  0  0  0  0
  1  5  2  0  0  0  0
  1  6  2  0  0  0  0
  1  8  1  0  0  0  0
  1 28  1  0  0  0  0
  2 19  2  0  0  0  0
  3 21  1  0  0  0  0
  3 67  1  0  0  0  0
  4 21  2  0  0  0  0
  7 15  1  0  0  0  0
  7 17  1  0  0  0  0
  7 19  1  0  0  0  0
  8 18  1  0  0  0  0
  8 51  1  0  0  0  0
  9 25  1  0  0  0  0
  9 27  1  0  0  0  0
  9 58  1  0  0  0  0
 10 33  1  0  0  0  0
 10 35  2  0  0  0  0
 11 35  1  0  0  0  0
 11 68  1  0  0  0  0
 11 69  1  0  0  0  0
 12 35  1  0  0  0  0
 12 70  1  0  0  0  0
 12 71  1  0  0  0  0
 13 14  1  0  0  0  0
 13 16  1  0  0  0  0
 13 20  1  0  0  0  0
 13 36  1  0  0  0  0
 14 15  1  0  0  0  0
 14 37  1  0  0  0  0
 14 38  1  0  0  0  0
 15 21  1  0  0  0  0
 15 39  1  0  0  0  0
 16 17  1  0  0  0  0
 16 40  1  0  0  0  0
 16 41  1  0  0  0  0
 17 42  1  0  0  0  0
 17 43  1  0  0  0  0
 18 19  1  0  0  0  0
 18 22  1  0  0  0  0
 18 44  1  0  0  0  0
 20 45  1  0  0  0  0
 20 46  1  0  0  0  0
 20 47  1  0  0  0  0
 22 29  1  0  0  0  0
 22 48  1  0  0  0  0
 22 49  1  0  0  0  0
 23 24  1  0  0  0  0
 23 27  1  0  0  0  0
 23 30  1  0  0  0  0
 23 50  1  0  0  0  0
 24 26  1  0  0  0  0
 24 52  1  0  0  0  0
 24 53  1  0  0  0  0
 25 26  2  0  0  0  0
 25 28  1  0  0  0  0
 26 31  1  0  0  0  0
 27 54  1  0  0  0  0
 27 55  1  0  0  0  0
 28 32  2  0  0  0  0
 29 33  1  0  0  0  0
 29 56  1  0  0  0  0
 29 57  1  0  0  0  0
 30 59  1  0  0  0  0
 30 60  1  0  0  0  0
 30 61  1  0  0  0  0
 31 34  2  0  0  0  0
 31 62  1  0  0  0  0
 32 34  1  0  0  0  0
 32 63  1  0  0  0  0
 33 64  1  0  0  0  0
 33 65  1  0  0  0  0
 34 66  1  0  0  0  0
M  END
> <PUBCHEM_COMPOUND_CID>
440542

> <PUBCHEM_CONFORMER_RMSD>
1.2

> <PUBCHEM_CONFORMER_DIVERSEORDER>
1
186
6
165
27
157
113
57
210
112
141
197
161
199
193
70
201
154
114
200
147
189
217
8
196
67
111
226
182
109
125
25
230
207
146
152
79
168
209
60
153
84
173
16
121
138
150
137
163
59
12
202
184
221
115
119
158
216
38
33
181
144
62
133
225
66
205
187
143
214
108
171
29
194
148
4
204
19
35
63
24
71
167
55
223
93
178
128
101
219
75
130
105
198
127
220
118
164
10
39
183
37
135
34
94
156
177
142
91
188
43
126
92
23
140
162
229
122
46
176
77
5
80
96
131
100
99
174
134
86
213
69
98
104
53
90
107
123
102
129
56
195
73
9
45
50
95
166
13
180
145
74
20
41
149
208
191
61
28
160
120
116
17
85
185
64
203
215
179
106
32
36
218
58
192
172
81
124
190
48
42
52
103
136
21
47
49
169
139
65
89
175
72
26
22
2
88
212
117
18
110
44
82
170
40
211
54
87
30
227
15
155
83
31
7
159
206
151
222
51
132
68
228
224
11
76
14
78
97
3

> <PUBCHEM_MMFF94_PARTIAL_CHARGES>
37
1 1.45
10 -0.7
11 -0.85
12 -0.85
15 0.36
17 0.3
18 0.42
19 0.57
2 -0.57
21 0.66
24 0.14
25 0.1
26 -0.14
27 0.37
28 -0.01
3 -0.65
31 -0.15
32 -0.15
33 0.25
34 -0.15
35 0.55
4 -0.57
5 -0.65
51 0.42
58 0.4
6 -0.65
62 0.15
63 0.15
66 0.15
67 0.5
68 0.4
69 0.4
7 -0.66
70 0.4
71 0.4
8 -0.91
9 -0.87

> <PUBCHEM_EFFECTIVE_ROTOR_COUNT>
12

> <PUBCHEM_PHARMACOPHORE_FEATURES>
15
1 11 donor
1 12 donor
1 2 acceptor
1 3 acceptor
1 4 acceptor
1 5 acceptor
1 6 acceptor
1 8 donor
1 9 cation
1 9 donor
3 3 4 21 anion
4 10 11 12 35 cation
6 25 26 28 31 32 34 rings
6 7 13 14 15 16 17 rings
6 9 23 24 25 26 27 rings

> <PUBCHEM_HEAVY_ATOM_COUNT>
35

> <PUBCHEM_ATOM_DEF_STEREO_COUNT>
2

> <PUBCHEM_ATOM_UDEF_STEREO_COUNT>
2

> <PUBCHEM_BOND_DEF_STEREO_COUNT>
0

> <PUBCHEM_BOND_UDEF_STEREO_COUNT>
0

> <PUBCHEM_ISOTOPIC_ATOM_COUNT>
0

> <PUBCHEM_COMPONENT_COUNT>
1

> <PUBCHEM_CACTVS_TAUTO_COUNT>
2

> <PUBCHEM_CONFORMER_ID>
0006B8DE00000001

> <PUBCHEM_MMFF94_ENERGY>
75.5492

> <PUBCHEM_FEATURE_SELFOVERLAP>
76.27

> <PUBCHEM_SHAPE_FINGERPRINT>
10119406 146 18338514244748785422
12047536 79 17683208690723558457
12156800 1 17838300061842967855
12422481 6 17986656091825540497
14713325 29 18266744575847588930
17492 54 17843154474498977551
19319366 153 18041559269020050819
20764821 26 18198331867408526318
35225 105 17616214055182488419
392239 28 18342455945671129895
469060 322 16988004878048915327
563151 248 17894622639385718413
6287921 2 18337101384716890559
6669772 16 18202003261320032970
9896288 288 18188760764850324305

> <PUBCHEM_SHAPE_MULTIPOLES>
664.9
12.02
5.11
2.06
18.34
5.38
0.44
-7.21
-4.44
-0.2
1.06
-2.8
-0.23
-0.69

> <PUBCHEM_SHAPE_SELFOVERLAP>
1368.856

> <PUBCHEM_SHAPE_VOLUME>
380.9

> <PUBCHEM_COORDINATE_TYPE>
2
5
10

$$$$

