442838
  -OEChem-07051212593D

 51 54  0     1  0  0  0  0  0999 V2000
    0.1403    0.5672   -1.2378 O   0  0  0  0  0  0  0  0  0  0  0  0
    2.2918   -1.5596   -1.5961 O   0  0  0  0  0  0  0  0  0  0  0  0
    3.2076   -2.5095    0.8151 O   0  0  0  0  0  0  0  0  0  0  0  0
    3.3928    2.0560    1.9418 O   0  0  0  0  0  0  0  0  0  0  0  0
   -4.2074    1.5462    1.2657 O   0  0  0  0  0  0  0  0  0  0  0  0
   -5.8431   -0.0300    0.4609 O   0  0  0  0  0  0  0  0  0  0  0  0
    1.7648   -0.9699   -0.3997 C   0  0  1  0  0  0  0  0  0  0  0  0
    1.4765    0.5115   -0.6889 C   0  0  2  0  0  0  0  0  0  0  0  0
    0.3600   -1.5167   -0.1097 C   0  0  1  0  0  0  0  0  0  0  0  0
   -0.4925   -0.7206   -1.1067 C   0  0  1  0  0  0  0  0  0  0  0  0
    1.5161    1.4016    0.5606 C   0  0  1  0  0  0  0  0  0  0  0  0
    2.7730   -1.2007    0.6933 C   0  0  0  0  0  0  0  0  0  0  0  0
    0.1851   -3.0245   -0.2660 C   0  0  0  0  0  0  0  0  0  0  0  0
    2.7942    1.1613    1.3476 C   0  0  0  0  0  0  0  0  0  0  0  0
   -1.9400   -0.5650   -0.7055 C   0  0  0  0  0  0  0  0  0  0  0  0
    1.3638    2.8769    0.1872 C   0  0  0  0  0  0  0  0  0  0  0  0
    3.2763   -0.2340    1.4717 C   0  0  0  0  0  0  0  0  0  0  0  0
    3.5296   -0.9696   -1.9522 C   0  0  0  0  0  0  0  0  0  0  0  0
   -2.3226    0.4905    0.1288 C   0  0  0  0  0  0  0  0  0  0  0  0
   -2.8979   -1.4843   -1.1739 C   0  0  0  0  0  0  0  0  0  0  0  0
    2.4716    3.3214   -0.7142 C   0  0  0  0  0  0  0  0  0  0  0  0
   -3.6563    0.5912    0.4679 C   0  0  0  0  0  0  0  0  0  0  0  0
   -4.2423   -1.3593   -0.8154 C   0  0  0  0  0  0  0  0  0  0  0  0
    2.9594   -2.9968    2.1177 C   0  0  0  0  0  0  0  0  0  0  0  0
   -4.5903   -0.3087    0.0085 C   0  0  0  0  0  0  0  0  0  0  0  0
    2.2826    3.7786   -1.9571 C   0  0  0  0  0  0  0  0  0  0  0  0
   -5.5932    1.1467    1.2563 C   0  0  0  0  0  0  0  0  0  0  0  0
    2.1236    0.9160   -1.4684 H   0  0  0  0  0  0  0  0  0  0  0  0
    0.0756   -1.2447    0.9169 H   0  0  0  0  0  0  0  0  0  0  0  0
   -0.4448   -1.1726   -2.1063 H   0  0  0  0  0  0  0  0  0  0  0  0
    0.6845    1.1497    1.2314 H   0  0  0  0  0  0  0  0  0  0  0  0
   -0.8426   -3.3209   -0.0337 H   0  0  0  0  0  0  0  0  0  0  0  0
    0.4009   -3.3536   -1.2878 H   0  0  0  0  0  0  0  0  0  0  0  0
    0.8373   -3.5811    0.4098 H   0  0  0  0  0  0  0  0  0  0  0  0
    1.3821    3.4996    1.0902 H   0  0  0  0  0  0  0  0  0  0  0  0
    0.3858    3.0450   -0.2804 H   0  0  0  0  0  0  0  0  0  0  0  0
    4.0498   -0.4221    2.2075 H   0  0  0  0  0  0  0  0  0  0  0  0
    4.2330   -1.7792   -2.1727 H   0  0  0  0  0  0  0  0  0  0  0  0
    4.0036   -0.3053   -1.2244 H   0  0  0  0  0  0  0  0  0  0  0  0
    3.3889   -0.4124   -2.8845 H   0  0  0  0  0  0  0  0  0  0  0  0
   -1.6102    1.2123    0.5105 H   0  0  0  0  0  0  0  0  0  0  0  0
   -2.5989   -2.3039   -1.8230 H   0  0  0  0  0  0  0  0  0  0  0  0
    3.4891    3.3035   -0.3341 H   0  0  0  0  0  0  0  0  0  0  0  0
   -4.9811   -2.0663   -1.1750 H   0  0  0  0  0  0  0  0  0  0  0  0
    3.0410   -4.0880    2.0892 H   0  0  0  0  0  0  0  0  0  0  0  0
    1.9518   -2.7501    2.4733 H   0  0  0  0  0  0  0  0  0  0  0  0
    3.7107   -2.6338    2.8269 H   0  0  0  0  0  0  0  0  0  0  0  0
    3.1257    4.1006   -2.5584 H   0  0  0  0  0  0  0  0  0  0  0  0
    1.2926    3.8372   -2.3957 H   0  0  0  0  0  0  0  0  0  0  0  0
   -6.1939    1.9730    0.8591 H   0  0  0  0  0  0  0  0  0  0  0  0
   -5.9077    0.9467    2.2872 H   0  0  0  0  0  0  0  0  0  0  0  0
  1  8  1  0  0  0  0
  1 10  1  0  0  0  0
  2  7  1  0  0  0  0
  2 18  1  0  0  0  0
  3 12  1  0  0  0  0
  3 24  1  0  0  0  0
  4 14  2  0  0  0  0
  5 22  1  0  0  0  0
  5 27  1  0  0  0  0
  6 25  1  0  0  0  0
  6 27  1  0  0  0  0
  7  8  1  0  0  0  0
  7  9  1  0  0  0  0
  7 12  1  0  0  0  0
  8 11  1  0  0  0  0
  8 28  1  0  0  0  0
  9 10  1  0  0  0  0
  9 13  1  0  0  0  0
  9 29  1  0  0  0  0
 10 15  1  0  0  0  0
 10 30  1  0  0  0  0
 11 14  1  0  0  0  0
 11 16  1  0  0  0  0
 11 31  1  0  0  0  0
 12 17  2  0  0  0  0
 13 32  1  0  0  0  0
 13 33  1  0  0  0  0
 13 34  1  0  0  0  0
 14 17  1  0  0  0  0
 15 19  2  0  0  0  0
 15 20  1  0  0  0  0
 16 21  1  0  0  0  0
 16 35  1  0  0  0  0
 16 36  1  0  0  0  0
 17 37  1  0  0  0  0
 18 38  1  0  0  0  0
 18 39  1  0  0  0  0
 18 40  1  0  0  0  0
 19 22  1  0  0  0  0
 19 41  1  0  0  0  0
 20 23  2  0  0  0  0
 20 42  1  0  0  0  0
 21 26  2  0  0  0  0
 21 43  1  0  0  0  0
 22 25  2  0  0  0  0
 23 25  1  0  0  0  0
 23 44  1  0  0  0  0
 24 45  1  0  0  0  0
 24 46  1  0  0  0  0
 24 47  1  0  0  0  0
 26 48  1  0  0  0  0
 26 49  1  0  0  0  0
 27 50  1  0  0  0  0
 27 51  1  0  0  0  0
M  END
> <PUBCHEM_COMPOUND_CID>
442838

> <PUBCHEM_CONFORMER_RMSD>
0.8

> <PUBCHEM_CONFORMER_DIVERSEORDER>
1
13
8
10
17
12
2
14
15
11
4
18
9
16
6
7
5
19
3

> <PUBCHEM_MMFF94_PARTIAL_CHARGES>
32
1 -0.56
10 0.42
11 0.06
12 -0.06
14 0.49
15 -0.14
16 0.14
17 -0.14
18 0.28
19 -0.15
2 -0.56
20 -0.15
21 -0.29
22 0.08
23 -0.15
24 0.28
25 0.08
26 -0.3
27 0.56
3 -0.36
37 0.15
4 -0.57
41 0.15
42 0.15
43 0.15
44 0.15
48 0.15
49 0.15
5 -0.36
6 -0.36
7 0.42
8 0.28

> <PUBCHEM_EFFECTIVE_ROTOR_COUNT>
6.4

> <PUBCHEM_PHARMACOPHORE_FEATURES>
11
1 1 acceptor
1 2 acceptor
1 26 hydrophobe
1 3 acceptor
1 4 acceptor
1 5 acceptor
1 6 acceptor
5 1 7 8 9 10 rings
5 5 6 22 25 27 rings
6 15 19 20 22 23 25 rings
6 7 8 11 12 14 17 rings

> <PUBCHEM_HEAVY_ATOM_COUNT>
27

> <PUBCHEM_ATOM_DEF_STEREO_COUNT>
5

> <PUBCHEM_ATOM_UDEF_STEREO_COUNT>
0

> <PUBCHEM_BOND_DEF_STEREO_COUNT>
0

> <PUBCHEM_BOND_UDEF_STEREO_COUNT>
0

> <PUBCHEM_ISOTOPIC_ATOM_COUNT>
0

> <PUBCHEM_COMPONENT_COUNT>
1

> <PUBCHEM_CACTVS_TAUTO_COUNT>
2

> <PUBCHEM_CONFORMER_ID>
0006C1D600000001

> <PUBCHEM_MMFF94_ENERGY>
87.7641

> <PUBCHEM_FEATURE_SELFOVERLAP>
56.109

> <PUBCHEM_SHAPE_FINGERPRINT>
10366900 7 18129928070948311603
10382601 240 18336844021707627176
10674148 151 17968950674566950776
11421498 54 17845367929134819890
11578080 2 17915201193595692892
11796584 16 15123503744680592259
12422481 6 18045816548199328504
12553582 1 18266178507705407871
12617007 42 17969763332815758412
12633257 1 17845109384360924528
12644460 14 17988362568332216404
13140716 1 18333454248565049939
13224815 77 18343019956956272415
13583140 156 17988093278636394039
13965767 371 17896624863134639576
14022347 108 18193540371660090830
14713325 29 16902402207126781796
14739800 52 17605012320021775945
14787075 74 17689726259885941631
14790565 3 18196937669580582364
15238133 3 18197770201365443683
15475509 8 18335127692957989124
1601671 61 18114737260805636918
16945 1 17982766041699329894
17492 89 18041280980904260791
17980427 23 17678201376154714318
1813 80 18268988851078486350
19078846 21 18338232794565393247
20691752 17 18202290177508058606
20715895 44 17753609341817722241
20739085 24 18410861005331887186
21033648 29 17024320836380453451
21503847 285 18040994068076270927
21756936 100 17244161336061093848
2255824 54 18412540994342472662
23557571 272 15358265853746780063
23558518 356 18121224173193380910
23559900 14 17749100123676360919
3411729 13 18187090516593061472
38570 142 17984121687702144572
4409770 3 17333665267353505284
474 4 18339643339414489645
5104073 3 18333446539642229147
5895379 119 16371831006489012537
6086070 43 18269010828689845509
633830 44 18334853888349686183
6786 2 17413565283038389476
7097593 13 18338248106097540179
9841814 1 18341611550869130774

> <PUBCHEM_SHAPE_MULTIPOLES>
520.43
9.55
3.72
1.82
15.5
1.64
-0.08
1.09
-3.05
-4.58
0.26
-1.54
0.04
-1.89

> <PUBCHEM_SHAPE_SELFOVERLAP>
1133.872

> <PUBCHEM_SHAPE_VOLUME>
282.9

> <PUBCHEM_COORDINATE_TYPE>
2
5
10

$$$$

