11933
  -OEChem-06261206182D

 30 29  0     0  0  0  0  0  0999 V2000
    0.0000    1.3100    0.0000 Cl  0  0  0  0  0  0  0  0  0  0  0  0
    3.4641    6.3100    0.0000 Cl  0  0  0  0  0  0  0  0  0  0  0  0
    5.4641    2.3100    0.0000 Cl  0  0  0  0  0  0  0  0  0  0  0  0
    5.4641    4.8100    0.0000 Cl  0  0  0  0  0  0  0  0  0  0  0  0
    1.7320    0.3100    0.0000 N   0  0  0  0  0  0  0  0  0  0  0  0
    1.7320    7.3100    0.0000 N   0  0  0  0  0  0  0  0  0  0  0  0
    1.7320    3.3100    0.0000 C   0  0  0  0  0  0  0  0  0  0  0  0
    1.7320    4.3100    0.0000 C   0  0  0  0  0  0  0  0  0  0  0  0
    0.8660    2.8100    0.0000 C   0  0  0  0  0  0  0  0  0  0  0  0
    2.5981    4.8100    0.0000 C   0  0  0  0  0  0  0  0  0  0  0  0
    2.5981    2.8100    0.0000 C   0  0  0  0  0  0  0  0  0  0  0  0
    0.8660    4.8100    0.0000 C   0  0  0  0  0  0  0  0  0  0  0  0
    1.7320    1.3100    0.0000 C   0  0  0  0  0  0  0  0  0  0  0  0
    1.7320    6.3100    0.0000 C   0  0  0  0  0  0  0  0  0  0  0  0
    0.8660    1.8100    0.0000 C   0  0  0  0  0  0  0  0  0  0  0  0
    2.5981    5.8100    0.0000 C   0  0  0  0  0  0  0  0  0  0  0  0
    2.5981    1.8100    0.0000 C   0  0  0  0  0  0  0  0  0  0  0  0
    0.8660    5.8100    0.0000 C   0  0  0  0  0  0  0  0  0  0  0  0
    0.3291    3.1200    0.0000 H   0  0  0  0  0  0  0  0  0  0  0  0
    3.1350    4.5000    0.0000 H   0  0  0  0  0  0  0  0  0  0  0  0
    3.1350    3.1200    0.0000 H   0  0  0  0  0  0  0  0  0  0  0  0
    0.3291    4.5000    0.0000 H   0  0  0  0  0  0  0  0  0  0  0  0
    3.1350    1.5000    0.0000 H   0  0  0  0  0  0  0  0  0  0  0  0
    0.3291    6.1200    0.0000 H   0  0  0  0  0  0  0  0  0  0  0  0
    2.2690    0.0000    0.0000 H   0  0  0  0  0  0  0  0  0  0  0  0
    1.1951    0.0000    0.0000 H   0  0  0  0  0  0  0  0  0  0  0  0
    1.1951    7.6200    0.0000 H   0  0  0  0  0  0  0  0  0  0  0  0
    2.2690    7.6200    0.0000 H   0  0  0  0  0  0  0  0  0  0  0  0
    6.4641    2.3100    0.0000 H   0  0  0  0  0  0  0  0  0  0  0  0
    6.4641    4.8100    0.0000 H   0  0  0  0  0  0  0  0  0  0  0  0
  1 15  1  0  0  0  0
  2 16  1  0  0  0  0
  3 29  1  0  0  0  0
  4 30  1  0  0  0  0
  5 13  1  0  0  0  0
  5 25  1  0  0  0  0
  5 26  1  0  0  0  0
  6 14  1  0  0  0  0
  6 27  1  0  0  0  0
  6 28  1  0  0  0  0
  7  8  1  0  0  0  0
  7  9  2  0  0  0  0
  7 11  1  0  0  0  0
  8 10  2  0  0  0  0
  8 12  1  0  0  0  0
  9 15  1  0  0  0  0
  9 19  1  0  0  0  0
 10 16  1  0  0  0  0
 10 20  1  0  0  0  0
 11 17  2  0  0  0  0
 11 21  1  0  0  0  0
 12 18  2  0  0  0  0
 12 22  1  0  0  0  0
 13 15  2  0  0  0  0
 13 17  1  0  0  0  0
 14 16  2  0  0  0  0
 14 18  1  0  0  0  0
 17 23  1  0  0  0  0
 18 24  1  0  0  0  0
M  END
> <PUBCHEM_COMPOUND_CID>
11933

> <PUBCHEM_COMPOUND_CANONICALIZED>
1

> <PUBCHEM_CACTVS_COMPLEXITY>
213

> <PUBCHEM_CACTVS_HBOND_ACCEPTOR>
2

> <PUBCHEM_CACTVS_HBOND_DONOR>
4

> <PUBCHEM_CACTVS_ROTATABLE_BOND>
1

> <PUBCHEM_CACTVS_SUBSKEYS>
AAADccBzAAAHAAAAAAAAAAAAAAAAAAAAAAAwYAAAAAAAAAABQAAAHAIQAAAADAqBGCAwwIBAAACAAiRCQACCAAAgBwAIiAAAZogIICKBk5GAIABgkAAIyAcQgMAOiAAAIAAAABAQAABAAAAAIAAAAAAAAA==

> <PUBCHEM_IUPAC_OPENEYE_NAME>
4-(4-amino-3-chloro-phenyl)-2-chloro-aniline dihydrochloride

> <PUBCHEM_IUPAC_CAS_NAME>
4-(4-amino-3-chlorophenyl)-2-chloroaniline dihydrochloride

> <PUBCHEM_IUPAC_NAME>
4-(4-amino-3-chlorophenyl)-2-chloroaniline dihydrochloride

> <PUBCHEM_IUPAC_SYSTEMATIC_NAME>
4-(4-azanyl-3-chloranyl-phenyl)-2-chloranyl-aniline dihydrochloride

> <PUBCHEM_IUPAC_TRADITIONAL_NAME>
[4-(4-amino-3-chloro-phenyl)-2-chloro-phenyl]amine dihydrochloride

> <PUBCHEM_IUPAC_INCHI>
InChI=1S/C12H10Cl2N2.2ClH/c13-9-5-7(1-3-11(9)15)8-2-4-12(16)10(14)6-8;;/h1-6H,15-16H2;2*1H

> <PUBCHEM_IUPAC_INCHIKEY>
BXAONUZFBUNTQR-UHFFFAOYSA-N

> <PUBCHEM_EXACT_MASS>
325.972509

> <PUBCHEM_MOLECULAR_FORMULA>
C12H12Cl4N2

> <PUBCHEM_MOLECULAR_WEIGHT>
326.04908

> <PUBCHEM_OPENEYE_CAN_SMILES>
C1=CC(=C(C=C1C2=CC(=C(C=C2)N)Cl)Cl)N.Cl.Cl

> <PUBCHEM_OPENEYE_ISO_SMILES>
C1=CC(=C(C=C1C2=CC(=C(C=C2)N)Cl)Cl)N.Cl.Cl

> <PUBCHEM_CACTVS_TPSA>
52

> <PUBCHEM_MONOISOTOPIC_WEIGHT>
323.975459

> <PUBCHEM_TOTAL_CHARGE>
0

> <PUBCHEM_HEAVY_ATOM_COUNT>
18

> <PUBCHEM_ATOM_DEF_STEREO_COUNT>
0

> <PUBCHEM_ATOM_UDEF_STEREO_COUNT>
0

> <PUBCHEM_BOND_DEF_STEREO_COUNT>
0

> <PUBCHEM_BOND_UDEF_STEREO_COUNT>
0

> <PUBCHEM_ISOTOPIC_ATOM_COUNT>
0

> <PUBCHEM_COMPONENT_COUNT>
3

> <PUBCHEM_CACTVS_TAUTO_COUNT>
1

> <PUBCHEM_COORDINATE_TYPE>
1
5
255

> <PUBCHEM_BONDANNOTATIONS>
10  16  8
11  17  8
12  18  8
13  15  8
13  17  8
14  16  8
14  18  8
7  11  8
7  9  8
8  10  8
8  12  8
9  15  8

$$$$

