1236
  -OEChem-07051213012D

 84 88  0     1  0  0  0  0  0999 V2000
    9.6679   -0.4510    0.0000 O   0  0  0  0  0  0  0  0  0  0  0  0
   10.5339    1.0490    0.0000 O   0  0  0  0  0  0  0  0  0  0  0  0
   14.8641   -0.4510    0.0000 O   0  0  0  0  0  0  0  0  0  0  0  0
   13.9980    1.0490    0.0000 O   0  0  0  0  0  0  0  0  0  0  0  0
   13.9980    4.0490    0.0000 O   0  5  0  0  0  0  0  0  0  0  0  0
   14.8641    2.5490    0.0000 O   0  0  0  0  0  0  0  0  0  0  0  0
    6.2038   -0.4510    0.0000 N   0  0  0  0  0  0  0  0  0  0  0  0
   12.2660   -1.9510    0.0000 N   0  0  0  0  0  0  0  0  0  0  0  0
   13.9980    3.0490    0.0000 N   0  3  0  0  0  0  0  0  0  0  0  0
    4.4718   -1.4510    0.0000 C   0  0  0  0  0  0  0  0  0  0  0  0
    4.4718   -0.4510    0.0000 C   0  0  0  0  0  0  0  0  0  0  0  0
    5.3378   -1.9510    0.0000 C   0  0  0  0  0  0  0  0  0  0  0  0
    5.3378    0.0490    0.0000 C   0  0  0  0  0  0  0  0  0  0  0  0
    6.2038   -1.4510    0.0000 C   0  0  0  0  0  0  0  0  0  0  0  0
    3.7058   -0.8081    0.0000 C   0  0  0  0  0  0  0  0  0  0  0  0
    3.9718   -2.3170    0.0000 C   0  0  0  0  0  0  0  0  0  0  0  0
    7.0698    0.0490    0.0000 C   0  0  0  0  0  0  0  0  0  0  0  0
    7.9359   -0.4510    0.0000 C   0  0  0  0  0  0  0  0  0  0  0  0
    3.8794    0.1766    0.0000 C   0  0  0  0  0  0  0  0  0  0  0  0
    4.4718   -3.1830    0.0000 C   0  0  0  0  0  0  0  0  0  0  0  0
    2.7660   -1.1502    0.0000 C   0  0  0  0  0  0  0  0  0  0  0  0
    2.9718   -2.3170    0.0000 C   0  0  0  0  0  0  0  0  0  0  0  0
    8.8019    0.0490    0.0000 C   0  0  0  0  0  0  0  0  0  0  0  0
    3.1133    0.8194    0.0000 C   0  0  0  0  0  0  0  0  0  0  0  0
    3.9718   -4.0490    0.0000 C   0  0  0  0  0  0  0  0  0  0  0  0
    2.0000   -0.5073    0.0000 C   0  0  0  0  0  0  0  0  0  0  0  0
    2.4718   -3.1830    0.0000 C   0  0  0  0  0  0  0  0  0  0  0  0
    2.1737    0.4775    0.0000 C   0  0  0  0  0  0  0  0  0  0  0  0
    2.9718   -4.0490    0.0000 C   0  0  0  0  0  0  0  0  0  0  0  0
   12.2660    0.0490    0.0000 C   0  0  3  0  0  0  0  0  0  0  0  0
   11.4000   -0.4510    0.0000 C   0  0  0  0  0  0  0  0  0  0  0  0
   10.5339    0.0490    0.0000 C   0  0  0  0  0  0  0  0  0  0  0  0
   13.1320   -0.4510    0.0000 C   0  0  0  0  0  0  0  0  0  0  0  0
   11.4000   -1.4510    0.0000 C   0  0  0  0  0  0  0  0  0  0  0  0
   12.2660    1.0490    0.0000 C   0  0  0  0  0  0  0  0  0  0  0  0
   13.1320   -1.4510    0.0000 C   0  0  0  0  0  0  0  0  0  0  0  0
   10.5339   -1.9510    0.0000 C   0  0  0  0  0  0  0  0  0  0  0  0
   13.1320    1.5490    0.0000 C   0  0  0  0  0  0  0  0  0  0  0  0
   11.4000    1.5490    0.0000 C   0  0  0  0  0  0  0  0  0  0  0  0
   13.9980    0.0490    0.0000 C   0  0  0  0  0  0  0  0  0  0  0  0
   13.9980   -1.9510    0.0000 C   0  0  0  0  0  0  0  0  0  0  0  0
   13.1320    2.5490    0.0000 C   0  0  0  0  0  0  0  0  0  0  0  0
   11.4000    2.5490    0.0000 C   0  0  0  0  0  0  0  0  0  0  0  0
   12.2660    3.0490    0.0000 C   0  0  0  0  0  0  0  0  0  0  0  0
   15.7301    0.0490    0.0000 C   0  0  0  0  0  0  0  0  0  0  0  0
    4.2597    0.1316    0.0000 H   0  0  0  0  0  0  0  0  0  0  0  0
    3.8612   -0.5586    0.0000 H   0  0  0  0  0  0  0  0  0  0  0  0
    4.9393   -2.4259    0.0000 H   0  0  0  0  0  0  0  0  0  0  0  0
    5.7363   -2.4259    0.0000 H   0  0  0  0  0  0  0  0  0  0  0  0
    6.4159   -2.0336    0.0000 H   0  0  0  0  0  0  0  0  0  0  0  0
    6.8144   -1.3433    0.0000 H   0  0  0  0  0  0  0  0  0  0  0  0
    5.7363    0.5240    0.0000 H   0  0  0  0  0  0  0  0  0  0  0  0
    4.9393    0.5240    0.0000 H   0  0  0  0  0  0  0  0  0  0  0  0
    7.4684    0.5240    0.0000 H   0  0  0  0  0  0  0  0  0  0  0  0
    6.6713    0.5240    0.0000 H   0  0  0  0  0  0  0  0  0  0  0  0
    7.5373   -0.9259    0.0000 H   0  0  0  0  0  0  0  0  0  0  0  0
    8.3344   -0.9259    0.0000 H   0  0  0  0  0  0  0  0  0  0  0  0
    5.0918   -3.1830    0.0000 H   0  0  0  0  0  0  0  0  0  0  0  0
    4.4620    0.3887    0.0000 H   0  0  0  0  0  0  0  0  0  0  0  0
    2.6618   -1.7800    0.0000 H   0  0  0  0  0  0  0  0  0  0  0  0
    2.6584   -1.7607    0.0000 H   0  0  0  0  0  0  0  0  0  0  0  0
    9.2004    0.5240    0.0000 H   0  0  0  0  0  0  0  0  0  0  0  0
    8.4034    0.5240    0.0000 H   0  0  0  0  0  0  0  0  0  0  0  0
    3.2210    1.4300    0.0000 H   0  0  0  0  0  0  0  0  0  0  0  0
    4.2818   -4.5860    0.0000 H   0  0  0  0  0  0  0  0  0  0  0  0
    1.4174   -0.7194    0.0000 H   0  0  0  0  0  0  0  0  0  0  0  0
    1.8518   -3.1830    0.0000 H   0  0  0  0  0  0  0  0  0  0  0  0
    1.6988    0.8760    0.0000 H   0  0  0  0  0  0  0  0  0  0  0  0
    2.6618   -4.5860    0.0000 H   0  0  0  0  0  0  0  0  0  0  0  0
   13.0021    0.4740    0.0000 H   0  0  0  0  0  0  0  0  0  0  0  0
   12.2660   -2.5710    0.0000 H   0  0  0  0  0  0  0  0  0  0  0  0
   10.2239   -1.4140    0.0000 H   0  0  0  0  0  0  0  0  0  0  0  0
    9.9970   -2.2610    0.0000 H   0  0  0  0  0  0  0  0  0  0  0  0
   10.8439   -2.4879    0.0000 H   0  0  0  0  0  0  0  0  0  0  0  0
   13.6689    1.2390    0.0000 H   0  0  0  0  0  0  0  0  0  0  0  0
   10.8630    1.2390    0.0000 H   0  0  0  0  0  0  0  0  0  0  0  0
   13.6880   -2.4879    0.0000 H   0  0  0  0  0  0  0  0  0  0  0  0
   14.5350   -2.2610    0.0000 H   0  0  0  0  0  0  0  0  0  0  0  0
   14.3080   -1.4140    0.0000 H   0  0  0  0  0  0  0  0  0  0  0  0
   10.8630    2.8590    0.0000 H   0  0  0  0  0  0  0  0  0  0  0  0
   12.2660    3.6690    0.0000 H   0  0  0  0  0  0  0  0  0  0  0  0
   16.0401   -0.4879    0.0000 H   0  0  0  0  0  0  0  0  0  0  0  0
   16.2670    0.3590    0.0000 H   0  0  0  0  0  0  0  0  0  0  0  0
   15.4201    0.5860    0.0000 H   0  0  0  0  0  0  0  0  0  0  0  0
  1 23  1  0  0  0  0
  1 32  1  0  0  0  0
  2 32  2  0  0  0  0
  3 40  1  0  0  0  0
  3 45  1  0  0  0  0
  4 40  2  0  0  0  0
  5  9  1  0  0  0  0
  6  9  2  0  0  0  0
  7 13  1  0  0  0  0
  7 14  1  0  0  0  0
  7 17  1  0  0  0  0
  8 34  1  0  0  0  0
  8 36  1  0  0  0  0
  8 71  1  0  0  0  0
  9 42  1  0  0  0  0
 10 11  1  0  0  0  0
 10 12  1  0  0  0  0
 10 15  1  0  0  0  0
 10 16  1  0  0  0  0
 11 13  1  0  0  0  0
 11 46  1  0  0  0  0
 11 47  1  0  0  0  0
 12 14  1  0  0  0  0
 12 48  1  0  0  0  0
 12 49  1  0  0  0  0
 13 52  1  0  0  0  0
 13 53  1  0  0  0  0
 14 50  1  0  0  0  0
 14 51  1  0  0  0  0
 15 19  2  0  0  0  0
 15 21  1  0  0  0  0
 16 20  2  0  0  0  0
 16 22  1  0  0  0  0
 17 18  1  0  0  0  0
 17 54  1  0  0  0  0
 17 55  1  0  0  0  0
 18 23  1  0  0  0  0
 18 56  1  0  0  0  0
 18 57  1  0  0  0  0
 19 24  1  0  0  0  0
 19 59  1  0  0  0  0
 20 25  1  0  0  0  0
 20 58  1  0  0  0  0
 21 26  2  0  0  0  0
 21 61  1  0  0  0  0
 22 27  2  0  0  0  0
 22 60  1  0  0  0  0
 23 62  1  0  0  0  0
 23 63  1  0  0  0  0
 24 28  2  0  0  0  0
 24 64  1  0  0  0  0
 25 29  2  0  0  0  0
 25 65  1  0  0  0  0
 26 28  1  0  0  0  0
 26 66  1  0  0  0  0
 27 29  1  0  0  0  0
 27 67  1  0  0  0  0
 28 68  1  0  0  0  0
 29 69  1  0  0  0  0
 30 31  1  0  0  0  0
 30 33  1  0  0  0  0
 30 35  1  0  0  0  0
 30 70  1  0  0  0  0
 31 32  1  0  0  0  0
 31 34  2  0  0  0  0
 33 36  2  0  0  0  0
 33 40  1  0  0  0  0
 34 37  1  0  0  0  0
 35 38  2  0  0  0  0
 35 39  1  0  0  0  0
 36 41  1  0  0  0  0
 37 72  1  0  0  0  0
 37 73  1  0  0  0  0
 37 74  1  0  0  0  0
 38 42  1  0  0  0  0
 38 75  1  0  0  0  0
 39 43  2  0  0  0  0
 39 76  1  0  0  0  0
 41 77  1  0  0  0  0
 41 78  1  0  0  0  0
 41 79  1  0  0  0  0
 42 44  2  0  0  0  0
 43 44  1  0  0  0  0
 43 80  1  0  0  0  0
 44 81  1  0  0  0  0
 45 82  1  0  0  0  0
 45 83  1  0  0  0  0
 45 84  1  0  0  0  0
M  CHG  2   5  -1   9   1
M  END
> <PUBCHEM_COMPOUND_CID>
1236

> <PUBCHEM_COMPOUND_CANONICALIZED>
1

> <PUBCHEM_CACTVS_COMPLEXITY>
1100

> <PUBCHEM_CACTVS_HBOND_ACCEPTOR>
8

> <PUBCHEM_CACTVS_HBOND_DONOR>
1

> <PUBCHEM_CACTVS_ROTATABLE_BOND>
11

> <PUBCHEM_CACTVS_SUBSKEYS>
AAADcfB/OAAAAAAAAAAAAAAAAAAAAAAAAAA8YMECAAAAAAABUAAAHgAUAAAADwjhmAYyyIPQRACJAiTSSwCCAAAgAgAoiAEIZMoIJDKAsZGGMABmkACI6UeY7uiPgAAAQAAAAAAAAACAAAAAAAAAAAAAAA==

> <PUBCHEM_IUPAC_OPENEYE_NAME>
O5-[3-(4,4-diphenyl-1-piperidyl)propyl] O3-methyl 2,6-dimethyl-4-(3-nitrophenyl)-1,4-dihydropyridine-3,5-dicarboxylate

> <PUBCHEM_IUPAC_CAS_NAME>
2,6-dimethyl-4-(3-nitrophenyl)-1,4-dihydropyridine-3,5-dicarboxylic acid O5-[3-(4,4-diphenyl-1-piperidinyl)propyl] ester O3-methyl ester

> <PUBCHEM_IUPAC_NAME>
5-O-[3-(4,4-diphenylpiperidin-1-yl)propyl] 3-O-methyl 2,6-dimethyl-4-(3-nitrophenyl)-1,4-dihydropyridine-3,5-dicarboxylate

> <PUBCHEM_IUPAC_SYSTEMATIC_NAME>
O5-[3-(4,4-diphenylpiperidin-1-yl)propyl] O3-methyl 2,6-dimethyl-4-(3-nitrophenyl)-1,4-dihydropyridine-3,5-dicarboxylate

> <PUBCHEM_IUPAC_TRADITIONAL_NAME>
2,6-dimethyl-4-(3-nitrophenyl)-1,4-dihydropyridine-3,5-dicarboxylic acid O5-[3-(4,4-diphenylpiperidino)propyl] ester O3-methyl ester

> <PUBCHEM_IUPAC_INCHI>
InChI=1S/C36H39N3O6/c1-25-31(34(40)44-3)33(27-12-10-17-30(24-27)39(42)43)32(26(2)37-25)35(41)45-23-11-20-38-21-18-36(19-22-38,28-13-6-4-7-14-28)29-15-8-5-9-16-29/h4-10,12-17,24,33,37H,11,18-23H2,1-3H3

> <PUBCHEM_IUPAC_INCHIKEY>
SVJMLYUFVDMUHP-UHFFFAOYSA-N

> <PUBCHEM_XLOGP3>
6.8

> <PUBCHEM_EXACT_MASS>
609.283886

> <PUBCHEM_MOLECULAR_FORMULA>
C36H39N3O6

> <PUBCHEM_MOLECULAR_WEIGHT>
609.71136

> <PUBCHEM_OPENEYE_CAN_SMILES>
CC1=C(C(C(=C(N1)C)C(=O)OCCCN2CCC(CC2)(C3=CC=CC=C3)C4=CC=CC=C4)C5=CC(=CC=C5)[N+](=O)[O-])C(=O)OC

> <PUBCHEM_OPENEYE_ISO_SMILES>
CC1=C(C(C(=C(N1)C)C(=O)OCCCN2CCC(CC2)(C3=CC=CC=C3)C4=CC=CC=C4)C5=CC(=CC=C5)[N+](=O)[O-])C(=O)OC

> <PUBCHEM_CACTVS_TPSA>
114

> <PUBCHEM_MONOISOTOPIC_WEIGHT>
609.283886

> <PUBCHEM_TOTAL_CHARGE>
0

> <PUBCHEM_HEAVY_ATOM_COUNT>
45

> <PUBCHEM_ATOM_DEF_STEREO_COUNT>
0

> <PUBCHEM_ATOM_UDEF_STEREO_COUNT>
1

> <PUBCHEM_BOND_DEF_STEREO_COUNT>
0

> <PUBCHEM_BOND_UDEF_STEREO_COUNT>
0

> <PUBCHEM_ISOTOPIC_ATOM_COUNT>
0

> <PUBCHEM_COMPONENT_COUNT>
1

> <PUBCHEM_CACTVS_TAUTO_COUNT>
5

> <PUBCHEM_COORDINATE_TYPE>
1
5
255

> <PUBCHEM_BONDANNOTATIONS>
15  19  8
15  21  8
16  20  8
16  22  8
19  24  8
20  25  8
21  26  8
22  27  8
24  28  8
25  29  8
26  28  8
27  29  8
30  70  3
35  38  8
35  39  8
38  42  8
39  43  8
42  44  8
43  44  8

$$$$

