46173781
  -OEChem-07051212593D

 24 24  0     1  0  0  0  0  0999 V2000
    0.9546    2.2976    0.7810 O   0  0  0  0  0  0  0  0  0  0  0  0
   -1.8336    0.0514   -1.3167 O   0  5  0  0  0  0  0  0  0  0  0  0
   -2.5864    0.3114    0.8281 O   0  0  0  0  0  0  0  0  0  0  0  0
    0.5863   -1.0258    0.1888 N   0  3  0  0  0  0  0  0  0  0  0  0
   -0.2764    0.2440    0.4329 C   0  0  1  0  0  0  0  0  0  0  0  0
    1.9753   -0.4815   -0.1576 C   0  0  0  0  0  0  0  0  0  0  0  0
    0.4934    1.3953   -0.2239 C   0  0  2  0  0  0  0  0  0  0  0  0
    1.6829    0.7798   -0.9436 C   0  0  0  0  0  0  0  0  0  0  0  0
    0.0583   -1.8830   -0.9607 C   0  0  0  0  0  0  0  0  0  0  0  0
    0.6508   -1.8868    1.4412 C   0  0  0  0  0  0  0  0  0  0  0  0
   -1.7053    0.1975   -0.0696 C   0  0  0  0  0  0  0  0  0  0  0  0
   -0.2915    0.3951    1.5208 H   0  0  0  0  0  0  0  0  0  0  0  0
    2.5378   -1.2355   -0.7163 H   0  0  0  0  0  0  0  0  0  0  0  0
    2.4894   -0.2489    0.7821 H   0  0  0  0  0  0  0  0  0  0  0  0
   -0.1156    1.9867   -0.9157 H   0  0  0  0  0  0  0  0  0  0  0  0
    2.5575    1.4369   -0.9741 H   0  0  0  0  0  0  0  0  0  0  0  0
    1.4119    0.5264   -1.9744 H   0  0  0  0  0  0  0  0  0  0  0  0
   -0.9355   -2.2581   -0.7007 H   0  0  0  0  0  0  0  0  0  0  0  0
    0.0610   -1.3063   -1.8879 H   0  0  0  0  0  0  0  0  0  0  0  0
    0.7372   -2.7349   -1.0766 H   0  0  0  0  0  0  0  0  0  0  0  0
   -0.3622   -2.2270    1.6745 H   0  0  0  0  0  0  0  0  0  0  0  0
    1.3097   -2.7368    1.2414 H   0  0  0  0  0  0  0  0  0  0  0  0
    1.0495   -1.2849    2.2632 H   0  0  0  0  0  0  0  0  0  0  0  0
    1.4558    3.0012    0.3345 H   0  0  0  0  0  0  0  0  0  0  0  0
  1  7  1  0  0  0  0
  1 24  1  0  0  0  0
  2 11  1  0  0  0  0
  3 11  2  0  0  0  0
  4  5  1  0  0  0  0
  4  6  1  0  0  0  0
  4  9  1  0  0  0  0
  4 10  1  0  0  0  0
  5  7  1  0  0  0  0
  5 11  1  0  0  0  0
  5 12  1  0  0  0  0
  6  8  1  0  0  0  0
  6 13  1  0  0  0  0
  6 14  1  0  0  0  0
  7  8  1  0  0  0  0
  7 15  1  0  0  0  0
  8 16  1  0  0  0  0
  8 17  1  0  0  0  0
  9 18  1  0  0  0  0
  9 19  1  0  0  0  0
  9 20  1  0  0  0  0
 10 21  1  0  0  0  0
 10 22  1  0  0  0  0
 10 23  1  0  0  0  0
M  CHG  2   2  -1   4   1
M  END
> <PUBCHEM_COMPOUND_CID>
46173781

> <PUBCHEM_CONFORMER_RMSD>
0.4

> <PUBCHEM_CONFORMER_DIVERSEORDER>
1
3
6
2
4
5

> <PUBCHEM_MMFF94_PARTIAL_CHARGES>
11
1 -0.68
10 0.5
11 0.91
2 -0.9
24 0.4
3 -0.9
4 -1.01
5 0.4
6 0.5
7 0.28
9 0.5

> <PUBCHEM_EFFECTIVE_ROTOR_COUNT>
2

> <PUBCHEM_PHARMACOPHORE_FEATURES>
7
1 1 acceptor
1 1 donor
1 2 acceptor
1 3 acceptor
1 4 cation
3 2 3 11 anion
5 4 5 6 7 8 rings

> <PUBCHEM_HEAVY_ATOM_COUNT>
11

> <PUBCHEM_ATOM_DEF_STEREO_COUNT>
1

> <PUBCHEM_ATOM_UDEF_STEREO_COUNT>
1

> <PUBCHEM_BOND_DEF_STEREO_COUNT>
0

> <PUBCHEM_BOND_UDEF_STEREO_COUNT>
0

> <PUBCHEM_ISOTOPIC_ATOM_COUNT>
0

> <PUBCHEM_COMPONENT_COUNT>
1

> <PUBCHEM_CACTVS_TAUTO_COUNT>
1

> <PUBCHEM_CONFORMER_ID>
02C08E5500000001

> <PUBCHEM_MMFF94_ENERGY>
35.0898

> <PUBCHEM_FEATURE_SELFOVERLAP>
35.574

> <PUBCHEM_SHAPE_FINGERPRINT>
12423570 1 8492599998839272658
13024252 1 16398357480597620088
137420 1 14530544896962513118
15557651 10 18272079461904421805
16945 1 18408884031679771142
18185500 45 18261958573398021103
21040471 1 18126277541492771092
241688 4 17476336770934426866
29004967 10 18270956980844183667
5084963 1 18129661876900672775
528886 8 18114452461344767366
54338 74 16548357804465799434

> <PUBCHEM_SHAPE_MULTIPOLES>
203.79
2.44
2.06
1.22
1.25
0.04
-0.01
-0.31
-0.12
-0.83
0.44
0.06
0.32
-0.17

> <PUBCHEM_SHAPE_SELFOVERLAP>
403.801

> <PUBCHEM_SHAPE_VOLUME>
123.1

> <PUBCHEM_COORDINATE_TYPE>
2
5
10

$$$$

