14153
  -OEChem-06241222422D

 39 40  0     0  0  0  0  0  0999 V2000
    7.0839    4.2488    0.0000 Cl  0  5  0  0  0  0  0  0  0  0  0  0
    3.6073    8.9149    0.0000 O   0  0  0  0  0  0  0  0  0  0  0  0
    0.6128    5.0783    0.0000 O   0  0  0  0  0  0  0  0  0  0  0  0
    3.6073    6.9149    0.0000 N   0  3  0  0  0  0  0  0  0  0  0  0
    0.4049    4.1002    0.0000 N   0  0  0  0  0  0  0  0  0  0  0  0
    4.4733    7.4149    0.0000 C   0  0  0  0  0  0  0  0  0  0  0  0
    2.7413    7.4149    0.0000 C   0  0  0  0  0  0  0  0  0  0  0  0
    3.1073    6.0489    0.0000 C   0  0  0  0  0  0  0  0  0  0  0  0
    4.4733    8.4149    0.0000 C   0  0  0  0  0  0  0  0  0  0  0  0
    2.7413    8.4149    0.0000 C   0  0  0  0  0  0  0  0  0  0  0  0
    2.1073    6.0489    0.0000 C   0  0  0  0  0  0  0  0  0  0  0  0
    1.6073    5.1828    0.0000 C   0  0  0  0  0  0  0  0  0  0  0  0
    2.0140    4.2693    0.0000 C   0  0  0  0  0  0  0  0  0  0  0  0
    1.2709    3.6002    0.0000 C   0  0  0  0  0  0  0  0  0  0  0  0
    1.3754    2.6056    0.0000 C   0  0  0  0  0  0  0  0  0  0  0  0
    0.5664    2.0179    0.0000 C   0  0  0  0  0  0  0  0  0  0  0  0
    2.2890    2.1989    0.0000 C   0  0  0  0  0  0  0  0  0  0  0  0
    0.6709    1.0233    0.0000 C   0  0  0  0  0  0  0  0  0  0  0  0
    2.3935    1.2044    0.0000 C   0  0  0  0  0  0  0  0  0  0  0  0
    1.5845    0.6166    0.0000 C   0  0  0  0  0  0  0  0  0  0  0  0
    3.9173    6.3780    0.0000 H   0  0  0  0  0  0  0  0  0  0  0  0
    4.6854    6.8323    0.0000 H   0  0  0  0  0  0  0  0  0  0  0  0
    5.0839    7.5226    0.0000 H   0  0  0  0  0  0  0  0  0  0  0  0
    2.1307    7.5226    0.0000 H   0  0  0  0  0  0  0  0  0  0  0  0
    2.5292    6.8323    0.0000 H   0  0  0  0  0  0  0  0  0  0  0  0
    2.9996    5.4383    0.0000 H   0  0  0  0  0  0  0  0  0  0  0  0
    3.6899    5.8368    0.0000 H   0  0  0  0  0  0  0  0  0  0  0  0
    5.0839    8.3072    0.0000 H   0  0  0  0  0  0  0  0  0  0  0  0
    4.6854    8.9975    0.0000 H   0  0  0  0  0  0  0  0  0  0  0  0
    2.5292    8.9975    0.0000 H   0  0  0  0  0  0  0  0  0  0  0  0
    2.1307    8.3072    0.0000 H   0  0  0  0  0  0  0  0  0  0  0  0
    2.2150    6.6594    0.0000 H   0  0  0  0  0  0  0  0  0  0  0  0
    1.5247    6.2609    0.0000 H   0  0  0  0  0  0  0  0  0  0  0  0
    2.6205    4.1404    0.0000 H   0  0  0  0  0  0  0  0  0  0  0  0
    0.0000    2.2700    0.0000 H   0  0  0  0  0  0  0  0  0  0  0  0
    2.7906    2.5633    0.0000 H   0  0  0  0  0  0  0  0  0  0  0  0
    0.1693    0.6589    0.0000 H   0  0  0  0  0  0  0  0  0  0  0  0
    2.9599    0.9522    0.0000 H   0  0  0  0  0  0  0  0  0  0  0  0
    1.6493    0.0000    0.0000 H   0  0  0  0  0  0  0  0  0  0  0  0
  2  9  1  0  0  0  0
  2 10  1  0  0  0  0
  3  5  1  0  0  0  0
  3 12  1  0  0  0  0
  4  6  1  0  0  0  0
  4  7  1  0  0  0  0
  4  8  1  0  0  0  0
  4 21  1  0  0  0  0
  5 14  2  0  0  0  0
  6  9  1  0  0  0  0
  6 22  1  0  0  0  0
  6 23  1  0  0  0  0
  7 10  1  0  0  0  0
  7 24  1  0  0  0  0
  7 25  1  0  0  0  0
  8 11  1  0  0  0  0
  8 26  1  0  0  0  0
  8 27  1  0  0  0  0
  9 28  1  0  0  0  0
  9 29  1  0  0  0  0
 10 30  1  0  0  0  0
 10 31  1  0  0  0  0
 11 12  1  0  0  0  0
 11 32  1  0  0  0  0
 11 33  1  0  0  0  0
 12 13  2  0  0  0  0
 13 14  1  0  0  0  0
 13 34  1  0  0  0  0
 14 15  1  0  0  0  0
 15 16  2  0  0  0  0
 15 17  1  0  0  0  0
 16 18  1  0  0  0  0
 16 35  1  0  0  0  0
 17 19  2  0  0  0  0
 17 36  1  0  0  0  0
 18 20  2  0  0  0  0
 18 37  1  0  0  0  0
 19 20  1  0  0  0  0
 19 38  1  0  0  0  0
 20 39  1  0  0  0  0
M  CHG  2   1  -1   4   1
M  END
> <PUBCHEM_COMPOUND_CID>
14153

> <PUBCHEM_COMPOUND_CANONICALIZED>
1

> <PUBCHEM_CACTVS_COMPLEXITY>
263

> <PUBCHEM_CACTVS_HBOND_ACCEPTOR>
4

> <PUBCHEM_CACTVS_HBOND_DONOR>
1

> <PUBCHEM_CACTVS_ROTATABLE_BOND>
4

> <PUBCHEM_CACTVS_SUBSKEYS>
AAADceBzMAAEAAAAAAAAAAAAAAAAAWAAAAA8QAAAAAAAAAABwAAAHgAUAAAADAzhngYwhJPQBACpA6RyQgCCAAAkIgAomKE+bNoKJrqAkZOHMYBmkBiYyUeYyOCOAAAAAAAAAAAAAAAAAAAAAAAAAAAAAA==

> <PUBCHEM_IUPAC_OPENEYE_NAME>
4-[2-(3-phenylisoxazol-5-yl)ethyl]morpholin-4-ium chloride

> <PUBCHEM_IUPAC_CAS_NAME>
4-[2-(3-phenyl-5-isoxazolyl)ethyl]morpholin-4-ium chloride

> <PUBCHEM_IUPAC_NAME>
4-[2-(3-phenyl-1,2-oxazol-5-yl)ethyl]morpholin-4-ium chloride

> <PUBCHEM_IUPAC_SYSTEMATIC_NAME>
4-[2-(3-phenyl-1,2-oxazol-5-yl)ethyl]morpholin-4-ium chloride

> <PUBCHEM_IUPAC_TRADITIONAL_NAME>
4-[2-(3-phenylisoxazol-5-yl)ethyl]morpholin-4-ium chloride

> <PUBCHEM_IUPAC_INCHI>
InChI=1S/C15H18N2O2.ClH/c1-2-4-13(5-3-1)15-12-14(19-16-15)6-7-17-8-10-18-11-9-17;/h1-5,12H,6-11H2;1H

> <PUBCHEM_IUPAC_INCHIKEY>
NJSVHDCSDBNMSD-UHFFFAOYSA-N

> <PUBCHEM_EXACT_MASS>
294.113506

> <PUBCHEM_MOLECULAR_FORMULA>
C15H19ClN2O2

> <PUBCHEM_MOLECULAR_WEIGHT>
294.77656

> <PUBCHEM_OPENEYE_CAN_SMILES>
C1COCC[NH+]1CCC2=CC(=NO2)C3=CC=CC=C3.[Cl-]

> <PUBCHEM_OPENEYE_ISO_SMILES>
C1COCC[NH+]1CCC2=CC(=NO2)C3=CC=CC=C3.[Cl-]

> <PUBCHEM_CACTVS_TPSA>
39.7

> <PUBCHEM_MONOISOTOPIC_WEIGHT>
294.113506

> <PUBCHEM_TOTAL_CHARGE>
0

> <PUBCHEM_HEAVY_ATOM_COUNT>
20

> <PUBCHEM_ATOM_DEF_STEREO_COUNT>
0

> <PUBCHEM_ATOM_UDEF_STEREO_COUNT>
0

> <PUBCHEM_BOND_DEF_STEREO_COUNT>
0

> <PUBCHEM_BOND_UDEF_STEREO_COUNT>
0

> <PUBCHEM_ISOTOPIC_ATOM_COUNT>
0

> <PUBCHEM_COMPONENT_COUNT>
2

> <PUBCHEM_CACTVS_TAUTO_COUNT>
1

> <PUBCHEM_COORDINATE_TYPE>
1
5
255

> <PUBCHEM_BONDANNOTATIONS>
12  13  8
13  14  8
15  16  8
15  17  8
16  18  8
17  19  8
18  20  8
19  20  8
3  12  8
3  5  8
5  14  8

$$$$

