46173731
  -OEChem-07051212492D

 60 63  0     1  0  0  0  0  0999 V2000
   10.1921    0.4337    0.0000 O   0  0  0  0  0  0  0  0  0  0  0  0
    6.2781   -0.3912    0.0000 O   0  0  0  0  0  0  0  0  0  0  0  0
    8.8564    1.9223    0.0000 O   0  0  0  0  0  0  0  0  0  0  0  0
    9.5708   -1.4674    0.0000 O   0  0  0  0  0  0  0  0  0  0  0  0
    6.8994    1.5098    0.0000 O   0  0  0  0  0  0  0  0  0  0  0  0
    7.6138   -1.8798    0.0000 O   0  0  0  0  0  0  0  0  0  0  0  0
    9.8349    2.1285    0.0000 O   0  0  0  0  0  0  0  0  0  0  0  0
   12.1491    0.8461    0.0000 O   0  0  0  0  0  0  0  0  0  0  0  0
   12.7705    2.7472    0.0000 O   0  0  0  0  0  0  0  0  0  0  0  0
   11.4348    4.2358    0.0000 O   0  0  0  0  0  0  0  0  0  0  0  0
    6.6353   -2.0860    0.0000 O   0  0  0  0  0  0  0  0  0  0  0  0
    4.6783   -4.1079    0.0000 N   0  0  0  0  0  0  0  0  0  0  0  0
    9.2136    0.2275    0.0000 C   0  0  0  0  0  0  0  0  0  0  0  0
    8.5458    0.9718    0.0000 C   0  0  1  0  0  0  0  0  0  0  0  0
    8.9030   -0.7231    0.0000 C   0  0  2  0  0  0  0  0  0  0  0  0
    7.2566   -0.1850    0.0000 C   0  0  0  0  0  0  0  0  0  0  0  0
    7.5673    0.7656    0.0000 C   0  0  2  0  0  0  0  0  0  0  0  0
    7.9244   -0.9293    0.0000 C   0  0  1  0  0  0  0  0  0  0  0  0
   10.5028    1.3842    0.0000 C   0  0  2  0  0  0  0  0  0  0  0  0
   11.4813    1.5904    0.0000 C   0  0  1  0  0  0  0  0  0  0  0  0
   11.7920    2.5410    0.0000 C   0  0  2  0  0  0  0  0  0  0  0  0
   11.1241    3.2852    0.0000 C   0  0  2  0  0  0  0  0  0  0  0  0
   10.1456    3.0790    0.0000 C   0  0  0  0  0  0  0  0  0  0  0  0
    5.9674   -1.3417    0.0000 C   0  0  0  0  0  0  0  0  0  0  0  0
    4.9889   -1.5479    0.0000 C   0  0  0  0  0  0  0  0  0  0  0  0
    4.6783   -2.4984    0.0000 C   0  0  0  0  0  0  0  0  0  0  0  0
    3.7320   -2.8032    0.0000 C   0  0  0  0  0  0  0  0  0  0  0  0
    5.2619   -3.3032    0.0000 C   0  0  0  0  0  0  0  0  0  0  0  0
    3.7320   -3.8032    0.0000 C   0  0  0  0  0  0  0  0  0  0  0  0
    2.8660   -2.3032    0.0000 C   0  0  0  0  0  0  0  0  0  0  0  0
    2.8660   -4.3032    0.0000 C   0  0  0  0  0  0  0  0  0  0  0  0
    2.0000   -2.8032    0.0000 C   0  0  0  0  0  0  0  0  0  0  0  0
    2.0000   -3.8032    0.0000 C   0  0  0  0  0  0  0  0  0  0  0  0
    9.6277   -0.2340    0.0000 H   0  0  0  0  0  0  0  0  0  0  0  0
    9.5096   -0.5952    0.0000 H   0  0  0  0  0  0  0  0  0  0  0  0
    8.1317    1.4332    0.0000 H   0  0  0  0  0  0  0  0  0  0  0  0
    7.0640   -0.7743    0.0000 H   0  0  0  0  0  0  0  0  0  0  0  0
    6.9606    0.6377    0.0000 H   0  0  0  0  0  0  0  0  0  0  0  0
    8.3385   -1.3907    0.0000 H   0  0  0  0  0  0  0  0  0  0  0  0
   10.9169    0.9227    0.0000 H   0  0  0  0  0  0  0  0  0  0  0  0
   11.2887    1.0011    0.0000 H   0  0  0  0  0  0  0  0  0  0  0  0
   12.2060    2.0795    0.0000 H   0  0  0  0  0  0  0  0  0  0  0  0
   11.7308    3.4131    0.0000 H   0  0  0  0  0  0  0  0  0  0  0  0
    8.4424    2.3838    0.0000 H   0  0  0  0  0  0  0  0  0  0  0  0
    9.3782   -2.0567    0.0000 H   0  0  0  0  0  0  0  0  0  0  0  0
    8.0279   -2.3413    0.0000 H   0  0  0  0  0  0  0  0  0  0  0  0
    6.2928    1.3820    0.0000 H   0  0  0  0  0  0  0  0  0  0  0  0
   10.1250    3.6987    0.0000 H   0  0  0  0  0  0  0  0  0  0  0  0
    9.5318    3.1664    0.0000 H   0  0  0  0  0  0  0  0  0  0  0  0
   12.7558    0.9740    0.0000 H   0  0  0  0  0  0  0  0  0  0  0  0
   12.9631    3.3365    0.0000 H   0  0  0  0  0  0  0  0  0  0  0  0
    4.9684   -0.9283    0.0000 H   0  0  0  0  0  0  0  0  0  0  0  0
    4.3751   -1.4606    0.0000 H   0  0  0  0  0  0  0  0  0  0  0  0
   11.0207    4.6972    0.0000 H   0  0  0  0  0  0  0  0  0  0  0  0
    5.8819   -3.3032    0.0000 H   0  0  0  0  0  0  0  0  0  0  0  0
    4.8709   -4.6972    0.0000 H   0  0  0  0  0  0  0  0  0  0  0  0
    2.8660   -1.6832    0.0000 H   0  0  0  0  0  0  0  0  0  0  0  0
    2.8660   -4.9232    0.0000 H   0  0  0  0  0  0  0  0  0  0  0  0
    1.4631   -2.4932    0.0000 H   0  0  0  0  0  0  0  0  0  0  0  0
    1.4631   -4.1132    0.0000 H   0  0  0  0  0  0  0  0  0  0  0  0
  1 13  1  0  0  0  0
 19  1  1  6  0  0  0
  2 16  1  0  0  0  0
  2 24  1  0  0  0  0
 14  3  1  1  0  0  0
  3 44  1  0  0  0  0
 15  4  1  1  0  0  0
  4 45  1  0  0  0  0
 17  5  1  6  0  0  0
  5 47  1  0  0  0  0
 18  6  1  6  0  0  0
  6 46  1  0  0  0  0
  7 19  1  0  0  0  0
  7 23  1  0  0  0  0
 20  8  1  1  0  0  0
  8 50  1  0  0  0  0
 21  9  1  6  0  0  0
  9 51  1  0  0  0  0
 22 10  1  6  0  0  0
 10 54  1  0  0  0  0
 11 24  2  0  0  0  0
 12 28  1  0  0  0  0
 12 29  1  0  0  0  0
 12 56  1  0  0  0  0
 13 14  1  0  0  0  0
 13 15  1  0  0  0  0
 13 34  1  0  0  0  0
 14 17  1  0  0  0  0
 14 36  1  0  0  0  0
 15 18  1  0  0  0  0
 15 35  1  0  0  0  0
 16 17  1  0  0  0  0
 16 18  1  0  0  0  0
 16 37  1  0  0  0  0
 17 38  1  0  0  0  0
 18 39  1  0  0  0  0
 19 20  1  0  0  0  0
 19 40  1  0  0  0  0
 20 21  1  0  0  0  0
 20 41  1  0  0  0  0
 21 22  1  0  0  0  0
 21 42  1  0  0  0  0
 22 23  1  0  0  0  0
 22 43  1  0  0  0  0
 23 48  1  0  0  0  0
 23 49  1  0  0  0  0
 24 25  1  0  0  0  0
 25 26  1  0  0  0  0
 25 52  1  0  0  0  0
 25 53  1  0  0  0  0
 26 27  1  0  0  0  0
 26 28  2  0  0  0  0
 27 29  1  0  0  0  0
 27 30  2  0  0  0  0
 28 55  1  0  0  0  0
 29 31  2  0  0  0  0
 30 32  1  0  0  0  0
 30 57  1  0  0  0  0
 31 33  1  0  0  0  0
 31 58  1  0  0  0  0
 32 33  2  0  0  0  0
 32 59  1  0  0  0  0
 33 60  1  0  0  0  0
M  END
> <PUBCHEM_COMPOUND_CID>
46173731

> <PUBCHEM_COMPOUND_CANONICALIZED>
1

> <PUBCHEM_CACTVS_COMPLEXITY>
667

> <PUBCHEM_CACTVS_HBOND_ACCEPTOR>
11

> <PUBCHEM_CACTVS_HBOND_DONOR>
8

> <PUBCHEM_CACTVS_ROTATABLE_BOND>
6

> <PUBCHEM_CACTVS_SUBSKEYS>
AAADceB6PAAAAAAAAAAAAAAAAAAAAWAAAAA0YIAAAAAAAFgB8AAAHgAQCAAADBzxngc8yPLJlgCoAzT3TACCgCAxAiAI2aE4ZJgZMPLAlZGmYAhl0AHPyAf8+e+egAAAAAACAAACAAAQAASAAAAAAAAAAA==

> <PUBCHEM_IUPAC_OPENEYE_NAME>
[(2S,3S,5R,6R)-2,3,5,6-tetrahydroxy-4-[(2S,3R,4S,5S)-3,4,5-trihydroxytetrahydropyran-2-yl]oxy-cyclohexyl] 2-(1H-indol-3-yl)acetate

> <PUBCHEM_IUPAC_CAS_NAME>
2-(1H-indol-3-yl)acetic acid [(2S,3S,5R,6R)-2,3,5,6-tetrahydroxy-4-[[(2S,3R,4S,5S)-3,4,5-trihydroxy-2-oxanyl]oxy]cyclohexyl] ester

> <PUBCHEM_IUPAC_NAME>
[(2S,3S,5R,6R)-2,3,5,6-tetrahydroxy-4-[(2S,3R,4S,5S)-3,4,5-trihydroxyoxan-2-yl]oxycyclohexyl] 2-(1H-indol-3-yl)acetate

> <PUBCHEM_IUPAC_SYSTEMATIC_NAME>
[(2S,3S,5R,6R)-2,3,5,6-tetrakis(oxidanyl)-4-[(2S,3R,4S,5S)-3,4,5-tris(oxidanyl)oxan-2-yl]oxy-cyclohexyl] 2-(1H-indol-3-yl)ethanoate

> <PUBCHEM_IUPAC_TRADITIONAL_NAME>
2-(1H-indol-3-yl)acetic acid [(2S,3S,5R,6R)-2,3,5,6-tetrahydroxy-4-[(2S,3R,4S,5S)-3,4,5-trihydroxytetrahydropyran-2-yl]oxy-cyclohexyl] ester

> <PUBCHEM_IUPAC_INCHI>
InChI=1S/C21H27NO11/c23-11-7-31-21(18(30)13(11)25)33-20-16(28)14(26)19(15(27)17(20)29)32-12(24)5-8-6-22-10-4-2-1-3-9(8)10/h1-4,6,11,13-23,25-30H,5,7H2/t11-,13-,14-,15+,16-,17+,18+,19?,20?,21-/m0/s1

> <PUBCHEM_IUPAC_INCHIKEY>
RBVNENAKUTUHCM-KBGLIUAJSA-N

> <PUBCHEM_XLOGP3_AA>
-2.9

> <PUBCHEM_EXACT_MASS>
469.158411

> <PUBCHEM_MOLECULAR_FORMULA>
C21H27NO11

> <PUBCHEM_MOLECULAR_WEIGHT>
469.43918

> <PUBCHEM_OPENEYE_CAN_SMILES>
C1C(C(C(C(O1)OC2C(C(C(C(C2O)O)OC(=O)CC3=CNC4=CC=CC=C43)O)O)O)O)O

> <PUBCHEM_OPENEYE_ISO_SMILES>
C1[C@@H]([C@@H]([C@H]([C@@H](O1)OC2[C@@H]([C@H](C([C@H]([C@@H]2O)O)OC(=O)CC3=CNC4=CC=CC=C43)O)O)O)O)O

> <PUBCHEM_CACTVS_TPSA>
202

> <PUBCHEM_MONOISOTOPIC_WEIGHT>
469.158411

> <PUBCHEM_TOTAL_CHARGE>
0

> <PUBCHEM_HEAVY_ATOM_COUNT>
33

> <PUBCHEM_ATOM_DEF_STEREO_COUNT>
8

> <PUBCHEM_ATOM_UDEF_STEREO_COUNT>
0

> <PUBCHEM_BOND_DEF_STEREO_COUNT>
0

> <PUBCHEM_BOND_UDEF_STEREO_COUNT>
0

> <PUBCHEM_ISOTOPIC_ATOM_COUNT>
0

> <PUBCHEM_COMPONENT_COUNT>
1

> <PUBCHEM_CACTVS_TAUTO_COUNT>
1

> <PUBCHEM_COORDINATE_TYPE>
1
5
255

> <PUBCHEM_BONDANNOTATIONS>
19  1  6
22  10  6
12  28  8
12  29  8
26  27  8
26  28  8
27  29  8
27  30  8
29  31  8
14  3  5
30  32  8
31  33  8
32  33  8
15  4  5
17  5  6
18  6  6
20  8  5
21  9  6

$$$$

