3014162
  -OEChem-07051213083D

 17 17  0     0  0  0  0  0  0999 V2000
    1.8679    2.8984    0.0021 Br  0  0  0  0  0  0  0  0  0  0  0  0
    1.9912   -2.8436   -0.0022 Br  0  0  0  0  0  0  0  0  0  0  0  0
    3.0824    0.0521    0.0014 O   0  0  0  0  0  0  0  0  0  0  0  0
   -3.1510   -1.1438    0.0102 O   0  0  0  0  0  0  0  0  0  0  0  0
   -3.2001    1.1489   -0.0040 N   0  0  0  0  0  0  0  0  0  0  0  0
   -1.0720   -0.0373   -0.0019 C   0  0  0  0  0  0  0  0  0  0  0  0
   -0.3487   -1.2299   -0.0019 C   0  0  0  0  0  0  0  0  0  0  0  0
   -0.4008    1.1854   -0.0005 C   0  0  0  0  0  0  0  0  0  0  0  0
    1.7173    0.0229    0.0008 C   0  0  0  0  0  0  0  0  0  0  0  0
    0.9939    1.2156    0.0008 C   0  0  0  0  0  0  0  0  0  0  0  0
    1.0459   -1.1999   -0.0006 C   0  0  0  0  0  0  0  0  0  0  0  0
   -2.5261   -0.0689   -0.0043 C   0  0  0  0  0  0  0  0  0  0  0  0
   -0.8662   -2.1866   -0.0036 H   0  0  0  0  0  0  0  0  0  0  0  0
   -0.9146    2.1395   -0.0002 H   0  0  0  0  0  0  0  0  0  0  0  0
   -2.7753    2.0669   -0.0110 H   0  0  0  0  0  0  0  0  0  0  0  0
   -4.2154    1.1526    0.0015 H   0  0  0  0  0  0  0  0  0  0  0  0
    3.3708    0.9812    0.0022 H   0  0  0  0  0  0  0  0  0  0  0  0
  1 10  1  0  0  0  0
  2 11  1  0  0  0  0
  3  9  1  0  0  0  0
  3 17  1  0  0  0  0
  4 12  2  0  0  0  0
  5 12  1  0  0  0  0
  5 15  1  0  0  0  0
  5 16  1  0  0  0  0
  6  7  2  0  0  0  0
  6  8  1  0  0  0  0
  6 12  1  0  0  0  0
  7 11  1  0  0  0  0
  7 13  1  0  0  0  0
  8 10  2  0  0  0  0
  8 14  1  0  0  0  0
  9 10  1  0  0  0  0
  9 11  2  0  0  0  0
M  END
> <PUBCHEM_COMPOUND_CID>
3014162

> <PUBCHEM_CONFORMER_RMSD>
0.4

> <PUBCHEM_CONFORMER_DIVERSEORDER>
1

> <PUBCHEM_MMFF94_PARTIAL_CHARGES>
17
1 -0.11
10 0.11
11 0.11
12 0.54
13 0.15
14 0.15
15 0.37
16 0.37
17 0.45
2 -0.11
3 -0.53
4 -0.57
5 -0.8
6 0.09
7 -0.15
8 -0.15
9 0.08

> <PUBCHEM_EFFECTIVE_ROTOR_COUNT>
1

> <PUBCHEM_PHARMACOPHORE_FEATURES>
6
1 1 hydrophobe
1 2 hydrophobe
1 3 donor
1 4 acceptor
1 5 donor
6 6 7 8 9 10 11 rings

> <PUBCHEM_HEAVY_ATOM_COUNT>
12

> <PUBCHEM_ATOM_DEF_STEREO_COUNT>
0

> <PUBCHEM_ATOM_UDEF_STEREO_COUNT>
0

> <PUBCHEM_BOND_DEF_STEREO_COUNT>
0

> <PUBCHEM_BOND_UDEF_STEREO_COUNT>
0

> <PUBCHEM_ISOTOPIC_ATOM_COUNT>
0

> <PUBCHEM_COMPONENT_COUNT>
1

> <PUBCHEM_CACTVS_TAUTO_COUNT>
7

> <PUBCHEM_CONFORMER_ID>
002DFE1200000001

> <PUBCHEM_MMFF94_ENERGY>
31.6693

> <PUBCHEM_FEATURE_SELFOVERLAP>
30.446

> <PUBCHEM_SHAPE_FINGERPRINT>
1 1 18338797806145340750
10967382 1 18338516468422941030
13380535 76 17976824181751773068
13380536 305 18338509721430382164
14325111 11 18338798888551276929
14648413 74 18412825798156181969
15442244 35 18192428804148460697
16945 1 18410855455859594246
17990270 104 18411702114283769379
20201158 50 18413390951301270923
20645477 70 18340494365968201887
20711985 365 17763744686354968868
20871998 22 18047188841342101374
21040471 1 17978229353179998916
21524375 3 17973443204807726524
2334 1 17906171750493834790
23402655 69 18264785410047533637
23526114 1 18338517572309073278
23552423 10 18410009918765028271
241688 4 17978507868966148714
2748010 2 18121788493314585990
3071541 12 18409724058621784396
5084963 1 18115021909609970881
7364860 26 18408885135512746272
81228 2 17472974481398334170

> <PUBCHEM_SHAPE_MULTIPOLES>
242.12
4.34
3.09
0.62
3.13
0.27
0
-0.23
0
-2.78
0
-0.07
0
0.01

> <PUBCHEM_SHAPE_SELFOVERLAP>
482.042

> <PUBCHEM_SHAPE_VOLUME>
149.6

> <PUBCHEM_COORDINATE_TYPE>
2
5
10

$$$$

