21122601
  -OEChem-07051212452D

 97 98  0     1  0  0  0  0  0999 V2000
    7.7331  -10.8215    0.0000 O   0  0  0  0  0  0  0  0  0  0  0  0
    5.1350  -11.3215    0.0000 O   0  0  0  0  0  0  0  0  0  0  0  0
    8.5991   -9.3215    0.0000 O   0  0  0  0  0  0  0  0  0  0  0  0
    6.8671  -11.3215    0.0000 O   0  0  0  0  0  0  0  0  0  0  0  0
    6.8671   -6.3215    0.0000 O   0  0  0  0  0  0  0  0  0  0  0  0
    2.5369   -9.8215    0.0000 O   0  0  0  0  0  0  0  0  0  0  0  0
    3.4030   -8.3215    0.0000 O   0  0  0  0  0  0  0  0  0  0  0  0
    6.8671   -5.3215    0.0000 O   0  0  0  0  0  0  0  0  0  0  0  0
    7.7331   -3.8215    0.0000 O   0  0  0  0  0  0  0  0  0  0  0  0
   11.1972   -3.8215    0.0000 O   0  0  0  0  0  0  0  0  0  0  0  0
   12.0632   -3.3215    0.0000 O   0  0  0  0  0  0  0  0  0  0  0  0
   12.9292   -1.8215    0.0000 O   0  0  0  0  0  0  0  0  0  0  0  0
   11.1972    1.1785    0.0000 O   0  0  0  0  0  0  0  0  0  0  0  0
   13.7953    6.6785    0.0000 O   0  0  0  0  0  0  0  0  0  0  0  0
   14.1613    9.7173    0.0000 O   0  0  0  0  0  0  0  0  0  0  0  0
    8.5991   -6.3215    0.0000 N   0  0  0  0  0  0  0  0  0  0  0  0
   10.3312   -2.3215    0.0000 N   0  0  0  0  0  0  0  0  0  0  0  0
   12.9292    1.1785    0.0000 N   0  0  0  0  0  0  0  0  0  0  0  0
   15.3423   11.4399    0.0000 N   0  0  0  0  0  0  0  0  0  0  0  0
    6.8671   -9.3215    0.0000 C   0  0  3  0  0  0  0  0  0  0  0  0
    6.0010   -9.8215    0.0000 C   0  0  3  0  0  0  0  0  0  0  0  0
    6.8671   -8.3215    0.0000 C   0  0  0  0  0  0  0  0  0  0  0  0
    5.1350   -9.3215    0.0000 C   0  0  0  0  0  0  0  0  0  0  0  0
    7.7331   -7.8215    0.0000 C   0  0  0  0  0  0  0  0  0  0  0  0
    4.2690   -9.8215    0.0000 C   0  0  0  0  0  0  0  0  0  0  0  0
    7.7331   -9.8215    0.0000 C   0  0  0  0  0  0  0  0  0  0  0  0
    6.0010  -10.8215    0.0000 C   0  0  0  0  0  0  0  0  0  0  0  0
    7.7331   -6.8215    0.0000 C   0  0  0  0  0  0  0  0  0  0  0  0
    8.5991   -5.3215    0.0000 C   0  0  1  0  0  0  0  0  0  0  0  0
    9.4651   -4.8215    0.0000 C   0  0  0  0  0  0  0  0  0  0  0  0
    9.4651   -3.8215    0.0000 C   0  0  0  0  0  0  0  0  0  0  0  0
    3.4030   -9.3215    0.0000 C   0  0  0  0  0  0  0  0  0  0  0  0
   11.1972   -1.8215    0.0000 C   0  0  1  0  0  0  0  0  0  0  0  0
    7.7331   -4.8215    0.0000 C   0  0  0  0  0  0  0  0  0  0  0  0
   10.3312   -3.3215    0.0000 C   0  0  0  0  0  0  0  0  0  0  0  0
   11.1972   -0.8215    0.0000 C   0  0  0  0  0  0  0  0  0  0  0  0
   12.0632   -0.3215    0.0000 C   0  0  0  0  0  0  0  0  0  0  0  0
   12.0632   -2.3215    0.0000 C   0  0  0  0  0  0  0  0  0  0  0  0
   12.0632    0.6785    0.0000 C   0  0  0  0  0  0  0  0  0  0  0  0
   12.9292    2.1785    0.0000 C   0  0  0  0  0  0  0  0  0  0  0  0
   13.7953    2.6785    0.0000 C   0  0  0  0  0  0  0  0  0  0  0  0
   13.7953    3.6785    0.0000 C   0  0  0  0  0  0  0  0  0  0  0  0
   14.6613    4.1785    0.0000 C   0  0  0  0  0  0  0  0  0  0  0  0
   12.9292    4.1785    0.0000 C   0  0  0  0  0  0  0  0  0  0  0  0
   13.7953    5.6785    0.0000 C   0  0  0  0  0  0  0  0  0  0  0  0
   14.6613    5.1785    0.0000 C   0  0  0  0  0  0  0  0  0  0  0  0
   12.9292    5.1785    0.0000 C   0  0  0  0  0  0  0  0  0  0  0  0
   14.6613    7.1785    0.0000 C   0  0  0  0  0  0  0  0  0  0  0  0
   14.6613    8.1785    0.0000 C   0  0  0  0  0  0  0  0  0  0  0  0
   15.4703    8.7663    0.0000 C   0  0  0  0  0  0  0  0  0  0  0  0
   15.1613    9.7173    0.0000 C   0  0  0  0  0  0  0  0  0  0  0  0
   13.8523    8.7663    0.0000 C   0  0  0  0  0  0  0  0  0  0  0  0
   15.7491   10.5264    0.0000 C   0  0  0  0  0  0  0  0  0  0  0  0
    6.3301   -9.0115    0.0000 H   0  0  0  0  0  0  0  0  0  0  0  0
    6.5380  -10.1315    0.0000 H   0  0  0  0  0  0  0  0  0  0  0  0
    6.6550   -7.7389    0.0000 H   0  0  0  0  0  0  0  0  0  0  0  0
    6.2565   -8.4292    0.0000 H   0  0  0  0  0  0  0  0  0  0  0  0
    5.5335   -8.8466    0.0000 H   0  0  0  0  0  0  0  0  0  0  0  0
    4.7365   -8.8466    0.0000 H   0  0  0  0  0  0  0  0  0  0  0  0
    7.9451   -8.4041    0.0000 H   0  0  0  0  0  0  0  0  0  0  0  0
    8.3437   -7.7138    0.0000 H   0  0  0  0  0  0  0  0  0  0  0  0
    3.8705  -10.2964    0.0000 H   0  0  0  0  0  0  0  0  0  0  0  0
    4.6675  -10.2964    0.0000 H   0  0  0  0  0  0  0  0  0  0  0  0
    8.0622   -5.6315    0.0000 H   0  0  0  0  0  0  0  0  0  0  0  0
    9.1360   -6.6315    0.0000 H   0  0  0  0  0  0  0  0  0  0  0  0
    9.6772   -5.4041    0.0000 H   0  0  0  0  0  0  0  0  0  0  0  0
   10.0757   -4.7138    0.0000 H   0  0  0  0  0  0  0  0  0  0  0  0
    9.2531   -3.2389    0.0000 H   0  0  0  0  0  0  0  0  0  0  0  0
    8.8546   -3.9292    0.0000 H   0  0  0  0  0  0  0  0  0  0  0  0
    8.2700  -11.1315    0.0000 H   0  0  0  0  0  0  0  0  0  0  0  0
   10.6603   -1.5115    0.0000 H   0  0  0  0  0  0  0  0  0  0  0  0
    5.1350  -11.9415    0.0000 H   0  0  0  0  0  0  0  0  0  0  0  0
   10.9851   -0.2389    0.0000 H   0  0  0  0  0  0  0  0  0  0  0  0
   10.5866   -0.9292    0.0000 H   0  0  0  0  0  0  0  0  0  0  0  0
    9.7942   -2.0115    0.0000 H   0  0  0  0  0  0  0  0  0  0  0  0
   12.2753   -0.9041    0.0000 H   0  0  0  0  0  0  0  0  0  0  0  0
   12.6738   -0.2138    0.0000 H   0  0  0  0  0  0  0  0  0  0  0  0
    2.0000   -9.5115    0.0000 H   0  0  0  0  0  0  0  0  0  0  0  0
   12.7172    2.7611    0.0000 H   0  0  0  0  0  0  0  0  0  0  0  0
   12.3187    2.0708    0.0000 H   0  0  0  0  0  0  0  0  0  0  0  0
   13.4662    0.8685    0.0000 H   0  0  0  0  0  0  0  0  0  0  0  0
    6.3301   -5.0115    0.0000 H   0  0  0  0  0  0  0  0  0  0  0  0
   14.0073    2.0959    0.0000 H   0  0  0  0  0  0  0  0  0  0  0  0
   14.4058    2.7862    0.0000 H   0  0  0  0  0  0  0  0  0  0  0  0
   12.6002   -3.6315    0.0000 H   0  0  0  0  0  0  0  0  0  0  0  0
   15.1982    3.8685    0.0000 H   0  0  0  0  0  0  0  0  0  0  0  0
   12.3923    3.8685    0.0000 H   0  0  0  0  0  0  0  0  0  0  0  0
   15.1982    5.4885    0.0000 H   0  0  0  0  0  0  0  0  0  0  0  0
   12.3923    5.4885    0.0000 H   0  0  0  0  0  0  0  0  0  0  0  0
   14.8733    6.5959    0.0000 H   0  0  0  0  0  0  0  0  0  0  0  0
   15.2719    7.2862    0.0000 H   0  0  0  0  0  0  0  0  0  0  0  0
   16.0600    8.5747    0.0000 H   0  0  0  0  0  0  0  0  0  0  0  0
   13.2626    8.5747    0.0000 H   0  0  0  0  0  0  0  0  0  0  0  0
   16.1798   10.0804    0.0000 H   0  0  0  0  0  0  0  0  0  0  0  0
   16.2631   10.8731    0.0000 H   0  0  0  0  0  0  0  0  0  0  0  0
   15.7068   11.9415    0.0000 H   0  0  0  0  0  0  0  0  0  0  0  0
   14.7257   11.5047    0.0000 H   0  0  0  0  0  0  0  0  0  0  0  0
  1 26  1  0  0  0  0
  1 70  1  0  0  0  0
  2 27  1  0  0  0  0
  2 72  1  0  0  0  0
  3 26  2  0  0  0  0
  4 27  2  0  0  0  0
  5 28  2  0  0  0  0
  6 32  1  0  0  0  0
  6 78  1  0  0  0  0
  7 32  2  0  0  0  0
  8 34  1  0  0  0  0
  8 82  1  0  0  0  0
  9 34  2  0  0  0  0
 10 35  2  0  0  0  0
 11 38  1  0  0  0  0
 11 85  1  0  0  0  0
 12 38  2  0  0  0  0
 13 39  2  0  0  0  0
 14 45  1  0  0  0  0
 14 48  1  0  0  0  0
 15 51  1  0  0  0  0
 15 52  1  0  0  0  0
 16 28  1  0  0  0  0
 29 16  1  6  0  0  0
 16 65  1  0  0  0  0
 33 17  1  1  0  0  0
 17 35  1  0  0  0  0
 17 75  1  0  0  0  0
 18 39  1  0  0  0  0
 18 40  1  0  0  0  0
 18 81  1  0  0  0  0
 19 53  1  0  0  0  0
 19 96  1  0  0  0  0
 19 97  1  0  0  0  0
 20 21  1  0  0  0  0
 20 22  1  0  0  0  0
 20 26  1  0  0  0  0
 20 54  1  0  0  0  0
 21 23  1  0  0  0  0
 21 27  1  0  0  0  0
 21 55  1  0  0  0  0
 22 24  1  0  0  0  0
 22 56  1  0  0  0  0
 22 57  1  0  0  0  0
 23 25  1  0  0  0  0
 23 58  1  0  0  0  0
 23 59  1  0  0  0  0
 24 28  1  0  0  0  0
 24 60  1  0  0  0  0
 24 61  1  0  0  0  0
 25 32  1  0  0  0  0
 25 62  1  0  0  0  0
 25 63  1  0  0  0  0
 29 30  1  0  0  0  0
 29 34  1  0  0  0  0
 29 64  1  0  0  0  0
 30 31  1  0  0  0  0
 30 66  1  0  0  0  0
 30 67  1  0  0  0  0
 31 35  1  0  0  0  0
 31 68  1  0  0  0  0
 31 69  1  0  0  0  0
 33 36  1  0  0  0  0
 33 38  1  0  0  0  0
 33 71  1  0  0  0  0
 36 37  1  0  0  0  0
 36 73  1  0  0  0  0
 36 74  1  0  0  0  0
 37 39  1  0  0  0  0
 37 76  1  0  0  0  0
 37 77  1  0  0  0  0
 40 41  1  0  0  0  0
 40 79  1  0  0  0  0
 40 80  1  0  0  0  0
 41 42  1  0  0  0  0
 41 83  1  0  0  0  0
 41 84  1  0  0  0  0
 42 43  2  0  0  0  0
 42 44  1  0  0  0  0
 43 46  1  0  0  0  0
 43 86  1  0  0  0  0
 44 47  2  0  0  0  0
 44 87  1  0  0  0  0
 45 46  2  0  0  0  0
 45 47  1  0  0  0  0
 46 88  1  0  0  0  0
 47 89  1  0  0  0  0
 48 49  1  0  0  0  0
 48 90  1  0  0  0  0
 48 91  1  0  0  0  0
 49 50  1  0  0  0  0
 49 52  2  0  0  0  0
 50 51  2  0  0  0  0
 50 92  1  0  0  0  0
 51 53  1  0  0  0  0
 52 93  1  0  0  0  0
 53 94  1  0  0  0  0
 53 95  1  0  0  0  0
M  END
> <PUBCHEM_COMPOUND_CID>
21122601

> <PUBCHEM_COMPOUND_CANONICALIZED>
1

> <PUBCHEM_CACTVS_COMPLEXITY>
1270

> <PUBCHEM_CACTVS_HBOND_ACCEPTOR>
16

> <PUBCHEM_CACTVS_HBOND_DONOR>
9

> <PUBCHEM_CACTVS_ROTATABLE_BOND>
26

> <PUBCHEM_CACTVS_SUBSKEYS>
AAADcfB/vAAAAAAAAAAAAAAAAAAAASAAAAAwAAAAAAAAAAABwAAAHgAQCAAADSzhmAYwDoLABkCIAqnSmACCCAAkIAAIiIGODMgOJzaEtTuHeSDl9hGYqYff/7KOoAAAAAAAAABAAAAAAAAAAAAAAAAAAA==

> <PUBCHEM_IUPAC_OPENEYE_NAME>
7-[[(1S)-4-[[(1S)-4-[2-[4-[[5-(aminomethyl)-3-furyl]methoxy]phenyl]ethylamino]-1-carboxy-4-oxo-butyl]amino]-1-carboxy-4-oxo-butyl]amino]-7-oxo-heptane-1,3,4-tricarboxylic acid

> <PUBCHEM_IUPAC_CAS_NAME>
7-[[(1S)-4-[[(1S)-4-[2-[4-[[5-(aminomethyl)-3-furanyl]methoxy]phenyl]ethylamino]-1-carboxy-4-oxobutyl]amino]-1-carboxy-4-oxobutyl]amino]-7-oxoheptane-1,3,4-tricarboxylic acid

> <PUBCHEM_IUPAC_NAME>
7-[[(1S)-4-[[(1S)-4-[2-[4-[[5-(aminomethyl)furan-3-yl]methoxy]phenyl]ethylamino]-1-carboxy-4-oxobutyl]amino]-1-carboxy-4-oxobutyl]amino]-7-oxoheptane-1,3,4-tricarboxylic acid

> <PUBCHEM_IUPAC_SYSTEMATIC_NAME>
7-[[(2S)-5-[[(2S)-5-[2-[4-[[5-(aminomethyl)furan-3-yl]methoxy]phenyl]ethylamino]-1-oxidanyl-1,5-bis(oxidanylidene)pentan-2-yl]amino]-1-oxidanyl-1,5-bis(oxidanylidene)pentan-2-yl]amino]-7-oxidanylidene-heptane-1,3,4-tricarboxylic acid

> <PUBCHEM_IUPAC_TRADITIONAL_NAME>
7-[[(1S)-4-[[(1S)-4-[2-[4-[[5-(aminomethyl)-3-furyl]methoxy]phenyl]ethylamino]-1-carboxy-4-keto-butyl]amino]-1-carboxy-4-keto-butyl]amino]-7-keto-heptane-1,3,4-tricarboxylic acid

> <PUBCHEM_IUPAC_INCHI>
InChI=1S/C34H44N4O15/c35-16-22-15-20(18-53-22)17-52-21-3-1-19(2-4-21)13-14-36-27(39)10-7-25(33(48)49)38-29(41)11-8-26(34(50)51)37-28(40)9-5-23(31(44)45)24(32(46)47)6-12-30(42)43/h1-4,15,18,23-26H,5-14,16-17,35H2,(H,36,39)(H,37,40)(H,38,41)(H,42,43)(H,44,45)(H,46,47)(H,48,49)(H,50,51)/t23?,24?,25-,26-/m0/s1

> <PUBCHEM_IUPAC_INCHIKEY>
CKRUWFDORAQSRC-HDLCADABSA-N

> <PUBCHEM_XLOGP3_AA>
-3.7

> <PUBCHEM_EXACT_MASS>
748.280317

> <PUBCHEM_MOLECULAR_FORMULA>
C34H44N4O15

> <PUBCHEM_MOLECULAR_WEIGHT>
748.73096

> <PUBCHEM_OPENEYE_CAN_SMILES>
C1=CC(=CC=C1CCNC(=O)CCC(C(=O)O)NC(=O)CCC(C(=O)O)NC(=O)CCC(C(CCC(=O)O)C(=O)O)C(=O)O)OCC2=COC(=C2)CN

> <PUBCHEM_OPENEYE_ISO_SMILES>
C1=CC(=CC=C1CCNC(=O)CC[C@@H](C(=O)O)NC(=O)CC[C@@H](C(=O)O)NC(=O)CCC(C(CCC(=O)O)C(=O)O)C(=O)O)OCC2=COC(=C2)CN

> <PUBCHEM_CACTVS_TPSA>
322

> <PUBCHEM_MONOISOTOPIC_WEIGHT>
748.280317

> <PUBCHEM_TOTAL_CHARGE>
0

> <PUBCHEM_HEAVY_ATOM_COUNT>
53

> <PUBCHEM_ATOM_DEF_STEREO_COUNT>
2

> <PUBCHEM_ATOM_UDEF_STEREO_COUNT>
2

> <PUBCHEM_BOND_DEF_STEREO_COUNT>
0

> <PUBCHEM_BOND_UDEF_STEREO_COUNT>
0

> <PUBCHEM_ISOTOPIC_ATOM_COUNT>
0

> <PUBCHEM_COMPONENT_COUNT>
1

> <PUBCHEM_CACTVS_TAUTO_COUNT>
8

> <PUBCHEM_COORDINATE_TYPE>
1
5
255

> <PUBCHEM_BONDANNOTATIONS>
15  51  8
15  52  8
29  16  6
33  17  5
20  22  3
21  23  3
42  43  8
42  44  8
43  46  8
44  47  8
45  46  8
45  47  8
49  50  8
49  52  8
50  51  8

$$$$

