7547
  -OEChem-06261202083D

 28 29  0     0  0  0  0  0  0999 V2000
   -5.8228    1.9070   -0.0017 Cl  0  0  0  0  0  0  0  0  0  0  0  0
   -6.4305   -1.2715   -0.0008 Cl  0  0  0  0  0  0  0  0  0  0  0  0
    7.1660   -0.6268   -0.0017 Cl  0  0  0  0  0  0  0  0  0  0  0  0
    0.3646   -1.2567    0.0002 O   0  0  0  0  0  0  0  0  0  0  0  0
   -0.8671    0.7312    0.0008 N   0  0  0  0  0  0  0  0  0  0  0  0
    1.4410    0.8245    0.0008 N   0  0  0  0  0  0  0  0  0  0  0  0
   -2.2039    0.2674    0.0007 C   0  0  0  0  0  0  0  0  0  0  0  0
    2.7932    0.4817    0.0008 C   0  0  0  0  0  0  0  0  0  0  0  0
   -3.2407    1.1859   -0.0002 C   0  0  0  0  0  0  0  0  0  0  0  0
   -2.4475   -1.0961    0.0012 C   0  0  0  0  0  0  0  0  0  0  0  0
    0.3121   -0.0310    0.0006 C   0  0  0  0  0  0  0  0  0  0  0  0
    3.7662    1.4813    0.0011 C   0  0  0  0  0  0  0  0  0  0  0  0
    3.1725   -0.8607   -0.0001 C   0  0  0  0  0  0  0  0  0  0  0  0
   -4.5583    0.7280   -0.0008 C   0  0  0  0  0  0  0  0  0  0  0  0
   -3.7651   -1.5540    0.0009 C   0  0  0  0  0  0  0  0  0  0  0  0
   -4.8205   -0.6419   -0.0003 C   0  0  0  0  0  0  0  0  0  0  0  0
    5.1184    1.1386    0.0002 C   0  0  0  0  0  0  0  0  0  0  0  0
    4.5247   -1.2033   -0.0008 C   0  0  0  0  0  0  0  0  0  0  0  0
    5.4976   -0.2037   -0.0008 C   0  0  0  0  0  0  0  0  0  0  0  0
   -0.7558    1.7420    0.0007 H   0  0  0  0  0  0  0  0  0  0  0  0
    1.2433    1.8221    0.0012 H   0  0  0  0  0  0  0  0  0  0  0  0
   -3.0290    2.2527   -0.0006 H   0  0  0  0  0  0  0  0  0  0  0  0
   -1.6900   -1.8652    0.0022 H   0  0  0  0  0  0  0  0  0  0  0  0
    3.4849    2.5314    0.0017 H   0  0  0  0  0  0  0  0  0  0  0  0
    2.4819   -1.6917   -0.0004 H   0  0  0  0  0  0  0  0  0  0  0  0
   -3.9527   -2.6250    0.0014 H   0  0  0  0  0  0  0  0  0  0  0  0
    5.8655    1.9281    0.0003 H   0  0  0  0  0  0  0  0  0  0  0  0
    4.8070   -2.2531   -0.0015 H   0  0  0  0  0  0  0  0  0  0  0  0
  1 14  1  0  0  0  0
  2 16  1  0  0  0  0
  3 19  1  0  0  0  0
  4 11  2  0  0  0  0
  5  7  1  0  0  0  0
  5 11  1  0  0  0  0
  5 20  1  0  0  0  0
  6  8  1  0  0  0  0
  6 11  1  0  0  0  0
  6 21  1  0  0  0  0
  7  9  2  0  0  0  0
  7 10  1  0  0  0  0
  8 12  2  0  0  0  0
  8 13  1  0  0  0  0
  9 14  1  0  0  0  0
  9 22  1  0  0  0  0
 10 15  2  0  0  0  0
 10 23  1  0  0  0  0
 12 17  1  0  0  0  0
 12 24  1  0  0  0  0
 13 18  2  0  0  0  0
 13 25  1  0  0  0  0
 14 16  2  0  0  0  0
 15 16  1  0  0  0  0
 15 26  1  0  0  0  0
 17 19  2  0  0  0  0
 17 27  1  0  0  0  0
 18 19  1  0  0  0  0
 18 28  1  0  0  0  0
M  END
> <PUBCHEM_COMPOUND_CID>
7547

> <PUBCHEM_CONFORMER_RMSD>
0.6

> <PUBCHEM_CONFORMER_DIVERSEORDER>
1
7
4
9
3
8
2
10
5
6

> <PUBCHEM_MMFF94_PARTIAL_CHARGES>
28
1 -0.18
10 -0.15
11 0.69
12 -0.15
13 -0.15
14 0.18
15 -0.15
16 0.18
17 -0.15
18 -0.15
19 0.18
2 -0.18
20 0.37
21 0.37
22 0.15
23 0.15
24 0.15
25 0.15
26 0.15
27 0.15
28 0.15
3 -0.18
4 -0.57
5 -0.55
6 -0.55
7 0.12
8 0.12
9 -0.15

> <PUBCHEM_EFFECTIVE_ROTOR_COUNT>
4

> <PUBCHEM_PHARMACOPHORE_FEATURES>
5
1 4 acceptor
1 5 donor
1 6 donor
6 7 9 10 14 15 16 rings
6 8 12 13 17 18 19 rings

> <PUBCHEM_HEAVY_ATOM_COUNT>
19

> <PUBCHEM_ATOM_DEF_STEREO_COUNT>
0

> <PUBCHEM_ATOM_UDEF_STEREO_COUNT>
0

> <PUBCHEM_BOND_DEF_STEREO_COUNT>
0

> <PUBCHEM_BOND_UDEF_STEREO_COUNT>
0

> <PUBCHEM_ISOTOPIC_ATOM_COUNT>
0

> <PUBCHEM_COMPONENT_COUNT>
1

> <PUBCHEM_CACTVS_TAUTO_COUNT>
3

> <PUBCHEM_CONFORMER_ID>
00001D7B00000001

> <PUBCHEM_MMFF94_ENERGY>
55.6657

> <PUBCHEM_FEATURE_SELFOVERLAP>
25.42

> <PUBCHEM_SHAPE_FINGERPRINT>
10595046 47 18411138013141676744
11315181 36 18040995142002731161
11524674 6 16805322171971011431
11719270 70 18187086187466954766
12091667 2 18273212006621445857
12107183 9 17690562304780341888
12166972 35 18341047436895819308
12236239 1 18343582945015747032
12516196 113 17967534566906672680
13073987 5 18410012151947581849
13167823 11 18411140225166164554
13288520 33 18410012118410724047
13533116 47 13840535312086543556
1420 363 18201434757767675411
14251764 18 18343302557272287330
14341114 176 18410288094980288065
14933364 13 18410853261189614088
15183329 4 18343306993419648785
15196674 1 18410573980877582851
15778101 99 18337106869712186321
17834072 33 18409167688578982804
17844677 252 18409724049847428393
18681886 176 18335988592965612264
19489759 90 17988925570178244209
200 152 18186239523977230715
20281389 69 18412545405543216153
20645477 70 18335700576796336422
21150785 3 16056876901566647974
21236236 1 18409167715034627733
21267235 1 18411412899665111003
21315763 129 18409448076850288077
21315763 28 18410857642230088983
21709351 56 18343589529575340669
220451 1 17203610397718734402
23035841 295 18413670205653263139
23081809 10 18060135440287141188
23402539 116 18408608063125654997
23536379 177 18411419522493995736
23559900 14 18335146383695669336
239999 70 18261387863314727278
29717793 49 17967247624884915676
300161 21 18409736170234165944
3004659 81 18342176670340153888
34797466 226 17677040249121659276
3545911 37 18410855464449528840
4073 2 18060133190104301082
4214541 1 18410855464644935009
42788 4 18410573980861791076
4325135 7 18335422352956712783
5104073 3 18411138034664025889
542803 24 17275101730335995716
54446538 1 18411700967400829277
559249 180 18411421726287082455
6327066 14 17984429800825927117
7495541 125 17603869936156784890
77779 3 18410855442974724832

> <PUBCHEM_SHAPE_MULTIPOLES>
380.79
18.39
1.7
0.61
6.23
0.18
0
-1.04
-0.01
-1.44
0
-0.02
0
0

> <PUBCHEM_SHAPE_SELFOVERLAP>
786.845

> <PUBCHEM_SHAPE_VOLUME>
219.9

> <PUBCHEM_COORDINATE_TYPE>
2
5
10

$$$$

