8423
  -OEChem-06261202493D

 31 31  0     1  0  0  0  0  0999 V2000
    2.2168    1.6707    0.1151 O   0  0  0  0  0  0  0  0  0  0  0  0
    3.1452   -0.9425   -0.0658 O   0  0  0  0  0  0  0  0  0  0  0  0
   -4.3905    0.8926    0.3525 N   0  0  0  0  0  0  0  0  0  0  0  0
   -2.3397    0.1716   -0.7869 C   0  0  0  0  0  0  0  0  0  0  0  0
   -3.1561    0.1194    0.5174 C   0  0  2  0  0  0  0  0  0  0  0  0
   -0.8716   -0.1233   -0.5934 C   0  0  0  0  0  0  0  0  0  0  0  0
   -3.5320   -1.3075    0.9171 C   0  0  0  0  0  0  0  0  0  0  0  0
    0.0007    0.9198   -0.3265 C   0  0  0  0  0  0  0  0  0  0  0  0
   -0.4237   -1.4312   -0.6869 C   0  0  0  0  0  0  0  0  0  0  0  0
    1.3572    0.6475   -0.1483 C   0  0  0  0  0  0  0  0  0  0  0  0
    1.8229   -0.6642   -0.2393 C   0  0  0  0  0  0  0  0  0  0  0  0
    0.9325   -1.7035   -0.5088 C   0  0  0  0  0  0  0  0  0  0  0  0
    1.6603    2.9816    0.1917 C   0  0  0  0  0  0  0  0  0  0  0  0
    3.5780   -1.2310    1.2622 C   0  0  0  0  0  0  0  0  0  0  0  0
   -2.4196    1.1698   -1.2411 H   0  0  0  0  0  0  0  0  0  0  0  0
   -2.7624   -0.5113   -1.5365 H   0  0  0  0  0  0  0  0  0  0  0  0
   -2.5849    0.5747    1.3357 H   0  0  0  0  0  0  0  0  0  0  0  0
   -2.6410   -1.9029    1.1377 H   0  0  0  0  0  0  0  0  0  0  0  0
   -4.0917   -1.8145    0.1231 H   0  0  0  0  0  0  0  0  0  0  0  0
   -4.1522   -1.3118    1.8209 H   0  0  0  0  0  0  0  0  0  0  0  0
   -0.4215    1.9167   -0.2640 H   0  0  0  0  0  0  0  0  0  0  0  0
   -1.1078   -2.2473   -0.9006 H   0  0  0  0  0  0  0  0  0  0  0  0
   -4.1614    1.8654    0.1523 H   0  0  0  0  0  0  0  0  0  0  0  0
   -4.9129    0.8966    1.2277 H   0  0  0  0  0  0  0  0  0  0  0  0
    1.2888   -2.7275   -0.5825 H   0  0  0  0  0  0  0  0  0  0  0  0
    0.9493    3.0707    1.0202 H   0  0  0  0  0  0  0  0  0  0  0  0
    1.2280    3.2935   -0.7652 H   0  0  0  0  0  0  0  0  0  0  0  0
    2.4850    3.6693    0.4062 H   0  0  0  0  0  0  0  0  0  0  0  0
    3.3893   -0.3789    1.9229 H   0  0  0  0  0  0  0  0  0  0  0  0
    4.6542   -1.4228    1.2378 H   0  0  0  0  0  0  0  0  0  0  0  0
    3.0719   -2.1228    1.6450 H   0  0  0  0  0  0  0  0  0  0  0  0
  1 10  1  0  0  0  0
  1 13  1  0  0  0  0
  2 11  1  0  0  0  0
  2 14  1  0  0  0  0
  3  5  1  0  0  0  0
  3 23  1  0  0  0  0
  3 24  1  0  0  0  0
  4  5  1  0  0  0  0
  4  6  1  0  0  0  0
  4 15  1  0  0  0  0
  4 16  1  0  0  0  0
  5  7  1  0  0  0  0
  5 17  1  0  0  0  0
  6  8  2  0  0  0  0
  6  9  1  0  0  0  0
  7 18  1  0  0  0  0
  7 19  1  0  0  0  0
  7 20  1  0  0  0  0
  8 10  1  0  0  0  0
  8 21  1  0  0  0  0
  9 12  2  0  0  0  0
  9 22  1  0  0  0  0
 10 11  2  0  0  0  0
 11 12  1  0  0  0  0
 12 25  1  0  0  0  0
 13 26  1  0  0  0  0
 13 27  1  0  0  0  0
 13 28  1  0  0  0  0
 14 29  1  0  0  0  0
 14 30  1  0  0  0  0
 14 31  1  0  0  0  0
M  END
> <PUBCHEM_COMPOUND_CID>
8423

> <PUBCHEM_CONFORMER_RMSD>
0.6

> <PUBCHEM_CONFORMER_DIVERSEORDER>
17
12
29
36
50
34
22
1
47
9
46
39
25
45
42
31
38
27
43
24
41
37
44
23
2
49
32
3
14
40
28
48
10
26
19
21
35
8
7
13
18
30
5
6
20
4
11
33
15
16

> <PUBCHEM_MMFF94_PARTIAL_CHARGES>
18
1 -0.36
10 0.08
11 0.08
12 -0.15
13 0.28
14 0.28
2 -0.36
21 0.15
22 0.15
23 0.36
24 0.36
25 0.15
3 -0.99
4 0.14
5 0.27
6 -0.14
8 -0.15
9 -0.15

> <PUBCHEM_EFFECTIVE_ROTOR_COUNT>
4

> <PUBCHEM_PHARMACOPHORE_FEATURES>
5
1 1 acceptor
1 2 acceptor
1 3 cation
1 3 donor
6 6 8 9 10 11 12 rings

> <PUBCHEM_HEAVY_ATOM_COUNT>
14

> <PUBCHEM_ATOM_DEF_STEREO_COUNT>
0

> <PUBCHEM_ATOM_UDEF_STEREO_COUNT>
1

> <PUBCHEM_BOND_DEF_STEREO_COUNT>
0

> <PUBCHEM_BOND_UDEF_STEREO_COUNT>
0

> <PUBCHEM_ISOTOPIC_ATOM_COUNT>
0

> <PUBCHEM_COMPONENT_COUNT>
1

> <PUBCHEM_CACTVS_TAUTO_COUNT>
1

> <PUBCHEM_CONFORMER_ID>
000020E700000011

> <PUBCHEM_MMFF94_ENERGY>
46.3936

> <PUBCHEM_FEATURE_SELFOVERLAP>
25.376

> <PUBCHEM_SHAPE_FINGERPRINT>
10130415 120 18342740757905975138
10219947 1 18261958543381002174
10608611 8 18411979161687281013
10980938 120 18263075526814366869
11471102 22 18411688890237662139
11769659 78 16702026421537268226
12032990 46 18265892634940824142
12251169 10 18409448102772929651
124424 183 18058739120839272983
12633257 1 18341039822435080201
12644460 14 18272087163319061584
12696612 119 18408040710376899212
12932764 1 17632583755615565367
13380535 21 18195804064227084412
13922767 16 18336266829294446733
14617773 55 17679885707657038759
15375462 189 18059584636733588746
15501101 241 18272930518258816621
15653759 3 17775287187777598357
16945 1 18335426793631098022
17041 49 18410572928668799705
18175812 5 18272931613939583703
20671657 1 18265893549668592396
20715346 28 17988373572090890709
20871998 22 18191301791781849974
21029758 27 18341049709502445284
21061003 4 18339931527071636798
21501502 16 18192157001021499247
21524375 3 17757269275890429452
22169311 14 18273492386370914099
2748010 2 17829052357214615422
31174 14 18271244924041745981
3286 77 18272088275462266395
5104073 3 18340196415712709179
81228 2 17688310500967477508

> <PUBCHEM_SHAPE_MULTIPOLES>
271.39
6.33
2.27
0.96
4.22
1.46
-0.13
-0.68
-2.48
-1.69
-0.19
0.03
-0.29
-0.04

> <PUBCHEM_SHAPE_SELFOVERLAP>
548.909

> <PUBCHEM_SHAPE_VOLUME>
160.4

> <PUBCHEM_COORDINATE_TYPE>
2
5
10

$$$$

