5281308
  -OEChem-07051212563D

 69 74  0     1  0  0  0  0  0999 V2000
    2.0497    1.3395   -1.8089 O   0  0  0  0  0  0  0  0  0  0  0  0
   -0.8669    1.8243    0.6011 O   0  0  0  0  0  0  0  0  0  0  0  0
   -1.2516    2.2624   -1.6896 O   0  0  0  0  0  0  0  0  0  0  0  0
    4.2163    1.3167   -0.0082 O   0  0  0  0  0  0  0  0  0  0  0  0
   -3.2107    0.4311   -1.7056 O   0  0  0  0  0  0  0  0  0  0  0  0
   -4.2726    1.1487    0.7915 O   0  0  0  0  0  0  0  0  0  0  0  0
    3.6453    3.5011    0.2705 O   0  0  0  0  0  0  0  0  0  0  0  0
    6.2741   -2.7368    0.2488 O   0  0  0  0  0  0  0  0  0  0  0  0
   -5.8370   -2.3248    0.5827 O   0  0  0  0  0  0  0  0  0  0  0  0
   -4.6858   -0.6769   -0.5563 O   0  0  0  0  0  0  0  0  0  0  0  0
    0.0125    0.2247   -1.0362 C   0  0  1  0  0  0  0  0  0  0  0  0
    1.4611    0.6521   -0.6686 C   0  0  1  0  0  0  0  0  0  0  0  0
   -0.4119   -0.9262   -0.0889 C   0  0  1  0  0  0  0  0  0  0  0  0
    2.3884   -0.3857    0.0201 C   0  0  1  0  0  0  0  0  0  0  0  0
   -1.0967    1.2534   -0.7030 C   0  0  1  0  0  0  0  0  0  0  0  0
   -1.9633   -1.0534   -0.1619 C   0  0  1  0  0  0  0  0  0  0  0  0
   -2.3973    0.4118   -0.5519 C   0  0  2  0  0  0  0  0  0  0  0  0
    1.9864    2.0808   -0.6059 C   0  0  1  0  0  0  0  0  0  0  0  0
    0.4740   -2.1636   -0.2245 C   0  0  0  0  0  0  0  0  0  0  0  0
    1.9660   -1.8140   -0.4238 C   0  0  0  0  0  0  0  0  0  0  0  0
   -0.0538   -0.1705   -2.5393 C   0  0  0  0  0  0  0  0  0  0  0  0
    3.8632   -0.0470   -0.4228 C   0  0  2  0  0  0  0  0  0  0  0  0
   -3.0773    1.2182    0.5296 C   0  0  0  0  0  0  0  0  0  0  0  0
    2.3141   -0.2654    1.5699 C   0  0  0  0  0  0  0  0  0  0  0  0
   -2.1153    2.1478    1.2278 C   0  0  0  0  0  0  0  0  0  0  0  0
    3.3409    2.3676   -0.0791 C   0  0  0  0  0  0  0  0  0  0  0  0
   -2.4608   -2.1322   -1.1414 C   0  0  0  0  0  0  0  0  0  0  0  0
   -2.4986   -1.5022    1.1825 C   0  0  0  0  0  0  0  0  0  0  0  0
    4.8822   -0.9909    0.0998 C   0  0  0  0  0  0  0  0  0  0  0  0
   -2.4719    3.6065    0.9748 C   0  0  0  0  0  0  0  0  0  0  0  0
   -2.0025    1.8415    2.7127 C   0  0  0  0  0  0  0  0  0  0  0  0
   -3.8003   -1.6998    1.4284 C   0  0  0  0  0  0  0  0  0  0  0  0
    5.5591   -0.9020    1.3323 C   0  0  0  0  0  0  0  0  0  0  0  0
    5.3451   -2.1176   -0.5259 C   0  0  0  0  0  0  0  0  0  0  0  0
   -4.7959   -1.4787    0.3576 C   0  0  0  0  0  0  0  0  0  0  0  0
    6.3984   -1.9907    1.3778 C   0  0  0  0  0  0  0  0  0  0  0  0
   -6.9066   -2.2499   -0.3659 C   0  0  0  0  0  0  0  0  0  0  0  0
   -0.2321   -0.5652    0.9268 H   0  0  0  0  0  0  0  0  0  0  0  0
    1.2766    2.8948   -0.5484 H   0  0  0  0  0  0  0  0  0  0  0  0
    0.1614   -2.8061   -1.0537 H   0  0  0  0  0  0  0  0  0  0  0  0
    0.3680   -2.7727    0.6820 H   0  0  0  0  0  0  0  0  0  0  0  0
    2.5602   -2.5765    0.0940 H   0  0  0  0  0  0  0  0  0  0  0  0
    2.2018   -1.9320   -1.4894 H   0  0  0  0  0  0  0  0  0  0  0  0
    0.2339    0.6620   -3.1913 H   0  0  0  0  0  0  0  0  0  0  0  0
    0.6166   -1.0004   -2.7774 H   0  0  0  0  0  0  0  0  0  0  0  0
   -1.0575   -0.4538   -2.8604 H   0  0  0  0  0  0  0  0  0  0  0  0
    3.9459   -0.0601   -1.5184 H   0  0  0  0  0  0  0  0  0  0  0  0
    1.3026   -0.2211    1.9693 H   0  0  0  0  0  0  0  0  0  0  0  0
    2.8016   -1.1178    2.0551 H   0  0  0  0  0  0  0  0  0  0  0  0
    2.7994    0.6433    1.9402 H   0  0  0  0  0  0  0  0  0  0  0  0
   -3.4142   -1.9938   -1.6477 H   0  0  0  0  0  0  0  0  0  0  0  0
   -1.7619   -2.2330   -1.9781 H   0  0  0  0  0  0  0  0  0  0  0  0
   -2.4736   -3.1320   -0.6853 H   0  0  0  0  0  0  0  0  0  0  0  0
   -1.7997   -1.7036    1.9906 H   0  0  0  0  0  0  0  0  0  0  0  0
   -0.3703    2.5143   -2.0096 H   0  0  0  0  0  0  0  0  0  0  0  0
   -3.2418    1.3441   -2.0386 H   0  0  0  0  0  0  0  0  0  0  0  0
   -3.3973    3.8857    1.4897 H   0  0  0  0  0  0  0  0  0  0  0  0
   -1.6674    4.2678    1.3149 H   0  0  0  0  0  0  0  0  0  0  0  0
   -2.6171    3.8093   -0.0915 H   0  0  0  0  0  0  0  0  0  0  0  0
   -2.9535    2.0019    3.2310 H   0  0  0  0  0  0  0  0  0  0  0  0
   -1.6963    0.8038    2.8819 H   0  0  0  0  0  0  0  0  0  0  0  0
   -1.2374    2.4700    3.1820 H   0  0  0  0  0  0  0  0  0  0  0  0
   -4.1386   -2.0640    2.3917 H   0  0  0  0  0  0  0  0  0  0  0  0
    5.4592   -0.1469    2.0990 H   0  0  0  0  0  0  0  0  0  0  0  0
    5.1318   -2.5961   -1.4708 H   0  0  0  0  0  0  0  0  0  0  0  0
    7.1094   -2.3568    2.1039 H   0  0  0  0  0  0  0  0  0  0  0  0
   -7.6712   -2.9748   -0.0744 H   0  0  0  0  0  0  0  0  0  0  0  0
   -6.5432   -2.5045   -1.3661 H   0  0  0  0  0  0  0  0  0  0  0  0
   -7.3492   -1.2492   -0.3585 H   0  0  0  0  0  0  0  0  0  0  0  0
  1 12  1  0  0  0  0
  1 18  1  0  0  0  0
  2 15  1  0  0  0  0
  2 25  1  0  0  0  0
  3 15  1  0  0  0  0
  3 55  1  0  0  0  0
  4 22  1  0  0  0  0
  4 26  1  0  0  0  0
  5 17  1  0  0  0  0
  5 56  1  0  0  0  0
  6 23  2  0  0  0  0
  7 26  2  0  0  0  0
  8 34  1  0  0  0  0
  8 36  1  0  0  0  0
  9 35  1  0  0  0  0
  9 37  1  0  0  0  0
 10 35  2  0  0  0  0
 11 12  1  0  0  0  0
 11 13  1  0  0  0  0
 11 15  1  0  0  0  0
 11 21  1  0  0  0  0
 12 14  1  0  0  0  0
 12 18  1  0  0  0  0
 13 16  1  0  0  0  0
 13 19  1  0  0  0  0
 13 38  1  0  0  0  0
 14 20  1  0  0  0  0
 14 22  1  0  0  0  0
 14 24  1  0  0  0  0
 15 17  1  0  0  0  0
 16 17  1  0  0  0  0
 16 27  1  0  0  0  0
 16 28  1  0  0  0  0
 17 23  1  0  0  0  0
 18 26  1  0  0  0  0
 18 39  1  0  0  0  0
 19 20  1  0  0  0  0
 19 40  1  0  0  0  0
 19 41  1  0  0  0  0
 20 42  1  0  0  0  0
 20 43  1  0  0  0  0
 21 44  1  0  0  0  0
 21 45  1  0  0  0  0
 21 46  1  0  0  0  0
 22 29  1  0  0  0  0
 22 47  1  0  0  0  0
 23 25  1  0  0  0  0
 24 48  1  0  0  0  0
 24 49  1  0  0  0  0
 24 50  1  0  0  0  0
 25 30  1  0  0  0  0
 25 31  1  0  0  0  0
 27 51  1  0  0  0  0
 27 52  1  0  0  0  0
 27 53  1  0  0  0  0
 28 32  2  0  0  0  0
 28 54  1  0  0  0  0
 29 33  1  0  0  0  0
 29 34  2  0  0  0  0
 30 57  1  0  0  0  0
 30 58  1  0  0  0  0
 30 59  1  0  0  0  0
 31 60  1  0  0  0  0
 31 61  1  0  0  0  0
 31 62  1  0  0  0  0
 32 35  1  0  0  0  0
 32 63  1  0  0  0  0
 33 36  2  0  0  0  0
 33 64  1  0  0  0  0
 34 65  1  0  0  0  0
 36 66  1  0  0  0  0
 37 67  1  0  0  0  0
 37 68  1  0  0  0  0
 37 69  1  0  0  0  0
M  END
> <PUBCHEM_COMPOUND_CID>
5281308

> <PUBCHEM_CONFORMER_RMSD>
0.8

> <PUBCHEM_CONFORMER_DIVERSEORDER>
1

> <PUBCHEM_MMFF94_PARTIAL_CHARGES>
37
1 -0.3
10 -0.57
11 0.09
12 -0.04
14 0.09
15 0.56
16 0.14
17 0.34
18 0.05
2 -0.56
22 0.46
23 0.45
25 0.34
26 0.72
28 -0.29
29 -0.18
3 -0.68
32 -0.14
33 -0.15
34 -0.01
35 0.71
36 -0.01
37 0.28
39 0.1
4 -0.43
5 -0.68
54 0.15
55 0.4
56 0.4
6 -0.57
63 0.15
64 0.15
65 0.15
66 0.15
7 -0.57
8 -0.28
9 -0.43

> <PUBCHEM_EFFECTIVE_ROTOR_COUNT>
5.6

> <PUBCHEM_PHARMACOPHORE_FEATURES>
16
1 1 acceptor
1 10 acceptor
1 2 acceptor
1 3 acceptor
1 3 donor
1 5 acceptor
1 5 donor
1 6 acceptor
1 7 acceptor
1 8 acceptor
3 25 30 31 hydrophobe
5 11 13 15 16 17 rings
5 2 15 17 23 25 rings
5 8 29 33 34 36 rings
6 11 12 13 14 19 20 rings
7 1 4 12 14 18 22 26 rings

> <PUBCHEM_HEAVY_ATOM_COUNT>
37

> <PUBCHEM_ATOM_DEF_STEREO_COUNT>
9

> <PUBCHEM_ATOM_UDEF_STEREO_COUNT>
0

> <PUBCHEM_BOND_DEF_STEREO_COUNT>
1

> <PUBCHEM_BOND_UDEF_STEREO_COUNT>
0

> <PUBCHEM_ISOTOPIC_ATOM_COUNT>
0

> <PUBCHEM_COMPONENT_COUNT>
1

> <PUBCHEM_CACTVS_TAUTO_COUNT>
1

> <PUBCHEM_CONFORMER_ID>
0050961C00000001

> <PUBCHEM_MMFF94_ENERGY>
170.0581

> <PUBCHEM_FEATURE_SELFOVERLAP>
81.964

> <PUBCHEM_SHAPE_FINGERPRINT>
10006869 2 18042120977353493969
10366900 7 15410898469939855302
117089 54 18268986669663530586
12107698 1 18411699885127346530
12166972 35 18201438051859820557
12422481 6 18188758552324357883
12608794 3 16820228568862588282
12633257 1 18267571571921441544
12788726 201 17750218258430207321
13004483 165 18335421214790086661
13009979 54 18260826034020755008
131258 38 17693665814058776627
13140716 1 18413383228775778484
13224815 77 18411132511304401349
13533116 47 18340768135398679722
13782708 43 18131072606365317267
14068700 675 18412265021398411003
14347332 77 18410294717798869998
14739800 52 17750243500385834688
14787075 74 17897154716191656705
14955137 171 18335136557654046822
15131766 46 14853035841320812426
17349148 13 18413384328419411591
1813 80 16702024141167688140
19319366 153 17903354806358019844
19841028 212 18200876167407189227
20028762 73 18408887325941936022
20642791 105 18335984267944575305
21033648 29 17387715983702197858
21792934 111 18260835891207660537
22223350 30 17973448698256177651
22393880 68 17703523163085940758
23522609 53 17841400882840218660
23559900 14 17988647363070363356
23569914 152 11381351116590925626
3383291 50 18342179955321262371
350125 39 18410007741316959420
3504750 166 18114471148795672991
3886686 26 17757542336862813199
392239 28 18261380157657712097
460360 51 18343293787065315076
5104073 3 18409725153722368488
9896288 288 17970905785178581578
9981440 41 17097212972454769441

> <PUBCHEM_SHAPE_MULTIPOLES>
702.75
12.88
3.52
1.73
5.13
1.72
0.05
-10.25
3.53
-0.27
0.63
-0.41
0.42
-1.18

> <PUBCHEM_SHAPE_SELFOVERLAP>
1569.104

> <PUBCHEM_SHAPE_VOLUME>
366.6

> <PUBCHEM_COORDINATE_TYPE>
2
5
10

$$$$

