16116
  -OEChem-07051213123D

 37 38  0     1  0  0  0  0  0999 V2000
   -0.3355    1.0507   -1.3695 O   0  0  0  0  0  0  0  0  0  0  0  0
    1.1454   -0.1749   -0.0857 N   0  0  0  0  0  0  0  0  0  0  0  0
   -1.1013   -0.3831    0.3242 N   0  0  0  0  0  0  0  0  0  0  0  0
    3.4762   -0.7559   -0.7346 C   0  0  1  0  0  0  0  0  0  0  0  0
    2.3527    0.3026   -0.7229 C   0  0  2  0  0  0  0  0  0  0  0  0
    4.0614   -0.9872    0.6671 C   0  0  0  0  0  0  0  0  0  0  0  0
    2.8262    1.6010   -0.0591 C   0  0  0  0  0  0  0  0  0  0  0  0
    4.5230    0.3200    1.3073 C   0  0  0  0  0  0  0  0  0  0  0  0
    3.4130    1.3656    1.3325 C   0  0  0  0  0  0  0  0  0  0  0  0
    3.0252   -2.0782   -1.3583 C   0  0  0  0  0  0  0  0  0  0  0  0
   -0.1332    0.2439   -0.4652 C   0  0  0  0  0  0  0  0  0  0  0  0
   -2.5061   -0.2313    0.2589 C   0  0  0  0  0  0  0  0  0  0  0  0
   -3.3072   -0.9447    1.1355 C   0  0  0  0  0  0  0  0  0  0  0  0
   -3.0521    0.6268   -0.6815 C   0  0  0  0  0  0  0  0  0  0  0  0
   -4.6926   -0.7957    1.0699 C   0  0  0  0  0  0  0  0  0  0  0  0
   -4.4374    0.7758   -0.7471 C   0  0  0  0  0  0  0  0  0  0  0  0
   -5.2577    0.0646    0.1287 C   0  0  0  0  0  0  0  0  0  0  0  0
    4.2860   -0.3630   -1.3658 H   0  0  0  0  0  0  0  0  0  0  0  0
    2.0964    0.5371   -1.7643 H   0  0  0  0  0  0  0  0  0  0  0  0
    4.9136   -1.6749    0.6049 H   0  0  0  0  0  0  0  0  0  0  0  0
    3.3192   -1.4677    1.3162 H   0  0  0  0  0  0  0  0  0  0  0  0
    2.0030    2.3220    0.0124 H   0  0  0  0  0  0  0  0  0  0  0  0
    3.5955    2.0634   -0.6909 H   0  0  0  0  0  0  0  0  0  0  0  0
    5.3809    0.7144    0.7486 H   0  0  0  0  0  0  0  0  0  0  0  0
    4.8706    0.1270    2.3285 H   0  0  0  0  0  0  0  0  0  0  0  0
    2.6209    1.0419    2.0184 H   0  0  0  0  0  0  0  0  0  0  0  0
    3.8071    2.3089    1.7277 H   0  0  0  0  0  0  0  0  0  0  0  0
    3.8727   -2.7652   -1.4560 H   0  0  0  0  0  0  0  0  0  0  0  0
    2.2627   -2.5761   -0.7504 H   0  0  0  0  0  0  0  0  0  0  0  0
    2.6115   -1.9143   -2.3588 H   0  0  0  0  0  0  0  0  0  0  0  0
    1.2300   -0.7825    0.7230 H   0  0  0  0  0  0  0  0  0  0  0  0
   -0.7627   -1.0285    1.0333 H   0  0  0  0  0  0  0  0  0  0  0  0
   -2.8774   -1.6176    1.8723 H   0  0  0  0  0  0  0  0  0  0  0  0
   -2.4868    1.2104   -1.3926 H   0  0  0  0  0  0  0  0  0  0  0  0
   -5.3313   -1.3496    1.7517 H   0  0  0  0  0  0  0  0  0  0  0  0
   -4.8790    1.4454   -1.4798 H   0  0  0  0  0  0  0  0  0  0  0  0
   -6.3363    0.1807    0.0776 H   0  0  0  0  0  0  0  0  0  0  0  0
  1 11  2  0  0  0  0
  2  5  1  0  0  0  0
  2 11  1  0  0  0  0
  2 31  1  0  0  0  0
  3 11  1  0  0  0  0
  3 12  1  0  0  0  0
  3 32  1  0  0  0  0
  4  5  1  0  0  0  0
  4  6  1  0  0  0  0
  4 10  1  0  0  0  0
  4 18  1  0  0  0  0
  5  7  1  0  0  0  0
  5 19  1  0  0  0  0
  6  8  1  0  0  0  0
  6 20  1  0  0  0  0
  6 21  1  0  0  0  0
  7  9  1  0  0  0  0
  7 22  1  0  0  0  0
  7 23  1  0  0  0  0
  8  9  1  0  0  0  0
  8 24  1  0  0  0  0
  8 25  1  0  0  0  0
  9 26  1  0  0  0  0
  9 27  1  0  0  0  0
 10 28  1  0  0  0  0
 10 29  1  0  0  0  0
 10 30  1  0  0  0  0
 12 13  2  0  0  0  0
 12 14  1  0  0  0  0
 13 15  1  0  0  0  0
 13 33  1  0  0  0  0
 14 16  2  0  0  0  0
 14 34  1  0  0  0  0
 15 17  2  0  0  0  0
 15 35  1  0  0  0  0
 16 17  1  0  0  0  0
 16 36  1  0  0  0  0
 17 37  1  0  0  0  0
M  END
> <PUBCHEM_COMPOUND_CID>
16116

> <PUBCHEM_CONFORMER_RMSD>
0.6

> <PUBCHEM_CONFORMER_DIVERSEORDER>
1
33
44
18
23
39
29
28
12
17
32
38
8
30
41
15
4
37
45
34
26
27
2
11
42
3
20
35
25
5
16
14
10
31
13
21
6
40
36
7
22
9
24
19
43

> <PUBCHEM_MMFF94_PARTIAL_CHARGES>
18
1 -0.57
11 0.69
12 0.12
13 -0.15
14 -0.15
15 -0.15
16 -0.15
17 -0.15
2 -0.73
3 -0.55
31 0.37
32 0.37
33 0.15
34 0.15
35 0.15
36 0.15
37 0.15
5 0.3

> <PUBCHEM_EFFECTIVE_ROTOR_COUNT>
5.2

> <PUBCHEM_PHARMACOPHORE_FEATURES>
5
1 1 acceptor
1 2 donor
1 3 donor
6 12 13 14 15 16 17 rings
6 4 5 6 7 8 9 rings

> <PUBCHEM_HEAVY_ATOM_COUNT>
17

> <PUBCHEM_ATOM_DEF_STEREO_COUNT>
0

> <PUBCHEM_ATOM_UDEF_STEREO_COUNT>
2

> <PUBCHEM_BOND_DEF_STEREO_COUNT>
0

> <PUBCHEM_BOND_UDEF_STEREO_COUNT>
0

> <PUBCHEM_ISOTOPIC_ATOM_COUNT>
0

> <PUBCHEM_COMPONENT_COUNT>
1

> <PUBCHEM_CACTVS_TAUTO_COUNT>
3

> <PUBCHEM_CONFORMER_ID>
00003EF400000001

> <PUBCHEM_MMFF94_ENERGY>
33.1997

> <PUBCHEM_FEATURE_SELFOVERLAP>
25.424

> <PUBCHEM_SHAPE_FINGERPRINT>
10014705 185 14634862085694003315
10912923 1 16153428354986296511
114674 6 18264762328408643950
12236239 1 16008752411310598804
12596602 18 16660649535657624423
12670546 56 17313100895099285867
128620 24 6338956667762615001
13167823 11 15482952748368545489
13296908 3 18131066022032051487
13533116 47 17895187848376165519
13583140 156 17531818947973918511
13675066 3 18412544301730833133
13911852 28 17099729793611077470
14252887 29 18408601491852020150
14386348 63 18271804644200970166
15142526 21 16517963627135850066
15885798 251 17489591164279384005
1813 80 14907902699306041814
18186145 218 18340477941469585779
18915474 69 15195279807300495018
20279233 1 18410854360727485759
20281475 54 15123506969826238091
204376 136 17458063742268674711
20645477 70 18187644734297812206
21065201 7 17846497058424474379
22224240 67 18041291989390145554
22646028 1 15913331286193794785
22854114 59 18259704488619575241
23048698 100 17022620883739539526
23402539 116 18130515171776911327
23402655 69 8935004776027207208
23532345 1 17894634734050378168
23557571 272 18202002182934783165
23559900 14 18130780170557519508
268830 7 17022615394998052673
26918003 58 18410577283744396049
2838139 119 5904606759090726082
300161 21 15936413351139108873
3004659 81 15985385607677854138
42 15 17489874833899687889
474 4 17168439138397263264
5374978 207 18186518808499683992
573450 72 16845578616989247185
5924683 9 18265338305266515947
960060 61 14189571923005276198

> <PUBCHEM_SHAPE_MULTIPOLES>
334.02
11.77
1.47
1.34
7.06
0.32
0.1
0.2
2.82
-2.04
-0.18
0.02
-0.01
1.37

> <PUBCHEM_SHAPE_SELFOVERLAP>
687.72

> <PUBCHEM_SHAPE_VOLUME>
190.1

> <PUBCHEM_COORDINATE_TYPE>
2
5
10

$$$$

