656612
  -OEChem-07051213033D

 35 36  0     1  0  0  0  0  0999 V2000
    7.0569    1.4198    1.0013 Cl  0  0  0  0  0  0  0  0  0  0  0  0
    6.3655   -1.1678   -0.2398 Cl  0  0  0  0  0  0  0  0  0  0  0  0
   -2.4511   -2.1672   -0.8305 F   0  0  0  0  0  0  0  0  0  0  0  0
   -2.8103    2.5288   -0.2312 F   0  0  0  0  0  0  0  0  0  0  0  0
   -5.1341    2.1689    1.1475 F   0  0  0  0  0  0  0  0  0  0  0  0
   -4.7757   -2.5151    0.5497 F   0  0  0  0  0  0  0  0  0  0  0  0
   -0.2320    0.3469   -0.3977 O   0  0  0  0  0  0  0  0  0  0  0  0
    1.2517    0.6834   -2.1396 O   0  0  0  0  0  0  0  0  0  0  0  0
    2.6540   -0.8503    0.4882 C   0  0  0  0  0  0  0  0  0  0  0  0
    2.0800    0.4644    0.0669 C   0  0  1  0  0  0  0  0  0  0  0  0
    3.4574    0.0812   -0.3711 C   0  0  1  0  0  0  0  0  0  0  0  0
    2.1544   -2.1056   -0.1446 C   0  0  0  0  0  0  0  0  0  0  0  0
    2.9992   -1.0079    1.9317 C   0  0  0  0  0  0  0  0  0  0  0  0
    4.5863    0.8097    0.1880 C   0  0  0  0  0  0  0  0  0  0  0  0
    1.0031    0.5126   -0.9548 C   0  0  0  0  0  0  0  0  0  0  0  0
    5.8566    0.3920    0.2989 C   0  0  0  0  0  0  0  0  0  0  0  0
   -1.3277    0.3794   -1.3039 C   0  0  0  0  0  0  0  0  0  0  0  0
   -2.6000    0.1856   -0.5497 C   0  0  0  0  0  0  0  0  0  0  0  0
   -3.1031   -1.0998   -0.3489 C   0  0  0  0  0  0  0  0  0  0  0  0
   -3.2860    1.2899   -0.0439 C   0  0  0  0  0  0  0  0  0  0  0  0
   -4.4751    1.1086    0.6626 C   0  0  0  0  0  0  0  0  0  0  0  0
   -4.2921   -1.2810    0.3577 C   0  0  0  0  0  0  0  0  0  0  0  0
   -4.9780   -0.1767    0.8633 C   0  0  0  0  0  0  0  0  0  0  0  0
    1.9837    1.2326    0.8294 H   0  0  0  0  0  0  0  0  0  0  0  0
    3.5950   -0.1914   -1.4135 H   0  0  0  0  0  0  0  0  0  0  0  0
    2.0120   -2.0133   -1.2268 H   0  0  0  0  0  0  0  0  0  0  0  0
    2.8657   -2.9234    0.0155 H   0  0  0  0  0  0  0  0  0  0  0  0
    1.1954   -2.4023    0.2939 H   0  0  0  0  0  0  0  0  0  0  0  0
    3.2538   -0.0620    2.4223 H   0  0  0  0  0  0  0  0  0  0  0  0
    2.1507   -1.4311    2.4811 H   0  0  0  0  0  0  0  0  0  0  0  0
    3.8486   -1.6886    2.0538 H   0  0  0  0  0  0  0  0  0  0  0  0
    4.3607    1.8148    0.5434 H   0  0  0  0  0  0  0  0  0  0  0  0
   -1.2088   -0.4088   -2.0581 H   0  0  0  0  0  0  0  0  0  0  0  0
   -1.3425    1.3397   -1.8347 H   0  0  0  0  0  0  0  0  0  0  0  0
   -5.9039   -0.3177    1.4130 H   0  0  0  0  0  0  0  0  0  0  0  0
  1 16  1  0  0  0  0
  2 16  1  0  0  0  0
  3 19  1  0  0  0  0
  4 20  1  0  0  0  0
  5 21  1  0  0  0  0
  6 22  1  0  0  0  0
  7 15  1  0  0  0  0
  7 17  1  0  0  0  0
  8 15  2  0  0  0  0
  9 10  1  0  0  0  0
  9 11  1  0  0  0  0
  9 12  1  0  0  0  0
  9 13  1  0  0  0  0
 10 11  1  0  0  0  0
 10 15  1  0  0  0  0
 10 24  1  0  0  0  0
 11 14  1  0  0  0  0
 11 25  1  0  0  0  0
 12 26  1  0  0  0  0
 12 27  1  0  0  0  0
 12 28  1  0  0  0  0
 13 29  1  0  0  0  0
 13 30  1  0  0  0  0
 13 31  1  0  0  0  0
 14 16  2  0  0  0  0
 14 32  1  0  0  0  0
 17 18  1  0  0  0  0
 17 33  1  0  0  0  0
 17 34  1  0  0  0  0
 18 19  2  0  0  0  0
 18 20  1  0  0  0  0
 19 22  1  0  0  0  0
 20 21  2  0  0  0  0
 21 23  1  0  0  0  0
 22 23  2  0  0  0  0
 23 35  1  0  0  0  0
M  END
> <PUBCHEM_COMPOUND_CID>
656612

> <PUBCHEM_CONFORMER_RMSD>
0.8

> <PUBCHEM_CONFORMER_DIVERSEORDER>
1
79
61
43
81
82
63
34
6
7
87
58
27
39
83
8
76
91
20
42
50
60
57
54
38
49
69
51
9
17
21
88
56
26
65
24
16
52
23
18
92
30
80
44
77
32
78
73
33
5
19
47
10
41
3
37
62
89
45
46
53
68
29
13
28
74
71
86
4
14
22
64
55
84
67
25
85
59
2
31
11
66
15
35
48
75
72
90
40
12
36
70

> <PUBCHEM_MMFF94_PARTIAL_CHARGES>
27
1 -0.14
10 -0.1
11 -0.06
12 0.09
13 0.09
14 -0.19
15 0.72
16 0.28
17 0.42
18 -0.14
19 0.19
2 -0.14
20 0.19
21 0.19
22 0.19
23 -0.15
24 0.1
25 0.1
3 -0.19
32 0.15
35 0.15
4 -0.19
5 -0.19
6 -0.19
7 -0.43
8 -0.57
9 -0.19

> <PUBCHEM_EFFECTIVE_ROTOR_COUNT>
5.6

> <PUBCHEM_PHARMACOPHORE_FEATURES>
3
1 8 acceptor
3 9 12 13 hydrophobe
6 18 19 20 21 22 23 rings

> <PUBCHEM_HEAVY_ATOM_COUNT>
23

> <PUBCHEM_ATOM_DEF_STEREO_COUNT>
2

> <PUBCHEM_ATOM_UDEF_STEREO_COUNT>
0

> <PUBCHEM_BOND_DEF_STEREO_COUNT>
0

> <PUBCHEM_BOND_UDEF_STEREO_COUNT>
0

> <PUBCHEM_ISOTOPIC_ATOM_COUNT>
0

> <PUBCHEM_COMPONENT_COUNT>
1

> <PUBCHEM_CACTVS_TAUTO_COUNT>
1

> <PUBCHEM_CONFORMER_ID>
000A04E400000001

> <PUBCHEM_MMFF94_ENERGY>
41.0653

> <PUBCHEM_FEATURE_SELFOVERLAP>
15.223

> <PUBCHEM_SHAPE_FINGERPRINT>
10366900 7 18114759169533793339
11089746 13 6338953352501627462
11315181 36 18343022155668395461
12107183 9 17692817398760265488
12236239 1 18344143687698895676
12596602 18 18408322181459693048
12616971 3 17418084408471271532
13583140 156 18335149699790229941
13862211 1 16917358022080130648
14341114 176 18334010605928340080
14848160 23 13039190299460462544
14849402 71 18197777696844186812
14863182 85 17203603831278754266
14933364 13 18259702286124545096
15537594 2 17632293518557690810
17349148 13 16272207505429483580
17780758 139 18342177743812861513
17844677 252 18334853918588659876
1813 80 17060328673616108815
19377110 9 17917721201490411560
21033648 29 17023195941063311512
21065198 48 18411986883605878195
21315759 148 18335414665081524518
23402539 116 16200441281772482380
23522609 53 17844218870617235548
23559900 14 17972008557108490189
300161 21 18342182193225101773
312425 54 18342457062684302586
3737641 26 17845096349604763594
4169191 19 4822344248267086362
465052 167 15051735305347856616
5104073 3 18412263973304903138
5758199 1 18202283572871899664
6328613 192 4967319258651318922

> <PUBCHEM_SHAPE_MULTIPOLES>
436.24
15.88
2.09
1.28
10.96
0.34
0.05
-1.95
-5.34
-1.85
-0.25
0.25
-0.08
-0.06

> <PUBCHEM_SHAPE_SELFOVERLAP>
905.482

> <PUBCHEM_SHAPE_VOLUME>
252

> <PUBCHEM_COORDINATE_TYPE>
2
5
10

$$$$

