5115
  -OEChem-06261200313D

 23 23  0     1  0  0  0  0  0999 V2000
    2.7761    0.2903    1.8562 O   0  0  0  0  0  0  0  0  0  0  0  0
    3.8770   -1.0310    0.3874 O   0  0  0  0  0  0  0  0  0  0  0  0
   -3.7540   -1.4617    0.0952 O   0  0  0  0  0  0  0  0  0  0  0  0
   -4.1985    0.7560    0.3211 O   0  0  0  0  0  0  0  0  0  0  0  0
    2.7658    0.0509   -1.8146 N   0  0  0  0  0  0  0  0  0  0  0  0
    0.8038    0.3589   -0.3426 C   0  0  0  0  0  0  0  0  0  0  0  0
    2.2745    0.5385   -0.5139 C   0  0  1  0  0  0  0  0  0  0  0  0
   -0.0173    1.4705   -0.1533 C   0  0  0  0  0  0  0  0  0  0  0  0
    0.2496   -0.9209   -0.3697 C   0  0  0  0  0  0  0  0  0  0  0  0
   -1.9467    0.0224   -0.0185 C   0  0  0  0  0  0  0  0  0  0  0  0
   -1.3924    1.3023    0.0089 C   0  0  0  0  0  0  0  0  0  0  0  0
   -1.1255   -1.0892   -0.2077 C   0  0  0  0  0  0  0  0  0  0  0  0
    3.0683   -0.1334    0.6026 C   0  0  0  0  0  0  0  0  0  0  0  0
   -3.3807   -0.1537    0.1489 C   0  0  0  0  0  0  0  0  0  0  0  0
    2.5372    1.6032   -0.4631 H   0  0  0  0  0  0  0  0  0  0  0  0
    0.3991    2.4740   -0.1292 H   0  0  0  0  0  0  0  0  0  0  0  0
    0.8747   -1.7982   -0.5146 H   0  0  0  0  0  0  0  0  0  0  0  0
   -2.0150    2.1811    0.1551 H   0  0  0  0  0  0  0  0  0  0  0  0
   -1.5146   -2.1031   -0.2354 H   0  0  0  0  0  0  0  0  0  0  0  0
    3.7612    0.2561   -1.8978 H   0  0  0  0  0  0  0  0  0  0  0  0
    2.3099    0.5723   -2.5632 H   0  0  0  0  0  0  0  0  0  0  0  0
    3.2931   -0.1921    2.5361 H   0  0  0  0  0  0  0  0  0  0  0  0
   -4.7224   -1.5698    0.2085 H   0  0  0  0  0  0  0  0  0  0  0  0
  1 13  1  0  0  0  0
  1 22  1  0  0  0  0
  2 13  2  0  0  0  0
  3 14  1  0  0  0  0
  3 23  1  0  0  0  0
  4 14  2  0  0  0  0
  5  7  1  0  0  0  0
  5 20  1  0  0  0  0
  5 21  1  0  0  0  0
  6  7  1  0  0  0  0
  6  8  2  0  0  0  0
  6  9  1  0  0  0  0
  7 13  1  0  0  0  0
  7 15  1  0  0  0  0
  8 11  1  0  0  0  0
  8 16  1  0  0  0  0
  9 12  2  0  0  0  0
  9 17  1  0  0  0  0
 10 11  2  0  0  0  0
 10 12  1  0  0  0  0
 10 14  1  0  0  0  0
 11 18  1  0  0  0  0
 12 19  1  0  0  0  0
M  END
> <PUBCHEM_COMPOUND_CID>
5115

> <PUBCHEM_CONFORMER_RMSD>
0.6

> <PUBCHEM_CONFORMER_DIVERSEORDER>
1
5
6
3
2
7
4

> <PUBCHEM_MMFF94_PARTIAL_CHARGES>
22
1 -0.65
10 0.09
11 -0.15
12 -0.15
13 0.66
14 0.63
16 0.15
17 0.15
18 0.15
19 0.15
2 -0.57
20 0.36
21 0.36
22 0.5
23 0.5
3 -0.65
4 -0.57
5 -0.99
6 -0.14
7 0.47
8 -0.15
9 -0.15

> <PUBCHEM_EFFECTIVE_ROTOR_COUNT>
3

> <PUBCHEM_PHARMACOPHORE_FEATURES>
9
1 1 acceptor
1 2 acceptor
1 3 acceptor
1 4 acceptor
1 5 cation
1 5 donor
3 1 2 13 anion
3 3 4 14 anion
6 6 8 9 10 11 12 rings

> <PUBCHEM_HEAVY_ATOM_COUNT>
14

> <PUBCHEM_ATOM_DEF_STEREO_COUNT>
0

> <PUBCHEM_ATOM_UDEF_STEREO_COUNT>
1

> <PUBCHEM_BOND_DEF_STEREO_COUNT>
0

> <PUBCHEM_BOND_UDEF_STEREO_COUNT>
0

> <PUBCHEM_ISOTOPIC_ATOM_COUNT>
0

> <PUBCHEM_COMPONENT_COUNT>
1

> <PUBCHEM_CACTVS_TAUTO_COUNT>
1

> <PUBCHEM_CONFORMER_ID>
000013FB00000001

> <PUBCHEM_MMFF94_ENERGY>
35.4306

> <PUBCHEM_FEATURE_SELFOVERLAP>
45.787

> <PUBCHEM_SHAPE_FINGERPRINT>
10130415 120 18202565064063024233
10857977 72 18334296457049340517
11132069 177 18333730230336364373
11543360 7 15625937569903699231
11769659 78 17346325872974469739
12032990 46 18408595951122655895
12119455 92 16805613597980380933
12251169 10 18114473270893807288
124424 183 18131356310756439613
12932764 1 17489873704455157941
13538477 17 18059287665419707358
13581323 91 18410862070489018754
13705890 14 14620792691137812712
13760787 19 17346588647832417507
13760787 5 17917987261639248295
14144814 61 18342736291187434021
14289901 80 15646773370994926095
16945 1 18409726266266376389
177051 138 18272936028870655618
18175812 5 17676206861982827085
18186145 218 14490460985201825893
18522853 295 18409722971931475742
19026448 4 16443057309896695973
19026448 5 17132111329955004197
19422 9 17917987252822577043
200 152 16056884654172280984
20279233 1 17530963592309677599
20281475 54 18273210868302261383
20559304 39 18272368676871135524
20645476 183 17702082704138157766
20645477 70 16056884632270274498
21501925 9 18263933150553311947
23380061 330 18334298639209101783
23402539 116 17968390012522296181
23402655 69 10015043976473705859
23463225 33 18343582962195635798
23559900 14 18187071876255538404
2748010 2 18048871085652875565
42 15 18411422842883711986
474 4 4750285532736174514
53655031 270 18342458187781143435
69090 78 17023192621354233039
7364860 26 18342735166476098244
77492 1 17775280577585734844

> <PUBCHEM_SHAPE_MULTIPOLES>
259.66
6.8
1.3
1.07
1.72
0.04
-0.03
-1.24
-1.15
0.55
0.02
-1.24
0.05
-0.16

> <PUBCHEM_SHAPE_SELFOVERLAP>
545.89

> <PUBCHEM_SHAPE_VOLUME>
146.2

> <PUBCHEM_COORDINATE_TYPE>
2
5
10

$$$$

