14140
  -OEChem-06241222423D

 33 34  0     1  0  0  0  0  0999 V2000
   -1.5653   -2.1456   -0.6407 O   0  0  0  0  0  0  0  0  0  0  0  0
    0.9075   -1.0033    0.2969 N   0  0  0  0  0  0  0  0  0  0  0  0
    3.2750   -1.2681    0.3255 N   0  0  0  0  0  0  0  0  0  0  0  0
   -1.5746   -1.0801    0.3188 C   0  0  1  0  0  0  0  0  0  0  0  0
   -0.3120   -0.2145    0.1374 C   0  0  0  0  0  0  0  0  0  0  0  0
   -2.8289   -0.2897    0.1553 C   0  0  0  0  0  0  0  0  0  0  0  0
    2.1697   -0.4718    0.1627 C   0  0  0  0  0  0  0  0  0  0  0  0
   -3.4139    0.3266    1.2615 C   0  0  0  0  0  0  0  0  0  0  0  0
   -3.4165   -0.1661   -1.1037 C   0  0  0  0  0  0  0  0  0  0  0  0
    2.2986    0.8934   -0.1424 C   0  0  0  0  0  0  0  0  0  0  0  0
   -4.5867    1.0660    1.1089 C   0  0  0  0  0  0  0  0  0  0  0  0
   -4.5893    0.5735   -1.2563 C   0  0  0  0  0  0  0  0  0  0  0  0
    4.6904    0.6413   -0.1170 C   0  0  0  0  0  0  0  0  0  0  0  0
    3.5676    1.4448   -0.2812 C   0  0  0  0  0  0  0  0  0  0  0  0
   -5.1744    1.1895   -0.1500 C   0  0  0  0  0  0  0  0  0  0  0  0
    4.4920   -0.6968    0.1830 C   0  0  0  0  0  0  0  0  0  0  0  0
    6.0608    1.2011   -0.2589 C   0  0  0  0  0  0  0  0  0  0  0  0
   -1.5513   -1.5582    1.3062 H   0  0  0  0  0  0  0  0  0  0  0  0
   -0.3298    0.6029    0.8690 H   0  0  0  0  0  0  0  0  0  0  0  0
   -0.3271    0.2163   -0.8722 H   0  0  0  0  0  0  0  0  0  0  0  0
    0.8333   -1.9897    0.5164 H   0  0  0  0  0  0  0  0  0  0  0  0
   -2.9646    0.2393    2.2472 H   0  0  0  0  0  0  0  0  0  0  0  0
   -2.9751   -0.6229   -1.9853 H   0  0  0  0  0  0  0  0  0  0  0  0
    1.4475    1.5527   -0.2768 H   0  0  0  0  0  0  0  0  0  0  0  0
   -2.3456   -2.7020   -0.4731 H   0  0  0  0  0  0  0  0  0  0  0  0
   -5.0420    1.5462    1.9701 H   0  0  0  0  0  0  0  0  0  0  0  0
   -5.0453    0.6728   -2.2370 H   0  0  0  0  0  0  0  0  0  0  0  0
    3.6704    2.5009   -0.5154 H   0  0  0  0  0  0  0  0  0  0  0  0
   -6.0870    1.7662   -0.2691 H   0  0  0  0  0  0  0  0  0  0  0  0
    5.3284   -1.3742    0.3246 H   0  0  0  0  0  0  0  0  0  0  0  0
    6.4080    1.5953    0.7013 H   0  0  0  0  0  0  0  0  0  0  0  0
    6.7675    0.4365   -0.5990 H   0  0  0  0  0  0  0  0  0  0  0  0
    6.0815    2.0088   -0.9983 H   0  0  0  0  0  0  0  0  0  0  0  0
  1  4  1  0  0  0  0
  1 25  1  0  0  0  0
  2  5  1  0  0  0  0
  2  7  1  0  0  0  0
  2 21  1  0  0  0  0
  3  7  2  0  0  0  0
  3 16  1  0  0  0  0
  4  5  1  0  0  0  0
  4  6  1  0  0  0  0
  4 18  1  0  0  0  0
  5 19  1  0  0  0  0
  5 20  1  0  0  0  0
  6  8  2  0  0  0  0
  6  9  1  0  0  0  0
  7 10  1  0  0  0  0
  8 11  1  0  0  0  0
  8 22  1  0  0  0  0
  9 12  2  0  0  0  0
  9 23  1  0  0  0  0
 10 14  2  0  0  0  0
 10 24  1  0  0  0  0
 11 15  2  0  0  0  0
 11 26  1  0  0  0  0
 12 15  1  0  0  0  0
 12 27  1  0  0  0  0
 13 14  1  0  0  0  0
 13 16  2  0  0  0  0
 13 17  1  0  0  0  0
 14 28  1  0  0  0  0
 15 29  1  0  0  0  0
 16 30  1  0  0  0  0
 17 31  1  0  0  0  0
 17 32  1  0  0  0  0
 17 33  1  0  0  0  0
M  END
> <PUBCHEM_COMPOUND_CID>
14140

> <PUBCHEM_CONFORMER_RMSD>
0.6

> <PUBCHEM_CONFORMER_DIVERSEORDER>
1
37
22
44
26
45
48
33
50
53
25
30
2
55
16
14
29
4
28
38
54
46
27
43
42
34
20
17
13
51
35
10
40
8
7
9
15
24
52
49
41
39
6
12
36
32
31
21
3
47
57
11
23
58
18
5
19
56

> <PUBCHEM_MMFF94_PARTIAL_CHARGES>
27
1 -0.68
10 -0.15
11 -0.15
12 -0.15
13 -0.14
14 -0.15
15 -0.15
16 0.16
17 0.14
2 -0.87
21 0.4
22 0.15
23 0.15
24 0.15
25 0.4
26 0.15
27 0.15
28 0.15
29 0.15
3 -0.62
30 0.15
4 0.42
5 0.37
6 -0.14
7 0.41
8 -0.15
9 -0.15

> <PUBCHEM_EFFECTIVE_ROTOR_COUNT>
4

> <PUBCHEM_PHARMACOPHORE_FEATURES>
6
1 1 acceptor
1 1 donor
1 2 donor
3 2 3 7 cation
6 3 7 10 13 14 16 rings
6 6 8 9 11 12 15 rings

> <PUBCHEM_HEAVY_ATOM_COUNT>
17

> <PUBCHEM_ATOM_DEF_STEREO_COUNT>
0

> <PUBCHEM_ATOM_UDEF_STEREO_COUNT>
1

> <PUBCHEM_BOND_DEF_STEREO_COUNT>
0

> <PUBCHEM_BOND_UDEF_STEREO_COUNT>
0

> <PUBCHEM_ISOTOPIC_ATOM_COUNT>
0

> <PUBCHEM_COMPONENT_COUNT>
1

> <PUBCHEM_CACTVS_TAUTO_COUNT>
2

> <PUBCHEM_CONFORMER_ID>
0000373C00000001

> <PUBCHEM_MMFF94_ENERGY>
52.0939

> <PUBCHEM_FEATURE_SELFOVERLAP>
30.448

> <PUBCHEM_SHAPE_FINGERPRINT>
10014705 185 18342742892552265479
100836 57 18202560666348809628
10354089 29 18201995525888201336
10803635 8 14706926267716267837
11046707 91 11312053240893460027
11089746 13 17967256377922847760
12236239 1 18186803594901298355
12507557 5 18060132129136608569
12596602 18 13830128382315244324
13288520 33 9583522014430507049
13675066 3 17418371402338532183
1420 363 7637402943142638204
1420 369 9655578521467396656
14528608 73 17676774197377581728
14849402 71 12678880305137862382
15183329 4 18187640341126302670
15188451 53 14764055711132709769
167882 2 17750223871667899758
17857418 61 9799693679621003544
17870717 6 14851604375923243397
1813 80 9511176408497237267
18186145 218 18272650155768429562
18222031 100 5689594979350449986
193927 3 8502379970142820648
19489759 90 16370723746655688369
20281389 69 18202568367204351588
20300324 65 17167865270726567977
20325693 3 16225766324884809677
20432913 95 9295290555651826061
20645477 56 17917714590971084423
20645477 70 18411419557355465446
21033648 29 17845950579639485317
21033650 10 16734080462578575784
212847 35 18408605877013590720
23198884 109 17748825215498735261
23402539 116 17748828531134476760
23402655 69 18409167684669163422
23559900 14 17168153299607003914
2916195 48 17775287131916929040
29717793 49 17676200300074509284
300161 21 18333735702235469336
3268164 11 16443068335188885121
3545911 37 18412822465039890682
4214541 1 18411136896534809675
4325135 7 18408603631357721967
5104073 3 18272656697536268154
542803 24 18040152924421862968
5924683 9 17059765612542313555
633830 44 18188483709273219399
90127 26 17704070728482227904

> <PUBCHEM_SHAPE_MULTIPOLES>
334.02
13.84
1.52
1
5.74
0.26
0.01
-6.09
0.68
0.37
0.09
-1.39
-0.1
-0.55

> <PUBCHEM_SHAPE_SELFOVERLAP>
703.012

> <PUBCHEM_SHAPE_VOLUME>
187.2

> <PUBCHEM_COORDINATE_TYPE>
2
5
10

$$$$

