6800
  -OEChem-06261201313D

 18 18  0     0  0  0  0  0  0999 V2000
   -1.4504    2.8344    0.2515 Br  0  0  0  0  0  0  0  0  0  0  0  0
   -1.4520   -2.8335    0.2503 Br  0  0  0  0  0  0  0  0  0  0  0  0
    1.8896   -2.8826   -0.0756 Br  0  0  0  0  0  0  0  0  0  0  0  0
    1.8909    2.8817   -0.0765 Br  0  0  0  0  0  0  0  0  0  0  0  0
    3.5581   -0.0008   -0.2400 Br  0  0  0  0  0  0  0  0  0  0  0  0
   -1.1340    0.0003    0.2206 C   0  0  0  0  0  0  0  0  0  0  0  0
   -2.6279    0.0006    0.3671 C   0  0  0  0  0  0  0  0  0  0  0  0
   -0.4395    1.2082    0.1521 C   0  0  0  0  0  0  0  0  0  0  0  0
   -0.4400   -1.2078    0.1528 C   0  0  0  0  0  0  0  0  0  0  0  0
   -3.3339    0.0003   -0.9821 C   0  0  0  0  0  0  0  0  0  0  0  0
    0.9482   -1.2081    0.0163 C   0  0  0  0  0  0  0  0  0  0  0  0
    0.9487    1.2078    0.0157 C   0  0  0  0  0  0  0  0  0  0  0  0
    1.6425   -0.0004   -0.0522 C   0  0  0  0  0  0  0  0  0  0  0  0
   -2.9871   -0.8399    0.9693 H   0  0  0  0  0  0  0  0  0  0  0  0
   -2.9869    0.8415    0.9688 H   0  0  0  0  0  0  0  0  0  0  0  0
   -3.0777    0.8825   -1.5772 H   0  0  0  0  0  0  0  0  0  0  0  0
   -4.4192    0.0004   -0.8363 H   0  0  0  0  0  0  0  0  0  0  0  0
   -3.0778   -0.8822   -1.5769 H   0  0  0  0  0  0  0  0  0  0  0  0
  1  8  1  0  0  0  0
  2  9  1  0  0  0  0
  3 11  1  0  0  0  0
  4 12  1  0  0  0  0
  5 13  1  0  0  0  0
  6  7  1  0  0  0  0
  6  8  2  0  0  0  0
  6  9  1  0  0  0  0
  7 10  1  0  0  0  0
  7 14  1  0  0  0  0
  7 15  1  0  0  0  0
  8 12  1  0  0  0  0
  9 11  2  0  0  0  0
 10 16  1  0  0  0  0
 10 17  1  0  0  0  0
 10 18  1  0  0  0  0
 11 13  1  0  0  0  0
 12 13  2  0  0  0  0
M  END
> <PUBCHEM_COMPOUND_CID>
6800

> <PUBCHEM_CONFORMER_RMSD>
0.4

> <PUBCHEM_CONFORMER_DIVERSEORDER>
1

> <PUBCHEM_MMFF94_PARTIAL_CHARGES>
12
1 -0.11
11 0.11
12 0.11
13 0.11
2 -0.11
3 -0.11
4 -0.11
5 -0.11
6 -0.14
7 0.14
8 0.11
9 0.11

> <PUBCHEM_EFFECTIVE_ROTOR_COUNT>
1

> <PUBCHEM_PHARMACOPHORE_FEATURES>
7
1 1 hydrophobe
1 10 hydrophobe
1 2 hydrophobe
1 3 hydrophobe
1 4 hydrophobe
1 5 hydrophobe
6 6 8 9 11 12 13 rings

> <PUBCHEM_HEAVY_ATOM_COUNT>
13

> <PUBCHEM_ATOM_DEF_STEREO_COUNT>
0

> <PUBCHEM_ATOM_UDEF_STEREO_COUNT>
0

> <PUBCHEM_BOND_DEF_STEREO_COUNT>
0

> <PUBCHEM_BOND_UDEF_STEREO_COUNT>
0

> <PUBCHEM_ISOTOPIC_ATOM_COUNT>
0

> <PUBCHEM_COMPONENT_COUNT>
1

> <PUBCHEM_CACTVS_TAUTO_COUNT>
1

> <PUBCHEM_CONFORMER_ID>
00001A9000000001

> <PUBCHEM_MMFF94_ENERGY>
43.8319

> <PUBCHEM_FEATURE_SELFOVERLAP>
35.521

> <PUBCHEM_SHAPE_FINGERPRINT>
10967382 1 18410853269758150922
11206711 2 18339074994571071580
11680986 33 18265616477165001512
12423570 1 6905758068866728657
13140716 1 18266736874901967338
13380535 76 18411422808360787474
13897977 150 18266458711255611012
14911166 2 18411418401644629662
16945 1 18410569587220984690
193761 8 18410851075056223488
20588541 1 18411696586644983086
21501502 16 18121780801012340930
2334 1 17977945679090063186
23402539 116 18263093243897198630
23419403 2 16902220052587743632
23526114 1 18122343471740166524
23559900 14 18335412419393708828
241688 4 17906172102570364152
2748010 2 18122340168894459120

> <PUBCHEM_SHAPE_MULTIPOLES>
297.25
4.48
3.99
0.77
0.3
0
0.06
0
0.78
0.57
-0.28
-0.23
0
0

> <PUBCHEM_SHAPE_SELFOVERLAP>
544.221

> <PUBCHEM_SHAPE_VOLUME>
191.4

> <PUBCHEM_COORDINATE_TYPE>
2
5
10

$$$$

