442750
  -OEChem-07051212593D

 43 45  0     0  0  0  0  0  0999 V2000
    1.4722    2.1892    0.6920 O   0  0  0  0  0  0  0  0  0  0  0  0
    3.2984   -2.2066    0.6284 O   0  0  0  0  0  0  0  0  0  0  0  0
   -1.0404    2.4106    0.3509 O   0  0  0  0  0  0  0  0  0  0  0  0
   -1.6278   -2.8796   -0.1273 O   0  0  0  0  0  0  0  0  0  0  0  0
   -3.5471    2.8072    0.0186 O   0  0  0  0  0  0  0  0  0  0  0  0
   -0.0035    0.3019    0.3421 C   0  0  0  0  0  0  0  0  0  0  0  0
   -0.1576   -1.0804    0.2178 C   0  0  0  0  0  0  0  0  0  0  0  0
   -2.5081    0.6116    0.0054 C   0  0  0  0  0  0  0  0  0  0  0  0
   -2.6622   -0.7707   -0.1190 C   0  0  0  0  0  0  0  0  0  0  0  0
    2.3775    0.0061    0.6615 C   0  0  0  0  0  0  0  0  0  0  0  0
    1.2673    0.8455    0.5647 C   0  0  0  0  0  0  0  0  0  0  0  0
   -1.1730    1.1984    0.2408 C   0  0  0  0  0  0  0  0  0  0  0  0
   -1.4928   -1.6673   -0.0170 C   0  0  0  0  0  0  0  0  0  0  0  0
    0.9591   -1.9191    0.3155 C   0  0  0  0  0  0  0  0  0  0  0  0
    2.2237   -1.3733    0.5372 C   0  0  0  0  0  0  0  0  0  0  0  0
    3.7380    0.5812    0.8991 C   0  0  0  0  0  0  0  0  0  0  0  0
   -3.9331   -1.3143   -0.3420 C   0  0  0  0  0  0  0  0  0  0  0  0
   -3.6247    1.4504   -0.0936 C   0  0  0  0  0  0  0  0  0  0  0  0
   -5.0430   -0.4749   -0.4399 C   0  0  0  0  0  0  0  0  0  0  0  0
   -4.8892    0.9045   -0.3159 C   0  0  0  0  0  0  0  0  0  0  0  0
    4.4657    0.9074   -0.3801 C   0  0  0  0  0  0  0  0  0  0  0  0
   -6.3966   -1.0551   -0.6771 C   0  0  0  0  0  0  0  0  0  0  0  0
    5.6273    0.3941   -0.8281 C   0  0  0  0  0  0  0  0  0  0  0  0
    6.2999    0.7661   -2.1191 C   0  0  0  0  0  0  0  0  0  0  0  0
    6.3701   -0.6328   -0.0150 C   0  0  0  0  0  0  0  0  0  0  0  0
    0.8504   -2.9968    0.2199 H   0  0  0  0  0  0  0  0  0  0  0  0
    3.6765    1.4977    1.5004 H   0  0  0  0  0  0  0  0  0  0  0  0
    4.2974   -0.0829    1.5627 H   0  0  0  0  0  0  0  0  0  0  0  0
   -4.0667   -2.3887   -0.4425 H   0  0  0  0  0  0  0  0  0  0  0  0
   -5.7533    1.5604   -0.3935 H   0  0  0  0  0  0  0  0  0  0  0  0
    3.9843    1.6568   -1.0077 H   0  0  0  0  0  0  0  0  0  0  0  0
   -6.5734   -1.1686   -1.7513 H   0  0  0  0  0  0  0  0  0  0  0  0
   -6.4942   -2.0355   -0.1986 H   0  0  0  0  0  0  0  0  0  0  0  0
   -7.1816   -0.4158   -0.2590 H   0  0  0  0  0  0  0  0  0  0  0  0
    2.3303    2.4395    0.3153 H   0  0  0  0  0  0  0  0  0  0  0  0
    3.0004   -3.1254    0.5157 H   0  0  0  0  0  0  0  0  0  0  0  0
   -2.6328    3.0887    0.1700 H   0  0  0  0  0  0  0  0  0  0  0  0
    5.7328    1.5284   -2.6633 H   0  0  0  0  0  0  0  0  0  0  0  0
    7.3002    1.1671   -1.9265 H   0  0  0  0  0  0  0  0  0  0  0  0
    6.3918   -0.1098   -2.7691 H   0  0  0  0  0  0  0  0  0  0  0  0
    5.8158   -1.0791    0.8092 H   0  0  0  0  0  0  0  0  0  0  0  0
    6.6663   -1.4674   -0.6613 H   0  0  0  0  0  0  0  0  0  0  0  0
    7.2829   -0.1885    0.3965 H   0  0  0  0  0  0  0  0  0  0  0  0
  1 11  1  0  0  0  0
  1 35  1  0  0  0  0
  2 15  1  0  0  0  0
  2 36  1  0  0  0  0
  3 12  2  0  0  0  0
  4 13  2  0  0  0  0
  5 18  1  0  0  0  0
  5 37  1  0  0  0  0
  6  7  1  0  0  0  0
  6 11  2  0  0  0  0
  6 12  1  0  0  0  0
  7 13  1  0  0  0  0
  7 14  2  0  0  0  0
  8  9  2  0  0  0  0
  8 12  1  0  0  0  0
  8 18  1  0  0  0  0
  9 13  1  0  0  0  0
  9 17  1  0  0  0  0
 10 11  1  0  0  0  0
 10 15  2  0  0  0  0
 10 16  1  0  0  0  0
 14 15  1  0  0  0  0
 14 26  1  0  0  0  0
 16 21  1  0  0  0  0
 16 27  1  0  0  0  0
 16 28  1  0  0  0  0
 17 19  2  0  0  0  0
 17 29  1  0  0  0  0
 18 20  2  0  0  0  0
 19 20  1  0  0  0  0
 19 22  1  0  0  0  0
 20 30  1  0  0  0  0
 21 23  2  0  0  0  0
 21 31  1  0  0  0  0
 22 32  1  0  0  0  0
 22 33  1  0  0  0  0
 22 34  1  0  0  0  0
 23 24  1  0  0  0  0
 23 25  1  0  0  0  0
 24 38  1  0  0  0  0
 24 39  1  0  0  0  0
 24 40  1  0  0  0  0
 25 41  1  0  0  0  0
 25 42  1  0  0  0  0
 25 43  1  0  0  0  0
M  END
> <PUBCHEM_COMPOUND_CID>
442750

> <PUBCHEM_CONFORMER_RMSD>
0.6

> <PUBCHEM_CONFORMER_DIVERSEORDER>
1
8
9
4
6
2
7
3
5

> <PUBCHEM_MMFF94_PARTIAL_CHARGES>
32
1 -0.53
10 -0.14
11 0.08
12 0.4
13 0.4
14 -0.15
15 0.08
16 0.28
17 -0.15
18 0.08
19 -0.14
2 -0.53
20 -0.15
21 -0.29
22 0.14
23 -0.28
24 0.14
25 0.14
26 0.15
29 0.15
3 -0.57
30 0.15
31 0.15
35 0.45
36 0.45
37 0.45
4 -0.57
5 -0.53
6 0.09
7 0.09
8 0.09
9 0.09

> <PUBCHEM_EFFECTIVE_ROTOR_COUNT>
2

> <PUBCHEM_PHARMACOPHORE_FEATURES>
9
1 1 donor
1 2 donor
1 3 acceptor
1 4 acceptor
1 5 donor
3 23 24 25 hydrophobe
6 6 7 10 11 14 15 rings
6 6 7 8 9 12 13 rings
6 8 9 17 18 19 20 rings

> <PUBCHEM_HEAVY_ATOM_COUNT>
25

> <PUBCHEM_ATOM_DEF_STEREO_COUNT>
0

> <PUBCHEM_ATOM_UDEF_STEREO_COUNT>
0

> <PUBCHEM_BOND_DEF_STEREO_COUNT>
0

> <PUBCHEM_BOND_UDEF_STEREO_COUNT>
0

> <PUBCHEM_ISOTOPIC_ATOM_COUNT>
0

> <PUBCHEM_COMPONENT_COUNT>
1

> <PUBCHEM_CACTVS_TAUTO_COUNT>
135

> <PUBCHEM_CONFORMER_ID>
0006C17E00000001

> <PUBCHEM_MMFF94_ENERGY>
74.4835

> <PUBCHEM_FEATURE_SELFOVERLAP>
45.711

> <PUBCHEM_SHAPE_FINGERPRINT>
10366900 7 18342742888468262793
10591671 39 18272928289429382567
10670039 82 18341610438868519732
10759866 29 18201159952970264034
10906281 52 18338221756610654187
10967382 1 18337682931820493067
12011746 2 18408606942012427703
12236239 1 17846499223066756190
12390115 104 18187919642754888865
12788726 201 18041277784994437697
12954195 1 17968363654635340432
13140716 1 18050304573647379899
13862211 1 18408327683138641018
14528608 73 18343018878924866300
14617045 38 18410854348022048931
14790565 3 18339076098567388600
14840074 17 17346590859840783124
14931854 50 18410862070531249759
15131766 46 16342570631805723622
15183329 4 18410005546947283022
15196674 1 18337961189787571203
15575132 122 17775568658280462188
1601671 61 18413392042539462156
18608769 82 18269832030589974019
18681886 176 18409736127917729832
19319366 153 18131637789807539898
19591789 44 18337400447516223611
21267235 1 18336263449640526923
21279426 13 18262799708657602126
22122407 14 15769769165257090013
221357 26 18260269628964281913
22393880 68 18261398840496605540
2297311 6 18186796968178535629
23175994 123 16950281780259772105
23522609 53 18264745792388727272
23559900 14 18190469267916263304
25147074 1 18269557303006346370
3004659 81 18342457080576698034
335352 9 18409170978249644646
34797466 226 17458625576021111688
350125 39 18410295830944440433
3545911 37 18411984645832951843
4058900 60 17988362684327982107
4325135 7 18343022198464970911
474 4 17489582347206955436
5104073 3 18337117872958995987

> <PUBCHEM_SHAPE_MULTIPOLES>
485.14
14
2.45
0.98
7.55
0.03
-0.35
0.54
-5.94
-1.37
0.26
1.4
0.15
-0.89

> <PUBCHEM_SHAPE_SELFOVERLAP>
1072.821

> <PUBCHEM_SHAPE_VOLUME>
260.5

> <PUBCHEM_COORDINATE_TYPE>
2
5
10

$$$$

