46174001
  -OEChem-07051213113D

 26 27  0     1  0  0  0  0  0999 V2000
    0.0090    2.8611   -0.6166 O   0  0  0  0  0  0  0  0  0  0  0  0
    1.1166   -2.1885   -0.7603 O   0  0  0  0  0  0  0  0  0  0  0  0
   -1.6404   -0.4564    0.2244 C   0  0  0  0  0  0  0  0  0  0  0  0
   -1.1087    0.7598   -0.4884 C   0  0  2  0  0  0  0  0  0  0  0  0
   -0.6120   -0.6057   -0.8673 C   0  0  1  0  0  0  0  0  0  0  0  0
   -0.1707    1.7011    0.2006 C   0  0  1  0  0  0  0  0  0  0  0  0
   -1.1794   -0.6809    1.6256 C   0  0  0  0  0  0  0  0  0  0  0  0
   -3.0453   -0.9032   -0.0080 C   0  0  0  0  0  0  0  0  0  0  0  0
    0.7535   -1.0475   -0.5007 C   0  0  0  0  0  0  0  0  0  0  0  0
    1.2008    1.1613    0.4903 C   0  0  0  0  0  0  0  0  0  0  0  0
    1.6457   -0.0682    0.1851 C   0  0  0  0  0  0  0  0  0  0  0  0
    3.0309   -0.5329    0.5152 C   0  0  0  0  0  0  0  0  0  0  0  0
   -1.7902    1.2639   -1.1648 H   0  0  0  0  0  0  0  0  0  0  0  0
   -0.9545   -0.9790   -1.8288 H   0  0  0  0  0  0  0  0  0  0  0  0
   -0.6186    2.0468    1.1395 H   0  0  0  0  0  0  0  0  0  0  0  0
   -3.7397   -0.3473    0.6308 H   0  0  0  0  0  0  0  0  0  0  0  0
   -3.1535   -1.9703    0.2131 H   0  0  0  0  0  0  0  0  0  0  0  0
   -1.9192   -0.2660    2.3218 H   0  0  0  0  0  0  0  0  0  0  0  0
   -0.2257   -0.2653    1.9399 H   0  0  0  0  0  0  0  0  0  0  0  0
   -1.1299   -1.7584    1.8252 H   0  0  0  0  0  0  0  0  0  0  0  0
   -3.3548   -0.7471   -1.0472 H   0  0  0  0  0  0  0  0  0  0  0  0
    1.8756    1.8476    0.9989 H   0  0  0  0  0  0  0  0  0  0  0  0
   -0.8491    3.3156   -0.6728 H   0  0  0  0  0  0  0  0  0  0  0  0
    3.6169    0.2447    1.0165 H   0  0  0  0  0  0  0  0  0  0  0  0
    2.9942   -1.4013    1.1811 H   0  0  0  0  0  0  0  0  0  0  0  0
    3.5667   -0.8153   -0.3970 H   0  0  0  0  0  0  0  0  0  0  0  0
  1  6  1  0  0  0  0
  1 23  1  0  0  0  0
  2  9  2  0  0  0  0
  3  4  1  0  0  0  0
  3  5  1  0  0  0  0
  3  7  1  0  0  0  0
  3  8  1  0  0  0  0
  4  5  1  0  0  0  0
  4  6  1  0  0  0  0
  4 13  1  0  0  0  0
  5  9  1  0  0  0  0
  5 14  1  0  0  0  0
  6 10  1  0  0  0  0
  6 15  1  0  0  0  0
  7 18  1  0  0  0  0
  7 19  1  0  0  0  0
  7 20  1  0  0  0  0
  8 16  1  0  0  0  0
  8 17  1  0  0  0  0
  8 21  1  0  0  0  0
  9 11  1  0  0  0  0
 10 11  2  0  0  0  0
 10 22  1  0  0  0  0
 11 12  1  0  0  0  0
 12 24  1  0  0  0  0
 12 25  1  0  0  0  0
 12 26  1  0  0  0  0
M  END
> <PUBCHEM_COMPOUND_CID>
46174001

> <PUBCHEM_CONFORMER_RMSD>
0.4

> <PUBCHEM_CONFORMER_DIVERSEORDER>
1

> <PUBCHEM_MMFF94_PARTIAL_CHARGES>
16
1 -0.68
10 -0.29
11 -0.12
12 0.14
13 0.1
14 0.1
2 -0.57
22 0.15
23 0.4
3 -0.19
4 -0.19
5 -0.1
6 0.51
7 0.09
8 0.09
9 0.56

> <PUBCHEM_EFFECTIVE_ROTOR_COUNT>
0.4

> <PUBCHEM_PHARMACOPHORE_FEATURES>
5
1 1 acceptor
1 1 donor
1 2 acceptor
3 3 7 8 hydrophobe
7 3 4 5 6 9 10 11 rings

> <PUBCHEM_HEAVY_ATOM_COUNT>
12

> <PUBCHEM_ATOM_DEF_STEREO_COUNT>
3

> <PUBCHEM_ATOM_UDEF_STEREO_COUNT>
0

> <PUBCHEM_BOND_DEF_STEREO_COUNT>
0

> <PUBCHEM_BOND_UDEF_STEREO_COUNT>
0

> <PUBCHEM_ISOTOPIC_ATOM_COUNT>
0

> <PUBCHEM_COMPONENT_COUNT>
1

> <PUBCHEM_CACTVS_TAUTO_COUNT>
2

> <PUBCHEM_CONFORMER_ID>
02C08F3100000001

> <PUBCHEM_MMFF94_ENERGY>
28.8821

> <PUBCHEM_FEATURE_SELFOVERLAP>
25.371

> <PUBCHEM_SHAPE_FINGERPRINT>
10219947 1 18335985263938819539
10702982 57 17113241253374286901
12138202 97 17984152731318934748
12423570 1 7888887429950313953
13024252 1 17489308650025718714
137420 1 16833818145897120517
14993402 34 18190739734996685108
15219459 52 17976548208316880519
16945 1 17822015293649430423
21040471 1 17469884381251637021
241688 4 18266732678687315881
2748010 2 18337408057871282972
29004967 10 18409445882037363475
369184 2 18059863912459923882
430814 3 17109270981384731033
5084963 1 17822569404465256538
528862 383 18052258392840847216
528886 8 18261691327732474935
81228 2 18126273379664362049

> <PUBCHEM_SHAPE_MULTIPOLES>
235.22
3.21
2.11
1.05
0.05
1.18
-0.27
-1.29
-0.55
-0.46
0.53
0.2
-0.19
0.22

> <PUBCHEM_SHAPE_SELFOVERLAP>
494.495

> <PUBCHEM_SHAPE_VOLUME>
134

> <PUBCHEM_COORDINATE_TYPE>
2
5
10

$$$$

