151104
  -OEChem-07051212453D

 27 26  0     1  0  0  0  0  0999 V2000
   -3.1215    0.4067   -0.3225 P   0  0  0  0  0  0  0  0  0  0  0  0
    1.2092    0.9930    1.4563 O   0  0  0  0  0  0  0  0  0  0  0  0
    0.5000   -2.0244   -0.5072 O   0  0  0  0  0  0  0  0  0  0  0  0
    2.9941   -1.1319   -0.8893 O   0  0  0  0  0  0  0  0  0  0  0  0
   -1.5758   -0.0722   -0.3395 O   0  0  0  0  0  0  0  0  0  0  0  0
    3.4703    1.6383   -1.0425 O   0  0  0  0  0  0  0  0  0  0  0  0
   -3.2475    1.2492    1.0522 O   0  0  0  0  0  0  0  0  0  0  0  0
   -3.9188   -0.9614    0.0055 O   0  0  0  0  0  0  0  0  0  0  0  0
   -3.5769    1.1248   -1.5592 O   0  0  0  0  0  0  0  0  0  0  0  0
    1.3308    0.0739    0.3639 C   0  0  2  0  0  0  0  0  0  0  0  0
    0.4017   -1.1321    0.6009 C   0  0  1  0  0  0  0  0  0  0  0  0
    2.8233   -0.2941    0.2616 C   0  0  2  0  0  0  0  0  0  0  0  0
   -1.0686   -0.7585    0.7936 C   0  0  0  0  0  0  0  0  0  0  0  0
    3.7797    0.8889    0.1262 C   0  0  0  0  0  0  0  0  0  0  0  0
    1.0247    0.5879   -0.5551 H   0  0  0  0  0  0  0  0  0  0  0  0
    0.7357   -1.6717    1.4956 H   0  0  0  0  0  0  0  0  0  0  0  0
    3.1275   -0.8683    1.1453 H   0  0  0  0  0  0  0  0  0  0  0  0
   -1.6567   -1.6714    0.9354 H   0  0  0  0  0  0  0  0  0  0  0  0
   -1.1852   -0.1317    1.6832 H   0  0  0  0  0  0  0  0  0  0  0  0
    4.8126    0.5393    0.0259 H   0  0  0  0  0  0  0  0  0  0  0  0
    3.7239    1.5561    0.9909 H   0  0  0  0  0  0  0  0  0  0  0  0
    1.4564    0.5208    2.2698 H   0  0  0  0  0  0  0  0  0  0  0  0
   -0.0506   -2.8012   -0.3102 H   0  0  0  0  0  0  0  0  0  0  0  0
    2.5387   -1.9721   -0.7121 H   0  0  0  0  0  0  0  0  0  0  0  0
    3.5104    1.0283   -1.7988 H   0  0  0  0  0  0  0  0  0  0  0  0
   -4.0925    1.7047    1.2539 H   0  0  0  0  0  0  0  0  0  0  0  0
   -4.8994   -0.9568   -0.0188 H   0  0  0  0  0  0  0  0  0  0  0  0
  1  5  1  0  0  0  0
  1  7  1  0  0  0  0
  1  8  1  0  0  0  0
  1  9  2  0  0  0  0
  2 10  1  0  0  0  0
  2 22  1  0  0  0  0
  3 11  1  0  0  0  0
  3 23  1  0  0  0  0
  4 12  1  0  0  0  0
  4 24  1  0  0  0  0
  5 13  1  0  0  0  0
  6 14  1  0  0  0  0
  6 25  1  0  0  0  0
  7 26  1  0  0  0  0
  8 27  1  0  0  0  0
 10 11  1  0  0  0  0
 10 12  1  0  0  0  0
 10 15  1  0  0  0  0
 11 13  1  0  0  0  0
 11 16  1  0  0  0  0
 12 14  1  0  0  0  0
 12 17  1  0  0  0  0
 13 18  1  0  0  0  0
 13 19  1  0  0  0  0
 14 20  1  0  0  0  0
 14 21  1  0  0  0  0
M  END
> <PUBCHEM_COMPOUND_CID>
151104

> <PUBCHEM_CONFORMER_RMSD>
0.6

> <PUBCHEM_CONFORMER_DIVERSEORDER>
41
97
11
63
61
33
71
80
78
94
83
64
95
13
36
24
60
49
31
39
67
56
96
87
2
93
54
32
27
65
20
5
88
22
81
44
10
70
86
40
76
52
23
42
46
90
8
38
12
57
45
30
58
16
55
47
29
92
19
51
14
84
26
37
43
50
59
91
53
34
68
77
82
69
1
25
18
89
4
66
28
79
9
85
15
74
17
62
7
48
21
3
75
35
72
73
6

> <PUBCHEM_MMFF94_PARTIAL_CHARGES>
20
1 1.51
10 0.28
11 0.28
12 0.28
13 0.28
14 0.28
2 -0.68
22 0.4
23 0.4
24 0.4
25 0.4
26 0.5
27 0.5
3 -0.68
4 -0.68
5 -0.55
6 -0.68
7 -0.77
8 -0.77
9 -0.7

> <PUBCHEM_EFFECTIVE_ROTOR_COUNT>
6

> <PUBCHEM_PHARMACOPHORE_FEATURES>
12
1 2 acceptor
1 2 donor
1 3 acceptor
1 3 donor
1 4 acceptor
1 4 donor
1 6 acceptor
1 6 donor
1 7 acceptor
1 8 acceptor
1 9 acceptor
4 1 7 8 9 anion

> <PUBCHEM_HEAVY_ATOM_COUNT>
14

> <PUBCHEM_ATOM_DEF_STEREO_COUNT>
3

> <PUBCHEM_ATOM_UDEF_STEREO_COUNT>
0

> <PUBCHEM_BOND_DEF_STEREO_COUNT>
0

> <PUBCHEM_BOND_UDEF_STEREO_COUNT>
0

> <PUBCHEM_ISOTOPIC_ATOM_COUNT>
0

> <PUBCHEM_COMPONENT_COUNT>
1

> <PUBCHEM_CACTVS_TAUTO_COUNT>
1

> <PUBCHEM_CONFORMER_ID>
00024E4000000029

> <PUBCHEM_MMFF94_ENERGY>
-4.743

> <PUBCHEM_FEATURE_SELFOVERLAP>
60.951

> <PUBCHEM_SHAPE_FINGERPRINT>
10498660 4 18202291320286247469
11031198 65 18261109673159660254
11543360 7 15140967210096198072
11769659 78 6266635161191035564
12251169 10 12103850038245388192
13705890 14 17385725807193960630
14251710 61 6915992477638126212
14252887 29 11023830600046537080
14325111 11 18409448085244810051
14350558 41 5617262549954402072
15375462 189 9151167666778684180
15775835 57 18335140877552545550
17834072 32 17917156095305373037
18186145 218 18339918311583893358
20281407 28 6771865190375328311
20645477 70 18114455747427778918
20671657 53 14273449267432030776
21293036 1 18114179705315119986
21524375 3 18342461404664454730
231179 274 17917437561311944228
23402539 116 18270695211594210452
23402655 69 18113620109625765577
25 1 18334573568323454402
2748010 2 17318455289446800914
3248919 1 18116165535364023163
8030462 33 17605010254775313587

> <PUBCHEM_SHAPE_MULTIPOLES>
245.01
7.5
1.58
1.15
1.96
0.12
0.02
-2.81
-1.57
-0.31
-0.28
0.22
-0.29
0.2

> <PUBCHEM_SHAPE_SELFOVERLAP>
452.089

> <PUBCHEM_SHAPE_VOLUME>
154.8

> <PUBCHEM_COORDINATE_TYPE>
2
5
10

$$$$

