49787014
  -OEChem-07051212553D

 45 46  0     1  0  0  0  0  0999 V2000
    1.7750   -0.7062    0.6933 O   0  0  0  0  0  0  0  0  0  0  0  0
   -0.3403    0.2796    0.7442 O   0  0  0  0  0  0  0  0  0  0  0  0
    3.6007    2.9597    0.3547 O   0  0  0  0  0  0  0  0  0  0  0  0
    0.7871    2.6723   -0.3294 O   0  0  0  0  0  0  0  0  0  0  0  0
    5.0676    0.5804   -0.3041 O   0  0  0  0  0  0  0  0  0  0  0  0
   -3.1605   -2.0474    0.5078 O   0  0  0  0  0  0  0  0  0  0  0  0
    3.0518   -3.1148    0.4084 O   0  0  0  0  0  0  0  0  0  0  0  0
   -1.0412    0.0825   -2.3052 O   0  0  0  0  0  0  0  0  0  0  0  0
   -4.5547    1.8534    0.2709 O   0  0  0  0  0  0  0  0  0  0  0  0
   -3.2793    0.1601    1.2396 N   0  0  0  0  0  0  0  0  0  0  0  0
    0.1121   -2.7417   -0.6790 N   0  0  0  0  0  0  0  0  0  0  0  0
    2.9946    1.7603   -0.1302 C   0  0  2  0  0  0  0  0  0  0  0  0
    1.5513    1.6900    0.3687 C   0  0  2  0  0  0  0  0  0  0  0  0
    3.8113    0.5681    0.3689 C   0  0  1  0  0  0  0  0  0  0  0  0
    0.9464    0.3070    0.1280 C   0  0  1  0  0  0  0  0  0  0  0  0
    3.0741   -0.7459    0.1000 C   0  0  1  0  0  0  0  0  0  0  0  0
   -1.2335   -0.5955    0.0462 C   0  0  1  0  0  0  0  0  0  0  0  0
   -2.3718   -0.9708    1.0148 C   0  0  2  0  0  0  0  0  0  0  0  0
    3.8028   -1.9484    0.6920 C   0  0  0  0  0  0  0  0  0  0  0  0
   -1.7866    0.1475   -1.1422 C   0  0  0  0  0  0  0  0  0  0  0  0
   -2.9296    0.8451   -1.0795 C   0  0  0  0  0  0  0  0  0  0  0  0
   -3.6697    1.0017    0.2020 C   0  0  0  0  0  0  0  0  0  0  0  0
   -0.4804   -1.7967   -0.3597 C   0  0  0  0  0  0  0  0  0  0  0  0
   -3.9259    0.2456    2.5411 C   0  0  0  0  0  0  0  0  0  0  0  0
   -1.8011   -0.4860   -3.3515 C   0  0  0  0  0  0  0  0  0  0  0  0
    3.0270    1.8244   -1.2244 H   0  0  0  0  0  0  0  0  0  0  0  0
    1.5010    1.9489    1.4331 H   0  0  0  0  0  0  0  0  0  0  0  0
    4.0128    0.6817    1.4410 H   0  0  0  0  0  0  0  0  0  0  0  0
    0.8951    0.1717   -0.9585 H   0  0  0  0  0  0  0  0  0  0  0  0
    2.9608   -0.9185   -0.9790 H   0  0  0  0  0  0  0  0  0  0  0  0
   -1.9531   -1.2774    1.9819 H   0  0  0  0  0  0  0  0  0  0  0  0
    3.8825   -1.8590    1.7805 H   0  0  0  0  0  0  0  0  0  0  0  0
    4.8034   -2.0599    0.2635 H   0  0  0  0  0  0  0  0  0  0  0  0
    3.5802    2.9370    1.3267 H   0  0  0  0  0  0  0  0  0  0  0  0
    0.7934    2.4446   -1.2747 H   0  0  0  0  0  0  0  0  0  0  0  0
    4.9022    0.4387   -1.2518 H   0  0  0  0  0  0  0  0  0  0  0  0
   -3.3086    1.4056   -1.9270 H   0  0  0  0  0  0  0  0  0  0  0  0
   -3.1568    0.2763    3.3180 H   0  0  0  0  0  0  0  0  0  0  0  0
   -4.5444    1.1437    2.6180 H   0  0  0  0  0  0  0  0  0  0  0  0
   -4.5595   -0.6341    2.6830 H   0  0  0  0  0  0  0  0  0  0  0  0
   -3.9084   -2.1647    1.1167 H   0  0  0  0  0  0  0  0  0  0  0  0
    3.5312   -3.8664    0.7968 H   0  0  0  0  0  0  0  0  0  0  0  0
   -2.3039   -1.4102   -3.0423 H   0  0  0  0  0  0  0  0  0  0  0  0
   -2.5274    0.2276   -3.7543 H   0  0  0  0  0  0  0  0  0  0  0  0
   -1.1136   -0.7422   -4.1639 H   0  0  0  0  0  0  0  0  0  0  0  0
  1 15  1  0  0  0  0
  1 16  1  0  0  0  0
  2 15  1  0  0  0  0
  2 17  1  0  0  0  0
  3 12  1  0  0  0  0
  3 34  1  0  0  0  0
  4 13  1  0  0  0  0
  4 35  1  0  0  0  0
  5 14  1  0  0  0  0
  5 36  1  0  0  0  0
  6 18  1  0  0  0  0
  6 41  1  0  0  0  0
  7 19  1  0  0  0  0
  7 42  1  0  0  0  0
  8 20  1  0  0  0  0
  8 25  1  0  0  0  0
  9 22  2  0  0  0  0
 10 18  1  0  0  0  0
 10 22  1  0  0  0  0
 10 24  1  0  0  0  0
 11 23  3  0  0  0  0
 12 13  1  0  0  0  0
 12 14  1  0  0  0  0
 12 26  1  0  0  0  0
 13 15  1  0  0  0  0
 13 27  1  0  0  0  0
 14 16  1  0  0  0  0
 14 28  1  0  0  0  0
 15 29  1  0  0  0  0
 16 19  1  0  0  0  0
 16 30  1  0  0  0  0
 17 18  1  0  0  0  0
 17 20  1  0  0  0  0
 17 23  1  0  0  0  0
 18 31  1  0  0  0  0
 19 32  1  0  0  0  0
 19 33  1  0  0  0  0
 20 21  2  0  0  0  0
 21 22  1  0  0  0  0
 21 37  1  0  0  0  0
 24 38  1  0  0  0  0
 24 39  1  0  0  0  0
 24 40  1  0  0  0  0
 25 43  1  0  0  0  0
 25 44  1  0  0  0  0
 25 45  1  0  0  0  0
M  END
> <PUBCHEM_COMPOUND_CID>
49787014

> <PUBCHEM_CONFORMER_RMSD>
0.8

> <PUBCHEM_CONFORMER_DIVERSEORDER>
1
7
8
9
11
10
5
6
4
2
3

> <PUBCHEM_MMFF94_PARTIAL_CHARGES>
31
1 -0.56
10 -0.66
11 -0.56
12 0.28
13 0.28
14 0.28
15 0.56
16 0.28
17 0.62
18 0.58
19 0.28
2 -0.56
20 -0.06
21 -0.14
22 0.62
23 0.36
24 0.3
25 0.28
3 -0.68
34 0.4
35 0.4
36 0.4
37 0.15
4 -0.68
41 0.4
42 0.4
5 -0.68
6 -0.68
7 -0.68
8 -0.36
9 -0.57

> <PUBCHEM_EFFECTIVE_ROTOR_COUNT>
5.8

> <PUBCHEM_PHARMACOPHORE_FEATURES>
17
1 1 acceptor
1 11 acceptor
1 2 acceptor
1 3 acceptor
1 3 donor
1 4 acceptor
1 4 donor
1 5 acceptor
1 5 donor
1 6 acceptor
1 6 donor
1 7 acceptor
1 7 donor
1 8 acceptor
1 9 acceptor
6 1 12 13 14 15 16 rings
6 10 17 18 20 21 22 rings

> <PUBCHEM_HEAVY_ATOM_COUNT>
25

> <PUBCHEM_ATOM_DEF_STEREO_COUNT>
7

> <PUBCHEM_ATOM_UDEF_STEREO_COUNT>
0

> <PUBCHEM_BOND_DEF_STEREO_COUNT>
0

> <PUBCHEM_BOND_UDEF_STEREO_COUNT>
0

> <PUBCHEM_ISOTOPIC_ATOM_COUNT>
0

> <PUBCHEM_COMPONENT_COUNT>
1

> <PUBCHEM_CACTVS_TAUTO_COUNT>
1

> <PUBCHEM_CONFORMER_ID>
02F7B08600000001

> <PUBCHEM_MMFF94_ENERGY>
75.3887

> <PUBCHEM_FEATURE_SELFOVERLAP>
86.329

> <PUBCHEM_SHAPE_FINGERPRINT>
10369192 42 17843666787220957140
11370993 144 18129657625146962865
11640471 11 17676206857545434873
12173636 292 18191027802611077517
12236239 1 17748830725936501137
12553582 1 18337679732355077274
12633257 1 18201725118952776019
12788726 201 17895749729352371912
13140716 1 18411985771019308226
13224815 77 17060342902847865690
13583140 156 18187647942791207113
14178342 30 17975428923181790000
14790565 3 18125712393223599644
16752209 62 16371589002430407879
17349148 13 15574720204857322837
18186145 218 18261103071900226600
18219364 16 18201450167830615645
20600515 1 16414901050835309789
21033648 29 17202779210231750045
23175994 123 18124311867994783630
23184049 59 18409447024635612904
23419403 2 17628360686003892927
23557571 272 16917076567729119284
23559900 14 18411142476330304330
238 59 17910999869350250334
2838139 119 18119541083628501181
350125 39 18264766563097866795
5104073 3 18341333292991932248
6049 1 17561090240964980942
6287921 2 17487602053455787028
633830 44 17677314104593894665

> <PUBCHEM_SHAPE_MULTIPOLES>
451.7
8.31
2.73
1.88
2.66
0.36
1.28
-1.91
-2.64
2.35
-0.18
-2.65
0.26
-0.34

> <PUBCHEM_SHAPE_SELFOVERLAP>
944.194

> <PUBCHEM_SHAPE_VOLUME>
251.4

> <PUBCHEM_COORDINATE_TYPE>
2
5
10

$$$$

