441772
  -OEChem-07051212563D

 73 77  0     1  0  0  0  0  0999 V2000
   -2.4985   -1.0987   -0.3073 O   0  0  0  0  0  0  0  0  0  0  0  0
    3.4911   -0.2464   -0.5285 O   0  0  0  0  0  0  0  0  0  0  0  0
   -1.6128   -0.3872    1.7307 O   0  0  0  0  0  0  0  0  0  0  0  0
    3.2480    0.9465    1.4619 O   0  0  0  0  0  0  0  0  0  0  0  0
   -3.4817   -4.7682    1.2532 O   0  0  0  0  0  0  0  0  0  0  0  0
   -3.3753   -4.4064   -1.6128 O   0  0  0  0  0  0  0  0  0  0  0  0
    6.2722   -2.7517    1.1616 O   0  0  0  0  0  0  0  0  0  0  0  0
    6.0318   -2.6023   -1.7153 O   0  0  0  0  0  0  0  0  0  0  0  0
   -1.4635   -3.0820    2.5814 O   0  0  0  0  0  0  0  0  0  0  0  0
    5.6966   -0.1327    2.3822 O   0  0  0  0  0  0  0  0  0  0  0  0
   -2.6421   -0.4692   -2.9793 O   0  0  0  0  0  0  0  0  0  0  0  0
    2.8958   -0.1872   -3.2114 O   0  0  0  0  0  0  0  0  0  0  0  0
   -1.0159    2.7744   -0.0655 O   0  3  0  0  0  0  0  0  0  0  0  0
    3.1173    5.0434   -0.9624 O   0  0  0  0  0  0  0  0  0  0  0  0
   -7.3037    1.7285   -0.1171 O   0  0  0  0  0  0  0  0  0  0  0  0
   -2.6341   -3.8190    0.6041 C   0  0  1  0  0  0  0  0  0  0  0  0
   -3.3419   -3.3429   -0.6645 C   0  0  1  0  0  0  0  0  0  0  0  0
    5.8299   -1.5877    0.4617 C   0  0  1  0  0  0  0  0  0  0  0  0
    5.0942   -2.0445   -0.7983 C   0  0  1  0  0  0  0  0  0  0  0  0
   -2.3555   -2.6531    1.5530 C   0  0  2  0  0  0  0  0  0  0  0  0
    4.9149   -0.7652    1.3692 C   0  0  2  0  0  0  0  0  0  0  0  0
   -2.6136   -2.1433   -1.2752 C   0  0  1  0  0  0  0  0  0  0  0  0
    4.3745   -0.8687   -1.4632 C   0  0  1  0  0  0  0  0  0  0  0  0
   -1.7090   -1.4796    0.8170 C   0  0  1  0  0  0  0  0  0  0  0  0
    4.1818    0.3210    0.5821 C   0  0  1  0  0  0  0  0  0  0  0  0
   -3.3656   -1.5772   -2.4756 C   0  0  0  0  0  0  0  0  0  0  0  0
    3.5378   -1.3205   -2.6560 C   0  0  0  0  0  0  0  0  0  0  0  0
    2.5481    1.9352    0.8054 C   0  0  0  0  0  0  0  0  0  0  0  0
   -1.0435    0.7185    1.1398 C   0  0  0  0  0  0  0  0  0  0  0  0
    1.1101    1.7779    0.7450 C   0  0  0  0  0  0  0  0  0  0  0  0
    0.3926    0.7711    1.2611 C   0  0  0  0  0  0  0  0  0  0  0  0
   -1.7216    1.6877    0.4981 C   0  0  0  0  0  0  0  0  0  0  0  0
    0.2788    2.8110    0.0495 C   0  0  0  0  0  0  0  0  0  0  0  0
    3.1436    2.9987    0.2430 C   0  0  0  0  0  0  0  0  0  0  0  0
    1.0352    3.9529   -0.5419 C   0  0  0  0  0  0  0  0  0  0  0  0
    2.3706    4.0133   -0.4357 C   0  0  0  0  0  0  0  0  0  0  0  0
   -3.1765    1.6988    0.3382 C   0  0  0  0  0  0  0  0  0  0  0  0
   -3.9909    1.1062    1.3045 C   0  0  0  0  0  0  0  0  0  0  0  0
   -3.7521    2.3015   -0.7815 C   0  0  0  0  0  0  0  0  0  0  0  0
   -5.3773    1.1163    1.1514 C   0  0  0  0  0  0  0  0  0  0  0  0
   -5.1385    2.3117   -0.9345 C   0  0  0  0  0  0  0  0  0  0  0  0
   -5.9512    1.7191    0.0320 C   0  0  0  0  0  0  0  0  0  0  0  0
   -1.7061   -4.3493    0.3574 H   0  0  0  0  0  0  0  0  0  0  0  0
   -4.3791   -3.0828   -0.4157 H   0  0  0  0  0  0  0  0  0  0  0  0
    6.7317   -1.0210    0.1985 H   0  0  0  0  0  0  0  0  0  0  0  0
    4.3807   -2.8355   -0.5367 H   0  0  0  0  0  0  0  0  0  0  0  0
   -3.2814   -2.3365    2.0479 H   0  0  0  0  0  0  0  0  0  0  0  0
    4.1934   -1.4168    1.8780 H   0  0  0  0  0  0  0  0  0  0  0  0
   -1.6052   -2.4244   -1.6083 H   0  0  0  0  0  0  0  0  0  0  0  0
    5.0920   -0.1164   -1.8183 H   0  0  0  0  0  0  0  0  0  0  0  0
   -0.6970   -1.7540    0.4857 H   0  0  0  0  0  0  0  0  0  0  0  0
    4.9202    1.0561    0.2336 H   0  0  0  0  0  0  0  0  0  0  0  0
   -4.3624   -1.2232   -2.1922 H   0  0  0  0  0  0  0  0  0  0  0  0
   -3.4653   -2.3089   -3.2815 H   0  0  0  0  0  0  0  0  0  0  0  0
    4.1572   -1.7870   -3.4280 H   0  0  0  0  0  0  0  0  0  0  0  0
    2.7592   -2.0238   -2.3419 H   0  0  0  0  0  0  0  0  0  0  0  0
   -3.6521   -5.4868    0.6204 H   0  0  0  0  0  0  0  0  0  0  0  0
   -4.0267   -4.1755   -2.2961 H   0  0  0  0  0  0  0  0  0  0  0  0
    6.8112   -2.4562    1.9144 H   0  0  0  0  0  0  0  0  0  0  0  0
    6.6626   -1.9046   -1.9618 H   0  0  0  0  0  0  0  0  0  0  0  0
   -0.6339   -3.3670    2.1616 H   0  0  0  0  0  0  0  0  0  0  0  0
    6.0857   -0.8316    2.9341 H   0  0  0  0  0  0  0  0  0  0  0  0
    0.8759   -0.0429    1.7944 H   0  0  0  0  0  0  0  0  0  0  0  0
   -2.5133    0.1576   -2.2476 H   0  0  0  0  0  0  0  0  0  0  0  0
    2.3640   -0.4983   -3.9637 H   0  0  0  0  0  0  0  0  0  0  0  0
    4.2181    3.1333    0.3108 H   0  0  0  0  0  0  0  0  0  0  0  0
    0.4624    4.7179   -1.0527 H   0  0  0  0  0  0  0  0  0  0  0  0
   -3.6050    0.6780    2.2237 H   0  0  0  0  0  0  0  0  0  0  0  0
   -3.1348    2.7649   -1.5472 H   0  0  0  0  0  0  0  0  0  0  0  0
    4.0595    4.8908   -0.7795 H   0  0  0  0  0  0  0  0  0  0  0  0
   -6.0006    0.6625    1.9174 H   0  0  0  0  0  0  0  0  0  0  0  0
   -5.5795    2.7814   -1.8094 H   0  0  0  0  0  0  0  0  0  0  0  0
   -7.7077    1.2745    0.6423 H   0  0  0  0  0  0  0  0  0  0  0  0
  1 22  1  0  0  0  0
  1 24  1  0  0  0  0
  2 23  1  0  0  0  0
  2 25  1  0  0  0  0
  3 24  1  0  0  0  0
  3 29  1  0  0  0  0
  4 25  1  0  0  0  0
  4 28  1  0  0  0  0
  5 16  1  0  0  0  0
  5 57  1  0  0  0  0
  6 17  1  0  0  0  0
  6 58  1  0  0  0  0
  7 18  1  0  0  0  0
  7 59  1  0  0  0  0
  8 19  1  0  0  0  0
  8 60  1  0  0  0  0
  9 20  1  0  0  0  0
  9 61  1  0  0  0  0
 10 21  1  0  0  0  0
 10 62  1  0  0  0  0
 11 26  1  0  0  0  0
 11 64  1  0  0  0  0
 12 27  1  0  0  0  0
 12 65  1  0  0  0  0
 13 32  1  0  0  0  0
 13 33  2  0  0  0  0
 14 36  1  0  0  0  0
 14 70  1  0  0  0  0
 15 42  1  0  0  0  0
 15 73  1  0  0  0  0
 16 17  1  0  0  0  0
 16 20  1  0  0  0  0
 16 43  1  0  0  0  0
 17 22  1  0  0  0  0
 17 44  1  0  0  0  0
 18 19  1  0  0  0  0
 18 21  1  0  0  0  0
 18 45  1  0  0  0  0
 19 23  1  0  0  0  0
 19 46  1  0  0  0  0
 20 24  1  0  0  0  0
 20 47  1  0  0  0  0
 21 25  1  0  0  0  0
 21 48  1  0  0  0  0
 22 26  1  0  0  0  0
 22 49  1  0  0  0  0
 23 27  1  0  0  0  0
 23 50  1  0  0  0  0
 24 51  1  0  0  0  0
 25 52  1  0  0  0  0
 26 53  1  0  0  0  0
 26 54  1  0  0  0  0
 27 55  1  0  0  0  0
 27 56  1  0  0  0  0
 28 30  1  0  0  0  0
 28 34  2  0  0  0  0
 29 31  1  0  0  0  0
 29 32  2  0  0  0  0
 30 31  2  0  0  0  0
 30 33  1  0  0  0  0
 31 63  1  0  0  0  0
 32 37  1  0  0  0  0
 33 35  1  0  0  0  0
 34 36  1  0  0  0  0
 34 66  1  0  0  0  0
 35 36  2  0  0  0  0
 35 67  1  0  0  0  0
 37 38  2  0  0  0  0
 37 39  1  0  0  0  0
 38 40  1  0  0  0  0
 38 68  1  0  0  0  0
 39 41  2  0  0  0  0
 39 69  1  0  0  0  0
 40 42  2  0  0  0  0
 40 71  1  0  0  0  0
 41 42  1  0  0  0  0
 41 72  1  0  0  0  0
M  CHG  1  13   1
M  END
> <PUBCHEM_COMPOUND_CID>
441772

> <PUBCHEM_CONFORMER_RMSD>
1.2

> <PUBCHEM_CONFORMER_DIVERSEORDER>
1
122
90
88
127
136
65
92
132
3
131
147
68
70
139
117
11
83
119
135
142
101
18
125
137
28
55
86
138
144
93
118
84
44
40
36
120
104
29
85
81
14
19
113
126
133
128
143
148
33
39
51
98
145
54
130
100
47
77
124
99
71
53
107
96
22
80
134
62
116
106
66
4
34
91
87
13
141
140
95
79
16
64
38
82
10
109
15
26
2
46
31
23
43
6
41
129
114
12
48
21
58
69
76
103
45
67
57
50
108
63
30
78
9
7
105
146
94
32
60
8
5
25
42
74
61
89
73
72
35
17
24
115
110
49
112
20
75
37
121
111
102
59
56
97
27
52
123

> <PUBCHEM_MMFF94_PARTIAL_CHARGES>
59
1 -0.56
10 -0.68
11 -0.68
12 -0.68
13 -0.86
14 -0.53
15 -0.53
16 0.28
17 0.28
18 0.28
19 0.28
2 -0.56
20 0.28
21 0.28
22 0.28
23 0.28
24 0.56
25 0.56
26 0.28
27 0.28
28 0.08
29 0.08
3 -0.36
30 0.01
31 -0.15
32 0.88
33 0.92
34 -0.15
35 -0.14
36 0.08
37 0.03
38 -0.15
39 -0.15
4 -0.36
40 -0.15
41 -0.15
42 0.08
5 -0.68
57 0.4
58 0.4
59 0.4
6 -0.68
60 0.4
61 0.4
62 0.4
63 0.15
64 0.4
65 0.4
66 0.15
67 0.15
68 0.15
69 0.15
7 -0.68
70 0.45
71 0.15
72 0.15
73 0.45
8 -0.68
9 -0.68

> <PUBCHEM_EFFECTIVE_ROTOR_COUNT>
9.4

> <PUBCHEM_PHARMACOPHORE_FEATURES>
27
1 1 acceptor
1 10 acceptor
1 10 donor
1 11 acceptor
1 11 donor
1 12 acceptor
1 12 donor
1 14 donor
1 15 donor
1 2 acceptor
1 3 acceptor
1 4 acceptor
1 5 acceptor
1 5 donor
1 6 acceptor
1 6 donor
1 7 acceptor
1 7 donor
1 8 acceptor
1 8 donor
1 9 acceptor
1 9 donor
6 1 16 17 20 22 24 rings
6 13 29 30 31 32 33 rings
6 2 18 19 21 23 25 rings
6 28 30 33 34 35 36 rings
6 37 38 39 40 41 42 rings

> <PUBCHEM_HEAVY_ATOM_COUNT>
42

> <PUBCHEM_ATOM_DEF_STEREO_COUNT>
10

> <PUBCHEM_ATOM_UDEF_STEREO_COUNT>
0

> <PUBCHEM_BOND_DEF_STEREO_COUNT>
0

> <PUBCHEM_BOND_UDEF_STEREO_COUNT>
0

> <PUBCHEM_ISOTOPIC_ATOM_COUNT>
0

> <PUBCHEM_COMPONENT_COUNT>
1

> <PUBCHEM_CACTVS_TAUTO_COUNT>
17

> <PUBCHEM_CONFORMER_ID>
0006BDAC00000001

> <PUBCHEM_MMFF94_ENERGY>
135.6382

> <PUBCHEM_FEATURE_SELFOVERLAP>
137.161

> <PUBCHEM_SHAPE_FINGERPRINT>
10254770 206 18198635521739395394
11297010 23 17983599656662145605
11513181 2 18193551160522518550
11991303 11 17774996904430151691
12633046 712 17918269822889640386
12977781 61 16663215744415632067
14068700 686 17690838956446449737
14725015 67 17615396400050815934
14856354 85 16845001425093577897
15131766 46 15911325712539344806
15274700 34 17969220041519365135
15276724 80 18195802961058922851
15351334 14 17488461884354709597
15361156 5 18333450937356358724
15392192 29 18334848463990535586
16628084 112 17765437930004343250
17809404 112 17967247602993653134
19301679 30 17979067185763217099
19311894 1 18336840727641719037
19315092 285 15867189022398909111
19319366 153 17631448037113337426
20764821 26 18336254687464131894
21781051 124 17988342846348594633
22440779 20 16411778303982794291
23559900 14 18334853905413874432
23572383 38 17967820470179495918
3383291 50 18335701701940611715
340366 18 18410854364959493797
4015057 19 17386021579948157729
4394409 98 18057039331401771068
44062 13 18410290306872751498
460360 51 18261949635481439964
463206 1 18339926017093027666
5081480 168 17203327801808840100
513202 73 18270391673808974547
563151 74 16661514851772798368
5912855 24 18122342381272660785

> <PUBCHEM_SHAPE_MULTIPOLES>
776.3
14.16
6.02
2.35
5.49
0.92
1.14
3.59
0.37
-1.75
0.59
0.87
1.71
0.38

> <PUBCHEM_SHAPE_SELFOVERLAP>
1684.6

> <PUBCHEM_SHAPE_VOLUME>
415.2

> <PUBCHEM_COORDINATE_TYPE>
2
5
10

$$$$

