15301053
  -OEChem-07051213152D

 32 35  0     0  0  0  0  0  0999 V2000
    6.9939    1.4279    0.0000 O   0  0  0  0  0  0  0  0  0  0  0  0
    2.5836   -0.2673    0.0000 O   0  0  0  0  0  0  0  0  0  0  0  0
    2.5836   -1.8768    0.0000 O   0  0  0  0  0  0  0  0  0  0  0  0
    6.9939   -1.5721    0.0000 O   0  0  0  0  0  0  0  0  0  0  0  0
    8.7423   -1.6067    0.0000 O   0  0  0  0  0  0  0  0  0  0  0  0
   10.5241    1.4521    0.0000 O   0  0  0  0  0  0  0  0  0  0  0  0
    5.2619   -0.5721    0.0000 C   0  0  0  0  0  0  0  0  0  0  0  0
    6.1279   -0.0721    0.0000 C   0  0  0  0  0  0  0  0  0  0  0  0
    7.8600   -0.0721    0.0000 C   0  0  0  0  0  0  0  0  0  0  0  0
    6.9939   -0.5721    0.0000 C   0  0  0  0  0  0  0  0  0  0  0  0
    3.5298   -0.5721    0.0000 C   0  0  0  0  0  0  0  0  0  0  0  0
    4.3958   -0.0721    0.0000 C   0  0  0  0  0  0  0  0  0  0  0  0
    7.8600    0.9279    0.0000 C   0  0  0  0  0  0  0  0  0  0  0  0
    3.5298   -1.5721    0.0000 C   0  0  0  0  0  0  0  0  0  0  0  0
    5.2619   -1.5721    0.0000 C   0  0  0  0  0  0  0  0  0  0  0  0
    4.3958   -2.0721    0.0000 C   0  0  0  0  0  0  0  0  0  0  0  0
    6.1279    0.9279    0.0000 C   0  0  0  0  0  0  0  0  0  0  0  0
    8.7539   -0.6067    0.0000 C   0  0  0  0  0  0  0  0  0  0  0  0
    8.7539    1.4626    0.0000 C   0  0  0  0  0  0  0  0  0  0  0  0
    2.0000   -1.0721    0.0000 C   0  0  0  0  0  0  0  0  0  0  0  0
    9.6600   -0.0929    0.0000 C   0  0  0  0  0  0  0  0  0  0  0  0
    9.6600    0.9487    0.0000 C   0  0  0  0  0  0  0  0  0  0  0  0
    4.3958    0.5479    0.0000 H   0  0  0  0  0  0  0  0  0  0  0  0
    5.7988   -1.8821    0.0000 H   0  0  0  0  0  0  0  0  0  0  0  0
    4.3958   -2.6921    0.0000 H   0  0  0  0  0  0  0  0  0  0  0  0
    5.5910    1.2379    0.0000 H   0  0  0  0  0  0  0  0  0  0  0  0
    8.7467    2.0826    0.0000 H   0  0  0  0  0  0  0  0  0  0  0  0
    1.5391   -0.6573    0.0000 H   0  0  0  0  0  0  0  0  0  0  0  0
    1.5391   -1.4868    0.0000 H   0  0  0  0  0  0  0  0  0  0  0  0
   10.1957   -0.4050    0.0000 H   0  0  0  0  0  0  0  0  0  0  0  0
    9.2756   -1.9229    0.0000 H   0  0  0  0  0  0  0  0  0  0  0  0
   10.5217    2.0721    0.0000 H   0  0  0  0  0  0  0  0  0  0  0  0
  1 13  1  0  0  0  0
  1 17  1  0  0  0  0
  2 11  1  0  0  0  0
  2 20  1  0  0  0  0
  3 14  1  0  0  0  0
  3 20  1  0  0  0  0
  4 10  2  0  0  0  0
  5 18  1  0  0  0  0
  5 31  1  0  0  0  0
  6 22  1  0  0  0  0
  6 32  1  0  0  0  0
  7  8  1  0  0  0  0
  7 12  2  0  0  0  0
  7 15  1  0  0  0  0
  8 10  1  0  0  0  0
  8 17  2  0  0  0  0
  9 10  1  0  0  0  0
  9 13  1  0  0  0  0
  9 18  2  0  0  0  0
 11 12  1  0  0  0  0
 11 14  2  0  0  0  0
 12 23  1  0  0  0  0
 13 19  2  0  0  0  0
 14 16  1  0  0  0  0
 15 16  2  0  0  0  0
 15 24  1  0  0  0  0
 16 25  1  0  0  0  0
 17 26  1  0  0  0  0
 18 21  1  0  0  0  0
 19 22  1  0  0  0  0
 19 27  1  0  0  0  0
 20 28  1  0  0  0  0
 20 29  1  0  0  0  0
 21 22  2  0  0  0  0
 21 30  1  0  0  0  0
M  END
> <PUBCHEM_COMPOUND_CID>
15301053

> <PUBCHEM_COMPOUND_CANONICALIZED>
1

> <PUBCHEM_CACTVS_COMPLEXITY>
489

> <PUBCHEM_CACTVS_HBOND_ACCEPTOR>
6

> <PUBCHEM_CACTVS_HBOND_DONOR>
2

> <PUBCHEM_CACTVS_ROTATABLE_BOND>
1

> <PUBCHEM_CACTVS_SUBSKEYS>
AAADccB4OAAAAAAAAAAAAAAAAAAAASAAAAAwYIAAAAAAAEiBQAAAGgAACAAADASgmAMwDoAABgCIAqBSAAACCAAkIAAIiAEGiMgdJzaGNRqgcWIl4BUOuYeI7PzOIAABCAAIQABAAAIQABCAAAAAAAAAAA==

> <PUBCHEM_IUPAC_OPENEYE_NAME>
3-(1,3-benzodioxol-5-yl)-5,7-dihydroxy-chromen-4-one

> <PUBCHEM_IUPAC_CAS_NAME>
3-(1,3-benzodioxol-5-yl)-5,7-dihydroxy-1-benzopyran-4-one

> <PUBCHEM_IUPAC_NAME>
3-(1,3-benzodioxol-5-yl)-5,7-dihydroxychromen-4-one

> <PUBCHEM_IUPAC_SYSTEMATIC_NAME>
3-(1,3-benzodioxol-5-yl)-5,7-bis(oxidanyl)chromen-4-one

> <PUBCHEM_IUPAC_TRADITIONAL_NAME>
3-(1,3-benzodioxol-5-yl)-5,7-dihydroxy-chromone

> <PUBCHEM_IUPAC_INCHI>
InChI=1S/C16H10O6/c17-9-4-11(18)15-14(5-9)20-6-10(16(15)19)8-1-2-12-13(3-8)22-7-21-12/h1-6,17-18H,7H2

> <PUBCHEM_IUPAC_INCHIKEY>
BNFXYMBRFDJYCH-UHFFFAOYSA-N

> <PUBCHEM_XLOGP3_AA>
2.8

> <PUBCHEM_EXACT_MASS>
298.047738

> <PUBCHEM_MOLECULAR_FORMULA>
C16H10O6

> <PUBCHEM_MOLECULAR_WEIGHT>
298.247

> <PUBCHEM_OPENEYE_CAN_SMILES>
C1OC2=C(O1)C=C(C=C2)C3=COC4=CC(=CC(=C4C3=O)O)O

> <PUBCHEM_OPENEYE_ISO_SMILES>
C1OC2=C(O1)C=C(C=C2)C3=COC4=CC(=CC(=C4C3=O)O)O

> <PUBCHEM_CACTVS_TPSA>
85.2

> <PUBCHEM_MONOISOTOPIC_WEIGHT>
298.047738

> <PUBCHEM_TOTAL_CHARGE>
0

> <PUBCHEM_HEAVY_ATOM_COUNT>
22

> <PUBCHEM_ATOM_DEF_STEREO_COUNT>
0

> <PUBCHEM_ATOM_UDEF_STEREO_COUNT>
0

> <PUBCHEM_BOND_DEF_STEREO_COUNT>
0

> <PUBCHEM_BOND_UDEF_STEREO_COUNT>
0

> <PUBCHEM_ISOTOPIC_ATOM_COUNT>
0

> <PUBCHEM_COMPONENT_COUNT>
1

> <PUBCHEM_CACTVS_TAUTO_COUNT>
12

> <PUBCHEM_COORDINATE_TYPE>
1
5
255

> <PUBCHEM_BONDANNOTATIONS>
1  13  8
1  17  8
11  12  8
11  14  8
13  19  8
14  16  8
15  16  8
18  21  8
19  22  8
21  22  8
7  12  8
7  15  8
8  10  8
8  17  8
9  10  8
9  13  8
9  18  8

$$$$

