17395996
  -OEChem-06241222533D

 26 29  0     0  0  0  0  0  0999 V2000
   -3.0576    2.8262    0.0004 S   0  0  0  0  0  0  0  0  0  0  0  0
   -2.0298   -2.6484   -1.0978 O   0  5  0  0  0  0  0  0  0  0  0  0
   -2.0303   -2.6481    1.0975 O   0  0  0  0  0  0  0  0  0  0  0  0
   -2.5713    0.3081   -0.0001 N   0  0  0  0  0  0  0  0  0  0  0  0
    0.8872   -0.4660   -0.0001 N   0  0  0  0  0  0  0  0  0  0  0  0
   -0.6268    1.4080   -0.0002 N   0  0  0  0  0  0  0  0  0  0  0  0
    1.1453   -1.7842    0.0003 N   0  0  0  0  0  0  0  0  0  0  0  0
   -1.9021   -2.0327   -0.0002 N   0  3  0  0  0  0  0  0  0  0  0  0
    2.4656   -1.9334    0.0006 N   0  0  0  0  0  0  0  0  0  0  0  0
   -0.4232    0.0403   -0.0004 C   0  0  0  0  0  0  0  0  0  0  0  0
   -1.6171   -0.6627   -0.0003 C   0  0  0  0  0  0  0  0  0  0  0  0
   -1.9271    1.5076   -0.0003 C   0  0  0  0  0  0  0  0  0  0  0  0
    2.0333    0.2754   -0.0001 C   0  0  0  0  0  0  0  0  0  0  0  0
    3.0336   -0.6870    0.0003 C   0  0  0  0  0  0  0  0  0  0  0  0
   -3.9444    0.3709    0.0002 C   0  0  0  0  0  0  0  0  0  0  0  0
    2.2822    1.6462   -0.0004 C   0  0  0  0  0  0  0  0  0  0  0  0
   -4.3779    1.6430    0.0006 C   0  0  0  0  0  0  0  0  0  0  0  0
    4.3773   -0.2850    0.0004 C   0  0  0  0  0  0  0  0  0  0  0  0
    3.6268    2.0341   -0.0003 C   0  0  0  0  0  0  0  0  0  0  0  0
    4.6563    1.0879    0.0001 C   0  0  0  0  0  0  0  0  0  0  0  0
   -4.5514   -0.5217    0.0003 H   0  0  0  0  0  0  0  0  0  0  0  0
    1.5083    2.4020   -0.0007 H   0  0  0  0  0  0  0  0  0  0  0  0
   -5.4145    1.9488    0.0009 H   0  0  0  0  0  0  0  0  0  0  0  0
    5.1828   -1.0120    0.0006 H   0  0  0  0  0  0  0  0  0  0  0  0
    3.8756    3.0925   -0.0005 H   0  0  0  0  0  0  0  0  0  0  0  0
    5.6908    1.4223    0.0001 H   0  0  0  0  0  0  0  0  0  0  0  0
  1 12  1  0  0  0  0
  1 17  1  0  0  0  0
  2  8  1  0  0  0  0
  3  8  2  0  0  0  0
  4 11  1  0  0  0  0
  4 12  1  0  0  0  0
  4 15  1  0  0  0  0
  5  7  1  0  0  0  0
  5 10  1  0  0  0  0
  5 13  1  0  0  0  0
  6 10  1  0  0  0  0
  6 12  2  0  0  0  0
  7  9  2  0  0  0  0
  8 11  1  0  0  0  0
  9 14  1  0  0  0  0
 10 11  2  0  0  0  0
 13 14  1  0  0  0  0
 13 16  2  0  0  0  0
 14 18  2  0  0  0  0
 15 17  2  0  0  0  0
 15 21  1  0  0  0  0
 16 19  1  0  0  0  0
 16 22  1  0  0  0  0
 17 23  1  0  0  0  0
 18 20  1  0  0  0  0
 18 24  1  0  0  0  0
 19 20  2  0  0  0  0
 19 25  1  0  0  0  0
 20 26  1  0  0  0  0
M  CHG  2   2  -1   8   1
M  END
> <PUBCHEM_COMPOUND_CID>
17395996

> <PUBCHEM_CONFORMER_RMSD>
0.6

> <PUBCHEM_CONFORMER_DIVERSEORDER>
1
4
5
6
3
7
2

> <PUBCHEM_MMFF94_PARTIAL_CHARGES>
26
1 -0.16
10 0.15
11 -0.07
12 0.24
13 -0.15
14 0.23
15 -0.18
16 -0.15
17 -0.05
18 -0.15
19 -0.15
2 -0.52
20 -0.15
21 0.15
22 0.15
23 0.15
24 0.15
25 0.15
26 0.15
3 -0.52
4 0.33
5 0.65
6 -0.57
7 -0.42
8 0.96
9 -0.23

> <PUBCHEM_EFFECTIVE_ROTOR_COUNT>
2

> <PUBCHEM_PHARMACOPHORE_FEATURES>
8
1 2 acceptor
1 2 anion
1 3 acceptor
3 4 6 12 cation
5 1 4 12 15 17 rings
5 4 6 10 11 12 rings
5 5 7 9 13 14 rings
6 13 14 16 18 19 20 rings

> <PUBCHEM_HEAVY_ATOM_COUNT>
20

> <PUBCHEM_ATOM_DEF_STEREO_COUNT>
0

> <PUBCHEM_ATOM_UDEF_STEREO_COUNT>
0

> <PUBCHEM_BOND_DEF_STEREO_COUNT>
0

> <PUBCHEM_BOND_UDEF_STEREO_COUNT>
0

> <PUBCHEM_ISOTOPIC_ATOM_COUNT>
0

> <PUBCHEM_COMPONENT_COUNT>
1

> <PUBCHEM_CACTVS_TAUTO_COUNT>
1

> <PUBCHEM_CONFORMER_ID>
0109711C00000001

> <PUBCHEM_MMFF94_ENERGY>
53.0157

> <PUBCHEM_FEATURE_SELFOVERLAP>
41.033

> <PUBCHEM_SHAPE_FINGERPRINT>
10411042 1 17689997838762409039
10608611 8 18410575093485446920
10616163 171 18337670819596155758
10967382 1 18338799017405414660
11370993 70 18411141371816853117
12173636 292 18410577327037265805
12403814 3 17847065488830278605
12500047 106 18409735070685783748
12633257 1 18271537489035354792
12969540 114 17987819504525548229
13140716 1 18412269411123753200
13380535 76 18409449223458603191
133893 2 16010693148060070719
13583140 156 16988851591927454353
138480 1 17474108082081889639
14178342 30 18342466898148932112
14790565 3 18191018105256399161
14897335 6 18410294730773176268
15196674 1 18410574002421211972
15442244 35 18194403518505081400
15536298 74 18335701697492546244
16087824 20 18409169871593838671
17492 89 18411982429994512682
18186145 218 18117836827065723469
20510252 161 18264483988387839554
20602899 9 16153429437275916271
20645477 56 18413386557465428517
21267235 1 18410283744199262870
21501502 16 18411707560497388530
21524375 3 18268147737594422085
221490 88 18338790127350697634
23227448 37 18410013217152407245
23402539 116 18335430079724249597
23402655 69 18409728452758333300
23557571 272 18261945237688084502
23558518 356 17986387794040582842
23559900 14 18261958569631003086
335352 9 18338797939737739518
34934 24 18412549816363391560
3545911 37 18409727365920610628
4214541 1 18410855468871414976
4340502 62 16773791537430044969
474 4 17846492608959999980
5104073 3 18412262865182144560
633830 44 17972037208956939269
69090 78 18411703218311689545
7364860 26 18263643025655112966
7832392 63 18411420618153988580
9709674 26 18408036333858381406

> <PUBCHEM_SHAPE_MULTIPOLES>
373.82
8.57
2.96
0.68
2.67
0.82
0
-3.92
0
-1.67
0
-0.18
0.21
0

> <PUBCHEM_SHAPE_SELFOVERLAP>
834.257

> <PUBCHEM_SHAPE_VOLUME>
201.9

> <PUBCHEM_COORDINATE_TYPE>
2
5
10

$$$$

