11930
  -OEChem-06261206183D

 42 45  0     0  0  0  0  0  0999 V2000
    0.4026    1.3354    0.0009 C   0  0  0  0  0  0  0  0  0  0  0  0
   -1.3581   -0.3191    0.0001 C   0  0  0  0  0  0  0  0  0  0  0  0
    0.9550   -1.0167   -0.0002 C   0  0  0  0  0  0  0  0  0  0  0  0
   -0.9553    1.0164    0.0008 C   0  0  0  0  0  0  0  0  0  0  0  0
    1.3577    0.3187    0.0003 C   0  0  0  0  0  0  0  0  0  0  0  0
   -0.4029   -1.3357   -0.0003 C   0  0  0  0  0  0  0  0  0  0  0  0
    0.8206    2.7206    0.0004 C   0  0  0  0  0  0  0  0  0  0  0  0
   -2.7668   -0.6500    0.0000 C   0  0  0  0  0  0  0  0  0  0  0  0
    1.9460   -2.0710   -0.0001 C   0  0  0  0  0  0  0  0  0  0  0  0
    1.0221    3.3879   -1.2078 C   0  0  0  0  0  0  0  0  0  0  0  0
   -3.4457   -0.8099    1.2078 C   0  0  0  0  0  0  0  0  0  0  0  0
    2.4243   -2.5787   -1.2081 C   0  0  0  0  0  0  0  0  0  0  0  0
    1.0218    3.3888    1.2081 C   0  0  0  0  0  0  0  0  0  0  0  0
   -3.4455   -0.8088   -1.2081 C   0  0  0  0  0  0  0  0  0  0  0  0
    2.4230   -2.5795    1.2078 C   0  0  0  0  0  0  0  0  0  0  0  0
    1.4249    4.7234   -1.2082 C   0  0  0  0  0  0  0  0  0  0  0  0
   -4.8038   -1.1287    1.2077 C   0  0  0  0  0  0  0  0  0  0  0  0
    3.3798   -3.5950   -1.2080 C   0  0  0  0  0  0  0  0  0  0  0  0
    1.4245    4.7243    1.2077 C   0  0  0  0  0  0  0  0  0  0  0  0
   -4.8035   -1.1275   -1.2083 C   0  0  0  0  0  0  0  0  0  0  0  0
    3.3786   -3.5956    1.2080 C   0  0  0  0  0  0  0  0  0  0  0  0
    1.6261    5.3915   -0.0005 C   0  0  0  0  0  0  0  0  0  0  0  0
   -5.4825   -1.2874   -0.0004 C   0  0  0  0  0  0  0  0  0  0  0  0
    3.8569   -4.1034    0.0001 C   0  0  0  0  0  0  0  0  0  0  0  0
   -1.7010    1.8100    0.0010 H   0  0  0  0  0  0  0  0  0  0  0  0
    2.4178    0.5676    0.0003 H   0  0  0  0  0  0  0  0  0  0  0  0
   -0.7173   -2.3783   -0.0007 H   0  0  0  0  0  0  0  0  0  0  0  0
    0.8697    2.8820   -2.1582 H   0  0  0  0  0  0  0  0  0  0  0  0
   -2.9316   -0.6896    2.1585 H   0  0  0  0  0  0  0  0  0  0  0  0
    2.0630   -2.1936   -2.1588 H   0  0  0  0  0  0  0  0  0  0  0  0
    0.8692    2.8834    2.1589 H   0  0  0  0  0  0  0  0  0  0  0  0
   -2.9313   -0.6877   -2.1587 H   0  0  0  0  0  0  0  0  0  0  0  0
    2.0608   -2.1950    2.1585 H   0  0  0  0  0  0  0  0  0  0  0  0
    1.5819    5.2431   -2.1489 H   0  0  0  0  0  0  0  0  0  0  0  0
   -5.3326   -1.2532    2.1481 H   0  0  0  0  0  0  0  0  0  0  0  0
    3.7524   -3.9904   -2.1484 H   0  0  0  0  0  0  0  0  0  0  0  0
    1.5812    5.2447    2.1481 H   0  0  0  0  0  0  0  0  0  0  0  0
   -5.3323   -1.2511   -2.1488 H   0  0  0  0  0  0  0  0  0  0  0  0
    3.7503   -3.9917    2.1486 H   0  0  0  0  0  0  0  0  0  0  0  0
    1.9397    6.4314   -0.0008 H   0  0  0  0  0  0  0  0  0  0  0  0
   -6.5399   -1.5356   -0.0006 H   0  0  0  0  0  0  0  0  0  0  0  0
    4.6009   -4.8946    0.0002 H   0  0  0  0  0  0  0  0  0  0  0  0
  1  4  2  0  0  0  0
  1  5  1  0  0  0  0
  1  7  1  0  0  0  0
  2  4  1  0  0  0  0
  2  6  2  0  0  0  0
  2  8  1  0  0  0  0
  3  5  2  0  0  0  0
  3  6  1  0  0  0  0
  3  9  1  0  0  0  0
  4 25  1  0  0  0  0
  5 26  1  0  0  0  0
  6 27  1  0  0  0  0
  7 10  2  0  0  0  0
  7 13  1  0  0  0  0
  8 11  2  0  0  0  0
  8 14  1  0  0  0  0
  9 12  2  0  0  0  0
  9 15  1  0  0  0  0
 10 16  1  0  0  0  0
 10 28  1  0  0  0  0
 11 17  1  0  0  0  0
 11 29  1  0  0  0  0
 12 18  1  0  0  0  0
 12 30  1  0  0  0  0
 13 19  2  0  0  0  0
 13 31  1  0  0  0  0
 14 20  2  0  0  0  0
 14 32  1  0  0  0  0
 15 21  2  0  0  0  0
 15 33  1  0  0  0  0
 16 22  2  0  0  0  0
 16 34  1  0  0  0  0
 17 23  2  0  0  0  0
 17 35  1  0  0  0  0
 18 24  2  0  0  0  0
 18 36  1  0  0  0  0
 19 22  1  0  0  0  0
 19 37  1  0  0  0  0
 20 23  1  0  0  0  0
 20 38  1  0  0  0  0
 21 24  1  0  0  0  0
 21 39  1  0  0  0  0
 22 40  1  0  0  0  0
 23 41  1  0  0  0  0
 24 42  1  0  0  0  0
M  END
> <PUBCHEM_COMPOUND_CID>
11930

> <PUBCHEM_CONFORMER_RMSD>
0.6

> <PUBCHEM_CONFORMER_DIVERSEORDER>
1
3
2

> <PUBCHEM_MMFF94_PARTIAL_CHARGES>
36
10 -0.15
11 -0.15
12 -0.15
13 -0.15
14 -0.15
15 -0.15
16 -0.15
17 -0.15
18 -0.15
19 -0.15
20 -0.15
21 -0.15
22 -0.15
23 -0.15
24 -0.15
25 0.15
26 0.15
27 0.15
28 0.15
29 0.15
30 0.15
31 0.15
32 0.15
33 0.15
34 0.15
35 0.15
36 0.15
37 0.15
38 0.15
39 0.15
4 -0.15
40 0.15
41 0.15
42 0.15
5 -0.15
6 -0.15

> <PUBCHEM_EFFECTIVE_ROTOR_COUNT>
3

> <PUBCHEM_PHARMACOPHORE_FEATURES>
4
6 1 2 3 4 5 6 rings
6 7 10 13 16 19 22 rings
6 8 11 14 17 20 23 rings
6 9 12 15 18 21 24 rings

> <PUBCHEM_HEAVY_ATOM_COUNT>
24

> <PUBCHEM_ATOM_DEF_STEREO_COUNT>
0

> <PUBCHEM_ATOM_UDEF_STEREO_COUNT>
0

> <PUBCHEM_BOND_DEF_STEREO_COUNT>
0

> <PUBCHEM_BOND_UDEF_STEREO_COUNT>
0

> <PUBCHEM_ISOTOPIC_ATOM_COUNT>
0

> <PUBCHEM_COMPONENT_COUNT>
1

> <PUBCHEM_CACTVS_TAUTO_COUNT>
1

> <PUBCHEM_CONFORMER_ID>
00002E9A00000001

> <PUBCHEM_MMFF94_ENERGY>
87.9999

> <PUBCHEM_FEATURE_SELFOVERLAP>
20.297

> <PUBCHEM_SHAPE_FINGERPRINT>
10074138 170 17476934913559715618
10411042 1 18338797947901042371
10721379 63 18335689499975206429
11056379 131 17833261300843460214
11101153 10 18268699684538522414
11763715 3 18123445423194710398
11991303 11 17262995854016996780
12160290 23 17546164567896227844
12363563 72 18339640173887228451
12549972 3 17846491527118430153
12553582 1 18266170806961538103
12788726 201 17622173785661289155
13134695 92 18411705408687293959
13140716 1 17978229361521721681
13590594 115 18195520614067201273
13681431 1 18410855473018345011
13690498 29 17828474001594208246
13955234 65 18267013969386835811
14955137 171 18339077086826377402
15042514 8 17906165510127977883
15230672 131 17693934100024501484
15842332 3 17750230323452160351
15927050 60 17545319679969659360
16087824 20 17690279731232045469
17539 30 17833838539656508134
17980427 26 18118688716532946213
1813 80 18261668285349535367
19304671 126 17480636755585621845
19784866 34 17902789653233691857
20101258 96 18122892385920072602
20505436 4 17535728721734625599
20739085 24 18260819445050416299
21049683 271 18271795801021414318
21120745 212 18049984873905002164
21304303 282 16901337316491426327
21796203 349 18051093065340703451
2255824 54 18263360291857241759
23366157 5 18339643330856275027
23559900 14 18411706474408999371
23569917 315 17760091714002508222
23929065 36 17618813656762999042
249057 25 17894624865323223803
249999 5 18267016151341082779
283562 15 17113265988386993253
3057174 1 17906171754598892279
3091708 16 9213475878154010818
3178227 256 18196359334705329064
3380486 145 17901989427495232158
3886686 26 16747095098133324648
4409770 3 17548418562786718317
458136 41 18123460580191949489
508180 173 17983030118128242421
6058803 2 18114458952058664423
6442390 28 17474092216720059603
6673363 416 18337377362964222670
6677587 24 16179129335926791837
6679774 75 17842010892670551336
6691757 9 17325497601114628216
6695519 79 17542489545661841939
77188 2 18338799021441717799
81228 2 17834396000609894538
9658208 31 17255388328479608304
9841814 1 18271814522852799619
9981440 41 17763190133479382283

> <PUBCHEM_SHAPE_MULTIPOLES>
493.91
7.96
7.95
1.35
13.08
10.18
0
-10.18
0
-13.08
0
0
0
0

> <PUBCHEM_SHAPE_SELFOVERLAP>
1106.08

> <PUBCHEM_SHAPE_VOLUME>
238.9

> <PUBCHEM_COORDINATE_TYPE>
2
5
10

$$$$

