245237
  -OEChem-07051213062D

 56 59  0     1  0  0  0  0  0999 V2000
    9.5141    1.5983    0.0000 O   0  0  0  0  0  0  0  0  0  0  0  0
   10.5960   -0.7447    0.0000 O   0  0  0  0  0  0  0  0  0  0  0  0
   11.1604    1.0603    0.0000 O   0  0  0  0  0  0  0  0  0  0  0  0
    2.8641   -2.7092    0.0000 O   0  0  0  0  0  0  0  0  0  0  0  0
    8.2572    0.3431    0.0000 C   0  0  1  0  0  0  0  0  0  0  0  0
    8.2572   -0.6569    0.0000 C   0  0  2  0  0  0  0  0  0  0  0  0
    7.3912   -1.1569    0.0000 C   0  0  1  0  0  0  0  0  0  0  0  0
    9.2034    0.6478    0.0000 C   0  0  2  0  0  0  0  0  0  0  0  0
    9.2034   -0.9616    0.0000 C   0  0  0  0  0  0  0  0  0  0  0  0
    9.7870   -0.1569    0.0000 C   0  0  2  0  0  0  0  0  0  0  0  0
    6.5251   -0.6569    0.0000 C   0  0  2  0  0  0  0  0  0  0  0  0
    7.3912    0.8431    0.0000 C   0  0  0  0  0  0  0  0  0  0  0  0
    6.5251    0.3431    0.0000 C   0  0  0  0  0  0  0  0  0  0  0  0
    7.4072   -2.1984    0.0000 C   0  0  0  0  0  0  0  0  0  0  0  0
    8.2572    1.3431    0.0000 C   0  0  0  0  0  0  0  0  0  0  0  0
    5.6151   -1.1638    0.0000 C   0  0  0  0  0  0  0  0  0  0  0  0
   10.5960    0.4309    0.0000 C   0  0  0  0  0  0  0  0  0  0  0  0
    6.5092   -2.7262    0.0000 C   0  0  0  0  0  0  0  0  0  0  0  0
    5.6071   -2.2054    0.0000 C   0  0  0  0  0  0  0  0  0  0  0  0
    4.6883   -0.5997    0.0000 C   0  0  0  0  0  0  0  0  0  0  0  0
    4.6717   -2.7551    0.0000 C   0  0  0  0  0  0  0  0  0  0  0  0
   10.4926    1.8046    0.0000 C   0  0  0  0  0  0  0  0  0  0  0  0
    3.7404   -1.1276    0.0000 C   0  0  0  0  0  0  0  0  0  0  0  0
    3.7320   -2.2126    0.0000 C   0  0  0  0  0  0  0  0  0  0  0  0
   10.8032    2.7551    0.0000 C   0  0  0  0  0  0  0  0  0  0  0  0
    2.0000   -2.2059    0.0000 C   0  0  0  0  0  0  0  0  0  0  0  0
    8.3471   -1.5021    0.0000 H   0  0  0  0  0  0  0  0  0  0  0  0
    8.1305   -1.5762    0.0000 H   0  0  0  0  0  0  0  0  0  0  0  0
    9.8159    0.7440    0.0000 H   0  0  0  0  0  0  0  0  0  0  0  0
    8.9524   -1.5286    0.0000 H   0  0  0  0  0  0  0  0  0  0  0  0
    9.7408   -1.2709    0.0000 H   0  0  0  0  0  0  0  0  0  0  0  0
    7.2612   -0.2319    0.0000 H   0  0  0  0  0  0  0  0  0  0  0  0
    7.7897    1.3180    0.0000 H   0  0  0  0  0  0  0  0  0  0  0  0
    6.9926    1.3180    0.0000 H   0  0  0  0  0  0  0  0  0  0  0  0
    6.3131    0.9257    0.0000 H   0  0  0  0  0  0  0  0  0  0  0  0
    5.9145    0.2354    0.0000 H   0  0  0  0  0  0  0  0  0  0  0  0
    7.6252   -2.7788    0.0000 H   0  0  0  0  0  0  0  0  0  0  0  0
    8.0164   -2.0829    0.0000 H   0  0  0  0  0  0  0  0  0  0  0  0
    8.8772    1.3431    0.0000 H   0  0  0  0  0  0  0  0  0  0  0  0
    8.2572    1.9631    0.0000 H   0  0  0  0  0  0  0  0  0  0  0  0
    7.6372    1.3431    0.0000 H   0  0  0  0  0  0  0  0  0  0  0  0
   10.9604   -0.0707    0.0000 H   0  0  0  0  0  0  0  0  0  0  0  0
   11.0976    0.7953    0.0000 H   0  0  0  0  0  0  0  0  0  0  0  0
   10.2316    0.9325    0.0000 H   0  0  0  0  0  0  0  0  0  0  0  0
    6.1119   -3.2021    0.0000 H   0  0  0  0  0  0  0  0  0  0  0  0
    6.9101   -3.1991    0.0000 H   0  0  0  0  0  0  0  0  0  0  0  0
   10.5312   -1.3613    0.0000 H   0  0  0  0  0  0  0  0  0  0  0  0
    4.7002    0.0202    0.0000 H   0  0  0  0  0  0  0  0  0  0  0  0
    4.6741   -3.3751    0.0000 H   0  0  0  0  0  0  0  0  0  0  0  0
    3.2071   -0.8114    0.0000 H   0  0  0  0  0  0  0  0  0  0  0  0
   11.3925    2.5625    0.0000 H   0  0  0  0  0  0  0  0  0  0  0  0
   10.9958    3.3444    0.0000 H   0  0  0  0  0  0  0  0  0  0  0  0
   10.2139    2.9477    0.0000 H   0  0  0  0  0  0  0  0  0  0  0  0
    2.3121   -1.6702    0.0000 H   0  0  0  0  0  0  0  0  0  0  0  0
    1.4643   -1.8938    0.0000 H   0  0  0  0  0  0  0  0  0  0  0  0
    1.6879   -2.7416    0.0000 H   0  0  0  0  0  0  0  0  0  0  0  0
  8  1  1  1  0  0  0
  1 22  1  0  0  0  0
 10  2  1  1  0  0  0
  2 47  1  0  0  0  0
  3 22  2  0  0  0  0
  4 24  1  0  0  0  0
  4 26  1  0  0  0  0
  5  6  1  0  0  0  0
  5  8  1  0  0  0  0
  5 12  1  0  0  0  0
  5 15  1  1  0  0  0
  6  7  1  0  0  0  0
  6  9  1  0  0  0  0
  6 27  1  6  0  0  0
  7 11  1  0  0  0  0
  7 14  1  0  0  0  0
  7 28  1  1  0  0  0
  8 10  1  0  0  0  0
  8 29  1  0  0  0  0
  9 10  1  0  0  0  0
  9 30  1  0  0  0  0
  9 31  1  0  0  0  0
 10 17  1  0  0  0  0
 11 13  1  0  0  0  0
 11 16  1  0  0  0  0
 11 32  1  6  0  0  0
 12 13  1  0  0  0  0
 12 33  1  0  0  0  0
 12 34  1  0  0  0  0
 13 35  1  0  0  0  0
 13 36  1  0  0  0  0
 14 18  1  0  0  0  0
 14 37  1  0  0  0  0
 14 38  1  0  0  0  0
 15 39  1  0  0  0  0
 15 40  1  0  0  0  0
 15 41  1  0  0  0  0
 16 19  2  0  0  0  0
 16 20  1  0  0  0  0
 17 42  1  0  0  0  0
 17 43  1  0  0  0  0
 17 44  1  0  0  0  0
 18 19  1  0  0  0  0
 18 45  1  0  0  0  0
 18 46  1  0  0  0  0
 19 21  1  0  0  0  0
 20 23  2  0  0  0  0
 20 48  1  0  0  0  0
 21 24  2  0  0  0  0
 21 49  1  0  0  0  0
 22 25  1  0  0  0  0
 23 24  1  0  0  0  0
 23 50  1  0  0  0  0
 25 51  1  0  0  0  0
 25 52  1  0  0  0  0
 25 53  1  0  0  0  0
 26 54  1  0  0  0  0
 26 55  1  0  0  0  0
 26 56  1  0  0  0  0
M  END
> <PUBCHEM_COMPOUND_CID>
245237

> <PUBCHEM_COMPOUND_CANONICALIZED>
1

> <PUBCHEM_CACTVS_COMPLEXITY>
562

> <PUBCHEM_CACTVS_HBOND_ACCEPTOR>
4

> <PUBCHEM_CACTVS_HBOND_DONOR>
1

> <PUBCHEM_CACTVS_ROTATABLE_BOND>
3

> <PUBCHEM_CACTVS_SUBSKEYS>
AAADceB4OAAAAAAAAAAAAAAAAAAAAYAAAAAwYMAAAAAAAGDBAAAAGgAACAAAD1SgmAIyDoAABgCIAiDSCAACCAAgIAAIiAAGCIgNJiKEMRqCcCAkwBELqAeA4PwPoAABAAAQAADAAAYAACAAAYAADCAAAA==

> <PUBCHEM_IUPAC_OPENEYE_NAME>
[(8R,9S,13S,14S,16S,17R)-16-hydroxy-3-methoxy-13,16-dimethyl-7,8,9,11,12,14,15,17-octahydro-6H-cyclopenta[a]phenanthren-17-yl] acetate

> <PUBCHEM_IUPAC_CAS_NAME>
acetic acid [(8R,9S,13S,14S,16S,17R)-16-hydroxy-3-methoxy-13,16-dimethyl-7,8,9,11,12,14,15,17-octahydro-6H-cyclopenta[a]phenanthren-17-yl] ester

> <PUBCHEM_IUPAC_NAME>
[(8R,9S,13S,14S,16S,17R)-16-hydroxy-3-methoxy-13,16-dimethyl-7,8,9,11,12,14,15,17-octahydro-6H-cyclopenta[a]phenanthren-17-yl] acetate

> <PUBCHEM_IUPAC_SYSTEMATIC_NAME>
[(8R,9S,13S,14S,16S,17R)-3-methoxy-13,16-dimethyl-16-oxidanyl-7,8,9,11,12,14,15,17-octahydro-6H-cyclopenta[a]phenanthren-17-yl] ethanoate

> <PUBCHEM_IUPAC_TRADITIONAL_NAME>
acetic acid [(8R,9S,13S,14S,16S,17R)-16-hydroxy-3-methoxy-13,16-dimethyl-7,8,9,11,12,14,15,17-octahydro-6H-cyclopenta[a]phenanthren-17-yl] ester

> <PUBCHEM_IUPAC_INCHI>
InChI=1S/C22H30O4/c1-13(23)26-20-21(2)10-9-17-16-8-6-15(25-4)11-14(16)5-7-18(17)19(21)12-22(20,3)24/h6,8,11,17-20,24H,5,7,9-10,12H2,1-4H3/t17-,18-,19+,20-,21+,22+/m1/s1

> <PUBCHEM_IUPAC_INCHIKEY>
AQYZEWWPIBKYCF-BTOHRNCKSA-N

> <PUBCHEM_XLOGP3_AA>
4

> <PUBCHEM_EXACT_MASS>
358.214409

> <PUBCHEM_MOLECULAR_FORMULA>
C22H30O4

> <PUBCHEM_MOLECULAR_WEIGHT>
358.4712

> <PUBCHEM_OPENEYE_CAN_SMILES>
CC(=O)OC1C2(CCC3C(C2CC1(C)O)CCC4=C3C=CC(=C4)OC)C

> <PUBCHEM_OPENEYE_ISO_SMILES>
CC(=O)O[C@@H]1[C@]2(CC[C@H]3[C@H]([C@@H]2C[C@]1(C)O)CCC4=C3C=CC(=C4)OC)C

> <PUBCHEM_CACTVS_TPSA>
55.8

> <PUBCHEM_MONOISOTOPIC_WEIGHT>
358.214409

> <PUBCHEM_TOTAL_CHARGE>
0

> <PUBCHEM_HEAVY_ATOM_COUNT>
26

> <PUBCHEM_ATOM_DEF_STEREO_COUNT>
6

> <PUBCHEM_ATOM_UDEF_STEREO_COUNT>
0

> <PUBCHEM_BOND_DEF_STEREO_COUNT>
0

> <PUBCHEM_BOND_UDEF_STEREO_COUNT>
0

> <PUBCHEM_ISOTOPIC_ATOM_COUNT>
0

> <PUBCHEM_COMPONENT_COUNT>
1

> <PUBCHEM_CACTVS_TAUTO_COUNT>
1

> <PUBCHEM_COORDINATE_TYPE>
1
5
255

> <PUBCHEM_BONDANNOTATIONS>
8  1  5
11  32  6
16  19  8
16  20  8
19  21  8
10  2  5
20  23  8
21  24  8
23  24  8
5  15  5
6  27  6
7  28  5

$$$$

