3731686
  -OEChem-07051213093D

 25 24  0     1  0  0  0  0  0999 V2000
    0.0191   -2.0883    0.7014 O   0  0  0  0  0  0  0  0  0  0  0  0
    0.1363   -1.4060   -1.4580 O   0  0  0  0  0  0  0  0  0  0  0  0
   -2.4707   -0.1133    1.2049 O   0  0  0  0  0  0  0  0  0  0  0  0
    0.2511    0.2664    0.3080 C   0  0  1  0  0  0  0  0  0  0  0  0
    1.5904    0.8984   -0.1219 C   0  0  0  0  0  0  0  0  0  0  0  0
   -0.9268    1.1062   -0.2119 C   0  0  0  0  0  0  0  0  0  0  0  0
    2.8421    0.1671    0.3794 C   0  0  0  0  0  0  0  0  0  0  0  0
    0.1381   -1.1403   -0.2624 C   0  0  0  0  0  0  0  0  0  0  0  0
   -2.2890    0.5592    0.1915 C   0  0  0  0  0  0  0  0  0  0  0  0
    4.1446    0.8519   -0.0041 C   0  0  0  0  0  0  0  0  0  0  0  0
   -3.4351    0.8987   -0.7266 C   0  0  0  0  0  0  0  0  0  0  0  0
    0.2105    0.2115    1.4028 H   0  0  0  0  0  0  0  0  0  0  0  0
    1.6367    0.9547   -1.2176 H   0  0  0  0  0  0  0  0  0  0  0  0
    1.6224    1.9328    0.2439 H   0  0  0  0  0  0  0  0  0  0  0  0
   -0.8932    1.1516   -1.3076 H   0  0  0  0  0  0  0  0  0  0  0  0
   -0.8625    2.1322    0.1678 H   0  0  0  0  0  0  0  0  0  0  0  0
    2.8582   -0.8547   -0.0169 H   0  0  0  0  0  0  0  0  0  0  0  0
    2.7963    0.0834    1.4717 H   0  0  0  0  0  0  0  0  0  0  0  0
    4.1899    1.8640    0.4102 H   0  0  0  0  0  0  0  0  0  0  0  0
    4.2426    0.9214   -1.0921 H   0  0  0  0  0  0  0  0  0  0  0  0
    4.9995    0.2872    0.3805 H   0  0  0  0  0  0  0  0  0  0  0  0
   -3.5216    1.9843   -0.8175 H   0  0  0  0  0  0  0  0  0  0  0  0
   -3.2641    0.4490   -1.7078 H   0  0  0  0  0  0  0  0  0  0  0  0
   -4.3679    0.5044   -0.3139 H   0  0  0  0  0  0  0  0  0  0  0  0
   -0.0609   -2.9888    0.3207 H   0  0  0  0  0  0  0  0  0  0  0  0
  1  8  1  0  0  0  0
  1 25  1  0  0  0  0
  2  8  2  0  0  0  0
  3  9  2  0  0  0  0
  4  5  1  0  0  0  0
  4  6  1  0  0  0  0
  4  8  1  0  0  0  0
  4 12  1  0  0  0  0
  5  7  1  0  0  0  0
  5 13  1  0  0  0  0
  5 14  1  0  0  0  0
  6  9  1  0  0  0  0
  6 15  1  0  0  0  0
  6 16  1  0  0  0  0
  7 10  1  0  0  0  0
  7 17  1  0  0  0  0
  7 18  1  0  0  0  0
  9 11  1  0  0  0  0
 10 19  1  0  0  0  0
 10 20  1  0  0  0  0
 10 21  1  0  0  0  0
 11 22  1  0  0  0  0
 11 23  1  0  0  0  0
 11 24  1  0  0  0  0
M  END
> <PUBCHEM_COMPOUND_CID>
3731686

> <PUBCHEM_CONFORMER_RMSD>
0.6

> <PUBCHEM_CONFORMER_DIVERSEORDER>
1
119
32
114
107
123
104
105
16
120
60
58
124
93
117
113
29
103
118
44
82
88
89
81
77
109
112
9
121
53
96
64
70
78
108
14
73
83
59
6
66
19
21
116
90
74
85
72
12
86
61
80
84
41
65
122
97
127
10
102
47
91
52
92
56
40
35
37
22
87
76
7
57
98
36
71
34
5
125
43
95
67
101
68
11
4
99
38
62
8
94
26
45
115
49
51
126
111
13
2
50
128
42
33
54
100
3
30
69
39
106
31
46
25
63
18
75
28
24
48
79
110
55
23
15
17
20
27

> <PUBCHEM_MMFF94_PARTIAL_CHARGES>
9
1 -0.65
11 0.06
2 -0.57
25 0.5
3 -0.57
4 0.06
6 0.06
8 0.66
9 0.45

> <PUBCHEM_EFFECTIVE_ROTOR_COUNT>
5

> <PUBCHEM_PHARMACOPHORE_FEATURES>
6
1 1 acceptor
1 10 hydrophobe
1 2 acceptor
1 3 acceptor
3 1 2 8 anion
4 4 5 6 7 hydrophobe

> <PUBCHEM_HEAVY_ATOM_COUNT>
11

> <PUBCHEM_ATOM_DEF_STEREO_COUNT>
0

> <PUBCHEM_ATOM_UDEF_STEREO_COUNT>
1

> <PUBCHEM_BOND_DEF_STEREO_COUNT>
0

> <PUBCHEM_BOND_UDEF_STEREO_COUNT>
0

> <PUBCHEM_ISOTOPIC_ATOM_COUNT>
0

> <PUBCHEM_COMPONENT_COUNT>
1

> <PUBCHEM_CACTVS_TAUTO_COUNT>
3

> <PUBCHEM_CONFORMER_ID>
0038F0E600000001

> <PUBCHEM_MMFF94_ENERGY>
10.0597

> <PUBCHEM_FEATURE_SELFOVERLAP>
30.506

> <PUBCHEM_SHAPE_FINGERPRINT>
10219947 1 18343021120402032924
11062470 55 15051734204807814373
14325111 11 18411700997697741416
14993402 34 18411422791228176868
15775835 57 18334583446642753004
16945 1 18335975428384525408
18186145 218 17385724694787044104
20653085 51 15285631063032476928
21028194 46 18334293149892913112
23235685 24 18334297569567293456
23402539 116 17313107475248185224
3250762 1 16956217884729820112
366044 4 18186805772702873198
5084963 1 18335143046627139569
528862 383 18058462056825786482
6333449 129 17895759482869010110
81539 233 18270967954517397022

> <PUBCHEM_SHAPE_MULTIPOLES>
208.77
5.53
1.55
0.97
2.45
0.81
0.09
-2.72
-0.05
-0.02
0.1
-0.37
0.26
0.21

> <PUBCHEM_SHAPE_SELFOVERLAP>
390.912

> <PUBCHEM_SHAPE_VOLUME>
130.5

> <PUBCHEM_COORDINATE_TYPE>
2
5
10

$$$$

