2997
  -OEChem-07051212533D

 30 32  0     0  0  0  0  0  0999 V2000
   -0.8491   -4.3000    0.8044 Cl  0  0  0  0  0  0  0  0  0  0  0  0
   -2.4320    3.4958   -0.6045 O   0  0  0  0  0  0  0  0  0  0  0  0
   -2.4289    1.2095   -0.7293 N   0  0  0  0  0  0  0  0  0  0  0  0
    0.0820    1.9420    0.7802 N   0  0  0  0  0  0  0  0  0  0  0  0
   -0.7273   -0.3283    0.2414 C   0  0  0  0  0  0  0  0  0  0  0  0
    0.3148    0.7315    0.4015 C   0  0  0  0  0  0  0  0  0  0  0  0
   -1.9630   -0.0741   -0.3760 C   0  0  0  0  0  0  0  0  0  0  0  0
    1.7304    0.3984    0.0709 C   0  0  0  0  0  0  0  0  0  0  0  0
   -0.4005   -1.6401    0.6230 C   0  0  0  0  0  0  0  0  0  0  0  0
   -1.2714    2.3230    1.1206 C   0  0  0  0  0  0  0  0  0  0  0  0
   -2.8014   -1.1525   -0.6963 C   0  0  0  0  0  0  0  0  0  0  0  0
   -2.0676    2.4085   -0.1544 C   0  0  0  0  0  0  0  0  0  0  0  0
   -1.2670   -2.6958    0.3420 C   0  0  0  0  0  0  0  0  0  0  0  0
   -2.4586   -2.4547   -0.3330 C   0  0  0  0  0  0  0  0  0  0  0  0
    2.0010   -0.5514   -0.9060 C   0  0  0  0  0  0  0  0  0  0  0  0
    2.7614    1.0422    0.7433 C   0  0  0  0  0  0  0  0  0  0  0  0
    3.3250   -0.8628   -1.2155 C   0  0  0  0  0  0  0  0  0  0  0  0
    4.0853    0.7307    0.4335 C   0  0  0  0  0  0  0  0  0  0  0  0
    4.3670   -0.2218   -0.5458 C   0  0  0  0  0  0  0  0  0  0  0  0
    0.5331   -1.8481    1.1418 H   0  0  0  0  0  0  0  0  0  0  0  0
   -3.1563    1.2492   -1.4388 H   0  0  0  0  0  0  0  0  0  0  0  0
   -1.2565    3.3140    1.5873 H   0  0  0  0  0  0  0  0  0  0  0  0
   -1.7424    1.6457    1.8423 H   0  0  0  0  0  0  0  0  0  0  0  0
   -3.7492   -0.9843   -1.2037 H   0  0  0  0  0  0  0  0  0  0  0  0
   -3.1376   -3.2684   -0.5747 H   0  0  0  0  0  0  0  0  0  0  0  0
    1.2191   -1.0402   -1.4792 H   0  0  0  0  0  0  0  0  0  0  0  0
    2.5668    1.7804    1.5161 H   0  0  0  0  0  0  0  0  0  0  0  0
    3.5449   -1.5974   -1.9848 H   0  0  0  0  0  0  0  0  0  0  0  0
    4.8971    1.2284    0.9559 H   0  0  0  0  0  0  0  0  0  0  0  0
    5.3978   -0.4630   -0.7881 H   0  0  0  0  0  0  0  0  0  0  0  0
  1 13  1  0  0  0  0
  2 12  2  0  0  0  0
  3  7  1  0  0  0  0
  3 12  1  0  0  0  0
  3 21  1  0  0  0  0
  4  6  2  0  0  0  0
  4 10  1  0  0  0  0
  5  6  1  0  0  0  0
  5  7  2  0  0  0  0
  5  9  1  0  0  0  0
  6  8  1  0  0  0  0
  7 11  1  0  0  0  0
  8 15  2  0  0  0  0
  8 16  1  0  0  0  0
  9 13  2  0  0  0  0
  9 20  1  0  0  0  0
 10 12  1  0  0  0  0
 10 22  1  0  0  0  0
 10 23  1  0  0  0  0
 11 14  2  0  0  0  0
 11 24  1  0  0  0  0
 13 14  1  0  0  0  0
 14 25  1  0  0  0  0
 15 17  1  0  0  0  0
 15 26  1  0  0  0  0
 16 18  2  0  0  0  0
 16 27  1  0  0  0  0
 17 19  2  0  0  0  0
 17 28  1  0  0  0  0
 18 19  1  0  0  0  0
 18 29  1  0  0  0  0
 19 30  1  0  0  0  0
M  END
> <PUBCHEM_COMPOUND_CID>
2997

> <PUBCHEM_CONFORMER_RMSD>
0.6

> <PUBCHEM_CONFORMER_DIVERSEORDER>
1
2

> <PUBCHEM_MMFF94_PARTIAL_CHARGES>
28
1 -0.18
10 0.31
11 -0.15
12 0.57
13 0.18
14 -0.15
15 -0.15
16 -0.15
17 -0.15
18 -0.15
19 -0.15
2 -0.57
20 0.15
21 0.37
24 0.15
25 0.15
26 0.15
27 0.15
28 0.15
29 0.15
3 -0.55
30 0.15
4 -0.7
5 0.09
6 0.28
7 0.12
8 0.09
9 -0.15

> <PUBCHEM_EFFECTIVE_ROTOR_COUNT>
1.4

> <PUBCHEM_PHARMACOPHORE_FEATURES>
6
1 2 acceptor
1 3 donor
1 4 acceptor
6 5 7 9 11 13 14 rings
6 8 15 16 17 18 19 rings
7 3 4 5 6 7 10 12 rings

> <PUBCHEM_HEAVY_ATOM_COUNT>
19

> <PUBCHEM_ATOM_DEF_STEREO_COUNT>
0

> <PUBCHEM_ATOM_UDEF_STEREO_COUNT>
0

> <PUBCHEM_BOND_DEF_STEREO_COUNT>
0

> <PUBCHEM_BOND_UDEF_STEREO_COUNT>
0

> <PUBCHEM_ISOTOPIC_ATOM_COUNT>
0

> <PUBCHEM_COMPONENT_COUNT>
1

> <PUBCHEM_CACTVS_TAUTO_COUNT>
3

> <PUBCHEM_CONFORMER_ID>
00000BB500000001

> <PUBCHEM_MMFF94_ENERGY>
75.4668

> <PUBCHEM_FEATURE_SELFOVERLAP>
30.457

> <PUBCHEM_SHAPE_FINGERPRINT>
11578080 2 15831484576819538380
11582403 64 16526735698063573616
11680986 33 17545048104581446723
116883 192 18336545993283333661
12173636 292 18341054124201591029
12500047 106 18339641256555778924
12532896 13 18265611159552325329
12553582 1 17978213977086543374
12592029 89 17979628267062330113
12730499 353 17835232725397920569
12788726 201 18410581660310964779
13140716 1 18049720724330491498
13294875 104 17831596631479455696
14022347 108 18198904717045702427
14115302 16 18129664067239308263
14790565 3 18410568505538897529
15415430 2 18410013199972628667
16752209 62 18340499935933863547
167882 2 17478050917925412469
16945 1 18341896251207901723
17134986 127 17980483686792520853
17357779 13 18189348874320485341
18186145 218 18118117206941987092
18785283 64 16898194938319982177
19049666 15 18261388979483880566
19591789 44 18265326403684778875
20510252 161 18408604755636658321
20645476 183 18201151173745737972
20645477 70 16538498986543826871
21285901 2 18187360991789340127
21452121 199 17694224365795900870
21665056 4 18340481287265134770
23402539 116 18337404746250726071
23419403 2 16543312699567150102
23557571 272 18263357006571257204
23559900 14 18115590504131743822
2748010 2 17687197391167014513
3084891 72 18339654360253637651
46194498 28 16678709890649926255
7364860 26 17402615645646918329
81228 2 18337380548426085961
8809292 202 18335136479790812494
9709674 26 18260827094887973238

> <PUBCHEM_SHAPE_MULTIPOLES>
377.05
5.92
4.11
1.04
6.9
0.73
0.02
0.83
1.26
-4.69
-0.78
0.18
0.03
0.91

> <PUBCHEM_SHAPE_SELFOVERLAP>
822.538

> <PUBCHEM_SHAPE_VOLUME>
203.9

> <PUBCHEM_COORDINATE_TYPE>
2
5
10

$$$$

