92825
  -OEChem-07051212563D

 80 84  0     1  0  0  0  0  0999 V2000
    6.9311    1.4772    0.1242 O   0  0  0  0  0  0  0  0  0  0  0  0
   -4.2366   -3.0283   -0.9285 O   0  0  0  0  0  0  0  0  0  0  0  0
   -3.1130   -1.5259   -2.2232 O   0  0  0  0  0  0  0  0  0  0  0  0
    6.2510   -1.5092    1.9701 O   0  0  0  0  0  0  0  0  0  0  0  0
    0.5424   -0.7487   -0.0281 C   0  0  2  0  0  0  0  0  0  0  0  0
    1.2351    0.5957   -0.4763 C   0  0  1  0  0  0  0  0  0  0  0  0
    2.7917    0.5402   -0.8181 C   0  0  2  0  0  0  0  0  0  0  0  0
   -0.9158   -0.3775    0.6175 C   0  0  1  0  0  0  0  0  0  0  0  0
    3.5020   -0.1751    0.3850 C   0  0  1  0  0  0  0  0  0  0  0  0
    1.4424   -1.5014    0.9939 C   0  0  0  0  0  0  0  0  0  0  0  0
   -1.7234    0.4808   -0.3782 C   0  0  0  0  0  0  0  0  0  0  0  0
    2.9206   -1.5864    0.6072 C   0  0  0  0  0  0  0  0  0  0  0  0
   -3.2555    0.4956   -0.3325 C   0  0  1  0  0  0  0  0  0  0  0  0
    0.3740    1.3365   -1.5237 C   0  0  0  0  0  0  0  0  0  0  0  0
   -1.6779   -1.6754    1.0221 C   0  0  0  0  0  0  0  0  0  0  0  0
    5.0643   -0.1064    0.3938 C   0  0  2  0  0  0  0  0  0  0  0  0
   -3.8684   -0.8858   -0.0010 C   0  0  1  0  0  0  0  0  0  0  0  0
    3.3345    2.0008   -0.8973 C   0  0  0  0  0  0  0  0  0  0  0  0
   -3.1867   -1.5043    1.2315 C   0  0  0  0  0  0  0  0  0  0  0  0
    0.3474   -1.7031   -1.2484 C   0  0  0  0  0  0  0  0  0  0  0  0
   -1.1066    1.2355   -1.3095 C   0  0  0  0  0  0  0  0  0  0  0  0
    3.0893   -0.1373   -2.1796 C   0  0  0  0  0  0  0  0  0  0  0  0
   -0.7739    0.4773    1.9150 C   0  0  0  0  0  0  0  0  0  0  0  0
    5.5124    1.3733    0.2483 C   0  0  2  0  0  0  0  0  0  0  0  0
    4.8591    2.1033   -0.9222 C   0  0  0  0  0  0  0  0  0  0  0  0
   -3.7695    1.6275    0.5866 C   0  0  0  0  0  0  0  0  0  0  0  0
   -5.3987   -0.8039    0.1952 C   0  0  0  0  0  0  0  0  0  0  0  0
   -5.3069    1.7020    0.7029 C   0  0  0  0  0  0  0  0  0  0  0  0
   -5.8514    0.3231    1.1197 C   0  0  0  0  0  0  0  0  0  0  0  0
    5.7621   -1.0412   -0.6055 C   0  0  0  0  0  0  0  0  0  0  0  0
   -3.6818   -1.8177   -1.1817 C   0  0  0  0  0  0  0  0  0  0  0  0
    5.5214   -0.5430    1.7739 C   0  0  0  0  0  0  0  0  0  0  0  0
   -5.9377    2.1702   -0.6222 C   0  0  0  0  0  0  0  0  0  0  0  0
   -5.6767    2.7317    1.7889 C   0  0  0  0  0  0  0  0  0  0  0  0
    1.2059    1.2392    0.4135 H   0  0  0  0  0  0  0  0  0  0  0  0
    3.2009    0.3974    1.2794 H   0  0  0  0  0  0  0  0  0  0  0  0
    1.0632   -2.5174    1.1592 H   0  0  0  0  0  0  0  0  0  0  0  0
    1.4158   -1.0140    1.9709 H   0  0  0  0  0  0  0  0  0  0  0  0
    3.4453   -2.0889    1.4281 H   0  0  0  0  0  0  0  0  0  0  0  0
    3.0498   -2.2307   -0.2660 H   0  0  0  0  0  0  0  0  0  0  0  0
   -3.6012    0.7611   -1.3428 H   0  0  0  0  0  0  0  0  0  0  0  0
    0.5650    0.9679   -2.5343 H   0  0  0  0  0  0  0  0  0  0  0  0
    0.6387    2.4003   -1.5230 H   0  0  0  0  0  0  0  0  0  0  0  0
   -1.2457   -2.0864    1.9438 H   0  0  0  0  0  0  0  0  0  0  0  0
   -1.5562   -2.4613    0.2747 H   0  0  0  0  0  0  0  0  0  0  0  0
    2.9735    2.5742   -0.0331 H   0  0  0  0  0  0  0  0  0  0  0  0
    2.9402    2.5046   -1.7882 H   0  0  0  0  0  0  0  0  0  0  0  0
   -3.6139   -2.4881    1.4654 H   0  0  0  0  0  0  0  0  0  0  0  0
   -3.3673   -0.8896    2.1200 H   0  0  0  0  0  0  0  0  0  0  0  0
   -0.3778   -1.3273   -1.9738 H   0  0  0  0  0  0  0  0  0  0  0  0
    1.2718   -1.8796   -1.7934 H   0  0  0  0  0  0  0  0  0  0  0  0
    0.0172   -2.7001   -0.9421 H   0  0  0  0  0  0  0  0  0  0  0  0
   -1.7089    1.8284   -1.9950 H   0  0  0  0  0  0  0  0  0  0  0  0
    2.3211    0.0645   -2.9280 H   0  0  0  0  0  0  0  0  0  0  0  0
    4.0148    0.2212   -2.6349 H   0  0  0  0  0  0  0  0  0  0  0  0
    3.1960   -1.2203   -2.1079 H   0  0  0  0  0  0  0  0  0  0  0  0
   -0.1184    0.0170    2.6566 H   0  0  0  0  0  0  0  0  0  0  0  0
   -0.4030    1.4880    1.7181 H   0  0  0  0  0  0  0  0  0  0  0  0
   -1.7278    0.5976    2.4336 H   0  0  0  0  0  0  0  0  0  0  0  0
    5.2492    1.9168    1.1664 H   0  0  0  0  0  0  0  0  0  0  0  0
    5.2705    1.7387   -1.8696 H   0  0  0  0  0  0  0  0  0  0  0  0
    5.1451    3.1628   -0.8900 H   0  0  0  0  0  0  0  0  0  0  0  0
   -3.3636    1.5043    1.5942 H   0  0  0  0  0  0  0  0  0  0  0  0
   -3.3837    2.5916    0.2277 H   0  0  0  0  0  0  0  0  0  0  0  0
   -5.7862   -1.7479    0.6019 H   0  0  0  0  0  0  0  0  0  0  0  0
   -5.8961   -0.6829   -0.7765 H   0  0  0  0  0  0  0  0  0  0  0  0
   -6.9485    0.3436    1.1453 H   0  0  0  0  0  0  0  0  0  0  0  0
   -5.5297    0.0917    2.1433 H   0  0  0  0  0  0  0  0  0  0  0  0
    5.6394   -0.7133   -1.6383 H   0  0  0  0  0  0  0  0  0  0  0  0
    6.8448   -1.0847   -0.4329 H   0  0  0  0  0  0  0  0  0  0  0  0
    5.3924   -2.0694   -0.5324 H   0  0  0  0  0  0  0  0  0  0  0  0
    5.1506    0.0557    2.6247 H   0  0  0  0  0  0  0  0  0  0  0  0
   -5.5618    3.1599   -0.9059 H   0  0  0  0  0  0  0  0  0  0  0  0
   -5.7267    1.4921   -1.4537 H   0  0  0  0  0  0  0  0  0  0  0  0
   -7.0275    2.2443   -0.5316 H   0  0  0  0  0  0  0  0  0  0  0  0
   -5.2575    2.4525    2.7623 H   0  0  0  0  0  0  0  0  0  0  0  0
   -5.2948    3.7273    1.5364 H   0  0  0  0  0  0  0  0  0  0  0  0
   -6.7635    2.8097    1.9064 H   0  0  0  0  0  0  0  0  0  0  0  0
    7.1549    2.4223    0.0777 H   0  0  0  0  0  0  0  0  0  0  0  0
   -4.1260   -3.6465   -1.6819 H   0  0  0  0  0  0  0  0  0  0  0  0
  1 24  1  0  0  0  0
  1 79  1  0  0  0  0
  2 31  1  0  0  0  0
  2 80  1  0  0  0  0
  3 31  2  0  0  0  0
  4 32  2  0  0  0  0
  5  6  1  0  0  0  0
  5  8  1  0  0  0  0
  5 10  1  0  0  0  0
  5 20  1  0  0  0  0
  6  7  1  0  0  0  0
  6 14  1  0  0  0  0
  6 35  1  0  0  0  0
  7  9  1  0  0  0  0
  7 18  1  0  0  0  0
  7 22  1  0  0  0  0
  8 11  1  0  0  0  0
  8 15  1  0  0  0  0
  8 23  1  0  0  0  0
  9 12  1  0  0  0  0
  9 16  1  0  0  0  0
  9 36  1  0  0  0  0
 10 12  1  0  0  0  0
 10 37  1  0  0  0  0
 10 38  1  0  0  0  0
 11 13  1  0  0  0  0
 11 21  2  0  0  0  0
 12 39  1  0  0  0  0
 12 40  1  0  0  0  0
 13 17  1  0  0  0  0
 13 26  1  0  0  0  0
 13 41  1  0  0  0  0
 14 21  1  0  0  0  0
 14 42  1  0  0  0  0
 14 43  1  0  0  0  0
 15 19  1  0  0  0  0
 15 44  1  0  0  0  0
 15 45  1  0  0  0  0
 16 24  1  0  0  0  0
 16 30  1  0  0  0  0
 16 32  1  0  0  0  0
 17 19  1  0  0  0  0
 17 27  1  0  0  0  0
 17 31  1  0  0  0  0
 18 25  1  0  0  0  0
 18 46  1  0  0  0  0
 18 47  1  0  0  0  0
 19 48  1  0  0  0  0
 19 49  1  0  0  0  0
 20 50  1  0  0  0  0
 20 51  1  0  0  0  0
 20 52  1  0  0  0  0
 21 53  1  0  0  0  0
 22 54  1  0  0  0  0
 22 55  1  0  0  0  0
 22 56  1  0  0  0  0
 23 57  1  0  0  0  0
 23 58  1  0  0  0  0
 23 59  1  0  0  0  0
 24 25  1  0  0  0  0
 24 60  1  0  0  0  0
 25 61  1  0  0  0  0
 25 62  1  0  0  0  0
 26 28  1  0  0  0  0
 26 63  1  0  0  0  0
 26 64  1  0  0  0  0
 27 29  1  0  0  0  0
 27 65  1  0  0  0  0
 27 66  1  0  0  0  0
 28 29  1  0  0  0  0
 28 33  1  0  0  0  0
 28 34  1  0  0  0  0
 29 67  1  0  0  0  0
 29 68  1  0  0  0  0
 30 69  1  0  0  0  0
 30 70  1  0  0  0  0
 30 71  1  0  0  0  0
 32 72  1  0  0  0  0
 33 73  1  0  0  0  0
 33 74  1  0  0  0  0
 33 75  1  0  0  0  0
 34 76  1  0  0  0  0
 34 77  1  0  0  0  0
 34 78  1  0  0  0  0
M  END
> <PUBCHEM_COMPOUND_CID>
92825

> <PUBCHEM_CONFORMER_RMSD>
0.8

> <PUBCHEM_CONFORMER_DIVERSEORDER>
1

> <PUBCHEM_MMFF94_PARTIAL_CHARGES>
18
1 -0.68
11 -0.28
13 0.14
14 0.14
16 0.06
17 0.06
2 -0.65
21 -0.29
24 0.28
3 -0.57
31 0.66
32 0.45
4 -0.57
53 0.15
72 0.06
79 0.4
8 0.14
80 0.5

> <PUBCHEM_EFFECTIVE_ROTOR_COUNT>
4.6

> <PUBCHEM_PHARMACOPHORE_FEATURES>
12
1 1 acceptor
1 1 donor
1 2 acceptor
1 3 acceptor
1 4 acceptor
3 2 3 31 anion
3 28 33 34 hydrophobe
6 13 17 26 27 28 29 rings
6 5 6 7 9 10 12 rings
6 5 6 8 11 14 21 rings
6 7 9 16 18 24 25 rings
6 8 11 13 15 17 19 rings

> <PUBCHEM_HEAVY_ATOM_COUNT>
34

> <PUBCHEM_ATOM_DEF_STEREO_COUNT>
9

> <PUBCHEM_ATOM_UDEF_STEREO_COUNT>
0

> <PUBCHEM_BOND_DEF_STEREO_COUNT>
0

> <PUBCHEM_BOND_UDEF_STEREO_COUNT>
0

> <PUBCHEM_ISOTOPIC_ATOM_COUNT>
0

> <PUBCHEM_COMPONENT_COUNT>
1

> <PUBCHEM_CACTVS_TAUTO_COUNT>
1

> <PUBCHEM_CONFORMER_ID>
00016A9900000001

> <PUBCHEM_MMFF94_ENERGY>
143.8483

> <PUBCHEM_FEATURE_SELFOVERLAP>
61.029

> <PUBCHEM_SHAPE_FINGERPRINT>
10 15 18201714072497396001
10290309 65 17385712613239629431
10675989 125 17246373880052749169
10906281 52 17774422933184050658
12166972 35 17632574946627462428
12236239 1 18409449180593339266
12422481 6 18059296560022625444
12616971 3 18273497874948806150
12633257 1 18060420235357811898
12788726 201 17750229369373426465
13224815 77 18201719531004891390
13533116 47 17275108366630122338
13583140 156 16732989712694424951
13690498 29 17604719837840606775
14068700 675 17897459285581876839
14341114 328 18409446990265649668
14394314 77 18343579642223878661
14849402 71 18270959030203941268
14856354 85 18113337471198084927
15131766 46 15551878826412199839
15183329 4 18273494571981759901
1577012 14 18411704275232321040
15788980 27 18410290294077344686
15840311 113 18195516216141989809
17349148 13 17846783996594278406
17980427 23 18341890771083041661
19377110 9 18342740693497231747
20511986 3 18411428318766444017
21033648 144 17631454475363687518
21033648 29 17312824883210361952
21130935 74 18130788966767151930
21424621 283 17315058082354534897
23522609 53 18057860559515088252
23559900 14 17750499836232717814
23569914 2 16955115310706902528
23569943 247 17130441279072098874
24771293 8 18270684152634399820
34797466 226 17531235115625916092
350125 39 17989205984129526804
3680242 22 18060415846070326296
392239 28 18273495697263737144
4073 2 17560230311635518488
4169191 19 17631168581362118820
5104073 3 18130783434585205584
6086070 43 18114471071512349361
7226269 152 18336543906473047265
86090 222 15410045326653505184
9849439 229 17246934631242203761

> <PUBCHEM_SHAPE_MULTIPOLES>
676.23
16.12
2.55
1.79
5.9
0.14
-0.06
4.77
4.39
-1.88
-0.15
0.07
-0.21
-2.33

> <PUBCHEM_SHAPE_SELFOVERLAP>
1444.896

> <PUBCHEM_SHAPE_VOLUME>
368.9

> <PUBCHEM_COORDINATE_TYPE>
2
5
10

$$$$

