442203
  -OEChem-07051212572D

 45 48  0     1  0  0  0  0  0999 V2000
    4.0425   -0.2032    0.0000 O   0  0  0  0  0  0  0  0  0  0  0  0
    2.5459   -1.1161    0.0000 O   0  0  0  0  0  0  0  0  0  0  0  0
    6.1902    3.2428    0.0000 O   0  0  0  0  0  0  0  0  0  0  0  0
    4.1419    3.2428    0.0000 O   0  0  0  0  0  0  0  0  0  0  0  0
    6.9366   -1.7515    0.0000 N   0  0  3  0  0  0  0  0  0  0  0  0
    6.0670   -1.1781    0.0000 C   0  0  2  0  0  0  0  0  0  0  0  0
    5.1660   -1.6120    0.0000 C   0  0  0  0  0  0  0  0  0  0  0  0
    6.2895   -0.2032    0.0000 C   0  0  0  0  0  0  0  0  0  0  0  0
    6.8667   -2.7908    0.0000 C   0  0  0  0  0  0  0  0  0  0  0  0
    5.0722   -2.6494    0.0000 C   0  0  0  0  0  0  0  0  0  0  0  0
    5.9282   -3.2428    0.0000 C   0  0  0  0  0  0  0  0  0  0  0  0
    4.2650   -1.1781    0.0000 C   0  0  0  0  0  0  0  0  0  0  0  0
    5.6660    0.5787    0.0000 C   0  0  0  0  0  0  0  0  0  0  0  0
    7.8324   -1.3073    0.0000 C   0  0  0  0  0  0  0  0  0  0  0  0
    4.2148   -3.1327    0.0000 C   0  0  0  0  0  0  0  0  0  0  0  0
    4.6660    0.5787    0.0000 C   0  0  0  0  0  0  0  0  0  0  0  0
    3.3967   -1.6415    0.0000 C   0  0  0  0  0  0  0  0  0  0  0  0
    3.3714   -2.6253    0.0000 C   0  0  0  0  0  0  0  0  0  0  0  0
    6.2007    1.4726    0.0000 C   0  0  0  0  0  0  0  0  0  0  0  0
    4.1314    1.4726    0.0000 C   0  0  0  0  0  0  0  0  0  0  0  0
    5.6868    2.3787    0.0000 C   0  0  0  0  0  0  0  0  0  0  0  0
    4.6452    2.3787    0.0000 C   0  0  0  0  0  0  0  0  0  0  0  0
    7.1902    3.2389    0.0000 C   0  0  0  0  0  0  0  0  0  0  0  0
    3.1419    3.2389    0.0000 C   0  0  0  0  0  0  0  0  0  0  0  0
    6.8558   -0.8615    0.0000 H   0  0  0  0  0  0  0  0  0  0  0  0
    6.8481   -0.4722    0.0000 H   0  0  0  0  0  0  0  0  0  0  0  0
    6.6761    0.2816    0.0000 H   0  0  0  0  0  0  0  0  0  0  0  0
    7.0362   -3.3872    0.0000 H   0  0  0  0  0  0  0  0  0  0  0  0
    7.4833   -2.7259    0.0000 H   0  0  0  0  0  0  0  0  0  0  0  0
    5.4931   -3.6844    0.0000 H   0  0  0  0  0  0  0  0  0  0  0  0
    6.2889   -3.7471    0.0000 H   0  0  0  0  0  0  0  0  0  0  0  0
    8.1079   -1.8627    0.0000 H   0  0  0  0  0  0  0  0  0  0  0  0
    8.3879   -1.0318    0.0000 H   0  0  0  0  0  0  0  0  0  0  0  0
    7.5570   -0.7518    0.0000 H   0  0  0  0  0  0  0  0  0  0  0  0
    4.2060   -3.7526    0.0000 H   0  0  0  0  0  0  0  0  0  0  0  0
    2.8279   -2.9235    0.0000 H   0  0  0  0  0  0  0  0  0  0  0  0
    6.8206    1.4654    0.0000 H   0  0  0  0  0  0  0  0  0  0  0  0
    3.5114    1.4654    0.0000 H   0  0  0  0  0  0  0  0  0  0  0  0
    2.0000   -1.4101    0.0000 H   0  0  0  0  0  0  0  0  0  0  0  0
    7.1878    2.6189    0.0000 H   0  0  0  0  0  0  0  0  0  0  0  0
    7.8102    3.2365    0.0000 H   0  0  0  0  0  0  0  0  0  0  0  0
    7.1925    3.8589    0.0000 H   0  0  0  0  0  0  0  0  0  0  0  0
    3.1395    3.8589    0.0000 H   0  0  0  0  0  0  0  0  0  0  0  0
    2.5219    3.2365    0.0000 H   0  0  0  0  0  0  0  0  0  0  0  0
    3.1443    2.6189    0.0000 H   0  0  0  0  0  0  0  0  0  0  0  0
  1 12  1  0  0  0  0
  1 16  1  0  0  0  0
  2 17  1  0  0  0  0
  2 39  1  0  0  0  0
  3 21  1  0  0  0  0
  3 23  1  0  0  0  0
  4 22  1  0  0  0  0
  4 24  1  0  0  0  0
  5  6  1  0  0  0  0
  5  9  1  0  0  0  0
  5 14  1  0  0  0  0
  6  7  1  0  0  0  0
  6  8  1  0  0  0  0
  6 25  1  1  0  0  0
  7 10  2  0  0  0  0
  7 12  1  0  0  0  0
  8 13  1  0  0  0  0
  8 26  1  0  0  0  0
  8 27  1  0  0  0  0
  9 11  1  0  0  0  0
  9 28  1  0  0  0  0
  9 29  1  0  0  0  0
 10 11  1  0  0  0  0
 10 15  1  0  0  0  0
 11 30  1  0  0  0  0
 11 31  1  0  0  0  0
 12 17  2  0  0  0  0
 13 16  1  0  0  0  0
 13 19  2  0  0  0  0
 14 32  1  0  0  0  0
 14 33  1  0  0  0  0
 14 34  1  0  0  0  0
 15 18  2  0  0  0  0
 15 35  1  0  0  0  0
 16 20  2  0  0  0  0
 17 18  1  0  0  0  0
 18 36  1  0  0  0  0
 19 21  1  0  0  0  0
 19 37  1  0  0  0  0
 20 22  1  0  0  0  0
 20 38  1  0  0  0  0
 21 22  2  0  0  0  0
 23 40  1  0  0  0  0
 23 41  1  0  0  0  0
 23 42  1  0  0  0  0
 24 43  1  0  0  0  0
 24 44  1  0  0  0  0
 24 45  1  0  0  0  0
M  END
> <PUBCHEM_COMPOUND_CID>
442203

> <PUBCHEM_COMPOUND_CANONICALIZED>
1

> <PUBCHEM_CACTVS_COMPLEXITY>
447

> <PUBCHEM_CACTVS_HBOND_ACCEPTOR>
5

> <PUBCHEM_CACTVS_HBOND_DONOR>
1

> <PUBCHEM_CACTVS_ROTATABLE_BOND>
2

> <PUBCHEM_CACTVS_SUBSKEYS>
AAADceB6OAAAAAAAAAAAAAAAAAAAAAAAAAA8YIAABIAAAACxQAAAHgAACAAADCzBmAYyBoMABgCAAiBCAACCCAAgIAAIiAAOjIgNJyKGsRuGeCvnwBWLuAfw8P8OoQABCAAYQABCAAIQADCAAAAAAAAAAA==

> <PUBCHEM_IUPAC_INCHI>
InChI=1S/C19H21NO4/c1-20-7-6-11-4-5-14(21)19-18(11)13(20)8-12-9-16(22-2)17(23-3)10-15(12)24-19/h4-5,9-10,13,21H,6-8H2,1-3H3/t13-/m0/s1

> <PUBCHEM_IUPAC_INCHIKEY>
ITGZZZYNPULRNZ-ZDUSSCGKSA-N

> <PUBCHEM_XLOGP3_AA>
3

> <PUBCHEM_EXACT_MASS>
327.147058

> <PUBCHEM_MOLECULAR_FORMULA>
C19H21NO4

> <PUBCHEM_MOLECULAR_WEIGHT>
327.37434

> <PUBCHEM_OPENEYE_CAN_SMILES>
CN1CCC2=C3C1CC4=CC(=C(C=C4OC3=C(C=C2)O)OC)OC

> <PUBCHEM_OPENEYE_ISO_SMILES>
CN1CCC2=C3[C@@H]1CC4=CC(=C(C=C4OC3=C(C=C2)O)OC)OC

> <PUBCHEM_CACTVS_TPSA>
51.2

> <PUBCHEM_MONOISOTOPIC_WEIGHT>
327.147058

> <PUBCHEM_TOTAL_CHARGE>
0

> <PUBCHEM_HEAVY_ATOM_COUNT>
24

> <PUBCHEM_ATOM_DEF_STEREO_COUNT>
1

> <PUBCHEM_ATOM_UDEF_STEREO_COUNT>
0

> <PUBCHEM_BOND_DEF_STEREO_COUNT>
0

> <PUBCHEM_BOND_UDEF_STEREO_COUNT>
0

> <PUBCHEM_ISOTOPIC_ATOM_COUNT>
0

> <PUBCHEM_COMPONENT_COUNT>
1

> <PUBCHEM_CACTVS_TAUTO_COUNT>
2

> <PUBCHEM_COORDINATE_TYPE>
1
5
255

> <PUBCHEM_BONDANNOTATIONS>
10  15  8
12  17  8
13  16  8
13  19  8
15  18  8
16  20  8
17  18  8
19  21  8
20  22  8
21  22  8
6  25  5
7  10  8
7  12  8

$$$$

