15950
  -OEChem-07051213133D

 34 34  0     0  0  0  0  0  0999 V2000
   -1.2315    3.8101   -0.2512 Cl  0  0  0  0  0  0  0  0  0  0  0  0
   -1.8481   -1.0950   -0.0606 N   0  0  0  0  0  0  0  0  0  0  0  0
    2.5256    0.5993   -0.0176 N   0  0  0  0  0  0  0  0  0  0  0  0
    0.3505   -0.2782   -0.0374 N   0  0  0  0  0  0  0  0  0  0  0  0
   -1.5171    1.2242   -0.1511 N   0  0  0  0  0  0  0  0  0  0  0  0
    0.7204    2.0909   -0.1292 N   0  0  0  0  0  0  0  0  0  0  0  0
    3.1317   -0.7124    0.0564 C   0  0  0  0  0  0  0  0  0  0  0  0
   -1.3361   -2.4482    0.0111 C   0  0  0  0  0  0  0  0  0  0  0  0
   -3.2806   -0.8810   -0.0936 C   0  0  0  0  0  0  0  0  0  0  0  0
   -0.9616    0.0035   -0.0843 C   0  0  0  0  0  0  0  0  0  0  0  0
    3.0540   -1.2212    1.4899 C   0  0  0  0  0  0  0  0  0  0  0  0
    4.5739   -0.6344   -0.4274 C   0  0  0  0  0  0  0  0  0  0  0  0
    1.1585    0.8100   -0.0627 C   0  0  0  0  0  0  0  0  0  0  0  0
   -0.9071   -2.9462   -1.3587 C   0  0  0  0  0  0  0  0  0  0  0  0
   -3.8168   -0.5406    1.2865 C   0  0  0  0  0  0  0  0  0  0  0  0
   -0.6157    2.2192   -0.1700 C   0  0  0  0  0  0  0  0  0  0  0  0
    2.6059   -1.4124   -0.6050 H   0  0  0  0  0  0  0  0  0  0  0  0
   -0.5031   -2.5240    0.7208 H   0  0  0  0  0  0  0  0  0  0  0  0
   -2.1091   -3.1227    0.4006 H   0  0  0  0  0  0  0  0  0  0  0  0
   -3.5524   -0.0970   -0.8111 H   0  0  0  0  0  0  0  0  0  0  0  0
   -3.7871   -1.7864   -0.4510 H   0  0  0  0  0  0  0  0  0  0  0  0
    3.1160    1.4227    0.0119 H   0  0  0  0  0  0  0  0  0  0  0  0
    3.5327   -2.2023    1.5786 H   0  0  0  0  0  0  0  0  0  0  0  0
    3.5570   -0.5369    2.1827 H   0  0  0  0  0  0  0  0  0  0  0  0
    2.0185   -1.3280    1.8286 H   0  0  0  0  0  0  0  0  0  0  0  0
    4.6189   -0.2662   -1.4583 H   0  0  0  0  0  0  0  0  0  0  0  0
    5.0494   -1.6204   -0.3993 H   0  0  0  0  0  0  0  0  0  0  0  0
    5.1679    0.0469    0.1923 H   0  0  0  0  0  0  0  0  0  0  0  0
   -1.7413   -2.9104   -2.0675 H   0  0  0  0  0  0  0  0  0  0  0  0
   -0.0917   -2.3455   -1.7735 H   0  0  0  0  0  0  0  0  0  0  0  0
   -0.5613   -3.9826   -1.2930 H   0  0  0  0  0  0  0  0  0  0  0  0
   -3.5858   -1.3355    2.0036 H   0  0  0  0  0  0  0  0  0  0  0  0
   -3.3886    0.3898    1.6718 H   0  0  0  0  0  0  0  0  0  0  0  0
   -4.9043   -0.4211    1.2508 H   0  0  0  0  0  0  0  0  0  0  0  0
  1 16  1  0  0  0  0
  2  8  1  0  0  0  0
  2  9  1  0  0  0  0
  2 10  1  0  0  0  0
  3  7  1  0  0  0  0
  3 13  1  0  0  0  0
  3 22  1  0  0  0  0
  4 10  1  0  0  0  0
  4 13  2  0  0  0  0
  5 10  2  0  0  0  0
  5 16  1  0  0  0  0
  6 13  1  0  0  0  0
  6 16  2  0  0  0  0
  7 11  1  0  0  0  0
  7 12  1  0  0  0  0
  7 17  1  0  0  0  0
  8 14  1  0  0  0  0
  8 18  1  0  0  0  0
  8 19  1  0  0  0  0
  9 15  1  0  0  0  0
  9 20  1  0  0  0  0
  9 21  1  0  0  0  0
 11 23  1  0  0  0  0
 11 24  1  0  0  0  0
 11 25  1  0  0  0  0
 12 26  1  0  0  0  0
 12 27  1  0  0  0  0
 12 28  1  0  0  0  0
 14 29  1  0  0  0  0
 14 30  1  0  0  0  0
 14 31  1  0  0  0  0
 15 32  1  0  0  0  0
 15 33  1  0  0  0  0
 15 34  1  0  0  0  0
M  END
> <PUBCHEM_COMPOUND_CID>
15950

> <PUBCHEM_CONFORMER_RMSD>
0.6

> <PUBCHEM_CONFORMER_DIVERSEORDER>
1
55
86
68
38
121
57
82
118
123
113
114
65
75
51
108
93
23
45
72
81
74
34
124
98
44
46
79
116
64
37
60
125
122
41
102
119
67
22
99
94
50
31
89
30
18
117
33
120
47
76
20
42
83
109
48
91
29
28
110
70
49
80
32
87
36
106
35
78
66
25
54
73
52
27
84
101
107
56
62
111
43
95
90
69
19
71
24
105
59
88
115
40
77
92
63
13
11
85
17
100
14
112
53
16
61
26
9
96
58
12
104
39
10
21
6
2
103
4
97
15
7
5
3
8

> <PUBCHEM_MMFF94_PARTIAL_CHARGES>
13
1 -0.18
10 0.72
13 0.72
16 0.8
2 -0.84
22 0.4
3 -0.87
4 -0.62
5 -0.62
6 -0.62
7 0.37
8 0.37
9 0.37

> <PUBCHEM_EFFECTIVE_ROTOR_COUNT>
5

> <PUBCHEM_PHARMACOPHORE_FEATURES>
5
1 3 donor
3 7 11 12 hydrophobe
4 2 4 5 10 cation
4 3 4 6 13 cation
6 4 5 6 10 13 16 rings

> <PUBCHEM_HEAVY_ATOM_COUNT>
16

> <PUBCHEM_ATOM_DEF_STEREO_COUNT>
0

> <PUBCHEM_ATOM_UDEF_STEREO_COUNT>
0

> <PUBCHEM_BOND_DEF_STEREO_COUNT>
0

> <PUBCHEM_BOND_UDEF_STEREO_COUNT>
0

> <PUBCHEM_ISOTOPIC_ATOM_COUNT>
0

> <PUBCHEM_COMPONENT_COUNT>
1

> <PUBCHEM_CACTVS_TAUTO_COUNT>
4

> <PUBCHEM_CONFORMER_ID>
00003E4E00000001

> <PUBCHEM_MMFF94_ENERGY>
37.8185

> <PUBCHEM_FEATURE_SELFOVERLAP>
25.414

> <PUBCHEM_SHAPE_FINGERPRINT>
11357001 24 18270403922205999297
12507560 14 18334852763157632525
12553582 1 18340212903496532906
13140716 1 18266180534919447946
13380535 76 17835532891560015933
15279308 51 18046064861280047263
15375462 189 18202003192378684994
15442244 35 18192144898272942915
15490181 8 17619078664418066053
15669948 3 18340775943965747890
16752209 62 18267318683983042382
16945 1 18409457993887193230
193761 8 17761773270928597487
20510252 161 18261394511269967248
20600515 1 18041826325332437380
20645477 70 17257950195062739199
20671657 1 17978217271669136357
20711985 365 18412546526339594508
20871998 184 18336828709605754684
21029758 27 18271514325918200077
23184049 59 18335974282008195667
2334 1 17978233755379059070
23402539 116 18260555528184491263
23419403 2 16309148746359018615
23552423 10 17617660951774922335
23557571 272 18260256483029588956
23559900 14 17973451194422875594
23598291 2 18119242857545327111
23598294 1 18268433601911808040
2748010 2 18047749592055612783
3091708 16 9063749873763157289
3250762 1 17688297311217707671
34934 24 18266746770543722052
352729 6 18123191465625279844
4175511 71 18339634521772875433
465052 167 18199169729834968659
6992083 37 18262226717123513539
7364860 26 17832988239195375080
81228 2 18341342161962306072
90316 7 18410303496817199867

> <PUBCHEM_SHAPE_MULTIPOLES>
306.24
6.1
3.63
1
4.76
2.33
0.19
-2.6
1.4
-2.49
-1.03
-0.02
-0.59
-0.21

> <PUBCHEM_SHAPE_SELFOVERLAP>
597.361

> <PUBCHEM_SHAPE_VOLUME>
183.1

> <PUBCHEM_COORDINATE_TYPE>
2
5
10

$$$$

