6434236
  -OEChem-07051213132D

 48 47  0     1  0  0  0  0  0999 V2000
    5.1350    0.3450    0.0000 O   0  0  0  0  0  0  0  0  0  0  0  0
    6.0010   -1.1550    0.0000 O   0  0  0  0  0  0  0  0  0  0  0  0
   11.1972   -0.1550    0.0000 C   0  0  3  0  0  0  0  0  0  0  0  0
   12.0632    0.3450    0.0000 C   0  0  0  0  0  0  0  0  0  0  0  0
   12.9292   -0.1550    0.0000 C   0  0  0  0  0  0  0  0  0  0  0  0
   13.7953    0.3450    0.0000 C   0  0  0  0  0  0  0  0  0  0  0  0
   14.6613   -0.1550    0.0000 C   0  0  0  0  0  0  0  0  0  0  0  0
   10.3312    0.3450    0.0000 C   0  0  0  0  0  0  0  0  0  0  0  0
   11.1972   -1.1550    0.0000 C   0  0  0  0  0  0  0  0  0  0  0  0
   15.5273    0.3450    0.0000 C   0  0  0  0  0  0  0  0  0  0  0  0
   14.6613   -1.1550    0.0000 C   0  0  0  0  0  0  0  0  0  0  0  0
    9.4651   -0.1550    0.0000 C   0  0  0  0  0  0  0  0  0  0  0  0
    8.5991    0.3450    0.0000 C   0  0  0  0  0  0  0  0  0  0  0  0
    7.7331   -0.1550    0.0000 C   0  0  0  0  0  0  0  0  0  0  0  0
    7.7331   -1.1550    0.0000 C   0  0  0  0  0  0  0  0  0  0  0  0
    6.8671    0.3450    0.0000 C   0  0  0  0  0  0  0  0  0  0  0  0
    6.0010   -0.1550    0.0000 C   0  0  0  0  0  0  0  0  0  0  0  0
    4.2690   -0.1550    0.0000 C   0  0  0  0  0  0  0  0  0  0  0  0
    3.4030    0.3450    0.0000 C   0  0  0  0  0  0  0  0  0  0  0  0
    2.5369    0.8450    0.0000 C   0  0  0  0  0  0  0  0  0  0  0  0
   10.4611   -0.5800    0.0000 H   0  0  0  0  0  0  0  0  0  0  0  0
   12.4617    0.8199    0.0000 H   0  0  0  0  0  0  0  0  0  0  0  0
   11.6647    0.8199    0.0000 H   0  0  0  0  0  0  0  0  0  0  0  0
   12.5307   -0.6299    0.0000 H   0  0  0  0  0  0  0  0  0  0  0  0
   13.3278   -0.6299    0.0000 H   0  0  0  0  0  0  0  0  0  0  0  0
   14.1938    0.8199    0.0000 H   0  0  0  0  0  0  0  0  0  0  0  0
   13.3967    0.8199    0.0000 H   0  0  0  0  0  0  0  0  0  0  0  0
   14.1244   -0.4650    0.0000 H   0  0  0  0  0  0  0  0  0  0  0  0
   10.7297    0.8199    0.0000 H   0  0  0  0  0  0  0  0  0  0  0  0
    9.9326    0.8199    0.0000 H   0  0  0  0  0  0  0  0  0  0  0  0
   10.5772   -1.1550    0.0000 H   0  0  0  0  0  0  0  0  0  0  0  0
   11.1972   -1.7750    0.0000 H   0  0  0  0  0  0  0  0  0  0  0  0
   11.8172   -1.1550    0.0000 H   0  0  0  0  0  0  0  0  0  0  0  0
   14.0413   -1.1550    0.0000 H   0  0  0  0  0  0  0  0  0  0  0  0
   14.6613   -1.7750    0.0000 H   0  0  0  0  0  0  0  0  0  0  0  0
   15.2813   -1.1550    0.0000 H   0  0  0  0  0  0  0  0  0  0  0  0
   15.8373   -0.1919    0.0000 H   0  0  0  0  0  0  0  0  0  0  0  0
   16.0643    0.6550    0.0000 H   0  0  0  0  0  0  0  0  0  0  0  0
   15.2173    0.8819    0.0000 H   0  0  0  0  0  0  0  0  0  0  0  0
    9.4651   -0.7750    0.0000 H   0  0  0  0  0  0  0  0  0  0  0  0
    8.5991    0.9650    0.0000 H   0  0  0  0  0  0  0  0  0  0  0  0
    7.1131   -1.1550    0.0000 H   0  0  0  0  0  0  0  0  0  0  0  0
    7.7331   -1.7750    0.0000 H   0  0  0  0  0  0  0  0  0  0  0  0
    8.3531   -1.1550    0.0000 H   0  0  0  0  0  0  0  0  0  0  0  0
    6.8671    0.9650    0.0000 H   0  0  0  0  0  0  0  0  0  0  0  0
    3.8705   -0.6299    0.0000 H   0  0  0  0  0  0  0  0  0  0  0  0
    4.6675   -0.6299    0.0000 H   0  0  0  0  0  0  0  0  0  0  0  0
    2.0000    1.1550    0.0000 H   0  0  0  0  0  0  0  0  0  0  0  0
  1 17  1  0  0  0  0
  1 18  1  0  0  0  0
  2 17  2  0  0  0  0
  3  4  1  0  0  0  0
  3  8  1  0  0  0  0
  3  9  1  0  0  0  0
  3 21  1  0  0  0  0
  4  5  1  0  0  0  0
  4 22  1  0  0  0  0
  4 23  1  0  0  0  0
  5  6  1  0  0  0  0
  5 24  1  0  0  0  0
  5 25  1  0  0  0  0
  6  7  1  0  0  0  0
  6 26  1  0  0  0  0
  6 27  1  0  0  0  0
  7 10  1  0  0  0  0
  7 11  1  0  0  0  0
  7 28  1  0  0  0  0
  8 12  1  0  0  0  0
  8 29  1  0  0  0  0
  8 30  1  0  0  0  0
  9 31  1  0  0  0  0
  9 32  1  0  0  0  0
  9 33  1  0  0  0  0
 10 37  1  0  0  0  0
 10 38  1  0  0  0  0
 10 39  1  0  0  0  0
 11 34  1  0  0  0  0
 11 35  1  0  0  0  0
 11 36  1  0  0  0  0
 12 13  2  0  0  0  0
 12 40  1  0  0  0  0
 13 14  1  0  0  0  0
 13 41  1  0  0  0  0
 14 15  1  0  0  0  0
 14 16  2  0  0  0  0
 15 42  1  0  0  0  0
 15 43  1  0  0  0  0
 15 44  1  0  0  0  0
 16 17  1  0  0  0  0
 16 45  1  0  0  0  0
 18 19  1  0  0  0  0
 18 46  1  0  0  0  0
 18 47  1  0  0  0  0
 19 20  3  0  0  0  0
 20 48  1  0  0  0  0
M  END
> <PUBCHEM_COMPOUND_CID>
6434236

> <PUBCHEM_COMPOUND_CANONICALIZED>
1

> <PUBCHEM_CACTVS_COMPLEXITY>
380

> <PUBCHEM_CACTVS_HBOND_ACCEPTOR>
2

> <PUBCHEM_CACTVS_HBOND_DONOR>
0

> <PUBCHEM_CACTVS_ROTATABLE_BOND>
10

> <PUBCHEM_CACTVS_SUBSKEYS>
AAADceB4MAAAAAAAAAAAAAAAAAAAAAAAAAAAAAAAAAAAAAAAAAAAGgAAAAAADQCggAICCAAABADIGiDSCAAAAAAgAAAICAAAAEgIBAIAIQACEAAAgAAIoQMAgMAOAAAAAAAAAAAAAAAAAAAAAAAAAAAAAA==

> <PUBCHEM_IUPAC_OPENEYE_NAME>
prop-2-ynyl (2E,4E)-3,7,11-trimethyldodeca-2,4-dienoate

> <PUBCHEM_IUPAC_CAS_NAME>
(2E,4E)-3,7,11-trimethyldodeca-2,4-dienoic acid prop-2-ynyl ester

> <PUBCHEM_IUPAC_NAME>
prop-2-ynyl (2E,4E)-3,7,11-trimethyldodeca-2,4-dienoate

> <PUBCHEM_IUPAC_SYSTEMATIC_NAME>
prop-2-ynyl (2E,4E)-3,7,11-trimethyldodeca-2,4-dienoate

> <PUBCHEM_IUPAC_TRADITIONAL_NAME>
(2E,4E)-3,7,11-trimethyldodeca-2,4-dienoic acid propargyl ester

> <PUBCHEM_IUPAC_INCHI>
InChI=1S/C18H28O2/c1-6-13-20-18(19)14-17(5)12-8-11-16(4)10-7-9-15(2)3/h1,8,12,14-16H,7,9-11,13H2,2-5H3/b12-8+,17-14+

> <PUBCHEM_IUPAC_INCHIKEY>
FZRBKIRIBLNOAM-WHVZTFIZSA-N

> <PUBCHEM_XLOGP3_AA>
6

> <PUBCHEM_EXACT_MASS>
276.20893

> <PUBCHEM_MOLECULAR_FORMULA>
C18H28O2

> <PUBCHEM_MOLECULAR_WEIGHT>
276.41372

> <PUBCHEM_OPENEYE_CAN_SMILES>
CC(C)CCCC(C)CC=CC(=CC(=O)OCC#C)C

> <PUBCHEM_OPENEYE_ISO_SMILES>
CC(C)CCCC(C)C/C=C/C(=C/C(=O)OCC#C)/C

> <PUBCHEM_CACTVS_TPSA>
26.3

> <PUBCHEM_MONOISOTOPIC_WEIGHT>
276.20893

> <PUBCHEM_TOTAL_CHARGE>
0

> <PUBCHEM_HEAVY_ATOM_COUNT>
20

> <PUBCHEM_ATOM_DEF_STEREO_COUNT>
0

> <PUBCHEM_ATOM_UDEF_STEREO_COUNT>
1

> <PUBCHEM_BOND_DEF_STEREO_COUNT>
2

> <PUBCHEM_BOND_UDEF_STEREO_COUNT>
0

> <PUBCHEM_ISOTOPIC_ATOM_COUNT>
0

> <PUBCHEM_COMPONENT_COUNT>
1

> <PUBCHEM_CACTVS_TAUTO_COUNT>
3

> <PUBCHEM_COORDINATE_TYPE>
1
5
255

> <PUBCHEM_BONDANNOTATIONS>
3  21  3

$$$$

