17395608
  -OEChem-06241222513D

 35 37  0     0  0  0  0  0  0999 V2000
    4.7691    1.3787   -0.8959 F   0  0  0  0  0  0  0  0  0  0  0  0
    0.9754    0.3623    0.1527 O   0  0  0  0  0  0  0  0  0  0  0  0
   -2.0122    2.2192    0.4558 O   0  0  0  0  0  0  0  0  0  0  0  0
   -1.6836   -0.0791    0.0848 N   0  0  0  0  0  0  0  0  0  0  0  0
   -3.2496   -1.8121    0.4451 N   0  0  0  0  0  0  0  0  0  0  0  0
    2.2566    0.8102    0.2208 C   0  0  0  0  0  0  0  0  0  0  0  0
    3.2748   -0.2008    0.0677 C   0  0  0  0  0  0  0  0  0  0  0  0
    0.1749    1.4480    0.3165 C   0  0  0  0  0  0  0  0  0  0  0  0
    2.2829    2.1699    0.4265 C   0  0  0  0  0  0  0  0  0  0  0  0
    0.9310    2.5841    0.4884 C   0  0  0  0  0  0  0  0  0  0  0  0
   -1.2336    1.2473    0.2855 C   0  0  0  0  0  0  0  0  0  0  0  0
    4.5098    0.1263   -0.4925 C   0  0  0  0  0  0  0  0  0  0  0  0
    3.0214   -1.5084    0.4821 C   0  0  0  0  0  0  0  0  0  0  0  0
   -3.0005   -0.5472    0.0385 C   0  0  0  0  0  0  0  0  0  0  0  0
   -5.2854   -0.1323   -0.4752 C   0  0  0  0  0  0  0  0  0  0  0  0
   -3.9730    0.3241   -0.4254 C   0  0  0  0  0  0  0  0  0  0  0  0
    5.4912   -0.8543   -0.6382 C   0  0  0  0  0  0  0  0  0  0  0  0
    4.0029   -2.4888    0.3362 C   0  0  0  0  0  0  0  0  0  0  0  0
    5.2375   -2.1619   -0.2239 C   0  0  0  0  0  0  0  0  0  0  0  0
   -5.5811   -1.4277   -0.0655 C   0  0  0  0  0  0  0  0  0  0  0  0
   -6.3717    0.7629   -0.9663 C   0  0  0  0  0  0  0  0  0  0  0  0
   -4.5368   -2.2206    0.3823 C   0  0  0  0  0  0  0  0  0  0  0  0
    3.1593    2.7947    0.5263 H   0  0  0  0  0  0  0  0  0  0  0  0
    0.5604    3.5879    0.6411 H   0  0  0  0  0  0  0  0  0  0  0  0
    2.0710   -1.7901    0.9289 H   0  0  0  0  0  0  0  0  0  0  0  0
   -0.9820   -0.8113    0.1697 H   0  0  0  0  0  0  0  0  0  0  0  0
   -3.7538    1.3203   -0.7911 H   0  0  0  0  0  0  0  0  0  0  0  0
    6.4526   -0.5995   -1.0742 H   0  0  0  0  0  0  0  0  0  0  0  0
    3.8064   -3.5066    0.6604 H   0  0  0  0  0  0  0  0  0  0  0  0
   -6.5932   -1.8170   -0.0892 H   0  0  0  0  0  0  0  0  0  0  0  0
    6.0018   -2.9252   -0.3370 H   0  0  0  0  0  0  0  0  0  0  0  0
   -6.6488    1.4804   -0.1875 H   0  0  0  0  0  0  0  0  0  0  0  0
   -6.0483    1.3125   -1.8568 H   0  0  0  0  0  0  0  0  0  0  0  0
   -7.2662    0.1955   -1.2452 H   0  0  0  0  0  0  0  0  0  0  0  0
   -4.7145   -3.2384    0.7136 H   0  0  0  0  0  0  0  0  0  0  0  0
  1 12  1  0  0  0  0
  2  6  1  0  0  0  0
  2  8  1  0  0  0  0
  3 11  2  0  0  0  0
  4 11  1  0  0  0  0
  4 14  1  0  0  0  0
  4 26  1  0  0  0  0
  5 14  2  0  0  0  0
  5 22  1  0  0  0  0
  6  7  1  0  0  0  0
  6  9  2  0  0  0  0
  7 12  1  0  0  0  0
  7 13  2  0  0  0  0
  8 10  2  0  0  0  0
  8 11  1  0  0  0  0
  9 10  1  0  0  0  0
  9 23  1  0  0  0  0
 10 24  1  0  0  0  0
 12 17  2  0  0  0  0
 13 18  1  0  0  0  0
 13 25  1  0  0  0  0
 14 16  1  0  0  0  0
 15 16  2  0  0  0  0
 15 20  1  0  0  0  0
 15 21  1  0  0  0  0
 16 27  1  0  0  0  0
 17 19  1  0  0  0  0
 17 28  1  0  0  0  0
 18 19  2  0  0  0  0
 18 29  1  0  0  0  0
 19 31  1  0  0  0  0
 20 22  2  0  0  0  0
 20 30  1  0  0  0  0
 21 32  1  0  0  0  0
 21 33  1  0  0  0  0
 21 34  1  0  0  0  0
 22 35  1  0  0  0  0
M  END
> <PUBCHEM_COMPOUND_CID>
17395608

> <PUBCHEM_CONFORMER_RMSD>
0.6

> <PUBCHEM_CONFORMER_DIVERSEORDER>
1
59
65
51
52
24
70
53
38
58
35
63
46
64
56
22
54
30
61
6
57
68
47
55
50
69
21
8
67
66
36
48
60
9
19
62
23
44
34
16
12
43
27
10
20
14
42
4
32
49
13
33
15
11
45
7
28
26
29
18
2
40
5
17
3
31
25
39
37
41

> <PUBCHEM_MMFF94_PARTIAL_CHARGES>
32
1 -0.19
10 -0.15
11 0.71
12 0.19
13 -0.15
14 0.43
15 -0.14
16 -0.15
17 -0.15
18 -0.15
19 -0.15
2 -0.28
20 -0.15
21 0.14
22 0.16
23 0.15
24 0.15
25 0.15
26 0.37
27 0.15
28 0.15
29 0.15
3 -0.57
30 0.15
31 0.15
35 0.15
4 -0.55
5 -0.62
6 0.09
7 0.05
8 0.05
9 -0.15

> <PUBCHEM_EFFECTIVE_ROTOR_COUNT>
4

> <PUBCHEM_PHARMACOPHORE_FEATURES>
6
1 2 acceptor
1 3 acceptor
1 4 donor
5 2 6 8 9 10 rings
6 5 14 15 16 20 22 rings
6 7 12 13 17 18 19 rings

> <PUBCHEM_HEAVY_ATOM_COUNT>
22

> <PUBCHEM_ATOM_DEF_STEREO_COUNT>
0

> <PUBCHEM_ATOM_UDEF_STEREO_COUNT>
0

> <PUBCHEM_BOND_DEF_STEREO_COUNT>
0

> <PUBCHEM_BOND_UDEF_STEREO_COUNT>
0

> <PUBCHEM_ISOTOPIC_ATOM_COUNT>
0

> <PUBCHEM_COMPONENT_COUNT>
1

> <PUBCHEM_CACTVS_TAUTO_COUNT>
3

> <PUBCHEM_CONFORMER_ID>
01096F9800000001

> <PUBCHEM_MMFF94_ENERGY>
53.4207

> <PUBCHEM_FEATURE_SELFOVERLAP>
30.446

> <PUBCHEM_SHAPE_FINGERPRINT>
10447042 23 18409172121259701606
10835480 77 18340494378320574693
11135609 187 18126277542126599132
11719270 70 18338804395422173632
11796584 16 18131074826652101299
12107183 9 18189323723598954113
12516196 113 18259988166983152128
12555020 224 18409739456744140151
12596602 18 5473138522746330239
12760667 363 18260268581461506723
13402501 40 18412261735664306231
13533116 47 18114747027766911905
13685833 64 18411696552844453115
13955234 65 17971756571071947520
14251752 14 17988649648383387373
14576447 43 18411978088108694894
14767858 380 18269258120406995140
14866123 147 18118963839833436873
14910302 57 18201732764068474237
14931854 50 18200868578342265078
15052358 14 18270694172597435405
15183329 4 18341335582546811277
15188451 53 15285656352348555373
15196674 1 18411136930889325331
15250474 111 18269276927246280002
15342816 4 18336536210081108652
15352361 1 18409448106835730002
15537594 2 18187925023921577942
15927050 60 17756148882695604140
17349148 13 17168142317454716519
17857418 61 18408605885144511266
18222031 100 17676206875020807084
193927 3 18041270041342099004
20261772 1 17749113287835623078
20281475 54 18410289250685342936
20374829 77 18341898493381309923
20403669 9 18261107504058842214
20645477 70 18340209596112920912
20832881 197 18409450297601250281
21033650 10 16558192734028741396
21065198 57 18338801088075439081
21250096 35 18334296474134082450
21267235 1 18335976532191172450
21279426 13 18340775918280242893
21315764 119 17989208191816304007
221357 26 18413112762153655903
221490 88 18340483361670782176
2215653 11 18410583885715817439
22950370 63 18409443695798653097
23522609 53 18118652535998190617
23559900 14 18338243674071475705
239999 70 18260263006884301908
2838139 119 10807929336858916730
2871803 45 18343302582878625874
3004659 81 18202003252761362954
314194 84 18261111850665998278
329604 57 18411696604273128382
335352 9 18409732894107951893
3421961 26 18334861580456829936
351380 3 18113618979986108983
4073 2 18200873959550489707
44062 13 18410578349630047527
46194498 28 17489024855661498780
465052 167 18186798071805653150
474 4 9511465524030564020
5104073 3 18040997362316356824
5207 123 18409169934846989117
559249 180 18261957470166627273
7808743 9 9727333724264508326
7970288 3 18336548338789969854
8863177 126 18198334057963926403
960060 61 18202842145520104956
9709674 26 18126286342345030075

> <PUBCHEM_SHAPE_MULTIPOLES>
423.78
15.17
2.77
0.79
8.07
0.02
0.07
-7.82
3.86
-1.28
-0.53
0.02
0.05
0.39

> <PUBCHEM_SHAPE_SELFOVERLAP>
933.363

> <PUBCHEM_SHAPE_VOLUME>
229

> <PUBCHEM_COORDINATE_TYPE>
2
5
10

$$$$

