656577
  -OEChem-07051213023D

 58 62  0     0  0  0  0  0  0999 V2000
    6.9741   -1.8390   -1.0835 I  -2  0  0  0  0  0  0  0  0  0  0  0
   -2.6552    2.5496    0.5242 O   0  0  0  0  0  0  0  0  0  0  0  0
   -0.7997   -2.3097    1.2638 O   0  0  0  0  0  0  0  0  0  0  0  0
   -2.9449   -2.4394    2.0888 O   0  0  0  0  0  0  0  0  0  0  0  0
    3.3377    2.3520   -2.6754 O   0  0  0  0  0  0  0  0  0  0  0  0
    4.7729    0.0665   -2.4562 O   0  0  0  0  0  0  0  0  0  0  0  0
    1.8915    2.7652   -0.8253 N   0  3  0  0  0  0  0  0  0  0  0  0
   -7.2118    2.5223    1.9614 N   0  0  0  0  0  0  0  0  0  0  0  0
    6.7957   -0.5447    1.9122 N   0  0  0  0  0  0  0  0  0  0  0  0
    6.2736   -1.5211    2.4903 N   0  3  0  0  0  0  0  0  0  0  0  0
    5.8048   -2.4149    3.0235 N   0  5  0  0  0  0  0  0  0  0  0  0
   -2.7925   -0.1162   -0.5164 C   0  0  0  0  0  0  0  0  0  0  0  0
   -1.6305    0.5880   -0.5989 C   0  0  0  0  0  0  0  0  0  0  0  0
   -3.9568    0.5479    0.1242 C   0  0  0  0  0  0  0  0  0  0  0  0
   -1.5475    1.9590   -0.0670 C   0  0  0  0  0  0  0  0  0  0  0  0
   -2.8550   -1.4809   -1.0524 C   0  0  0  0  0  0  0  0  0  0  0  0
   -3.8269    1.8482    0.6114 C   0  0  0  0  0  0  0  0  0  0  0  0
   -0.4177    0.0273   -1.2129 C   0  0  0  0  0  0  0  0  0  0  0  0
   -0.4118    2.6701   -0.1368 C   0  0  0  0  0  0  0  0  0  0  0  0
   -5.2021   -0.0873    0.2621 C   0  0  0  0  0  0  0  0  0  0  0  0
    0.8016    2.0897   -0.7568 C   0  0  0  0  0  0  0  0  0  0  0  0
   -2.5493   -2.5797   -0.2583 C   0  0  0  0  0  0  0  0  0  0  0  0
   -4.9002    2.5063    1.2201 C   0  0  0  0  0  0  0  0  0  0  0  0
    0.7290    0.7145   -1.2963 C   0  0  0  0  0  0  0  0  0  0  0  0
   -3.2290   -1.6475   -2.3810 C   0  0  0  0  0  0  0  0  0  0  0  0
   -6.1272    1.8631    1.3488 C   0  0  0  0  0  0  0  0  0  0  0  0
   -6.2782    0.5658    0.8697 C   0  0  0  0  0  0  0  0  0  0  0  0
   -2.6186   -3.8633   -0.8000 C   0  0  0  0  0  0  0  0  0  0  0  0
   -3.2982   -2.9311   -2.9226 C   0  0  0  0  0  0  0  0  0  0  0  0
   -2.9929   -4.0390   -2.1322 C   0  0  0  0  0  0  0  0  0  0  0  0
   -2.1545   -2.4396    1.1386 C   0  0  0  0  0  0  0  0  0  0  0  0
    3.1831    2.1629   -1.4802 C   0  0  0  0  0  0  0  0  0  0  0  0
    4.1378    1.4336   -0.6199 C   0  0  0  0  0  0  0  0  0  0  0  0
    4.9042    0.4047   -1.1396 C   0  0  0  0  0  0  0  0  0  0  0  0
    4.2385    1.8110    0.7089 C   0  0  0  0  0  0  0  0  0  0  0  0
    5.7984   -0.2675   -0.3062 C   0  0  0  0  0  0  0  0  0  0  0  0
    5.1325    1.1390    1.5422 C   0  0  0  0  0  0  0  0  0  0  0  0
    5.9125    0.0998    1.0347 C   0  0  0  0  0  0  0  0  0  0  0  0
   -0.2872   -2.1655    2.5928 C   0  0  0  0  0  0  0  0  0  0  0  0
   -0.4246   -0.9767   -1.6229 H   0  0  0  0  0  0  0  0  0  0  0  0
   -0.3590    3.6799    0.2583 H   0  0  0  0  0  0  0  0  0  0  0  0
   -5.3626   -1.1006   -0.0978 H   0  0  0  0  0  0  0  0  0  0  0  0
   -4.7708    3.5206    1.5912 H   0  0  0  0  0  0  0  0  0  0  0  0
    1.5862    0.2462   -1.7645 H   0  0  0  0  0  0  0  0  0  0  0  0
   -3.4709   -0.7949   -3.0108 H   0  0  0  0  0  0  0  0  0  0  0  0
   -7.2293    0.0474    0.9618 H   0  0  0  0  0  0  0  0  0  0  0  0
   -2.3833   -4.7350   -0.1945 H   0  0  0  0  0  0  0  0  0  0  0  0
    1.9606    3.7180   -0.4627 H   0  0  0  0  0  0  0  0  0  0  0  0
   -3.5898   -3.0680   -3.9598 H   0  0  0  0  0  0  0  0  0  0  0  0
   -3.0468   -5.0383   -2.5540 H   0  0  0  0  0  0  0  0  0  0  0  0
   -8.1030    2.0532    2.0533 H   0  0  0  0  0  0  0  0  0  0  0  0
   -7.1006    3.4657    2.3085 H   0  0  0  0  0  0  0  0  0  0  0  0
    3.6564    2.6253    1.1293 H   0  0  0  0  0  0  0  0  0  0  0  0
    5.2155    1.4371    2.5844 H   0  0  0  0  0  0  0  0  0  0  0  0
   -0.5325   -3.0487    3.1897 H   0  0  0  0  0  0  0  0  0  0  0  0
   -0.6917   -1.2605    3.0558 H   0  0  0  0  0  0  0  0  0  0  0  0
    0.8002   -2.0729    2.5298 H   0  0  0  0  0  0  0  0  0  0  0  0
    5.3807   -0.6691   -2.6450 H   0  0  0  0  0  0  0  0  0  0  0  0
  1 36  1  0  0  0  0
  2 15  1  0  0  0  0
  2 17  1  0  0  0  0
  3 31  1  0  0  0  0
  3 39  1  0  0  0  0
  4 31  2  0  0  0  0
  5 32  2  0  0  0  0
  6 34  1  0  0  0  0
  6 58  1  0  0  0  0
  7 21  2  0  0  0  0
  7 32  1  0  0  0  0
  7 48  1  0  0  0  0
  8 26  1  0  0  0  0
  8 51  1  0  0  0  0
  8 52  1  0  0  0  0
  9 10  2  0  0  0  0
  9 38  1  0  0  0  0
 10 11  2  0  0  0  0
 12 13  2  0  0  0  0
 12 14  1  0  0  0  0
 12 16  1  0  0  0  0
 13 15  1  0  0  0  0
 13 18  1  0  0  0  0
 14 17  2  0  0  0  0
 14 20  1  0  0  0  0
 15 19  2  0  0  0  0
 16 22  1  0  0  0  0
 16 25  2  0  0  0  0
 17 23  1  0  0  0  0
 18 24  2  0  0  0  0
 18 40  1  0  0  0  0
 19 21  1  0  0  0  0
 19 41  1  0  0  0  0
 20 27  2  0  0  0  0
 20 42  1  0  0  0  0
 21 24  1  0  0  0  0
 22 28  2  0  0  0  0
 22 31  1  0  0  0  0
 23 26  2  0  0  0  0
 23 43  1  0  0  0  0
 24 44  1  0  0  0  0
 25 29  1  0  0  0  0
 25 45  1  0  0  0  0
 26 27  1  0  0  0  0
 27 46  1  0  0  0  0
 28 30  1  0  0  0  0
 28 47  1  0  0  0  0
 29 30  2  0  0  0  0
 29 49  1  0  0  0  0
 30 50  1  0  0  0  0
 32 33  1  0  0  0  0
 33 34  2  0  0  0  0
 33 35  1  0  0  0  0
 34 36  1  0  0  0  0
 35 37  2  0  0  0  0
 35 53  1  0  0  0  0
 36 38  2  0  0  0  0
 37 38  1  0  0  0  0
 37 54  1  0  0  0  0
 39 55  1  0  0  0  0
 39 56  1  0  0  0  0
 39 57  1  0  0  0  0
M  CHG  3   7   1  10   1  11  -1
M  ISO  1   1 125
M  END
> <PUBCHEM_COMPOUND_CID>
656577

> <PUBCHEM_CONFORMER_RMSD>
1

> <PUBCHEM_CONFORMER_DIVERSEORDER>
1
32
26
17
23
22
12
27
24
30
31
7
34
25
28
2
9
14
33
16
15
18
3
4
20
13
8
6
29
5
11
10
21
19

> <PUBCHEM_MMFF94_PARTIAL_CHARGES>
54
1 -0.08
10 0.69
11 -0.37
12 -0.06
14 0.03
15 0.08
16 0.03
17 0.08
18 -0.15
19 -0.14
2 -0.16
20 -0.15
21 0.37
22 0.09
23 -0.15
24 -0.14
25 -0.15
26 0.1
27 -0.15
28 -0.15
29 -0.15
3 -0.43
30 -0.15
31 0.63
32 0.81
33 0.09
34 0.08
35 -0.15
36 0.08
37 -0.15
38 0.18
39 0.28
4 -0.57
40 0.15
41 0.15
42 0.15
43 0.15
44 0.15
45 0.15
46 0.15
47 0.15
48 0.4
49 0.15
5 -0.57
50 0.15
51 0.4
52 0.4
53 0.15
54 0.15
58 0.45
6 -0.53
7 -0.13
8 -0.9
9 -0.5

> <PUBCHEM_EFFECTIVE_ROTOR_COUNT>
6

> <PUBCHEM_PHARMACOPHORE_FEATURES>
14
1 1 hydrophobe
1 2 acceptor
1 4 acceptor
1 5 acceptor
1 6 donor
1 7 acceptor
1 7 donor
1 8 cation
1 8 donor
6 13 15 18 19 21 24 rings
6 14 17 20 23 26 27 rings
6 16 22 25 28 29 30 rings
6 2 12 13 14 15 17 rings
6 33 34 35 36 37 38 rings

> <PUBCHEM_HEAVY_ATOM_COUNT>
39

> <PUBCHEM_ATOM_DEF_STEREO_COUNT>
0

> <PUBCHEM_ATOM_UDEF_STEREO_COUNT>
0

> <PUBCHEM_BOND_DEF_STEREO_COUNT>
0

> <PUBCHEM_BOND_UDEF_STEREO_COUNT>
0

> <PUBCHEM_ISOTOPIC_ATOM_COUNT>
1

> <PUBCHEM_COMPONENT_COUNT>
1

> <PUBCHEM_CACTVS_TAUTO_COUNT>
14

> <PUBCHEM_CONFORMER_ID>
000A04C100000001

> <PUBCHEM_MMFF94_ENERGY>
156.6692

> <PUBCHEM_FEATURE_SELFOVERLAP>
71.132

> <PUBCHEM_SHAPE_FINGERPRINT>
10319926 262 17894631457317587100
10462674 125 14493315154268544916
10677351 27 17917990616605526602
11135926 11 17417246499845713604
11377469 6 17489307542283859812
11443803 9 18187650224347034921
11578080 2 15721918244145836091
12422481 6 18040152912191154550
12633046 712 17701814380599012981
13692114 37 18040711476977626757
14705955 166 16951684903716949080
14747281 78 15864356899858362139
14840074 17 17132111346728821424
14856354 85 17703778228931520033
15001296 14 18060135393443674560
15131766 46 16841892890963227845
15320294 125 18341332287642478365
15361156 5 18339633456979858132
15392192 29 18273209803799400350
16728300 4 17773037672781597993
17809404 112 16732699437514354102
19301679 30 17972874757534148071
19303781 99 16986331619473902890
21033648 29 17023193717030036932
21133410 62 15912778305308225330
21703447 108 17465664481468402689
312425 54 18041005050982659246
3383291 50 18260823775042127991
3610482 184 18270386201408202564
3680242 22 18060137661127916904
4073 2 18056185879163370436
44880168 125 18337396066887017334
46194498 28 14405176262741114348
5080951 261 18189075151934045013
5104073 3 18262521377629133184
563151 248 18408884049002162715
6058803 2 18122052110039820421

> <PUBCHEM_SHAPE_MULTIPOLES>
760.29
17.89
4.48
2.72
18.23
2.8
-0.8
-1.78
-7.27
-5.16
0.87
2.44
1.68
-4.19

> <PUBCHEM_SHAPE_SELFOVERLAP>
1672.024

> <PUBCHEM_SHAPE_VOLUME>
414.5

> <PUBCHEM_COORDINATE_TYPE>
2
5
10

$$$$

