439620
  -OEChem-07051212463D

 20 19  0     1  0  0  0  0  0999 V2000
   -1.6119   -0.8686    1.4206 O   0  0  0  0  0  0  0  0  0  0  0  0
    0.2520   -2.9203   -0.7876 O   0  0  0  0  0  0  0  0  0  0  0  0
    0.3392    1.0485    1.4688 O   0  0  0  0  0  0  0  0  0  0  0  0
   -2.1833    0.8498   -1.6944 O   0  0  0  0  0  0  0  0  0  0  0  0
    1.6866   -2.0262    0.7253 O   0  0  0  0  0  0  0  0  0  0  0  0
   -2.7407    1.3835    0.4405 O   0  0  0  0  0  0  0  0  0  0  0  0
    2.2937    2.3023    0.4159 O   0  0  0  0  0  0  0  0  0  0  0  0
    2.2497    0.8706   -1.3740 O   0  0  0  0  0  0  0  0  0  0  0  0
    0.0430   -0.5780   -0.3392 C   0  0  1  0  0  0  0  0  0  0  0  0
   -1.4526   -0.6367    0.0291 C   0  0  2  0  0  0  0  0  0  0  0  0
    0.7021    0.5772    0.4012 C   0  0  0  0  0  0  0  0  0  0  0  0
    0.7575   -1.8914   -0.0605 C   0  0  0  0  0  0  0  0  0  0  0  0
   -2.1862    0.6352   -0.3537 C   0  0  0  0  0  0  0  0  0  0  0  0
    1.8510    1.2543   -0.2920 C   0  0  0  0  0  0  0  0  0  0  0  0
    0.1300   -0.3815   -1.4148 H   0  0  0  0  0  0  0  0  0  0  0  0
   -1.9417   -1.4697   -0.4894 H   0  0  0  0  0  0  0  0  0  0  0  0
   -2.5588   -1.0155    1.5871 H   0  0  0  0  0  0  0  0  0  0  0  0
    0.7186   -3.7630   -0.6023 H   0  0  0  0  0  0  0  0  0  0  0  0
   -2.6670    1.6686   -1.9347 H   0  0  0  0  0  0  0  0  0  0  0  0
    3.0321    2.7678   -0.0316 H   0  0  0  0  0  0  0  0  0  0  0  0
  1 10  1  0  0  0  0
  1 17  1  0  0  0  0
  2 12  1  0  0  0  0
  2 18  1  0  0  0  0
  3 11  2  0  0  0  0
  4 13  1  0  0  0  0
  4 19  1  0  0  0  0
  5 12  2  0  0  0  0
  6 13  2  0  0  0  0
  7 14  1  0  0  0  0
  7 20  1  0  0  0  0
  8 14  2  0  0  0  0
  9 10  1  0  0  0  0
  9 11  1  0  0  0  0
  9 12  1  0  0  0  0
  9 15  1  0  0  0  0
 10 13  1  0  0  0  0
 10 16  1  0  0  0  0
 11 14  1  0  0  0  0
M  END
> <PUBCHEM_COMPOUND_CID>
439620

> <PUBCHEM_CONFORMER_RMSD>
0.6

> <PUBCHEM_CONFORMER_DIVERSEORDER>
1
74
79
15
68
56
73
27
17
10
53
20
61
59
69
81
62
8
25
67
41
2
63
57
4
14
34
78
26
9
58
85
70
38
45
23
72
28
83
39
21
66
55
82
19
48
29
71
22
51
77
36
35
80
12
16
76
43
7
37
11
46
60
24
42
32
33
3
75
64
44
18
40
31
5
54
65
50
6
13
47
84
30
52
49

> <PUBCHEM_MMFF94_PARTIAL_CHARGES>
18
1 -0.68
10 0.34
11 0.51
12 0.66
13 0.66
14 0.72
17 0.4
18 0.5
19 0.5
2 -0.65
20 0.5
3 -0.57
4 -0.65
5 -0.57
6 -0.57
7 -0.65
8 -0.57
9 0.12

> <PUBCHEM_EFFECTIVE_ROTOR_COUNT>
5

> <PUBCHEM_PHARMACOPHORE_FEATURES>
13
1 1 acceptor
1 1 donor
1 2 acceptor
1 3 acceptor
1 4 acceptor
1 5 acceptor
1 6 acceptor
1 7 acceptor
1 8 acceptor
1 9 anion
3 2 5 12 anion
3 4 6 13 anion
3 7 8 14 anion

> <PUBCHEM_HEAVY_ATOM_COUNT>
14

> <PUBCHEM_ATOM_DEF_STEREO_COUNT>
0

> <PUBCHEM_ATOM_UDEF_STEREO_COUNT>
2

> <PUBCHEM_BOND_DEF_STEREO_COUNT>
0

> <PUBCHEM_BOND_UDEF_STEREO_COUNT>
0

> <PUBCHEM_ISOTOPIC_ATOM_COUNT>
0

> <PUBCHEM_COMPONENT_COUNT>
1

> <PUBCHEM_CACTVS_TAUTO_COUNT>
3

> <PUBCHEM_CONFORMER_ID>
0006B54400000001

> <PUBCHEM_MMFF94_ENERGY>
18.5551

> <PUBCHEM_FEATURE_SELFOVERLAP>
66.417

> <PUBCHEM_SHAPE_FINGERPRINT>
1 1 18411983563548490750
12716758 59 18119242857877584296
13380536 237 18201729448253286579
13839132 238 17060337448250033845
14181834 199 18267321978465811654
15490181 7 18266173925027881226
16945 1 18122355823965980527
17954114 43 18407759252648837934
19837323 101 18197215845499442621
20511035 2 18272662241906536306
20711985 344 17618220607578091734
21028194 46 18201730513341996013
21501502 16 18341607144591491779
21947302 44 18129944606145120349
241688 4 17040348593055530138
2748010 2 18340199704871758028
305870 269 18411708672846620792
3250762 1 18272079522403547403
5084963 1 17971746671081931133
54338 74 17335048444280679506
81228 2 17474947628028867650

> <PUBCHEM_SHAPE_MULTIPOLES>
241.16
3.25
2.53
1.23
0.76
1.45
-0.07
-1.97
-0.39
-1.17
-0.07
0.21
-0.17
0.11

> <PUBCHEM_SHAPE_SELFOVERLAP>
487.512

> <PUBCHEM_SHAPE_VOLUME>
138.5

> <PUBCHEM_COORDINATE_TYPE>
2
5
10

$$$$

