87653
  -OEChem-07051213113D

 16 16  0     0  0  0  0  0  0999 V2000
    1.2815   -1.4418   -0.0879 S   0  0  0  0  0  0  0  0  0  0  0  0
   -3.5443    0.0038   -0.1239 N   0  0  0  0  0  0  0  0  0  0  0  0
    0.7393    1.0660    0.2276 N   0  0  0  0  0  0  0  0  0  0  0  0
   -1.2071   -0.4294    0.5310 C   0  0  0  0  0  0  0  0  0  0  0  0
   -2.1485    0.2871   -0.4402 C   0  0  0  0  0  0  0  0  0  0  0  0
    0.2354   -0.1352    0.2414 C   0  0  0  0  0  0  0  0  0  0  0  0
    2.5600   -0.3143   -0.2765 C   0  0  0  0  0  0  0  0  0  0  0  0
    2.0837    0.9637   -0.0714 C   0  0  0  0  0  0  0  0  0  0  0  0
   -1.4044   -1.5088    0.5025 H   0  0  0  0  0  0  0  0  0  0  0  0
   -1.4178   -0.1023    1.5577 H   0  0  0  0  0  0  0  0  0  0  0  0
   -1.9442   -0.0278   -1.4699 H   0  0  0  0  0  0  0  0  0  0  0  0
   -1.9907    1.3709   -0.4010 H   0  0  0  0  0  0  0  0  0  0  0  0
   -3.7410    0.2874    0.8353 H   0  0  0  0  0  0  0  0  0  0  0  0
   -3.7037   -1.0026   -0.1553 H   0  0  0  0  0  0  0  0  0  0  0  0
    3.5649   -0.6287   -0.5193 H   0  0  0  0  0  0  0  0  0  0  0  0
    2.6809    1.8636   -0.1294 H   0  0  0  0  0  0  0  0  0  0  0  0
  1  6  1  0  0  0  0
  1  7  1  0  0  0  0
  2  5  1  0  0  0  0
  2 13  1  0  0  0  0
  2 14  1  0  0  0  0
  3  6  2  0  0  0  0
  3  8  1  0  0  0  0
  4  5  1  0  0  0  0
  4  6  1  0  0  0  0
  4  9  1  0  0  0  0
  4 10  1  0  0  0  0
  5 11  1  0  0  0  0
  5 12  1  0  0  0  0
  7  8  2  0  0  0  0
  7 15  1  0  0  0  0
  8 16  1  0  0  0  0
M  END
> <PUBCHEM_COMPOUND_CID>
87653

> <PUBCHEM_CONFORMER_RMSD>
0.4

> <PUBCHEM_CONFORMER_DIVERSEORDER>
1
11
5
4
8
9
12
7
2
6
10
3

> <PUBCHEM_MMFF94_PARTIAL_CHARGES>
12
1 -0.08
13 0.36
14 0.36
15 0.15
16 0.15
2 -0.99
3 -0.57
4 0.18
5 0.27
6 0.2
7 -0.11
8 0.08

> <PUBCHEM_EFFECTIVE_ROTOR_COUNT>
2

> <PUBCHEM_PHARMACOPHORE_FEATURES>
4
1 2 cation
1 2 donor
1 3 acceptor
5 1 3 6 7 8 rings

> <PUBCHEM_HEAVY_ATOM_COUNT>
8

> <PUBCHEM_ATOM_DEF_STEREO_COUNT>
0

> <PUBCHEM_ATOM_UDEF_STEREO_COUNT>
0

> <PUBCHEM_BOND_DEF_STEREO_COUNT>
0

> <PUBCHEM_BOND_UDEF_STEREO_COUNT>
0

> <PUBCHEM_ISOTOPIC_ATOM_COUNT>
0

> <PUBCHEM_COMPONENT_COUNT>
1

> <PUBCHEM_CACTVS_TAUTO_COUNT>
2

> <PUBCHEM_CONFORMER_ID>
0001566500000001

> <PUBCHEM_MMFF94_ENERGY>
0.9527

> <PUBCHEM_FEATURE_SELFOVERLAP>
20.297

> <PUBCHEM_SHAPE_FINGERPRINT>
11062470 55 15430038755450172497
12897270 3 18410575076310508285
12932764 1 17385732395784393585
14325111 11 18411982438430517835
14390081 3 18273500069882907101
21040471 1 18194399992347454842
21293036 1 18409438181514234942
23402655 69 18409175437080040165
23552333 60 18114180873541001834
23552423 10 18196365046827280890
29004967 10 18410568505037010186
5460574 1 8862943879148859539

> <PUBCHEM_SHAPE_MULTIPOLES>
158.52
4.35
1.2
0.69
3.39
0.16
0
-0.22
-0.6
-0.7
0
0.04
0.03
0.12

> <PUBCHEM_SHAPE_SELFOVERLAP>
301.82

> <PUBCHEM_SHAPE_VOLUME>
98.9

> <PUBCHEM_COORDINATE_TYPE>
2
5
10

$$$$

