17395980
  -OEChem-06241222533D

 48 49  0     1  0  0  0  0  0999 V2000
   -2.7025   -1.6977    0.1026 S   0  0  0  0  0  0  0  0  0  0  0  0
   -0.5269   -1.5133   -2.0834 O   0  0  0  0  0  0  0  0  0  0  0  0
    4.1335    1.6412   -1.1561 O   0  0  0  0  0  0  0  0  0  0  0  0
    4.6181    1.3491    1.0656 O   0  0  0  0  0  0  0  0  0  0  0  0
   -2.9050    0.9753    0.5736 N   0  0  0  0  0  0  0  0  0  0  0  0
    1.8015   -1.8168    0.6098 N   0  0  0  0  0  0  0  0  0  0  0  0
   -2.3158    1.9664    1.2570 N   0  0  0  0  0  0  0  0  0  0  0  0
   -1.2502    0.0418    1.6192 N   0  0  0  0  0  0  0  0  0  0  0  0
   -1.3047    1.3895    1.8949 N   0  0  0  0  0  0  0  0  0  0  0  0
   -4.0972    1.2512   -0.2744 C   0  0  0  0  0  0  0  0  0  0  0  0
   -3.7870    0.8907   -1.7443 C   0  0  0  0  0  0  0  0  0  0  0  0
   -4.5479    2.7329   -0.2623 C   0  0  0  0  0  0  0  0  0  0  0  0
   -5.2963    0.4144    0.2241 C   0  0  0  0  0  0  0  0  0  0  0  0
   -1.0983   -2.5451   -0.0087 C   0  0  2  0  0  0  0  0  0  0  0  0
    1.0845   -1.1922   -0.3771 C   0  0  0  0  0  0  0  0  0  0  0  0
   -2.2496   -0.1928    0.8003 C   0  0  0  0  0  0  0  0  0  0  0  0
    1.7625   -0.0463   -0.7304 C   0  0  0  0  0  0  0  0  0  0  0  0
   -0.1844   -1.7183   -0.9152 C   0  0  0  0  0  0  0  0  0  0  0  0
    2.9281    0.0200    0.0723 C   0  0  0  0  0  0  0  0  0  0  0  0
    2.9271   -1.0873    0.8914 C   0  0  0  0  0  0  0  0  0  0  0  0
   -1.3075   -3.9528   -0.5619 C   0  0  0  0  0  0  0  0  0  0  0  0
    1.3509    0.9344   -1.7569 C   0  0  0  0  0  0  0  0  0  0  0  0
    3.8834   -1.5363    1.9221 C   0  0  0  0  0  0  0  0  0  0  0  0
    3.9474    1.0311    0.0684 C   0  0  0  0  0  0  0  0  0  0  0  0
    5.1362    2.6609   -1.2308 C   0  0  0  0  0  0  0  0  0  0  0  0
   -2.8589    1.3701   -2.0776 H   0  0  0  0  0  0  0  0  0  0  0  0
   -3.6892   -0.1813   -1.9242 H   0  0  0  0  0  0  0  0  0  0  0  0
   -4.5912    1.2336   -2.4066 H   0  0  0  0  0  0  0  0  0  0  0  0
   -4.8085    3.0584    0.7516 H   0  0  0  0  0  0  0  0  0  0  0  0
   -5.4265    2.8938   -0.8976 H   0  0  0  0  0  0  0  0  0  0  0  0
   -3.7509    3.3914   -0.6271 H   0  0  0  0  0  0  0  0  0  0  0  0
   -5.2017   -0.6545    0.0257 H   0  0  0  0  0  0  0  0  0  0  0  0
   -6.2221    0.7285   -0.2733 H   0  0  0  0  0  0  0  0  0  0  0  0
   -5.4434    0.5433    1.3029 H   0  0  0  0  0  0  0  0  0  0  0  0
   -0.6846   -2.6211    1.0008 H   0  0  0  0  0  0  0  0  0  0  0  0
    1.5504   -2.6891    1.0545 H   0  0  0  0  0  0  0  0  0  0  0  0
   -1.7478   -3.9400   -1.5656 H   0  0  0  0  0  0  0  0  0  0  0  0
   -0.3455   -4.4716   -0.6419 H   0  0  0  0  0  0  0  0  0  0  0  0
   -1.9523   -4.5488    0.0931 H   0  0  0  0  0  0  0  0  0  0  0  0
    1.8519    0.7276   -2.7079 H   0  0  0  0  0  0  0  0  0  0  0  0
    0.2703    0.9167   -1.9297 H   0  0  0  0  0  0  0  0  0  0  0  0
    1.5920    1.9574   -1.4506 H   0  0  0  0  0  0  0  0  0  0  0  0
    3.8390   -0.8794    2.7968 H   0  0  0  0  0  0  0  0  0  0  0  0
    3.6709   -2.5568    2.2579 H   0  0  0  0  0  0  0  0  0  0  0  0
    4.9068   -1.5234    1.5333 H   0  0  0  0  0  0  0  0  0  0  0  0
    4.8864    3.4847   -0.5559 H   0  0  0  0  0  0  0  0  0  0  0  0
    6.1173    2.2433   -0.9863 H   0  0  0  0  0  0  0  0  0  0  0  0
    5.1598    3.0400   -2.2558 H   0  0  0  0  0  0  0  0  0  0  0  0
  1 14  1  0  0  0  0
  1 16  1  0  0  0  0
  2 18  2  0  0  0  0
  3 24  1  0  0  0  0
  3 25  1  0  0  0  0
  4 24  2  0  0  0  0
  5  7  1  0  0  0  0
  5 10  1  0  0  0  0
  5 16  1  0  0  0  0
  6 15  1  0  0  0  0
  6 20  1  0  0  0  0
  6 36  1  0  0  0  0
  7  9  2  0  0  0  0
  8  9  1  0  0  0  0
  8 16  2  0  0  0  0
 10 11  1  0  0  0  0
 10 12  1  0  0  0  0
 10 13  1  0  0  0  0
 11 26  1  0  0  0  0
 11 27  1  0  0  0  0
 11 28  1  0  0  0  0
 12 29  1  0  0  0  0
 12 30  1  0  0  0  0
 12 31  1  0  0  0  0
 13 32  1  0  0  0  0
 13 33  1  0  0  0  0
 13 34  1  0  0  0  0
 14 18  1  0  0  0  0
 14 21  1  0  0  0  0
 14 35  1  0  0  0  0
 15 17  2  0  0  0  0
 15 18  1  0  0  0  0
 17 19  1  0  0  0  0
 17 22  1  0  0  0  0
 19 20  2  0  0  0  0
 19 24  1  0  0  0  0
 20 23  1  0  0  0  0
 21 37  1  0  0  0  0
 21 38  1  0  0  0  0
 21 39  1  0  0  0  0
 22 40  1  0  0  0  0
 22 41  1  0  0  0  0
 22 42  1  0  0  0  0
 23 43  1  0  0  0  0
 23 44  1  0  0  0  0
 23 45  1  0  0  0  0
 25 46  1  0  0  0  0
 25 47  1  0  0  0  0
 25 48  1  0  0  0  0
M  END
> <PUBCHEM_COMPOUND_CID>
17395980

> <PUBCHEM_CONFORMER_RMSD>
1

> <PUBCHEM_CONFORMER_DIVERSEORDER>
1
177
39
18
71
140
36
26
166
7
137
130
89
152
73
81
60
135
200
50
188
2
69
104
45
164
119
118
31
156
21
144
172
101
199
121
168
117
8
141
87
27
134
34
175
51
125
124
78
139
47
38
13
74
20
193
205
53
99
183
64
126
178
167
19
149
61
75
103
65
128
107
15
202
14
94
160
132
92
148
6
162
186
23
24
123
196
204
206
25
192
86
43
77
97
5
17
79
91
66
37
190
194
114
116
129
154
56
98
161
163
150
158
179
153
201
4
22
110
147
165
195
151
33
54
58
170
41
169
88
120
44
83
57
12
111
102
131
145
173
157
46
146
68
52
9
197
90
40
29
82
80
203
100
49
187
189
70
106
181
127
143
63
48
93
67
109
72
42
113
138
3
185
182
76
16
191
108
10
184
122
198
180
85
155
176
62
112
171
59
11
55
84
28
95
96
105
133
30
136
142
35
159
115
174
32

> <PUBCHEM_MMFF94_PARTIAL_CHARGES>
21
1 -0.29
10 0.26
14 0.29
15 -0.24
16 0.24
17 -0.18
18 0.59
19 -0.09
2 -0.57
20 -0.33
22 0.18
23 0.18
24 0.81
25 0.28
3 -0.43
36 0.27
4 -0.57
5 0.31
6 0.03
7 -0.42
8 -0.34

> <PUBCHEM_EFFECTIVE_ROTOR_COUNT>
7

> <PUBCHEM_PHARMACOPHORE_FEATURES>
9
1 2 acceptor
1 21 hydrophobe
1 4 acceptor
1 6 cation
1 6 donor
3 5 8 16 cation
4 10 11 12 13 hydrophobe
5 5 7 8 9 16 rings
5 6 15 17 19 20 rings

> <PUBCHEM_HEAVY_ATOM_COUNT>
25

> <PUBCHEM_ATOM_DEF_STEREO_COUNT>
0

> <PUBCHEM_ATOM_UDEF_STEREO_COUNT>
1

> <PUBCHEM_BOND_DEF_STEREO_COUNT>
0

> <PUBCHEM_BOND_UDEF_STEREO_COUNT>
0

> <PUBCHEM_ISOTOPIC_ATOM_COUNT>
0

> <PUBCHEM_COMPONENT_COUNT>
1

> <PUBCHEM_CACTVS_TAUTO_COUNT>
18

> <PUBCHEM_CONFORMER_ID>
0109710C00000001

> <PUBCHEM_MMFF94_ENERGY>
50.2997

> <PUBCHEM_FEATURE_SELFOVERLAP>
45.668

> <PUBCHEM_SHAPE_FINGERPRINT>
10498660 4 18040712545891700608
10759866 29 18412260623430904378
11370993 70 18337677528577502747
11640471 11 18341608213716536658
12467345 10 18202007611842023411
12788726 201 18193285087220319415
12892183 10 17489298685823151875
13583140 156 17917982863144539537
13994607 96 18187643553397791421
14251764 30 7132421463473575237
14251764 38 17985552384026175221
14739800 52 18189915123410501904
14790565 3 17630314243784643916
17349148 13 18261960768258470371
173720 79 18338533992164166451
17492 54 18041576779859829061
1813 80 10951471773908322843
192875 21 18115597087282673088
20715895 44 17980769547632603413
20739085 24 17704354381783012846
22149856 69 18042669776581289219
22950370 63 9222936115350090157
23227448 37 18263645052420760165
23557571 272 17751344102101483318
23559900 14 17969219100409648166
23598288 3 18262246490826702374
238 59 15719387369461157414
474 4 18192149515410167923
7808743 9 18338514123650541276
7970288 3 8935002551055878452
9981440 41 18409451427288945315

> <PUBCHEM_SHAPE_MULTIPOLES>
475.82
10.1
3.4
1.72
1.85
1.44
0
-8.39
-0.38
-0.49
0.71
0.42
-0.18
-1.7

> <PUBCHEM_SHAPE_SELFOVERLAP>
976.469

> <PUBCHEM_SHAPE_VOLUME>
280.4

> <PUBCHEM_COORDINATE_TYPE>
2
5
10

$$$$

