441439
  -OEChem-07051212543D

 30 29  0     1  0  0  0  0  0999 V2000
    0.0161   -0.6054    1.4947 O   0  0  0  0  0  0  0  0  0  0  0  0
    1.3679    1.1780   -1.4029 O   0  0  0  0  0  0  0  0  0  0  0  0
   -1.3667    1.6909    0.6204 O   0  0  0  0  0  0  0  0  0  0  0  0
    3.6990    1.1360    0.1467 O   0  0  0  0  0  0  0  0  0  0  0  0
   -2.4779   -1.4725   -0.8439 O   0  0  0  0  0  0  0  0  0  0  0  0
    4.2542   -1.5947    0.0669 O   0  0  0  0  0  0  0  0  0  0  0  0
   -4.9089   -0.5323    0.1307 O   0  0  0  0  0  0  0  0  0  0  0  0
    0.0789   -0.1547    0.1367 C   0  0  0  0  0  0  0  0  0  0  0  0
    1.3007    0.7700   -0.0339 C   0  0  1  0  0  0  0  0  0  0  0  0
   -1.2745    0.5091   -0.1884 C   0  0  1  0  0  0  0  0  0  0  0  0
    2.6649    0.1767    0.3683 C   0  0  1  0  0  0  0  0  0  0  0  0
   -2.5155   -0.3633    0.0631 C   0  0  1  0  0  0  0  0  0  0  0  0
    3.0011   -1.1004   -0.3957 C   0  0  0  0  0  0  0  0  0  0  0  0
   -3.8394    0.3628   -0.1625 C   0  0  0  0  0  0  0  0  0  0  0  0
    0.1906   -1.0321   -0.5107 H   0  0  0  0  0  0  0  0  0  0  0  0
    1.1594    1.6825    0.5583 H   0  0  0  0  0  0  0  0  0  0  0  0
   -1.2560    0.8269   -1.2385 H   0  0  0  0  0  0  0  0  0  0  0  0
    2.6662   -0.0355    1.4441 H   0  0  0  0  0  0  0  0  0  0  0  0
   -2.5190   -0.7714    1.0792 H   0  0  0  0  0  0  0  0  0  0  0  0
    2.2542   -1.8819   -0.2345 H   0  0  0  0  0  0  0  0  0  0  0  0
    3.1016   -0.9050   -1.4681 H   0  0  0  0  0  0  0  0  0  0  0  0
   -3.9474    1.2281    0.4966 H   0  0  0  0  0  0  0  0  0  0  0  0
   -3.9513    0.6902   -1.2012 H   0  0  0  0  0  0  0  0  0  0  0  0
   -0.4946   -1.4324    1.5071 H   0  0  0  0  0  0  0  0  0  0  0  0
    2.1292    1.7765   -1.4921 H   0  0  0  0  0  0  0  0  0  0  0  0
   -2.0278    2.2752    0.2127 H   0  0  0  0  0  0  0  0  0  0  0  0
    4.5401    0.7242    0.4088 H   0  0  0  0  0  0  0  0  0  0  0  0
   -2.4868   -1.1181   -1.7496 H   0  0  0  0  0  0  0  0  0  0  0  0
    4.4459   -2.4029   -0.4388 H   0  0  0  0  0  0  0  0  0  0  0  0
   -4.8113   -1.3033   -0.4539 H   0  0  0  0  0  0  0  0  0  0  0  0
  1  8  1  0  0  0  0
  1 24  1  0  0  0  0
  2  9  1  0  0  0  0
  2 25  1  0  0  0  0
  3 10  1  0  0  0  0
  3 26  1  0  0  0  0
  4 11  1  0  0  0  0
  4 27  1  0  0  0  0
  5 12  1  0  0  0  0
  5 28  1  0  0  0  0
  6 13  1  0  0  0  0
  6 29  1  0  0  0  0
  7 14  1  0  0  0  0
  7 30  1  0  0  0  0
  8  9  1  0  0  0  0
  8 10  1  0  0  0  0
  8 15  1  0  0  0  0
  9 11  1  0  0  0  0
  9 16  1  0  0  0  0
 10 12  1  0  0  0  0
 10 17  1  0  0  0  0
 11 13  1  0  0  0  0
 11 18  1  0  0  0  0
 12 14  1  0  0  0  0
 12 19  1  0  0  0  0
 13 20  1  0  0  0  0
 13 21  1  0  0  0  0
 14 22  1  0  0  0  0
 14 23  1  0  0  0  0
M  END
> <PUBCHEM_COMPOUND_CID>
441439

> <PUBCHEM_CONFORMER_RMSD>
0.6

> <PUBCHEM_CONFORMER_DIVERSEORDER>
5
58
49
43
16
31
45
12
56
4
54
46
30
6
53
27
24
8
47
34
7
21
48
26
20
3
41
28
51
52
18
39
38
10
44
55
11
25
29
22
1
36
32
15
14
9
50
2
33
35
37
57
19
42
17
23
13
40

> <PUBCHEM_MMFF94_PARTIAL_CHARGES>
21
1 -0.68
10 0.28
11 0.28
12 0.28
13 0.28
14 0.28
2 -0.68
24 0.4
25 0.4
26 0.4
27 0.4
28 0.4
29 0.4
3 -0.68
30 0.4
4 -0.68
5 -0.68
6 -0.68
7 -0.68
8 0.28
9 0.28

> <PUBCHEM_EFFECTIVE_ROTOR_COUNT>
6

> <PUBCHEM_PHARMACOPHORE_FEATURES>
14
1 1 acceptor
1 1 donor
1 2 acceptor
1 2 donor
1 3 acceptor
1 3 donor
1 4 acceptor
1 4 donor
1 5 acceptor
1 5 donor
1 6 acceptor
1 6 donor
1 7 acceptor
1 7 donor

> <PUBCHEM_HEAVY_ATOM_COUNT>
14

> <PUBCHEM_ATOM_DEF_STEREO_COUNT>
4

> <PUBCHEM_ATOM_UDEF_STEREO_COUNT>
0

> <PUBCHEM_BOND_DEF_STEREO_COUNT>
0

> <PUBCHEM_BOND_UDEF_STEREO_COUNT>
0

> <PUBCHEM_ISOTOPIC_ATOM_COUNT>
0

> <PUBCHEM_COMPONENT_COUNT>
1

> <PUBCHEM_CACTVS_TAUTO_COUNT>
1

> <PUBCHEM_CONFORMER_ID>
0006BC5F00000005

> <PUBCHEM_MMFF94_ENERGY>
34.8826

> <PUBCHEM_FEATURE_SELFOVERLAP>
71.074

> <PUBCHEM_SHAPE_FINGERPRINT>
10465860 250 17022908981450390875
11062470 55 17022900129760066329
11769659 78 18334020492610687750
12032990 46 18343297059561219715
12932764 1 17022914436380661776
13675066 3 18343021064920691137
13690532 89 18343582970790929547
14325111 11 18409167714227616672
14350558 41 18187358852774177014
14911166 2 17203603800638463322
14993402 34 16487248885266301702
177051 138 18407759252632844094
17834072 33 18408882932811799580
17834072 8 18271813475028056645
18186145 218 17560807606331230503
190213 19 18343865502851658981
19422 9 18341325605321925983
200 152 18334297582219833482
20281407 28 17676770889999452259
20645477 70 18408603690696246198
21119208 17 18343303682268947271
21293036 1 16773793705887290886
22485316 2 18114186298195368807
22713019 99 18201715202089742410
23402539 116 17749680674748626245
23402655 69 18341614832155716268
23559900 14 18261117344535617168
42 15 18334293188705750887
81228 2 15431131691567733419

> <PUBCHEM_SHAPE_MULTIPOLES>
247.03
7.86
1.41
0.91
2.2
0.03
0.01
2.14
-0.22
-0.64
-0.11
-0.09
-0.03
-0.23

> <PUBCHEM_SHAPE_SELFOVERLAP>
468.084

> <PUBCHEM_SHAPE_VOLUME>
151.8

> <PUBCHEM_COORDINATE_TYPE>
2
5
10

$$$$

