99613
  -OEChem-07051212472D

 37 38  0     0  0  0  0  0  0999 V2000
    5.1350   -0.1550    0.0000 O   0  0  0  0  0  0  0  0  0  0  0  0
    3.4030    2.8450    0.0000 O   0  0  0  0  0  0  0  0  0  0  0  0
    2.5369   -1.6550    0.0000 O   0  0  0  0  0  0  0  0  0  0  0  0
    4.2690   -4.6550    0.0000 O   0  0  0  0  0  0  0  0  0  0  0  0
    3.4030   -0.1550    0.0000 O   0  0  0  0  0  0  0  0  0  0  0  0
    6.0010    4.3450    0.0000 O   0  0  0  0  0  0  0  0  0  0  0  0
    4.2690    4.3450    0.0000 O   0  0  0  0  0  0  0  0  0  0  0  0
    4.2690   -1.6550    0.0000 C   0  0  0  0  0  0  0  0  0  0  0  0
    6.0010    2.3450    0.0000 C   0  0  0  0  0  0  0  0  0  0  0  0
    5.1350   -2.1550    0.0000 C   0  0  0  0  0  0  0  0  0  0  0  0
    5.1350    2.8450    0.0000 C   0  0  0  0  0  0  0  0  0  0  0  0
    5.1350    0.8450    0.0000 C   0  0  0  0  0  0  0  0  0  0  0  0
    6.0010    1.3450    0.0000 C   0  0  0  0  0  0  0  0  0  0  0  0
    4.2690    2.3450    0.0000 C   0  0  0  0  0  0  0  0  0  0  0  0
    3.4030   -2.1550    0.0000 C   0  0  0  0  0  0  0  0  0  0  0  0
    4.2690    1.3450    0.0000 C   0  0  0  0  0  0  0  0  0  0  0  0
    5.1350   -3.1550    0.0000 C   0  0  0  0  0  0  0  0  0  0  0  0
    4.2690   -0.6550    0.0000 C   0  0  0  0  0  0  0  0  0  0  0  0
    6.8671    2.8450    0.0000 C   0  0  0  0  0  0  0  0  0  0  0  0
    4.2690   -3.6550    0.0000 C   0  0  0  0  0  0  0  0  0  0  0  0
    3.4030   -3.1550    0.0000 C   0  0  0  0  0  0  0  0  0  0  0  0
    6.0010   -1.6550    0.0000 C   0  0  0  0  0  0  0  0  0  0  0  0
    5.1350    3.8450    0.0000 C   0  0  0  0  0  0  0  0  0  0  0  0
    6.5380    1.0350    0.0000 H   0  0  0  0  0  0  0  0  0  0  0  0
    3.7320    1.0350    0.0000 H   0  0  0  0  0  0  0  0  0  0  0  0
    5.6720   -3.4650    0.0000 H   0  0  0  0  0  0  0  0  0  0  0  0
    7.1771    2.3081    0.0000 H   0  0  0  0  0  0  0  0  0  0  0  0
    7.4040    3.1550    0.0000 H   0  0  0  0  0  0  0  0  0  0  0  0
    6.5571    3.3819    0.0000 H   0  0  0  0  0  0  0  0  0  0  0  0
    2.8660   -3.4650    0.0000 H   0  0  0  0  0  0  0  0  0  0  0  0
    6.3110   -2.1919    0.0000 H   0  0  0  0  0  0  0  0  0  0  0  0
    6.5380   -1.3450    0.0000 H   0  0  0  0  0  0  0  0  0  0  0  0
    5.6910   -1.1181    0.0000 H   0  0  0  0  0  0  0  0  0  0  0  0
    2.8660    2.5350    0.0000 H   0  0  0  0  0  0  0  0  0  0  0  0
    2.0000   -1.9650    0.0000 H   0  0  0  0  0  0  0  0  0  0  0  0
    4.8059   -4.9650    0.0000 H   0  0  0  0  0  0  0  0  0  0  0  0
    6.0010    4.9650    0.0000 H   0  0  0  0  0  0  0  0  0  0  0  0
  1 12  1  0  0  0  0
  1 18  1  0  0  0  0
  2 14  1  0  0  0  0
  2 34  1  0  0  0  0
  3 15  1  0  0  0  0
  3 35  1  0  0  0  0
  4 20  1  0  0  0  0
  4 36  1  0  0  0  0
  5 18  2  0  0  0  0
  6 23  1  0  0  0  0
  6 37  1  0  0  0  0
  7 23  2  0  0  0  0
  8 10  1  0  0  0  0
  8 15  2  0  0  0  0
  8 18  1  0  0  0  0
  9 11  1  0  0  0  0
  9 13  2  0  0  0  0
  9 19  1  0  0  0  0
 10 17  2  0  0  0  0
 10 22  1  0  0  0  0
 11 14  2  0  0  0  0
 11 23  1  0  0  0  0
 12 13  1  0  0  0  0
 12 16  2  0  0  0  0
 13 24  1  0  0  0  0
 14 16  1  0  0  0  0
 15 21  1  0  0  0  0
 16 25  1  0  0  0  0
 17 20  1  0  0  0  0
 17 26  1  0  0  0  0
 19 27  1  0  0  0  0
 19 28  1  0  0  0  0
 19 29  1  0  0  0  0
 20 21  2  0  0  0  0
 21 30  1  0  0  0  0
 22 31  1  0  0  0  0
 22 32  1  0  0  0  0
 22 33  1  0  0  0  0
M  END
> <PUBCHEM_COMPOUND_CID>
99613

> <PUBCHEM_COMPOUND_CANONICALIZED>
1

> <PUBCHEM_CACTVS_COMPLEXITY>
452

> <PUBCHEM_CACTVS_HBOND_ACCEPTOR>
7

> <PUBCHEM_CACTVS_HBOND_DONOR>
4

> <PUBCHEM_CACTVS_ROTATABLE_BOND>
4

> <PUBCHEM_CACTVS_SUBSKEYS>
AAADccB4OAAAAAAAAAAAAAAAAAAAAAAAAAAwYAAAAAAAAAABQAAAGgAACAAADASAmAAyDoAABgCIAiDSCAACCAAkIAAAiAEGCMgMJzaGNRqCe2Cl4BUIuQeI7LzOoAABCAAYAABAAAIQADAAAAAAAAAAAA==

> <PUBCHEM_IUPAC_OPENEYE_NAME>
4-(2,4-dihydroxy-6-methyl-benzoyl)oxy-2-hydroxy-6-methyl-benzoic acid

> <PUBCHEM_IUPAC_CAS_NAME>
4-[(2,4-dihydroxy-6-methylphenyl)-oxomethoxy]-2-hydroxy-6-methylbenzoic acid

> <PUBCHEM_IUPAC_NAME>
4-(2,4-dihydroxy-6-methylbenzoyl)oxy-2-hydroxy-6-methylbenzoic acid

> <PUBCHEM_IUPAC_SYSTEMATIC_NAME>
2-methyl-4-[2-methyl-4,6-bis(oxidanyl)phenyl]carbonyloxy-6-oxidanyl-benzoic acid

> <PUBCHEM_IUPAC_TRADITIONAL_NAME>
4-(2,4-dihydroxy-6-methyl-benzoyl)oxy-2-hydroxy-6-methyl-benzoic acid

> <PUBCHEM_IUPAC_INCHI>
InChI=1S/C16H14O7/c1-7-3-9(17)5-11(18)14(7)16(22)23-10-4-8(2)13(15(20)21)12(19)6-10/h3-6,17-19H,1-2H3,(H,20,21)

> <PUBCHEM_IUPAC_INCHIKEY>
HEMSJKZDHNSSEW-UHFFFAOYSA-N

> <PUBCHEM_XLOGP3_AA>
3.6

> <PUBCHEM_EXACT_MASS>
318.073953

> <PUBCHEM_MOLECULAR_FORMULA>
C16H14O7

> <PUBCHEM_MOLECULAR_WEIGHT>
318.27816

> <PUBCHEM_OPENEYE_CAN_SMILES>
CC1=CC(=CC(=C1C(=O)OC2=CC(=C(C(=C2)C)C(=O)O)O)O)O

> <PUBCHEM_OPENEYE_ISO_SMILES>
CC1=CC(=CC(=C1C(=O)OC2=CC(=C(C(=C2)C)C(=O)O)O)O)O

> <PUBCHEM_CACTVS_TPSA>
124

> <PUBCHEM_MONOISOTOPIC_WEIGHT>
318.073953

> <PUBCHEM_TOTAL_CHARGE>
0

> <PUBCHEM_HEAVY_ATOM_COUNT>
23

> <PUBCHEM_ATOM_DEF_STEREO_COUNT>
0

> <PUBCHEM_ATOM_UDEF_STEREO_COUNT>
0

> <PUBCHEM_BOND_DEF_STEREO_COUNT>
0

> <PUBCHEM_BOND_UDEF_STEREO_COUNT>
0

> <PUBCHEM_ISOTOPIC_ATOM_COUNT>
0

> <PUBCHEM_COMPONENT_COUNT>
1

> <PUBCHEM_CACTVS_TAUTO_COUNT>
325

> <PUBCHEM_COORDINATE_TYPE>
1
5
255

> <PUBCHEM_BONDANNOTATIONS>
10  17  8
11  14  8
12  13  8
12  16  8
14  16  8
15  21  8
17  20  8
20  21  8
8  10  8
8  15  8
9  11  8
9  13  8

$$$$

