12810388
  -OEChem-07051212462D

 68 70  0     1  0  0  0  0  0999 V2000
    7.2320    1.8455    0.0000 O   0  0  0  0  0  0  0  0  0  0  0  0
    5.5000   -1.1545    0.0000 O   0  0  0  0  0  0  0  0  0  0  0  0
    5.5000    0.8455    0.0000 O   0  0  0  0  0  0  0  0  0  0  0  0
    5.5000    1.8455    0.0000 O   0  0  0  0  0  0  0  0  0  0  0  0
    5.5000   -2.8865    0.0000 O   0  0  0  0  0  0  0  0  0  0  0  0
    5.5000    4.8455    0.0000 O   0  0  0  0  0  0  0  0  0  0  0  0
    3.5000   -1.1544    0.0000 O   0  0  0  0  0  0  0  0  0  0  0  0
    3.7679    3.8455    0.0000 O   0  0  0  0  0  0  0  0  0  0  0  0
    3.5001   -4.6186    0.0000 O   0  0  0  0  0  0  0  0  0  0  0  0
    2.9019    2.3455    0.0000 O   0  0  0  0  0  0  0  0  0  0  0  0
    8.9641    0.8455    0.0000 N   0  0  0  0  0  0  0  0  0  0  0  0
    7.7321   -2.0205    0.0000 N   0  0  0  0  0  0  0  0  0  0  0  0
    7.2320    3.8455    0.0000 N   0  0  0  0  0  0  0  0  0  0  0  0
    2.5000   -2.8866    0.0000 N   0  0  0  0  0  0  0  0  0  0  0  0
    7.2320    0.8455    0.0000 C   0  0  1  0  0  0  0  0  0  0  0  0
    6.3660   -0.6545    0.0000 C   0  0  2  0  0  0  0  0  0  0  0  0
    6.3660    0.3455    0.0000 C   0  0  1  0  0  0  0  0  0  0  0  0
    8.0980    0.3455    0.0000 C   0  0  2  0  0  0  0  0  0  0  0  0
    7.2320   -1.1545    0.0000 C   0  0  1  0  0  0  0  0  0  0  0  0
    8.0980   -0.6545    0.0000 C   0  0  0  0  0  0  0  0  0  0  0  0
    6.3660    2.3455    0.0000 C   0  0  1  0  0  0  0  0  0  0  0  0
    6.3660    3.3455    0.0000 C   0  0  1  0  0  0  0  0  0  0  0  0
    5.0001   -2.0206    0.0000 C   0  0  1  0  0  0  0  0  0  0  0  0
    5.5000    3.8455    0.0000 C   0  0  2  0  0  0  0  0  0  0  0  0
    4.0000   -2.0205    0.0000 C   0  0  1  0  0  0  0  0  0  0  0  0
    4.6339    3.3455    0.0000 C   0  0  1  0  0  0  0  0  0  0  0  0
    4.6339    2.3455    0.0000 C   0  0  1  0  0  0  0  0  0  0  0  0
    3.5000   -2.8866    0.0000 C   0  0  2  0  0  0  0  0  0  0  0  0
    4.0001   -3.7526    0.0000 C   0  0  1  0  0  0  0  0  0  0  0  0
    5.0000   -3.7526    0.0000 C   0  0  0  0  0  0  0  0  0  0  0  0
    3.7679    1.8455    0.0000 C   0  0  0  0  0  0  0  0  0  0  0  0
    2.0000   -3.7526    0.0000 C   0  0  0  0  0  0  0  0  0  0  0  0
    7.7690    1.1555    0.0000 H   0  0  0  0  0  0  0  0  0  0  0  0
    6.3660   -1.2745    0.0000 H   0  0  0  0  0  0  0  0  0  0  0  0
    6.3660    0.9655    0.0000 H   0  0  0  0  0  0  0  0  0  0  0  0
    8.6350    0.0355    0.0000 H   0  0  0  0  0  0  0  0  0  0  0  0
    6.7936   -1.5929    0.0000 H   0  0  0  0  0  0  0  0  0  0  0  0
    8.3101   -1.2371    0.0000 H   0  0  0  0  0  0  0  0  0  0  0  0
    8.7086   -0.5468    0.0000 H   0  0  0  0  0  0  0  0  0  0  0  0
    6.3660    1.7255    0.0000 H   0  0  0  0  0  0  0  0  0  0  0  0
    6.3660    3.9655    0.0000 H   0  0  0  0  0  0  0  0  0  0  0  0
    4.6900   -1.4836    0.0000 H   0  0  0  0  0  0  0  0  0  0  0  0
    6.0369    4.1555    0.0000 H   0  0  0  0  0  0  0  0  0  0  0  0
    3.3800   -2.0205    0.0000 H   0  0  0  0  0  0  0  0  0  0  0  0
    4.6339    3.9655    0.0000 H   0  0  0  0  0  0  0  0  0  0  0  0
    4.6339    1.7255    0.0000 H   0  0  0  0  0  0  0  0  0  0  0  0
    3.1900   -3.4235    0.0000 H   0  0  0  0  0  0  0  0  0  0  0  0
    9.5010    0.5355    0.0000 H   0  0  0  0  0  0  0  0  0  0  0  0
    8.9641    1.4655    0.0000 H   0  0  0  0  0  0  0  0  0  0  0  0
    8.3520   -2.0205    0.0000 H   0  0  0  0  0  0  0  0  0  0  0  0
    7.4221   -2.5574    0.0000 H   0  0  0  0  0  0  0  0  0  0  0  0
    4.9630    0.5355    0.0000 H   0  0  0  0  0  0  0  0  0  0  0  0
    4.3101   -4.2895    0.0000 H   0  0  0  0  0  0  0  0  0  0  0  0
    4.8923   -4.3631    0.0000 H   0  0  0  0  0  0  0  0  0  0  0  0
    5.5826   -3.9646    0.0000 H   0  0  0  0  0  0  0  0  0  0  0  0
    3.3694    1.3706    0.0000 H   0  0  0  0  0  0  0  0  0  0  0  0
    4.1664    1.3706    0.0000 H   0  0  0  0  0  0  0  0  0  0  0  0
    7.2320    4.4655    0.0000 H   0  0  0  0  0  0  0  0  0  0  0  0
    7.7690    3.5355    0.0000 H   0  0  0  0  0  0  0  0  0  0  0  0
    2.1900   -2.3496    0.0000 H   0  0  0  0  0  0  0  0  0  0  0  0
    4.9630    5.1555    0.0000 H   0  0  0  0  0  0  0  0  0  0  0  0
    2.8800   -1.1544    0.0000 H   0  0  0  0  0  0  0  0  0  0  0  0
    3.7679    4.4655    0.0000 H   0  0  0  0  0  0  0  0  0  0  0  0
    3.8100   -5.1555    0.0000 H   0  0  0  0  0  0  0  0  0  0  0  0
    1.4631   -3.4426    0.0000 H   0  0  0  0  0  0  0  0  0  0  0  0
    1.6900   -4.2895    0.0000 H   0  0  0  0  0  0  0  0  0  0  0  0
    2.5369   -4.0626    0.0000 H   0  0  0  0  0  0  0  0  0  0  0  0
    2.3650    2.0355    0.0000 H   0  0  0  0  0  0  0  0  0  0  0  0
 15  1  1  6  0  0  0
 21  1  1  1  0  0  0
 16  2  1  6  0  0  0
 23  2  1  1  0  0  0
 17  3  1  1  0  0  0
  3 52  1  0  0  0  0
  4 21  1  0  0  0  0
  4 27  1  0  0  0  0
  5 23  1  0  0  0  0
  5 30  1  0  0  0  0
 24  6  1  6  0  0  0
  6 61  1  0  0  0  0
 25  7  1  1  0  0  0
  7 62  1  0  0  0  0
 26  8  1  1  0  0  0
  8 63  1  0  0  0  0
 29  9  1  1  0  0  0
  9 64  1  0  0  0  0
 10 31  1  0  0  0  0
 10 68  1  0  0  0  0
 18 11  1  1  0  0  0
 11 48  1  0  0  0  0
 11 49  1  0  0  0  0
 19 12  1  1  0  0  0
 12 50  1  0  0  0  0
 12 51  1  0  0  0  0
 22 13  1  1  0  0  0
 13 58  1  0  0  0  0
 13 59  1  0  0  0  0
 28 14  1  6  0  0  0
 14 32  1  0  0  0  0
 14 60  1  0  0  0  0
 15 17  1  0  0  0  0
 15 18  1  0  0  0  0
 15 33  1  0  0  0  0
 16 17  1  0  0  0  0
 16 19  1  0  0  0  0
 16 34  1  0  0  0  0
 17 35  1  0  0  0  0
 18 20  1  0  0  0  0
 18 36  1  0  0  0  0
 19 20  1  0  0  0  0
 19 37  1  0  0  0  0
 20 38  1  0  0  0  0
 20 39  1  0  0  0  0
 21 22  1  0  0  0  0
 21 40  1  0  0  0  0
 22 24  1  0  0  0  0
 22 41  1  0  0  0  0
 23 25  1  0  0  0  0
 23 42  1  0  0  0  0
 24 26  1  0  0  0  0
 24 43  1  0  0  0  0
 25 28  1  0  0  0  0
 25 44  1  0  0  0  0
 26 27  1  0  0  0  0
 26 45  1  0  0  0  0
 27 31  1  6  0  0  0
 27 46  1  0  0  0  0
 28 29  1  0  0  0  0
 28 47  1  0  0  0  0
 29 30  1  0  0  0  0
 29 53  1  0  0  0  0
 30 54  1  0  0  0  0
 30 55  1  0  0  0  0
 31 56  1  0  0  0  0
 31 57  1  0  0  0  0
 32 65  1  0  0  0  0
 32 66  1  0  0  0  0
 32 67  1  0  0  0  0
M  END
> <PUBCHEM_COMPOUND_CID>
12810388

> <PUBCHEM_COMPOUND_CANONICALIZED>
1

> <PUBCHEM_CACTVS_COMPLEXITY>
608

> <PUBCHEM_CACTVS_HBOND_ACCEPTOR>
14

> <PUBCHEM_CACTVS_HBOND_DONOR>
10

> <PUBCHEM_CACTVS_ROTATABLE_BOND>
6

> <PUBCHEM_CACTVS_SUBSKEYS>
AAADcfB7vAAAAAAAAAAAAAAAAAAAAAAAAAA0SIAAAAAAAAAAAAAAHgAQCAAACDzxgAcCCALABgAAAAAAAAAAAAAAAAAAAIAIAAATEAIAwAAnQAAHEAAXAAHwcA0AAAAAAAAAAAAAgAAUCACgAAAAAAAAAA==

> <PUBCHEM_IUPAC_OPENEYE_NAME>
(2R,3S,4R,5R,6S)-5-amino-6-[(1R,2S,3S,4R,6S)-4,6-diamino-3-[(2R,3R,4S,5S)-3,5-dihydroxy-4-(methylamino)tetrahydropyran-2-yl]oxy-2-hydroxy-cyclohexoxy]-2-(hydroxymethyl)tetrahydropyran-3,4-diol

> <PUBCHEM_IUPAC_CAS_NAME>
(2R,3S,4R,5R,6S)-5-amino-6-[(1R,2S,3S,4R,6S)-4,6-diamino-3-[[(2R,3R,4S,5S)-3,5-dihydroxy-4-(methylamino)-2-oxanyl]oxy]-2-hydroxycyclohexyl]oxy-2-(hydroxymethyl)oxane-3,4-diol

> <PUBCHEM_IUPAC_NAME>
(2R,3S,4R,5R,6S)-5-amino-6-[(1R,2S,3S,4R,6S)-4,6-diamino-3-[(2R,3R,4S,5S)-3,5-dihydroxy-4-(methylamino)oxan-2-yl]oxy-2-hydroxycyclohexyl]oxy-2-(hydroxymethyl)oxane-3,4-diol

> <PUBCHEM_IUPAC_SYSTEMATIC_NAME>
(2R,3S,4R,5R,6S)-5-azanyl-6-[(1R,2S,3S,4R,6S)-4,6-bis(azanyl)-3-[(2R,3R,4S,5S)-4-(methylamino)-3,5-bis(oxidanyl)oxan-2-yl]oxy-2-oxidanyl-cyclohexyl]oxy-2-(hydroxymethyl)oxane-3,4-diol

> <PUBCHEM_IUPAC_TRADITIONAL_NAME>
(2R,3S,4R,5R,6S)-5-amino-6-[(1R,2S,3S,4R,6S)-4,6-diamino-3-[(2R,3R,4S,5S)-3,5-dihydroxy-4-(methylamino)tetrahydropyran-2-yl]oxy-2-hydroxy-cyclohexoxy]-2-methylol-tetrahydropyran-3,4-diol

> <PUBCHEM_IUPAC_INCHI>
InChI=1S/C18H36N4O10/c1-22-10-7(24)4-29-18(13(10)27)32-16-6(20)2-5(19)15(14(16)28)31-17-9(21)12(26)11(25)8(3-23)30-17/h5-18,22-28H,2-4,19-21H2,1H3/t5-,6+,7+,8+,9+,10-,11+,12+,13+,14-,15+,16-,17+,18+/m0/s1

> <PUBCHEM_IUPAC_INCHIKEY>
LKKVGKXCMYHKSL-QVNYEEQUSA-N

> <PUBCHEM_XLOGP3_AA>
-6.4

> <PUBCHEM_EXACT_MASS>
468.243143

> <PUBCHEM_MOLECULAR_FORMULA>
C18H36N4O10

> <PUBCHEM_MOLECULAR_WEIGHT>
468.49924

> <PUBCHEM_OPENEYE_CAN_SMILES>
CNC1C(COC(C1O)OC2C(CC(C(C2O)OC3C(C(C(C(O3)CO)O)O)N)N)N)O

> <PUBCHEM_OPENEYE_ISO_SMILES>
CN[C@H]1[C@@H](CO[C@@H]([C@@H]1O)O[C@H]2[C@@H](C[C@@H]([C@H]([C@@H]2O)O[C@@H]3[C@@H]([C@H]([C@@H]([C@H](O3)CO)O)O)N)N)N)O

> <PUBCHEM_CACTVS_TPSA>
248

> <PUBCHEM_MONOISOTOPIC_WEIGHT>
468.243143

> <PUBCHEM_TOTAL_CHARGE>
0

> <PUBCHEM_HEAVY_ATOM_COUNT>
32

> <PUBCHEM_ATOM_DEF_STEREO_COUNT>
14

> <PUBCHEM_ATOM_UDEF_STEREO_COUNT>
0

> <PUBCHEM_BOND_DEF_STEREO_COUNT>
0

> <PUBCHEM_BOND_UDEF_STEREO_COUNT>
0

> <PUBCHEM_ISOTOPIC_ATOM_COUNT>
0

> <PUBCHEM_COMPONENT_COUNT>
1

> <PUBCHEM_CACTVS_TAUTO_COUNT>
1

> <PUBCHEM_COORDINATE_TYPE>
1
5
255

> <PUBCHEM_BONDANNOTATIONS>
15  1  6
21  1  5
18  11  5
19  12  5
22  13  5
28  14  6
16  2  6
23  2  5
27  31  6
17  3  5
24  6  6
25  7  5
26  8  5
29  9  5

$$$$

