10100825
  -OEChem-07051213033D

 92 94  0     1  0  0  0  0  0999 V2000
   -1.3991   -4.6950   -0.1947 O   0  0  0  0  0  0  0  0  0  0  0  0
   -3.5634   -2.9036   -1.8384 O   0  0  0  0  0  0  0  0  0  0  0  0
    1.3364   -3.2766   -1.2646 O   0  0  0  0  0  0  0  0  0  0  0  0
   -4.9384   -0.6491    1.2648 O   0  0  0  0  0  0  0  0  0  0  0  0
    3.8554   -4.1354   -1.0127 O   0  0  0  0  0  0  0  0  0  0  0  0
    5.3662    0.5958    1.8677 O   0  0  0  0  0  0  0  0  0  0  0  0
    5.7506    0.0829   -1.2036 O   0  0  0  0  0  0  0  0  0  0  0  0
    2.3782    2.6874   -3.2822 O   0  0  0  0  0  0  0  0  0  0  0  0
    2.4200    1.3127    2.5687 O   0  0  0  0  0  0  0  0  0  0  0  0
    0.4082    3.4498   -1.8765 O   0  0  0  0  0  0  0  0  0  0  0  0
   -1.9004    3.5210    2.5500 O   0  0  0  0  0  0  0  0  0  0  0  0
   -1.1364    3.5206    0.3230 N   0  0  0  0  0  0  0  0  0  0  0  0
   -2.6927   -2.7311    0.4548 C   0  0  1  0  0  0  0  0  0  0  0  0
   -1.3277   -3.2688   -0.0865 C   0  0  1  0  0  0  0  0  0  0  0  0
   -3.8797   -3.1468   -0.4695 C   0  0  1  0  0  0  0  0  0  0  0  0
   -0.0521   -2.9214    0.7497 C   0  0  1  0  0  0  0  0  0  0  0  0
   -5.2921   -2.5816   -0.1232 C   0  0  1  0  0  0  0  0  0  0  0  0
    1.2193   -3.5851    0.1256 C   0  0  2  0  0  0  0  0  0  0  0  0
   -5.4747   -1.0363   -0.0140 C   0  0  2  0  0  0  0  0  0  0  0  0
   -2.9392   -3.2034    1.8955 C   0  0  0  0  0  0  0  0  0  0  0  0
    2.5790   -3.3602    0.8520 C   0  0  1  0  0  0  0  0  0  0  0  0
    0.0788   -1.4072    0.9362 C   0  0  0  0  0  0  0  0  0  0  0  0
   -4.8190   -0.1109   -1.0717 C   0  0  1  0  0  0  0  0  0  0  0  0
   -6.3457   -3.1845   -1.0695 C   0  0  0  0  0  0  0  0  0  0  0  0
    3.6045   -4.3913    0.3532 C   0  0  0  0  0  0  0  0  0  0  0  0
    3.1916   -1.9850    0.6668 C   0  0  0  0  0  0  0  0  0  0  0  0
   -5.3757   -0.2901   -2.4849 C   0  0  0  0  0  0  0  0  0  0  0  0
   -5.0173    1.3474   -0.6884 C   0  0  0  0  0  0  0  0  0  0  0  0
    3.9147   -1.2911    1.5686 C   0  0  0  0  0  0  0  0  0  0  0  0
   -4.0415    2.1061   -0.1649 C   0  0  0  0  0  0  0  0  0  0  0  0
    4.4624    0.0704    1.2256 C   0  0  0  0  0  0  0  0  0  0  0  0
    4.2880   -1.7790    2.9397 C   0  0  0  0  0  0  0  0  0  0  0  0
    3.8767    0.8250    0.1051 C   0  0  0  0  0  0  0  0  0  0  0  0
   -4.2171    3.4990    0.1901 C   0  0  0  0  0  0  0  0  0  0  0  0
    2.6758    1.5500    0.2168 C   0  0  0  0  0  0  0  0  0  0  0  0
    4.5765    0.7721   -1.1060 C   0  0  0  0  0  0  0  0  0  0  0  0
   -3.3417    4.2762    0.8530 C   0  0  0  0  0  0  0  0  0  0  0  0
    2.1557    2.1653   -0.9260 C   0  0  0  0  0  0  0  0  0  0  0  0
    4.0597    1.4105   -2.2282 C   0  0  0  0  0  0  0  0  0  0  0  0
    2.8488    2.0959   -2.1441 C   0  0  0  0  0  0  0  0  0  0  0  0
    1.9598    1.7037    1.5031 C   0  0  0  0  0  0  0  0  0  0  0  0
    0.8664    2.8867   -0.8872 C   0  0  0  0  0  0  0  0  0  0  0  0
    0.1060    2.9175    0.3940 C   0  0  0  0  0  0  0  0  0  0  0  0
   -2.0474    3.7228    1.3496 C   0  0  0  0  0  0  0  0  0  0  0  0
    0.6384    2.3662    1.4891 C   0  0  0  0  0  0  0  0  0  0  0  0
   -3.6162    5.7010    1.2213 C   0  0  0  0  0  0  0  0  0  0  0  0
    4.7999    1.3476   -3.5271 C   0  0  0  0  0  0  0  0  0  0  0  0
   -2.6357   -1.6389    0.4476 H   0  0  0  0  0  0  0  0  0  0  0  0
   -1.1794   -2.8781   -1.0994 H   0  0  0  0  0  0  0  0  0  0  0  0
   -3.9763   -4.2392   -0.3888 H   0  0  0  0  0  0  0  0  0  0  0  0
   -0.1528   -3.3688    1.7467 H   0  0  0  0  0  0  0  0  0  0  0  0
   -5.5416   -2.9821    0.8695 H   0  0  0  0  0  0  0  0  0  0  0  0
    1.0322   -4.6669    0.1652 H   0  0  0  0  0  0  0  0  0  0  0  0
   -6.5508   -0.8224    0.0377 H   0  0  0  0  0  0  0  0  0  0  0  0
   -3.0261   -4.2929    1.9549 H   0  0  0  0  0  0  0  0  0  0  0  0
   -2.1361   -2.8870    2.5666 H   0  0  0  0  0  0  0  0  0  0  0  0
   -3.8594   -2.7805    2.3065 H   0  0  0  0  0  0  0  0  0  0  0  0
    2.3980   -3.5549    1.9149 H   0  0  0  0  0  0  0  0  0  0  0  0
    0.2774   -0.9047   -0.0157 H   0  0  0  0  0  0  0  0  0  0  0  0
   -0.8222   -0.9671    1.3713 H   0  0  0  0  0  0  0  0  0  0  0  0
    0.8825   -1.1686    1.6361 H   0  0  0  0  0  0  0  0  0  0  0  0
   -3.7406   -0.3069   -1.1024 H   0  0  0  0  0  0  0  0  0  0  0  0
   -7.3529   -2.8565   -0.7912 H   0  0  0  0  0  0  0  0  0  0  0  0
   -6.1810   -2.9186   -2.1150 H   0  0  0  0  0  0  0  0  0  0  0  0
   -6.3325   -4.2783   -1.0048 H   0  0  0  0  0  0  0  0  0  0  0  0
   -1.3864   -5.0685    0.7024 H   0  0  0  0  0  0  0  0  0  0  0  0
   -2.9477   -3.5964   -2.1311 H   0  0  0  0  0  0  0  0  0  0  0  0
    3.2244   -5.4124    0.4624 H   0  0  0  0  0  0  0  0  0  0  0  0
    4.5473   -4.3151    0.9064 H   0  0  0  0  0  0  0  0  0  0  0  0
    3.0212   -1.5584   -0.3184 H   0  0  0  0  0  0  0  0  0  0  0  0
   -5.0679   -1.2393   -2.9262 H   0  0  0  0  0  0  0  0  0  0  0  0
   -5.0096    0.4958   -3.1566 H   0  0  0  0  0  0  0  0  0  0  0  0
   -6.4708   -0.2500   -2.4915 H   0  0  0  0  0  0  0  0  0  0  0  0
    1.9962   -3.8758   -1.6511 H   0  0  0  0  0  0  0  0  0  0  0  0
   -5.4042    0.1540    1.5533 H   0  0  0  0  0  0  0  0  0  0  0  0
   -6.0071    1.7706   -0.8481 H   0  0  0  0  0  0  0  0  0  0  0  0
   -3.0726    1.6498    0.0128 H   0  0  0  0  0  0  0  0  0  0  0  0
    4.5037   -4.7941   -1.3146 H   0  0  0  0  0  0  0  0  0  0  0  0
    3.9597   -2.8007    3.1426 H   0  0  0  0  0  0  0  0  0  0  0  0
    5.3761   -1.7677    3.0660 H   0  0  0  0  0  0  0  0  0  0  0  0
    3.8449   -1.1310    3.7032 H   0  0  0  0  0  0  0  0  0  0  0  0
   -5.1671    3.9406   -0.1075 H   0  0  0  0  0  0  0  0  0  0  0  0
    0.1304    2.3599    2.4458 H   0  0  0  0  0  0  0  0  0  0  0  0
   -2.8577    6.3583    0.7838 H   0  0  0  0  0  0  0  0  0  0  0  0
   -3.5989    5.8279    2.3087 H   0  0  0  0  0  0  0  0  0  0  0  0
   -4.5948    6.0362    0.8621 H   0  0  0  0  0  0  0  0  0  0  0  0
   -1.4065    3.8326   -0.6080 H   0  0  0  0  0  0  0  0  0  0  0  0
    5.8163    1.7394   -3.4088 H   0  0  0  0  0  0  0  0  0  0  0  0
    4.8449    0.3148   -3.8896 H   0  0  0  0  0  0  0  0  0  0  0  0
    4.3369    1.9409   -4.3213 H   0  0  0  0  0  0  0  0  0  0  0  0
    6.0837    0.0623   -2.1132 H   0  0  0  0  0  0  0  0  0  0  0  0
    1.6139    3.2507   -3.0927 H   0  0  0  0  0  0  0  0  0  0  0  0
  1 14  1  0  0  0  0
  1 66  1  0  0  0  0
  2 15  1  0  0  0  0
  2 67  1  0  0  0  0
  3 18  1  0  0  0  0
  3 74  1  0  0  0  0
  4 19  1  0  0  0  0
  4 75  1  0  0  0  0
  5 25  1  0  0  0  0
  5 78  1  0  0  0  0
  6 31  2  0  0  0  0
  7 36  1  0  0  0  0
  7 91  1  0  0  0  0
  8 40  1  0  0  0  0
  8 92  1  0  0  0  0
  9 41  2  0  0  0  0
 10 42  2  0  0  0  0
 11 44  2  0  0  0  0
 12 43  1  0  0  0  0
 12 44  1  0  0  0  0
 12 87  1  0  0  0  0
 13 14  1  0  0  0  0
 13 15  1  0  0  0  0
 13 20  1  0  0  0  0
 13 48  1  0  0  0  0
 14 16  1  0  0  0  0
 14 49  1  0  0  0  0
 15 17  1  0  0  0  0
 15 50  1  0  0  0  0
 16 18  1  0  0  0  0
 16 22  1  0  0  0  0
 16 51  1  0  0  0  0
 17 19  1  0  0  0  0
 17 24  1  0  0  0  0
 17 52  1  0  0  0  0
 18 21  1  0  0  0  0
 18 53  1  0  0  0  0
 19 23  1  0  0  0  0
 19 54  1  0  0  0  0
 20 55  1  0  0  0  0
 20 56  1  0  0  0  0
 20 57  1  0  0  0  0
 21 25  1  0  0  0  0
 21 26  1  0  0  0  0
 21 58  1  0  0  0  0
 22 59  1  0  0  0  0
 22 60  1  0  0  0  0
 22 61  1  0  0  0  0
 23 27  1  0  0  0  0
 23 28  1  0  0  0  0
 23 62  1  0  0  0  0
 24 63  1  0  0  0  0
 24 64  1  0  0  0  0
 24 65  1  0  0  0  0
 25 68  1  0  0  0  0
 25 69  1  0  0  0  0
 26 29  2  0  0  0  0
 26 70  1  0  0  0  0
 27 71  1  0  0  0  0
 27 72  1  0  0  0  0
 27 73  1  0  0  0  0
 28 30  2  0  0  0  0
 28 76  1  0  0  0  0
 29 31  1  0  0  0  0
 29 32  1  0  0  0  0
 30 34  1  0  0  0  0
 30 77  1  0  0  0  0
 31 33  1  0  0  0  0
 32 79  1  0  0  0  0
 32 80  1  0  0  0  0
 32 81  1  0  0  0  0
 33 35  2  0  0  0  0
 33 36  1  0  0  0  0
 34 37  2  0  0  0  0
 34 82  1  0  0  0  0
 35 38  1  0  0  0  0
 35 41  1  0  0  0  0
 36 39  2  0  0  0  0
 37 44  1  0  0  0  0
 37 46  1  0  0  0  0
 38 40  2  0  0  0  0
 38 42  1  0  0  0  0
 39 40  1  0  0  0  0
 39 47  1  0  0  0  0
 41 45  1  0  0  0  0
 42 43  1  0  0  0  0
 43 45  2  0  0  0  0
 45 83  1  0  0  0  0
 46 84  1  0  0  0  0
 46 85  1  0  0  0  0
 46 86  1  0  0  0  0
 47 88  1  0  0  0  0
 47 89  1  0  0  0  0
 47 90  1  0  0  0  0
M  END
> <PUBCHEM_COMPOUND_CID>
10100825

> <PUBCHEM_CONFORMER_RMSD>
0.8

> <PUBCHEM_CONFORMER_DIVERSEORDER>
1

> <PUBCHEM_MMFF94_PARTIAL_CHARGES>
53
1 -0.68
10 -0.57
11 -0.57
12 -0.54
14 0.28
15 0.28
18 0.28
19 0.28
2 -0.68
21 0.14
23 0.14
25 0.28
26 -0.29
28 -0.29
29 -0.12
3 -0.68
30 -0.15
31 0.47
32 0.14
33 0.09
34 -0.15
35 0.09
36 0.08
37 -0.12
38 0.09
39 -0.14
4 -0.68
40 0.08
41 0.47
42 0.47
43 0.12
44 0.62
45 -0.14
46 0.14
47 0.14
5 -0.68
6 -0.57
66 0.4
67 0.4
7 -0.53
70 0.15
74 0.4
75 0.4
76 0.15
77 0.15
78 0.4
8 -0.53
82 0.15
83 0.15
87 0.37
9 -0.57
91 0.45
92 0.45

> <PUBCHEM_EFFECTIVE_ROTOR_COUNT>
3

> <PUBCHEM_PHARMACOPHORE_FEATURES>
19
1 1 acceptor
1 1 donor
1 10 acceptor
1 11 acceptor
1 12 donor
1 2 acceptor
1 2 donor
1 3 acceptor
1 3 donor
1 4 acceptor
1 4 donor
1 5 acceptor
1 5 donor
1 6 acceptor
1 7 donor
1 8 donor
1 9 acceptor
6 33 35 36 38 39 40 rings
6 35 38 41 42 43 45 rings

> <PUBCHEM_HEAVY_ATOM_COUNT>
47

> <PUBCHEM_ATOM_DEF_STEREO_COUNT>
9

> <PUBCHEM_ATOM_UDEF_STEREO_COUNT>
0

> <PUBCHEM_BOND_DEF_STEREO_COUNT>
3

> <PUBCHEM_BOND_UDEF_STEREO_COUNT>
0

> <PUBCHEM_ISOTOPIC_ATOM_COUNT>
0

> <PUBCHEM_COMPONENT_COUNT>
1

> <PUBCHEM_CACTVS_TAUTO_COUNT>
168

> <PUBCHEM_CONFORMER_ID>
009A205900000001

> <PUBCHEM_MMFF94_ENERGY>
161.3709

> <PUBCHEM_FEATURE_SELFOVERLAP>
96.452

> <PUBCHEM_SHAPE_FINGERPRINT>
10190206 1 18269535192857838404
10581848 31 18341622494635789687
10622 236 18273221910594731537
10675989 125 18194960730076565128
10677394 325 17845640470985575166
10864689 126 17110162071013156027
10928967 22 18191017903465886045
11399939 17 18339924943594160312
11513181 2 18115869787615155622
12788726 201 18267853991585007924
13165053 182 16263449642059618948
13347071 3 18334864969059796010
14017579 90 18201729486950873373
144659 178 18411423942010666121
14918310 93 16975889711530863425
15001296 14 18341621429584315505
15150950 15 17698991904745260851
15264996 142 18056746852698347322
15274700 256 18263084324363753648
15274700 259 17986697994950644567
15320291 9 18267872868373118263
15320467 1 18337119973266646315
15351339 4 18126004858192627187
15406563 228 18199183065502187596
16708801 149 18270406104260135151
20764821 26 18339917242342758699
21133410 38 17970921192070518441
22121540 332 17897184459035471424
3493558 16 18340210781856515803
354706 109 17687778303011544833
354706 35 16318391039644550399
463206 1 17975416033494863537
50080093 196 18130510859102544139
9831354 38 17908949387892312062

> <PUBCHEM_SHAPE_MULTIPOLES>
897.69
13.25
7.92
2.67
7.07
0.3
1.01
-3.47
3.4
5.79
-1.34
-2.82
1.55
-4.07

> <PUBCHEM_SHAPE_SELFOVERLAP>
1888.636

> <PUBCHEM_SHAPE_VOLUME>
500

> <PUBCHEM_COORDINATE_TYPE>
2
5
10

$$$$

