440863
  -OEChem-07051212512D

 45 47  0     1  0  0  0  0  0999 V2000
    5.0474    2.4706    0.0000 P   0  0  3  0  0  0  0  0  0  0  0  0
    4.4026   -0.9825    0.0000 O   0  0  0  0  0  0  0  0  0  0  0  0
    6.7485   -2.0744    0.0000 O   0  0  0  0  0  0  0  0  0  0  0  0
    6.7523    0.1012    0.0000 O   0  0  0  0  0  0  0  0  0  0  0  0
    5.3548    1.5191    0.0000 O   0  0  0  0  0  0  0  0  0  0  0  0
    4.7400    3.4222    0.0000 O   0  0  0  0  0  0  0  0  0  0  0  0
    5.9990    2.7780    0.0000 O   0  0  0  0  0  0  0  0  0  0  0  0
    4.0958    2.1633    0.0000 O   0  0  0  0  0  0  0  0  0  0  0  0
    6.3882    3.9546    0.0000 O   0  0  0  0  0  0  0  0  0  0  0  0
    4.6783   -2.7431    0.0000 N   0  0  0  0  0  0  0  0  0  0  0  0
    4.6783   -4.3525    0.0000 N   0  0  0  0  0  0  0  0  0  0  0  0
    2.8660   -2.5478    0.0000 N   0  0  0  0  0  0  0  0  0  0  0  0
    2.0000   -4.0478    0.0000 N   0  0  0  0  0  0  0  0  0  0  0  0
    2.8660   -5.5478    0.0000 N   0  0  0  0  0  0  0  0  0  0  0  0
    5.9405   -1.4852    0.0000 C   0  0  2  0  0  0  0  0  0  0  0  0
    5.9422   -0.4852    0.0000 C   0  0  1  0  0  0  0  0  0  0  0  0
    4.9889   -1.7926    0.0000 C   0  0  1  0  0  0  0  0  0  0  0  0
    4.9917   -0.1745    0.0000 C   0  0  1  0  0  0  0  0  0  0  0  0
    4.6844    0.7771    0.0000 C   0  0  0  0  0  0  0  0  0  0  0  0
    3.7320   -3.0478    0.0000 C   0  0  0  0  0  0  0  0  0  0  0  0
    5.2619   -3.5478    0.0000 C   0  0  0  0  0  0  0  0  0  0  0  0
    3.7320   -4.0478    0.0000 C   0  0  0  0  0  0  0  0  0  0  0  0
    2.8660   -4.5478    0.0000 C   0  0  0  0  0  0  0  0  0  0  0  0
    2.0000   -3.0478    0.0000 C   0  0  0  0  0  0  0  0  0  0  0  0
    5.4104    4.1642    0.0000 C   0  0  0  0  0  0  0  0  0  0  0  0
    5.1031    5.1158    0.0000 C   0  0  0  0  0  0  0  0  0  0  0  0
    5.7735    5.8578    0.0000 C   0  0  0  0  0  0  0  0  0  0  0  0
    5.8425   -2.0974    0.0000 H   0  0  0  0  0  0  0  0  0  0  0  0
    6.4942   -0.7676    0.0000 H   0  0  0  0  0  0  0  0  0  0  0  0
    5.4266   -2.2317    0.0000 H   0  0  0  0  0  0  0  0  0  0  0  0
    4.3795   -0.0765    0.0000 H   0  0  0  0  0  0  0  0  0  0  0  0
    4.3035    1.2663    0.0000 H   0  0  0  0  0  0  0  0  0  0  0  0
    4.1364    0.4869    0.0000 H   0  0  0  0  0  0  0  0  0  0  0  0
    7.3154   -1.8232    0.0000 H   0  0  0  0  0  0  0  0  0  0  0  0
    7.3182   -0.1520    0.0000 H   0  0  0  0  0  0  0  0  0  0  0  0
    5.8819   -3.5478    0.0000 H   0  0  0  0  0  0  0  0  0  0  0  0
    1.4631   -2.7378    0.0000 H   0  0  0  0  0  0  0  0  0  0  0  0
    2.3291   -5.8578    0.0000 H   0  0  0  0  0  0  0  0  0  0  0  0
    3.4030   -5.8578    0.0000 H   0  0  0  0  0  0  0  0  0  0  0  0
    6.4590    2.3624    0.0000 H   0  0  0  0  0  0  0  0  0  0  0  0
    4.7222    5.6050    0.0000 H   0  0  0  0  0  0  0  0  0  0  0  0
    4.5552    4.8257    0.0000 H   0  0  0  0  0  0  0  0  0  0  0  0
    6.2335    5.4421    0.0000 H   0  0  0  0  0  0  0  0  0  0  0  0
    6.1892    6.3178    0.0000 H   0  0  0  0  0  0  0  0  0  0  0  0
    5.3135    6.2735    0.0000 H   0  0  0  0  0  0  0  0  0  0  0  0
  1  5  1  0  0  0  0
  1  6  1  0  0  0  0
  1  7  1  0  0  0  0
  1  8  2  0  0  0  0
  2 17  1  0  0  0  0
  2 18  1  0  0  0  0
 15  3  1  1  0  0  0
  3 34  1  0  0  0  0
 16  4  1  1  0  0  0
  4 35  1  0  0  0  0
  5 19  1  0  0  0  0
  6 25  1  0  0  0  0
  7 40  1  0  0  0  0
  9 25  2  0  0  0  0
 17 10  1  6  0  0  0
 10 20  1  0  0  0  0
 10 21  1  0  0  0  0
 11 21  2  0  0  0  0
 11 22  1  0  0  0  0
 12 20  1  0  0  0  0
 12 24  2  0  0  0  0
 13 23  2  0  0  0  0
 13 24  1  0  0  0  0
 14 23  1  0  0  0  0
 14 38  1  0  0  0  0
 14 39  1  0  0  0  0
 15 16  1  0  0  0  0
 15 17  1  0  0  0  0
 15 28  1  0  0  0  0
 16 18  1  0  0  0  0
 16 29  1  0  0  0  0
 17 30  1  0  0  0  0
 18 19  1  6  0  0  0
 18 31  1  0  0  0  0
 19 32  1  0  0  0  0
 19 33  1  0  0  0  0
 20 22  2  0  0  0  0
 21 36  1  0  0  0  0
 22 23  1  0  0  0  0
 24 37  1  0  0  0  0
 25 26  1  0  0  0  0
 26 27  1  0  0  0  0
 26 41  1  0  0  0  0
 26 42  1  0  0  0  0
 27 43  1  0  0  0  0
 27 44  1  0  0  0  0
 27 45  1  0  0  0  0
M  END
> <PUBCHEM_COMPOUND_CID>
440863

> <PUBCHEM_COMPOUND_CANONICALIZED>
1

> <PUBCHEM_CACTVS_COMPLEXITY>
599

> <PUBCHEM_CACTVS_HBOND_ACCEPTOR>
12

> <PUBCHEM_CACTVS_HBOND_DONOR>
4

> <PUBCHEM_CACTVS_ROTATABLE_BOND>
7

> <PUBCHEM_CACTVS_SUBSKEYS>
AAADceBzvAIAAAAAAAAAAAAAAAAAAWJAAAAsAAAAAAAAAFgB+AAAHgAQCCAACBzhlwYH+L9MFxCoQQbxbICAgC0REKABUCEoVBCDWAJAyEAeRAgPAALTACDwMAIAAAAAAAAAAAAAAAAAAAAAAAAAAAAAAA==

> <PUBCHEM_IUPAC_OPENEYE_NAME>
[[(2R,3S,4R,5R)-5-(6-aminopurin-9-yl)-3,4-dihydroxy-tetrahydrofuran-2-yl]methoxy-hydroxy-phosphoryl] propanoate

> <PUBCHEM_IUPAC_CAS_NAME>
propanoic acid [[(2R,3S,4R,5R)-5-(6-aminopurin-9-yl)-3,4-dihydroxy-2-oxolanyl]methoxy-hydroxyphosphoryl] ester

> <PUBCHEM_IUPAC_NAME>
[[(2R,3S,4R,5R)-5-(6-aminopurin-9-yl)-3,4-dihydroxyoxolan-2-yl]methoxy-hydroxyphosphoryl] propanoate

> <PUBCHEM_IUPAC_SYSTEMATIC_NAME>
[[(2R,3S,4R,5R)-5-(6-aminopurin-9-yl)-3,4-bis(oxidanyl)oxolan-2-yl]methoxy-oxidanyl-phosphoryl] propanoate

> <PUBCHEM_IUPAC_TRADITIONAL_NAME>
propionic acid [[(2R,3S,4R,5R)-5-adenin-9-yl-3,4-dihydroxy-tetrahydrofuran-2-yl]methoxy-hydroxy-phosphoryl] ester

> <PUBCHEM_IUPAC_INCHI>
InChI=1S/C13H18N5O8P/c1-2-7(19)26-27(22,23)24-3-6-9(20)10(21)13(25-6)18-5-17-8-11(14)15-4-16-12(8)18/h4-6,9-10,13,20-21H,2-3H2,1H3,(H,22,23)(H2,14,15,16)/t6-,9-,10-,13-/m1/s1

> <PUBCHEM_IUPAC_INCHIKEY>
ZGNGGJLVZZHLQM-ZRFIDHNTSA-N

> <PUBCHEM_XLOGP3>
-2.5

> <PUBCHEM_EXACT_MASS>
403.089299

> <PUBCHEM_MOLECULAR_FORMULA>
C13H18N5O8P

> <PUBCHEM_MOLECULAR_WEIGHT>
403.284482

> <PUBCHEM_OPENEYE_CAN_SMILES>
CCC(=O)OP(=O)(O)OCC1C(C(C(O1)N2C=NC3=C2N=CN=C3N)O)O

> <PUBCHEM_OPENEYE_ISO_SMILES>
CCC(=O)OP(=O)(O)OC[C@@H]1[C@H]([C@H]([C@@H](O1)N2C=NC3=C2N=CN=C3N)O)O

> <PUBCHEM_CACTVS_TPSA>
192

> <PUBCHEM_MONOISOTOPIC_WEIGHT>
403.089299

> <PUBCHEM_TOTAL_CHARGE>
0

> <PUBCHEM_HEAVY_ATOM_COUNT>
27

> <PUBCHEM_ATOM_DEF_STEREO_COUNT>
4

> <PUBCHEM_ATOM_UDEF_STEREO_COUNT>
0

> <PUBCHEM_BOND_DEF_STEREO_COUNT>
0

> <PUBCHEM_BOND_UDEF_STEREO_COUNT>
0

> <PUBCHEM_ISOTOPIC_ATOM_COUNT>
0

> <PUBCHEM_COMPONENT_COUNT>
1

> <PUBCHEM_CACTVS_TAUTO_COUNT>
3

> <PUBCHEM_COORDINATE_TYPE>
1
5
255

> <PUBCHEM_BONDANNOTATIONS>
17  10  6
10  20  8
10  21  8
11  21  8
11  22  8
12  20  8
12  24  8
13  23  8
13  24  8
18  19  6
20  22  8
22  23  8
15  3  5
16  4  5

$$$$

