442792
  -OEChem-07051212593D

 38 41  0     1  0  0  0  0  0999 V2000
   -1.0518    0.0091    1.8681 O   0  0  0  0  0  0  0  0  0  0  0  0
    1.0221    1.6727   -1.0562 O   0  0  0  0  0  0  0  0  0  0  0  0
    3.2567    0.4812   -1.9769 O   0  0  0  0  0  0  0  0  0  0  0  0
   -4.6369   -1.7016   -0.8555 O   0  0  0  0  0  0  0  0  0  0  0  0
    4.6410   -1.3298   -0.4151 O   0  0  0  0  0  0  0  0  0  0  0  0
   -0.7564    2.0589    0.6035 C   0  0  2  0  0  0  0  0  0  0  0  0
   -0.1000    1.0697    1.5834 C   0  0  2  0  0  0  0  0  0  0  0  0
   -1.8008    1.1730    0.0209 C   0  0  0  0  0  0  0  0  0  0  0  0
    0.2447    2.6587   -0.3707 C   0  0  0  0  0  0  0  0  0  0  0  0
    1.1799    0.4677    1.0537 C   0  0  0  0  0  0  0  0  0  0  0  0
   -1.9330    0.0446    0.8168 C   0  0  0  0  0  0  0  0  0  0  0  0
    1.6581    0.7922   -0.2213 C   0  0  0  0  0  0  0  0  0  0  0  0
   -2.6202    1.3593   -1.0788 C   0  0  0  0  0  0  0  0  0  0  0  0
    1.8992   -0.4488    1.8343 C   0  0  0  0  0  0  0  0  0  0  0  0
   -2.8741   -0.9326    0.5559 C   0  0  0  0  0  0  0  0  0  0  0  0
    2.8089    0.1802   -0.7240 C   0  0  0  0  0  0  0  0  0  0  0  0
   -3.5718    0.3779   -1.3697 C   0  0  0  0  0  0  0  0  0  0  0  0
   -3.6988   -0.7599   -0.5564 C   0  0  0  0  0  0  0  0  0  0  0  0
    3.0599   -1.0447    1.3396 C   0  0  0  0  0  0  0  0  0  0  0  0
    3.5113   -0.7340    0.0589 C   0  0  0  0  0  0  0  0  0  0  0  0
   -4.7168   -2.8339    0.0081 C   0  0  0  0  0  0  0  0  0  0  0  0
    4.4788   -2.5600   -1.1184 C   0  0  0  0  0  0  0  0  0  0  0  0
   -1.2692    2.8540    1.1594 H   0  0  0  0  0  0  0  0  0  0  0  0
    0.1289    1.5864    2.5245 H   0  0  0  0  0  0  0  0  0  0  0  0
   -0.2699    3.2509   -1.1354 H   0  0  0  0  0  0  0  0  0  0  0  0
    0.9284    3.3412    0.1508 H   0  0  0  0  0  0  0  0  0  0  0  0
   -2.5393    2.2451   -1.6994 H   0  0  0  0  0  0  0  0  0  0  0  0
    1.5524   -0.7106    2.8310 H   0  0  0  0  0  0  0  0  0  0  0  0
   -2.9163   -1.7818    1.2265 H   0  0  0  0  0  0  0  0  0  0  0  0
   -4.2234    0.5048   -2.2307 H   0  0  0  0  0  0  0  0  0  0  0  0
    3.6029   -1.7550    1.9573 H   0  0  0  0  0  0  0  0  0  0  0  0
    4.0877    0.0010   -2.1345 H   0  0  0  0  0  0  0  0  0  0  0  0
   -3.7923   -3.4210   -0.0110 H   0  0  0  0  0  0  0  0  0  0  0  0
   -5.5128   -3.4793   -0.3776 H   0  0  0  0  0  0  0  0  0  0  0  0
   -5.0041   -2.5454    1.0248 H   0  0  0  0  0  0  0  0  0  0  0  0
    3.8228   -2.4298   -1.9850 H   0  0  0  0  0  0  0  0  0  0  0  0
    4.0726   -3.3284   -0.4530 H   0  0  0  0  0  0  0  0  0  0  0  0
    5.4616   -2.8858   -1.4698 H   0  0  0  0  0  0  0  0  0  0  0  0
  1  7  1  0  0  0  0
  1 11  1  0  0  0  0
  2  9  1  0  0  0  0
  2 12  1  0  0  0  0
  3 16  1  0  0  0  0
  3 32  1  0  0  0  0
  4 18  1  0  0  0  0
  4 21  1  0  0  0  0
  5 20  1  0  0  0  0
  5 22  1  0  0  0  0
  6  7  1  0  0  0  0
  6  8  1  0  0  0  0
  6  9  1  0  0  0  0
  6 23  1  0  0  0  0
  7 10  1  0  0  0  0
  7 24  1  0  0  0  0
  8 11  2  0  0  0  0
  8 13  1  0  0  0  0
  9 25  1  0  0  0  0
  9 26  1  0  0  0  0
 10 12  2  0  0  0  0
 10 14  1  0  0  0  0
 11 15  1  0  0  0  0
 12 16  1  0  0  0  0
 13 17  2  0  0  0  0
 13 27  1  0  0  0  0
 14 19  2  0  0  0  0
 14 28  1  0  0  0  0
 15 18  2  0  0  0  0
 15 29  1  0  0  0  0
 16 20  2  0  0  0  0
 17 18  1  0  0  0  0
 17 30  1  0  0  0  0
 19 20  1  0  0  0  0
 19 31  1  0  0  0  0
 21 33  1  0  0  0  0
 21 34  1  0  0  0  0
 21 35  1  0  0  0  0
 22 36  1  0  0  0  0
 22 37  1  0  0  0  0
 22 38  1  0  0  0  0
M  END
> <PUBCHEM_COMPOUND_CID>
442792

> <PUBCHEM_CONFORMER_RMSD>
0.6

> <PUBCHEM_CONFORMER_DIVERSEORDER>
1
4
2
3

> <PUBCHEM_MMFF94_PARTIAL_CHARGES>
28
1 -0.36
10 -0.14
11 0.08
12 0.08
13 -0.15
14 -0.15
15 -0.15
16 0.08
17 -0.15
18 0.08
19 -0.15
2 -0.36
20 0.08
21 0.28
22 0.28
27 0.15
28 0.15
29 0.15
3 -0.53
30 0.15
31 0.15
32 0.45
4 -0.36
5 -0.36
6 0.14
7 0.42
8 -0.14
9 0.28

> <PUBCHEM_EFFECTIVE_ROTOR_COUNT>
2.6

> <PUBCHEM_PHARMACOPHORE_FEATURES>
9
1 1 acceptor
1 2 acceptor
1 3 donor
1 4 acceptor
1 5 acceptor
5 1 6 7 8 11 rings
6 10 12 14 16 19 20 rings
6 2 6 7 9 10 12 rings
6 8 11 13 15 17 18 rings

> <PUBCHEM_HEAVY_ATOM_COUNT>
22

> <PUBCHEM_ATOM_DEF_STEREO_COUNT>
2

> <PUBCHEM_ATOM_UDEF_STEREO_COUNT>
0

> <PUBCHEM_BOND_DEF_STEREO_COUNT>
0

> <PUBCHEM_BOND_UDEF_STEREO_COUNT>
0

> <PUBCHEM_ISOTOPIC_ATOM_COUNT>
0

> <PUBCHEM_COMPONENT_COUNT>
1

> <PUBCHEM_CACTVS_TAUTO_COUNT>
3

> <PUBCHEM_CONFORMER_ID>
0006C1A800000001

> <PUBCHEM_MMFF94_ENERGY>
90.1211

> <PUBCHEM_FEATURE_SELFOVERLAP>
46.065

> <PUBCHEM_SHAPE_FINGERPRINT>
10465860 71 18273223014285216793
10948715 1 10447929477148874865
11578080 2 18199491967972284716
11640471 11 11023555623070638761
11796584 16 18336837488461216679
12202030 40 17677896910444954024
12251169 10 4967608386410450377
12363563 72 18113903757834640665
12553582 1 18273213135781139785
12633257 1 15140686864495497694
12644460 14 15357991014547289522
12670546 177 17632860832155517879
12892183 10 6699803202781068413
13103583 49 15719390607824781135
13544653 18 17676498249665000504
13911987 19 17695321708793215228
13965767 371 7276565182452396170
14251764 30 18269541755483931667
14848178 5 18116718611283102790
15209294 21 8213848267965479054
15342816 4 18272103698679238378
16945 1 18197510729353814185
17349148 13 17274833497181497424
1813 80 17604141549968114177
18186145 218 14333128627877907112
193927 3 18113614581944930975
19862831 5 17846779636891333960
200 152 18060415859086888920
20775438 99 17619646686997831275
20775530 9 17897998273058951726
21475661 188 10375870783710550151
21713013 43 18130516262255739711
21731228 192 7204770393099920685
22393880 68 18060145366051468966
231179 274 11959735983682156822
23227448 37 11167352025583142215
23379529 103 18339640023642481387
23382010 3 16702308927427312865
23503958 8 17969216901264579666
23557571 272 18339941349656880272
23559900 14 18261685877809620096
238 59 17487610836426315668
25 1 15482387668064249304
27216 239 9511163154132748117
2748010 2 16766455337513623801
2838139 119 14476964493088146262
3082319 5 17418099831730421025
3472631 163 11600006535704467179
4028521 119 13901906717399952103
46194498 28 17845095056713866079
463206 1 18409452445032988287
474 4 10663837264518450943
495365 180 9942713789050313577
5262128 65 18271795839539196988
6669772 16 17683523936500913652
7064713 232 6843918386445905427
7097593 13 5112012728748484676
7808743 9 10375572811816878406
7970288 3 18334010562662916551
90316 7 14129053695517474563

> <PUBCHEM_SHAPE_MULTIPOLES>
423.4
8.8
2.54
1.67
0.5
0.62
0.21
8.43
-3.32
0.92
-0.53
-0.72
-0.07
0.33

> <PUBCHEM_SHAPE_SELFOVERLAP>
947.818

> <PUBCHEM_SHAPE_VOLUME>
223.9

> <PUBCHEM_COORDINATE_TYPE>
2
5
10

$$$$

