2477
  -OEChem-07051212522D

 59 62  0     0  0  0  0  0  0999 V2000
   11.0000    1.2990    0.0000 O   0  0  0  0  0  0  0  0  0  0  0  0
   11.0000   -2.1651    0.0000 O   0  0  0  0  0  0  0  0  0  0  0  0
   11.0000   -0.4330    0.0000 N   0  0  0  0  0  0  0  0  0  0  0  0
    7.0000    1.2990    0.0000 N   0  0  0  0  0  0  0  0  0  0  0  0
    5.0000    1.2990    0.0000 N   0  0  0  0  0  0  0  0  0  0  0  0
    3.5000    0.4330    0.0000 N   0  0  0  0  0  0  0  0  0  0  0  0
    3.5000    2.1651    0.0000 N   0  0  0  0  0  0  0  0  0  0  0  0
   13.0000   -0.4330    0.0000 C   0  0  0  0  0  0  0  0  0  0  0  0
   13.5878    0.3760    0.0000 C   0  0  0  0  0  0  0  0  0  0  0  0
   13.5878   -1.2420    0.0000 C   0  0  0  0  0  0  0  0  0  0  0  0
   14.5388    0.0670    0.0000 C   0  0  0  0  0  0  0  0  0  0  0  0
   14.5388   -0.9330    0.0000 C   0  0  0  0  0  0  0  0  0  0  0  0
   12.5000    0.4330    0.0000 C   0  0  0  0  0  0  0  0  0  0  0  0
   12.5000   -1.2990    0.0000 C   0  0  0  0  0  0  0  0  0  0  0  0
   11.5000    0.4330    0.0000 C   0  0  0  0  0  0  0  0  0  0  0  0
   11.5000   -1.2990    0.0000 C   0  0  0  0  0  0  0  0  0  0  0  0
   10.0000   -0.4330    0.0000 C   0  0  0  0  0  0  0  0  0  0  0  0
    9.5000    0.4330    0.0000 C   0  0  0  0  0  0  0  0  0  0  0  0
    8.5000    0.4330    0.0000 C   0  0  0  0  0  0  0  0  0  0  0  0
    8.0000    1.2990    0.0000 C   0  0  0  0  0  0  0  0  0  0  0  0
    6.5000    2.1651    0.0000 C   0  0  0  0  0  0  0  0  0  0  0  0
    6.5000    0.4330    0.0000 C   0  0  0  0  0  0  0  0  0  0  0  0
    5.5000    2.1651    0.0000 C   0  0  0  0  0  0  0  0  0  0  0  0
    5.5000    0.4330    0.0000 C   0  0  0  0  0  0  0  0  0  0  0  0
    4.0000    1.2990    0.0000 C   0  0  0  0  0  0  0  0  0  0  0  0
    2.5000    0.4330    0.0000 C   0  0  0  0  0  0  0  0  0  0  0  0
    2.5000    2.1651    0.0000 C   0  0  0  0  0  0  0  0  0  0  0  0
    2.0000    1.2990    0.0000 C   0  0  0  0  0  0  0  0  0  0  0  0
   13.8400    0.9424    0.0000 H   0  0  0  0  0  0  0  0  0  0  0  0
   13.0508    0.6860    0.0000 H   0  0  0  0  0  0  0  0  0  0  0  0
   13.0508   -1.5520    0.0000 H   0  0  0  0  0  0  0  0  0  0  0  0
   13.8400   -1.8084    0.0000 H   0  0  0  0  0  0  0  0  0  0  0  0
   14.6677   -1.5395    0.0000 H   0  0  0  0  0  0  0  0  0  0  0  0
   15.1554    0.0022    0.0000 H   0  0  0  0  0  0  0  0  0  0  0  0
   14.6677    0.6734    0.0000 H   0  0  0  0  0  0  0  0  0  0  0  0
   15.1554   -0.8682    0.0000 H   0  0  0  0  0  0  0  0  0  0  0  0
   12.3923   -1.9096    0.0000 H   0  0  0  0  0  0  0  0  0  0  0  0
   13.0826   -1.5111    0.0000 H   0  0  0  0  0  0  0  0  0  0  0  0
   13.0826    0.6451    0.0000 H   0  0  0  0  0  0  0  0  0  0  0  0
   12.3923    1.0436    0.0000 H   0  0  0  0  0  0  0  0  0  0  0  0
    9.4174   -0.6451    0.0000 H   0  0  0  0  0  0  0  0  0  0  0  0
   10.1077   -1.0436    0.0000 H   0  0  0  0  0  0  0  0  0  0  0  0
   10.0826    0.6451    0.0000 H   0  0  0  0  0  0  0  0  0  0  0  0
    9.3923    1.0436    0.0000 H   0  0  0  0  0  0  0  0  0  0  0  0
    7.9174    0.2210    0.0000 H   0  0  0  0  0  0  0  0  0  0  0  0
    8.6077   -0.1776    0.0000 H   0  0  0  0  0  0  0  0  0  0  0  0
    8.5826    1.5111    0.0000 H   0  0  0  0  0  0  0  0  0  0  0  0
    7.8923    1.9096    0.0000 H   0  0  0  0  0  0  0  0  0  0  0  0
    7.0826    2.3771    0.0000 H   0  0  0  0  0  0  0  0  0  0  0  0
    6.3923    2.7756    0.0000 H   0  0  0  0  0  0  0  0  0  0  0  0
    6.3923   -0.1776    0.0000 H   0  0  0  0  0  0  0  0  0  0  0  0
    7.0826    0.2210    0.0000 H   0  0  0  0  0  0  0  0  0  0  0  0
    4.9174    0.2210    0.0000 H   0  0  0  0  0  0  0  0  0  0  0  0
    5.6077   -0.1776    0.0000 H   0  0  0  0  0  0  0  0  0  0  0  0
    5.6077    2.7756    0.0000 H   0  0  0  0  0  0  0  0  0  0  0  0
    4.9174    2.3771    0.0000 H   0  0  0  0  0  0  0  0  0  0  0  0
    2.1900   -0.1039    0.0000 H   0  0  0  0  0  0  0  0  0  0  0  0
    2.1900    2.7020    0.0000 H   0  0  0  0  0  0  0  0  0  0  0  0
    1.3800    1.2990    0.0000 H   0  0  0  0  0  0  0  0  0  0  0  0
  1 15  2  0  0  0  0
  2 16  2  0  0  0  0
  3 15  1  0  0  0  0
  3 16  1  0  0  0  0
  3 17  1  0  0  0  0
  4 20  1  0  0  0  0
  4 21  1  0  0  0  0
  4 22  1  0  0  0  0
  5 23  1  0  0  0  0
  5 24  1  0  0  0  0
  5 25  1  0  0  0  0
  6 25  2  0  0  0  0
  6 26  1  0  0  0  0
  7 25  1  0  0  0  0
  7 27  2  0  0  0  0
  8  9  1  0  0  0  0
  8 10  1  0  0  0  0
  8 13  1  0  0  0  0
  8 14  1  0  0  0  0
  9 11  1  0  0  0  0
  9 29  1  0  0  0  0
  9 30  1  0  0  0  0
 10 12  1  0  0  0  0
 10 31  1  0  0  0  0
 10 32  1  0  0  0  0
 11 12  1  0  0  0  0
 11 34  1  0  0  0  0
 11 35  1  0  0  0  0
 12 33  1  0  0  0  0
 12 36  1  0  0  0  0
 13 15  1  0  0  0  0
 13 39  1  0  0  0  0
 13 40  1  0  0  0  0
 14 16  1  0  0  0  0
 14 37  1  0  0  0  0
 14 38  1  0  0  0  0
 17 18  1  0  0  0  0
 17 41  1  0  0  0  0
 17 42  1  0  0  0  0
 18 19  1  0  0  0  0
 18 43  1  0  0  0  0
 18 44  1  0  0  0  0
 19 20  1  0  0  0  0
 19 45  1  0  0  0  0
 19 46  1  0  0  0  0
 20 47  1  0  0  0  0
 20 48  1  0  0  0  0
 21 23  1  0  0  0  0
 21 49  1  0  0  0  0
 21 50  1  0  0  0  0
 22 24  1  0  0  0  0
 22 51  1  0  0  0  0
 22 52  1  0  0  0  0
 23 55  1  0  0  0  0
 23 56  1  0  0  0  0
 24 53  1  0  0  0  0
 24 54  1  0  0  0  0
 26 28  2  0  0  0  0
 26 57  1  0  0  0  0
 27 28  1  0  0  0  0
 27 58  1  0  0  0  0
 28 59  1  0  0  0  0
M  END
> <PUBCHEM_COMPOUND_CID>
2477

> <PUBCHEM_COMPOUND_CANONICALIZED>
1

> <PUBCHEM_CACTVS_COMPLEXITY>
529

> <PUBCHEM_CACTVS_HBOND_ACCEPTOR>
6

> <PUBCHEM_CACTVS_HBOND_DONOR>
0

> <PUBCHEM_CACTVS_ROTATABLE_BOND>
6

> <PUBCHEM_CACTVS_SUBSKEYS>
AAADceB7sAAAAAAAAAAAAAAAAAAAAYAAAAAsWLAAAAAAAAABgAAAHgAAAAAADgDBkgQ9kJcIEACoADF3dACAgCkRAqAJUCE4ZBCASJJAyUAUBAgIBiLAACEYiwCPAAAAAAAAAAAAAAAAAAAAAAAAAAAAAA==

> <PUBCHEM_IUPAC_OPENEYE_NAME>
8-[4-(4-pyrimidin-2-ylpiperazin-1-yl)butyl]-8-azaspiro[4.5]decane-7,9-dione

> <PUBCHEM_IUPAC_CAS_NAME>
8-[4-[4-(2-pyrimidinyl)-1-piperazinyl]butyl]-8-azaspiro[4.5]decane-7,9-dione

> <PUBCHEM_IUPAC_NAME>
8-[4-(4-pyrimidin-2-ylpiperazin-1-yl)butyl]-8-azaspiro[4.5]decane-7,9-dione

> <PUBCHEM_IUPAC_SYSTEMATIC_NAME>
8-[4-(4-pyrimidin-2-ylpiperazin-1-yl)butyl]-8-azaspiro[4.5]decane-7,9-dione

> <PUBCHEM_IUPAC_TRADITIONAL_NAME>
8-[4-[4-(2-pyrimidyl)piperazino]butyl]-8-azaspiro[4.5]decane-7,9-quinone

> <PUBCHEM_IUPAC_INCHI>
InChI=1S/C21H31N5O2/c27-18-16-21(6-1-2-7-21)17-19(28)26(18)11-4-3-10-24-12-14-25(15-13-24)20-22-8-5-9-23-20/h5,8-9H,1-4,6-7,10-17H2

> <PUBCHEM_IUPAC_INCHIKEY>
QWCRAEMEVRGPNT-UHFFFAOYSA-N

> <PUBCHEM_XLOGP3>
2.6

> <PUBCHEM_EXACT_MASS>
385.247775

> <PUBCHEM_MOLECULAR_FORMULA>
C21H31N5O2

> <PUBCHEM_MOLECULAR_WEIGHT>
385.50314

> <PUBCHEM_OPENEYE_CAN_SMILES>
C1CCC2(C1)CC(=O)N(C(=O)C2)CCCCN3CCN(CC3)C4=NC=CC=N4

> <PUBCHEM_OPENEYE_ISO_SMILES>
C1CCC2(C1)CC(=O)N(C(=O)C2)CCCCN3CCN(CC3)C4=NC=CC=N4

> <PUBCHEM_CACTVS_TPSA>
69.6

> <PUBCHEM_MONOISOTOPIC_WEIGHT>
385.247775

> <PUBCHEM_TOTAL_CHARGE>
0

> <PUBCHEM_HEAVY_ATOM_COUNT>
28

> <PUBCHEM_ATOM_DEF_STEREO_COUNT>
0

> <PUBCHEM_ATOM_UDEF_STEREO_COUNT>
0

> <PUBCHEM_BOND_DEF_STEREO_COUNT>
0

> <PUBCHEM_BOND_UDEF_STEREO_COUNT>
0

> <PUBCHEM_ISOTOPIC_ATOM_COUNT>
0

> <PUBCHEM_COMPONENT_COUNT>
1

> <PUBCHEM_CACTVS_TAUTO_COUNT>
3

> <PUBCHEM_COORDINATE_TYPE>
1
5
255

> <PUBCHEM_BONDANNOTATIONS>
26  28  8
27  28  8
6  25  8
6  26  8
7  25  8
7  27  8

$$$$

