5357444
  -OEChem-07051213063D

 41 43  0     0  0  0  0  0  0999 V2000
   -1.8290    2.0307   -0.3332 O   0  0  0  0  0  0  0  0  0  0  0  0
    0.2702    2.8680   -0.5886 O   0  0  0  0  0  0  0  0  0  0  0  0
   -6.2728    0.3911    0.1730 O   0  0  0  0  0  0  0  0  0  0  0  0
    5.6925    0.0177   -0.1041 O   0  0  0  0  0  0  0  0  0  0  0  0
   -0.6799   -0.5063    0.2014 C   0  0  0  0  0  0  0  0  0  0  0  0
   -0.1565   -1.8918    0.5004 C   0  0  0  0  0  0  0  0  0  0  0  0
   -2.1463   -0.3229    0.2054 C   0  0  0  0  0  0  0  0  0  0  0  0
    0.1136    0.5555   -0.0621 C   0  0  0  0  0  0  0  0  0  0  0  0
   -0.0091   -2.7105   -0.7724 C   0  0  0  0  0  0  0  0  0  0  0  0
   -2.6693    0.9395   -0.0620 C   0  0  0  0  0  0  0  0  0  0  0  0
    1.5680    0.4158   -0.0734 C   0  0  0  0  0  0  0  0  0  0  0  0
   -0.4508    1.9042   -0.3483 C   0  0  0  0  0  0  0  0  0  0  0  0
   -3.0634   -1.3535    0.4651 C   0  0  0  0  0  0  0  0  0  0  0  0
    0.5386   -4.0951   -0.4622 C   0  0  0  0  0  0  0  0  0  0  0  0
   -4.0428    1.1967   -0.0774 C   0  0  0  0  0  0  0  0  0  0  0  0
    2.2210    0.0834   -1.2563 C   0  0  0  0  0  0  0  0  0  0  0  0
    2.2899    0.6155    1.0993 C   0  0  0  0  0  0  0  0  0  0  0  0
   -4.4430   -1.1138    0.4540 C   0  0  0  0  0  0  0  0  0  0  0  0
   -4.9323    0.1610    0.1830 C   0  0  0  0  0  0  0  0  0  0  0  0
    3.6094   -0.0505   -1.2665 C   0  0  0  0  0  0  0  0  0  0  0  0
    3.6783    0.4817    1.0890 C   0  0  0  0  0  0  0  0  0  0  0  0
    4.3381    0.1486   -0.0938 C   0  0  0  0  0  0  0  0  0  0  0  0
    6.3755    0.2350    1.1297 C   0  0  0  0  0  0  0  0  0  0  0  0
    0.8226   -1.8320    0.9919 H   0  0  0  0  0  0  0  0  0  0  0  0
   -0.7667   -2.4130    1.2455 H   0  0  0  0  0  0  0  0  0  0  0  0
   -0.9794   -2.8214   -1.2710 H   0  0  0  0  0  0  0  0  0  0  0  0
    0.6584   -2.2230   -1.4889 H   0  0  0  0  0  0  0  0  0  0  0  0
   -2.7488   -2.3725    0.6677 H   0  0  0  0  0  0  0  0  0  0  0  0
   -0.1261   -4.6380    0.2173 H   0  0  0  0  0  0  0  0  0  0  0  0
    1.5285   -4.0315    0.0010 H   0  0  0  0  0  0  0  0  0  0  0  0
    0.6325   -4.6798   -1.3827 H   0  0  0  0  0  0  0  0  0  0  0  0
   -4.4120    2.1961   -0.2904 H   0  0  0  0  0  0  0  0  0  0  0  0
    1.6683   -0.0672   -2.1803 H   0  0  0  0  0  0  0  0  0  0  0  0
    1.7883    0.8756    2.0283 H   0  0  0  0  0  0  0  0  0  0  0  0
   -5.1238   -1.9368    0.6563 H   0  0  0  0  0  0  0  0  0  0  0  0
    4.1179   -0.3086   -2.1914 H   0  0  0  0  0  0  0  0  0  0  0  0
    4.1820    0.6501    2.0347 H   0  0  0  0  0  0  0  0  0  0  0  0
   -6.7367   -0.4399    0.3742 H   0  0  0  0  0  0  0  0  0  0  0  0
    7.4437    0.0898    0.9378 H   0  0  0  0  0  0  0  0  0  0  0  0
    6.0836   -0.5012    1.8863 H   0  0  0  0  0  0  0  0  0  0  0  0
    6.2512    1.2645    1.4825 H   0  0  0  0  0  0  0  0  0  0  0  0
  1 10  1  0  0  0  0
  1 12  1  0  0  0  0
  2 12  2  0  0  0  0
  3 19  1  0  0  0  0
  3 38  1  0  0  0  0
  4 22  1  0  0  0  0
  4 23  1  0  0  0  0
  5  6  1  0  0  0  0
  5  7  1  0  0  0  0
  5  8  2  0  0  0  0
  6  9  1  0  0  0  0
  6 24  1  0  0  0  0
  6 25  1  0  0  0  0
  7 10  2  0  0  0  0
  7 13  1  0  0  0  0
  8 11  1  0  0  0  0
  8 12  1  0  0  0  0
  9 14  1  0  0  0  0
  9 26  1  0  0  0  0
  9 27  1  0  0  0  0
 10 15  1  0  0  0  0
 11 16  2  0  0  0  0
 11 17  1  0  0  0  0
 13 18  2  0  0  0  0
 13 28  1  0  0  0  0
 14 29  1  0  0  0  0
 14 30  1  0  0  0  0
 14 31  1  0  0  0  0
 15 19  2  0  0  0  0
 15 32  1  0  0  0  0
 16 20  1  0  0  0  0
 16 33  1  0  0  0  0
 17 21  2  0  0  0  0
 17 34  1  0  0  0  0
 18 19  1  0  0  0  0
 18 35  1  0  0  0  0
 20 22  2  0  0  0  0
 20 36  1  0  0  0  0
 21 22  1  0  0  0  0
 21 37  1  0  0  0  0
 23 39  1  0  0  0  0
 23 40  1  0  0  0  0
 23 41  1  0  0  0  0
M  END
> <PUBCHEM_COMPOUND_CID>
5357444

> <PUBCHEM_CONFORMER_RMSD>
0.6

> <PUBCHEM_CONFORMER_DIVERSEORDER>
1
4
3
2

> <PUBCHEM_MMFF94_PARTIAL_CHARGES>
29
1 -0.23
10 0.08
11 0.03
12 0.71
13 -0.15
15 -0.15
16 -0.15
17 -0.15
18 -0.15
19 0.08
2 -0.57
20 -0.15
21 -0.15
22 0.08
23 0.28
28 0.15
3 -0.53
32 0.15
33 0.15
34 0.15
35 0.15
36 0.15
37 0.15
38 0.45
4 -0.36
5 -0.17
6 0.14
7 0.03
8 -0.01

> <PUBCHEM_EFFECTIVE_ROTOR_COUNT>
4

> <PUBCHEM_PHARMACOPHORE_FEATURES>
7
1 14 hydrophobe
1 2 acceptor
1 3 donor
1 4 acceptor
6 1 5 7 8 10 12 rings
6 11 16 17 20 21 22 rings
6 7 10 13 15 18 19 rings

> <PUBCHEM_HEAVY_ATOM_COUNT>
23

> <PUBCHEM_ATOM_DEF_STEREO_COUNT>
0

> <PUBCHEM_ATOM_UDEF_STEREO_COUNT>
0

> <PUBCHEM_BOND_DEF_STEREO_COUNT>
0

> <PUBCHEM_BOND_UDEF_STEREO_COUNT>
0

> <PUBCHEM_ISOTOPIC_ATOM_COUNT>
0

> <PUBCHEM_COMPONENT_COUNT>
1

> <PUBCHEM_CACTVS_TAUTO_COUNT>
3

> <PUBCHEM_CONFORMER_ID>
0051BF8400000001

> <PUBCHEM_MMFF94_ENERGY>
81.921

> <PUBCHEM_FEATURE_SELFOVERLAP>
35.546

> <PUBCHEM_SHAPE_FINGERPRINT>
10 15 18262530208857068488
10906281 52 18200855362716871473
11646440 116 18261661615734394785
11963148 33 18272090449196838603
12035758 1 18261110729958765098
12236239 1 17418374697011088296
12633257 1 18114475461569702274
12838862 33 18339096946866150981
12839892 36 18340218495449156442
13140716 1 18268142064238270329
13402501 40 18334852835956156134
13544592 145 18113606894465050806
13862211 1 18342177735223102331
14178342 30 18337098085902679369
14790565 3 18339634560106379957
14863182 85 18341599456494706063
15042514 8 18268427936581451691
1601671 61 18342455954535442277
16728300 4 17629506308500954738
16945 1 18412538826048671605
1813 80 16630247021864692302
18681886 176 18340771437949222033
19141452 34 18040715827521131935
19784866 170 18411698816197045107
200 152 15913332398754212044
20028762 73 18115585916753984911
20600515 1 18335413522462000932
20905425 154 18121493824029907495
21033648 29 18114476581897206048
21267235 1 18271800195247601049
22182313 1 18127972125825290141
22224240 67 18187652388177141387
22956985 138 17771070689334780218
23366157 5 17842266257608067426
23402539 116 18335426737764738150
23559900 14 18335690668559544286
2748010 2 17982732180224920277
3004659 81 17988633095880115764
335352 9 18342739598982360173
34934 24 18339083787160007695
4072396 5 18272097114541748635
4340502 62 18260551139060386278
43471831 8 18341048626580388490
465052 167 17774710975260631331
474229 33 18411982463841722983
5104073 3 18267857471030725419
5265222 85 18337664210680750078
5385378 56 18263636419979899595
6138700 20 18339356470070144798
6669772 16 17894909663803704134
7364860 26 18191305090285396319

> <PUBCHEM_SHAPE_MULTIPOLES>
449.85
11.35
2.76
1.01
3.03
2.68
0.02
-2.2
-2.61
-0.77
0.68
1
0.01
0.53

> <PUBCHEM_SHAPE_SELFOVERLAP>
980.042

> <PUBCHEM_SHAPE_VOLUME>
245.3

> <PUBCHEM_COORDINATE_TYPE>
2
5
10

$$$$

