439428
  -OEChem-07051212453D

 21 22  0     0  0  0  0  0  0999 V2000
   -0.2852    2.6318    0.0003 O   0  0  0  0  0  0  0  0  0  0  0  0
    2.2170    1.8828   -0.0010 O   0  0  0  0  0  0  0  0  0  0  0  0
   -3.6796   -0.6679   -0.0008 O   0  0  0  0  0  0  0  0  0  0  0  0
    0.3777    0.2933    0.0002 C   0  0  0  0  0  0  0  0  0  0  0  0
   -0.0282   -1.0625    0.0001 C   0  0  0  0  0  0  0  0  0  0  0  0
   -0.5990    1.3026    0.0003 C   0  0  0  0  0  0  0  0  0  0  0  0
    1.7482    0.5999    0.0002 C   0  0  0  0  0  0  0  0  0  0  0  0
   -1.3986   -1.3692    0.0001 C   0  0  0  0  0  0  0  0  0  0  0  0
    0.9485   -2.0718    0.0000 C   0  0  0  0  0  0  0  0  0  0  0  0
   -2.3552   -0.3538    0.0002 C   0  0  0  0  0  0  0  0  0  0  0  0
   -1.9562    0.9795    0.0003 C   0  0  0  0  0  0  0  0  0  0  0  0
    2.7048   -0.4157    0.0001 C   0  0  0  0  0  0  0  0  0  0  0  0
    2.3058   -1.7489    0.0000 C   0  0  0  0  0  0  0  0  0  0  0  0
   -1.7273   -2.4069   -0.0001 H   0  0  0  0  0  0  0  0  0  0  0  0
    0.6595   -3.1208   -0.0001 H   0  0  0  0  0  0  0  0  0  0  0  0
   -2.6991    1.7736    0.0001 H   0  0  0  0  0  0  0  0  0  0  0  0
    3.7669   -0.1845   -0.0002 H   0  0  0  0  0  0  0  0  0  0  0  0
    3.0509   -2.5392   -0.0002 H   0  0  0  0  0  0  0  0  0  0  0  0
    0.6749    2.7607    0.0017 H   0  0  0  0  0  0  0  0  0  0  0  0
    3.1894    1.8762   -0.0010 H   0  0  0  0  0  0  0  0  0  0  0  0
   -4.1991    0.1545   -0.0009 H   0  0  0  0  0  0  0  0  0  0  0  0
  1  6  1  0  0  0  0
  1 19  1  0  0  0  0
  2  7  1  0  0  0  0
  2 20  1  0  0  0  0
  3 10  1  0  0  0  0
  3 21  1  0  0  0  0
  4  5  1  0  0  0  0
  4  6  2  0  0  0  0
  4  7  1  0  0  0  0
  5  8  2  0  0  0  0
  5  9  1  0  0  0  0
  6 11  1  0  0  0  0
  7 12  2  0  0  0  0
  8 10  1  0  0  0  0
  8 14  1  0  0  0  0
  9 13  2  0  0  0  0
  9 15  1  0  0  0  0
 10 11  2  0  0  0  0
 11 16  1  0  0  0  0
 12 13  1  0  0  0  0
 12 17  1  0  0  0  0
 13 18  1  0  0  0  0
M  END
> <PUBCHEM_COMPOUND_CID>
439428

> <PUBCHEM_CONFORMER_RMSD>
0.4

> <PUBCHEM_CONFORMER_DIVERSEORDER>
1

> <PUBCHEM_MMFF94_PARTIAL_CHARGES>
19
1 -0.53
10 0.08
11 -0.15
12 -0.15
13 -0.15
14 0.15
15 0.15
16 0.15
17 0.15
18 0.15
19 0.45
2 -0.53
20 0.45
21 0.45
3 -0.53
6 0.08
7 0.08
8 -0.15
9 -0.15

> <PUBCHEM_EFFECTIVE_ROTOR_COUNT>
0

> <PUBCHEM_PHARMACOPHORE_FEATURES>
5
1 1 donor
1 2 donor
1 3 donor
6 4 5 6 8 10 11 rings
6 4 5 7 9 12 13 rings

> <PUBCHEM_HEAVY_ATOM_COUNT>
13

> <PUBCHEM_ATOM_DEF_STEREO_COUNT>
0

> <PUBCHEM_ATOM_UDEF_STEREO_COUNT>
0

> <PUBCHEM_BOND_DEF_STEREO_COUNT>
0

> <PUBCHEM_BOND_UDEF_STEREO_COUNT>
0

> <PUBCHEM_ISOTOPIC_ATOM_COUNT>
0

> <PUBCHEM_COMPONENT_COUNT>
1

> <PUBCHEM_CACTVS_TAUTO_COUNT>
41

> <PUBCHEM_CONFORMER_ID>
0006B48400000001

> <PUBCHEM_MMFF94_ENERGY>
39.4775

> <PUBCHEM_FEATURE_SELFOVERLAP>
25.409

> <PUBCHEM_SHAPE_FINGERPRINT>
10967382 1 18338797805966011942
11206711 2 18268424822713662550
11471102 20 18411142407489345663
12032990 46 18411411821918703907
12524768 44 18410854347747631787
13380535 76 18267306435089794066
13897977 150 18267024951306760477
161256 15 18409729581875516788
16945 1 18338516464233670150
17844478 74 18060128860734704315
17990270 104 18337953518654499826
193761 8 18122626320927063780
19973954 147 18266177416683182134
20201158 50 18413390946937848779
20588541 1 18270116795162856259
20645477 70 18408890629303939143
21501502 16 18338793549690331928
22802520 49 17320977976805708702
2334 1 18338797801681581154
23463225 33 18411982472436873843
23552423 10 18342735260231850174
23559900 14 17181091554123359942
241688 4 18267865166952755792
2748010 2 18338798914099203454
5084963 1 18187366583609795234
528886 8 18337676299916325266
53812653 166 18118123563176834008
66348 1 18410290281223896410
7364860 26 18334012779160413516

> <PUBCHEM_SHAPE_MULTIPOLES>
249.93
4.03
2.35
0.59
1.25
0.77
0
-0.94
0
-0.5
0
-0.02
-0.03
0

> <PUBCHEM_SHAPE_SELFOVERLAP>
555.479

> <PUBCHEM_SHAPE_VOLUME>
133.8

> <PUBCHEM_COORDINATE_TYPE>
2
5
10

$$$$

