200480
  -OEChem-07051212572D

 44 47  0     1  0  0  0  0  0999 V2000
    4.0543   -0.7427    0.0000 O   0  0  0  0  0  0  0  0  0  0  0  0
    2.6720    0.7689    0.0000 O   0  0  0  0  0  0  0  0  0  0  0  0
    6.1767   -3.1437    0.0000 O   0  0  0  0  0  0  0  0  0  0  0  0
    7.0573    2.3280    0.0000 N   0  0  3  0  0  0  0  0  0  0  0  0
    6.6767    1.3952    0.0000 C   0  0  2  0  0  0  0  0  0  0  0  0
    6.1767   -0.1437    0.0000 C   0  0  0  0  0  0  0  0  0  0  0  0
    6.9857    0.4441    0.0000 C   0  0  0  0  0  0  0  0  0  0  0  0
    5.6767    1.3952    0.0000 C   0  0  0  0  0  0  0  0  0  0  0  0
    5.3677    0.4441    0.0000 C   0  0  0  0  0  0  0  0  0  0  0  0
    4.9917    2.1799    0.0000 C   0  0  0  0  0  0  0  0  0  0  0  0
    6.4658    3.1437    0.0000 C   0  0  0  0  0  0  0  0  0  0  0  0
    5.4608    3.0716    0.0000 C   0  0  0  0  0  0  0  0  0  0  0  0
    7.0427   -0.6437    0.0000 C   0  0  0  0  0  0  0  0  0  0  0  0
    5.3107   -0.6437    0.0000 C   0  0  0  0  0  0  0  0  0  0  0  0
    4.3523    0.2119    0.0000 C   0  0  0  0  0  0  0  0  0  0  0  0
    3.9712    1.9712    0.0000 C   0  0  0  0  0  0  0  0  0  0  0  0
    8.0502    2.4478    0.0000 C   0  0  0  0  0  0  0  0  0  0  0  0
    3.6493    0.9805    0.0000 C   0  0  0  0  0  0  0  0  0  0  0  0
    7.0427   -1.6437    0.0000 C   0  0  0  0  0  0  0  0  0  0  0  0
    5.3107   -1.6437    0.0000 C   0  0  0  0  0  0  0  0  0  0  0  0
    6.1767   -2.1437    0.0000 C   0  0  0  0  0  0  0  0  0  0  0  0
    3.0786   -0.9619    0.0000 C   0  0  0  0  0  0  0  0  0  0  0  0
    2.0000    1.5094    0.0000 C   0  0  0  0  0  0  0  0  0  0  0  0
    7.5261    1.3640    0.0000 H   0  0  0  0  0  0  0  0  0  0  0  0
    7.2957   -0.0928    0.0000 H   0  0  0  0  0  0  0  0  0  0  0  0
    7.5521    0.6963    0.0000 H   0  0  0  0  0  0  0  0  0  0  0  0
    7.0262    3.4090    0.0000 H   0  0  0  0  0  0  0  0  0  0  0  0
    6.3083    3.7433    0.0000 H   0  0  0  0  0  0  0  0  0  0  0  0
    5.5312    3.6876    0.0000 H   0  0  0  0  0  0  0  0  0  0  0  0
    4.8683    3.2542    0.0000 H   0  0  0  0  0  0  0  0  0  0  0  0
    7.5796   -0.3337    0.0000 H   0  0  0  0  0  0  0  0  0  0  0  0
    4.7737   -0.3337    0.0000 H   0  0  0  0  0  0  0  0  0  0  0  0
    3.5581    2.4335    0.0000 H   0  0  0  0  0  0  0  0  0  0  0  0
    8.1244    1.8323    0.0000 H   0  0  0  0  0  0  0  0  0  0  0  0
    8.6657    2.5220    0.0000 H   0  0  0  0  0  0  0  0  0  0  0  0
    7.9759    3.0633    0.0000 H   0  0  0  0  0  0  0  0  0  0  0  0
    7.5796   -1.9537    0.0000 H   0  0  0  0  0  0  0  0  0  0  0  0
    4.7737   -1.9537    0.0000 H   0  0  0  0  0  0  0  0  0  0  0  0
    2.9427   -0.3570    0.0000 H   0  0  0  0  0  0  0  0  0  0  0  0
    2.4737   -1.0978    0.0000 H   0  0  0  0  0  0  0  0  0  0  0  0
    3.2145   -1.5668    0.0000 H   0  0  0  0  0  0  0  0  0  0  0  0
    2.4592    1.9261    0.0000 H   0  0  0  0  0  0  0  0  0  0  0  0
    1.5834    1.9686    0.0000 H   0  0  0  0  0  0  0  0  0  0  0  0
    1.5408    1.0928    0.0000 H   0  0  0  0  0  0  0  0  0  0  0  0
  1 15  1  0  0  0  0
  1 22  1  0  0  0  0
  2 18  1  0  0  0  0
  2 23  1  0  0  0  0
  3 21  2  0  0  0  0
  4  5  1  0  0  0  0
  4 11  1  0  0  0  0
  4 17  1  0  0  0  0
  5  7  1  0  0  0  0
  5  8  1  0  0  0  0
  5 24  1  1  0  0  0
  6  7  1  0  0  0  0
  6  9  1  0  0  0  0
  6 13  1  0  0  0  0
  6 14  1  0  0  0  0
  7 25  1  0  0  0  0
  7 26  1  0  0  0  0
  8  9  2  0  0  0  0
  8 10  1  0  0  0  0
  9 15  1  0  0  0  0
 10 12  1  0  0  0  0
 10 16  2  0  0  0  0
 11 12  1  0  0  0  0
 11 27  1  0  0  0  0
 11 28  1  0  0  0  0
 12 29  1  0  0  0  0
 12 30  1  0  0  0  0
 13 19  2  0  0  0  0
 13 31  1  0  0  0  0
 14 20  2  0  0  0  0
 14 32  1  0  0  0  0
 15 18  2  0  0  0  0
 16 18  1  0  0  0  0
 16 33  1  0  0  0  0
 17 34  1  0  0  0  0
 17 35  1  0  0  0  0
 17 36  1  0  0  0  0
 19 21  1  0  0  0  0
 19 37  1  0  0  0  0
 20 21  1  0  0  0  0
 20 38  1  0  0  0  0
 22 39  1  0  0  0  0
 22 40  1  0  0  0  0
 22 41  1  0  0  0  0
 23 42  1  0  0  0  0
 23 43  1  0  0  0  0
 23 44  1  0  0  0  0
M  END
> <PUBCHEM_COMPOUND_CID>
200480

> <PUBCHEM_COMPOUND_CANONICALIZED>
1

> <PUBCHEM_CACTVS_COMPLEXITY>
539

> <PUBCHEM_CACTVS_HBOND_ACCEPTOR>
4

> <PUBCHEM_CACTVS_HBOND_DONOR>
0

> <PUBCHEM_CACTVS_ROTATABLE_BOND>
2

> <PUBCHEM_CACTVS_SUBSKEYS>
AAADceB6MAAAAAAAAAAAAAAAAAAAAYAAAAA8QIAAAAAAAHixAAAAHgAAAAAADizBmAYyBoMABACIAqBSAACCCAAgIAAIiAAOjMgNJiKEsRuEMCpkwBGKqYew0PMPoAADAAAYQABAAAYAADCAASAACQAAAA==

> <PUBCHEM_IUPAC_INCHI>
InChI=1S/C19H21NO3/c1-20-9-6-12-10-15(22-2)18(23-3)17-16(12)14(20)11-19(17)7-4-13(21)5-8-19/h4-5,7-8,10,14H,6,9,11H2,1-3H3/t14-/m1/s1

> <PUBCHEM_IUPAC_INCHIKEY>
WUYQEGNOQLRQAQ-CQSZACIVSA-N

> <PUBCHEM_XLOGP3_AA>
2.5

> <PUBCHEM_EXACT_MASS>
311.152144

> <PUBCHEM_MOLECULAR_FORMULA>
C19H21NO3

> <PUBCHEM_MOLECULAR_WEIGHT>
311.37494

> <PUBCHEM_OPENEYE_CAN_SMILES>
CN1CCC2=CC(=C(C3=C2C1CC34C=CC(=O)C=C4)OC)OC

> <PUBCHEM_OPENEYE_ISO_SMILES>
CN1CCC2=CC(=C(C3=C2[C@H]1CC34C=CC(=O)C=C4)OC)OC

> <PUBCHEM_CACTVS_TPSA>
38.8

> <PUBCHEM_MONOISOTOPIC_WEIGHT>
311.152144

> <PUBCHEM_TOTAL_CHARGE>
0

> <PUBCHEM_HEAVY_ATOM_COUNT>
23

> <PUBCHEM_ATOM_DEF_STEREO_COUNT>
1

> <PUBCHEM_ATOM_UDEF_STEREO_COUNT>
0

> <PUBCHEM_BOND_DEF_STEREO_COUNT>
0

> <PUBCHEM_BOND_UDEF_STEREO_COUNT>
0

> <PUBCHEM_ISOTOPIC_ATOM_COUNT>
0

> <PUBCHEM_COMPONENT_COUNT>
1

> <PUBCHEM_CACTVS_TAUTO_COUNT>
1

> <PUBCHEM_COORDINATE_TYPE>
1
5
255

> <PUBCHEM_BONDANNOTATIONS>
10  16  8
15  18  8
16  18  8
5  24  5
8  10  8
8  9  8
9  15  8

$$$$

