439443
  -OEChem-07051212453D

 58 60  0     1  0  0  0  0  0999 V2000
    0.5506    3.5663   -0.8203 P   0  0  2  0  0  0  0  0  0  0  0  0
    2.6770    1.6388   -1.4684 P   0  0  1  0  0  0  0  0  0  0  0  0
   -3.1573    1.5922    0.1888 O   0  0  0  0  0  0  0  0  0  0  0  0
   -3.9756    1.7087    3.0709 O   0  0  0  0  0  0  0  0  0  0  0  0
   -3.4413   -0.9414    2.7107 O   0  0  0  0  0  0  0  0  0  0  0  0
   -0.9198    3.2421   -0.2288 O   0  0  0  0  0  0  0  0  0  0  0  0
    1.5465   -0.9637    0.7914 O   0  0  0  0  0  0  0  0  0  0  0  0
    2.8472    0.1603   -0.8427 O   0  0  0  0  0  0  0  0  0  0  0  0
    1.1877    2.0967   -1.0377 O   0  0  0  0  0  0  0  0  0  0  0  0
    4.9483    0.3649    0.9863 O   0  0  0  0  0  0  0  0  0  0  0  0
    5.3291   -2.4566    1.5143 O   0  0  0  0  0  0  0  0  0  0  0  0
   -4.8259   -2.1448   -0.0661 O   0  0  0  0  0  0  0  0  0  0  0  0
    3.1501   -4.0028    1.2251 O   0  0  0  0  0  0  0  0  0  0  0  0
    1.3676    4.1316    0.4564 O   0  0  0  0  0  0  0  0  0  0  0  0
    0.5841    4.4475   -2.0349 O   0  0  0  0  0  0  0  0  0  0  0  0
    3.6308    2.5778   -0.5595 O   0  0  0  0  0  0  0  0  0  0  0  0
    2.9457    1.7262   -2.9427 O   0  0  0  0  0  0  0  0  0  0  0  0
   -3.1090   -0.6535   -0.4587 N   0  0  0  0  0  0  0  0  0  0  0  0
   -3.3970   -2.6724   -1.7488 N   0  0  0  0  0  0  0  0  0  0  0  0
   -1.9284   -3.2081   -3.4706 N   0  0  0  0  0  0  0  0  0  0  0  0
   -2.7104    1.3687    2.5043 C   0  0  1  0  0  0  0  0  0  0  0  0
   -2.7657   -0.0129    1.8875 C   0  0  2  0  0  0  0  0  0  0  0  0
   -2.4890    2.2537    1.2853 C   0  0  1  0  0  0  0  0  0  0  0  0
   -3.4980    0.2532    0.5836 C   0  0  1  0  0  0  0  0  0  0  0  0
   -1.0201    2.4154    0.9176 C   0  0  0  0  0  0  0  0  0  0  0  0
    3.8920   -0.5592    1.2278 C   0  0  1  0  0  0  0  0  0  0  0  0
    2.6188   -0.0501    0.5491 C   0  0  2  0  0  0  0  0  0  0  0  0
    4.2809   -1.9411    0.7140 C   0  0  2  0  0  0  0  0  0  0  0  0
   -1.9923   -0.3503   -1.2225 C   0  0  0  0  0  0  0  0  0  0  0  0
    1.7695   -2.2649    0.2577 C   0  0  1  0  0  0  0  0  0  0  0  0
   -3.8300   -1.8445   -0.7271 C   0  0  0  0  0  0  0  0  0  0  0  0
    3.0683   -2.8502    0.8041 C   0  0  0  0  0  0  0  0  0  0  0  0
   -1.5592   -1.1336   -2.2083 C   0  0  0  0  0  0  0  0  0  0  0  0
    0.5666   -3.1221    0.6222 C   0  0  0  0  0  0  0  0  0  0  0  0
   -2.3420   -2.3717   -2.4598 C   0  0  0  0  0  0  0  0  0  0  0  0
   -1.9527    1.4664    3.2869 H   0  0  0  0  0  0  0  0  0  0  0  0
   -1.7474   -0.3817    1.7137 H   0  0  0  0  0  0  0  0  0  0  0  0
   -2.9573    3.2389    1.3901 H   0  0  0  0  0  0  0  0  0  0  0  0
   -4.5849    0.2040    0.7207 H   0  0  0  0  0  0  0  0  0  0  0  0
   -0.4993    2.8953    1.7519 H   0  0  0  0  0  0  0  0  0  0  0  0
   -0.5364    1.4556    0.7219 H   0  0  0  0  0  0  0  0  0  0  0  0
   -3.9043    2.6141    3.4187 H   0  0  0  0  0  0  0  0  0  0  0  0
   -3.5099   -1.7749    2.2147 H   0  0  0  0  0  0  0  0  0  0  0  0
    3.7379   -0.6125    2.3133 H   0  0  0  0  0  0  0  0  0  0  0  0
    2.3310    0.9003    1.0119 H   0  0  0  0  0  0  0  0  0  0  0  0
    4.6311   -1.9008   -0.3230 H   0  0  0  0  0  0  0  0  0  0  0  0
   -1.4482    0.5573   -1.0133 H   0  0  0  0  0  0  0  0  0  0  0  0
    1.8477   -2.2093   -0.8343 H   0  0  0  0  0  0  0  0  0  0  0  0
   -0.6875   -0.9039   -2.8065 H   0  0  0  0  0  0  0  0  0  0  0  0
    0.4686   -3.2160    1.7098 H   0  0  0  0  0  0  0  0  0  0  0  0
   -0.3595   -2.6642    0.2615 H   0  0  0  0  0  0  0  0  0  0  0  0
    0.6484   -4.1277    0.1981 H   0  0  0  0  0  0  0  0  0  0  0  0
    4.6654    1.2303    1.3277 H   0  0  0  0  0  0  0  0  0  0  0  0
    5.6028   -3.3055    1.1264 H   0  0  0  0  0  0  0  0  0  0  0  0
    1.4956    3.5603    1.2429 H   0  0  0  0  0  0  0  0  0  0  0  0
   -2.4321   -4.0640   -3.6769 H   0  0  0  0  0  0  0  0  0  0  0  0
   -1.1132   -3.0028   -4.0389 H   0  0  0  0  0  0  0  0  0  0  0  0
    3.7884    3.5048   -0.8385 H   0  0  0  0  0  0  0  0  0  0  0  0
  1  6  1  0  0  0  0
  1  9  1  0  0  0  0
  1 14  1  0  0  0  0
  1 15  2  0  0  0  0
  2  8  1  0  0  0  0
  2  9  1  0  0  0  0
  2 16  1  0  0  0  0
  2 17  2  0  0  0  0
  3 23  1  0  0  0  0
  3 24  1  0  0  0  0
  4 21  1  0  0  0  0
  4 42  1  0  0  0  0
  5 22  1  0  0  0  0
  5 43  1  0  0  0  0
  6 25  1  0  0  0  0
  7 27  1  0  0  0  0
  7 30  1  0  0  0  0
  8 27  1  0  0  0  0
 10 26  1  0  0  0  0
 10 53  1  0  0  0  0
 11 28  1  0  0  0  0
 11 54  1  0  0  0  0
 12 31  2  0  0  0  0
 13 32  2  0  0  0  0
 14 55  1  0  0  0  0
 16 58  1  0  0  0  0
 18 24  1  0  0  0  0
 18 29  1  0  0  0  0
 18 31  1  0  0  0  0
 19 31  1  0  0  0  0
 19 35  2  0  0  0  0
 20 35  1  0  0  0  0
 20 56  1  0  0  0  0
 20 57  1  0  0  0  0
 21 22  1  0  0  0  0
 21 23  1  0  0  0  0
 21 36  1  0  0  0  0
 22 24  1  0  0  0  0
 22 37  1  0  0  0  0
 23 25  1  0  0  0  0
 23 38  1  0  0  0  0
 24 39  1  0  0  0  0
 25 40  1  0  0  0  0
 25 41  1  0  0  0  0
 26 27  1  0  0  0  0
 26 28  1  0  0  0  0
 26 44  1  0  0  0  0
 27 45  1  0  0  0  0
 28 32  1  0  0  0  0
 28 46  1  0  0  0  0
 29 33  2  0  0  0  0
 29 47  1  0  0  0  0
 30 32  1  0  0  0  0
 30 34  1  0  0  0  0
 30 48  1  0  0  0  0
 33 35  1  0  0  0  0
 33 49  1  0  0  0  0
 34 50  1  0  0  0  0
 34 51  1  0  0  0  0
 34 52  1  0  0  0  0
M  END
> <PUBCHEM_COMPOUND_CID>
439443

> <PUBCHEM_CONFORMER_RMSD>
1.6

> <PUBCHEM_CONFORMER_DIVERSEORDER>
2
49
87
14
19
63
71
31
7
15
28
100
93
95
20
108
102
92
24
70
47
86
94
53
16
82
3
42
34
8
81
18
40
58
33
76
75
10
74
98
90
45
1
103
97
23
50
85
27
44
59
99
30
101
107
89
11
52
51
77
69
91
57
78
79
105
65
32
104
41
39
88
106
12
46
80
37
72
96
56
21
43
66
64
73
68
109
35
13
84
17
62
67
54
60
25
83
48
22
9
5
29
6
55
36
38
61
4
26

> <PUBCHEM_MMFF94_PARTIAL_CHARGES>
44
1 1.51
10 -0.68
11 -0.68
12 -0.57
13 -0.57
14 -0.77
15 -0.7
16 -0.77
17 -0.7
18 -0.47
19 -0.66
2 1.51
20 -0.85
21 0.28
22 0.28
23 0.28
24 0.58
25 0.28
26 0.28
27 0.56
28 0.34
29 -0.04
3 -0.56
30 0.34
31 0.84
32 0.45
33 -0.14
35 0.49
4 -0.68
42 0.4
43 0.4
47 0.15
49 0.15
5 -0.68
53 0.4
54 0.4
55 0.5
56 0.4
57 0.4
58 0.5
6 -0.55
7 -0.56
8 -0.55
9 -0.54

> <PUBCHEM_EFFECTIVE_ROTOR_COUNT>
10

> <PUBCHEM_PHARMACOPHORE_FEATURES>
21
1 10 acceptor
1 10 donor
1 11 acceptor
1 11 donor
1 12 acceptor
1 13 acceptor
1 14 acceptor
1 15 acceptor
1 16 acceptor
1 17 acceptor
1 19 donor
1 20 donor
1 3 acceptor
1 4 acceptor
1 4 donor
1 5 acceptor
1 5 donor
1 7 acceptor
5 3 21 22 23 24 rings
6 18 19 29 31 33 35 rings
6 7 26 27 28 30 32 rings

> <PUBCHEM_HEAVY_ATOM_COUNT>
35

> <PUBCHEM_ATOM_DEF_STEREO_COUNT>
8

> <PUBCHEM_ATOM_UDEF_STEREO_COUNT>
0

> <PUBCHEM_BOND_DEF_STEREO_COUNT>
0

> <PUBCHEM_BOND_UDEF_STEREO_COUNT>
0

> <PUBCHEM_ISOTOPIC_ATOM_COUNT>
0

> <PUBCHEM_COMPONENT_COUNT>
1

> <PUBCHEM_CACTVS_TAUTO_COUNT>
21

> <PUBCHEM_CONFORMER_ID>
0006B49300000002

> <PUBCHEM_MMFF94_ENERGY>
46.2473

> <PUBCHEM_FEATURE_SELFOVERLAP>
106.658

> <PUBCHEM_SHAPE_FINGERPRINT>
11552529 35 18116447010245814600
12539773 59 17969761060878421817
12655387 17 17556261246901674993
12788726 201 17824534184937347335
13965767 371 17754443870298431419
14705955 166 15214116657935609323
14856354 85 18057302080802015282
15274700 34 18265038297975227225
15297060 5 16880158300511123571
15403338 16 17916003824457029921
17138139 8 17033599241034260389
17974551 9 16188310661951686363
19319366 153 17760651361094047311
21133410 90 17460911512314629829
238 59 17771636654538956077
238918 7 16822782746873438079
35225 105 16691577461726830053
469060 322 18341344326551665152
474144 1 18338230449676832255
5080951 261 17050516817335659354
581034 39 17968094252975411478
86090 222 15236124091709166471

> <PUBCHEM_SHAPE_MULTIPOLES>
625
9.03
5.52
2.9
3.81
2.22
-0.77
-4.92
3.72
1.57
-1.88
-2.19
-0.41
-4.92

> <PUBCHEM_SHAPE_SELFOVERLAP>
1280.87

> <PUBCHEM_SHAPE_VOLUME>
362

> <PUBCHEM_COORDINATE_TYPE>
2
5
10

$$$$

