10088
  -OEChem-06261204183D

 92 96  0     1  0  0  0  0  0999 V2000
   -4.5906    0.6919   -0.3341 O   0  0  0  0  0  0  0  0  0  0  0  0
    8.2516    0.2528    0.8265 O   0  0  0  0  0  0  0  0  0  0  0  0
   -2.7648    1.8791    0.8087 O   0  0  0  0  0  0  0  0  0  0  0  0
   -1.2503    0.4795    1.7799 O   0  0  0  0  0  0  0  0  0  0  0  0
   -6.4903   -0.4504   -0.9563 O   0  0  0  0  0  0  0  0  0  0  0  0
    2.1396    0.3600   -1.2937 C   0  0  1  0  0  0  0  0  0  0  0  0
    3.0955   -0.8235   -0.8507 C   0  0  1  0  0  0  0  0  0  0  0  0
    0.6002   -0.1802   -1.5085 C   0  0  1  0  0  0  0  0  0  0  0  0
    4.6122   -0.4080   -0.5086 C   0  0  1  0  0  0  0  0  0  0  0  0
    4.6162    0.7599    0.5425 C   0  0  2  0  0  0  0  0  0  0  0  0
    2.2377    1.4559   -0.1889 C   0  0  0  0  0  0  0  0  0  0  0  0
    0.1106   -1.1041   -0.3820 C   0  0  0  0  0  0  0  0  0  0  0  0
   -1.4013   -1.4078   -0.3105 C   0  0  2  0  0  0  0  0  0  0  0  0
    3.6654    1.9056    0.1525 C   0  0  0  0  0  0  0  0  0  0  0  0
   -2.2617   -0.1190   -0.3520 C   0  0  1  0  0  0  0  0  0  0  0  0
   -0.3805    1.0321   -1.6340 C   0  0  0  0  0  0  0  0  0  0  0  0
    2.4710   -1.5981    0.3463 C   0  0  0  0  0  0  0  0  0  0  0  0
    6.0470    1.2624    0.9721 C   0  0  0  0  0  0  0  0  0  0  0  0
    5.4213   -1.6302    0.0657 C   0  0  0  0  0  0  0  0  0  0  0  0
   -1.8737    0.6950   -1.6022 C   0  0  0  0  0  0  0  0  0  0  0  0
    2.5978    0.9964   -2.6387 C   0  0  0  0  0  0  0  0  0  0  0  0
    0.9906   -1.6951    0.4370 C   0  0  0  0  0  0  0  0  0  0  0  0
    0.5124   -1.0189   -2.8193 C   0  0  0  0  0  0  0  0  0  0  0  0
   -1.8546   -2.3655    0.8255 C   0  0  0  0  0  0  0  0  0  0  0  0
    5.3706   -0.0241   -1.8076 C   0  0  0  0  0  0  0  0  0  0  0  0
   -3.7701   -0.4755   -0.3953 C   0  0  1  0  0  0  0  0  0  0  0  0
   -3.3665   -2.6936    0.8239 C   0  0  0  0  0  0  0  0  0  0  0  0
    6.4597   -1.2856    1.1283 C   0  0  0  0  0  0  0  0  0  0  0  0
   -4.1920   -1.3972    0.7511 C   0  0  0  0  0  0  0  0  0  0  0  0
    7.0357    0.0914    0.9343 C   0  0  0  0  0  0  0  0  0  0  0  0
    6.6077    2.4169    0.1195 C   0  0  0  0  0  0  0  0  0  0  0  0
    6.0058    1.7522    2.4364 C   0  0  0  0  0  0  0  0  0  0  0  0
   -2.0153    0.7512    0.8665 C   0  0  0  0  0  0  0  0  0  0  0  0
   -3.7183   -3.6278   -0.3514 C   0  0  0  0  0  0  0  0  0  0  0  0
   -3.7168   -3.4343    2.1297 C   0  0  0  0  0  0  0  0  0  0  0  0
   -5.9352    0.4751   -0.3814 C   0  0  0  0  0  0  0  0  0  0  0  0
   -6.6427    1.5514    0.3767 C   0  0  0  0  0  0  0  0  0  0  0  0
   -5.9515    2.1598    1.5608 C   0  0  0  0  0  0  0  0  0  0  0  0
   -7.8760    1.8647   -0.0613 C   0  0  0  0  0  0  0  0  0  0  0  0
   -8.7960    2.9059    0.4929 C   0  0  0  0  0  0  0  0  0  0  0  0
    3.1466   -1.5370   -1.6848 H   0  0  0  0  0  0  0  0  0  0  0  0
    4.1792    0.3351    1.4565 H   0  0  0  0  0  0  0  0  0  0  0  0
    1.7510    1.1136    0.7319 H   0  0  0  0  0  0  0  0  0  0  0  0
    1.7043    2.3599   -0.5037 H   0  0  0  0  0  0  0  0  0  0  0  0
   -1.6155   -1.9599   -1.2353 H   0  0  0  0  0  0  0  0  0  0  0  0
    4.0714    2.4749   -0.6882 H   0  0  0  0  0  0  0  0  0  0  0  0
    3.5970    2.6185    0.9835 H   0  0  0  0  0  0  0  0  0  0  0  0
   -0.1945    1.5834   -2.5619 H   0  0  0  0  0  0  0  0  0  0  0  0
   -0.2133    1.7451   -0.8224 H   0  0  0  0  0  0  0  0  0  0  0  0
    2.8133   -1.1979    1.3046 H   0  0  0  0  0  0  0  0  0  0  0  0
    2.8195   -2.6371    0.2987 H   0  0  0  0  0  0  0  0  0  0  0  0
    5.9186   -2.1614   -0.7578 H   0  0  0  0  0  0  0  0  0  0  0  0
    4.7844   -2.3922    0.5154 H   0  0  0  0  0  0  0  0  0  0  0  0
   -2.4413    1.6323   -1.6623 H   0  0  0  0  0  0  0  0  0  0  0  0
   -2.1367    0.1336   -2.5077 H   0  0  0  0  0  0  0  0  0  0  0  0
    1.8034    1.5769   -3.1145 H   0  0  0  0  0  0  0  0  0  0  0  0
    3.4069    1.7160   -2.5311 H   0  0  0  0  0  0  0  0  0  0  0  0
    2.9184    0.2331   -3.3550 H   0  0  0  0  0  0  0  0  0  0  0  0
    0.6500   -2.3541    1.2294 H   0  0  0  0  0  0  0  0  0  0  0  0
    1.2198   -1.8548   -2.8122 H   0  0  0  0  0  0  0  0  0  0  0  0
   -0.4806   -1.4496   -2.9811 H   0  0  0  0  0  0  0  0  0  0  0  0
    0.7157   -0.4141   -3.7086 H   0  0  0  0  0  0  0  0  0  0  0  0
   -1.3016   -3.3113    0.7430 H   0  0  0  0  0  0  0  0  0  0  0  0
   -1.5851   -1.9434    1.8012 H   0  0  0  0  0  0  0  0  0  0  0  0
    5.1046   -0.6960   -2.6313 H   0  0  0  0  0  0  0  0  0  0  0  0
    5.1916    0.9992   -2.1294 H   0  0  0  0  0  0  0  0  0  0  0  0
    6.4571   -0.1055   -1.6885 H   0  0  0  0  0  0  0  0  0  0  0  0
   -3.9748   -0.9671   -1.3554 H   0  0  0  0  0  0  0  0  0  0  0  0
    7.2686   -2.0244    1.1136 H   0  0  0  0  0  0  0  0  0  0  0  0
    6.0134   -1.3239    2.1287 H   0  0  0  0  0  0  0  0  0  0  0  0
   -4.1030   -0.8484    1.6993 H   0  0  0  0  0  0  0  0  0  0  0  0
   -5.2510   -1.6716    0.6935 H   0  0  0  0  0  0  0  0  0  0  0  0
    7.6067    2.7127    0.4633 H   0  0  0  0  0  0  0  0  0  0  0  0
    5.9821    3.3130    0.1827 H   0  0  0  0  0  0  0  0  0  0  0  0
    6.7139    2.1451   -0.9327 H   0  0  0  0  0  0  0  0  0  0  0  0
    5.6566    0.9652    3.1145 H   0  0  0  0  0  0  0  0  0  0  0  0
    5.3435    2.6161    2.5537 H   0  0  0  0  0  0  0  0  0  0  0  0
    7.0033    2.0481    2.7832 H   0  0  0  0  0  0  0  0  0  0  0  0
   -3.1561   -4.5666   -0.2877 H   0  0  0  0  0  0  0  0  0  0  0  0
   -4.7845   -3.8818   -0.3442 H   0  0  0  0  0  0  0  0  0  0  0  0
   -3.4972   -3.1822   -1.3251 H   0  0  0  0  0  0  0  0  0  0  0  0
   -4.7814   -3.6917    2.1663 H   0  0  0  0  0  0  0  0  0  0  0  0
   -3.1445   -4.3643    2.2227 H   0  0  0  0  0  0  0  0  0  0  0  0
   -3.4942   -2.8185    3.0084 H   0  0  0  0  0  0  0  0  0  0  0  0
   -2.6214    2.4545    1.5899 H   0  0  0  0  0  0  0  0  0  0  0  0
   -6.6557    2.5902    2.2782 H   0  0  0  0  0  0  0  0  0  0  0  0
   -5.3812    1.4028    2.1095 H   0  0  0  0  0  0  0  0  0  0  0  0
   -5.2668    2.9493    1.2372 H   0  0  0  0  0  0  0  0  0  0  0  0
   -8.2821    1.3415   -0.9258 H   0  0  0  0  0  0  0  0  0  0  0  0
   -9.1243    3.5695   -0.3135 H   0  0  0  0  0  0  0  0  0  0  0  0
   -8.3334    3.5298    1.2607 H   0  0  0  0  0  0  0  0  0  0  0  0
   -9.6818    2.4282    0.9225 H   0  0  0  0  0  0  0  0  0  0  0  0
  1 26  1  0  0  0  0
  1 36  1  0  0  0  0
  2 30  2  0  0  0  0
  3 33  1  0  0  0  0
  3 85  1  0  0  0  0
  4 33  2  0  0  0  0
  5 36  2  0  0  0  0
  6  7  1  0  0  0  0
  6  8  1  0  0  0  0
  6 11  1  0  0  0  0
  6 21  1  0  0  0  0
  7  9  1  0  0  0  0
  7 17  1  0  0  0  0
  7 41  1  0  0  0  0
  8 12  1  0  0  0  0
  8 16  1  0  0  0  0
  8 23  1  0  0  0  0
  9 10  1  0  0  0  0
  9 19  1  0  0  0  0
  9 25  1  0  0  0  0
 10 14  1  0  0  0  0
 10 18  1  0  0  0  0
 10 42  1  0  0  0  0
 11 14  1  0  0  0  0
 11 43  1  0  0  0  0
 11 44  1  0  0  0  0
 12 13  1  0  0  0  0
 12 22  2  0  0  0  0
 13 15  1  0  0  0  0
 13 24  1  0  0  0  0
 13 45  1  0  0  0  0
 14 46  1  0  0  0  0
 14 47  1  0  0  0  0
 15 20  1  0  0  0  0
 15 26  1  0  0  0  0
 15 33  1  0  0  0  0
 16 20  1  0  0  0  0
 16 48  1  0  0  0  0
 16 49  1  0  0  0  0
 17 22  1  0  0  0  0
 17 50  1  0  0  0  0
 17 51  1  0  0  0  0
 18 30  1  0  0  0  0
 18 31  1  0  0  0  0
 18 32  1  0  0  0  0
 19 28  1  0  0  0  0
 19 52  1  0  0  0  0
 19 53  1  0  0  0  0
 20 54  1  0  0  0  0
 20 55  1  0  0  0  0
 21 56  1  0  0  0  0
 21 57  1  0  0  0  0
 21 58  1  0  0  0  0
 22 59  1  0  0  0  0
 23 60  1  0  0  0  0
 23 61  1  0  0  0  0
 23 62  1  0  0  0  0
 24 27  1  0  0  0  0
 24 63  1  0  0  0  0
 24 64  1  0  0  0  0
 25 65  1  0  0  0  0
 25 66  1  0  0  0  0
 25 67  1  0  0  0  0
 26 29  1  0  0  0  0
 26 68  1  0  0  0  0
 27 29  1  0  0  0  0
 27 34  1  0  0  0  0
 27 35  1  0  0  0  0
 28 30  1  0  0  0  0
 28 69  1  0  0  0  0
 28 70  1  0  0  0  0
 29 71  1  0  0  0  0
 29 72  1  0  0  0  0
 31 73  1  0  0  0  0
 31 74  1  0  0  0  0
 31 75  1  0  0  0  0
 32 76  1  0  0  0  0
 32 77  1  0  0  0  0
 32 78  1  0  0  0  0
 34 79  1  0  0  0  0
 34 80  1  0  0  0  0
 34 81  1  0  0  0  0
 35 82  1  0  0  0  0
 35 83  1  0  0  0  0
 35 84  1  0  0  0  0
 36 37  1  0  0  0  0
 37 38  1  0  0  0  0
 37 39  2  0  0  0  0
 38 86  1  0  0  0  0
 38 87  1  0  0  0  0
 38 88  1  0  0  0  0
 39 40  1  0  0  0  0
 39 89  1  0  0  0  0
 40 90  1  0  0  0  0
 40 91  1  0  0  0  0
 40 92  1  0  0  0  0
M  END
> <PUBCHEM_COMPOUND_CID>
10088

> <PUBCHEM_CONFORMER_RMSD>
1

> <PUBCHEM_CONFORMER_DIVERSEORDER>
1
2
3

> <PUBCHEM_MMFF94_PARTIAL_CHARGES>
24
1 -0.43
12 -0.28
13 0.14
15 0.06
17 0.14
18 0.06
2 -0.57
22 -0.29
26 0.28
28 0.06
3 -0.65
30 0.45
33 0.66
36 0.71
37 -0.12
38 0.14
39 -0.29
4 -0.57
40 0.14
5 -0.57
59 0.15
8 0.14
85 0.5
89 0.15

> <PUBCHEM_EFFECTIVE_ROTOR_COUNT>
6.4

> <PUBCHEM_PHARMACOPHORE_FEATURES>
14
1 2 acceptor
1 3 acceptor
1 38 hydrophobe
1 4 acceptor
1 40 hydrophobe
1 5 acceptor
3 18 31 32 hydrophobe
3 27 34 35 hydrophobe
3 3 4 33 anion
6 13 15 24 26 27 29 rings
6 6 7 8 12 17 22 rings
6 6 7 9 10 11 14 rings
6 8 12 13 15 16 20 rings
6 9 10 18 19 28 30 rings

> <PUBCHEM_HEAVY_ATOM_COUNT>
40

> <PUBCHEM_ATOM_DEF_STEREO_COUNT>
1

> <PUBCHEM_ATOM_UDEF_STEREO_COUNT>
0

> <PUBCHEM_BOND_DEF_STEREO_COUNT>
0

> <PUBCHEM_BOND_UDEF_STEREO_COUNT>
1

> <PUBCHEM_ISOTOPIC_ATOM_COUNT>
0

> <PUBCHEM_COMPONENT_COUNT>
1

> <PUBCHEM_CACTVS_TAUTO_COUNT>
2

> <PUBCHEM_CONFORMER_ID>
0000276800000001

> <PUBCHEM_MMFF94_ENERGY>
169.4103

> <PUBCHEM_FEATURE_SELFOVERLAP>
71.189

> <PUBCHEM_SHAPE_FINGERPRINT>
10076449 9 11671776091749207365
10190108 129 16630527388196437466
10299344 5 11312054370296077949
10319926 262 18342452608428994526
10906281 52 17822560699246828425
11007060 377 18334007333574588073
11331351 85 16988848288991895372
11456790 92 18340488962229385736
11479125 193 17026018224593913832
12422481 6 17775283863230701663
12596602 18 18270685256181759144
12616971 3 16702019742768080110
13540713 5 17415824822145817855
13690498 29 9727636081625478451
13782708 43 11815893427509359585
13811026 1 18334295353105432996
13911987 19 16298103163962082610
14394314 77 18131072623280981192
15021287 119 16630524012557644031
15064986 96 17822572815788232726
15131766 46 17096953269311205184
15392192 29 16845849088592334530
16112460 7 18199748210094531995
16994733 274 16588863620366524721
17349148 13 17059771105373071566
19315958 150 18411416258519667955
20511986 3 18341339959118758919
21033648 29 18188504484245866506
21130935 74 18413672409035478282
21424621 283 18337102493193142465
22122407 14 17676204645695625168
23522609 53 17202461360902170692
23559900 14 18411138000325359621
23576562 1 14491061293345712713
24771293 8 18341334418020350789
24893992 56 18412258442568849217
312425 54 18272937107113311938
3178227 256 16558742442560662580
3383291 50 16343701045354234145
3633792 109 16370718266878656388
392239 28 18263635178343603682
397638 26 18059853996108606625
4073 2 18271525299865765690
4093350 32 17821729468150619174
5028188 123 18339634544139152318
504579 68 5545200514730412105
5080951 261 18198643072117796015
5104073 3 17702657740092385957
54039377 194 12463578404773359784
6009941 240 18412265012813335776
6058803 2 17199647599130873543
6691757 9 18342171155824003947
9831232 110 11383844791593194704

> <PUBCHEM_SHAPE_MULTIPOLES>
793.83
21.32
3.13
1.97
5.1
1.47
-0.55
-13.32
8.01
4.59
1.32
-1.35
-0.1
0.52

> <PUBCHEM_SHAPE_SELFOVERLAP>
1687.14

> <PUBCHEM_SHAPE_VOLUME>
436.1

> <PUBCHEM_COORDINATE_TYPE>
2
5
10

$$$$

