161865
  -OEChem-07051213032D

 51 54  0     1  0  0  0  0  0999 V2000
    2.4588   -0.1502    0.0000 O   0  0  0  0  0  0  0  0  0  0  0  0
    3.0635   -1.5759    0.0000 O   0  0  0  0  0  0  0  0  0  0  0  0
    3.8136    1.8727    0.0000 O   0  0  0  0  0  0  0  0  0  0  0  0
    5.0639   -1.9868    0.0000 O   0  0  0  0  0  0  0  0  0  0  0  0
    8.0166    1.8479    0.0000 O   0  0  0  0  0  0  0  0  0  0  0  0
    6.7805   -1.9563    0.0000 O   0  5  0  0  0  0  0  0  0  0  0  0
    4.3541   -2.7310    0.0000 O   0  0  0  0  0  0  0  0  0  0  0  0
    2.1598    1.3580    0.0000 O   0  0  0  0  0  0  0  0  0  0  0  0
    9.6901    1.3405    0.0000 O   0  0  0  0  0  0  0  0  0  0  0  0
    5.9219    2.2711    0.0000 N   0  3  0  0  0  0  0  0  0  0  0  0
    5.9202    3.2711    0.0000 N   0  0  0  0  0  0  0  0  0  0  0  0
    3.4113    0.1543    0.0000 C   0  0  1  0  0  0  0  0  0  0  0  0
    3.7304   -0.8307    0.0000 C   0  0  1  0  0  0  0  0  0  0  0  0
    4.1107    0.9179    0.0000 C   0  0  1  0  0  0  0  0  0  0  0  0
    4.7447   -1.0391    0.0000 C   0  0  2  0  0  0  0  0  0  0  0  0
    5.1199    0.6861    0.0000 C   0  0  0  0  0  0  0  0  0  0  0  0
    5.4263   -0.2596    0.0000 C   0  0  0  0  0  0  0  0  0  0  0  0
    6.4204   -0.2621    0.0000 C   0  0  0  0  0  0  0  0  0  0  0  0
    2.6713    0.8270    0.0000 C   0  0  0  0  0  0  0  0  0  0  0  0
    5.9236    1.2711    0.0000 C   0  0  0  0  0  0  0  0  0  0  0  0
    6.7294    0.6889    0.0000 C   0  0  0  0  0  0  0  0  0  0  0  0
    7.0895   -1.0053    0.0000 C   0  0  0  0  0  0  0  0  0  0  0  0
    7.7075    0.8968    0.0000 C   0  0  0  0  0  0  0  0  0  0  0  0
    8.0676   -0.7974    0.0000 C   0  0  0  0  0  0  0  0  0  0  0  0
    8.3767    0.1537    0.0000 C   0  0  0  0  0  0  0  0  0  0  0  0
    3.3754   -2.5260    0.0000 C   0  0  0  0  0  0  0  0  0  0  0  0
    2.8381    2.0928    0.0000 C   0  0  0  0  0  0  0  0  0  0  0  0
    8.7526   -1.5821    0.0000 C   0  0  0  0  0  0  0  0  0  0  0  0
    9.3921    0.3859    0.0000 C   0  0  0  0  0  0  0  0  0  0  0  0
    2.7085   -3.2711    0.0000 C   0  0  0  0  0  0  0  0  0  0  0  0
    2.5409    3.0476    0.0000 C   0  0  0  0  0  0  0  0  0  0  0  0
    9.7731   -1.3734    0.0000 C   0  0  0  0  0  0  0  0  0  0  0  0
   10.0950   -0.3828    0.0000 C   0  0  0  0  0  0  0  0  0  0  0  0
    3.1238   -0.7025    0.0000 H   0  0  0  0  0  0  0  0  0  0  0  0
    4.5322    1.3726    0.0000 H   0  0  0  0  0  0  0  0  0  0  0  0
    4.3339   -1.5034    0.0000 H   0  0  0  0  0  0  0  0  0  0  0  0
    3.0883    1.2858    0.0000 H   0  0  0  0  0  0  0  0  0  0  0  0
    2.2125    1.2440    0.0000 H   0  0  0  0  0  0  0  0  0  0  0  0
    2.2543    0.3682    0.0000 H   0  0  0  0  0  0  0  0  0  0  0  0
    2.0000    0.2669    0.0000 H   0  0  0  0  0  0  0  0  0  0  0  0
    5.6717   -2.1092    0.0000 H   0  0  0  0  0  0  0  0  0  0  0  0
    8.5542   -2.1695    0.0000 H   0  0  0  0  0  0  0  0  0  0  0  0
    7.6017    2.3086    0.0000 H   0  0  0  0  0  0  0  0  0  0  0  0
    2.2465   -2.8576    0.0000 H   0  0  0  0  0  0  0  0  0  0  0  0
    2.2950   -3.7331    0.0000 H   0  0  0  0  0  0  0  0  0  0  0  0
    3.1705   -3.6846    0.0000 H   0  0  0  0  0  0  0  0  0  0  0  0
    3.1329    3.2318    0.0000 H   0  0  0  0  0  0  0  0  0  0  0  0
    2.3566    3.6396    0.0000 H   0  0  0  0  0  0  0  0  0  0  0  0
    1.9489    2.8633    0.0000 H   0  0  0  0  0  0  0  0  0  0  0  0
   10.1862   -1.8358    0.0000 H   0  0  0  0  0  0  0  0  0  0  0  0
   10.7010   -0.2515    0.0000 H   0  0  0  0  0  0  0  0  0  0  0  0
 12  1  1  6  0  0  0
  1 40  1  0  0  0  0
 13  2  1  1  0  0  0
  2 26  1  0  0  0  0
 14  3  1  6  0  0  0
  3 27  1  0  0  0  0
 15  4  1  6  0  0  0
  4 41  1  0  0  0  0
  5 23  1  0  0  0  0
  5 43  1  0  0  0  0
  6 22  1  0  0  0  0
  7 26  2  0  0  0  0
  8 27  2  0  0  0  0
  9 29  2  0  0  0  0
 10 11  3  0  0  0  0
 10 20  1  0  0  0  0
 12 13  1  0  0  0  0
 12 14  1  0  0  0  0
 12 19  1  0  0  0  0
 13 15  1  0  0  0  0
 13 34  1  0  0  0  0
 14 16  1  0  0  0  0
 14 35  1  0  0  0  0
 15 17  1  0  0  0  0
 15 36  1  0  0  0  0
 16 17  2  0  0  0  0
 16 20  1  0  0  0  0
 17 18  1  0  0  0  0
 18 21  1  0  0  0  0
 18 22  2  0  0  0  0
 19 37  1  0  0  0  0
 19 38  1  0  0  0  0
 19 39  1  0  0  0  0
 20 21  2  0  0  0  0
 21 23  1  0  0  0  0
 22 24  1  0  0  0  0
 23 25  2  0  0  0  0
 24 25  1  0  0  0  0
 24 28  2  0  0  0  0
 25 29  1  0  0  0  0
 26 30  1  0  0  0  0
 27 31  1  0  0  0  0
 28 32  1  0  0  0  0
 28 42  1  0  0  0  0
 29 33  1  0  0  0  0
 30 44  1  0  0  0  0
 30 45  1  0  0  0  0
 30 46  1  0  0  0  0
 31 47  1  0  0  0  0
 31 48  1  0  0  0  0
 31 49  1  0  0  0  0
 32 33  2  0  0  0  0
 32 50  1  0  0  0  0
 33 51  1  0  0  0  0
M  CHG  2   6  -1  10   1
M  END
> <PUBCHEM_COMPOUND_CID>
161865

> <PUBCHEM_COMPOUND_CANONICALIZED>
1

> <PUBCHEM_CACTVS_COMPLEXITY>
1280

> <PUBCHEM_CACTVS_HBOND_ACCEPTOR>
10

> <PUBCHEM_CACTVS_HBOND_DONOR>
3

> <PUBCHEM_CACTVS_ROTATABLE_BOND>
4

> <PUBCHEM_CACTVS_SUBSKEYS>
AAADceB7PAAAAAAAAAAAAAAAAAAAAQAAAAAgQIAAAAAAAECAAAAAHgAICAAADFyhgAICCAAABgCIAqTSSACAAAAgIAAICAEAAEgJFBIAoQACUAAHwAALsYPy8OQOAAAAAAAAAAAAAAAAAAAAAAAAAAAAAA==

> <PUBCHEM_IUPAC_OPENEYE_NAME>
(1R,2R,3R,4S)-1,3-diacetoxy-11-diazonio-2,4,10-trihydroxy-2-methyl-9-oxo-3,4-dihydro-1H-benzo[b]fluoren-5-olate

> <PUBCHEM_IUPAC_CAS_NAME>
(1R,2R,3R,4S)-1,3-diacetyloxy-11-diazonio-2,4,10-trihydroxy-2-methyl-9-oxo-3,4-dihydro-1H-benzo[b]fluoren-5-olate

> <PUBCHEM_IUPAC_NAME>
(1R,2R,3R,4S)-1,3-diacetyloxy-11-diazonio-2,4,10-trihydroxy-2-methyl-9-oxo-3,4-dihydro-1H-benzo[b]fluoren-5-olate

> <PUBCHEM_IUPAC_SYSTEMATIC_NAME>
(1R,2R,3R,4S)-1,3-diacetyloxy-11-diazonio-2-methyl-2,4,10-tris(oxidanyl)-9-oxidanylidene-3,4-dihydro-1H-benzo[b]fluoren-5-olate

> <PUBCHEM_IUPAC_TRADITIONAL_NAME>
(1R,2R,3R,4S)-1,3-diacetoxy-11-diazonio-2,4,10-trihydroxy-9-keto-2-methyl-3,4-dihydro-1H-benzo[b]fluoren-5-olate

> <PUBCHEM_IUPAC_INCHI>
InChI=1S/C22H18N2O9/c1-7(25)32-20-15-13(19(30)21(22(20,3)31)33-8(2)26)12-14(16(15)24-23)18(29)11-9(17(12)28)5-4-6-10(11)27/h4-6,19-21,30-31H,1-3H3,(H-,27,28,29)/t19-,20+,21+,22+/m0/s1

> <PUBCHEM_IUPAC_INCHIKEY>
MMPWFGWAKNXPLJ-DXBBTUNJSA-N

> <PUBCHEM_XLOGP3_AA>
-0.4

> <PUBCHEM_EXACT_MASS>
454.10123

> <PUBCHEM_MOLECULAR_FORMULA>
C22H18N2O9

> <PUBCHEM_MOLECULAR_WEIGHT>
454.38632

> <PUBCHEM_OPENEYE_CAN_SMILES>
CC(=O)OC1C(C2=C(C(C1(C)O)OC(=O)C)C(=C3C2=C(C4=CC=CC(=O)C4=C3O)[O-])[N+]#N)O

> <PUBCHEM_OPENEYE_ISO_SMILES>
CC(=O)O[C@@H]1[C@H](C2=C([C@H]([C@@]1(C)O)OC(=O)C)C(=C3C2=C(C4=CC=CC(=O)C4=C3O)[O-])[N+]#N)O

> <PUBCHEM_CACTVS_TPSA>
182

> <PUBCHEM_MONOISOTOPIC_WEIGHT>
454.10123

> <PUBCHEM_TOTAL_CHARGE>
0

> <PUBCHEM_HEAVY_ATOM_COUNT>
33

> <PUBCHEM_ATOM_DEF_STEREO_COUNT>
4

> <PUBCHEM_ATOM_UDEF_STEREO_COUNT>
0

> <PUBCHEM_BOND_DEF_STEREO_COUNT>
0

> <PUBCHEM_BOND_UDEF_STEREO_COUNT>
0

> <PUBCHEM_ISOTOPIC_ATOM_COUNT>
0

> <PUBCHEM_COMPONENT_COUNT>
1

> <PUBCHEM_CACTVS_TAUTO_COUNT>
5

> <PUBCHEM_COORDINATE_TYPE>
1
5
255

> <PUBCHEM_BONDANNOTATIONS>
12  1  6
18  21  8
18  22  8
13  2  5
21  23  8
22  24  8
23  25  8
24  25  8
14  3  6
15  4  6

$$$$

