439418
  -OEChem-07051212453D

 32 31  0     1  0  0  0  0  0999 V2000
    2.3489   -1.4733    0.2430 P   0  0  2  0  0  0  0  0  0  0  0  0
    2.5947    1.4252   -0.1952 P   0  0  0  0  0  0  0  0  0  0  0  0
   -3.9479   -1.0173    0.6469 O   0  0  0  0  0  0  0  0  0  0  0  0
    0.8281   -1.3743    0.7783 O   0  0  0  0  0  0  0  0  0  0  0  0
    2.5630   -0.1305   -0.6315 O   0  0  0  0  0  0  0  0  0  0  0  0
   -1.6324    2.3954   -0.1067 O   0  0  0  0  0  0  0  0  0  0  0  0
   -3.5350    1.8701    1.0173 O   0  0  0  0  0  0  0  0  0  0  0  0
    2.3109   -2.6418   -0.8753 O   0  0  0  0  0  0  0  0  0  0  0  0
    3.3770   -1.6781    1.3176 O   0  0  0  0  0  0  0  0  0  0  0  0
    3.0143    2.1805   -1.5610 O   0  0  0  0  0  0  0  0  0  0  0  0
    3.9238    1.5296    0.7185 O   0  0  0  0  0  0  0  0  0  0  0  0
    1.3334    1.9207    0.4483 O   0  0  0  0  0  0  0  0  0  0  0  0
   -2.8126   -0.8888   -0.2203 C   0  0  2  0  0  0  0  0  0  0  0  0
   -1.5471   -1.1250    0.6285 C   0  0  0  0  0  0  0  0  0  0  0  0
   -2.8789    0.5039   -0.8688 C   0  0  0  0  0  0  0  0  0  0  0  0
   -2.9649   -1.9599   -1.3084 C   0  0  0  0  0  0  0  0  0  0  0  0
   -0.2362   -1.1803   -0.1462 C   0  0  0  0  0  0  0  0  0  0  0  0
   -2.7391    1.6440    0.1151 C   0  0  0  0  0  0  0  0  0  0  0  0
   -1.4746   -0.3680    1.4206 H   0  0  0  0  0  0  0  0  0  0  0  0
   -1.6614   -2.0645    1.1882 H   0  0  0  0  0  0  0  0  0  0  0  0
   -3.8396    0.6557   -1.3774 H   0  0  0  0  0  0  0  0  0  0  0  0
   -2.1034    0.6058   -1.6377 H   0  0  0  0  0  0  0  0  0  0  0  0
   -0.0690   -0.2509   -0.6963 H   0  0  0  0  0  0  0  0  0  0  0  0
   -0.2358   -2.0148   -0.8527 H   0  0  0  0  0  0  0  0  0  0  0  0
   -2.1871   -1.8862   -2.0746 H   0  0  0  0  0  0  0  0  0  0  0  0
   -3.9374   -1.8746   -1.8077 H   0  0  0  0  0  0  0  0  0  0  0  0
   -2.9317   -2.9643   -0.8713 H   0  0  0  0  0  0  0  0  0  0  0  0
   -4.7520   -0.8749    0.1187 H   0  0  0  0  0  0  0  0  0  0  0  0
   -1.5522    3.1293    0.5392 H   0  0  0  0  0  0  0  0  0  0  0  0
    2.3289   -3.5781   -0.5835 H   0  0  0  0  0  0  0  0  0  0  0  0
    3.0197    3.1613   -1.5790 H   0  0  0  0  0  0  0  0  0  0  0  0
    4.1214    2.3752    1.1746 H   0  0  0  0  0  0  0  0  0  0  0  0
  1  4  1  0  0  0  0
  1  5  1  0  0  0  0
  1  8  1  0  0  0  0
  1  9  2  0  0  0  0
  2  5  1  0  0  0  0
  2 10  1  0  0  0  0
  2 11  1  0  0  0  0
  2 12  2  0  0  0  0
  3 13  1  0  0  0  0
  3 28  1  0  0  0  0
  4 17  1  0  0  0  0
  6 18  1  0  0  0  0
  6 29  1  0  0  0  0
  7 18  2  0  0  0  0
  8 30  1  0  0  0  0
 10 31  1  0  0  0  0
 11 32  1  0  0  0  0
 13 14  1  0  0  0  0
 13 15  1  0  0  0  0
 13 16  1  0  0  0  0
 14 17  1  0  0  0  0
 14 19  1  0  0  0  0
 14 20  1  0  0  0  0
 15 18  1  0  0  0  0
 15 21  1  0  0  0  0
 15 22  1  0  0  0  0
 16 25  1  0  0  0  0
 16 26  1  0  0  0  0
 16 27  1  0  0  0  0
 17 23  1  0  0  0  0
 17 24  1  0  0  0  0
M  END
> <PUBCHEM_COMPOUND_CID>
439418

> <PUBCHEM_CONFORMER_RMSD>
0.8

> <PUBCHEM_CONFORMER_DIVERSEORDER>
1
69
180
28
14
140
173
108
94
181
99
127
186
34
18
194
17
176
43
144
12
196
44
128
52
85
162
74
97
39
182
185
119
22
6
130
163
124
33
32
80
135
171
7
156
96
153
105
116
147
117
183
27
199
164
53
16
59
104
149
31
177
10
129
40
47
84
165
50
114
78
122
19
115
136
26
201
123
160
8
184
174
91
13
125
21
152
36
107
11
88
159
81
38
169
157
155
150
58
23
67
189
126
138
15
89
64
139
168
100
71
111
57
61
141
29
167
54
172
191
77
70
98
197
93
20
154
101
151
192
137
103
49
5
9
83
109
161
142
148
170
25
118
51
92
188
145
175
73
79
143
2
134
4
87
37
113
46
41
110
76
62
132
68
120
24
35
82
86
45
146
30
166
48
3
131
200
60
106
195
72
121
95
178
56
102
55
65
187
112
179
198
63
133
193
66
42
158
190
90
75

> <PUBCHEM_MMFF94_PARTIAL_CHARGES>
21
1 1.51
10 -0.77
11 -0.77
12 -0.7
13 0.28
15 0.06
17 0.28
18 0.66
2 1.51
28 0.4
29 0.5
3 -0.68
30 0.5
31 0.5
32 0.5
4 -0.55
5 -0.54
6 -0.65
7 -0.57
8 -0.77
9 -0.7

> <PUBCHEM_EFFECTIVE_ROTOR_COUNT>
8

> <PUBCHEM_PHARMACOPHORE_FEATURES>
11
1 10 acceptor
1 11 acceptor
1 12 acceptor
1 3 acceptor
1 3 donor
1 6 acceptor
1 7 acceptor
1 8 acceptor
1 9 acceptor
3 6 7 18 anion
4 2 10 11 12 anion

> <PUBCHEM_HEAVY_ATOM_COUNT>
18

> <PUBCHEM_ATOM_DEF_STEREO_COUNT>
1

> <PUBCHEM_ATOM_UDEF_STEREO_COUNT>
0

> <PUBCHEM_BOND_DEF_STEREO_COUNT>
0

> <PUBCHEM_BOND_UDEF_STEREO_COUNT>
0

> <PUBCHEM_ISOTOPIC_ATOM_COUNT>
0

> <PUBCHEM_COMPONENT_COUNT>
1

> <PUBCHEM_CACTVS_TAUTO_COUNT>
1

> <PUBCHEM_CONFORMER_ID>
0006B47A00000001

> <PUBCHEM_MMFF94_ENERGY>
-23.2423

> <PUBCHEM_FEATURE_SELFOVERLAP>
55.926

> <PUBCHEM_SHAPE_FINGERPRINT>
10922523 26 18115590511830511711
10980938 120 18410010992575631934
11615756 256 18342167856365804837
11715629 250 18335702723694136014
12162725 195 18411987978690786603
13140716 1 18339926029555696097
14250199 8 18341618126559123687
15442244 35 18340211911406410954
17041 49 18128825329209976890
18186145 218 18130505339652953506
21249577 28 18410856594063097968
21501502 16 18410857667867978481
21524375 3 18196938760454140082
21947302 44 18201438043449415762
23557571 272 17603595135417223522
23558518 356 18343582945374547403
312423 11 18413103961607885031
474 4 18131633352757227566
7615 1 18337685164744947183
7832392 63 18194683906422718307

> <PUBCHEM_SHAPE_MULTIPOLES>
319.44
7.48
3.06
1.14
0.25
0.52
-0.16
1
0.26
0.79
-0.26
0.16
-0.08
-1.07

> <PUBCHEM_SHAPE_SELFOVERLAP>
590.689

> <PUBCHEM_SHAPE_VOLUME>
202.4

> <PUBCHEM_COORDINATE_TYPE>
2
5
10

$$$$

