36733
  -OEChem-07051213132D

 43 43  0     0  0  0  0  0  0999 V2000
    4.5981   -0.5000    0.0000 O   0  0  0  0  0  0  0  0  0  0  0  0
    5.4641    3.0000    0.0000 O   0  0  0  0  0  0  0  0  0  0  0  0
    6.3301   -0.5000    0.0000 O   0  0  0  0  0  0  0  0  0  0  0  0
    5.4641    1.0000    0.0000 N   0  0  0  0  0  0  0  0  0  0  0  0
    2.8660   -3.5000    0.0000 C   0  0  0  0  0  0  0  0  0  0  0  0
    3.7320   -3.0000    0.0000 C   0  0  0  0  0  0  0  0  0  0  0  0
    4.5981   -3.5000    0.0000 C   0  0  0  0  0  0  0  0  0  0  0  0
    2.8660   -4.5000    0.0000 C   0  0  0  0  0  0  0  0  0  0  0  0
    2.0000   -3.0000    0.0000 C   0  0  0  0  0  0  0  0  0  0  0  0
    3.7320   -2.0000    0.0000 C   0  0  0  0  0  0  0  0  0  0  0  0
    5.4641   -3.0000    0.0000 C   0  0  0  0  0  0  0  0  0  0  0  0
    4.5981   -1.5000    0.0000 C   0  0  0  0  0  0  0  0  0  0  0  0
    5.4641   -2.0000    0.0000 C   0  0  0  0  0  0  0  0  0  0  0  0
    7.1962    3.0000    0.0000 C   0  0  0  0  0  0  0  0  0  0  0  0
    7.1962    4.0000    0.0000 C   0  0  0  0  0  0  0  0  0  0  0  0
    6.3301   -3.5000    0.0000 C   0  0  0  0  0  0  0  0  0  0  0  0
    6.3301    2.5000    0.0000 C   0  0  0  0  0  0  0  0  0  0  0  0
    6.3301    1.5000    0.0000 C   0  0  0  0  0  0  0  0  0  0  0  0
    8.0622    4.5000    0.0000 C   0  0  0  0  0  0  0  0  0  0  0  0
    5.4641    0.0000    0.0000 C   0  0  0  0  0  0  0  0  0  0  0  0
    2.8660   -2.8800    0.0000 H   0  0  0  0  0  0  0  0  0  0  0  0
    4.5981   -4.1200    0.0000 H   0  0  0  0  0  0  0  0  0  0  0  0
    2.2460   -4.5000    0.0000 H   0  0  0  0  0  0  0  0  0  0  0  0
    2.8660   -5.1200    0.0000 H   0  0  0  0  0  0  0  0  0  0  0  0
    3.4860   -4.5000    0.0000 H   0  0  0  0  0  0  0  0  0  0  0  0
    2.3100   -2.4631    0.0000 H   0  0  0  0  0  0  0  0  0  0  0  0
    1.4631   -2.6900    0.0000 H   0  0  0  0  0  0  0  0  0  0  0  0
    1.6900   -3.5369    0.0000 H   0  0  0  0  0  0  0  0  0  0  0  0
    3.1951   -1.6900    0.0000 H   0  0  0  0  0  0  0  0  0  0  0  0
    6.0010   -1.6900    0.0000 H   0  0  0  0  0  0  0  0  0  0  0  0
    7.4082    2.4174    0.0000 H   0  0  0  0  0  0  0  0  0  0  0  0
    7.8067    3.1077    0.0000 H   0  0  0  0  0  0  0  0  0  0  0  0
    6.9841    4.5826    0.0000 H   0  0  0  0  0  0  0  0  0  0  0  0
    6.5856    3.8923    0.0000 H   0  0  0  0  0  0  0  0  0  0  0  0
    6.0201   -4.0369    0.0000 H   0  0  0  0  0  0  0  0  0  0  0  0
    6.8671   -3.8100    0.0000 H   0  0  0  0  0  0  0  0  0  0  0  0
    6.6401   -2.9631    0.0000 H   0  0  0  0  0  0  0  0  0  0  0  0
    6.5422    0.9174    0.0000 H   0  0  0  0  0  0  0  0  0  0  0  0
    6.9407    1.6077    0.0000 H   0  0  0  0  0  0  0  0  0  0  0  0
    8.3722    3.9631    0.0000 H   0  0  0  0  0  0  0  0  0  0  0  0
    8.5991    4.8100    0.0000 H   0  0  0  0  0  0  0  0  0  0  0  0
    7.7522    5.0369    0.0000 H   0  0  0  0  0  0  0  0  0  0  0  0
    4.9272    1.3100    0.0000 H   0  0  0  0  0  0  0  0  0  0  0  0
  1 12  1  0  0  0  0
  1 20  1  0  0  0  0
  2 17  2  0  0  0  0
  3 20  2  0  0  0  0
  4 18  1  0  0  0  0
  4 20  1  0  0  0  0
  4 43  1  0  0  0  0
  5  6  1  0  0  0  0
  5  8  1  0  0  0  0
  5  9  1  0  0  0  0
  5 21  1  0  0  0  0
  6  7  1  0  0  0  0
  6 10  2  0  0  0  0
  7 11  2  0  0  0  0
  7 22  1  0  0  0  0
  8 23  1  0  0  0  0
  8 24  1  0  0  0  0
  8 25  1  0  0  0  0
  9 26  1  0  0  0  0
  9 27  1  0  0  0  0
  9 28  1  0  0  0  0
 10 12  1  0  0  0  0
 10 29  1  0  0  0  0
 11 13  1  0  0  0  0
 11 16  1  0  0  0  0
 12 13  2  0  0  0  0
 13 30  1  0  0  0  0
 14 15  1  0  0  0  0
 14 17  1  0  0  0  0
 14 31  1  0  0  0  0
 14 32  1  0  0  0  0
 15 19  1  0  0  0  0
 15 33  1  0  0  0  0
 15 34  1  0  0  0  0
 16 35  1  0  0  0  0
 16 36  1  0  0  0  0
 16 37  1  0  0  0  0
 17 18  1  0  0  0  0
 18 38  1  0  0  0  0
 18 39  1  0  0  0  0
 19 40  1  0  0  0  0
 19 41  1  0  0  0  0
 19 42  1  0  0  0  0
M  END
> <PUBCHEM_COMPOUND_CID>
36733

> <PUBCHEM_COMPOUND_CANONICALIZED>
1

> <PUBCHEM_CACTVS_COMPLEXITY>
328

> <PUBCHEM_CACTVS_HBOND_ACCEPTOR>
3

> <PUBCHEM_CACTVS_HBOND_DONOR>
1

> <PUBCHEM_CACTVS_ROTATABLE_BOND>
7

> <PUBCHEM_CACTVS_SUBSKEYS>
AAADceB6MAAAAAAAAAAAAAAAAAAAAAAAAAAwAAAAAAAAAAABAAAAHgAQAAAADQTBmAQyDoLABACIAqBSGAACCAAgIAAAiIGOCIkMJjKEsTqMMiAkxhEIqAeQwPAOgAADAAAAAAAAAAYAAAAAAAAAAAAAAA==

> <PUBCHEM_IUPAC_OPENEYE_NAME>
(3-isopropyl-5-methyl-phenyl) N-(2-oxopentyl)carbamate

> <PUBCHEM_IUPAC_CAS_NAME>
N-(2-oxopentyl)carbamic acid (3-methyl-5-propan-2-ylphenyl) ester

> <PUBCHEM_IUPAC_NAME>
(3-methyl-5-propan-2-ylphenyl) N-(2-oxopentyl)carbamate

> <PUBCHEM_IUPAC_SYSTEMATIC_NAME>
(3-methyl-5-propan-2-yl-phenyl) N-(2-oxidanylidenepentyl)carbamate

> <PUBCHEM_IUPAC_TRADITIONAL_NAME>
N-(2-ketopentyl)carbamic acid (3-isopropyl-5-methyl-phenyl) ester

> <PUBCHEM_IUPAC_INCHI>
InChI=1S/C16H23NO3/c1-5-6-14(18)10-17-16(19)20-15-8-12(4)7-13(9-15)11(2)3/h7-9,11H,5-6,10H2,1-4H3,(H,17,19)

> <PUBCHEM_IUPAC_INCHIKEY>
GGRLUNQHANDPSC-UHFFFAOYSA-N

> <PUBCHEM_XLOGP3>
3.7

> <PUBCHEM_EXACT_MASS>
277.167794

> <PUBCHEM_MOLECULAR_FORMULA>
C16H23NO3

> <PUBCHEM_MOLECULAR_WEIGHT>
277.35872

> <PUBCHEM_OPENEYE_CAN_SMILES>
CCCC(=O)CNC(=O)OC1=CC(=CC(=C1)C(C)C)C

> <PUBCHEM_OPENEYE_ISO_SMILES>
CCCC(=O)CNC(=O)OC1=CC(=CC(=C1)C(C)C)C

> <PUBCHEM_CACTVS_TPSA>
55.4

> <PUBCHEM_MONOISOTOPIC_WEIGHT>
277.167794

> <PUBCHEM_TOTAL_CHARGE>
0

> <PUBCHEM_HEAVY_ATOM_COUNT>
20

> <PUBCHEM_ATOM_DEF_STEREO_COUNT>
0

> <PUBCHEM_ATOM_UDEF_STEREO_COUNT>
0

> <PUBCHEM_BOND_DEF_STEREO_COUNT>
0

> <PUBCHEM_BOND_UDEF_STEREO_COUNT>
0

> <PUBCHEM_ISOTOPIC_ATOM_COUNT>
0

> <PUBCHEM_COMPONENT_COUNT>
1

> <PUBCHEM_CACTVS_TAUTO_COUNT>
6

> <PUBCHEM_COORDINATE_TYPE>
1
5
255

> <PUBCHEM_BONDANNOTATIONS>
10  12  8
11  13  8
12  13  8
6  10  8
6  7  8
7  11  8

$$$$

