4023
  -OEChem-06251223493D

 36 38  0     0  0  0  0  0  0999 V2000
    0.7523    2.7589    0.5734 Cl  0  0  0  0  0  0  0  0  0  0  0  0
    6.0535    2.0101   -0.1435 Cl  0  0  0  0  0  0  0  0  0  0  0  0
    1.1594   -4.1495    0.2625 O   0  0  0  0  0  0  0  0  0  0  0  0
   -0.8376   -3.1261    0.5612 O   0  0  0  0  0  0  0  0  0  0  0  0
   -2.2020   -0.4201   -2.5060 O   0  0  0  0  0  0  0  0  0  0  0  0
   -0.0308    0.1527   -2.1666 O   0  0  0  0  0  0  0  0  0  0  0  0
    2.5155   -1.8076    0.1735 N   0  0  0  0  0  0  0  0  0  0  0  0
    1.8822    0.3254    0.3353 C   0  0  0  0  0  0  0  0  0  0  0  0
    0.7364   -0.5101    0.4533 C   0  0  0  0  0  0  0  0  0  0  0  0
    2.9850   -0.5135    0.1606 C   0  0  0  0  0  0  0  0  0  0  0  0
    1.1579   -1.8157    0.3498 C   0  0  0  0  0  0  0  0  0  0  0  0
   -0.6167   -0.1407    0.6433 C   0  0  0  0  0  0  0  0  0  0  0  0
    2.0877    1.7192    0.3606 C   0  0  0  0  0  0  0  0  0  0  0  0
    4.2881   -0.0263    0.0093 C   0  0  0  0  0  0  0  0  0  0  0  0
   -1.5733    0.0861   -0.3046 C   0  0  0  0  0  0  0  0  0  0  0  0
    3.3857    2.2208    0.2103 C   0  0  0  0  0  0  0  0  0  0  0  0
    4.4675    1.3596    0.0376 C   0  0  0  0  0  0  0  0  0  0  0  0
   -2.9539    0.4682    0.0528 C   0  0  0  0  0  0  0  0  0  0  0  0
    0.3904   -3.0231    0.4049 C   0  0  0  0  0  0  0  0  0  0  0  0
   -3.2724    1.8093    0.1792 C   0  0  0  0  0  0  0  0  0  0  0  0
   -3.8989   -0.5230    0.2534 C   0  0  0  0  0  0  0  0  0  0  0  0
   -1.1543   -0.0485   -1.7316 C   0  0  0  0  0  0  0  0  0  0  0  0
   -4.5766    2.1704    0.5171 C   0  0  0  0  0  0  0  0  0  0  0  0
   -5.2032   -0.1617    0.5912 C   0  0  0  0  0  0  0  0  0  0  0  0
   -5.5419    1.1850    0.7231 C   0  0  0  0  0  0  0  0  0  0  0  0
    3.0931   -2.6304    0.0678 H   0  0  0  0  0  0  0  0  0  0  0  0
   -0.9168   -0.0313    1.6855 H   0  0  0  0  0  0  0  0  0  0  0  0
    5.1232   -0.7070   -0.1245 H   0  0  0  0  0  0  0  0  0  0  0  0
    3.5484    3.2970    0.2294 H   0  0  0  0  0  0  0  0  0  0  0  0
   -2.5306    2.5866    0.0191 H   0  0  0  0  0  0  0  0  0  0  0  0
   -3.6471   -1.5753    0.1534 H   0  0  0  0  0  0  0  0  0  0  0  0
   -4.8407    3.2189    0.6192 H   0  0  0  0  0  0  0  0  0  0  0  0
   -5.9550   -0.9290    0.7515 H   0  0  0  0  0  0  0  0  0  0  0  0
   -6.5575    1.4662    0.9859 H   0  0  0  0  0  0  0  0  0  0  0  0
    0.6163   -4.9656    0.3027 H   0  0  0  0  0  0  0  0  0  0  0  0
   -1.9473   -0.5101   -3.4491 H   0  0  0  0  0  0  0  0  0  0  0  0
  1 13  1  0  0  0  0
  2 17  1  0  0  0  0
  3 19  1  0  0  0  0
  3 35  1  0  0  0  0
  4 19  2  0  0  0  0
  5 22  1  0  0  0  0
  5 36  1  0  0  0  0
  6 22  2  0  0  0  0
  7 10  1  0  0  0  0
  7 11  1  0  0  0  0
  7 26  1  0  0  0  0
  8  9  1  0  0  0  0
  8 10  2  0  0  0  0
  8 13  1  0  0  0  0
  9 11  2  0  0  0  0
  9 12  1  0  0  0  0
 10 14  1  0  0  0  0
 11 19  1  0  0  0  0
 12 15  2  0  0  0  0
 12 27  1  0  0  0  0
 13 16  2  0  0  0  0
 14 17  2  0  0  0  0
 14 28  1  0  0  0  0
 15 18  1  0  0  0  0
 15 22  1  0  0  0  0
 16 17  1  0  0  0  0
 16 29  1  0  0  0  0
 18 20  2  0  0  0  0
 18 21  1  0  0  0  0
 20 23  1  0  0  0  0
 20 30  1  0  0  0  0
 21 24  2  0  0  0  0
 21 31  1  0  0  0  0
 23 25  2  0  0  0  0
 23 32  1  0  0  0  0
 24 25  1  0  0  0  0
 24 33  1  0  0  0  0
 25 34  1  0  0  0  0
M  END
> <PUBCHEM_COMPOUND_CID>
4023

> <PUBCHEM_CONFORMER_RMSD>
0.8

> <PUBCHEM_CONFORMER_DIVERSEORDER>
1
2
3

> <PUBCHEM_MMFF94_PARTIAL_CHARGES>
35
1 -0.18
10 -0.15
11 -0.24
12 -0.1
13 0.18
14 -0.15
15 -0.01
16 -0.15
17 0.18
18 0.03
19 0.81
2 -0.18
20 -0.15
21 -0.15
22 0.71
23 -0.15
24 -0.15
25 -0.15
26 0.27
27 0.15
28 0.15
29 0.15
3 -0.65
30 0.15
31 0.15
32 0.15
33 0.15
34 0.15
35 0.5
36 0.5
4 -0.57
5 -0.65
6 -0.57
7 0.03
9 -0.05

> <PUBCHEM_EFFECTIVE_ROTOR_COUNT>
4

> <PUBCHEM_PHARMACOPHORE_FEATURES>
11
1 3 acceptor
1 4 acceptor
1 5 acceptor
1 6 acceptor
1 7 cation
1 7 donor
3 3 4 19 anion
3 5 6 22 anion
5 7 8 9 10 11 rings
6 18 20 21 23 24 25 rings
6 8 10 13 14 16 17 rings

> <PUBCHEM_HEAVY_ATOM_COUNT>
25

> <PUBCHEM_ATOM_DEF_STEREO_COUNT>
0

> <PUBCHEM_ATOM_UDEF_STEREO_COUNT>
0

> <PUBCHEM_BOND_DEF_STEREO_COUNT>
0

> <PUBCHEM_BOND_UDEF_STEREO_COUNT>
1

> <PUBCHEM_ISOTOPIC_ATOM_COUNT>
0

> <PUBCHEM_COMPONENT_COUNT>
1

> <PUBCHEM_CACTVS_TAUTO_COUNT>
3

> <PUBCHEM_CONFORMER_ID>
00000FB700000001

> <PUBCHEM_MMFF94_ENERGY>
69.3601

> <PUBCHEM_FEATURE_SELFOVERLAP>
56.028

> <PUBCHEM_SHAPE_FINGERPRINT>
10064457 181 18340767035749817452
10165383 225 18271802398302476028
10411042 1 17546444943520631970
10493431 412 18412544271518414352
10930396 42 7492434410317609766
11370993 70 18413387627218136803
11796584 16 14923939029848905844
12107183 9 17471286727277081209
12173636 292 18337957766208025839
12236239 1 17894630357188793520
12293681 160 17894343372275672568
12633257 1 18200321038493664155
12730499 353 18341038696758146091
12788726 201 17191764005816563166
13140716 1 18341901788149279730
13583140 156 18338804511322824829
138480 1 17907015436521469194
14341114 176 18410283740453246865
14341114 328 18333448759728500289
14787075 74 18334014952424577371
14790565 3 18411412900035058312
14955137 171 18053673752665404978
15342168 16 18271802389469896492
15927050 60 18410291381343205522
18785283 64 18271807986107857530
19784866 9 18335703883356580720
20739085 24 18272649103807604948
21041028 32 17762064632651407370
21421861 104 17983576591552589856
21756936 100 18262243201276554180
22079108 93 18337955593060069129
229495 10 18195545902412231349
23227448 37 18262236625507349439
23558518 356 17829057506664365541
23559900 14 18051133893594561747
23566358 27 18264492952064344135
238 59 17696798588757317167
23845131 108 18343867701812326131
25 1 18410017619894643032
335352 9 18411134741415801470
350125 39 18124872365595394426
392239 28 18266727005695057227
4340502 62 18411129230376882675
469060 322 16270819805190239695
474 4 18410012147689680737
5104073 3 18200869690690809561
621550 34 17988082308778275695
633830 44 18334579061649884302
6442390 28 18341608200705164018
81228 2 17339012836639420570
8272917 22 18263921201906919315
9999458 23 18337949090432188319

> <PUBCHEM_SHAPE_MULTIPOLES>
489.77
10.54
3.41
1.19
1.76
2.8
-0.98
-7.81
1.46
-1.5
0.89
0.74
0.1
-0.44

> <PUBCHEM_SHAPE_SELFOVERLAP>
1070.113

> <PUBCHEM_SHAPE_VOLUME>
268.2

> <PUBCHEM_COORDINATE_TYPE>
2
5
10

$$$$

