11371
  -OEChem-06261205352D

 30 31  0     0  0  0  0  0  0999 V2000
    5.1350    2.8450    0.0000 O   0  0  0  0  0  0  0  0  0  0  0  0
    2.5369   -1.6550    0.0000 O   0  0  0  0  0  0  0  0  0  0  0  0
    3.4030   -0.1550    0.0000 O   0  0  0  0  0  0  0  0  0  0  0  0
    4.2690    1.3450    0.0000 O   0  0  0  0  0  0  0  0  0  0  0  0
    5.1350   -0.1550    0.0000 N   0  0  0  0  0  0  0  0  0  0  0  0
    5.1350   -1.1550    0.0000 C   0  0  0  0  0  0  0  0  0  0  0  0
    6.0010    0.3450    0.0000 C   0  0  0  0  0  0  0  0  0  0  0  0
    4.2690   -1.6550    0.0000 C   0  0  0  0  0  0  0  0  0  0  0  0
    6.0010    1.3450    0.0000 C   0  0  0  0  0  0  0  0  0  0  0  0
    6.0010   -1.6550    0.0000 C   0  0  0  0  0  0  0  0  0  0  0  0
    6.8671   -0.1550    0.0000 C   0  0  0  0  0  0  0  0  0  0  0  0
    4.2690   -2.6550    0.0000 C   0  0  0  0  0  0  0  0  0  0  0  0
    6.8671    1.8450    0.0000 C   0  0  0  0  0  0  0  0  0  0  0  0
    6.0010   -2.6550    0.0000 C   0  0  0  0  0  0  0  0  0  0  0  0
    7.7331    0.3450    0.0000 C   0  0  0  0  0  0  0  0  0  0  0  0
    7.7331    1.3450    0.0000 C   0  0  0  0  0  0  0  0  0  0  0  0
    5.1350   -3.1550    0.0000 C   0  0  0  0  0  0  0  0  0  0  0  0
    3.4030   -1.1550    0.0000 C   0  0  0  0  0  0  0  0  0  0  0  0
    5.1350    1.8450    0.0000 C   0  0  0  0  0  0  0  0  0  0  0  0
    4.5981    0.1550    0.0000 H   0  0  0  0  0  0  0  0  0  0  0  0
    6.5380   -1.3450    0.0000 H   0  0  0  0  0  0  0  0  0  0  0  0
    6.8671   -0.7750    0.0000 H   0  0  0  0  0  0  0  0  0  0  0  0
    3.7320   -2.9650    0.0000 H   0  0  0  0  0  0  0  0  0  0  0  0
    6.8671    2.4650    0.0000 H   0  0  0  0  0  0  0  0  0  0  0  0
    6.5380   -2.9650    0.0000 H   0  0  0  0  0  0  0  0  0  0  0  0
    8.2700    0.0350    0.0000 H   0  0  0  0  0  0  0  0  0  0  0  0
    5.1350   -3.7750    0.0000 H   0  0  0  0  0  0  0  0  0  0  0  0
    8.2700    1.6550    0.0000 H   0  0  0  0  0  0  0  0  0  0  0  0
    2.0000   -1.3450    0.0000 H   0  0  0  0  0  0  0  0  0  0  0  0
    5.6720    3.1550    0.0000 H   0  0  0  0  0  0  0  0  0  0  0  0
  1 19  1  0  0  0  0
  1 30  1  0  0  0  0
  2 18  1  0  0  0  0
  2 29  1  0  0  0  0
  3 18  2  0  0  0  0
  4 19  2  0  0  0  0
  5  6  1  0  0  0  0
  5  7  1  0  0  0  0
  5 20  1  0  0  0  0
  6  8  1  0  0  0  0
  6 10  2  0  0  0  0
  7  9  1  0  0  0  0
  7 11  2  0  0  0  0
  8 12  2  0  0  0  0
  8 18  1  0  0  0  0
  9 13  2  0  0  0  0
  9 19  1  0  0  0  0
 10 14  1  0  0  0  0
 10 21  1  0  0  0  0
 11 15  1  0  0  0  0
 11 22  1  0  0  0  0
 12 17  1  0  0  0  0
 12 23  1  0  0  0  0
 13 16  1  0  0  0  0
 13 24  1  0  0  0  0
 14 17  2  0  0  0  0
 14 25  1  0  0  0  0
 15 16  2  0  0  0  0
 15 26  1  0  0  0  0
 16 28  1  0  0  0  0
 17 27  1  0  0  0  0
M  END
> <PUBCHEM_COMPOUND_CID>
11371

> <PUBCHEM_COMPOUND_CANONICALIZED>
1

> <PUBCHEM_CACTVS_COMPLEXITY>
312

> <PUBCHEM_CACTVS_HBOND_ACCEPTOR>
5

> <PUBCHEM_CACTVS_HBOND_DONOR>
3

> <PUBCHEM_CACTVS_ROTATABLE_BOND>
4

> <PUBCHEM_CACTVS_SUBSKEYS>
AAADccByOAAAAAAAAAAAAAAAAAAAAAAAAAAwYAAAAAAAAAABQAAAHgAQCAAADAiBmAAwyILAAgCIAiTSSACCAAAlAgAIiAEAbMgIJnrAlZGEcYhm0AHI2ceYyCCOAAAAAAACAAAAAAAAAAQAAAAAAAAAAA==

> <PUBCHEM_IUPAC_OPENEYE_NAME>
2-(2-carboxyanilino)benzoic acid

> <PUBCHEM_IUPAC_CAS_NAME>
2-(2-carboxyanilino)benzoic acid

> <PUBCHEM_IUPAC_NAME>
2-(2-carboxyanilino)benzoic acid

> <PUBCHEM_IUPAC_SYSTEMATIC_NAME>
2-[(2-carboxyphenyl)amino]benzoic acid

> <PUBCHEM_IUPAC_TRADITIONAL_NAME>
2-(2-carboxyanilino)benzoic acid

> <PUBCHEM_IUPAC_INCHI>
InChI=1S/C14H11NO4/c16-13(17)9-5-1-3-7-11(9)15-12-8-4-2-6-10(12)14(18)19/h1-8,15H,(H,16,17)(H,18,19)

> <PUBCHEM_IUPAC_INCHIKEY>
ZFRNOTZQUGWMQN-UHFFFAOYSA-N

> <PUBCHEM_XLOGP3>
3.9

> <PUBCHEM_EXACT_MASS>
257.068808

> <PUBCHEM_MOLECULAR_FORMULA>
C14H11NO4

> <PUBCHEM_MOLECULAR_WEIGHT>
257.24144

> <PUBCHEM_OPENEYE_CAN_SMILES>
C1=CC=C(C(=C1)C(=O)O)NC2=CC=CC=C2C(=O)O

> <PUBCHEM_OPENEYE_ISO_SMILES>
C1=CC=C(C(=C1)C(=O)O)NC2=CC=CC=C2C(=O)O

> <PUBCHEM_CACTVS_TPSA>
86.6

> <PUBCHEM_MONOISOTOPIC_WEIGHT>
257.068808

> <PUBCHEM_TOTAL_CHARGE>
0

> <PUBCHEM_HEAVY_ATOM_COUNT>
19

> <PUBCHEM_ATOM_DEF_STEREO_COUNT>
0

> <PUBCHEM_ATOM_UDEF_STEREO_COUNT>
0

> <PUBCHEM_BOND_DEF_STEREO_COUNT>
0

> <PUBCHEM_BOND_UDEF_STEREO_COUNT>
0

> <PUBCHEM_ISOTOPIC_ATOM_COUNT>
0

> <PUBCHEM_COMPONENT_COUNT>
1

> <PUBCHEM_CACTVS_TAUTO_COUNT>
4

> <PUBCHEM_COORDINATE_TYPE>
1
5
255

> <PUBCHEM_BONDANNOTATIONS>
10  14  8
11  15  8
12  17  8
13  16  8
14  17  8
15  16  8
6  10  8
6  8  8
7  11  8
7  9  8
8  12  8
9  13  8

$$$$

