17396342
  -OEChem-06241222562D

 40 42  0     0  0  0  0  0  0999 V2000
    3.2330    0.9788    0.0000 S   0  0  0  0  0  0  0  0  0  0  0  0
    9.4086    0.5516    0.0000 O   0  0  0  0  0  0  0  0  0  0  0  0
    6.4053   -0.0394    0.0000 O   0  0  0  0  0  0  0  0  0  0  0  0
    6.9406   -1.6867    0.0000 O   0  0  0  0  0  0  0  0  0  0  0  0
    2.0000    2.3400    0.0000 O   0  0  0  0  0  0  0  0  0  0  0  0
    9.7176   -0.3995    0.0000 N   0  0  0  0  0  0  0  0  0  0  0  0
    4.8157    1.3152    0.0000 N   0  0  0  0  0  0  0  0  0  0  0  0
    3.6942    2.7001    0.0000 N   0  0  0  0  0  0  0  0  0  0  0  0
    8.0995   -0.3995    0.0000 C   0  0  0  0  0  0  0  0  0  0  0  0
    8.9086   -0.9873    0.0000 C   0  0  0  0  0  0  0  0  0  0  0  0
    8.9086   -1.9873    0.0000 C   0  0  0  0  0  0  0  0  0  0  0  0
    8.4086    0.5516    0.0000 C   0  0  0  0  0  0  0  0  0  0  0  0
    7.1485   -0.7085    0.0000 C   0  0  0  0  0  0  0  0  0  0  0  0
    5.4543   -0.3484    0.0000 C   0  0  0  0  0  0  0  0  0  0  0  0
    8.0425   -2.4873    0.0000 C   0  0  0  0  0  0  0  0  0  0  0  0
    9.7746   -2.4873    0.0000 C   0  0  0  0  0  0  0  0  0  0  0  0
    4.7111    0.3207    0.0000 C   0  0  0  0  0  0  0  0  0  0  0  0
    7.8208    1.3606    0.0000 C   0  0  0  0  0  0  0  0  0  0  0  0
    8.0425   -3.4873    0.0000 C   0  0  0  0  0  0  0  0  0  0  0  0
    9.7746   -3.4873    0.0000 C   0  0  0  0  0  0  0  0  0  0  0  0
    3.7330    0.1128    0.0000 C   0  0  0  0  0  0  0  0  0  0  0  0
    8.9086   -3.9873    0.0000 C   0  0  0  0  0  0  0  0  0  0  0  0
    3.9021    1.7220    0.0000 C   0  0  0  0  0  0  0  0  0  0  0  0
    2.7431    3.0091    0.0000 C   0  0  0  0  0  0  0  0  0  0  0  0
    2.5352    3.9873    0.0000 C   0  0  0  0  0  0  0  0  0  0  0  0
    4.9657   -0.7301    0.0000 H   0  0  0  0  0  0  0  0  0  0  0  0
    5.7454   -0.8958    0.0000 H   0  0  0  0  0  0  0  0  0  0  0  0
    7.5056   -2.1773    0.0000 H   0  0  0  0  0  0  0  0  0  0  0  0
   10.3115   -2.1773    0.0000 H   0  0  0  0  0  0  0  0  0  0  0  0
    8.3224    1.7250    0.0000 H   0  0  0  0  0  0  0  0  0  0  0  0
    7.4563    1.8622    0.0000 H   0  0  0  0  0  0  0  0  0  0  0  0
    7.3192    0.9961    0.0000 H   0  0  0  0  0  0  0  0  0  0  0  0
    7.5056   -3.7973    0.0000 H   0  0  0  0  0  0  0  0  0  0  0  0
   10.3115   -3.7973    0.0000 H   0  0  0  0  0  0  0  0  0  0  0  0
    3.4808   -0.4536    0.0000 H   0  0  0  0  0  0  0  0  0  0  0  0
    8.9086   -4.6073    0.0000 H   0  0  0  0  0  0  0  0  0  0  0  0
    4.1550    3.1150    0.0000 H   0  0  0  0  0  0  0  0  0  0  0  0
    3.1417    4.1162    0.0000 H   0  0  0  0  0  0  0  0  0  0  0  0
    2.4063    4.5937    0.0000 H   0  0  0  0  0  0  0  0  0  0  0  0
    1.9288    3.8584    0.0000 H   0  0  0  0  0  0  0  0  0  0  0  0
  1 21  1  0  0  0  0
  1 23  1  0  0  0  0
  2  6  1  0  0  0  0
  2 12  1  0  0  0  0
  3 13  1  0  0  0  0
  3 14  1  0  0  0  0
  4 13  2  0  0  0  0
  5 24  2  0  0  0  0
  6 10  2  0  0  0  0
  7 17  1  0  0  0  0
  7 23  2  0  0  0  0
  8 23  1  0  0  0  0
  8 24  1  0  0  0  0
  8 37  1  0  0  0  0
  9 10  1  0  0  0  0
  9 12  2  0  0  0  0
  9 13  1  0  0  0  0
 10 11  1  0  0  0  0
 11 15  2  0  0  0  0
 11 16  1  0  0  0  0
 12 18  1  0  0  0  0
 14 17  1  0  0  0  0
 14 26  1  0  0  0  0
 14 27  1  0  0  0  0
 15 19  1  0  0  0  0
 15 28  1  0  0  0  0
 16 20  2  0  0  0  0
 16 29  1  0  0  0  0
 17 21  2  0  0  0  0
 18 30  1  0  0  0  0
 18 31  1  0  0  0  0
 18 32  1  0  0  0  0
 19 22  2  0  0  0  0
 19 33  1  0  0  0  0
 20 22  1  0  0  0  0
 20 34  1  0  0  0  0
 21 35  1  0  0  0  0
 22 36  1  0  0  0  0
 24 25  1  0  0  0  0
 25 38  1  0  0  0  0
 25 39  1  0  0  0  0
 25 40  1  0  0  0  0
M  END
> <PUBCHEM_COMPOUND_CID>
17396342

> <PUBCHEM_COMPOUND_CANONICALIZED>
1

> <PUBCHEM_CACTVS_COMPLEXITY>
487

> <PUBCHEM_CACTVS_HBOND_ACCEPTOR>
7

> <PUBCHEM_CACTVS_HBOND_DONOR>
1

> <PUBCHEM_CACTVS_ROTATABLE_BOND>
6

> <PUBCHEM_CACTVS_SUBSKEYS>
AAADccB7OABAAAAAAAAAAAAAAAAAAWLAAAAwAAAAAAAAAAAB8AAAHgQUAAAADAyl3gKznZLYFAitA6XyfgSC8KllKjkpmDU0bNqKJ76ouZuDMcBvsRoY6WeYyOCOAAAAAAAAAAAAAAAAAAAAAAAAAAAAAA==

> <PUBCHEM_IUPAC_OPENEYE_NAME>
(2-acetamidothiazol-4-yl)methyl 5-methyl-3-phenyl-isoxazole-4-carboxylate

> <PUBCHEM_IUPAC_CAS_NAME>
5-methyl-3-phenyl-4-isoxazolecarboxylic acid (2-acetamido-4-thiazolyl)methyl ester

> <PUBCHEM_IUPAC_NAME>
(2-acetamido-1,3-thiazol-4-yl)methyl 5-methyl-3-phenyl-1,2-oxazole-4-carboxylate

> <PUBCHEM_IUPAC_SYSTEMATIC_NAME>
(2-acetamido-1,3-thiazol-4-yl)methyl 5-methyl-3-phenyl-1,2-oxazole-4-carboxylate

> <PUBCHEM_IUPAC_TRADITIONAL_NAME>
5-methyl-3-phenyl-isoxazole-4-carboxylic acid (2-acetamidothiazol-4-yl)methyl ester

> <PUBCHEM_IUPAC_INCHI>
InChI=1S/C17H15N3O4S/c1-10-14(15(20-24-10)12-6-4-3-5-7-12)16(22)23-8-13-9-25-17(19-13)18-11(2)21/h3-7,9H,8H2,1-2H3,(H,18,19,21)

> <PUBCHEM_IUPAC_INCHIKEY>
ODICVSCOIYSNNO-UHFFFAOYSA-N

> <PUBCHEM_XLOGP3_AA>
2.4

> <PUBCHEM_EXACT_MASS>
357.078327

> <PUBCHEM_MOLECULAR_FORMULA>
C17H15N3O4S

> <PUBCHEM_MOLECULAR_WEIGHT>
357.3837

> <PUBCHEM_OPENEYE_CAN_SMILES>
CC1=C(C(=NO1)C2=CC=CC=C2)C(=O)OCC3=CSC(=N3)NC(=O)C

> <PUBCHEM_OPENEYE_ISO_SMILES>
CC1=C(C(=NO1)C2=CC=CC=C2)C(=O)OCC3=CSC(=N3)NC(=O)C

> <PUBCHEM_CACTVS_TPSA>
123

> <PUBCHEM_MONOISOTOPIC_WEIGHT>
357.078327

> <PUBCHEM_TOTAL_CHARGE>
0

> <PUBCHEM_HEAVY_ATOM_COUNT>
25

> <PUBCHEM_ATOM_DEF_STEREO_COUNT>
0

> <PUBCHEM_ATOM_UDEF_STEREO_COUNT>
0

> <PUBCHEM_BOND_DEF_STEREO_COUNT>
0

> <PUBCHEM_BOND_UDEF_STEREO_COUNT>
0

> <PUBCHEM_ISOTOPIC_ATOM_COUNT>
0

> <PUBCHEM_COMPONENT_COUNT>
1

> <PUBCHEM_CACTVS_TAUTO_COUNT>
5

> <PUBCHEM_COORDINATE_TYPE>
1
5
255

> <PUBCHEM_BONDANNOTATIONS>
1  21  8
1  23  8
11  15  8
11  16  8
15  19  8
16  20  8
17  21  8
19  22  8
2  12  8
2  6  8
20  22  8
6  10  8
7  17  8
7  23  8
9  10  8
9  12  8

$$$$

