442861
  -OEChem-07051213002D

 44 47  0     1  0  0  0  0  0999 V2000
    5.3147   -1.9319    0.0000 O   0  0  0  0  0  0  0  0  0  0  0  0
    3.5827    1.0681    0.0000 O   0  0  0  0  0  0  0  0  0  0  0  0
    7.0747    1.1027    0.0000 O   0  0  0  0  0  0  0  0  0  0  0  0
    7.0631   -1.9665    0.0000 O   0  0  0  0  0  0  0  0  0  0  0  0
    3.4782   -1.9264    0.0000 N   0  0  3  0  0  0  0  0  0  0  0  0
    3.5827   -0.9319    0.0000 C   0  0  3  0  0  0  0  0  0  0  0  0
    2.6691   -0.5252    0.0000 C   0  0  0  0  0  0  0  0  0  0  0  0
    2.0000   -1.2683    0.0000 C   0  0  0  0  0  0  0  0  0  0  0  0
    2.5000   -2.1344    0.0000 C   0  0  0  0  0  0  0  0  0  0  0  0
    4.4487   -0.4319    0.0000 C   0  0  0  0  0  0  0  0  0  0  0  0
    4.2213   -2.5956    0.0000 C   0  0  0  0  0  0  0  0  0  0  0  0
    5.3147   -0.9319    0.0000 C   0  0  0  0  0  0  0  0  0  0  0  0
    4.4487    0.5681    0.0000 C   0  0  0  0  0  0  0  0  0  0  0  0
    6.1808   -0.4319    0.0000 C   0  0  0  0  0  0  0  0  0  0  0  0
    5.3147    1.0681    0.0000 C   0  0  0  0  0  0  0  0  0  0  0  0
    6.1808    0.5681    0.0000 C   0  0  0  0  0  0  0  0  0  0  0  0
    7.0747   -0.9666    0.0000 C   0  0  0  0  0  0  0  0  0  0  0  0
    7.9808    0.5889    0.0000 C   0  0  0  0  0  0  0  0  0  0  0  0
    7.9808   -0.4527    0.0000 C   0  0  0  0  0  0  0  0  0  0  0  0
    8.8448    1.0922    0.0000 C   0  0  0  0  0  0  0  0  0  0  0  0
    9.7128    0.5956    0.0000 C   0  0  0  0  0  0  0  0  0  0  0  0
    8.8410    2.0922    0.0000 C   0  0  0  0  0  0  0  0  0  0  0  0
   10.5769    1.0989    0.0000 C   0  0  0  0  0  0  0  0  0  0  0  0
    9.7051    2.5956    0.0000 C   0  0  0  0  0  0  0  0  0  0  0  0
   10.5730    2.0989    0.0000 C   0  0  0  0  0  0  0  0  0  0  0  0
    4.1026   -1.2696    0.0000 H   0  0  0  0  0  0  0  0  0  0  0  0
    2.9791    0.0118    0.0000 H   0  0  0  0  0  0  0  0  0  0  0  0
    2.1675   -0.1607    0.0000 H   0  0  0  0  0  0  0  0  0  0  0  0
    1.5851   -0.8076    0.0000 H   0  0  0  0  0  0  0  0  0  0  0  0
    1.4984   -1.6328    0.0000 H   0  0  0  0  0  0  0  0  0  0  0  0
    1.9336   -2.3865    0.0000 H   0  0  0  0  0  0  0  0  0  0  0  0
    2.6916   -2.7240    0.0000 H   0  0  0  0  0  0  0  0  0  0  0  0
    3.8064   -3.0563    0.0000 H   0  0  0  0  0  0  0  0  0  0  0  0
    4.6820   -3.0104    0.0000 H   0  0  0  0  0  0  0  0  0  0  0  0
    4.6362   -2.1348    0.0000 H   0  0  0  0  0  0  0  0  0  0  0  0
    5.3147    1.6881    0.0000 H   0  0  0  0  0  0  0  0  0  0  0  0
    5.8517   -2.2419    0.0000 H   0  0  0  0  0  0  0  0  0  0  0  0
    3.5827    1.6881    0.0000 H   0  0  0  0  0  0  0  0  0  0  0  0
    8.5165   -0.7648    0.0000 H   0  0  0  0  0  0  0  0  0  0  0  0
    9.7152   -0.0244    0.0000 H   0  0  0  0  0  0  0  0  0  0  0  0
    8.3029    2.4002    0.0000 H   0  0  0  0  0  0  0  0  0  0  0  0
   11.1150    0.7910    0.0000 H   0  0  0  0  0  0  0  0  0  0  0  0
    9.7027    3.2156    0.0000 H   0  0  0  0  0  0  0  0  0  0  0  0
   11.1088    2.4110    0.0000 H   0  0  0  0  0  0  0  0  0  0  0  0
  1 12  1  0  0  0  0
  1 37  1  0  0  0  0
  2 13  1  0  0  0  0
  2 38  1  0  0  0  0
  3 16  1  0  0  0  0
  3 18  1  0  0  0  0
  4 17  2  0  0  0  0
  5  6  1  0  0  0  0
  5  9  1  0  0  0  0
  5 11  1  0  0  0  0
  6  7  1  0  0  0  0
  6 10  1  0  0  0  0
  6 26  1  0  0  0  0
  7  8  1  0  0  0  0
  7 27  1  0  0  0  0
  7 28  1  0  0  0  0
  8  9  1  0  0  0  0
  8 29  1  0  0  0  0
  8 30  1  0  0  0  0
  9 31  1  0  0  0  0
  9 32  1  0  0  0  0
 10 12  2  0  0  0  0
 10 13  1  0  0  0  0
 11 33  1  0  0  0  0
 11 34  1  0  0  0  0
 11 35  1  0  0  0  0
 12 14  1  0  0  0  0
 13 15  2  0  0  0  0
 14 16  2  0  0  0  0
 14 17  1  0  0  0  0
 15 16  1  0  0  0  0
 15 36  1  0  0  0  0
 17 19  1  0  0  0  0
 18 19  2  0  0  0  0
 18 20  1  0  0  0  0
 19 39  1  0  0  0  0
 20 21  2  0  0  0  0
 20 22  1  0  0  0  0
 21 23  1  0  0  0  0
 21 40  1  0  0  0  0
 22 24  2  0  0  0  0
 22 41  1  0  0  0  0
 23 25  2  0  0  0  0
 23 42  1  0  0  0  0
 24 25  1  0  0  0  0
 24 43  1  0  0  0  0
 25 44  1  0  0  0  0
M  END
> <PUBCHEM_COMPOUND_CID>
442861

> <PUBCHEM_COMPOUND_CANONICALIZED>
1

> <PUBCHEM_CACTVS_COMPLEXITY>
542

> <PUBCHEM_CACTVS_HBOND_ACCEPTOR>
5

> <PUBCHEM_CACTVS_HBOND_DONOR>
2

> <PUBCHEM_CACTVS_ROTATABLE_BOND>
2

> <PUBCHEM_CACTVS_SUBSKEYS>
AAADceB6OAAAAAAAAAAAAAAAAAAAAWAAAAAwYIAAAAAAAACBQAAAHgAACAAADCzBmAQyBoMABgCIAqBSAACCCAAkIAAIiAEODMgMJzaGtRuGeWjn4BWIuQeY/e/eIAACCAAIAABAAAQQABAAAAAAAAAAAA==

> <PUBCHEM_IUPAC_OPENEYE_NAME>
5,7-dihydroxy-6-(1-methylpyrrolidin-2-yl)-2-phenyl-chromen-4-one

> <PUBCHEM_IUPAC_CAS_NAME>
5,7-dihydroxy-6-(1-methyl-2-pyrrolidinyl)-2-phenyl-1-benzopyran-4-one

> <PUBCHEM_IUPAC_NAME>
5,7-dihydroxy-6-(1-methylpyrrolidin-2-yl)-2-phenylchromen-4-one

> <PUBCHEM_IUPAC_SYSTEMATIC_NAME>
6-(1-methylpyrrolidin-2-yl)-5,7-bis(oxidanyl)-2-phenyl-chromen-4-one

> <PUBCHEM_IUPAC_TRADITIONAL_NAME>
5,7-dihydroxy-6-(1-methylpyrrolidin-2-yl)-2-phenyl-chromone

> <PUBCHEM_IUPAC_INCHI>
InChI=1S/C20H19NO4/c1-21-9-5-8-13(21)18-14(22)11-17-19(20(18)24)15(23)10-16(25-17)12-6-3-2-4-7-12/h2-4,6-7,10-11,13,22,24H,5,8-9H2,1H3

> <PUBCHEM_IUPAC_INCHIKEY>
OTHGANFGYSWHJH-UHFFFAOYSA-N

> <PUBCHEM_XLOGP3_AA>
3.4

> <PUBCHEM_EXACT_MASS>
337.131408

> <PUBCHEM_MOLECULAR_FORMULA>
C20H19NO4

> <PUBCHEM_MOLECULAR_WEIGHT>
337.36916

> <PUBCHEM_OPENEYE_CAN_SMILES>
CN1CCCC1C2=C(C=C3C(=C2O)C(=O)C=C(O3)C4=CC=CC=C4)O

> <PUBCHEM_OPENEYE_ISO_SMILES>
CN1CCCC1C2=C(C=C3C(=C2O)C(=O)C=C(O3)C4=CC=CC=C4)O

> <PUBCHEM_CACTVS_TPSA>
70

> <PUBCHEM_MONOISOTOPIC_WEIGHT>
337.131408

> <PUBCHEM_TOTAL_CHARGE>
0

> <PUBCHEM_HEAVY_ATOM_COUNT>
25

> <PUBCHEM_ATOM_DEF_STEREO_COUNT>
0

> <PUBCHEM_ATOM_UDEF_STEREO_COUNT>
1

> <PUBCHEM_BOND_DEF_STEREO_COUNT>
0

> <PUBCHEM_BOND_UDEF_STEREO_COUNT>
0

> <PUBCHEM_ISOTOPIC_ATOM_COUNT>
0

> <PUBCHEM_COMPONENT_COUNT>
1

> <PUBCHEM_CACTVS_TAUTO_COUNT>
12

> <PUBCHEM_COORDINATE_TYPE>
1
5
255

> <PUBCHEM_BONDANNOTATIONS>
10  12  8
10  13  8
12  14  8
13  15  8
14  16  8
14  17  8
15  16  8
17  19  8
18  19  8
20  21  8
20  22  8
21  23  8
22  24  8
23  25  8
24  25  8
3  16  8
3  18  8
6  10  3

$$$$

