6858
  -OEChem-06261201323D

 26 26  0     0  0  0  0  0  0999 V2000
    2.2615    0.7825    0.4092 O   0  0  0  0  0  0  0  0  0  0  0  0
    0.0783    2.4578    0.0926 O   0  0  0  0  0  0  0  0  0  0  0  0
    1.8882   -1.9612    0.4604 O   0  0  0  0  0  0  0  0  0  0  0  0
   -3.8988   -0.6769   -0.2629 O   0  0  0  0  0  0  0  0  0  0  0  0
    1.0092    0.2592    0.2795 C   0  0  0  0  0  0  0  0  0  0  0  0
   -0.0880    1.1060    0.1219 C   0  0  0  0  0  0  0  0  0  0  0  0
    0.8251   -1.1232    0.3059 C   0  0  0  0  0  0  0  0  0  0  0  0
   -1.5533   -0.8123    0.0169 C   0  0  0  0  0  0  0  0  0  0  0  0
   -1.3692    0.5703   -0.0093 C   0  0  0  0  0  0  0  0  0  0  0  0
   -0.4560   -1.6590    0.1745 C   0  0  0  0  0  0  0  0  0  0  0  0
   -2.8886   -1.3716   -0.1207 C   0  0  0  0  0  0  0  0  0  0  0  0
    2.7442    1.5805   -0.6691 C   0  0  0  0  0  0  0  0  0  0  0  0
   -1.0951    3.2517   -0.0718 C   0  0  0  0  0  0  0  0  0  0  0  0
    2.5425   -2.4036   -0.7271 C   0  0  0  0  0  0  0  0  0  0  0  0
   -2.2525    1.1868   -0.1342 H   0  0  0  0  0  0  0  0  0  0  0  0
   -0.5908   -2.7380    0.1969 H   0  0  0  0  0  0  0  0  0  0  0  0
   -2.9703   -2.4715   -0.0928 H   0  0  0  0  0  0  0  0  0  0  0  0
    2.5692    2.6394   -0.4596 H   0  0  0  0  0  0  0  0  0  0  0  0
    2.2909    1.3007   -1.6266 H   0  0  0  0  0  0  0  0  0  0  0  0
    3.8244    1.4249   -0.7456 H   0  0  0  0  0  0  0  0  0  0  0  0
   -0.7765    4.2994   -0.0717 H   0  0  0  0  0  0  0  0  0  0  0  0
   -1.5756    3.0673   -1.0388 H   0  0  0  0  0  0  0  0  0  0  0  0
   -1.7862    3.1311    0.7695 H   0  0  0  0  0  0  0  0  0  0  0  0
    2.9460   -1.5538   -1.2861 H   0  0  0  0  0  0  0  0  0  0  0  0
    1.8508   -2.9728   -1.3562 H   0  0  0  0  0  0  0  0  0  0  0  0
    3.3706   -3.0568   -0.4387 H   0  0  0  0  0  0  0  0  0  0  0  0
  1  5  1  0  0  0  0
  1 12  1  0  0  0  0
  2  6  1  0  0  0  0
  2 13  1  0  0  0  0
  3  7  1  0  0  0  0
  3 14  1  0  0  0  0
  4 11  2  0  0  0  0
  5  6  2  0  0  0  0
  5  7  1  0  0  0  0
  6  9  1  0  0  0  0
  7 10  2  0  0  0  0
  8  9  2  0  0  0  0
  8 10  1  0  0  0  0
  8 11  1  0  0  0  0
  9 15  1  0  0  0  0
 10 16  1  0  0  0  0
 11 17  1  0  0  0  0
 12 18  1  0  0  0  0
 12 19  1  0  0  0  0
 12 20  1  0  0  0  0
 13 21  1  0  0  0  0
 13 22  1  0  0  0  0
 13 23  1  0  0  0  0
 14 24  1  0  0  0  0
 14 25  1  0  0  0  0
 14 26  1  0  0  0  0
M  END
> <PUBCHEM_COMPOUND_CID>
6858

> <PUBCHEM_CONFORMER_RMSD>
0.6

> <PUBCHEM_CONFORMER_DIVERSEORDER>
3
4
2
1

> <PUBCHEM_MMFF94_PARTIAL_CHARGES>
17
1 -0.36
10 -0.15
11 0.42
12 0.28
13 0.28
14 0.28
15 0.15
16 0.15
17 0.06
2 -0.36
3 -0.36
4 -0.57
5 0.08
6 0.08
7 0.08
8 0.09
9 -0.15

> <PUBCHEM_EFFECTIVE_ROTOR_COUNT>
4

> <PUBCHEM_PHARMACOPHORE_FEATURES>
5
1 1 acceptor
1 2 acceptor
1 3 acceptor
1 4 acceptor
6 5 6 7 8 9 10 rings

> <PUBCHEM_HEAVY_ATOM_COUNT>
14

> <PUBCHEM_ATOM_DEF_STEREO_COUNT>
0

> <PUBCHEM_ATOM_UDEF_STEREO_COUNT>
0

> <PUBCHEM_BOND_DEF_STEREO_COUNT>
0

> <PUBCHEM_BOND_UDEF_STEREO_COUNT>
0

> <PUBCHEM_ISOTOPIC_ATOM_COUNT>
0

> <PUBCHEM_COMPONENT_COUNT>
1

> <PUBCHEM_CACTVS_TAUTO_COUNT>
1

> <PUBCHEM_CONFORMER_ID>
00001ACA00000003

> <PUBCHEM_MMFF94_ENERGY>
65.7932

> <PUBCHEM_FEATURE_SELFOVERLAP>
25.381

> <PUBCHEM_SHAPE_FINGERPRINT>
1 1 17978514135297234991
10756046 5 18268701895596866708
10967382 1 18267023855894895227
11206711 2 18124310764225040727
116883 192 18191310579326875831
12423570 1 6335355844533544034
13140716 1 18338800151355740209
13380535 220 18124588945251615268
13380536 305 17906732501424208449
14617773 55 17968368052517905801
161256 15 18408040736389536250
16945 1 18193840345007762307
193761 8 18266741466206441920
20588541 1 18198905812156607619
20645476 183 17270313177177546678
20645477 70 18410019819166559271
20711985 365 18267025136032519767
20871999 31 17976809110711876254
21501502 16 18336822112435722152
2334 1 18410858767558954403
23402539 116 18045786685202229796
23419403 2 16034453590162849584
23552423 10 18342455992952881610
23557571 272 17900255605449714934
23559900 14 17396705758628955758
241688 4 18338516464270502923
25 1 18198910197449929839
2748010 2 18338807804871416655
3060560 45 18048606914867402391
3071541 250 18410003364397359094
528886 8 18194969530316517242
589210 1 18267020742254901004
7364860 26 18334014978062622674
81228 2 18123756623428742155

> <PUBCHEM_SHAPE_MULTIPOLES>
264.64
4.23
3.3
0.71
1.52
1.86
0.04
-1.76
0.8
-0.53
0.27
-0.21
-0.07
-0.04

> <PUBCHEM_SHAPE_SELFOVERLAP>
547.334

> <PUBCHEM_SHAPE_VOLUME>
153.1

> <PUBCHEM_COORDINATE_TYPE>
2
5
10

$$$$

