439401
  -OEChem-07051212453D

 21 20  0     1  0  0  0  0  0999 V2000
   -1.0129    1.4187    1.1582 O   0  0  0  0  0  0  0  0  0  0  0  0
   -2.7379    1.0525   -0.2675 O   0  0  0  0  0  0  0  0  0  0  0  0
    2.6269    0.8945    0.7135 O   0  0  0  0  0  0  0  0  0  0  0  0
   -2.3123   -1.6953    0.0729 N   0  0  0  0  0  0  0  0  0  0  0  0
    2.1277   -1.3261    0.9362 N   0  0  0  0  0  0  0  0  0  0  0  0
   -1.1888   -0.7693    0.2259 C   0  0  1  0  0  0  0  0  0  0  0  0
   -0.1632   -0.9324   -0.9109 C   0  0  0  0  0  0  0  0  0  0  0  0
    1.0563   -0.0433   -0.8180 C   0  0  0  0  0  0  0  0  0  0  0  0
   -1.7481    0.6383    0.3219 C   0  0  0  0  0  0  0  0  0  0  0  0
    2.0039   -0.0963    0.3368 C   0  0  0  0  0  0  0  0  0  0  0  0
    1.3485    0.8586   -1.7690 C   0  0  0  0  0  0  0  0  0  0  0  0
   -0.7166   -1.0062    1.1872 H   0  0  0  0  0  0  0  0  0  0  0  0
    0.1675   -1.9777   -0.9637 H   0  0  0  0  0  0  0  0  0  0  0  0
   -0.6745   -0.7437   -1.8659 H   0  0  0  0  0  0  0  0  0  0  0  0
   -2.9088   -1.6498    0.8983 H   0  0  0  0  0  0  0  0  0  0  0  0
   -1.9627   -2.6518    0.0276 H   0  0  0  0  0  0  0  0  0  0  0  0
    0.7137    0.9742   -2.6419 H   0  0  0  0  0  0  0  0  0  0  0  0
    2.2208    1.5020   -1.7177 H   0  0  0  0  0  0  0  0  0  0  0  0
   -1.3732    2.3290    1.2191 H   0  0  0  0  0  0  0  0  0  0  0  0
    1.6298   -2.1526    0.6237 H   0  0  0  0  0  0  0  0  0  0  0  0
    2.7487   -1.4529    1.7286 H   0  0  0  0  0  0  0  0  0  0  0  0
  1  9  1  0  0  0  0
  1 19  1  0  0  0  0
  2  9  2  0  0  0  0
  3 10  2  0  0  0  0
  4  6  1  0  0  0  0
  4 15  1  0  0  0  0
  4 16  1  0  0  0  0
  5 10  1  0  0  0  0
  5 20  1  0  0  0  0
  5 21  1  0  0  0  0
  6  7  1  0  0  0  0
  6  9  1  0  0  0  0
  6 12  1  0  0  0  0
  7  8  1  0  0  0  0
  7 13  1  0  0  0  0
  7 14  1  0  0  0  0
  8 10  1  0  0  0  0
  8 11  2  0  0  0  0
 11 17  1  0  0  0  0
 11 18  1  0  0  0  0
M  END
> <PUBCHEM_COMPOUND_CID>
439401

> <PUBCHEM_CONFORMER_RMSD>
0.6

> <PUBCHEM_CONFORMER_DIVERSEORDER>
1
81
77
50
72
33
26
65
78
74
24
10
57
79
58
14
44
25
59
27
36
12
68
3
38
30
55
70
48
80
5
13
76
7
6
60
47
51
19
41
56
28
45
75
2
42
23
62
64
21
52
18
37
31
16
71
73
61
8
29
34
63
43
20
35
4
17
39
9
54
15
66
11
32
40
53
46
22
49
67
69

> <PUBCHEM_MMFF94_PARTIAL_CHARGES>
18
1 -0.65
10 0.62
11 -0.3
15 0.36
16 0.36
17 0.15
18 0.15
19 0.5
2 -0.57
20 0.37
21 0.37
3 -0.57
4 -0.99
5 -0.8
6 0.33
7 0.14
8 -0.12
9 0.66

> <PUBCHEM_EFFECTIVE_ROTOR_COUNT>
4

> <PUBCHEM_PHARMACOPHORE_FEATURES>
8
1 1 acceptor
1 11 hydrophobe
1 2 acceptor
1 3 acceptor
1 4 cation
1 4 donor
1 5 donor
3 1 2 9 anion

> <PUBCHEM_HEAVY_ATOM_COUNT>
11

> <PUBCHEM_ATOM_DEF_STEREO_COUNT>
1

> <PUBCHEM_ATOM_UDEF_STEREO_COUNT>
0

> <PUBCHEM_BOND_DEF_STEREO_COUNT>
0

> <PUBCHEM_BOND_UDEF_STEREO_COUNT>
0

> <PUBCHEM_ISOTOPIC_ATOM_COUNT>
0

> <PUBCHEM_COMPONENT_COUNT>
1

> <PUBCHEM_CACTVS_TAUTO_COUNT>
2

> <PUBCHEM_CONFORMER_ID>
0006B46900000001

> <PUBCHEM_MMFF94_ENERGY>
15.5048

> <PUBCHEM_FEATURE_SELFOVERLAP>
40.653

> <PUBCHEM_SHAPE_FINGERPRINT>
10857977 72 17823126831433723943
12897270 3 5039657158553773757
13839132 238 17822280336165838060
15775835 57 18412538833958169824
16945 1 18192716871578165306
21040471 1 18118384358080946205
21922407 69 17701800133891629446
25610 171 17967251996480972211
29004967 10 16558752334281594044
369184 2 18410579487252548747
5084963 1 18269539667395848919

> <PUBCHEM_SHAPE_MULTIPOLES>
198.8
3.68
1.5
1.28
0.36
0.23
-0.25
-0.17
0.67
0.44
0.09
-0.56
-0.32
-0.51

> <PUBCHEM_SHAPE_SELFOVERLAP>
385.206

> <PUBCHEM_SHAPE_VOLUME>
120

> <PUBCHEM_COORDINATE_TYPE>
2
5
10

$$$$

