10775
  -OEChem-06261204572D

 31 31  0     1  0  0  0  0  0999 V2000
    3.7320   -0.9050    0.0000 O   0  0  0  0  0  0  0  0  0  0  0  0
    3.7320    1.0950    0.0000 O   0  0  0  0  0  0  0  0  0  0  0  0
    5.4641    2.0950    0.0000 O   0  0  0  0  0  0  0  0  0  0  0  0
    7.1962    2.0950    0.0000 O   0  0  0  0  0  0  0  0  0  0  0  0
    6.3301    3.5950    0.0000 N   0  0  0  0  0  0  0  0  0  0  0  0
    4.5981    0.5950    0.0000 C   0  0  3  0  0  0  0  0  0  0  0  0
    4.5981   -0.4050    0.0000 C   0  0  0  0  0  0  0  0  0  0  0  0
    5.4641    1.0950    0.0000 C   0  0  0  0  0  0  0  0  0  0  0  0
    3.7320   -1.9050    0.0000 C   0  0  0  0  0  0  0  0  0  0  0  0
    2.8660   -2.4050    0.0000 C   0  0  0  0  0  0  0  0  0  0  0  0
    4.5981   -2.4050    0.0000 C   0  0  0  0  0  0  0  0  0  0  0  0
    2.8660   -3.4050    0.0000 C   0  0  0  0  0  0  0  0  0  0  0  0
    2.0000   -1.9050    0.0000 C   0  0  0  0  0  0  0  0  0  0  0  0
    4.5981   -3.4050    0.0000 C   0  0  0  0  0  0  0  0  0  0  0  0
    3.7320   -3.9050    0.0000 C   0  0  0  0  0  0  0  0  0  0  0  0
    6.3301    2.5950    0.0000 C   0  0  0  0  0  0  0  0  0  0  0  0
    4.5981    1.2150    0.0000 H   0  0  0  0  0  0  0  0  0  0  0  0
    4.8101   -0.9876    0.0000 H   0  0  0  0  0  0  0  0  0  0  0  0
    5.2087   -0.2973    0.0000 H   0  0  0  0  0  0  0  0  0  0  0  0
    5.6762    0.5124    0.0000 H   0  0  0  0  0  0  0  0  0  0  0  0
    6.0747    1.2027    0.0000 H   0  0  0  0  0  0  0  0  0  0  0  0
    5.1350   -2.0950    0.0000 H   0  0  0  0  0  0  0  0  0  0  0  0
    2.3291   -3.7150    0.0000 H   0  0  0  0  0  0  0  0  0  0  0  0
    2.3100   -1.3681    0.0000 H   0  0  0  0  0  0  0  0  0  0  0  0
    1.4631   -1.5950    0.0000 H   0  0  0  0  0  0  0  0  0  0  0  0
    1.6900   -2.4419    0.0000 H   0  0  0  0  0  0  0  0  0  0  0  0
    3.7320    1.7150    0.0000 H   0  0  0  0  0  0  0  0  0  0  0  0
    5.1350   -3.7150    0.0000 H   0  0  0  0  0  0  0  0  0  0  0  0
    3.7320   -4.5250    0.0000 H   0  0  0  0  0  0  0  0  0  0  0  0
    6.8671    3.9050    0.0000 H   0  0  0  0  0  0  0  0  0  0  0  0
    5.7932    3.9050    0.0000 H   0  0  0  0  0  0  0  0  0  0  0  0
  1  7  1  0  0  0  0
  1  9  1  0  0  0  0
  2  6  1  0  0  0  0
  2 27  1  0  0  0  0
  3  8  1  0  0  0  0
  3 16  1  0  0  0  0
  4 16  2  0  0  0  0
  5 16  1  0  0  0  0
  5 30  1  0  0  0  0
  5 31  1  0  0  0  0
  6  7  1  0  0  0  0
  6  8  1  0  0  0  0
  6 17  1  0  0  0  0
  7 18  1  0  0  0  0
  7 19  1  0  0  0  0
  8 20  1  0  0  0  0
  8 21  1  0  0  0  0
  9 10  1  0  0  0  0
  9 11  2  0  0  0  0
 10 12  2  0  0  0  0
 10 13  1  0  0  0  0
 11 14  1  0  0  0  0
 11 22  1  0  0  0  0
 12 15  1  0  0  0  0
 12 23  1  0  0  0  0
 13 24  1  0  0  0  0
 13 25  1  0  0  0  0
 13 26  1  0  0  0  0
 14 15  2  0  0  0  0
 14 28  1  0  0  0  0
 15 29  1  0  0  0  0
M  END
> <PUBCHEM_COMPOUND_CID>
10775

> <PUBCHEM_COMPOUND_CANONICALIZED>
1

> <PUBCHEM_CACTVS_COMPLEXITY>
222

> <PUBCHEM_CACTVS_HBOND_ACCEPTOR>
4

> <PUBCHEM_CACTVS_HBOND_DONOR>
2

> <PUBCHEM_CACTVS_ROTATABLE_BOND>
6

> <PUBCHEM_CACTVS_SUBSKEYS>
AAADccByOAAAAAAAAAAAAAAAAAAAAAAAAAAwAAAAAAAAAAABAAAAHgAQCAAADBSgmAIyDoBABgCIAiBCGAACCAAgIAAIiAAGCIkNNiKEMRqKOCClwBELqAeAwCAOAAAAAAAIAAAAAAAAABAAAAAAAAAAAA==

> <PUBCHEM_IUPAC_OPENEYE_NAME>
[2-hydroxy-3-(2-methylphenoxy)propyl] carbamate

> <PUBCHEM_IUPAC_CAS_NAME>
carbamic acid [2-hydroxy-3-(2-methylphenoxy)propyl] ester

> <PUBCHEM_IUPAC_NAME>
[2-hydroxy-3-(2-methylphenoxy)propyl] carbamate

> <PUBCHEM_IUPAC_SYSTEMATIC_NAME>
[3-(2-methylphenoxy)-2-oxidanyl-propyl] carbamate

> <PUBCHEM_IUPAC_TRADITIONAL_NAME>
carbamic acid [2-hydroxy-3-(2-methylphenoxy)propyl] ester

> <PUBCHEM_IUPAC_INCHI>
InChI=1S/C11H15NO4/c1-8-4-2-3-5-10(8)15-6-9(13)7-16-11(12)14/h2-5,9,13H,6-7H2,1H3,(H2,12,14)

> <PUBCHEM_IUPAC_INCHIKEY>
KRPAJLYSLFNDOA-UHFFFAOYSA-N

> <PUBCHEM_XLOGP3>
1.4

> <PUBCHEM_EXACT_MASS>
225.100108

> <PUBCHEM_MOLECULAR_FORMULA>
C11H15NO4

> <PUBCHEM_MOLECULAR_WEIGHT>
225.2411

> <PUBCHEM_OPENEYE_CAN_SMILES>
CC1=CC=CC=C1OCC(COC(=O)N)O

> <PUBCHEM_OPENEYE_ISO_SMILES>
CC1=CC=CC=C1OCC(COC(=O)N)O

> <PUBCHEM_CACTVS_TPSA>
81.8

> <PUBCHEM_MONOISOTOPIC_WEIGHT>
225.100108

> <PUBCHEM_TOTAL_CHARGE>
0

> <PUBCHEM_HEAVY_ATOM_COUNT>
16

> <PUBCHEM_ATOM_DEF_STEREO_COUNT>
0

> <PUBCHEM_ATOM_UDEF_STEREO_COUNT>
1

> <PUBCHEM_BOND_DEF_STEREO_COUNT>
0

> <PUBCHEM_BOND_UDEF_STEREO_COUNT>
0

> <PUBCHEM_ISOTOPIC_ATOM_COUNT>
0

> <PUBCHEM_COMPONENT_COUNT>
1

> <PUBCHEM_CACTVS_TAUTO_COUNT>
2

> <PUBCHEM_COORDINATE_TYPE>
1
5
255

> <PUBCHEM_BONDANNOTATIONS>
10  12  8
11  14  8
12  15  8
14  15  8
6  2  3
9  10  8
9  11  8

$$$$

