442377
  -OEChem-07051212583D

 51 53  0     1  0  0  0  0  0999 V2000
   -0.8575   -1.3947    1.8272 O   0  0  0  0  0  0  0  0  0  0  0  0
    0.9956   -1.2866   -0.3459 O   0  0  0  0  0  0  0  0  0  0  0  0
    0.3506    2.6921    1.3565 O   0  0  0  0  0  0  0  0  0  0  0  0
    2.8039   -0.9542   -1.7383 O   0  0  0  0  0  0  0  0  0  0  0  0
   -1.3987   -0.6623   -0.4643 C   0  0  1  0  0  0  0  0  0  0  0  0
   -1.6878   -0.4758    1.0966 C   0  0  1  0  0  0  0  0  0  0  0  0
   -2.4332    0.2285   -1.2596 C   0  0  2  0  0  0  0  0  0  0  0  0
    0.1041   -0.2609   -0.7989 C   0  0  1  0  0  0  0  0  0  0  0  0
   -3.1516   -0.8264    1.4353 C   0  0  0  0  0  0  0  0  0  0  0  0
   -3.8954   -0.0968   -0.8837 C   0  0  0  0  0  0  0  0  0  0  0  0
   -1.3567    0.9559    1.6395 C   0  0  0  0  0  0  0  0  0  0  0  0
   -4.1679   -0.0412    0.6143 C   0  0  0  0  0  0  0  0  0  0  0  0
   -1.5642   -2.1591   -0.8652 C   0  0  0  0  0  0  0  0  0  0  0  0
    0.4740    1.0265   -0.1584 C   0  0  0  0  0  0  0  0  0  0  0  0
   -0.1789    1.5151    0.9455 C   0  0  0  0  0  0  0  0  0  0  0  0
   -2.3009    0.1549   -2.7880 C   0  0  0  0  0  0  0  0  0  0  0  0
    1.4891    1.9662   -0.4522 C   0  0  0  0  0  0  0  0  0  0  0  0
    1.3737    2.9591    0.4975 C   0  0  0  0  0  0  0  0  0  0  0  0
    2.4774    1.9046   -1.5438 C   0  0  0  0  0  0  0  0  0  0  0  0
    2.3171   -1.0803   -0.6223 C   0  0  0  0  0  0  0  0  0  0  0  0
    3.1036   -1.0425    0.6762 C   0  0  0  0  0  0  0  0  0  0  0  0
    2.9235   -2.3574    1.4253 C   0  0  0  0  0  0  0  0  0  0  0  0
    4.5802   -0.7647    0.4067 C   0  0  0  0  0  0  0  0  0  0  0  0
   -2.2652    1.2796   -0.9922 H   0  0  0  0  0  0  0  0  0  0  0  0
    0.2247   -0.1925   -1.8845 H   0  0  0  0  0  0  0  0  0  0  0  0
   -3.3349   -0.6552    2.5043 H   0  0  0  0  0  0  0  0  0  0  0  0
   -3.3296   -1.9000    1.2953 H   0  0  0  0  0  0  0  0  0  0  0  0
   -4.1737   -1.0870   -1.2636 H   0  0  0  0  0  0  0  0  0  0  0  0
   -4.5678    0.6124   -1.3836 H   0  0  0  0  0  0  0  0  0  0  0  0
   -1.1592    0.9135    2.7173 H   0  0  0  0  0  0  0  0  0  0  0  0
   -2.1883    1.6491    1.4821 H   0  0  0  0  0  0  0  0  0  0  0  0
   -4.1841    1.0055    0.9377 H   0  0  0  0  0  0  0  0  0  0  0  0
   -5.1732   -0.4307    0.8141 H   0  0  0  0  0  0  0  0  0  0  0  0
   -1.2835   -2.3156   -1.9125 H   0  0  0  0  0  0  0  0  0  0  0  0
   -0.9274   -2.8254   -0.2747 H   0  0  0  0  0  0  0  0  0  0  0  0
   -2.5889   -2.5194   -0.7473 H   0  0  0  0  0  0  0  0  0  0  0  0
   -3.0444    0.8048   -3.2641 H   0  0  0  0  0  0  0  0  0  0  0  0
   -1.3228    0.4999   -3.1320 H   0  0  0  0  0  0  0  0  0  0  0  0
   -2.4673   -0.8573   -3.1675 H   0  0  0  0  0  0  0  0  0  0  0  0
   -1.2344   -2.2869    1.7546 H   0  0  0  0  0  0  0  0  0  0  0  0
    1.9130    3.8753    0.6902 H   0  0  0  0  0  0  0  0  0  0  0  0
    2.1133    1.3238   -2.3954 H   0  0  0  0  0  0  0  0  0  0  0  0
    2.6717    2.9141   -1.9256 H   0  0  0  0  0  0  0  0  0  0  0  0
    3.4336    1.5104   -1.2019 H   0  0  0  0  0  0  0  0  0  0  0  0
    2.7157   -0.2218    1.2896 H   0  0  0  0  0  0  0  0  0  0  0  0
    3.5171   -2.3664    2.3455 H   0  0  0  0  0  0  0  0  0  0  0  0
    3.2344   -3.2097    0.8107 H   0  0  0  0  0  0  0  0  0  0  0  0
    1.8780   -2.5196    1.7074 H   0  0  0  0  0  0  0  0  0  0  0  0
    5.1460   -0.7425    1.3443 H   0  0  0  0  0  0  0  0  0  0  0  0
    4.7291    0.1975   -0.0885 H   0  0  0  0  0  0  0  0  0  0  0  0
    5.0204   -1.5376   -0.2334 H   0  0  0  0  0  0  0  0  0  0  0  0
  1  6  1  0  0  0  0
  1 40  1  0  0  0  0
  2  8  1  0  0  0  0
  2 20  1  0  0  0  0
  3 15  1  0  0  0  0
  3 18  1  0  0  0  0
  4 20  2  0  0  0  0
  5  6  1  0  0  0  0
  5  7  1  0  0  0  0
  5  8  1  0  0  0  0
  5 13  1  0  0  0  0
  6  9  1  0  0  0  0
  6 11  1  0  0  0  0
  7 10  1  0  0  0  0
  7 16  1  0  0  0  0
  7 24  1  0  0  0  0
  8 14  1  0  0  0  0
  8 25  1  0  0  0  0
  9 12  1  0  0  0  0
  9 26  1  0  0  0  0
  9 27  1  0  0  0  0
 10 12  1  0  0  0  0
 10 28  1  0  0  0  0
 10 29  1  0  0  0  0
 11 15  1  0  0  0  0
 11 30  1  0  0  0  0
 11 31  1  0  0  0  0
 12 32  1  0  0  0  0
 12 33  1  0  0  0  0
 13 34  1  0  0  0  0
 13 35  1  0  0  0  0
 13 36  1  0  0  0  0
 14 15  2  0  0  0  0
 14 17  1  0  0  0  0
 16 37  1  0  0  0  0
 16 38  1  0  0  0  0
 16 39  1  0  0  0  0
 17 18  2  0  0  0  0
 17 19  1  0  0  0  0
 18 41  1  0  0  0  0
 19 42  1  0  0  0  0
 19 43  1  0  0  0  0
 19 44  1  0  0  0  0
 20 21  1  0  0  0  0
 21 22  1  0  0  0  0
 21 23  1  0  0  0  0
 21 45  1  0  0  0  0
 22 46  1  0  0  0  0
 22 47  1  0  0  0  0
 22 48  1  0  0  0  0
 23 49  1  0  0  0  0
 23 50  1  0  0  0  0
 23 51  1  0  0  0  0
M  END
> <PUBCHEM_COMPOUND_CID>
442377

> <PUBCHEM_CONFORMER_RMSD>
0.8

> <PUBCHEM_CONFORMER_DIVERSEORDER>
1
2

> <PUBCHEM_MMFF94_PARTIAL_CHARGES>
16
1 -0.68
11 0.18
14 -0.18
15 -0.04
17 -0.18
18 -0.01
19 0.18
2 -0.43
20 0.66
21 0.06
3 -0.28
4 -0.57
40 0.4
41 0.15
6 0.28
8 0.46

> <PUBCHEM_EFFECTIVE_ROTOR_COUNT>
4.2

> <PUBCHEM_PHARMACOPHORE_FEATURES>
8
1 1 acceptor
1 1 donor
1 3 acceptor
1 4 acceptor
3 21 22 23 hydrophobe
5 3 14 15 17 18 rings
6 5 6 7 9 10 12 rings
6 5 6 8 11 14 15 rings

> <PUBCHEM_HEAVY_ATOM_COUNT>
23

> <PUBCHEM_ATOM_DEF_STEREO_COUNT>
4

> <PUBCHEM_ATOM_UDEF_STEREO_COUNT>
0

> <PUBCHEM_BOND_DEF_STEREO_COUNT>
0

> <PUBCHEM_BOND_UDEF_STEREO_COUNT>
0

> <PUBCHEM_ISOTOPIC_ATOM_COUNT>
0

> <PUBCHEM_COMPONENT_COUNT>
1

> <PUBCHEM_CACTVS_TAUTO_COUNT>
1

> <PUBCHEM_CONFORMER_ID>
0006C00900000001

> <PUBCHEM_MMFF94_ENERGY>
68.7799

> <PUBCHEM_FEATURE_SELFOVERLAP>
40.753

> <PUBCHEM_SHAPE_FINGERPRINT>
10165383 225 17696729096154974757
10863032 1 17560786719984404343
11578080 2 17988636355201475037
12553582 1 18114729486930466876
12633257 1 18268126769785967643
13004483 165 18124894588072929058
13134695 92 18337411399229167180
13140716 1 18262235499957308275
133893 2 18120113700771752420
14181834 199 18262816063687460324
14251751 93 14979404005153720167
14251757 17 17416982783703618356
16945 1 17968923198537089289
17349148 13 17821739303451659903
17980427 23 16733563627541259896
1813 80 18114461249179976188
20600515 1 17894920611469040718
20691752 17 17131274532971510867
20905425 154 17469329136665074734
21304253 335 17532082972762548977
21452121 71 16010752350147663087
22112679 90 17386001741478282061
22802520 49 17560804320607519717
23175994 123 18271246130927679638
23388829 49 18113056051660498256
23402539 116 18042419074017092630
23419403 2 17760979268957355100
23526113 38 17630627788453646478
23557571 272 15140968292507032639
23559900 14 16845287220211010238
2748010 2 17322100135611302937
3286 77 18341610396055665127
34934 24 17750775684712897976
5845 1 14801487119610618044
81228 2 17977660145580442704

> <PUBCHEM_SHAPE_MULTIPOLES>
449.85
6.31
2.59
2.01
0.53
1.07
-0.54
-2.4
-0.24
2.17
0.69
-0.93
0.1
-0.28

> <PUBCHEM_SHAPE_SELFOVERLAP>
954.38

> <PUBCHEM_SHAPE_VOLUME>
250.4

> <PUBCHEM_COORDINATE_TYPE>
2
5
10

$$$$

