5281694
  -OEChem-07051212593D

 58 63  0     0  0  0  0  0  0999 V2000
   -4.4474   -0.1287   -0.7450 O   0  0  0  0  0  0  0  0  0  0  0  0
    4.0133    0.4809    0.2316 O   0  0  0  0  0  0  0  0  0  0  0  0
   -0.7097   -1.0026    2.1959 O   0  0  0  0  0  0  0  0  0  0  0  0
   -0.5337   -2.1828   -2.4389 O   0  0  0  0  0  0  0  0  0  0  0  0
   -0.1097   -4.3033    0.6125 O   0  0  0  0  0  0  0  0  0  0  0  0
   -2.8992    0.1213    3.0152 O   0  0  0  0  0  0  0  0  0  0  0  0
    8.5632    1.7450   -0.8622 O   0  0  0  0  0  0  0  0  0  0  0  0
    7.6901   -0.7224   -1.0460 O   0  0  0  0  0  0  0  0  0  0  0  0
    5.4351    4.9934    0.6272 O   0  0  0  0  0  0  0  0  0  0  0  0
  -10.2870    2.2602   -1.1577 O   0  0  0  0  0  0  0  0  0  0  0  0
   -0.6073   -1.5955   -0.1073 C   0  0  0  0  0  0  0  0  0  0  0  0
    0.7353   -2.1160    0.0842 C   0  0  0  0  0  0  0  0  0  0  0  0
   -2.5953   -0.5482    0.7695 C   0  0  0  0  0  0  0  0  0  0  0  0
   -1.3050   -1.0446    0.9683 C   0  0  0  0  0  0  0  0  0  0  0  0
   -3.1845   -0.6014   -0.4926 C   0  0  0  0  0  0  0  0  0  0  0  0
    3.1194   -1.7436    0.0928 C   0  0  0  0  0  0  0  0  0  0  0  0
   -1.1955   -1.6494   -1.3718 C   0  0  0  0  0  0  0  0  0  0  0  0
    1.8228   -1.2625   -0.0883 C   0  0  0  0  0  0  0  0  0  0  0  0
   -2.4844   -1.1524   -1.5662 C   0  0  0  0  0  0  0  0  0  0  0  0
    0.9381   -3.4485    0.4366 C   0  0  0  0  0  0  0  0  0  0  0  0
    4.2751   -0.8425   -0.0888 C   0  0  0  0  0  0  0  0  0  0  0  0
   -3.3553    0.0397    1.8831 C   0  0  0  0  0  0  0  0  0  0  0  0
    3.3253   -3.0774    0.4461 C   0  0  0  0  0  0  0  0  0  0  0  0
   -5.1699    0.4185    0.3044 C   0  0  0  0  0  0  0  0  0  0  0  0
    2.2347   -3.9298    0.6178 C   0  0  0  0  0  0  0  0  0  0  0  0
   -4.7099    0.5317    1.5606 C   0  0  0  0  0  0  0  0  0  0  0  0
    6.3055    1.0541   -0.3314 C   0  0  0  0  0  0  0  0  0  0  0  0
    5.0258    1.3974    0.1013 C   0  0  0  0  0  0  0  0  0  0  0  0
    5.4664   -1.2969   -0.5091 C   0  0  0  0  0  0  0  0  0  0  0  0
   -6.5120    0.9008   -0.0785 C   0  0  0  0  0  0  0  0  0  0  0  0
    6.5894   -0.3502   -0.6635 C   0  0  0  0  0  0  0  0  0  0  0  0
    7.2984    2.0300   -0.4447 C   0  0  0  0  0  0  0  0  0  0  0  0
    4.7309    2.7221    0.4244 C   0  0  0  0  0  0  0  0  0  0  0  0
    5.7199    3.6999    0.3124 C   0  0  0  0  0  0  0  0  0  0  0  0
    7.0006    3.3543   -0.1213 C   0  0  0  0  0  0  0  0  0  0  0  0
   -7.0843    1.9865    0.5891 C   0  0  0  0  0  0  0  0  0  0  0  0
   -7.2148    0.2744   -1.1105 C   0  0  0  0  0  0  0  0  0  0  0  0
   -8.3517    2.4427    0.2271 C   0  0  0  0  0  0  0  0  0  0  0  0
   -8.4821    0.7308   -1.4727 C   0  0  0  0  0  0  0  0  0  0  0  0
   -9.0507    1.8148   -0.8039 C   0  0  0  0  0  0  0  0  0  0  0  0
    1.6519   -0.2256   -0.3723 H   0  0  0  0  0  0  0  0  0  0  0  0
   -2.9413   -1.1950   -2.5517 H   0  0  0  0  0  0  0  0  0  0  0  0
    4.3178   -3.4848    0.6184 H   0  0  0  0  0  0  0  0  0  0  0  0
    2.4099   -4.9652    0.8980 H   0  0  0  0  0  0  0  0  0  0  0  0
   -5.2811    0.9484    2.3817 H   0  0  0  0  0  0  0  0  0  0  0  0
    5.6654   -2.3294   -0.7714 H   0  0  0  0  0  0  0  0  0  0  0  0
    3.7341    2.9938    0.7625 H   0  0  0  0  0  0  0  0  0  0  0  0
   -1.2974   -0.6037    2.8545 H   0  0  0  0  0  0  0  0  0  0  0  0
    7.7723    4.1157   -0.2088 H   0  0  0  0  0  0  0  0  0  0  0  0
    0.3491   -2.4955   -2.1876 H   0  0  0  0  0  0  0  0  0  0  0  0
   -6.5634    2.5165    1.3821 H   0  0  0  0  0  0  0  0  0  0  0  0
   -6.7994   -0.5776   -1.6432 H   0  0  0  0  0  0  0  0  0  0  0  0
    0.2320   -5.1813    0.8535 H   0  0  0  0  0  0  0  0  0  0  0  0
   -8.7818    3.2913    0.7523 H   0  0  0  0  0  0  0  0  0  0  0  0
   -9.0227    0.2367   -2.2755 H   0  0  0  0  0  0  0  0  0  0  0  0
    8.6514    0.8000   -1.0596 H   0  0  0  0  0  0  0  0  0  0  0  0
    6.2324    5.5338    0.4926 H   0  0  0  0  0  0  0  0  0  0  0  0
  -10.5238    3.0152   -0.5920 H   0  0  0  0  0  0  0  0  0  0  0  0
  1 15  1  0  0  0  0
  1 24  1  0  0  0  0
  2 21  1  0  0  0  0
  2 28  1  0  0  0  0
  3 14  1  0  0  0  0
  3 48  1  0  0  0  0
  4 17  1  0  0  0  0
  4 50  1  0  0  0  0
  5 20  1  0  0  0  0
  5 53  1  0  0  0  0
  6 22  2  0  0  0  0
  7 32  1  0  0  0  0
  7 56  1  0  0  0  0
  8 31  2  0  0  0  0
  9 34  1  0  0  0  0
  9 57  1  0  0  0  0
 10 40  1  0  0  0  0
 10 58  1  0  0  0  0
 11 12  1  0  0  0  0
 11 14  2  0  0  0  0
 11 17  1  0  0  0  0
 12 18  1  0  0  0  0
 12 20  2  0  0  0  0
 13 14  1  0  0  0  0
 13 15  2  0  0  0  0
 13 22  1  0  0  0  0
 15 19  1  0  0  0  0
 16 18  2  0  0  0  0
 16 21  1  0  0  0  0
 16 23  1  0  0  0  0
 17 19  2  0  0  0  0
 18 41  1  0  0  0  0
 19 42  1  0  0  0  0
 20 25  1  0  0  0  0
 21 29  2  0  0  0  0
 22 26  1  0  0  0  0
 23 25  2  0  0  0  0
 23 43  1  0  0  0  0
 24 26  2  0  0  0  0
 24 30  1  0  0  0  0
 25 44  1  0  0  0  0
 26 45  1  0  0  0  0
 27 28  1  0  0  0  0
 27 31  1  0  0  0  0
 27 32  2  0  0  0  0
 28 33  2  0  0  0  0
 29 31  1  0  0  0  0
 29 46  1  0  0  0  0
 30 36  2  0  0  0  0
 30 37  1  0  0  0  0
 32 35  1  0  0  0  0
 33 34  1  0  0  0  0
 33 47  1  0  0  0  0
 34 35  2  0  0  0  0
 35 49  1  0  0  0  0
 36 38  1  0  0  0  0
 36 51  1  0  0  0  0
 37 39  2  0  0  0  0
 37 52  1  0  0  0  0
 38 40  2  0  0  0  0
 38 54  1  0  0  0  0
 39 40  1  0  0  0  0
 39 55  1  0  0  0  0
M  END
> <PUBCHEM_COMPOUND_CID>
5281694

> <PUBCHEM_CONFORMER_RMSD>
0.8

> <PUBCHEM_CONFORMER_DIVERSEORDER>
1
11
8
9
3
4
10
2
7
6
5
12

> <PUBCHEM_MMFF94_PARTIAL_CHARGES>
56
1 -0.16
10 -0.53
13 0.09
14 0.08
15 0.08
16 0.03
17 0.08
18 -0.15
19 -0.15
2 -0.16
20 0.08
21 0.05
22 0.47
23 -0.15
24 0.05
25 -0.15
26 -0.14
27 0.09
28 0.08
29 -0.14
3 -0.53
30 0.03
31 0.47
32 0.08
33 -0.15
34 0.08
35 -0.15
36 -0.15
37 -0.15
38 -0.15
39 -0.15
4 -0.53
40 0.08
41 0.15
42 0.15
43 0.15
44 0.15
45 0.15
46 0.15
47 0.15
48 0.45
49 0.15
5 -0.53
50 0.45
51 0.15
52 0.15
53 0.45
54 0.15
55 0.15
56 0.45
57 0.45
58 0.45
6 -0.57
7 -0.53
8 -0.57
9 -0.53

> <PUBCHEM_EFFECTIVE_ROTOR_COUNT>
3

> <PUBCHEM_PHARMACOPHORE_FEATURES>
16
1 1 acceptor
1 10 donor
1 2 acceptor
1 3 donor
1 4 donor
1 5 donor
1 6 acceptor
1 7 donor
1 8 acceptor
1 9 donor
6 1 13 15 22 24 26 rings
6 11 13 14 15 17 19 rings
6 12 16 18 20 23 25 rings
6 2 21 27 28 29 31 rings
6 27 28 32 33 34 35 rings
6 30 36 37 38 39 40 rings

> <PUBCHEM_HEAVY_ATOM_COUNT>
40

> <PUBCHEM_ATOM_DEF_STEREO_COUNT>
0

> <PUBCHEM_ATOM_UDEF_STEREO_COUNT>
0

> <PUBCHEM_BOND_DEF_STEREO_COUNT>
0

> <PUBCHEM_BOND_UDEF_STEREO_COUNT>
0

> <PUBCHEM_ISOTOPIC_ATOM_COUNT>
0

> <PUBCHEM_COMPONENT_COUNT>
1

> <PUBCHEM_CACTVS_TAUTO_COUNT>
994

> <PUBCHEM_CONFORMER_ID>
0050979E00000001

> <PUBCHEM_MMFF94_ENERGY>
137.3009

> <PUBCHEM_FEATURE_SELFOVERLAP>
81.247

> <PUBCHEM_SHAPE_FINGERPRINT>
10533779 1 18337115558252249888
10673678 19 18407757040888626231
11181472 205 18044934821726182145
11297010 23 18261385685677060158
11578821 258 18267307715740213245
1200032 147 18273498957908345138
12124843 1 17823130126059210540
12144603 126 18040993008369843049
12522641 126 16588862537349626919
12522641 24 17702954780236839442
12522641 68 18188487978460812366
12664476 115 18130790083864616164
13008946 282 18200606915959397074
13673619 4 6050439293739169835
14142895 15 18410015434331400047
14359421 15 5545208202669755764
14415360 78 18341619170019658263
15064981 113 16805869759090366500
15064981 194 17896311424589565410
15131766 46 18336839606075032341
15276724 80 18339927142475036805
15455200 26 17681567931354664712
15604295 49 17986960833907158485
15840311 113 18410855494609226757
15890870 6 18412261719096028924
16087824 20 18412544302696918452
16728433 110 18340769335061300829
17686467 74 18131351909227591645
17899979 19 18409444787391012849
18335252 114 18335700576890930950
19053607 189 17900834747667459880
19301679 30 9943536219131416058
2026 5 7565070436569626749
20691028 202 18268710515950092524
20771845 171 17531811389127481767
21033648 29 17489583454871187882
21133410 127 17617944634840843824
21362857 166 16226041253920107076
21772523 7 18058754463207001101
21792964 463 17897157138732437001
22122407 14 18338222877375235080
22899556 105 5761384270454145540
23522609 53 17604980594195489513
23569943 247 8430321238608875797
23576562 1 17532109228330067909
23729417 116 16605183911333603823
24771293 8 17561083605789297695
27425 322 18334856108822060870
306946 40 17274831294454138165
3918712 181 18337114471403698824
4169191 19 18409164446522714009
4258327 124 18259985977272699607
4403749 210 18201148867934584083
4516262 110 18409167714665531854
4561138 5 18128263478551555579
50009960 94 6986112634401295388
5080951 261 16199871653725866499
54583773 228 18335989684641829087
9961470 85 18120655730288401240

> <PUBCHEM_SHAPE_MULTIPOLES>
764.49
28.13
4.71
1.57
28.71
0.9
-0.41
33.65
9.06
-8.41
-0.66
2.22
-0.36
0.48

> <PUBCHEM_SHAPE_SELFOVERLAP>
1749.229

> <PUBCHEM_SHAPE_VOLUME>
392.8

> <PUBCHEM_COORDINATE_TYPE>
2
5
10

$$$$

