656557
  -OEChem-07051212553D

 49 49  0     1  0  0  0  0  0999 V2000
    1.2900    1.3757    2.0897 S   0  0  0  0  0  0  0  0  0  0  0  0
   -3.6180   -2.5715   -0.0845 S   0  0  1  0  0  0  0  0  0  0  0  0
   -2.0613    2.4051   -1.6997 S   0  0  0  0  0  0  0  0  0  0  0  0
    1.4632   -0.5070    0.2007 O   0  0  0  0  0  0  0  0  0  0  0  0
    5.5618   -0.8059    0.2435 O   0  0  0  0  0  0  0  0  0  0  0  0
    4.0275   -1.9588   -1.9695 O   0  0  0  0  0  0  0  0  0  0  0  0
    4.2937    1.5846    1.2432 O   0  0  0  0  0  0  0  0  0  0  0  0
   -0.1781   -1.7630   -1.6074 O   0  0  0  0  0  0  0  0  0  0  0  0
   -1.8544    2.0693   -0.1157 O   0  0  0  0  0  0  0  0  0  0  0  0
   -4.8629   -1.8171   -0.4332 O   0  0  0  0  0  0  0  0  0  0  0  0
   -3.6835    2.3834   -1.8617 O   0  0  0  0  0  0  0  0  0  0  0  0
   -1.5275    1.3005   -2.4745 O   0  0  0  0  0  0  0  0  0  0  0  0
   -1.6135    3.7638   -1.9419 O   0  0  0  0  0  0  0  0  0  0  0  0
   -0.5038    1.9024    0.1992 N   0  0  0  0  0  0  0  0  0  0  0  0
    4.2973   -0.3233   -0.2148 C   0  0  1  0  0  0  0  0  0  0  0  0
    3.4674   -1.4933   -0.7447 C   0  0  1  0  0  0  0  0  0  0  0  0
    3.6017    0.3684    0.9619 C   0  0  2  0  0  0  0  0  0  0  0  0
    2.0204   -1.0594   -0.9925 C   0  0  1  0  0  0  0  0  0  0  0  0
    2.1385    0.6759    0.6276 C   0  0  2  0  0  0  0  0  0  0  0  0
    1.1416   -2.2353   -1.4071 C   0  0  0  0  0  0  0  0  0  0  0  0
   -0.3388    1.6358    1.4567 C   0  0  0  0  0  0  0  0  0  0  0  0
   -1.4409    1.5230    2.4962 C   0  0  0  0  0  0  0  0  0  0  0  0
   -1.9797    0.0962    2.6305 C   0  0  0  0  0  0  0  0  0  0  0  0
   -2.5133   -0.4736    1.3140 C   0  0  0  0  0  0  0  0  0  0  0  0
   -3.0108   -1.9021    1.4946 C   0  0  0  0  0  0  0  0  0  0  0  0
   -4.1167   -4.1737    0.5893 C   0  0  0  0  0  0  0  0  0  0  0  0
    4.5168    0.3927   -1.0155 H   0  0  0  0  0  0  0  0  0  0  0  0
    3.5034   -2.3243   -0.0299 H   0  0  0  0  0  0  0  0  0  0  0  0
    3.6752   -0.2699    1.8515 H   0  0  0  0  0  0  0  0  0  0  0  0
    1.9661   -0.3003   -1.7849 H   0  0  0  0  0  0  0  0  0  0  0  0
    2.0872    1.4330   -0.1647 H   0  0  0  0  0  0  0  0  0  0  0  0
    1.1073   -2.9935   -0.6176 H   0  0  0  0  0  0  0  0  0  0  0  0
    1.4951   -2.6945   -2.3351 H   0  0  0  0  0  0  0  0  0  0  0  0
    5.3998   -1.4637    0.9411 H   0  0  0  0  0  0  0  0  0  0  0  0
    3.9944   -1.2294   -2.6118 H   0  0  0  0  0  0  0  0  0  0  0  0
    4.2208    2.1599    0.4626 H   0  0  0  0  0  0  0  0  0  0  0  0
   -2.2582    2.2068    2.2411 H   0  0  0  0  0  0  0  0  0  0  0  0
   -1.0636    1.8566    3.4704 H   0  0  0  0  0  0  0  0  0  0  0  0
   -1.1817   -0.5568    3.0053 H   0  0  0  0  0  0  0  0  0  0  0  0
   -2.7762    0.0891    3.3842 H   0  0  0  0  0  0  0  0  0  0  0  0
   -0.7225   -2.5287   -1.8581 H   0  0  0  0  0  0  0  0  0  0  0  0
   -3.3280    0.1595    0.9428 H   0  0  0  0  0  0  0  0  0  0  0  0
   -1.7260   -0.4803    0.5529 H   0  0  0  0  0  0  0  0  0  0  0  0
   -3.8275   -1.9362    2.2230 H   0  0  0  0  0  0  0  0  0  0  0  0
   -2.1997   -2.5492    1.8441 H   0  0  0  0  0  0  0  0  0  0  0  0
   -4.8491   -4.0325    1.3877 H   0  0  0  0  0  0  0  0  0  0  0  0
   -4.5660   -4.7636   -0.2131 H   0  0  0  0  0  0  0  0  0  0  0  0
   -3.2386   -4.6978    0.9735 H   0  0  0  0  0  0  0  0  0  0  0  0
   -4.0192    2.5639   -2.7710 H   0  0  0  0  0  0  0  0  0  0  0  0
  1 19  1  0  0  0  0
  1 21  1  0  0  0  0
  2 10  2  0  0  0  0
  2 25  1  0  0  0  0
  2 26  1  0  0  0  0
  3  9  1  0  0  0  0
  3 11  1  0  0  0  0
  3 12  2  0  0  0  0
  3 13  2  0  0  0  0
  4 18  1  0  0  0  0
  4 19  1  0  0  0  0
  5 15  1  0  0  0  0
  5 34  1  0  0  0  0
  6 16  1  0  0  0  0
  6 35  1  0  0  0  0
  7 17  1  0  0  0  0
  7 36  1  0  0  0  0
  8 20  1  0  0  0  0
  8 41  1  0  0  0  0
  9 14  1  0  0  0  0
 11 49  1  0  0  0  0
 14 21  2  0  0  0  0
 15 16  1  0  0  0  0
 15 17  1  0  0  0  0
 15 27  1  0  0  0  0
 16 18  1  0  0  0  0
 16 28  1  0  0  0  0
 17 19  1  0  0  0  0
 17 29  1  0  0  0  0
 18 20  1  0  0  0  0
 18 30  1  0  0  0  0
 19 31  1  0  0  0  0
 20 32  1  0  0  0  0
 20 33  1  0  0  0  0
 21 22  1  0  0  0  0
 22 23  1  0  0  0  0
 22 37  1  0  0  0  0
 22 38  1  0  0  0  0
 23 24  1  0  0  0  0
 23 39  1  0  0  0  0
 23 40  1  0  0  0  0
 24 25  1  0  0  0  0
 24 42  1  0  0  0  0
 24 43  1  0  0  0  0
 25 44  1  0  0  0  0
 25 45  1  0  0  0  0
 26 46  1  0  0  0  0
 26 47  1  0  0  0  0
 26 48  1  0  0  0  0
M  END
> <PUBCHEM_COMPOUND_CID>
656557

> <PUBCHEM_CONFORMER_RMSD>
1

> <PUBCHEM_CONFORMER_DIVERSEORDER>
1
105
123
91
95
49
71
100
19
118
44
56
60
142
70
119
17
93
13
144
36
135
128
78
138
99
94
124
8
96
130
37
79
67
104
68
127
106
134
4
107
57
116
108
12
33
111
133
114
129
69
85
27
117
28
125
43
63
40
88
97
9
14
101
80
145
25
51
122
41
121
26
31
132
131
29
54
72
92
139
102
46
50
115
82
42
103
81
143
75
59
39
32
86
126
98
21
113
77
76
90
22
89
47
38
24
141
15
3
66
110
30
109
64
45
140
58
73
112
16
10
5
55
62
137
52
11
23
65
6
84
136
35
7
74
61
20
34
120
83
18
53
48
87
2

> <PUBCHEM_MMFF94_PARTIAL_CHARGES>
29
1 -0.37
10 -0.5
11 -0.68
12 -0.65
13 -0.65
14 -0.51
15 0.28
16 0.28
17 0.28
18 0.28
19 0.51
2 0.11
20 0.28
21 0.53
22 0.06
25 0.19
26 0.19
3 1.67
34 0.4
35 0.4
36 0.4
4 -0.56
41 0.4
49 0.5
5 -0.68
6 -0.68
7 -0.68
8 -0.68
9 -0.12

> <PUBCHEM_EFFECTIVE_ROTOR_COUNT>
11.2

> <PUBCHEM_PHARMACOPHORE_FEATURES>
16
1 10 acceptor
1 11 acceptor
1 12 acceptor
1 13 acceptor
1 14 acceptor
1 4 acceptor
1 5 acceptor
1 5 donor
1 6 acceptor
1 6 donor
1 7 acceptor
1 7 donor
1 8 acceptor
1 8 donor
4 3 11 12 13 anion
6 4 15 16 17 18 19 rings

> <PUBCHEM_HEAVY_ATOM_COUNT>
26

> <PUBCHEM_ATOM_DEF_STEREO_COUNT>
5

> <PUBCHEM_ATOM_UDEF_STEREO_COUNT>
1

> <PUBCHEM_BOND_DEF_STEREO_COUNT>
0

> <PUBCHEM_BOND_UDEF_STEREO_COUNT>
1

> <PUBCHEM_ISOTOPIC_ATOM_COUNT>
0

> <PUBCHEM_COMPONENT_COUNT>
1

> <PUBCHEM_CACTVS_TAUTO_COUNT>
1

> <PUBCHEM_CONFORMER_ID>
000A04AD00000001

> <PUBCHEM_MMFF94_ENERGY>
43.1956

> <PUBCHEM_FEATURE_SELFOVERLAP>
81.267

> <PUBCHEM_SHAPE_FINGERPRINT>
10688039 33 18268716012875183126
11477941 20 17556538246062825716
12633257 1 17315887096150737379
12788726 201 17632308890714933553
133893 2 17409618006166423913
13402501 40 18334583434401527087
13583140 156 18272096049922564104
14863182 85 17395563996678720043
17357779 13 18337400344315500815
1813 80 18057022645923382939
18336668 15 17755306673678907563
20600515 1 18128241290898521659
22620623 9 18202006534005666073
23419403 2 18114758035636281089
23557571 272 18343869913345598893
23598288 3 15983667113790290153
238 59 17971768919308040548
26353 1 17916579813804833629
46194498 28 17410501987983170299
469060 322 18342728594527197798
6438718 38 16915357021716796660

> <PUBCHEM_SHAPE_MULTIPOLES>
482.94
8.94
4.12
2.64
4.38
0.4
0.16
6.84
-0.15
-4.75
1.84
-1.45
-1.81
3.15

> <PUBCHEM_SHAPE_SELFOVERLAP>
914.271

> <PUBCHEM_SHAPE_VOLUME>
298.8

> <PUBCHEM_COORDINATE_TYPE>
2
5
10

$$$$

