53297357
  -OEChem-07051212583D

 70 72  0     1  0  0  0  0  0999 V2000
   -4.0274   -0.4140    0.8075 O   0  0  0  0  0  0  0  0  0  0  0  0
   -2.0903    0.2873   -0.2880 O   0  0  0  0  0  0  0  0  0  0  0  0
   -6.4045    1.8069   -1.6993 O   0  0  0  0  0  0  0  0  0  0  0  0
   -7.4698    0.8364    0.8065 O   0  0  0  0  0  0  0  0  0  0  0  0
   -3.5387    2.4345   -1.4280 O   0  0  0  0  0  0  0  0  0  0  0  0
   -1.5256   -1.6328    0.9641 O   0  0  0  0  0  0  0  0  0  0  0  0
   -4.9334   -1.6813    3.0721 O   0  0  0  0  0  0  0  0  0  0  0  0
    2.4906    1.1438   -1.8804 O   0  0  0  0  0  0  0  0  0  0  0  0
    2.1536   -2.9767   -1.5400 O   0  0  0  0  0  0  0  0  0  0  0  0
    0.5244    2.2534   -2.3559 O   0  0  0  0  0  0  0  0  0  0  0  0
    0.2409   -4.2623   -1.7600 O   0  0  0  0  0  0  0  0  0  0  0  0
    5.1457   -1.7381    1.3275 O   0  0  0  0  0  0  0  0  0  0  0  0
    5.5432   -0.0713    3.5159 O   0  0  0  0  0  0  0  0  0  0  0  0
   -5.6086    1.5715   -0.5368 C   0  0  1  0  0  0  0  0  0  0  0  0
   -6.2342    0.4114    0.2377 C   0  0  1  0  0  0  0  0  0  0  0  0
   -4.1754    1.2465   -0.9585 C   0  0  2  0  0  0  0  0  0  0  0  0
   -5.3002   -0.0631    1.3535 C   0  0  1  0  0  0  0  0  0  0  0  0
   -3.3617    0.6982    0.2138 C   0  0  1  0  0  0  0  0  0  0  0  0
   -5.8507   -1.2949    2.0652 C   0  0  0  0  0  0  0  0  0  0  0  0
   -1.2651   -0.2331    0.7535 C   0  0  1  0  0  0  0  0  0  0  0  0
    0.7845   -0.7983   -0.6813 C   0  0  1  0  0  0  0  0  0  0  0  0
    0.1835    0.0499    0.4235 C   0  0  0  0  0  0  0  0  0  0  0  0
    0.2079   -2.1852   -0.6187 C   0  0  0  0  0  0  0  0  0  0  0  0
    0.5657   -0.1592   -2.0561 C   0  0  0  0  0  0  0  0  0  0  0  0
   -0.8315   -2.5040    0.1636 C   0  0  0  0  0  0  0  0  0  0  0  0
    0.9110    0.9420    1.1137 C   0  0  0  0  0  0  0  0  0  0  0  0
    1.1488    1.2276   -2.1231 C   0  0  0  0  0  0  0  0  0  0  0  0
    0.8397   -3.2717   -1.3705 C   0  0  0  0  0  0  0  0  0  0  0  0
    0.3621    1.7943    2.2046 C   0  0  0  0  0  0  0  0  0  0  0  0
    3.2004    2.3865   -1.9083 C   0  0  0  0  0  0  0  0  0  0  0  0
    4.6781    2.1422   -1.6224 C   0  0  0  0  0  0  0  0  0  0  0  0
    2.9133   -3.9513   -2.2625 C   0  0  0  0  0  0  0  0  0  0  0  0
    4.9076    1.5491   -0.2536 C   0  0  0  0  0  0  0  0  0  0  0  0
    4.9201    0.1643   -0.0868 C   0  0  0  0  0  0  0  0  0  0  0  0
    5.1080    2.3856    0.8444 C   0  0  0  0  0  0  0  0  0  0  0  0
    5.1333   -0.3841    1.1780 C   0  0  0  0  0  0  0  0  0  0  0  0
    5.3209    1.8373    2.1092 C   0  0  0  0  0  0  0  0  0  0  0  0
    5.3336    0.4525    2.2761 C   0  0  0  0  0  0  0  0  0  0  0  0
   -5.6439    2.4970    0.0498 H   0  0  0  0  0  0  0  0  0  0  0  0
   -6.4573   -0.4132   -0.4504 H   0  0  0  0  0  0  0  0  0  0  0  0
   -4.1721    0.5352   -1.7930 H   0  0  0  0  0  0  0  0  0  0  0  0
   -5.1513    0.7244    2.1049 H   0  0  0  0  0  0  0  0  0  0  0  0
   -3.1995    1.4852    0.9633 H   0  0  0  0  0  0  0  0  0  0  0  0
   -6.8190   -1.0904    2.5316 H   0  0  0  0  0  0  0  0  0  0  0  0
   -5.9539   -2.1339    1.3688 H   0  0  0  0  0  0  0  0  0  0  0  0
   -1.5355    0.2363    1.7045 H   0  0  0  0  0  0  0  0  0  0  0  0
    1.8624   -0.8652   -0.4815 H   0  0  0  0  0  0  0  0  0  0  0  0
   -6.3784    1.0066   -2.2510 H   0  0  0  0  0  0  0  0  0  0  0  0
   -7.2810    1.5591    1.4293 H   0  0  0  0  0  0  0  0  0  0  0  0
   -3.5289    3.0793   -0.7002 H   0  0  0  0  0  0  0  0  0  0  0  0
   -0.5001   -0.0902   -2.3048 H   0  0  0  0  0  0  0  0  0  0  0  0
    1.0275   -0.7522   -2.8551 H   0  0  0  0  0  0  0  0  0  0  0  0
   -1.2293   -3.5030    0.2844 H   0  0  0  0  0  0  0  0  0  0  0  0
    1.9632    1.0744    0.8827 H   0  0  0  0  0  0  0  0  0  0  0  0
   -5.3008   -2.4687    3.5084 H   0  0  0  0  0  0  0  0  0  0  0  0
    0.3338    1.2447    3.1501 H   0  0  0  0  0  0  0  0  0  0  0  0
    1.0156    2.6624    2.3459 H   0  0  0  0  0  0  0  0  0  0  0  0
   -0.6304    2.1917    1.9730 H   0  0  0  0  0  0  0  0  0  0  0  0
    2.7727    3.0640   -1.1593 H   0  0  0  0  0  0  0  0  0  0  0  0
    3.0938    2.8382   -2.9013 H   0  0  0  0  0  0  0  0  0  0  0  0
    5.2354    3.0822   -1.7159 H   0  0  0  0  0  0  0  0  0  0  0  0
    5.0926    1.4606   -2.3762 H   0  0  0  0  0  0  0  0  0  0  0  0
    2.8979   -4.9103   -1.7359 H   0  0  0  0  0  0  0  0  0  0  0  0
    2.5198   -4.0605   -3.2776 H   0  0  0  0  0  0  0  0  0  0  0  0
    3.9468   -3.5997   -2.3219 H   0  0  0  0  0  0  0  0  0  0  0  0
    4.7633   -0.4879   -0.9428 H   0  0  0  0  0  0  0  0  0  0  0  0
    5.0981    3.4659    0.7271 H   0  0  0  0  0  0  0  0  0  0  0  0
    5.4749    2.5007    2.9561 H   0  0  0  0  0  0  0  0  0  0  0  0
    4.9834   -2.1541    0.4634 H   0  0  0  0  0  0  0  0  0  0  0  0
    5.6613    0.6558    4.1510 H   0  0  0  0  0  0  0  0  0  0  0  0
  1 17  1  0  0  0  0
  1 18  1  0  0  0  0
  2 18  1  0  0  0  0
  2 20  1  0  0  0  0
  3 14  1  0  0  0  0
  3 48  1  0  0  0  0
  4 15  1  0  0  0  0
  4 49  1  0  0  0  0
  5 16  1  0  0  0  0
  5 50  1  0  0  0  0
  6 20  1  0  0  0  0
  6 25  1  0  0  0  0
  7 19  1  0  0  0  0
  7 55  1  0  0  0  0
  8 27  1  0  0  0  0
  8 30  1  0  0  0  0
  9 28  1  0  0  0  0
  9 32  1  0  0  0  0
 10 27  2  0  0  0  0
 11 28  2  0  0  0  0
 12 36  1  0  0  0  0
 12 69  1  0  0  0  0
 13 38  1  0  0  0  0
 13 70  1  0  0  0  0
 14 15  1  0  0  0  0
 14 16  1  0  0  0  0
 14 39  1  0  0  0  0
 15 17  1  0  0  0  0
 15 40  1  0  0  0  0
 16 18  1  0  0  0  0
 16 41  1  0  0  0  0
 17 19  1  0  0  0  0
 17 42  1  0  0  0  0
 18 43  1  0  0  0  0
 19 44  1  0  0  0  0
 19 45  1  0  0  0  0
 20 22  1  0  0  0  0
 20 46  1  0  0  0  0
 21 22  1  0  0  0  0
 21 23  1  0  0  0  0
 21 24  1  0  0  0  0
 21 47  1  0  0  0  0
 22 26  2  0  0  0  0
 23 25  2  0  0  0  0
 23 28  1  0  0  0  0
 24 27  1  0  0  0  0
 24 51  1  0  0  0  0
 24 52  1  0  0  0  0
 25 53  1  0  0  0  0
 26 29  1  0  0  0  0
 26 54  1  0  0  0  0
 29 56  1  0  0  0  0
 29 57  1  0  0  0  0
 29 58  1  0  0  0  0
 30 31  1  0  0  0  0
 30 59  1  0  0  0  0
 30 60  1  0  0  0  0
 31 33  1  0  0  0  0
 31 61  1  0  0  0  0
 31 62  1  0  0  0  0
 32 63  1  0  0  0  0
 32 64  1  0  0  0  0
 32 65  1  0  0  0  0
 33 34  2  0  0  0  0
 33 35  1  0  0  0  0
 34 36  1  0  0  0  0
 34 66  1  0  0  0  0
 35 37  2  0  0  0  0
 35 67  1  0  0  0  0
 36 38  2  0  0  0  0
 37 38  1  0  0  0  0
 37 68  1  0  0  0  0
M  END
> <PUBCHEM_COMPOUND_CID>
53297357

> <PUBCHEM_CONFORMER_RMSD>
1.2

> <PUBCHEM_CONFORMER_DIVERSEORDER>
1
25
87
9
66
12
83
114
29
131
126
82
35
129
15
48
144
43
116
86
132
19
68
108
37
88
112
81
5
14
53
145
57
13
31
4
94
51
147
77
91
50
23
60
11
92
18
46
79
85
45
56
44
6
67
104
134
80
76
69
98
34
148
96
121
107
124
141
41
20
127
39
151
135
93
55
150
52
130
7
49
73
74
30
40
149
2
117
115
102
8
3
133
58
22
140
42
106
26
122
54
101
32
123
146
62
33
17
128
84
16
139
61
38
99
111
138
10
78
97
47
36
90
143
27
137
105
142
28
59
24
103
21
64
75
71
113
110
109
89
100
120
125
95
119
63
118
70
136
65
72

> <PUBCHEM_MMFF94_PARTIAL_CHARGES>
49
1 -0.56
10 -0.57
11 -0.57
12 -0.53
13 -0.53
14 0.28
15 0.28
16 0.28
17 0.28
18 0.56
19 0.28
2 -0.56
20 0.7
21 0.28
22 -0.28
23 -0.12
24 0.06
25 -0.07
26 -0.29
27 0.66
28 0.71
29 0.14
3 -0.68
30 0.28
31 0.14
32 0.28
33 -0.14
34 -0.15
35 -0.15
36 0.08
37 -0.15
38 0.08
4 -0.68
48 0.4
49 0.4
5 -0.68
50 0.4
53 0.15
54 0.15
55 0.4
6 -0.36
66 0.15
67 0.15
68 0.15
69 0.45
7 -0.68
70 0.45
8 -0.43
9 -0.43

> <PUBCHEM_EFFECTIVE_ROTOR_COUNT>
12.8

> <PUBCHEM_PHARMACOPHORE_FEATURES>
19
1 1 acceptor
1 10 acceptor
1 11 acceptor
1 12 donor
1 13 donor
1 2 acceptor
1 29 hydrophobe
1 3 acceptor
1 3 donor
1 4 acceptor
1 4 donor
1 5 acceptor
1 5 donor
1 6 acceptor
1 7 acceptor
1 7 donor
6 1 14 15 16 17 18 rings
6 33 34 35 36 37 38 rings
6 6 20 21 22 23 25 rings

> <PUBCHEM_HEAVY_ATOM_COUNT>
38

> <PUBCHEM_ATOM_DEF_STEREO_COUNT>
7

> <PUBCHEM_ATOM_UDEF_STEREO_COUNT>
0

> <PUBCHEM_BOND_DEF_STEREO_COUNT>
1

> <PUBCHEM_BOND_UDEF_STEREO_COUNT>
0

> <PUBCHEM_ISOTOPIC_ATOM_COUNT>
0

> <PUBCHEM_COMPONENT_COUNT>
1

> <PUBCHEM_CACTVS_TAUTO_COUNT>
18

> <PUBCHEM_CONFORMER_ID>
032D40CD00000001

> <PUBCHEM_MMFF94_ENERGY>
87.7032

> <PUBCHEM_FEATURE_SELFOVERLAP>
96.521

> <PUBCHEM_SHAPE_FINGERPRINT>
10764073 3 16987455276383826078
12128747 34 16630243610769407888
12422481 6 18273218594711089454
14294032 229 18190733133775012727
15064986 96 18411133663368921910
16096371 109 18259983807765920362
17913733 40 18260541225922504047
1979834 28 18410570712739955932
21033648 29 18115308861292800736
23559900 14 18266442381911706622
3493558 16 17611476624266033208
4144715 1 17418085525511038601
4340502 62 18259987088993807854
6669772 16 17821734914147843350
77296 10 17275098397573516049
9555976 147 18272937150084519753

> <PUBCHEM_SHAPE_MULTIPOLES>
705.72
15.93
3.78
2.94
14.55
4.92
0.83
-8.76
7.81
-2.97
-2.3
-1.7
-0.55
2.36

> <PUBCHEM_SHAPE_SELFOVERLAP>
1481.935

> <PUBCHEM_SHAPE_VOLUME>
392.4

> <PUBCHEM_COORDINATE_TYPE>
2
5
10

$$$$

