119104
  -OEChem-07051212593D

 31 31  0     1  0  0  0  0  0999 V2000
   -2.8708   -0.6822    0.3434 O   0  0  0  0  0  0  0  0  0  0  0  0
    3.2526    0.7471    0.4350 O   0  0  0  0  0  0  0  0  0  0  0  0
   -1.5630   -1.9277   -1.0971 O   0  0  0  0  0  0  0  0  0  0  0  0
    3.4201   -1.3186   -0.6534 O   0  0  0  0  0  0  0  0  0  0  0  0
   -2.3465    0.5286   -0.2236 C   0  0  2  0  0  0  0  0  0  0  0  0
   -0.8668    0.5864   -0.0493 C   0  0  0  0  0  0  0  0  0  0  0  0
   -0.0721    1.1821   -1.0286 C   0  0  0  0  0  0  0  0  0  0  0  0
   -0.2774    0.0447    1.0930 C   0  0  0  0  0  0  0  0  0  0  0  0
    1.9018    0.6943    0.2766 C   0  0  0  0  0  0  0  0  0  0  0  0
    1.3122    1.2360   -0.8657 C   0  0  0  0  0  0  0  0  0  0  0  0
    1.1070    0.0986    1.2561 C   0  0  0  0  0  0  0  0  0  0  0  0
   -3.0635    1.6943    0.4187 C   0  0  0  0  0  0  0  0  0  0  0  0
   -2.3852   -1.8340   -0.1957 C   0  0  0  0  0  0  0  0  0  0  0  0
   -3.8792    2.5275   -0.2375 C   0  0  0  0  0  0  0  0  0  0  0  0
   -3.0166   -3.0077    0.4897 C   0  0  0  0  0  0  0  0  0  0  0  0
    3.9360   -0.3608   -0.0927 C   0  0  0  0  0  0  0  0  0  0  0  0
    5.4114   -0.2087    0.1309 C   0  0  0  0  0  0  0  0  0  0  0  0
   -2.5912    0.5066   -1.2952 H   0  0  0  0  0  0  0  0  0  0  0  0
   -0.5185    1.6092   -1.9227 H   0  0  0  0  0  0  0  0  0  0  0  0
   -0.8737   -0.4085    1.8804 H   0  0  0  0  0  0  0  0  0  0  0  0
    1.9254    1.7022   -1.6321 H   0  0  0  0  0  0  0  0  0  0  0  0
    1.5595   -0.3212    2.1504 H   0  0  0  0  0  0  0  0  0  0  0  0
   -2.9182    1.8485    1.4856 H   0  0  0  0  0  0  0  0  0  0  0  0
   -4.3711    3.3400    0.2860 H   0  0  0  0  0  0  0  0  0  0  0  0
   -4.0695    2.4164   -1.2992 H   0  0  0  0  0  0  0  0  0  0  0  0
   -4.0995   -2.9838    0.3448 H   0  0  0  0  0  0  0  0  0  0  0  0
   -2.7694   -2.9920    1.5542 H   0  0  0  0  0  0  0  0  0  0  0  0
   -2.6274   -3.9332    0.0556 H   0  0  0  0  0  0  0  0  0  0  0  0
    5.7696    0.6930   -0.3718 H   0  0  0  0  0  0  0  0  0  0  0  0
    5.9331   -1.0735   -0.2886 H   0  0  0  0  0  0  0  0  0  0  0  0
    5.6190   -0.1610    1.2027 H   0  0  0  0  0  0  0  0  0  0  0  0
  1  5  1  0  0  0  0
  1 13  1  0  0  0  0
  2  9  1  0  0  0  0
  2 16  1  0  0  0  0
  3 13  2  0  0  0  0
  4 16  2  0  0  0  0
  5  6  1  0  0  0  0
  5 12  1  0  0  0  0
  5 18  1  0  0  0  0
  6  7  2  0  0  0  0
  6  8  1  0  0  0  0
  7 10  1  0  0  0  0
  7 19  1  0  0  0  0
  8 11  2  0  0  0  0
  8 20  1  0  0  0  0
  9 10  2  0  0  0  0
  9 11  1  0  0  0  0
 10 21  1  0  0  0  0
 11 22  1  0  0  0  0
 12 14  2  0  0  0  0
 12 23  1  0  0  0  0
 13 15  1  0  0  0  0
 14 24  1  0  0  0  0
 14 25  1  0  0  0  0
 15 26  1  0  0  0  0
 15 27  1  0  0  0  0
 15 28  1  0  0  0  0
 16 17  1  0  0  0  0
 17 29  1  0  0  0  0
 17 30  1  0  0  0  0
 17 31  1  0  0  0  0
M  END
> <PUBCHEM_COMPOUND_CID>
119104

> <PUBCHEM_CONFORMER_RMSD>
0.8

> <PUBCHEM_CONFORMER_DIVERSEORDER>
1
37
22
12
29
15
35
14
38
26
33
10
13
18
27
23
6
9
34
11
30
24
20
7
36
5
4
2
32
16
19
31
28
25
17
8
3
21

> <PUBCHEM_MMFF94_PARTIAL_CHARGES>
24
1 -0.43
10 -0.15
11 -0.15
12 -0.29
13 0.66
14 -0.3
15 0.06
16 0.66
17 0.06
19 0.15
2 -0.23
20 0.15
21 0.15
22 0.15
23 0.15
24 0.15
25 0.15
3 -0.57
4 -0.57
5 0.56
6 -0.14
7 -0.15
8 -0.15
9 0.08

> <PUBCHEM_EFFECTIVE_ROTOR_COUNT>
6

> <PUBCHEM_PHARMACOPHORE_FEATURES>
4
1 14 hydrophobe
1 3 acceptor
1 4 acceptor
6 6 7 8 9 10 11 rings

> <PUBCHEM_HEAVY_ATOM_COUNT>
17

> <PUBCHEM_ATOM_DEF_STEREO_COUNT>
1

> <PUBCHEM_ATOM_UDEF_STEREO_COUNT>
0

> <PUBCHEM_BOND_DEF_STEREO_COUNT>
0

> <PUBCHEM_BOND_UDEF_STEREO_COUNT>
0

> <PUBCHEM_ISOTOPIC_ATOM_COUNT>
0

> <PUBCHEM_COMPONENT_COUNT>
1

> <PUBCHEM_CACTVS_TAUTO_COUNT>
1

> <PUBCHEM_CONFORMER_ID>
0001D14000000001

> <PUBCHEM_MMFF94_ENERGY>
41.4916

> <PUBCHEM_FEATURE_SELFOVERLAP>
20.297

> <PUBCHEM_SHAPE_FINGERPRINT>
10062212 137 17988929985109362178
10616163 171 18410291402411353462
11405975 8 18408609162711278992
11769659 78 18335986363650894346
12346177 29 18335990813147232109
124424 183 17312827103713975440
12500047 106 18334300897913688272
12633257 1 16372117802993947403
13544592 145 18118676849870453926
13583140 156 17676498194194663064
13760787 5 16415481571320713976
14178342 30 18270418134342173514
14289901 80 18116439137460017144
14965852 173 18411419483897526497
15042514 8 18340480064027552771
15375358 24 17749111140435909596
16945 1 18130241461273364093
17349148 13 5689298119310560276
18186145 218 15554441873800053484
19026448 4 18186525380258732184
19141452 34 18341894146943030060
19422 9 18272646801499061804
19784866 135 18338232644627108387
200 152 7276534396448864033
20281475 54 18272655645237449306
20524608 308 18408888442896085561
20645476 183 18342180015992986017
20645477 56 18409731789531476729
20681677 155 18340490057567163608
20871999 31 18342455924496999694
22485316 2 18411420644176694616
23402539 116 17775570853783748308
23419403 2 13842556081045637335
23557571 272 18334855009051365216
23558518 356 18129657470195941104
23559900 14 18187367675343631384
23598291 2 18060129895458105685
26918003 58 17968382342359396026
34934 24 18059579160418021512
449060 23 18200599085711938594
5104073 3 18408327666475815200
53777708 50 18198330780449958212
559249 180 18338523053003873546
633830 44 17060329734921442584
69090 78 18338519745747069901
6992083 37 18343010112612064389
7832392 63 18343587355947549840
81228 2 18265067834116830473
9709674 26 18187642531005989086

> <PUBCHEM_SHAPE_MULTIPOLES>
326.37
8.19
2.52
1.01
8.56
1.3
-0.04
0.29
-0.1
-4.09
0.23
0.07
0.01
0.11

> <PUBCHEM_SHAPE_SELFOVERLAP>
672.376

> <PUBCHEM_SHAPE_VOLUME>
185.2

> <PUBCHEM_COORDINATE_TYPE>
2
5
10

$$$$

