854123
  -OEChem-06241222473D

 33 35  0     1  0  0  0  0  0999 V2000
    3.1211   -1.0292    2.2536 Cl  0  0  0  0  0  0  0  0  0  0  0  0
   -3.3755   -0.9353   -1.4617 S   0  0  0  0  0  0  0  0  0  0  0  0
   -1.4053    1.7059   -0.4848 O   0  0  0  0  0  0  0  0  0  0  0  0
   -0.2324    3.6790   -0.7549 N   0  0  0  0  0  0  0  0  0  0  0  0
   -1.0042   -2.5883    1.6927 N   0  0  0  0  0  0  0  0  0  0  0  0
    3.0790    3.0870    0.5961 N   0  0  0  0  0  0  0  0  0  0  0  0
    0.8209    0.3177    0.6808 C   0  0  2  0  0  0  0  0  0  0  0  0
    1.8181   -0.5446   -0.0906 C   0  0  0  0  0  0  0  0  0  0  0  0
   -0.5836   -0.2654    0.6227 C   0  0  0  0  0  0  0  0  0  0  0  0
    0.8740    1.7739    0.2333 C   0  0  0  0  0  0  0  0  0  0  0  0
   -1.5777    0.4400    0.0475 C   0  0  0  0  0  0  0  0  0  0  0  0
   -0.1999    2.3835   -0.3175 C   0  0  0  0  0  0  0  0  0  0  0  0
    2.8760   -1.1797    0.5518 C   0  0  0  0  0  0  0  0  0  0  0  0
    1.6411   -0.6811   -1.4641 C   0  0  0  0  0  0  0  0  0  0  0  0
   -2.9156   -0.0430   -0.0700 C   0  0  0  0  0  0  0  0  0  0  0  0
    3.7662   -1.9595   -0.1867 C   0  0  0  0  0  0  0  0  0  0  0  0
    2.5315   -1.4608   -2.2024 C   0  0  0  0  0  0  0  0  0  0  0  0
   -0.8159   -1.5486    1.2140 C   0  0  0  0  0  0  0  0  0  0  0  0
   -3.9693    0.1013    0.8129 C   0  0  0  0  0  0  0  0  0  0  0  0
    3.5940   -2.0999   -1.5637 C   0  0  0  0  0  0  0  0  0  0  0  0
    2.0922    2.4991    0.4337 C   0  0  0  0  0  0  0  0  0  0  0  0
   -5.1589   -0.5253    0.3415 C   0  0  0  0  0  0  0  0  0  0  0  0
   -4.9761   -1.1269   -0.8841 C   0  0  0  0  0  0  0  0  0  0  0  0
    1.0624    0.3495    1.7499 H   0  0  0  0  0  0  0  0  0  0  0  0
    0.8214   -0.1935   -1.9845 H   0  0  0  0  0  0  0  0  0  0  0  0
    4.5994   -2.4642    0.2959 H   0  0  0  0  0  0  0  0  0  0  0  0
    2.3974   -1.5704   -3.2746 H   0  0  0  0  0  0  0  0  0  0  0  0
   -3.8937    0.6313    1.7545 H   0  0  0  0  0  0  0  0  0  0  0  0
    4.2871   -2.7070   -2.1387 H   0  0  0  0  0  0  0  0  0  0  0  0
    0.5842    4.2723   -0.6875 H   0  0  0  0  0  0  0  0  0  0  0  0
   -1.0909    4.0382   -1.1525 H   0  0  0  0  0  0  0  0  0  0  0  0
   -6.1007   -0.5343    0.8743 H   0  0  0  0  0  0  0  0  0  0  0  0
   -5.7059   -1.6698   -1.4680 H   0  0  0  0  0  0  0  0  0  0  0  0
  1 13  1  0  0  0  0
  2 15  1  0  0  0  0
  2 23  1  0  0  0  0
  3 11  1  0  0  0  0
  3 12  1  0  0  0  0
  4 12  1  0  0  0  0
  4 30  1  0  0  0  0
  4 31  1  0  0  0  0
  5 18  3  0  0  0  0
  6 21  3  0  0  0  0
  7  8  1  0  0  0  0
  7  9  1  0  0  0  0
  7 10  1  0  0  0  0
  7 24  1  0  0  0  0
  8 13  1  0  0  0  0
  8 14  2  0  0  0  0
  9 11  2  0  0  0  0
  9 18  1  0  0  0  0
 10 12  2  0  0  0  0
 10 21  1  0  0  0  0
 11 15  1  0  0  0  0
 13 16  2  0  0  0  0
 14 17  1  0  0  0  0
 14 25  1  0  0  0  0
 15 19  2  0  0  0  0
 16 20  1  0  0  0  0
 16 26  1  0  0  0  0
 17 20  2  0  0  0  0
 17 27  1  0  0  0  0
 19 22  1  0  0  0  0
 19 28  1  0  0  0  0
 20 29  1  0  0  0  0
 22 23  2  0  0  0  0
 22 32  1  0  0  0  0
 23 33  1  0  0  0  0
M  END
> <PUBCHEM_COMPOUND_CID>
854123

> <PUBCHEM_CONFORMER_RMSD>
0.6

> <PUBCHEM_CONFORMER_DIVERSEORDER>
1
6
2
7
3
5
4

> <PUBCHEM_MMFF94_PARTIAL_CHARGES>
32
1 -0.18
10 -0.07
11 0.12
12 0.18
13 0.18
14 -0.15
15 -0.01
16 -0.15
17 -0.15
18 0.49
19 -0.15
2 -0.08
20 -0.15
21 0.49
22 -0.15
23 -0.11
25 0.15
26 0.15
27 0.15
28 0.15
29 0.15
3 -0.15
30 0.4
31 0.4
32 0.15
33 0.15
4 -0.9
5 -0.56
6 -0.56
7 0.42
8 -0.14
9 -0.07

> <PUBCHEM_EFFECTIVE_ROTOR_COUNT>
2.4

> <PUBCHEM_PHARMACOPHORE_FEATURES>
8
1 3 acceptor
1 4 cation
1 4 donor
1 5 acceptor
1 6 acceptor
5 2 15 19 22 23 rings
6 3 7 9 10 11 12 rings
6 8 13 14 16 17 20 rings

> <PUBCHEM_HEAVY_ATOM_COUNT>
23

> <PUBCHEM_ATOM_DEF_STEREO_COUNT>
1

> <PUBCHEM_ATOM_UDEF_STEREO_COUNT>
0

> <PUBCHEM_BOND_DEF_STEREO_COUNT>
0

> <PUBCHEM_BOND_UDEF_STEREO_COUNT>
0

> <PUBCHEM_ISOTOPIC_ATOM_COUNT>
0

> <PUBCHEM_COMPONENT_COUNT>
1

> <PUBCHEM_CACTVS_TAUTO_COUNT>
2

> <PUBCHEM_CONFORMER_ID>
000D086B00000001

> <PUBCHEM_MMFF94_ENERGY>
52.8857

> <PUBCHEM_FEATURE_SELFOVERLAP>
40.594

> <PUBCHEM_SHAPE_FINGERPRINT>
10906281 52 18269829818265123896
11578080 2 17700668710651589044
11680986 33 18268982090546676955
12363563 72 18411982494107038567
12553582 1 18341330093336260891
12596599 1 18335421240919080303
12788726 201 18198611327898011302
13083527 12 18266480783472457424
13140716 1 18200879474215086851
13149001 5 18057872576854180667
14115302 16 17632286883017958066
14739800 52 13614242516616580791
15848702 151 18259987085073367087
16752209 62 17987230217220887026
16945 1 18265623249853446126
17492 89 18188489061066526359
17818456 19 17459452520339598897
1813 80 18335978748736993935
18186145 218 18202002110389622535
19141452 34 17822291344689179455
20600515 1 18342463638047390584
20645477 70 18336273353587062047
20691752 17 17989204867211442817
20775438 99 18193004720572141727
20832881 197 18340480188069791011
22182313 1 18272386273226079645
23402539 116 18270395134724075622
23557571 272 18189059861538961266
23559900 14 18130213879536468006
2748010 2 18127957616613621330
484985 159 15656583497253869438
633830 44 18411703180110703603
7364860 26 18260545576603088128
81228 2 18120354708772172800
9709674 26 18195806267867586659
9841814 1 18413394245567366288
9981440 41 17395872964068620913

> <PUBCHEM_SHAPE_MULTIPOLES>
458.24
8.08
3.24
1.73
7.75
3.14
-0.03
-4.46
0.73
-2.49
0.36
-1.1
-1.14
0.72

> <PUBCHEM_SHAPE_SELFOVERLAP>
982.842

> <PUBCHEM_SHAPE_VOLUME>
253.3

> <PUBCHEM_COORDINATE_TYPE>
2
5
10

$$$$

