23678596
  -OEChem-07051213042D

 49 49  0     1  0  0  0  0  0999 V2000
    7.1300    4.2633    0.0000 S   0  0  0  0  0  0  0  0  0  0  0  0
    7.0789    0.0000    0.0000 Na  0  3  0  0  0  0  0  0  0  0  0  0
    4.4650    2.2416    0.0000 O   0  0  0  0  0  0  0  0  0  0  0  0
    6.7699    0.9511    0.0000 O   0  5  0  0  0  0  0  0  0  0  0  0
    8.4172    1.4863    0.0000 O   0  0  0  0  0  0  0  0  0  0  0  0
    3.2378    3.4448    0.0000 O   0  0  0  0  0  0  0  0  0  0  0  0
    4.0202    6.3409    0.0000 O   0  0  0  0  0  0  0  0  0  0  0  0
    1.5657    3.8965    0.0000 O   0  0  0  0  0  0  0  0  0  0  0  0
    4.5142    9.9066    0.0000 O   0  0  0  0  0  0  0  0  0  0  0  0
    6.1790    2.9543    0.0000 N   0  0  0  0  0  0  0  0  0  0  0  0
    4.4650    4.6670    0.0000 N   0  0  0  0  0  0  0  0  0  0  0  0
    6.1790    3.9543    0.0000 C   0  0  1  0  0  0  0  0  0  0  0  0
    7.7178    3.4543    0.0000 C   0  0  0  0  0  0  0  0  0  0  0  0
    7.1300    2.6453    0.0000 C   0  0  2  0  0  0  0  0  0  0  0  0
    5.1707    3.9584    0.0000 C   0  0  1  0  0  0  0  0  0  0  0  0
    5.1707    2.9501    0.0000 C   0  0  0  0  0  0  0  0  0  0  0  0
    8.5268    4.0421    0.0000 C   0  0  0  0  0  0  0  0  0  0  0  0
    8.5268    2.8665    0.0000 C   0  0  0  0  0  0  0  0  0  0  0  0
    7.4390    1.6942    0.0000 C   0  0  0  0  0  0  0  0  0  0  0  0
    3.4986    4.4101    0.0000 C   0  0  0  0  0  0  0  0  0  0  0  0
    2.7929    5.1187    0.0000 C   0  0  0  0  0  0  0  0  0  0  0  0
    3.0537    6.0841    0.0000 C   0  0  0  0  0  0  0  0  0  0  0  0
    1.8265    4.8619    0.0000 C   0  0  0  0  0  0  0  0  0  0  0  0
    2.3481    6.7926    0.0000 C   0  0  0  0  0  0  0  0  0  0  0  0
    1.1208    5.5704    0.0000 C   0  0  0  0  0  0  0  0  0  0  0  0
    1.3816    6.5358    0.0000 C   0  0  0  0  0  0  0  0  0  0  0  0
    4.2810    7.3063    0.0000 C   0  0  0  0  0  0  0  0  0  0  0  0
    0.5992    3.6396    0.0000 C   0  0  0  0  0  0  0  0  0  0  0  0
    6.0477    4.7941    0.0000 H   0  0  0  0  0  0  0  0  0  0  0  0
    6.6916    2.2069    0.0000 H   0  0  0  0  0  0  0  0  0  0  0  0
    5.4097    4.5305    0.0000 H   0  0  0  0  0  0  0  0  0  0  0  0
    8.8912    3.5405    0.0000 H   0  0  0  0  0  0  0  0  0  0  0  0
    9.0284    4.4065    0.0000 H   0  0  0  0  0  0  0  0  0  0  0  0
    8.1624    4.5437    0.0000 H   0  0  0  0  0  0  0  0  0  0  0  0
    8.1624    2.3649    0.0000 H   0  0  0  0  0  0  0  0  0  0  0  0
    9.0284    2.5021    0.0000 H   0  0  0  0  0  0  0  0  0  0  0  0
    8.8912    3.3681    0.0000 H   0  0  0  0  0  0  0  0  0  0  0  0
    4.6267    5.2655    0.0000 H   0  0  0  0  0  0  0  0  0  0  0  0
    2.5098    7.3912    0.0000 H   0  0  0  0  0  0  0  0  0  0  0  0
    0.5216    5.4112    0.0000 H   0  0  0  0  0  0  0  0  0  0  0  0
    0.9441    6.9751    0.0000 H   0  0  0  0  0  0  0  0  0  0  0  0
    4.8795    7.1446    0.0000 H   0  0  0  0  0  0  0  0  0  0  0  0
    4.4427    7.9049    0.0000 H   0  0  0  0  0  0  0  0  0  0  0  0
    3.6824    7.4680    0.0000 H   0  0  0  0  0  0  0  0  0  0  0  0
    0.4400    4.2388    0.0000 H   0  0  0  0  0  0  0  0  0  0  0  0
    0.0000    3.4804    0.0000 H   0  0  0  0  0  0  0  0  0  0  0  0
    0.7584    3.0404    0.0000 H   0  0  0  0  0  0  0  0  0  0  0  0
    5.0511   10.2166    0.0000 H   0  0  0  0  0  0  0  0  0  0  0  0
    3.9773   10.2166    0.0000 H   0  0  0  0  0  0  0  0  0  0  0  0
  1 12  1  0  0  0  0
  1 13  1  0  0  0  0
  3 16  2  0  0  0  0
  4 19  1  0  0  0  0
  5 19  2  0  0  0  0
  6 20  2  0  0  0  0
  7 22  1  0  0  0  0
  7 27  1  0  0  0  0
  8 23  1  0  0  0  0
  8 28  1  0  0  0  0
  9 48  1  0  0  0  0
  9 49  1  0  0  0  0
 10 12  1  0  0  0  0
 10 14  1  0  0  0  0
 10 16  1  0  0  0  0
 15 11  1  1  0  0  0
 11 20  1  0  0  0  0
 11 38  1  0  0  0  0
 12 15  1  0  0  0  0
 12 29  1  6  0  0  0
 13 14  1  0  0  0  0
 13 17  1  0  0  0  0
 13 18  1  0  0  0  0
 14 19  1  6  0  0  0
 14 30  1  0  0  0  0
 15 16  1  0  0  0  0
 15 31  1  0  0  0  0
 17 32  1  0  0  0  0
 17 33  1  0  0  0  0
 17 34  1  0  0  0  0
 18 35  1  0  0  0  0
 18 36  1  0  0  0  0
 18 37  1  0  0  0  0
 20 21  1  0  0  0  0
 21 22  2  0  0  0  0
 21 23  1  0  0  0  0
 22 24  1  0  0  0  0
 23 25  2  0  0  0  0
 24 26  2  0  0  0  0
 24 39  1  0  0  0  0
 25 26  1  0  0  0  0
 25 40  1  0  0  0  0
 26 41  1  0  0  0  0
 27 42  1  0  0  0  0
 27 43  1  0  0  0  0
 27 44  1  0  0  0  0
 28 45  1  0  0  0  0
 28 46  1  0  0  0  0
 28 47  1  0  0  0  0
M  CHG  2   2   1   4  -1
M  END
> <PUBCHEM_COMPOUND_CID>
23678596

> <PUBCHEM_COMPOUND_CANONICALIZED>
1

> <PUBCHEM_CACTVS_COMPLEXITY>
606

> <PUBCHEM_CACTVS_HBOND_ACCEPTOR>
8

> <PUBCHEM_CACTVS_HBOND_DONOR>
2

> <PUBCHEM_CACTVS_ROTATABLE_BOND>
5

> <PUBCHEM_CACTVS_SUBSKEYS>
AAADceB7OCBAAAAAAAAAAAAAAABYAWAAAAAwAAAABYAAAAABAAAAHgQQCAAADCzF2AayDoPABAiIAiHSGACCCABkIBAIiIGODMgOZz6ktTuUMWhn9hW4qQeY6CyOAAAACAAIAAAAAAAQABAAAAAAAAAAAA==

> <PUBCHEM_IUPAC_OPENEYE_NAME>
sodium (2S,5R,6R)-6-[(2,6-dimethoxybenzoyl)amino]-3,3-dimethyl-7-oxo-4-thia-1-azabicyclo[3.2.0]heptane-2-carboxylate hydrate

> <PUBCHEM_IUPAC_CAS_NAME>
sodium (2S,5R,6R)-6-[[(2,6-dimethoxyphenyl)-oxomethyl]amino]-3,3-dimethyl-7-oxo-4-thia-1-azabicyclo[3.2.0]heptane-2-carboxylate hydrate

> <PUBCHEM_IUPAC_NAME>
sodium (2S,5R,6R)-6-[(2,6-dimethoxybenzoyl)amino]-3,3-dimethyl-7-oxo-4-thia-1-azabicyclo[3.2.0]heptane-2-carboxylate hydrate

> <PUBCHEM_IUPAC_SYSTEMATIC_NAME>
sodium (2S,5R,6R)-6-[(2,6-dimethoxyphenyl)carbonylamino]-3,3-dimethyl-7-oxidanylidene-4-thia-1-azabicyclo[3.2.0]heptane-2-carboxylate hydrate

> <PUBCHEM_IUPAC_TRADITIONAL_NAME>
sodium (2S,5R,6R)-6-[(2,6-dimethoxybenzoyl)amino]-7-keto-3,3-dimethyl-4-thia-1-azabicyclo[3.2.0]heptane-2-carboxylate hydrate

> <PUBCHEM_IUPAC_INCHI>
InChI=1S/C17H20N2O6S.Na.H2O/c1-17(2)12(16(22)23)19-14(21)11(15(19)26-17)18-13(20)10-8(24-3)6-5-7-9(10)25-4;;/h5-7,11-12,15H,1-4H3,(H,18,20)(H,22,23);;1H2/q;+1;/p-1/t11-,12+,15-;;/m1../s1

> <PUBCHEM_IUPAC_INCHIKEY>
NRZPASQBOYNGHR-HWROMZCQSA-M

> <PUBCHEM_EXACT_MASS>
420.096716

> <PUBCHEM_MOLECULAR_FORMULA>
C17H21N2NaO7S

> <PUBCHEM_MOLECULAR_WEIGHT>
420.412609

> <PUBCHEM_OPENEYE_CAN_SMILES>
CC1(C(N2C(S1)C(C2=O)NC(=O)C3=C(C=CC=C3OC)OC)C(=O)[O-])C.O.[Na+]

> <PUBCHEM_OPENEYE_ISO_SMILES>
CC1([C@@H](N2[C@H](S1)[C@@H](C2=O)NC(=O)C3=C(C=CC=C3OC)OC)C(=O)[O-])C.O.[Na+]

> <PUBCHEM_CACTVS_TPSA>
134

> <PUBCHEM_MONOISOTOPIC_WEIGHT>
420.096716

> <PUBCHEM_TOTAL_CHARGE>
0

> <PUBCHEM_HEAVY_ATOM_COUNT>
28

> <PUBCHEM_ATOM_DEF_STEREO_COUNT>
3

> <PUBCHEM_ATOM_UDEF_STEREO_COUNT>
0

> <PUBCHEM_BOND_DEF_STEREO_COUNT>
0

> <PUBCHEM_BOND_UDEF_STEREO_COUNT>
0

> <PUBCHEM_ISOTOPIC_ATOM_COUNT>
0

> <PUBCHEM_COMPONENT_COUNT>
3

> <PUBCHEM_CACTVS_TAUTO_COUNT>
4

> <PUBCHEM_NONSTANDARDBOND>
2  4  7

> <PUBCHEM_COORDINATE_TYPE>
1
5
255

> <PUBCHEM_BONDANNOTATIONS>
15  11  5
12  29  6
14  19  6
21  22  8
21  23  8
22  24  8
23  25  8
24  26  8
25  26  8

$$$$

