76875
  -OEChem-07051213053D

 20 21  0     0  0  0  0  0  0999 V2000
    3.5846    0.7885    0.0001 O   0  0  0  0  0  0  0  0  0  0  0  0
    2.9979   -0.4788    0.0007 N   0  0  0  0  0  0  0  0  0  0  0  0
   -0.5799   -0.7613   -0.0003 C   0  0  0  0  0  0  0  0  0  0  0  0
   -0.4085    0.6341   -0.0003 C   0  0  0  0  0  0  0  0  0  0  0  0
    0.7310   -1.4859    0.0000 C   0  0  0  0  0  0  0  0  0  0  0  0
    1.0387    1.0203   -0.0006 C   0  0  0  0  0  0  0  0  0  0  0  0
    1.7169   -0.3343   -0.0002 C   0  0  0  0  0  0  0  0  0  0  0  0
   -1.8466   -1.3228   -0.0001 C   0  0  0  0  0  0  0  0  0  0  0  0
   -1.5017    1.4854    0.0001 C   0  0  0  0  0  0  0  0  0  0  0  0
   -2.9517   -0.4691    0.0002 C   0  0  0  0  0  0  0  0  0  0  0  0
   -2.7806    0.9241    0.0005 C   0  0  0  0  0  0  0  0  0  0  0  0
    0.8622   -2.0866    0.9035 H   0  0  0  0  0  0  0  0  0  0  0  0
    0.8625   -2.0871   -0.9032 H   0  0  0  0  0  0  0  0  0  0  0  0
    1.2940    1.5770   -0.9064 H   0  0  0  0  0  0  0  0  0  0  0  0
    1.2943    1.5777    0.9047 H   0  0  0  0  0  0  0  0  0  0  0  0
   -1.9829   -2.3990   -0.0001 H   0  0  0  0  0  0  0  0  0  0  0  0
   -1.3738    2.5626    0.0002 H   0  0  0  0  0  0  0  0  0  0  0  0
   -3.9551   -0.8863    0.0003 H   0  0  0  0  0  0  0  0  0  0  0  0
   -3.6534    1.5717    0.0008 H   0  0  0  0  0  0  0  0  0  0  0  0
    4.5309    0.5659    0.0009 H   0  0  0  0  0  0  0  0  0  0  0  0
  1  2  1  0  0  0  0
  1 20  1  0  0  0  0
  2  7  2  0  0  0  0
  3  4  1  0  0  0  0
  3  5  1  0  0  0  0
  3  8  2  0  0  0  0
  4  6  1  0  0  0  0
  4  9  2  0  0  0  0
  5  7  1  0  0  0  0
  5 12  1  0  0  0  0
  5 13  1  0  0  0  0
  6  7  1  0  0  0  0
  6 14  1  0  0  0  0
  6 15  1  0  0  0  0
  8 10  1  0  0  0  0
  8 16  1  0  0  0  0
  9 11  1  0  0  0  0
  9 17  1  0  0  0  0
 10 11  2  0  0  0  0
 10 18  1  0  0  0  0
 11 19  1  0  0  0  0
M  END
> <PUBCHEM_COMPOUND_CID>
76875

> <PUBCHEM_CONFORMER_RMSD>
0.4

> <PUBCHEM_CONFORMER_DIVERSEORDER>
1

> <PUBCHEM_MMFF94_PARTIAL_CHARGES>
16
1 -0.34
10 -0.15
11 -0.15
16 0.15
17 0.15
18 0.15
19 0.15
2 -0.51
20 0.4
3 -0.14
4 -0.14
5 0.2
6 0.2
7 0.33
8 -0.15
9 -0.15

> <PUBCHEM_EFFECTIVE_ROTOR_COUNT>
0.4

> <PUBCHEM_PHARMACOPHORE_FEATURES>
4
1 1 anion
1 2 acceptor
5 3 4 5 6 7 rings
6 3 4 8 9 10 11 rings

> <PUBCHEM_HEAVY_ATOM_COUNT>
11

> <PUBCHEM_ATOM_DEF_STEREO_COUNT>
0

> <PUBCHEM_ATOM_UDEF_STEREO_COUNT>
0

> <PUBCHEM_BOND_DEF_STEREO_COUNT>
0

> <PUBCHEM_BOND_UDEF_STEREO_COUNT>
0

> <PUBCHEM_ISOTOPIC_ATOM_COUNT>
0

> <PUBCHEM_COMPONENT_COUNT>
1

> <PUBCHEM_CACTVS_TAUTO_COUNT>
2

> <PUBCHEM_CONFORMER_ID>
00012C4B00000001

> <PUBCHEM_MMFF94_ENERGY>
29.7863

> <PUBCHEM_FEATURE_SELFOVERLAP>
20.379

> <PUBCHEM_SHAPE_FINGERPRINT>
10608611 8 18408889550713188104
10857977 72 18410020909459718913
12032990 46 18410003338627516214
12897270 3 18410013251480301919
12932764 1 17560522914434564614
13024252 1 15195285335239798893
13380535 76 18410577322510247975
14325111 11 18410574006832106880
15775835 57 18411414046484663145
16945 1 18410855477545453287
193761 8 17473825503355950081
20201158 50 18408605876691869551
20871998 184 18187642449581075375
21040471 1 18266458891770623589
23235685 24 18410017666838667841
23402655 69 18192448557299407781
23463225 33 18270403909669191866
23552423 10 18272369720194643591
23559900 14 18261392287209890326
2748010 2 18049726217735970503
369184 2 16845575335296544947
5084963 1 18260547796932024459
528886 8 18410299111724188355
53812653 166 18334581256193595064
6333449 129 18408045112871358213
7364860 26 18191871343153083754

> <PUBCHEM_SHAPE_MULTIPOLES>
215.52
4.7
1.55
0.6
2.13
0.05
0
-0.55
0
-0.37
0
-0.06
0
0

> <PUBCHEM_SHAPE_SELFOVERLAP>
465.259

> <PUBCHEM_SHAPE_VOLUME>
120.9

> <PUBCHEM_COORDINATE_TYPE>
2
5
10

$$$$

