9616
  -OEChem-06261203523D

 26 25  0     0  0  0  0  0  0999 V2000
   -5.0590    0.8268    0.7183 F   0  0  0  0  0  0  0  0  0  0  0  0
    4.9577    0.8536   -0.1196 O   0  0  0  0  0  0  0  0  0  0  0  0
    4.1071   -1.1952    0.3866 O   0  0  0  0  0  0  0  0  0  0  0  0
   -1.0901   -0.5471   -0.0948 C   0  0  0  0  0  0  0  0  0  0  0  0
    0.0809    0.4322   -0.1984 C   0  0  0  0  0  0  0  0  0  0  0  0
   -2.4310    0.1681   -0.2698 C   0  0  0  0  0  0  0  0  0  0  0  0
    1.4204   -0.2811    0.0107 C   0  0  0  0  0  0  0  0  0  0  0  0
   -3.6024   -0.8062   -0.1340 C   0  0  0  0  0  0  0  0  0  0  0  0
    2.6136    0.6657   -0.1198 C   0  0  0  0  0  0  0  0  0  0  0  0
   -4.9381   -0.0961   -0.2722 C   0  0  0  0  0  0  0  0  0  0  0  0
    3.9409   -0.0208    0.0930 C   0  0  0  0  0  0  0  0  0  0  0  0
   -0.9868   -1.3277   -0.8581 H   0  0  0  0  0  0  0  0  0  0  0  0
   -1.0652   -1.0448    0.8824 H   0  0  0  0  0  0  0  0  0  0  0  0
   -0.0310    1.2246    0.5515 H   0  0  0  0  0  0  0  0  0  0  0  0
    0.0710    0.9140   -1.1835 H   0  0  0  0  0  0  0  0  0  0  0  0
   -2.4656    0.6506   -1.2541 H   0  0  0  0  0  0  0  0  0  0  0  0
   -2.5226    0.9613    0.4822 H   0  0  0  0  0  0  0  0  0  0  0  0
    1.5216   -1.0939   -0.7196 H   0  0  0  0  0  0  0  0  0  0  0  0
    1.4340   -0.7507    1.0023 H   0  0  0  0  0  0  0  0  0  0  0  0
   -3.5262   -1.5919   -0.8939 H   0  0  0  0  0  0  0  0  0  0  0  0
   -3.5568   -1.2875    0.8498 H   0  0  0  0  0  0  0  0  0  0  0  0
    2.5273    1.4693    0.6202 H   0  0  0  0  0  0  0  0  0  0  0  0
    2.6169    1.1077   -1.1227 H   0  0  0  0  0  0  0  0  0  0  0  0
   -5.7670   -0.8029   -0.1760 H   0  0  0  0  0  0  0  0  0  0  0  0
   -5.0240    0.4212   -1.2323 H   0  0  0  0  0  0  0  0  0  0  0  0
    5.8348    0.4304   -0.0011 H   0  0  0  0  0  0  0  0  0  0  0  0
  1 10  1  0  0  0  0
  2 11  1  0  0  0  0
  2 26  1  0  0  0  0
  3 11  2  0  0  0  0
  4  5  1  0  0  0  0
  4  6  1  0  0  0  0
  4 12  1  0  0  0  0
  4 13  1  0  0  0  0
  5  7  1  0  0  0  0
  5 14  1  0  0  0  0
  5 15  1  0  0  0  0
  6  8  1  0  0  0  0
  6 16  1  0  0  0  0
  6 17  1  0  0  0  0
  7  9  1  0  0  0  0
  7 18  1  0  0  0  0
  7 19  1  0  0  0  0
  8 10  1  0  0  0  0
  8 20  1  0  0  0  0
  8 21  1  0  0  0  0
  9 11  1  0  0  0  0
  9 22  1  0  0  0  0
  9 23  1  0  0  0  0
 10 24  1  0  0  0  0
 10 25  1  0  0  0  0
M  END
> <PUBCHEM_COMPOUND_CID>
9616

> <PUBCHEM_CONFORMER_RMSD>
0.8

> <PUBCHEM_CONFORMER_DIVERSEORDER>
1
79
70
47
76
35
26
80
75
9
62
27
38
28
77
51
3
48
73
33
6
31
21
72
25
59
14
74
36
58
20
7
50
24
43
19
5
39
18
10
57
17
45
44
63
29
11
15
78
12
71
55
69
13
64
37
46
61
42
2
40
22
23
53
68
30
41
4
34
32
54
8
16
67
49
56
65
60
66
52

> <PUBCHEM_MMFF94_PARTIAL_CHARGES>
7
1 -0.34
10 0.34
11 0.66
2 -0.65
26 0.5
3 -0.57
9 0.06

> <PUBCHEM_EFFECTIVE_ROTOR_COUNT>
7

> <PUBCHEM_PHARMACOPHORE_FEATURES>
5
1 2 acceptor
1 3 acceptor
3 2 3 11 anion
3 4 6 8 hydrophobe
3 5 7 9 hydrophobe

> <PUBCHEM_HEAVY_ATOM_COUNT>
11

> <PUBCHEM_ATOM_DEF_STEREO_COUNT>
0

> <PUBCHEM_ATOM_UDEF_STEREO_COUNT>
0

> <PUBCHEM_BOND_DEF_STEREO_COUNT>
0

> <PUBCHEM_BOND_UDEF_STEREO_COUNT>
0

> <PUBCHEM_ISOTOPIC_ATOM_COUNT>
0

> <PUBCHEM_COMPONENT_COUNT>
1

> <PUBCHEM_CACTVS_TAUTO_COUNT>
1

> <PUBCHEM_CONFORMER_ID>
0000259000000001

> <PUBCHEM_MMFF94_ENERGY>
1.16

> <PUBCHEM_FEATURE_SELFOVERLAP>
25.429

> <PUBCHEM_SHAPE_FINGERPRINT>
11062470 55 18040715852937345143
11287383 113 14764340514097131588
114248 4 10735875075657276319
14123238 8 18334577932020588199
15242433 33 18411419492782873302
15242439 84 4678819462836465988
15501527 16 18339923818428734357
17834072 33 18260833648585982735
17834076 25 17749107785639189878
18342897 14 18259984864063689089
20645477 70 18342178916619079746
20719005 15 18341896289910106199
20767249 13 7276832380978614965
22485316 2 18411985736712446950
23402539 116 17603591828772232669
366044 4 18341614802339072763
42 15 18342176678270744414
42788 4 18334576832408766013
522135 26 18342459244765143206

> <PUBCHEM_SHAPE_MULTIPOLES>
207.36
12
0.95
0.66
2.09
0.09
0
-0.8
0.9
-0.3
0.05
0.23
-0.02
-0.43

> <PUBCHEM_SHAPE_SELFOVERLAP>
378.2

> <PUBCHEM_SHAPE_VOLUME>
131.7

> <PUBCHEM_COORDINATE_TYPE>
2
5
10

$$$$

