11074502
  -OEChem-07051213092D

 39 40  0     1  0  0  0  0  0999 V2000
    5.4646    0.7990    0.0000 C   0  0  2  0  0  0  0  0  0  0  0  0
    4.5981    0.2990    0.0000 C   0  0  2  0  0  0  0  0  0  0  0  0
    4.5981    1.2990    0.0000 C   0  0  1  0  0  0  0  0  0  0  0  0
    3.7320   -0.2010    0.0000 C   0  0  0  0  0  0  0  0  0  0  0  0
    5.9646   -0.0670    0.0000 C   0  0  0  0  0  0  0  0  0  0  0  0
    5.9646    1.6651    0.0000 C   0  0  0  0  0  0  0  0  0  0  0  0
    3.7320    1.7990    0.0000 C   0  0  0  0  0  0  0  0  0  0  0  0
    2.8660    0.2990    0.0000 C   0  0  0  0  0  0  0  0  0  0  0  0
    2.8660    1.2990    0.0000 C   0  0  0  0  0  0  0  0  0  0  0  0
    6.9646   -0.0670    0.0000 C   0  0  0  0  0  0  0  0  0  0  0  0
    2.0000    1.7990    0.0000 C   0  0  0  0  0  0  0  0  0  0  0  0
    7.4646   -0.9330    0.0000 C   0  0  0  0  0  0  0  0  0  0  0  0
    8.4646   -0.9330    0.0000 C   0  0  0  0  0  0  0  0  0  0  0  0
    8.9646   -1.7990    0.0000 C   0  0  0  0  0  0  0  0  0  0  0  0
    8.9646   -0.0670    0.0000 C   0  0  0  0  0  0  0  0  0  0  0  0
    5.0230   -0.4371    0.0000 H   0  0  0  0  0  0  0  0  0  0  0  0
    5.0230    2.0352    0.0000 H   0  0  0  0  0  0  0  0  0  0  0  0
    3.3335   -0.6759    0.0000 H   0  0  0  0  0  0  0  0  0  0  0  0
    4.1306   -0.6759    0.0000 H   0  0  0  0  0  0  0  0  0  0  0  0
    5.3820   -0.2790    0.0000 H   0  0  0  0  0  0  0  0  0  0  0  0
    6.0723   -0.6776    0.0000 H   0  0  0  0  0  0  0  0  0  0  0  0
    6.5016    1.3551    0.0000 H   0  0  0  0  0  0  0  0  0  0  0  0
    6.2746    2.2020    0.0000 H   0  0  0  0  0  0  0  0  0  0  0  0
    5.4277    1.9751    0.0000 H   0  0  0  0  0  0  0  0  0  0  0  0
    3.7320    2.4190    0.0000 H   0  0  0  0  0  0  0  0  0  0  0  0
    2.2554    0.4067    0.0000 H   0  0  0  0  0  0  0  0  0  0  0  0
    2.6540   -0.2836    0.0000 H   0  0  0  0  0  0  0  0  0  0  0  0
    7.5472    0.1451    0.0000 H   0  0  0  0  0  0  0  0  0  0  0  0
    6.8570    0.5436    0.0000 H   0  0  0  0  0  0  0  0  0  0  0  0
    2.3100    2.3360    0.0000 H   0  0  0  0  0  0  0  0  0  0  0  0
    1.4631    2.1090    0.0000 H   0  0  0  0  0  0  0  0  0  0  0  0
    1.6900    1.2621    0.0000 H   0  0  0  0  0  0  0  0  0  0  0  0
    7.1546   -1.4700    0.0000 H   0  0  0  0  0  0  0  0  0  0  0  0
    8.4277   -2.1090    0.0000 H   0  0  0  0  0  0  0  0  0  0  0  0
    9.2746   -2.3360    0.0000 H   0  0  0  0  0  0  0  0  0  0  0  0
    9.5016   -1.4890    0.0000 H   0  0  0  0  0  0  0  0  0  0  0  0
    9.5016   -0.3770    0.0000 H   0  0  0  0  0  0  0  0  0  0  0  0
    9.2746    0.4699    0.0000 H   0  0  0  0  0  0  0  0  0  0  0  0
    8.4277    0.2430    0.0000 H   0  0  0  0  0  0  0  0  0  0  0  0
  1  2  1  0  0  0  0
  1  3  1  0  0  0  0
  1  5  1  0  0  0  0
  1  6  1  1  0  0  0
  2  3  1  0  0  0  0
  2  4  1  0  0  0  0
  2 16  1  6  0  0  0
  3  7  1  0  0  0  0
  3 17  1  6  0  0  0
  4  8  1  0  0  0  0
  4 18  1  0  0  0  0
  4 19  1  0  0  0  0
  5 10  1  0  0  0  0
  5 20  1  0  0  0  0
  5 21  1  0  0  0  0
  6 22  1  0  0  0  0
  6 23  1  0  0  0  0
  6 24  1  0  0  0  0
  7  9  2  0  0  0  0
  7 25  1  0  0  0  0
  8  9  1  0  0  0  0
  8 26  1  0  0  0  0
  8 27  1  0  0  0  0
  9 11  1  0  0  0  0
 10 12  1  0  0  0  0
 10 28  1  0  0  0  0
 10 29  1  0  0  0  0
 11 30  1  0  0  0  0
 11 31  1  0  0  0  0
 11 32  1  0  0  0  0
 12 13  2  0  0  0  0
 12 33  1  0  0  0  0
 13 14  1  0  0  0  0
 13 15  1  0  0  0  0
 14 34  1  0  0  0  0
 14 35  1  0  0  0  0
 14 36  1  0  0  0  0
 15 37  1  0  0  0  0
 15 38  1  0  0  0  0
 15 39  1  0  0  0  0
M  END
> <PUBCHEM_COMPOUND_CID>
11074502

> <PUBCHEM_COMPOUND_CANONICALIZED>
1

> <PUBCHEM_CACTVS_COMPLEXITY>
304

> <PUBCHEM_CACTVS_HBOND_ACCEPTOR>
0

> <PUBCHEM_CACTVS_HBOND_DONOR>
0

> <PUBCHEM_CACTVS_ROTATABLE_BOND>
3

> <PUBCHEM_CACTVS_SUBSKEYS>
AAADceBwAAAAAAAAAAAAAAAAGAAAAAAAAAAgAAAABAAAAAAAAAAAGAAAAAAADwCAAAACAAAAAACAAiBCAAAAAAAgAAAACAAAAAgAAAIAAQAAAAAAgAAIAAMAgMAPgAAAAAAAAAAAAAAAAAAAAAAAAAAAAA==

> <PUBCHEM_IUPAC_OPENEYE_NAME>
(1S,6R,7R)-4,7-dimethyl-7-(4-methylpent-3-enyl)bicyclo[4.1.0]hept-4-ene

> <PUBCHEM_IUPAC_CAS_NAME>
(1S,6R,7R)-4,7-dimethyl-7-(4-methylpent-3-enyl)bicyclo[4.1.0]hept-4-ene

> <PUBCHEM_IUPAC_NAME>
(1S,6R,7R)-4,7-dimethyl-7-(4-methylpent-3-enyl)bicyclo[4.1.0]hept-4-ene

> <PUBCHEM_IUPAC_SYSTEMATIC_NAME>
(1S,6R,7R)-4,7-dimethyl-7-(4-methylpent-3-enyl)bicyclo[4.1.0]hept-4-ene

> <PUBCHEM_IUPAC_TRADITIONAL_NAME>
(1S,6R,7R)-4,7-dimethyl-7-(4-methylpent-3-enyl)bicyclo[4.1.0]hept-4-ene

> <PUBCHEM_IUPAC_INCHI>
InChI=1S/C15H24/c1-11(2)6-5-9-15(4)13-8-7-12(3)10-14(13)15/h6,10,13-14H,5,7-9H2,1-4H3/t13-,14+,15+/m0/s1

> <PUBCHEM_IUPAC_INCHIKEY>
MZOWOHKNFKJFFD-RRFJBIMHSA-N

> <PUBCHEM_XLOGP3_AA>
4.8

> <PUBCHEM_EXACT_MASS>
204.187801

> <PUBCHEM_MOLECULAR_FORMULA>
C15H24

> <PUBCHEM_MOLECULAR_WEIGHT>
204.35106

> <PUBCHEM_OPENEYE_CAN_SMILES>
CC1=CC2C(C2(C)CCC=C(C)C)CC1

> <PUBCHEM_OPENEYE_ISO_SMILES>
CC1=C[C@@H]2[C@@H]([C@@]2(C)CCC=C(C)C)CC1

> <PUBCHEM_CACTVS_TPSA>
0

> <PUBCHEM_MONOISOTOPIC_WEIGHT>
204.187801

> <PUBCHEM_TOTAL_CHARGE>
0

> <PUBCHEM_HEAVY_ATOM_COUNT>
15

> <PUBCHEM_ATOM_DEF_STEREO_COUNT>
3

> <PUBCHEM_ATOM_UDEF_STEREO_COUNT>
0

> <PUBCHEM_BOND_DEF_STEREO_COUNT>
0

> <PUBCHEM_BOND_UDEF_STEREO_COUNT>
0

> <PUBCHEM_ISOTOPIC_ATOM_COUNT>
0

> <PUBCHEM_COMPONENT_COUNT>
1

> <PUBCHEM_CACTVS_TAUTO_COUNT>
1

> <PUBCHEM_COORDINATE_TYPE>
1
5
255

> <PUBCHEM_BONDANNOTATIONS>
1  6  5
2  16  6
3  17  6

$$$$

