47205203
  -OEChem-06241222582D

 36 37  0     0  0  0  0  0  0999 V2000
    5.4641    0.4806    0.0000 O   0  0  0  0  0  0  0  0  0  0  0  0
    2.0000   -0.5194    0.0000 O   0  0  0  0  0  0  0  0  0  0  0  0
    4.5981    1.9806    0.0000 N   0  0  0  0  0  0  0  0  0  0  0  0
    3.7320   -0.5194    0.0000 N   0  0  0  0  0  0  0  0  0  0  0  0
    4.6551    4.0684    0.0000 N   0  0  0  0  0  0  0  0  0  0  0  0
    4.9641    5.0194    0.0000 N   0  0  0  0  0  0  0  0  0  0  0  0
    5.4641    2.4806    0.0000 C   0  0  0  0  0  0  0  0  0  0  0  0
    5.4641    3.4806    0.0000 C   0  0  0  0  0  0  0  0  0  0  0  0
    3.7320    0.4806    0.0000 C   0  0  0  0  0  0  0  0  0  0  0  0
    2.8660   -2.0194    0.0000 C   0  0  0  0  0  0  0  0  0  0  0  0
    4.5981    0.9806    0.0000 C   0  0  0  0  0  0  0  0  0  0  0  0
    2.8660   -1.0194    0.0000 C   0  0  0  0  0  0  0  0  0  0  0  0
    2.8660   -4.0194    0.0000 C   0  0  0  0  0  0  0  0  0  0  0  0
    2.0000   -2.5194    0.0000 C   0  0  0  0  0  0  0  0  0  0  0  0
    3.7320   -2.5194    0.0000 C   0  0  0  0  0  0  0  0  0  0  0  0
    6.2731    4.0684    0.0000 C   0  0  0  0  0  0  0  0  0  0  0  0
    2.0000   -3.5194    0.0000 C   0  0  0  0  0  0  0  0  0  0  0  0
    3.7320   -3.5194    0.0000 C   0  0  0  0  0  0  0  0  0  0  0  0
    2.8660   -5.0194    0.0000 C   0  0  0  0  0  0  0  0  0  0  0  0
    5.9641    5.0194    0.0000 C   0  0  0  0  0  0  0  0  0  0  0  0
    5.6762    1.8980    0.0000 H   0  0  0  0  0  0  0  0  0  0  0  0
    6.0747    2.5882    0.0000 H   0  0  0  0  0  0  0  0  0  0  0  0
    3.5200    1.0632    0.0000 H   0  0  0  0  0  0  0  0  0  0  0  0
    3.1215    0.3729    0.0000 H   0  0  0  0  0  0  0  0  0  0  0  0
    4.0611    2.2906    0.0000 H   0  0  0  0  0  0  0  0  0  0  0  0
    4.2690   -0.8294    0.0000 H   0  0  0  0  0  0  0  0  0  0  0  0
    1.4631   -2.2094    0.0000 H   0  0  0  0  0  0  0  0  0  0  0  0
    4.2690   -2.2094    0.0000 H   0  0  0  0  0  0  0  0  0  0  0  0
    6.8628    3.8768    0.0000 H   0  0  0  0  0  0  0  0  0  0  0  0
    1.4631   -3.8294    0.0000 H   0  0  0  0  0  0  0  0  0  0  0  0
    4.2690   -3.8294    0.0000 H   0  0  0  0  0  0  0  0  0  0  0  0
    4.0654    3.8768    0.0000 H   0  0  0  0  0  0  0  0  0  0  0  0
    2.2460   -5.0194    0.0000 H   0  0  0  0  0  0  0  0  0  0  0  0
    2.8660   -5.6394    0.0000 H   0  0  0  0  0  0  0  0  0  0  0  0
    3.4860   -5.0194    0.0000 H   0  0  0  0  0  0  0  0  0  0  0  0
    6.3285    5.5210    0.0000 H   0  0  0  0  0  0  0  0  0  0  0  0
  1 11  2  0  0  0  0
  2 12  2  0  0  0  0
  3  7  1  0  0  0  0
  3 11  1  0  0  0  0
  3 25  1  0  0  0  0
  4  9  1  0  0  0  0
  4 12  1  0  0  0  0
  4 26  1  0  0  0  0
  5  6  1  0  0  0  0
  5  8  1  0  0  0  0
  5 32  1  0  0  0  0
  6 20  2  0  0  0  0
  7  8  1  0  0  0  0
  7 21  1  0  0  0  0
  7 22  1  0  0  0  0
  8 16  2  0  0  0  0
  9 11  1  0  0  0  0
  9 23  1  0  0  0  0
  9 24  1  0  0  0  0
 10 12  1  0  0  0  0
 10 14  2  0  0  0  0
 10 15  1  0  0  0  0
 13 17  2  0  0  0  0
 13 18  1  0  0  0  0
 13 19  1  0  0  0  0
 14 17  1  0  0  0  0
 14 27  1  0  0  0  0
 15 18  2  0  0  0  0
 15 28  1  0  0  0  0
 16 20  1  0  0  0  0
 16 29  1  0  0  0  0
 17 30  1  0  0  0  0
 18 31  1  0  0  0  0
 19 33  1  0  0  0  0
 19 34  1  0  0  0  0
 19 35  1  0  0  0  0
 20 36  1  0  0  0  0
M  END
> <PUBCHEM_COMPOUND_CID>
47205203

> <PUBCHEM_COMPOUND_CANONICALIZED>
1

> <PUBCHEM_CACTVS_COMPLEXITY>
340

> <PUBCHEM_CACTVS_HBOND_ACCEPTOR>
3

> <PUBCHEM_CACTVS_HBOND_DONOR>
3

> <PUBCHEM_CACTVS_ROTATABLE_BOND>
5

> <PUBCHEM_CACTVS_SUBSKEYS>
AAADceBzsAAAAAAAAAAAAAAAAAAAAWAAAAAwAAAAAAAAAAABwAAAHgAYAAAADAjBngQ+gJLjAACqAzV3UACSBAAkggAYuaG4ZNgIYLKA1fGUpQhgngCIyYcYiACOQAAAAAAAAACAAAAAAAAAAAAAAAAAAA==

> <PUBCHEM_IUPAC_OPENEYE_NAME>
4-methyl-N-[2-oxo-2-(1H-pyrazol-5-ylmethylamino)ethyl]benzamide

> <PUBCHEM_IUPAC_CAS_NAME>
4-methyl-N-[2-oxo-2-(1H-pyrazol-5-ylmethylamino)ethyl]benzamide

> <PUBCHEM_IUPAC_NAME>
4-methyl-N-[2-oxo-2-(1H-pyrazol-5-ylmethylamino)ethyl]benzamide

> <PUBCHEM_IUPAC_SYSTEMATIC_NAME>
4-methyl-N-[2-oxidanylidene-2-(1H-pyrazol-5-ylmethylamino)ethyl]benzamide

> <PUBCHEM_IUPAC_TRADITIONAL_NAME>
N-[2-keto-2-(1H-pyrazol-5-ylmethylamino)ethyl]-4-methyl-benzamide

> <PUBCHEM_IUPAC_INCHI>
InChI=1S/C14H16N4O2/c1-10-2-4-11(5-3-10)14(20)16-9-13(19)15-8-12-6-7-17-18-12/h2-7H,8-9H2,1H3,(H,15,19)(H,16,20)(H,17,18)

> <PUBCHEM_IUPAC_INCHIKEY>
WSWTVYNIKNLBRT-UHFFFAOYSA-N

> <PUBCHEM_XLOGP3_AA>
0.7

> <PUBCHEM_EXACT_MASS>
272.127326

> <PUBCHEM_MOLECULAR_FORMULA>
C14H16N4O2

> <PUBCHEM_MOLECULAR_WEIGHT>
272.30244

> <PUBCHEM_OPENEYE_CAN_SMILES>
CC1=CC=C(C=C1)C(=O)NCC(=O)NCC2=CC=NN2

> <PUBCHEM_OPENEYE_ISO_SMILES>
CC1=CC=C(C=C1)C(=O)NCC(=O)NCC2=CC=NN2

> <PUBCHEM_CACTVS_TPSA>
86.9

> <PUBCHEM_MONOISOTOPIC_WEIGHT>
272.127326

> <PUBCHEM_TOTAL_CHARGE>
0

> <PUBCHEM_HEAVY_ATOM_COUNT>
20

> <PUBCHEM_ATOM_DEF_STEREO_COUNT>
0

> <PUBCHEM_ATOM_UDEF_STEREO_COUNT>
0

> <PUBCHEM_BOND_DEF_STEREO_COUNT>
0

> <PUBCHEM_BOND_UDEF_STEREO_COUNT>
0

> <PUBCHEM_ISOTOPIC_ATOM_COUNT>
0

> <PUBCHEM_COMPONENT_COUNT>
1

> <PUBCHEM_CACTVS_TAUTO_COUNT>
20

> <PUBCHEM_COORDINATE_TYPE>
1
5
255

> <PUBCHEM_BONDANNOTATIONS>
10  14  8
10  15  8
13  17  8
13  18  8
14  17  8
15  18  8
16  20  8
5  6  8
5  8  8
6  20  8
8  16  8

$$$$

