23724587
  -OEChem-07051213083D

 78 81  0     1  0  0  0  0  0999 V2000
   -3.5115    1.3994    0.9064 O   0  0  0  0  0  0  0  0  0  0  0  0
    7.9435    0.9945    1.3295 O   0  0  0  0  0  0  0  0  0  0  0  0
   -0.2848   -0.5040   -1.2996 C   0  0  1  0  0  0  0  0  0  0  0  0
    0.5536   -1.5717   -0.5226 C   0  0  1  0  0  0  0  0  0  0  0  0
    2.0608   -1.2609   -0.4991 C   0  0  1  0  0  0  0  0  0  0  0  0
    2.3939    0.1392    0.0659 C   0  0  1  0  0  0  0  0  0  0  0  0
   -1.4976   -0.2012   -0.3594 C   0  0  2  0  0  0  0  0  0  0  0  0
    0.5293    0.7796   -1.5874 C   0  0  0  0  0  0  0  0  0  0  0  0
   -0.1195   -1.7083    0.8496 C   0  0  0  0  0  0  0  0  0  0  0  0
    3.9214    0.4857   -0.1495 C   0  0  2  0  0  0  0  0  0  0  0  0
    1.4034    1.2228   -0.4144 C   0  0  0  0  0  0  0  0  0  0  0  0
   -1.5817   -1.4181    0.5588 C   0  0  0  0  0  0  0  0  0  0  0  0
    2.8681   -2.3278    0.2549 C   0  0  0  0  0  0  0  0  0  0  0  0
   -2.8299    0.1103   -1.0295 C   0  0  1  0  0  0  0  0  0  0  0  0
   -0.7211   -1.1005   -2.6536 C   0  0  0  0  0  0  0  0  0  0  0  0
    4.8027   -0.7158    0.2289 C   0  0  0  0  0  0  0  0  0  0  0  0
    4.2849    1.6886    0.7724 C   0  0  0  0  0  0  0  0  0  0  0  0
    4.3090   -1.9527    0.4216 C   0  0  0  0  0  0  0  0  0  0  0  0
    4.2120    0.8507   -1.6255 C   0  0  0  0  0  0  0  0  0  0  0  0
    6.2812   -0.4547    0.3950 C   0  0  0  0  0  0  0  0  0  0  0  0
   -3.9287    0.3517    0.0346 C   0  0  2  0  0  0  0  0  0  0  0  0
    5.7838    1.9657    0.8846 C   0  0  0  0  0  0  0  0  0  0  0  0
    6.5460    0.7211    1.3302 C   0  0  2  0  0  0  0  0  0  0  0  0
   -2.6440    1.2899   -1.9898 C   0  0  0  0  0  0  0  0  0  0  0  0
   -5.2929    0.6998   -0.5856 C   0  0  0  0  0  0  0  0  0  0  0  0
   -6.4453    0.9468    0.4233 C   0  0  2  0  0  0  0  0  0  0  0  0
   -6.6531   -0.2142    1.4375 C   0  0  0  0  0  0  0  0  0  0  0  0
   -7.7164    1.2961   -0.3668 C   0  0  0  0  0  0  0  0  0  0  0  0
   -6.8990   -1.5550    0.7347 C   0  0  0  0  0  0  0  0  0  0  0  0
   -7.7680    0.0431    2.4548 C   0  0  0  0  0  0  0  0  0  0  0  0
    0.4326   -2.5468   -1.0177 H   0  0  0  0  0  0  0  0  0  0  0  0
    2.3891   -1.2980   -1.5472 H   0  0  0  0  0  0  0  0  0  0  0  0
    2.2510    0.0797    1.1564 H   0  0  0  0  0  0  0  0  0  0  0  0
   -1.2293    0.6521    0.2772 H   0  0  0  0  0  0  0  0  0  0  0  0
   -0.1057    1.6227   -1.8647 H   0  0  0  0  0  0  0  0  0  0  0  0
    1.1857    0.6128   -2.4523 H   0  0  0  0  0  0  0  0  0  0  0  0
    0.0135   -2.7079    1.2749 H   0  0  0  0  0  0  0  0  0  0  0  0
    0.2692   -0.9809    1.5701 H   0  0  0  0  0  0  0  0  0  0  0  0
    1.9131    2.1518   -0.6857 H   0  0  0  0  0  0  0  0  0  0  0  0
    0.7612    1.4995    0.4305 H   0  0  0  0  0  0  0  0  0  0  0  0
   -2.0522   -2.2712    0.0556 H   0  0  0  0  0  0  0  0  0  0  0  0
   -2.1210   -1.2205    1.4898 H   0  0  0  0  0  0  0  0  0  0  0  0
    2.8087   -3.2753   -0.2941 H   0  0  0  0  0  0  0  0  0  0  0  0
    2.4522   -2.5094    1.2523 H   0  0  0  0  0  0  0  0  0  0  0  0
   -3.1594   -0.7497   -1.6258 H   0  0  0  0  0  0  0  0  0  0  0  0
   -1.1154   -0.4011   -3.3866 H   0  0  0  0  0  0  0  0  0  0  0  0
    0.1498   -1.5521   -3.1481 H   0  0  0  0  0  0  0  0  0  0  0  0
   -1.4457   -1.9113   -2.5205 H   0  0  0  0  0  0  0  0  0  0  0  0
    3.7923    2.6038    0.4239 H   0  0  0  0  0  0  0  0  0  0  0  0
    3.9031    1.5022    1.7855 H   0  0  0  0  0  0  0  0  0  0  0  0
    4.9779   -2.7588    0.7128 H   0  0  0  0  0  0  0  0  0  0  0  0
    3.9565    0.0324   -2.3065 H   0  0  0  0  0  0  0  0  0  0  0  0
    3.6532    1.7348   -1.9465 H   0  0  0  0  0  0  0  0  0  0  0  0
    5.2700    1.0776   -1.7948 H   0  0  0  0  0  0  0  0  0  0  0  0
    6.7312   -0.2657   -0.5879 H   0  0  0  0  0  0  0  0  0  0  0  0
    6.8075   -1.3378    0.7802 H   0  0  0  0  0  0  0  0  0  0  0  0
   -4.0414   -0.5514    0.6386 H   0  0  0  0  0  0  0  0  0  0  0  0
    5.9586    2.7765    1.6027 H   0  0  0  0  0  0  0  0  0  0  0  0
    6.1798    2.3350   -0.0692 H   0  0  0  0  0  0  0  0  0  0  0  0
    6.2616    0.4576    2.3556 H   0  0  0  0  0  0  0  0  0  0  0  0
   -3.5829    1.5088   -2.5085 H   0  0  0  0  0  0  0  0  0  0  0  0
   -2.3624    2.1985   -1.4458 H   0  0  0  0  0  0  0  0  0  0  0  0
   -1.9305    1.1656   -2.7942 H   0  0  0  0  0  0  0  0  0  0  0  0
   -5.1990    1.6307   -1.1576 H   0  0  0  0  0  0  0  0  0  0  0  0
   -5.5786   -0.0798   -1.3020 H   0  0  0  0  0  0  0  0  0  0  0  0
   -6.1834    1.8390    1.0089 H   0  0  0  0  0  0  0  0  0  0  0  0
   -3.5670    2.2398    0.4215 H   0  0  0  0  0  0  0  0  0  0  0  0
    8.2016    1.2442    0.4257 H   0  0  0  0  0  0  0  0  0  0  0  0
   -5.7319   -0.3147    2.0247 H   0  0  0  0  0  0  0  0  0  0  0  0
   -8.5368    1.5793    0.2991 H   0  0  0  0  0  0  0  0  0  0  0  0
   -7.5342    2.1503   -1.0286 H   0  0  0  0  0  0  0  0  0  0  0  0
   -8.0507    0.4615   -0.9903 H   0  0  0  0  0  0  0  0  0  0  0  0
   -6.0675   -1.8372    0.0833 H   0  0  0  0  0  0  0  0  0  0  0  0
   -7.8153   -1.5391    0.1366 H   0  0  0  0  0  0  0  0  0  0  0  0
   -7.0068   -2.3561    1.4749 H   0  0  0  0  0  0  0  0  0  0  0  0
   -7.6313    1.0136    2.9427 H   0  0  0  0  0  0  0  0  0  0  0  0
   -8.7577    0.0282    1.9879 H   0  0  0  0  0  0  0  0  0  0  0  0
   -7.7611   -0.7259    3.2351 H   0  0  0  0  0  0  0  0  0  0  0  0
  1 21  1  0  0  0  0
  1 67  1  0  0  0  0
  2 23  1  0  0  0  0
  2 68  1  0  0  0  0
  3  4  1  0  0  0  0
  3  7  1  0  0  0  0
  3  8  1  0  0  0  0
  3 15  1  0  0  0  0
  4  5  1  0  0  0  0
  4  9  1  0  0  0  0
  4 31  1  0  0  0  0
  5  6  1  0  0  0  0
  5 13  1  0  0  0  0
  5 32  1  0  0  0  0
  6 10  1  0  0  0  0
  6 11  1  0  0  0  0
  6 33  1  0  0  0  0
  7 12  1  0  0  0  0
  7 14  1  0  0  0  0
  7 34  1  0  0  0  0
  8 11  1  0  0  0  0
  8 35  1  0  0  0  0
  8 36  1  0  0  0  0
  9 12  1  0  0  0  0
  9 37  1  0  0  0  0
  9 38  1  0  0  0  0
 10 16  1  0  0  0  0
 10 17  1  0  0  0  0
 10 19  1  0  0  0  0
 11 39  1  0  0  0  0
 11 40  1  0  0  0  0
 12 41  1  0  0  0  0
 12 42  1  0  0  0  0
 13 18  1  0  0  0  0
 13 43  1  0  0  0  0
 13 44  1  0  0  0  0
 14 21  1  0  0  0  0
 14 24  1  0  0  0  0
 14 45  1  0  0  0  0
 15 46  1  0  0  0  0
 15 47  1  0  0  0  0
 15 48  1  0  0  0  0
 16 18  2  0  0  0  0
 16 20  1  0  0  0  0
 17 22  1  0  0  0  0
 17 49  1  0  0  0  0
 17 50  1  0  0  0  0
 18 51  1  0  0  0  0
 19 52  1  0  0  0  0
 19 53  1  0  0  0  0
 19 54  1  0  0  0  0
 20 23  1  0  0  0  0
 20 55  1  0  0  0  0
 20 56  1  0  0  0  0
 21 25  1  0  0  0  0
 21 57  1  0  0  0  0
 22 23  1  0  0  0  0
 22 58  1  0  0  0  0
 22 59  1  0  0  0  0
 23 60  1  0  0  0  0
 24 61  1  0  0  0  0
 24 62  1  0  0  0  0
 24 63  1  0  0  0  0
 25 26  1  0  0  0  0
 25 64  1  0  0  0  0
 25 65  1  0  0  0  0
 26 27  1  0  0  0  0
 26 28  1  0  0  0  0
 26 66  1  0  0  0  0
 27 29  1  0  0  0  0
 27 30  1  0  0  0  0
 27 69  1  0  0  0  0
 28 70  1  0  0  0  0
 28 71  1  0  0  0  0
 28 72  1  0  0  0  0
 29 73  1  0  0  0  0
 29 74  1  0  0  0  0
 29 75  1  0  0  0  0
 30 76  1  0  0  0  0
 30 77  1  0  0  0  0
 30 78  1  0  0  0  0
M  END
> <PUBCHEM_COMPOUND_CID>
23724587

> <PUBCHEM_CONFORMER_RMSD>
0.8

> <PUBCHEM_CONFORMER_DIVERSEORDER>
4
13
2
17
11
5
14
6
16
15
3
10
18
12
20
1
9
19
7
8

> <PUBCHEM_MMFF94_PARTIAL_CHARGES>
12
1 -0.68
10 0.14
13 0.14
16 -0.28
18 -0.29
2 -0.68
20 0.14
21 0.28
23 0.28
51 0.15
67 0.4
68 0.4

> <PUBCHEM_EFFECTIVE_ROTOR_COUNT>
7

> <PUBCHEM_PHARMACOPHORE_FEATURES>
11
1 1 acceptor
1 1 donor
1 2 acceptor
1 2 donor
1 24 hydrophobe
1 28 hydrophobe
3 27 29 30 hydrophobe
5 3 4 7 9 12 rings
6 10 16 17 20 22 23 rings
6 3 4 5 6 8 11 rings
6 5 6 10 13 16 18 rings

> <PUBCHEM_HEAVY_ATOM_COUNT>
30

> <PUBCHEM_ATOM_DEF_STEREO_COUNT>
9

> <PUBCHEM_ATOM_UDEF_STEREO_COUNT>
1

> <PUBCHEM_BOND_DEF_STEREO_COUNT>
0

> <PUBCHEM_BOND_UDEF_STEREO_COUNT>
0

> <PUBCHEM_ISOTOPIC_ATOM_COUNT>
0

> <PUBCHEM_COMPONENT_COUNT>
1

> <PUBCHEM_CACTVS_TAUTO_COUNT>
1

> <PUBCHEM_CONFORMER_ID>
016A022B00000004

> <PUBCHEM_MMFF94_ENERGY>
101.4069

> <PUBCHEM_FEATURE_SELFOVERLAP>
56.054

> <PUBCHEM_SHAPE_FINGERPRINT>
10 15 17989207023480015648
106641 1 17989204824087228809
11456790 92 18410302436656818696
11578080 2 17315093073099115178
11646440 116 18412824685469937225
11724838 91 18411984632921793199
12035758 1 18060704978767763282
12166972 35 13686293569820379639
12236239 1 17749117690103046982
12596602 18 18410856594426848451
12633257 1 17346321462628515062
12788726 201 16370722660203082034
13533116 47 18337673126347216326
13540713 4 17629214984847411398
13540713 5 17415830293728515502
13668630 136 10519983781210140721
13782708 43 16773802527665922355
13811026 1 17775287158403858749
14068700 675 15195280924640761029
14251757 52 16877939442848802633
14251764 18 17989486294985230374
14849402 71 18188209797475805353
15064981 113 11959186138893106475
15183329 4 7925637679007804751
15188451 53 15482672372797947747
15475509 35 16844743070147290506
15475509 8 6266904567310086571
1577012 14 17385449820889886613
15840311 113 18259987084931319300
16994733 274 16515681165381924499
18222031 100 15339110260714856031
20157964 124 17894629275315931862
2026 5 12246861381647409416
20505436 4 17821737117820163694
21033648 29 17702955853951763005
21130935 74 18341611564097587139
21424621 283 16081082693170458727
21637258 2 13470692537720692021
21781051 124 17703774938949784330
21792934 111 17989211494778335133
21987483 16 16628821874147979865
22122407 14 17749664099879014105
22149856 69 18129365142496275993
22224240 67 18343868818387310307
22956985 138 14475021776511623048
23559900 14 17916872439097348214
23576562 1 6049857686600730689
2838139 119 17821737125850805065
3004659 81 9727632799980333212
3009799 131 6771864082468834324
3383291 50 16844998041012459283
3472631 163 17458349606949881524
3633792 109 15357965781830859196
392239 28 18338222809621213113
397830 11 18412540999223158091
4093350 32 17675922119142867150
4340502 62 18342737424964179514
437815 12 9295288335660526107
465052 167 16343698820244286366
474113 269 14764364721012834331
5104073 3 18200598136872339121
9953998 17 18343299267738802171

> <PUBCHEM_SHAPE_MULTIPOLES>
605.65
21.02
1.98
1.81
17.09
0.51
-0.34
-4.48
13.77
-0.93
0.06
1.01
-0.24
1.49

> <PUBCHEM_SHAPE_SELFOVERLAP>
1254.448

> <PUBCHEM_SHAPE_VOLUME>
345.4

> <PUBCHEM_COORDINATE_TYPE>
2
5
10

$$$$

