519286
  -OEChem-07051213053D

 32 33  0     0  0  0  0  0  0999 V2000
    0.1409    1.0410   -0.7286 C   0  0  0  0  0  0  0  0  0  0  0  0
    0.7955    0.3560    0.4832 C   0  0  0  0  0  0  0  0  0  0  0  0
   -1.3240    1.4156   -0.5057 C   0  0  0  0  0  0  0  0  0  0  0  0
    2.2509    0.0063    0.2942 C   0  0  0  0  0  0  0  0  0  0  0  0
   -2.3006    0.3818   -0.2002 C   0  0  0  0  0  0  0  0  0  0  0  0
    2.5910   -1.2312   -0.2302 C   0  0  0  0  0  0  0  0  0  0  0  0
    3.2234    0.9287    0.6486 C   0  0  0  0  0  0  0  0  0  0  0  0
   -3.3811    0.6687    0.6340 C   0  0  0  0  0  0  0  0  0  0  0  0
   -2.1564   -0.8961   -0.7404 C   0  0  0  0  0  0  0  0  0  0  0  0
   -1.6868    2.7231   -0.5397 C   0  0  0  0  0  0  0  0  0  0  0  0
    3.9369   -1.5541   -0.4049 C   0  0  0  0  0  0  0  0  0  0  0  0
    4.5692    0.6057    0.4741 C   0  0  0  0  0  0  0  0  0  0  0  0
    4.9260   -0.6356   -0.0531 C   0  0  0  0  0  0  0  0  0  0  0  0
   -4.3179   -0.3224    0.9278 C   0  0  0  0  0  0  0  0  0  0  0  0
   -3.0931   -1.8872   -0.4464 C   0  0  0  0  0  0  0  0  0  0  0  0
   -4.1741   -1.6004    0.3874 C   0  0  0  0  0  0  0  0  0  0  0  0
    0.2307    0.4064   -1.6191 H   0  0  0  0  0  0  0  0  0  0  0  0
    0.7220    1.9420   -0.9694 H   0  0  0  0  0  0  0  0  0  0  0  0
    0.2533   -0.5600    0.7497 H   0  0  0  0  0  0  0  0  0  0  0  0
    0.6982    1.0062    1.3637 H   0  0  0  0  0  0  0  0  0  0  0  0
    1.8277   -1.9518   -0.5096 H   0  0  0  0  0  0  0  0  0  0  0  0
    2.9556    1.8987    1.0575 H   0  0  0  0  0  0  0  0  0  0  0  0
   -3.5177    1.6415    1.0985 H   0  0  0  0  0  0  0  0  0  0  0  0
   -1.3363   -1.1541   -1.4040 H   0  0  0  0  0  0  0  0  0  0  0  0
   -0.9514    3.4962   -0.7424 H   0  0  0  0  0  0  0  0  0  0  0  0
   -2.7060    3.0663   -0.4010 H   0  0  0  0  0  0  0  0  0  0  0  0
    4.2146   -2.5204   -0.8157 H   0  0  0  0  0  0  0  0  0  0  0  0
    5.3393    1.3210    0.7477 H   0  0  0  0  0  0  0  0  0  0  0  0
    5.9738   -0.8869   -0.1894 H   0  0  0  0  0  0  0  0  0  0  0  0
   -5.1561   -0.1013    1.5821 H   0  0  0  0  0  0  0  0  0  0  0  0
   -2.9826   -2.8817   -0.8688 H   0  0  0  0  0  0  0  0  0  0  0  0
   -4.9028   -2.3723    0.6168 H   0  0  0  0  0  0  0  0  0  0  0  0
  1  2  1  0  0  0  0
  1  3  1  0  0  0  0
  1 17  1  0  0  0  0
  1 18  1  0  0  0  0
  2  4  1  0  0  0  0
  2 19  1  0  0  0  0
  2 20  1  0  0  0  0
  3  5  1  0  0  0  0
  3 10  2  0  0  0  0
  4  6  2  0  0  0  0
  4  7  1  0  0  0  0
  5  8  2  0  0  0  0
  5  9  1  0  0  0  0
  6 11  1  0  0  0  0
  6 21  1  0  0  0  0
  7 12  2  0  0  0  0
  7 22  1  0  0  0  0
  8 14  1  0  0  0  0
  8 23  1  0  0  0  0
  9 15  2  0  0  0  0
  9 24  1  0  0  0  0
 10 25  1  0  0  0  0
 10 26  1  0  0  0  0
 11 13  2  0  0  0  0
 11 27  1  0  0  0  0
 12 13  1  0  0  0  0
 12 28  1  0  0  0  0
 13 29  1  0  0  0  0
 14 16  2  0  0  0  0
 14 30  1  0  0  0  0
 15 16  1  0  0  0  0
 15 31  1  0  0  0  0
 16 32  1  0  0  0  0
M  END
> <PUBCHEM_COMPOUND_CID>
519286

> <PUBCHEM_CONFORMER_RMSD>
0.6

> <PUBCHEM_CONFORMER_DIVERSEORDER>
3
38
5
33
29
14
27
40
41
19
37
6
8
7
9
18
35
23
10
13
12
17
11
28
22
21
36
34
15
26
2
4
30
1
16
31
32
24
39
20
25

> <PUBCHEM_MMFF94_PARTIAL_CHARGES>
28
1 0.14
10 -0.3
11 -0.15
12 -0.15
13 -0.15
14 -0.15
15 -0.15
16 -0.15
2 0.14
21 0.15
22 0.15
23 0.15
24 0.15
25 0.15
26 0.15
27 0.15
28 0.15
29 0.15
3 -0.17
30 0.15
31 0.15
32 0.15
4 -0.14
5 0.03
6 -0.15
7 -0.15
8 -0.15
9 -0.15

> <PUBCHEM_EFFECTIVE_ROTOR_COUNT>
4

> <PUBCHEM_PHARMACOPHORE_FEATURES>
3
1 10 hydrophobe
6 4 6 7 11 12 13 rings
6 5 8 9 14 15 16 rings

> <PUBCHEM_HEAVY_ATOM_COUNT>
16

> <PUBCHEM_ATOM_DEF_STEREO_COUNT>
0

> <PUBCHEM_ATOM_UDEF_STEREO_COUNT>
0

> <PUBCHEM_BOND_DEF_STEREO_COUNT>
0

> <PUBCHEM_BOND_UDEF_STEREO_COUNT>
0

> <PUBCHEM_ISOTOPIC_ATOM_COUNT>
0

> <PUBCHEM_COMPONENT_COUNT>
1

> <PUBCHEM_CACTVS_TAUTO_COUNT>
1

> <PUBCHEM_CONFORMER_ID>
0007EC7600000003

> <PUBCHEM_MMFF94_ENERGY>
46.4795

> <PUBCHEM_FEATURE_SELFOVERLAP>
15.223

> <PUBCHEM_SHAPE_FINGERPRINT>
10616163 171 18410856602663809390
10618630 7 18342738503079780343
11046707 91 18413672400655662969
11089746 13 9151174217131149290
11128504 68 17489293180081137086
11370993 144 17822846601691294891
11405975 8 18266745873212172552
11543360 7 13183018488709218073
11552529 35 17458914717018924487
12251169 10 18113897131006181381
12553582 1 18272661125320580043
12596602 18 15864072027008768330
12633257 1 16732975380657784979
128620 24 17132114645559077682
13167823 11 18201442544907542450
14289901 80 18342458170907469648
14341114 176 18186513306883993592
17349148 13 16630529557355161168
17804303 29 18333726914568909781
17834074 16 18335421304847392774
1813 80 17775280551900295109
18785283 64 18044952173167861616
19141452 34 18334293154720688831
193927 3 17917418788347601203
19489759 90 10952053338365562260
200 152 15913607276354960556
20281475 54 18336264548387224853
20671657 53 16702307819130539357
21065199 12 18260268564065496296
21079973 296 18272087163034030082
21673915 165 18334860463575662486
221490 88 18335983168696529030
22646028 28 18273213079856926079
23402539 116 17918279761717957720
23557571 272 18337667615809210876
23559900 14 18410301332401966112
2838139 119 14708047855929360385
2871803 45 18342747320510833174
3268164 11 17346323725411681204
4214541 1 18335701688717910952
4325135 7 18272929389384031236
5104073 3 18335429027662698544
5924683 9 17531536373802403543
6049 1 18262250987910246544
77779 3 18334575754677955848
83771 10 18410293601122937368
9709674 26 18412259536899338186

> <PUBCHEM_SHAPE_MULTIPOLES>
329.27
10.31
2.1
0.9
5.5
0.51
0.02
-3.84
1.84
-1.3
-0.45
-0.3
0.06
0.54

> <PUBCHEM_SHAPE_SELFOVERLAP>
697.115

> <PUBCHEM_SHAPE_VOLUME>
175.9

> <PUBCHEM_COORDINATE_TYPE>
2
5
10

$$$$

