5281229
  -OEChem-07051212552D

100101  0     1  0  0  0  0  0999 V2000
    4.8479   -6.2748    0.0000 O   0  0  0  0  0  0  0  0  0  0  0  0
   19.0831    6.2748    0.0000 O   0  0  0  0  0  0  0  0  0  0  0  0
    3.9411   -2.2044    0.0000 O   0  0  0  0  0  0  0  0  0  0  0  0
   19.9899    2.2044    0.0000 O   0  0  0  0  0  0  0  0  0  0  0  0
    2.9511   -4.5147    0.0000 C   0  0  0  0  0  0  0  0  0  0  0  0
   20.9799    4.5147    0.0000 C   0  0  0  0  0  0  0  0  0  0  0  0
    3.7601   -3.9270    0.0000 C   0  0  2  0  0  0  0  0  0  0  0  0
   20.1709    3.9270    0.0000 C   0  0  2  0  0  0  0  0  0  0  0  0
    3.2601   -5.4658    0.0000 C   0  0  0  0  0  0  0  0  0  0  0  0
   20.6709    5.4658    0.0000 C   0  0  0  0  0  0  0  0  0  0  0  0
    4.5691   -4.5147    0.0000 C   0  0  0  0  0  0  0  0  0  0  0  0
   19.3619    4.5147    0.0000 C   0  0  0  0  0  0  0  0  0  0  0  0
    4.2601   -5.4658    0.0000 C   0  0  1  0  0  0  0  0  0  0  0  0
   19.6709    5.4658    0.0000 C   0  0  1  0  0  0  0  0  0  0  0  0
    2.0000   -4.8238    0.0000 C   0  0  0  0  0  0  0  0  0  0  0  0
    2.3633   -3.7057    0.0000 C   0  0  0  0  0  0  0  0  0  0  0  0
   21.9310    4.8238    0.0000 C   0  0  0  0  0  0  0  0  0  0  0  0
   21.5677    3.7057    0.0000 C   0  0  0  0  0  0  0  0  0  0  0  0
    3.1723   -3.1179    0.0000 C   0  0  0  0  0  0  0  0  0  0  0  0
   20.7587    3.1179    0.0000 C   0  0  0  0  0  0  0  0  0  0  0  0
    4.3479   -3.1179    0.0000 C   0  0  0  0  0  0  0  0  0  0  0  0
   19.5831    3.1179    0.0000 C   0  0  0  0  0  0  0  0  0  0  0  0
    5.3424   -3.2225    0.0000 C   0  0  0  0  0  0  0  0  0  0  0  0
   18.5886    3.2225    0.0000 C   0  0  0  0  0  0  0  0  0  0  0  0
    5.9302   -2.4134    0.0000 C   0  0  0  0  0  0  0  0  0  0  0  0
   18.0008    2.4134    0.0000 C   0  0  0  0  0  0  0  0  0  0  0  0
    6.9247   -2.5180    0.0000 C   0  0  0  0  0  0  0  0  0  0  0  0
   17.0063    2.5180    0.0000 C   0  0  0  0  0  0  0  0  0  0  0  0
    7.3314   -3.4315    0.0000 C   0  0  0  0  0  0  0  0  0  0  0  0
   16.5996    3.4315    0.0000 C   0  0  0  0  0  0  0  0  0  0  0  0
    7.5125   -1.7090    0.0000 C   0  0  0  0  0  0  0  0  0  0  0  0
   16.4185    1.7090    0.0000 C   0  0  0  0  0  0  0  0  0  0  0  0
    8.5070   -1.8135    0.0000 C   0  0  0  0  0  0  0  0  0  0  0  0
   15.4240    1.8135    0.0000 C   0  0  0  0  0  0  0  0  0  0  0  0
    9.0948   -1.0045    0.0000 C   0  0  0  0  0  0  0  0  0  0  0  0
   14.8362    1.0045    0.0000 C   0  0  0  0  0  0  0  0  0  0  0  0
   10.0893   -1.1090    0.0000 C   0  0  0  0  0  0  0  0  0  0  0  0
   13.8417    1.1090    0.0000 C   0  0  0  0  0  0  0  0  0  0  0  0
   10.4960   -2.0225    0.0000 C   0  0  0  0  0  0  0  0  0  0  0  0
   13.4350    2.0225    0.0000 C   0  0  0  0  0  0  0  0  0  0  0  0
   10.6771   -0.3000    0.0000 C   0  0  0  0  0  0  0  0  0  0  0  0
   13.2539    0.3000    0.0000 C   0  0  0  0  0  0  0  0  0  0  0  0
   11.6716   -0.4045    0.0000 C   0  0  0  0  0  0  0  0  0  0  0  0
   12.2594    0.4045    0.0000 C   0  0  0  0  0  0  0  0  0  0  0  0
    2.6536   -5.5947    0.0000 H   0  0  0  0  0  0  0  0  0  0  0  0
    3.3249   -6.0824    0.0000 H   0  0  0  0  0  0  0  0  0  0  0  0
   21.2774    5.5947    0.0000 H   0  0  0  0  0  0  0  0  0  0  0  0
   20.6061    6.0824    0.0000 H   0  0  0  0  0  0  0  0  0  0  0  0
    5.1355   -4.7669    0.0000 H   0  0  0  0  0  0  0  0  0  0  0  0
    4.8791   -3.9778    0.0000 H   0  0  0  0  0  0  0  0  0  0  0  0
   18.7955    4.7669    0.0000 H   0  0  0  0  0  0  0  0  0  0  0  0
   19.0519    3.9778    0.0000 H   0  0  0  0  0  0  0  0  0  0  0  0
    4.8724   -5.3688    0.0000 H   0  0  0  0  0  0  0  0  0  0  0  0
   19.9524    6.0182    0.0000 H   0  0  0  0  0  0  0  0  0  0  0  0
    1.8084   -4.2341    0.0000 H   0  0  0  0  0  0  0  0  0  0  0  0
    1.4103   -5.0153    0.0000 H   0  0  0  0  0  0  0  0  0  0  0  0
    2.1916   -5.4134    0.0000 H   0  0  0  0  0  0  0  0  0  0  0  0
    2.8649   -3.3413    0.0000 H   0  0  0  0  0  0  0  0  0  0  0  0
    1.9988   -3.2041    0.0000 H   0  0  0  0  0  0  0  0  0  0  0  0
    1.8617   -4.0702    0.0000 H   0  0  0  0  0  0  0  0  0  0  0  0
   22.1226    4.2341    0.0000 H   0  0  0  0  0  0  0  0  0  0  0  0
   22.5207    5.0153    0.0000 H   0  0  0  0  0  0  0  0  0  0  0  0
   21.7394    5.4134    0.0000 H   0  0  0  0  0  0  0  0  0  0  0  0
   21.0661    3.3413    0.0000 H   0  0  0  0  0  0  0  0  0  0  0  0
   21.9322    3.2041    0.0000 H   0  0  0  0  0  0  0  0  0  0  0  0
   22.0693    4.0702    0.0000 H   0  0  0  0  0  0  0  0  0  0  0  0
    3.6739   -2.7535    0.0000 H   0  0  0  0  0  0  0  0  0  0  0  0
    2.8079   -2.6163    0.0000 H   0  0  0  0  0  0  0  0  0  0  0  0
    2.6707   -3.4824    0.0000 H   0  0  0  0  0  0  0  0  0  0  0  0
   20.2571    2.7535    0.0000 H   0  0  0  0  0  0  0  0  0  0  0  0
   21.1231    2.6163    0.0000 H   0  0  0  0  0  0  0  0  0  0  0  0
   21.2603    3.4824    0.0000 H   0  0  0  0  0  0  0  0  0  0  0  0
    4.5957   -6.8412    0.0000 H   0  0  0  0  0  0  0  0  0  0  0  0
   19.3353    6.8412    0.0000 H   0  0  0  0  0  0  0  0  0  0  0  0
    5.5946   -3.7889    0.0000 H   0  0  0  0  0  0  0  0  0  0  0  0
   18.3364    3.7889    0.0000 H   0  0  0  0  0  0  0  0  0  0  0  0
    5.6780   -1.8470    0.0000 H   0  0  0  0  0  0  0  0  0  0  0  0
   18.2530    1.8470    0.0000 H   0  0  0  0  0  0  0  0  0  0  0  0
    6.7650   -3.6837    0.0000 H   0  0  0  0  0  0  0  0  0  0  0  0
    7.5836   -3.9979    0.0000 H   0  0  0  0  0  0  0  0  0  0  0  0
    7.8978   -3.1793    0.0000 H   0  0  0  0  0  0  0  0  0  0  0  0
   17.1660    3.6837    0.0000 H   0  0  0  0  0  0  0  0  0  0  0  0
   16.3474    3.9979    0.0000 H   0  0  0  0  0  0  0  0  0  0  0  0
   16.0332    3.1793    0.0000 H   0  0  0  0  0  0  0  0  0  0  0  0
    7.2603   -1.1426    0.0000 H   0  0  0  0  0  0  0  0  0  0  0  0
   16.6707    1.1426    0.0000 H   0  0  0  0  0  0  0  0  0  0  0  0
    8.7592   -2.3799    0.0000 H   0  0  0  0  0  0  0  0  0  0  0  0
   15.1718    2.3799    0.0000 H   0  0  0  0  0  0  0  0  0  0  0  0
    8.8426   -0.4381    0.0000 H   0  0  0  0  0  0  0  0  0  0  0  0
   15.0884    0.4381    0.0000 H   0  0  0  0  0  0  0  0  0  0  0  0
    9.9296   -2.2747    0.0000 H   0  0  0  0  0  0  0  0  0  0  0  0
   10.7482   -2.5889    0.0000 H   0  0  0  0  0  0  0  0  0  0  0  0
   11.0624   -1.7704    0.0000 H   0  0  0  0  0  0  0  0  0  0  0  0
   14.0014    2.2747    0.0000 H   0  0  0  0  0  0  0  0  0  0  0  0
   13.1828    2.5889    0.0000 H   0  0  0  0  0  0  0  0  0  0  0  0
   12.8686    1.7704    0.0000 H   0  0  0  0  0  0  0  0  0  0  0  0
   10.4249    0.2664    0.0000 H   0  0  0  0  0  0  0  0  0  0  0  0
   13.5061   -0.2664    0.0000 H   0  0  0  0  0  0  0  0  0  0  0  0
   11.9238   -0.9709    0.0000 H   0  0  0  0  0  0  0  0  0  0  0  0
   12.0072    0.9709    0.0000 H   0  0  0  0  0  0  0  0  0  0  0  0
 13  1  1  1  0  0  0
  1 73  1  0  0  0  0
 14  2  1  1  0  0  0
  2 74  1  0  0  0  0
  3 21  2  0  0  0  0
  4 22  2  0  0  0  0
  5  7  1  0  0  0  0
  5  9  1  0  0  0  0
  5 15  1  0  0  0  0
  5 16  1  0  0  0  0
  6  8  1  0  0  0  0
  6 10  1  0  0  0  0
  6 17  1  0  0  0  0
  6 18  1  0  0  0  0
  7 11  1  0  0  0  0
  7 19  1  1  0  0  0
  7 21  1  0  0  0  0
  8 12  1  0  0  0  0
  8 20  1  1  0  0  0
  8 22  1  0  0  0  0
  9 13  1  0  0  0  0
  9 45  1  0  0  0  0
  9 46  1  0  0  0  0
 10 14  1  0  0  0  0
 10 47  1  0  0  0  0
 10 48  1  0  0  0  0
 11 13  1  0  0  0  0
 11 49  1  0  0  0  0
 11 50  1  0  0  0  0
 12 14  1  0  0  0  0
 12 51  1  0  0  0  0
 12 52  1  0  0  0  0
 13 53  1  0  0  0  0
 14 54  1  0  0  0  0
 15 55  1  0  0  0  0
 15 56  1  0  0  0  0
 15 57  1  0  0  0  0
 16 58  1  0  0  0  0
 16 59  1  0  0  0  0
 16 60  1  0  0  0  0
 17 61  1  0  0  0  0
 17 62  1  0  0  0  0
 17 63  1  0  0  0  0
 18 64  1  0  0  0  0
 18 65  1  0  0  0  0
 18 66  1  0  0  0  0
 19 67  1  0  0  0  0
 19 68  1  0  0  0  0
 19 69  1  0  0  0  0
 20 70  1  0  0  0  0
 20 71  1  0  0  0  0
 20 72  1  0  0  0  0
 21 23  1  0  0  0  0
 22 24  1  0  0  0  0
 23 25  2  0  0  0  0
 23 75  1  0  0  0  0
 24 26  2  0  0  0  0
 24 76  1  0  0  0  0
 25 27  1  0  0  0  0
 25 77  1  0  0  0  0
 26 28  1  0  0  0  0
 26 78  1  0  0  0  0
 27 29  1  0  0  0  0
 27 31  2  0  0  0  0
 28 30  1  0  0  0  0
 28 32  2  0  0  0  0
 29 79  1  0  0  0  0
 29 80  1  0  0  0  0
 29 81  1  0  0  0  0
 30 82  1  0  0  0  0
 30 83  1  0  0  0  0
 30 84  1  0  0  0  0
 31 33  1  0  0  0  0
 31 85  1  0  0  0  0
 32 34  1  0  0  0  0
 32 86  1  0  0  0  0
 33 35  2  0  0  0  0
 33 87  1  0  0  0  0
 34 36  2  0  0  0  0
 34 88  1  0  0  0  0
 35 37  1  0  0  0  0
 35 89  1  0  0  0  0
 36 38  1  0  0  0  0
 36 90  1  0  0  0  0
 37 39  1  0  0  0  0
 37 41  2  0  0  0  0
 38 40  1  0  0  0  0
 38 42  2  0  0  0  0
 39 91  1  0  0  0  0
 39 92  1  0  0  0  0
 39 93  1  0  0  0  0
 40 94  1  0  0  0  0
 40 95  1  0  0  0  0
 40 96  1  0  0  0  0
 41 43  1  0  0  0  0
 41 97  1  0  0  0  0
 42 44  1  0  0  0  0
 42 98  1  0  0  0  0
 43 44  2  0  0  0  0
 43 99  1  0  0  0  0
 44100  1  0  0  0  0
M  END
> <PUBCHEM_COMPOUND_CID>
5281229

> <PUBCHEM_COMPOUND_CANONICALIZED>
1

> <PUBCHEM_CACTVS_COMPLEXITY>
1230

> <PUBCHEM_CACTVS_HBOND_ACCEPTOR>
4

> <PUBCHEM_CACTVS_HBOND_DONOR>
2

> <PUBCHEM_CACTVS_ROTATABLE_BOND>
12

> <PUBCHEM_CACTVS_SUBSKEYS>
AAADcfB8OAAAAAAAAAAAAAAAAAAAAYMAAAAAAAAAAAAAAAAAAAAAGgAACAAADhSggAICAAAAAgCIAqBSAAAAAAAgAAAICAEAAEgIEBIAAQAAQAAEgAAIgYOKzMDPgAAAAAAAAAAAAAAAAAAAAIAACAAAAA==

> <PUBCHEM_IUPAC_OPENEYE_NAME>
(2E,4E,6E,8E,10E,12E,14E,16E,18E)-1,20-bis[(1R,4S)-4-hydroxy-1,2,2-trimethyl-cyclopentyl]-4,8,13,17-tetramethyl-icosa-2,4,6,8,10,12,14,16,18-nonaene-1,20-dione

> <PUBCHEM_IUPAC_CAS_NAME>
(2E,4E,6E,8E,10E,12E,14E,16E,18E)-1,20-bis[(1R,4S)-4-hydroxy-1,2,2-trimethylcyclopentyl]-4,8,13,17-tetramethyleicosa-2,4,6,8,10,12,14,16,18-nonaene-1,20-dione

> <PUBCHEM_IUPAC_NAME>
(2E,4E,6E,8E,10E,12E,14E,16E,18E)-1,20-bis[(1R,4S)-4-hydroxy-1,2,2-trimethylcyclopentyl]-4,8,13,17-tetramethylicosa-2,4,6,8,10,12,14,16,18-nonaene-1,20-dione

> <PUBCHEM_IUPAC_SYSTEMATIC_NAME>
(2E,4E,6E,8E,10E,12E,14E,16E,18E)-4,8,13,17-tetramethyl-1,20-bis[(1R,4S)-1,2,2-trimethyl-4-oxidanyl-cyclopentyl]icosa-2,4,6,8,10,12,14,16,18-nonaene-1,20-dione

> <PUBCHEM_IUPAC_TRADITIONAL_NAME>
(2E,4E,6E,8E,10E,12E,14E,16E,18E)-1,20-bis[(1R,4S)-4-hydroxy-1,2,2-trimethyl-cyclopentyl]-4,8,13,17-tetramethyl-eicosa-2,4,6,8,10,12,14,16,18-nonaene-1,20-dione

> <PUBCHEM_IUPAC_INCHI>
InChI=1S/C40H56O4/c1-29(17-13-19-31(3)21-23-35(43)39(9)27-33(41)25-37(39,5)6)15-11-12-16-30(2)18-14-20-32(4)22-24-36(44)40(10)28-34(42)26-38(40,7)8/h11-24,33-34,41-42H,25-28H2,1-10H3/b12-11+,17-13+,18-14+,23-21+,24-22+,29-15+,30-16+,31-19+,32-20+/t33-,34-,39-,40-/m0/s1

> <PUBCHEM_IUPAC_INCHIKEY>
GVOIABOMXKDDGU-YUURSNASSA-N

> <PUBCHEM_XLOGP3_AA>
10.3

> <PUBCHEM_EXACT_MASS>
600.41786

> <PUBCHEM_MOLECULAR_FORMULA>
C40H56O4

> <PUBCHEM_MOLECULAR_WEIGHT>
600.87024

> <PUBCHEM_OPENEYE_CAN_SMILES>
CC(=CC=CC=C(C)C=CC=C(C)C=CC(=O)C1(CC(CC1(C)C)O)C)C=CC=C(C)C=CC(=O)C2(CC(CC2(C)C)O)C

> <PUBCHEM_OPENEYE_ISO_SMILES>
C/C(=C\C=C\C=C(\C=C\C=C(\C=C\C(=O)[C@]1(C(C[C@@H](C1)O)(C)C)C)/C)/C)/C=C/C=C(/C=C/C(=O)[C@]2(C(C[C@@H](C2)O)(C)C)C)\C

> <PUBCHEM_CACTVS_TPSA>
74.6

> <PUBCHEM_MONOISOTOPIC_WEIGHT>
600.41786

> <PUBCHEM_TOTAL_CHARGE>
0

> <PUBCHEM_HEAVY_ATOM_COUNT>
44

> <PUBCHEM_ATOM_DEF_STEREO_COUNT>
4

> <PUBCHEM_ATOM_UDEF_STEREO_COUNT>
0

> <PUBCHEM_BOND_DEF_STEREO_COUNT>
9

> <PUBCHEM_BOND_UDEF_STEREO_COUNT>
0

> <PUBCHEM_ISOTOPIC_ATOM_COUNT>
0

> <PUBCHEM_COMPONENT_COUNT>
1

> <PUBCHEM_CACTVS_TAUTO_COUNT>
1

> <PUBCHEM_COORDINATE_TYPE>
1
5
255

> <PUBCHEM_BONDANNOTATIONS>
13  1  5
14  2  5
7  19  5
8  20  5

$$$$

