5362123
  -OEChem-07051212542D

 61 62  0     1  0  0  0  0  0999 V2000
    4.2817    0.0000    0.0000 Cl  0  0  0  0  0  0  0  0  0  0  0  0
    4.8473    9.9317    0.0000 O   0  0  0  0  0  0  0  0  0  0  0  0
    2.0369    6.5168    0.0000 O   0  0  0  0  0  0  0  0  0  0  0  0
    2.0369    8.2489    0.0000 O   0  0  0  0  0  0  0  0  0  0  0  0
    6.1577   12.0024    0.0000 O   0  0  0  0  0  0  0  0  0  0  0  0
    4.9796   10.7327    0.0000 O   0  0  0  0  0  0  0  0  0  0  0  0
    4.0369    8.2489    0.0000 N   0  0  0  0  0  0  0  0  0  0  0  0
    6.4458    9.3724    0.0000 N   0  0  0  0  0  0  0  0  0  0  0  0
    5.0369    8.2489    0.0000 C   0  0  1  0  0  0  0  0  0  0  0  0
    5.4708    7.3479    0.0000 C   0  0  0  0  0  0  0  0  0  0  0  0
    6.4458    7.1254    0.0000 C   0  0  0  0  0  0  0  0  0  0  0  0
    3.5369    7.3828    0.0000 C   0  0  1  0  0  0  0  0  0  0  0  0
    5.4708    9.1498    0.0000 C   0  0  0  0  0  0  0  0  0  0  0  0
    7.2276    7.7489    0.0000 C   0  0  0  0  0  0  0  0  0  0  0  0
    7.2276    8.7489    0.0000 C   0  0  0  0  0  0  0  0  0  0  0  0
    4.0369    6.5168    0.0000 C   0  0  0  0  0  0  0  0  0  0  0  0
    3.5369    5.6508    0.0000 C   0  0  0  0  0  0  0  0  0  0  0  0
    6.6683   10.3473    0.0000 C   0  0  0  0  0  0  0  0  0  0  0  0
    8.1215    7.2142    0.0000 C   0  0  0  0  0  0  0  0  0  0  0  0
    2.5369    7.3828    0.0000 C   0  0  0  0  0  0  0  0  0  0  0  0
    8.1215    9.2835    0.0000 C   0  0  0  0  0  0  0  0  0  0  0  0
    4.0369    4.7848    0.0000 C   0  0  0  0  0  0  0  0  0  0  0  0
    9.0276    7.7280    0.0000 C   0  0  0  0  0  0  0  0  0  0  0  0
    9.0276    8.7697    0.0000 C   0  0  0  0  0  0  0  0  0  0  0  0
    5.9352   11.0274    0.0000 C   0  0  0  0  0  0  0  0  0  0  0  0
    3.5369    3.9187    0.0000 C   0  0  0  0  0  0  0  0  0  0  0  0
    5.0369    4.7848    0.0000 C   0  0  0  0  0  0  0  0  0  0  0  0
    1.0369    6.5168    0.0000 C   0  0  0  0  0  0  0  0  0  0  0  0
    4.0369    3.0527    0.0000 C   0  0  0  0  0  0  0  0  0  0  0  0
    5.5369    3.9187    0.0000 C   0  0  0  0  0  0  0  0  0  0  0  0
    5.0369    3.0527    0.0000 C   0  0  0  0  0  0  0  0  0  0  0  0
    0.5369    5.6508    0.0000 C   0  0  0  0  0  0  0  0  0  0  0  0
    4.7071    7.7239    0.0000 H   0  0  0  0  0  0  0  0  0  0  0  0
    4.8664    7.2099    0.0000 H   0  0  0  0  0  0  0  0  0  0  0  0
    5.4708    6.7279    0.0000 H   0  0  0  0  0  0  0  0  0  0  0  0
    6.1767    6.5668    0.0000 H   0  0  0  0  0  0  0  0  0  0  0  0
    6.9305    6.7388    0.0000 H   0  0  0  0  0  0  0  0  0  0  0  0
    3.2269    7.9198    0.0000 H   0  0  0  0  0  0  0  0  0  0  0  0
    3.7269    8.7858    0.0000 H   0  0  0  0  0  0  0  0  0  0  0  0
    4.5119    6.1183    0.0000 H   0  0  0  0  0  0  0  0  0  0  0  0
    4.5119    6.9153    0.0000 H   0  0  0  0  0  0  0  0  0  0  0  0
    3.0620    6.0493    0.0000 H   0  0  0  0  0  0  0  0  0  0  0  0
    3.0620    5.2522    0.0000 H   0  0  0  0  0  0  0  0  0  0  0  0
    7.2396   10.1064    0.0000 H   0  0  0  0  0  0  0  0  0  0  0  0
    7.0046   10.8681    0.0000 H   0  0  0  0  0  0  0  0  0  0  0  0
    8.1144    6.5942    0.0000 H   0  0  0  0  0  0  0  0  0  0  0  0
    8.1144    9.9035    0.0000 H   0  0  0  0  0  0  0  0  0  0  0  0
    9.5633    7.4160    0.0000 H   0  0  0  0  0  0  0  0  0  0  0  0
    9.5633    9.0817    0.0000 H   0  0  0  0  0  0  0  0  0  0  0  0
    2.9169    3.9187    0.0000 H   0  0  0  0  0  0  0  0  0  0  0  0
    5.3469    5.3217    0.0000 H   0  0  0  0  0  0  0  0  0  0  0  0
    1.1446    7.1274    0.0000 H   0  0  0  0  0  0  0  0  0  0  0  0
    0.4543    6.7289    0.0000 H   0  0  0  0  0  0  0  0  0  0  0  0
    3.7269    2.5158    0.0000 H   0  0  0  0  0  0  0  0  0  0  0  0
    6.1569    3.9187    0.0000 H   0  0  0  0  0  0  0  0  0  0  0  0
    5.3469    2.5158    0.0000 H   0  0  0  0  0  0  0  0  0  0  0  0
    5.7032   12.4241    0.0000 H   0  0  0  0  0  0  0  0  0  0  0  0
    0.0000    5.9608    0.0000 H   0  0  0  0  0  0  0  0  0  0  0  0
    0.2269    5.1138    0.0000 H   0  0  0  0  0  0  0  0  0  0  0  0
    1.0739    5.3408    0.0000 H   0  0  0  0  0  0  0  0  0  0  0  0
    5.2817    0.0000    0.0000 H   0  0  0  0  0  0  0  0  0  0  0  0
  1 61  1  0  0  0  0
  2 13  2  0  0  0  0
  3 20  1  0  0  0  0
  3 28  1  0  0  0  0
  4 20  2  0  0  0  0
  5 25  1  0  0  0  0
  5 57  1  0  0  0  0
  6 25  2  0  0  0  0
  9  7  1  6  0  0  0
 12  7  1  1  0  0  0
  7 39  1  0  0  0  0
  8 13  1  0  0  0  0
  8 15  1  0  0  0  0
  8 18  1  0  0  0  0
  9 10  1  0  0  0  0
  9 13  1  0  0  0  0
  9 33  1  0  0  0  0
 10 11  1  0  0  0  0
 10 34  1  0  0  0  0
 10 35  1  0  0  0  0
 11 14  1  0  0  0  0
 11 36  1  0  0  0  0
 11 37  1  0  0  0  0
 12 16  1  0  0  0  0
 12 20  1  0  0  0  0
 12 38  1  0  0  0  0
 14 15  1  0  0  0  0
 14 19  2  0  0  0  0
 15 21  2  0  0  0  0
 16 17  1  0  0  0  0
 16 40  1  0  0  0  0
 16 41  1  0  0  0  0
 17 22  1  0  0  0  0
 17 42  1  0  0  0  0
 17 43  1  0  0  0  0
 18 25  1  0  0  0  0
 18 44  1  0  0  0  0
 18 45  1  0  0  0  0
 19 23  1  0  0  0  0
 19 46  1  0  0  0  0
 21 24  1  0  0  0  0
 21 47  1  0  0  0  0
 22 26  2  0  0  0  0
 22 27  1  0  0  0  0
 23 24  2  0  0  0  0
 23 48  1  0  0  0  0
 24 49  1  0  0  0  0
 26 29  1  0  0  0  0
 26 50  1  0  0  0  0
 27 30  2  0  0  0  0
 27 51  1  0  0  0  0
 28 32  1  0  0  0  0
 28 52  1  0  0  0  0
 28 53  1  0  0  0  0
 29 31  2  0  0  0  0
 29 54  1  0  0  0  0
 30 31  1  0  0  0  0
 30 55  1  0  0  0  0
 31 56  1  0  0  0  0
 32 58  1  0  0  0  0
 32 59  1  0  0  0  0
 32 60  1  0  0  0  0
M  END
> <PUBCHEM_COMPOUND_CID>
5362123

> <PUBCHEM_COMPOUND_CANONICALIZED>
1

> <PUBCHEM_CACTVS_COMPLEXITY>
619

> <PUBCHEM_CACTVS_HBOND_ACCEPTOR>
6

> <PUBCHEM_CACTVS_HBOND_DONOR>
3

> <PUBCHEM_CACTVS_ROTATABLE_BOND>
10

> <PUBCHEM_CACTVS_SUBSKEYS>
AAADceB7OAAEAAAAAAAAAAAAAAAAAAAAAAAwYAAABYAAAAABQAAAHgAQCAAADCjhmAYyyIPABgCIAiXSWACCAAAhAgAIiIGIZIgKYDLAkbGXIAhklgDYyAeYyLCOAAAAAAACAAAAAAAAAAQAAAAAAAAAAA==

> <PUBCHEM_IUPAC_OPENEYE_NAME>
2-[(3S)-3-[[(1S)-1-ethoxycarbonyl-3-phenyl-propyl]amino]-2-oxo-4,5-dihydro-3H-1-benzazepin-1-yl]acetic acid hydrochloride

> <PUBCHEM_IUPAC_CAS_NAME>
2-[(3S)-3-[[(2S)-1-ethoxy-1-oxo-4-phenylbutan-2-yl]amino]-2-oxo-4,5-dihydro-3H-1-benzazepin-1-yl]acetic acid hydrochloride

> <PUBCHEM_IUPAC_NAME>
2-[(3S)-3-[[(2S)-1-ethoxy-1-oxo-4-phenylbutan-2-yl]amino]-2-oxo-4,5-dihydro-3H-1-benzazepin-1-yl]acetic acid hydrochloride

> <PUBCHEM_IUPAC_SYSTEMATIC_NAME>
2-[(3S)-3-[[(2S)-1-ethoxy-1-oxidanylidene-4-phenyl-butan-2-yl]amino]-2-oxidanylidene-4,5-dihydro-3H-1-benzazepin-1-yl]ethanoic acid hydrochloride

> <PUBCHEM_IUPAC_TRADITIONAL_NAME>
2-[(3S)-3-[[(1S)-1-carbethoxy-3-phenyl-propyl]amino]-2-keto-4,5-dihydro-3H-1-benzazepin-1-yl]acetic acid hydrochloride

> <PUBCHEM_IUPAC_INCHI>
InChI=1S/C24H28N2O5.ClH/c1-2-31-24(30)20(14-12-17-8-4-3-5-9-17)25-19-15-13-18-10-6-7-11-21(18)26(23(19)29)16-22(27)28;/h3-11,19-20,25H,2,12-16H2,1H3,(H,27,28);1H/t19-,20-;/m0./s1

> <PUBCHEM_IUPAC_INCHIKEY>
VPSRQEHTHIMDQM-FKLPMGAJSA-N

> <PUBCHEM_EXACT_MASS>
460.1765

> <PUBCHEM_MOLECULAR_FORMULA>
C24H29ClN2O5

> <PUBCHEM_MOLECULAR_WEIGHT>
460.95046

> <PUBCHEM_OPENEYE_CAN_SMILES>
CCOC(=O)C(CCC1=CC=CC=C1)NC2CCC3=CC=CC=C3N(C2=O)CC(=O)O.Cl

> <PUBCHEM_OPENEYE_ISO_SMILES>
CCOC(=O)[C@H](CCC1=CC=CC=C1)N[C@H]2CCC3=CC=CC=C3N(C2=O)CC(=O)O.Cl

> <PUBCHEM_CACTVS_TPSA>
95.9

> <PUBCHEM_MONOISOTOPIC_WEIGHT>
460.1765

> <PUBCHEM_TOTAL_CHARGE>
0

> <PUBCHEM_HEAVY_ATOM_COUNT>
32

> <PUBCHEM_ATOM_DEF_STEREO_COUNT>
2

> <PUBCHEM_ATOM_UDEF_STEREO_COUNT>
0

> <PUBCHEM_BOND_DEF_STEREO_COUNT>
0

> <PUBCHEM_BOND_UDEF_STEREO_COUNT>
0

> <PUBCHEM_ISOTOPIC_ATOM_COUNT>
0

> <PUBCHEM_COMPONENT_COUNT>
2

> <PUBCHEM_CACTVS_TAUTO_COUNT>
2

> <PUBCHEM_COORDINATE_TYPE>
1
5
255

> <PUBCHEM_BONDANNOTATIONS>
14  15  8
14  19  8
15  21  8
19  23  8
21  24  8
22  26  8
22  27  8
23  24  8
26  29  8
27  30  8
29  31  8
30  31  8
12  7  5
9  7  6

$$$$

