8447
  -OEChem-06261202503D

 28 31  0     0  0  0  0  0  0999 V2000
    1.7014   -0.1662    1.6213 S   0  0  0  0  0  0  0  0  0  0  0  0
   -1.7090   -0.1466   -1.6330 S   0  0  0  0  0  0  0  0  0  0  0  0
    0.4175    2.4964    0.9454 S   0  0  0  0  0  0  0  0  0  0  0  0
   -0.4262    2.5120   -0.9391 S   0  0  0  0  0  0  0  0  0  0  0  0
    2.5924    1.4333   -0.1952 N   0  0  0  0  0  0  0  0  0  0  0  0
   -2.5911    1.4326    0.2055 N   0  0  0  0  0  0  0  0  0  0  0  0
    3.1078   -0.6561    0.7525 C   0  0  0  0  0  0  0  0  0  0  0  0
   -3.1084   -0.6482   -0.7596 C   0  0  0  0  0  0  0  0  0  0  0  0
    3.4359    0.3319   -0.1808 C   0  0  0  0  0  0  0  0  0  0  0  0
   -3.4323    0.3296    0.1857 C   0  0  0  0  0  0  0  0  0  0  0  0
    3.8661   -1.8302    0.8870 C   0  0  0  0  0  0  0  0  0  0  0  0
   -3.8651   -1.8226   -0.9008 C   0  0  0  0  0  0  0  0  0  0  0  0
    4.5634    0.1355   -1.0074 C   0  0  0  0  0  0  0  0  0  0  0  0
   -4.5537    0.1225    1.0179 C   0  0  0  0  0  0  0  0  0  0  0  0
    1.6512    1.2780    0.7063 C   0  0  0  0  0  0  0  0  0  0  0  0
   -1.6681    1.2761   -0.7015 C   0  0  0  0  0  0  0  0  0  0  0  0
    4.9770   -1.9998    0.0568 C   0  0  0  0  0  0  0  0  0  0  0  0
   -4.9700   -2.0030   -0.0648 C   0  0  0  0  0  0  0  0  0  0  0  0
    5.3228   -1.0309   -0.8788 C   0  0  0  0  0  0  0  0  0  0  0  0
   -5.3115   -1.0443    0.8827 C   0  0  0  0  0  0  0  0  0  0  0  0
    3.6020   -2.5908    1.6152 H   0  0  0  0  0  0  0  0  0  0  0  0
   -3.6043   -2.5754   -1.6383 H   0  0  0  0  0  0  0  0  0  0  0  0
    4.8425    0.8858   -1.7418 H   0  0  0  0  0  0  0  0  0  0  0  0
   -4.8294    0.8648    1.7616 H   0  0  0  0  0  0  0  0  0  0  0  0
    5.5775   -2.9015    0.1446 H   0  0  0  0  0  0  0  0  0  0  0  0
   -5.5691   -2.9050   -0.1576 H   0  0  0  0  0  0  0  0  0  0  0  0
    6.1902   -1.1802   -1.5160 H   0  0  0  0  0  0  0  0  0  0  0  0
   -6.1742   -1.2018    1.5243 H   0  0  0  0  0  0  0  0  0  0  0  0
  1  7  1  0  0  0  0
  1 15  1  0  0  0  0
  2  8  1  0  0  0  0
  2 16  1  0  0  0  0
  3  4  1  0  0  0  0
  3 15  1  0  0  0  0
  4 16  1  0  0  0  0
  5  9  1  0  0  0  0
  5 15  2  0  0  0  0
  6 10  1  0  0  0  0
  6 16  2  0  0  0  0
  7  9  1  0  0  0  0
  7 11  2  0  0  0  0
  8 10  1  0  0  0  0
  8 12  2  0  0  0  0
  9 13  2  0  0  0  0
 10 14  2  0  0  0  0
 11 17  1  0  0  0  0
 11 21  1  0  0  0  0
 12 18  1  0  0  0  0
 12 22  1  0  0  0  0
 13 19  1  0  0  0  0
 13 23  1  0  0  0  0
 14 20  1  0  0  0  0
 14 24  1  0  0  0  0
 17 19  2  0  0  0  0
 17 25  1  0  0  0  0
 18 20  2  0  0  0  0
 18 26  1  0  0  0  0
 19 27  1  0  0  0  0
 20 28  1  0  0  0  0
M  END
> <PUBCHEM_COMPOUND_CID>
8447

> <PUBCHEM_CONFORMER_RMSD>
0.6

> <PUBCHEM_CONFORMER_DIVERSEORDER>
1
90
56
16
72
108
85
18
80
99
9
97
65
91
39
14
54
37
88
96
98
47
102
57
92
89
17
53
74
15
95
87
28
103
27
8
100
21
79
84
13
93
49
73
45
6
61
68
44
101
48
69
43
7
77
109
40
31
82
2
75
63
67
106
33
5
71
107
86
52
94
3
11
58
10
83
104
70
4
41
12
105
19
42
35
62
51
36
34
29
20
50
59
64
32
25
76
60
46
66
26
81
38
30
22
23
55
24
78

> <PUBCHEM_MMFF94_PARTIAL_CHARGES>
28
1 -0.08
10 0.23
11 -0.15
12 -0.15
13 -0.15
14 -0.15
15 0.43
16 0.43
17 -0.15
18 -0.15
19 -0.15
2 -0.08
20 -0.15
21 0.15
22 0.15
23 0.15
24 0.15
25 0.15
26 0.15
27 0.15
28 0.15
3 -0.06
4 -0.06
5 -0.57
6 -0.57
7 0.04
8 0.04
9 0.23

> <PUBCHEM_EFFECTIVE_ROTOR_COUNT>
3

> <PUBCHEM_PHARMACOPHORE_FEATURES>
6
1 5 acceptor
1 6 acceptor
5 1 5 7 9 15 rings
5 2 6 8 10 16 rings
6 7 9 11 13 17 19 rings
6 8 10 12 14 18 20 rings

> <PUBCHEM_HEAVY_ATOM_COUNT>
20

> <PUBCHEM_ATOM_DEF_STEREO_COUNT>
0

> <PUBCHEM_ATOM_UDEF_STEREO_COUNT>
0

> <PUBCHEM_BOND_DEF_STEREO_COUNT>
0

> <PUBCHEM_BOND_UDEF_STEREO_COUNT>
0

> <PUBCHEM_ISOTOPIC_ATOM_COUNT>
0

> <PUBCHEM_COMPONENT_COUNT>
1

> <PUBCHEM_CACTVS_TAUTO_COUNT>
1

> <PUBCHEM_CONFORMER_ID>
000020FF00000001

> <PUBCHEM_MMFF94_ENERGY>
26.2903

> <PUBCHEM_FEATURE_SELFOVERLAP>
30.59

> <PUBCHEM_SHAPE_FINGERPRINT>
10498660 4 12175620706829596230
10928967 22 18338529589554195022
11089746 13 9583517608115860240
11135609 12 17677885928720344726
11991303 11 17630056099133679653
12107183 9 18188759656906809897
12553582 1 18410586084074336961
12596602 18 17313384487347518651
12633257 1 16153430515027733885
12714826 92 18337400451289224300
13103583 49 17895181221478699721
13533116 47 18046068160410866827
13914758 101 18040159522694286413
14123255 352 9079112263026306122
14251731 5 18410578383198137637
14251764 30 18410570686622349255
14341114 176 18261669273418236587
14420673 8 18187635955601073231
14480069 147 17702380843604061522
14576447 43 18272931652905402042
14767858 380 18058996321288685148
15061688 2 9295289438876257705
15188451 53 16371020555425230183
15238133 3 6411291352158963682
15239191 94 18410019831301770441
15537594 2 18412257337464366082
16110190 28 17967255265267536806
16991981 162 16198765715924306237
17780758 139 17749391511173547793
17834072 32 9079110081346495530
1813 80 18412535505379803325
19784866 135 18113900510823937280
20291156 8 18410579482709973289
21591331 117 18411972577032645049
21713013 43 17845945111839727092
221357 26 18343584040290592435
22950370 63 18410851066381990184
23379529 103 18335979856971094190
235170 7 15913334610340641991
23559900 14 18341058406901286581
2838139 119 11095880441410013446
312425 83 14332028051309458971
328317 168 11095884865052137989
329604 57 18202561796073050922
341906 21 10015568520217213878
3472631 163 10159710088087891907
351380 3 18410853261105153094
3737641 26 18262232360663600398
4259306 186 18202566176438337919
44062 13 18199192977859594620
46194498 28 16916784003299870421
465052 167 18262792970049216759
7097593 13 17606692322740279489
7970288 3 18410577283687191951

> <PUBCHEM_SHAPE_MULTIPOLES>
417.03
12.64
2.56
1.41
0.11
0.71
0
-9.48
-0.02
-0.01
0
-0.02
0.04
-0.22

> <PUBCHEM_SHAPE_SELFOVERLAP>
874.732

> <PUBCHEM_SHAPE_VOLUME>
238.3

> <PUBCHEM_COORDINATE_TYPE>
2
5
10

$$$$

