92765
  -OEChem-07051212592D

 55 59  0     1  0  0  0  0  0999 V2000
    8.2704   -0.9585    0.0000 O   0  0  0  0  0  0  0  0  0  0  0  0
    8.2704    1.0898    0.0000 O   0  0  0  0  0  0  0  0  0  0  0  0
    3.8622    3.6349    0.0000 O   0  0  0  0  0  0  0  0  0  0  0  0
    2.9562   -1.9828    0.0000 N   0  0  3  0  0  0  0  0  0  0  0  0
    3.8583   -2.5036    0.0000 C   0  0  2  0  0  0  0  0  0  0  0  0
    3.8751   -3.5885    0.0000 C   0  0  0  0  0  0  0  0  0  0  0  0
    4.7564   -1.9759    0.0000 C   0  0  0  0  0  0  0  0  0  0  0  0
    2.0084   -2.5108    0.0000 C   0  0  0  0  0  0  0  0  0  0  0  0
    2.9643   -0.9412    0.0000 C   0  0  0  0  0  0  0  0  0  0  0  0
    2.9396   -4.1382    0.0000 C   0  0  0  0  0  0  0  0  0  0  0  0
    4.7403   -0.9344    0.0000 C   0  0  0  0  0  0  0  0  0  0  0  0
    2.0000   -3.5957    0.0000 C   0  0  0  0  0  0  0  0  0  0  0  0
    3.8743   -0.4344    0.0000 C   0  0  0  0  0  0  0  0  0  0  0  0
    5.6063   -0.4344    0.0000 C   0  0  0  0  0  0  0  0  0  0  0  0
    3.8743    0.5656    0.0000 C   0  0  0  0  0  0  0  0  0  0  0  0
    5.6063    0.5656    0.0000 C   0  0  0  0  0  0  0  0  0  0  0  0
    4.7403    1.0656    0.0000 C   0  0  0  0  0  0  0  0  0  0  0  0
    6.5003   -0.9690    0.0000 C   0  0  0  0  0  0  0  0  0  0  0  0
    2.9643    1.0725    0.0000 C   0  0  0  0  0  0  0  0  0  0  0  0
    6.5003    1.1003    0.0000 C   0  0  0  0  0  0  0  0  0  0  0  0
    4.7564    2.1071    0.0000 C   0  0  0  0  0  0  0  0  0  0  0  0
    7.4063   -0.4552    0.0000 C   0  0  0  0  0  0  0  0  0  0  0  0
    7.4063    0.5864    0.0000 C   0  0  0  0  0  0  0  0  0  0  0  0
    2.9562    2.1141    0.0000 C   0  0  0  0  0  0  0  0  0  0  0  0
    3.8583    2.6349    0.0000 C   0  0  0  0  0  0  0  0  0  0  0  0
    8.2666   -1.9585    0.0000 C   0  0  0  0  0  0  0  0  0  0  0  0
    8.2666    2.0898    0.0000 C   0  0  0  0  0  0  0  0  0  0  0  0
    2.9981    4.1382    0.0000 C   0  0  0  0  0  0  0  0  0  0  0  0
    4.5993   -2.9201    0.0000 H   0  0  0  0  0  0  0  0  0  0  0  0
    4.0931   -4.1689    0.0000 H   0  0  0  0  0  0  0  0  0  0  0  0
    4.4842   -3.4730    0.0000 H   0  0  0  0  0  0  0  0  0  0  0  0
    4.9744   -2.5563    0.0000 H   0  0  0  0  0  0  0  0  0  0  0  0
    5.3655   -1.8604    0.0000 H   0  0  0  0  0  0  0  0  0  0  0  0
    1.8038   -1.9255    0.0000 H   0  0  0  0  0  0  0  0  0  0  0  0
    1.3967   -2.6121    0.0000 H   0  0  0  0  0  0  0  0  0  0  0  0
    2.7597   -0.3559    0.0000 H   0  0  0  0  0  0  0  0  0  0  0  0
    2.3526   -1.0426    0.0000 H   0  0  0  0  0  0  0  0  0  0  0  0
    2.5423   -4.6142    0.0000 H   0  0  0  0  0  0  0  0  0  0  0  0
    3.3406   -4.6111    0.0000 H   0  0  0  0  0  0  0  0  0  0  0  0
    1.3900   -3.4849    0.0000 H   0  0  0  0  0  0  0  0  0  0  0  0
    1.7864   -4.1778    0.0000 H   0  0  0  0  0  0  0  0  0  0  0  0
    6.4931   -1.5890    0.0000 H   0  0  0  0  0  0  0  0  0  0  0  0
    2.4310    0.7563    0.0000 H   0  0  0  0  0  0  0  0  0  0  0  0
    6.4931    1.7202    0.0000 H   0  0  0  0  0  0  0  0  0  0  0  0
    5.2968    2.4109    0.0000 H   0  0  0  0  0  0  0  0  0  0  0  0
    2.4181    2.4220    0.0000 H   0  0  0  0  0  0  0  0  0  0  0  0
    7.6466   -1.9561    0.0000 H   0  0  0  0  0  0  0  0  0  0  0  0
    8.2642   -2.5785    0.0000 H   0  0  0  0  0  0  0  0  0  0  0  0
    8.8866   -1.9609    0.0000 H   0  0  0  0  0  0  0  0  0  0  0  0
    8.8866    2.0922    0.0000 H   0  0  0  0  0  0  0  0  0  0  0  0
    8.2642    2.7098    0.0000 H   0  0  0  0  0  0  0  0  0  0  0  0
    7.6466    2.0874    0.0000 H   0  0  0  0  0  0  0  0  0  0  0  0
    3.3102    4.6740    0.0000 H   0  0  0  0  0  0  0  0  0  0  0  0
    2.4623    4.4503    0.0000 H   0  0  0  0  0  0  0  0  0  0  0  0
    2.6860    3.6025    0.0000 H   0  0  0  0  0  0  0  0  0  0  0  0
  1 22  1  0  0  0  0
  1 26  1  0  0  0  0
  2 23  1  0  0  0  0
  2 27  1  0  0  0  0
  3 25  1  0  0  0  0
  3 28  1  0  0  0  0
  4  5  1  0  0  0  0
  4  8  1  0  0  0  0
  4  9  1  0  0  0  0
  5  6  1  0  0  0  0
  5  7  1  0  0  0  0
  5 29  1  6  0  0  0
  6 10  1  0  0  0  0
  6 30  1  0  0  0  0
  6 31  1  0  0  0  0
  7 11  1  0  0  0  0
  7 32  1  0  0  0  0
  7 33  1  0  0  0  0
  8 12  1  0  0  0  0
  8 34  1  0  0  0  0
  8 35  1  0  0  0  0
  9 13  1  0  0  0  0
  9 36  1  0  0  0  0
  9 37  1  0  0  0  0
 10 12  1  0  0  0  0
 10 38  1  0  0  0  0
 10 39  1  0  0  0  0
 11 13  2  0  0  0  0
 11 14  1  0  0  0  0
 12 40  1  0  0  0  0
 12 41  1  0  0  0  0
 13 15  1  0  0  0  0
 14 16  1  0  0  0  0
 14 18  2  0  0  0  0
 15 17  2  0  0  0  0
 15 19  1  0  0  0  0
 16 17  1  0  0  0  0
 16 20  2  0  0  0  0
 17 21  1  0  0  0  0
 18 22  1  0  0  0  0
 18 42  1  0  0  0  0
 19 24  2  0  0  0  0
 19 43  1  0  0  0  0
 20 23  1  0  0  0  0
 20 44  1  0  0  0  0
 21 25  2  0  0  0  0
 21 45  1  0  0  0  0
 22 23  2  0  0  0  0
 24 25  1  0  0  0  0
 24 46  1  0  0  0  0
 26 47  1  0  0  0  0
 26 48  1  0  0  0  0
 26 49  1  0  0  0  0
 27 50  1  0  0  0  0
 27 51  1  0  0  0  0
 27 52  1  0  0  0  0
 28 53  1  0  0  0  0
 28 54  1  0  0  0  0
 28 55  1  0  0  0  0
M  END
> <PUBCHEM_COMPOUND_CID>
92765

> <PUBCHEM_COMPOUND_CANONICALIZED>
1

> <PUBCHEM_CACTVS_COMPLEXITY>
542

> <PUBCHEM_CACTVS_HBOND_ACCEPTOR>
4

> <PUBCHEM_CACTVS_HBOND_DONOR>
0

> <PUBCHEM_CACTVS_ROTATABLE_BOND>
3

> <PUBCHEM_CACTVS_SUBSKEYS>
AAADceB6MAAAAAAAAAAAAAAAAAAAAAAAAAA8eMECAAAAAADxVAAAHgAAAAAADCzBmAYyBsMABACAAiBCAACCCAAgIAAIiAAOjIgNJiKEsRuEMCpkwBGKqAeQwPAO4AADAAAQQADAAAYAACCAAAAAAAAAAA==

> <PUBCHEM_IUPAC_OPENEYE_NAME>
(14aR)-2,3,6-trimethoxy-11,12,13,14,14a,15-hexahydro-9H-phenanthro[9,10-b]quinolizine

> <PUBCHEM_IUPAC_CAS_NAME>
(14aR)-2,3,6-trimethoxy-11,12,13,14,14a,15-hexahydro-9H-phenanthro[9,10-b]quinolizine

> <PUBCHEM_IUPAC_NAME>
(14aR)-2,3,6-trimethoxy-11,12,13,14,14a,15-hexahydro-9H-phenanthro[9,10-b]quinolizine

> <PUBCHEM_IUPAC_SYSTEMATIC_NAME>
(14aR)-2,3,6-trimethoxy-11,12,13,14,14a,15-hexahydro-9H-phenanthro[9,10-b]quinolizine

> <PUBCHEM_IUPAC_TRADITIONAL_NAME>
(14aR)-2,3,6-trimethoxy-11,12,13,14,14a,15-hexahydro-9H-phenanthro[9,10-b]quinolizine

> <PUBCHEM_IUPAC_INCHI>
InChI=1S/C24H27NO3/c1-26-16-7-8-17-19(11-16)21-13-24(28-3)23(27-2)12-20(21)18-10-15-6-4-5-9-25(15)14-22(17)18/h7-8,11-13,15H,4-6,9-10,14H2,1-3H3/t15-/m1/s1

> <PUBCHEM_IUPAC_INCHIKEY>
RSHYSOGXGSUUIJ-OAHLLOKOSA-N

> <PUBCHEM_XLOGP3_AA>
5.1

> <PUBCHEM_EXACT_MASS>
377.199094

> <PUBCHEM_MOLECULAR_FORMULA>
C24H27NO3

> <PUBCHEM_MOLECULAR_WEIGHT>
377.47608

> <PUBCHEM_OPENEYE_CAN_SMILES>
COC1=CC2=C(C=C1)C3=C(CC4CCCCN4C3)C5=CC(=C(C=C52)OC)OC

> <PUBCHEM_OPENEYE_ISO_SMILES>
COC1=CC2=C(C=C1)C3=C(C[C@H]4CCCCN4C3)C5=CC(=C(C=C52)OC)OC

> <PUBCHEM_CACTVS_TPSA>
30.9

> <PUBCHEM_MONOISOTOPIC_WEIGHT>
377.199094

> <PUBCHEM_TOTAL_CHARGE>
0

> <PUBCHEM_HEAVY_ATOM_COUNT>
28

> <PUBCHEM_ATOM_DEF_STEREO_COUNT>
1

> <PUBCHEM_ATOM_UDEF_STEREO_COUNT>
0

> <PUBCHEM_BOND_DEF_STEREO_COUNT>
0

> <PUBCHEM_BOND_UDEF_STEREO_COUNT>
0

> <PUBCHEM_ISOTOPIC_ATOM_COUNT>
0

> <PUBCHEM_COMPONENT_COUNT>
1

> <PUBCHEM_CACTVS_TAUTO_COUNT>
1

> <PUBCHEM_COORDINATE_TYPE>
1
5
255

> <PUBCHEM_BONDANNOTATIONS>
11  13  8
11  14  8
13  15  8
14  16  8
14  18  8
15  17  8
15  19  8
16  17  8
16  20  8
17  21  8
18  22  8
19  24  8
20  23  8
21  25  8
22  23  8
24  25  8
5  29  6

$$$$

