10165
  -OEChem-06261204213D

 52 55  0     1  0  0  0  0  0999 V2000
   -2.0083    1.9169    1.0621 O   0  0  0  0  0  0  0  0  0  0  0  0
    4.6771   -1.4632    0.2837 O   0  0  0  0  0  0  0  0  0  0  0  0
   -4.6617    1.9212    0.5663 O   0  0  0  0  0  0  0  0  0  0  0  0
   -5.8897   -0.3012   -0.5217 O   0  0  0  0  0  0  0  0  0  0  0  0
    6.0940    0.8815   -0.0037 O   0  0  0  0  0  0  0  0  0  0  0  0
    0.4451   -1.4550   -0.2808 N   0  0  2  0  0  0  0  0  0  0  0  0
   -0.2499   -0.3003    0.3395 C   0  0  1  0  0  0  0  0  0  0  0  0
    0.4267    0.9857   -0.1964 C   0  0  0  0  0  0  0  0  0  0  0  0
   -0.2739   -2.7086   -0.0377 C   0  0  0  0  0  0  0  0  0  0  0  0
   -1.7571   -0.2906    0.0923 C   0  0  0  0  0  0  0  0  0  0  0  0
    1.8277   -1.5521    0.2176 C   0  0  0  0  0  0  0  0  0  0  0  0
   -1.6174   -2.6668   -0.7612 C   0  0  0  0  0  0  0  0  0  0  0  0
   -2.4060   -1.4337   -0.4124 C   0  0  0  0  0  0  0  0  0  0  0  0
    1.9339    0.9480   -0.1279 C   0  0  0  0  0  0  0  0  0  0  0  0
    2.6064   -0.2728    0.0373 C   0  0  0  0  0  0  0  0  0  0  0  0
   -2.5374    0.8271    0.4329 C   0  0  0  0  0  0  0  0  0  0  0  0
   -3.7918   -1.4185   -0.6294 C   0  0  0  0  0  0  0  0  0  0  0  0
    4.0067   -0.2900    0.0897 C   0  0  0  0  0  0  0  0  0  0  0  0
    2.6718    2.1299   -0.2778 C   0  0  0  0  0  0  0  0  0  0  0  0
   -3.9181    0.8290    0.2264 C   0  0  0  0  0  0  0  0  0  0  0  0
   -4.5441   -0.2904   -0.3114 C   0  0  0  0  0  0  0  0  0  0  0  0
    4.7323    0.8928   -0.0499 C   0  0  0  0  0  0  0  0  0  0  0  0
    4.0655    2.1013   -0.2367 C   0  0  0  0  0  0  0  0  0  0  0  0
    4.9494   -1.8354    1.6320 C   0  0  0  0  0  0  0  0  0  0  0  0
   -4.8543    2.9107   -0.4414 C   0  0  0  0  0  0  0  0  0  0  0  0
   -6.7095   -0.7682    0.5480 C   0  0  0  0  0  0  0  0  0  0  0  0
    6.7826    0.7026   -1.2396 C   0  0  0  0  0  0  0  0  0  0  0  0
   -0.1186   -0.3522    1.4311 H   0  0  0  0  0  0  0  0  0  0  0  0
    0.1215    1.8605    0.3824 H   0  0  0  0  0  0  0  0  0  0  0  0
    0.1376    1.1585   -1.2421 H   0  0  0  0  0  0  0  0  0  0  0  0
   -0.4189   -2.8775    1.0379 H   0  0  0  0  0  0  0  0  0  0  0  0
    0.2953   -3.5613   -0.4281 H   0  0  0  0  0  0  0  0  0  0  0  0
    2.3329   -2.3516   -0.3382 H   0  0  0  0  0  0  0  0  0  0  0  0
    1.8334   -1.8174    1.2826 H   0  0  0  0  0  0  0  0  0  0  0  0
   -2.1883   -3.5639   -0.4928 H   0  0  0  0  0  0  0  0  0  0  0  0
   -1.4602   -2.6830   -1.8471 H   0  0  0  0  0  0  0  0  0  0  0  0
   -4.2852   -2.2955   -1.0426 H   0  0  0  0  0  0  0  0  0  0  0  0
    2.1636    3.0794   -0.4257 H   0  0  0  0  0  0  0  0  0  0  0  0
    4.6243    3.0264   -0.3491 H   0  0  0  0  0  0  0  0  0  0  0  0
   -2.7207    2.5452    1.2702 H   0  0  0  0  0  0  0  0  0  0  0  0
    5.3981   -2.8325    1.6272 H   0  0  0  0  0  0  0  0  0  0  0  0
    4.0329   -1.8690    2.2283 H   0  0  0  0  0  0  0  0  0  0  0  0
    5.6607   -1.1362    2.0830 H   0  0  0  0  0  0  0  0  0  0  0  0
   -5.4163    2.4959   -1.2841 H   0  0  0  0  0  0  0  0  0  0  0  0
   -3.8933    3.3031   -0.7893 H   0  0  0  0  0  0  0  0  0  0  0  0
   -5.4308    3.7327   -0.0084 H   0  0  0  0  0  0  0  0  0  0  0  0
   -6.5759   -0.1443    1.4374 H   0  0  0  0  0  0  0  0  0  0  0  0
   -6.4761   -1.8117    0.7823 H   0  0  0  0  0  0  0  0  0  0  0  0
   -7.7541   -0.7061    0.2312 H   0  0  0  0  0  0  0  0  0  0  0  0
    6.5531    1.5218   -1.9284 H   0  0  0  0  0  0  0  0  0  0  0  0
    6.5162   -0.2567   -1.6943 H   0  0  0  0  0  0  0  0  0  0  0  0
    7.8570    0.7069   -1.0368 H   0  0  0  0  0  0  0  0  0  0  0  0
  1 16  1  0  0  0  0
  1 40  1  0  0  0  0
  2 18  1  0  0  0  0
  2 24  1  0  0  0  0
  3 20  1  0  0  0  0
  3 25  1  0  0  0  0
  4 21  1  0  0  0  0
  4 26  1  0  0  0  0
  5 22  1  0  0  0  0
  5 27  1  0  0  0  0
  6  7  1  0  0  0  0
  6  9  1  0  0  0  0
  6 11  1  0  0  0  0
  7  8  1  0  0  0  0
  7 10  1  0  0  0  0
  7 28  1  0  0  0  0
  8 14  1  0  0  0  0
  8 29  1  0  0  0  0
  8 30  1  0  0  0  0
  9 12  1  0  0  0  0
  9 31  1  0  0  0  0
  9 32  1  0  0  0  0
 10 13  1  0  0  0  0
 10 16  2  0  0  0  0
 11 15  1  0  0  0  0
 11 33  1  0  0  0  0
 11 34  1  0  0  0  0
 12 13  1  0  0  0  0
 12 35  1  0  0  0  0
 12 36  1  0  0  0  0
 13 17  2  0  0  0  0
 14 15  2  0  0  0  0
 14 19  1  0  0  0  0
 15 18  1  0  0  0  0
 16 20  1  0  0  0  0
 17 21  1  0  0  0  0
 17 37  1  0  0  0  0
 18 22  2  0  0  0  0
 19 23  2  0  0  0  0
 19 38  1  0  0  0  0
 20 21  2  0  0  0  0
 22 23  1  0  0  0  0
 23 39  1  0  0  0  0
 24 41  1  0  0  0  0
 24 42  1  0  0  0  0
 24 43  1  0  0  0  0
 25 44  1  0  0  0  0
 25 45  1  0  0  0  0
 25 46  1  0  0  0  0
 26 47  1  0  0  0  0
 26 48  1  0  0  0  0
 26 49  1  0  0  0  0
 27 50  1  0  0  0  0
 27 51  1  0  0  0  0
 27 52  1  0  0  0  0
M  END
> <PUBCHEM_COMPOUND_CID>
10165

> <PUBCHEM_CONFORMER_RMSD>
0.8

> <PUBCHEM_CONFORMER_DIVERSEORDER>
2
8
5
7
9
10
11
3
4
12
6
1

> <PUBCHEM_MMFF94_PARTIAL_CHARGES>
31
1 -0.53
10 -0.14
11 0.41
12 0.14
13 -0.14
14 -0.14
15 -0.14
16 0.08
17 -0.15
18 0.08
19 -0.15
2 -0.36
20 0.08
21 0.08
22 0.08
23 -0.15
24 0.28
25 0.28
26 0.28
27 0.28
3 -0.36
37 0.15
38 0.15
39 0.15
4 -0.36
40 0.45
5 -0.36
6 -0.81
7 0.41
8 0.14
9 0.27

> <PUBCHEM_EFFECTIVE_ROTOR_COUNT>
4.8

> <PUBCHEM_PHARMACOPHORE_FEATURES>
10
1 1 donor
1 2 acceptor
1 3 acceptor
1 4 acceptor
1 5 acceptor
1 6 cation
6 10 13 16 17 20 21 rings
6 14 15 18 19 22 23 rings
6 6 7 8 11 14 15 rings
6 6 7 9 10 12 13 rings

> <PUBCHEM_HEAVY_ATOM_COUNT>
27

> <PUBCHEM_ATOM_DEF_STEREO_COUNT>
0

> <PUBCHEM_ATOM_UDEF_STEREO_COUNT>
1

> <PUBCHEM_BOND_DEF_STEREO_COUNT>
0

> <PUBCHEM_BOND_UDEF_STEREO_COUNT>
0

> <PUBCHEM_ISOTOPIC_ATOM_COUNT>
0

> <PUBCHEM_COMPONENT_COUNT>
1

> <PUBCHEM_CACTVS_TAUTO_COUNT>
9

> <PUBCHEM_CONFORMER_ID>
000027B500000002

> <PUBCHEM_MMFF94_ENERGY>
120.9466

> <PUBCHEM_FEATURE_SELFOVERLAP>
50.82

> <PUBCHEM_SHAPE_FINGERPRINT>
10595046 47 18339645529452152380
11578080 2 17487916703339913695
12107183 9 18123756623476046256
12166972 35 18341328916225506613
12236239 1 18343304781854447635
12390115 104 18041828615098554625
12403259 415 18114189618047236201
12788726 201 18040430018505740521
12838862 33 18337127686569239957
13073987 5 18343022202670241377
13533116 47 18273220806904304514
13583140 156 17917703570053263832
13782708 43 15338567149178484770
13785724 45 17834962254048353314
14117953 113 18121223344174853380
14251764 18 18342177765219191194
14739800 52 18043830692840109536
14790565 3 18411136956595598228
15131766 46 16126108635258008540
15183329 4 18408605855053314559
15196674 1 18410293635472022289
15420108 30 17035840574449878248
1577012 14 18410575114907484001
17349148 13 18186524302015861558
18608769 82 18265048038401943363
18681886 176 18041280959803222976
20511986 3 18338250314201418840
20715895 44 18121504823926806169
21267235 1 18336539439595763023
21279426 13 18263359347075109406
21421861 104 17845950627659092178
23402539 116 18187086105017946733
23559900 14 18042128652776491936
3004659 81 18408321082169565252
335352 9 18410853231958001004
34797466 226 17240760645317138080
350125 39 18409449181036392417
3545911 37 18335980891688408044
3680242 22 18340206413858886938
4073 2 17988357053857686466
4214541 1 18408322168226799852
474 4 18060135397305767644
5104073 3 18411702092682125257
6328613 192 18270955740395759748

> <PUBCHEM_SHAPE_MULTIPOLES>
521.32
15.17
2.82
0.91
2.09
0.09
0.1
3.66
-0.49
-0.92
-0.08
0.49
-0.16
-1.41

> <PUBCHEM_SHAPE_SELFOVERLAP>
1134.042

> <PUBCHEM_SHAPE_VOLUME>
285

> <PUBCHEM_COORDINATE_TYPE>
2
5
10

$$$$

