25203722
  -OEChem-07051213132D

 52 54  0     1  0  0  0  0  0999 V2000
    9.8781    2.1170    0.0000 P   0  0  3  0  0  0  0  0  0  0  0  0
   11.6010    2.2950    0.0000 P   0  0  3  0  0  0  0  0  0  0  0  0
    7.3435    0.3525    0.0000 O   0  0  0  0  0  0  0  0  0  0  0  0
    4.8055    0.8569    0.0000 O   0  0  0  0  0  0  0  0  0  0  0  0
    6.0873    2.6148    0.0000 O   0  0  0  0  0  0  0  0  0  0  0  0
    9.0681    1.5306    0.0000 O   0  0  0  0  0  0  0  0  0  0  0  0
   10.6882    2.7034    0.0000 O   0  0  0  0  0  0  0  0  0  0  0  0
   10.4645    1.3069    0.0000 O   0  0  0  0  0  0  0  0  0  0  0  0
    9.2917    2.9270    0.0000 O   0  0  0  0  0  0  0  0  0  0  0  0
    4.2690   -3.7101    0.0000 O   0  0  0  0  0  0  0  0  0  0  0  0
   12.5138    1.8867    0.0000 O   0  0  0  0  0  0  0  0  0  0  0  0
   12.0093    3.2079    0.0000 O   0  0  0  0  0  0  0  0  0  0  0  0
   11.1927    1.3822    0.0000 O   0  0  0  0  0  0  0  0  0  0  0  0
   15.0467    2.6512    0.0000 O   0  0  0  0  0  0  0  0  0  0  0  0
   14.3395    1.0701    0.0000 O   0  0  0  0  0  0  0  0  0  0  0  0
    6.0812   -0.9054    0.0000 N   0  0  0  0  0  0  0  0  0  0  0  0
    4.2690   -0.7101    0.0000 N   0  0  0  0  0  0  0  0  0  0  0  0
    6.0812   -2.5148    0.0000 N   0  0  0  0  0  0  0  0  0  0  0  0
    3.4030   -2.2101    0.0000 N   0  0  0  0  0  0  0  0  0  0  0  0
    2.5369   -0.7101    0.0000 N   0  0  0  0  0  0  0  0  0  0  0  0
    5.8055    0.8552    0.0000 C   0  0  2  0  0  0  0  0  0  0  0  0
    6.3947    1.6632    0.0000 C   0  0  1  0  0  0  0  0  0  0  0  0
    6.3919    0.0452    0.0000 C   0  0  1  0  0  0  0  0  0  0  0  0
    7.3452    1.3525    0.0000 C   0  0  1  0  0  0  0  0  0  0  0  0
    8.1552    1.9389    0.0000 C   0  0  0  0  0  0  0  0  0  0  0  0
    5.1350   -1.2101    0.0000 C   0  0  0  0  0  0  0  0  0  0  0  0
    6.6648   -1.7101    0.0000 C   0  0  0  0  0  0  0  0  0  0  0  0
    5.1350   -2.2101    0.0000 C   0  0  0  0  0  0  0  0  0  0  0  0
    4.2690   -2.7101    0.0000 C   0  0  0  0  0  0  0  0  0  0  0  0
    3.4030   -1.2101    0.0000 C   0  0  0  0  0  0  0  0  0  0  0  0
   13.3239    2.4731    0.0000 C   0  0  1  0  0  0  0  0  0  0  0  0
   13.2211    3.4678    0.0000 C   0  0  0  0  0  0  0  0  0  0  0  0
   14.2367    2.0648    0.0000 C   0  0  0  0  0  0  0  0  0  0  0  0
    5.5231    0.3032    0.0000 H   0  0  0  0  0  0  0  0  0  0  0  0
    5.7825    1.7612    0.0000 H   0  0  0  0  0  0  0  0  0  0  0  0
    5.7794   -0.0508    0.0000 H   0  0  0  0  0  0  0  0  0  0  0  0
    7.8972    1.0701    0.0000 H   0  0  0  0  0  0  0  0  0  0  0  0
    8.5028    2.4523    0.0000 H   0  0  0  0  0  0  0  0  0  0  0  0
    7.7100    2.3704    0.0000 H   0  0  0  0  0  0  0  0  0  0  0  0
    4.4964    1.3944    0.0000 H   0  0  0  0  0  0  0  0  0  0  0  0
    6.5030    3.0748    0.0000 H   0  0  0  0  0  0  0  0  0  0  0  0
    7.2848   -1.7101    0.0000 H   0  0  0  0  0  0  0  0  0  0  0  0
    4.2690   -0.0901    0.0000 H   0  0  0  0  0  0  0  0  0  0  0  0
   10.2113    0.7410    0.0000 H   0  0  0  0  0  0  0  0  0  0  0  0
    2.0000   -1.0201    0.0000 H   0  0  0  0  0  0  0  0  0  0  0  0
    2.5369   -0.0901    0.0000 H   0  0  0  0  0  0  0  0  0  0  0  0
   12.7579    2.7263    0.0000 H   0  0  0  0  0  0  0  0  0  0  0  0
   13.8378    3.5316    0.0000 H   0  0  0  0  0  0  0  0  0  0  0  0
   13.1573    4.0845    0.0000 H   0  0  0  0  0  0  0  0  0  0  0  0
   12.6043    3.4041    0.0000 H   0  0  0  0  0  0  0  0  0  0  0  0
   11.6458    3.7101    0.0000 H   0  0  0  0  0  0  0  0  0  0  0  0
   15.6127    2.3980    0.0000 H   0  0  0  0  0  0  0  0  0  0  0  0
  1  6  1  0  0  0  0
  1  7  1  0  0  0  0
  1  8  1  0  0  0  0
  1  9  2  0  0  0  0
  2  7  1  0  0  0  0
  2 11  1  0  0  0  0
  2 12  1  0  0  0  0
  2 13  2  0  0  0  0
  3 23  1  0  0  0  0
  3 24  1  0  0  0  0
 21  4  1  6  0  0  0
  4 40  1  0  0  0  0
 22  5  1  6  0  0  0
  5 41  1  0  0  0  0
  6 25  1  0  0  0  0
  8 44  1  0  0  0  0
 10 29  2  0  0  0  0
 31 11  1  1  0  0  0
 12 51  1  0  0  0  0
 14 33  1  0  0  0  0
 14 52  1  0  0  0  0
 15 33  2  0  0  0  0
 23 16  1  1  0  0  0
 16 26  1  0  0  0  0
 16 27  1  0  0  0  0
 17 26  1  0  0  0  0
 17 30  1  0  0  0  0
 17 43  1  0  0  0  0
 18 27  2  0  0  0  0
 18 28  1  0  0  0  0
 19 29  1  0  0  0  0
 19 30  2  0  0  0  0
 20 30  1  0  0  0  0
 20 45  1  0  0  0  0
 20 46  1  0  0  0  0
 21 22  1  0  0  0  0
 21 23  1  0  0  0  0
 21 34  1  0  0  0  0
 22 24  1  0  0  0  0
 22 35  1  0  0  0  0
 23 36  1  0  0  0  0
 24 25  1  1  0  0  0
 24 37  1  0  0  0  0
 25 38  1  0  0  0  0
 25 39  1  0  0  0  0
 26 28  2  0  0  0  0
 27 42  1  0  0  0  0
 28 29  1  0  0  0  0
 31 32  1  0  0  0  0
 31 33  1  0  0  0  0
 31 47  1  0  0  0  0
 32 48  1  0  0  0  0
 32 49  1  0  0  0  0
 32 50  1  0  0  0  0
M  END
> <PUBCHEM_COMPOUND_CID>
25203722

> <PUBCHEM_COMPOUND_CANONICALIZED>
1

> <PUBCHEM_CACTVS_COMPLEXITY>
919

> <PUBCHEM_CACTVS_HBOND_ACCEPTOR>
14

> <PUBCHEM_CACTVS_HBOND_DONOR>
7

> <PUBCHEM_CACTVS_ROTATABLE_BOND>
9

> <PUBCHEM_CACTVS_SUBSKEYS>
AAADceBzvAMAAAAAAAAAAAAAAAAAAWJAAAAgAAAAAAAAAEABgAAAHgAQCCAACBzhlgYHuBfMFxCoQQfxfIKAgC0XEKABUAHoVECDWApAyCAeQIAPAALTAGDwMAIAAAAAAAAAAAAAAAAAAAAAAAAAAAAAAA==

> <PUBCHEM_IUPAC_OPENEYE_NAME>
(2S)-2-[[[(2R,3S,4R,5R)-5-(2-amino-6-oxo-3H-purin-9-yl)-3,4-dihydroxy-tetrahydrofuran-2-yl]methoxy-hydroxy-phosphoryl]oxy-hydroxy-phosphoryl]oxypropanoic acid

> <PUBCHEM_IUPAC_CAS_NAME>
(2S)-2-[[[(2R,3S,4R,5R)-5-(2-amino-6-oxo-3H-purin-9-yl)-3,4-dihydroxy-2-oxolanyl]methoxy-hydroxyphosphoryl]oxy-hydroxyphosphoryl]oxypropanoic acid

> <PUBCHEM_IUPAC_NAME>
(2S)-2-[[[(2R,3S,4R,5R)-5-(2-amino-6-oxo-3H-purin-9-yl)-3,4-dihydroxyoxolan-2-yl]methoxy-hydroxyphosphoryl]oxy-hydroxyphosphoryl]oxypropanoic acid

> <PUBCHEM_IUPAC_SYSTEMATIC_NAME>
(2S)-2-[[[(2R,3S,4R,5R)-5-(2-azanyl-6-oxidanylidene-3H-purin-9-yl)-3,4-bis(oxidanyl)oxolan-2-yl]methoxy-oxidanyl-phosphoryl]oxy-oxidanyl-phosphoryl]oxypropanoic acid

> <PUBCHEM_IUPAC_TRADITIONAL_NAME>
(2S)-2-[[[(2R,3S,4R,5R)-5-(2-amino-6-keto-3H-purin-9-yl)-3,4-dihydroxy-tetrahydrofuran-2-yl]methoxy-hydroxy-phosphoryl]oxy-hydroxy-phosphoryl]oxypropionic acid

> <PUBCHEM_IUPAC_INCHI>
InChI=1S/C13H19N5O13P2/c1-4(12(22)23)30-33(26,27)31-32(24,25)28-2-5-7(19)8(20)11(29-5)18-3-15-6-9(18)16-13(14)17-10(6)21/h3-5,7-8,11,19-20H,2H2,1H3,(H,22,23)(H,24,25)(H,26,27)(H3,14,16,17,21)/t4-,5+,7+,8+,11+/m0/s1

> <PUBCHEM_IUPAC_INCHIKEY>
JAIRGSHHKMPRGE-LJRSMJOYSA-N

> <PUBCHEM_XLOGP3_AA>
-4.9

> <PUBCHEM_EXACT_MASS>
515.045459

> <PUBCHEM_MOLECULAR_FORMULA>
C13H19N5O13P2

> <PUBCHEM_MOLECULAR_WEIGHT>
515.263184

> <PUBCHEM_OPENEYE_CAN_SMILES>
CC(C(=O)O)OP(=O)(O)OP(=O)(O)OCC1C(C(C(O1)N2C=NC3=C2NC(=NC3=O)N)O)O

> <PUBCHEM_OPENEYE_ISO_SMILES>
C[C@@H](C(=O)O)OP(=O)(O)OP(=O)(O)OC[C@@H]1[C@H]([C@H]([C@@H](O1)N2C=NC3=C2NC(=NC3=O)N)O)O

> <PUBCHEM_CACTVS_TPSA>
275

> <PUBCHEM_MONOISOTOPIC_WEIGHT>
515.045459

> <PUBCHEM_TOTAL_CHARGE>
0

> <PUBCHEM_HEAVY_ATOM_COUNT>
33

> <PUBCHEM_ATOM_DEF_STEREO_COUNT>
5

> <PUBCHEM_ATOM_UDEF_STEREO_COUNT>
0

> <PUBCHEM_BOND_DEF_STEREO_COUNT>
0

> <PUBCHEM_BOND_UDEF_STEREO_COUNT>
0

> <PUBCHEM_ISOTOPIC_ATOM_COUNT>
0

> <PUBCHEM_COMPONENT_COUNT>
1

> <PUBCHEM_CACTVS_TAUTO_COUNT>
9

> <PUBCHEM_COORDINATE_TYPE>
1
5
255

> <PUBCHEM_BONDANNOTATIONS>
31  11  5
23  16  5
16  26  8
16  27  8
17  26  8
17  30  8
18  27  8
18  28  8
19  29  8
19  30  8
24  25  5
26  28  8
28  29  8
21  4  6
22  5  6

$$$$

