441809
  -OEChem-07051212562D

 69 73  0     1  0  0  0  0  0999 V2000
    8.9316    0.9165    0.0000 O   0  0  0  0  0  0  0  0  0  0  0  0
    7.7630   -1.9492    0.0000 O   0  0  0  0  0  0  0  0  0  0  0  0
   10.0110    1.9861    0.0000 O   0  0  0  0  0  0  0  0  0  0  0  0
    8.6450    2.6201    0.0000 O   0  0  0  0  0  0  0  0  0  0  0  0
    6.0088    0.1232    0.0000 O   0  0  0  0  0  0  0  0  0  0  0  0
   11.2953    1.2050    0.0000 O   0  0  0  0  0  0  0  0  0  0  0  0
    5.9930   -1.9250    0.0000 O   0  0  0  0  0  0  0  0  0  0  0  0
   13.1301    0.2208    0.0000 O   0  0  0  0  0  0  0  0  0  0  0  0
    5.1254   -1.3667    0.0000 O   0  0  0  0  0  0  0  0  0  0  0  0
    2.5333   -0.8367    0.0000 O   0  0  0  0  0  0  0  0  0  0  0  0
    8.6450   -0.3799    0.0000 C   0  0  2  0  0  0  0  0  0  0  0  0
    9.5110    0.1201    0.0000 C   0  0  1  0  0  0  0  0  0  0  0  0
   10.4208   -0.3679    0.0000 C   0  0  2  0  0  0  0  0  0  0  0  0
    7.7789    0.1201    0.0000 C   0  0  2  0  0  0  0  0  0  0  0  0
    9.5110    1.1201    0.0000 C   0  0  2  0  0  0  0  0  0  0  0  0
    8.6610   -1.4214    0.0000 C   0  0  1  0  0  0  0  0  0  0  0  0
   10.4451   -1.4000    0.0000 C   0  0  1  0  0  0  0  0  0  0  0  0
    7.7789    1.1201    0.0000 C   0  0  2  0  0  0  0  0  0  0  0  0
    8.5316    0.2237    0.0000 C   0  0  0  0  0  0  0  0  0  0  0  0
    8.6450    1.6201    0.0000 C   0  0  1  0  0  0  0  0  0  0  0  0
    9.5593   -1.9303    0.0000 C   0  0  0  0  0  0  0  0  0  0  0  0
    6.8689   -0.3868    0.0000 C   0  0  2  0  0  0  0  0  0  0  0  0
   11.3304    0.2056    0.0000 C   0  0  1  0  0  0  0  0  0  0  0  0
   10.3972    0.6318    0.0000 C   0  0  0  0  0  0  0  0  0  0  0  0
   11.3807   -1.9302    0.0000 C   0  0  0  0  0  0  0  0  0  0  0  0
    6.9129    1.6201    0.0000 C   0  0  0  0  0  0  0  0  0  0  0  0
    6.8609   -1.4284    0.0000 C   0  0  0  0  0  0  0  0  0  0  0  0
   12.2781   -0.3027    0.0000 C   0  0  0  0  0  0  0  0  0  0  0  0
   12.3034   -1.3778    0.0000 C   0  0  0  0  0  0  0  0  0  0  0  0
   11.3927   -2.9301    0.0000 C   0  0  0  0  0  0  0  0  0  0  0  0
    5.1370   -0.3667    0.0000 C   0  0  0  0  0  0  0  0  0  0  0  0
    4.2768    0.1432    0.0000 C   0  0  0  0  0  0  0  0  0  0  0  0
    3.4051   -0.3467    0.0000 C   0  0  0  0  0  0  0  0  0  0  0  0
    2.9151    0.5250    0.0000 C   0  0  0  0  0  0  0  0  0  0  0  0
    3.8950   -1.2185    0.0000 C   0  0  0  0  0  0  0  0  0  0  0  0
    9.9360   -0.6160    0.0000 H   0  0  0  0  0  0  0  0  0  0  0  0
    7.0428    0.5451    0.0000 H   0  0  0  0  0  0  0  0  0  0  0  0
    8.6678   -2.2714    0.0000 H   0  0  0  0  0  0  0  0  0  0  0  0
   10.4553   -2.2500    0.0000 H   0  0  0  0  0  0  0  0  0  0  0  0
    7.7789    1.7401    0.0000 H   0  0  0  0  0  0  0  0  0  0  0  0
    8.1044    0.6731    0.0000 H   0  0  0  0  0  0  0  0  0  0  0  0
    7.9796   -0.0587    0.0000 H   0  0  0  0  0  0  0  0  0  0  0  0
    9.1819    1.9301    0.0000 H   0  0  0  0  0  0  0  0  0  0  0  0
    9.1658   -2.4095    0.0000 H   0  0  0  0  0  0  0  0  0  0  0  0
    9.9641   -2.4000    0.0000 H   0  0  0  0  0  0  0  0  0  0  0  0
    6.8773    0.2332    0.0000 H   0  0  0  0  0  0  0  0  0  0  0  0
   11.8568    0.5333    0.0000 H   0  0  0  0  0  0  0  0  0  0  0  0
   11.0171    0.6464    0.0000 H   0  0  0  0  0  0  0  0  0  0  0  0
   10.3826    1.2516    0.0000 H   0  0  0  0  0  0  0  0  0  0  0  0
    9.7774    0.6172    0.0000 H   0  0  0  0  0  0  0  0  0  0  0  0
    7.2229    2.1570    0.0000 H   0  0  0  0  0  0  0  0  0  0  0  0
    6.3760    1.9301    0.0000 H   0  0  0  0  0  0  0  0  0  0  0  0
    6.6029    1.0831    0.0000 H   0  0  0  0  0  0  0  0  0  0  0  0
    9.7010    2.5230    0.0000 H   0  0  0  0  0  0  0  0  0  0  0  0
    8.1080    2.9301    0.0000 H   0  0  0  0  0  0  0  0  0  0  0  0
   12.8463   -1.6772    0.0000 H   0  0  0  0  0  0  0  0  0  0  0  0
   11.8210    1.5337    0.0000 H   0  0  0  0  0  0  0  0  0  0  0  0
   10.7728   -2.9375    0.0000 H   0  0  0  0  0  0  0  0  0  0  0  0
   11.4001   -3.5500    0.0000 H   0  0  0  0  0  0  0  0  0  0  0  0
   12.0127   -2.9226    0.0000 H   0  0  0  0  0  0  0  0  0  0  0  0
    4.6808    0.6136    0.0000 H   0  0  0  0  0  0  0  0  0  0  0  0
    3.8838    0.6228    0.0000 H   0  0  0  0  0  0  0  0  0  0  0  0
    3.4556    0.8288    0.0000 H   0  0  0  0  0  0  0  0  0  0  0  0
    2.6113    1.0655    0.0000 H   0  0  0  0  0  0  0  0  0  0  0  0
    2.3746    0.2213    0.0000 H   0  0  0  0  0  0  0  0  0  0  0  0
    3.3545   -1.5222    0.0000 H   0  0  0  0  0  0  0  0  0  0  0  0
    4.1988   -1.7589    0.0000 H   0  0  0  0  0  0  0  0  0  0  0  0
    4.4355   -0.9147    0.0000 H   0  0  0  0  0  0  0  0  0  0  0  0
    2.0000   -0.5205    0.0000 H   0  0  0  0  0  0  0  0  0  0  0  0
  1 15  1  0  0  0  0
  1 19  1  0  0  0  0
  2 16  1  0  0  0  0
  2 27  1  0  0  0  0
 15  3  1  6  0  0  0
  3 54  1  0  0  0  0
 20  4  1  1  0  0  0
  4 55  1  0  0  0  0
 22  5  1  6  0  0  0
  5 31  1  0  0  0  0
 23  6  1  6  0  0  0
  6 57  1  0  0  0  0
  7 27  2  0  0  0  0
  8 28  2  0  0  0  0
  9 31  2  0  0  0  0
 10 33  1  0  0  0  0
 10 69  1  0  0  0  0
 11 12  1  0  0  0  0
 11 14  1  0  0  0  0
 11 16  1  0  0  0  0
 11 19  1  6  0  0  0
 12 13  1  0  0  0  0
 12 15  1  0  0  0  0
 12 36  1  1  0  0  0
 13 17  1  0  0  0  0
 13 23  1  0  0  0  0
 13 24  1  6  0  0  0
 14 18  1  0  0  0  0
 14 22  1  0  0  0  0
 14 37  1  6  0  0  0
 15 20  1  0  0  0  0
 16 21  1  0  0  0  0
 16 38  1  6  0  0  0
 17 21  1  0  0  0  0
 17 25  1  0  0  0  0
 17 39  1  1  0  0  0
 18 20  1  0  0  0  0
 18 26  1  1  0  0  0
 18 40  1  0  0  0  0
 19 41  1  0  0  0  0
 19 42  1  0  0  0  0
 20 43  1  0  0  0  0
 21 44  1  0  0  0  0
 21 45  1  0  0  0  0
 22 27  1  0  0  0  0
 22 46  1  0  0  0  0
 23 28  1  0  0  0  0
 23 47  1  0  0  0  0
 24 48  1  0  0  0  0
 24 49  1  0  0  0  0
 24 50  1  0  0  0  0
 25 29  2  0  0  0  0
 25 30  1  0  0  0  0
 26 51  1  0  0  0  0
 26 52  1  0  0  0  0
 26 53  1  0  0  0  0
 28 29  1  0  0  0  0
 29 56  1  0  0  0  0
 30 58  1  0  0  0  0
 30 59  1  0  0  0  0
 30 60  1  0  0  0  0
 31 32  1  0  0  0  0
 32 33  1  0  0  0  0
 32 61  1  0  0  0  0
 32 62  1  0  0  0  0
 33 34  1  0  0  0  0
 33 35  1  0  0  0  0
 34 63  1  0  0  0  0
 34 64  1  0  0  0  0
 34 65  1  0  0  0  0
 35 66  1  0  0  0  0
 35 67  1  0  0  0  0
 35 68  1  0  0  0  0
M  END
> <PUBCHEM_COMPOUND_CID>
441809

> <PUBCHEM_COMPOUND_CANONICALIZED>
1

> <PUBCHEM_CACTVS_COMPLEXITY>
1020

> <PUBCHEM_CACTVS_HBOND_ACCEPTOR>
10

> <PUBCHEM_CACTVS_HBOND_DONOR>
4

> <PUBCHEM_CACTVS_ROTATABLE_BOND>
4

> <PUBCHEM_CACTVS_SUBSKEYS>
AAADcfB4PAAAAAAAAAAAAAAAAAAAASAAAAA0YIEABIAAAEiQAAAAGgAACAAAD1SggAICCAAABgCIAqDSCAIAAAAgAAAACAFAAEgREBYAAQQCQAAF4AAPAQPI7PzPgAAAAAAAAADAAAYAADCAAAAAAAAAAA==

> <PUBCHEM_IUPAC_INCHI>
InChI=1S/C25H34O10/c1-10-6-13(26)19(29)23(5)12(10)7-14-24-9-33-25(32,21(23)24)18(28)11(2)16(24)17(20(30)34-14)35-15(27)8-22(3,4)31/h6,11-12,14,16-19,21,28-29,31-32H,7-9H2,1-5H3/t11-,12+,14-,16-,17-,18-,19-,21-,23-,24+,25+/m1/s1

> <PUBCHEM_IUPAC_INCHIKEY>
BASHMUPTLJHSQJ-ZGXGNEARSA-N

> <PUBCHEM_XLOGP3_AA>
-0.5

> <PUBCHEM_EXACT_MASS>
494.215197

> <PUBCHEM_MOLECULAR_FORMULA>
C25H34O10

> <PUBCHEM_MOLECULAR_WEIGHT>
494.53146

> <PUBCHEM_OPENEYE_CAN_SMILES>
CC1C2C(C(=O)OC3C24COC(C1O)(C4C5(C(C3)C(=CC(=O)C5O)C)C)O)OC(=O)CC(C)(C)O

> <PUBCHEM_OPENEYE_ISO_SMILES>
C[C@@H]1[C@@H]2[C@H](C(=O)O[C@H]3[C@@]24CO[C@@]([C@@H]1O)([C@@H]4[C@@]5([C@@H](C3)C(=CC(=O)[C@H]5O)C)C)O)OC(=O)CC(C)(C)O

> <PUBCHEM_CACTVS_TPSA>
160

> <PUBCHEM_MONOISOTOPIC_WEIGHT>
494.215197

> <PUBCHEM_TOTAL_CHARGE>
0

> <PUBCHEM_HEAVY_ATOM_COUNT>
35

> <PUBCHEM_ATOM_DEF_STEREO_COUNT>
11

> <PUBCHEM_ATOM_UDEF_STEREO_COUNT>
0

> <PUBCHEM_BOND_DEF_STEREO_COUNT>
0

> <PUBCHEM_BOND_UDEF_STEREO_COUNT>
0

> <PUBCHEM_ISOTOPIC_ATOM_COUNT>
0

> <PUBCHEM_COMPONENT_COUNT>
1

> <PUBCHEM_CACTVS_TAUTO_COUNT>
26

> <PUBCHEM_COORDINATE_TYPE>
1
5
255

> <PUBCHEM_BONDANNOTATIONS>
11  19  6
12  36  5
13  24  6
14  37  6
16  38  6
17  39  5
18  26  5
15  3  6
20  4  5
22  5  6
23  6  6

$$$$

