443401
  -OEChem-07051213023D

 52 56  0     1  0  0  0  0  0999 V2000
   -2.0008   -0.2339   -2.7873 O   0  0  0  0  0  0  0  0  0  0  0  0
   -3.1563    2.3800    0.7061 O   0  0  0  0  0  0  0  0  0  0  0  0
   -1.3025    3.4412   -0.1867 O   0  0  0  0  0  0  0  0  0  0  0  0
   -0.4240   -2.2292    1.3457 N   0  0  2  0  0  0  0  0  0  0  0  0
    1.0515    2.0255    0.5168 N   0  0  0  0  0  0  0  0  0  0  0  0
    0.0111   -1.5135    0.1317 C   0  0  2  0  0  0  0  0  0  0  0  0
    0.7920   -0.3221    0.7318 C   0  0  2  0  0  0  0  0  0  0  0  0
   -1.2437   -1.1438   -0.6972 C   0  0  1  0  0  0  0  0  0  0  0  0
    1.0202   -0.7236    2.2188 C   0  0  0  0  0  0  0  0  0  0  0  0
   -2.0860   -2.4277   -0.9538 C   0  0  0  0  0  0  0  0  0  0  0  0
   -2.0769   -0.0687    0.0732 C   0  0  0  0  0  0  0  0  0  0  0  0
    0.6923   -2.2084    2.2661 C   0  0  0  0  0  0  0  0  0  0  0  0
    0.0771    1.0483    0.6246 C   0  0  0  0  0  0  0  0  0  0  0  0
   -0.8267   -0.5977   -2.0848 C   0  0  1  0  0  0  0  0  0  0  0  0
   -1.0031   -3.5264    1.0615 C   0  0  0  0  0  0  0  0  0  0  0  0
    2.1444    0.0268    0.1358 C   0  0  0  0  0  0  0  0  0  0  0  0
   -2.3038   -3.2906    0.2925 C   0  0  0  0  0  0  0  0  0  0  0  0
   -1.2459    1.1466    0.4044 C   0  0  0  0  0  0  0  0  0  0  0  0
    2.2471    1.4347    0.0914 C   0  0  0  0  0  0  0  0  0  0  0  0
   -0.0523   -1.6361   -2.8628 C   0  0  0  0  0  0  0  0  0  0  0  0
    3.1993   -0.7805   -0.2472 C   0  0  0  0  0  0  0  0  0  0  0  0
   -1.8771    2.4635    0.2626 C   0  0  0  0  0  0  0  0  0  0  0  0
    3.4151    2.0548   -0.3039 C   0  0  0  0  0  0  0  0  0  0  0  0
    4.3750   -0.1582   -0.6736 C   0  0  0  0  0  0  0  0  0  0  0  0
    4.4836    1.2444   -0.6964 C   0  0  0  0  0  0  0  0  0  0  0  0
   -3.9096    3.5947    0.6309 C   0  0  0  0  0  0  0  0  0  0  0  0
    0.6904   -2.1792   -0.4077 H   0  0  0  0  0  0  0  0  0  0  0  0
    0.3315   -0.1787    2.8796 H   0  0  0  0  0  0  0  0  0  0  0  0
    2.0363   -0.5391    2.5864 H   0  0  0  0  0  0  0  0  0  0  0  0
   -1.6068   -3.1022   -1.6658 H   0  0  0  0  0  0  0  0  0  0  0  0
   -3.0664   -2.1729   -1.3742 H   0  0  0  0  0  0  0  0  0  0  0  0
   -2.4833   -0.4736    1.0079 H   0  0  0  0  0  0  0  0  0  0  0  0
   -2.9459    0.2101   -0.5355 H   0  0  0  0  0  0  0  0  0  0  0  0
    1.5340   -2.8180    1.9170 H   0  0  0  0  0  0  0  0  0  0  0  0
    0.4142   -2.5222    3.2767 H   0  0  0  0  0  0  0  0  0  0  0  0
   -0.2115    0.3024   -2.0004 H   0  0  0  0  0  0  0  0  0  0  0  0
   -1.2398   -4.0544    1.9925 H   0  0  0  0  0  0  0  0  0  0  0  0
   -0.3188   -4.1618    0.4862 H   0  0  0  0  0  0  0  0  0  0  0  0
   -3.0360   -2.8033    0.9487 H   0  0  0  0  0  0  0  0  0  0  0  0
   -2.7406   -4.2537    0.0030 H   0  0  0  0  0  0  0  0  0  0  0  0
    0.8246    2.9879    0.3182 H   0  0  0  0  0  0  0  0  0  0  0  0
   -0.6618   -2.4528   -3.2591 H   0  0  0  0  0  0  0  0  0  0  0  0
    0.3275   -1.1501   -3.7727 H   0  0  0  0  0  0  0  0  0  0  0  0
    0.8300   -2.0368   -2.3647 H   0  0  0  0  0  0  0  0  0  0  0  0
    3.1333   -1.8615   -0.2021 H   0  0  0  0  0  0  0  0  0  0  0  0
   -2.4159   -1.0345   -3.1487 H   0  0  0  0  0  0  0  0  0  0  0  0
    3.5044    3.1353   -0.3249 H   0  0  0  0  0  0  0  0  0  0  0  0
    5.2238   -0.7645   -0.9792 H   0  0  0  0  0  0  0  0  0  0  0  0
    5.4137    1.7024   -1.0230 H   0  0  0  0  0  0  0  0  0  0  0  0
   -3.4432    4.3685    1.2481 H   0  0  0  0  0  0  0  0  0  0  0  0
   -4.9136    3.3964    1.0155 H   0  0  0  0  0  0  0  0  0  0  0  0
   -3.9906    3.9260   -0.4089 H   0  0  0  0  0  0  0  0  0  0  0  0
  1 14  1  0  0  0  0
  1 46  1  0  0  0  0
  2 22  1  0  0  0  0
  2 26  1  0  0  0  0
  3 22  2  0  0  0  0
  4  6  1  0  0  0  0
  4 12  1  0  0  0  0
  4 15  1  0  0  0  0
  5 13  1  0  0  0  0
  5 19  1  0  0  0  0
  5 41  1  0  0  0  0
  6  7  1  0  0  0  0
  6  8  1  0  0  0  0
  6 27  1  0  0  0  0
  7  9  1  0  0  0  0
  7 13  1  0  0  0  0
  7 16  1  0  0  0  0
  8 10  1  0  0  0  0
  8 11  1  0  0  0  0
  8 14  1  0  0  0  0
  9 12  1  0  0  0  0
  9 28  1  0  0  0  0
  9 29  1  0  0  0  0
 10 17  1  0  0  0  0
 10 30  1  0  0  0  0
 10 31  1  0  0  0  0
 11 18  1  0  0  0  0
 11 32  1  0  0  0  0
 11 33  1  0  0  0  0
 12 34  1  0  0  0  0
 12 35  1  0  0  0  0
 13 18  2  0  0  0  0
 14 20  1  0  0  0  0
 14 36  1  0  0  0  0
 15 17  1  0  0  0  0
 15 37  1  0  0  0  0
 15 38  1  0  0  0  0
 16 19  1  0  0  0  0
 16 21  2  0  0  0  0
 17 39  1  0  0  0  0
 17 40  1  0  0  0  0
 18 22  1  0  0  0  0
 19 23  2  0  0  0  0
 20 42  1  0  0  0  0
 20 43  1  0  0  0  0
 20 44  1  0  0  0  0
 21 24  1  0  0  0  0
 21 45  1  0  0  0  0
 23 25  1  0  0  0  0
 23 47  1  0  0  0  0
 24 25  2  0  0  0  0
 24 48  1  0  0  0  0
 25 49  1  0  0  0  0
 26 50  1  0  0  0  0
 26 51  1  0  0  0  0
 26 52  1  0  0  0  0
M  END
> <PUBCHEM_COMPOUND_CID>
443401

> <PUBCHEM_CONFORMER_RMSD>
0.8

> <PUBCHEM_CONFORMER_DIVERSEORDER>
1
3
4
2

> <PUBCHEM_MMFF94_PARTIAL_CHARGES>
27
1 -0.68
11 0.14
12 0.27
13 -0.04
14 0.28
15 0.27
16 -0.14
18 -0.12
19 0.1
2 -0.43
21 -0.15
22 0.71
23 -0.15
24 -0.15
25 -0.15
26 0.28
3 -0.57
4 -0.81
41 0.4
45 0.15
46 0.4
47 0.15
48 0.15
49 0.15
5 -0.6
6 0.27
7 0.28

> <PUBCHEM_EFFECTIVE_ROTOR_COUNT>
4.4

> <PUBCHEM_PHARMACOPHORE_FEATURES>
11
1 1 acceptor
1 1 donor
1 3 acceptor
1 4 cation
1 5 cation
1 5 donor
5 4 6 7 9 12 rings
5 5 7 13 16 19 rings
6 16 19 21 23 24 25 rings
6 4 6 8 10 15 17 rings
6 6 7 8 11 13 18 rings

> <PUBCHEM_HEAVY_ATOM_COUNT>
26

> <PUBCHEM_ATOM_DEF_STEREO_COUNT>
3

> <PUBCHEM_ATOM_UDEF_STEREO_COUNT>
1

> <PUBCHEM_BOND_DEF_STEREO_COUNT>
0

> <PUBCHEM_BOND_UDEF_STEREO_COUNT>
0

> <PUBCHEM_ISOTOPIC_ATOM_COUNT>
0

> <PUBCHEM_COMPONENT_COUNT>
1

> <PUBCHEM_CACTVS_TAUTO_COUNT>
3

> <PUBCHEM_CONFORMER_ID>
0006C40900000001

> <PUBCHEM_MMFF94_ENERGY>
103.9429

> <PUBCHEM_FEATURE_SELFOVERLAP>
56.374

> <PUBCHEM_SHAPE_FINGERPRINT>
107951 10 18265879427678863046
10863032 1 18341042021004713018
10948715 1 18267574882982335568
1100329 8 18051973911730232906
11488393 25 17463671432317797607
12035759 4 18267045988051477301
12156800 1 17553712470782522119
12173636 292 18412540986026623662
12293681 4 18195810652417123459
12403814 3 17605546648550519262
12422481 6 17752730655242165563
12592029 89 17979626063459374688
12714826 92 17386561354542528566
12788726 201 18338802199838920995
13140716 1 17763469417574892168
13911987 19 17116062596539120796
14251751 93 18334012838841907181
14713325 29 18262225647550030382
14790565 3 18339069497409019697
14817 1 11361152134062925407
14955137 171 17694224774092452138
15664445 248 16671105697826927599
16752209 62 17824288031829812109
16945 1 18408889529174775394
1813 80 17466478150073866302
19591789 44 18339635771465999041
19930381 70 16968854468851775288
20905425 154 16462761984206322078
21524375 3 18190458453156930705
229495 10 16914822706315391626
23419403 2 6447144548849135061
23558518 356 18269556031622823064
23559900 14 17698171651975336680
238 59 17340442553795031701
266924 78 17770247129644746487
2748010 2 17401215473592689552
298252 57 17968657258298806656
3060560 45 17978225285772201084
394222 165 17983287415916217688
469060 322 15840987737486159571
53917941 68 18342469131696014748
6669772 16 18048021158906930966
81228 2 18193567674540409697
9999458 23 17911787282641479021

> <PUBCHEM_SHAPE_MULTIPOLES>
507.5
5.58
4.26
2.03
5.58
1.77
-0.97
3.01
-1.04
-5
1.29
-0.56
-1.47
-0.73

> <PUBCHEM_SHAPE_SELFOVERLAP>
1128.053

> <PUBCHEM_SHAPE_VOLUME>
272.2

> <PUBCHEM_COORDINATE_TYPE>
2
5
10

$$$$

