443213
  -OEChem-07051213013D

 25 25  0     1  0  0  0  0  0999 V2000
   -1.4348   -1.6577    0.9177 O   0  0  0  0  0  0  0  0  0  0  0  0
   -3.3821   -0.8102   -0.6875 O   0  0  0  0  0  0  0  0  0  0  0  0
    2.4125   -0.4962   -1.8356 O   0  0  0  0  0  0  0  0  0  0  0  0
    3.1550    0.9531   -0.2554 O   0  0  0  0  0  0  0  0  0  0  0  0
   -1.0035   -0.8881   -0.2073 C   0  0  2  0  0  0  0  0  0  0  0  0
    0.1617   -0.0422    0.2582 C   0  0  0  0  0  0  0  0  0  0  0  0
    1.4970   -0.7159    0.3607 C   0  0  2  0  0  0  0  0  0  0  0  0
   -2.1767   -0.0569   -0.7785 C   0  0  2  0  0  0  0  0  0  0  0  0
   -0.0182    1.2504    0.5850 C   0  0  0  0  0  0  0  0  0  0  0  0
   -2.3435    1.2796   -0.1066 C   0  0  0  0  0  0  0  0  0  0  0  0
    2.0082   -0.6923    1.7943 C   0  0  0  0  0  0  0  0  0  0  0  0
   -1.3213    1.8696    0.5287 C   0  0  0  0  0  0  0  0  0  0  0  0
    2.4457    0.0068   -0.5735 C   0  0  0  0  0  0  0  0  0  0  0  0
   -0.6883   -1.5972   -0.9823 H   0  0  0  0  0  0  0  0  0  0  0  0
    1.4429   -1.7642    0.0426 H   0  0  0  0  0  0  0  0  0  0  0  0
   -1.9971    0.1425   -1.8428 H   0  0  0  0  0  0  0  0  0  0  0  0
    0.7971    1.8747    0.9349 H   0  0  0  0  0  0  0  0  0  0  0  0
   -3.3018    1.7855   -0.1732 H   0  0  0  0  0  0  0  0  0  0  0  0
    2.1757    0.3229    2.1715 H   0  0  0  0  0  0  0  0  0  0  0  0
    2.9694   -1.2151    1.8610 H   0  0  0  0  0  0  0  0  0  0  0  0
    1.3090   -1.1945    2.4721 H   0  0  0  0  0  0  0  0  0  0  0  0
   -1.4421    2.8435    0.9900 H   0  0  0  0  0  0  0  0  0  0  0  0
   -0.7129   -2.2624    1.1604 H   0  0  0  0  0  0  0  0  0  0  0  0
   -3.2330   -1.6559   -1.1439 H   0  0  0  0  0  0  0  0  0  0  0  0
    3.0207   -0.0153   -2.4365 H   0  0  0  0  0  0  0  0  0  0  0  0
  1  5  1  0  0  0  0
  1 23  1  0  0  0  0
  2  8  1  0  0  0  0
  2 24  1  0  0  0  0
  3 13  1  0  0  0  0
  3 25  1  0  0  0  0
  4 13  2  0  0  0  0
  5  6  1  0  0  0  0
  5  8  1  0  0  0  0
  5 14  1  0  0  0  0
  6  7  1  0  0  0  0
  6  9  2  0  0  0  0
  7 11  1  0  0  0  0
  7 13  1  0  0  0  0
  7 15  1  0  0  0  0
  8 10  1  0  0  0  0
  8 16  1  0  0  0  0
  9 12  1  0  0  0  0
  9 17  1  0  0  0  0
 10 12  2  0  0  0  0
 10 18  1  0  0  0  0
 11 19  1  0  0  0  0
 11 20  1  0  0  0  0
 11 21  1  0  0  0  0
 12 22  1  0  0  0  0
M  END
> <PUBCHEM_COMPOUND_CID>
443213

> <PUBCHEM_CONFORMER_RMSD>
0.6

> <PUBCHEM_CONFORMER_DIVERSEORDER>
1
15
17
3
19
4
12
9
20
7
16
18
2
10
13
8
21
14
5
11
6

> <PUBCHEM_MMFF94_PARTIAL_CHARGES>
18
1 -0.68
10 -0.29
12 -0.15
13 0.66
17 0.15
18 0.15
2 -0.68
22 0.15
23 0.4
24 0.4
25 0.5
3 -0.65
4 -0.57
5 0.42
6 -0.28
7 0.2
8 0.42
9 -0.15

> <PUBCHEM_EFFECTIVE_ROTOR_COUNT>
2.4

> <PUBCHEM_PHARMACOPHORE_FEATURES>
9
1 1 acceptor
1 1 donor
1 11 hydrophobe
1 2 acceptor
1 2 donor
1 3 acceptor
1 4 acceptor
3 3 4 13 anion
6 5 6 8 9 10 12 rings

> <PUBCHEM_HEAVY_ATOM_COUNT>
13

> <PUBCHEM_ATOM_DEF_STEREO_COUNT>
2

> <PUBCHEM_ATOM_UDEF_STEREO_COUNT>
1

> <PUBCHEM_BOND_DEF_STEREO_COUNT>
0

> <PUBCHEM_BOND_UDEF_STEREO_COUNT>
0

> <PUBCHEM_ISOTOPIC_ATOM_COUNT>
0

> <PUBCHEM_COMPONENT_COUNT>
1

> <PUBCHEM_CACTVS_TAUTO_COUNT>
1

> <PUBCHEM_CONFORMER_ID>
0006C34D00000001

> <PUBCHEM_MMFF94_ENERGY>
22.9458

> <PUBCHEM_FEATURE_SELFOVERLAP>
45.744

> <PUBCHEM_SHAPE_FINGERPRINT>
10353120 184 18335990822022048605
11031198 65 15769482218771410126
11206711 2 18338247032767328981
12326174 3 14490487404067746986
12423570 1 16457712378128945506
12524768 44 18042416733106669129
12716758 59 17751644479355578009
12897270 3 18261104167227721884
12932764 1 18059289988743949812
13024252 1 12607397767837642029
13538477 17 18201721794457866227
15219456 202 16950579804066993376
15775835 57 17988640852026809484
16945 1 18201432549985582609
19837323 101 18265313153230492832
20645476 183 17989204862953158327
22802520 49 17970607783368143438
23402539 116 18262250962139825716
23552423 10 18196659724644391739
23559900 14 17607252253838204210
2748010 2 17833843672448212827
353137 74 18342738477162601688
369184 2 12895064089907636101
5084963 1 18049449441242472256
8030462 33 18273213122927872818

> <PUBCHEM_SHAPE_MULTIPOLES>
244.06
4.49
1.57
1.29
0.29
0.32
0.02
-0.1
-1.14
-0.82
0.3
0.93
-0.3
-0.27

> <PUBCHEM_SHAPE_SELFOVERLAP>
499.933

> <PUBCHEM_SHAPE_VOLUME>
139.6

> <PUBCHEM_COORDINATE_TYPE>
2
5
10

$$$$

