9577272
  -OEChem-07051213073D

 35 35  0     0  0  0  0  0  0999 V2000
   -4.1812   -1.4776    1.2851 O   0  0  0  0  0  0  0  0  0  0  0  0
    2.0168   -0.0698   -0.2469 N   0  0  0  0  0  0  0  0  0  0  0  0
   -0.1921    0.7241    0.2901 N   0  0  0  0  0  0  0  0  0  0  0  0
   -2.2134   -0.3779    0.7780 N   0  0  0  0  0  0  0  0  0  0  0  0
    2.7287    0.8494    0.6303 C   0  0  0  0  0  0  0  0  0  0  0  0
    2.7919   -1.1646   -0.8139 C   0  0  0  0  0  0  0  0  0  0  0  0
    3.0216    2.1629   -0.0872 C   0  0  0  0  0  0  0  0  0  0  0  0
    2.9352   -2.3021    0.1918 C   0  0  0  0  0  0  0  0  0  0  0  0
    0.6348   -0.0500   -0.3377 C   0  0  0  0  0  0  0  0  0  0  0  0
    3.7264    3.1773    0.8028 C   0  0  0  0  0  0  0  0  0  0  0  0
    3.7007   -3.4927   -0.3689 C   0  0  0  0  0  0  0  0  0  0  0  0
   -1.5101    0.5250    0.0093 C   0  0  0  0  0  0  0  0  0  0  0  0
   -2.1360    1.1762   -0.9830 C   0  0  0  0  0  0  0  0  0  0  0  0
   -3.5557   -0.6729    0.5993 C   0  0  0  0  0  0  0  0  0  0  0  0
   -3.5333    0.9325   -1.2420 C   0  0  0  0  0  0  0  0  0  0  0  0
   -4.2343    0.0602   -0.5070 C   0  0  0  0  0  0  0  0  0  0  0  0
    3.6744    0.4102    0.9710 H   0  0  0  0  0  0  0  0  0  0  0  0
    2.1426    1.0369    1.5385 H   0  0  0  0  0  0  0  0  0  0  0  0
    3.7832   -0.8033   -1.1145 H   0  0  0  0  0  0  0  0  0  0  0  0
    2.3130   -1.5309   -1.7303 H   0  0  0  0  0  0  0  0  0  0  0  0
    2.0872    2.6050   -0.4538 H   0  0  0  0  0  0  0  0  0  0  0  0
    3.6417    1.9699   -0.9711 H   0  0  0  0  0  0  0  0  0  0  0  0
    1.9418   -2.6410    0.5110 H   0  0  0  0  0  0  0  0  0  0  0  0
    3.4462   -1.9486    1.0949 H   0  0  0  0  0  0  0  0  0  0  0  0
    0.2666   -0.8265   -1.0351 H   0  0  0  0  0  0  0  0  0  0  0  0
    3.1128    3.4241    1.6750 H   0  0  0  0  0  0  0  0  0  0  0  0
    4.6858    2.7865    1.1561 H   0  0  0  0  0  0  0  0  0  0  0  0
    3.9179    4.1010    0.2479 H   0  0  0  0  0  0  0  0  0  0  0  0
    3.1930   -3.9052   -1.2464 H   0  0  0  0  0  0  0  0  0  0  0  0
    4.7141   -3.2014   -0.6626 H   0  0  0  0  0  0  0  0  0  0  0  0
    3.7774   -4.2835    0.3837 H   0  0  0  0  0  0  0  0  0  0  0  0
   -1.7032   -0.8495    1.5189 H   0  0  0  0  0  0  0  0  0  0  0  0
   -1.6205    1.8952   -1.6108 H   0  0  0  0  0  0  0  0  0  0  0  0
   -4.0034    1.4784   -2.0525 H   0  0  0  0  0  0  0  0  0  0  0  0
   -5.2843   -0.1333   -0.6895 H   0  0  0  0  0  0  0  0  0  0  0  0
  1 14  2  0  0  0  0
  2  5  1  0  0  0  0
  2  6  1  0  0  0  0
  2  9  1  0  0  0  0
  3  9  2  0  0  0  0
  3 12  1  0  0  0  0
  4 12  1  0  0  0  0
  4 14  1  0  0  0  0
  4 32  1  0  0  0  0
  5  7  1  0  0  0  0
  5 17  1  0  0  0  0
  5 18  1  0  0  0  0
  6  8  1  0  0  0  0
  6 19  1  0  0  0  0
  6 20  1  0  0  0  0
  7 10  1  0  0  0  0
  7 21  1  0  0  0  0
  7 22  1  0  0  0  0
  8 11  1  0  0  0  0
  8 23  1  0  0  0  0
  8 24  1  0  0  0  0
  9 25  1  0  0  0  0
 10 26  1  0  0  0  0
 10 27  1  0  0  0  0
 10 28  1  0  0  0  0
 11 29  1  0  0  0  0
 11 30  1  0  0  0  0
 11 31  1  0  0  0  0
 12 13  2  0  0  0  0
 13 15  1  0  0  0  0
 13 33  1  0  0  0  0
 14 16  1  0  0  0  0
 15 16  2  0  0  0  0
 15 34  1  0  0  0  0
 16 35  1  0  0  0  0
M  END
> <PUBCHEM_COMPOUND_CID>
9577272

> <PUBCHEM_CONFORMER_RMSD>
0.8

> <PUBCHEM_CONFORMER_DIVERSEORDER>
1
22
28
36
33
20
24
12
39
5
41
40
17
16
32
11
10
25
35
9
26
19
2
37
27
15
31
18
8
34
7
13
29
38
21
14
6
23
4
30
3

> <PUBCHEM_MMFF94_PARTIAL_CHARGES>
17
1 -0.57
12 0.28
13 -0.15
14 0.62
15 -0.15
16 -0.14
2 -0.79
25 0.06
3 -0.62
32 0.37
33 0.15
34 0.15
35 0.15
4 -0.54
5 0.37
6 0.37
9 0.44

> <PUBCHEM_EFFECTIVE_ROTOR_COUNT>
6

> <PUBCHEM_PHARMACOPHORE_FEATURES>
6
1 1 acceptor
1 10 hydrophobe
1 11 hydrophobe
1 4 donor
3 2 3 9 cation
6 4 12 13 14 15 16 rings

> <PUBCHEM_HEAVY_ATOM_COUNT>
16

> <PUBCHEM_ATOM_DEF_STEREO_COUNT>
0

> <PUBCHEM_ATOM_UDEF_STEREO_COUNT>
0

> <PUBCHEM_BOND_DEF_STEREO_COUNT>
1

> <PUBCHEM_BOND_UDEF_STEREO_COUNT>
0

> <PUBCHEM_ISOTOPIC_ATOM_COUNT>
0

> <PUBCHEM_COMPONENT_COUNT>
1

> <PUBCHEM_CACTVS_TAUTO_COUNT>
2

> <PUBCHEM_CONFORMER_ID>
0092233800000001

> <PUBCHEM_MMFF94_ENERGY>
25.1756

> <PUBCHEM_FEATURE_SELFOVERLAP>
30.446

> <PUBCHEM_SHAPE_FINGERPRINT>
11405975 8 18337389452262717889
12363563 72 18119522400071929014
12707595 3 18263919011537278870
13296908 3 18342455950198101615
13533116 47 18408600375339663577
13544592 145 18129384967822292565
13955234 65 18335421249176238266
14252887 29 18200582606201810753
14289901 80 18260838072492137113
14866123 147 16464177059787369794
15219456 202 18341334418194176589
15502722 9 18408605842632856996
18186145 218 17917714651359264701
19026448 4 18272654545509725749
20279233 1 18272373057510904529
20369508 70 18269846478664479702
204376 136 18119533133210954264
20645477 56 18060424642469485605
20645477 70 18335428992686034623
20671657 53 18191305094674932438
20681651 13 17894912872101718091
20693207 138 18201715206025792935
21065201 7 17346883377014737657
221490 88 18341325669361735746
22169311 21 18272373074727690543
2255824 54 18259984890397924062
22943178 12 18273218603406401893
23403322 49 18198057182522545439
23532345 1 18336274456892860796
23557571 272 17703793613140364541
23559900 14 18131632317733380644
312423 11 18041267859251052617
458136 41 18264201422895682184
5104073 3 18342455950456844617
6049 1 18272647986741425365
621550 34 18340487738274507797
7364860 26 18408888447417821684
7615 1 17458344177683912633
81539 233 18339082575810678468
9709674 26 18343304777448924763

> <PUBCHEM_SHAPE_MULTIPOLES>
308.46
9.28
3.22
1.05
4.36
0.61
0
1.53
0.41
-6.74
0.31
0.74
-0.01
1.93

> <PUBCHEM_SHAPE_SELFOVERLAP>
610.263

> <PUBCHEM_SHAPE_VOLUME>
182.7

> <PUBCHEM_COORDINATE_TYPE>
2
5
10

$$$$

