54675769
  -OEChem-07051212503D

 80 83  0     1  0  0  0  0  0999 V2000
   -4.5931    0.3282    0.7044 O   0  0  0  0  0  0  0  0  0  0  0  0
   -7.0159    0.6306    2.4616 O   0  0  0  0  0  0  0  0  0  0  0  0
   -7.5700    1.2065   -1.0816 O   0  0  0  0  0  0  0  0  0  0  0  0
   -4.3332   -1.6159   -0.5553 O   0  0  0  0  0  0  0  0  0  0  0  0
   -7.0864   -1.4903   -1.3013 O   0  0  0  0  0  0  0  0  0  0  0  0
   -9.6532    1.9073   -0.3965 O   0  0  0  0  0  0  0  0  0  0  0  0
    0.1706   -2.3625    0.8857 O   0  0  0  0  0  0  0  0  0  0  0  0
    1.6616   -0.2677   -2.4161 O   0  0  0  0  0  0  0  0  0  0  0  0
    2.2919   -2.6751    1.6609 O   0  0  0  0  0  0  0  0  0  0  0  0
    3.7641   -0.2574    1.5669 O   0  0  0  0  0  0  0  0  0  0  0  0
    9.7491   -0.7545   -0.4264 O   0  0  0  0  0  0  0  0  0  0  0  0
   -8.7583    2.5923   -2.4006 N   0  0  0  0  0  0  0  0  0  0  0  0
    3.4222   -1.3620   -0.4507 N   0  0  0  0  0  0  0  0  0  0  0  0
   -5.2785    1.5553    1.0022 C   0  0  0  0  0  0  0  0  0  0  0  0
   -6.7958    1.2998    1.2157 C   0  0  1  0  0  0  0  0  0  0  0  0
   -7.4310    0.4438    0.1141 C   0  0  2  0  0  0  0  0  0  0  0  0
   -6.5758   -0.7933   -0.1688 C   0  0  2  0  0  0  0  0  0  0  0  0
   -5.1083   -0.4254   -0.3928 C   0  0  1  0  0  0  0  0  0  0  0  0
   -4.6319    2.0808    2.2974 C   0  0  0  0  0  0  0  0  0  0  0  0
   -5.0044    2.5941   -0.0988 C   0  0  0  0  0  0  0  0  0  0  0  0
   -8.3286    0.8640    2.9488 C   0  0  0  0  0  0  0  0  0  0  0  0
   -2.9852   -1.4537   -0.7395 C   0  0  0  0  0  0  0  0  0  0  0  0
   -8.7404    1.8994   -1.2157 C   0  0  0  0  0  0  0  0  0  0  0  0
   -2.0697   -1.9974    0.1540 C   0  0  0  0  0  0  0  0  0  0  0  0
   -2.5297   -0.7244   -1.8358 C   0  0  0  0  0  0  0  0  0  0  0  0
   -0.7046   -1.8055   -0.0688 C   0  0  0  0  0  0  0  0  0  0  0  0
   -0.2160   -1.0917   -1.1642 C   0  0  0  0  0  0  0  0  0  0  0  0
   -1.1571   -0.5421   -2.0457 C   0  0  0  0  0  0  0  0  0  0  0  0
   -2.5475   -2.7711    1.3395 C   0  0  0  0  0  0  0  0  0  0  0  0
    1.2397   -0.9571   -1.2998 C   0  0  0  0  0  0  0  0  0  0  0  0
    2.0604   -1.4733   -0.3734 C   0  0  0  0  0  0  0  0  0  0  0  0
    1.5480   -2.2109    0.8031 C   0  0  0  0  0  0  0  0  0  0  0  0
    4.1925   -0.7578    0.5298 C   0  0  0  0  0  0  0  0  0  0  0  0
    5.6577   -0.7526    0.2807 C   0  0  0  0  0  0  0  0  0  0  0  0
    7.8311    0.2530    0.5995 C   0  0  0  0  0  0  0  0  0  0  0  0
    6.4560    0.2486    0.8335 C   0  0  0  0  0  0  0  0  0  0  0  0
    6.2343   -1.7493   -0.5067 C   0  0  0  0  0  0  0  0  0  0  0  0
    8.6707    1.3321    1.1996 C   0  0  0  0  0  0  0  0  0  0  0  0
    8.4077   -0.7438   -0.1877 C   0  0  0  0  0  0  0  0  0  0  0  0
    7.6092   -1.7450   -0.7409 C   0  0  0  0  0  0  0  0  0  0  0  0
    8.5246    2.6538    0.4870 C   0  0  0  0  0  0  0  0  0  0  0  0
    9.4743    3.3603   -0.1554 C   0  0  0  0  0  0  0  0  0  0  0  0
   10.8910    2.8534   -0.2151 C   0  0  0  0  0  0  0  0  0  0  0  0
    9.2581    4.6764   -0.8468 C   0  0  0  0  0  0  0  0  0  0  0  0
   -7.2815    2.2848    1.2543 H   0  0  0  0  0  0  0  0  0  0  0  0
   -8.4163    0.0589    0.3968 H   0  0  0  0  0  0  0  0  0  0  0  0
   -6.6342   -1.4791    0.6861 H   0  0  0  0  0  0  0  0  0  0  0  0
   -5.0306    0.1524   -1.3202 H   0  0  0  0  0  0  0  0  0  0  0  0
   -5.3772    2.2903   -1.0790 H   0  0  0  0  0  0  0  0  0  0  0  0
   -5.4560    3.5613    0.1466 H   0  0  0  0  0  0  0  0  0  0  0  0
   -3.9252    2.7411   -0.2266 H   0  0  0  0  0  0  0  0  0  0  0  0
   -5.1183    2.9973    2.6472 H   0  0  0  0  0  0  0  0  0  0  0  0
   -4.6734    1.3331    3.0975 H   0  0  0  0  0  0  0  0  0  0  0  0
   -3.5668    2.2916    2.1430 H   0  0  0  0  0  0  0  0  0  0  0  0
   -8.0149   -1.7117   -1.1155 H   0  0  0  0  0  0  0  0  0  0  0  0
   -8.4029    0.4033    3.9383 H   0  0  0  0  0  0  0  0  0  0  0  0
   -9.0946    0.4093    2.3173 H   0  0  0  0  0  0  0  0  0  0  0  0
   -8.5197    1.9357    3.0646 H   0  0  0  0  0  0  0  0  0  0  0  0
   -3.2246   -0.3012   -2.5560 H   0  0  0  0  0  0  0  0  0  0  0  0
   -0.8388    0.0291   -2.9147 H   0  0  0  0  0  0  0  0  0  0  0  0
   -7.9766    2.5546   -3.0462 H   0  0  0  0  0  0  0  0  0  0  0  0
   -9.5529    3.1640   -2.6667 H   0  0  0  0  0  0  0  0  0  0  0  0
   -1.9761   -3.6987    1.4538 H   0  0  0  0  0  0  0  0  0  0  0  0
   -3.5982   -3.0666    1.2572 H   0  0  0  0  0  0  0  0  0  0  0  0
   -2.4362   -2.1698    2.2477 H   0  0  0  0  0  0  0  0  0  0  0  0
    3.8250   -1.4113   -1.3833 H   0  0  0  0  0  0  0  0  0  0  0  0
    2.6302   -0.1967   -2.3820 H   0  0  0  0  0  0  0  0  0  0  0  0
    6.0101    1.0291    1.4459 H   0  0  0  0  0  0  0  0  0  0  0  0
    5.6470   -2.5567   -0.9353 H   0  0  0  0  0  0  0  0  0  0  0  0
    8.3554    1.4806    2.2418 H   0  0  0  0  0  0  0  0  0  0  0  0
    9.7091    1.0037    1.2846 H   0  0  0  0  0  0  0  0  0  0  0  0
    8.0462   -2.5302   -1.3521 H   0  0  0  0  0  0  0  0  0  0  0  0
    7.5224    3.0813    0.5123 H   0  0  0  0  0  0  0  0  0  0  0  0
    9.9650   -1.5162   -0.9913 H   0  0  0  0  0  0  0  0  0  0  0  0
    9.8633    5.4596   -0.3794 H   0  0  0  0  0  0  0  0  0  0  0  0
    9.5345    4.6014   -1.9034 H   0  0  0  0  0  0  0  0  0  0  0  0
    8.2100    4.9894   -0.7971 H   0  0  0  0  0  0  0  0  0  0  0  0
   11.0387    2.2520   -1.1177 H   0  0  0  0  0  0  0  0  0  0  0  0
   11.5934    3.6942   -0.2550 H   0  0  0  0  0  0  0  0  0  0  0  0
   11.1866    2.2681    0.6583 H   0  0  0  0  0  0  0  0  0  0  0  0
  1 14  1  0  0  0  0
  1 18  1  0  0  0  0
  2 15  1  0  0  0  0
  2 21  1  0  0  0  0
  3 16  1  0  0  0  0
  3 23  1  0  0  0  0
  4 18  1  0  0  0  0
  4 22  1  0  0  0  0
  5 17  1  0  0  0  0
  5 55  1  0  0  0  0
  6 23  2  0  0  0  0
  7 26  1  0  0  0  0
  7 32  1  0  0  0  0
  8 30  1  0  0  0  0
  8 67  1  0  0  0  0
  9 32  2  0  0  0  0
 10 33  2  0  0  0  0
 11 39  1  0  0  0  0
 11 74  1  0  0  0  0
 12 23  1  0  0  0  0
 12 61  1  0  0  0  0
 12 62  1  0  0  0  0
 13 31  1  0  0  0  0
 13 33  1  0  0  0  0
 13 66  1  0  0  0  0
 14 15  1  0  0  0  0
 14 19  1  0  0  0  0
 14 20  1  0  0  0  0
 15 16  1  0  0  0  0
 15 45  1  0  0  0  0
 16 17  1  0  0  0  0
 16 46  1  0  0  0  0
 17 18  1  0  0  0  0
 17 47  1  0  0  0  0
 18 48  1  0  0  0  0
 19 52  1  0  0  0  0
 19 53  1  0  0  0  0
 19 54  1  0  0  0  0
 20 49  1  0  0  0  0
 20 50  1  0  0  0  0
 20 51  1  0  0  0  0
 21 56  1  0  0  0  0
 21 57  1  0  0  0  0
 21 58  1  0  0  0  0
 22 24  2  0  0  0  0
 22 25  1  0  0  0  0
 24 26  1  0  0  0  0
 24 29  1  0  0  0  0
 25 28  2  0  0  0  0
 25 59  1  0  0  0  0
 26 27  2  0  0  0  0
 27 28  1  0  0  0  0
 27 30  1  0  0  0  0
 28 60  1  0  0  0  0
 29 63  1  0  0  0  0
 29 64  1  0  0  0  0
 29 65  1  0  0  0  0
 30 31  2  0  0  0  0
 31 32  1  0  0  0  0
 33 34  1  0  0  0  0
 34 36  2  0  0  0  0
 34 37  1  0  0  0  0
 35 36  1  0  0  0  0
 35 38  1  0  0  0  0
 35 39  2  0  0  0  0
 36 68  1  0  0  0  0
 37 40  2  0  0  0  0
 37 69  1  0  0  0  0
 38 41  1  0  0  0  0
 38 70  1  0  0  0  0
 38 71  1  0  0  0  0
 39 40  1  0  0  0  0
 40 72  1  0  0  0  0
 41 42  2  0  0  0  0
 41 73  1  0  0  0  0
 42 43  1  0  0  0  0
 42 44  1  0  0  0  0
 43 78  1  0  0  0  0
 43 79  1  0  0  0  0
 43 80  1  0  0  0  0
 44 75  1  0  0  0  0
 44 76  1  0  0  0  0
 44 77  1  0  0  0  0
M  END
> <PUBCHEM_COMPOUND_CID>
54675769

> <PUBCHEM_CONFORMER_RMSD>
1.2

> <PUBCHEM_CONFORMER_DIVERSEORDER>
4
13
3
139
124
58
115
138
114
117
17
109
83
23
68
67
84
94
122
70
63
134
113
130
8
10
50
66
93
11
125
90
34
73
69
86
40
119
100
25
30
103
128
79
89
55
123
43
87
133
105
140
80
60
98
12
135
18
129
136
72
101
26
62
127
39
137
104
53
96
57
52
111
85
76
47
33
121
95
45
91
21
81
15
78
106
99
120
126
27
22
36
71
82
38
42
92
51
44
46
132
102
56
49
61
116
24
35
112
131
65
54
59
31
19
97
20
32
88
77
48
14
75
16
41
108
118
107
64
7
2
5
28
9
110
74
37
6
29
1

> <PUBCHEM_MMFF94_PARTIAL_CHARGES>
54
1 -0.56
10 -0.57
11 -0.53
12 -0.8
13 -0.54
14 0.28
15 0.28
16 0.28
17 0.28
18 0.56
2 -0.56
21 0.28
22 0.08
23 0.78
24 -0.14
25 -0.15
26 0.08
27 0.03
28 -0.15
29 0.14
3 -0.43
30 0.05
31 0.12
32 0.71
33 0.54
34 0.09
35 -0.14
36 -0.15
37 -0.15
38 0.28
39 0.08
4 -0.36
40 -0.15
41 -0.29
42 -0.28
43 0.14
44 0.14
5 -0.68
55 0.4
59 0.15
6 -0.57
60 0.15
61 0.37
62 0.37
66 0.37
67 0.45
68 0.15
69 0.15
7 -0.23
72 0.15
73 0.15
74 0.45
8 -0.53
9 -0.57

> <PUBCHEM_EFFECTIVE_ROTOR_COUNT>
11.2

> <PUBCHEM_PHARMACOPHORE_FEATURES>
18
1 1 acceptor
1 10 acceptor
1 11 donor
1 12 donor
1 13 donor
1 2 acceptor
1 4 acceptor
1 5 acceptor
1 5 donor
1 6 acceptor
1 8 donor
1 9 acceptor
3 14 19 20 hydrophobe
3 42 43 44 hydrophobe
6 1 14 15 16 17 18 rings
6 22 24 25 26 27 28 rings
6 34 35 36 37 39 40 rings
6 7 26 27 30 31 32 rings

> <PUBCHEM_HEAVY_ATOM_COUNT>
44

> <PUBCHEM_ATOM_DEF_STEREO_COUNT>
4

> <PUBCHEM_ATOM_UDEF_STEREO_COUNT>
0

> <PUBCHEM_BOND_DEF_STEREO_COUNT>
0

> <PUBCHEM_BOND_UDEF_STEREO_COUNT>
0

> <PUBCHEM_ISOTOPIC_ATOM_COUNT>
0

> <PUBCHEM_COMPONENT_COUNT>
1

> <PUBCHEM_CACTVS_TAUTO_COUNT>
82

> <PUBCHEM_CONFORMER_ID>
0342493900000004

> <PUBCHEM_MMFF94_ENERGY>
161.5802

> <PUBCHEM_FEATURE_SELFOVERLAP>
91.419

> <PUBCHEM_SHAPE_FINGERPRINT>
11181472 205 17749379396004663786
11578821 258 18410577279403008501
12522641 24 18269842064261727810
12539765 74 18186794774088993398
13383668 254 18130521750944194589
13553643 46 18410012165139309120
14279260 333 9151172065569189069
15198563 99 14490457704390638722
15604295 49 18342182193584409165
15840311 113 18412260641428243500
17686467 74 18114754724876105879
18603816 31 13398336942521206099
20105231 36 15769772494954321338
2026 5 9223242844887982220
21792961 116 15574716902449972375
22149856 69 16773519983833211550
23576562 1 15792597148357872537
24771293 8 18130512925388125270
3178227 256 16200146604304005294
3711267 37 18410005550652101504
4173938 188 17846494786978093635
44802255 64 17240482472985948623
4516262 110 18338523035713390575
4760202 170 17604155835989580296
54039377 194 8286186268087142629
6201320 82 16806426150522927241
6691757 9 18060135419398679571
6703917 75 17313105263598458855

> <PUBCHEM_SHAPE_MULTIPOLES>
830.97
38.87
3.78
1.99
37.02
3.13
0.32
39.13
0.14
6.05
-0.21
-4.44
0.5
-0.71

> <PUBCHEM_SHAPE_SELFOVERLAP>
1783.001

> <PUBCHEM_SHAPE_VOLUME>
455.5

> <PUBCHEM_COORDINATE_TYPE>
2
5
10

$$$$

