5017
  -OEChem-06261200282D

 50 52  0     1  0  0  0  0  0999 V2000
    5.4641    2.3227    0.0000 Cl  0  0  0  0  0  0  0  0  0  0  0  0
    3.7320    1.3227    0.0000 Cl  0  0  0  0  0  0  0  0  0  0  0  0
    7.5870    2.0780    0.0000 O   0  0  0  0  0  0  0  0  0  0  0  0
    3.7320   -0.6773    0.0000 O   0  0  0  0  0  0  0  0  0  0  0  0
    2.8660   -3.1773    0.0000 O   0  0  0  0  0  0  0  0  0  0  0  0
    2.0000   -1.6773    0.0000 O   0  0  0  0  0  0  0  0  0  0  0  0
    7.8600    0.3227    0.0000 C   0  0  3  0  0  0  0  0  0  0  0  0
    8.6690   -0.2651    0.0000 C   0  0  0  0  0  0  0  0  0  0  0  0
    8.6690   -1.2651    0.0000 C   0  0  0  0  0  0  0  0  0  0  0  0
    9.6200    0.0439    0.0000 C   0  0  0  0  0  0  0  0  0  0  0  0
    7.2764   -0.4820    0.0000 C   0  0  0  0  0  0  0  0  0  0  0  0
    8.6690    0.9105    0.0000 C   0  0  0  0  0  0  0  0  0  0  0  0
    9.6200   -1.5741    0.0000 C   0  0  0  0  0  0  0  0  0  0  0  0
   10.2078   -0.7651    0.0000 C   0  0  0  0  0  0  0  0  0  0  0  0
    7.2764    1.1274    0.0000 C   0  0  0  0  0  0  0  0  0  0  0  0
    6.3301   -0.1773    0.0000 C   0  0  0  0  0  0  0  0  0  0  0  0
    6.3301    0.8227    0.0000 C   0  0  0  0  0  0  0  0  0  0  0  0
    8.5644    1.9050    0.0000 C   0  0  0  0  0  0  0  0  0  0  0  0
    5.4641   -0.6773    0.0000 C   0  0  0  0  0  0  0  0  0  0  0  0
    9.3735    2.4928    0.0000 C   0  0  0  0  0  0  0  0  0  0  0  0
    5.4641    1.3227    0.0000 C   0  0  0  0  0  0  0  0  0  0  0  0
    4.5981   -0.1773    0.0000 C   0  0  0  0  0  0  0  0  0  0  0  0
    4.5981    0.8227    0.0000 C   0  0  0  0  0  0  0  0  0  0  0  0
    9.2689    3.4873    0.0000 C   0  0  0  0  0  0  0  0  0  0  0  0
    3.7320   -1.6773    0.0000 C   0  0  0  0  0  0  0  0  0  0  0  0
    2.8660   -2.1773    0.0000 C   0  0  0  0  0  0  0  0  0  0  0  0
    8.7660    0.3473    0.0000 H   0  0  0  0  0  0  0  0  0  0  0  0
   10.1570    0.3539    0.0000 H   0  0  0  0  0  0  0  0  0  0  0  0
    9.3678    0.6103    0.0000 H   0  0  0  0  0  0  0  0  0  0  0  0
    8.0524   -1.2003    0.0000 H   0  0  0  0  0  0  0  0  0  0  0  0
    8.5401   -1.8715    0.0000 H   0  0  0  0  0  0  0  0  0  0  0  0
    7.0253   -1.0490    0.0000 H   0  0  0  0  0  0  0  0  0  0  0  0
    7.8137   -0.7913    0.0000 H   0  0  0  0  0  0  0  0  0  0  0  0
    8.9408    0.3532    0.0000 H   0  0  0  0  0  0  0  0  0  0  0  0
    9.2650    1.0814    0.0000 H   0  0  0  0  0  0  0  0  0  0  0  0
   10.6686   -1.1800    0.0000 H   0  0  0  0  0  0  0  0  0  0  0  0
   10.6686   -0.3502    0.0000 H   0  0  0  0  0  0  0  0  0  0  0  0
    9.3678   -2.1405    0.0000 H   0  0  0  0  0  0  0  0  0  0  0  0
   10.1570   -1.8841    0.0000 H   0  0  0  0  0  0  0  0  0  0  0  0
    8.2926    2.4622    0.0000 H   0  0  0  0  0  0  0  0  0  0  0  0
    7.9685    1.7341    0.0000 H   0  0  0  0  0  0  0  0  0  0  0  0
    5.4641   -1.2973    0.0000 H   0  0  0  0  0  0  0  0  0  0  0  0
    9.6453    1.9355    0.0000 H   0  0  0  0  0  0  0  0  0  0  0  0
    9.9694    2.6637    0.0000 H   0  0  0  0  0  0  0  0  0  0  0  0
    9.8855    3.5521    0.0000 H   0  0  0  0  0  0  0  0  0  0  0  0
    9.2041    4.1039    0.0000 H   0  0  0  0  0  0  0  0  0  0  0  0
    8.6523    3.4225    0.0000 H   0  0  0  0  0  0  0  0  0  0  0  0
    3.9441   -2.2599    0.0000 H   0  0  0  0  0  0  0  0  0  0  0  0
    4.3426   -1.5696    0.0000 H   0  0  0  0  0  0  0  0  0  0  0  0
    2.3291   -3.4873    0.0000 H   0  0  0  0  0  0  0  0  0  0  0  0
  1 21  1  0  0  0  0
  2 23  1  0  0  0  0
  3 15  2  0  0  0  0
  4 22  1  0  0  0  0
  4 25  1  0  0  0  0
  5 26  1  0  0  0  0
  5 50  1  0  0  0  0
  6 26  2  0  0  0  0
  7  8  1  0  0  0  0
  7 11  1  0  0  0  0
  7 12  1  0  0  0  0
  7 15  1  0  0  0  0
  8  9  1  0  0  0  0
  8 10  1  0  0  0  0
  8 27  1  0  0  0  0
  9 13  1  0  0  0  0
  9 30  1  0  0  0  0
  9 31  1  0  0  0  0
 10 14  1  0  0  0  0
 10 28  1  0  0  0  0
 10 29  1  0  0  0  0
 11 16  1  0  0  0  0
 11 32  1  0  0  0  0
 11 33  1  0  0  0  0
 12 18  1  0  0  0  0
 12 34  1  0  0  0  0
 12 35  1  0  0  0  0
 13 14  1  0  0  0  0
 13 38  1  0  0  0  0
 13 39  1  0  0  0  0
 14 36  1  0  0  0  0
 14 37  1  0  0  0  0
 15 17  1  0  0  0  0
 16 17  1  0  0  0  0
 16 19  2  0  0  0  0
 17 21  2  0  0  0  0
 18 20  1  0  0  0  0
 18 40  1  0  0  0  0
 18 41  1  0  0  0  0
 19 22  1  0  0  0  0
 19 42  1  0  0  0  0
 20 24  1  0  0  0  0
 20 43  1  0  0  0  0
 20 44  1  0  0  0  0
 21 23  1  0  0  0  0
 22 23  2  0  0  0  0
 24 45  1  0  0  0  0
 24 46  1  0  0  0  0
 24 47  1  0  0  0  0
 25 26  1  0  0  0  0
 25 48  1  0  0  0  0
 25 49  1  0  0  0  0
M  END
> <PUBCHEM_COMPOUND_CID>
5017

> <PUBCHEM_COMPOUND_CANONICALIZED>
1

> <PUBCHEM_CACTVS_COMPLEXITY>
534

> <PUBCHEM_CACTVS_HBOND_ACCEPTOR>
4

> <PUBCHEM_CACTVS_HBOND_DONOR>
1

> <PUBCHEM_CACTVS_ROTATABLE_BOND>
7

> <PUBCHEM_CACTVS_SUBSKEYS>
AAADceB4OAAGAAAAAAAAAAAAAAAAAYMAAAAwAAAAAAAAAGABAAAAGgIACAAADwagmCIyDoAABgCIAqDSCAICCAAkJEAAikFGC8gNJjOFNx6COSCkwBELrQeIzPDPpAABIQARCARIAAJCACIQCQAACAAAAA==

> <PUBCHEM_IUPAC_OPENEYE_NAME>
2-(2-butyl-6,7-dichloro-2-cyclopentyl-1-oxo-indan-5-yl)oxyacetic acid

> <PUBCHEM_IUPAC_CAS_NAME>
2-[(2-butyl-6,7-dichloro-2-cyclopentyl-1-oxo-3H-inden-5-yl)oxy]acetic acid

> <PUBCHEM_IUPAC_NAME>
2-[(2-butyl-6,7-dichloro-2-cyclopentyl-1-oxo-3H-inden-5-yl)oxy]acetic acid

> <PUBCHEM_IUPAC_SYSTEMATIC_NAME>
2-[[2-butyl-6,7-bis(chloranyl)-2-cyclopentyl-1-oxidanylidene-3H-inden-5-yl]oxy]ethanoic acid

> <PUBCHEM_IUPAC_TRADITIONAL_NAME>
2-(2-butyl-6,7-dichloro-2-cyclopentyl-1-keto-indan-5-yl)oxyacetic acid

> <PUBCHEM_IUPAC_INCHI>
InChI=1S/C20H24Cl2O4/c1-2-3-8-20(13-6-4-5-7-13)10-12-9-14(26-11-15(23)24)17(21)18(22)16(12)19(20)25/h9,13H,2-8,10-11H2,1H3,(H,23,24)

> <PUBCHEM_IUPAC_INCHIKEY>
YAWWQIFONIPBKT-UHFFFAOYSA-N

> <PUBCHEM_XLOGP3_AA>
6.5

> <PUBCHEM_EXACT_MASS>
398.105165

> <PUBCHEM_MOLECULAR_FORMULA>
C20H24Cl2O4

> <PUBCHEM_MOLECULAR_WEIGHT>
399.30816

> <PUBCHEM_OPENEYE_CAN_SMILES>
CCCCC1(CC2=CC(=C(C(=C2C1=O)Cl)Cl)OCC(=O)O)C3CCCC3

> <PUBCHEM_OPENEYE_ISO_SMILES>
CCCCC1(CC2=CC(=C(C(=C2C1=O)Cl)Cl)OCC(=O)O)C3CCCC3

> <PUBCHEM_CACTVS_TPSA>
63.6

> <PUBCHEM_MONOISOTOPIC_WEIGHT>
398.105165

> <PUBCHEM_TOTAL_CHARGE>
0

> <PUBCHEM_HEAVY_ATOM_COUNT>
26

> <PUBCHEM_ATOM_DEF_STEREO_COUNT>
0

> <PUBCHEM_ATOM_UDEF_STEREO_COUNT>
1

> <PUBCHEM_BOND_DEF_STEREO_COUNT>
0

> <PUBCHEM_BOND_UDEF_STEREO_COUNT>
0

> <PUBCHEM_ISOTOPIC_ATOM_COUNT>
0

> <PUBCHEM_COMPONENT_COUNT>
1

> <PUBCHEM_CACTVS_TAUTO_COUNT>
1

> <PUBCHEM_COORDINATE_TYPE>
1
5
255

> <PUBCHEM_BONDANNOTATIONS>
16  17  8
16  19  8
17  21  8
19  22  8
21  23  8
22  23  8
7  12  3

$$$$

