129211
  -OEChem-07051212523D

 56 57  0     1  0  0  0  0  0999 V2000
    5.6658   -1.7427    0.4095 S   0  0  0  0  0  0  0  0  0  0  0  0
   -3.7765   -1.3663    0.5700 O   0  0  0  0  0  0  0  0  0  0  0  0
    6.4404    1.1282   -0.0737 O   0  0  0  0  0  0  0  0  0  0  0  0
    5.0730   -2.9985   -0.0252 O   0  0  0  0  0  0  0  0  0  0  0  0
    7.0316   -1.4147    0.0290 O   0  0  0  0  0  0  0  0  0  0  0  0
   -4.6291    1.2609    0.9171 O   0  0  0  0  0  0  0  0  0  0  0  0
   -1.3134   -0.0940   -0.0522 N   0  0  0  0  0  0  0  0  0  0  0  0
    5.5234   -1.6218    2.1073 N   0  0  0  0  0  0  0  0  0  0  0  0
    0.0769    0.2394    0.2718 C   0  0  1  0  0  0  0  0  0  0  0  0
    0.9560    0.0505   -0.9779 C   0  0  0  0  0  0  0  0  0  0  0  0
    2.4195    0.3316   -0.7358 C   0  0  0  0  0  0  0  0  0  0  0  0
    0.1163    1.6718    0.8046 C   0  0  0  0  0  0  0  0  0  0  0  0
   -1.4921   -1.5348   -0.1188 C   0  0  0  0  0  0  0  0  0  0  0  0
    3.2690   -0.6964   -0.3270 C   0  0  0  0  0  0  0  0  0  0  0  0
    4.6212   -0.4367   -0.1031 C   0  0  0  0  0  0  0  0  0  0  0  0
    2.9222    1.6196   -0.9206 C   0  0  0  0  0  0  0  0  0  0  0  0
   -2.9341   -1.8820   -0.4525 C   0  0  0  0  0  0  0  0  0  0  0  0
    5.1237    0.8514   -0.2878 C   0  0  0  0  0  0  0  0  0  0  0  0
    4.2741    1.8795   -0.6965 C   0  0  0  0  0  0  0  0  0  0  0  0
   -5.0390   -0.9854    0.1968 C   0  0  0  0  0  0  0  0  0  0  0  0
   -5.4631    0.3318    0.3726 C   0  0  0  0  0  0  0  0  0  0  0  0
   -5.9021   -1.9271   -0.3633 C   0  0  0  0  0  0  0  0  0  0  0  0
    6.8629    2.4733   -0.2880 C   0  0  0  0  0  0  0  0  0  0  0  0
   -6.7505    0.7072   -0.0112 C   0  0  0  0  0  0  0  0  0  0  0  0
   -7.1894   -1.5517   -0.7473 C   0  0  0  0  0  0  0  0  0  0  0  0
   -7.6138   -0.2346   -0.5712 C   0  0  0  0  0  0  0  0  0  0  0  0
   -4.8025    2.6130    0.4973 C   0  0  0  0  0  0  0  0  0  0  0  0
   -3.4706    3.3283    0.5758 C   0  0  0  0  0  0  0  0  0  0  0  0
    0.4390   -0.4070    1.0829 H   0  0  0  0  0  0  0  0  0  0  0  0
    0.5994    0.6998   -1.7900 H   0  0  0  0  0  0  0  0  0  0  0  0
    0.8822   -0.9682   -1.3755 H   0  0  0  0  0  0  0  0  0  0  0  0
   -1.9384    0.2816    0.6611 H   0  0  0  0  0  0  0  0  0  0  0  0
   -0.5880    1.8026    1.6348 H   0  0  0  0  0  0  0  0  0  0  0  0
    1.1050    1.9262    1.1985 H   0  0  0  0  0  0  0  0  0  0  0  0
   -0.1435    2.3991    0.0275 H   0  0  0  0  0  0  0  0  0  0  0  0
   -1.2398   -1.9825    0.8506 H   0  0  0  0  0  0  0  0  0  0  0  0
   -0.8590   -1.9959   -0.8817 H   0  0  0  0  0  0  0  0  0  0  0  0
    2.8631   -1.6935   -0.1766 H   0  0  0  0  0  0  0  0  0  0  0  0
    2.2720    2.4286   -1.2432 H   0  0  0  0  0  0  0  0  0  0  0  0
   -3.1995   -1.4689   -1.4351 H   0  0  0  0  0  0  0  0  0  0  0  0
   -3.0523   -2.9708   -0.4909 H   0  0  0  0  0  0  0  0  0  0  0  0
    4.5910    2.9034   -0.8614 H   0  0  0  0  0  0  0  0  0  0  0  0
    6.3361   -1.2741    2.6306 H   0  0  0  0  0  0  0  0  0  0  0  0
    4.9984   -2.3576    2.5956 H   0  0  0  0  0  0  0  0  0  0  0  0
   -5.5884   -2.9586   -0.4987 H   0  0  0  0  0  0  0  0  0  0  0  0
    6.7406    2.7739   -1.3342 H   0  0  0  0  0  0  0  0  0  0  0  0
    6.3756    3.1659    0.4067 H   0  0  0  0  0  0  0  0  0  0  0  0
    7.9358    2.5111   -0.0716 H   0  0  0  0  0  0  0  0  0  0  0  0
   -7.1323    1.7133    0.1344 H   0  0  0  0  0  0  0  0  0  0  0  0
   -7.8628   -2.2856   -1.1803 H   0  0  0  0  0  0  0  0  0  0  0  0
   -8.6188    0.0552   -0.8637 H   0  0  0  0  0  0  0  0  0  0  0  0
   -5.5248    3.1047    1.1583 H   0  0  0  0  0  0  0  0  0  0  0  0
   -5.1490    2.6787   -0.5417 H   0  0  0  0  0  0  0  0  0  0  0  0
   -3.5730    4.3794    0.2916 H   0  0  0  0  0  0  0  0  0  0  0  0
   -2.7414    2.8542   -0.0888 H   0  0  0  0  0  0  0  0  0  0  0  0
   -3.0609    3.2739    1.5897 H   0  0  0  0  0  0  0  0  0  0  0  0
  1  4  2  0  0  0  0
  1  5  2  0  0  0  0
  1  8  1  0  0  0  0
  1 15  1  0  0  0  0
  2 17  1  0  0  0  0
  2 20  1  0  0  0  0
  3 18  1  0  0  0  0
  3 23  1  0  0  0  0
  6 21  1  0  0  0  0
  6 27  1  0  0  0  0
  7  9  1  0  0  0  0
  7 13  1  0  0  0  0
  7 32  1  0  0  0  0
  8 43  1  0  0  0  0
  8 44  1  0  0  0  0
  9 10  1  0  0  0  0
  9 12  1  0  0  0  0
  9 29  1  0  0  0  0
 10 11  1  0  0  0  0
 10 30  1  0  0  0  0
 10 31  1  0  0  0  0
 11 14  2  0  0  0  0
 11 16  1  0  0  0  0
 12 33  1  0  0  0  0
 12 34  1  0  0  0  0
 12 35  1  0  0  0  0
 13 17  1  0  0  0  0
 13 36  1  0  0  0  0
 13 37  1  0  0  0  0
 14 15  1  0  0  0  0
 14 38  1  0  0  0  0
 15 18  2  0  0  0  0
 16 19  2  0  0  0  0
 16 39  1  0  0  0  0
 17 40  1  0  0  0  0
 17 41  1  0  0  0  0
 18 19  1  0  0  0  0
 19 42  1  0  0  0  0
 20 21  1  0  0  0  0
 20 22  2  0  0  0  0
 21 24  2  0  0  0  0
 22 25  1  0  0  0  0
 22 45  1  0  0  0  0
 23 46  1  0  0  0  0
 23 47  1  0  0  0  0
 23 48  1  0  0  0  0
 24 26  1  0  0  0  0
 24 49  1  0  0  0  0
 25 26  2  0  0  0  0
 25 50  1  0  0  0  0
 26 51  1  0  0  0  0
 27 28  1  0  0  0  0
 27 52  1  0  0  0  0
 27 53  1  0  0  0  0
 28 54  1  0  0  0  0
 28 55  1  0  0  0  0
 28 56  1  0  0  0  0
M  END
> <PUBCHEM_COMPOUND_CID>
129211

> <PUBCHEM_CONFORMER_RMSD>
1

> <PUBCHEM_CONFORMER_DIVERSEORDER>
4
46
49
10
18
74
91
55
64
99
39
53
45
106
29
22
93
47
25
43
119
35
98
100
9
111
118
89
7
101
60
96
26
52
92
8
59
81
85
27
69
117
77
110
104
90
120
62
112
82
95
12
3
86
73
94
58
32
48
83
36
34
41
80
57
97
54
30
103
87
72
23
14
40
78
88
2
116
56
50
71
11
63
114
24
67
113
20
21
66
79
51
70
108
102
61
76
5
37
109
6
38
42
33
84
105
31
115
107
121
65
68
75
44
13
17
19
28
1
16
15

> <PUBCHEM_MMFF94_PARTIAL_CHARGES>
36
1 1.45
10 0.14
11 -0.14
13 0.27
14 -0.15
15 -0.01
16 -0.15
17 0.28
18 0.08
19 -0.15
2 -0.36
20 0.08
21 0.08
22 -0.15
23 0.28
24 -0.15
25 -0.15
26 -0.15
27 0.28
3 -0.36
32 0.36
38 0.15
39 0.15
4 -0.65
42 0.15
43 0.42
44 0.42
45 0.15
49 0.15
5 -0.65
50 0.15
51 0.15
6 -0.36
7 -0.9
8 -0.98
9 0.27

> <PUBCHEM_EFFECTIVE_ROTOR_COUNT>
11

> <PUBCHEM_PHARMACOPHORE_FEATURES>
10
1 2 acceptor
1 3 acceptor
1 4 acceptor
1 5 acceptor
1 6 acceptor
1 7 cation
1 7 donor
1 8 donor
6 11 14 15 16 18 19 rings
6 20 21 22 24 25 26 rings

> <PUBCHEM_HEAVY_ATOM_COUNT>
28

> <PUBCHEM_ATOM_DEF_STEREO_COUNT>
1

> <PUBCHEM_ATOM_UDEF_STEREO_COUNT>
0

> <PUBCHEM_BOND_DEF_STEREO_COUNT>
0

> <PUBCHEM_BOND_UDEF_STEREO_COUNT>
0

> <PUBCHEM_ISOTOPIC_ATOM_COUNT>
0

> <PUBCHEM_COMPONENT_COUNT>
1

> <PUBCHEM_CACTVS_TAUTO_COUNT>
1

> <PUBCHEM_CONFORMER_ID>
0001F8BB00000004

> <PUBCHEM_MMFF94_ENERGY>
67.5523

> <PUBCHEM_FEATURE_SELFOVERLAP>
50.776

> <PUBCHEM_SHAPE_FINGERPRINT>
100830 39 18410292553504773901
10595046 47 18410007723857749213
10939801 23 18262799562792504124
11315181 36 18409164377945265533
11719270 70 17967813855497590910
12107183 9 18051691341214588778
12236239 1 18412825776528448939
13073987 5 18411133632354279521
13533116 47 18410575089681044698
14251764 18 18409167684136413663
14347424 109 18413113862119191778
15021287 119 17846206795823694981
15183329 4 18411696591024301027
15419008 42 17753327870560336205
15419008 47 17167865257631047209
1577012 14 18409161126059228865
20028762 73 18337672018225009682
20511986 3 18334864887476120002
20567600 234 14851894620822428178
21236236 1 18335417989623477965
21315763 28 18409166614684502862
21315764 268 18411140216914295037
23559900 14 18263650576687790921
23569943 247 16987454181104408330
255183 451 18264199387778036494
3004659 81 18412259541341836198
4073 2 17845086269147747498
4197921 191 18413384324103709133
5104073 3 18339933688210599520
6299153 45 18341330110441965387
99344 41 18337673134504556331
9965369 4 18413388761289774203

> <PUBCHEM_SHAPE_MULTIPOLES>
540.77
23.48
3.07
0.99
5.05
1.02
-0.22
-3.12
0.25
-0.53
-0.39
-0.57
-0.07
-2.48

> <PUBCHEM_SHAPE_SELFOVERLAP>
1105.561

> <PUBCHEM_SHAPE_VOLUME>
314.6

> <PUBCHEM_COORDINATE_TYPE>
2
5
10

$$$$

