54691351
  -OEChem-07051213032D

 40 42  0     0  0  0  0  0  0999 V2000
    9.2457    1.1874    0.0000 O   0  0  0  0  0  0  0  0  0  0  0  0
    9.2457   -1.8126    0.0000 O   0  0  0  0  0  0  0  0  0  0  0  0
   12.7758    1.2115    0.0000 O   0  0  0  0  0  0  0  0  0  0  0  0
    6.6476    0.6874    0.0000 O   0  0  0  0  0  0  0  0  0  0  0  0
    7.5136    1.1874    0.0000 O   0  0  0  0  0  0  0  0  0  0  0  0
    2.6166   -1.8535    0.0000 O   0  0  0  0  0  0  0  0  0  0  0  0
    2.7976   -0.1309    0.0000 O   0  0  0  0  0  0  0  0  0  0  0  0
    7.5136   -0.8126    0.0000 N   0  0  0  0  0  0  0  0  0  0  0  0
    5.6771   -1.8071    0.0000 N   0  0  0  0  0  0  0  0  0  0  0  0
   10.1117   -0.3126    0.0000 C   0  0  0  0  0  0  0  0  0  0  0  0
   10.1117    0.6874    0.0000 C   0  0  0  0  0  0  0  0  0  0  0  0
    5.7816   -0.8126    0.0000 C   0  0  0  0  0  0  0  0  0  0  0  0
   11.0057    1.2221    0.0000 C   0  0  0  0  0  0  0  0  0  0  0  0
    8.3797   -0.3126    0.0000 C   0  0  0  0  0  0  0  0  0  0  0  0
    9.2457   -0.8126    0.0000 C   0  0  0  0  0  0  0  0  0  0  0  0
    4.8680   -0.4059    0.0000 C   0  0  0  0  0  0  0  0  0  0  0  0
    4.1989   -1.1490    0.0000 C   0  0  0  0  0  0  0  0  0  0  0  0
   11.0057   -0.8473    0.0000 C   0  0  0  0  0  0  0  0  0  0  0  0
    6.6476   -0.3126    0.0000 C   0  0  0  0  0  0  0  0  0  0  0  0
   11.9117    0.7082    0.0000 C   0  0  0  0  0  0  0  0  0  0  0  0
    8.3797    0.6874    0.0000 C   0  0  0  0  0  0  0  0  0  0  0  0
    4.6989   -2.0150    0.0000 C   0  0  0  0  0  0  0  0  0  0  0  0
   11.9117   -0.3334    0.0000 C   0  0  0  0  0  0  0  0  0  0  0  0
   10.9941    2.2220    0.0000 C   0  0  0  0  0  0  0  0  0  0  0  0
    4.6601    0.5723    0.0000 C   0  0  0  0  0  0  0  0  0  0  0  0
    3.2044   -1.0445    0.0000 C   0  0  0  0  0  0  0  0  0  0  0  0
   10.9985   -1.4672    0.0000 H   0  0  0  0  0  0  0  0  0  0  0  0
    7.5136   -1.4326    0.0000 H   0  0  0  0  0  0  0  0  0  0  0  0
    6.1378   -2.2220    0.0000 H   0  0  0  0  0  0  0  0  0  0  0  0
    4.4467   -2.5814    0.0000 H   0  0  0  0  0  0  0  0  0  0  0  0
   12.4475   -0.6455    0.0000 H   0  0  0  0  0  0  0  0  0  0  0  0
   11.6141    2.2292    0.0000 H   0  0  0  0  0  0  0  0  0  0  0  0
   10.9869    2.8420    0.0000 H   0  0  0  0  0  0  0  0  0  0  0  0
   10.3741    2.2148    0.0000 H   0  0  0  0  0  0  0  0  0  0  0  0
    5.2666    0.7012    0.0000 H   0  0  0  0  0  0  0  0  0  0  0  0
    4.5312    1.1787    0.0000 H   0  0  0  0  0  0  0  0  0  0  0  0
    4.0537    0.4434    0.0000 H   0  0  0  0  0  0  0  0  0  0  0  0
    9.7826   -2.1226    0.0000 H   0  0  0  0  0  0  0  0  0  0  0  0
   13.3139    0.9036    0.0000 H   0  0  0  0  0  0  0  0  0  0  0  0
    2.0000   -1.7887    0.0000 H   0  0  0  0  0  0  0  0  0  0  0  0
  1 11  1  0  0  0  0
  1 21  1  0  0  0  0
  2 15  1  0  0  0  0
  2 38  1  0  0  0  0
  3 20  1  0  0  0  0
  3 39  1  0  0  0  0
  4 19  2  0  0  0  0
  5 21  2  0  0  0  0
  6 26  1  0  0  0  0
  6 40  1  0  0  0  0
  7 26  2  0  0  0  0
  8 14  1  0  0  0  0
  8 19  1  0  0  0  0
  8 28  1  0  0  0  0
  9 12  1  0  0  0  0
  9 22  1  0  0  0  0
  9 29  1  0  0  0  0
 10 11  2  0  0  0  0
 10 15  1  0  0  0  0
 10 18  1  0  0  0  0
 11 13  1  0  0  0  0
 12 16  2  0  0  0  0
 12 19  1  0  0  0  0
 13 20  2  0  0  0  0
 13 24  1  0  0  0  0
 14 15  2  0  0  0  0
 14 21  1  0  0  0  0
 16 17  1  0  0  0  0
 16 25  1  0  0  0  0
 17 22  2  0  0  0  0
 17 26  1  0  0  0  0
 18 23  2  0  0  0  0
 18 27  1  0  0  0  0
 20 23  1  0  0  0  0
 22 30  1  0  0  0  0
 23 31  1  0  0  0  0
 24 32  1  0  0  0  0
 24 33  1  0  0  0  0
 24 34  1  0  0  0  0
 25 35  1  0  0  0  0
 25 36  1  0  0  0  0
 25 37  1  0  0  0  0
M  END
> <PUBCHEM_COMPOUND_CID>
54691351

> <PUBCHEM_COMPOUND_CANONICALIZED>
1

> <PUBCHEM_CACTVS_COMPLEXITY>
662

> <PUBCHEM_CACTVS_HBOND_ACCEPTOR>
7

> <PUBCHEM_CACTVS_HBOND_DONOR>
5

> <PUBCHEM_CACTVS_ROTATABLE_BOND>
3

> <PUBCHEM_CACTVS_SUBSKEYS>
AAADccB7OAAAAAAAAAAAAAAAAAAAAWAAAAAwQAAAAAAAAACBwAAAHgAQCAAADAzBngQ+jpLJlgCoAzX3XACCiCA3ICAI2aGuTNgOZ3rGtLuXe6jnxBXY+ce8924OoAACCAAIAABAAAQQABAAAAAAAAAAAA==

> <PUBCHEM_IUPAC_OPENEYE_NAME>
5-[(4,7-dihydroxy-8-methyl-2-oxo-chromen-3-yl)carbamoyl]-4-methyl-1H-pyrrole-3-carboxylic acid

> <PUBCHEM_IUPAC_CAS_NAME>
5-[[(4,7-dihydroxy-8-methyl-2-oxo-1-benzopyran-3-yl)amino]-oxomethyl]-4-methyl-1H-pyrrole-3-carboxylic acid

> <PUBCHEM_IUPAC_NAME>
5-[(4,7-dihydroxy-8-methyl-2-oxochromen-3-yl)carbamoyl]-4-methyl-1H-pyrrole-3-carboxylic acid

> <PUBCHEM_IUPAC_SYSTEMATIC_NAME>
4-methyl-5-[[8-methyl-4,7-bis(oxidanyl)-2-oxidanylidene-chromen-3-yl]carbamoyl]-1H-pyrrole-3-carboxylic acid

> <PUBCHEM_IUPAC_TRADITIONAL_NAME>
5-[(4,7-dihydroxy-2-keto-8-methyl-chromen-3-yl)carbamoyl]-4-methyl-1H-pyrrole-3-carboxylic acid

> <PUBCHEM_IUPAC_INCHI>
InChI=1S/C17H14N2O7/c1-6-9(16(23)24)5-18-11(6)15(22)19-12-13(21)8-3-4-10(20)7(2)14(8)26-17(12)25/h3-5,18,20-21H,1-2H3,(H,19,22)(H,23,24)

> <PUBCHEM_IUPAC_INCHIKEY>
DBCRBUVJYHSJEQ-UHFFFAOYSA-N

> <PUBCHEM_XLOGP3_AA>
1.3

> <PUBCHEM_EXACT_MASS>
358.080101

> <PUBCHEM_MOLECULAR_FORMULA>
C17H14N2O7

> <PUBCHEM_MOLECULAR_WEIGHT>
358.30226

> <PUBCHEM_OPENEYE_CAN_SMILES>
CC1=C(C=CC2=C1OC(=O)C(=C2O)NC(=O)C3=C(C(=CN3)C(=O)O)C)O

> <PUBCHEM_OPENEYE_ISO_SMILES>
CC1=C(C=CC2=C1OC(=O)C(=C2O)NC(=O)C3=C(C(=CN3)C(=O)O)C)O

> <PUBCHEM_CACTVS_TPSA>
149

> <PUBCHEM_MONOISOTOPIC_WEIGHT>
358.080101

> <PUBCHEM_TOTAL_CHARGE>
0

> <PUBCHEM_HEAVY_ATOM_COUNT>
26

> <PUBCHEM_ATOM_DEF_STEREO_COUNT>
0

> <PUBCHEM_ATOM_UDEF_STEREO_COUNT>
0

> <PUBCHEM_BOND_DEF_STEREO_COUNT>
0

> <PUBCHEM_BOND_UDEF_STEREO_COUNT>
0

> <PUBCHEM_ISOTOPIC_ATOM_COUNT>
0

> <PUBCHEM_COMPONENT_COUNT>
1

> <PUBCHEM_CACTVS_TAUTO_COUNT>
331

> <PUBCHEM_COORDINATE_TYPE>
1
5
255

> <PUBCHEM_BONDANNOTATIONS>
1  11  8
1  21  8
10  11  8
10  15  8
10  18  8
11  13  8
12  16  8
13  20  8
14  15  8
14  21  8
16  17  8
17  22  8
18  23  8
20  23  8
9  12  8
9  22  8

$$$$

