2735620
  -OEChem-07051213053D

 18 18  0     0  0  0  0  0  0999 V2000
    4.3493   -0.4977   -0.0085 Br  0  0  0  0  0  0  0  0  0  0  0  0
   -4.1783    0.2189    0.6377 S   0  0  0  0  0  0  0  0  0  0  0  0
   -1.6075    0.6868    0.1160 N   0  0  0  0  0  0  0  0  0  0  0  0
   -2.6190   -1.1491   -0.9893 N   0  0  0  0  0  0  0  0  0  0  0  0
   -0.2396    0.4148    0.0874 C   0  0  0  0  0  0  0  0  0  0  0  0
    0.6653    1.4236   -0.2427 C   0  0  0  0  0  0  0  0  0  0  0  0
    0.2232   -0.8661    0.3890 C   0  0  0  0  0  0  0  0  0  0  0  0
    2.0330    1.1515   -0.2714 C   0  0  0  0  0  0  0  0  0  0  0  0
    1.5910   -1.1382    0.3605 C   0  0  0  0  0  0  0  0  0  0  0  0
    2.4960   -0.1293    0.0303 C   0  0  0  0  0  0  0  0  0  0  0  0
   -2.7135   -0.1150   -0.1089 C   0  0  0  0  0  0  0  0  0  0  0  0
    0.3171    2.4256   -0.4807 H   0  0  0  0  0  0  0  0  0  0  0  0
   -0.4587   -1.6650    0.6673 H   0  0  0  0  0  0  0  0  0  0  0  0
   -1.8330    1.6488    0.3610 H   0  0  0  0  0  0  0  0  0  0  0  0
    2.7249    1.9487   -0.5308 H   0  0  0  0  0  0  0  0  0  0  0  0
    1.9357   -2.1404    0.6019 H   0  0  0  0  0  0  0  0  0  0  0  0
   -3.4163   -1.7443   -1.1880 H   0  0  0  0  0  0  0  0  0  0  0  0
   -1.7618   -1.3544   -1.4912 H   0  0  0  0  0  0  0  0  0  0  0  0
  1 10  1  0  0  0  0
  2 11  2  0  0  0  0
  3  5  1  0  0  0  0
  3 11  1  0  0  0  0
  3 14  1  0  0  0  0
  4 11  1  0  0  0  0
  4 17  1  0  0  0  0
  4 18  1  0  0  0  0
  5  6  2  0  0  0  0
  5  7  1  0  0  0  0
  6  8  1  0  0  0  0
  6 12  1  0  0  0  0
  7  9  2  0  0  0  0
  7 13  1  0  0  0  0
  8 10  2  0  0  0  0
  8 15  1  0  0  0  0
  9 10  1  0  0  0  0
  9 16  1  0  0  0  0
M  END
> <PUBCHEM_COMPOUND_CID>
2735620

> <PUBCHEM_CONFORMER_RMSD>
0.4

> <PUBCHEM_CONFORMER_DIVERSEORDER>
1
11
12
6
13
8
3
5
9
10
7
4
2

> <PUBCHEM_MMFF94_PARTIAL_CHARGES>
18
1 -0.11
10 0.11
11 0.5
12 0.15
13 0.15
14 0.37
15 0.15
16 0.15
17 0.37
18 0.37
2 -0.38
3 -0.55
4 -0.8
5 0.12
6 -0.15
7 -0.15
8 -0.15
9 -0.15

> <PUBCHEM_EFFECTIVE_ROTOR_COUNT>
2

> <PUBCHEM_PHARMACOPHORE_FEATURES>
5
1 1 hydrophobe
1 2 acceptor
1 3 donor
1 4 donor
6 5 6 7 8 9 10 rings

> <PUBCHEM_HEAVY_ATOM_COUNT>
11

> <PUBCHEM_ATOM_DEF_STEREO_COUNT>
0

> <PUBCHEM_ATOM_UDEF_STEREO_COUNT>
0

> <PUBCHEM_BOND_DEF_STEREO_COUNT>
0

> <PUBCHEM_BOND_UDEF_STEREO_COUNT>
0

> <PUBCHEM_ISOTOPIC_ATOM_COUNT>
0

> <PUBCHEM_COMPONENT_COUNT>
1

> <PUBCHEM_CACTVS_TAUTO_COUNT>
3

> <PUBCHEM_CONFORMER_ID>
0029BE0400000001

> <PUBCHEM_MMFF94_ENERGY>
36.6136

> <PUBCHEM_FEATURE_SELFOVERLAP>
25.408

> <PUBCHEM_SHAPE_FINGERPRINT>
11062470 55 14490471997392334784
11401426 45 18411987961805959264
11471102 20 18343585131386248309
12032990 46 18342734152531207986
12500047 106 16298391275022059527
12932764 1 18342186565506960405
13690532 89 18201719587409223786
14128692 85 18334581213264851940
14252887 29 18261382395135537434
14325111 11 18340205193803207785
14911166 2 18273206504852787710
14993402 34 18412826884941117894
16945 1 18130795546561550872
17844478 74 17561361790530824341
18186145 218 18131357375296418830
19422 9 18261391088238866103
20201158 50 18131067151445167059
20645477 70 18199759196747591983
20871998 22 18192708058616581774
21119208 17 18335421279003632063
21293036 1 17988921176315943710
23402539 116 18335709355635253134
23402655 69 18342181102493306389
2748010 2 17984129367187337658
8809292 202 17845927442492198483

> <PUBCHEM_SHAPE_MULTIPOLES>
226.2
7.26
1.29
0.77
1.52
0.15
0.04
-1.06
-0.44
-0.35
0.09
0.31
-0.1
-0.39

> <PUBCHEM_SHAPE_SELFOVERLAP>
440.834

> <PUBCHEM_SHAPE_VOLUME>
140.7

> <PUBCHEM_COORDINATE_TYPE>
2
5
10

$$$$

