124579
  -OEChem-07051213013D

 27 28  0     0  0  0  0  0  0999 V2000
    0.7858    2.7379   -0.3495 Cl  0  0  0  0  0  0  0  0  0  0  0  0
    3.6509   -2.8007    0.2586 Cl  0  0  0  0  0  0  0  0  0  0  0  0
    3.8546    2.6495    0.4034 Cl  0  0  0  0  0  0  0  0  0  0  0  0
    5.2999   -0.1322    0.7065 Cl  0  0  0  0  0  0  0  0  0  0  0  0
    0.8322   -2.3468   -0.4258 O   0  0  0  0  0  0  0  0  0  0  0  0
   -0.8416    0.0788   -1.9093 O   0  0  0  0  0  0  0  0  0  0  0  0
   -1.4050    0.0117    0.3675 N   0  0  0  0  0  0  0  0  0  0  0  0
    0.9009    0.0362   -0.3688 C   0  0  0  0  0  0  0  0  0  0  0  0
    1.5414   -1.1953   -0.2330 C   0  0  0  0  0  0  0  0  0  0  0  0
   -0.5193    0.0526   -0.7142 C   0  0  0  0  0  0  0  0  0  0  0  0
    1.6144    1.2188   -0.1732 C   0  0  0  0  0  0  0  0  0  0  0  0
   -2.8212   -0.0084    0.3405 C   0  0  0  0  0  0  0  0  0  0  0  0
    2.8956   -1.2443    0.0985 C   0  0  0  0  0  0  0  0  0  0  0  0
    2.9684    1.1698    0.1581 C   0  0  0  0  0  0  0  0  0  0  0  0
    3.6089   -0.0618    0.2940 C   0  0  0  0  0  0  0  0  0  0  0  0
   -3.4748    0.0135   -0.8796 C   0  0  0  0  0  0  0  0  0  0  0  0
   -3.5193   -0.0506    1.5351 C   0  0  0  0  0  0  0  0  0  0  0  0
   -4.8693   -0.0073   -0.9060 C   0  0  0  0  0  0  0  0  0  0  0  0
   -4.9138   -0.0716    1.5088 C   0  0  0  0  0  0  0  0  0  0  0  0
   -5.5888   -0.0498    0.2882 C   0  0  0  0  0  0  0  0  0  0  0  0
   -0.9925   -0.0106    1.2980 H   0  0  0  0  0  0  0  0  0  0  0  0
   -2.9915    0.0464   -1.8444 H   0  0  0  0  0  0  0  0  0  0  0  0
   -3.0033   -0.0680    2.4910 H   0  0  0  0  0  0  0  0  0  0  0  0
   -5.3962    0.0097   -1.8557 H   0  0  0  0  0  0  0  0  0  0  0  0
   -5.4742   -0.1047    2.4385 H   0  0  0  0  0  0  0  0  0  0  0  0
   -6.6746   -0.0660    0.2678 H   0  0  0  0  0  0  0  0  0  0  0  0
   -0.0951   -2.1608   -0.6414 H   0  0  0  0  0  0  0  0  0  0  0  0
  1 11  1  0  0  0  0
  2 13  1  0  0  0  0
  3 14  1  0  0  0  0
  4 15  1  0  0  0  0
  5  9  1  0  0  0  0
  5 27  1  0  0  0  0
  6 10  2  0  0  0  0
  7 10  1  0  0  0  0
  7 12  1  0  0  0  0
  7 21  1  0  0  0  0
  8  9  2  0  0  0  0
  8 10  1  0  0  0  0
  8 11  1  0  0  0  0
  9 13  1  0  0  0  0
 11 14  2  0  0  0  0
 12 16  2  0  0  0  0
 12 17  1  0  0  0  0
 13 15  2  0  0  0  0
 14 15  1  0  0  0  0
 16 18  1  0  0  0  0
 16 22  1  0  0  0  0
 17 19  2  0  0  0  0
 17 23  1  0  0  0  0
 18 20  2  0  0  0  0
 18 24  1  0  0  0  0
 19 20  1  0  0  0  0
 19 25  1  0  0  0  0
 20 26  1  0  0  0  0
M  END
> <PUBCHEM_COMPOUND_CID>
124579

> <PUBCHEM_CONFORMER_RMSD>
0.6

> <PUBCHEM_CONFORMER_DIVERSEORDER>
2
4
1
3

> <PUBCHEM_MMFF94_PARTIAL_CHARGES>
27
1 -0.18
10 0.54
11 0.18
12 0.12
13 0.18
14 0.18
15 0.18
16 -0.15
17 -0.15
18 -0.15
19 -0.15
2 -0.18
20 -0.15
21 0.37
22 0.15
23 0.15
24 0.15
25 0.15
26 0.15
27 0.45
3 -0.18
4 -0.18
5 -0.53
6 -0.57
7 -0.55
8 0.09
9 0.08

> <PUBCHEM_EFFECTIVE_ROTOR_COUNT>
3

> <PUBCHEM_PHARMACOPHORE_FEATURES>
5
1 5 donor
1 6 acceptor
1 7 donor
6 12 16 17 18 19 20 rings
6 8 9 11 13 14 15 rings

> <PUBCHEM_HEAVY_ATOM_COUNT>
20

> <PUBCHEM_ATOM_DEF_STEREO_COUNT>
0

> <PUBCHEM_ATOM_UDEF_STEREO_COUNT>
0

> <PUBCHEM_BOND_DEF_STEREO_COUNT>
0

> <PUBCHEM_BOND_UDEF_STEREO_COUNT>
0

> <PUBCHEM_ISOTOPIC_ATOM_COUNT>
0

> <PUBCHEM_COMPONENT_COUNT>
1

> <PUBCHEM_CACTVS_TAUTO_COUNT>
7

> <PUBCHEM_CONFORMER_ID>
0001E6A300000002

> <PUBCHEM_MMFF94_ENERGY>
65.8414

> <PUBCHEM_FEATURE_SELFOVERLAP>
25.371

> <PUBCHEM_SHAPE_FINGERPRINT>
10411042 1 18121782996384928486
10688039 33 18059576927046032116
10912923 1 17822009800934852643
11796584 16 16558755654069982930
12107183 9 17684359938461108395
12236239 1 17603589620673583295
12390115 104 17833262026914362100
12596602 18 17531252720712569867
12633257 1 18342740693365590435
12644460 14 18411139130365969394
12916748 109 15285634378704946683
13134695 92 18411702088630263717
13140716 1 18267034851971210650
13533116 47 18410291432544378251
13540713 4 17976837690104128230
13544653 18 18272929466197414191
13583140 156 18264206903410894089
13631057 29 17827366471262094063
13675066 3 17918274234216334589
13955234 65 18410577284330088642
14252887 29 18201999936666588048
14341114 176 18336258024453325507
14341114 328 17603863421155919195
14386348 63 17704352182205784723
14739800 52 16733564718958501232
14790565 3 17695057804638345508
15475509 35 16916803906816552480
15475509 84 17970345025949242840
1813 80 17970054763833109814
18785283 64 17986669277534057228
19377110 9 17749659715593136675
200 152 18261117391753734021
204376 136 18336543803008203223
20600515 1 16271928173409455925
20645477 70 18341900709463381655
20715895 44 17536017111641027009
20739085 24 18341325626660294580
21033648 29 18060151920504274741
21041028 32 18190746530072933432
21065201 7 16702023106133303691
21641784 216 17987216976306699948
22182313 1 18200330917108478932
22854114 59 18410293614224019623
23184049 59 18408321094579687606
23557571 272 17131843108873018156
23559900 14 17346596412853850359
239999 70 17489305270261094240
26918003 58 18272649048056952185
2748010 2 17976279138149719406
2838139 119 14491343837911088610
31174 14 18341615949300679334
33824 294 18413673517463483946
341906 21 15936687151114711595
345986 75 18042412502753683506
34797466 226 14057001564398508457
42630746 31 18334576841484146750
4409770 3 15665023412785117391
465052 167 17989490732161292162
474 4 18190462662240646624
5104073 3 18337957762029337618
542803 24 17603580812175817529
602551 16 16200149846407961801
633830 44 17895462666158491589
7495541 125 17203887440289260396
77492 1 17676213458978675829
8272917 22 18334570256993203567
9999458 23 18343301436523200172

> <PUBCHEM_SHAPE_MULTIPOLES>
402.35
11.47
2.36
1.17
9.4
0.24
-0.02
-0.74
-3.25
-4.17
0.02
1.29
0
0.17

> <PUBCHEM_SHAPE_SELFOVERLAP>
834.761

> <PUBCHEM_SHAPE_VOLUME>
232.8

> <PUBCHEM_COORDINATE_TYPE>
2
5
10

$$$$

