9094
  -OEChem-06261203243D

 24 25  0     0  0  0  0  0  0999 V2000
    0.9697   -0.3929   -1.4125 S   0  0  0  0  0  0  0  0  0  0  0  0
    1.3380    0.0850    1.1729 O   0  0  0  0  0  0  0  0  0  0  0  0
    0.2508   -0.0228    0.2323 C   0  0  0  0  0  0  0  0  0  0  0  0
   -0.5189    1.3087    0.2086 C   0  0  0  0  0  0  0  0  0  0  0  0
   -0.6572   -1.1660    0.7078 C   0  0  0  0  0  0  0  0  0  0  0  0
   -1.8481    1.2308   -0.5423 C   0  0  0  0  0  0  0  0  0  0  0  0
   -1.9845   -1.2456   -0.0450 C   0  0  0  0  0  0  0  0  0  0  0  0
   -2.7206    0.0907   -0.0255 C   0  0  0  0  0  0  0  0  0  0  0  0
    2.6490   -0.3732   -0.7696 C   0  0  0  0  0  0  0  0  0  0  0  0
    2.5218    0.4853    0.4733 C   0  0  0  0  0  0  0  0  0  0  0  0
    0.0978    2.1150   -0.2084 H   0  0  0  0  0  0  0  0  0  0  0  0
   -0.7191    1.6163    1.2446 H   0  0  0  0  0  0  0  0  0  0  0  0
   -0.8700   -1.0257    1.7771 H   0  0  0  0  0  0  0  0  0  0  0  0
   -0.1326   -2.1288    0.6514 H   0  0  0  0  0  0  0  0  0  0  0  0
   -1.6687    1.0986   -1.6156 H   0  0  0  0  0  0  0  0  0  0  0  0
   -2.3852    2.1798   -0.4304 H   0  0  0  0  0  0  0  0  0  0  0  0
   -2.6164   -2.0162    0.4117 H   0  0  0  0  0  0  0  0  0  0  0  0
   -1.8138   -1.5565   -1.0821 H   0  0  0  0  0  0  0  0  0  0  0  0
   -3.0384    0.3143    1.0005 H   0  0  0  0  0  0  0  0  0  0  0  0
   -3.6310    0.0192   -0.6312 H   0  0  0  0  0  0  0  0  0  0  0  0
    3.3661    0.0317   -1.4877 H   0  0  0  0  0  0  0  0  0  0  0  0
    2.9319   -1.3978   -0.5108 H   0  0  0  0  0  0  0  0  0  0  0  0
    3.3825    0.3488    1.1353 H   0  0  0  0  0  0  0  0  0  0  0  0
    2.4566    1.5533    0.2317 H   0  0  0  0  0  0  0  0  0  0  0  0
  1  3  1  0  0  0  0
  1  9  1  0  0  0  0
  2  3  1  0  0  0  0
  2 10  1  0  0  0  0
  3  4  1  0  0  0  0
  3  5  1  0  0  0  0
  4  6  1  0  0  0  0
  4 11  1  0  0  0  0
  4 12  1  0  0  0  0
  5  7  1  0  0  0  0
  5 13  1  0  0  0  0
  5 14  1  0  0  0  0
  6  8  1  0  0  0  0
  6 15  1  0  0  0  0
  6 16  1  0  0  0  0
  7  8  1  0  0  0  0
  7 17  1  0  0  0  0
  7 18  1  0  0  0  0
  8 19  1  0  0  0  0
  8 20  1  0  0  0  0
  9 10  1  0  0  0  0
  9 21  1  0  0  0  0
  9 22  1  0  0  0  0
 10 23  1  0  0  0  0
 10 24  1  0  0  0  0
M  END
> <PUBCHEM_COMPOUND_CID>
9094

> <PUBCHEM_CONFORMER_RMSD>
0.4

> <PUBCHEM_CONFORMER_DIVERSEORDER>
1
5
4
3
6
2

> <PUBCHEM_MMFF94_PARTIAL_CHARGES>
5
1 -0.46
10 0.28
2 -0.56
3 0.51
9 0.23

> <PUBCHEM_EFFECTIVE_ROTOR_COUNT>
1.8

> <PUBCHEM_PHARMACOPHORE_FEATURES>
3
1 2 acceptor
5 1 2 3 9 10 rings
6 3 4 5 6 7 8 rings

> <PUBCHEM_HEAVY_ATOM_COUNT>
10

> <PUBCHEM_ATOM_DEF_STEREO_COUNT>
0

> <PUBCHEM_ATOM_UDEF_STEREO_COUNT>
0

> <PUBCHEM_BOND_DEF_STEREO_COUNT>
0

> <PUBCHEM_BOND_UDEF_STEREO_COUNT>
0

> <PUBCHEM_ISOTOPIC_ATOM_COUNT>
0

> <PUBCHEM_COMPONENT_COUNT>
1

> <PUBCHEM_CACTVS_TAUTO_COUNT>
1

> <PUBCHEM_CONFORMER_ID>
0000238600000001

> <PUBCHEM_MMFF94_ENERGY>
15.9233

> <PUBCHEM_FEATURE_SELFOVERLAP>
15.227

> <PUBCHEM_SHAPE_FINGERPRINT>
10857977 72 18335428911055041537
12138202 97 18336272313756629167
12423570 1 11705240209097772723
12716758 59 18340201989699530743
12897270 3 18187643634748975092
12932764 1 18412542119713438418
13839132 238 18265335186413039733
14993402 34 16988841687484729110
15219456 202 18113336405697996448
15775835 57 17346592001927660428
16945 1 18273219681321769825
20201158 50 17822567308616226902
20653085 51 17417226836603937908
21040471 1 18199192969454094233
23235685 24 18340206388041467053
23552423 10 17845378910649083067
2748010 2 17982175522155669539
29004967 10 17095519604109308618
369184 2 18411420617694799299
5084963 1 18335135414459665968

> <PUBCHEM_SHAPE_MULTIPOLES>
203.78
3.78
1.29
1.12
0.48
0.06
-0.16
0
-0.29
-0.62
0.01
0.45
-0.1
0.41

> <PUBCHEM_SHAPE_SELFOVERLAP>
397.959

> <PUBCHEM_SHAPE_VOLUME>
124.5

> <PUBCHEM_COORDINATE_TYPE>
2
5
10

$$$$

