39186
  -OEChem-07051212523D

 55 57  0     1  0  0  0  0  0999 V2000
    0.0843    0.8725   -2.0766 S   0  0  0  0  0  0  0  0  0  0  0  0
   -1.2423    1.3982    1.7564 O   0  0  0  0  0  0  0  0  0  0  0  0
   -0.0620   -0.9584    1.6291 O   0  0  0  0  0  0  0  0  0  0  0  0
   -5.9447   -1.3799   -0.9650 O   0  0  0  0  0  0  0  0  0  0  0  0
    0.4519    1.3760    3.3269 O   0  0  0  0  0  0  0  0  0  0  0  0
    1.7616   -0.1508    0.4361 N   0  0  0  0  0  0  0  0  0  0  0  0
    3.9701   -3.1589    0.1749 N   0  0  0  0  0  0  0  0  0  0  0  0
   -0.9826    1.3472   -0.6617 C   0  0  2  0  0  0  0  0  0  0  0  0
   -0.2912    1.2407    0.7067 C   0  0  2  0  0  0  0  0  0  0  0  0
    0.4551   -0.0697    0.9451 C   0  0  0  0  0  0  0  0  0  0  0  0
    2.6071   -1.2569    0.8853 C   0  0  0  0  0  0  0  0  0  0  0  0
    2.3644    0.8365   -0.4148 C   0  0  0  0  0  0  0  0  0  0  0  0
   -2.3160    0.6143   -0.7436 C   0  0  0  0  0  0  0  0  0  0  0  0
    1.6821    1.4295   -1.4980 C   0  0  0  0  0  0  0  0  0  0  0  0
    3.1078   -2.0810   -0.2918 C   0  0  0  0  0  0  0  0  0  0  0  0
    3.7002    1.2148   -0.1793 C   0  0  0  0  0  0  0  0  0  0  0  0
    2.3287    2.3981   -2.2849 C   0  0  0  0  0  0  0  0  0  0  0  0
   -2.3564   -0.7697   -0.5931 C   0  0  0  0  0  0  0  0  0  0  0  0
   -3.4887    1.3314   -0.9677 C   0  0  0  0  0  0  0  0  0  0  0  0
    4.3276    2.1847   -0.9629 C   0  0  0  0  0  0  0  0  0  0  0  0
    3.6393    2.7820   -2.0106 C   0  0  0  0  0  0  0  0  0  0  0  0
   -3.5770   -1.4408   -0.6673 C   0  0  0  0  0  0  0  0  0  0  0  0
   -4.7094    0.6602   -1.0417 C   0  0  0  0  0  0  0  0  0  0  0  0
    3.2482   -4.0338    1.1010 C   0  0  0  0  0  0  0  0  0  0  0  0
    4.4864   -3.9333   -0.9556 C   0  0  0  0  0  0  0  0  0  0  0  0
   -4.7534   -0.7258   -0.8915 C   0  0  0  0  0  0  0  0  0  0  0  0
   -0.7319    1.4515    3.0266 C   0  0  0  0  0  0  0  0  0  0  0  0
   -1.8409    1.6185    4.0206 C   0  0  0  0  0  0  0  0  0  0  0  0
   -5.9185   -2.7973   -0.8026 C   0  0  0  0  0  0  0  0  0  0  0  0
   -1.1952    2.4146   -0.8101 H   0  0  0  0  0  0  0  0  0  0  0  0
    0.4140    2.0766    0.8068 H   0  0  0  0  0  0  0  0  0  0  0  0
    3.4246   -0.8725    1.5049 H   0  0  0  0  0  0  0  0  0  0  0  0
    2.0097   -1.8777    1.5578 H   0  0  0  0  0  0  0  0  0  0  0  0
    3.6796   -1.4515   -0.9826 H   0  0  0  0  0  0  0  0  0  0  0  0
    2.2527   -2.4709   -0.8612 H   0  0  0  0  0  0  0  0  0  0  0  0
    4.2771    0.8027    0.6432 H   0  0  0  0  0  0  0  0  0  0  0  0
    1.8243    2.8531   -3.1352 H   0  0  0  0  0  0  0  0  0  0  0  0
   -1.4564   -1.3578   -0.4515 H   0  0  0  0  0  0  0  0  0  0  0  0
   -3.4715    2.4113   -1.0861 H   0  0  0  0  0  0  0  0  0  0  0  0
    5.3524    2.4744   -0.7500 H   0  0  0  0  0  0  0  0  0  0  0  0
    4.1265    3.5328   -2.6254 H   0  0  0  0  0  0  0  0  0  0  0  0
   -3.5387   -2.5184   -0.5493 H   0  0  0  0  0  0  0  0  0  0  0  0
   -5.6225    1.2225   -1.2166 H   0  0  0  0  0  0  0  0  0  0  0  0
    3.1001   -3.5628    2.0776 H   0  0  0  0  0  0  0  0  0  0  0  0
    3.8391   -4.9333    1.3137 H   0  0  0  0  0  0  0  0  0  0  0  0
    2.2810   -4.3615    0.7026 H   0  0  0  0  0  0  0  0  0  0  0  0
    5.1806   -4.7067   -0.6084 H   0  0  0  0  0  0  0  0  0  0  0  0
    3.6849   -4.4179   -1.5249 H   0  0  0  0  0  0  0  0  0  0  0  0
    5.0536   -3.2892   -1.6370 H   0  0  0  0  0  0  0  0  0  0  0  0
   -1.4214    1.6542    5.0301 H   0  0  0  0  0  0  0  0  0  0  0  0
   -2.3711    2.5548    3.8294 H   0  0  0  0  0  0  0  0  0  0  0  0
   -2.5249    0.7685    3.9572 H   0  0  0  0  0  0  0  0  0  0  0  0
   -6.9510   -3.1516   -0.8878 H   0  0  0  0  0  0  0  0  0  0  0  0
   -5.3468   -3.2830   -1.6006 H   0  0  0  0  0  0  0  0  0  0  0  0
   -5.5640   -3.0816    0.1940 H   0  0  0  0  0  0  0  0  0  0  0  0
  1  8  1  0  0  0  0
  1 14  1  0  0  0  0
  2  9  1  0  0  0  0
  2 27  1  0  0  0  0
  3 10  2  0  0  0  0
  4 26  1  0  0  0  0
  4 29  1  0  0  0  0
  5 27  2  0  0  0  0
  6 10  1  0  0  0  0
  6 11  1  0  0  0  0
  6 12  1  0  0  0  0
  7 15  1  0  0  0  0
  7 24  1  0  0  0  0
  7 25  1  0  0  0  0
  8  9  1  0  0  0  0
  8 13  1  0  0  0  0
  8 30  1  0  0  0  0
  9 10  1  0  0  0  0
  9 31  1  0  0  0  0
 11 15  1  0  0  0  0
 11 32  1  0  0  0  0
 11 33  1  0  0  0  0
 12 14  1  0  0  0  0
 12 16  2  0  0  0  0
 13 18  2  0  0  0  0
 13 19  1  0  0  0  0
 14 17  2  0  0  0  0
 15 34  1  0  0  0  0
 15 35  1  0  0  0  0
 16 20  1  0  0  0  0
 16 36  1  0  0  0  0
 17 21  1  0  0  0  0
 17 37  1  0  0  0  0
 18 22  1  0  0  0  0
 18 38  1  0  0  0  0
 19 23  2  0  0  0  0
 19 39  1  0  0  0  0
 20 21  2  0  0  0  0
 20 40  1  0  0  0  0
 21 41  1  0  0  0  0
 22 26  2  0  0  0  0
 22 42  1  0  0  0  0
 23 26  1  0  0  0  0
 23 43  1  0  0  0  0
 24 44  1  0  0  0  0
 24 45  1  0  0  0  0
 24 46  1  0  0  0  0
 25 47  1  0  0  0  0
 25 48  1  0  0  0  0
 25 49  1  0  0  0  0
 27 28  1  0  0  0  0
 28 50  1  0  0  0  0
 28 51  1  0  0  0  0
 28 52  1  0  0  0  0
 29 53  1  0  0  0  0
 29 54  1  0  0  0  0
 29 55  1  0  0  0  0
M  END
> <PUBCHEM_COMPOUND_CID>
39186

> <PUBCHEM_CONFORMER_RMSD>
1

> <PUBCHEM_CONFORMER_DIVERSEORDER>
1
7
2
5
8
4
3
9
6

> <PUBCHEM_MMFF94_PARTIAL_CHARGES>
37
1 -0.33
10 0.57
11 0.3
12 0.12
13 -0.14
14 0.1
15 0.27
16 -0.15
17 -0.15
18 -0.15
19 -0.15
2 -0.43
20 -0.15
21 -0.15
22 -0.15
23 -0.15
24 0.27
25 0.27
26 0.08
27 0.66
28 0.06
29 0.28
3 -0.57
36 0.15
37 0.15
38 0.15
39 0.15
4 -0.36
40 0.15
41 0.15
42 0.15
43 0.15
5 -0.57
6 -0.48
7 -0.81
8 0.37
9 0.34

> <PUBCHEM_EFFECTIVE_ROTOR_COUNT>
7.8

> <PUBCHEM_PHARMACOPHORE_FEATURES>
7
1 3 acceptor
1 4 acceptor
1 5 acceptor
1 7 cation
6 12 14 16 17 20 21 rings
6 13 18 19 22 23 26 rings
7 1 6 8 9 10 12 14 rings

> <PUBCHEM_HEAVY_ATOM_COUNT>
29

> <PUBCHEM_ATOM_DEF_STEREO_COUNT>
2

> <PUBCHEM_ATOM_UDEF_STEREO_COUNT>
0

> <PUBCHEM_BOND_DEF_STEREO_COUNT>
0

> <PUBCHEM_BOND_UDEF_STEREO_COUNT>
0

> <PUBCHEM_ISOTOPIC_ATOM_COUNT>
0

> <PUBCHEM_COMPONENT_COUNT>
1

> <PUBCHEM_CACTVS_TAUTO_COUNT>
1

> <PUBCHEM_CONFORMER_ID>
0000991200000001

> <PUBCHEM_MMFF94_ENERGY>
111.3171

> <PUBCHEM_FEATURE_SELFOVERLAP>
35.531

> <PUBCHEM_SHAPE_FINGERPRINT>
10906281 52 17060047117410131220
11387372 6 16378316119634041574
11421498 54 17749376036601656380
11607047 191 14859204496573634338
11763715 3 17822846602276786424
12107183 9 18051976110948641253
12160290 23 16299781165194510753
12293681 25 17346301731237456490
12553582 1 16588026788411193813
12633046 712 18188225259964251493
12788726 201 17458614623358569993
13009979 54 17969782067468617810
131258 43 17822285838868342350
13149001 5 16414896639196988492
13383661 66 17471252225578776910
133893 2 18196626649564994996
1361 2 18129944468980266038
13726171 33 17095506379847749633
13911987 19 17912905207190498172
14022347 108 16805599218377171957
14068700 675 18262807400986902474
15219462 58 18114728353074899696
15238133 3 17531808090819152329
15475509 35 18043824087191125767
15775530 1 16915915445048754544
15842332 3 18043227219437447464
17492 89 18342181089460978007
17974551 9 15363616412203787230
17980427 26 17763692820831562708
20691752 17 16056606507363078845
20775438 99 17988086582155580587
21344244 246 18341324544919107454
22182313 1 16987693771644144504
23559900 14 18267320870406161517
24180151 214 17899116249135728792
244849 19 17346014754017600144
25222932 49 17242758392977070247
376196 1 17201087971715678228
404807 14 17690561214107321566
4280585 95 17984998230529538634
469060 322 17981608483457446258
474 4 16701744822085764101
6086070 43 17313393301812263111
633830 44 16845575344382852413
6669772 16 16056333712694641000
9841814 1 17096094584572074953
9981440 41 17628350476830161508

> <PUBCHEM_SHAPE_MULTIPOLES>
567.22
10.34
4.05
2.97
9.92
4.56
4.16
6.98
-6.16
-6.12
-1.1
1.03
-2.21
-2.52

> <PUBCHEM_SHAPE_SELFOVERLAP>
1187.38

> <PUBCHEM_SHAPE_VOLUME>
322.1

> <PUBCHEM_COORDINATE_TYPE>
2
5
10

$$$$

