5281542
  -OEChem-07051212582D

 65 68  0     1  0  0  0  0  0999 V2000
    8.6233    0.7273    0.0000 O   0  0  0  0  0  0  0  0  0  0  0  0
    6.8671    3.6184    0.0000 O   0  0  0  0  0  0  0  0  0  0  0  0
    5.1350    1.6184    0.0000 O   0  0  0  0  0  0  0  0  0  0  0  0
    6.0010    0.1184    0.0000 O   0  0  0  0  0  0  0  0  0  0  0  0
    8.1240    3.8737    0.0000 O   0  0  0  0  0  0  0  0  0  0  0  0
    5.1350   -1.3816    0.0000 O   0  0  0  0  0  0  0  0  0  0  0  0
    4.2690    1.1184    0.0000 O   0  0  0  0  0  0  0  0  0  0  0  0
    2.5369    0.1184    0.0000 O   0  0  0  0  0  0  0  0  0  0  0  0
    2.5369   -1.8816    0.0000 O   0  0  0  0  0  0  0  0  0  0  0  0
    9.6390    2.1304    0.0000 O   0  0  0  0  0  0  0  0  0  0  0  0
    5.1350   -3.3816    0.0000 O   0  0  0  0  0  0  0  0  0  0  0  0
    6.8671    1.6184    0.0000 C   0  0  2  0  0  0  0  0  0  0  0  0
    7.8133    1.3137    0.0000 C   0  0  2  0  0  0  0  0  0  0  0  0
    6.8671    2.6184    0.0000 C   0  0  1  0  0  0  0  0  0  0  0  0
    7.8133    2.9232    0.0000 C   0  0  1  0  0  0  0  0  0  0  0  0
    8.3969    2.1184    0.0000 C   0  0  0  0  0  0  0  0  0  0  0  0
    6.0010    1.1184    0.0000 C   0  0  1  0  0  0  0  0  0  0  0  0
    7.5059    0.3621    0.0000 C   0  0  0  0  0  0  0  0  0  0  0  0
    6.0010    3.1184    0.0000 C   0  0  0  0  0  0  0  0  0  0  0  0
    5.1350    2.6184    0.0000 C   0  0  0  0  0  0  0  0  0  0  0  0
    5.1350   -0.3816    0.0000 C   0  0  2  0  0  0  0  0  0  0  0  0
    4.2690    0.1184    0.0000 C   0  0  1  0  0  0  0  0  0  0  0  0
    3.4030   -0.3816    0.0000 C   0  0  2  0  0  0  0  0  0  0  0  0
    3.4030   -1.3816    0.0000 C   0  0  1  0  0  0  0  0  0  0  0  0
    4.2690   -1.8816    0.0000 C   0  0  1  0  0  0  0  0  0  0  0  0
    9.5362    1.1356    0.0000 C   0  0  0  0  0  0  0  0  0  0  0  0
    4.2690   -2.8816    0.0000 C   0  0  0  0  0  0  0  0  0  0  0  0
   10.3462    0.5493    0.0000 C   0  0  0  0  0  0  0  0  0  0  0  0
   11.2590    0.9576    0.0000 C   0  0  0  0  0  0  0  0  0  0  0  0
   12.0691    0.3712    0.0000 C   0  0  0  0  0  0  0  0  0  0  0  0
   11.9663   -0.6235    0.0000 C   0  0  0  0  0  0  0  0  0  0  0  0
   12.9819    0.7795    0.0000 C   0  0  0  0  0  0  0  0  0  0  0  0
   12.7763   -1.2099    0.0000 C   0  0  0  0  0  0  0  0  0  0  0  0
   13.7919    0.1931    0.0000 C   0  0  0  0  0  0  0  0  0  0  0  0
   13.6891   -0.8016    0.0000 C   0  0  0  0  0  0  0  0  0  0  0  0
    6.9570    0.7732    0.0000 H   0  0  0  0  0  0  0  0  0  0  0  0
    7.3758    3.3625    0.0000 H   0  0  0  0  0  0  0  0  0  0  0  0
    8.8578    1.7037    0.0000 H   0  0  0  0  0  0  0  0  0  0  0  0
    8.8578    2.5332    0.0000 H   0  0  0  0  0  0  0  0  0  0  0  0
    6.5380    0.8084    0.0000 H   0  0  0  0  0  0  0  0  0  0  0  0
    6.9159    0.5527    0.0000 H   0  0  0  0  0  0  0  0  0  0  0  0
    7.3153   -0.2279    0.0000 H   0  0  0  0  0  0  0  0  0  0  0  0
    8.0959    0.1716    0.0000 H   0  0  0  0  0  0  0  0  0  0  0  0
    6.0010    3.7384    0.0000 H   0  0  0  0  0  0  0  0  0  0  0  0
    6.3301    3.9284    0.0000 H   0  0  0  0  0  0  0  0  0  0  0  0
    4.5981    2.9285    0.0000 H   0  0  0  0  0  0  0  0  0  0  0  0
    8.7306    4.0016    0.0000 H   0  0  0  0  0  0  0  0  0  0  0  0
    5.1350    0.2384    0.0000 H   0  0  0  0  0  0  0  0  0  0  0  0
    4.8059    0.4284    0.0000 H   0  0  0  0  0  0  0  0  0  0  0  0
    3.4030    0.2384    0.0000 H   0  0  0  0  0  0  0  0  0  0  0  0
    3.4030   -2.0016    0.0000 H   0  0  0  0  0  0  0  0  0  0  0  0
    4.8059   -2.1916    0.0000 H   0  0  0  0  0  0  0  0  0  0  0  0
    3.6584   -2.7739    0.0000 H   0  0  0  0  0  0  0  0  0  0  0  0
    4.0569   -3.4642    0.0000 H   0  0  0  0  0  0  0  0  0  0  0  0
    3.7320    1.4284    0.0000 H   0  0  0  0  0  0  0  0  0  0  0  0
   10.2824   -0.0675    0.0000 H   0  0  0  0  0  0  0  0  0  0  0  0
    2.0000   -0.1916    0.0000 H   0  0  0  0  0  0  0  0  0  0  0  0
    2.5369   -2.5016    0.0000 H   0  0  0  0  0  0  0  0  0  0  0  0
   11.3228    1.5743    0.0000 H   0  0  0  0  0  0  0  0  0  0  0  0
    5.1350   -4.0016    0.0000 H   0  0  0  0  0  0  0  0  0  0  0  0
   11.4003   -0.8767    0.0000 H   0  0  0  0  0  0  0  0  0  0  0  0
   13.0456    1.3962    0.0000 H   0  0  0  0  0  0  0  0  0  0  0  0
   12.7125   -1.8266    0.0000 H   0  0  0  0  0  0  0  0  0  0  0  0
   14.3579    0.4463    0.0000 H   0  0  0  0  0  0  0  0  0  0  0  0
   14.1913   -1.1651    0.0000 H   0  0  0  0  0  0  0  0  0  0  0  0
 13  1  1  6  0  0  0
  1 26  1  0  0  0  0
 14  2  1  6  0  0  0
  2 45  1  0  0  0  0
  3 17  1  0  0  0  0
  3 20  1  0  0  0  0
 17  4  1  6  0  0  0
 21  4  1  6  0  0  0
 15  5  1  6  0  0  0
  5 47  1  0  0  0  0
  6 21  1  0  0  0  0
  6 25  1  0  0  0  0
 22  7  1  1  0  0  0
  7 55  1  0  0  0  0
 23  8  1  6  0  0  0
  8 57  1  0  0  0  0
 24  9  1  1  0  0  0
  9 58  1  0  0  0  0
 10 26  2  0  0  0  0
 11 27  1  0  0  0  0
 11 60  1  0  0  0  0
 12 13  1  0  0  0  0
 12 14  1  0  0  0  0
 12 17  1  0  0  0  0
 12 36  1  6  0  0  0
 13 16  1  0  0  0  0
 13 18  1  0  0  0  0
 14 15  1  0  0  0  0
 14 19  1  0  0  0  0
 15 16  1  0  0  0  0
 15 37  1  0  0  0  0
 16 38  1  0  0  0  0
 16 39  1  0  0  0  0
 17 40  1  0  0  0  0
 18 41  1  0  0  0  0
 18 42  1  0  0  0  0
 18 43  1  0  0  0  0
 19 20  2  0  0  0  0
 19 44  1  0  0  0  0
 20 46  1  0  0  0  0
 21 22  1  0  0  0  0
 21 48  1  0  0  0  0
 22 23  1  0  0  0  0
 22 49  1  0  0  0  0
 23 24  1  0  0  0  0
 23 50  1  0  0  0  0
 24 25  1  0  0  0  0
 24 51  1  0  0  0  0
 25 27  1  6  0  0  0
 25 52  1  0  0  0  0
 26 28  1  0  0  0  0
 27 53  1  0  0  0  0
 27 54  1  0  0  0  0
 28 29  2  0  0  0  0
 28 56  1  0  0  0  0
 29 30  1  0  0  0  0
 29 59  1  0  0  0  0
 30 31  2  0  0  0  0
 30 32  1  0  0  0  0
 31 33  1  0  0  0  0
 31 61  1  0  0  0  0
 32 34  2  0  0  0  0
 32 62  1  0  0  0  0
 33 35  2  0  0  0  0
 33 63  1  0  0  0  0
 34 35  1  0  0  0  0
 34 64  1  0  0  0  0
 35 65  1  0  0  0  0
M  END
> <PUBCHEM_COMPOUND_CID>
5281542

> <PUBCHEM_COMPOUND_CANONICALIZED>
1

> <PUBCHEM_CACTVS_COMPLEXITY>
811

> <PUBCHEM_CACTVS_HBOND_ACCEPTOR>
11

> <PUBCHEM_CACTVS_HBOND_DONOR>
6

> <PUBCHEM_CACTVS_ROTATABLE_BOND>
7

> <PUBCHEM_CACTVS_SUBSKEYS>
AAADceB4PAAAAAAAAAAAAAAAAAAAAYAAAAA0QIAAAAAAAEABAAAAGgAACAAADVSwmAMyCIAABgCIAiDSCAACCAAgIAAIiAAAAMgZNCKAMRCicAAlwAAPuYfA4CwOgAAAAAAAAAAAAAAAAAAAAYQADCAAAA==

> <PUBCHEM_IUPAC_OPENEYE_NAME>
[(1S,4aS,5R,7S,7aS)-4a,5-dihydroxy-7-methyl-1-[(2S,3R,4S,5S,6R)-3,4,5-trihydroxy-6-(hydroxymethyl)tetrahydropyran-2-yl]oxy-1,5,6,7a-tetrahydrocyclopenta[c]pyran-7-yl] (E)-3-phenylprop-2-enoate

> <PUBCHEM_IUPAC_CAS_NAME>
(E)-3-phenyl-2-propenoic acid [(1S,4aS,5R,7S,7aS)-4a,5-dihydroxy-7-methyl-1-[[(2S,3R,4S,5S,6R)-3,4,5-trihydroxy-6-(hydroxymethyl)-2-oxanyl]oxy]-1,5,6,7a-tetrahydrocyclopenta[c]pyran-7-yl] ester

> <PUBCHEM_IUPAC_NAME>
[(1S,4aS,5R,7S,7aS)-4a,5-dihydroxy-7-methyl-1-[(2S,3R,4S,5S,6R)-3,4,5-trihydroxy-6-(hydroxymethyl)oxan-2-yl]oxy-1,5,6,7a-tetrahydrocyclopenta[c]pyran-7-yl] (E)-3-phenylprop-2-enoate

> <PUBCHEM_IUPAC_SYSTEMATIC_NAME>
[(1S,4aS,5R,7S,7aS)-1-[(2S,3R,4S,5S,6R)-6-(hydroxymethyl)-3,4,5-tris(oxidanyl)oxan-2-yl]oxy-7-methyl-4a,5-bis(oxidanyl)-1,5,6,7a-tetrahydrocyclopenta[c]pyran-7-yl] (E)-3-phenylprop-2-enoate

> <PUBCHEM_IUPAC_TRADITIONAL_NAME>
(E)-3-phenylacrylic acid [(1S,4aS,5R,7S,7aS)-4a,5-dihydroxy-7-methyl-1-[(2S,3R,4S,5S,6R)-3,4,5-trihydroxy-6-methylol-tetrahydropyran-2-yl]oxy-1,5,6,7a-tetrahydrocyclopenta[c]pyran-7-yl] ester

> <PUBCHEM_IUPAC_INCHI>
InChI=1S/C24H30O11/c1-23(35-16(27)8-7-13-5-3-2-4-6-13)11-15(26)24(31)9-10-32-22(20(23)24)34-21-19(30)18(29)17(28)14(12-25)33-21/h2-10,14-15,17-22,25-26,28-31H,11-12H2,1H3/b8-7+/t14-,15-,17-,18+,19-,20-,21+,22+,23+,24-/m1/s1

> <PUBCHEM_IUPAC_INCHIKEY>
KVRQGMOSZKPBNS-FMHLWDFHSA-N

> <PUBCHEM_XLOGP3_AA>
-0.6

> <PUBCHEM_EXACT_MASS>
494.178812

> <PUBCHEM_MOLECULAR_FORMULA>
C24H30O11

> <PUBCHEM_MOLECULAR_WEIGHT>
494.4884

> <PUBCHEM_OPENEYE_CAN_SMILES>
CC1(CC(C2(C1C(OC=C2)OC3C(C(C(C(O3)CO)O)O)O)O)O)OC(=O)C=CC4=CC=CC=C4

> <PUBCHEM_OPENEYE_ISO_SMILES>
C[C@@]1(C[C@H]([C@]2([C@@H]1[C@@H](OC=C2)O[C@H]3[C@@H]([C@H]([C@@H]([C@H](O3)CO)O)O)O)O)O)OC(=O)/C=C/C4=CC=CC=C4

> <PUBCHEM_CACTVS_TPSA>
175

> <PUBCHEM_MONOISOTOPIC_WEIGHT>
494.178812

> <PUBCHEM_TOTAL_CHARGE>
0

> <PUBCHEM_HEAVY_ATOM_COUNT>
35

> <PUBCHEM_ATOM_DEF_STEREO_COUNT>
10

> <PUBCHEM_ATOM_UDEF_STEREO_COUNT>
0

> <PUBCHEM_BOND_DEF_STEREO_COUNT>
1

> <PUBCHEM_BOND_UDEF_STEREO_COUNT>
0

> <PUBCHEM_ISOTOPIC_ATOM_COUNT>
0

> <PUBCHEM_COMPONENT_COUNT>
1

> <PUBCHEM_CACTVS_TAUTO_COUNT>
1

> <PUBCHEM_COORDINATE_TYPE>
1
5
255

> <PUBCHEM_BONDANNOTATIONS>
13  1  6
12  36  6
14  2  6
25  27  6
30  31  8
30  32  8
31  33  8
32  34  8
33  35  8
34  35  8
17  4  6
21  4  6
15  5  6
22  7  5
23  8  6
24  9  5

$$$$

