240517
  -OEChem-07051213062D

 52 56  0     1  0  0  0  0  0999 V2000
    2.0000    0.7650    0.0000 O   0  0  0  0  0  0  0  0  0  0  0  0
    2.2954    3.2749    0.0000 O   0  0  0  0  0  0  0  0  0  0  0  0
    3.6794   -4.4317    0.0000 O   0  0  0  0  0  0  0  0  0  0  0  0
    3.7326    1.7650    0.0000 C   0  0  1  0  0  0  0  0  0  0  0  0
    2.8665    1.2650    0.0000 C   0  0  1  0  0  0  0  0  0  0  0  0
    4.5986    1.2650    0.0000 C   0  0  2  0  0  0  0  0  0  0  0  0
    3.7326   -0.2350    0.0000 C   0  0  1  0  0  0  0  0  0  0  0  0
    2.8665    0.2650    0.0000 C   0  0  1  0  0  0  0  0  0  0  0  0
    4.5986    0.2650    0.0000 C   0  0  1  0  0  0  0  0  0  0  0  0
    3.9418    2.7368    0.0000 C   0  0  2  0  0  0  0  0  0  0  0  0
    3.7165   -1.2765    0.0000 C   0  0  2  0  0  0  0  0  0  0  0  0
    5.3356    1.9321    0.0000 C   0  0  0  0  0  0  0  0  0  0  0  0
    4.9305    2.8399    0.0000 C   0  0  0  0  0  0  0  0  0  0  0  0
    5.5086   -0.2418    0.0000 C   0  0  0  0  0  0  0  0  0  0  0  0
    2.8665    2.2650    0.0000 C   0  0  0  0  0  0  0  0  0  0  0  0
    4.6145   -1.8042    0.0000 C   0  0  0  0  0  0  0  0  0  0  0  0
    5.5166   -1.2834    0.0000 C   0  0  0  0  0  0  0  0  0  0  0  0
    2.7646   -1.7971    0.0000 C   0  0  0  0  0  0  0  0  0  0  0  0
    2.8544   -0.7698    0.0000 C   0  0  0  0  0  0  0  0  0  0  0  0
    3.2739    3.4812    0.0000 C   0  0  0  0  0  0  0  0  0  0  0  0
    2.7478   -2.8820    0.0000 C   0  0  0  0  0  0  0  0  0  0  0  0
    4.6229   -2.8892    0.0000 C   0  0  0  0  0  0  0  0  0  0  0  0
    3.6833   -3.4317    0.0000 C   0  0  0  0  0  0  0  0  0  0  0  0
    3.5846    4.4317    0.0000 C   0  0  0  0  0  0  0  0  0  0  0  0
    2.5566    1.8020    0.0000 H   0  0  0  0  0  0  0  0  0  0  0  0
    5.3755    0.9203    0.0000 H   0  0  0  0  0  0  0  0  0  0  0  0
    2.9932   -0.6543    0.0000 H   0  0  0  0  0  0  0  0  0  0  0  0
    2.5566   -0.2719    0.0000 H   0  0  0  0  0  0  0  0  0  0  0  0
    5.3314    0.6957    0.0000 H   0  0  0  0  0  0  0  0  0  0  0  0
    4.1647    3.3154    0.0000 H   0  0  0  0  0  0  0  0  0  0  0  0
    5.7010    1.4313    0.0000 H   0  0  0  0  0  0  0  0  0  0  0  0
    5.8721    2.2429    0.0000 H   0  0  0  0  0  0  0  0  0  0  0  0
    5.5201    3.0317    0.0000 H   0  0  0  0  0  0  0  0  0  0  0  0
    4.8018    3.4464    0.0000 H   0  0  0  0  0  0  0  0  0  0  0  0
    6.1202   -0.3432    0.0000 H   0  0  0  0  0  0  0  0  0  0  0  0
    5.7131    0.3435    0.0000 H   0  0  0  0  0  0  0  0  0  0  0  0
    3.1765    2.8020    0.0000 H   0  0  0  0  0  0  0  0  0  0  0  0
    2.3296    2.5750    0.0000 H   0  0  0  0  0  0  0  0  0  0  0  0
    2.5565    1.7281    0.0000 H   0  0  0  0  0  0  0  0  0  0  0  0
    5.7302   -1.8655    0.0000 H   0  0  0  0  0  0  0  0  0  0  0  0
    6.1266   -1.1726    0.0000 H   0  0  0  0  0  0  0  0  0  0  0  0
    2.5645   -1.2102    0.0000 H   0  0  0  0  0  0  0  0  0  0  0  0
    2.1522   -1.8938    0.0000 H   0  0  0  0  0  0  0  0  0  0  0  0
    3.1685   -0.2353    0.0000 H   0  0  0  0  0  0  0  0  0  0  0  0
    2.3198   -0.4557    0.0000 H   0  0  0  0  0  0  0  0  0  0  0  0
    2.5402   -1.3043    0.0000 H   0  0  0  0  0  0  0  0  0  0  0  0
    2.1387   -2.7665    0.0000 H   0  0  0  0  0  0  0  0  0  0  0  0
    2.5298   -3.4624    0.0000 H   0  0  0  0  0  0  0  0  0  0  0  0
    5.1610   -3.1971    0.0000 H   0  0  0  0  0  0  0  0  0  0  0  0
    4.1739    4.2391    0.0000 H   0  0  0  0  0  0  0  0  0  0  0  0
    3.7772    5.0210    0.0000 H   0  0  0  0  0  0  0  0  0  0  0  0
    2.9953    4.6243    0.0000 H   0  0  0  0  0  0  0  0  0  0  0  0
  5  1  1  1  0  0  0
  8  1  1  1  0  0  0
  2 20  2  0  0  0  0
  3 23  2  0  0  0  0
  4  5  1  0  0  0  0
  4  6  1  0  0  0  0
  4 10  1  0  0  0  0
  4 15  1  1  0  0  0
  5  8  1  0  0  0  0
  5 25  1  0  0  0  0
  6  9  1  0  0  0  0
  6 12  1  0  0  0  0
  6 26  1  6  0  0  0
  7  8  1  0  0  0  0
  7  9  1  0  0  0  0
  7 11  1  0  0  0  0
  7 27  1  6  0  0  0
  8 28  1  0  0  0  0
  9 14  1  0  0  0  0
  9 29  1  1  0  0  0
 10 13  1  0  0  0  0
 10 20  1  1  0  0  0
 10 30  1  0  0  0  0
 11 16  1  0  0  0  0
 11 18  1  0  0  0  0
 11 19  1  1  0  0  0
 12 13  1  0  0  0  0
 12 31  1  0  0  0  0
 12 32  1  0  0  0  0
 13 33  1  0  0  0  0
 13 34  1  0  0  0  0
 14 17  1  0  0  0  0
 14 35  1  0  0  0  0
 14 36  1  0  0  0  0
 15 37  1  0  0  0  0
 15 38  1  0  0  0  0
 15 39  1  0  0  0  0
 16 17  1  0  0  0  0
 16 22  2  0  0  0  0
 17 40  1  0  0  0  0
 17 41  1  0  0  0  0
 18 21  1  0  0  0  0
 18 42  1  0  0  0  0
 18 43  1  0  0  0  0
 19 44  1  0  0  0  0
 19 45  1  0  0  0  0
 19 46  1  0  0  0  0
 20 24  1  0  0  0  0
 21 23  1  0  0  0  0
 21 47  1  0  0  0  0
 21 48  1  0  0  0  0
 22 23  1  0  0  0  0
 22 49  1  0  0  0  0
 24 50  1  0  0  0  0
 24 51  1  0  0  0  0
 24 52  1  0  0  0  0
M  END
> <PUBCHEM_COMPOUND_CID>
240517

> <PUBCHEM_COMPOUND_CANONICALIZED>
1

> <PUBCHEM_CACTVS_COMPLEXITY>
664

> <PUBCHEM_CACTVS_HBOND_ACCEPTOR>
3

> <PUBCHEM_CACTVS_HBOND_DONOR>
0

> <PUBCHEM_CACTVS_ROTATABLE_BOND>
1

> <PUBCHEM_CACTVS_SUBSKEYS>
AAADceB4MAAAAAAAAAAAAAAAEgAAAYAAAAAwYIAABIAAAGDAAAAAGgAAAAAADxSggAICAAAABACIAqBSAAAAAAAgAAAACAEAAEgAABIAAQACAAAEgAAIAQOKzPDPgAAAAAAAAADAAAYAADAAAQAACAAAAA==

> <PUBCHEM_IUPAC_INCHI>
InChI=1S/C21H28O3/c1-11(22)15-6-7-16-14-5-4-12-10-13(23)8-9-20(12,2)17(14)18-19(24-18)21(15,16)3/h10,14-19H,4-9H2,1-3H3/t14-,15+,16-,17+,18+,19+,20-,21+/m0/s1

> <PUBCHEM_IUPAC_INCHIKEY>
WHJDKVBASZLKNZ-LBZTYHDASA-N

> <PUBCHEM_XLOGP3>
2.5

> <PUBCHEM_EXACT_MASS>
328.203845

> <PUBCHEM_MOLECULAR_FORMULA>
C21H28O3

> <PUBCHEM_MOLECULAR_WEIGHT>
328.44522

> <PUBCHEM_OPENEYE_CAN_SMILES>
CC(=O)C1CCC2C1(C3C(O3)C4C2CCC5=CC(=O)CCC45C)C

> <PUBCHEM_OPENEYE_ISO_SMILES>
CC(=O)[C@H]1CC[C@@H]2[C@@]1([C@H]3[C@H](O3)[C@H]4[C@H]2CCC5=CC(=O)CC[C@]45C)C

> <PUBCHEM_CACTVS_TPSA>
46.7

> <PUBCHEM_MONOISOTOPIC_WEIGHT>
328.203845

> <PUBCHEM_TOTAL_CHARGE>
0

> <PUBCHEM_HEAVY_ATOM_COUNT>
24

> <PUBCHEM_ATOM_DEF_STEREO_COUNT>
8

> <PUBCHEM_ATOM_UDEF_STEREO_COUNT>
0

> <PUBCHEM_BOND_DEF_STEREO_COUNT>
0

> <PUBCHEM_BOND_UDEF_STEREO_COUNT>
0

> <PUBCHEM_ISOTOPIC_ATOM_COUNT>
0

> <PUBCHEM_COMPONENT_COUNT>
1

> <PUBCHEM_CACTVS_TAUTO_COUNT>
15

> <PUBCHEM_COORDINATE_TYPE>
1
5
255

> <PUBCHEM_BONDANNOTATIONS>
5  1  5
8  1  5
10  20  5
11  19  5
4  15  5
6  26  6
7  27  6
9  29  5

$$$$

