5460068
  -OEChem-07051212523D

 23 24  0     0  0  0  0  0  0999 V2000
   -1.8327   -2.1832    0.0005 O   0  0  0  0  0  0  0  0  0  0  0  0
   -3.9184   -0.3918   -0.0007 O   0  0  0  0  0  0  0  0  0  0  0  0
    3.5660    1.0881    0.0003 O   0  0  0  0  0  0  0  0  0  0  0  0
    1.3068    1.4798   -0.0003 N   0  0  0  0  0  0  0  0  0  0  0  0
   -0.2493   -0.3720   -0.0002 C   0  0  0  0  0  0  0  0  0  0  0  0
   -0.0153    1.0057   -0.0001 C   0  0  0  0  0  0  0  0  0  0  0  0
    0.8926   -1.2829   -0.0003 C   0  0  0  0  0  0  0  0  0  0  0  0
    2.1536   -0.8231   -0.0003 C   0  0  0  0  0  0  0  0  0  0  0  0
   -1.5651   -0.8447   -0.0001 C   0  0  0  0  0  0  0  0  0  0  0  0
   -1.0793    1.9099    0.0002 C   0  0  0  0  0  0  0  0  0  0  0  0
    2.4147    0.6544   -0.0001 C   0  0  0  0  0  0  0  0  0  0  0  0
   -2.6315    0.0570    0.0004 C   0  0  0  0  0  0  0  0  0  0  0  0
   -2.3888    1.4310    0.0004 C   0  0  0  0  0  0  0  0  0  0  0  0
    3.3466   -1.7280    0.0003 C   0  0  0  0  0  0  0  0  0  0  0  0
    0.7010   -2.3511   -0.0001 H   0  0  0  0  0  0  0  0  0  0  0  0
    1.4517    2.4855   -0.0002 H   0  0  0  0  0  0  0  0  0  0  0  0
   -0.9010    2.9817    0.0001 H   0  0  0  0  0  0  0  0  0  0  0  0
   -3.2123    2.1402    0.0004 H   0  0  0  0  0  0  0  0  0  0  0  0
    3.0596   -2.7849    0.0005 H   0  0  0  0  0  0  0  0  0  0  0  0
    3.9606   -1.5508    0.8894 H   0  0  0  0  0  0  0  0  0  0  0  0
    3.9609   -1.5514   -0.8887 H   0  0  0  0  0  0  0  0  0  0  0  0
   -2.7978   -2.3061    0.0008 H   0  0  0  0  0  0  0  0  0  0  0  0
   -4.5208    0.3718   -0.0005 H   0  0  0  0  0  0  0  0  0  0  0  0
  1  9  1  0  0  0  0
  1 22  1  0  0  0  0
  2 12  1  0  0  0  0
  2 23  1  0  0  0  0
  3 11  2  0  0  0  0
  4  6  1  0  0  0  0
  4 11  1  0  0  0  0
  4 16  1  0  0  0  0
  5  6  2  0  0  0  0
  5  7  1  0  0  0  0
  5  9  1  0  0  0  0
  6 10  1  0  0  0  0
  7  8  2  0  0  0  0
  7 15  1  0  0  0  0
  8 11  1  0  0  0  0
  8 14  1  0  0  0  0
  9 12  2  0  0  0  0
 10 13  2  0  0  0  0
 10 17  1  0  0  0  0
 12 13  1  0  0  0  0
 13 18  1  0  0  0  0
 14 19  1  0  0  0  0
 14 20  1  0  0  0  0
 14 21  1  0  0  0  0
M  END
> <PUBCHEM_COMPOUND_CID>
5460068

> <PUBCHEM_CONFORMER_RMSD>
0.4

> <PUBCHEM_CONFORMER_DIVERSEORDER>
1

> <PUBCHEM_MMFF94_PARTIAL_CHARGES>
20
1 -0.53
10 -0.15
11 0.62
12 0.08
13 -0.15
14 0.14
15 0.15
16 0.37
17 0.15
18 0.15
2 -0.53
22 0.45
23 0.45
3 -0.57
4 -0.55
5 0.03
6 0.12
7 -0.18
8 -0.12
9 0.08

> <PUBCHEM_EFFECTIVE_ROTOR_COUNT>
0

> <PUBCHEM_PHARMACOPHORE_FEATURES>
6
1 1 donor
1 2 donor
1 3 acceptor
1 4 donor
6 4 5 6 7 8 11 rings
6 5 6 9 10 12 13 rings

> <PUBCHEM_HEAVY_ATOM_COUNT>
14

> <PUBCHEM_ATOM_DEF_STEREO_COUNT>
0

> <PUBCHEM_ATOM_UDEF_STEREO_COUNT>
0

> <PUBCHEM_BOND_DEF_STEREO_COUNT>
0

> <PUBCHEM_BOND_UDEF_STEREO_COUNT>
0

> <PUBCHEM_ISOTOPIC_ATOM_COUNT>
0

> <PUBCHEM_COMPONENT_COUNT>
1

> <PUBCHEM_CACTVS_TAUTO_COUNT>
39

> <PUBCHEM_CONFORMER_ID>
0053506400000001

> <PUBCHEM_MMFF94_ENERGY>
34.2131

> <PUBCHEM_FEATURE_SELFOVERLAP>
30.477

> <PUBCHEM_SHAPE_FINGERPRINT>
10608611 8 18410578413453085604
10967382 1 18410573955107785574
11132069 177 18338241470510276424
11471102 20 18411142445943617245
12032990 46 18412820296403308955
12932764 1 17458355121307951240
13380535 21 18410000036092765856
13380535 76 18410857637745464466
14144814 61 18410574015232079096
14325111 11 18410574023827561120
14576447 43 17971489398710593023
15196674 1 18410574015279623173
15219456 202 18410577318135919060
15442244 35 18266459987161422458
15536298 74 18334576867343452306
15775835 57 18334571317734165384
16945 1 18410855421515888005
17804303 29 18264204888928989326
17844478 74 18059565902159849361
193761 8 15888557816188682656
200 152 18041575723065843397
20201158 50 18411419483833989155
20510252 161 18260829340771111153
20645477 70 18409735096809126191
20871998 184 18187642462492227591
21267235 1 18410846689942515658
21501502 16 18409165553853818008
21501925 9 18339654429078109426
2334 1 18338517546528602917
23402539 116 18262249909946879655
23402655 69 18335712654360209693
23463225 33 18412263973515645660
23552423 10 18271804584097600396
23559900 14 18118967130158316798
2748010 2 18339644571664129757
3312278 4 18339075973844239576
5104073 3 18410292544603129585
528886 8 18337677412207229979
53812653 166 18188777137048865472
7364860 26 18334576833031401104
8809292 202 18343577447447500642

> <PUBCHEM_SHAPE_MULTIPOLES>
265.52
5.45
2.07
0.59
0.77
0.1
0
0.71
0
0.07
0
0.01
0
0

> <PUBCHEM_SHAPE_SELFOVERLAP>
580.955

> <PUBCHEM_SHAPE_VOLUME>
144

> <PUBCHEM_COORDINATE_TYPE>
2
5
10

$$$$

