25245250
  -OEChem-07051213102D

 91 90  0     1  0  0  0  0  0999 V2000
   16.7224   -5.9400    0.0000 P   0  0  3  0  0  0  0  0  0  0  0  0
   18.4545   -5.9400    0.0000 P   0  0  0  0  0  0  0  0  0  0  0  0
   15.8564   -6.4400    0.0000 O   0  0  0  0  0  0  0  0  0  0  0  0
   17.5885   -5.4400    0.0000 O   0  0  0  0  0  0  0  0  0  0  0  0
   16.2224   -5.0740    0.0000 O   0  0  0  0  0  0  0  0  0  0  0  0
   17.2224   -6.8060    0.0000 O   0  0  0  0  0  0  0  0  0  0  0  0
   19.3205   -6.4400    0.0000 O   0  0  0  0  0  0  0  0  0  0  0  0
   18.9545   -5.0740    0.0000 O   0  0  0  0  0  0  0  0  0  0  0  0
   17.9545   -6.8060    0.0000 O   0  0  0  0  0  0  0  0  0  0  0  0
    8.0622   -1.9400    0.0000 C   0  0  0  0  0  0  0  0  0  0  0  0
    7.1962   -1.4400    0.0000 C   0  0  0  0  0  0  0  0  0  0  0  0
    9.7942   -2.9400    0.0000 C   0  0  0  0  0  0  0  0  0  0  0  0
   10.6603   -3.4400    0.0000 C   0  0  0  0  0  0  0  0  0  0  0  0
    6.3301    1.0600    0.0000 C   0  0  0  0  0  0  0  0  0  0  0  0
    8.0622   -2.9400    0.0000 C   0  0  0  0  0  0  0  0  0  0  0  0
    6.3301    0.0600    0.0000 C   0  0  0  0  0  0  0  0  0  0  0  0
    5.4641    1.5600    0.0000 C   0  0  0  0  0  0  0  0  0  0  0  0
    8.9282   -3.4400    0.0000 C   0  0  0  0  0  0  0  0  0  0  0  0
    7.1962   -0.4400    0.0000 C   0  0  0  0  0  0  0  0  0  0  0  0
   11.5263   -2.9400    0.0000 C   0  0  0  0  0  0  0  0  0  0  0  0
   12.3923   -4.4400    0.0000 C   0  0  0  0  0  0  0  0  0  0  0  0
    4.5981    3.0600    0.0000 C   0  0  0  0  0  0  0  0  0  0  0  0
    5.4641    2.5600    0.0000 C   0  0  0  0  0  0  0  0  0  0  0  0
   12.3923   -3.4400    0.0000 C   0  0  0  0  0  0  0  0  0  0  0  0
    4.5981    4.0600    0.0000 C   0  0  0  0  0  0  0  0  0  0  0  0
   13.2583   -4.9400    0.0000 C   0  0  0  0  0  0  0  0  0  0  0  0
    7.1962   -3.4400    0.0000 C   0  0  0  0  0  0  0  0  0  0  0  0
    5.4641   -0.4400    0.0000 C   0  0  0  0  0  0  0  0  0  0  0  0
    3.7320    4.5600    0.0000 C   0  0  0  0  0  0  0  0  0  0  0  0
   11.5263   -1.9400    0.0000 C   0  0  0  0  0  0  0  0  0  0  0  0
   13.2583   -5.9400    0.0000 C   0  0  0  0  0  0  0  0  0  0  0  0
    3.7320    2.5600    0.0000 C   0  0  0  0  0  0  0  0  0  0  0  0
    3.7320    5.5600    0.0000 C   0  0  0  0  0  0  0  0  0  0  0  0
   12.3923   -6.4400    0.0000 C   0  0  0  0  0  0  0  0  0  0  0  0
   14.1244   -6.4400    0.0000 C   0  0  0  0  0  0  0  0  0  0  0  0
    2.8660    6.0600    0.0000 C   0  0  0  0  0  0  0  0  0  0  0  0
   14.9904   -5.9400    0.0000 C   0  0  0  0  0  0  0  0  0  0  0  0
    2.8660    7.0600    0.0000 C   0  0  0  0  0  0  0  0  0  0  0  0
    2.0000    5.5600    0.0000 C   0  0  0  0  0  0  0  0  0  0  0  0
    8.6728   -2.0477    0.0000 H   0  0  0  0  0  0  0  0  0  0  0  0
    8.2742   -1.3574    0.0000 H   0  0  0  0  0  0  0  0  0  0  0  0
    6.5856   -1.3323    0.0000 H   0  0  0  0  0  0  0  0  0  0  0  0
    6.9841   -2.0226    0.0000 H   0  0  0  0  0  0  0  0  0  0  0  0
   10.2617   -3.9150    0.0000 H   0  0  0  0  0  0  0  0  0  0  0  0
   11.0588   -3.9150    0.0000 H   0  0  0  0  0  0  0  0  0  0  0  0
   10.1928   -2.4651    0.0000 H   0  0  0  0  0  0  0  0  0  0  0  0
    9.3957   -2.4651    0.0000 H   0  0  0  0  0  0  0  0  0  0  0  0
    6.9407    0.9523    0.0000 H   0  0  0  0  0  0  0  0  0  0  0  0
    6.5422    1.6426    0.0000 H   0  0  0  0  0  0  0  0  0  0  0  0
    4.8535    1.6677    0.0000 H   0  0  0  0  0  0  0  0  0  0  0  0
    5.2520    0.9774    0.0000 H   0  0  0  0  0  0  0  0  0  0  0  0
    8.9282   -4.0600    0.0000 H   0  0  0  0  0  0  0  0  0  0  0  0
    7.7331   -0.1300    0.0000 H   0  0  0  0  0  0  0  0  0  0  0  0
   11.7817   -4.3323    0.0000 H   0  0  0  0  0  0  0  0  0  0  0  0
   12.1803   -5.0226    0.0000 H   0  0  0  0  0  0  0  0  0  0  0  0
    6.0010    2.8700    0.0000 H   0  0  0  0  0  0  0  0  0  0  0  0
   12.9292   -3.1300    0.0000 H   0  0  0  0  0  0  0  0  0  0  0  0
    5.2087    3.9523    0.0000 H   0  0  0  0  0  0  0  0  0  0  0  0
    4.8101    4.6426    0.0000 H   0  0  0  0  0  0  0  0  0  0  0  0
   13.8689   -5.0477    0.0000 H   0  0  0  0  0  0  0  0  0  0  0  0
   13.4704   -4.3574    0.0000 H   0  0  0  0  0  0  0  0  0  0  0  0
    6.8862   -2.9031    0.0000 H   0  0  0  0  0  0  0  0  0  0  0  0
    6.6592   -3.7500    0.0000 H   0  0  0  0  0  0  0  0  0  0  0  0
    7.5062   -3.9769    0.0000 H   0  0  0  0  0  0  0  0  0  0  0  0
    5.1541    0.0969    0.0000 H   0  0  0  0  0  0  0  0  0  0  0  0
    4.9272   -0.7500    0.0000 H   0  0  0  0  0  0  0  0  0  0  0  0
    5.7741   -0.9769    0.0000 H   0  0  0  0  0  0  0  0  0  0  0  0
    3.1215    4.6677    0.0000 H   0  0  0  0  0  0  0  0  0  0  0  0
    3.5200    3.9774    0.0000 H   0  0  0  0  0  0  0  0  0  0  0  0
   12.1463   -1.9400    0.0000 H   0  0  0  0  0  0  0  0  0  0  0  0
   11.5263   -1.3200    0.0000 H   0  0  0  0  0  0  0  0  0  0  0  0
   10.9063   -1.9400    0.0000 H   0  0  0  0  0  0  0  0  0  0  0  0
    3.4220    3.0969    0.0000 H   0  0  0  0  0  0  0  0  0  0  0  0
    3.1951    2.2500    0.0000 H   0  0  0  0  0  0  0  0  0  0  0  0
    4.0420    2.0231    0.0000 H   0  0  0  0  0  0  0  0  0  0  0  0
    4.2690    5.8700    0.0000 H   0  0  0  0  0  0  0  0  0  0  0  0
   14.1244   -7.0600    0.0000 H   0  0  0  0  0  0  0  0  0  0  0  0
   12.0823   -5.9031    0.0000 H   0  0  0  0  0  0  0  0  0  0  0  0
   11.8554   -6.7500    0.0000 H   0  0  0  0  0  0  0  0  0  0  0  0
   12.7023   -6.9769    0.0000 H   0  0  0  0  0  0  0  0  0  0  0  0
   15.3889   -5.4650    0.0000 H   0  0  0  0  0  0  0  0  0  0  0  0
   14.5919   -5.4650    0.0000 H   0  0  0  0  0  0  0  0  0  0  0  0
    1.6900    6.0969    0.0000 H   0  0  0  0  0  0  0  0  0  0  0  0
    1.4631    5.2500    0.0000 H   0  0  0  0  0  0  0  0  0  0  0  0
    2.3100    5.0231    0.0000 H   0  0  0  0  0  0  0  0  0  0  0  0
    3.4860    7.0600    0.0000 H   0  0  0  0  0  0  0  0  0  0  0  0
    2.8660    7.6800    0.0000 H   0  0  0  0  0  0  0  0  0  0  0  0
    2.2460    7.0600    0.0000 H   0  0  0  0  0  0  0  0  0  0  0  0
   16.5324   -4.5370    0.0000 H   0  0  0  0  0  0  0  0  0  0  0  0
   19.8574   -6.1300    0.0000 H   0  0  0  0  0  0  0  0  0  0  0  0
   18.6445   -4.5370    0.0000 H   0  0  0  0  0  0  0  0  0  0  0  0
  1  3  1  0  0  0  0
  1  4  1  0  0  0  0
  1  5  1  0  0  0  0
  1  6  2  0  0  0  0
  2  4  1  0  0  0  0
  2  7  1  0  0  0  0
  2  8  1  0  0  0  0
  2  9  2  0  0  0  0
  3 37  1  0  0  0  0
  5 89  1  0  0  0  0
  7 90  1  0  0  0  0
  8 91  1  0  0  0  0
 10 11  1  0  0  0  0
 10 15  1  0  0  0  0
 10 40  1  0  0  0  0
 10 41  1  0  0  0  0
 11 19  1  0  0  0  0
 11 42  1  0  0  0  0
 11 43  1  0  0  0  0
 12 13  1  0  0  0  0
 12 18  1  0  0  0  0
 12 46  1  0  0  0  0
 12 47  1  0  0  0  0
 13 20  1  0  0  0  0
 13 44  1  0  0  0  0
 13 45  1  0  0  0  0
 14 16  1  0  0  0  0
 14 17  1  0  0  0  0
 14 48  1  0  0  0  0
 14 49  1  0  0  0  0
 15 18  2  0  0  0  0
 15 27  1  0  0  0  0
 16 19  2  0  0  0  0
 16 28  1  0  0  0  0
 17 23  1  0  0  0  0
 17 50  1  0  0  0  0
 17 51  1  0  0  0  0
 18 52  1  0  0  0  0
 19 53  1  0  0  0  0
 20 24  2  0  0  0  0
 20 30  1  0  0  0  0
 21 24  1  0  0  0  0
 21 26  1  0  0  0  0
 21 54  1  0  0  0  0
 21 55  1  0  0  0  0
 22 23  2  0  0  0  0
 22 25  1  0  0  0  0
 22 32  1  0  0  0  0
 23 56  1  0  0  0  0
 24 57  1  0  0  0  0
 25 29  1  0  0  0  0
 25 58  1  0  0  0  0
 25 59  1  0  0  0  0
 26 31  1  0  0  0  0
 26 60  1  0  0  0  0
 26 61  1  0  0  0  0
 27 62  1  0  0  0  0
 27 63  1  0  0  0  0
 27 64  1  0  0  0  0
 28 65  1  0  0  0  0
 28 66  1  0  0  0  0
 28 67  1  0  0  0  0
 29 33  1  0  0  0  0
 29 68  1  0  0  0  0
 29 69  1  0  0  0  0
 30 70  1  0  0  0  0
 30 71  1  0  0  0  0
 30 72  1  0  0  0  0
 31 34  1  0  0  0  0
 31 35  2  0  0  0  0
 32 73  1  0  0  0  0
 32 74  1  0  0  0  0
 32 75  1  0  0  0  0
 33 36  2  0  0  0  0
 33 76  1  0  0  0  0
 34 78  1  0  0  0  0
 34 79  1  0  0  0  0
 34 80  1  0  0  0  0
 35 37  1  0  0  0  0
 35 77  1  0  0  0  0
 36 38  1  0  0  0  0
 36 39  1  0  0  0  0
 37 81  1  0  0  0  0
 37 82  1  0  0  0  0
 38 86  1  0  0  0  0
 38 87  1  0  0  0  0
 38 88  1  0  0  0  0
 39 83  1  0  0  0  0
 39 84  1  0  0  0  0
 39 85  1  0  0  0  0
M  END
> <PUBCHEM_COMPOUND_CID>
25245250

> <PUBCHEM_COMPOUND_CANONICALIZED>
1

> <PUBCHEM_CACTVS_COMPLEXITY>
1010

> <PUBCHEM_CACTVS_HBOND_ACCEPTOR>
7

> <PUBCHEM_CACTVS_HBOND_DONOR>
3

> <PUBCHEM_CACTVS_ROTATABLE_BOND>
20

> <PUBCHEM_CACTVS_SUBSKEYS>
AAADcfB4OAMAAAAAAAAAAAAAAAAAAAAAAAAAAAAAAAAAAAAAAAAAGgAACCAADACggAICAAAAARCAQiBCAIAAAAAgAAAACAAAAAgABAIAAQAAEAAAgAAIAAIAAAAAAAAAAAAAAAAAAAAAAAAAAAAAAAAAAA==

> <PUBCHEM_IUPAC_OPENEYE_NAME>
[(2Z,6Z,10Z,14E,18E)-3,7,11,15,19,23-hexamethyltetracosa-2,6,10,14,18,22-hexaenyl] phosphono hydrogen phosphate

> <PUBCHEM_IUPAC_CAS_NAME>
[(2Z,6Z,10Z,14E,18E)-3,7,11,15,19,23-hexamethyltetracosa-2,6,10,14,18,22-hexaenyl] phosphono hydrogen phosphate

> <PUBCHEM_IUPAC_NAME>
[(2Z,6Z,10Z,14E,18E)-3,7,11,15,19,23-hexamethyltetracosa-2,6,10,14,18,22-hexaenyl] phosphono hydrogen phosphate

> <PUBCHEM_IUPAC_SYSTEMATIC_NAME>
[(2Z,6Z,10Z,14E,18E)-3,7,11,15,19,23-hexamethyltetracosa-2,6,10,14,18,22-hexaenyl] phosphono hydrogen phosphate

> <PUBCHEM_IUPAC_TRADITIONAL_NAME>
[(2Z,6Z,10Z,14E,18E)-3,7,11,15,19,23-hexamethyltetracosa-2,6,10,14,18,22-hexaenyl] phosphono hydrogen phosphate

> <PUBCHEM_IUPAC_INCHI>
InChI=1S/C30H52O7P2/c1-25(2)13-8-14-26(3)15-9-16-27(4)17-10-18-28(5)19-11-20-29(6)21-12-22-30(7)23-24-36-39(34,35)37-38(31,32)33/h13,15,17,19,21,23H,8-12,14,16,18,20,22,24H2,1-7H3,(H,34,35)(H2,31,32,33)/b26-15+,27-17+,28-19-,29-21-,30-23-

> <PUBCHEM_IUPAC_INCHIKEY>
NGFSMHKFTZROKJ-SLKMIFNPSA-N

> <PUBCHEM_XLOGP3_AA>
8.1

> <PUBCHEM_EXACT_MASS>
586.318827

> <PUBCHEM_MOLECULAR_FORMULA>
C30H52O7P2

> <PUBCHEM_MOLECULAR_WEIGHT>
586.677204

> <PUBCHEM_OPENEYE_CAN_SMILES>
CC(=CCCC(=CCCC(=CCCC(=CCCC(=CCCC(=CCOP(=O)(O)OP(=O)(O)O)C)C)C)C)C)C

> <PUBCHEM_OPENEYE_ISO_SMILES>
CC(=CCC/C(=C/CC/C(=C/CC/C(=C\CC/C(=C\CC/C(=C\COP(=O)(O)OP(=O)(O)O)/C)/C)/C)/C)/C)C

> <PUBCHEM_CACTVS_TPSA>
113

> <PUBCHEM_MONOISOTOPIC_WEIGHT>
586.318827

> <PUBCHEM_TOTAL_CHARGE>
0

> <PUBCHEM_HEAVY_ATOM_COUNT>
39

> <PUBCHEM_ATOM_DEF_STEREO_COUNT>
0

> <PUBCHEM_ATOM_UDEF_STEREO_COUNT>
0

> <PUBCHEM_BOND_DEF_STEREO_COUNT>
5

> <PUBCHEM_BOND_UDEF_STEREO_COUNT>
0

> <PUBCHEM_ISOTOPIC_ATOM_COUNT>
0

> <PUBCHEM_COMPONENT_COUNT>
1

> <PUBCHEM_CACTVS_TAUTO_COUNT>
1

> <PUBCHEM_COORDINATE_TYPE>
1
5
255

$$$$

