181811
  -OEChem-07051212553D

 37 38  0     1  0  0  0  0  0999 V2000
    0.7027    0.6476   -0.1629 O   0  0  0  0  0  0  0  0  0  0  0  0
   -0.8221   -1.0139   -0.7614 O   0  0  0  0  0  0  0  0  0  0  0  0
    3.8433   -1.9936   -0.3287 O   0  0  0  0  0  0  0  0  0  0  0  0
    1.0822   -2.9848   -0.0563 O   0  0  0  0  0  0  0  0  0  0  0  0
    4.1551    0.5260    1.0534 O   0  0  0  0  0  0  0  0  0  0  0  0
    2.3283    2.7548   -0.9418 O   0  0  0  0  0  0  0  0  0  0  0  0
   -4.3923    0.7834    1.4377 O   0  0  0  0  0  0  0  0  0  0  0  0
   -1.3058    2.3454   -0.7996 N   0  0  0  0  0  0  0  0  0  0  0  0
    2.7674   -1.2947    0.2993 C   0  0  2  0  0  0  0  0  0  0  0  0
    1.4541   -1.6498   -0.3978 C   0  0  2  0  0  0  0  0  0  0  0  0
    3.0572    0.2034    0.2040 C   0  0  1  0  0  0  0  0  0  0  0  0
    0.3251   -0.7133    0.0326 C   0  0  1  0  0  0  0  0  0  0  0  0
    1.8340    1.0210    0.6256 C   0  0  1  0  0  0  0  0  0  0  0  0
   -1.9200   -0.1806   -0.4188 C   0  0  2  0  0  0  0  0  0  0  0  0
   -2.3535   -0.4688    1.0295 C   0  0  0  0  0  0  0  0  0  0  0  0
    2.0589    2.5167    0.4277 C   0  0  0  0  0  0  0  0  0  0  0  0
   -3.8873   -0.4733    1.0163 C   0  0  2  0  0  0  0  0  0  0  0  0
   -3.1385   -0.5518   -1.2051 C   0  0  0  0  0  0  0  0  0  0  0  0
   -4.2118   -0.7036   -0.4222 C   0  0  0  0  0  0  0  0  0  0  0  0
   -1.5770    1.2299   -0.6314 C   0  0  0  0  0  0  0  0  0  0  0  0
    2.7562   -1.6165    1.3481 H   0  0  0  0  0  0  0  0  0  0  0  0
    1.5781   -1.6181   -1.4876 H   0  0  0  0  0  0  0  0  0  0  0  0
    3.3569    0.4217   -0.8283 H   0  0  0  0  0  0  0  0  0  0  0  0
    0.1064   -0.8919    1.0926 H   0  0  0  0  0  0  0  0  0  0  0  0
    1.6070    0.8565    1.6873 H   0  0  0  0  0  0  0  0  0  0  0  0
   -1.9546    0.2566    1.7491 H   0  0  0  0  0  0  0  0  0  0  0  0
   -2.0178   -1.4682    1.3401 H   0  0  0  0  0  0  0  0  0  0  0  0
    2.8774    2.9099    1.0381 H   0  0  0  0  0  0  0  0  0  0  0  0
    1.1507    3.0725    0.6810 H   0  0  0  0  0  0  0  0  0  0  0  0
   -4.2851   -1.2584    1.6664 H   0  0  0  0  0  0  0  0  0  0  0  0
   -3.1566   -0.6598   -2.2810 H   0  0  0  0  0  0  0  0  0  0  0  0
   -5.2004   -0.9435   -0.7862 H   0  0  0  0  0  0  0  0  0  0  0  0
    3.6982   -2.9445   -0.1898 H   0  0  0  0  0  0  0  0  0  0  0  0
    1.7612   -3.5811   -0.4140 H   0  0  0  0  0  0  0  0  0  0  0  0
    4.4709    1.4116    0.8079 H   0  0  0  0  0  0  0  0  0  0  0  0
    3.2715    2.5762   -1.0949 H   0  0  0  0  0  0  0  0  0  0  0  0
   -5.3626    0.7440    1.3826 H   0  0  0  0  0  0  0  0  0  0  0  0
  1 12  1  0  0  0  0
  1 13  1  0  0  0  0
  2 12  1  0  0  0  0
  2 14  1  0  0  0  0
  3  9  1  0  0  0  0
  3 33  1  0  0  0  0
  4 10  1  0  0  0  0
  4 34  1  0  0  0  0
  5 11  1  0  0  0  0
  5 35  1  0  0  0  0
  6 16  1  0  0  0  0
  6 36  1  0  0  0  0
  7 17  1  0  0  0  0
  7 37  1  0  0  0  0
  8 20  3  0  0  0  0
  9 10  1  0  0  0  0
  9 11  1  0  0  0  0
  9 21  1  0  0  0  0
 10 12  1  0  0  0  0
 10 22  1  0  0  0  0
 11 13  1  0  0  0  0
 11 23  1  0  0  0  0
 12 24  1  0  0  0  0
 13 16  1  0  0  0  0
 13 25  1  0  0  0  0
 14 15  1  0  0  0  0
 14 18  1  0  0  0  0
 14 20  1  0  0  0  0
 15 17  1  0  0  0  0
 15 26  1  0  0  0  0
 15 27  1  0  0  0  0
 16 28  1  0  0  0  0
 16 29  1  0  0  0  0
 17 19  1  0  0  0  0
 17 30  1  0  0  0  0
 18 19  2  0  0  0  0
 18 31  1  0  0  0  0
 19 32  1  0  0  0  0
M  END
> <PUBCHEM_COMPOUND_CID>
181811

> <PUBCHEM_CONFORMER_RMSD>
0.6

> <PUBCHEM_CONFORMER_DIVERSEORDER>
1
14
9
8
17
16
7
3
5
15
6
10
13
12
2
4
11

> <PUBCHEM_MMFF94_PARTIAL_CHARGES>
26
1 -0.56
10 0.28
11 0.28
12 0.56
13 0.28
14 0.62
16 0.28
17 0.42
18 -0.29
19 -0.29
2 -0.56
20 0.36
3 -0.68
31 0.15
32 0.15
33 0.4
34 0.4
35 0.4
36 0.4
37 0.4
4 -0.68
5 -0.68
6 -0.68
7 -0.68
8 -0.56
9 0.28

> <PUBCHEM_EFFECTIVE_ROTOR_COUNT>
4.8

> <PUBCHEM_PHARMACOPHORE_FEATURES>
15
1 1 acceptor
1 2 acceptor
1 3 acceptor
1 3 donor
1 4 acceptor
1 4 donor
1 5 acceptor
1 5 donor
1 6 acceptor
1 6 donor
1 7 acceptor
1 7 donor
1 8 acceptor
5 14 15 17 18 19 rings
6 1 9 10 11 12 13 rings

> <PUBCHEM_HEAVY_ATOM_COUNT>
20

> <PUBCHEM_ATOM_DEF_STEREO_COUNT>
7

> <PUBCHEM_ATOM_UDEF_STEREO_COUNT>
0

> <PUBCHEM_BOND_DEF_STEREO_COUNT>
0

> <PUBCHEM_BOND_UDEF_STEREO_COUNT>
0

> <PUBCHEM_ISOTOPIC_ATOM_COUNT>
0

> <PUBCHEM_COMPONENT_COUNT>
1

> <PUBCHEM_CACTVS_TAUTO_COUNT>
1

> <PUBCHEM_CONFORMER_ID>
0002C63300000001

> <PUBCHEM_MMFF94_ENERGY>
60.8688

> <PUBCHEM_FEATURE_SELFOVERLAP>
76.182

> <PUBCHEM_SHAPE_FINGERPRINT>
10366900 7 18130782382381819907
10967382 1 18338525140336419188
11471102 20 18409173215948906086
11471102 22 18342457023607635899
11578080 2 17243619427147252481
12236239 1 17676492735612859631
12251169 10 18188203303853914227
12553582 1 18339082721270133634
12633257 1 18202567258817544091
12670545 47 18059853930935095323
13140716 1 18195813972658867402
13583140 156 16843912817843933962
14178342 30 18193003827286872768
14251717 144 18336553728625065183
14790565 3 18267011757437239940
15219456 202 18340211885546728461
15309172 13 18338239249922415991
15653759 3 18060702822657186043
15775835 57 18040999496830322698
15848702 151 18041275551764430671
16945 1 18412267237448360054
17844478 74 18343301495982868045
1813 80 18043515308822192582
18186145 218 18260829293426061918
19049666 15 18056484086799266539
19422 9 18040436560178807639
200 152 18041294209534588879
20559304 39 18412546496607119804
20645477 70 18271258131372006639
20671657 1 18261392179055031548
20739085 24 18337101371837042770
21041028 32 18262231252392888736
21524375 3 18189342264392411070
22182313 1 18266476454414286004
2255824 54 18408882919404872526
22854114 111 18335139786683645330
23184049 59 18408039606839491711
2334 1 17907021677293144198
23557571 272 15913064126712548783
23559900 14 16917356934614939998
23598291 2 18113341873323402575
2748010 2 18120949544631319358
2838139 119 14925378221971027002
44154327 71 18126845997583963604
474 4 18336549317624989587
5104073 3 18333454256886265283
6049 1 18131635599204634133
633830 44 18115576059233672037
7364860 26 18336550426196095732
77492 1 17676489410959876423
81228 2 17110449039506161426
9709674 26 18342744009301934063

> <PUBCHEM_SHAPE_MULTIPOLES>
365.52
7.6
2.58
1.09
2.71
0.5
-0.12
-0.59
-1.68
-2.47
0.48
0.77
0.19
0

> <PUBCHEM_SHAPE_SELFOVERLAP>
767.231

> <PUBCHEM_SHAPE_VOLUME>
203.2

> <PUBCHEM_COORDINATE_TYPE>
2
5
10

$$$$

