441524
  -OEChem-07051212553D

 41 41  0     1  0  0  0  0  0999 V2000
    0.1187   -2.3311   -0.0107 S   0  0  0  0  0  0  0  0  0  0  0  0
   -3.1516    1.5225    1.0367 S   0  0  0  0  0  0  0  0  0  0  0  0
    1.1555    0.0217   -0.7403 O   0  0  0  0  0  0  0  0  0  0  0  0
    4.9604   -0.7261    0.6205 O   0  0  0  0  0  0  0  0  0  0  0  0
    4.1518    2.0074   -0.0534 O   0  0  0  0  0  0  0  0  0  0  0  0
    2.7403   -2.2245    1.6917 O   0  0  0  0  0  0  0  0  0  0  0  0
    0.2863    2.4417   -1.7042 O   0  0  0  0  0  0  0  0  0  0  0  0
   -2.9035    0.1336    0.2134 O   0  0  0  0  0  0  0  0  0  0  0  0
   -4.7121    1.8813    0.7213 O   0  0  0  0  0  0  0  0  0  0  0  0
   -3.0344    1.2441    2.4561 O   0  0  0  0  0  0  0  0  0  0  0  0
   -2.3317    2.5505    0.4236 O   0  0  0  0  0  0  0  0  0  0  0  0
   -1.6403   -0.3990    0.4627 N   0  0  0  0  0  0  0  0  0  0  0  0
    3.6251   -0.2240    0.7014 C   0  0  1  0  0  0  0  0  0  0  0  0
    3.4126    0.8343   -0.3817 C   0  0  1  0  0  0  0  0  0  0  0  0
    2.6654   -1.4052    0.5255 C   0  0  2  0  0  0  0  0  0  0  0  0
    1.9298    1.1969   -0.4978 C   0  0  1  0  0  0  0  0  0  0  0  0
    1.2263   -0.9161    0.3334 C   0  0  2  0  0  0  0  0  0  0  0  0
    1.6731    2.1612   -1.6514 C   0  0  0  0  0  0  0  0  0  0  0  0
   -1.4326   -1.5018   -0.1859 C   0  0  0  0  0  0  0  0  0  0  0  0
   -2.3877   -2.2146   -1.1456 C   0  0  0  0  0  0  0  0  0  0  0  0
   -3.6557   -2.6861   -0.4381 C   0  0  0  0  0  0  0  0  0  0  0  0
   -2.6957   -1.3667   -2.3773 C   0  0  0  0  0  0  0  0  0  0  0  0
    3.5210    0.2219    1.6983 H   0  0  0  0  0  0  0  0  0  0  0  0
    3.7914    0.4588   -1.3407 H   0  0  0  0  0  0  0  0  0  0  0  0
    2.9992   -2.0057   -0.3309 H   0  0  0  0  0  0  0  0  0  0  0  0
    1.5708    1.6675    0.4278 H   0  0  0  0  0  0  0  0  0  0  0  0
    0.8699   -0.4462    1.2587 H   0  0  0  0  0  0  0  0  0  0  0  0
    1.9501    1.7097   -2.6094 H   0  0  0  0  0  0  0  0  0  0  0  0
    2.2191    3.1020   -1.5341 H   0  0  0  0  0  0  0  0  0  0  0  0
    5.0596   -1.4020    1.3128 H   0  0  0  0  0  0  0  0  0  0  0  0
    5.0836    1.7462    0.0432 H   0  0  0  0  0  0  0  0  0  0  0  0
    2.1161   -2.9600    1.5695 H   0  0  0  0  0  0  0  0  0  0  0  0
   -1.8903   -3.1214   -1.5157 H   0  0  0  0  0  0  0  0  0  0  0  0
    0.0375    2.8651   -0.8649 H   0  0  0  0  0  0  0  0  0  0  0  0
   -4.3167   -1.8569   -0.1695 H   0  0  0  0  0  0  0  0  0  0  0  0
   -3.4108   -3.2277    0.4819 H   0  0  0  0  0  0  0  0  0  0  0  0
   -4.2256   -3.3609   -1.0859 H   0  0  0  0  0  0  0  0  0  0  0  0
   -3.3324   -0.5084   -2.1434 H   0  0  0  0  0  0  0  0  0  0  0  0
   -1.7734   -0.9829   -2.8266 H   0  0  0  0  0  0  0  0  0  0  0  0
   -3.2168   -1.9648   -3.1326 H   0  0  0  0  0  0  0  0  0  0  0  0
   -5.3451    1.1320    0.8221 H   0  0  0  0  0  0  0  0  0  0  0  0
  1 17  1  0  0  0  0
  1 19  1  0  0  0  0
  2  8  1  0  0  0  0
  2  9  1  0  0  0  0
  2 10  2  0  0  0  0
  2 11  2  0  0  0  0
  3 16  1  0  0  0  0
  3 17  1  0  0  0  0
  4 13  1  0  0  0  0
  4 30  1  0  0  0  0
  5 14  1  0  0  0  0
  5 31  1  0  0  0  0
  6 15  1  0  0  0  0
  6 32  1  0  0  0  0
  7 18  1  0  0  0  0
  7 34  1  0  0  0  0
  8 12  1  0  0  0  0
  9 41  1  0  0  0  0
 12 19  2  0  0  0  0
 13 14  1  0  0  0  0
 13 15  1  0  0  0  0
 13 23  1  0  0  0  0
 14 16  1  0  0  0  0
 14 24  1  0  0  0  0
 15 17  1  0  0  0  0
 15 25  1  0  0  0  0
 16 18  1  0  0  0  0
 16 26  1  0  0  0  0
 17 27  1  0  0  0  0
 18 28  1  0  0  0  0
 18 29  1  0  0  0  0
 19 20  1  0  0  0  0
 20 21  1  0  0  0  0
 20 22  1  0  0  0  0
 20 33  1  0  0  0  0
 21 35  1  0  0  0  0
 21 36  1  0  0  0  0
 21 37  1  0  0  0  0
 22 38  1  0  0  0  0
 22 39  1  0  0  0  0
 22 40  1  0  0  0  0
M  END
> <PUBCHEM_COMPOUND_CID>
441524

> <PUBCHEM_CONFORMER_RMSD>
0.8

> <PUBCHEM_CONFORMER_DIVERSEORDER>
1
32
52
50
23
54
34
38
8
48
25
17
9
29
44
41
15
42
39
26
6
16
47
11
10
28
27
30
37
31
24
43
36
33
4
46
53
22
2
19
45
35
14
51
18
21
3
49
40
13
7
20
5
12

> <PUBCHEM_MMFF94_PARTIAL_CHARGES>
25
1 -0.37
10 -0.65
11 -0.65
12 -0.51
13 0.28
14 0.28
15 0.28
16 0.28
17 0.51
18 0.28
19 0.53
2 1.67
20 0.06
3 -0.56
30 0.4
31 0.4
32 0.4
34 0.4
4 -0.68
41 0.5
5 -0.68
6 -0.68
7 -0.68
8 -0.12
9 -0.68

> <PUBCHEM_EFFECTIVE_ROTOR_COUNT>
7.2

> <PUBCHEM_PHARMACOPHORE_FEATURES>
16
1 10 acceptor
1 11 acceptor
1 12 acceptor
1 3 acceptor
1 4 acceptor
1 4 donor
1 5 acceptor
1 5 donor
1 6 acceptor
1 6 donor
1 7 acceptor
1 7 donor
1 9 acceptor
3 20 21 22 hydrophobe
4 2 9 10 11 anion
6 3 13 14 15 16 17 rings

> <PUBCHEM_HEAVY_ATOM_COUNT>
22

> <PUBCHEM_ATOM_DEF_STEREO_COUNT>
5

> <PUBCHEM_ATOM_UDEF_STEREO_COUNT>
0

> <PUBCHEM_BOND_DEF_STEREO_COUNT>
0

> <PUBCHEM_BOND_UDEF_STEREO_COUNT>
1

> <PUBCHEM_ISOTOPIC_ATOM_COUNT>
0

> <PUBCHEM_COMPONENT_COUNT>
1

> <PUBCHEM_CACTVS_TAUTO_COUNT>
1

> <PUBCHEM_CONFORMER_ID>
0006BCB400000001

> <PUBCHEM_MMFF94_ENERGY>
41.7698

> <PUBCHEM_FEATURE_SELFOVERLAP>
81.266

> <PUBCHEM_SHAPE_FINGERPRINT>
10382601 240 18202279226053486994
11640471 11 18261384585357660843
12553582 1 17988650748185347394
12633257 1 18334582386276506560
12788726 201 18115864101764153543
13009979 54 18408890628860749530
13583140 156 17703784868966368243
13965767 371 18194406808217928536
14251757 17 17414475811535784071
14251764 3 15502383330518043086
14464042 87 18263083224002332087
14790565 3 17771889560063861428
1741750 31 17822283639217183043
18219364 16 17346323630859207295
192875 21 18194691371038871415
20261772 1 18342172323432492544
20600515 1 17458614657945610488
20715895 44 17907579486862458353
20739085 24 17846491531302906420
21197605 99 17622732329380016693
21524375 3 18042964457828372131
23184049 59 18270112560224869264
23557571 272 17530966860795912703
23558518 356 18198332970724991130
23559900 14 17531800368430783926
23598288 3 18187367589149471183
23598291 2 18412540990316595646
2748010 2 17114674466902535726
312423 11 18269543966737493366
4409770 3 15167402128529654935
474 4 18059292037632890210
633830 44 18270668793450898038
6438718 38 17967812730394825095
6992083 37 18341611550774126869
7064713 232 18189335839153167009
7164475 11 18261111837971234583
7471813 234 17972898972216098319
7615 1 18410575037471257694
7832392 63 18409444817027866262

> <PUBCHEM_SHAPE_MULTIPOLES>
402.64
8.3
3.35
1.71
1.91
0.41
-0.24
1.08
1.77
-2.09
-0.21
-0.96
0.38
-3.11

> <PUBCHEM_SHAPE_SELFOVERLAP>
775.98

> <PUBCHEM_SHAPE_VOLUME>
246

> <PUBCHEM_COORDINATE_TYPE>
2
5
10

$$$$

