441966
  -OEChem-07051212562D

 49 52  0     1  0  0  0  0  0999 V2000
    5.1396   -0.9554    0.0000 O   0  0  0  0  0  0  0  0  0  0  0  0
    5.9998    0.5479    0.0000 O   0  0  0  0  0  0  0  0  0  0  0  0
    2.5357    0.5346    0.0000 O   0  0  0  0  0  0  0  0  0  0  0  0
    2.5434   -1.4654    0.0000 O   0  0  0  0  0  0  0  0  0  0  0  0
    4.2639    1.5412    0.0000 O   0  0  0  0  0  0  0  0  0  0  0  0
    5.1473   -2.9554    0.0000 O   0  0  0  0  0  0  0  0  0  0  0  0
    8.6379    0.0407    0.0000 O   0  0  0  0  0  0  0  0  0  0  0  0
   12.2101    0.2707    0.0000 O   0  0  0  0  0  0  0  0  0  0  0  0
   10.3979    3.0754    0.0000 O   0  0  0  0  0  0  0  0  0  0  0  0
    8.6495    3.1100    0.0000 O   0  0  0  0  0  0  0  0  0  0  0  0
    3.4037    0.0379    0.0000 C   0  0  1  0  0  0  0  0  0  0  0  0
    3.4075   -0.9621    0.0000 C   0  0  1  0  0  0  0  0  0  0  0  0
    4.2678    0.5412    0.0000 C   0  0  2  0  0  0  0  0  0  0  0  0
    4.2755   -1.4588    0.0000 C   0  0  1  0  0  0  0  0  0  0  0  0
    5.1357    0.0446    0.0000 C   0  0  1  0  0  0  0  0  0  0  0  0
    4.2793   -2.4588    0.0000 C   0  0  0  0  0  0  0  0  0  0  0  0
    6.8678    0.0512    0.0000 C   0  0  0  0  0  0  0  0  0  0  0  0
    7.7318    0.5546    0.0000 C   0  0  0  0  0  0  0  0  0  0  0  0
    9.5319    1.5754    0.0000 C   0  0  0  0  0  0  0  0  0  0  0  0
    9.5319    0.5754    0.0000 C   0  0  0  0  0  0  0  0  0  0  0  0
    7.7318    1.5962    0.0000 C   0  0  0  0  0  0  0  0  0  0  0  0
    8.6379    2.1101    0.0000 C   0  0  0  0  0  0  0  0  0  0  0  0
   10.3979    2.0754    0.0000 C   0  0  0  0  0  0  0  0  0  0  0  0
   11.2639    1.5754    0.0000 C   0  0  0  0  0  0  0  0  0  0  0  0
   11.2639    0.5754    0.0000 C   0  0  0  0  0  0  0  0  0  0  0  0
   10.3979    0.0754    0.0000 C   0  0  0  0  0  0  0  0  0  0  0  0
   12.2101    1.8801    0.0000 C   0  0  0  0  0  0  0  0  0  0  0  0
   12.7937    1.0754    0.0000 C   0  0  0  0  0  0  0  0  0  0  0  0
   11.2639    3.5754    0.0000 C   0  0  0  0  0  0  0  0  0  0  0  0
    2.8680   -0.2742    0.0000 H   0  0  0  0  0  0  0  0  0  0  0  0
    2.8694   -0.6542    0.0000 H   0  0  0  0  0  0  0  0  0  0  0  0
    3.7296    0.8492    0.0000 H   0  0  0  0  0  0  0  0  0  0  0  0
    4.8136   -1.7667    0.0000 H   0  0  0  0  0  0  0  0  0  0  0  0
    5.1333    0.6646    0.0000 H   0  0  0  0  0  0  0  0  0  0  0  0
    3.6684   -2.3534    0.0000 H   0  0  0  0  0  0  0  0  0  0  0  0
    4.0695   -3.0422    0.0000 H   0  0  0  0  0  0  0  0  0  0  0  0
    2.0000    0.2225    0.0000 H   0  0  0  0  0  0  0  0  0  0  0  0
    2.5458   -2.0854    0.0000 H   0  0  0  0  0  0  0  0  0  0  0  0
    3.7258    1.8492    0.0000 H   0  0  0  0  0  0  0  0  0  0  0  0
    6.4711   -0.4252    0.0000 H   0  0  0  0  0  0  0  0  0  0  0  0
    7.2681   -0.4222    0.0000 H   0  0  0  0  0  0  0  0  0  0  0  0
    5.1497   -3.5754    0.0000 H   0  0  0  0  0  0  0  0  0  0  0  0
    7.1961    1.9083    0.0000 H   0  0  0  0  0  0  0  0  0  0  0  0
   10.3979   -0.5446    0.0000 H   0  0  0  0  0  0  0  0  0  0  0  0
   12.4027    2.4694    0.0000 H   0  0  0  0  0  0  0  0  0  0  0  0
   13.4137    1.0754    0.0000 H   0  0  0  0  0  0  0  0  0  0  0  0
   11.5739    3.0385    0.0000 H   0  0  0  0  0  0  0  0  0  0  0  0
   11.8008    3.8854    0.0000 H   0  0  0  0  0  0  0  0  0  0  0  0
   10.9539    4.1123    0.0000 H   0  0  0  0  0  0  0  0  0  0  0  0
  1 14  1  0  0  0  0
  1 15  1  0  0  0  0
 15  2  1  6  0  0  0
  2 17  1  0  0  0  0
 11  3  1  6  0  0  0
  3 37  1  0  0  0  0
 12  4  1  1  0  0  0
  4 38  1  0  0  0  0
 13  5  1  1  0  0  0
  5 39  1  0  0  0  0
  6 16  1  0  0  0  0
  6 42  1  0  0  0  0
  7 18  1  0  0  0  0
  7 20  1  0  0  0  0
  8 25  1  0  0  0  0
  8 28  1  0  0  0  0
  9 23  1  0  0  0  0
  9 29  1  0  0  0  0
 10 22  2  0  0  0  0
 11 12  1  0  0  0  0
 11 13  1  0  0  0  0
 11 30  1  0  0  0  0
 12 14  1  0  0  0  0
 12 31  1  0  0  0  0
 13 15  1  0  0  0  0
 13 32  1  0  0  0  0
 14 16  1  6  0  0  0
 14 33  1  0  0  0  0
 15 34  1  0  0  0  0
 16 35  1  0  0  0  0
 16 36  1  0  0  0  0
 17 18  1  0  0  0  0
 17 40  1  0  0  0  0
 17 41  1  0  0  0  0
 18 21  2  0  0  0  0
 19 20  2  0  0  0  0
 19 22  1  0  0  0  0
 19 23  1  0  0  0  0
 20 26  1  0  0  0  0
 21 22  1  0  0  0  0
 21 43  1  0  0  0  0
 23 24  2  0  0  0  0
 24 25  1  0  0  0  0
 24 27  1  0  0  0  0
 25 26  2  0  0  0  0
 26 44  1  0  0  0  0
 27 28  2  0  0  0  0
 27 45  1  0  0  0  0
 28 46  1  0  0  0  0
 29 47  1  0  0  0  0
 29 48  1  0  0  0  0
 29 49  1  0  0  0  0
M  END
> <PUBCHEM_COMPOUND_CID>
441966

> <PUBCHEM_COMPOUND_CANONICALIZED>
1

> <PUBCHEM_CACTVS_COMPLEXITY>
639

> <PUBCHEM_CACTVS_HBOND_ACCEPTOR>
10

> <PUBCHEM_CACTVS_HBOND_DONOR>
4

> <PUBCHEM_CACTVS_ROTATABLE_BOND>
5

> <PUBCHEM_CACTVS_SUBSKEYS>
AAADceB4PAAAAAAAAAAAAAAAAAAAASAAAAA0QIAAAAAAAEiB8AAAGgAACAAADBSwmAMyDsAABkCIAqhSgAACCAAkIAAIiAEGCMgdNzaENRqieWCl4BUPqYfK7vzuIAACCAAIAABAAAQQABAAAAAAAAAAAA==

> <PUBCHEM_IUPAC_OPENEYE_NAME>
4-methoxy-7-[[(2R,3R,4S,5S,6R)-3,4,5-trihydroxy-6-(hydroxymethyl)tetrahydropyran-2-yl]oxymethyl]furo[3,2-g]chromen-5-one

> <PUBCHEM_IUPAC_CAS_NAME>
4-methoxy-7-[[(2R,3R,4S,5S,6R)-3,4,5-trihydroxy-6-(hydroxymethyl)-2-oxanyl]oxymethyl]-5-furo[3,2-g][1]benzopyranone

> <PUBCHEM_IUPAC_NAME>
4-methoxy-7-[[(2R,3R,4S,5S,6R)-3,4,5-trihydroxy-6-(hydroxymethyl)oxan-2-yl]oxymethyl]furo[3,2-g]chromen-5-one

> <PUBCHEM_IUPAC_SYSTEMATIC_NAME>
7-[[(2R,3R,4S,5S,6R)-6-(hydroxymethyl)-3,4,5-tris(oxidanyl)oxan-2-yl]oxymethyl]-4-methoxy-furo[3,2-g]chromen-5-one

> <PUBCHEM_IUPAC_TRADITIONAL_NAME>
4-methoxy-7-[[(2R,3R,4S,5S,6R)-3,4,5-trihydroxy-6-methylol-tetrahydropyran-2-yl]oxymethyl]furo[3,2-g]chromen-5-one

> <PUBCHEM_IUPAC_INCHI>
InChI=1S/C19H20O10/c1-25-18-9-2-3-26-11(9)5-12-14(18)10(21)4-8(28-12)7-27-19-17(24)16(23)15(22)13(6-20)29-19/h2-5,13,15-17,19-20,22-24H,6-7H2,1H3/t13-,15-,16+,17-,19-/m1/s1

> <PUBCHEM_IUPAC_INCHIKEY>
SJRACCTZSAUMGO-WIMVFMHDSA-N

> <PUBCHEM_XLOGP3_AA>
-0.6

> <PUBCHEM_EXACT_MASS>
408.105647

> <PUBCHEM_MOLECULAR_FORMULA>
C19H20O10

> <PUBCHEM_MOLECULAR_WEIGHT>
408.3561

> <PUBCHEM_OPENEYE_CAN_SMILES>
COC1=C2C=COC2=CC3=C1C(=O)C=C(O3)COC4C(C(C(C(O4)CO)O)O)O

> <PUBCHEM_OPENEYE_ISO_SMILES>
COC1=C2C=COC2=CC3=C1C(=O)C=C(O3)CO[C@H]4[C@@H]([C@H]([C@@H]([C@H](O4)CO)O)O)O

> <PUBCHEM_CACTVS_TPSA>
148

> <PUBCHEM_MONOISOTOPIC_WEIGHT>
408.105647

> <PUBCHEM_TOTAL_CHARGE>
0

> <PUBCHEM_HEAVY_ATOM_COUNT>
29

> <PUBCHEM_ATOM_DEF_STEREO_COUNT>
5

> <PUBCHEM_ATOM_UDEF_STEREO_COUNT>
0

> <PUBCHEM_BOND_DEF_STEREO_COUNT>
0

> <PUBCHEM_BOND_UDEF_STEREO_COUNT>
0

> <PUBCHEM_ISOTOPIC_ATOM_COUNT>
0

> <PUBCHEM_COMPONENT_COUNT>
1

> <PUBCHEM_CACTVS_TAUTO_COUNT>
1

> <PUBCHEM_COORDINATE_TYPE>
1
5
255

> <PUBCHEM_BONDANNOTATIONS>
14  16  6
18  21  8
19  20  8
19  22  8
19  23  8
15  2  6
20  26  8
21  22  8
23  24  8
24  25  8
24  27  8
25  26  8
27  28  8
11  3  6
12  4  5
13  5  5
7  18  8
7  20  8
8  25  8
8  28  8

$$$$

