10238
  -OEChem-07051212443D

 41 43  0     1  0  0  0  0  0999 V2000
    2.6474   -1.9724   -0.7313 S   0  0  0  0  0  0  0  0  0  0  0  0
    3.2578    0.5078    0.2557 P   0  0  1  0  0  0  0  0  0  0  0  0
   -0.0111    1.5607   -0.7944 O   0  0  0  0  0  0  0  0  0  0  0  0
   -2.2037    3.8921   -1.0196 O   0  0  0  0  0  0  0  0  0  0  0  0
   -1.0039    4.2218    1.4061 O   0  0  0  0  0  0  0  0  0  0  0  0
    2.5938    1.9833    0.2115 O   0  0  0  0  0  0  0  0  0  0  0  0
    2.1502   -0.4433   -0.4472 O   0  0  0  0  0  0  0  0  0  0  0  0
    4.4116    0.5861   -0.8781 O   0  0  0  0  0  0  0  0  0  0  0  0
    3.7476    0.0488    1.5989 O   0  0  0  0  0  0  0  0  0  0  0  0
    1.2858   -2.6952   -1.2623 O   0  0  0  0  0  0  0  0  0  0  0  0
    3.0047   -2.5922    0.5306 O   0  0  0  0  0  0  0  0  0  0  0  0
    3.5867   -1.9513   -1.8367 O   0  0  0  0  0  0  0  0  0  0  0  0
   -2.0170    0.2933   -0.8627 N   0  0  0  0  0  0  0  0  0  0  0  0
   -3.3667   -1.4620   -1.1368 N   0  0  0  0  0  0  0  0  0  0  0  0
   -0.6862   -0.4958    1.0104 N   0  0  0  0  0  0  0  0  0  0  0  0
   -1.3792   -2.7275    1.7144 N   0  0  0  0  0  0  0  0  0  0  0  0
   -3.1544   -3.9201    0.6402 N   0  0  0  0  0  0  0  0  0  0  0  0
   -2.0364    2.7171   -0.2280 C   0  0  2  0  0  0  0  0  0  0  0  0
   -0.9881    2.9250    0.8489 C   0  0  1  0  0  0  0  0  0  0  0  0
   -1.4234    1.6120   -1.0898 C   0  0  1  0  0  0  0  0  0  0  0  0
    0.3030    2.6390    0.1020 C   0  0  1  0  0  0  0  0  0  0  0  0
    1.4507    2.2349    1.0099 C   0  0  0  0  0  0  0  0  0  0  0  0
   -1.6544   -0.6176    0.0899 C   0  0  0  0  0  0  0  0  0  0  0  0
   -3.0500   -0.2609   -1.5734 C   0  0  0  0  0  0  0  0  0  0  0  0
   -2.5022   -1.6976   -0.0974 C   0  0  0  0  0  0  0  0  0  0  0  0
   -2.3388   -2.7815    0.7594 C   0  0  0  0  0  0  0  0  0  0  0  0
   -0.6238   -1.6045    1.7796 C   0  0  0  0  0  0  0  0  0  0  0  0
   -3.0164    2.4698    0.1925 H   0  0  0  0  0  0  0  0  0  0  0  0
   -1.1449    2.1939    1.6509 H   0  0  0  0  0  0  0  0  0  0  0  0
   -1.5234    1.8168   -2.1622 H   0  0  0  0  0  0  0  0  0  0  0  0
    0.6098    3.4961   -0.5114 H   0  0  0  0  0  0  0  0  0  0  0  0
    1.2017    1.3444    1.5953 H   0  0  0  0  0  0  0  0  0  0  0  0
    1.6983    3.0403    1.7079 H   0  0  0  0  0  0  0  0  0  0  0  0
   -2.8538    3.6847   -1.7124 H   0  0  0  0  0  0  0  0  0  0  0  0
   -0.2785    4.2758    2.0509 H   0  0  0  0  0  0  0  0  0  0  0  0
   -3.5298    0.2565   -2.3930 H   0  0  0  0  0  0  0  0  0  0  0  0
    0.1362   -1.5959    2.5535 H   0  0  0  0  0  0  0  0  0  0  0  0
   -3.8710   -3.9628   -0.0716 H   0  0  0  0  0  0  0  0  0  0  0  0
   -3.0161   -4.6948    1.2747 H   0  0  0  0  0  0  0  0  0  0  0  0
    5.2581    1.0320   -0.6619 H   0  0  0  0  0  0  0  0  0  0  0  0
    0.7688   -2.1838   -1.9283 H   0  0  0  0  0  0  0  0  0  0  0  0
  1  7  1  0  0  0  0
  1 10  1  0  0  0  0
  1 11  2  0  0  0  0
  1 12  2  0  0  0  0
  2  6  1  0  0  0  0
  2  7  1  0  0  0  0
  2  8  1  0  0  0  0
  2  9  2  0  0  0  0
  3 20  1  0  0  0  0
  3 21  1  0  0  0  0
  4 18  1  0  0  0  0
  4 34  1  0  0  0  0
  5 19  1  0  0  0  0
  5 35  1  0  0  0  0
  6 22  1  0  0  0  0
  8 40  1  0  0  0  0
 10 41  1  0  0  0  0
 13 20  1  0  0  0  0
 13 23  1  0  0  0  0
 13 24  1  0  0  0  0
 14 24  2  0  0  0  0
 14 25  1  0  0  0  0
 15 23  2  0  0  0  0
 15 27  1  0  0  0  0
 16 26  1  0  0  0  0
 16 27  2  0  0  0  0
 17 26  1  0  0  0  0
 17 38  1  0  0  0  0
 17 39  1  0  0  0  0
 18 19  1  0  0  0  0
 18 20  1  0  0  0  0
 18 28  1  0  0  0  0
 19 21  1  0  0  0  0
 19 29  1  0  0  0  0
 20 30  1  0  0  0  0
 21 22  1  0  0  0  0
 21 31  1  0  0  0  0
 22 32  1  0  0  0  0
 22 33  1  0  0  0  0
 23 25  1  0  0  0  0
 24 36  1  0  0  0  0
 25 26  2  0  0  0  0
 27 37  1  0  0  0  0
M  END
> <PUBCHEM_COMPOUND_CID>
10238

> <PUBCHEM_CONFORMER_RMSD>
0.8

> <PUBCHEM_CONFORMER_DIVERSEORDER>
1
236
351
59
264
210
339
150
134
70
334
2
235
221
190
53
273
31
313
233
95
113
58
51
76
355
243
136
28
250
222
81
204
34
154
371
62
341
214
36
165
284
132
35
258
141
73
277
66
373
89
145
22
374
60
93
314
261
39
115
224
88
276
324
212
106
357
320
252
312
180
195
375
33
23
246
220
216
91
335
197
8
12
79
248
193
230
20
19
367
86
173
174
54
354
121
232
376
238
329
57
326
170
85
119
352
223
331
253
13
328
183
350
129
256
148
75
105
30
289
37
327
245
137
301
263
100
178
189
358
43
218
52
125
5
234
191
156
293
131
319
213
84
247
295
46
56
242
306
80
266
146
143
144
45
182
272
307
200
126
167
363
67
124
290
50
208
72
14
345
337
47
169
135
16
259
244
372
340
48
308
280
138
199
118
209
343
344
325
133
55
77
255
94
101
116
151
41
359
42
163
378
153
283
251
120
168
104
149
366
225
268
92
291
229
127
160
231
194
202
198
315
166
155
9
311
97
299
159
187
362
32
260
227
278
7
361
21
74
111
196
300
4
140
99
257
164
122
176
63
203
10
38
241
353
274
142
96
107
349
44
123
226
279
114
24
219
369
365
172
285
15
205
78
270
302
211
346
18
26
275
318
161
298
228
288
87
377
217
360
65
364
29
179
249
40
103
152
332
3
69
281
282
17
286
90
68
112
330
304
177
110
192
49
181
240
185
356
109
139
267
287
309
262
98
27
130
271
207
186
254
171
158
128
321
239
342
303
296
368
71
175
6
297
25
370
201
188
310
11
322
162
82
292
316
83
347
147
269
108
317
215
348
323
184
206
237
117
294
61
265
157
338
336
102
64
305
333

> <PUBCHEM_MMFF94_PARTIAL_CHARGES>
35
1 1.67
10 -0.68
11 -0.65
12 -0.65
13 0.05
14 -0.57
15 -0.57
16 -0.62
17 -0.9
18 0.28
19 0.28
2 1.51
20 0.54
21 0.28
22 0.28
23 0.11
24 0.04
25 0.23
26 0.41
27 0.47
3 -0.56
34 0.4
35 0.4
36 0.15
37 0.15
38 0.4
39 0.4
4 -0.68
40 0.5
41 0.5
5 -0.68
6 -0.55
7 -0.45
8 -0.77
9 -0.7

> <PUBCHEM_EFFECTIVE_ROTOR_COUNT>
7

> <PUBCHEM_PHARMACOPHORE_FEATURES>
19
1 10 acceptor
1 11 acceptor
1 12 acceptor
1 17 cation
1 17 donor
1 3 acceptor
1 4 acceptor
1 4 donor
1 5 acceptor
1 5 donor
1 8 acceptor
1 9 acceptor
3 13 14 24 cation
3 13 15 23 cation
3 15 16 27 cation
4 1 10 11 12 anion
5 13 14 23 24 25 rings
5 3 18 19 20 21 rings
6 15 16 23 25 26 27 rings

> <PUBCHEM_HEAVY_ATOM_COUNT>
27

> <PUBCHEM_ATOM_DEF_STEREO_COUNT>
4

> <PUBCHEM_ATOM_UDEF_STEREO_COUNT>
0

> <PUBCHEM_BOND_DEF_STEREO_COUNT>
0

> <PUBCHEM_BOND_UDEF_STEREO_COUNT>
0

> <PUBCHEM_ISOTOPIC_ATOM_COUNT>
0

> <PUBCHEM_COMPONENT_COUNT>
1

> <PUBCHEM_CACTVS_TAUTO_COUNT>
3

> <PUBCHEM_CONFORMER_ID>
000027FE00000001

> <PUBCHEM_MMFF94_ENERGY>
36.5975

> <PUBCHEM_FEATURE_SELFOVERLAP>
97.106

> <PUBCHEM_SHAPE_FINGERPRINT>
10366900 7 18337959995649428652
1100329 8 17905901618478559561
11578080 2 16372166289090326817
11582403 64 15889204518273889237
12035759 4 17689739857678346461
12156800 1 16035961011924814874
12553582 1 18410571743289578440
12788726 201 18411426132628168177
13140716 1 18266181634325613200
13402501 40 18053948350866113498
14363568 33 17618768172927302688
14790565 3 18268435818542837085
17357779 13 18336542716592441596
19591789 44 18196093468035722305
19930381 70 18118135679464224991
20600515 1 17988659466478244244
20905425 154 17985005703228659003
23419403 2 17480611264100579255
23557571 272 18263098732934111266
23558518 356 18266464384981301164
23559900 14 18198641959805681104
238 59 17472161478417284919
2748010 2 17764322647272259445
35225 105 17837736239699747155
495365 180 17111563390652055707
5309563 4 18120935010103696151
6443956 14 18051965918811529235
81228 2 18411415145964915281
84936 31 17468751893038990355
9709674 26 18409453604736520012

> <PUBCHEM_SHAPE_MULTIPOLES>
479.75
6.08
5.26
1.59
4.33
2.37
0.09
-3.65
-1.29
-2.6
0.96
-0.03
-0.43
1.59

> <PUBCHEM_SHAPE_SELFOVERLAP>
1002.246

> <PUBCHEM_SHAPE_VOLUME>
274.1

> <PUBCHEM_COORDINATE_TYPE>
2
5
10

$$$$

