442006
  -OEChem-07051212563D

 90 94  0     1  0  0  0  0  0999 V2000
    3.8237   -0.2717    1.9599 O   0  0  0  0  0  0  0  0  0  0  0  0
   -0.8755   -3.1278    0.2446 O   0  0  0  0  0  0  0  0  0  0  0  0
    0.8147   -0.2768    2.0370 O   0  0  0  0  0  0  0  0  0  0  0  0
    2.6265    1.3187   -1.5134 O   0  0  0  0  0  0  0  0  0  0  0  0
    5.2740    1.6489   -0.8334 O   0  0  0  0  0  0  0  0  0  0  0  0
    6.4752   -0.8989   -0.3120 O   0  0  0  0  0  0  0  0  0  0  0  0
    3.5220    4.0621   -0.9561 O   0  0  0  0  0  0  0  0  0  0  0  0
   -1.6380   -4.0737   -1.7125 O   0  0  0  0  0  0  0  0  0  0  0  0
    1.5062   -2.3882    0.2571 C   0  0  1  0  0  0  0  0  0  0  0  0
    0.1790   -2.4402   -0.4447 C   0  0  1  0  0  0  0  0  0  0  0  0
    1.3347   -3.2573   -0.9596 C   0  0  0  0  0  0  0  0  0  0  0  0
    2.2030   -1.0403    0.1922 C   0  0  1  0  0  0  0  0  0  0  0  0
    1.1944    0.0625    0.6839 C   0  0  1  0  0  0  0  0  0  0  0  0
    3.5561   -1.1063    0.8392 C   0  0  1  0  0  0  0  0  0  0  0  0
   -0.2408   -1.1828   -1.1431 C   0  0  0  0  0  0  0  0  0  0  0  0
   -0.1092    0.0624   -0.2264 C   0  0  1  0  0  0  0  0  0  0  0  0
    4.5643    0.0268    0.7576 C   0  0  1  0  0  0  0  0  0  0  0  0
    1.8580    1.4720    0.8256 C   0  0  1  0  0  0  0  0  0  0  0  0
    2.0125   -2.8999   -2.2394 C   0  0  0  0  0  0  0  0  0  0  0  0
    1.3032   -4.7327   -0.7271 C   0  0  0  0  0  0  0  0  0  0  0  0
    2.9400    1.8127   -0.2176 C   0  0  1  0  0  0  0  0  0  0  0  0
    4.3524    1.4261    0.2396 C   0  0  2  0  0  0  0  0  0  0  0  0
   -1.4208    0.2242    0.5620 C   0  0  0  0  0  0  0  0  0  0  0  0
    6.0015   -0.3695    0.9148 C   0  0  0  0  0  0  0  0  0  0  0  0
    0.9634    2.6865    0.8149 C   0  0  0  0  0  0  0  0  0  0  0  0
    2.7470    3.3068   -0.3874 C   0  0  0  0  0  0  0  0  0  0  0  0
    1.4539    3.7461    0.1663 C   0  0  0  0  0  0  0  0  0  0  0  0
   -1.7190   -3.9150   -0.5024 C   0  0  0  0  0  0  0  0  0  0  0  0
    0.9080    5.1114    0.0202 C   0  0  0  0  0  0  0  0  0  0  0  0
   -2.7760   -4.5241    0.3911 C   0  0  0  0  0  0  0  0  0  0  0  0
   -3.5759   -3.4827    1.1736 C   0  0  0  0  0  0  0  0  0  0  0  0
   -4.3068   -2.4966    0.2572 C   0  0  0  0  0  0  0  0  0  0  0  0
   -5.0748   -1.4509    1.0683 C   0  0  0  0  0  0  0  0  0  0  0  0
   -5.7781   -0.4449    0.1542 C   0  0  0  0  0  0  0  0  0  0  0  0
   -6.5183    0.6192    0.9669 C   0  0  0  0  0  0  0  0  0  0  0  0
   -7.3168    1.6008    0.1034 C   0  0  0  0  0  0  0  0  0  0  0  0
   -6.4975    2.4777   -0.8502 C   0  0  0  0  0  0  0  0  0  0  0  0
   -5.4375    3.3231   -0.1401 C   0  0  0  0  0  0  0  0  0  0  0  0
   -4.6820    4.2635   -1.0829 C   0  0  0  0  0  0  0  0  0  0  0  0
   -3.6464    5.1285   -0.3814 C   0  0  0  0  0  0  0  0  0  0  0  0
    1.5658   -2.8492    1.2367 H   0  0  0  0  0  0  0  0  0  0  0  0
    2.4334   -0.8268   -0.8477 H   0  0  0  0  0  0  0  0  0  0  0  0
    3.9610   -2.1131    0.8429 H   0  0  0  0  0  0  0  0  0  0  0  0
    0.3327   -0.9884   -2.0520 H   0  0  0  0  0  0  0  0  0  0  0  0
   -1.2730   -1.2807   -1.5020 H   0  0  0  0  0  0  0  0  0  0  0  0
   -0.0628    0.9140   -0.9150 H   0  0  0  0  0  0  0  0  0  0  0  0
    2.3066    1.5348    1.8290 H   0  0  0  0  0  0  0  0  0  0  0  0
    1.4983   -3.3872   -3.0765 H   0  0  0  0  0  0  0  0  0  0  0  0
    2.0775   -1.8434   -2.4973 H   0  0  0  0  0  0  0  0  0  0  0  0
    3.0426   -3.2757   -2.2293 H   0  0  0  0  0  0  0  0  0  0  0  0
    0.7509   -5.2466   -1.5205 H   0  0  0  0  0  0  0  0  0  0  0  0
    2.3232   -5.1343   -0.7246 H   0  0  0  0  0  0  0  0  0  0  0  0
    0.8574   -5.0106    0.2342 H   0  0  0  0  0  0  0  0  0  0  0  0
    4.6568    2.1095    1.0442 H   0  0  0  0  0  0  0  0  0  0  0  0
   -2.2714    0.3105   -0.1235 H   0  0  0  0  0  0  0  0  0  0  0  0
   -1.4246    1.1239    1.1804 H   0  0  0  0  0  0  0  0  0  0  0  0
   -1.6096   -0.6346    1.2138 H   0  0  0  0  0  0  0  0  0  0  0  0
    6.1289   -1.1400    1.6842 H   0  0  0  0  0  0  0  0  0  0  0  0
    6.6245    0.4857    1.1989 H   0  0  0  0  0  0  0  0  0  0  0  0
    0.3202    0.4673    2.4191 H   0  0  0  0  0  0  0  0  0  0  0  0
    0.0426    2.7353    1.3794 H   0  0  0  0  0  0  0  0  0  0  0  0
    1.7223    1.5838   -1.7487 H   0  0  0  0  0  0  0  0  0  0  0  0
    5.2228    2.5884   -1.0780 H   0  0  0  0  0  0  0  0  0  0  0  0
    7.4071   -1.1425   -0.1784 H   0  0  0  0  0  0  0  0  0  0  0  0
    0.7488    5.3486   -1.0363 H   0  0  0  0  0  0  0  0  0  0  0  0
   -0.0515    5.2158    0.5369 H   0  0  0  0  0  0  0  0  0  0  0  0
    1.5989    5.8490    0.4401 H   0  0  0  0  0  0  0  0  0  0  0  0
   -3.4512   -5.1146   -0.2390 H   0  0  0  0  0  0  0  0  0  0  0  0
   -2.2812   -5.2221    1.0754 H   0  0  0  0  0  0  0  0  0  0  0  0
   -2.9098   -2.9306    1.8475 H   0  0  0  0  0  0  0  0  0  0  0  0
   -4.3056   -4.0022    1.8063 H   0  0  0  0  0  0  0  0  0  0  0  0
   -5.0017   -3.0444   -0.3907 H   0  0  0  0  0  0  0  0  0  0  0  0
   -3.5914   -1.9858   -0.3968 H   0  0  0  0  0  0  0  0  0  0  0  0
   -5.8143   -1.9501    1.7060 H   0  0  0  0  0  0  0  0  0  0  0  0
   -4.3813   -0.9193    1.7313 H   0  0  0  0  0  0  0  0  0  0  0  0
   -6.4864   -0.9718   -0.4962 H   0  0  0  0  0  0  0  0  0  0  0  0
   -5.0345    0.0326   -0.4939 H   0  0  0  0  0  0  0  0  0  0  0  0
   -7.2231    0.1179    1.6428 H   0  0  0  0  0  0  0  0  0  0  0  0
   -5.8150    1.1598    1.6099 H   0  0  0  0  0  0  0  0  0  0  0  0
   -7.8896    2.2557    0.7722 H   0  0  0  0  0  0  0  0  0  0  0  0
   -8.0555    1.0421   -0.4845 H   0  0  0  0  0  0  0  0  0  0  0  0
   -6.0185    1.8524   -1.6123 H   0  0  0  0  0  0  0  0  0  0  0  0
   -7.1880    3.1417   -1.3848 H   0  0  0  0  0  0  0  0  0  0  0  0
   -4.7059    2.6696    0.3486 H   0  0  0  0  0  0  0  0  0  0  0  0
   -5.9165    3.9149    0.6495 H   0  0  0  0  0  0  0  0  0  0  0  0
   -5.3988    4.9178   -1.5935 H   0  0  0  0  0  0  0  0  0  0  0  0
   -4.1825    3.6725   -1.8599 H   0  0  0  0  0  0  0  0  0  0  0  0
   -3.1402    5.7774   -1.1028 H   0  0  0  0  0  0  0  0  0  0  0  0
   -4.1165    5.7622    0.3773 H   0  0  0  0  0  0  0  0  0  0  0  0
   -2.8892    4.5088    0.1096 H   0  0  0  0  0  0  0  0  0  0  0  0
  1 14  1  0  0  0  0
  1 17  1  0  0  0  0
  2 10  1  0  0  0  0
  2 28  1  0  0  0  0
  3 13  1  0  0  0  0
  3 60  1  0  0  0  0
  4 21  1  0  0  0  0
  4 62  1  0  0  0  0
  5 22  1  0  0  0  0
  5 63  1  0  0  0  0
  6 24  1  0  0  0  0
  6 64  1  0  0  0  0
  7 26  2  0  0  0  0
  8 28  2  0  0  0  0
  9 10  1  0  0  0  0
  9 11  1  0  0  0  0
  9 12  1  0  0  0  0
  9 41  1  0  0  0  0
 10 11  1  0  0  0  0
 10 15  1  0  0  0  0
 11 19  1  0  0  0  0
 11 20  1  0  0  0  0
 12 13  1  0  0  0  0
 12 14  1  0  0  0  0
 12 42  1  0  0  0  0
 13 16  1  0  0  0  0
 13 18  1  0  0  0  0
 14 17  1  0  0  0  0
 14 43  1  0  0  0  0
 15 16  1  0  0  0  0
 15 44  1  0  0  0  0
 15 45  1  0  0  0  0
 16 23  1  0  0  0  0
 16 46  1  0  0  0  0
 17 22  1  0  0  0  0
 17 24  1  0  0  0  0
 18 21  1  0  0  0  0
 18 25  1  0  0  0  0
 18 47  1  0  0  0  0
 19 48  1  0  0  0  0
 19 49  1  0  0  0  0
 19 50  1  0  0  0  0
 20 51  1  0  0  0  0
 20 52  1  0  0  0  0
 20 53  1  0  0  0  0
 21 22  1  0  0  0  0
 21 26  1  0  0  0  0
 22 54  1  0  0  0  0
 23 55  1  0  0  0  0
 23 56  1  0  0  0  0
 23 57  1  0  0  0  0
 24 58  1  0  0  0  0
 24 59  1  0  0  0  0
 25 27  2  0  0  0  0
 25 61  1  0  0  0  0
 26 27  1  0  0  0  0
 27 29  1  0  0  0  0
 28 30  1  0  0  0  0
 29 65  1  0  0  0  0
 29 66  1  0  0  0  0
 29 67  1  0  0  0  0
 30 31  1  0  0  0  0
 30 68  1  0  0  0  0
 30 69  1  0  0  0  0
 31 32  1  0  0  0  0
 31 70  1  0  0  0  0
 31 71  1  0  0  0  0
 32 33  1  0  0  0  0
 32 72  1  0  0  0  0
 32 73  1  0  0  0  0
 33 34  1  0  0  0  0
 33 74  1  0  0  0  0
 33 75  1  0  0  0  0
 34 35  1  0  0  0  0
 34 76  1  0  0  0  0
 34 77  1  0  0  0  0
 35 36  1  0  0  0  0
 35 78  1  0  0  0  0
 35 79  1  0  0  0  0
 36 37  1  0  0  0  0
 36 80  1  0  0  0  0
 36 81  1  0  0  0  0
 37 38  1  0  0  0  0
 37 82  1  0  0  0  0
 37 83  1  0  0  0  0
 38 39  1  0  0  0  0
 38 84  1  0  0  0  0
 38 85  1  0  0  0  0
 39 40  1  0  0  0  0
 39 86  1  0  0  0  0
 39 87  1  0  0  0  0
 40 88  1  0  0  0  0
 40 89  1  0  0  0  0
 40 90  1  0  0  0  0
M  END
> <PUBCHEM_COMPOUND_CID>
442006

> <PUBCHEM_CONFORMER_RMSD>
1.2

> <PUBCHEM_CONFORMER_DIVERSEORDER>
1
40
63
57
60
52
66
34
61
64
9
16
49
3
23
50
7
11
10
32
12
39
20
4
15
67
58
31
24
45
71
35
30
38
48
19
17
6
22
62
42
14
13
72
47
43
70
41
28
53
51
36
29
25
55
59
18
8
68
44
2
46
65
26
27
54
56
69
21
37
5
33

> <PUBCHEM_MMFF94_PARTIAL_CHARGES>
35
1 -0.3
10 0.05
11 -0.19
12 0.19
13 0.28
14 -0.05
15 0.09
17 -0.04
18 0.14
19 0.09
2 -0.3
20 0.09
21 0.34
22 0.38
24 0.38
25 -0.29
26 0.49
27 -0.12
28 0.66
29 0.14
3 -0.68
30 0.06
4 -0.68
41 0.1
43 0.1
5 -0.68
6 -0.68
60 0.4
61 0.15
62 0.4
63 0.4
64 0.4
7 -0.57
8 -0.57
9 -0.19

> <PUBCHEM_EFFECTIVE_ROTOR_COUNT>
14

> <PUBCHEM_PHARMACOPHORE_FEATURES>
16
1 1 acceptor
1 3 acceptor
1 3 donor
1 4 acceptor
1 4 donor
1 40 hydrophobe
1 5 acceptor
1 5 donor
1 6 acceptor
1 6 donor
1 7 acceptor
1 8 acceptor
3 11 19 20 hydrophobe
5 18 21 25 26 27 rings
7 12 13 14 17 18 21 22 rings
7 9 10 11 12 13 15 16 rings

> <PUBCHEM_HEAVY_ATOM_COUNT>
40

> <PUBCHEM_ATOM_DEF_STEREO_COUNT>
10

> <PUBCHEM_ATOM_UDEF_STEREO_COUNT>
0

> <PUBCHEM_BOND_DEF_STEREO_COUNT>
0

> <PUBCHEM_BOND_UDEF_STEREO_COUNT>
0

> <PUBCHEM_ISOTOPIC_ATOM_COUNT>
0

> <PUBCHEM_COMPONENT_COUNT>
1

> <PUBCHEM_CACTVS_TAUTO_COUNT>
3

> <PUBCHEM_CONFORMER_ID>
0006BE9600000001

> <PUBCHEM_MMFF94_ENERGY>
97.6486

> <PUBCHEM_FEATURE_SELFOVERLAP>
81.239

> <PUBCHEM_SHAPE_FINGERPRINT>
10675989 125 17547294862272318601
11204353 107 18267305322567729105
12422481 6 18339641127285422762
14040221 299 18337389443957951549
14117953 113 18335979847974548887
14790565 3 17977379443418640802
14955137 171 18410571756833928362
15320291 9 18050004399127510037
15320467 1 18411419536207709081
19246450 95 18338252500361424266
21792964 463 17487320561278654260
22121540 332 18264768933867112935
22122407 14 18198058067322868627
22889206 1 17915747672724652355
23559900 14 17027936864226847382
4144715 1 18127402363474534706
437795 96 18412543232901447329
50677037 204 17110724467633370265

> <PUBCHEM_SHAPE_MULTIPOLES>
776.23
14.14
7.97
1.38
16.91
1.64
0.13
8.8
-1.45
5.08
2.37
-0.48
-0.63
1.66

> <PUBCHEM_SHAPE_SELFOVERLAP>
1622.48

> <PUBCHEM_SHAPE_VOLUME>
435.9

> <PUBCHEM_COORDINATE_TYPE>
2
5
10

$$$$

