440229
  -OEChem-07051212493D

 48 51  0     1  0  0  0  0  0999 V2000
    4.3453   -1.4891    0.1423 O   0  0  0  0  0  0  0  0  0  0  0  0
   -6.1916    0.1073   -0.1265 O   0  0  0  0  0  0  0  0  0  0  0  0
    5.8402    0.8111   -0.1062 O   0  0  0  0  0  0  0  0  0  0  0  0
   -4.8104    2.2402    0.9954 O   0  0  0  0  0  0  0  0  0  0  0  0
    0.0964   -1.2956   -0.2263 N   0  0  2  0  0  0  0  0  0  0  0  0
   -0.5241   -0.1455    0.4763 C   0  0  1  0  0  0  0  0  0  0  0  0
    0.1787    1.1376   -0.0319 C   0  0  0  0  0  0  0  0  0  0  0  0
   -0.6602   -2.5311   -0.0067 C   0  0  0  0  0  0  0  0  0  0  0  0
   -2.0393   -0.0677    0.2989 C   0  0  0  0  0  0  0  0  0  0  0  0
    1.4947   -1.4675    0.2038 C   0  0  0  0  0  0  0  0  0  0  0  0
   -2.0316   -2.4052   -0.6654 C   0  0  0  0  0  0  0  0  0  0  0  0
    1.6848    1.0401   -0.0347 C   0  0  0  0  0  0  0  0  0  0  0  0
   -2.7545   -1.1607   -0.2264 C   0  0  0  0  0  0  0  0  0  0  0  0
    2.3150   -0.2115    0.0449 C   0  0  0  0  0  0  0  0  0  0  0  0
   -2.7588    1.0614    0.7244 C   0  0  0  0  0  0  0  0  0  0  0  0
    3.7144   -0.2837    0.0316 C   0  0  0  0  0  0  0  0  0  0  0  0
   -4.1467   -1.0832   -0.3794 C   0  0  0  0  0  0  0  0  0  0  0  0
    2.4616    2.1990   -0.1659 C   0  0  0  0  0  0  0  0  0  0  0  0
   -4.1460    1.1251    0.5813 C   0  0  0  0  0  0  0  0  0  0  0  0
   -4.8389    0.0565    0.0227 C   0  0  0  0  0  0  0  0  0  0  0  0
    4.4794    0.8761   -0.0885 C   0  0  0  0  0  0  0  0  0  0  0  0
    3.8535    2.1159   -0.1904 C   0  0  0  0  0  0  0  0  0  0  0  0
    4.6621   -1.9333    1.4588 C   0  0  0  0  0  0  0  0  0  0  0  0
   -6.6893    0.6403   -1.3526 C   0  0  0  0  0  0  0  0  0  0  0  0
    6.4654    0.6638   -1.3794 C   0  0  0  0  0  0  0  0  0  0  0  0
   -0.3482   -0.2519    1.5576 H   0  0  0  0  0  0  0  0  0  0  0  0
   -0.1025    1.9879    0.6009 H   0  0  0  0  0  0  0  0  0  0  0  0
   -0.1474    1.3656   -1.0559 H   0  0  0  0  0  0  0  0  0  0  0  0
   -0.7645   -2.7441    1.0658 H   0  0  0  0  0  0  0  0  0  0  0  0
   -0.1431   -3.3855   -0.4604 H   0  0  0  0  0  0  0  0  0  0  0  0
    1.9429   -2.2590   -0.4095 H   0  0  0  0  0  0  0  0  0  0  0  0
    1.5366   -1.7815    1.2546 H   0  0  0  0  0  0  0  0  0  0  0  0
   -2.6253   -3.2916   -0.4115 H   0  0  0  0  0  0  0  0  0  0  0  0
   -1.9231   -2.3771   -1.7571 H   0  0  0  0  0  0  0  0  0  0  0  0
   -2.2436    1.9031    1.1800 H   0  0  0  0  0  0  0  0  0  0  0  0
   -4.6924   -1.9212   -0.8073 H   0  0  0  0  0  0  0  0  0  0  0  0
    1.9850    3.1726   -0.2476 H   0  0  0  0  0  0  0  0  0  0  0  0
    4.4431    3.0236   -0.2871 H   0  0  0  0  0  0  0  0  0  0  0  0
   -5.7635    2.1008    0.8598 H   0  0  0  0  0  0  0  0  0  0  0  0
    5.0699   -2.9455    1.3890 H   0  0  0  0  0  0  0  0  0  0  0  0
    3.7722   -1.9596    2.0947 H   0  0  0  0  0  0  0  0  0  0  0  0
    5.4199   -1.2832    1.9070 H   0  0  0  0  0  0  0  0  0  0  0  0
   -6.3790    0.0134   -2.1945 H   0  0  0  0  0  0  0  0  0  0  0  0
   -6.3396    1.6669   -1.5005 H   0  0  0  0  0  0  0  0  0  0  0  0
   -7.7816    0.6463   -1.3049 H   0  0  0  0  0  0  0  0  0  0  0  0
    6.2382    1.5221   -2.0196 H   0  0  0  0  0  0  0  0  0  0  0  0
    6.1408   -0.2627   -1.8637 H   0  0  0  0  0  0  0  0  0  0  0  0
    7.5471    0.6179   -1.2267 H   0  0  0  0  0  0  0  0  0  0  0  0
  1 16  1  0  0  0  0
  1 23  1  0  0  0  0
  2 20  1  0  0  0  0
  2 24  1  0  0  0  0
  3 21  1  0  0  0  0
  3 25  1  0  0  0  0
  4 19  1  0  0  0  0
  4 39  1  0  0  0  0
  5  6  1  0  0  0  0
  5  8  1  0  0  0  0
  5 10  1  0  0  0  0
  6  7  1  0  0  0  0
  6  9  1  0  0  0  0
  6 26  1  0  0  0  0
  7 12  1  0  0  0  0
  7 27  1  0  0  0  0
  7 28  1  0  0  0  0
  8 11  1  0  0  0  0
  8 29  1  0  0  0  0
  8 30  1  0  0  0  0
  9 13  1  0  0  0  0
  9 15  2  0  0  0  0
 10 14  1  0  0  0  0
 10 31  1  0  0  0  0
 10 32  1  0  0  0  0
 11 13  1  0  0  0  0
 11 33  1  0  0  0  0
 11 34  1  0  0  0  0
 12 14  2  0  0  0  0
 12 18  1  0  0  0  0
 13 17  2  0  0  0  0
 14 16  1  0  0  0  0
 15 19  1  0  0  0  0
 15 35  1  0  0  0  0
 16 21  2  0  0  0  0
 17 20  1  0  0  0  0
 17 36  1  0  0  0  0
 18 22  2  0  0  0  0
 18 37  1  0  0  0  0
 19 20  2  0  0  0  0
 21 22  1  0  0  0  0
 22 38  1  0  0  0  0
 23 40  1  0  0  0  0
 23 41  1  0  0  0  0
 23 42  1  0  0  0  0
 24 43  1  0  0  0  0
 24 44  1  0  0  0  0
 24 45  1  0  0  0  0
 25 46  1  0  0  0  0
 25 47  1  0  0  0  0
 25 48  1  0  0  0  0
M  END
> <PUBCHEM_COMPOUND_CID>
440229

> <PUBCHEM_CONFORMER_RMSD>
0.8

> <PUBCHEM_CONFORMER_DIVERSEORDER>
2
4
5
3
1

> <PUBCHEM_MMFF94_PARTIAL_CHARGES>
30
1 -0.36
10 0.41
11 0.14
12 -0.14
13 -0.14
14 -0.14
15 -0.15
16 0.08
17 -0.15
18 -0.15
19 0.08
2 -0.36
20 0.08
21 0.08
22 -0.15
23 0.28
24 0.28
25 0.28
3 -0.36
35 0.15
36 0.15
37 0.15
38 0.15
39 0.45
4 -0.53
5 -0.81
6 0.41
7 0.14
8 0.27
9 -0.14

> <PUBCHEM_EFFECTIVE_ROTOR_COUNT>
3.8

> <PUBCHEM_PHARMACOPHORE_FEATURES>
9
1 1 acceptor
1 2 acceptor
1 3 acceptor
1 4 donor
1 5 cation
6 12 14 16 18 21 22 rings
6 5 6 7 10 12 14 rings
6 5 6 8 9 11 13 rings
6 9 13 15 17 19 20 rings

> <PUBCHEM_HEAVY_ATOM_COUNT>
25

> <PUBCHEM_ATOM_DEF_STEREO_COUNT>
1

> <PUBCHEM_ATOM_UDEF_STEREO_COUNT>
0

> <PUBCHEM_BOND_DEF_STEREO_COUNT>
0

> <PUBCHEM_BOND_UDEF_STEREO_COUNT>
0

> <PUBCHEM_ISOTOPIC_ATOM_COUNT>
0

> <PUBCHEM_COMPONENT_COUNT>
1

> <PUBCHEM_CACTVS_TAUTO_COUNT>
3

> <PUBCHEM_CONFORMER_ID>
0006B7A500000002

> <PUBCHEM_MMFF94_ENERGY>
101.3376

> <PUBCHEM_FEATURE_SELFOVERLAP>
45.741

> <PUBCHEM_SHAPE_FINGERPRINT>
10411042 1 17835806674509574418
10595046 47 18337391530599335205
10763959 59 17775288274436648997
12011746 2 18409445877694923556
12107183 9 18050004694751740648
12236239 1 18413674621433459867
12788726 201 18040709307465566272
12838862 33 18339098015748823588
13140716 1 18411422795713015962
13533116 47 17822292426699392230
13583140 156 17917138416839661523
13785724 45 17834113426676522610
14739800 52 17969800583373702040
14767858 380 18187379705731702719
14790565 3 18410851087936129912
14931854 50 18187085074753686477
15183329 4 18407759244016607253
15196674 1 18410012109045608763
15420108 30 16818252729376691866
1577012 14 18334574681099948145
17349148 13 17967813855412499152
18335252 114 18341346564978959717
18681886 176 17967814895585927552
20028762 73 18260554475564809958
20511986 3 18264504918058793696
20612939 158 18343021103148018348
21033648 29 16917082056934609445
21033650 10 16879319342816371209
21267235 1 18336536114958902931
21421861 104 17916879018886538802
21859007 373 17914642632940904005
22393880 68 18189614952229966134
23402539 116 18187087209204317413
23559900 14 18041283136755874808
23569917 315 18334576875871454503
25147074 1 18339094712908559798
2838139 119 18200605821128254445
29717793 49 17749101176143873300
300161 21 18409735032484433994
3004659 81 18410291437150477646
335352 9 18410291402906615382
345986 75 17842862154924926274
34797466 226 16515686602615361360
34934 24 18411702041949592954
350125 39 18410013243333732297
3545911 37 18408882910572091337
3680242 22 18339922744111742034
4017518 198 17603581938064723806
4073 2 17917143888654558682
4214541 1 18335980883035286809
474 4 18202280264786862329
5104073 3 18411699872184085275
543358 83 18412824673328352986
6328613 192 18341322285397239268
9981440 41 17331684544127219496

> <PUBCHEM_SHAPE_MULTIPOLES>
486.03
14.88
2.43
0.96
2.65
0.53
-0.04
-4.46
-2.89
-0.57
0.18
-0.06
0
-1.48

> <PUBCHEM_SHAPE_SELFOVERLAP>
1060.032

> <PUBCHEM_SHAPE_VOLUME>
264.9

> <PUBCHEM_COORDINATE_TYPE>
2
5
10

$$$$

