7567
  -OEChem-07051213043D

 41 42  0     0  0  0  0  0  0999 V2000
   -4.7732    0.9847   -0.3481 N   0  0  0  0  0  0  0  0  0  0  0  0
    4.7709    0.9857   -0.3481 N   0  0  0  0  0  0  0  0  0  0  0  0
   -0.0009   -1.9402    0.6833 C   0  0  0  0  0  0  0  0  0  0  0  0
   -1.2512   -1.1737    0.4128 C   0  0  0  0  0  0  0  0  0  0  0  0
    1.2696   -1.1609    0.4088 C   0  0  0  0  0  0  0  0  0  0  0  0
   -3.5901    0.2606   -0.0926 C   0  0  0  0  0  0  0  0  0  0  0  0
    3.5879    0.2613   -0.0929 C   0  0  0  0  0  0  0  0  0  0  0  0
   -1.8361   -1.2167   -0.8528 C   0  0  0  0  0  0  0  0  0  0  0  0
    1.8342   -0.4129    1.4258 C   0  0  0  0  0  0  0  0  0  0  0  0
   -1.8360   -0.4137    1.4258 C   0  0  0  0  0  0  0  0  0  0  0  0
    1.8340   -1.2166   -0.8525 C   0  0  0  0  0  0  0  0  0  0  0  0
   -3.0055   -0.4994   -1.1056 C   0  0  0  0  0  0  0  0  0  0  0  0
    3.0034    0.3045    1.1728 C   0  0  0  0  0  0  0  0  0  0  0  0
   -3.0055    0.3033    1.1731 C   0  0  0  0  0  0  0  0  0  0  0  0
    3.0033   -0.4995   -1.1055 C   0  0  0  0  0  0  0  0  0  0  0  0
   -5.7291    0.5070   -1.3273 C   0  0  0  0  0  0  0  0  0  0  0  0
   -5.0551    2.2087    0.3751 C   0  0  0  0  0  0  0  0  0  0  0  0
    5.7333    0.5015   -1.3178 C   0  0  0  0  0  0  0  0  0  0  0  0
    5.0461    2.2166    0.3658 C   0  0  0  0  0  0  0  0  0  0  0  0
    0.0048   -2.2924    1.7244 H   0  0  0  0  0  0  0  0  0  0  0  0
    0.0049   -2.8674    0.0931 H   0  0  0  0  0  0  0  0  0  0  0  0
   -1.3901   -1.8033   -1.6516 H   0  0  0  0  0  0  0  0  0  0  0  0
    1.3880   -0.3757    2.4153 H   0  0  0  0  0  0  0  0  0  0  0  0
   -1.3928   -0.3740    2.4173 H   0  0  0  0  0  0  0  0  0  0  0  0
    1.3850   -1.8044   -1.6477 H   0  0  0  0  0  0  0  0  0  0  0  0
   -3.4285   -0.5450   -2.1052 H   0  0  0  0  0  0  0  0  0  0  0  0
    3.4395    0.8767    1.9867 H   0  0  0  0  0  0  0  0  0  0  0  0
   -3.4416    0.8749    1.9874 H   0  0  0  0  0  0  0  0  0  0  0  0
    3.4267   -0.5452   -2.1049 H   0  0  0  0  0  0  0  0  0  0  0  0
   -5.4008    0.7533   -2.3425 H   0  0  0  0  0  0  0  0  0  0  0  0
   -6.7119    0.9684   -1.1784 H   0  0  0  0  0  0  0  0  0  0  0  0
   -5.8753   -0.5764   -1.2498 H   0  0  0  0  0  0  0  0  0  0  0  0
   -5.8038    2.8135   -0.1489 H   0  0  0  0  0  0  0  0  0  0  0  0
   -4.1596    2.8329    0.4726 H   0  0  0  0  0  0  0  0  0  0  0  0
   -5.4497    1.9882    1.3725 H   0  0  0  0  0  0  0  0  0  0  0  0
    5.8785   -0.5814   -1.2324 H   0  0  0  0  0  0  0  0  0  0  0  0
    6.7150    0.9638   -1.1654 H   0  0  0  0  0  0  0  0  0  0  0  0
    5.4115    0.7410   -2.3367 H   0  0  0  0  0  0  0  0  0  0  0  0
    5.7935    2.8200   -0.1614 H   0  0  0  0  0  0  0  0  0  0  0  0
    5.4391    2.0056    1.3659 H   0  0  0  0  0  0  0  0  0  0  0  0
    4.1478    2.8377    0.4565 H   0  0  0  0  0  0  0  0  0  0  0  0
  1  6  1  0  0  0  0
  1 16  1  0  0  0  0
  1 17  1  0  0  0  0
  2  7  1  0  0  0  0
  2 18  1  0  0  0  0
  2 19  1  0  0  0  0
  3  4  1  0  0  0  0
  3  5  1  0  0  0  0
  3 20  1  0  0  0  0
  3 21  1  0  0  0  0
  4  8  2  0  0  0  0
  4 10  1  0  0  0  0
  5  9  2  0  0  0  0
  5 11  1  0  0  0  0
  6 12  2  0  0  0  0
  6 14  1  0  0  0  0
  7 13  2  0  0  0  0
  7 15  1  0  0  0  0
  8 12  1  0  0  0  0
  8 22  1  0  0  0  0
  9 13  1  0  0  0  0
  9 23  1  0  0  0  0
 10 14  2  0  0  0  0
 10 24  1  0  0  0  0
 11 15  2  0  0  0  0
 11 25  1  0  0  0  0
 12 26  1  0  0  0  0
 13 27  1  0  0  0  0
 14 28  1  0  0  0  0
 15 29  1  0  0  0  0
 16 30  1  0  0  0  0
 16 31  1  0  0  0  0
 16 32  1  0  0  0  0
 17 33  1  0  0  0  0
 17 34  1  0  0  0  0
 17 35  1  0  0  0  0
 18 36  1  0  0  0  0
 18 37  1  0  0  0  0
 18 38  1  0  0  0  0
 19 39  1  0  0  0  0
 19 40  1  0  0  0  0
 19 41  1  0  0  0  0
M  END
> <PUBCHEM_COMPOUND_CID>
7567

> <PUBCHEM_CONFORMER_RMSD>
0.6

> <PUBCHEM_CONFORMER_DIVERSEORDER>
1
3
2
6
4
5
7

> <PUBCHEM_MMFF94_PARTIAL_CHARGES>
27
1 -0.84
10 -0.15
11 -0.15
12 -0.15
13 -0.15
14 -0.15
15 -0.15
16 0.37
17 0.37
18 0.37
19 0.37
2 -0.84
22 0.15
23 0.15
24 0.15
25 0.15
26 0.15
27 0.15
28 0.15
29 0.15
3 0.29
4 -0.14
5 -0.14
6 0.1
7 0.1
8 -0.15
9 -0.15

> <PUBCHEM_EFFECTIVE_ROTOR_COUNT>
4

> <PUBCHEM_PHARMACOPHORE_FEATURES>
4
1 1 cation
1 2 cation
6 4 6 8 10 12 14 rings
6 5 7 9 11 13 15 rings

> <PUBCHEM_HEAVY_ATOM_COUNT>
19

> <PUBCHEM_ATOM_DEF_STEREO_COUNT>
0

> <PUBCHEM_ATOM_UDEF_STEREO_COUNT>
0

> <PUBCHEM_BOND_DEF_STEREO_COUNT>
0

> <PUBCHEM_BOND_UDEF_STEREO_COUNT>
0

> <PUBCHEM_ISOTOPIC_ATOM_COUNT>
0

> <PUBCHEM_COMPONENT_COUNT>
1

> <PUBCHEM_CACTVS_TAUTO_COUNT>
1

> <PUBCHEM_CONFORMER_ID>
00001D8F00000001

> <PUBCHEM_MMFF94_ENERGY>
81.3661

> <PUBCHEM_FEATURE_SELFOVERLAP>
20.297

> <PUBCHEM_SHAPE_FINGERPRINT>
10014705 185 18337952294562141434
10498660 4 18407759231100076409
10670039 82 18336262439764536856
11089746 13 18412832369804122416
11796584 16 7420957421683190940
12251169 10 14405183962784318106
12363563 72 7348889992107053194
12507560 40 15195298563322722434
12596602 18 13758354470661690140
12633257 1 15051726469581912989
12670546 177 17167861967337547989
12892183 10 14476972223775785083
12954195 1 4678545603538515251
13103583 49 11599731709141419493
13675066 3 13326568605750973507
14123255 352 18342457023802885976
1420 369 8646773296005882616
14251764 30 5111713718206340477
14251764 38 17980200782066733436
14341114 176 13830134992554300806
14341114 328 15554440786614067436
14576447 43 14851599999351471446
14848178 5 8430314627857537009
15183329 4 17023177270940624172
15188451 53 11959433580174299641
15209289 33 10375877372311207780
15209294 21 16917067724655304538
15210252 30 18409446990466720928
15342168 16 18202567297730978239
16752209 62 14273735204853686727
17780758 139 11815908837593327652
17834072 32 18341611482234238504
17870717 6 15068339017095109549
17959699 21 18333452057778327193
1813 80 9367351474311309866
19050596 39 14476953471864317587
193927 3 6916264061035641324
19784866 240 7060378145632014731
200 152 5112009438887951283
20028762 73 10951756474200381489
20374829 77 6194845856263766891
20645477 70 13912615921878491291
20871999 31 16298381396607860787
21065199 12 14189303689428504899
21637258 2 6843922741642820996
221357 26 16660646262781489601
22393880 68 17168150018183684190
22646028 28 7565344236328236010
231179 274 18341611495456419378
23402655 69 17822289110625541010
23503953 91 15626220204125791538
23557571 272 18340476755948238378
23559900 14 15792027652874630194
26918003 58 11600004341081232071
270888 7 18342740719098827877
2838139 119 18408888459643801900
2916195 48 18341049614633454016
3009799 131 17458343049083271074
312425 54 11743842477764999941
3286 77 9799687108168144391
3472631 163 18411141316209093061
351380 3 6988318335259327429
4028521 119 18186800283523698409
42 15 11959727196574805447
4259306 186 4967614970589982020
463206 1 6771854182638393669
465052 167 6915684649121700405
474 4 18343022185685492269
5104073 3 17704355476197716850
56616090 284 15574716889506515143
5924683 9 15194993904755711313
633830 44 18267024036901109343
76465 3 8286189548951546329
7808743 9 18342177743375219496
7970288 3 8502367832655575653

> <PUBCHEM_SHAPE_MULTIPOLES>
381.05
13.02
1.82
1.44
0.03
0.57
-0.05
9.31
4.45
0
-0.17
0.01
-0.13
0

> <PUBCHEM_SHAPE_SELFOVERLAP>
799.236

> <PUBCHEM_SHAPE_VOLUME>
216.7

> <PUBCHEM_COORDINATE_TYPE>
2
5
10

$$$$

