442618
  -OEChem-07051212582D

 69 73  0     1  0  0  0  0  0999 V2000
    5.1350    1.2500    0.0000 O   0  0  0  0  0  0  0  0  0  0  0  0
    8.5991   -1.7500    0.0000 O   0  0  0  0  0  0  0  0  0  0  0  0
    6.8671    3.2500    0.0000 O   0  0  0  0  0  0  0  0  0  0  0  0
    5.1350    4.2500    0.0000 O   0  0  0  0  0  0  0  0  0  0  0  0
    3.4030    3.2500    0.0000 O   0  0  0  0  0  0  0  0  0  0  0  0
    6.0010   -1.2500    0.0000 O   0  0  0  0  0  0  0  0  0  0  0  0
    6.0010   -3.2500    0.0000 O   0  0  0  0  0  0  0  0  0  0  0  0
    9.4931   -0.2847    0.0000 O   0  0  0  0  0  0  0  0  0  0  0  0
    6.0010   -0.2500    0.0000 O   0  0  0  0  0  0  0  0  0  0  0  0
    7.7331   -4.2500    0.0000 O   0  0  0  0  0  0  0  0  0  0  0  0
    7.7331    2.7500    0.0000 O   0  0  0  0  0  0  0  0  0  0  0  0
    2.5369    1.7500    0.0000 O   0  0  0  0  0  0  0  0  0  0  0  0
    9.4815    2.7846    0.0000 O   0  0  0  0  0  0  0  0  0  0  0  0
   12.1196   -2.7775    0.0000 O   0  0  0  0  0  0  0  0  0  0  0  0
   13.8555   -1.7842    0.0000 O   0  0  0  0  0  0  0  0  0  0  0  0
    6.0010    1.7500    0.0000 C   0  0  2  0  0  0  0  0  0  0  0  0
    6.0010    2.7500    0.0000 C   0  0  1  0  0  0  0  0  0  0  0  0
    5.1350    3.2500    0.0000 C   0  0  2  0  0  0  0  0  0  0  0  0
    4.2690    2.7500    0.0000 C   0  0  1  0  0  0  0  0  0  0  0  0
    4.2690    1.7500    0.0000 C   0  0  1  0  0  0  0  0  0  0  0  0
    7.7331   -1.2500    0.0000 C   0  0  1  0  0  0  0  0  0  0  0  0
    6.8671    1.2500    0.0000 C   0  0  0  0  0  0  0  0  0  0  0  0
    6.8671   -1.7500    0.0000 C   0  0  1  0  0  0  0  0  0  0  0  0
    7.7331   -0.2500    0.0000 C   0  0  0  0  0  0  0  0  0  0  0  0
    6.8671   -2.7500    0.0000 C   0  0  2  0  0  0  0  0  0  0  0  0
    6.8671    0.2500    0.0000 C   0  0  0  0  0  0  0  0  0  0  0  0
    7.7331   -3.2500    0.0000 C   0  0  2  0  0  0  0  0  0  0  0  0
    7.7331    1.7500    0.0000 C   0  0  0  0  0  0  0  0  0  0  0  0
    8.5991    0.2500    0.0000 C   0  0  0  0  0  0  0  0  0  0  0  0
    8.5991   -2.7500    0.0000 C   0  0  0  0  0  0  0  0  0  0  0  0
    3.4030    1.2500    0.0000 C   0  0  0  0  0  0  0  0  0  0  0  0
    8.5991    1.2500    0.0000 C   0  0  0  0  0  0  0  0  0  0  0  0
    9.4931    1.7847    0.0000 C   0  0  0  0  0  0  0  0  0  0  0  0
   10.3991    0.2292    0.0000 C   0  0  0  0  0  0  0  0  0  0  0  0
   10.3991    1.2708    0.0000 C   0  0  0  0  0  0  0  0  0  0  0  0
   11.2632   -0.2742    0.0000 C   0  0  0  0  0  0  0  0  0  0  0  0
   11.2594   -1.2741    0.0000 C   0  0  0  0  0  0  0  0  0  0  0  0
   12.1312    0.2225    0.0000 C   0  0  0  0  0  0  0  0  0  0  0  0
   12.1235   -1.7775    0.0000 C   0  0  0  0  0  0  0  0  0  0  0  0
   12.9953   -0.2808    0.0000 C   0  0  0  0  0  0  0  0  0  0  0  0
   12.9914   -1.2808    0.0000 C   0  0  0  0  0  0  0  0  0  0  0  0
    6.7372    2.1750    0.0000 H   0  0  0  0  0  0  0  0  0  0  0  0
    6.5380    2.4400    0.0000 H   0  0  0  0  0  0  0  0  0  0  0  0
    5.6720    3.5600    0.0000 H   0  0  0  0  0  0  0  0  0  0  0  0
    4.2690    3.3700    0.0000 H   0  0  0  0  0  0  0  0  0  0  0  0
    4.2690    1.1300    0.0000 H   0  0  0  0  0  0  0  0  0  0  0  0
    8.4692   -0.8250    0.0000 H   0  0  0  0  0  0  0  0  0  0  0  0
    6.3301   -2.0600    0.0000 H   0  0  0  0  0  0  0  0  0  0  0  0
    6.3301   -2.4400    0.0000 H   0  0  0  0  0  0  0  0  0  0  0  0
    8.2700   -3.5600    0.0000 H   0  0  0  0  0  0  0  0  0  0  0  0
    8.8112   -3.3326    0.0000 H   0  0  0  0  0  0  0  0  0  0  0  0
    9.2097   -2.6423    0.0000 H   0  0  0  0  0  0  0  0  0  0  0  0
    3.0044    0.7751    0.0000 H   0  0  0  0  0  0  0  0  0  0  0  0
    3.8015    0.7751    0.0000 H   0  0  0  0  0  0  0  0  0  0  0  0
    6.8671    3.8700    0.0000 H   0  0  0  0  0  0  0  0  0  0  0  0
    4.5981    4.5600    0.0000 H   0  0  0  0  0  0  0  0  0  0  0  0
    3.4030    3.8700    0.0000 H   0  0  0  0  0  0  0  0  0  0  0  0
    5.4641   -1.5600    0.0000 H   0  0  0  0  0  0  0  0  0  0  0  0
    6.0010   -3.8700    0.0000 H   0  0  0  0  0  0  0  0  0  0  0  0
    5.4641    0.0600    0.0000 H   0  0  0  0  0  0  0  0  0  0  0  0
    8.2700   -4.5600    0.0000 H   0  0  0  0  0  0  0  0  0  0  0  0
    8.2700    3.0600    0.0000 H   0  0  0  0  0  0  0  0  0  0  0  0
   10.9349    1.5829    0.0000 H   0  0  0  0  0  0  0  0  0  0  0  0
    2.0000    1.4400    0.0000 H   0  0  0  0  0  0  0  0  0  0  0  0
   10.7212   -1.5821    0.0000 H   0  0  0  0  0  0  0  0  0  0  0  0
   12.1336    0.8425    0.0000 H   0  0  0  0  0  0  0  0  0  0  0  0
   13.5334    0.0271    0.0000 H   0  0  0  0  0  0  0  0  0  0  0  0
   12.6553   -3.0895    0.0000 H   0  0  0  0  0  0  0  0  0  0  0  0
   14.3936   -1.4762    0.0000 H   0  0  0  0  0  0  0  0  0  0  0  0
  1 16  1  0  0  0  0
  1 20  1  0  0  0  0
  2 21  1  0  0  0  0
  2 30  1  0  0  0  0
 17  3  1  1  0  0  0
  3 55  1  0  0  0  0
 18  4  1  6  0  0  0
  4 56  1  0  0  0  0
 19  5  1  1  0  0  0
  5 57  1  0  0  0  0
 23  6  1  1  0  0  0
  6 58  1  0  0  0  0
 25  7  1  6  0  0  0
  7 59  1  0  0  0  0
  8 29  1  0  0  0  0
  8 34  1  0  0  0  0
  9 26  1  0  0  0  0
  9 60  1  0  0  0  0
 27 10  1  6  0  0  0
 10 61  1  0  0  0  0
 11 28  1  0  0  0  0
 11 62  1  0  0  0  0
 12 31  1  0  0  0  0
 12 64  1  0  0  0  0
 13 33  2  0  0  0  0
 14 39  1  0  0  0  0
 14 68  1  0  0  0  0
 15 41  1  0  0  0  0
 15 69  1  0  0  0  0
 16 17  1  0  0  0  0
 16 22  1  0  0  0  0
 16 42  1  1  0  0  0
 17 18  1  0  0  0  0
 17 43  1  0  0  0  0
 18 19  1  0  0  0  0
 18 44  1  0  0  0  0
 19 20  1  0  0  0  0
 19 45  1  0  0  0  0
 20 31  1  6  0  0  0
 20 46  1  0  0  0  0
 21 23  1  0  0  0  0
 21 24  1  0  0  0  0
 21 47  1  6  0  0  0
 22 26  1  0  0  0  0
 22 28  2  0  0  0  0
 23 25  1  0  0  0  0
 23 48  1  0  0  0  0
 24 26  2  0  0  0  0
 24 29  1  0  0  0  0
 25 27  1  0  0  0  0
 25 49  1  0  0  0  0
 27 30  1  0  0  0  0
 27 50  1  0  0  0  0
 28 32  1  0  0  0  0
 29 32  2  0  0  0  0
 30 51  1  0  0  0  0
 30 52  1  0  0  0  0
 31 53  1  0  0  0  0
 31 54  1  0  0  0  0
 32 33  1  0  0  0  0
 33 35  1  0  0  0  0
 34 35  2  0  0  0  0
 34 36  1  0  0  0  0
 35 63  1  0  0  0  0
 36 37  2  0  0  0  0
 36 38  1  0  0  0  0
 37 39  1  0  0  0  0
 37 65  1  0  0  0  0
 38 40  2  0  0  0  0
 38 66  1  0  0  0  0
 39 41  2  0  0  0  0
 40 41  1  0  0  0  0
 40 67  1  0  0  0  0
M  END
> <PUBCHEM_COMPOUND_CID>
442618

> <PUBCHEM_COMPOUND_CANONICALIZED>
1

> <PUBCHEM_CACTVS_COMPLEXITY>
979

> <PUBCHEM_CACTVS_HBOND_ACCEPTOR>
15

> <PUBCHEM_CACTVS_HBOND_DONOR>
11

> <PUBCHEM_CACTVS_ROTATABLE_BOND>
4

> <PUBCHEM_CACTVS_SUBSKEYS>
AAADceB4PAAAAAAAAAAAAAAAAAAAAAAAAAA0aIECAAAAAACBQAAAGgAACAAADBSgmAIwBoAABgCIAqBSAAACCAAkIAAIiAEGiMgNNzaGNRqCeWGl4BULuQfI7PzOIAADCAAIQABAAAYQABCAAAAAAAAAAA==

> <PUBCHEM_IUPAC_OPENEYE_NAME>
2-(3,4-dihydroxyphenyl)-5,7-dihydroxy-6-[(2S,3R,4R,5S,6R)-3,4,5-trihydroxy-6-(hydroxymethyl)tetrahydropyran-2-yl]-8-[(2R,3R,4S,5S)-3,4,5-trihydroxytetrahydropyran-2-yl]chromen-4-one

> <PUBCHEM_IUPAC_CAS_NAME>
2-(3,4-dihydroxyphenyl)-5,7-dihydroxy-6-[(2S,3R,4R,5S,6R)-3,4,5-trihydroxy-6-(hydroxymethyl)-2-oxanyl]-8-[(2R,3R,4S,5S)-3,4,5-trihydroxy-2-oxanyl]-1-benzopyran-4-one

> <PUBCHEM_IUPAC_NAME>
2-(3,4-dihydroxyphenyl)-5,7-dihydroxy-6-[(2S,3R,4R,5S,6R)-3,4,5-trihydroxy-6-(hydroxymethyl)oxan-2-yl]-8-[(2R,3R,4S,5S)-3,4,5-trihydroxyoxan-2-yl]chromen-4-one

> <PUBCHEM_IUPAC_SYSTEMATIC_NAME>
2-[3,4-bis(oxidanyl)phenyl]-6-[(2S,3R,4R,5S,6R)-6-(hydroxymethyl)-3,4,5-tris(oxidanyl)oxan-2-yl]-5,7-bis(oxidanyl)-8-[(2R,3R,4S,5S)-3,4,5-tris(oxidanyl)oxan-2-yl]chromen-4-one

> <PUBCHEM_IUPAC_TRADITIONAL_NAME>
2-(3,4-dihydroxyphenyl)-5,7-dihydroxy-6-[(2S,3R,4R,5S,6R)-3,4,5-trihydroxy-6-methylol-tetrahydropyran-2-yl]-8-[(2R,3R,4S,5S)-3,4,5-trihydroxytetrahydropyran-2-yl]chromone

> <PUBCHEM_IUPAC_INCHI>
InChI=1S/C26H28O15/c27-5-13-18(33)21(36)23(38)26(41-13)15-19(34)14-10(30)4-12(7-1-2-8(28)9(29)3-7)40-24(14)16(20(15)35)25-22(37)17(32)11(31)6-39-25/h1-4,11,13,17-18,21-23,25-29,31-38H,5-6H2/t11-,13+,17-,18+,21-,22+,23+,25+,26-/m0/s1

> <PUBCHEM_IUPAC_INCHIKEY>
XBGYTZHKGMCEGE-LQYCTPBQSA-N

> <PUBCHEM_XLOGP3_AA>
-2.5

> <PUBCHEM_EXACT_MASS>
580.14282

> <PUBCHEM_MOLECULAR_FORMULA>
C26H28O15

> <PUBCHEM_MOLECULAR_WEIGHT>
580.49152

> <PUBCHEM_OPENEYE_CAN_SMILES>
C1C(C(C(C(O1)C2=C(C(=C(C3=C2OC(=CC3=O)C4=CC(=C(C=C4)O)O)O)C5C(C(C(C(O5)CO)O)O)O)O)O)O)O

> <PUBCHEM_OPENEYE_ISO_SMILES>
C1[C@@H]([C@@H]([C@H]([C@H](O1)C2=C(C(=C(C3=C2OC(=CC3=O)C4=CC(=C(C=C4)O)O)O)[C@H]5[C@@H]([C@H]([C@@H]([C@H](O5)CO)O)O)O)O)O)O)O

> <PUBCHEM_CACTVS_TPSA>
267

> <PUBCHEM_MONOISOTOPIC_WEIGHT>
580.14282

> <PUBCHEM_TOTAL_CHARGE>
0

> <PUBCHEM_HEAVY_ATOM_COUNT>
41

> <PUBCHEM_ATOM_DEF_STEREO_COUNT>
9

> <PUBCHEM_ATOM_UDEF_STEREO_COUNT>
0

> <PUBCHEM_BOND_DEF_STEREO_COUNT>
0

> <PUBCHEM_BOND_UDEF_STEREO_COUNT>
0

> <PUBCHEM_ISOTOPIC_ATOM_COUNT>
0

> <PUBCHEM_COMPONENT_COUNT>
1

> <PUBCHEM_CACTVS_TAUTO_COUNT>
162

> <PUBCHEM_COORDINATE_TYPE>
1
5
255

> <PUBCHEM_BONDANNOTATIONS>
27  10  6
16  42  5
20  31  6
21  47  6
22  26  8
22  28  8
24  26  8
24  29  8
28  32  8
29  32  8
17  3  5
32  33  8
33  35  8
34  35  8
36  37  8
36  38  8
37  39  8
38  40  8
39  41  8
18  4  6
40  41  8
19  5  5
23  6  5
25  7  6
8  29  8
8  34  8

$$$$

