14371
  -OEChem-07051213053D

 31 33  0     0  0  0  0  0  0999 V2000
   -3.0516   -2.3299    0.0002 O   0  0  0  0  0  0  0  0  0  0  0  0
    4.2604    1.5863    0.0016 O   0  0  0  0  0  0  0  0  0  0  0  0
    3.5907   -0.6740    0.0005 N   0  0  0  0  0  0  0  0  0  0  0  0
   -0.7275    1.8766   -0.0014 C   0  0  0  0  0  0  0  0  0  0  0  0
    0.1821    0.6658   -0.0020 C   0  0  0  0  0  0  0  0  0  0  0  0
   -0.5791   -0.5247   -0.0012 C   0  0  0  0  0  0  0  0  0  0  0  0
   -2.0983    1.2329   -0.0008 C   0  0  0  0  0  0  0  0  0  0  0  0
   -1.9833   -0.1755   -0.0006 C   0  0  0  0  0  0  0  0  0  0  0  0
    1.5656    0.6394   -0.0021 C   0  0  0  0  0  0  0  0  0  0  0  0
    0.0471   -1.7600   -0.0005 C   0  0  0  0  0  0  0  0  0  0  0  0
   -3.1151   -0.9736    0.0007 C   0  0  0  0  0  0  0  0  0  0  0  0
   -3.3331    1.8576    0.0004 C   0  0  0  0  0  0  0  0  0  0  0  0
    2.1965   -0.6060   -0.0012 C   0  0  0  0  0  0  0  0  0  0  0  0
    1.4449   -1.7937   -0.0006 C   0  0  0  0  0  0  0  0  0  0  0  0
   -4.3659   -0.3487    0.0023 C   0  0  0  0  0  0  0  0  0  0  0  0
   -4.4737    1.0527    0.0018 C   0  0  0  0  0  0  0  0  0  0  0  0
    4.5079    0.3848    0.0003 C   0  0  0  0  0  0  0  0  0  0  0  0
    5.9325   -0.1101    0.0026 C   0  0  0  0  0  0  0  0  0  0  0  0
   -0.5788    2.4724    0.9038 H   0  0  0  0  0  0  0  0  0  0  0  0
   -0.5797    2.4727   -0.9065 H   0  0  0  0  0  0  0  0  0  0  0  0
    2.0743    1.5914   -0.0024 H   0  0  0  0  0  0  0  0  0  0  0  0
   -0.4907   -2.6987    0.0193 H   0  0  0  0  0  0  0  0  0  0  0  0
   -3.4179    2.9385    0.0003 H   0  0  0  0  0  0  0  0  0  0  0  0
    1.9462   -2.7594    0.0046 H   0  0  0  0  0  0  0  0  0  0  0  0
   -5.2733   -0.9482    0.0032 H   0  0  0  0  0  0  0  0  0  0  0  0
   -5.4580    1.5137    0.0029 H   0  0  0  0  0  0  0  0  0  0  0  0
    3.9798   -1.6147    0.0015 H   0  0  0  0  0  0  0  0  0  0  0  0
   -2.3566   -2.5983   -0.6222 H   0  0  0  0  0  0  0  0  0  0  0  0
    6.1201   -0.6914    0.9097 H   0  0  0  0  0  0  0  0  0  0  0  0
    6.6203    0.7397   -0.0239 H   0  0  0  0  0  0  0  0  0  0  0  0
    6.1093   -0.7364   -0.8764 H   0  0  0  0  0  0  0  0  0  0  0  0
  1 11  1  0  0  0  0
  1 28  1  0  0  0  0
  2 17  2  0  0  0  0
  3 13  1  0  0  0  0
  3 17  1  0  0  0  0
  3 27  1  0  0  0  0
  4  5  1  0  0  0  0
  4  7  1  0  0  0  0
  4 19  1  0  0  0  0
  4 20  1  0  0  0  0
  5  6  2  0  0  0  0
  5  9  1  0  0  0  0
  6  8  1  0  0  0  0
  6 10  1  0  0  0  0
  7  8  2  0  0  0  0
  7 12  1  0  0  0  0
  8 11  1  0  0  0  0
  9 13  2  0  0  0  0
  9 21  1  0  0  0  0
 10 14  2  0  0  0  0
 10 22  1  0  0  0  0
 11 15  2  0  0  0  0
 12 16  2  0  0  0  0
 12 23  1  0  0  0  0
 13 14  1  0  0  0  0
 14 24  1  0  0  0  0
 15 16  1  0  0  0  0
 15 25  1  0  0  0  0
 16 26  1  0  0  0  0
 17 18  1  0  0  0  0
 18 29  1  0  0  0  0
 18 30  1  0  0  0  0
 18 31  1  0  0  0  0
M  END
> <PUBCHEM_COMPOUND_CID>
14371

> <PUBCHEM_CONFORMER_RMSD>
0.6

> <PUBCHEM_CONFORMER_DIVERSEORDER>
1
2
3
4

> <PUBCHEM_MMFF94_PARTIAL_CHARGES>
24
1 -0.53
10 -0.15
11 0.08
12 -0.15
13 0.12
14 -0.15
15 -0.15
16 -0.15
17 0.57
18 0.06
2 -0.57
21 0.15
22 0.15
23 0.15
24 0.15
25 0.15
26 0.15
27 0.37
28 0.45
3 -0.55
4 0.29
5 -0.14
7 -0.14
9 -0.15

> <PUBCHEM_EFFECTIVE_ROTOR_COUNT>
2.2

> <PUBCHEM_PHARMACOPHORE_FEATURES>
6
1 1 donor
1 2 acceptor
1 3 donor
5 4 5 6 7 8 rings
6 5 6 9 10 13 14 rings
6 7 8 11 12 15 16 rings

> <PUBCHEM_HEAVY_ATOM_COUNT>
18

> <PUBCHEM_ATOM_DEF_STEREO_COUNT>
0

> <PUBCHEM_ATOM_UDEF_STEREO_COUNT>
0

> <PUBCHEM_BOND_DEF_STEREO_COUNT>
0

> <PUBCHEM_BOND_UDEF_STEREO_COUNT>
0

> <PUBCHEM_ISOTOPIC_ATOM_COUNT>
0

> <PUBCHEM_COMPONENT_COUNT>
1

> <PUBCHEM_CACTVS_TAUTO_COUNT>
18

> <PUBCHEM_CONFORMER_ID>
0000382300000001

> <PUBCHEM_MMFF94_ENERGY>
64.5962

> <PUBCHEM_FEATURE_SELFOVERLAP>
30.61

> <PUBCHEM_SHAPE_FINGERPRINT>
10014705 185 18201159935890686485
10411042 1 17978228262654600711
10493431 412 18264479749914780649
10616163 171 18410011022514133775
10967382 1 18338516451723210695
11132069 177 18412261752695806741
11401426 45 18411702084081555847
11578080 2 16842771700957925510
12107183 9 17621607541557356608
12236239 1 17847061086641384328
12390115 104 18043233846667326913
12403814 3 17704074027502609741
13140716 1 18194110829590320249
13214271 11 18407761430381814399
13862211 1 18410579461382829886
15196674 1 18410856598321057382
15375358 24 18409729590507844303
15536298 74 18335136557095183102
16087824 20 18409451389672969239
16945 1 18410855456587652933
19591789 44 18265053531210940416
19784866 170 18412260670590895027
200 152 17894916238854502369
20510252 161 18188770694724613017
20645477 56 18341611568418421045
20645477 70 17241040037197833238
21267235 1 18411411783459040627
23366157 5 17986667289217484386
23402539 116 18409173194832688022
23402655 69 18262528121012345277
23557571 272 18260540130478691700
23559900 14 18262800791369486870
2748010 2 17978515235325729837
296302 2 18410574028496750007
3004659 81 18341888637544624246
3312278 4 18408602582636394561
335352 9 18410856581204518140
34934 24 18340492265560044587
351380 180 18410857664158560696
3545911 37 18410572911441366660
4214541 1 18410856572646296576
4340502 62 16773505685955486689
474 4 17632569414909837196
474229 33 18410575076152583942
4990 188 18040427815814985436
5104073 3 18340204205897355683
7364860 26 18192149524016420582
77779 3 18410011044141418284
9709674 26 18336540611679165111

> <PUBCHEM_SHAPE_MULTIPOLES>
353.71
10.11
2.03
0.6
9.41
0.29
0
-1.71
-0.01
-1.1
0
-0.02
-0.01
0

> <PUBCHEM_SHAPE_SELFOVERLAP>
785.61

> <PUBCHEM_SHAPE_VOLUME>
190.6

> <PUBCHEM_COORDINATE_TYPE>
2
5
10

$$$$

