151483
  -OEChem-07051212493D

 28 28  0     1  0  0  0  0  0999 V2000
    3.4329    2.0757    0.4993 O   0  0  0  0  0  0  0  0  0  0  0  0
   -2.0289   -2.0520   -0.1190 O   0  0  0  0  0  0  0  0  0  0  0  0
    0.2551   -1.4009   -1.2691 O   0  0  0  0  0  0  0  0  0  0  0  0
    3.9721   -1.7311    0.1161 O   0  0  0  0  0  0  0  0  0  0  0  0
   -4.5126   -1.0328    0.5407 O   0  0  0  0  0  0  0  0  0  0  0  0
    2.7857   -0.6675    1.7325 O   0  0  0  0  0  0  0  0  0  0  0  0
    1.2386    0.4503   -0.2773 N   0  0  0  0  0  0  0  0  0  0  0  0
    2.6049    0.0945   -0.5727 C   0  0  1  0  0  0  0  0  0  0  0  0
    3.4893    1.3253   -0.7076 C   0  0  0  0  0  0  0  0  0  0  0  0
   -1.1823    0.1785   -0.3006 C   0  0  0  0  0  0  0  0  0  0  0  0
    0.1635   -0.3402   -0.6567 C   0  0  0  0  0  0  0  0  0  0  0  0
   -2.2143   -0.7024   -0.0477 C   0  0  0  0  0  0  0  0  0  0  0  0
    3.0943   -0.7909    0.5543 C   0  0  0  0  0  0  0  0  0  0  0  0
   -1.3531    1.5473   -0.2343 C   0  0  0  0  0  0  0  0  0  0  0  0
   -3.4697   -0.1941    0.2852 C   0  0  0  0  0  0  0  0  0  0  0  0
   -2.6086    2.0554    0.0986 C   0  0  0  0  0  0  0  0  0  0  0  0
   -3.6670    1.1848    0.3584 C   0  0  0  0  0  0  0  0  0  0  0  0
    2.6176   -0.4834   -1.5040 H   0  0  0  0  0  0  0  0  0  0  0  0
    1.0923    1.2574    0.3208 H   0  0  0  0  0  0  0  0  0  0  0  0
    3.1418    1.9652   -1.5255 H   0  0  0  0  0  0  0  0  0  0  0  0
    4.5312    1.0435   -0.8907 H   0  0  0  0  0  0  0  0  0  0  0  0
   -0.5631    2.2563   -0.4608 H   0  0  0  0  0  0  0  0  0  0  0  0
   -2.7647    3.1291    0.1484 H   0  0  0  0  0  0  0  0  0  0  0  0
   -4.6430    1.5873    0.6154 H   0  0  0  0  0  0  0  0  0  0  0  0
    4.0044    2.8532    0.3784 H   0  0  0  0  0  0  0  0  0  0  0  0
   -1.0912   -2.2649   -0.2464 H   0  0  0  0  0  0  0  0  0  0  0  0
    4.3053   -2.2901    0.8501 H   0  0  0  0  0  0  0  0  0  0  0  0
   -4.1987   -1.9488    0.4447 H   0  0  0  0  0  0  0  0  0  0  0  0
  1  9  1  0  0  0  0
  1 25  1  0  0  0  0
  2 12  1  0  0  0  0
  2 26  1  0  0  0  0
  3 11  2  0  0  0  0
  4 13  1  0  0  0  0
  4 27  1  0  0  0  0
  5 15  1  0  0  0  0
  5 28  1  0  0  0  0
  6 13  2  0  0  0  0
  7  8  1  0  0  0  0
  7 11  1  0  0  0  0
  7 19  1  0  0  0  0
  8  9  1  0  0  0  0
  8 13  1  0  0  0  0
  8 18  1  0  0  0  0
  9 20  1  0  0  0  0
  9 21  1  0  0  0  0
 10 11  1  0  0  0  0
 10 12  2  0  0  0  0
 10 14  1  0  0  0  0
 12 15  1  0  0  0  0
 14 16  2  0  0  0  0
 14 22  1  0  0  0  0
 15 17  2  0  0  0  0
 16 17  1  0  0  0  0
 16 23  1  0  0  0  0
 17 24  1  0  0  0  0
M  END
> <PUBCHEM_COMPOUND_CID>
151483

> <PUBCHEM_CONFORMER_RMSD>
0.6

> <PUBCHEM_CONFORMER_DIVERSEORDER>
5
23
38
36
20
33
14
44
52
8
47
31
28
49
34
19
51
11
32
2
35
25
37
43
6
54
42
18
50
16
15
1
12
41
4
29
10
40
7
26
39
27
53
46
17
24
3
30
9
48
22
45
13
21

> <PUBCHEM_MMFF94_PARTIAL_CHARGES>
25
1 -0.68
10 0.09
11 0.54
12 0.08
13 0.66
14 -0.15
15 0.08
16 -0.15
17 -0.15
19 0.37
2 -0.53
22 0.15
23 0.15
24 0.15
25 0.4
26 0.45
27 0.5
28 0.45
3 -0.57
4 -0.65
5 -0.53
6 -0.57
7 -0.73
8 0.36
9 0.28

> <PUBCHEM_EFFECTIVE_ROTOR_COUNT>
5

> <PUBCHEM_PHARMACOPHORE_FEATURES>
10
1 1 acceptor
1 1 donor
1 2 donor
1 3 acceptor
1 4 acceptor
1 5 donor
1 6 acceptor
1 7 donor
3 4 6 13 anion
6 10 12 14 15 16 17 rings

> <PUBCHEM_HEAVY_ATOM_COUNT>
17

> <PUBCHEM_ATOM_DEF_STEREO_COUNT>
1

> <PUBCHEM_ATOM_UDEF_STEREO_COUNT>
0

> <PUBCHEM_BOND_DEF_STEREO_COUNT>
0

> <PUBCHEM_BOND_UDEF_STEREO_COUNT>
0

> <PUBCHEM_ISOTOPIC_ATOM_COUNT>
0

> <PUBCHEM_COMPONENT_COUNT>
1

> <PUBCHEM_CACTVS_TAUTO_COUNT>
23

> <PUBCHEM_CONFORMER_ID>
00024FBB00000005

> <PUBCHEM_MMFF94_ENERGY>
40.7766

> <PUBCHEM_FEATURE_SELFOVERLAP>
50.811

> <PUBCHEM_SHAPE_FINGERPRINT>
10608611 8 18335416915248677461
11132069 177 18113621200900646357
12251169 10 18340490061988536294
12507560 40 18410579496069479436
12670546 56 18272937124176908817
12932764 1 17489030460815034180
13296908 3 16917076576366422460
13533116 47 18201720673851645467
13675066 3 18041287668072751290
14144814 61 18413105073861691117
14289901 80 17846774096420744145
14420673 8 17908421707978599306
15219456 202 17969496190118793655
15442244 35 18340205301530759676
15669948 3 18335702693771848471
16945 1 18333449842044395613
17804303 29 18338229487656963790
18186145 218 17846500365322380500
19050596 39 18341894112319567152
19422 9 18272647969640378424
20510252 161 18261103084996443473
20559304 39 18410575102439183532
21652331 79 18336825295028061685
22445834 79 17987806331343977146
2255824 54 17704066309673069286
23048698 100 18060699493936322756
23402539 116 18335146393150468471
23463225 33 18413105082478025652
23559900 14 18117553148544028062
2748010 2 18120075433187924479
312423 11 18271794740032648980
5104073 3 18411695504492605905
5374978 207 18412263921912884177
7097593 13 18056772150240134906
81228 2 16881348890930958494
90316 7 18130790117797437053
9709674 26 18409441522661889063

> <PUBCHEM_SHAPE_MULTIPOLES>
309.66
8.08
2.03
0.95
0.95
0.33
0.14
0.04
1.69
0.03
0.02
0.61
-0.15
-0.29

> <PUBCHEM_SHAPE_SELFOVERLAP>
649.893

> <PUBCHEM_SHAPE_VOLUME>
173.2

> <PUBCHEM_COORDINATE_TYPE>
2
5
10

$$$$

