854270
  -OEChem-06241222472D

 32 32  0     1  0  0  0  0  0999 V2000
    3.7320    0.1900    0.0000 S   0  0  0  0  0  0  0  0  0  0  0  0
    4.7320    0.1900    0.0000 O   0  0  0  0  0  0  0  0  0  0  0  0
    2.7320    0.1900    0.0000 O   0  0  0  0  0  0  0  0  0  0  0  0
    5.4641    3.1900    0.0000 O   0  0  0  0  0  0  0  0  0  0  0  0
    5.4641    1.1900    0.0000 O   0  0  0  0  0  0  0  0  0  0  0  0
    3.7320    1.1900    0.0000 N   0  0  0  0  0  0  0  0  0  0  0  0
    3.7320   -0.8100    0.0000 C   0  0  0  0  0  0  0  0  0  0  0  0
    2.8660   -1.3100    0.0000 C   0  0  0  0  0  0  0  0  0  0  0  0
    4.5981   -1.3100    0.0000 C   0  0  0  0  0  0  0  0  0  0  0  0
    2.8660   -2.3100    0.0000 C   0  0  0  0  0  0  0  0  0  0  0  0
    3.7320   -2.8100    0.0000 C   0  0  0  0  0  0  0  0  0  0  0  0
    4.5981   -2.3100    0.0000 C   0  0  0  0  0  0  0  0  0  0  0  0
    2.0000   -0.8100    0.0000 C   0  0  0  0  0  0  0  0  0  0  0  0
    4.5981    2.6900    0.0000 C   0  0  1  0  0  0  0  0  0  0  0  0
    4.5981    1.6900    0.0000 C   0  0  0  0  0  0  0  0  0  0  0  0
    3.7320   -3.8100    0.0000 C   0  0  0  0  0  0  0  0  0  0  0  0
    3.7320    3.1900    0.0000 C   0  0  0  0  0  0  0  0  0  0  0  0
    5.1350   -1.0000    0.0000 H   0  0  0  0  0  0  0  0  0  0  0  0
    2.3291   -2.6200    0.0000 H   0  0  0  0  0  0  0  0  0  0  0  0
    3.1951    1.5000    0.0000 H   0  0  0  0  0  0  0  0  0  0  0  0
    5.1350   -2.6200    0.0000 H   0  0  0  0  0  0  0  0  0  0  0  0
    2.3100   -0.2731    0.0000 H   0  0  0  0  0  0  0  0  0  0  0  0
    1.4631   -0.5000    0.0000 H   0  0  0  0  0  0  0  0  0  0  0  0
    1.6900   -1.3469    0.0000 H   0  0  0  0  0  0  0  0  0  0  0  0
    4.5981    3.3100    0.0000 H   0  0  0  0  0  0  0  0  0  0  0  0
    3.1120   -3.8100    0.0000 H   0  0  0  0  0  0  0  0  0  0  0  0
    3.7320   -4.4300    0.0000 H   0  0  0  0  0  0  0  0  0  0  0  0
    4.3520   -3.8100    0.0000 H   0  0  0  0  0  0  0  0  0  0  0  0
    4.0420    3.7269    0.0000 H   0  0  0  0  0  0  0  0  0  0  0  0
    3.1951    3.5000    0.0000 H   0  0  0  0  0  0  0  0  0  0  0  0
    3.4220    2.6531    0.0000 H   0  0  0  0  0  0  0  0  0  0  0  0
    5.4641    3.8100    0.0000 H   0  0  0  0  0  0  0  0  0  0  0  0
  1  2  2  0  0  0  0
  1  3  2  0  0  0  0
  1  6  1  0  0  0  0
  1  7  1  0  0  0  0
 14  4  1  1  0  0  0
  4 32  1  0  0  0  0
  5 15  2  0  0  0  0
  6 15  1  0  0  0  0
  6 20  1  0  0  0  0
  7  8  2  0  0  0  0
  7  9  1  0  0  0  0
  8 10  1  0  0  0  0
  8 13  1  0  0  0  0
  9 12  2  0  0  0  0
  9 18  1  0  0  0  0
 10 11  2  0  0  0  0
 10 19  1  0  0  0  0
 11 12  1  0  0  0  0
 11 16  1  0  0  0  0
 12 21  1  0  0  0  0
 13 22  1  0  0  0  0
 13 23  1  0  0  0  0
 13 24  1  0  0  0  0
 14 15  1  0  0  0  0
 14 17  1  0  0  0  0
 14 25  1  0  0  0  0
 16 26  1  0  0  0  0
 16 27  1  0  0  0  0
 16 28  1  0  0  0  0
 17 29  1  0  0  0  0
 17 30  1  0  0  0  0
 17 31  1  0  0  0  0
M  END
> <PUBCHEM_COMPOUND_CID>
854270

> <PUBCHEM_COMPOUND_CANONICALIZED>
1

> <PUBCHEM_CACTVS_COMPLEXITY>
373

> <PUBCHEM_CACTVS_HBOND_ACCEPTOR>
4

> <PUBCHEM_CACTVS_HBOND_DONOR>
2

> <PUBCHEM_CACTVS_ROTATABLE_BOND>
3

> <PUBCHEM_CACTVS_SUBSKEYS>
AAADccByOABAAAAAAAAAAAAAAAAAAAAAAAAwAAAAAAAAAAABAAAAHgQQSAAADBSh2AIyAYBAAgKIAiFSEHJCABAgAAAIiBlAAIgKMCKAERCAIAAgkAAIiAcAgEAOEAACAAAEAAAgAAQAAAgAAAAAAAAAAA==

> <PUBCHEM_IUPAC_OPENEYE_NAME>
(2R)-N-(2,4-dimethylphenyl)sulfonyl-2-hydroxy-propanamide

> <PUBCHEM_IUPAC_CAS_NAME>
(2R)-N-(2,4-dimethylphenyl)sulfonyl-2-hydroxypropanamide

> <PUBCHEM_IUPAC_NAME>
(2R)-N-(2,4-dimethylphenyl)sulfonyl-2-hydroxypropanamide

> <PUBCHEM_IUPAC_SYSTEMATIC_NAME>
(2R)-N-(2,4-dimethylphenyl)sulfonyl-2-oxidanyl-propanamide

> <PUBCHEM_IUPAC_TRADITIONAL_NAME>
(2R)-N-(2,4-dimethylphenyl)sulfonyl-2-hydroxy-propionamide

> <PUBCHEM_IUPAC_INCHI>
InChI=1S/C11H15NO4S/c1-7-4-5-10(8(2)6-7)17(15,16)12-11(14)9(3)13/h4-6,9,13H,1-3H3,(H,12,14)/t9-/m1/s1

> <PUBCHEM_IUPAC_INCHIKEY>
IVVZRXRVZGNIBU-SECBINFHSA-N

> <PUBCHEM_XLOGP3_AA>
1.1

> <PUBCHEM_EXACT_MASS>
257.072179

> <PUBCHEM_MOLECULAR_FORMULA>
C11H15NO4S

> <PUBCHEM_MOLECULAR_WEIGHT>
257.3061

> <PUBCHEM_OPENEYE_CAN_SMILES>
CC1=CC(=C(C=C1)S(=O)(=O)NC(=O)C(C)O)C

> <PUBCHEM_OPENEYE_ISO_SMILES>
CC1=CC(=C(C=C1)S(=O)(=O)NC(=O)[C@@H](C)O)C

> <PUBCHEM_CACTVS_TPSA>
91.8

> <PUBCHEM_MONOISOTOPIC_WEIGHT>
257.072179

> <PUBCHEM_TOTAL_CHARGE>
0

> <PUBCHEM_HEAVY_ATOM_COUNT>
17

> <PUBCHEM_ATOM_DEF_STEREO_COUNT>
1

> <PUBCHEM_ATOM_UDEF_STEREO_COUNT>
0

> <PUBCHEM_BOND_DEF_STEREO_COUNT>
0

> <PUBCHEM_BOND_UDEF_STEREO_COUNT>
0

> <PUBCHEM_ISOTOPIC_ATOM_COUNT>
0

> <PUBCHEM_COMPONENT_COUNT>
1

> <PUBCHEM_CACTVS_TAUTO_COUNT>
2

> <PUBCHEM_COORDINATE_TYPE>
1
5
255

> <PUBCHEM_BONDANNOTATIONS>
10  11  8
11  12  8
14  4  5
7  8  8
7  9  8
8  10  8
9  12  8

$$$$

