5281607
  -OEChem-07051212583D

 29 31  0     0  0  0  0  0  0999 V2000
    0.2347   -0.8220    0.0512 O   0  0  0  0  0  0  0  0  0  0  0  0
   -3.7341    1.9557   -0.1152 O   0  0  0  0  0  0  0  0  0  0  0  0
   -1.3041    2.9429   -0.1858 O   0  0  0  0  0  0  0  0  0  0  0  0
   -4.0926   -2.7696    0.1975 O   0  0  0  0  0  0  0  0  0  0  0  0
   -1.7171    0.6210   -0.0362 C   0  0  0  0  0  0  0  0  0  0  0  0
   -1.1247   -0.6381    0.0441 C   0  0  0  0  0  0  0  0  0  0  0  0
    1.0528    0.2944   -0.0328 C   0  0  0  0  0  0  0  0  0  0  0  0
   -0.8525    1.8082   -0.1163 C   0  0  0  0  0  0  0  0  0  0  0  0
    2.4962   -0.0164   -0.0111 C   0  0  0  0  0  0  0  0  0  0  0  0
   -3.1080    0.7486   -0.0388 C   0  0  0  0  0  0  0  0  0  0  0  0
    0.6029    1.5571   -0.1076 C   0  0  0  0  0  0  0  0  0  0  0  0
   -1.9221   -1.7800    0.1229 C   0  0  0  0  0  0  0  0  0  0  0  0
   -3.3118   -1.6570    0.1204 C   0  0  0  0  0  0  0  0  0  0  0  0
   -3.9032   -0.3954    0.0397 C   0  0  0  0  0  0  0  0  0  0  0  0
    3.4015    0.8918    0.5433 C   0  0  0  0  0  0  0  0  0  0  0  0
    2.9631   -1.2202   -0.5449 C   0  0  0  0  0  0  0  0  0  0  0  0
    4.7650    0.5981    0.5637 C   0  0  0  0  0  0  0  0  0  0  0  0
    4.3265   -1.5141   -0.5242 C   0  0  0  0  0  0  0  0  0  0  0  0
    5.2275   -0.6049    0.0301 C   0  0  0  0  0  0  0  0  0  0  0  0
    1.2442    2.4272   -0.1857 H   0  0  0  0  0  0  0  0  0  0  0  0
   -1.4639   -2.7639    0.1860 H   0  0  0  0  0  0  0  0  0  0  0  0
   -4.9864   -0.2982    0.0379 H   0  0  0  0  0  0  0  0  0  0  0  0
    3.0795    1.8293    0.9889 H   0  0  0  0  0  0  0  0  0  0  0  0
    2.2844   -1.9432   -0.9907 H   0  0  0  0  0  0  0  0  0  0  0  0
    5.4665    1.3035    0.9997 H   0  0  0  0  0  0  0  0  0  0  0  0
    4.6871   -2.4498   -0.9413 H   0  0  0  0  0  0  0  0  0  0  0  0
    6.2890   -0.8339    0.0469 H   0  0  0  0  0  0  0  0  0  0  0  0
   -3.0844    2.6733   -0.1674 H   0  0  0  0  0  0  0  0  0  0  0  0
   -5.0272   -2.5008    0.1835 H   0  0  0  0  0  0  0  0  0  0  0  0
  1  6  1  0  0  0  0
  1  7  1  0  0  0  0
  2 10  1  0  0  0  0
  2 28  1  0  0  0  0
  3  8  2  0  0  0  0
  4 13  1  0  0  0  0
  4 29  1  0  0  0  0
  5  6  1  0  0  0  0
  5  8  1  0  0  0  0
  5 10  2  0  0  0  0
  6 12  2  0  0  0  0
  7  9  1  0  0  0  0
  7 11  2  0  0  0  0
  8 11  1  0  0  0  0
  9 15  2  0  0  0  0
  9 16  1  0  0  0  0
 10 14  1  0  0  0  0
 11 20  1  0  0  0  0
 12 13  1  0  0  0  0
 12 21  1  0  0  0  0
 13 14  2  0  0  0  0
 14 22  1  0  0  0  0
 15 17  1  0  0  0  0
 15 23  1  0  0  0  0
 16 18  2  0  0  0  0
 16 24  1  0  0  0  0
 17 19  2  0  0  0  0
 17 25  1  0  0  0  0
 18 19  1  0  0  0  0
 18 26  1  0  0  0  0
 19 27  1  0  0  0  0
M  END
> <PUBCHEM_COMPOUND_CID>
5281607

> <PUBCHEM_CONFORMER_RMSD>
0.6

> <PUBCHEM_CONFORMER_DIVERSEORDER>
1

> <PUBCHEM_MMFF94_PARTIAL_CHARGES>
29
1 -0.16
10 0.08
11 -0.14
12 -0.15
13 0.08
14 -0.15
15 -0.15
16 -0.15
17 -0.15
18 -0.15
19 -0.15
2 -0.53
20 0.15
21 0.15
22 0.15
23 0.15
24 0.15
25 0.15
26 0.15
27 0.15
28 0.45
29 0.45
3 -0.57
4 -0.53
5 0.09
6 0.08
7 0.05
8 0.47
9 0.03

> <PUBCHEM_EFFECTIVE_ROTOR_COUNT>
1

> <PUBCHEM_PHARMACOPHORE_FEATURES>
7
1 1 acceptor
1 2 donor
1 3 acceptor
1 4 donor
6 1 5 6 7 8 11 rings
6 5 6 10 12 13 14 rings
6 9 15 16 17 18 19 rings

> <PUBCHEM_HEAVY_ATOM_COUNT>
19

> <PUBCHEM_ATOM_DEF_STEREO_COUNT>
0

> <PUBCHEM_ATOM_UDEF_STEREO_COUNT>
0

> <PUBCHEM_BOND_DEF_STEREO_COUNT>
0

> <PUBCHEM_BOND_UDEF_STEREO_COUNT>
0

> <PUBCHEM_ISOTOPIC_ATOM_COUNT>
0

> <PUBCHEM_COMPONENT_COUNT>
1

> <PUBCHEM_CACTVS_TAUTO_COUNT>
12

> <PUBCHEM_CONFORMER_ID>
0050974700000001

> <PUBCHEM_MMFF94_ENERGY>
58.6802

> <PUBCHEM_FEATURE_SELFOVERLAP>
35.548

> <PUBCHEM_SHAPE_FINGERPRINT>
10319926 262 18265072365465577474
10411042 1 18267584594610663203
10493431 412 18191577765391199489
10608611 8 18335144228265560720
10616163 171 18410009965962702502
11132069 177 18411981385820866320
11552529 35 17603871044322183199
12032990 46 18411134697537830467
12236239 1 17489585697492436344
12403259 226 18408609162721834608
13140716 1 18409724028715353601
13214271 11 18334298669036476677
13288520 33 18410572881424146342
13296908 3 18409448076950228958
13675066 3 18259707783175943944
14790565 3 17832982029068986209
14866123 147 16889469192898768762
15042514 8 18412819197208094921
15196674 1 18410293605802851112
15219456 202 18259987089289128654
15352361 1 18338798909910120855
15375358 24 18261394481173352630
17492 89 18411982490160939010
17804303 29 18408601469960549712
17834074 16 18334857246971750630
1813 80 17632574933583908860
18186145 218 15913322464563129412
19141452 34 18260263023858676503
200 152 17385732416926940188
20281475 54 18410567358091039324
20510252 161 18262238940289494112
21065198 57 18335702779992882488
21065199 12 18333734602665884362
21065201 7 18341335573825131586
21267235 1 18412255112771676483
221490 88 18268986492793151104
2297311 6 18336253596737409460
23366157 5 17844527691418617156
23402539 116 18411426115353243102
23557571 272 18335412465836313798
23559900 14 18335986480036933094
23845131 108 17544177738234224009
26918003 58 18187650240856965280
2748010 2 18338526227063657637
2871803 45 18412830196382255318
335352 9 18338797935042176909
34934 24 18341901839303258235
4214541 1 18409729590581573840
474 4 16916208959499577068
5104073 3 18334860532711403754
573450 72 18201731681863062826
69090 78 18260835933561318750
7364860 26 17977665307915238009
77779 3 18409448090040761714
8809292 202 18412822499404968778
9709674 26 18261670501641980238

> <PUBCHEM_SHAPE_MULTIPOLES>
367.53
9.79
2.47
0.67
6.66
0.28
0
-3.3
0.48
-2.43
-0.1
0.26
-0.02
0.74

> <PUBCHEM_SHAPE_SELFOVERLAP>
822.827

> <PUBCHEM_SHAPE_VOLUME>
193.3

> <PUBCHEM_COORDINATE_TYPE>
2
5
10

$$$$

