53297435
  -OEChem-07051213142D

 45 45  0     0  0  0  0  0  0999 V2000
    8.0622   -0.6550    0.0000 S   0  0  0  0  0  0  0  0  0  0  0  0
    3.7320   -2.1550    0.0000 S   0  0  0  0  0  0  0  0  0  0  0  0
    8.9282   -2.1550    0.0000 Na  0  3  0  0  0  0  0  0  0  0  0  0
    2.8660   -3.6550    0.0000 Na  0  3  0  0  0  0  0  0  0  0  0  0
    8.0622    3.3450    0.0000 O   0  0  0  0  0  0  0  0  0  0  0  0
    8.0622   -1.6550    0.0000 O   0  5  0  0  0  0  0  0  0  0  0  0
    7.0622   -0.6550    0.0000 O   0  0  0  0  0  0  0  0  0  0  0  0
    9.0622   -0.6550    0.0000 O   0  0  0  0  0  0  0  0  0  0  0  0
    3.7320   -3.1550    0.0000 O   0  5  0  0  0  0  0  0  0  0  0  0
    2.7320   -2.1550    0.0000 O   0  0  0  0  0  0  0  0  0  0  0  0
    4.7320   -2.1550    0.0000 O   0  0  0  0  0  0  0  0  0  0  0  0
    6.3301    0.3450    0.0000 N   0  0  0  0  0  0  0  0  0  0  0  0
    5.4641    0.8450    0.0000 N   0  0  0  0  0  0  0  0  0  0  0  0
    8.9282    0.8450    0.0000 C   0  0  0  0  0  0  0  0  0  0  0  0
    8.0622    0.3450    0.0000 C   0  0  0  0  0  0  0  0  0  0  0  0
    8.9282    1.8450    0.0000 C   0  0  0  0  0  0  0  0  0  0  0  0
    7.1962    0.8450    0.0000 C   0  0  0  0  0  0  0  0  0  0  0  0
    2.8660   -0.6550    0.0000 C   0  0  0  0  0  0  0  0  0  0  0  0
    3.7320   -1.1550    0.0000 C   0  0  0  0  0  0  0  0  0  0  0  0
    8.0622    2.3450    0.0000 C   0  0  0  0  0  0  0  0  0  0  0  0
    3.7320    0.8450    0.0000 C   0  0  0  0  0  0  0  0  0  0  0  0
    4.5981    0.3450    0.0000 C   0  0  0  0  0  0  0  0  0  0  0  0
    7.1962    1.8450    0.0000 C   0  0  0  0  0  0  0  0  0  0  0  0
    2.8660    0.3450    0.0000 C   0  0  0  0  0  0  0  0  0  0  0  0
    9.8222    0.3103    0.0000 C   0  0  0  0  0  0  0  0  0  0  0  0
    4.5981   -0.6550    0.0000 C   0  0  0  0  0  0  0  0  0  0  0  0
    9.8222    2.3797    0.0000 C   0  0  0  0  0  0  0  0  0  0  0  0
   10.7282    0.8242    0.0000 C   0  0  0  0  0  0  0  0  0  0  0  0
   10.7282    1.8658    0.0000 C   0  0  0  0  0  0  0  0  0  0  0  0
    2.0000   -1.1550    0.0000 C   0  0  0  0  0  0  0  0  0  0  0  0
    3.7320    1.8450    0.0000 C   0  0  0  0  0  0  0  0  0  0  0  0
    6.6592    2.1550    0.0000 H   0  0  0  0  0  0  0  0  0  0  0  0
    2.3291    0.6550    0.0000 H   0  0  0  0  0  0  0  0  0  0  0  0
    9.8150   -0.3096    0.0000 H   0  0  0  0  0  0  0  0  0  0  0  0
    5.1350   -0.9650    0.0000 H   0  0  0  0  0  0  0  0  0  0  0  0
    9.8150    2.9996    0.0000 H   0  0  0  0  0  0  0  0  0  0  0  0
   11.2639    0.5121    0.0000 H   0  0  0  0  0  0  0  0  0  0  0  0
   11.2639    2.1779    0.0000 H   0  0  0  0  0  0  0  0  0  0  0  0
    1.6900   -0.6181    0.0000 H   0  0  0  0  0  0  0  0  0  0  0  0
    1.4631   -1.4650    0.0000 H   0  0  0  0  0  0  0  0  0  0  0  0
    2.3100   -1.6919    0.0000 H   0  0  0  0  0  0  0  0  0  0  0  0
    4.3520    1.8450    0.0000 H   0  0  0  0  0  0  0  0  0  0  0  0
    3.7320    2.4650    0.0000 H   0  0  0  0  0  0  0  0  0  0  0  0
    3.1120    1.8450    0.0000 H   0  0  0  0  0  0  0  0  0  0  0  0
    7.5252    3.6550    0.0000 H   0  0  0  0  0  0  0  0  0  0  0  0
  1  6  1  0  0  0  0
  1  7  2  0  0  0  0
  1  8  2  0  0  0  0
  1 15  1  0  0  0  0
  2  9  1  0  0  0  0
  2 10  2  0  0  0  0
  2 11  2  0  0  0  0
  2 19  1  0  0  0  0
  5 20  1  0  0  0  0
  5 45  1  0  0  0  0
 12 13  2  0  0  0  0
 12 17  1  0  0  0  0
 13 22  1  0  0  0  0
 14 15  1  0  0  0  0
 14 16  1  0  0  0  0
 14 25  2  0  0  0  0
 15 17  2  0  0  0  0
 16 20  1  0  0  0  0
 16 27  2  0  0  0  0
 17 23  1  0  0  0  0
 18 19  2  0  0  0  0
 18 24  1  0  0  0  0
 18 30  1  0  0  0  0
 19 26  1  0  0  0  0
 20 23  2  0  0  0  0
 21 22  1  0  0  0  0
 21 24  2  0  0  0  0
 21 31  1  0  0  0  0
 22 26  2  0  0  0  0
 23 32  1  0  0  0  0
 24 33  1  0  0  0  0
 25 28  1  0  0  0  0
 25 34  1  0  0  0  0
 26 35  1  0  0  0  0
 27 29  1  0  0  0  0
 27 36  1  0  0  0  0
 28 29  2  0  0  0  0
 28 37  1  0  0  0  0
 29 38  1  0  0  0  0
 30 39  1  0  0  0  0
 30 40  1  0  0  0  0
 30 41  1  0  0  0  0
 31 42  1  0  0  0  0
 31 43  1  0  0  0  0
 31 44  1  0  0  0  0
M  CHG  4   3   1   4   1   6  -1   9  -1
M  END
> <PUBCHEM_COMPOUND_CID>
53297435

> <PUBCHEM_COMPOUND_CANONICALIZED>
1

> <PUBCHEM_CACTVS_COMPLEXITY>
792

> <PUBCHEM_CACTVS_HBOND_ACCEPTOR>
9

> <PUBCHEM_CACTVS_HBOND_DONOR>
1

> <PUBCHEM_CACTVS_ROTATABLE_BOND>
2

> <PUBCHEM_CACTVS_SUBSKEYS>
AAADccB7ODBgAAAAAAAAAAAAAAAAAAAAAAAwYMAAAAAAAADBVAAAHgQICAAADAyB2AAyx8AAAgKCAiRCQHDCAEAgIgAIiBwGbIgIJiKCkZOAcARmwBkI2AeQ0PEOmIADwiAeAQAxAAeEQDwCAAAAAAAAAA==

> <PUBCHEM_IUPAC_OPENEYE_NAME>
disodium 2-(2,4-dimethyl-5-sulfonato-phenyl)azo-4-hydroxy-naphthalene-1-sulfonate

> <PUBCHEM_IUPAC_CAS_NAME>
disodium 2-(2,4-dimethyl-5-sulfonatophenyl)azo-4-hydroxy-1-naphthalenesulfonate

> <PUBCHEM_IUPAC_NAME>
disodium 2-[(2,4-dimethyl-5-sulfonatophenyl)diazenyl]-4-hydroxynaphthalene-1-sulfonate

> <PUBCHEM_IUPAC_SYSTEMATIC_NAME>
disodium 2-[(2,4-dimethyl-5-sulfonato-phenyl)diazenyl]-4-oxidanyl-naphthalene-1-sulfonate

> <PUBCHEM_IUPAC_TRADITIONAL_NAME>
disodium 2-(2,4-dimethyl-5-sulfonato-phenyl)azo-4-hydroxy-naphthalene-1-sulfonate

> <PUBCHEM_IUPAC_INCHI>
InChI=1S/C18H16N2O7S2.2Na/c1-10-7-11(2)17(28(22,23)24)9-14(10)19-20-15-8-16(21)12-5-3-4-6-13(12)18(15)29(25,26)27;;/h3-9,21H,1-2H3,(H,22,23,24)(H,25,26,27);;/q;2*+1/p-2

> <PUBCHEM_IUPAC_INCHIKEY>
UBCRUPQPEJKSMS-UHFFFAOYSA-L

> <PUBCHEM_EXACT_MASS>
480.003781

> <PUBCHEM_MOLECULAR_FORMULA>
C18H14N2Na2O7S2

> <PUBCHEM_MOLECULAR_WEIGHT>
480.422499

> <PUBCHEM_OPENEYE_CAN_SMILES>
CC1=CC(=C(C=C1N=NC2=C(C3=CC=CC=C3C(=C2)O)S(=O)(=O)[O-])S(=O)(=O)[O-])C.[Na+].[Na+]

> <PUBCHEM_OPENEYE_ISO_SMILES>
CC1=CC(=C(C=C1N=NC2=C(C3=CC=CC=C3C(=C2)O)S(=O)(=O)[O-])S(=O)(=O)[O-])C.[Na+].[Na+]

> <PUBCHEM_CACTVS_TPSA>
176

> <PUBCHEM_MONOISOTOPIC_WEIGHT>
480.003781

> <PUBCHEM_TOTAL_CHARGE>
0

> <PUBCHEM_HEAVY_ATOM_COUNT>
31

> <PUBCHEM_ATOM_DEF_STEREO_COUNT>
0

> <PUBCHEM_ATOM_UDEF_STEREO_COUNT>
0

> <PUBCHEM_BOND_DEF_STEREO_COUNT>
0

> <PUBCHEM_BOND_UDEF_STEREO_COUNT>
0

> <PUBCHEM_ISOTOPIC_ATOM_COUNT>
0

> <PUBCHEM_COMPONENT_COUNT>
3

> <PUBCHEM_CACTVS_TAUTO_COUNT>
17

> <PUBCHEM_COORDINATE_TYPE>
1
5
255

> <PUBCHEM_BONDANNOTATIONS>
14  15  8
14  16  8
14  25  8
15  17  8
16  20  8
16  27  8
17  23  8
18  19  8
18  24  8
19  26  8
20  23  8
21  22  8
21  24  8
22  26  8
25  28  8
27  29  8
28  29  8

$$$$

