11690
  -OEChem-06261205592D

 41 43  0     1  0  0  0  0  0999 V2000
    2.6484    0.0000    0.0000 Cl  0  5  0  0  0  0  0  0  0  0  0  0
    1.1445    4.1294    0.0000 O   0  0  0  0  0  0  0  0  0  0  0  0
    0.9735    6.2964    0.0000 O   0  0  0  0  0  0  0  0  0  0  0  0
    0.1113    4.7439    0.0000 O   0  0  0  0  0  0  0  0  0  0  0  0
    4.5202    5.2714    0.0000 N   0  3  3  0  0  0  0  0  0  0  0  0
    3.6506    4.7694    0.0000 C   0  0  1  0  0  0  0  0  0  0  0  0
    2.7810    5.2714    0.0000 C   0  0  0  0  0  0  0  0  0  0  0  0
    2.6309    4.5662    0.0000 C   0  0  0  0  0  0  0  0  0  0  0  0
    3.8607    3.7936    0.0000 C   0  0  0  0  0  0  0  0  0  0  0  0
    4.5202    6.2756    0.0000 C   0  0  0  0  0  0  0  0  0  0  0  0
    5.2602    4.6016    0.0000 C   0  0  0  0  0  0  0  0  0  0  0  0
    3.6506    6.7776    0.0000 C   0  0  0  0  0  0  0  0  0  0  0  0
    2.7810    6.2756    0.0000 C   0  0  0  0  0  0  0  0  0  0  0  0
    4.8534    3.6900    0.0000 C   0  0  0  0  0  0  0  0  0  0  0  0
    2.1114    3.8741    0.0000 C   0  0  2  0  0  0  0  0  0  0  0  0
    1.8834    4.7345    0.0000 C   0  0  0  0  0  0  0  0  0  0  0  0
    3.3543    3.1509    0.0000 C   0  0  0  0  0  0  0  0  0  0  0  0
    2.2244    2.9928    0.0000 C   0  0  0  0  0  0  0  0  0  0  0  0
    1.8834    6.8125    0.0000 C   0  0  0  0  0  0  0  0  0  0  0  0
    0.9735    5.2505    0.0000 C   0  0  0  0  0  0  0  0  0  0  0  0
    0.4400    3.4198    0.0000 C   0  0  0  0  0  0  0  0  0  0  0  0
    5.0869    5.5228    0.0000 H   0  0  0  0  0  0  0  0  0  0  0  0
    2.6827    5.1841    0.0000 H   0  0  0  0  0  0  0  0  0  0  0  0
    2.0515    4.7868    0.0000 H   0  0  0  0  0  0  0  0  0  0  0  0
    5.1308    6.1679    0.0000 H   0  0  0  0  0  0  0  0  0  0  0  0
    4.7322    6.8582    0.0000 H   0  0  0  0  0  0  0  0  0  0  0  0
    5.7967    4.2908    0.0000 H   0  0  0  0  0  0  0  0  0  0  0  0
    5.6257    5.1024    0.0000 H   0  0  0  0  0  0  0  0  0  0  0  0
    4.0491    7.2526    0.0000 H   0  0  0  0  0  0  0  0  0  0  0  0
    3.2521    7.2526    0.0000 H   0  0  0  0  0  0  0  0  0  0  0  0
    5.1634    3.1531    0.0000 H   0  0  0  0  0  0  0  0  0  0  0  0
    1.9079    4.4598    0.0000 H   0  0  0  0  0  0  0  0  0  0  0  0
    1.4897    4.2555    0.0000 H   0  0  0  0  0  0  0  0  0  0  0  0
    2.2880    4.2647    0.0000 H   0  0  0  0  0  0  0  0  0  0  0  0
    3.6630    2.6133    0.0000 H   0  0  0  0  0  0  0  0  0  0  0  0
    1.8481    2.5000    0.0000 H   0  0  0  0  0  0  0  0  0  0  0  0
    2.2880    7.2822    0.0000 H   0  0  0  0  0  0  0  0  0  0  0  0
    1.4897    7.2915    0.0000 H   0  0  0  0  0  0  0  0  0  0  0  0
    0.0000    3.8566    0.0000 H   0  0  0  0  0  0  0  0  0  0  0  0
    0.0032    2.9798    0.0000 H   0  0  0  0  0  0  0  0  0  0  0  0
    0.8800    2.9830    0.0000 H   0  0  0  0  0  0  0  0  0  0  0  0
 15  2  1  6  0  0  0
  2 21  1  0  0  0  0
  3 19  1  0  0  0  0
  3 20  1  0  0  0  0
  4 20  2  0  0  0  0
  5  6  1  0  0  0  0
  5 10  1  0  0  0  0
  5 11  1  0  0  0  0
  5 22  1  0  0  0  0
  6  7  1  0  0  0  0
  6  8  1  6  0  0  0
  6  9  1  0  0  0  0
  7 13  2  0  0  0  0
  7 16  1  0  0  0  0
  8 15  1  0  0  0  0
  8 23  1  0  0  0  0
  8 24  1  0  0  0  0
  9 14  2  0  0  0  0
  9 17  1  0  0  0  0
 10 12  1  0  0  0  0
 10 25  1  0  0  0  0
 10 26  1  0  0  0  0
 11 14  1  0  0  0  0
 11 27  1  0  0  0  0
 11 28  1  0  0  0  0
 12 13  1  0  0  0  0
 12 29  1  0  0  0  0
 12 30  1  0  0  0  0
 13 19  1  0  0  0  0
 14 31  1  0  0  0  0
 15 18  1  0  0  0  0
 15 32  1  0  0  0  0
 16 20  1  0  0  0  0
 16 33  1  0  0  0  0
 16 34  1  0  0  0  0
 17 18  2  0  0  0  0
 17 35  1  0  0  0  0
 18 36  1  0  0  0  0
 19 37  1  0  0  0  0
 19 38  1  0  0  0  0
 21 39  1  0  0  0  0
 21 40  1  0  0  0  0
 21 41  1  0  0  0  0
M  CHG  2   1  -1   5   1
M  END
> <PUBCHEM_COMPOUND_CID>
11690

> <PUBCHEM_COMPOUND_CANONICALIZED>
1

> <PUBCHEM_CACTVS_COMPLEXITY>
560

> <PUBCHEM_CACTVS_HBOND_ACCEPTOR>
4

> <PUBCHEM_CACTVS_HBOND_DONOR>
1

> <PUBCHEM_CACTVS_ROTATABLE_BOND>
1

> <PUBCHEM_CACTVS_SUBSKEYS>
AAADceB6MAAEAAAAAAAAAAAAAAAAAQAAAAAgQIAAAAAAAECwAAAAHgAQAAAADJzhgAYCCAPABACIAiDSCACAAAAgAAAICIEIAAgIBBIAoQAGEAAG0ACIoAOsyCCOAAAAAAAAAAAAAAAAAAAAAAAAAAAAAA==

> <PUBCHEM_IUPAC_INCHI>
InChI=1S/C16H19NO3.ClH/c1-19-13-3-2-12-5-7-17-6-4-11-10-20-15(18)8-14(11)16(12,17)9-13;/h2-3,5,13H,4,6-10H2,1H3;1H/t13-,16-;/m0./s1

> <PUBCHEM_IUPAC_INCHIKEY>
PLENFHSJZZDRNT-LINSIKMZSA-N

> <PUBCHEM_EXACT_MASS>
309.113171

> <PUBCHEM_MOLECULAR_FORMULA>
C16H20ClNO3

> <PUBCHEM_MOLECULAR_WEIGHT>
309.7879

> <PUBCHEM_OPENEYE_CAN_SMILES>
COC1CC23C4=C(CC[NH+]2CC=C3C=C1)COC(=O)C4.[Cl-]

> <PUBCHEM_OPENEYE_ISO_SMILES>
CO[C@@H]1C[C@]23C4=C(CC[NH+]2CC=C3C=C1)COC(=O)C4.[Cl-]

> <PUBCHEM_CACTVS_TPSA>
40

> <PUBCHEM_MONOISOTOPIC_WEIGHT>
309.113171

> <PUBCHEM_TOTAL_CHARGE>
0

> <PUBCHEM_HEAVY_ATOM_COUNT>
21

> <PUBCHEM_ATOM_DEF_STEREO_COUNT>
2

> <PUBCHEM_ATOM_UDEF_STEREO_COUNT>
0

> <PUBCHEM_BOND_DEF_STEREO_COUNT>
0

> <PUBCHEM_BOND_UDEF_STEREO_COUNT>
0

> <PUBCHEM_ISOTOPIC_ATOM_COUNT>
0

> <PUBCHEM_COMPONENT_COUNT>
2

> <PUBCHEM_CACTVS_TAUTO_COUNT>
2

> <PUBCHEM_COORDINATE_TYPE>
1
5
255

> <PUBCHEM_BONDANNOTATIONS>
15  2  6
6  8  6

$$$$

