128618
  -OEChem-07051213042D

 36 38  0     0  0  0  0  0  0999 V2000
    8.3780   -0.9946    0.0000 O   0  0  0  0  0  0  0  0  0  0  0  0
    7.0864   -2.1486    0.0000 O   0  0  0  0  0  0  0  0  0  0  0  0
    4.5274    1.6619    0.0000 N   0  0  0  0  0  0  0  0  0  0  0  0
    7.0547    0.5377    0.0000 N   0  0  0  0  0  0  0  0  0  0  0  0
    5.0274    0.1230    0.0000 C   0  0  0  0  0  0  0  0  0  0  0  0
    4.0274    0.1230    0.0000 C   0  0  0  0  0  0  0  0  0  0  0  0
    5.3364    1.0741    0.0000 C   0  0  0  0  0  0  0  0  0  0  0  0
    3.7183    1.0741    0.0000 C   0  0  0  0  0  0  0  0  0  0  0  0
    5.7123   -0.6617    0.0000 C   0  0  0  0  0  0  0  0  0  0  0  0
    3.3424   -0.6617    0.0000 C   0  0  0  0  0  0  0  0  0  0  0  0
   10.0232   -1.5362    0.0000 C   0  0  0  0  0  0  0  0  0  0  0  0
    6.7328   -0.4530    0.0000 C   0  0  0  0  0  0  0  0  0  0  0  0
    2.7029    1.3063    0.0000 C   0  0  0  0  0  0  0  0  0  0  0  0
    6.3518    1.3063    0.0000 C   0  0  0  0  0  0  0  0  0  0  0  0
   10.6895   -2.2819    0.0000 C   0  0  0  0  0  0  0  0  0  0  0  0
    9.0443   -1.7403    0.0000 C   0  0  0  0  0  0  0  0  0  0  0  0
    2.3219   -0.4530    0.0000 C   0  0  0  0  0  0  0  0  0  0  0  0
    2.0000    0.5377    0.0000 C   0  0  0  0  0  0  0  0  0  0  0  0
    7.3991   -1.1987    0.0000 C   0  0  0  0  0  0  0  0  0  0  0  0
   11.6684   -2.0777    0.0000 C   0  0  0  0  0  0  0  0  0  0  0  0
    4.5274    2.2819    0.0000 H   0  0  0  0  0  0  0  0  0  0  0  0
    5.5139   -1.2491    0.0000 H   0  0  0  0  0  0  0  0  0  0  0  0
    3.5408   -1.2491    0.0000 H   0  0  0  0  0  0  0  0  0  0  0  0
   10.5503   -1.2096    0.0000 H   0  0  0  0  0  0  0  0  0  0  0  0
    9.7932   -0.9604    0.0000 H   0  0  0  0  0  0  0  0  0  0  0  0
    2.5182    1.8982    0.0000 H   0  0  0  0  0  0  0  0  0  0  0  0
    6.5365    1.8982    0.0000 H   0  0  0  0  0  0  0  0  0  0  0  0
   10.1625   -2.6084    0.0000 H   0  0  0  0  0  0  0  0  0  0  0  0
   10.9195   -2.8576    0.0000 H   0  0  0  0  0  0  0  0  0  0  0  0
    8.5172   -2.0668    0.0000 H   0  0  0  0  0  0  0  0  0  0  0  0
    9.2743   -2.3160    0.0000 H   0  0  0  0  0  0  0  0  0  0  0  0
    1.9088   -0.9153    0.0000 H   0  0  0  0  0  0  0  0  0  0  0  0
    1.3940    0.6689    0.0000 H   0  0  0  0  0  0  0  0  0  0  0  0
   11.7950   -2.6847    0.0000 H   0  0  0  0  0  0  0  0  0  0  0  0
   12.2754   -1.9512    0.0000 H   0  0  0  0  0  0  0  0  0  0  0  0
   11.5419   -1.4708    0.0000 H   0  0  0  0  0  0  0  0  0  0  0  0
  1 16  1  0  0  0  0
  1 19  1  0  0  0  0
  2 19  2  0  0  0  0
  3  7  1  0  0  0  0
  3  8  1  0  0  0  0
  3 21  1  0  0  0  0
  4 12  2  0  0  0  0
  4 14  1  0  0  0  0
  5  6  1  0  0  0  0
  5  7  1  0  0  0  0
  5  9  2  0  0  0  0
  6  8  1  0  0  0  0
  6 10  2  0  0  0  0
  7 14  2  0  0  0  0
  8 13  2  0  0  0  0
  9 12  1  0  0  0  0
  9 22  1  0  0  0  0
 10 17  1  0  0  0  0
 10 23  1  0  0  0  0
 11 15  1  0  0  0  0
 11 16  1  0  0  0  0
 11 24  1  0  0  0  0
 11 25  1  0  0  0  0
 12 19  1  0  0  0  0
 13 18  1  0  0  0  0
 13 26  1  0  0  0  0
 14 27  1  0  0  0  0
 15 20  1  0  0  0  0
 15 28  1  0  0  0  0
 15 29  1  0  0  0  0
 16 30  1  0  0  0  0
 16 31  1  0  0  0  0
 17 18  2  0  0  0  0
 17 32  1  0  0  0  0
 18 33  1  0  0  0  0
 20 34  1  0  0  0  0
 20 35  1  0  0  0  0
 20 36  1  0  0  0  0
M  END
> <PUBCHEM_COMPOUND_CID>
128618

> <PUBCHEM_COMPOUND_CANONICALIZED>
1

> <PUBCHEM_CACTVS_COMPLEXITY>
347

> <PUBCHEM_CACTVS_HBOND_ACCEPTOR>
3

> <PUBCHEM_CACTVS_HBOND_DONOR>
1

> <PUBCHEM_CACTVS_ROTATABLE_BOND>
5

> <PUBCHEM_CACTVS_SUBSKEYS>
AAADceB7MAAAAAAAAAAAAAAAAAAAAWAAAAA8QAAAAAAAAFgB/gAAHgAQAAAADAjhngY+yPLJlACoAzT3TASCgCQ3EiAI2SG4fNgKZvLAtbmXMQhk0AHY6YeY2fOegAAAAAACAAAAAAAAAAQAAAAAAAAAAA==

> <PUBCHEM_IUPAC_OPENEYE_NAME>
butyl 9H-pyrido[3,4-b]indole-3-carboxylate

> <PUBCHEM_IUPAC_CAS_NAME>
9H-pyrido[3,4-b]indole-3-carboxylic acid butyl ester

> <PUBCHEM_IUPAC_NAME>
butyl 9H-pyrido[3,4-b]indole-3-carboxylate

> <PUBCHEM_IUPAC_SYSTEMATIC_NAME>
butyl 9H-pyrido[3,4-b]indole-3-carboxylate

> <PUBCHEM_IUPAC_TRADITIONAL_NAME>
9H-$b-carboline-3-carboxylic acid butyl ester

> <PUBCHEM_IUPAC_INCHI>
InChI=1S/C16H16N2O2/c1-2-3-8-20-16(19)14-9-12-11-6-4-5-7-13(11)18-15(12)10-17-14/h4-7,9-10,18H,2-3,8H2,1H3

> <PUBCHEM_IUPAC_INCHIKEY>
WGNGIELOOKACSB-UHFFFAOYSA-N

> <PUBCHEM_XLOGP3_AA>
3.8

> <PUBCHEM_EXACT_MASS>
268.121178

> <PUBCHEM_MOLECULAR_FORMULA>
C16H16N2O2

> <PUBCHEM_MOLECULAR_WEIGHT>
268.31044

> <PUBCHEM_OPENEYE_CAN_SMILES>
CCCCOC(=O)C1=NC=C2C(=C1)C3=CC=CC=C3N2

> <PUBCHEM_OPENEYE_ISO_SMILES>
CCCCOC(=O)C1=NC=C2C(=C1)C3=CC=CC=C3N2

> <PUBCHEM_CACTVS_TPSA>
55

> <PUBCHEM_MONOISOTOPIC_WEIGHT>
268.121178

> <PUBCHEM_TOTAL_CHARGE>
0

> <PUBCHEM_HEAVY_ATOM_COUNT>
20

> <PUBCHEM_ATOM_DEF_STEREO_COUNT>
0

> <PUBCHEM_ATOM_UDEF_STEREO_COUNT>
0

> <PUBCHEM_BOND_DEF_STEREO_COUNT>
0

> <PUBCHEM_BOND_UDEF_STEREO_COUNT>
0

> <PUBCHEM_ISOTOPIC_ATOM_COUNT>
0

> <PUBCHEM_COMPONENT_COUNT>
1

> <PUBCHEM_CACTVS_TAUTO_COUNT>
4

> <PUBCHEM_COORDINATE_TYPE>
1
5
255

> <PUBCHEM_BONDANNOTATIONS>
10  17  8
13  18  8
17  18  8
3  7  8
3  8  8
4  12  8
4  14  8
5  6  8
5  7  8
5  9  8
6  10  8
6  8  8
7  14  8
8  13  8
9  12  8

$$$$

