17396260
  -OEChem-06241222553D

 38 40  0     0  0  0  0  0  0999 V2000
    6.0720    2.2958   -0.2528 F   0  0  0  0  0  0  0  0  0  0  0  0
    6.1115    1.2900    1.6684 F   0  0  0  0  0  0  0  0  0  0  0  0
    7.1000    0.3907   -0.0471 F   0  0  0  0  0  0  0  0  0  0  0  0
   -5.4890    0.8908   -1.4368 O   0  0  0  0  0  0  0  0  0  0  0  0
   -5.9941    0.6331    1.3899 O   0  0  0  0  0  0  0  0  0  0  0  0
    0.0339   -1.7523    1.1016 O   0  0  0  0  0  0  0  0  0  0  0  0
   -1.1246   -0.9305   -0.7739 N   0  0  0  0  0  0  0  0  0  0  0  0
   -4.5658    0.3829   -0.5604 C   0  0  0  0  0  0  0  0  0  0  0  0
   -4.8148    0.2478    0.8077 C   0  0  0  0  0  0  0  0  0  0  0  0
   -2.3574   -0.5408   -0.2490 C   0  0  0  0  0  0  0  0  0  0  0  0
    1.1201   -1.7713   -1.0504 C   0  0  0  0  0  0  0  0  0  0  0  0
    2.3833   -1.0335   -0.6921 C   0  0  0  0  0  0  0  0  0  0  0  0
   -6.8025    0.9182   -0.8713 C   0  0  0  0  0  0  0  0  0  0  0  0
   -3.3312    0.0025   -1.0871 C   0  0  0  0  0  0  0  0  0  0  0  0
   -6.7576    1.4871    0.5335 C   0  0  0  0  0  0  0  0  0  0  0  0
   -3.8452   -0.3082    1.6426 C   0  0  0  0  0  0  0  0  0  0  0  0
   -2.6159   -0.7010    1.1127 C   0  0  0  0  0  0  0  0  0  0  0  0
   -0.0319   -1.4968   -0.0966 C   0  0  0  0  0  0  0  0  0  0  0  0
    2.6205    0.2383   -1.2138 C   0  0  0  0  0  0  0  0  0  0  0  0
    3.3162   -1.6220    0.1619 C   0  0  0  0  0  0  0  0  0  0  0  0
    4.7230    0.3329   -0.0278 C   0  0  0  0  0  0  0  0  0  0  0  0
    3.7902    0.9215   -0.8817 C   0  0  0  0  0  0  0  0  0  0  0  0
    4.4860   -0.9388    0.4940 C   0  0  0  0  0  0  0  0  0  0  0  0
    5.9734    1.0635    0.3284 C   0  0  0  0  0  0  0  0  0  0  0  0
    0.8501   -1.5422   -2.0882 H   0  0  0  0  0  0  0  0  0  0  0  0
    1.3019   -2.8539   -1.0349 H   0  0  0  0  0  0  0  0  0  0  0  0
   -7.4289    1.5438   -1.5148 H   0  0  0  0  0  0  0  0  0  0  0  0
   -7.2099   -0.1004   -0.8821 H   0  0  0  0  0  0  0  0  0  0  0  0
   -3.1384    0.1217   -2.1507 H   0  0  0  0  0  0  0  0  0  0  0  0
   -6.3112    2.4891    0.5497 H   0  0  0  0  0  0  0  0  0  0  0  0
   -7.7682    1.5566    0.9480 H   0  0  0  0  0  0  0  0  0  0  0  0
   -4.0364   -0.4280    2.7057 H   0  0  0  0  0  0  0  0  0  0  0  0
   -1.9145   -1.1174    1.8219 H   0  0  0  0  0  0  0  0  0  0  0  0
   -1.0219   -0.7766   -1.7744 H   0  0  0  0  0  0  0  0  0  0  0  0
    1.8998    0.7074   -1.8784 H   0  0  0  0  0  0  0  0  0  0  0  0
    3.1422   -2.6114    0.5763 H   0  0  0  0  0  0  0  0  0  0  0  0
    3.9566    1.9114   -1.2974 H   0  0  0  0  0  0  0  0  0  0  0  0
    5.2066   -1.4051    1.1606 H   0  0  0  0  0  0  0  0  0  0  0  0
  1 24  1  0  0  0  0
  2 24  1  0  0  0  0
  3 24  1  0  0  0  0
  4  8  1  0  0  0  0
  4 13  1  0  0  0  0
  5  9  1  0  0  0  0
  5 15  1  0  0  0  0
  6 18  2  0  0  0  0
  7 10  1  0  0  0  0
  7 18  1  0  0  0  0
  7 34  1  0  0  0  0
  8  9  2  0  0  0  0
  8 14  1  0  0  0  0
  9 16  1  0  0  0  0
 10 14  2  0  0  0  0
 10 17  1  0  0  0  0
 11 12  1  0  0  0  0
 11 18  1  0  0  0  0
 11 25  1  0  0  0  0
 11 26  1  0  0  0  0
 12 19  2  0  0  0  0
 12 20  1  0  0  0  0
 13 15  1  0  0  0  0
 13 27  1  0  0  0  0
 13 28  1  0  0  0  0
 14 29  1  0  0  0  0
 15 30  1  0  0  0  0
 15 31  1  0  0  0  0
 16 17  2  0  0  0  0
 16 32  1  0  0  0  0
 17 33  1  0  0  0  0
 19 22  1  0  0  0  0
 19 35  1  0  0  0  0
 20 23  2  0  0  0  0
 20 36  1  0  0  0  0
 21 22  2  0  0  0  0
 21 23  1  0  0  0  0
 21 24  1  0  0  0  0
 22 37  1  0  0  0  0
 23 38  1  0  0  0  0
M  END
> <PUBCHEM_COMPOUND_CID>
17396260

> <PUBCHEM_CONFORMER_RMSD>
0.8

> <PUBCHEM_CONFORMER_DIVERSEORDER>
3
18
12
2
4
23
22
27
10
11
15
26
16
19
14
25
20
7
5
13
9
8
6
1
28
24
21
17

> <PUBCHEM_MMFF94_PARTIAL_CHARGES>
32
1 -0.34
10 0.12
11 0.2
12 -0.14
13 0.28
14 -0.15
15 0.28
16 -0.15
17 -0.15
18 0.57
19 -0.15
2 -0.34
20 -0.15
21 -0.14
22 -0.15
23 -0.15
24 1.16
29 0.15
3 -0.34
32 0.15
33 0.15
34 0.37
35 0.15
36 0.15
37 0.15
38 0.15
4 -0.36
5 -0.36
6 -0.57
7 -0.55
8 0.08
9 0.08

> <PUBCHEM_EFFECTIVE_ROTOR_COUNT>
5.8

> <PUBCHEM_PHARMACOPHORE_FEATURES>
7
1 4 acceptor
1 5 acceptor
1 6 acceptor
1 7 donor
6 12 19 20 21 22 23 rings
6 4 5 8 9 13 15 rings
6 8 9 10 14 16 17 rings

> <PUBCHEM_HEAVY_ATOM_COUNT>
24

> <PUBCHEM_ATOM_DEF_STEREO_COUNT>
0

> <PUBCHEM_ATOM_UDEF_STEREO_COUNT>
0

> <PUBCHEM_BOND_DEF_STEREO_COUNT>
0

> <PUBCHEM_BOND_UDEF_STEREO_COUNT>
0

> <PUBCHEM_ISOTOPIC_ATOM_COUNT>
0

> <PUBCHEM_COMPONENT_COUNT>
1

> <PUBCHEM_CACTVS_TAUTO_COUNT>
2

> <PUBCHEM_CONFORMER_ID>
0109722400000003

> <PUBCHEM_MMFF94_ENERGY>
65.7455

> <PUBCHEM_FEATURE_SELFOVERLAP>
35.562

> <PUBCHEM_SHAPE_FINGERPRINT>
10 15 17346595261849951468
10299344 5 12679457603885376274
10319926 262 16558743533820018099
10670039 82 15792004614822814458
12236239 1 17676208013493180303
12596602 18 15051729772507112476
12760667 363 10375871883553915871
13533116 47 17845093046416502962
13668630 136 9367343734648126369
13673619 4 9007057963207747466
13685833 64 10664101151377075318
13690498 29 15503239777847608085
14123256 34 10231758902827466880
14251764 18 14764339431971224526
14251764 30 9439404622646109681
14341114 176 17418091052754074982
14528608 73 16588027917660453755
15183329 4 14129054841915156215
15188451 53 15625935388250230443
15238133 3 17917702467006239526
15348495 7 17131542852041290121
15537594 2 10087643671865709392
15575132 122 17458902764684070049
17134984 74 6411297923501599076
17870717 6 5039948534142141359
18335252 114 18040719186475687980
18335252 98 17676202451874905903
19784866 240 9367341544536565231
20157964 124 18335983151042075214
2026 5 8790068244957398268
20871999 31 14056712461465109479
21033648 29 17917986174701682050
21130935 74 18059851822744742971
21150785 3 17458349633072879301
21267235 1 10159699109829489454
21298829 104 18113893897044124593
21637258 2 11024112031820354422
221357 26 6483353313530090034
23081809 10 17095522946026816847
23198884 109 16660640760965163631
23559900 14 17058916956948613959
2748736 6 18260551099925957696
2767999 5 18187366523580421244
2838139 119 17821729433843563088
300161 21 18334014990530858263
3004659 81 15647609098632349158
312425 54 15913048677620395304
3472631 163 17676488315753733148
34797466 226 5328448315669138042
351380 3 11527946746578950623
465052 167 11239991265551176914
5104073 3 15410026527713648221
5364581 5 17416393278126168285
54039377 194 10519717700435676768
543368 44 17894348891645899713
559249 180 12679465283766994927
5924683 9 17632004236005981403
6608658 132 16805593820109800753
7970288 3 11455888048692743088

> <PUBCHEM_SHAPE_MULTIPOLES>
449.5
19.81
1.7
1.38
0.04
0.02
-0.2
12.69
-2.69
-1.77
-0.03
0.97
0.05
0.62

> <PUBCHEM_SHAPE_SELFOVERLAP>
977.73

> <PUBCHEM_SHAPE_VOLUME>
244.7

> <PUBCHEM_COORDINATE_TYPE>
2
5
10

$$$$

