17396330
  -OEChem-06241222563D

 35 36  0     1  0  0  0  0  0999 V2000
    5.7100   -1.1466   -0.2407 Cl  0  0  0  0  0  0  0  0  0  0  0  0
   -2.8710    1.3527   -0.6764 S   0  0  0  0  0  0  0  0  0  0  0  0
    0.1858    2.8591   -0.7659 O   0  0  0  0  0  0  0  0  0  0  0  0
   -2.1527   -1.3111   -0.7964 N   0  0  0  0  0  0  0  0  0  0  0  0
    0.2228    0.9354    0.5780 N   0  0  0  0  0  0  0  0  0  0  0  0
   -2.9306   -0.7087    1.1581 N   0  0  0  0  0  0  0  0  0  0  0  0
   -2.6058   -2.0495    1.2129 N   0  0  0  0  0  0  0  0  0  0  0  0
   -1.7893    2.2631    0.4747 C   0  0  1  0  0  0  0  0  0  0  0  0
   -2.6518   -0.2844   -0.0538 C   0  0  0  0  0  0  0  0  0  0  0  0
   -0.3498    2.0692    0.0071 C   0  0  0  0  0  0  0  0  0  0  0  0
   -2.1845    3.7344    0.4911 C   0  0  0  0  0  0  0  0  0  0  0  0
   -2.1417   -2.3918    0.0324 C   0  0  0  0  0  0  0  0  0  0  0  0
    1.5331    0.4380    0.3822 C   0  0  0  0  0  0  0  0  0  0  0  0
   -1.7199   -1.2847   -2.1744 C   0  0  0  0  0  0  0  0  0  0  0  0
   -1.6696   -3.7248   -0.3837 C   0  0  0  0  0  0  0  0  0  0  0  0
    1.9443   -0.7216    1.0395 C   0  0  0  0  0  0  0  0  0  0  0  0
    2.4134    1.1074   -0.4678 C   0  0  0  0  0  0  0  0  0  0  0  0
    3.2360   -1.2115    0.8467 C   0  0  0  0  0  0  0  0  0  0  0  0
    3.7051    0.6175   -0.6605 C   0  0  0  0  0  0  0  0  0  0  0  0
    4.1163   -0.5421   -0.0032 C   0  0  0  0  0  0  0  0  0  0  0  0
   -1.9114    1.8726    1.4914 H   0  0  0  0  0  0  0  0  0  0  0  0
   -2.1123    4.1950   -0.5011 H   0  0  0  0  0  0  0  0  0  0  0  0
   -3.2081    3.8675    0.8583 H   0  0  0  0  0  0  0  0  0  0  0  0
   -1.5192    4.2981    1.1551 H   0  0  0  0  0  0  0  0  0  0  0  0
   -0.3477    0.3893    1.2192 H   0  0  0  0  0  0  0  0  0  0  0  0
   -2.5698   -0.9931   -2.7971 H   0  0  0  0  0  0  0  0  0  0  0  0
   -0.9080   -0.5585   -2.2668 H   0  0  0  0  0  0  0  0  0  0  0  0
   -1.3614   -2.2651   -2.4913 H   0  0  0  0  0  0  0  0  0  0  0  0
   -2.2655   -4.1125   -1.2158 H   0  0  0  0  0  0  0  0  0  0  0  0
   -0.6173   -3.6938   -0.6830 H   0  0  0  0  0  0  0  0  0  0  0  0
   -1.7568   -4.4352    0.4448 H   0  0  0  0  0  0  0  0  0  0  0  0
    1.2674   -1.2534    1.7033 H   0  0  0  0  0  0  0  0  0  0  0  0
    2.1690    2.0084   -1.0121 H   0  0  0  0  0  0  0  0  0  0  0  0
    3.5426   -2.1164    1.3651 H   0  0  0  0  0  0  0  0  0  0  0  0
    4.3812    1.1485   -1.3258 H   0  0  0  0  0  0  0  0  0  0  0  0
  1 20  1  0  0  0  0
  2  8  1  0  0  0  0
  2  9  1  0  0  0  0
  3 10  2  0  0  0  0
  4  9  1  0  0  0  0
  4 12  1  0  0  0  0
  4 14  1  0  0  0  0
  5 10  1  0  0  0  0
  5 13  1  0  0  0  0
  5 25  1  0  0  0  0
  6  7  1  0  0  0  0
  6  9  2  0  0  0  0
  7 12  2  0  0  0  0
  8 10  1  0  0  0  0
  8 11  1  0  0  0  0
  8 21  1  0  0  0  0
 11 22  1  0  0  0  0
 11 23  1  0  0  0  0
 11 24  1  0  0  0  0
 12 15  1  0  0  0  0
 13 16  2  0  0  0  0
 13 17  1  0  0  0  0
 14 26  1  0  0  0  0
 14 27  1  0  0  0  0
 14 28  1  0  0  0  0
 15 29  1  0  0  0  0
 15 30  1  0  0  0  0
 15 31  1  0  0  0  0
 16 18  1  0  0  0  0
 16 32  1  0  0  0  0
 17 19  2  0  0  0  0
 17 33  1  0  0  0  0
 18 20  2  0  0  0  0
 18 34  1  0  0  0  0
 19 20  1  0  0  0  0
 19 35  1  0  0  0  0
M  END
> <PUBCHEM_COMPOUND_CID>
17396330

> <PUBCHEM_CONFORMER_RMSD>
0.8

> <PUBCHEM_CONFORMER_DIVERSEORDER>
2
24
49
26
5
10
39
57
51
30
41
31
21
46
56
29
52
27
59
61
38
28
17
58
22
35
64
23
4
48
16
8
63
62
20
13
42
1
34
19
33
50
3
14
44
9
36
7
6
47
11
60
32
40
45
53
43
25
12
37
18
55
54
15

> <PUBCHEM_MMFF94_PARTIAL_CHARGES>
24
1 -0.18
10 0.57
12 0.01
13 0.12
14 0.26
15 0.18
16 -0.15
17 -0.15
18 -0.15
19 -0.15
2 -0.29
20 0.18
25 0.37
3 -0.57
32 0.15
33 0.15
34 0.15
35 0.15
4 0.05
5 -0.55
6 -0.34
7 -0.34
8 0.29
9 0.24

> <PUBCHEM_EFFECTIVE_ROTOR_COUNT>
5

> <PUBCHEM_PHARMACOPHORE_FEATURES>
7
1 11 hydrophobe
1 3 acceptor
1 5 donor
3 4 6 9 cation
3 4 7 12 cation
5 4 6 7 9 12 rings
6 13 16 17 18 19 20 rings

> <PUBCHEM_HEAVY_ATOM_COUNT>
20

> <PUBCHEM_ATOM_DEF_STEREO_COUNT>
0

> <PUBCHEM_ATOM_UDEF_STEREO_COUNT>
1

> <PUBCHEM_BOND_DEF_STEREO_COUNT>
0

> <PUBCHEM_BOND_UDEF_STEREO_COUNT>
0

> <PUBCHEM_ISOTOPIC_ATOM_COUNT>
0

> <PUBCHEM_COMPONENT_COUNT>
1

> <PUBCHEM_CACTVS_TAUTO_COUNT>
2

> <PUBCHEM_CONFORMER_ID>
0109726A00000002

> <PUBCHEM_MMFF94_ENERGY>
42.6351

> <PUBCHEM_FEATURE_SELFOVERLAP>
38.022

> <PUBCHEM_SHAPE_FINGERPRINT>
104564 63 18409169943262902322
10616163 171 18411416258688408058
107951 10 18120643897236081047
11014199 57 18120936101294784858
12553582 1 18338801087374059611
12633257 1 16370998568849571826
12788726 201 18264218061388075057
13257819 101 16626874935503462485
14081887 123 18263662687809893632
16752209 62 18263942088290805097
167882 2 17258502669759425013
20291156 8 18339921489743634850
20645476 183 18129950108119669229
20681677 155 18192712461090124016
20775438 99 16964402619671328271
21634736 98 18272647914249012612
21731516 1 18191590748385556477
221490 88 18341045229973043656
23557571 272 18187082906037723560
23559900 14 18336273401169702176
23598288 3 18408316692096142004
23728640 28 18336548312903134249
5364581 5 18116455682317860600
574716 61 17631145573205834054
81228 2 18265918954289436945
90525 40 18267588090133299817

> <PUBCHEM_SHAPE_MULTIPOLES>
391.52
7.92
3.94
1.22
12.15
0.01
-0.32
-1.93
-0.23
-4.62
-0.01
-0.53
-0.43
-0.48

> <PUBCHEM_SHAPE_SELFOVERLAP>
795.748

> <PUBCHEM_SHAPE_VOLUME>
231.2

> <PUBCHEM_COORDINATE_TYPE>
2
5
10

$$$$

