61873
  -OEChem-07051213142D

 19 19  0     1  0  0  0  0  0999 V2000
    6.1807   -1.9239    0.0000 O   0  0  0  0  0  0  0  0  0  0  0  0
    2.5896   -0.5240    0.0000 O   0  0  0  0  0  0  0  0  0  0  0  0
    3.1249    1.1233    0.0000 O   0  0  0  0  0  0  0  0  0  0  0  0
    5.9589    1.9239    0.0000 O   0  0  0  0  0  0  0  0  0  0  0  0
    5.0929    0.4239    0.0000 N   0  0  0  0  0  0  0  0  0  0  0  0
    5.0929    1.4239    0.0000 N   0  0  0  0  0  0  0  0  0  0  0  0
    4.2839   -0.1639    0.0000 C   0  0  1  0  0  0  0  0  0  0  0  0
    4.5929   -1.1149    0.0000 C   0  0  0  0  0  0  0  0  0  0  0  0
    5.5929   -1.1149    0.0000 C   0  0  2  0  0  0  0  0  0  0  0  0
    5.9019   -0.1639    0.0000 C   0  0  0  0  0  0  0  0  0  0  0  0
    3.3328    0.1452    0.0000 C   0  0  0  0  0  0  0  0  0  0  0  0
    4.1869    0.4485    0.0000 H   0  0  0  0  0  0  0  0  0  0  0  0
    3.9864   -1.2438    0.0000 H   0  0  0  0  0  0  0  0  0  0  0  0
    4.6577   -1.7315    0.0000 H   0  0  0  0  0  0  0  0  0  0  0  0
    6.2052   -1.0179    0.0000 H   0  0  0  0  0  0  0  0  0  0  0  0
    6.4683   -0.4160    0.0000 H   0  0  0  0  0  0  0  0  0  0  0  0
    6.2119    0.3731    0.0000 H   0  0  0  0  0  0  0  0  0  0  0  0
    6.7973   -1.8591    0.0000 H   0  0  0  0  0  0  0  0  0  0  0  0
    2.0000   -0.3324    0.0000 H   0  0  0  0  0  0  0  0  0  0  0  0
  9  1  1  6  0  0  0
  1 18  1  0  0  0  0
  2 11  1  0  0  0  0
  2 19  1  0  0  0  0
  3 11  2  0  0  0  0
  4  6  2  0  0  0  0
  5  6  1  0  0  0  0
  5  7  1  0  0  0  0
  5 10  1  0  0  0  0
  7  8  1  0  0  0  0
  7 11  1  1  0  0  0
  7 12  1  0  0  0  0
  8  9  1  0  0  0  0
  8 13  1  0  0  0  0
  8 14  1  0  0  0  0
  9 10  1  0  0  0  0
  9 15  1  0  0  0  0
 10 16  1  0  0  0  0
 10 17  1  0  0  0  0
M  END
> <PUBCHEM_COMPOUND_CID>
61873

> <PUBCHEM_COMPOUND_CANONICALIZED>
1

> <PUBCHEM_CACTVS_COMPLEXITY>
183

> <PUBCHEM_CACTVS_HBOND_ACCEPTOR>
6

> <PUBCHEM_CACTVS_HBOND_DONOR>
2

> <PUBCHEM_CACTVS_ROTATABLE_BOND>
1

> <PUBCHEM_CACTVS_SUBSKEYS>
AAADccBjOAAAAAAAAAAAAAAAAAAAAWAAAAAAAAAAAAAAAAAAAAAAHgAMCAAACDzhgAYACAIAAgAJAACQCAAAAAAAAAAQAAGIAAACEBIAgCAEQAAGAACQAADaEQAAAAAAAAAAAAAAAAAAAAAAAAAAAAAAAA==

> <PUBCHEM_IUPAC_OPENEYE_NAME>
(2S,4R)-4-hydroxy-1-nitroso-pyrrolidine-2-carboxylic acid

> <PUBCHEM_IUPAC_CAS_NAME>
(2S,4R)-4-hydroxy-1-nitroso-2-pyrrolidinecarboxylic acid

> <PUBCHEM_IUPAC_NAME>
(2S,4R)-4-hydroxy-1-nitrosopyrrolidine-2-carboxylic acid

> <PUBCHEM_IUPAC_SYSTEMATIC_NAME>
(2S,4R)-1-nitroso-4-oxidanyl-pyrrolidine-2-carboxylic acid

> <PUBCHEM_IUPAC_TRADITIONAL_NAME>
(2S,4R)-4-hydroxy-1-nitroso-proline

> <PUBCHEM_IUPAC_INCHI>
InChI=1S/C5H8N2O4/c8-3-1-4(5(9)10)7(2-3)6-11/h3-4,8H,1-2H2,(H,9,10)/t3-,4+/m1/s1

> <PUBCHEM_IUPAC_INCHIKEY>
ABVBOWJCKJGCJM-DMTCNVIQSA-N

> <PUBCHEM_XLOGP3_AA>
-0.7

> <PUBCHEM_EXACT_MASS>
160.048407

> <PUBCHEM_MOLECULAR_FORMULA>
C5H8N2O4

> <PUBCHEM_MOLECULAR_WEIGHT>
160.12802

> <PUBCHEM_OPENEYE_CAN_SMILES>
C1C(CN(C1C(=O)O)N=O)O

> <PUBCHEM_OPENEYE_ISO_SMILES>
C1[C@H](CN([C@@H]1C(=O)O)N=O)O

> <PUBCHEM_CACTVS_TPSA>
90.2

> <PUBCHEM_MONOISOTOPIC_WEIGHT>
160.048407

> <PUBCHEM_TOTAL_CHARGE>
0

> <PUBCHEM_HEAVY_ATOM_COUNT>
11

> <PUBCHEM_ATOM_DEF_STEREO_COUNT>
2

> <PUBCHEM_ATOM_UDEF_STEREO_COUNT>
0

> <PUBCHEM_BOND_DEF_STEREO_COUNT>
0

> <PUBCHEM_BOND_UDEF_STEREO_COUNT>
0

> <PUBCHEM_ISOTOPIC_ATOM_COUNT>
0

> <PUBCHEM_COMPONENT_COUNT>
1

> <PUBCHEM_CACTVS_TAUTO_COUNT>
1

> <PUBCHEM_COORDINATE_TYPE>
1
5
255

> <PUBCHEM_BONDANNOTATIONS>
9  1  6
7  11  5

$$$$

