11486
  -OEChem-06261205442D

 31 31  0     0  0  0  0  0  0999 V2000
    7.9409    3.1200    0.0000 S   0  0  0  0  0  0  0  0  0  0  0  0
    8.8070    3.6200    0.0000 O   0  0  0  0  0  0  0  0  0  0  0  0
    7.0749    2.6200    0.0000 O   0  0  0  0  0  0  0  0  0  0  0  0
    7.4409    3.9860    0.0000 O   0  0  0  0  0  0  0  0  0  0  0  0
    8.4409    2.2540    0.0000 O   0  0  0  0  0  0  0  0  0  0  0  0
    1.4030    3.6200    0.0000 N   0  0  0  0  0  0  0  0  0  0  0  0
    1.4030    2.6200    0.0000 C   0  0  0  0  0  0  0  0  0  0  0  0
    2.2690    4.1200    0.0000 C   0  0  0  0  0  0  0  0  0  0  0  0
    0.5369    2.1200    0.0000 C   0  0  0  0  0  0  0  0  0  0  0  0
    3.1350    3.6200    0.0000 C   0  0  0  0  0  0  0  0  0  0  0  0
    2.2690    2.1200    0.0000 C   0  0  0  0  0  0  0  0  0  0  0  0
    2.2690    5.1200    0.0000 C   0  0  0  0  0  0  0  0  0  0  0  0
    0.5369    1.1200    0.0000 C   0  0  0  0  0  0  0  0  0  0  0  0
    4.0010    4.1200    0.0000 C   0  0  0  0  0  0  0  0  0  0  0  0
    2.2690    1.1200    0.0000 C   0  0  0  0  0  0  0  0  0  0  0  0
    3.1350    5.6200    0.0000 C   0  0  0  0  0  0  0  0  0  0  0  0
    4.0010    5.1200    0.0000 C   0  0  0  0  0  0  0  0  0  0  0  0
    1.4030    0.6200    0.0000 C   0  0  0  0  0  0  0  0  0  0  0  0
    0.8660    3.9300    0.0000 H   0  0  0  0  0  0  0  0  0  0  0  0
    0.0000    2.4300    0.0000 H   0  0  0  0  0  0  0  0  0  0  0  0
    3.1350    3.0000    0.0000 H   0  0  0  0  0  0  0  0  0  0  0  0
    2.8059    2.4300    0.0000 H   0  0  0  0  0  0  0  0  0  0  0  0
    1.7320    5.4300    0.0000 H   0  0  0  0  0  0  0  0  0  0  0  0
    0.0000    0.8100    0.0000 H   0  0  0  0  0  0  0  0  0  0  0  0
    4.5380    3.8100    0.0000 H   0  0  0  0  0  0  0  0  0  0  0  0
    2.8059    0.8100    0.0000 H   0  0  0  0  0  0  0  0  0  0  0  0
    3.1350    6.2400    0.0000 H   0  0  0  0  0  0  0  0  0  0  0  0
    1.4030    0.0000    0.0000 H   0  0  0  0  0  0  0  0  0  0  0  0
    4.5380    5.4300    0.0000 H   0  0  0  0  0  0  0  0  0  0  0  0
    9.3439    3.3100    0.0000 H   0  0  0  0  0  0  0  0  0  0  0  0
    6.5380    2.9300    0.0000 H   0  0  0  0  0  0  0  0  0  0  0  0
  1  2  1  0  0  0  0
  1  3  1  0  0  0  0
  1  4  2  0  0  0  0
  1  5  2  0  0  0  0
  2 30  1  0  0  0  0
  3 31  1  0  0  0  0
  6  7  1  0  0  0  0
  6  8  1  0  0  0  0
  6 19  1  0  0  0  0
  7  9  2  0  0  0  0
  7 11  1  0  0  0  0
  8 10  2  0  0  0  0
  8 12  1  0  0  0  0
  9 13  1  0  0  0  0
  9 20  1  0  0  0  0
 10 14  1  0  0  0  0
 10 21  1  0  0  0  0
 11 15  2  0  0  0  0
 11 22  1  0  0  0  0
 12 16  2  0  0  0  0
 12 23  1  0  0  0  0
 13 18  2  0  0  0  0
 13 24  1  0  0  0  0
 14 17  2  0  0  0  0
 14 25  1  0  0  0  0
 15 18  1  0  0  0  0
 15 26  1  0  0  0  0
 16 17  1  0  0  0  0
 16 27  1  0  0  0  0
 17 29  1  0  0  0  0
 18 28  1  0  0  0  0
M  END
> <PUBCHEM_COMPOUND_CID>
11486

> <PUBCHEM_COMPOUND_CANONICALIZED>
1

> <PUBCHEM_CACTVS_COMPLEXITY>
197

> <PUBCHEM_CACTVS_HBOND_ACCEPTOR>
5

> <PUBCHEM_CACTVS_HBOND_DONOR>
3

> <PUBCHEM_CACTVS_ROTATABLE_BOND>
2

> <PUBCHEM_CACTVS_SUBSKEYS>
AAADccByOABAAAAAAAAAAAAAAAAAAAAAAAAwYAAAAAAAAAABQAAAHAAQCAAACAiBEAAwwILAAICAACRCQDCCAAAhAgAIiAAAZIgIIGLAkZGEIAhgkADIyAcQAAAAAAAAAAAAAAAAAAAAAAAAAAAAAAAAAA==

> <PUBCHEM_IUPAC_OPENEYE_NAME>
N-phenylaniline; sulfuric acid

> <PUBCHEM_IUPAC_CAS_NAME>
N-phenylaniline; sulfuric acid

> <PUBCHEM_IUPAC_NAME>
N-phenylaniline; sulfuric acid

> <PUBCHEM_IUPAC_SYSTEMATIC_NAME>
N-phenylaniline; sulfuric acid

> <PUBCHEM_IUPAC_TRADITIONAL_NAME>
diphenylamine; sulfuric acid

> <PUBCHEM_IUPAC_INCHI>
InChI=1S/C12H11N.H2O4S/c1-3-7-11(8-4-1)13-12-9-5-2-6-10-12;1-5(2,3)4/h1-10,13H;(H2,1,2,3,4)

> <PUBCHEM_IUPAC_INCHIKEY>
IPZMDJYHJNHGML-UHFFFAOYSA-N

> <PUBCHEM_EXACT_MASS>
267.056529

> <PUBCHEM_MOLECULAR_FORMULA>
C12H13NO4S

> <PUBCHEM_MOLECULAR_WEIGHT>
267.30092

> <PUBCHEM_OPENEYE_CAN_SMILES>
C1=CC=C(C=C1)NC2=CC=CC=C2.OS(=O)(=O)O

> <PUBCHEM_OPENEYE_ISO_SMILES>
C1=CC=C(C=C1)NC2=CC=CC=C2.OS(=O)(=O)O

> <PUBCHEM_CACTVS_TPSA>
95

> <PUBCHEM_MONOISOTOPIC_WEIGHT>
267.056529

> <PUBCHEM_TOTAL_CHARGE>
0

> <PUBCHEM_HEAVY_ATOM_COUNT>
18

> <PUBCHEM_ATOM_DEF_STEREO_COUNT>
0

> <PUBCHEM_ATOM_UDEF_STEREO_COUNT>
0

> <PUBCHEM_BOND_DEF_STEREO_COUNT>
0

> <PUBCHEM_BOND_UDEF_STEREO_COUNT>
0

> <PUBCHEM_ISOTOPIC_ATOM_COUNT>
0

> <PUBCHEM_COMPONENT_COUNT>
2

> <PUBCHEM_CACTVS_TAUTO_COUNT>
1

> <PUBCHEM_COORDINATE_TYPE>
1
5
255

> <PUBCHEM_BONDANNOTATIONS>
10  14  8
11  15  8
12  16  8
13  18  8
14  17  8
15  18  8
16  17  8
7  11  8
7  9  8
8  10  8
8  12  8
9  13  8

$$$$

