5281401
  -OEChem-07051212573D

 95104  0     1  0  0  0  0  0999 V2000
   -1.2947   -2.3838    0.0989 O   0  0  0  0  0  0  0  0  0  0  0  0
   -0.4095   -1.7957   -2.2256 O   0  0  0  0  0  0  0  0  0  0  0  0
    0.8051    0.1650   -2.2209 O   0  0  0  0  0  0  0  0  0  0  0  0
   -5.1265    2.0363   -0.2481 N   0  0  1  0  0  0  0  0  0  0  0  0
   -1.1409   -0.0734    0.6553 N   0  0  3  0  0  0  0  0  0  0  0  0
    4.3003   -2.4367    0.7338 N   0  0  2  0  0  0  0  0  0  0  0  0
    3.5558    0.3048   -1.7492 N   0  0  0  0  0  0  0  0  0  0  0  0
   -2.8162    1.6317    0.2079 C   0  0  2  0  0  0  0  0  0  0  0  0
   -2.3094    0.1944   -0.1921 C   0  0  2  0  0  0  0  0  0  0  0  0
   -4.2099    1.6672    0.8535 C   0  0  2  0  0  0  0  0  0  0  0  0
   -3.3009   -1.0089   -0.1033 C   0  0  2  0  0  0  0  0  0  0  0  0
   -4.6788   -0.7511    0.5617 C   0  0  1  0  0  0  0  0  0  0  0  0
   -4.5715    0.3779    1.5764 C   0  0  0  0  0  0  0  0  0  0  0  0
   -2.9359    2.5851   -1.0028 C   0  0  0  0  0  0  0  0  0  0  0  0
   -5.8091   -0.3641   -0.4241 C   0  0  1  0  0  0  0  0  0  0  0  0
   -1.7381    2.0792    1.1736 C   0  0  0  0  0  0  0  0  0  0  0  0
   -4.3811    3.0811   -0.9690 C   0  0  0  0  0  0  0  0  0  0  0  0
   -5.4663    0.9329   -1.1636 C   0  0  0  0  0  0  0  0  0  0  0  0
   -2.6382   -2.2405    0.5566 C   0  0  0  0  0  0  0  0  0  0  0  0
   -0.8256    1.0433    1.3885 C   0  0  0  0  0  0  0  0  0  0  0  0
   -0.4537   -1.3457    0.6267 C   0  0  2  0  0  0  0  0  0  0  0  0
   -6.1549   -1.4846   -1.4074 C   0  0  0  0  0  0  0  0  0  0  0  0
    0.7825   -1.2764   -0.2589 C   0  0  1  0  0  0  0  0  0  0  0  0
   -1.6056    3.3058    1.8152 C   0  0  0  0  0  0  0  0  0  0  0  0
    0.2321    1.2264    2.2686 C   0  0  0  0  0  0  0  0  0  0  0  0
    1.5054   -2.6245   -0.2949 C   0  0  1  0  0  0  0  0  0  0  0  0
   -6.5264   -2.7603   -0.6789 C   0  0  0  0  0  0  0  0  0  0  0  0
   -0.5384    3.4903    2.6923 C   0  0  0  0  0  0  0  0  0  0  0  0
    0.3749    2.4548    2.9196 C   0  0  0  0  0  0  0  0  0  0  0  0
    0.4130   -0.8559   -1.6710 C   0  0  0  0  0  0  0  0  0  0  0  0
    2.7323   -2.6282   -1.2217 C   0  0  0  0  0  0  0  0  0  0  0  0
    1.9294   -3.0651    1.0864 C   0  0  0  0  0  0  0  0  0  0  0  0
    4.0018   -1.9672   -0.6502 C   0  0  1  0  0  0  0  0  0  0  0  0
    3.1443   -2.3685    1.6438 C   0  0  0  0  0  0  0  0  0  0  0  0
    4.0412   -0.4704   -0.7343 C   0  0  0  0  0  0  0  0  0  0  0  0
    1.2824   -4.0280    1.7604 C   0  0  0  0  0  0  0  0  0  0  0  0
    5.4736   -1.7272    1.3014 C   0  0  0  0  0  0  0  0  0  0  0  0
    4.6606    0.3566    0.1807 C   0  0  0  0  0  0  0  0  0  0  0  0
    5.3186   -0.1895    1.4010 C   0  0  0  0  0  0  0  0  0  0  0  0
   -0.8304   -1.5319   -3.5678 C   0  0  0  0  0  0  0  0  0  0  0  0
    0.0803   -4.7381    1.2431 C   0  0  0  0  0  0  0  0  0  0  0  0
    4.5068    1.6947   -0.2724 C   0  0  0  0  0  0  0  0  0  0  0  0
    3.8090    1.6341   -1.4833 C   0  0  0  0  0  0  0  0  0  0  0  0
    4.8933    2.9555    0.2243 C   0  0  0  0  0  0  0  0  0  0  0  0
    3.4795    2.7770   -2.2207 C   0  0  0  0  0  0  0  0  0  0  0  0
    4.5679    4.1060   -0.5028 C   0  0  0  0  0  0  0  0  0  0  0  0
    3.8717    4.0158   -1.7062 C   0  0  0  0  0  0  0  0  0  0  0  0
   -1.9513    0.2366   -1.2265 H   0  0  0  0  0  0  0  0  0  0  0  0
   -4.2713    2.4755    1.5952 H   0  0  0  0  0  0  0  0  0  0  0  0
   -3.4661   -1.3105   -1.1447 H   0  0  0  0  0  0  0  0  0  0  0  0
   -4.9929   -1.6424    1.1172 H   0  0  0  0  0  0  0  0  0  0  0  0
   -5.5269    0.5030    2.1023 H   0  0  0  0  0  0  0  0  0  0  0  0
   -3.8256    0.1399    2.3442 H   0  0  0  0  0  0  0  0  0  0  0  0
   -2.7556    2.0621   -1.9489 H   0  0  0  0  0  0  0  0  0  0  0  0
   -2.2409    3.4313   -0.9702 H   0  0  0  0  0  0  0  0  0  0  0  0
   -6.7168   -0.1728    0.1686 H   0  0  0  0  0  0  0  0  0  0  0  0
   -4.7789    3.2870   -1.9690 H   0  0  0  0  0  0  0  0  0  0  0  0
   -4.4405    4.0184   -0.4018 H   0  0  0  0  0  0  0  0  0  0  0  0
   -4.6622    0.7302   -1.8819 H   0  0  0  0  0  0  0  0  0  0  0  0
   -6.3322    1.2441   -1.7617 H   0  0  0  0  0  0  0  0  0  0  0  0
   -3.1807   -3.1498    0.2772 H   0  0  0  0  0  0  0  0  0  0  0  0
   -2.6487   -2.1773    1.6521 H   0  0  0  0  0  0  0  0  0  0  0  0
   -0.2026   -1.6244    1.6556 H   0  0  0  0  0  0  0  0  0  0  0  0
   -7.0128   -1.1686   -2.0144 H   0  0  0  0  0  0  0  0  0  0  0  0
   -5.3408   -1.6826   -2.1120 H   0  0  0  0  0  0  0  0  0  0  0  0
    1.4451   -0.4965    0.1311 H   0  0  0  0  0  0  0  0  0  0  0  0
   -2.3167    4.1075    1.6452 H   0  0  0  0  0  0  0  0  0  0  0  0
    0.9512    0.4359    2.4590 H   0  0  0  0  0  0  0  0  0  0  0  0
    0.8450   -3.3533   -0.7675 H   0  0  0  0  0  0  0  0  0  0  0  0
   -6.9583   -3.4763   -1.3865 H   0  0  0  0  0  0  0  0  0  0  0  0
   -7.2708   -2.5779    0.1027 H   0  0  0  0  0  0  0  0  0  0  0  0
   -5.6555   -3.2466   -0.2312 H   0  0  0  0  0  0  0  0  0  0  0  0
   -0.4161    4.4403    3.2049 H   0  0  0  0  0  0  0  0  0  0  0  0
    1.2021    2.6074    3.6073 H   0  0  0  0  0  0  0  0  0  0  0  0
    2.9860   -3.6843   -1.4050 H   0  0  0  0  0  0  0  0  0  0  0  0
    2.4949   -2.2281   -2.2135 H   0  0  0  0  0  0  0  0  0  0  0  0
    4.8319   -2.3183   -1.2811 H   0  0  0  0  0  0  0  0  0  0  0  0
    2.8669   -1.3324    1.8707 H   0  0  0  0  0  0  0  0  0  0  0  0
    3.4274   -2.8275    2.5996 H   0  0  0  0  0  0  0  0  0  0  0  0
    1.6215   -4.3094    2.7539 H   0  0  0  0  0  0  0  0  0  0  0  0
    5.7204   -2.1355    2.2893 H   0  0  0  0  0  0  0  0  0  0  0  0
    6.3418   -1.9548    0.6677 H   0  0  0  0  0  0  0  0  0  0  0  0
    6.3059    0.2664    1.5362 H   0  0  0  0  0  0  0  0  0  0  0  0
    4.7146    0.0689    2.2787 H   0  0  0  0  0  0  0  0  0  0  0  0
    3.0792   -0.0355   -2.5727 H   0  0  0  0  0  0  0  0  0  0  0  0
   -1.4924   -2.3435   -3.8812 H   0  0  0  0  0  0  0  0  0  0  0  0
   -1.3845   -0.5897   -3.6145 H   0  0  0  0  0  0  0  0  0  0  0  0
    0.0356   -1.5056   -4.2360 H   0  0  0  0  0  0  0  0  0  0  0  0
    0.1766   -5.7988    1.5059 H   0  0  0  0  0  0  0  0  0  0  0  0
   -0.0822   -4.7281    0.1674 H   0  0  0  0  0  0  0  0  0  0  0  0
   -0.8171   -4.3733    1.7511 H   0  0  0  0  0  0  0  0  0  0  0  0
    5.4367    3.0415    1.1611 H   0  0  0  0  0  0  0  0  0  0  0  0
    2.9380    2.7083   -3.1583 H   0  0  0  0  0  0  0  0  0  0  0  0
    4.8628    5.0807   -0.1231 H   0  0  0  0  0  0  0  0  0  0  0  0
    3.6296    4.9224   -2.2550 H   0  0  0  0  0  0  0  0  0  0  0  0
  1 19  1  0  0  0  0
  1 21  1  0  0  0  0
  2 30  1  0  0  0  0
  2 40  1  0  0  0  0
  3 30  2  0  0  0  0
  4 10  1  0  0  0  0
  4 17  1  0  0  0  0
  4 18  1  0  0  0  0
  5  9  1  0  0  0  0
  5 20  1  0  0  0  0
  5 21  1  0  0  0  0
  6 33  1  0  0  0  0
  6 34  1  0  0  0  0
  6 37  1  0  0  0  0
  7 35  1  0  0  0  0
  7 43  1  0  0  0  0
  7 85  1  0  0  0  0
  8  9  1  0  0  0  0
  8 10  1  0  0  0  0
  8 14  1  0  0  0  0
  8 16  1  0  0  0  0
  9 11  1  0  0  0  0
  9 48  1  0  0  0  0
 10 13  1  0  0  0  0
 10 49  1  0  0  0  0
 11 12  1  0  0  0  0
 11 19  1  0  0  0  0
 11 50  1  0  0  0  0
 12 13  1  0  0  0  0
 12 15  1  0  0  0  0
 12 51  1  0  0  0  0
 13 52  1  0  0  0  0
 13 53  1  0  0  0  0
 14 17  1  0  0  0  0
 14 54  1  0  0  0  0
 14 55  1  0  0  0  0
 15 18  1  0  0  0  0
 15 22  1  0  0  0  0
 15 56  1  0  0  0  0
 16 20  1  0  0  0  0
 16 24  2  0  0  0  0
 17 57  1  0  0  0  0
 17 58  1  0  0  0  0
 18 59  1  0  0  0  0
 18 60  1  0  0  0  0
 19 61  1  0  0  0  0
 19 62  1  0  0  0  0
 20 25  2  0  0  0  0
 21 23  1  0  0  0  0
 21 63  1  0  0  0  0
 22 27  1  0  0  0  0
 22 64  1  0  0  0  0
 22 65  1  0  0  0  0
 23 26  1  0  0  0  0
 23 30  1  0  0  0  0
 23 66  1  0  0  0  0
 24 28  1  0  0  0  0
 24 67  1  0  0  0  0
 25 29  1  0  0  0  0
 25 68  1  0  0  0  0
 26 31  1  0  0  0  0
 26 32  1  0  0  0  0
 26 69  1  0  0  0  0
 27 70  1  0  0  0  0
 27 71  1  0  0  0  0
 27 72  1  0  0  0  0
 28 29  2  0  0  0  0
 28 73  1  0  0  0  0
 29 74  1  0  0  0  0
 31 33  1  0  0  0  0
 31 75  1  0  0  0  0
 31 76  1  0  0  0  0
 32 34  1  0  0  0  0
 32 36  2  0  0  0  0
 33 35  1  0  0  0  0
 33 77  1  0  0  0  0
 34 78  1  0  0  0  0
 34 79  1  0  0  0  0
 35 38  2  0  0  0  0
 36 41  1  0  0  0  0
 36 80  1  0  0  0  0
 37 39  1  0  0  0  0
 37 81  1  0  0  0  0
 37 82  1  0  0  0  0
 38 39  1  0  0  0  0
 38 42  1  0  0  0  0
 39 83  1  0  0  0  0
 39 84  1  0  0  0  0
 40 86  1  0  0  0  0
 40 87  1  0  0  0  0
 40 88  1  0  0  0  0
 41 89  1  0  0  0  0
 41 90  1  0  0  0  0
 41 91  1  0  0  0  0
 42 43  1  0  0  0  0
 42 44  2  0  0  0  0
 43 45  2  0  0  0  0
 44 46  1  0  0  0  0
 44 92  1  0  0  0  0
 45 47  1  0  0  0  0
 45 93  1  0  0  0  0
 46 47  2  0  0  0  0
 46 94  1  0  0  0  0
 47 95  1  0  0  0  0
M  END
> <PUBCHEM_COMPOUND_CID>
5281401

> <PUBCHEM_CONFORMER_RMSD>
1

> <PUBCHEM_CONFORMER_DIVERSEORDER>
1
2

> <PUBCHEM_MMFF94_PARTIAL_CHARGES>
48
1 -0.56
10 0.27
16 -0.14
17 0.27
18 0.27
19 0.28
2 -0.43
20 0.1
21 0.65
23 0.06
24 -0.15
25 -0.15
26 0.14
28 -0.15
29 -0.15
3 -0.57
30 0.66
32 -0.28
33 0.45
34 0.41
35 -0.33
36 -0.29
37 0.27
38 -0.18
39 0.18
4 -0.81
40 0.28
41 0.14
43 -0.15
44 -0.15
45 -0.15
46 -0.15
47 -0.15
5 -0.84
6 -0.81
67 0.15
68 0.15
7 0.03
73 0.15
74 0.15
8 0.14
80 0.15
85 0.27
9 0.37
92 0.15
93 0.15
94 0.15
95 0.15

> <PUBCHEM_EFFECTIVE_ROTOR_COUNT>
7.6

> <PUBCHEM_PHARMACOPHORE_FEATURES>
19
1 1 acceptor
1 27 hydrophobe
1 3 acceptor
1 4 cation
1 41 hydrophobe
1 5 cation
1 6 cation
1 7 cation
1 7 donor
5 4 8 10 14 17 rings
5 5 8 9 16 20 rings
5 7 35 38 42 43 rings
6 1 5 9 11 19 21 rings
6 16 20 24 25 28 29 rings
6 4 10 12 13 15 18 rings
6 42 43 44 45 46 47 rings
6 6 26 31 32 33 34 rings
6 6 33 35 37 38 39 rings
6 8 9 10 11 12 13 rings

> <PUBCHEM_HEAVY_ATOM_COUNT>
47

> <PUBCHEM_ATOM_DEF_STEREO_COUNT>
10

> <PUBCHEM_ATOM_UDEF_STEREO_COUNT>
0

> <PUBCHEM_BOND_DEF_STEREO_COUNT>
1

> <PUBCHEM_BOND_UDEF_STEREO_COUNT>
0

> <PUBCHEM_ISOTOPIC_ATOM_COUNT>
0

> <PUBCHEM_COMPONENT_COUNT>
1

> <PUBCHEM_CACTVS_TAUTO_COUNT>
1

> <PUBCHEM_CONFORMER_ID>
0050967900000001

> <PUBCHEM_MMFF94_ENERGY>
157.7985

> <PUBCHEM_FEATURE_SELFOVERLAP>
98.97

> <PUBCHEM_SHAPE_FINGERPRINT>
10032420 55 18119252765971386973
10439779 11 17910399725049026044
11513181 2 16953945551130894294
12107698 1 18187637068308949798
12166972 35 18339081600858019962
12422481 6 16774082877340356303
12788726 201 18042671841738417256
13560911 43 18272651260202882808
13583140 156 17700672206834128771
1361 2 18201153248331538892
13617811 41 18126295151449788341
14068700 675 18265338493991798210
14705955 166 15625957455939955804
19319366 153 18410300181108403986
20764821 26 17751100041038679016
21133410 221 16523854656189105712
23559900 14 18044644528374946446
3298306 158 18189621553099107432
3493558 16 18272082786309608613
392239 28 18335415832959058907
6086070 43 18128825333468014662
6669772 16 17752501862165795000
77296 10 18131349726218348453

> <PUBCHEM_SHAPE_MULTIPOLES>
929.71
13.05
5.6
2.57
6.32
0.07
0.33
2.15
2.85
-3.31
-1.25
-0.59
0.75
-2.64

> <PUBCHEM_SHAPE_SELFOVERLAP>
2086.827

> <PUBCHEM_SHAPE_VOLUME>
484.9

> <PUBCHEM_COORDINATE_TYPE>
2
5
10

$$$$

