12351
  -OEChem-06261206512D

 23 21  0     0  0  0  0  0  0999 V2000
    0.0000    0.0000    0.0000 N   0  0  0  0  0  0  0  0  0  0  0  0
    3.4641    1.0000    0.0000 C   0  0  0  0  0  0  0  0  0  0  0  0
    2.5981    0.5000    0.0000 C   0  0  0  0  0  0  0  0  0  0  0  0
    4.3301    0.5000    0.0000 C   0  0  0  0  0  0  0  0  0  0  0  0
    1.7321    1.0000    0.0000 C   0  0  0  0  0  0  0  0  0  0  0  0
    5.1962    1.0000    0.0000 C   0  0  0  0  0  0  0  0  0  0  0  0
    0.8660    0.5000    0.0000 C   0  0  0  0  0  0  0  0  0  0  0  0
    2.8665    4.0739    0.0000 C   0  0  0  0  0  0  0  0  0  0  0  0
    3.8626    1.4749    0.0000 H   0  0  0  0  0  0  0  0  0  0  0  0
    3.0656    1.4749    0.0000 H   0  0  0  0  0  0  0  0  0  0  0  0
    2.1995    0.0251    0.0000 H   0  0  0  0  0  0  0  0  0  0  0  0
    2.9966    0.0251    0.0000 H   0  0  0  0  0  0  0  0  0  0  0  0
    3.9316    0.0251    0.0000 H   0  0  0  0  0  0  0  0  0  0  0  0
    4.7287    0.0251    0.0000 H   0  0  0  0  0  0  0  0  0  0  0  0
    2.1306    1.4749    0.0000 H   0  0  0  0  0  0  0  0  0  0  0  0
    1.3335    1.4749    0.0000 H   0  0  0  0  0  0  0  0  0  0  0  0
    5.5062    0.4631    0.0000 H   0  0  0  0  0  0  0  0  0  0  0  0
    5.7331    1.3100    0.0000 H   0  0  0  0  0  0  0  0  0  0  0  0
    4.8862    1.5369    0.0000 H   0  0  0  0  0  0  0  0  0  0  0  0
    3.4035    4.3839    0.0000 H   0  0  0  0  0  0  0  0  0  0  0  0
    2.3296    3.7639    0.0000 H   0  0  0  0  0  0  0  0  0  0  0  0
    2.5565    4.6108    0.0000 H   0  0  0  0  0  0  0  0  0  0  0  0
    3.1765    3.5369    0.0000 H   0  0  0  0  0  0  0  0  0  0  0  0
  1  7  3  0  0  0  0
  2  3  1  0  0  0  0
  2  4  1  0  0  0  0
  2  9  1  0  0  0  0
  2 10  1  0  0  0  0
  3  5  1  0  0  0  0
  3 11  1  0  0  0  0
  3 12  1  0  0  0  0
  4  6  1  0  0  0  0
  4 13  1  0  0  0  0
  4 14  1  0  0  0  0
  5  7  1  0  0  0  0
  5 15  1  0  0  0  0
  5 16  1  0  0  0  0
  6 17  1  0  0  0  0
  6 18  1  0  0  0  0
  6 19  1  0  0  0  0
  8 20  1  0  0  0  0
  8 21  1  0  0  0  0
  8 22  1  0  0  0  0
  8 23  1  0  0  0  0
M  END
> <PUBCHEM_COMPOUND_CID>
12351

> <PUBCHEM_COMPOUND_CANONICALIZED>
1

> <PUBCHEM_CACTVS_COMPLEXITY>
67.5

> <PUBCHEM_CACTVS_HBOND_ACCEPTOR>
1

> <PUBCHEM_CACTVS_HBOND_DONOR>
0

> <PUBCHEM_CACTVS_ROTATABLE_BOND>
3

> <PUBCHEM_CACTVS_SUBSKEYS>
AAADccBiAAAAAAAAAAAAAAAAAAAAAAAAAAAAAAAAAAAAAAAAAAAAHAAAAAAACACBAAACAAAAAAAQBAAAAAAAAAAAAAAAAAAAAAAAgAIAAAAAAAAAAAAAAAkAAAAAAAAAAAAAAAAAAAAAAAAAAAAAAAAAAA==

> <PUBCHEM_IUPAC_OPENEYE_NAME>
hexanenitrile; methane

> <PUBCHEM_IUPAC_CAS_NAME>
hexanenitrile; methane

> <PUBCHEM_IUPAC_NAME>
hexanenitrile; methane

> <PUBCHEM_IUPAC_SYSTEMATIC_NAME>
hexanenitrile; methane

> <PUBCHEM_IUPAC_TRADITIONAL_NAME>
hexanenitrile; methane

> <PUBCHEM_IUPAC_INCHI>
InChI=1S/C6H11N.CH4/c1-2-3-4-5-6-7;/h2-5H2,1H3;1H4

> <PUBCHEM_IUPAC_INCHIKEY>
HYIOGYCMYGCCHW-UHFFFAOYSA-N

> <PUBCHEM_EXACT_MASS>
113.120449

> <PUBCHEM_MOLECULAR_FORMULA>
C7H15N

> <PUBCHEM_MOLECULAR_WEIGHT>
113.2007

> <PUBCHEM_OPENEYE_CAN_SMILES>
C.CCCCCC#N

> <PUBCHEM_OPENEYE_ISO_SMILES>
C.CCCCCC#N

> <PUBCHEM_CACTVS_TPSA>
23.8

> <PUBCHEM_MONOISOTOPIC_WEIGHT>
113.120449

> <PUBCHEM_TOTAL_CHARGE>
0

> <PUBCHEM_HEAVY_ATOM_COUNT>
8

> <PUBCHEM_ATOM_DEF_STEREO_COUNT>
0

> <PUBCHEM_ATOM_UDEF_STEREO_COUNT>
0

> <PUBCHEM_BOND_DEF_STEREO_COUNT>
0

> <PUBCHEM_BOND_UDEF_STEREO_COUNT>
0

> <PUBCHEM_ISOTOPIC_ATOM_COUNT>
0

> <PUBCHEM_COMPONENT_COUNT>
2

> <PUBCHEM_CACTVS_TAUTO_COUNT>
1

> <PUBCHEM_COORDINATE_TYPE>
1
5
255

$$$$

