854101
  -OEChem-06241222473D

 47 49  0     1  0  0  0  0  0999 V2000
    0.7249   -1.0890    0.0656 O   0  0  0  0  0  0  0  0  0  0  0  0
   -0.4413   -0.0143   -1.6049 O   0  0  0  0  0  0  0  0  0  0  0  0
    3.3310    1.2132   -0.0206 N   0  3  0  0  0  0  0  0  0  0  0  0
    3.1361   -1.3474    0.2066 C   0  0  0  0  0  0  0  0  0  0  0  0
    2.0716    0.7272   -0.7590 C   0  0  0  0  0  0  0  0  0  0  0  0
    1.9510   -0.7914   -0.5972 C   0  0  2  0  0  0  0  0  0  0  0  0
    4.5702    0.5433   -0.6336 C   0  0  0  0  0  0  0  0  0  0  0  0
    3.2286    0.8354    1.4629 C   0  0  0  0  0  0  0  0  0  0  0  0
    4.4281   -0.9760   -0.5277 C   0  0  0  0  0  0  0  0  0  0  0  0
    3.1684   -0.6863    1.5920 C   0  0  0  0  0  0  0  0  0  0  0  0
    3.4491    2.7237   -0.1552 C   0  0  0  0  0  0  0  0  0  0  0  0
   -0.4122   -0.6378   -0.5519 C   0  0  0  0  0  0  0  0  0  0  0  0
   -1.6330   -1.0232    0.2778 C   0  0  2  0  0  0  0  0  0  0  0  0
   -2.1041   -2.4403   -0.1068 C   0  0  0  0  0  0  0  0  0  0  0  0
   -2.7231    0.0333    0.1826 C   0  0  0  0  0  0  0  0  0  0  0  0
   -3.2398   -2.9500    0.7719 C   0  0  0  0  0  0  0  0  0  0  0  0
   -2.7319    1.0681    1.0962 C   0  0  0  0  0  0  0  0  0  0  0  0
   -3.6713   -0.0731   -0.8150 C   0  0  0  0  0  0  0  0  0  0  0  0
   -3.7313    2.0372    1.0089 C   0  0  0  0  0  0  0  0  0  0  0  0
   -4.6705    0.8962   -0.9023 C   0  0  0  0  0  0  0  0  0  0  0  0
   -4.7005    1.9514    0.0096 C   0  0  0  0  0  0  0  0  0  0  0  0
    3.0474   -2.4333    0.3219 H   0  0  0  0  0  0  0  0  0  0  0  0
    2.2029    1.0011   -1.8124 H   0  0  0  0  0  0  0  0  0  0  0  0
    1.2386    1.2991   -0.3371 H   0  0  0  0  0  0  0  0  0  0  0  0
    1.9263   -1.2739   -1.5833 H   0  0  0  0  0  0  0  0  0  0  0  0
    5.4471    0.9038   -0.0840 H   0  0  0  0  0  0  0  0  0  0  0  0
    4.6435    0.8669   -1.6780 H   0  0  0  0  0  0  0  0  0  0  0  0
    2.3249    1.3087    1.8633 H   0  0  0  0  0  0  0  0  0  0  0  0
    4.1059    1.2460    1.9753 H   0  0  0  0  0  0  0  0  0  0  0  0
    4.4365   -1.4186   -1.5311 H   0  0  0  0  0  0  0  0  0  0  0  0
    5.2982   -1.3901   -0.0039 H   0  0  0  0  0  0  0  0  0  0  0  0
    4.0383   -1.0414    2.1583 H   0  0  0  0  0  0  0  0  0  0  0  0
    2.2887   -0.9717    2.1810 H   0  0  0  0  0  0  0  0  0  0  0  0
    2.5651    3.1824    0.2973 H   0  0  0  0  0  0  0  0  0  0  0  0
    4.3557    3.0474    0.3644 H   0  0  0  0  0  0  0  0  0  0  0  0
    3.5082    2.9729   -1.2186 H   0  0  0  0  0  0  0  0  0  0  0  0
   -1.3109   -1.0588    1.3292 H   0  0  0  0  0  0  0  0  0  0  0  0
   -1.2558   -3.1284    0.0098 H   0  0  0  0  0  0  0  0  0  0  0  0
   -2.3806   -2.5121   -1.1648 H   0  0  0  0  0  0  0  0  0  0  0  0
   -2.9676   -2.8991    1.8311 H   0  0  0  0  0  0  0  0  0  0  0  0
   -3.4521   -3.9972    0.5322 H   0  0  0  0  0  0  0  0  0  0  0  0
   -4.1663   -2.3885    0.6274 H   0  0  0  0  0  0  0  0  0  0  0  0
   -1.9795    1.1451    1.8754 H   0  0  0  0  0  0  0  0  0  0  0  0
   -3.6661   -0.8633   -1.5567 H   0  0  0  0  0  0  0  0  0  0  0  0
   -3.7539    2.8595    1.7181 H   0  0  0  0  0  0  0  0  0  0  0  0
   -5.4221    0.8331   -1.6839 H   0  0  0  0  0  0  0  0  0  0  0  0
   -5.4777    2.7069   -0.0595 H   0  0  0  0  0  0  0  0  0  0  0  0
  1  6  1  0  0  0  0
  1 12  1  0  0  0  0
  2 12  2  0  0  0  0
  3  5  1  0  0  0  0
  3  7  1  0  0  0  0
  3  8  1  0  0  0  0
  3 11  1  0  0  0  0
  4  6  1  0  0  0  0
  4  9  1  0  0  0  0
  4 10  1  0  0  0  0
  4 22  1  0  0  0  0
  5  6  1  0  0  0  0
  5 23  1  0  0  0  0
  5 24  1  0  0  0  0
  6 25  1  0  0  0  0
  7  9  1  0  0  0  0
  7 26  1  0  0  0  0
  7 27  1  0  0  0  0
  8 10  1  0  0  0  0
  8 28  1  0  0  0  0
  8 29  1  0  0  0  0
  9 30  1  0  0  0  0
  9 31  1  0  0  0  0
 10 32  1  0  0  0  0
 10 33  1  0  0  0  0
 11 34  1  0  0  0  0
 11 35  1  0  0  0  0
 11 36  1  0  0  0  0
 12 13  1  0  0  0  0
 13 14  1  0  0  0  0
 13 15  1  0  0  0  0
 13 37  1  0  0  0  0
 14 16  1  0  0  0  0
 14 38  1  0  0  0  0
 14 39  1  0  0  0  0
 15 17  2  0  0  0  0
 15 18  1  0  0  0  0
 16 40  1  0  0  0  0
 16 41  1  0  0  0  0
 16 42  1  0  0  0  0
 17 19  1  0  0  0  0
 17 43  1  0  0  0  0
 18 20  2  0  0  0  0
 18 44  1  0  0  0  0
 19 21  2  0  0  0  0
 19 45  1  0  0  0  0
 20 21  1  0  0  0  0
 20 46  1  0  0  0  0
 21 47  1  0  0  0  0
M  CHG  1   3   1
M  END
> <PUBCHEM_COMPOUND_CID>
854101

> <PUBCHEM_CONFORMER_RMSD>
0.8

> <PUBCHEM_CONFORMER_DIVERSEORDER>
1
19
13
17
36
45
30
37
48
12
15
41
7
9
44
35
46
22
26
11
20
47
28
33
42
31
14
23
27
3
5
18
6
40
43
25
21
38
2
24
34
10
4
32
16
8
39
29

> <PUBCHEM_MMFF94_PARTIAL_CHARGES>
21
1 -0.43
11 0.5
12 0.66
13 0.2
15 -0.14
17 -0.15
18 -0.15
19 -0.15
2 -0.57
20 -0.15
21 -0.15
3 -1.01
43 0.15
44 0.15
45 0.15
46 0.15
47 0.15
5 0.5
6 0.28
7 0.5
8 0.5

> <PUBCHEM_EFFECTIVE_ROTOR_COUNT>
6.2

> <PUBCHEM_PHARMACOPHORE_FEATURES>
5
1 16 hydrophobe
1 2 acceptor
1 3 cation
6 15 17 18 19 20 21 rings
8 3 4 5 6 7 8 9 10 rings

> <PUBCHEM_HEAVY_ATOM_COUNT>
21

> <PUBCHEM_ATOM_DEF_STEREO_COUNT>
2

> <PUBCHEM_ATOM_UDEF_STEREO_COUNT>
0

> <PUBCHEM_BOND_DEF_STEREO_COUNT>
0

> <PUBCHEM_BOND_UDEF_STEREO_COUNT>
0

> <PUBCHEM_ISOTOPIC_ATOM_COUNT>
0

> <PUBCHEM_COMPONENT_COUNT>
1

> <PUBCHEM_CACTVS_TAUTO_COUNT>
1

> <PUBCHEM_CONFORMER_ID>
000D085500000001

> <PUBCHEM_MMFF94_ENERGY>
60.9937

> <PUBCHEM_FEATURE_SELFOVERLAP>
25.371

> <PUBCHEM_SHAPE_FINGERPRINT>
10366900 7 17895195527677015736
10498660 4 18262233326893812592
10646746 165 18335136479637896662
11089746 13 18409455795175200188
11405975 8 18412827984300037882
11552529 35 18339081471566558367
12107183 9 18125445468899242978
12173636 292 18334020458266994679
12500047 106 18409165519383628182
12507560 40 18336543815930262246
12553582 1 15410896240989199838
12596602 18 17418082244024447833
12633257 1 18272661176875829906
12670546 177 13840567141319358329
128620 24 7204765990757961445
13224815 77 17385722474045936563
13533116 47 18335144253808823015
13583140 156 17748831774045996138
13675066 3 16272208626025505703
14178342 30 18271815579304088346
14251764 38 18186518817306422481
14289901 80 18263925440934522178
15238133 3 18335144249677035648
15239191 94 10663818581073135649
15375462 189 11815887951146359037
15806764 133 17750776805888668674
17349148 13 18334861623495933293
17492 89 18340202981943257330
17844677 252 18338508643214353254
18186145 218 18343023306719565726
19078846 21 18412272744229228546
19862831 5 5400801635685600459
200 152 6699798770406415095
20510252 161 18265891363561945819
20645477 56 18341888615415549479
20681677 76 18187931607958411635
20715895 44 18050855708753372653
21033648 144 18340496594449600052
21033648 29 17603877688662639554
21065198 57 18411134723429252430
21503847 285 18413386545144944564
21864079 5 18261959527171144964
22749437 52 18334576845436443633
22950370 63 8718529650228964613
23227448 37 18410573959846092021
23402539 116 18333457551874760487
23503953 91 18343313573589160290
23503958 25 17968940760536907352
235170 7 14851609899009002129
23557571 272 18262508204995844559
23559900 14 18334573585783203774
341906 21 18334021578999991488
351380 180 17822016457548754913
3545911 37 18410569578599576983
4214541 1 18412260627493704439
474 4 18263078976152926101
5104073 3 18273218565015421434
6328613 192 18411410723024202940
633830 44 18409171029821076279
9709674 26 18260541255787094839
9971528 1 18115591581830821046
9981440 41 18187089481348135499

> <PUBCHEM_SHAPE_MULTIPOLES>
415.45
10.69
2.62
1.24
0.32
0.33
0.2
-3.8
-0.05
1.66
0.48
-0.2
-0.1
-0.08

> <PUBCHEM_SHAPE_SELFOVERLAP>
872.926

> <PUBCHEM_SHAPE_VOLUME>
232.3

> <PUBCHEM_COORDINATE_TYPE>
2
5
10

$$$$

