442333
  -OEChem-07051212573D

 85 91  0     1  0  0  0  0  0999 V2000
    0.9376    0.2195   -0.4767 O   0  0  0  0  0  0  0  0  0  0  0  0
    1.0349    1.5885    2.0332 O   0  0  0  0  0  0  0  0  0  0  0  0
    1.8436    2.9559   -0.8359 O   0  0  0  0  0  0  0  0  0  0  0  0
    3.3925    1.7839    3.3692 O   0  0  0  0  0  0  0  0  0  0  0  0
   -2.1340   -3.6328    1.1706 O   0  0  0  0  0  0  0  0  0  0  0  0
   -4.3869   -4.6884   -0.0040 O   0  0  0  0  0  0  0  0  0  0  0  0
    4.5041   -0.9206   -2.2880 N   0  0  1  0  0  0  0  0  0  0  0  0
   -4.6126    2.9323   -0.4816 N   0  0  1  0  0  0  0  0  0  0  0  0
    3.2474   -1.1206   -1.5268 C   0  0  2  0  0  0  0  0  0  0  0  0
   -3.7354    1.7243   -0.4706 C   0  0  1  0  0  0  0  0  0  0  0  0
    3.2725   -0.2429   -0.2768 C   0  0  0  0  0  0  0  0  0  0  0  0
   -2.2351    2.0458   -0.5823 C   0  0  0  0  0  0  0  0  0  0  0  0
    5.6819   -1.3092   -1.5072 C   0  0  0  0  0  0  0  0  0  0  0  0
    4.4941   -0.0559    0.3993 C   0  0  0  0  0  0  0  0  0  0  0  0
    5.8016   -0.4931   -0.2146 C   0  0  0  0  0  0  0  0  0  0  0  0
    2.9696   -2.6089   -1.1446 C   0  0  0  0  0  0  0  0  0  0  0  0
   -4.1123    3.9809   -1.3782 C   0  0  0  0  0  0  0  0  0  0  0  0
   -1.7831    3.3643   -0.7652 C   0  0  0  0  0  0  0  0  0  0  0  0
   -2.7698    4.4900   -0.8700 C   0  0  0  0  0  0  0  0  0  0  0  0
   -4.0288    0.9252    0.8426 C   0  0  0  0  0  0  0  0  0  0  0  0
    2.1071    0.3531    0.2438 C   0  0  0  0  0  0  0  0  0  0  0  0
   -1.2753    1.0220   -0.5482 C   0  0  0  0  0  0  0  0  0  0  0  0
    4.4981   -1.5664   -3.5970 C   0  0  0  0  0  0  0  0  0  0  0  0
    4.5163    0.6306    1.6218 C   0  0  0  0  0  0  0  0  0  0  0  0
    0.0935    1.3037   -0.5757 C   0  0  0  0  0  0  0  0  0  0  0  0
   -0.4085    3.6410   -0.8396 C   0  0  0  0  0  0  0  0  0  0  0  0
    1.6066   -2.8821   -0.5480 C   0  0  0  0  0  0  0  0  0  0  0  0
   -5.9888    2.5945   -0.8703 C   0  0  0  0  0  0  0  0  0  0  0  0
    2.1370    0.9992    1.4862 C   0  0  0  0  0  0  0  0  0  0  0  0
   -4.1269   -0.5730    0.6433 C   0  0  0  0  0  0  0  0  0  0  0  0
    0.5295    2.6149   -0.7500 C   0  0  0  0  0  0  0  0  0  0  0  0
    3.3405    1.1342    2.1722 C   0  0  0  0  0  0  0  0  0  0  0  0
    1.4659   -3.1130    0.8290 C   0  0  0  0  0  0  0  0  0  0  0  0
    0.4677   -2.9171   -1.3627 C   0  0  0  0  0  0  0  0  0  0  0  0
   -3.1069   -1.4230    1.0879 C   0  0  0  0  0  0  0  0  0  0  0  0
   -5.2392   -1.1347   -0.0015 C   0  0  0  0  0  0  0  0  0  0  0  0
   -3.1678   -2.7940    0.8180 C   0  0  0  0  0  0  0  0  0  0  0  0
    0.2094   -3.3608    1.3845 C   0  0  0  0  0  0  0  0  0  0  0  0
   -0.7907   -3.1653   -0.8107 C   0  0  0  0  0  0  0  0  0  0  0  0
   -0.9204   -3.3676    0.5675 C   0  0  0  0  0  0  0  0  0  0  0  0
   -5.3243   -2.5139   -0.2083 C   0  0  0  0  0  0  0  0  0  0  0  0
   -4.2875   -3.3485    0.2012 C   0  0  0  0  0  0  0  0  0  0  0  0
    0.2155    0.7746    2.8669 C   0  0  0  0  0  0  0  0  0  0  0  0
    2.4284    2.9652   -2.1366 C   0  0  0  0  0  0  0  0  0  0  0  0
    3.6389    3.1882    3.3338 C   0  0  0  0  0  0  0  0  0  0  0  0
    2.4356   -0.7591   -2.1711 H   0  0  0  0  0  0  0  0  0  0  0  0
   -3.9702    1.1217   -1.3597 H   0  0  0  0  0  0  0  0  0  0  0  0
    6.5971   -1.1475   -2.0915 H   0  0  0  0  0  0  0  0  0  0  0  0
    5.6669   -2.3800   -1.2703 H   0  0  0  0  0  0  0  0  0  0  0  0
    6.3718    0.4186   -0.4380 H   0  0  0  0  0  0  0  0  0  0  0  0
    6.3771   -1.0701    0.5192 H   0  0  0  0  0  0  0  0  0  0  0  0
    3.7278   -2.9753   -0.4408 H   0  0  0  0  0  0  0  0  0  0  0  0
    3.0562   -3.2519   -2.0289 H   0  0  0  0  0  0  0  0  0  0  0  0
   -4.8067    4.8303   -1.3956 H   0  0  0  0  0  0  0  0  0  0  0  0
   -4.0240    3.6096   -2.4084 H   0  0  0  0  0  0  0  0  0  0  0  0
   -2.8822    4.9589    0.1154 H   0  0  0  0  0  0  0  0  0  0  0  0
   -2.3988    5.2539   -1.5638 H   0  0  0  0  0  0  0  0  0  0  0  0
   -4.9785    1.2312    1.3005 H   0  0  0  0  0  0  0  0  0  0  0  0
   -3.2786    1.1552    1.6119 H   0  0  0  0  0  0  0  0  0  0  0  0
   -1.5832   -0.0147   -0.4934 H   0  0  0  0  0  0  0  0  0  0  0  0
    3.6056   -1.2854   -4.1668 H   0  0  0  0  0  0  0  0  0  0  0  0
    4.5428   -2.6585   -3.5355 H   0  0  0  0  0  0  0  0  0  0  0  0
    5.3600   -1.2309   -4.1850 H   0  0  0  0  0  0  0  0  0  0  0  0
    5.4602    0.7762    2.1428 H   0  0  0  0  0  0  0  0  0  0  0  0
   -0.0721    4.6673   -0.9716 H   0  0  0  0  0  0  0  0  0  0  0  0
   -6.4453    1.8838   -0.1761 H   0  0  0  0  0  0  0  0  0  0  0  0
   -6.0383    2.1708   -1.8800 H   0  0  0  0  0  0  0  0  0  0  0  0
   -6.6240    3.4876   -0.8435 H   0  0  0  0  0  0  0  0  0  0  0  0
    2.3363   -3.0970    1.4804 H   0  0  0  0  0  0  0  0  0  0  0  0
    0.5548   -2.7519   -2.4337 H   0  0  0  0  0  0  0  0  0  0  0  0
   -2.2470   -1.0126    1.6103 H   0  0  0  0  0  0  0  0  0  0  0  0
   -6.0517   -0.5013   -0.3467 H   0  0  0  0  0  0  0  0  0  0  0  0
    0.1194   -3.5356    2.4531 H   0  0  0  0  0  0  0  0  0  0  0  0
   -1.6546   -3.2000   -1.4683 H   0  0  0  0  0  0  0  0  0  0  0  0
   -6.2012   -2.9282   -0.6987 H   0  0  0  0  0  0  0  0  0  0  0  0
   -0.0348   -0.1692    2.3731 H   0  0  0  0  0  0  0  0  0  0  0  0
   -0.7106    1.3176    3.0741 H   0  0  0  0  0  0  0  0  0  0  0  0
    0.7244    0.5740    3.8147 H   0  0  0  0  0  0  0  0  0  0  0  0
    1.9937    3.7668   -2.7418 H   0  0  0  0  0  0  0  0  0  0  0  0
    2.2876    2.0010   -2.6353 H   0  0  0  0  0  0  0  0  0  0  0  0
    3.5007    3.1493   -2.0284 H   0  0  0  0  0  0  0  0  0  0  0  0
    4.6229    3.3933    2.9004 H   0  0  0  0  0  0  0  0  0  0  0  0
    3.6237    3.5645    4.3603 H   0  0  0  0  0  0  0  0  0  0  0  0
    2.8616    3.7035    2.7607 H   0  0  0  0  0  0  0  0  0  0  0  0
   -3.5812   -5.1112    0.3407 H   0  0  0  0  0  0  0  0  0  0  0  0
  1 21  1  0  0  0  0
  1 25  1  0  0  0  0
  2 29  1  0  0  0  0
  2 43  1  0  0  0  0
  3 31  1  0  0  0  0
  3 44  1  0  0  0  0
  4 32  1  0  0  0  0
  4 45  1  0  0  0  0
  5 37  1  0  0  0  0
  5 40  1  0  0  0  0
  6 42  1  0  0  0  0
  6 85  1  0  0  0  0
  7  9  1  0  0  0  0
  7 13  1  0  0  0  0
  7 23  1  0  0  0  0
  8 10  1  0  0  0  0
  8 17  1  0  0  0  0
  8 28  1  0  0  0  0
  9 11  1  0  0  0  0
  9 16  1  0  0  0  0
  9 46  1  0  0  0  0
 10 12  1  0  0  0  0
 10 20  1  0  0  0  0
 10 47  1  0  0  0  0
 11 14  1  0  0  0  0
 11 21  2  0  0  0  0
 12 18  1  0  0  0  0
 12 22  2  0  0  0  0
 13 15  1  0  0  0  0
 13 48  1  0  0  0  0
 13 49  1  0  0  0  0
 14 15  1  0  0  0  0
 14 24  2  0  0  0  0
 15 50  1  0  0  0  0
 15 51  1  0  0  0  0
 16 27  1  0  0  0  0
 16 52  1  0  0  0  0
 16 53  1  0  0  0  0
 17 19  1  0  0  0  0
 17 54  1  0  0  0  0
 17 55  1  0  0  0  0
 18 19  1  0  0  0  0
 18 26  2  0  0  0  0
 19 56  1  0  0  0  0
 19 57  1  0  0  0  0
 20 30  1  0  0  0  0
 20 58  1  0  0  0  0
 20 59  1  0  0  0  0
 21 29  1  0  0  0  0
 22 25  1  0  0  0  0
 22 60  1  0  0  0  0
 23 61  1  0  0  0  0
 23 62  1  0  0  0  0
 23 63  1  0  0  0  0
 24 32  1  0  0  0  0
 24 64  1  0  0  0  0
 25 31  2  0  0  0  0
 26 31  1  0  0  0  0
 26 65  1  0  0  0  0
 27 33  2  0  0  0  0
 27 34  1  0  0  0  0
 28 66  1  0  0  0  0
 28 67  1  0  0  0  0
 28 68  1  0  0  0  0
 29 32  2  0  0  0  0
 30 35  2  0  0  0  0
 30 36  1  0  0  0  0
 33 38  1  0  0  0  0
 33 69  1  0  0  0  0
 34 39  2  0  0  0  0
 34 70  1  0  0  0  0
 35 37  1  0  0  0  0
 35 71  1  0  0  0  0
 36 41  2  0  0  0  0
 36 72  1  0  0  0  0
 37 42  2  0  0  0  0
 38 40  2  0  0  0  0
 38 73  1  0  0  0  0
 39 40  1  0  0  0  0
 39 74  1  0  0  0  0
 41 42  1  0  0  0  0
 41 75  1  0  0  0  0
 43 76  1  0  0  0  0
 43 77  1  0  0  0  0
 43 78  1  0  0  0  0
 44 79  1  0  0  0  0
 44 80  1  0  0  0  0
 44 81  1  0  0  0  0
 45 82  1  0  0  0  0
 45 83  1  0  0  0  0
 45 84  1  0  0  0  0
M  END
> <PUBCHEM_COMPOUND_CID>
442333

> <PUBCHEM_CONFORMER_RMSD>
1

> <PUBCHEM_CONFORMER_DIVERSEORDER>
1
5
4
3
2
6

> <PUBCHEM_MMFF94_PARTIAL_CHARGES>
56
1 -0.17
10 0.41
11 -0.14
12 -0.14
13 0.27
14 -0.14
15 0.14
16 0.14
17 0.27
18 -0.14
19 0.14
2 -0.36
20 0.14
21 0.08
22 -0.15
23 0.27
24 -0.15
25 0.08
26 -0.15
27 -0.14
28 0.27
29 0.08
3 -0.36
30 -0.14
31 0.08
32 0.08
33 -0.15
34 -0.15
35 -0.15
36 -0.15
37 0.08
38 -0.15
39 -0.15
4 -0.36
40 0.08
41 -0.15
42 0.08
43 0.28
44 0.28
45 0.28
5 -0.17
6 -0.53
60 0.15
64 0.15
65 0.15
69 0.15
7 -0.81
70 0.15
71 0.15
72 0.15
73 0.15
74 0.15
75 0.15
8 -0.81
85 0.45
9 0.41

> <PUBCHEM_EFFECTIVE_ROTOR_COUNT>
5

> <PUBCHEM_PHARMACOPHORE_FEATURES>
14
1 1 acceptor
1 2 acceptor
1 3 acceptor
1 4 acceptor
1 5 acceptor
1 6 donor
1 7 cation
1 8 cation
6 11 14 21 24 29 32 rings
6 12 18 22 25 26 31 rings
6 27 33 34 38 39 40 rings
6 30 35 36 37 41 42 rings
6 7 9 11 13 14 15 rings
6 8 10 12 17 18 19 rings

> <PUBCHEM_HEAVY_ATOM_COUNT>
45

> <PUBCHEM_ATOM_DEF_STEREO_COUNT>
2

> <PUBCHEM_ATOM_UDEF_STEREO_COUNT>
0

> <PUBCHEM_BOND_DEF_STEREO_COUNT>
0

> <PUBCHEM_BOND_UDEF_STEREO_COUNT>
0

> <PUBCHEM_ISOTOPIC_ATOM_COUNT>
0

> <PUBCHEM_COMPONENT_COUNT>
1

> <PUBCHEM_CACTVS_TAUTO_COUNT>
3

> <PUBCHEM_CONFORMER_ID>
0006BFDD00000001

> <PUBCHEM_MMFF94_ENERGY>
191.2387

> <PUBCHEM_FEATURE_SELFOVERLAP>
71.095

> <PUBCHEM_SHAPE_FINGERPRINT>
10864689 126 18051685839356318519
11513181 2 17830162516008744415
12156800 1 18201729448369337890
12422481 6 17903088737750091216
12788726 201 18129646501287284790
13165053 103 16161266980246707454
13402501 40 18335696156773939199
13617811 41 18058446681165257181
14040221 97 18115869595707963296
14117953 113 18411984638166131727
14725015 67 18340492162386365059
14932702 115 18193261104248564782
15001296 14 18057032515573697069
15320467 1 18341890818686410135
15406563 190 17630028598183840717
15968369 153 18189623748449699799
15968369 26 17904789982563976932
16067690 210 17917424259718977706
16112460 7 18194378053744502953
20764821 26 18270385093459672903
22121540 332 18334872613963919782
23559900 14 18338518646425723149
24941158 1 17168157753451549666
25223398 141 18343301504994802316
27425 322 16556754598816020509
3882209 13 17328613634437336027
45266715 3 17979391799628845421
508706 21 18411135827436417927
563151 74 16516817940430842634
613672 6 18196102036685323455
653340 110 18340219526430724331
86090 222 18190749815195744996

> <PUBCHEM_SHAPE_MULTIPOLES>
880.9
11.7
6.45
2.58
2.44
0.73
0.96
0.44
-2.41
6.95
-0.7
-4.44
-1.28
4.37

> <PUBCHEM_SHAPE_SELFOVERLAP>
1942.883

> <PUBCHEM_SHAPE_VOLUME>
473.1

> <PUBCHEM_COORDINATE_TYPE>
2
5
10

$$$$

