439681
  -OEChem-07051212462D

 24 23  0     1  0  0  0  0  0999 V2000
    4.7690   -1.5177    0.0000 O   0  0  0  0  0  0  0  0  0  0  0  0
    2.5369   -0.6517    0.0000 O   0  0  0  0  0  0  0  0  0  0  0  0
    6.8671   -0.1517    0.0000 O   0  0  0  0  0  0  0  0  0  0  0  0
    3.4030   -2.1517    0.0000 O   0  0  0  0  0  0  0  0  0  0  0  0
    6.0010   -1.6517    0.0000 O   0  0  0  0  0  0  0  0  0  0  0  0
    2.6556    1.5411    0.0000 O   0  0  0  0  0  0  0  0  0  0  0  0
    4.3614    1.8419    0.0000 O   0  0  0  0  0  0  0  0  0  0  0  0
    4.2690   -0.6517    0.0000 C   0  0  1  0  0  0  0  0  0  0  0  0
    5.1350   -0.1517    0.0000 C   0  0  2  0  0  0  0  0  0  0  0  0
    3.7690    0.2143    0.0000 C   0  0  0  0  0  0  0  0  0  0  0  0
    5.7778    0.6143    0.0000 C   0  0  0  0  0  0  0  0  0  0  0  0
    3.4030   -1.1517    0.0000 C   0  0  0  0  0  0  0  0  0  0  0  0
    6.0010   -0.6517    0.0000 C   0  0  0  0  0  0  0  0  0  0  0  0
    3.5953    1.1991    0.0000 C   0  0  0  0  0  0  0  0  0  0  0  0
    4.7365    0.3232    0.0000 H   0  0  0  0  0  0  0  0  0  0  0  0
    3.1657    0.3573    0.0000 H   0  0  0  0  0  0  0  0  0  0  0  0
    4.3516    0.4264    0.0000 H   0  0  0  0  0  0  0  0  0  0  0  0
    6.2528    0.2158    0.0000 H   0  0  0  0  0  0  0  0  0  0  0  0
    6.1763    1.0893    0.0000 H   0  0  0  0  0  0  0  0  0  0  0  0
    5.3028    1.0129    0.0000 H   0  0  0  0  0  0  0  0  0  0  0  0
    4.4590   -2.0547    0.0000 H   0  0  0  0  0  0  0  0  0  0  0  0
    2.0000   -0.9617    0.0000 H   0  0  0  0  0  0  0  0  0  0  0  0
    7.4040   -0.4617    0.0000 H   0  0  0  0  0  0  0  0  0  0  0  0
    2.5480    2.1517    0.0000 H   0  0  0  0  0  0  0  0  0  0  0  0
  8  1  1  6  0  0  0
  1 21  1  0  0  0  0
  2 12  1  0  0  0  0
  2 22  1  0  0  0  0
  3 13  1  0  0  0  0
  3 23  1  0  0  0  0
  4 12  2  0  0  0  0
  5 13  2  0  0  0  0
  6 14  1  0  0  0  0
  6 24  1  0  0  0  0
  7 14  2  0  0  0  0
  8  9  1  0  0  0  0
  8 10  1  0  0  0  0
  8 12  1  0  0  0  0
  9 11  1  6  0  0  0
  9 13  1  0  0  0  0
  9 15  1  0  0  0  0
 10 14  1  0  0  0  0
 10 16  1  0  0  0  0
 10 17  1  0  0  0  0
 11 18  1  0  0  0  0
 11 19  1  0  0  0  0
 11 20  1  0  0  0  0
M  END
> <PUBCHEM_COMPOUND_CID>
439681

> <PUBCHEM_COMPOUND_CANONICALIZED>
1

> <PUBCHEM_CACTVS_COMPLEXITY>
271

> <PUBCHEM_CACTVS_HBOND_ACCEPTOR>
7

> <PUBCHEM_CACTVS_HBOND_DONOR>
4

> <PUBCHEM_CACTVS_ROTATABLE_BOND>
5

> <PUBCHEM_CACTVS_SUBSKEYS>
AAADccBgOAAAAAAAAAAAAAAAAAAAAAAAAAAAAAAAAAAAAAAAAAAAGgAACAAADUSAgAACCAAAAgAIAACQCAIAAAAAAAAAAAFAAAABABYAAAAAQAAFIAABAADLJgAOgAAAAAAAAAAAAAAAAAAAAAAAAAAAAA==

> <PUBCHEM_IUPAC_OPENEYE_NAME>
(2R,3S)-2-hydroxybutane-1,2,3-tricarboxylic acid

> <PUBCHEM_IUPAC_CAS_NAME>
(2R,3S)-2-hydroxybutane-1,2,3-tricarboxylic acid

> <PUBCHEM_IUPAC_NAME>
(2R,3S)-2-hydroxybutane-1,2,3-tricarboxylic acid

> <PUBCHEM_IUPAC_SYSTEMATIC_NAME>
(2R,3S)-2-oxidanylbutane-1,2,3-tricarboxylic acid

> <PUBCHEM_IUPAC_TRADITIONAL_NAME>
(2R,3S)-2-hydroxybutane-1,2,3-tricarboxylic acid

> <PUBCHEM_IUPAC_INCHI>
InChI=1S/C7H10O7/c1-3(5(10)11)7(14,6(12)13)2-4(8)9/h3,14H,2H2,1H3,(H,8,9)(H,10,11)(H,12,13)/t3-,7-/m1/s1

> <PUBCHEM_IUPAC_INCHIKEY>
YNOXCRMFGMSKIJ-WVBDSBKLSA-N

> <PUBCHEM_XLOGP3_AA>
-1.4

> <PUBCHEM_EXACT_MASS>
206.042653

> <PUBCHEM_MOLECULAR_FORMULA>
C7H10O7

> <PUBCHEM_MOLECULAR_WEIGHT>
206.1501

> <PUBCHEM_OPENEYE_CAN_SMILES>
CC(C(=O)O)C(CC(=O)O)(C(=O)O)O

> <PUBCHEM_OPENEYE_ISO_SMILES>
C[C@H](C(=O)O)[C@](CC(=O)O)(C(=O)O)O

> <PUBCHEM_CACTVS_TPSA>
132

> <PUBCHEM_MONOISOTOPIC_WEIGHT>
206.042653

> <PUBCHEM_TOTAL_CHARGE>
0

> <PUBCHEM_HEAVY_ATOM_COUNT>
14

> <PUBCHEM_ATOM_DEF_STEREO_COUNT>
2

> <PUBCHEM_ATOM_UDEF_STEREO_COUNT>
0

> <PUBCHEM_BOND_DEF_STEREO_COUNT>
0

> <PUBCHEM_BOND_UDEF_STEREO_COUNT>
0

> <PUBCHEM_ISOTOPIC_ATOM_COUNT>
0

> <PUBCHEM_COMPONENT_COUNT>
1

> <PUBCHEM_CACTVS_TAUTO_COUNT>
1

> <PUBCHEM_COORDINATE_TYPE>
1
5
255

> <PUBCHEM_BONDANNOTATIONS>
8  1  6
9  11  6

$$$$

