227848
  -OEChem-07051213072D

 64 67  0     1  0  0  0  0  0999 V2000
    8.0319    2.3480    0.0000 O   0  0  0  0  0  0  0  0  0  0  0  0
    4.7950    1.5917    0.0000 O   0  0  0  0  0  0  0  0  0  0  0  0
    9.0465    2.9775    0.0000 O   0  0  0  0  0  0  0  0  0  0  0  0
   10.8722    2.1609    0.0000 O   0  0  0  0  0  0  0  0  0  0  0  0
    2.0000   -1.9606    0.0000 O   0  0  0  0  0  0  0  0  0  0  0  0
   11.8879    0.7579    0.0000 O   0  0  0  0  0  0  0  0  0  0  0  0
    7.3931    0.0917    0.0000 C   0  0  2  0  0  0  0  0  0  0  0  0
    7.3931    1.0917    0.0000 C   0  0  1  0  0  0  0  0  0  0  0  0
    6.5271   -0.4083    0.0000 C   0  0  1  0  0  0  0  0  0  0  0  0
    5.6610    0.0917    0.0000 C   0  0  1  0  0  0  0  0  0  0  0  0
    4.7510   -0.4151    0.0000 C   0  0  2  0  0  0  0  0  0  0  0  0
    8.3393    1.3964    0.0000 C   0  0  1  0  0  0  0  0  0  0  0  0
    6.5271    1.5917    0.0000 C   0  0  0  0  0  0  0  0  0  0  0  0
    5.6610    1.0917    0.0000 C   0  0  2  0  0  0  0  0  0  0  0  0
    8.3393   -0.2130    0.0000 C   0  0  0  0  0  0  0  0  0  0  0  0
    6.5431   -1.4498    0.0000 C   0  0  0  0  0  0  0  0  0  0  0  0
    8.9229    0.5917    0.0000 C   0  0  0  0  0  0  0  0  0  0  0  0
    5.6451   -1.9775    0.0000 C   0  0  1  0  0  0  0  0  0  0  0  0
    4.7430   -1.4567    0.0000 C   0  0  0  0  0  0  0  0  0  0  0  0
    7.3931    2.0917    0.0000 C   0  0  0  0  0  0  0  0  0  0  0  0
    3.8242    0.1490    0.0000 C   0  0  0  0  0  0  0  0  0  0  0  0
    4.7587    0.5848    0.0000 C   0  0  0  0  0  0  0  0  0  0  0  0
    9.1493    1.9828    0.0000 C   0  0  0  0  0  0  0  0  0  0  0  0
    2.8763   -0.3790    0.0000 C   0  0  0  0  0  0  0  0  0  0  0  0
    3.8076   -2.0064    0.0000 C   0  0  0  0  0  0  0  0  0  0  0  0
    5.6489   -2.9775    0.0000 C   0  0  0  0  0  0  0  0  0  0  0  0
    2.8680   -1.4640    0.0000 C   0  0  0  0  0  0  0  0  0  0  0  0
   10.0622    1.5745    0.0000 C   0  0  0  0  0  0  0  0  0  0  0  0
   11.7851    1.7526    0.0000 C   0  0  0  0  0  0  0  0  0  0  0  0
   12.5951    2.3390    0.0000 C   0  0  0  0  0  0  0  0  0  0  0  0
    7.4830   -0.7535    0.0000 H   0  0  0  0  0  0  0  0  0  0  0  0
    7.2664   -0.8276    0.0000 H   0  0  0  0  0  0  0  0  0  0  0  0
    6.3972    0.5167    0.0000 H   0  0  0  0  0  0  0  0  0  0  0  0
    6.9256    2.0667    0.0000 H   0  0  0  0  0  0  0  0  0  0  0  0
    6.1285    2.0667    0.0000 H   0  0  0  0  0  0  0  0  0  0  0  0
    5.6610    1.7117    0.0000 H   0  0  0  0  0  0  0  0  0  0  0  0
    8.0883   -0.7799    0.0000 H   0  0  0  0  0  0  0  0  0  0  0  0
    8.8767   -0.5222    0.0000 H   0  0  0  0  0  0  0  0  0  0  0  0
    6.7612   -2.0302    0.0000 H   0  0  0  0  0  0  0  0  0  0  0  0
    7.1523   -1.3343    0.0000 H   0  0  0  0  0  0  0  0  0  0  0  0
    9.3838    0.1770    0.0000 H   0  0  0  0  0  0  0  0  0  0  0  0
    9.3838    1.0064    0.0000 H   0  0  0  0  0  0  0  0  0  0  0  0
    5.1087   -2.2886    0.0000 H   0  0  0  0  0  0  0  0  0  0  0  0
    8.0131    2.0917    0.0000 H   0  0  0  0  0  0  0  0  0  0  0  0
    7.3931    2.7117    0.0000 H   0  0  0  0  0  0  0  0  0  0  0  0
    6.7731    2.0917    0.0000 H   0  0  0  0  0  0  0  0  0  0  0  0
    4.2324    0.6156    0.0000 H   0  0  0  0  0  0  0  0  0  0  0  0
    3.4343    0.6310    0.0000 H   0  0  0  0  0  0  0  0  0  0  0  0
    5.3787    0.5801    0.0000 H   0  0  0  0  0  0  0  0  0  0  0  0
    4.7635    1.2048    0.0000 H   0  0  0  0  0  0  0  0  0  0  0  0
    4.1388    0.5896    0.0000 H   0  0  0  0  0  0  0  0  0  0  0  0
    2.6718    0.2063    0.0000 H   0  0  0  0  0  0  0  0  0  0  0  0
    2.2647   -0.4804    0.0000 H   0  0  0  0  0  0  0  0  0  0  0  0
    8.4476    2.8081    0.0000 H   0  0  0  0  0  0  0  0  0  0  0  0
    3.8100   -2.6264    0.0000 H   0  0  0  0  0  0  0  0  0  0  0  0
    5.0289   -2.9799    0.0000 H   0  0  0  0  0  0  0  0  0  0  0  0
    5.6513   -3.5975    0.0000 H   0  0  0  0  0  0  0  0  0  0  0  0
    6.2689   -2.9752    0.0000 H   0  0  0  0  0  0  0  0  0  0  0  0
    4.7950    2.2117    0.0000 H   0  0  0  0  0  0  0  0  0  0  0  0
    9.7146    1.0611    0.0000 H   0  0  0  0  0  0  0  0  0  0  0  0
   10.5074    1.1431    0.0000 H   0  0  0  0  0  0  0  0  0  0  0  0
   12.9586    1.8368    0.0000 H   0  0  0  0  0  0  0  0  0  0  0  0
   13.0973    2.7025    0.0000 H   0  0  0  0  0  0  0  0  0  0  0  0
   12.2315    2.8412    0.0000 H   0  0  0  0  0  0  0  0  0  0  0  0
 12  1  1  6  0  0  0
  1 54  1  0  0  0  0
 14  2  1  1  0  0  0
  2 59  1  0  0  0  0
  3 23  2  0  0  0  0
  4 28  1  0  0  0  0
  4 29  1  0  0  0  0
  5 27  2  0  0  0  0
  6 29  2  0  0  0  0
  7  8  1  0  0  0  0
  7  9  1  0  0  0  0
  7 15  1  0  0  0  0
  7 31  1  6  0  0  0
  8 12  1  0  0  0  0
  8 13  1  0  0  0  0
  8 20  1  1  0  0  0
  9 10  1  0  0  0  0
  9 16  1  0  0  0  0
  9 32  1  1  0  0  0
 10 11  1  0  0  0  0
 10 14  1  0  0  0  0
 10 33  1  6  0  0  0
 11 19  1  0  0  0  0
 11 21  1  0  0  0  0
 11 22  1  1  0  0  0
 12 17  1  0  0  0  0
 12 23  1  0  0  0  0
 13 14  1  0  0  0  0
 13 34  1  0  0  0  0
 13 35  1  0  0  0  0
 14 36  1  0  0  0  0
 15 17  1  0  0  0  0
 15 37  1  0  0  0  0
 15 38  1  0  0  0  0
 16 18  1  0  0  0  0
 16 39  1  0  0  0  0
 16 40  1  0  0  0  0
 17 41  1  0  0  0  0
 17 42  1  0  0  0  0
 18 19  1  0  0  0  0
 18 26  1  6  0  0  0
 18 43  1  0  0  0  0
 19 25  2  0  0  0  0
 20 44  1  0  0  0  0
 20 45  1  0  0  0  0
 20 46  1  0  0  0  0
 21 24  1  0  0  0  0
 21 47  1  0  0  0  0
 21 48  1  0  0  0  0
 22 49  1  0  0  0  0
 22 50  1  0  0  0  0
 22 51  1  0  0  0  0
 23 28  1  0  0  0  0
 24 27  1  0  0  0  0
 24 52  1  0  0  0  0
 24 53  1  0  0  0  0
 25 27  1  0  0  0  0
 25 55  1  0  0  0  0
 26 56  1  0  0  0  0
 26 57  1  0  0  0  0
 26 58  1  0  0  0  0
 28 60  1  0  0  0  0
 28 61  1  0  0  0  0
 29 30  1  0  0  0  0
 30 62  1  0  0  0  0
 30 63  1  0  0  0  0
 30 64  1  0  0  0  0
M  END
> <PUBCHEM_COMPOUND_CID>
227848

> <PUBCHEM_COMPOUND_CANONICALIZED>
1

> <PUBCHEM_CACTVS_COMPLEXITY>
817

> <PUBCHEM_CACTVS_HBOND_ACCEPTOR>
6

> <PUBCHEM_CACTVS_HBOND_DONOR>
2

> <PUBCHEM_CACTVS_ROTATABLE_BOND>
4

> <PUBCHEM_CACTVS_SUBSKEYS>
AAADcfB4OAAAAAAAAAAAAAAAAAAAAYAAAAAwYIAAAAAAAGDAAAAAGgAACAAAD1SggAICCAAABgCIAqDSCAIAAAAgAAAACAFAAEgAEBIAAQQCQAAFgAAIAQPIzPDPgAAAAAAAAADAAAYAADAAAYAADAAAAA==

> <PUBCHEM_IUPAC_OPENEYE_NAME>
[2-[(6S,8S,9S,10R,11S,13S,14S,17R)-11,17-dihydroxy-6,10,13-trimethyl-3-oxo-2,6,7,8,9,11,12,14,15,16-decahydro-1H-cyclopenta[a]phenanthren-17-yl]-2-oxo-ethyl] acetate

> <PUBCHEM_IUPAC_CAS_NAME>
acetic acid [2-[(6S,8S,9S,10R,11S,13S,14S,17R)-11,17-dihydroxy-6,10,13-trimethyl-3-oxo-2,6,7,8,9,11,12,14,15,16-decahydro-1H-cyclopenta[a]phenanthren-17-yl]-2-oxoethyl] ester

> <PUBCHEM_IUPAC_NAME>
[2-[(6S,8S,9S,10R,11S,13S,14S,17R)-11,17-dihydroxy-6,10,13-trimethyl-3-oxo-2,6,7,8,9,11,12,14,15,16-decahydro-1H-cyclopenta[a]phenanthren-17-yl]-2-oxoethyl] acetate

> <PUBCHEM_IUPAC_SYSTEMATIC_NAME>
[2-oxidanylidene-2-[(6S,8S,9S,10R,11S,13S,14S,17R)-6,10,13-trimethyl-11,17-bis(oxidanyl)-3-oxidanylidene-2,6,7,8,9,11,12,14,15,16-decahydro-1H-cyclopenta[a]phenanthren-17-yl]ethyl] ethanoate

> <PUBCHEM_IUPAC_TRADITIONAL_NAME>
acetic acid [2-[(6S,8S,9S,10R,11S,13S,14S,17R)-11,17-dihydroxy-3-keto-6,10,13-trimethyl-2,6,7,8,9,11,12,14,15,16-decahydro-1H-cyclopenta[a]phenanthren-17-yl]-2-keto-ethyl] ester

> <PUBCHEM_IUPAC_INCHI>
InChI=1S/C24H34O6/c1-13-9-16-17-6-8-24(29,20(28)12-30-14(2)25)23(17,4)11-19(27)21(16)22(3)7-5-15(26)10-18(13)22/h10,13,16-17,19,21,27,29H,5-9,11-12H2,1-4H3/t13-,16-,17-,19-,21+,22-,23-,24-/m0/s1

> <PUBCHEM_IUPAC_INCHIKEY>
ZWEFPCOQVDIOJD-LFYFAGGJSA-N

> <PUBCHEM_XLOGP3>
2.5

> <PUBCHEM_EXACT_MASS>
418.235539

> <PUBCHEM_MOLECULAR_FORMULA>
C24H34O6

> <PUBCHEM_MOLECULAR_WEIGHT>
418.52316

> <PUBCHEM_OPENEYE_CAN_SMILES>
CC1CC2C3CCC(C3(CC(C2C4(C1=CC(=O)CC4)C)O)C)(C(=O)COC(=O)C)O

> <PUBCHEM_OPENEYE_ISO_SMILES>
C[C@H]1C[C@H]2[C@@H]3CC[C@@]([C@]3(C[C@@H]([C@@H]2[C@@]4(C1=CC(=O)CC4)C)O)C)(C(=O)COC(=O)C)O

> <PUBCHEM_CACTVS_TPSA>
101

> <PUBCHEM_MONOISOTOPIC_WEIGHT>
418.235539

> <PUBCHEM_TOTAL_CHARGE>
0

> <PUBCHEM_HEAVY_ATOM_COUNT>
30

> <PUBCHEM_ATOM_DEF_STEREO_COUNT>
8

> <PUBCHEM_ATOM_UDEF_STEREO_COUNT>
0

> <PUBCHEM_BOND_DEF_STEREO_COUNT>
0

> <PUBCHEM_BOND_UDEF_STEREO_COUNT>
0

> <PUBCHEM_ISOTOPIC_ATOM_COUNT>
0

> <PUBCHEM_COMPONENT_COUNT>
1

> <PUBCHEM_CACTVS_TAUTO_COUNT>
10

> <PUBCHEM_COORDINATE_TYPE>
1
5
255

> <PUBCHEM_BONDANNOTATIONS>
12  1  6
10  33  6
11  22  5
18  26  6
14  2  5
7  31  6
8  20  5
9  32  5

$$$$

