150841
  -OEChem-07051212503D

 14 14  0     0  0  0  0  0  0999 V2000
    2.2008    0.9505    0.6537 O   0  0  0  0  0  0  0  0  0  0  0  0
   -1.0282   -1.0312    0.4517 N   0  0  0  0  0  0  0  0  0  0  0  0
   -1.9404    0.9006   -0.1550 N   0  0  0  0  0  0  0  0  0  0  0  0
   -0.0737   -0.3791   -0.2770 C   0  0  0  0  0  0  0  0  0  0  0  0
    1.2560   -0.9498   -0.5376 C   0  0  0  0  0  0  0  0  0  0  0  0
   -0.6601    0.8103   -0.6408 C   0  0  0  0  0  0  0  0  0  0  0  0
   -2.1310   -0.2244    0.4977 C   0  0  0  0  0  0  0  0  0  0  0  0
    2.3766   -0.0770    0.0073 C   0  0  0  0  0  0  0  0  0  0  0  0
    1.3665   -1.9418   -0.0865 H   0  0  0  0  0  0  0  0  0  0  0  0
    1.4147   -1.0524   -1.6165 H   0  0  0  0  0  0  0  0  0  0  0  0
   -0.9390   -1.9431    0.8800 H   0  0  0  0  0  0  0  0  0  0  0  0
   -0.2281    1.6076   -1.2285 H   0  0  0  0  0  0  0  0  0  0  0  0
   -3.0324   -0.5133    1.0191 H   0  0  0  0  0  0  0  0  0  0  0  0
    3.3964   -0.4389   -0.2102 H   0  0  0  0  0  0  0  0  0  0  0  0
  1  8  2  0  0  0  0
  2  4  1  0  0  0  0
  2  7  1  0  0  0  0
  2 11  1  0  0  0  0
  3  6  1  0  0  0  0
  3  7  2  0  0  0  0
  4  5  1  0  0  0  0
  4  6  2  0  0  0  0
  5  8  1  0  0  0  0
  5  9  1  0  0  0  0
  5 10  1  0  0  0  0
  6 12  1  0  0  0  0
  7 13  1  0  0  0  0
  8 14  1  0  0  0  0
M  END
> <PUBCHEM_COMPOUND_CID>
150841

> <PUBCHEM_CONFORMER_RMSD>
0.4

> <PUBCHEM_CONFORMER_DIVERSEORDER>
1
9
10
2
12
7
5
8
4
3
11
6

> <PUBCHEM_MMFF94_PARTIAL_CHARGES>
12
1 -0.57
11 0.27
12 0.15
13 0.15
14 0.06
2 0.03
3 -0.57
4 -0.33
5 0.24
6 0.08
7 0.04
8 0.45

> <PUBCHEM_EFFECTIVE_ROTOR_COUNT>
2

> <PUBCHEM_PHARMACOPHORE_FEATURES>
4
1 1 acceptor
1 2 donor
3 2 3 7 cation
5 2 3 4 6 7 rings

> <PUBCHEM_HEAVY_ATOM_COUNT>
8

> <PUBCHEM_ATOM_DEF_STEREO_COUNT>
0

> <PUBCHEM_ATOM_UDEF_STEREO_COUNT>
0

> <PUBCHEM_BOND_DEF_STEREO_COUNT>
0

> <PUBCHEM_BOND_UDEF_STEREO_COUNT>
0

> <PUBCHEM_ISOTOPIC_ATOM_COUNT>
0

> <PUBCHEM_COMPONENT_COUNT>
1

> <PUBCHEM_CACTVS_TAUTO_COUNT>
4

> <PUBCHEM_CONFORMER_ID>
00024D3900000001

> <PUBCHEM_MMFF94_ENERGY>
3.5696

> <PUBCHEM_FEATURE_SELFOVERLAP>
20.297

> <PUBCHEM_SHAPE_FINGERPRINT>
10857977 72 18130219368040279707
14390081 3 18187367644371791192
20096714 4 18040438789150529758
21040471 1 17915453007327348439
23552423 10 17632004355663412010
24536 1 17988921175930990958
29004967 10 18113893900927011226
369184 2 17917439717285176593
5084963 1 18272080647404994590

> <PUBCHEM_SHAPE_MULTIPOLES>
148.8
3.26
1.11
0.79
0.78
0.01
-0.02
0.41
0.55
0
-0.01
0.04
0.03
0.4

> <PUBCHEM_SHAPE_SELFOVERLAP>
303.672

> <PUBCHEM_SHAPE_VOLUME>
87.9

> <PUBCHEM_COORDINATE_TYPE>
2
5
10

$$$$

