5280824
  -OEChem-07051212502D

 92 92  0     0  0  0  0  0  0999 V2000
   23.6506    1.3450    0.0000 O   0  0  0  0  0  0  0  0  0  0  0  0
   25.3827    0.3450    0.0000 O   0  0  0  0  0  0  0  0  0  0  0  0
   12.3923   -0.1550    0.0000 C   0  0  0  0  0  0  0  0  0  0  0  0
   11.5263    0.3450    0.0000 C   0  0  0  0  0  0  0  0  0  0  0  0
   15.8564   -0.1550    0.0000 C   0  0  0  0  0  0  0  0  0  0  0  0
   14.9904    0.3450    0.0000 C   0  0  0  0  0  0  0  0  0  0  0  0
   13.2583    0.3450    0.0000 C   0  0  0  0  0  0  0  0  0  0  0  0
    8.9282   -0.1550    0.0000 C   0  0  0  0  0  0  0  0  0  0  0  0
    9.7942    0.3450    0.0000 C   0  0  0  0  0  0  0  0  0  0  0  0
   16.7224    0.3450    0.0000 C   0  0  0  0  0  0  0  0  0  0  0  0
    8.0622    0.3450    0.0000 C   0  0  0  0  0  0  0  0  0  0  0  0
   14.1244   -0.1550    0.0000 C   0  0  0  0  0  0  0  0  0  0  0  0
   10.6603   -0.1550    0.0000 C   0  0  0  0  0  0  0  0  0  0  0  0
   18.4545    0.3450    0.0000 C   0  0  0  0  0  0  0  0  0  0  0  0
   19.3205   -0.1550    0.0000 C   0  0  0  0  0  0  0  0  0  0  0  0
   17.5885   -0.1550    0.0000 C   0  0  0  0  0  0  0  0  0  0  0  0
    6.3301    0.3450    0.0000 C   0  0  0  0  0  0  0  0  0  0  0  0
    7.1962   -0.1550    0.0000 C   0  0  0  0  0  0  0  0  0  0  0  0
    5.4641   -0.1550    0.0000 C   0  0  0  0  0  0  0  0  0  0  0  0
   20.1865    0.3450    0.0000 C   0  0  0  0  0  0  0  0  0  0  0  0
   13.2583    1.3450    0.0000 C   0  0  0  0  0  0  0  0  0  0  0  0
    9.7942    1.3450    0.0000 C   0  0  0  0  0  0  0  0  0  0  0  0
   16.7224    1.3450    0.0000 C   0  0  0  0  0  0  0  0  0  0  0  0
    4.5981    0.3450    0.0000 C   0  0  0  0  0  0  0  0  0  0  0  0
   21.0526   -0.1550    0.0000 C   0  0  0  0  0  0  0  0  0  0  0  0
   21.9186    0.3450    0.0000 C   0  0  0  0  0  0  0  0  0  0  0  0
    6.3301    1.3450    0.0000 C   0  0  0  0  0  0  0  0  0  0  0  0
   20.1865    1.3450    0.0000 C   0  0  0  0  0  0  0  0  0  0  0  0
    3.7320   -0.1550    0.0000 C   0  0  0  0  0  0  0  0  0  0  0  0
   22.7846   -0.1550    0.0000 C   0  0  0  0  0  0  0  0  0  0  0  0
    2.8660    0.3450    0.0000 C   0  0  0  0  0  0  0  0  0  0  0  0
   23.6506    0.3450    0.0000 C   0  0  0  0  0  0  0  0  0  0  0  0
   22.7846   -1.1550    0.0000 C   0  0  0  0  0  0  0  0  0  0  0  0
    2.0000   -0.1550    0.0000 C   0  0  0  0  0  0  0  0  0  0  0  0
    2.8660    1.3450    0.0000 C   0  0  0  0  0  0  0  0  0  0  0  0
   24.5167   -0.1550    0.0000 C   0  0  0  0  0  0  0  0  0  0  0  0
   23.6506   -1.6550    0.0000 C   0  0  0  0  0  0  0  0  0  0  0  0
   24.5167   -1.1550    0.0000 C   0  0  0  0  0  0  0  0  0  0  0  0
   11.9938   -0.6299    0.0000 H   0  0  0  0  0  0  0  0  0  0  0  0
   12.7908   -0.6299    0.0000 H   0  0  0  0  0  0  0  0  0  0  0  0
   11.9248    0.8199    0.0000 H   0  0  0  0  0  0  0  0  0  0  0  0
   11.1278    0.8199    0.0000 H   0  0  0  0  0  0  0  0  0  0  0  0
   15.4579   -0.6299    0.0000 H   0  0  0  0  0  0  0  0  0  0  0  0
   16.2549   -0.6299    0.0000 H   0  0  0  0  0  0  0  0  0  0  0  0
   15.3889    0.8199    0.0000 H   0  0  0  0  0  0  0  0  0  0  0  0
   14.5919    0.8199    0.0000 H   0  0  0  0  0  0  0  0  0  0  0  0
    8.5297   -0.6299    0.0000 H   0  0  0  0  0  0  0  0  0  0  0  0
    9.3267   -0.6299    0.0000 H   0  0  0  0  0  0  0  0  0  0  0  0
    8.4607    0.8199    0.0000 H   0  0  0  0  0  0  0  0  0  0  0  0
    7.6636    0.8199    0.0000 H   0  0  0  0  0  0  0  0  0  0  0  0
   14.1244   -0.7750    0.0000 H   0  0  0  0  0  0  0  0  0  0  0  0
   10.6603   -0.7750    0.0000 H   0  0  0  0  0  0  0  0  0  0  0  0
   18.8530    0.8199    0.0000 H   0  0  0  0  0  0  0  0  0  0  0  0
   18.0560    0.8199    0.0000 H   0  0  0  0  0  0  0  0  0  0  0  0
   18.9220   -0.6299    0.0000 H   0  0  0  0  0  0  0  0  0  0  0  0
   19.7190   -0.6299    0.0000 H   0  0  0  0  0  0  0  0  0  0  0  0
   17.5885   -0.7750    0.0000 H   0  0  0  0  0  0  0  0  0  0  0  0
    7.1962   -0.7750    0.0000 H   0  0  0  0  0  0  0  0  0  0  0  0
    5.0656   -0.6299    0.0000 H   0  0  0  0  0  0  0  0  0  0  0  0
    5.8626   -0.6299    0.0000 H   0  0  0  0  0  0  0  0  0  0  0  0
   13.8783    1.3450    0.0000 H   0  0  0  0  0  0  0  0  0  0  0  0
   13.2583    1.9650    0.0000 H   0  0  0  0  0  0  0  0  0  0  0  0
   12.6383    1.3450    0.0000 H   0  0  0  0  0  0  0  0  0  0  0  0
   10.4142    1.3450    0.0000 H   0  0  0  0  0  0  0  0  0  0  0  0
    9.7942    1.9650    0.0000 H   0  0  0  0  0  0  0  0  0  0  0  0
    9.1742    1.3450    0.0000 H   0  0  0  0  0  0  0  0  0  0  0  0
   17.3424    1.3450    0.0000 H   0  0  0  0  0  0  0  0  0  0  0  0
   16.7224    1.9650    0.0000 H   0  0  0  0  0  0  0  0  0  0  0  0
   16.1024    1.3450    0.0000 H   0  0  0  0  0  0  0  0  0  0  0  0
    4.9966    0.8199    0.0000 H   0  0  0  0  0  0  0  0  0  0  0  0
    4.1996    0.8199    0.0000 H   0  0  0  0  0  0  0  0  0  0  0  0
   21.0526   -0.7750    0.0000 H   0  0  0  0  0  0  0  0  0  0  0  0
   22.3171    0.8199    0.0000 H   0  0  0  0  0  0  0  0  0  0  0  0
   21.5201    0.8199    0.0000 H   0  0  0  0  0  0  0  0  0  0  0  0
    6.9501    1.3450    0.0000 H   0  0  0  0  0  0  0  0  0  0  0  0
    6.3301    1.9650    0.0000 H   0  0  0  0  0  0  0  0  0  0  0  0
    5.7101    1.3450    0.0000 H   0  0  0  0  0  0  0  0  0  0  0  0
   20.8065    1.3450    0.0000 H   0  0  0  0  0  0  0  0  0  0  0  0
   20.1865    1.9650    0.0000 H   0  0  0  0  0  0  0  0  0  0  0  0
   19.5665    1.3450    0.0000 H   0  0  0  0  0  0  0  0  0  0  0  0
    3.7320   -0.7750    0.0000 H   0  0  0  0  0  0  0  0  0  0  0  0
   22.2477   -1.4650    0.0000 H   0  0  0  0  0  0  0  0  0  0  0  0
    1.6900    0.3819    0.0000 H   0  0  0  0  0  0  0  0  0  0  0  0
    1.4631   -0.4650    0.0000 H   0  0  0  0  0  0  0  0  0  0  0  0
    2.3100   -0.6919    0.0000 H   0  0  0  0  0  0  0  0  0  0  0  0
    3.4860    1.3450    0.0000 H   0  0  0  0  0  0  0  0  0  0  0  0
    2.8660    1.9650    0.0000 H   0  0  0  0  0  0  0  0  0  0  0  0
    2.2460    1.3450    0.0000 H   0  0  0  0  0  0  0  0  0  0  0  0
   23.6506   -2.2750    0.0000 H   0  0  0  0  0  0  0  0  0  0  0  0
   25.0536   -1.4650    0.0000 H   0  0  0  0  0  0  0  0  0  0  0  0
   24.1876    1.6550    0.0000 H   0  0  0  0  0  0  0  0  0  0  0  0
   25.9196    0.0350    0.0000 H   0  0  0  0  0  0  0  0  0  0  0  0
  1 32  1  0  0  0  0
  1 91  1  0  0  0  0
  2 36  1  0  0  0  0
  2 92  1  0  0  0  0
  3  4  1  0  0  0  0
  3  7  1  0  0  0  0
  3 39  1  0  0  0  0
  3 40  1  0  0  0  0
  4 13  1  0  0  0  0
  4 41  1  0  0  0  0
  4 42  1  0  0  0  0
  5  6  1  0  0  0  0
  5 10  1  0  0  0  0
  5 43  1  0  0  0  0
  5 44  1  0  0  0  0
  6 12  1  0  0  0  0
  6 45  1  0  0  0  0
  6 46  1  0  0  0  0
  7 12  2  0  0  0  0
  7 21  1  0  0  0  0
  8  9  1  0  0  0  0
  8 11  1  0  0  0  0
  8 47  1  0  0  0  0
  8 48  1  0  0  0  0
  9 13  2  0  0  0  0
  9 22  1  0  0  0  0
 10 16  2  0  0  0  0
 10 23  1  0  0  0  0
 11 18  1  0  0  0  0
 11 49  1  0  0  0  0
 11 50  1  0  0  0  0
 12 51  1  0  0  0  0
 13 52  1  0  0  0  0
 14 15  1  0  0  0  0
 14 16  1  0  0  0  0
 14 53  1  0  0  0  0
 14 54  1  0  0  0  0
 15 20  1  0  0  0  0
 15 55  1  0  0  0  0
 15 56  1  0  0  0  0
 16 57  1  0  0  0  0
 17 18  2  0  0  0  0
 17 19  1  0  0  0  0
 17 27  1  0  0  0  0
 18 58  1  0  0  0  0
 19 24  1  0  0  0  0
 19 59  1  0  0  0  0
 19 60  1  0  0  0  0
 20 25  2  0  0  0  0
 20 28  1  0  0  0  0
 21 61  1  0  0  0  0
 21 62  1  0  0  0  0
 21 63  1  0  0  0  0
 22 64  1  0  0  0  0
 22 65  1  0  0  0  0
 22 66  1  0  0  0  0
 23 67  1  0  0  0  0
 23 68  1  0  0  0  0
 23 69  1  0  0  0  0
 24 29  1  0  0  0  0
 24 70  1  0  0  0  0
 24 71  1  0  0  0  0
 25 26  1  0  0  0  0
 25 72  1  0  0  0  0
 26 30  1  0  0  0  0
 26 73  1  0  0  0  0
 26 74  1  0  0  0  0
 27 75  1  0  0  0  0
 27 76  1  0  0  0  0
 27 77  1  0  0  0  0
 28 78  1  0  0  0  0
 28 79  1  0  0  0  0
 28 80  1  0  0  0  0
 29 31  2  0  0  0  0
 29 81  1  0  0  0  0
 30 32  2  0  0  0  0
 30 33  1  0  0  0  0
 31 34  1  0  0  0  0
 31 35  1  0  0  0  0
 32 36  1  0  0  0  0
 33 37  2  0  0  0  0
 33 82  1  0  0  0  0
 34 83  1  0  0  0  0
 34 84  1  0  0  0  0
 34 85  1  0  0  0  0
 35 86  1  0  0  0  0
 35 87  1  0  0  0  0
 35 88  1  0  0  0  0
 36 38  2  0  0  0  0
 37 38  1  0  0  0  0
 37 89  1  0  0  0  0
 38 90  1  0  0  0  0
M  END
> <PUBCHEM_COMPOUND_CID>
5280824

> <PUBCHEM_COMPOUND_CANONICALIZED>
1

> <PUBCHEM_CACTVS_COMPLEXITY>
845

> <PUBCHEM_CACTVS_HBOND_ACCEPTOR>
2

> <PUBCHEM_CACTVS_HBOND_DONOR>
2

> <PUBCHEM_CACTVS_ROTATABLE_BOND>
17

> <PUBCHEM_CACTVS_SUBSKEYS>
AAADcfB8MAAAAAAAAAAAAAAAAAAAAAAAAAAwAAAAAAAAAAABAAAAGgAACAAADASAmAAyBoAAAgCAAiBCAAACAAAgIAAIiAAGiIgJJiKCERKAcAEkwBEJmAeAwLAOAAABAAAIQAAAAAIAABCAAAAAAAAAAA==

> <PUBCHEM_IUPAC_OPENEYE_NAME>
3-[(2E,6E,10E,14E,18E)-3,7,11,15,19,23-hexamethyltetracosa-2,6,10,14,18,22-hexaenyl]benzene-1,2-diol

> <PUBCHEM_IUPAC_CAS_NAME>
3-[(2E,6E,10E,14E,18E)-3,7,11,15,19,23-hexamethyltetracosa-2,6,10,14,18,22-hexaenyl]benzene-1,2-diol

> <PUBCHEM_IUPAC_NAME>
3-[(2E,6E,10E,14E,18E)-3,7,11,15,19,23-hexamethyltetracosa-2,6,10,14,18,22-hexaenyl]benzene-1,2-diol

> <PUBCHEM_IUPAC_SYSTEMATIC_NAME>
3-[(2E,6E,10E,14E,18E)-3,7,11,15,19,23-hexamethyltetracosa-2,6,10,14,18,22-hexaenyl]benzene-1,2-diol

> <PUBCHEM_IUPAC_TRADITIONAL_NAME>
3-[(2E,6E,10E,14E,18E)-3,7,11,15,19,23-hexamethyltetracosa-2,6,10,14,18,22-hexaenyl]pyrocatechol

> <PUBCHEM_IUPAC_INCHI>
InChI=1S/C36H54O2/c1-28(2)14-8-15-29(3)16-9-17-30(4)18-10-19-31(5)20-11-21-32(6)22-12-23-33(7)26-27-34-24-13-25-35(37)36(34)38/h13-14,16,18,20,22,24-26,37-38H,8-12,15,17,19,21,23,27H2,1-7H3/b29-16+,30-18+,31-20+,32-22+,33-26+

> <PUBCHEM_IUPAC_INCHIKEY>
LXZAKEGPNJYZBT-LSRIWWPWSA-N

> <PUBCHEM_XLOGP3_AA>
12.4

> <PUBCHEM_EXACT_MASS>
518.412381

> <PUBCHEM_MOLECULAR_FORMULA>
C36H54O2

> <PUBCHEM_MOLECULAR_WEIGHT>
518.81276

> <PUBCHEM_OPENEYE_CAN_SMILES>
CC(=CCCC(=CCCC(=CCCC(=CCCC(=CCCC(=CCC1=C(C(=CC=C1)O)O)C)C)C)C)C)C

> <PUBCHEM_OPENEYE_ISO_SMILES>
CC(=CCC/C(=C/CC/C(=C/CC/C(=C/CC/C(=C/CC/C(=C/CC1=C(C(=CC=C1)O)O)/C)/C)/C)/C)/C)C

> <PUBCHEM_CACTVS_TPSA>
40.5

> <PUBCHEM_MONOISOTOPIC_WEIGHT>
518.412381

> <PUBCHEM_TOTAL_CHARGE>
0

> <PUBCHEM_HEAVY_ATOM_COUNT>
38

> <PUBCHEM_ATOM_DEF_STEREO_COUNT>
0

> <PUBCHEM_ATOM_UDEF_STEREO_COUNT>
0

> <PUBCHEM_BOND_DEF_STEREO_COUNT>
5

> <PUBCHEM_BOND_UDEF_STEREO_COUNT>
0

> <PUBCHEM_ISOTOPIC_ATOM_COUNT>
0

> <PUBCHEM_COMPONENT_COUNT>
1

> <PUBCHEM_CACTVS_TAUTO_COUNT>
105

> <PUBCHEM_COORDINATE_TYPE>
1
5
255

> <PUBCHEM_BONDANNOTATIONS>
30  32  8
30  33  8
32  36  8
33  37  8
36  38  8
37  38  8

$$$$

