5281372
  -OEChem-07051212563D

 49 51  0     1  0  0  0  0  0999 V2000
   -1.5283    3.2736   -0.1107 O   0  0  0  0  0  0  0  0  0  0  0  0
    0.7671    1.6826    1.0744 O   0  0  0  0  0  0  0  0  0  0  0  0
    0.3105   -2.4628   -1.9189 O   0  0  0  0  0  0  0  0  0  0  0  0
   -1.6199   -0.3014    0.1278 C   0  0  1  0  0  0  0  0  0  0  0  0
   -0.9137    0.9458   -0.4976 C   0  0  1  0  0  0  0  0  0  0  0  0
   -3.0699    0.1417    0.5069 C   0  0  0  0  0  0  0  0  0  0  0  0
   -2.8949    1.6036    0.9403 C   0  0  0  0  0  0  0  0  0  0  0  0
   -1.7656    2.0837    0.0720 C   0  0  0  0  0  0  0  0  0  0  0  0
   -1.5706   -1.5933   -0.7013 C   0  0  0  0  0  0  0  0  0  0  0  0
    0.5289    1.0413    0.0456 C   0  0  0  0  0  0  0  0  0  0  0  0
    1.6471    0.2786   -0.6705 C   0  0  1  0  0  0  0  0  0  0  0  0
   -0.9549    1.0913   -2.0217 C   0  0  0  0  0  0  0  0  0  0  0  0
   -3.7140   -0.6778    1.6398 C   0  0  0  0  0  0  0  0  0  0  0  0
   -4.0045    0.0701   -0.7138 C   0  0  0  0  0  0  0  0  0  0  0  0
    2.7990    1.2299   -1.0438 C   0  0  0  0  0  0  0  0  0  0  0  0
    2.2842   -0.7112    0.2616 C   0  0  0  0  0  0  0  0  0  0  0  0
    3.9563    0.9359   -0.0788 C   0  0  2  0  0  0  0  0  0  0  0  0
   -0.1834   -2.1932   -0.8246 C   0  0  0  0  0  0  0  0  0  0  0  0
    3.5268   -0.3296    0.5923 C   0  0  0  0  0  0  0  0  0  0  0  0
    0.5456   -2.5476    0.4244 C   0  0  0  0  0  0  0  0  0  0  0  0
    1.6517   -1.8901    0.8128 C   0  0  0  0  0  0  0  0  0  0  0  0
    4.2017    2.0603    0.9188 C   0  0  0  0  0  0  0  0  0  0  0  0
    0.0008   -3.7314    1.1651 C   0  0  0  0  0  0  0  0  0  0  0  0
   -1.1189   -0.5101    1.0852 H   0  0  0  0  0  0  0  0  0  0  0  0
   -2.5743    1.6852    1.9843 H   0  0  0  0  0  0  0  0  0  0  0  0
   -3.7920    2.2069    0.7769 H   0  0  0  0  0  0  0  0  0  0  0  0
   -1.9555   -1.4330   -1.7141 H   0  0  0  0  0  0  0  0  0  0  0  0
   -2.2095   -2.3636   -0.2537 H   0  0  0  0  0  0  0  0  0  0  0  0
    1.2888   -0.1887   -1.5859 H   0  0  0  0  0  0  0  0  0  0  0  0
   -0.2718    1.8878   -2.3440 H   0  0  0  0  0  0  0  0  0  0  0  0
   -0.6423    0.1855   -2.5466 H   0  0  0  0  0  0  0  0  0  0  0  0
   -1.9393    1.3725   -2.4024 H   0  0  0  0  0  0  0  0  0  0  0  0
   -4.6893   -0.2649    1.9206 H   0  0  0  0  0  0  0  0  0  0  0  0
   -3.8623   -1.7211    1.3428 H   0  0  0  0  0  0  0  0  0  0  0  0
   -3.0812   -0.6747    2.5341 H   0  0  0  0  0  0  0  0  0  0  0  0
   -3.6640    0.6614   -1.5627 H   0  0  0  0  0  0  0  0  0  0  0  0
   -4.1534   -0.9600   -1.0546 H   0  0  0  0  0  0  0  0  0  0  0  0
   -4.9983    0.4551   -0.4522 H   0  0  0  0  0  0  0  0  0  0  0  0
    2.5020    2.2851   -1.0395 H   0  0  0  0  0  0  0  0  0  0  0  0
    3.1275    1.0043   -2.0676 H   0  0  0  0  0  0  0  0  0  0  0  0
    4.8761    0.7603   -0.6490 H   0  0  0  0  0  0  0  0  0  0  0  0
    4.1734   -0.8699    1.2721 H   0  0  0  0  0  0  0  0  0  0  0  0
    2.1622   -2.2809    1.6946 H   0  0  0  0  0  0  0  0  0  0  0  0
    3.3198    2.2647    1.5343 H   0  0  0  0  0  0  0  0  0  0  0  0
    5.0257    1.8059    1.5947 H   0  0  0  0  0  0  0  0  0  0  0  0
    4.4699    2.9853    0.3974 H   0  0  0  0  0  0  0  0  0  0  0  0
   -0.9741   -3.4938    1.6028 H   0  0  0  0  0  0  0  0  0  0  0  0
    0.6623   -4.0475    1.9785 H   0  0  0  0  0  0  0  0  0  0  0  0
   -0.1205   -4.5843    0.4890 H   0  0  0  0  0  0  0  0  0  0  0  0
  1  8  2  0  0  0  0
  2 10  2  0  0  0  0
  3 18  2  0  0  0  0
  4  5  1  0  0  0  0
  4  6  1  0  0  0  0
  4  9  1  0  0  0  0
  4 24  1  0  0  0  0
  5  8  1  0  0  0  0
  5 10  1  0  0  0  0
  5 12  1  0  0  0  0
  6  7  1  0  0  0  0
  6 13  1  0  0  0  0
  6 14  1  0  0  0  0
  7  8  1  0  0  0  0
  7 25  1  0  0  0  0
  7 26  1  0  0  0  0
  9 18  1  0  0  0  0
  9 27  1  0  0  0  0
  9 28  1  0  0  0  0
 10 11  1  0  0  0  0
 11 15  1  0  0  0  0
 11 16  1  0  0  0  0
 11 29  1  0  0  0  0
 12 30  1  0  0  0  0
 12 31  1  0  0  0  0
 12 32  1  0  0  0  0
 13 33  1  0  0  0  0
 13 34  1  0  0  0  0
 13 35  1  0  0  0  0
 14 36  1  0  0  0  0
 14 37  1  0  0  0  0
 14 38  1  0  0  0  0
 15 17  1  0  0  0  0
 15 39  1  0  0  0  0
 15 40  1  0  0  0  0
 16 19  2  0  0  0  0
 16 21  1  0  0  0  0
 17 19  1  0  0  0  0
 17 22  1  0  0  0  0
 17 41  1  0  0  0  0
 18 20  1  0  0  0  0
 19 42  1  0  0  0  0
 20 21  2  0  0  0  0
 20 23  1  0  0  0  0
 21 43  1  0  0  0  0
 22 44  1  0  0  0  0
 22 45  1  0  0  0  0
 22 46  1  0  0  0  0
 23 47  1  0  0  0  0
 23 48  1  0  0  0  0
 23 49  1  0  0  0  0
M  END
> <PUBCHEM_COMPOUND_CID>
5281372

> <PUBCHEM_CONFORMER_RMSD>
0.6

> <PUBCHEM_CONFORMER_DIVERSEORDER>
1

> <PUBCHEM_MMFF94_PARTIAL_CHARGES>
18
1 -0.57
10 0.45
11 0.2
16 -0.14
17 0.14
18 0.49
19 -0.29
2 -0.57
20 -0.12
21 -0.15
23 0.14
3 -0.57
42 0.15
43 0.15
5 0.12
7 0.06
8 0.45
9 0.06

> <PUBCHEM_EFFECTIVE_ROTOR_COUNT>
1

> <PUBCHEM_PHARMACOPHORE_FEATURES>
6
1 1 acceptor
1 2 acceptor
1 3 acceptor
3 6 13 14 hydrophobe
5 11 15 16 17 19 rings
5 4 5 6 7 8 rings

> <PUBCHEM_HEAVY_ATOM_COUNT>
23

> <PUBCHEM_ATOM_DEF_STEREO_COUNT>
4

> <PUBCHEM_ATOM_UDEF_STEREO_COUNT>
0

> <PUBCHEM_BOND_DEF_STEREO_COUNT>
1

> <PUBCHEM_BOND_UDEF_STEREO_COUNT>
0

> <PUBCHEM_ISOTOPIC_ATOM_COUNT>
0

> <PUBCHEM_COMPONENT_COUNT>
1

> <PUBCHEM_CACTVS_TAUTO_COUNT>
12

> <PUBCHEM_CONFORMER_ID>
0050965C00000001

> <PUBCHEM_MMFF94_ENERGY>
72.2559

> <PUBCHEM_FEATURE_SELFOVERLAP>
30.447

> <PUBCHEM_SHAPE_FINGERPRINT>
10493431 412 18337105657618584656
10863032 1 18113613461158952694
10948715 1 18333447651352715482
10967382 1 18411418384343486344
1100329 8 18051408462052668753
11370993 70 18341901813269970256
11578080 2 16770135806547725615
12173636 292 18408608075736679060
12403814 3 17845385366143100036
12633257 1 18118987814314581200
13027679 85 17833274112207852613
13140716 1 17907013976580449360
13583140 156 15911952443216163572
14178342 30 18126853934878607944
14223421 5 18268985573796743723
14787075 74 18041844999934740561
14790565 3 18337660937051254097
14817 1 15236097407097753750
15309172 13 18410291406436795257
16945 1 18199737193344726295
19591789 44 18340200899231758602
20028762 73 17753599149623322071
20261772 1 18338226068599388466
20510252 161 18333729126234922640
20905425 154 18191863633507101847
21421861 104 18054500576802772219
21501502 16 18122347041216886945
21524375 3 18335140907849749926
21731228 192 18410011044141580834
2334 1 17904765470784821989
23419403 2 17413607373454276671
23559900 14 18052547860767396809
238 59 17977418175454620997
2748010 2 17976817915236090055
350125 39 18341611576997461738
404807 14 15943693433082705966
5939293 188 17472422530792808694
6438718 38 17970904454060862846
7097593 13 17764025066083409841
7364860 26 17974566098348010974
81228 2 17976835189679008802
90525 40 18410293644125416524
9709674 26 18123750013642741955

> <PUBCHEM_SHAPE_MULTIPOLES>
455.72
6.23
3.47
1.43
1.76
1.85
0.35
-2.97
-1.71
0.02
-0.46
-0.41
0.22
0.09

> <PUBCHEM_SHAPE_SELFOVERLAP>
974.534

> <PUBCHEM_SHAPE_VOLUME>
255

> <PUBCHEM_COORDINATE_TYPE>
2
5
10

$$$$

