5281992
  -OEChem-07051213022D

 90 92  0     1  0  0  0  0  0999 V2000
    8.1962    0.6960    0.0000 O   0  0  0  0  0  0  0  0  0  0  0  0
    4.6660    0.6719    0.0000 N   0  0  0  0  0  0  0  0  0  0  0  0
    4.6660   -1.3281    0.0000 N   0  0  0  0  0  0  0  0  0  0  0  0
   10.7961    0.2061    0.0000 C   0  0  3  0  0  0  0  0  0  0  0  0
   11.6602    0.7094    0.0000 C   0  0  0  0  0  0  0  0  0  0  0  0
    9.9282    0.7027    0.0000 C   0  0  0  0  0  0  0  0  0  0  0  0
   12.5282    0.2127    0.0000 C   0  0  0  0  0  0  0  0  0  0  0  0
   10.8000   -0.7939    0.0000 C   0  0  0  0  0  0  0  0  0  0  0  0
    9.0641    0.1994    0.0000 C   0  0  0  0  0  0  0  0  0  0  0  0
   13.3923    0.7161    0.0000 C   0  0  0  0  0  0  0  0  0  0  0  0
   14.2602    0.2194    0.0000 C   0  0  0  0  0  0  0  0  0  0  0  0
   15.1243    0.7227    0.0000 C   0  0  0  0  0  0  0  0  0  0  0  0
   15.9923    0.2261    0.0000 C   0  0  0  0  0  0  0  0  0  0  0  0
   14.2641   -0.7806    0.0000 C   0  0  0  0  0  0  0  0  0  0  0  0
   16.8563    0.7294    0.0000 C   0  0  0  0  0  0  0  0  0  0  0  0
   17.7243    0.2328    0.0000 C   0  0  0  0  0  0  0  0  0  0  0  0
   18.5884    0.7361    0.0000 C   0  0  0  0  0  0  0  0  0  0  0  0
    7.3321    0.1927    0.0000 C   0  0  0  0  0  0  0  0  0  0  0  0
   19.4563    0.2394    0.0000 C   0  0  0  0  0  0  0  0  0  0  0  0
   20.3204    0.7428    0.0000 C   0  0  0  0  0  0  0  0  0  0  0  0
   17.7282   -0.7672    0.0000 C   0  0  0  0  0  0  0  0  0  0  0  0
   21.1884    0.2461    0.0000 C   0  0  0  0  0  0  0  0  0  0  0  0
   22.0525    0.7495    0.0000 C   0  0  0  0  0  0  0  0  0  0  0  0
    6.4260    0.7066    0.0000 C   0  0  0  0  0  0  0  0  0  0  0  0
    7.3321   -0.8489    0.0000 C   0  0  0  0  0  0  0  0  0  0  0  0
    5.5321    0.1719    0.0000 C   0  0  0  0  0  0  0  0  0  0  0  0
   22.9204    0.2528    0.0000 C   0  0  0  0  0  0  0  0  0  0  0  0
    5.5321   -0.8281    0.0000 C   0  0  0  0  0  0  0  0  0  0  0  0
    6.4260   -1.3628    0.0000 C   0  0  0  0  0  0  0  0  0  0  0  0
   21.1922   -0.7539    0.0000 C   0  0  0  0  0  0  0  0  0  0  0  0
   23.7845    0.7561    0.0000 C   0  0  0  0  0  0  0  0  0  0  0  0
    3.8000    0.1719    0.0000 C   0  0  0  0  0  0  0  0  0  0  0  0
    3.8000   -0.8281    0.0000 C   0  0  0  0  0  0  0  0  0  0  0  0
   24.6524    0.2595    0.0000 C   0  0  0  0  0  0  0  0  0  0  0  0
    2.9061    0.7066    0.0000 C   0  0  0  0  0  0  0  0  0  0  0  0
    2.9061   -1.3628    0.0000 C   0  0  0  0  0  0  0  0  0  0  0  0
   25.5165    0.7628    0.0000 C   0  0  0  0  0  0  0  0  0  0  0  0
   24.6563   -0.7405    0.0000 C   0  0  0  0  0  0  0  0  0  0  0  0
    2.0000    0.1927    0.0000 C   0  0  0  0  0  0  0  0  0  0  0  0
    2.0000   -0.8489    0.0000 C   0  0  0  0  0  0  0  0  0  0  0  0
   10.2604   -0.1060    0.0000 H   0  0  0  0  0  0  0  0  0  0  0  0
   12.0569    1.1859    0.0000 H   0  0  0  0  0  0  0  0  0  0  0  0
   11.2599    1.1828    0.0000 H   0  0  0  0  0  0  0  0  0  0  0  0
   10.3249    1.1792    0.0000 H   0  0  0  0  0  0  0  0  0  0  0  0
    9.5278    1.1761    0.0000 H   0  0  0  0  0  0  0  0  0  0  0  0
   12.1315   -0.2637    0.0000 H   0  0  0  0  0  0  0  0  0  0  0  0
   12.9285   -0.2607    0.0000 H   0  0  0  0  0  0  0  0  0  0  0  0
   10.1800   -0.7963    0.0000 H   0  0  0  0  0  0  0  0  0  0  0  0
   10.8024   -1.4139    0.0000 H   0  0  0  0  0  0  0  0  0  0  0  0
   11.4200   -0.7915    0.0000 H   0  0  0  0  0  0  0  0  0  0  0  0
    8.6674   -0.2771    0.0000 H   0  0  0  0  0  0  0  0  0  0  0  0
    9.4645   -0.2740    0.0000 H   0  0  0  0  0  0  0  0  0  0  0  0
   13.3899    1.3361    0.0000 H   0  0  0  0  0  0  0  0  0  0  0  0
   15.5210    1.1992    0.0000 H   0  0  0  0  0  0  0  0  0  0  0  0
   14.7240    1.1962    0.0000 H   0  0  0  0  0  0  0  0  0  0  0  0
   15.5956   -0.2504    0.0000 H   0  0  0  0  0  0  0  0  0  0  0  0
   16.3926   -0.2473    0.0000 H   0  0  0  0  0  0  0  0  0  0  0  0
   13.6441   -0.7830    0.0000 H   0  0  0  0  0  0  0  0  0  0  0  0
   14.2665   -1.4006    0.0000 H   0  0  0  0  0  0  0  0  0  0  0  0
   14.8841   -0.7782    0.0000 H   0  0  0  0  0  0  0  0  0  0  0  0
   16.8540    1.3494    0.0000 H   0  0  0  0  0  0  0  0  0  0  0  0
   18.9851    1.2126    0.0000 H   0  0  0  0  0  0  0  0  0  0  0  0
   18.1880    1.2095    0.0000 H   0  0  0  0  0  0  0  0  0  0  0  0
   19.0596   -0.2370    0.0000 H   0  0  0  0  0  0  0  0  0  0  0  0
   19.8567   -0.2340    0.0000 H   0  0  0  0  0  0  0  0  0  0  0  0
   20.3180    1.3628    0.0000 H   0  0  0  0  0  0  0  0  0  0  0  0
   17.1082   -0.7696    0.0000 H   0  0  0  0  0  0  0  0  0  0  0  0
   17.7305   -1.3872    0.0000 H   0  0  0  0  0  0  0  0  0  0  0  0
   18.3481   -0.7648    0.0000 H   0  0  0  0  0  0  0  0  0  0  0  0
   22.4492    1.2259    0.0000 H   0  0  0  0  0  0  0  0  0  0  0  0
   21.6521    1.2229    0.0000 H   0  0  0  0  0  0  0  0  0  0  0  0
    6.4188    1.3265    0.0000 H   0  0  0  0  0  0  0  0  0  0  0  0
    7.8678   -1.1610    0.0000 H   0  0  0  0  0  0  0  0  0  0  0  0
   22.5237   -0.2237    0.0000 H   0  0  0  0  0  0  0  0  0  0  0  0
   23.3208   -0.2206    0.0000 H   0  0  0  0  0  0  0  0  0  0  0  0
    6.4188   -1.9827    0.0000 H   0  0  0  0  0  0  0  0  0  0  0  0
   20.5722   -0.7563    0.0000 H   0  0  0  0  0  0  0  0  0  0  0  0
   21.1946   -1.3739    0.0000 H   0  0  0  0  0  0  0  0  0  0  0  0
   21.8122   -0.7515    0.0000 H   0  0  0  0  0  0  0  0  0  0  0  0
   23.7821    1.3761    0.0000 H   0  0  0  0  0  0  0  0  0  0  0  0
    2.9132    1.3265    0.0000 H   0  0  0  0  0  0  0  0  0  0  0  0
    2.9132   -1.9827    0.0000 H   0  0  0  0  0  0  0  0  0  0  0  0
   25.8286    0.2271    0.0000 H   0  0  0  0  0  0  0  0  0  0  0  0
   26.0523    1.0749    0.0000 H   0  0  0  0  0  0  0  0  0  0  0  0
   24.0363   -0.7429    0.0000 H   0  0  0  0  0  0  0  0  0  0  0  0
   24.6587   -1.3605    0.0000 H   0  0  0  0  0  0  0  0  0  0  0  0
   25.2763   -0.7381    0.0000 H   0  0  0  0  0  0  0  0  0  0  0  0
   25.2045    1.2985    0.0000 H   0  0  0  0  0  0  0  0  0  0  0  0
    1.4643    0.5048    0.0000 H   0  0  0  0  0  0  0  0  0  0  0  0
    1.4643   -1.1610    0.0000 H   0  0  0  0  0  0  0  0  0  0  0  0
  1  9  1  0  0  0  0
  1 18  1  0  0  0  0
  2 26  2  0  0  0  0
  2 32  1  0  0  0  0
  3 28  2  0  0  0  0
  3 33  1  0  0  0  0
  4  5  1  0  0  0  0
  4  6  1  0  0  0  0
  4  8  1  0  0  0  0
  4 41  1  0  0  0  0
  5  7  1  0  0  0  0
  5 42  1  0  0  0  0
  5 43  1  0  0  0  0
  6  9  1  0  0  0  0
  6 44  1  0  0  0  0
  6 45  1  0  0  0  0
  7 10  1  0  0  0  0
  7 46  1  0  0  0  0
  7 47  1  0  0  0  0
  8 48  1  0  0  0  0
  8 49  1  0  0  0  0
  8 50  1  0  0  0  0
  9 51  1  0  0  0  0
  9 52  1  0  0  0  0
 10 11  2  0  0  0  0
 10 53  1  0  0  0  0
 11 12  1  0  0  0  0
 11 14  1  0  0  0  0
 12 13  1  0  0  0  0
 12 54  1  0  0  0  0
 12 55  1  0  0  0  0
 13 15  1  0  0  0  0
 13 56  1  0  0  0  0
 13 57  1  0  0  0  0
 14 58  1  0  0  0  0
 14 59  1  0  0  0  0
 14 60  1  0  0  0  0
 15 16  2  0  0  0  0
 15 61  1  0  0  0  0
 16 17  1  0  0  0  0
 16 21  1  0  0  0  0
 17 19  1  0  0  0  0
 17 62  1  0  0  0  0
 17 63  1  0  0  0  0
 18 24  2  0  0  0  0
 18 25  1  0  0  0  0
 19 20  1  0  0  0  0
 19 64  1  0  0  0  0
 19 65  1  0  0  0  0
 20 22  2  0  0  0  0
 20 66  1  0  0  0  0
 21 67  1  0  0  0  0
 21 68  1  0  0  0  0
 21 69  1  0  0  0  0
 22 23  1  0  0  0  0
 22 30  1  0  0  0  0
 23 27  1  0  0  0  0
 23 70  1  0  0  0  0
 23 71  1  0  0  0  0
 24 26  1  0  0  0  0
 24 72  1  0  0  0  0
 25 29  2  0  0  0  0
 25 73  1  0  0  0  0
 26 28  1  0  0  0  0
 27 31  1  0  0  0  0
 27 74  1  0  0  0  0
 27 75  1  0  0  0  0
 28 29  1  0  0  0  0
 29 76  1  0  0  0  0
 30 77  1  0  0  0  0
 30 78  1  0  0  0  0
 30 79  1  0  0  0  0
 31 34  2  0  0  0  0
 31 80  1  0  0  0  0
 32 33  1  0  0  0  0
 32 35  2  0  0  0  0
 33 36  2  0  0  0  0
 34 37  1  0  0  0  0
 34 38  1  0  0  0  0
 35 39  1  0  0  0  0
 35 81  1  0  0  0  0
 36 40  1  0  0  0  0
 36 82  1  0  0  0  0
 37 83  1  0  0  0  0
 37 84  1  0  0  0  0
 37 88  1  0  0  0  0
 38 85  1  0  0  0  0
 38 86  1  0  0  0  0
 38 87  1  0  0  0  0
 39 40  2  0  0  0  0
 39 89  1  0  0  0  0
 40 90  1  0  0  0  0
M  END
> <PUBCHEM_COMPOUND_CID>
5281992

> <PUBCHEM_COMPOUND_CANONICALIZED>
1

> <PUBCHEM_CACTVS_COMPLEXITY>
848

> <PUBCHEM_CACTVS_HBOND_ACCEPTOR>
3

> <PUBCHEM_CACTVS_HBOND_DONOR>
0

> <PUBCHEM_CACTVS_ROTATABLE_BOND>
16

> <PUBCHEM_CACTVS_SUBSKEYS>
AAADcfB/IAAAAAAAAAAAAAAAAAAAAAAAAAA8YIAAAAAAAACx/AAAHgAAAAAADQyhlgIyxrIIFACgAyRiRACCiCQhMiAImCA2fJgMZuLEsZuWOCjmwBnI6AewUAMOAEAAAgAAACAAgAAEAAAAQAAAAAAAAA==

> <PUBCHEM_IUPAC_OPENEYE_NAME>
2-[(6E,10E,14E)-3,7,11,15,19-pentamethylicosa-6,10,14,18-tetraenoxy]phenazine

> <PUBCHEM_IUPAC_CAS_NAME>
2-[(6E,10E,14E)-3,7,11,15,19-pentamethyleicosa-6,10,14,18-tetraenoxy]phenazine

> <PUBCHEM_IUPAC_NAME>
2-[(6E,10E,14E)-3,7,11,15,19-pentamethylicosa-6,10,14,18-tetraenoxy]phenazine

> <PUBCHEM_IUPAC_SYSTEMATIC_NAME>
2-[(6E,10E,14E)-3,7,11,15,19-pentamethylicosa-6,10,14,18-tetraenoxy]phenazine

> <PUBCHEM_IUPAC_TRADITIONAL_NAME>
2-[(6E,10E,14E)-3,7,11,15,19-pentamethyleicosa-6,10,14,18-tetraenoxy]phenazine

> <PUBCHEM_IUPAC_INCHI>
InChI=1S/C37H50N2O/c1-28(2)13-9-14-29(3)15-10-16-30(4)17-11-18-31(5)19-12-20-32(6)25-26-40-33-23-24-36-37(27-33)39-35-22-8-7-21-34(35)38-36/h7-8,13,15,17,19,21-24,27,32H,9-12,14,16,18,20,25-26H2,1-6H3/b29-15+,30-17+,31-19+

> <PUBCHEM_IUPAC_INCHIKEY>
VRHMBACMYZITGD-QAAQOENVSA-N

> <PUBCHEM_XLOGP3_AA>
11.8

> <PUBCHEM_EXACT_MASS>
538.392314

> <PUBCHEM_MOLECULAR_FORMULA>
C37H50N2O

> <PUBCHEM_MOLECULAR_WEIGHT>
538.8057

> <PUBCHEM_OPENEYE_CAN_SMILES>
CC(CCC=C(C)CCC=C(C)CCC=C(C)CCC=C(C)C)CCOC1=CC2=NC3=CC=CC=C3N=C2C=C1

> <PUBCHEM_OPENEYE_ISO_SMILES>
CC(CC/C=C(\C)/CC/C=C(\C)/CC/C=C(\C)/CCC=C(C)C)CCOC1=CC2=NC3=CC=CC=C3N=C2C=C1

> <PUBCHEM_CACTVS_TPSA>
35

> <PUBCHEM_MONOISOTOPIC_WEIGHT>
538.392314

> <PUBCHEM_TOTAL_CHARGE>
0

> <PUBCHEM_HEAVY_ATOM_COUNT>
40

> <PUBCHEM_ATOM_DEF_STEREO_COUNT>
0

> <PUBCHEM_ATOM_UDEF_STEREO_COUNT>
1

> <PUBCHEM_BOND_DEF_STEREO_COUNT>
3

> <PUBCHEM_BOND_UDEF_STEREO_COUNT>
0

> <PUBCHEM_ISOTOPIC_ATOM_COUNT>
0

> <PUBCHEM_COMPONENT_COUNT>
1

> <PUBCHEM_CACTVS_TAUTO_COUNT>
1

> <PUBCHEM_COORDINATE_TYPE>
1
5
255

> <PUBCHEM_BONDANNOTATIONS>
18  24  8
18  25  8
2  26  8
2  32  8
24  26  8
25  29  8
26  28  8
28  29  8
3  28  8
3  33  8
32  33  8
32  35  8
33  36  8
35  39  8
36  40  8
39  40  8
4  8  3

$$$$

