54675785
  -OEChem-07051212543D

 54 57  0     1  0  0  0  0  0999 V2000
    2.4955   -0.3804    2.2787 O   0  0  0  0  0  0  0  0  0  0  0  0
    0.4547   -2.7316   -1.3641 O   0  0  0  0  0  0  0  0  0  0  0  0
    1.1901    2.1920    1.5871 O   0  0  0  0  0  0  0  0  0  0  0  0
    0.0508   -0.1352    3.2886 O   0  0  0  0  0  0  0  0  0  0  0  0
    3.1000    0.5277   -2.4613 O   0  0  0  0  0  0  0  0  0  0  0  0
   -2.0697    1.4384    2.0568 O   0  0  0  0  0  0  0  0  0  0  0  0
    3.1978    3.3493   -1.3809 O   0  0  0  0  0  0  0  0  0  0  0  0
   -3.9984    2.4486    0.6043 O   0  0  0  0  0  0  0  0  0  0  0  0
    4.0658   -1.1690   -0.0661 N   0  0  0  0  0  0  0  0  0  0  0  0
    0.8987    3.3819   -1.1687 N   0  0  0  0  0  0  0  0  0  0  0  0
    1.5773   -1.3248    0.2455 C   0  0  1  0  0  0  0  0  0  0  0  0
    1.4682   -0.1950    1.3020 C   0  0  1  0  0  0  0  0  0  0  0  0
    0.2633   -1.5560   -0.5726 C   0  0  2  0  0  0  0  0  0  0  0  0
   -0.9448   -1.7590    0.3655 C   0  0  1  0  0  0  0  0  0  0  0  0
    2.7595   -1.0677   -0.7144 C   0  0  1  0  0  0  0  0  0  0  0  0
   -1.0545   -0.5453    1.2366 C   0  0  0  0  0  0  0  0  0  0  0  0
    0.1455   -0.2930    2.0747 C   0  0  0  0  0  0  0  0  0  0  0  0
    1.6116    1.1995    0.7164 C   0  0  0  0  0  0  0  0  0  0  0  0
    2.6692    0.3177   -1.3264 C   0  0  0  0  0  0  0  0  0  0  0  0
   -2.2558   -2.0872   -0.3346 C   0  0  0  0  0  0  0  0  0  0  0  0
    2.1108    1.4465   -0.5125 C   0  0  0  0  0  0  0  0  0  0  0  0
   -2.0569    0.3449    1.2142 C   0  0  0  0  0  0  0  0  0  0  0  0
   -3.2047   -0.9705   -0.5861 C   0  0  0  0  0  0  0  0  0  0  0  0
   -3.1202    0.2103    0.1913 C   0  0  0  0  0  0  0  0  0  0  0  0
    4.2026   -2.4623    0.5999 C   0  0  0  0  0  0  0  0  0  0  0  0
    5.1339   -0.9788   -1.0446 C   0  0  0  0  0  0  0  0  0  0  0  0
   -2.5841   -3.3682   -0.5847 C   0  0  0  0  0  0  0  0  0  0  0  0
    2.1430    2.8135   -1.0630 C   0  0  0  0  0  0  0  0  0  0  0  0
   -4.1771   -1.0529   -1.6016 C   0  0  0  0  0  0  0  0  0  0  0  0
   -4.0199    1.2605   -0.0722 C   0  0  0  0  0  0  0  0  0  0  0  0
   -5.0646   -0.0041   -1.8368 C   0  0  0  0  0  0  0  0  0  0  0  0
   -4.9877    1.1503   -1.0711 C   0  0  0  0  0  0  0  0  0  0  0  0
    1.7348   -2.2730    0.7739 H   0  0  0  0  0  0  0  0  0  0  0  0
    0.0773   -0.7250   -1.2636 H   0  0  0  0  0  0  0  0  0  0  0  0
   -0.7229   -2.6119    1.0263 H   0  0  0  0  0  0  0  0  0  0  0  0
    2.7023   -1.7883   -1.5418 H   0  0  0  0  0  0  0  0  0  0  0  0
    2.4926    0.3873    2.8763 H   0  0  0  0  0  0  0  0  0  0  0  0
    0.5973   -3.4808   -0.7609 H   0  0  0  0  0  0  0  0  0  0  0  0
    3.6061   -2.5406    1.5122 H   0  0  0  0  0  0  0  0  0  0  0  0
    3.9609   -3.3015   -0.0630 H   0  0  0  0  0  0  0  0  0  0  0  0
    5.2351   -2.6059    0.9426 H   0  0  0  0  0  0  0  0  0  0  0  0
    5.0281   -1.6300   -1.9201 H   0  0  0  0  0  0  0  0  0  0  0  0
    5.2162    0.0621   -1.3720 H   0  0  0  0  0  0  0  0  0  0  0  0
    6.1091   -1.1974   -0.5917 H   0  0  0  0  0  0  0  0  0  0  0  0
   -1.8971   -4.1744   -0.3449 H   0  0  0  0  0  0  0  0  0  0  0  0
   -3.5344   -3.6662   -1.0130 H   0  0  0  0  0  0  0  0  0  0  0  0
    1.3291    3.0586    1.1713 H   0  0  0  0  0  0  0  0  0  0  0  0
   -4.2546   -1.9302   -2.2394 H   0  0  0  0  0  0  0  0  0  0  0  0
   -1.3268    1.3881    2.6793 H   0  0  0  0  0  0  0  0  0  0  0  0
   -5.8084   -0.0880   -2.6236 H   0  0  0  0  0  0  0  0  0  0  0  0
   -5.6818    1.9621   -1.2728 H   0  0  0  0  0  0  0  0  0  0  0  0
    0.0468    2.8975   -0.9025 H   0  0  0  0  0  0  0  0  0  0  0  0
    0.7870    4.3226   -1.5323 H   0  0  0  0  0  0  0  0  0  0  0  0
   -4.6969    3.0348    0.2670 H   0  0  0  0  0  0  0  0  0  0  0  0
  1 12  1  0  0  0  0
  1 37  1  0  0  0  0
  2 13  1  0  0  0  0
  2 38  1  0  0  0  0
  3 18  1  0  0  0  0
  3 47  1  0  0  0  0
  4 17  2  0  0  0  0
  5 19  2  0  0  0  0
  6 22  1  0  0  0  0
  6 49  1  0  0  0  0
  7 28  2  0  0  0  0
  8 30  1  0  0  0  0
  8 54  1  0  0  0  0
  9 15  1  0  0  0  0
  9 25  1  0  0  0  0
  9 26  1  0  0  0  0
 10 28  1  0  0  0  0
 10 52  1  0  0  0  0
 10 53  1  0  0  0  0
 11 12  1  0  0  0  0
 11 13  1  0  0  0  0
 11 15  1  0  0  0  0
 11 33  1  0  0  0  0
 12 17  1  0  0  0  0
 12 18  1  0  0  0  0
 13 14  1  0  0  0  0
 13 34  1  0  0  0  0
 14 16  1  0  0  0  0
 14 20  1  0  0  0  0
 14 35  1  0  0  0  0
 15 19  1  0  0  0  0
 15 36  1  0  0  0  0
 16 17  1  0  0  0  0
 16 22  2  0  0  0  0
 18 21  2  0  0  0  0
 19 21  1  0  0  0  0
 20 23  1  0  0  0  0
 20 27  2  0  0  0  0
 21 28  1  0  0  0  0
 22 24  1  0  0  0  0
 23 24  2  0  0  0  0
 23 29  1  0  0  0  0
 24 30  1  0  0  0  0
 25 39  1  0  0  0  0
 25 40  1  0  0  0  0
 25 41  1  0  0  0  0
 26 42  1  0  0  0  0
 26 43  1  0  0  0  0
 26 44  1  0  0  0  0
 27 45  1  0  0  0  0
 27 46  1  0  0  0  0
 29 31  2  0  0  0  0
 29 48  1  0  0  0  0
 30 32  2  0  0  0  0
 31 32  1  0  0  0  0
 31 50  1  0  0  0  0
 32 51  1  0  0  0  0
M  END
> <PUBCHEM_COMPOUND_CID>
54675785

> <PUBCHEM_CONFORMER_RMSD>
0.8

> <PUBCHEM_CONFORMER_DIVERSEORDER>
1
5
3
2
4

> <PUBCHEM_MMFF94_PARTIAL_CHARGES>
43
1 -0.68
10 -0.8
12 0.48
13 0.28
14 0.28
15 0.33
16 -0.12
17 0.49
18 -0.06
19 0.49
2 -0.68
20 -0.17
21 0.03
22 0.05
23 0.03
24 0.03
25 0.27
26 0.27
27 -0.3
28 0.62
29 -0.15
3 -0.53
30 0.08
31 -0.15
32 -0.15
37 0.4
38 0.4
4 -0.57
45 0.15
46 0.15
47 0.45
48 0.15
49 0.45
5 -0.57
50 0.15
51 0.15
52 0.37
53 0.37
54 0.45
6 -0.53
7 -0.57
8 -0.53
9 -0.81

> <PUBCHEM_EFFECTIVE_ROTOR_COUNT>
2.4

> <PUBCHEM_PHARMACOPHORE_FEATURES>
17
1 1 acceptor
1 1 donor
1 10 donor
1 2 acceptor
1 2 donor
1 21 anion
1 3 donor
1 4 acceptor
1 5 acceptor
1 6 donor
1 7 acceptor
1 8 donor
1 9 cation
6 11 12 13 14 16 17 rings
6 11 12 15 18 19 21 rings
6 14 16 20 22 23 24 rings
6 23 24 29 30 31 32 rings

> <PUBCHEM_HEAVY_ATOM_COUNT>
32

> <PUBCHEM_ATOM_DEF_STEREO_COUNT>
5

> <PUBCHEM_ATOM_UDEF_STEREO_COUNT>
0

> <PUBCHEM_BOND_DEF_STEREO_COUNT>
0

> <PUBCHEM_BOND_UDEF_STEREO_COUNT>
0

> <PUBCHEM_ISOTOPIC_ATOM_COUNT>
0

> <PUBCHEM_COMPONENT_COUNT>
1

> <PUBCHEM_CACTVS_TAUTO_COUNT>
168

> <PUBCHEM_CONFORMER_ID>
0342494900000001

> <PUBCHEM_MMFF94_ENERGY>
107.1455

> <PUBCHEM_FEATURE_SELFOVERLAP>
86.417

> <PUBCHEM_SHAPE_FINGERPRINT>
10498660 4 18195248806734358549
10863032 1 18336826368827485854
10930396 42 18051165681196451954
11578080 2 18186807946347176800
11640471 11 17702122299884426619
11828532 37 17387155125861807053
12107698 1 18201712921551558131
12166972 35 18334863835050760135
12363563 72 16008745810083105843
12892183 10 8646499535033041839
13004483 165 18056205915248830554
13134695 92 18202278152179755006
13224815 77 17988932145794325405
13583140 156 17775281682015088819
14341114 328 9871454444026431767
15238133 3 17130445663932844465
17349148 13 18186804720225382683
17980427 23 17822003233856049568
1813 80 17054737781596388442
18335252 114 18056495056789189765
18981168 100 16414913028771123736
192875 21 18334859441262228159
20775438 99 16595392292652774967
21033648 29 16128654145919716853
21781051 124 18410860933072544591
22393880 68 18191852454044646060
22907989 373 18042389245727255909
23559900 14 18188220822524711939
238 59 18265886965198793533
340366 18 18411420609252837295
5895379 119 18335986449223537013
7399639 24 17337847362819211466
9981440 41 17623569748875051528

> <PUBCHEM_SHAPE_MULTIPOLES>
601.63
8.95
3.34
2.21
3.62
1.09
-1.01
0.02
4.53
-0.98
1.14
-0.39
0.44
-1.27

> <PUBCHEM_SHAPE_SELFOVERLAP>
1335.174

> <PUBCHEM_SHAPE_VOLUME>
315.8

> <PUBCHEM_COORDINATE_TYPE>
2
5
10

$$$$

