69698
  -OEChem-07051212502D

 19 19  0     0  0  0  0  0  0999 V2000
    2.0000   -1.1550    0.0000 O   0  0  0  0  0  0  0  0  0  0  0  0
    6.3301    0.3450    0.0000 O   0  0  0  0  0  0  0  0  0  0  0  0
    3.7320   -1.1550    0.0000 N   0  0  0  0  0  0  0  0  0  0  0  0
    5.4641    1.8450    0.0000 N   0  0  0  0  0  0  0  0  0  0  0  0
    4.5981    0.3450    0.0000 C   0  0  0  0  0  0  0  0  0  0  0  0
    4.5981   -0.6550    0.0000 C   0  0  0  0  0  0  0  0  0  0  0  0
    2.8660   -0.6550    0.0000 C   0  0  0  0  0  0  0  0  0  0  0  0
    3.7320    0.8450    0.0000 C   0  0  0  0  0  0  0  0  0  0  0  0
    2.8660    0.3450    0.0000 C   0  0  0  0  0  0  0  0  0  0  0  0
    3.7320   -2.1550    0.0000 C   0  0  0  0  0  0  0  0  0  0  0  0
    5.4641    0.8450    0.0000 C   0  0  0  0  0  0  0  0  0  0  0  0
    5.1350   -0.9650    0.0000 H   0  0  0  0  0  0  0  0  0  0  0  0
    3.7320    1.4650    0.0000 H   0  0  0  0  0  0  0  0  0  0  0  0
    2.3291    0.6550    0.0000 H   0  0  0  0  0  0  0  0  0  0  0  0
    3.1120   -2.1550    0.0000 H   0  0  0  0  0  0  0  0  0  0  0  0
    3.7320   -2.7750    0.0000 H   0  0  0  0  0  0  0  0  0  0  0  0
    4.3520   -2.1550    0.0000 H   0  0  0  0  0  0  0  0  0  0  0  0
    6.0010    2.1550    0.0000 H   0  0  0  0  0  0  0  0  0  0  0  0
    4.9272    2.1550    0.0000 H   0  0  0  0  0  0  0  0  0  0  0  0
  1  7  2  0  0  0  0
  2 11  2  0  0  0  0
  3  6  1  0  0  0  0
  3  7  1  0  0  0  0
  3 10  1  0  0  0  0
  4 11  1  0  0  0  0
  4 18  1  0  0  0  0
  4 19  1  0  0  0  0
  5  6  2  0  0  0  0
  5  8  1  0  0  0  0
  5 11  1  0  0  0  0
  6 12  1  0  0  0  0
  7  9  1  0  0  0  0
  8  9  2  0  0  0  0
  8 13  1  0  0  0  0
  9 14  1  0  0  0  0
 10 15  1  0  0  0  0
 10 16  1  0  0  0  0
 10 17  1  0  0  0  0
M  END
> <PUBCHEM_COMPOUND_CID>
69698

> <PUBCHEM_COMPOUND_CANONICALIZED>
1

> <PUBCHEM_CACTVS_COMPLEXITY>
266

> <PUBCHEM_CACTVS_HBOND_ACCEPTOR>
2

> <PUBCHEM_CACTVS_HBOND_DONOR>
1

> <PUBCHEM_CACTVS_ROTATABLE_BOND>
1

> <PUBCHEM_CACTVS_SUBSKEYS>
AAADccBjMAAAAAAAAAAAAAAAAAAAAAAAAAAgAAAAAAAAAAAAAAAAHgAQAAAADADBgAQCAANAAACIAiFWUACAAAAgAAAICAEIAEgIAAAAAQAAAAAAAgAIgcIAAAAAAAAAAAAAAAAAAAAAAAAAAAAAAAAAAA==

> <PUBCHEM_IUPAC_OPENEYE_NAME>
1-methyl-6-oxo-pyridine-3-carboxamide

> <PUBCHEM_IUPAC_CAS_NAME>
1-methyl-6-oxo-3-pyridinecarboxamide

> <PUBCHEM_IUPAC_NAME>
1-methyl-6-oxopyridine-3-carboxamide

> <PUBCHEM_IUPAC_SYSTEMATIC_NAME>
1-methyl-6-oxidanylidene-pyridine-3-carboxamide

> <PUBCHEM_IUPAC_TRADITIONAL_NAME>
6-keto-1-methyl-nicotinamide

> <PUBCHEM_IUPAC_INCHI>
InChI=1S/C7H8N2O2/c1-9-4-5(7(8)11)2-3-6(9)10/h2-4H,1H3,(H2,8,11)

> <PUBCHEM_IUPAC_INCHIKEY>
JLQSXXWTCJPCBC-UHFFFAOYSA-N

> <PUBCHEM_XLOGP3_AA>
-1

> <PUBCHEM_EXACT_MASS>
152.058578

> <PUBCHEM_MOLECULAR_FORMULA>
C7H8N2O2

> <PUBCHEM_MOLECULAR_WEIGHT>
152.15062

> <PUBCHEM_OPENEYE_CAN_SMILES>
CN1C=C(C=CC1=O)C(=O)N

> <PUBCHEM_OPENEYE_ISO_SMILES>
CN1C=C(C=CC1=O)C(=O)N

> <PUBCHEM_CACTVS_TPSA>
63.4

> <PUBCHEM_MONOISOTOPIC_WEIGHT>
152.058578

> <PUBCHEM_TOTAL_CHARGE>
0

> <PUBCHEM_HEAVY_ATOM_COUNT>
11

> <PUBCHEM_ATOM_DEF_STEREO_COUNT>
0

> <PUBCHEM_ATOM_UDEF_STEREO_COUNT>
0

> <PUBCHEM_BOND_DEF_STEREO_COUNT>
0

> <PUBCHEM_BOND_UDEF_STEREO_COUNT>
0

> <PUBCHEM_ISOTOPIC_ATOM_COUNT>
0

> <PUBCHEM_COMPONENT_COUNT>
1

> <PUBCHEM_CACTVS_TAUTO_COUNT>
2

> <PUBCHEM_COORDINATE_TYPE>
1
5
255

> <PUBCHEM_BONDANNOTATIONS>
3  6  8
3  7  8
5  6  8
5  8  8
7  9  8
8  9  8

$$$$

