5282357
  -OEChem-07051213042D

 51 52  0     0  0  0  0  0  0999 V2000
    5.0000    0.6340    0.0000 O   0  0  0  0  0  0  0  0  0  0  0  0
    7.0000    0.6340    0.0000 O   0  0  0  0  0  0  0  0  0  0  0  0
    5.5000    1.5000    0.0000 O   0  0  0  0  0  0  0  0  0  0  0  0
    3.5000   -0.2321    0.0000 O   0  0  0  0  0  0  0  0  0  0  0  0
    5.5000   -2.2320    0.0000 N   0  0  0  0  0  0  0  0  0  0  0  0
    6.3660   -1.7320    0.0000 C   0  0  0  0  0  0  0  0  0  0  0  0
    4.6340   -1.7320    0.0000 C   0  0  0  0  0  0  0  0  0  0  0  0
    5.5000   -0.2321    0.0000 C   0  0  0  0  0  0  0  0  0  0  0  0
    6.3660   -0.7321    0.0000 C   0  0  0  0  0  0  0  0  0  0  0  0
    4.6340   -0.7321    0.0000 C   0  0  0  0  0  0  0  0  0  0  0  0
    4.1340   -2.5981    0.0000 C   0  0  0  0  0  0  0  0  0  0  0  0
    3.6340   -1.7320    0.0000 C   0  0  0  0  0  0  0  0  0  0  0  0
    6.8660   -2.5981    0.0000 C   0  0  0  0  0  0  0  0  0  0  0  0
    7.3660   -1.7320    0.0000 C   0  0  0  0  0  0  0  0  0  0  0  0
    5.5000   -3.2320    0.0000 C   0  0  0  0  0  0  0  0  0  0  0  0
    6.0000    0.6340    0.0000 C   0  0  0  0  0  0  0  0  0  0  0  0
    4.0000    0.6340    0.0000 C   0  0  0  0  0  0  0  0  0  0  0  0
    3.5000    1.5000    0.0000 C   0  0  0  0  0  0  0  0  0  0  0  0
    7.5000    1.5000    0.0000 C   0  0  0  0  0  0  0  0  0  0  0  0
    4.0000    2.3660    0.0000 C   0  0  0  0  0  0  0  0  0  0  0  0
    2.5000    1.5000    0.0000 C   0  0  0  0  0  0  0  0  0  0  0  0
    3.5000    3.2320    0.0000 C   0  0  0  0  0  0  0  0  0  0  0  0
    2.0000    2.3660    0.0000 C   0  0  0  0  0  0  0  0  0  0  0  0
    2.5000    3.2320    0.0000 C   0  0  0  0  0  0  0  0  0  0  0  0
    6.9766   -0.8397    0.0000 H   0  0  0  0  0  0  0  0  0  0  0  0
    6.5781   -0.1494    0.0000 H   0  0  0  0  0  0  0  0  0  0  0  0
    4.4219   -0.1494    0.0000 H   0  0  0  0  0  0  0  0  0  0  0  0
    4.0234   -0.8397    0.0000 H   0  0  0  0  0  0  0  0  0  0  0  0
    7.3660   -2.3521    0.0000 H   0  0  0  0  0  0  0  0  0  0  0  0
    7.9860   -1.7320    0.0000 H   0  0  0  0  0  0  0  0  0  0  0  0
    7.3660   -1.1120    0.0000 H   0  0  0  0  0  0  0  0  0  0  0  0
    6.3291   -2.9081    0.0000 H   0  0  0  0  0  0  0  0  0  0  0  0
    7.1760   -3.1350    0.0000 H   0  0  0  0  0  0  0  0  0  0  0  0
    7.4030   -2.2881    0.0000 H   0  0  0  0  0  0  0  0  0  0  0  0
    3.6340   -1.1120    0.0000 H   0  0  0  0  0  0  0  0  0  0  0  0
    3.0140   -1.7320    0.0000 H   0  0  0  0  0  0  0  0  0  0  0  0
    3.6340   -2.3521    0.0000 H   0  0  0  0  0  0  0  0  0  0  0  0
    3.5970   -2.2881    0.0000 H   0  0  0  0  0  0  0  0  0  0  0  0
    3.8240   -3.1350    0.0000 H   0  0  0  0  0  0  0  0  0  0  0  0
    4.6709   -2.9081    0.0000 H   0  0  0  0  0  0  0  0  0  0  0  0
    4.8800   -3.2320    0.0000 H   0  0  0  0  0  0  0  0  0  0  0  0
    5.5000   -3.8520    0.0000 H   0  0  0  0  0  0  0  0  0  0  0  0
    6.1200   -3.2320    0.0000 H   0  0  0  0  0  0  0  0  0  0  0  0
    8.0369    1.1900    0.0000 H   0  0  0  0  0  0  0  0  0  0  0  0
    7.8100    2.0369    0.0000 H   0  0  0  0  0  0  0  0  0  0  0  0
    6.9631    1.8100    0.0000 H   0  0  0  0  0  0  0  0  0  0  0  0
    4.6200    2.3660    0.0000 H   0  0  0  0  0  0  0  0  0  0  0  0
    2.1900    0.9631    0.0000 H   0  0  0  0  0  0  0  0  0  0  0  0
    3.8100    3.7690    0.0000 H   0  0  0  0  0  0  0  0  0  0  0  0
    1.3800    2.3660    0.0000 H   0  0  0  0  0  0  0  0  0  0  0  0
    2.1900    3.7690    0.0000 H   0  0  0  0  0  0  0  0  0  0  0  0
  1  8  1  0  0  0  0
  1 17  1  0  0  0  0
  2 16  1  0  0  0  0
  2 19  1  0  0  0  0
  3 16  2  0  0  0  0
  4 17  2  0  0  0  0
  5  6  1  0  0  0  0
  5  7  1  0  0  0  0
  5 15  1  0  0  0  0
  6  9  1  0  0  0  0
  6 13  1  0  0  0  0
  6 14  1  0  0  0  0
  7 10  1  0  0  0  0
  7 11  1  0  0  0  0
  7 12  1  0  0  0  0
  8  9  1  0  0  0  0
  8 10  1  0  0  0  0
  8 16  1  0  0  0  0
  9 25  1  0  0  0  0
  9 26  1  0  0  0  0
 10 27  1  0  0  0  0
 10 28  1  0  0  0  0
 11 38  1  0  0  0  0
 11 39  1  0  0  0  0
 11 40  1  0  0  0  0
 12 35  1  0  0  0  0
 12 36  1  0  0  0  0
 12 37  1  0  0  0  0
 13 32  1  0  0  0  0
 13 33  1  0  0  0  0
 13 34  1  0  0  0  0
 14 29  1  0  0  0  0
 14 30  1  0  0  0  0
 14 31  1  0  0  0  0
 15 41  1  0  0  0  0
 15 42  1  0  0  0  0
 15 43  1  0  0  0  0
 17 18  1  0  0  0  0
 18 20  2  0  0  0  0
 18 21  1  0  0  0  0
 19 44  1  0  0  0  0
 19 45  1  0  0  0  0
 19 46  1  0  0  0  0
 20 22  1  0  0  0  0
 20 47  1  0  0  0  0
 21 23  2  0  0  0  0
 21 48  1  0  0  0  0
 22 24  2  0  0  0  0
 22 49  1  0  0  0  0
 23 24  1  0  0  0  0
 23 50  1  0  0  0  0
 24 51  1  0  0  0  0
M  END
> <PUBCHEM_COMPOUND_CID>
5282357

> <PUBCHEM_COMPOUND_CANONICALIZED>
1

> <PUBCHEM_CACTVS_COMPLEXITY>
474

> <PUBCHEM_CACTVS_HBOND_ACCEPTOR>
5

> <PUBCHEM_CACTVS_HBOND_DONOR>
0

> <PUBCHEM_CACTVS_ROTATABLE_BOND>
5

> <PUBCHEM_CACTVS_SUBSKEYS>
AAADceB6OAAAAAAAAAAAAAAAAAAAAAAAAAA8QAAAAAAAAAABAAAAHgAAAAAADMyBmAYyCIMABACIAiDSCAICAAAkAAAIiAFICMgJJjKAtRyGMQAmwAGKqYe8yGCOAAAAAAAAAAAAAAAAAAAAAAAAAAAAAA==

> <PUBCHEM_IUPAC_OPENEYE_NAME>
methyl 4-benzoyloxy-1,2,2,6,6-pentamethyl-piperidine-4-carboxylate

> <PUBCHEM_IUPAC_CAS_NAME>
4-benzoyloxy-1,2,2,6,6-pentamethyl-4-piperidinecarboxylic acid methyl ester

> <PUBCHEM_IUPAC_NAME>
methyl 4-benzoyloxy-1,2,2,6,6-pentamethylpiperidine-4-carboxylate

> <PUBCHEM_IUPAC_SYSTEMATIC_NAME>
methyl 1,2,2,6,6-pentamethyl-4-(phenylcarbonyloxy)piperidine-4-carboxylate

> <PUBCHEM_IUPAC_TRADITIONAL_NAME>
4-benzoyloxy-1,2,2,6,6-pentamethyl-isonipecotic acid methyl ester

> <PUBCHEM_IUPAC_INCHI>
InChI=1S/C19H27NO4/c1-17(2)12-19(16(22)23-6,13-18(3,4)20(17)5)24-15(21)14-10-8-7-9-11-14/h7-11H,12-13H2,1-6H3

> <PUBCHEM_IUPAC_INCHIKEY>
MJMZACWQGQGLBI-UHFFFAOYSA-N

> <PUBCHEM_XLOGP3_AA>
3.3

> <PUBCHEM_EXACT_MASS>
333.194008

> <PUBCHEM_MOLECULAR_FORMULA>
C19H27NO4

> <PUBCHEM_MOLECULAR_WEIGHT>
333.42198

> <PUBCHEM_OPENEYE_CAN_SMILES>
CC1(CC(CC(N1C)(C)C)(C(=O)OC)OC(=O)C2=CC=CC=C2)C

> <PUBCHEM_OPENEYE_ISO_SMILES>
CC1(CC(CC(N1C)(C)C)(C(=O)OC)OC(=O)C2=CC=CC=C2)C

> <PUBCHEM_CACTVS_TPSA>
55.8

> <PUBCHEM_MONOISOTOPIC_WEIGHT>
333.194008

> <PUBCHEM_TOTAL_CHARGE>
0

> <PUBCHEM_HEAVY_ATOM_COUNT>
24

> <PUBCHEM_ATOM_DEF_STEREO_COUNT>
0

> <PUBCHEM_ATOM_UDEF_STEREO_COUNT>
0

> <PUBCHEM_BOND_DEF_STEREO_COUNT>
0

> <PUBCHEM_BOND_UDEF_STEREO_COUNT>
0

> <PUBCHEM_ISOTOPIC_ATOM_COUNT>
0

> <PUBCHEM_COMPONENT_COUNT>
1

> <PUBCHEM_CACTVS_TAUTO_COUNT>
1

> <PUBCHEM_COORDINATE_TYPE>
1
5
255

> <PUBCHEM_BONDANNOTATIONS>
18  20  8
18  21  8
20  22  8
21  23  8
22  24  8
23  24  8

$$$$

