439208
  -OEChem-07051212443D

  6  5  0     1  0  0  0  0  0999 V2000
   -0.0971    0.0003   -0.1169 S   0  0  1  0  0  0  0  0  0  0  0  0
    1.6492   -0.0015    0.4933 S   0  0  0  0  0  0  0  0  0  0  0  0
   -1.0209   -0.0018    1.2245 O   0  0  0  0  0  0  0  0  0  0  0  0
   -0.2650    1.2676   -0.7983 O   0  5  0  0  0  0  0  0  0  0  0  0
   -0.2662   -1.2646   -0.8026 O   0  0  0  0  0  0  0  0  0  0  0  0
   -0.8904   -0.7719    1.8263 H   0  0  0  0  0  0  0  0  0  0  0  0
  1  2  2  0  0  0  0
  1  3  1  0  0  0  0
  1  4  1  0  0  0  0
  1  5  2  0  0  0  0
  3  6  1  0  0  0  0
M  CHG  1   4  -1
M  END
> <PUBCHEM_COMPOUND_CID>
439208

> <PUBCHEM_CONFORMER_RMSD>
0.4

> <PUBCHEM_CONFORMER_DIVERSEORDER>
1

> <PUBCHEM_MMFF94_PARTIAL_CHARGES>
6
1 1.36
2 -0.71
3 -0.68
4 -0.82
5 -0.82
6 0.5

> <PUBCHEM_EFFECTIVE_ROTOR_COUNT>
0

> <PUBCHEM_PHARMACOPHORE_FEATURES>
4
1 3 acceptor
1 4 acceptor
1 5 acceptor
5 1 2 3 4 5 anion

> <PUBCHEM_HEAVY_ATOM_COUNT>
5

> <PUBCHEM_ATOM_DEF_STEREO_COUNT>
0

> <PUBCHEM_ATOM_UDEF_STEREO_COUNT>
0

> <PUBCHEM_BOND_DEF_STEREO_COUNT>
0

> <PUBCHEM_BOND_UDEF_STEREO_COUNT>
0

> <PUBCHEM_ISOTOPIC_ATOM_COUNT>
0

> <PUBCHEM_COMPONENT_COUNT>
1

> <PUBCHEM_CACTVS_TAUTO_COUNT>
1

> <PUBCHEM_CONFORMER_ID>
0006B3A800000001

> <PUBCHEM_MMFF94_ENERGY>
1.6849

> <PUBCHEM_FEATURE_SELFOVERLAP>
20.352

> <PUBCHEM_SHAPE_FINGERPRINT>
139733 1 7252191165917422324
20096714 4 11703006014603167998
21015797 1 7540122809707911318
5943 1 9362906006685942880

> <PUBCHEM_SHAPE_MULTIPOLES>
92.99
1.49
1.1
1.09
0.98
0
0.31
0
0.2
-0.23
-0.37
-0.31
0
0

> <PUBCHEM_SHAPE_SELFOVERLAP>
151.648

> <PUBCHEM_SHAPE_VOLUME>
65.9

> <PUBCHEM_COORDINATE_TYPE>
2
5
10

$$$$

