441450
  -OEChem-07051212553D

 30 29  0     1  0  0  0  0  0999 V2000
    0.0094   -2.1602   -1.2948 O   0  0  0  0  0  0  0  0  0  0  0  0
   -1.4521    1.8855    0.5032 O   0  0  0  0  0  0  0  0  0  0  0  0
   -3.2370    1.7092   -0.8820 O   0  0  0  0  0  0  0  0  0  0  0  0
   -4.1048   -0.4321    0.6216 N   0  0  0  0  0  0  0  0  0  0  0  0
    2.2280    0.2969    0.0699 N   0  0  0  0  0  0  0  0  0  0  0  0
    3.9225    1.7197   -0.6219 N   0  0  0  0  0  0  0  0  0  0  0  0
    4.5513   -0.2290    0.3793 N   0  0  0  0  0  0  0  0  0  0  0  0
   -0.4636   -1.0960   -0.4641 C   0  0  1  0  0  0  0  0  0  0  0  0
   -1.9884   -1.2327   -0.3380 C   0  0  0  0  0  0  0  0  0  0  0  0
    0.3425   -1.0798    0.8460 C   0  0  0  0  0  0  0  0  0  0  0  0
   -2.6622   -0.1782    0.5480 C   0  0  1  0  0  0  0  0  0  0  0  0
    1.8606   -0.9684    0.7060 C   0  0  0  0  0  0  0  0  0  0  0  0
   -2.5015    1.2139   -0.0368 C   0  0  0  0  0  0  0  0  0  0  0  0
    3.4953    0.5514   -0.0363 C   0  0  0  0  0  0  0  0  0  0  0  0
   -0.2446   -0.1696   -1.0081 H   0  0  0  0  0  0  0  0  0  0  0  0
   -2.4216   -1.2099   -1.3480 H   0  0  0  0  0  0  0  0  0  0  0  0
   -2.2153   -2.2351    0.0508 H   0  0  0  0  0  0  0  0  0  0  0  0
    0.1313   -2.0096    1.3897 H   0  0  0  0  0  0  0  0  0  0  0  0
   -0.0022   -0.2553    1.4792 H   0  0  0  0  0  0  0  0  0  0  0  0
   -2.2717   -0.1982    1.5697 H   0  0  0  0  0  0  0  0  0  0  0  0
    2.2368   -1.8144    0.1186 H   0  0  0  0  0  0  0  0  0  0  0  0
    2.2968   -1.0282    1.7109 H   0  0  0  0  0  0  0  0  0  0  0  0
   -0.4527   -2.0966   -2.1480 H   0  0  0  0  0  0  0  0  0  0  0  0
   -4.5161   -0.3941   -0.3103 H   0  0  0  0  0  0  0  0  0  0  0  0
   -4.5582    0.2960    1.1722 H   0  0  0  0  0  0  0  0  0  0  0  0
   -1.3625    2.7872    0.1275 H   0  0  0  0  0  0  0  0  0  0  0  0
    3.2598    2.3992   -0.9792 H   0  0  0  0  0  0  0  0  0  0  0  0
    4.9087    1.9370   -0.7144 H   0  0  0  0  0  0  0  0  0  0  0  0
    5.5098    0.0740    0.2436 H   0  0  0  0  0  0  0  0  0  0  0  0
    4.4166   -1.1279    0.8282 H   0  0  0  0  0  0  0  0  0  0  0  0
  1  8  1  0  0  0  0
  1 23  1  0  0  0  0
  2 13  1  0  0  0  0
  2 26  1  0  0  0  0
  3 13  2  0  0  0  0
  4 11  1  0  0  0  0
  4 24  1  0  0  0  0
  4 25  1  0  0  0  0
  5 12  1  0  0  0  0
  5 14  2  0  0  0  0
  6 14  1  0  0  0  0
  6 27  1  0  0  0  0
  6 28  1  0  0  0  0
  7 14  1  0  0  0  0
  7 29  1  0  0  0  0
  7 30  1  0  0  0  0
  8  9  1  0  0  0  0
  8 10  1  0  0  0  0
  8 15  1  0  0  0  0
  9 11  1  0  0  0  0
  9 16  1  0  0  0  0
  9 17  1  0  0  0  0
 10 12  1  0  0  0  0
 10 18  1  0  0  0  0
 10 19  1  0  0  0  0
 11 13  1  0  0  0  0
 11 20  1  0  0  0  0
 12 21  1  0  0  0  0
 12 22  1  0  0  0  0
M  END
> <PUBCHEM_COMPOUND_CID>
441450

> <PUBCHEM_CONFORMER_RMSD>
0.6

> <PUBCHEM_CONFORMER_DIVERSEORDER>
1
165
22
116
44
162
96
132
78
32
26
159
92
143
166
29
153
149
6
156
128
3
51
57
112
4
9
102
69
89
131
163
23
164
103
90
126
68
45
86
99
15
72
67
70
10
124
14
25
16
140
18
59
24
121
146
85
151
152
53
161
56
105
5
19
154
83
108
76
46
150
95
42
97
81
144
20
147
138
114
55
107
157
122
31
111
113
75
142
40
79
88
123
63
28
13
82
119
61
8
129
62
93
158
37
148
136
54
135
134
74
27
84
106
21
41
34
12
48
115
110
118
139
100
64
145
43
104
60
130
133
11
120
127
65
2
50
52
73
155
109
80
167
91
38
125
141
35
77
98
47
36
49
71
33
58
30
39
94
101
117
7
137
17
66
160
87

> <PUBCHEM_MMFF94_PARTIAL_CHARGES>
20
1 -0.68
11 0.33
12 0.25
13 0.66
14 0.55
2 -0.65
23 0.4
24 0.36
25 0.36
26 0.5
27 0.4
28 0.4
29 0.4
3 -0.57
30 0.4
4 -0.99
5 -0.7
6 -0.85
7 -0.85
8 0.28

> <PUBCHEM_EFFECTIVE_ROTOR_COUNT>
6

> <PUBCHEM_PHARMACOPHORE_FEATURES>
10
1 1 acceptor
1 1 donor
1 2 acceptor
1 3 acceptor
1 4 cation
1 4 donor
1 6 donor
1 7 donor
3 2 3 13 anion
4 5 6 7 14 cation

> <PUBCHEM_HEAVY_ATOM_COUNT>
14

> <PUBCHEM_ATOM_DEF_STEREO_COUNT>
2

> <PUBCHEM_ATOM_UDEF_STEREO_COUNT>
0

> <PUBCHEM_BOND_DEF_STEREO_COUNT>
0

> <PUBCHEM_BOND_UDEF_STEREO_COUNT>
0

> <PUBCHEM_ISOTOPIC_ATOM_COUNT>
0

> <PUBCHEM_COMPONENT_COUNT>
1

> <PUBCHEM_CACTVS_TAUTO_COUNT>
2

> <PUBCHEM_CONFORMER_ID>
0006BC6A00000001

> <PUBCHEM_MMFF94_ENERGY>
25.6771

> <PUBCHEM_FEATURE_SELFOVERLAP>
50.859

> <PUBCHEM_SHAPE_FINGERPRINT>
13296909 8 16917352554259890871
13618510 140 18336550533053222420
13897977 13 18272929406094375677
14123260 362 17844793812182169652
15775835 57 18410572889966588752
17834072 32 18340488975341211637
17834072 8 18335701710878536806
18186145 218 17676487242149156546
19107657 162 10735882798166964216
201361 129 18059580234444740906
20645477 56 18114463336760967714
20671657 53 7493284460774197058
21061003 4 13326850049982541591
21524375 3 18408323289308326658
21652331 79 18342455898442592976
22485316 2 7493286634080175250
23402539 116 17968104118192984388
305870 269 18200879585894882906
4175511 318 17968095287619008454
4921388 177 15575007126105604029
6430166 295 18410860979762536938
81228 2 17319043553526793911

> <PUBCHEM_SHAPE_MULTIPOLES>
250.58
7.65
1.97
0.94
4.87
0.36
-0.09
3.01
0.29
-0.49
-0.48
-0.14
-0.23
-0.22

> <PUBCHEM_SHAPE_SELFOVERLAP>
477.035

> <PUBCHEM_SHAPE_VOLUME>
152

> <PUBCHEM_COORDINATE_TYPE>
2
5
10

$$$$

