72646
  -OEChem-07051212573D

 36 38  0     1  0  0  0  0  0999 V2000
    1.4494   -1.4351    0.0547 O   0  0  0  0  0  0  0  0  0  0  0  0
   -2.8758   -0.8332    1.5328 O   0  0  0  0  0  0  0  0  0  0  0  0
    3.6980   -1.8413    0.2985 O   0  0  0  0  0  0  0  0  0  0  0  0
   -0.6692   -0.5457   -0.7471 C   0  0  1  0  0  0  0  0  0  0  0  0
   -1.6907    0.6275   -0.8760 C   0  0  1  0  0  0  0  0  0  0  0  0
    0.5898   -0.2718    0.0991 C   0  0  2  0  0  0  0  0  0  0  0  0
    1.4637    0.8650   -0.4329 C   0  0  1  0  0  0  0  0  0  0  0  0
   -3.0752   -0.0526   -0.7511 C   0  0  0  0  0  0  0  0  0  0  0  0
   -1.5049   -1.7032   -0.2183 C   0  0  0  0  0  0  0  0  0  0  0  0
   -2.8725   -1.2427    0.1753 C   0  0  1  0  0  0  0  0  0  0  0  0
    1.0669    2.2458    0.0893 C   0  0  0  0  0  0  0  0  0  0  0  0
   -1.4410    1.8488    0.0008 C   0  0  0  0  0  0  0  0  0  0  0  0
   -0.2857    2.7258   -0.4273 C   0  0  0  0  0  0  0  0  0  0  0  0
    2.8112    0.3856    0.0006 C   0  0  0  0  0  0  0  0  0  0  0  0
    2.7598   -1.0803    0.1483 C   0  0  0  0  0  0  0  0  0  0  0  0
   -1.1571   -2.9968   -0.2544 C   0  0  0  0  0  0  0  0  0  0  0  0
   -2.1967    2.2395    1.0409 C   0  0  0  0  0  0  0  0  0  0  0  0
    3.9300    1.0649    0.2669 C   0  0  0  0  0  0  0  0  0  0  0  0
   -0.3517   -0.8302   -1.7616 H   0  0  0  0  0  0  0  0  0  0  0  0
   -1.6397    1.0018   -1.9096 H   0  0  0  0  0  0  0  0  0  0  0  0
    0.3164   -0.1227    1.1530 H   0  0  0  0  0  0  0  0  0  0  0  0
    1.4529    0.8674   -1.5316 H   0  0  0  0  0  0  0  0  0  0  0  0
   -3.8632    0.6242   -0.4082 H   0  0  0  0  0  0  0  0  0  0  0  0
   -3.3749   -0.4168   -1.7439 H   0  0  0  0  0  0  0  0  0  0  0  0
   -3.6538   -1.9950    0.0279 H   0  0  0  0  0  0  0  0  0  0  0  0
    1.8162    2.9843   -0.2224 H   0  0  0  0  0  0  0  0  0  0  0  0
    1.0677    2.2519    1.1875 H   0  0  0  0  0  0  0  0  0  0  0  0
   -0.2635    2.8035   -1.5217 H   0  0  0  0  0  0  0  0  0  0  0  0
   -0.4412    3.7531   -0.0714 H   0  0  0  0  0  0  0  0  0  0  0  0
   -1.8420   -3.7686    0.0809 H   0  0  0  0  0  0  0  0  0  0  0  0
   -0.1916   -3.3164   -0.6287 H   0  0  0  0  0  0  0  0  0  0  0  0
   -3.0640    1.6898    1.3814 H   0  0  0  0  0  0  0  0  0  0  0  0
   -1.9609    3.1439    1.5937 H   0  0  0  0  0  0  0  0  0  0  0  0
   -2.7073   -1.6206    2.0783 H   0  0  0  0  0  0  0  0  0  0  0  0
    3.9720    2.1436    0.1657 H   0  0  0  0  0  0  0  0  0  0  0  0
    4.8380    0.5658    0.5890 H   0  0  0  0  0  0  0  0  0  0  0  0
  1  6  1  0  0  0  0
  1 15  1  0  0  0  0
  2 10  1  0  0  0  0
  2 34  1  0  0  0  0
  3 15  2  0  0  0  0
  4  5  1  0  0  0  0
  4  6  1  0  0  0  0
  4  9  1  0  0  0  0
  4 19  1  0  0  0  0
  5  8  1  0  0  0  0
  5 12  1  0  0  0  0
  5 20  1  0  0  0  0
  6  7  1  0  0  0  0
  6 21  1  0  0  0  0
  7 11  1  0  0  0  0
  7 14  1  0  0  0  0
  7 22  1  0  0  0  0
  8 10  1  0  0  0  0
  8 23  1  0  0  0  0
  8 24  1  0  0  0  0
  9 10  1  0  0  0  0
  9 16  2  0  0  0  0
 10 25  1  0  0  0  0
 11 13  1  0  0  0  0
 11 26  1  0  0  0  0
 11 27  1  0  0  0  0
 12 13  1  0  0  0  0
 12 17  2  0  0  0  0
 13 28  1  0  0  0  0
 13 29  1  0  0  0  0
 14 15  1  0  0  0  0
 14 18  2  0  0  0  0
 16 30  1  0  0  0  0
 16 31  1  0  0  0  0
 17 32  1  0  0  0  0
 17 33  1  0  0  0  0
 18 35  1  0  0  0  0
 18 36  1  0  0  0  0
M  END
> <PUBCHEM_COMPOUND_CID>
72646

> <PUBCHEM_CONFORMER_RMSD>
0.6

> <PUBCHEM_CONFORMER_DIVERSEORDER>
1
2
4
3

> <PUBCHEM_MMFF94_PARTIAL_CHARGES>
23
1 -0.43
10 0.42
12 -0.28
13 0.14
14 -0.12
15 0.71
16 -0.3
17 -0.3
18 -0.3
2 -0.68
3 -0.57
30 0.15
31 0.15
32 0.15
33 0.15
34 0.4
35 0.15
36 0.15
4 0.14
5 0.14
6 0.28
7 0.14
9 -0.28

> <PUBCHEM_EFFECTIVE_ROTOR_COUNT>
1

> <PUBCHEM_PHARMACOPHORE_FEATURES>
6
1 2 acceptor
1 2 donor
1 3 acceptor
5 1 6 7 14 15 rings
5 4 5 8 9 10 rings
7 4 5 6 7 11 12 13 rings

> <PUBCHEM_HEAVY_ATOM_COUNT>
18

> <PUBCHEM_ATOM_DEF_STEREO_COUNT>
5

> <PUBCHEM_ATOM_UDEF_STEREO_COUNT>
0

> <PUBCHEM_BOND_DEF_STEREO_COUNT>
0

> <PUBCHEM_BOND_UDEF_STEREO_COUNT>
0

> <PUBCHEM_ISOTOPIC_ATOM_COUNT>
0

> <PUBCHEM_COMPONENT_COUNT>
1

> <PUBCHEM_CACTVS_TAUTO_COUNT>
1

> <PUBCHEM_CONFORMER_ID>
00011BC600000001

> <PUBCHEM_MMFF94_ENERGY>
47.8911

> <PUBCHEM_FEATURE_SELFOVERLAP>
30.499

> <PUBCHEM_SHAPE_FINGERPRINT>
10967382 1 18339084765784803790
11086676 242 18267845238489268161
11132069 177 18266468611550828240
12251169 10 18264199210776625595
12382932 28 18264490581120505434
12507560 14 18262234418211125159
12553582 1 18338796685185399598
13027679 85 18192995911630243973
13140716 1 17905326230315543520
14081887 123 18117015311638660072
14223421 5 18410581673591641680
15001771 113 18266740186390668213
15076042 46 18408887364521671287
15196674 1 18410860983614503077
15309172 13 18193835079156486681
15375462 189 18199183979855578203
15442244 35 18338239387778204818
16945 1 18337388227785464917
19591789 44 16967445474771235558
19868273 325 18340213972673968127
20510252 161 18334016107375095673
20525323 117 18261114088254106877
21267235 1 18411414012409949790
21501502 16 18336830891813241732
21524375 3 17826520160487721877
21731228 192 18118397590822619689
22721475 48 18410855412888900332
22802520 49 17970615501519313606
23184049 59 18337097995934992067
2334 1 18410293652768046604
23388829 49 18266460901810368332
23402539 116 18261409865756808695
23419403 2 15957048890742947381
23559900 14 18337121150414674208
2748010 2 18338516468459916604
3312278 4 18339928091245441028
34934 24 18338809900810175966
352729 6 18122065574492689340
427121 178 16447804004868459593
7364860 26 17832710067079975325
81228 2 18410580582231851881
8809292 202 18268711799849453494
90525 40 18335702796772059174
9709674 26 18262522606052908150

> <PUBCHEM_SHAPE_MULTIPOLES>
352.82
5.47
3.08
0.91
3.5
0.19
0.13
-1.21
0.8
-0.64
0.15
-0.59
0.12
-0.23

> <PUBCHEM_SHAPE_SELFOVERLAP>
757.373

> <PUBCHEM_SHAPE_VOLUME>
195.8

> <PUBCHEM_COORDINATE_TYPE>
2
5
10

$$$$

