12304433
  -OEChem-07051213093D

 74 79  0     1  0  0  0  0  0999 V2000
    3.3269   -1.0944    0.3300 O   0  0  0  0  0  0  0  0  0  0  0  0
    4.8192    0.0907   -1.1149 O   0  0  0  0  0  0  0  0  0  0  0  0
   -8.1752   -0.3104   -0.2755 O   0  0  0  0  0  0  0  0  0  0  0  0
    0.4941    0.8107    0.1620 C   0  0  1  0  0  0  0  0  0  0  0  0
   -0.1617   -0.5259   -0.2678 C   0  0  2  0  0  0  0  0  0  0  0  0
    1.9035    0.6462   -0.4812 C   0  0  2  0  0  0  0  0  0  0  0  0
   -1.5851   -0.6985    0.2716 C   0  0  1  0  0  0  0  0  0  0  0  0
   -2.4640    0.4740   -0.2765 C   0  0  1  0  0  0  0  0  0  0  0  0
    2.1645   -0.8755   -0.4630 C   0  0  2  0  0  0  0  0  0  0  0  0
   -3.9628    0.3502    0.1877 C   0  0  2  0  0  0  0  0  0  0  0  0
    0.9075   -1.5554    0.0807 C   0  0  0  0  0  0  0  0  0  0  0  0
   -0.3442    1.9479   -0.4423 C   0  0  0  0  0  0  0  0  0  0  0  0
   -1.8211    1.8621   -0.0119 C   0  0  0  0  0  0  0  0  0  0  0  0
    3.1343    1.2348    0.2178 C   0  0  1  0  0  0  0  0  0  0  0  0
   -4.4794   -1.0511   -0.2741 C   0  0  1  0  0  0  0  0  0  0  0  0
   -2.1739   -2.0625   -0.1160 C   0  0  0  0  0  0  0  0  0  0  0  0
    4.1538    0.0791    0.1567 C   0  0  1  0  0  0  0  0  0  0  0  0
   -3.6392   -2.2013    0.2915 C   0  0  0  0  0  0  0  0  0  0  0  0
    0.5611    0.9914    1.6999 C   0  0  0  0  0  0  0  0  0  0  0  0
   -4.8427    1.4294   -0.5053 C   0  0  0  0  0  0  0  0  0  0  0  0
   -5.9732   -1.2578    0.0060 C   0  0  0  0  0  0  0  0  0  0  0  0
   -4.0806    0.5364    1.7224 C   0  0  0  0  0  0  0  0  0  0  0  0
    3.5896    2.5456   -0.4120 C   0  0  0  0  0  0  0  0  0  0  0  0
   -6.3431    1.2333   -0.2776 C   0  0  0  0  0  0  0  0  0  0  0  0
    5.1754    0.1571    1.2976 C   0  0  0  0  0  0  0  0  0  0  0  0
   -6.8117   -0.1670   -0.6591 C   0  0  2  0  0  0  0  0  0  0  0  0
    6.2499   -0.9208    1.1609 C   0  0  0  0  0  0  0  0  0  0  0  0
    5.7411   -0.9846   -1.2873 C   0  0  0  0  0  0  0  0  0  0  0  0
    6.8591   -0.9436   -0.2446 C   0  0  1  0  0  0  0  0  0  0  0  0
    7.7777    0.2599   -0.4757 C   0  0  0  0  0  0  0  0  0  0  0  0
   -0.2451   -0.5325   -1.3683 H   0  0  0  0  0  0  0  0  0  0  0  0
    1.8620    0.9662   -1.5315 H   0  0  0  0  0  0  0  0  0  0  0  0
   -1.5586   -0.6643    1.3647 H   0  0  0  0  0  0  0  0  0  0  0  0
   -2.4719    0.3664   -1.3732 H   0  0  0  0  0  0  0  0  0  0  0  0
    2.3713   -1.2321   -1.4805 H   0  0  0  0  0  0  0  0  0  0  0  0
    0.9758   -1.7532    1.1553 H   0  0  0  0  0  0  0  0  0  0  0  0
    0.7359   -2.5145   -0.4184 H   0  0  0  0  0  0  0  0  0  0  0  0
   -0.3006    1.9067   -1.5385 H   0  0  0  0  0  0  0  0  0  0  0  0
    0.0666    2.9230   -0.1543 H   0  0  0  0  0  0  0  0  0  0  0  0
   -1.9005    2.1256    1.0469 H   0  0  0  0  0  0  0  0  0  0  0  0
   -2.3693    2.6354   -0.5617 H   0  0  0  0  0  0  0  0  0  0  0  0
    2.9259    1.4341    1.2717 H   0  0  0  0  0  0  0  0  0  0  0  0
   -4.3673   -1.0960   -1.3690 H   0  0  0  0  0  0  0  0  0  0  0  0
   -1.5993   -2.8682    0.3559 H   0  0  0  0  0  0  0  0  0  0  0  0
   -2.0888   -2.2087   -1.2005 H   0  0  0  0  0  0  0  0  0  0  0  0
   -4.0184   -3.1591   -0.0856 H   0  0  0  0  0  0  0  0  0  0  0  0
   -3.7223   -2.2445    1.3835 H   0  0  0  0  0  0  0  0  0  0  0  0
    0.9497    1.9839    1.9559 H   0  0  0  0  0  0  0  0  0  0  0  0
   -0.4158    0.9182    2.1843 H   0  0  0  0  0  0  0  0  0  0  0  0
    1.2043    0.2467    2.1794 H   0  0  0  0  0  0  0  0  0  0  0  0
   -4.6513    1.4169   -1.5864 H   0  0  0  0  0  0  0  0  0  0  0  0
   -4.5732    2.4320   -0.1531 H   0  0  0  0  0  0  0  0  0  0  0  0
   -6.2956   -2.2344   -0.3781 H   0  0  0  0  0  0  0  0  0  0  0  0
   -6.1784   -1.2949    1.0824 H   0  0  0  0  0  0  0  0  0  0  0  0
   -3.8095    1.5547    2.0202 H   0  0  0  0  0  0  0  0  0  0  0  0
   -5.0987    0.3706    2.0853 H   0  0  0  0  0  0  0  0  0  0  0  0
   -3.4379   -0.1476    2.2818 H   0  0  0  0  0  0  0  0  0  0  0  0
    3.7962    2.4365   -1.4817 H   0  0  0  0  0  0  0  0  0  0  0  0
    2.8139    3.3106   -0.3008 H   0  0  0  0  0  0  0  0  0  0  0  0
    4.4985    2.9166    0.0716 H   0  0  0  0  0  0  0  0  0  0  0  0
   -6.6031    1.4437    0.7670 H   0  0  0  0  0  0  0  0  0  0  0  0
   -6.9026    1.9745   -0.8623 H   0  0  0  0  0  0  0  0  0  0  0  0
    4.6783    0.0362    2.2675 H   0  0  0  0  0  0  0  0  0  0  0  0
    5.6632    1.1385    1.2979 H   0  0  0  0  0  0  0  0  0  0  0  0
   -6.7612   -0.2776   -1.7491 H   0  0  0  0  0  0  0  0  0  0  0  0
    7.0281   -0.7706    1.9183 H   0  0  0  0  0  0  0  0  0  0  0  0
    5.7987   -1.8998    1.3676 H   0  0  0  0  0  0  0  0  0  0  0  0
    6.1574   -0.9044   -2.2972 H   0  0  0  0  0  0  0  0  0  0  0  0
    5.1998   -1.9370   -1.2417 H   0  0  0  0  0  0  0  0  0  0  0  0
    7.4700   -1.8490   -0.3473 H   0  0  0  0  0  0  0  0  0  0  0  0
   -8.4606   -1.2029   -0.5352 H   0  0  0  0  0  0  0  0  0  0  0  0
    8.2603    0.1890   -1.4564 H   0  0  0  0  0  0  0  0  0  0  0  0
    7.2347    1.2096   -0.4425 H   0  0  0  0  0  0  0  0  0  0  0  0
    8.5682    0.2944    0.2814 H   0  0  0  0  0  0  0  0  0  0  0  0
  1  9  1  0  0  0  0
  1 17  1  0  0  0  0
  2 17  1  0  0  0  0
  2 28  1  0  0  0  0
  3 26  1  0  0  0  0
  3 71  1  0  0  0  0
  4  5  1  0  0  0  0
  4  6  1  0  0  0  0
  4 12  1  0  0  0  0
  4 19  1  0  0  0  0
  5  7  1  0  0  0  0
  5 11  1  0  0  0  0
  5 31  1  0  0  0  0
  6  9  1  0  0  0  0
  6 14  1  0  0  0  0
  6 32  1  0  0  0  0
  7  8  1  0  0  0  0
  7 16  1  0  0  0  0
  7 33  1  0  0  0  0
  8 10  1  0  0  0  0
  8 13  1  0  0  0  0
  8 34  1  0  0  0  0
  9 11  1  0  0  0  0
  9 35  1  0  0  0  0
 10 15  1  0  0  0  0
 10 20  1  0  0  0  0
 10 22  1  0  0  0  0
 11 36  1  0  0  0  0
 11 37  1  0  0  0  0
 12 13  1  0  0  0  0
 12 38  1  0  0  0  0
 12 39  1  0  0  0  0
 13 40  1  0  0  0  0
 13 41  1  0  0  0  0
 14 17  1  0  0  0  0
 14 23  1  0  0  0  0
 14 42  1  0  0  0  0
 15 18  1  0  0  0  0
 15 21  1  0  0  0  0
 15 43  1  0  0  0  0
 16 18  1  0  0  0  0
 16 44  1  0  0  0  0
 16 45  1  0  0  0  0
 17 25  1  0  0  0  0
 18 46  1  0  0  0  0
 18 47  1  0  0  0  0
 19 48  1  0  0  0  0
 19 49  1  0  0  0  0
 19 50  1  0  0  0  0
 20 24  1  0  0  0  0
 20 51  1  0  0  0  0
 20 52  1  0  0  0  0
 21 26  1  0  0  0  0
 21 53  1  0  0  0  0
 21 54  1  0  0  0  0
 22 55  1  0  0  0  0
 22 56  1  0  0  0  0
 22 57  1  0  0  0  0
 23 58  1  0  0  0  0
 23 59  1  0  0  0  0
 23 60  1  0  0  0  0
 24 26  1  0  0  0  0
 24 61  1  0  0  0  0
 24 62  1  0  0  0  0
 25 27  1  0  0  0  0
 25 63  1  0  0  0  0
 25 64  1  0  0  0  0
 26 65  1  0  0  0  0
 27 29  1  0  0  0  0
 27 66  1  0  0  0  0
 27 67  1  0  0  0  0
 28 29  1  0  0  0  0
 28 68  1  0  0  0  0
 28 69  1  0  0  0  0
 29 30  1  0  0  0  0
 29 70  1  0  0  0  0
 30 72  1  0  0  0  0
 30 73  1  0  0  0  0
 30 74  1  0  0  0  0
M  END
> <PUBCHEM_COMPOUND_CID>
12304433

> <PUBCHEM_CONFORMER_RMSD>
0.8

> <PUBCHEM_CONFORMER_DIVERSEORDER>
1

> <PUBCHEM_MMFF94_PARTIAL_CHARGES>
8
1 -0.56
17 0.56
2 -0.56
26 0.28
28 0.28
3 -0.68
71 0.4
9 0.28

> <PUBCHEM_EFFECTIVE_ROTOR_COUNT>
3.2

> <PUBCHEM_PHARMACOPHORE_FEATURES>
10
1 1 acceptor
1 2 acceptor
1 3 acceptor
1 3 donor
5 1 6 9 14 17 rings
5 4 5 6 9 11 rings
6 10 15 20 21 24 26 rings
6 2 17 25 27 28 29 rings
6 4 5 7 8 12 13 rings
6 7 8 10 15 16 18 rings

> <PUBCHEM_HEAVY_ATOM_COUNT>
30

> <PUBCHEM_ATOM_DEF_STEREO_COUNT>
12

> <PUBCHEM_ATOM_UDEF_STEREO_COUNT>
0

> <PUBCHEM_BOND_DEF_STEREO_COUNT>
0

> <PUBCHEM_BOND_UDEF_STEREO_COUNT>
0

> <PUBCHEM_ISOTOPIC_ATOM_COUNT>
0

> <PUBCHEM_COMPONENT_COUNT>
1

> <PUBCHEM_CACTVS_TAUTO_COUNT>
1

> <PUBCHEM_CONFORMER_ID>
00BBC03100000001

> <PUBCHEM_MMFF94_ENERGY>
110.1098

> <PUBCHEM_FEATURE_SELFOVERLAP>
51.151

> <PUBCHEM_SHAPE_FINGERPRINT>
10 15 18114475483339853448
10050765 1 18195809552915733167
10299344 5 17918275359302860122
11045977 3 18113904836087723136
11181472 205 15553621745631635093
11315181 36 18040432183744023345
11524674 6 17458067053730970231
11719270 70 18260831514219949534
11963148 33 18412270523241902942
12011746 2 18408887339332090191
12107698 1 17846781823219988428
12166972 35 18131349683137222829
12236239 1 17561363989058155598
12516196 113 17385725798345394585
12596602 18 5256407188593553087
12788726 201 18129664226490968424
12838862 33 18339098046314228415
13288520 33 18408603656726332607
13402501 40 18335139799911529607
13533116 47 16660639713710984166
13782708 43 18041842788396107847
13862211 1 18412265038329937928
14117953 113 18408040723330405919
14251764 18 18411983563363783290
14294032 229 17986107641513958069
14856354 85 15482663585780436419
15131766 46 16485266328372934646
15183329 4 18343021098879450939
15196674 1 18339642239586441781
15419008 47 17676494959741703848
15461852 350 17312824844634628383
15788980 27 18202562873692909425
15849732 13 17458067062093609317
16087824 20 18341051939155812477
17349148 13 18060695096359180072
17857418 61 18342459248838590506
18681886 176 18335708212762456856
19611394 137 17845077486693696291
20028762 73 18333450937129889094
21033648 29 17241343464026310474
21130935 74 18040432243847906150
21150785 3 16343984697731332342
21267235 1 18411976941057164179
23198884 109 15339121256173641541
23402539 116 18343305868117105149
23522609 53 18055604383398889884
23559900 14 18408890603006562560
23569917 315 18260823796085156287
23569943 247 17608636542861618166
23576562 1 18057872559821622148
249057 3 18342739598106569373
3004659 81 18343585127112561844
335352 9 18411700971832752151
3383291 50 18187646882309487111
3411729 13 18193846947349066352
34797466 226 15357695253892504921
350125 39 18413109463867069324
3545911 37 18409730677023767903
3633792 109 18261958544177535061
4017518 198 17530960285486405158
4073 2 17845650331613502786
4325135 7 18272369780224024206
5104073 3 18337668607556052288
559249 180 18413110563320551235
7226269 152 18408602586646733385

> <PUBCHEM_SHAPE_MULTIPOLES>
599.78
19.7
2.01
1.09
1.56
0.23
0.33
-2.95
-2.26
-0.62
-0.12
0.63
0.09
0.05

> <PUBCHEM_SHAPE_SELFOVERLAP>
1286.717

> <PUBCHEM_SHAPE_VOLUME>
330.9

> <PUBCHEM_COORDINATE_TYPE>
2
5
10

$$$$

