92299
  -OEChem-07051213133D

 40 40  0     0  0  0  0  0  0999 V2000
    2.1571   -0.7030   -1.5353 O   0  0  0  0  0  0  0  0  0  0  0  0
    0.6535   -0.5759    0.1917 N   0  0  0  0  0  0  0  0  0  0  0  0
    2.6893    0.9971    0.0810 C   0  0  0  0  0  0  0  0  0  0  0  0
    0.1428   -1.9441    0.1313 C   0  0  0  0  0  0  0  0  0  0  0  0
    1.8111   -0.1629   -0.4735 C   0  0  0  0  0  0  0  0  0  0  0  0
   -0.1568    0.3183    1.0105 C   0  0  0  0  0  0  0  0  0  0  0  0
    2.5499    0.9966    1.6284 C   0  0  0  0  0  0  0  0  0  0  0  0
    4.1751    0.7530   -0.2213 C   0  0  0  0  0  0  0  0  0  0  0  0
    2.2206    2.3831   -0.3885 C   0  0  0  0  0  0  0  0  0  0  0  0
    1.1604   -2.9153    0.7153 C   0  0  0  0  0  0  0  0  0  0  0  0
   -0.2178   -2.3175   -1.3012 C   0  0  0  0  0  0  0  0  0  0  0  0
   -1.5642    0.4275    0.4991 C   0  0  0  0  0  0  0  0  0  0  0  0
   -1.8837    1.4099   -0.4310 C   0  0  0  0  0  0  0  0  0  0  0  0
   -2.5341   -0.4547    0.9610 C   0  0  0  0  0  0  0  0  0  0  0  0
   -3.1913    1.5114   -0.9058 C   0  0  0  0  0  0  0  0  0  0  0  0
   -3.8417   -0.3532    0.4858 C   0  0  0  0  0  0  0  0  0  0  0  0
   -4.1703    0.6298   -0.4476 C   0  0  0  0  0  0  0  0  0  0  0  0
   -0.7371   -2.0715    0.7546 H   0  0  0  0  0  0  0  0  0  0  0  0
    0.2121    1.3351    1.0293 H   0  0  0  0  0  0  0  0  0  0  0  0
   -0.1457   -0.0503    2.0439 H   0  0  0  0  0  0  0  0  0  0  0  0
    1.8053    1.6891    2.0284 H   0  0  0  0  0  0  0  0  0  0  0  0
    2.3882   -0.0044    2.0431 H   0  0  0  0  0  0  0  0  0  0  0  0
    3.4851    1.3499    2.0854 H   0  0  0  0  0  0  0  0  0  0  0  0
    4.8119    1.5305    0.2150 H   0  0  0  0  0  0  0  0  0  0  0  0
    4.3564    0.7516   -1.3021 H   0  0  0  0  0  0  0  0  0  0  0  0
    4.5039   -0.2184    0.1655 H   0  0  0  0  0  0  0  0  0  0  0  0
    1.1613    2.5789   -0.2223 H   0  0  0  0  0  0  0  0  0  0  0  0
    2.3817    2.4794   -1.4689 H   0  0  0  0  0  0  0  0  0  0  0  0
    2.7923    3.1807    0.0996 H   0  0  0  0  0  0  0  0  0  0  0  0
    0.7641   -3.9364    0.7208 H   0  0  0  0  0  0  0  0  0  0  0  0
    2.0950   -2.9245    0.1442 H   0  0  0  0  0  0  0  0  0  0  0  0
    1.4083   -2.6445    1.7477 H   0  0  0  0  0  0  0  0  0  0  0  0
   -0.8315   -1.5455   -1.7769 H   0  0  0  0  0  0  0  0  0  0  0  0
   -0.7959   -3.2487   -1.3080 H   0  0  0  0  0  0  0  0  0  0  0  0
    0.6581   -2.4943   -1.9318 H   0  0  0  0  0  0  0  0  0  0  0  0
   -1.1320    2.1007   -0.8008 H   0  0  0  0  0  0  0  0  0  0  0  0
   -2.3204   -1.1927    1.7285 H   0  0  0  0  0  0  0  0  0  0  0  0
   -3.4473    2.2765   -1.6330 H   0  0  0  0  0  0  0  0  0  0  0  0
   -4.6070   -1.0312    0.8522 H   0  0  0  0  0  0  0  0  0  0  0  0
   -5.1890    0.7106   -0.8154 H   0  0  0  0  0  0  0  0  0  0  0  0
  1  5  2  0  0  0  0
  2  4  1  0  0  0  0
  2  5  1  0  0  0  0
  2  6  1  0  0  0  0
  3  5  1  0  0  0  0
  3  7  1  0  0  0  0
  3  8  1  0  0  0  0
  3  9  1  0  0  0  0
  4 10  1  0  0  0  0
  4 11  1  0  0  0  0
  4 18  1  0  0  0  0
  6 12  1  0  0  0  0
  6 19  1  0  0  0  0
  6 20  1  0  0  0  0
  7 21  1  0  0  0  0
  7 22  1  0  0  0  0
  7 23  1  0  0  0  0
  8 24  1  0  0  0  0
  8 25  1  0  0  0  0
  8 26  1  0  0  0  0
  9 27  1  0  0  0  0
  9 28  1  0  0  0  0
  9 29  1  0  0  0  0
 10 30  1  0  0  0  0
 10 31  1  0  0  0  0
 10 32  1  0  0  0  0
 11 33  1  0  0  0  0
 11 34  1  0  0  0  0
 11 35  1  0  0  0  0
 12 13  2  0  0  0  0
 12 14  1  0  0  0  0
 13 15  1  0  0  0  0
 13 36  1  0  0  0  0
 14 16  2  0  0  0  0
 14 37  1  0  0  0  0
 15 17  2  0  0  0  0
 15 38  1  0  0  0  0
 16 17  1  0  0  0  0
 16 39  1  0  0  0  0
 17 40  1  0  0  0  0
M  END
> <PUBCHEM_COMPOUND_CID>
92299

> <PUBCHEM_CONFORMER_RMSD>
0.6

> <PUBCHEM_CONFORMER_DIVERSEORDER>
3
10
6
13
4
8
9
1
11
2
12
5
7

> <PUBCHEM_MMFF94_PARTIAL_CHARGES>
17
1 -0.57
12 -0.14
13 -0.15
14 -0.15
15 -0.15
16 -0.15
17 -0.15
2 -0.66
3 0.06
36 0.15
37 0.15
38 0.15
39 0.15
4 0.3
40 0.15
5 0.57
6 0.44

> <PUBCHEM_EFFECTIVE_ROTOR_COUNT>
5

> <PUBCHEM_PHARMACOPHORE_FEATURES>
4
1 1 acceptor
3 4 10 11 hydrophobe
4 3 7 8 9 hydrophobe
6 12 13 14 15 16 17 rings

> <PUBCHEM_HEAVY_ATOM_COUNT>
17

> <PUBCHEM_ATOM_DEF_STEREO_COUNT>
0

> <PUBCHEM_ATOM_UDEF_STEREO_COUNT>
0

> <PUBCHEM_BOND_DEF_STEREO_COUNT>
0

> <PUBCHEM_BOND_UDEF_STEREO_COUNT>
0

> <PUBCHEM_ISOTOPIC_ATOM_COUNT>
0

> <PUBCHEM_COMPONENT_COUNT>
1

> <PUBCHEM_CACTVS_TAUTO_COUNT>
1

> <PUBCHEM_CONFORMER_ID>
0001688B00000003

> <PUBCHEM_MMFF94_ENERGY>
68.147

> <PUBCHEM_FEATURE_SELFOVERLAP>
20.297

> <PUBCHEM_SHAPE_FINGERPRINT>
10608611 8 18200597024570806725
107287 299 18335135423329188515
10871710 139 16469506834833886948
10922049 32 18411415094636011854
11086676 242 11959740364870695100
12138202 97 18115302263927388374
121448 382 18044682826650844767
12592029 89 18413670218511811123
13134695 92 17910691078260178142
13583140 156 17131007372841008393
15219456 202 18271524307775429043
15309172 13 18338226081610819441
15775835 57 18408886221918010599
15852999 172 18041280968029063306
16945 1 18272643546035053795
18186145 218 18188196667522663437
19422 9 16298378098178316181
20645476 183 18129945559654214546
20645477 70 18188775079906989951
20671657 53 17903915900436909807
21501502 16 18193276532061391673
21524375 3 18335979779297341450
21730867 7 18411697724832175203
21947302 44 18198908191657998025
22854114 111 18411419548385151083
23227448 37 17908135486967665356
23402539 116 18335146358273888580
23419403 2 16971443226240639328
23557571 272 17418081140665680123
23558518 356 17767128605778907346
23559900 14 18200317743968774603
25 1 18113329808633537064
257057 1 17403744839688571882
2748010 2 18264190444553247635
305870 269 18343869930699482986
3060560 45 18411141350542425036
3323516 105 17676204628752800807
495365 180 18118705428667399589
6333272 397 18341329994208952721
633830 44 17821723918842090433
69090 78 18260829246181246182
7364860 26 18268996568744593355
81228 2 17614857209740262594
81539 233 18272653471488456698
83771 10 9079118855927816500

> <PUBCHEM_SHAPE_MULTIPOLES>
339
6.63
2.54
1.25
2.4
1.48
0.02
-3.32
-0.3
-0.99
-0.33
-0.28
0.15
0.48

> <PUBCHEM_SHAPE_SELFOVERLAP>
684.402

> <PUBCHEM_SHAPE_VOLUME>
199.2

> <PUBCHEM_COORDINATE_TYPE>
2
5
10

$$$$

