196445
  -OEChem-07051213103D

 38 39  0     1  0  0  0  0  0999 V2000
   -1.2779    1.0219    1.3751 S   0  0  0  0  0  0  0  0  0  0  0  0
    2.5981   -1.6695   -1.6267 O   0  0  0  0  0  0  0  0  0  0  0  0
    0.7743   -2.9497    0.8716 O   0  0  0  0  0  0  0  0  0  0  0  0
   -1.1519   -1.9314    0.1767 O   0  0  0  0  0  0  0  0  0  0  0  0
   -4.7641    0.0052   -1.8088 O   0  0  0  0  0  0  0  0  0  0  0  0
    2.1282   -0.6528    0.4508 N   0  0  0  0  0  0  0  0  0  0  0  0
   -4.2404    1.0130    0.2244 N   0  0  0  0  0  0  0  0  0  0  0  0
    2.6865    0.6923    0.7104 C   0  0  1  0  0  0  0  0  0  0  0  0
    3.3964    0.5600   -0.6643 C   0  0  2  0  0  0  0  0  0  0  0  0
    1.4567    1.5720    0.9617 C   0  0  0  0  0  0  0  0  0  0  0  0
    2.7055   -0.8174   -0.7736 C   0  0  0  0  0  0  0  0  0  0  0  0
    4.9054    0.5092   -0.6719 C   0  0  0  0  0  0  0  0  0  0  0  0
    0.7847   -0.6556    0.6986 C   0  0  0  0  0  0  0  0  0  0  0  0
    0.3360    0.5648    1.0173 C   0  0  0  0  0  0  0  0  0  0  0  0
    5.5234    1.8936   -0.5287 C   0  0  0  0  0  0  0  0  0  0  0  0
    0.0111   -1.8833    0.5452 C   0  0  0  0  0  0  0  0  0  0  0  0
   -1.8635    1.4529   -0.2803 C   0  0  0  0  0  0  0  0  0  0  0  0
   -3.2931    1.9767   -0.2670 C   0  0  0  0  0  0  0  0  0  0  0  0
   -4.8995    0.1039   -0.5920 C   0  0  0  0  0  0  0  0  0  0  0  0
   -5.8158   -0.8059    0.1815 C   0  0  0  0  0  0  0  0  0  0  0  0
    3.3649    0.6698    1.5739 H   0  0  0  0  0  0  0  0  0  0  0  0
    3.0082    1.2528   -1.4236 H   0  0  0  0  0  0  0  0  0  0  0  0
    1.3083    2.2949    0.1529 H   0  0  0  0  0  0  0  0  0  0  0  0
    1.5531    2.1081    1.9118 H   0  0  0  0  0  0  0  0  0  0  0  0
    5.2531    0.0751   -1.6172 H   0  0  0  0  0  0  0  0  0  0  0  0
    5.2805   -0.1393    0.1288 H   0  0  0  0  0  0  0  0  0  0  0  0
    5.2008    2.5515   -1.3421 H   0  0  0  0  0  0  0  0  0  0  0  0
    5.2256    2.3587    0.4165 H   0  0  0  0  0  0  0  0  0  0  0  0
    6.6154    1.8287   -0.5511 H   0  0  0  0  0  0  0  0  0  0  0  0
   -1.7970    0.5694   -0.9244 H   0  0  0  0  0  0  0  0  0  0  0  0
   -1.2072    2.2223   -0.7015 H   0  0  0  0  0  0  0  0  0  0  0  0
   -3.5811    2.2643   -1.2846 H   0  0  0  0  0  0  0  0  0  0  0  0
   -3.3764    2.8705    0.3615 H   0  0  0  0  0  0  0  0  0  0  0  0
    0.2847   -3.7948    0.7794 H   0  0  0  0  0  0  0  0  0  0  0  0
   -4.4158    0.9932    1.2249 H   0  0  0  0  0  0  0  0  0  0  0  0
   -6.4857   -1.3266   -0.5083 H   0  0  0  0  0  0  0  0  0  0  0  0
   -5.2197   -1.5406    0.7296 H   0  0  0  0  0  0  0  0  0  0  0  0
   -6.4205   -0.2281    0.8864 H   0  0  0  0  0  0  0  0  0  0  0  0
  1 14  1  0  0  0  0
  1 17  1  0  0  0  0
  2 11  2  0  0  0  0
  3 16  1  0  0  0  0
  3 34  1  0  0  0  0
  4 16  2  0  0  0  0
  5 19  2  0  0  0  0
  6  8  1  0  0  0  0
  6 11  1  0  0  0  0
  6 13  1  0  0  0  0
  7 18  1  0  0  0  0
  7 19  1  0  0  0  0
  7 35  1  0  0  0  0
  8  9  1  0  0  0  0
  8 10  1  0  0  0  0
  8 21  1  0  0  0  0
  9 11  1  0  0  0  0
  9 12  1  0  0  0  0
  9 22  1  0  0  0  0
 10 14  1  0  0  0  0
 10 23  1  0  0  0  0
 10 24  1  0  0  0  0
 12 15  1  0  0  0  0
 12 25  1  0  0  0  0
 12 26  1  0  0  0  0
 13 14  2  0  0  0  0
 13 16  1  0  0  0  0
 15 27  1  0  0  0  0
 15 28  1  0  0  0  0
 15 29  1  0  0  0  0
 17 18  1  0  0  0  0
 17 30  1  0  0  0  0
 17 31  1  0  0  0  0
 18 32  1  0  0  0  0
 18 33  1  0  0  0  0
 19 20  1  0  0  0  0
 20 36  1  0  0  0  0
 20 37  1  0  0  0  0
 20 38  1  0  0  0  0
M  END
> <PUBCHEM_COMPOUND_CID>
196445

> <PUBCHEM_CONFORMER_RMSD>
0.8

> <PUBCHEM_CONFORMER_DIVERSEORDER>
1
61
79
50
45
4
38
65
55
71
78
32
28
69
27
26
73
80
60
51
76
29
44
37
13
35
48
20
83
5
59
70
36
17
21
77
49
62
18
85
54
30
72
67
25
68
11
23
63
74
2
39
47
66
22
7
31
8
52
84
86
53
42
33
43
81
15
46
82
6
56
24
57
16
12
19
75
10
3
9
64
58
40
34
41
14

> <PUBCHEM_MMFF94_PARTIAL_CHARGES>
20
1 -0.33
10 0.14
11 0.58
13 0.12
14 -0.04
16 0.71
17 0.23
18 0.3
19 0.57
2 -0.57
20 0.06
3 -0.65
34 0.5
35 0.37
4 -0.57
5 -0.57
6 -0.39
7 -0.73
8 0.22
9 0.05

> <PUBCHEM_EFFECTIVE_ROTOR_COUNT>
7.4

> <PUBCHEM_PHARMACOPHORE_FEATURES>
8
1 15 hydrophobe
1 2 acceptor
1 3 acceptor
1 4 acceptor
1 5 acceptor
1 7 donor
3 3 4 16 anion
7 6 8 9 10 11 13 14 rings

> <PUBCHEM_HEAVY_ATOM_COUNT>
20

> <PUBCHEM_ATOM_DEF_STEREO_COUNT>
2

> <PUBCHEM_ATOM_UDEF_STEREO_COUNT>
0

> <PUBCHEM_BOND_DEF_STEREO_COUNT>
0

> <PUBCHEM_BOND_UDEF_STEREO_COUNT>
0

> <PUBCHEM_ISOTOPIC_ATOM_COUNT>
0

> <PUBCHEM_COMPONENT_COUNT>
1

> <PUBCHEM_CACTVS_TAUTO_COUNT>
2

> <PUBCHEM_CONFORMER_ID>
0002FF5D00000001

> <PUBCHEM_MMFF94_ENERGY>
55.4954

> <PUBCHEM_FEATURE_SELFOVERLAP>
40.649

> <PUBCHEM_SHAPE_FINGERPRINT>
10498660 4 18201724006793752869
10759866 29 18059584606616089723
11089746 13 12751239173223285961
11796584 16 14634586077783567997
11961588 58 18271527486151922520
12616999 72 18113337539764645596
12633257 1 12391511953895285852
12670546 177 18334293171272921204
13464513 79 18334298639304118621
13583140 156 16916777453512056848
14251764 30 14418136197222764733
14576447 43 17676207987343581052
14787075 74 18334576828193296737
15142383 8 14707196756319297945
15475509 84 11527958854466954918
15527383 91 10159695785709522580
15537594 2 17095243622770355621
15885798 251 7853575707728237416
173720 79 18130238081687737192
20871999 31 18334289851315948768
221357 26 18113902663256329065
22393880 68 18194119844194138837
23402539 116 18341051805277797558
23402655 69 18188490293299913017
23622692 88 13973965394291851968
2838139 119 17632857525405714452
2871803 45 18337684087414654273
3323516 105 18187367649051704929
33382 64 15285627824759212540
351380 180 12463572876701614805
5207 217 18201717310533432693
54040823 5 17385441046762350100
6328613 192 10447632630969677334

> <PUBCHEM_SHAPE_MULTIPOLES>
382
11.21
2.3
1.28
7.12
1.02
-0.16
-3.39
-4.8
-0.41
0.26
0.13
0.06
0.14

> <PUBCHEM_SHAPE_SELFOVERLAP>
777.325

> <PUBCHEM_SHAPE_VOLUME>
224.7

> <PUBCHEM_COORDINATE_TYPE>
2
5
10

$$$$

