10909908
  -OEChem-07051213083D

 21 20  0     1  0  0  0  0  0999 V2000
    2.7491    0.2207   -0.5717 S   0  0  2  0  0  0  0  0  0  0  0  0
   -2.4783    1.5998    0.3799 O   0  0  0  0  0  0  0  0  0  0  0  0
    2.9524    1.5696    0.0435 O   0  0  0  0  0  0  0  0  0  0  0  0
   -3.4048   -0.2176   -0.6253 O   0  0  0  0  0  0  0  0  0  0  0  0
   -1.3727   -1.8143    0.1007 N   0  0  0  0  0  0  0  0  0  0  0  0
    0.0181    0.1813   -0.1979 C   0  0  0  0  0  0  0  0  0  0  0  0
   -1.2309   -0.4051    0.4696 C   0  0  1  0  0  0  0  0  0  0  0  0
    1.2990   -0.5237    0.2400 C   0  0  0  0  0  0  0  0  0  0  0  0
   -2.4857    0.2974   -0.0042 C   0  0  0  0  0  0  0  0  0  0  0  0
    3.9541   -0.9079    0.1653 C   0  0  0  0  0  0  0  0  0  0  0  0
    0.0911    1.2496    0.0453 H   0  0  0  0  0  0  0  0  0  0  0  0
   -0.0811    0.1345   -1.2914 H   0  0  0  0  0  0  0  0  0  0  0  0
   -1.1736   -0.3271    1.5606 H   0  0  0  0  0  0  0  0  0  0  0  0
    1.4318   -0.4464    1.3241 H   0  0  0  0  0  0  0  0  0  0  0  0
    1.2804   -1.5816   -0.0390 H   0  0  0  0  0  0  0  0  0  0  0  0
   -1.4605   -1.9069   -0.9105 H   0  0  0  0  0  0  0  0  0  0  0  0
   -2.2265   -2.1963    0.5055 H   0  0  0  0  0  0  0  0  0  0  0  0
    3.8988   -0.8547    1.2551 H   0  0  0  0  0  0  0  0  0  0  0  0
    4.9536   -0.6107   -0.1608 H   0  0  0  0  0  0  0  0  0  0  0  0
    3.7540   -1.9278   -0.1714 H   0  0  0  0  0  0  0  0  0  0  0  0
   -3.2895    2.0704    0.0923 H   0  0  0  0  0  0  0  0  0  0  0  0
  1  3  2  0  0  0  0
  1  8  1  0  0  0  0
  1 10  1  0  0  0  0
  2  9  1  0  0  0  0
  2 21  1  0  0  0  0
  4  9  2  0  0  0  0
  5  7  1  0  0  0  0
  5 16  1  0  0  0  0
  5 17  1  0  0  0  0
  6  7  1  0  0  0  0
  6  8  1  0  0  0  0
  6 11  1  0  0  0  0
  6 12  1  0  0  0  0
  7  9  1  0  0  0  0
  7 13  1  0  0  0  0
  8 14  1  0  0  0  0
  8 15  1  0  0  0  0
 10 18  1  0  0  0  0
 10 19  1  0  0  0  0
 10 20  1  0  0  0  0
M  END
> <PUBCHEM_COMPOUND_CID>
10909908

> <PUBCHEM_CONFORMER_RMSD>
0.6

> <PUBCHEM_CONFORMER_DIVERSEORDER>
1
23
28
4
21
8
22
15
24
20
25
9
13
3
16
27
12
26
2
5
18
19
17
11
10
6
14
7

> <PUBCHEM_MMFF94_PARTIAL_CHARGES>
12
1 0.11
10 0.19
16 0.36
17 0.36
2 -0.65
21 0.5
3 -0.5
4 -0.57
5 -0.99
7 0.33
8 0.19
9 0.66

> <PUBCHEM_EFFECTIVE_ROTOR_COUNT>
4

> <PUBCHEM_PHARMACOPHORE_FEATURES>
6
1 2 acceptor
1 3 acceptor
1 4 acceptor
1 5 cation
1 5 donor
3 2 4 9 anion

> <PUBCHEM_HEAVY_ATOM_COUNT>
10

> <PUBCHEM_ATOM_DEF_STEREO_COUNT>
2

> <PUBCHEM_ATOM_UDEF_STEREO_COUNT>
0

> <PUBCHEM_BOND_DEF_STEREO_COUNT>
0

> <PUBCHEM_BOND_UDEF_STEREO_COUNT>
0

> <PUBCHEM_ISOTOPIC_ATOM_COUNT>
0

> <PUBCHEM_COMPONENT_COUNT>
1

> <PUBCHEM_CACTVS_TAUTO_COUNT>
1

> <PUBCHEM_CONFORMER_ID>
00A678D400000001

> <PUBCHEM_MMFF94_ENERGY>
5.6873

> <PUBCHEM_FEATURE_SELFOVERLAP>
30.503

> <PUBCHEM_SHAPE_FINGERPRINT>
12162725 195 18335137600677244876
12932764 1 18265880394257234314
14144814 61 18341610442899281408
14325111 11 18411416198426626772
14390081 3 18410854347789868808
190213 19 17632293475776419856
20201158 50 18334009523443646286
20653085 51 18189602999035151609
23402539 116 18261683635778266637
3248919 1 17458330940911119594
93112 12 18410853240052205974
9939556 21 18412261718779310022

> <PUBCHEM_SHAPE_MULTIPOLES>
187.06
6.53
1.42
0.71
2.28
0.07
-0.04
0.38
-0.38
-0.01
0.13
0
0
-0.23

> <PUBCHEM_SHAPE_SELFOVERLAP>
334.592

> <PUBCHEM_SHAPE_VOLUME>
121.8

> <PUBCHEM_COORDINATE_TYPE>
2
5
10

$$$$

