442656
  -OEChem-07051212592D

 92 98  0     1  0  0  0  0  0999 V2000
    9.2869   -0.3536    0.0000 O   0  0  0  0  0  0  0  0  0  0  0  0
    4.5981    0.3536    0.0000 O   0  0  0  0  0  0  0  0  0  0  0  0
    8.4209   -1.8536    0.0000 N   0  0  0  0  0  0  0  0  0  0  0  0
    5.4641    1.8536    0.0000 N   0  0  0  0  0  0  0  0  0  0  0  0
   10.1529   -4.8536    0.0000 N   0  0  0  0  0  0  0  0  0  0  0  0
    2.8660    3.3536    0.0000 N   0  0  0  0  0  0  0  0  0  0  0  0
    7.2960    0.6124    0.0000 C   0  0  0  0  0  0  0  0  0  0  0  0
    6.5890   -0.6124    0.0000 C   0  0  0  0  0  0  0  0  0  0  0  0
    7.5549   -0.3536    0.0000 C   0  0  0  0  0  0  0  0  0  0  0  0
    6.3301    0.3536    0.0000 C   0  0  0  0  0  0  0  0  0  0  0  0
    6.0890   -1.4784    0.0000 C   0  0  0  0  0  0  0  0  0  0  0  0
    7.7960    1.4784    0.0000 C   0  0  0  0  0  0  0  0  0  0  0  0
    8.4209   -0.8536    0.0000 C   0  0  0  0  0  0  0  0  0  0  0  0
    5.4641    0.8536    0.0000 C   0  0  0  0  0  0  0  0  0  0  0  0
    5.0890   -1.4784    0.0000 C   0  0  0  0  0  0  0  0  0  0  0  0
    8.7960    1.4784    0.0000 C   0  0  0  0  0  0  0  0  0  0  0  0
    6.5890   -2.3444    0.0000 C   0  0  0  0  0  0  0  0  0  0  0  0
    7.2960    2.3444    0.0000 C   0  0  0  0  0  0  0  0  0  0  0  0
    7.5549   -2.3535    0.0000 C   0  0  0  0  0  0  0  0  0  0  0  0
    6.3301    2.3535    0.0000 C   0  0  0  0  0  0  0  0  0  0  0  0
    9.2869   -2.3535    0.0000 C   0  0  0  0  0  0  0  0  0  0  0  0
    4.5981    2.3535    0.0000 C   0  0  0  0  0  0  0  0  0  0  0  0
    7.5549   -3.3536    0.0000 C   0  0  0  0  0  0  0  0  0  0  0  0
    6.3301    3.3536    0.0000 C   0  0  0  0  0  0  0  0  0  0  0  0
    9.2869   -3.3536    0.0000 C   0  0  0  0  0  0  0  0  0  0  0  0
    4.5981    3.3536    0.0000 C   0  0  0  0  0  0  0  0  0  0  0  0
    8.4209   -3.8536    0.0000 C   0  0  0  0  0  0  0  0  0  0  0  0
    5.4641    3.8536    0.0000 C   0  0  0  0  0  0  0  0  0  0  0  0
   10.1529   -3.8536    0.0000 C   0  0  1  0  0  0  0  0  0  0  0  0
    3.7320    3.8536    0.0000 C   0  0  1  0  0  0  0  0  0  0  0  0
    9.2960    2.3444    0.0000 C   0  0  0  0  0  0  0  0  0  0  0  0
    4.5890   -2.3444    0.0000 C   0  0  0  0  0  0  0  0  0  0  0  0
    7.7960    3.2104    0.0000 C   0  0  0  0  0  0  0  0  0  0  0  0
    6.0890   -3.2104    0.0000 C   0  0  0  0  0  0  0  0  0  0  0  0
   11.0190   -3.3536    0.0000 C   0  0  0  0  0  0  0  0  0  0  0  0
    3.7320    4.8536    0.0000 C   0  0  0  0  0  0  0  0  0  0  0  0
    8.7960    3.2104    0.0000 C   0  0  0  0  0  0  0  0  0  0  0  0
    5.0890   -3.2104    0.0000 C   0  0  0  0  0  0  0  0  0  0  0  0
   11.8850   -3.8536    0.0000 C   0  0  0  0  0  0  0  0  0  0  0  0
    2.8660    5.3536    0.0000 C   0  0  0  0  0  0  0  0  0  0  0  0
   11.0190   -5.3536    0.0000 C   0  0  0  0  0  0  0  0  0  0  0  0
    2.0000    3.8536    0.0000 C   0  0  0  0  0  0  0  0  0  0  0  0
   11.8850   -4.8536    0.0000 C   0  0  0  0  0  0  0  0  0  0  0  0
    2.0000    4.8536    0.0000 C   0  0  0  0  0  0  0  0  0  0  0  0
    6.9186    1.1042    0.0000 H   0  0  0  0  0  0  0  0  0  0  0  0
    5.9742   -0.5314    0.0000 H   0  0  0  0  0  0  0  0  0  0  0  0
    7.4740   -0.9682    0.0000 H   0  0  0  0  0  0  0  0  0  0  0  0
    6.4110    0.9682    0.0000 H   0  0  0  0  0  0  0  0  0  0  0  0
    4.7790   -0.9415    0.0000 H   0  0  0  0  0  0  0  0  0  0  0  0
    9.1060    0.9415    0.0000 H   0  0  0  0  0  0  0  0  0  0  0  0
    7.2090   -2.3444    0.0000 H   0  0  0  0  0  0  0  0  0  0  0  0
    6.6760    2.3444    0.0000 H   0  0  0  0  0  0  0  0  0  0  0  0
    7.3428   -1.7709    0.0000 H   0  0  0  0  0  0  0  0  0  0  0  0
    6.9443   -2.4612    0.0000 H   0  0  0  0  0  0  0  0  0  0  0  0
    6.5422    1.7709    0.0000 H   0  0  0  0  0  0  0  0  0  0  0  0
    6.9407    2.4612    0.0000 H   0  0  0  0  0  0  0  0  0  0  0  0
    9.8239   -2.0436    0.0000 H   0  0  0  0  0  0  0  0  0  0  0  0
    4.0611    2.0436    0.0000 H   0  0  0  0  0  0  0  0  0  0  0  0
    6.9443   -3.2459    0.0000 H   0  0  0  0  0  0  0  0  0  0  0  0
    7.3428   -3.9362    0.0000 H   0  0  0  0  0  0  0  0  0  0  0  0
    6.9407    3.2459    0.0000 H   0  0  0  0  0  0  0  0  0  0  0  0
    6.5422    3.9362    0.0000 H   0  0  0  0  0  0  0  0  0  0  0  0
    8.0224   -4.3285    0.0000 H   0  0  0  0  0  0  0  0  0  0  0  0
    8.8194   -4.3285    0.0000 H   0  0  0  0  0  0  0  0  0  0  0  0
    5.8626    4.3285    0.0000 H   0  0  0  0  0  0  0  0  0  0  0  0
    5.0656    4.3285    0.0000 H   0  0  0  0  0  0  0  0  0  0  0  0
   10.1529   -3.2336    0.0000 H   0  0  0  0  0  0  0  0  0  0  0  0
    3.7320    3.2336    0.0000 H   0  0  0  0  0  0  0  0  0  0  0  0
    9.9160    2.3444    0.0000 H   0  0  0  0  0  0  0  0  0  0  0  0
    3.9690   -2.3444    0.0000 H   0  0  0  0  0  0  0  0  0  0  0  0
    7.4860    3.7474    0.0000 H   0  0  0  0  0  0  0  0  0  0  0  0
    6.3990   -3.7474    0.0000 H   0  0  0  0  0  0  0  0  0  0  0  0
   11.4175   -2.8786    0.0000 H   0  0  0  0  0  0  0  0  0  0  0  0
   10.6204   -2.8786    0.0000 H   0  0  0  0  0  0  0  0  0  0  0  0
    4.3426    4.7459    0.0000 H   0  0  0  0  0  0  0  0  0  0  0  0
    3.9441    5.4362    0.0000 H   0  0  0  0  0  0  0  0  0  0  0  0
    9.1060    3.7474    0.0000 H   0  0  0  0  0  0  0  0  0  0  0  0
    4.7790   -3.7474    0.0000 H   0  0  0  0  0  0  0  0  0  0  0  0
    9.6160   -5.1636    0.0000 H   0  0  0  0  0  0  0  0  0  0  0  0
    2.8660    2.7336    0.0000 H   0  0  0  0  0  0  0  0  0  0  0  0
   12.4956   -3.9612    0.0000 H   0  0  0  0  0  0  0  0  0  0  0  0
   12.0971   -3.2709    0.0000 H   0  0  0  0  0  0  0  0  0  0  0  0
    3.2646    5.8285    0.0000 H   0  0  0  0  0  0  0  0  0  0  0  0
    2.4675    5.8285    0.0000 H   0  0  0  0  0  0  0  0  0  0  0  0
   10.6204   -5.8285    0.0000 H   0  0  0  0  0  0  0  0  0  0  0  0
   11.4175   -5.8285    0.0000 H   0  0  0  0  0  0  0  0  0  0  0  0
    1.3894    3.9612    0.0000 H   0  0  0  0  0  0  0  0  0  0  0  0
    1.7880    3.2709    0.0000 H   0  0  0  0  0  0  0  0  0  0  0  0
   12.0971   -5.4362    0.0000 H   0  0  0  0  0  0  0  0  0  0  0  0
   12.4956   -4.7459    0.0000 H   0  0  0  0  0  0  0  0  0  0  0  0
    1.7880    5.4362    0.0000 H   0  0  0  0  0  0  0  0  0  0  0  0
    1.3894    4.7459    0.0000 H   0  0  0  0  0  0  0  0  0  0  0  0
  1 13  2  0  0  0  0
  2 14  2  0  0  0  0
  3 13  1  0  0  0  0
  3 19  1  0  0  0  0
  3 21  1  0  0  0  0
  4 14  1  0  0  0  0
  4 20  1  0  0  0  0
  4 22  1  0  0  0  0
  5 29  1  0  0  0  0
  5 41  1  0  0  0  0
  5 79  1  0  0  0  0
  6 30  1  0  0  0  0
  6 42  1  0  0  0  0
  6 80  1  0  0  0  0
  7  9  1  0  0  0  0
  7 10  1  0  0  0  0
  7 12  1  0  0  0  0
  7 45  1  0  0  0  0
  8  9  1  0  0  0  0
  8 10  1  0  0  0  0
  8 11  1  0  0  0  0
  8 46  1  0  0  0  0
  9 13  1  0  0  0  0
  9 47  1  0  0  0  0
 10 14  1  0  0  0  0
 10 48  1  0  0  0  0
 11 15  2  0  0  0  0
 11 17  1  0  0  0  0
 12 16  2  0  0  0  0
 12 18  1  0  0  0  0
 15 32  1  0  0  0  0
 15 49  1  0  0  0  0
 16 31  1  0  0  0  0
 16 50  1  0  0  0  0
 17 34  2  0  0  0  0
 17 51  1  0  0  0  0
 18 33  2  0  0  0  0
 18 52  1  0  0  0  0
 19 23  1  0  0  0  0
 19 53  1  0  0  0  0
 19 54  1  0  0  0  0
 20 24  1  0  0  0  0
 20 55  1  0  0  0  0
 20 56  1  0  0  0  0
 21 25  2  0  0  0  0
 21 57  1  0  0  0  0
 22 26  2  0  0  0  0
 22 58  1  0  0  0  0
 23 27  1  0  0  0  0
 23 59  1  0  0  0  0
 23 60  1  0  0  0  0
 24 28  1  0  0  0  0
 24 61  1  0  0  0  0
 24 62  1  0  0  0  0
 25 27  1  0  0  0  0
 29 25  1  1  0  0  0
 26 28  1  0  0  0  0
 30 26  1  6  0  0  0
 27 63  1  0  0  0  0
 27 64  1  0  0  0  0
 28 65  1  0  0  0  0
 28 66  1  0  0  0  0
 29 35  1  0  0  0  0
 29 67  1  0  0  0  0
 30 36  1  0  0  0  0
 30 68  1  0  0  0  0
 31 37  2  0  0  0  0
 31 69  1  0  0  0  0
 32 38  2  0  0  0  0
 32 70  1  0  0  0  0
 33 37  1  0  0  0  0
 33 71  1  0  0  0  0
 34 38  1  0  0  0  0
 34 72  1  0  0  0  0
 35 39  1  0  0  0  0
 35 73  1  0  0  0  0
 35 74  1  0  0  0  0
 36 40  1  0  0  0  0
 36 75  1  0  0  0  0
 36 76  1  0  0  0  0
 37 77  1  0  0  0  0
 38 78  1  0  0  0  0
 39 43  1  0  0  0  0
 39 81  1  0  0  0  0
 39 82  1  0  0  0  0
 40 44  1  0  0  0  0
 40 83  1  0  0  0  0
 40 84  1  0  0  0  0
 41 43  1  0  0  0  0
 41 85  1  0  0  0  0
 41 86  1  0  0  0  0
 42 44  1  0  0  0  0
 42 87  1  0  0  0  0
 42 88  1  0  0  0  0
 43 89  1  0  0  0  0
 43 90  1  0  0  0  0
 44 91  1  0  0  0  0
 44 92  1  0  0  0  0
M  END
> <PUBCHEM_COMPOUND_CID>
442656

> <PUBCHEM_COMPOUND_CANONICALIZED>
1

> <PUBCHEM_CACTVS_COMPLEXITY>
977

> <PUBCHEM_CACTVS_HBOND_ACCEPTOR>
4

> <PUBCHEM_CACTVS_HBOND_DONOR>
2

> <PUBCHEM_CACTVS_ROTATABLE_BOND>
6

> <PUBCHEM_CACTVS_SUBSKEYS>
AAADcfB/sAAAAAAAAAAAAAAAAABgAAAAAAA8eIECAAAAAAABQAAAHgAQAAAADSjBmAQwAIPAAACIAiFWUACCAAAgAAAIiIEIAIgIIDKAkRCEIAAglgCIiAcYi8COgAAAAAAAAAAAAAAAAAAAAAAAAAAAAA==

> <PUBCHEM_IUPAC_OPENEYE_NAME>
[2,4-diphenyl-3-[5-[(2R)-2-piperidyl]-3,4-dihydro-2H-pyridine-1-carbonyl]cyclobutyl]-[5-[(2R)-2-piperidyl]-3,4-dihydro-2H-pyridin-1-yl]methanone

> <PUBCHEM_IUPAC_CAS_NAME>
[3-[oxo-[5-[(2R)-2-piperidinyl]-3,4-dihydro-2H-pyridin-1-yl]methyl]-2,4-diphenylcyclobutyl]-[5-[(2R)-2-piperidinyl]-3,4-dihydro-2H-pyridin-1-yl]methanone

> <PUBCHEM_IUPAC_NAME>
[2,4-diphenyl-3-[5-[(2R)-piperidin-2-yl]-3,4-dihydro-2H-pyridine-1-carbonyl]cyclobutyl]-[5-[(2R)-piperidin-2-yl]-3,4-dihydro-2H-pyridin-1-yl]methanone

> <PUBCHEM_IUPAC_SYSTEMATIC_NAME>
[2,4-diphenyl-3-[[5-[(2R)-piperidin-2-yl]-3,4-dihydro-2H-pyridin-1-yl]carbonyl]cyclobutyl]-[5-[(2R)-piperidin-2-yl]-3,4-dihydro-2H-pyridin-1-yl]methanone

> <PUBCHEM_IUPAC_TRADITIONAL_NAME>
[2,4-diphenyl-3-[5-[(2R)-2-piperidyl]-3,4-dihydro-2H-pyridine-1-carbonyl]cyclobutyl]-[5-[(2R)-2-piperidyl]-3,4-dihydro-2H-pyridin-1-yl]methanone

> <PUBCHEM_IUPAC_INCHI>
InChI=1S/C38H48N4O2/c43-37(41-23-11-17-29(25-41)31-19-7-9-21-39-31)35-33(27-13-3-1-4-14-27)36(34(35)28-15-5-2-6-16-28)38(44)42-24-12-18-30(26-42)32-20-8-10-22-40-32/h1-6,13-16,25-26,31-36,39-40H,7-12,17-24H2/t31-,32-,33?,34?,35?,36?/m1/s1

> <PUBCHEM_IUPAC_INCHIKEY>
OHNNTQXKHRISJP-AAGWKZJCSA-N

> <PUBCHEM_XLOGP3_AA>
3.7

> <PUBCHEM_EXACT_MASS>
592.377727

> <PUBCHEM_MOLECULAR_FORMULA>
C38H48N4O2

> <PUBCHEM_MOLECULAR_WEIGHT>
592.81332

> <PUBCHEM_OPENEYE_CAN_SMILES>
C1CCNC(C1)C2=CN(CCC2)C(=O)C3C(C(C3C4=CC=CC=C4)C(=O)N5CCCC(=C5)C6CCCCN6)C7=CC=CC=C7

> <PUBCHEM_OPENEYE_ISO_SMILES>
C1CCN[C@H](C1)C2=CN(CCC2)C(=O)C3C(C(C3C4=CC=CC=C4)C(=O)N5CCCC(=C5)[C@H]6CCCCN6)C7=CC=CC=C7

> <PUBCHEM_CACTVS_TPSA>
64.7

> <PUBCHEM_MONOISOTOPIC_WEIGHT>
592.377727

> <PUBCHEM_TOTAL_CHARGE>
0

> <PUBCHEM_HEAVY_ATOM_COUNT>
44

> <PUBCHEM_ATOM_DEF_STEREO_COUNT>
2

> <PUBCHEM_ATOM_UDEF_STEREO_COUNT>
0

> <PUBCHEM_BOND_DEF_STEREO_COUNT>
0

> <PUBCHEM_BOND_UDEF_STEREO_COUNT>
0

> <PUBCHEM_ISOTOPIC_ATOM_COUNT>
0

> <PUBCHEM_COMPONENT_COUNT>
1

> <PUBCHEM_CACTVS_TAUTO_COUNT>
1

> <PUBCHEM_COORDINATE_TYPE>
1
5
255

> <PUBCHEM_BONDANNOTATIONS>
11  15  8
11  17  8
12  16  8
12  18  8
15  32  8
16  31  8
17  34  8
18  33  8
29  25  5
30  26  6
31  37  8
32  38  8
33  37  8
34  38  8

$$$$

