2724189
  -OEChem-07051213013D

 12 11  0     0  0  0  0  0  0999 V2000
   -0.8723   -1.8512    0.0000 S   0  0  0  0  0  0  0  0  0  0  0  0
    1.3541   -0.4240    0.0003 N   0  0  0  0  0  0  0  0  0  0  0  0
   -0.5944    0.8692   -0.0002 N   0  0  0  0  0  0  0  0  0  0  0  0
    2.1052    0.7374    0.0000 N   0  0  0  0  0  0  0  0  0  0  0  0
   -1.9635    1.0633    0.0002 N   0  0  0  0  0  0  0  0  0  0  0  0
   -0.0289   -0.3947   -0.0003 C   0  0  0  0  0  0  0  0  0  0  0  0
    1.8530   -1.3080    0.0005 H   0  0  0  0  0  0  0  0  0  0  0  0
   -0.0052    1.6958   -0.0004 H   0  0  0  0  0  0  0  0  0  0  0  0
    2.7170    0.6925   -0.8138 H   0  0  0  0  0  0  0  0  0  0  0  0
    2.7163    0.6933    0.8144 H   0  0  0  0  0  0  0  0  0  0  0  0
   -2.1802    1.6370   -0.8138 H   0  0  0  0  0  0  0  0  0  0  0  0
   -2.1797    1.6371    0.8143 H   0  0  0  0  0  0  0  0  0  0  0  0
  1  6  2  0  0  0  0
  2  4  1  0  0  0  0
  2  6  1  0  0  0  0
  2  7  1  0  0  0  0
  3  5  1  0  0  0  0
  3  6  1  0  0  0  0
  3  8  1  0  0  0  0
  4  9  1  0  0  0  0
  4 10  1  0  0  0  0
  5 11  1  0  0  0  0
  5 12  1  0  0  0  0
M  END
> <PUBCHEM_COMPOUND_CID>
2724189

> <PUBCHEM_CONFORMER_RMSD>
0.4

> <PUBCHEM_CONFORMER_DIVERSEORDER>
1
3
2
4
5
6

> <PUBCHEM_MMFF94_PARTIAL_CHARGES>
12
1 -0.38
10 0.36
11 0.36
12 0.36
2 -0.42
3 -0.42
4 -0.73
5 -0.73
6 0.5
7 0.37
8 0.37
9 0.36

> <PUBCHEM_EFFECTIVE_ROTOR_COUNT>
2

> <PUBCHEM_PHARMACOPHORE_FEATURES>
5
1 1 acceptor
1 2 donor
1 3 donor
1 4 donor
1 5 donor

> <PUBCHEM_HEAVY_ATOM_COUNT>
6

> <PUBCHEM_ATOM_DEF_STEREO_COUNT>
0

> <PUBCHEM_ATOM_UDEF_STEREO_COUNT>
0

> <PUBCHEM_BOND_DEF_STEREO_COUNT>
0

> <PUBCHEM_BOND_UDEF_STEREO_COUNT>
0

> <PUBCHEM_ISOTOPIC_ATOM_COUNT>
0

> <PUBCHEM_COMPONENT_COUNT>
1

> <PUBCHEM_CACTVS_TAUTO_COUNT>
2

> <PUBCHEM_CONFORMER_ID>
0029915D00000001

> <PUBCHEM_MMFF94_ENERGY>
10.9226

> <PUBCHEM_FEATURE_SELFOVERLAP>
28.421

> <PUBCHEM_SHAPE_FINGERPRINT>
139733 1 9221306600046516354
16714656 1 18265327318117264815
20096714 4 18339080509456421520
21040471 1 18410856602679204772
23552449 1 18264491676405763720
29004967 10 17691967064081942154
5943 1 10588923336433946447

> <PUBCHEM_SHAPE_MULTIPOLES>
107.4
2.29
1.71
0.57
1.11
0.12
0
-0.29
0
-1.14
0
-0.05
0.06
0

> <PUBCHEM_SHAPE_SELFOVERLAP>
181.897

> <PUBCHEM_SHAPE_VOLUME>
73.7

> <PUBCHEM_COORDINATE_TYPE>
2
5
10

$$$$

