13012
  -OEChem-06261207393D

 20 20  0     1  0  0  0  0  0999 V2000
    2.5117    1.1333   -0.4710 Cl  0  0  0  0  0  0  0  0  0  0  0  0
    1.6162   -1.6135    0.5874 O   0  0  0  0  0  0  0  0  0  0  0  0
   -1.4845    1.3295    0.5036 C   0  0  0  0  0  0  0  0  0  0  0  0
   -2.2934    0.1993   -0.1278 C   0  0  0  0  0  0  0  0  0  0  0  0
   -0.1399    1.5842   -0.1783 C   0  0  0  0  0  0  0  0  0  0  0  0
   -1.6616   -1.1841   -0.0049 C   0  0  0  0  0  0  0  0  0  0  0  0
    0.9773    0.6780    0.3297 C   0  0  1  0  0  0  0  0  0  0  0  0
   -0.3371   -1.3138   -0.7410 C   0  0  0  0  0  0  0  0  0  0  0  0
    0.8112   -0.8128    0.1022 C   0  0  0  0  0  0  0  0  0  0  0  0
   -2.0838    2.2453    0.4222 H   0  0  0  0  0  0  0  0  0  0  0  0
   -1.3452    1.1454    1.5755 H   0  0  0  0  0  0  0  0  0  0  0  0
   -2.4782    0.4260   -1.1853 H   0  0  0  0  0  0  0  0  0  0  0  0
   -3.2777    0.1704    0.3560 H   0  0  0  0  0  0  0  0  0  0  0  0
   -0.2507    1.5136   -1.2673 H   0  0  0  0  0  0  0  0  0  0  0  0
    0.1435    2.6243    0.0324 H   0  0  0  0  0  0  0  0  0  0  0  0
   -2.3654   -1.9105   -0.4299 H   0  0  0  0  0  0  0  0  0  0  0  0
   -1.5421   -1.4424    1.0544 H   0  0  0  0  0  0  0  0  0  0  0  0
    1.1151    0.8342    1.4055 H   0  0  0  0  0  0  0  0  0  0  0  0
   -0.3383   -0.8105   -1.7127 H   0  0  0  0  0  0  0  0  0  0  0  0
   -0.1467   -2.3754   -0.9430 H   0  0  0  0  0  0  0  0  0  0  0  0
  1  7  1  0  0  0  0
  2  9  2  0  0  0  0
  3  4  1  0  0  0  0
  3  5  1  0  0  0  0
  3 10  1  0  0  0  0
  3 11  1  0  0  0  0
  4  6  1  0  0  0  0
  4 12  1  0  0  0  0
  4 13  1  0  0  0  0
  5  7  1  0  0  0  0
  5 14  1  0  0  0  0
  5 15  1  0  0  0  0
  6  8  1  0  0  0  0
  6 16  1  0  0  0  0
  6 17  1  0  0  0  0
  7  9  1  0  0  0  0
  7 18  1  0  0  0  0
  8  9  1  0  0  0  0
  8 19  1  0  0  0  0
  8 20  1  0  0  0  0
M  END
> <PUBCHEM_COMPOUND_CID>
13012

> <PUBCHEM_CONFORMER_RMSD>
0.4

> <PUBCHEM_CONFORMER_DIVERSEORDER>
1
2
4
3
8
7
6
5

> <PUBCHEM_MMFF94_PARTIAL_CHARGES>
5
1 -0.29
2 -0.57
7 0.35
8 0.06
9 0.45

> <PUBCHEM_EFFECTIVE_ROTOR_COUNT>
1.2

> <PUBCHEM_PHARMACOPHORE_FEATURES>
2
1 2 acceptor
7 3 4 5 6 7 8 9 rings

> <PUBCHEM_HEAVY_ATOM_COUNT>
9

> <PUBCHEM_ATOM_DEF_STEREO_COUNT>
0

> <PUBCHEM_ATOM_UDEF_STEREO_COUNT>
1

> <PUBCHEM_BOND_DEF_STEREO_COUNT>
0

> <PUBCHEM_BOND_UDEF_STEREO_COUNT>
0

> <PUBCHEM_ISOTOPIC_ATOM_COUNT>
0

> <PUBCHEM_COMPONENT_COUNT>
1

> <PUBCHEM_CACTVS_TAUTO_COUNT>
3

> <PUBCHEM_CONFORMER_ID>
000032D400000001

> <PUBCHEM_MMFF94_ENERGY>
11.053

> <PUBCHEM_FEATURE_SELFOVERLAP>
10.148

> <PUBCHEM_SHAPE_FINGERPRINT>
12423570 1 17902232543944734539
16714656 1 18190735345434801764
16945 1 18338518534502806937
18185500 45 18265060132554542855
21040471 1 18335143102366781785
23235685 24 18408603630619230445
23552423 10 18342739636903829502
241688 4 18195533807610115849
2748010 2 18337953497205770925
29004967 10 17703787011611898537
5084963 1 18044950205502392995
528862 383 18272089426202083592
66348 1 18408605838016032329

> <PUBCHEM_SHAPE_MULTIPOLES>
181.22
2.98
1.94
0.77
0.55
0.14
0.03
-0.49
0.21
0.04
-0.09
0.07
0.06
-0.37

> <PUBCHEM_SHAPE_SELFOVERLAP>
343.446

> <PUBCHEM_SHAPE_VOLUME>
111

> <PUBCHEM_COORDINATE_TYPE>
2
5
10

$$$$

