17396291
  -OEChem-06241222552D

 39 42  0     1  0  0  0  0  0999 V2000
    5.3171    0.8892    0.0000 S   0  0  0  0  0  0  0  0  0  0  0  0
    8.8614    1.0845    0.0000 S   0  0  0  0  0  0  0  0  0  0  0  0
    3.5851   -0.1108    0.0000 O   0  0  0  0  0  0  0  0  0  0  0  0
    7.0492    3.8892    0.0000 O   0  0  0  0  0  0  0  0  0  0  0  0
    4.4511   -1.6108    0.0000 N   0  0  0  0  0  0  0  0  0  0  0  0
    6.1831    2.3892    0.0000 N   0  0  0  0  0  0  0  0  0  0  0  0
    7.0492    0.8892    0.0000 N   0  0  0  0  0  0  0  0  0  0  0  0
    5.2558   -2.1944    0.0000 C   0  0  3  0  0  0  0  0  0  0  0  0
    4.9511   -3.1406    0.0000 C   0  0  0  0  0  0  0  0  0  0  0  0
    3.9570   -3.1449    0.0000 C   0  0  0  0  0  0  0  0  0  0  0  0
    3.6464   -2.1944    0.0000 C   0  0  0  0  0  0  0  0  0  0  0  0
    6.2063   -1.8837    0.0000 C   0  0  0  0  0  0  0  0  0  0  0  0
    4.4511   -0.6108    0.0000 C   0  0  0  0  0  0  0  0  0  0  0  0
    3.2892   -3.8892    0.0000 C   0  0  0  0  0  0  0  0  0  0  0  0
    2.6678   -1.9882    0.0000 C   0  0  0  0  0  0  0  0  0  0  0  0
    5.3171   -0.1108    0.0000 C   0  0  0  0  0  0  0  0  0  0  0  0
    2.3107   -3.6830    0.0000 C   0  0  0  0  0  0  0  0  0  0  0  0
    2.0000   -2.7325    0.0000 C   0  0  0  0  0  0  0  0  0  0  0  0
    6.1831    1.3892    0.0000 C   0  0  0  0  0  0  0  0  0  0  0  0
    7.9152    2.3892    0.0000 C   0  0  0  0  0  0  0  0  0  0  0  0
    7.9152    1.3892    0.0000 C   0  0  0  0  0  0  0  0  0  0  0  0
    7.0492    2.8892    0.0000 C   0  0  0  0  0  0  0  0  0  0  0  0
    8.8614    2.6940    0.0000 C   0  0  0  0  0  0  0  0  0  0  0  0
    9.4450    1.8892    0.0000 C   0  0  0  0  0  0  0  0  0  0  0  0
    5.3520   -1.5819    0.0000 H   0  0  0  0  0  0  0  0  0  0  0  0
    4.8886   -3.7575    0.0000 H   0  0  0  0  0  0  0  0  0  0  0  0
    5.5579   -3.2676    0.0000 H   0  0  0  0  0  0  0  0  0  0  0  0
    6.3990   -2.4731    0.0000 H   0  0  0  0  0  0  0  0  0  0  0  0
    6.7957   -1.6911    0.0000 H   0  0  0  0  0  0  0  0  0  0  0  0
    6.0137   -1.2944    0.0000 H   0  0  0  0  0  0  0  0  0  0  0  0
    3.4818   -4.4785    0.0000 H   0  0  0  0  0  0  0  0  0  0  0  0
    2.4752   -1.3988    0.0000 H   0  0  0  0  0  0  0  0  0  0  0  0
    5.5292   -0.6934    0.0000 H   0  0  0  0  0  0  0  0  0  0  0  0
    5.9277   -0.0031    0.0000 H   0  0  0  0  0  0  0  0  0  0  0  0
    1.8966   -4.1445    0.0000 H   0  0  0  0  0  0  0  0  0  0  0  0
    1.3933   -2.6046    0.0000 H   0  0  0  0  0  0  0  0  0  0  0  0
    5.6462    2.6992    0.0000 H   0  0  0  0  0  0  0  0  0  0  0  0
    9.0540    3.2833    0.0000 H   0  0  0  0  0  0  0  0  0  0  0  0
   10.0650    1.8892    0.0000 H   0  0  0  0  0  0  0  0  0  0  0  0
  1 16  1  0  0  0  0
  1 19  1  0  0  0  0
  2 21  1  0  0  0  0
  2 24  1  0  0  0  0
  3 13  2  0  0  0  0
  4 22  2  0  0  0  0
  5  8  1  0  0  0  0
  5 11  1  0  0  0  0
  5 13  1  0  0  0  0
  6 19  1  0  0  0  0
  6 22  1  0  0  0  0
  6 37  1  0  0  0  0
  7 19  2  0  0  0  0
  7 21  1  0  0  0  0
  8  9  1  0  0  0  0
  8 12  1  0  0  0  0
  8 25  1  0  0  0  0
  9 10  1  0  0  0  0
  9 26  1  0  0  0  0
  9 27  1  0  0  0  0
 10 11  1  0  0  0  0
 10 14  2  0  0  0  0
 11 15  2  0  0  0  0
 12 28  1  0  0  0  0
 12 29  1  0  0  0  0
 12 30  1  0  0  0  0
 13 16  1  0  0  0  0
 14 17  1  0  0  0  0
 14 31  1  0  0  0  0
 15 18  1  0  0  0  0
 15 32  1  0  0  0  0
 16 33  1  0  0  0  0
 16 34  1  0  0  0  0
 17 18  2  0  0  0  0
 17 35  1  0  0  0  0
 18 36  1  0  0  0  0
 20 21  2  0  0  0  0
 20 22  1  0  0  0  0
 20 23  1  0  0  0  0
 23 24  2  0  0  0  0
 23 38  1  0  0  0  0
 24 39  1  0  0  0  0
M  END
> <PUBCHEM_COMPOUND_CID>
17396291

> <PUBCHEM_COMPOUND_CANONICALIZED>
1

> <PUBCHEM_CACTVS_COMPLEXITY>
568

> <PUBCHEM_CACTVS_HBOND_ACCEPTOR>
5

> <PUBCHEM_CACTVS_HBOND_DONOR>
1

> <PUBCHEM_CACTVS_ROTATABLE_BOND>
3

> <PUBCHEM_CACTVS_SUBSKEYS>
AAADccB7MABgAAAAAAAAAAAAAAAAAWJAAAAwQAAAAAAAAFgBwAAAHgQQAAAADCjF2ASzwYPAAAisAiVSdACDEIFlChBJiBkIZMgIIDrg3ZGEIYhghgDoyccQgIAOAAAAAAACAAAAAAAAAAQAAAAAAAAAAA==

> <PUBCHEM_IUPAC_OPENEYE_NAME>
2-[2-(2-methylindolin-1-yl)-2-oxo-ethyl]sulfanyl-3H-thieno[2,3-d]pyrimidin-4-one

> <PUBCHEM_IUPAC_CAS_NAME>
2-[[2-(2-methyl-2,3-dihydroindol-1-yl)-2-oxoethyl]thio]-3H-thieno[2,3-d]pyrimidin-4-one

> <PUBCHEM_IUPAC_NAME>
2-[2-(2-methyl-2,3-dihydroindol-1-yl)-2-oxoethyl]sulfanyl-3H-thieno[2,3-d]pyrimidin-4-one

> <PUBCHEM_IUPAC_SYSTEMATIC_NAME>
2-[2-(2-methyl-2,3-dihydroindol-1-yl)-2-oxidanylidene-ethyl]sulfanyl-3H-thieno[2,3-d]pyrimidin-4-one

> <PUBCHEM_IUPAC_TRADITIONAL_NAME>
2-[[2-keto-2-(2-methylindolin-1-yl)ethyl]thio]-3H-thieno[2,3-d]pyrimidin-4-one

> <PUBCHEM_IUPAC_INCHI>
InChI=1S/C17H15N3O2S2/c1-10-8-11-4-2-3-5-13(11)20(10)14(21)9-24-17-18-15(22)12-6-7-23-16(12)19-17/h2-7,10H,8-9H2,1H3,(H,18,19,22)

> <PUBCHEM_IUPAC_INCHIKEY>
DNAOUASPKJYHAY-UHFFFAOYSA-N

> <PUBCHEM_XLOGP3_AA>
3.2

> <PUBCHEM_EXACT_MASS>
357.060569

> <PUBCHEM_MOLECULAR_FORMULA>
C17H15N3O2S2

> <PUBCHEM_MOLECULAR_WEIGHT>
357.4499

> <PUBCHEM_OPENEYE_CAN_SMILES>
CC1CC2=CC=CC=C2N1C(=O)CSC3=NC4=C(C=CS4)C(=O)N3

> <PUBCHEM_OPENEYE_ISO_SMILES>
CC1CC2=CC=CC=C2N1C(=O)CSC3=NC4=C(C=CS4)C(=O)N3

> <PUBCHEM_CACTVS_TPSA>
115

> <PUBCHEM_MONOISOTOPIC_WEIGHT>
357.060569

> <PUBCHEM_TOTAL_CHARGE>
0

> <PUBCHEM_HEAVY_ATOM_COUNT>
24

> <PUBCHEM_ATOM_DEF_STEREO_COUNT>
0

> <PUBCHEM_ATOM_UDEF_STEREO_COUNT>
1

> <PUBCHEM_BOND_DEF_STEREO_COUNT>
0

> <PUBCHEM_BOND_UDEF_STEREO_COUNT>
0

> <PUBCHEM_ISOTOPIC_ATOM_COUNT>
0

> <PUBCHEM_COMPONENT_COUNT>
1

> <PUBCHEM_CACTVS_TAUTO_COUNT>
4

> <PUBCHEM_COORDINATE_TYPE>
1
5
255

> <PUBCHEM_BONDANNOTATIONS>
10  11  8
10  14  8
11  15  8
14  17  8
15  18  8
17  18  8
2  21  8
2  24  8
20  21  8
20  22  8
20  23  8
23  24  8
6  19  8
6  22  8
7  19  8
7  21  8
8  12  3

$$$$

