5459767
  -OEChem-07051212493D

 52 53  0     1  0  0  0  0  0999 V2000
   -0.3740    0.4243    0.8935 O   0  0  0  0  0  0  0  0  0  0  0  0
    1.3687   -0.8308   -0.0183 O   0  0  0  0  0  0  0  0  0  0  0  0
    1.3285    2.6829    0.9822 O   0  0  0  0  0  0  0  0  0  0  0  0
    4.1635    1.9150    1.2130 O   0  0  0  0  0  0  0  0  0  0  0  0
    4.8533   -0.0297   -0.8114 O   0  0  0  0  0  0  0  0  0  0  0  0
    1.9126   -2.9422   -1.6925 O   0  0  0  0  0  0  0  0  0  0  0  0
   -2.5938   -0.5243    0.7512 C   0  0  1  0  0  0  0  0  0  0  0  0
   -1.4945    0.2693    0.0259 C   0  0  1  0  0  0  0  0  0  0  0  0
   -3.8676   -0.5955   -0.1007 C   0  0  0  0  0  0  0  0  0  0  0  0
   -1.9864    1.6554   -0.3971 C   0  0  0  0  0  0  0  0  0  0  0  0
   -3.2565    1.5759   -1.2499 C   0  0  1  0  0  0  0  0  0  0  0  0
   -4.3514    0.7919   -0.5170 C   0  0  0  0  0  0  0  0  0  0  0  0
   -2.1181   -1.9337    1.1139 C   0  0  0  0  0  0  0  0  0  0  0  0
    0.8483    0.4845    0.1591 C   0  0  2  0  0  0  0  0  0  0  0  0
    1.8310    1.3473    0.9507 C   0  0  1  0  0  0  0  0  0  0  0  0
   -3.7484    2.9747   -1.6174 C   0  0  0  0  0  0  0  0  0  0  0  0
    3.2182    1.3421    0.3082 C   0  0  2  0  0  0  0  0  0  0  0  0
    3.6738   -0.0814   -0.0132 C   0  0  1  0  0  0  0  0  0  0  0  0
    2.5833   -0.8427   -0.7705 C   0  0  1  0  0  0  0  0  0  0  0  0
   -3.1782   -2.6586    1.9375 C   0  0  0  0  0  0  0  0  0  0  0  0
   -1.7804   -2.7235   -0.1472 C   0  0  0  0  0  0  0  0  0  0  0  0
    2.9681   -2.3010   -0.9998 C   0  0  0  0  0  0  0  0  0  0  0  0
   -2.8264    0.0019    1.6883 H   0  0  0  0  0  0  0  0  0  0  0  0
   -1.2013   -0.2556   -0.8902 H   0  0  0  0  0  0  0  0  0  0  0  0
   -4.6845   -1.0772    0.4460 H   0  0  0  0  0  0  0  0  0  0  0  0
   -3.7098   -1.1686   -1.0198 H   0  0  0  0  0  0  0  0  0  0  0  0
   -1.2015    2.1849   -0.9506 H   0  0  0  0  0  0  0  0  0  0  0  0
   -2.1682    2.2637    0.4995 H   0  0  0  0  0  0  0  0  0  0  0  0
   -3.0158    1.0480   -2.1822 H   0  0  0  0  0  0  0  0  0  0  0  0
   -5.2326    0.6896   -1.1620 H   0  0  0  0  0  0  0  0  0  0  0  0
   -4.6742    1.3444    0.3748 H   0  0  0  0  0  0  0  0  0  0  0  0
   -1.2131   -1.8608    1.7300 H   0  0  0  0  0  0  0  0  0  0  0  0
    0.6809    0.9467   -0.8233 H   0  0  0  0  0  0  0  0  0  0  0  0
    1.8944    1.0041    1.9909 H   0  0  0  0  0  0  0  0  0  0  0  0
   -2.9783    3.5245   -2.1687 H   0  0  0  0  0  0  0  0  0  0  0  0
   -4.6389    2.9184   -2.2522 H   0  0  0  0  0  0  0  0  0  0  0  0
   -4.0049    3.5547   -0.7245 H   0  0  0  0  0  0  0  0  0  0  0  0
    3.2327    1.9723   -0.5889 H   0  0  0  0  0  0  0  0  0  0  0  0
    3.9303   -0.6049    0.9159 H   0  0  0  0  0  0  0  0  0  0  0  0
    2.3908   -0.3855   -1.7507 H   0  0  0  0  0  0  0  0  0  0  0  0
   -3.5178   -2.0461    2.7792 H   0  0  0  0  0  0  0  0  0  0  0  0
   -2.7584   -3.5814    2.3542 H   0  0  0  0  0  0  0  0  0  0  0  0
   -4.0498   -2.9516    1.3441 H   0  0  0  0  0  0  0  0  0  0  0  0
   -1.0139   -2.2580   -0.7670 H   0  0  0  0  0  0  0  0  0  0  0  0
   -1.3724   -3.6996    0.1447 H   0  0  0  0  0  0  0  0  0  0  0  0
   -2.6529   -2.9418   -0.7691 H   0  0  0  0  0  0  0  0  0  0  0  0
    3.1181   -2.8308   -0.0532 H   0  0  0  0  0  0  0  0  0  0  0  0
    3.8776   -2.3891   -1.6008 H   0  0  0  0  0  0  0  0  0  0  0  0
    0.4419    2.6512    1.3808 H   0  0  0  0  0  0  0  0  0  0  0  0
    4.1596    1.3866    2.0294 H   0  0  0  0  0  0  0  0  0  0  0  0
    4.6330    0.4217   -1.6441 H   0  0  0  0  0  0  0  0  0  0  0  0
    1.1234   -2.8975   -1.1271 H   0  0  0  0  0  0  0  0  0  0  0  0
  1  8  1  0  0  0  0
  1 14  1  0  0  0  0
  2 14  1  0  0  0  0
  2 19  1  0  0  0  0
  3 15  1  0  0  0  0
  3 49  1  0  0  0  0
  4 17  1  0  0  0  0
  4 50  1  0  0  0  0
  5 18  1  0  0  0  0
  5 51  1  0  0  0  0
  6 22  1  0  0  0  0
  6 52  1  0  0  0  0
  7  8  1  0  0  0  0
  7  9  1  0  0  0  0
  7 13  1  0  0  0  0
  7 23  1  0  0  0  0
  8 10  1  0  0  0  0
  8 24  1  0  0  0  0
  9 12  1  0  0  0  0
  9 25  1  0  0  0  0
  9 26  1  0  0  0  0
 10 11  1  0  0  0  0
 10 27  1  0  0  0  0
 10 28  1  0  0  0  0
 11 12  1  0  0  0  0
 11 16  1  0  0  0  0
 11 29  1  0  0  0  0
 12 30  1  0  0  0  0
 12 31  1  0  0  0  0
 13 20  1  0  0  0  0
 13 21  1  0  0  0  0
 13 32  1  0  0  0  0
 14 15  1  0  0  0  0
 14 33  1  0  0  0  0
 15 17  1  0  0  0  0
 15 34  1  0  0  0  0
 16 35  1  0  0  0  0
 16 36  1  0  0  0  0
 16 37  1  0  0  0  0
 17 18  1  0  0  0  0
 17 38  1  0  0  0  0
 18 19  1  0  0  0  0
 18 39  1  0  0  0  0
 19 22  1  0  0  0  0
 19 40  1  0  0  0  0
 20 41  1  0  0  0  0
 20 42  1  0  0  0  0
 20 43  1  0  0  0  0
 21 44  1  0  0  0  0
 21 45  1  0  0  0  0
 21 46  1  0  0  0  0
 22 47  1  0  0  0  0
 22 48  1  0  0  0  0
M  END
> <PUBCHEM_COMPOUND_CID>
5459767

> <PUBCHEM_CONFORMER_RMSD>
0.8

> <PUBCHEM_CONFORMER_DIVERSEORDER>
1
25
45
38
13
5
49
28
11
44
27
17
2
36
48
14
29
34
41
32
47
31
26
52
18
51
33
10
22
7
35
19
20
46
37
16
39
9
42
50
40
30
4
3
12
21
23
24
15
43
6
8

> <PUBCHEM_MMFF94_PARTIAL_CHARGES>
17
1 -0.56
14 0.56
15 0.28
17 0.28
18 0.28
19 0.28
2 -0.56
22 0.28
3 -0.68
4 -0.68
49 0.4
5 -0.68
50 0.4
51 0.4
52 0.4
6 -0.68
8 0.28

> <PUBCHEM_EFFECTIVE_ROTOR_COUNT>
6.4

> <PUBCHEM_PHARMACOPHORE_FEATURES>
13
1 1 acceptor
1 2 acceptor
1 3 acceptor
1 3 donor
1 4 acceptor
1 4 donor
1 5 acceptor
1 5 donor
1 6 acceptor
1 6 donor
3 13 20 21 hydrophobe
6 2 14 15 17 18 19 rings
6 7 8 9 10 11 12 rings

> <PUBCHEM_HEAVY_ATOM_COUNT>
22

> <PUBCHEM_ATOM_DEF_STEREO_COUNT>
8

> <PUBCHEM_ATOM_UDEF_STEREO_COUNT>
0

> <PUBCHEM_BOND_DEF_STEREO_COUNT>
0

> <PUBCHEM_BOND_UDEF_STEREO_COUNT>
0

> <PUBCHEM_ISOTOPIC_ATOM_COUNT>
0

> <PUBCHEM_COMPONENT_COUNT>
1

> <PUBCHEM_CACTVS_TAUTO_COUNT>
1

> <PUBCHEM_CONFORMER_ID>
00534F3700000001

> <PUBCHEM_MMFF94_ENERGY>
55.8274

> <PUBCHEM_FEATURE_SELFOVERLAP>
66.027

> <PUBCHEM_SHAPE_FINGERPRINT>
10366900 7 18409730638374181279
10498660 4 17773609397738437605
10646746 165 18201723959295605796
12173636 292 18059022799445469117
12236239 1 15698001833862210153
12500047 106 18343587373142788677
12553582 1 17756123937283507886
13034934 17 18044951064654355080
13402501 40 18410292497643324983
13544592 145 18268708492503115767
14251757 17 18338796826913928819
15375358 24 18408046199387359850
15635459 17 18334289885775907390
18186145 218 18267308814528309549
19049666 15 18338231664989091827
200 152 17313105258649051385
20645477 56 18343299288654780777
20645477 70 17748826323937881972
20693207 138 18337372933422904375
21065201 7 18202286883600439192
22182313 1 18409440375942102438
22943178 12 18411133636643952714
23526113 38 18335700597859631835
23557571 272 18272364278434416333
23559900 14 18337393867668361598
238 59 18041575739855569599
2748010 2 18408880728728783002
3187 122 17987230028743576611
3380486 145 18118677717659718939
495365 180 17896340106639423376
5161694 15 18340486793412935725
5895379 119 17774711060917677084
6049 1 18339069411303100945
6438718 38 13899703308888365222
7399639 24 17977107859830520209
81228 2 18058731291567514625
9709674 26 18410856555608871783
9925002 15 16248006884676335229

> <PUBCHEM_SHAPE_MULTIPOLES>
417.53
8.8
3.46
1.45
2.92
0.79
0.01
-1.96
1.33
-1.89
0.28
-0.08
0.32
3.66

> <PUBCHEM_SHAPE_SELFOVERLAP>
840.682

> <PUBCHEM_SHAPE_VOLUME>
242.2

> <PUBCHEM_COORDINATE_TYPE>
2
5
10

$$$$

