51090952
  -OEChem-06241223013D

 52 54  0     1  0  0  0  0  0999 V2000
   -0.5987   -2.6930    0.8875 O   0  0  0  0  0  0  0  0  0  0  0  0
   -2.6042   -1.7510   -0.4927 O   0  0  0  0  0  0  0  0  0  0  0  0
    4.6617    0.3446   -0.0749 N   0  0  0  0  0  0  0  0  0  0  0  0
    0.6287   -0.7453    0.5748 N   0  0  0  0  0  0  0  0  0  0  0  0
   -7.5138    2.7728    0.5270 N   0  0  0  0  0  0  0  0  0  0  0  0
    3.3077    0.3480    0.4783 C   0  0  0  0  0  0  0  0  0  0  0  0
    2.2860    0.6266   -0.6317 C   0  0  0  0  0  0  0  0  0  0  0  0
    3.0117   -0.9970    1.1542 C   0  0  0  0  0  0  0  0  0  0  0  0
    5.6513    0.1254    0.9894 C   0  0  0  0  0  0  0  0  0  0  0  0
    4.9256    1.5979   -0.7956 C   0  0  0  0  0  0  0  0  0  0  0  0
    0.8570    0.5408   -0.0956 C   0  0  0  0  0  0  0  0  0  0  0  0
    1.5695   -1.0498    1.6550 C   0  0  0  0  0  0  0  0  0  0  0  0
    7.0701    0.0699    0.4208 C   0  0  0  0  0  0  0  0  0  0  0  0
    6.3206    1.5907   -1.4224 C   0  0  0  0  0  0  0  0  0  0  0  0
    7.3976    1.3274   -0.3761 C   0  0  0  0  0  0  0  0  0  0  0  0
   -0.4063   -1.6338    0.2849 C   0  0  0  0  0  0  0  0  0  0  0  0
   -1.3305   -1.2496   -0.8429 C   0  0  1  0  0  0  0  0  0  0  0  0
   -0.8561   -1.8382   -2.1513 C   0  0  0  0  0  0  0  0  0  0  0  0
   -3.6039   -0.8311   -0.2844 C   0  0  0  0  0  0  0  0  0  0  0  0
   -3.4660    0.1347    0.7126 C   0  0  0  0  0  0  0  0  0  0  0  0
   -4.7558   -0.8627   -1.0705 C   0  0  0  0  0  0  0  0  0  0  0  0
   -4.4801    1.0688    0.9235 C   0  0  0  0  0  0  0  0  0  0  0  0
   -5.7698    0.0715   -0.8595 C   0  0  0  0  0  0  0  0  0  0  0  0
   -5.6320    1.0374    0.1374 C   0  0  0  0  0  0  0  0  0  0  0  0
   -6.6704    1.9950    0.3523 C   0  0  0  0  0  0  0  0  0  0  0  0
    3.2139    1.1421    1.2338 H   0  0  0  0  0  0  0  0  0  0  0  0
    2.3819    1.6358   -1.0438 H   0  0  0  0  0  0  0  0  0  0  0  0
    2.4087   -0.0909   -1.4537 H   0  0  0  0  0  0  0  0  0  0  0  0
    3.1800   -1.8211    0.4485 H   0  0  0  0  0  0  0  0  0  0  0  0
    3.6409   -1.1737    2.0312 H   0  0  0  0  0  0  0  0  0  0  0  0
    5.5140   -0.8377    1.4874 H   0  0  0  0  0  0  0  0  0  0  0  0
    5.5895    0.9101    1.7547 H   0  0  0  0  0  0  0  0  0  0  0  0
    4.8186    2.4675   -0.1342 H   0  0  0  0  0  0  0  0  0  0  0  0
    4.2532    1.7343   -1.6466 H   0  0  0  0  0  0  0  0  0  0  0  0
    1.3636   -2.0355    2.0842 H   0  0  0  0  0  0  0  0  0  0  0  0
    1.4092   -0.3081    2.4466 H   0  0  0  0  0  0  0  0  0  0  0  0
    0.6784    1.3270    0.6478 H   0  0  0  0  0  0  0  0  0  0  0  0
    0.1901    0.7326   -0.9318 H   0  0  0  0  0  0  0  0  0  0  0  0
    7.1732   -0.8100   -0.2273 H   0  0  0  0  0  0  0  0  0  0  0  0
    7.7926   -0.0478    1.2365 H   0  0  0  0  0  0  0  0  0  0  0  0
    6.5118    2.5514   -1.9141 H   0  0  0  0  0  0  0  0  0  0  0  0
    6.3715    0.8177   -2.2001 H   0  0  0  0  0  0  0  0  0  0  0  0
    7.4640    2.1851    0.3045 H   0  0  0  0  0  0  0  0  0  0  0  0
    8.3749    1.2229   -0.8598 H   0  0  0  0  0  0  0  0  0  0  0  0
   -1.4161   -0.1711   -0.9659 H   0  0  0  0  0  0  0  0  0  0  0  0
   -1.5580   -1.5994   -2.9574 H   0  0  0  0  0  0  0  0  0  0  0  0
    0.1354   -1.4658   -2.4268 H   0  0  0  0  0  0  0  0  0  0  0  0
   -0.8038   -2.9315   -2.0944 H   0  0  0  0  0  0  0  0  0  0  0  0
   -2.5788    0.1667    1.3389 H   0  0  0  0  0  0  0  0  0  0  0  0
   -4.8678   -1.6125   -1.8488 H   0  0  0  0  0  0  0  0  0  0  0  0
   -4.3588    1.8145    1.7056 H   0  0  0  0  0  0  0  0  0  0  0  0
   -6.6616    0.0342   -1.4806 H   0  0  0  0  0  0  0  0  0  0  0  0
  1 16  2  0  0  0  0
  2 17  1  0  0  0  0
  2 19  1  0  0  0  0
  3  6  1  0  0  0  0
  3  9  1  0  0  0  0
  3 10  1  0  0  0  0
  4 11  1  0  0  0  0
  4 12  1  0  0  0  0
  4 16  1  0  0  0  0
  5 25  3  0  0  0  0
  6  7  1  0  0  0  0
  6  8  1  0  0  0  0
  6 26  1  0  0  0  0
  7 11  1  0  0  0  0
  7 27  1  0  0  0  0
  7 28  1  0  0  0  0
  8 12  1  0  0  0  0
  8 29  1  0  0  0  0
  8 30  1  0  0  0  0
  9 13  1  0  0  0  0
  9 31  1  0  0  0  0
  9 32  1  0  0  0  0
 10 14  1  0  0  0  0
 10 33  1  0  0  0  0
 10 34  1  0  0  0  0
 11 37  1  0  0  0  0
 11 38  1  0  0  0  0
 12 35  1  0  0  0  0
 12 36  1  0  0  0  0
 13 15  1  0  0  0  0
 13 39  1  0  0  0  0
 13 40  1  0  0  0  0
 14 15  1  0  0  0  0
 14 41  1  0  0  0  0
 14 42  1  0  0  0  0
 15 43  1  0  0  0  0
 15 44  1  0  0  0  0
 16 17  1  0  0  0  0
 17 18  1  0  0  0  0
 17 45  1  0  0  0  0
 18 46  1  0  0  0  0
 18 47  1  0  0  0  0
 18 48  1  0  0  0  0
 19 20  2  0  0  0  0
 19 21  1  0  0  0  0
 20 22  1  0  0  0  0
 20 49  1  0  0  0  0
 21 23  2  0  0  0  0
 21 50  1  0  0  0  0
 22 24  2  0  0  0  0
 22 51  1  0  0  0  0
 23 24  1  0  0  0  0
 23 52  1  0  0  0  0
 24 25  1  0  0  0  0
M  END
> <PUBCHEM_COMPOUND_CID>
51090952

> <PUBCHEM_CONFORMER_RMSD>
1

> <PUBCHEM_CONFORMER_DIVERSEORDER>
1
75
99
177
44
115
135
231
146
100
46
217
164
86
172
85
102
91
167
165
156
202
203
51
97
219
226
5
162
230
116
188
218
59
79
126
191
221
150
235
20
154
137
157
134
229
6
133
127
233
178
65
88
98
70
103
55
227
175
106
26
93
56
18
101
95
121
120
152
179
190
207
47
173
52
114
170
180
14
81
123
142
187
144
34
82
225
234
174
158
43
7
108
205
149
12
69
166
214
77
194
198
31
40
228
42
90
199
76
29
213
201
222
216
112
200
72
71
39
151
60
129
161
32
53
15
25
136
212
185
197
63
141
195
208
125
160
128
16
62
186
211
104
45
10
209
73
13
139
196
105
22
163
168
67
117
204
58
41
130
8
192
153
17
80
89
19
159
138
122
143
66
113
110
223
155
36
3
184
27
193
183
171
232
57
61
78
30
215
83
224
220
111
11
124
109
87
9
189
92
64
182
35
48
74
118
147
148
119
210
24
28
37
169
206
131
94
49
140
84
4
176
181
107
68
96
132
54
23
38
21
33
50
2
145

> <PUBCHEM_MMFF94_PARTIAL_CHARGES>
23
1 -0.57
10 0.27
11 0.3
12 0.3
16 0.57
17 0.34
19 0.08
2 -0.36
20 -0.15
21 -0.15
22 -0.15
23 -0.15
24 0.07
25 0.48
3 -0.81
4 -0.66
49 0.15
5 -0.56
50 0.15
51 0.15
52 0.15
6 0.27
9 0.27

> <PUBCHEM_EFFECTIVE_ROTOR_COUNT>
7.4

> <PUBCHEM_PHARMACOPHORE_FEATURES>
7
1 1 acceptor
1 2 acceptor
1 3 cation
1 5 acceptor
6 19 20 21 22 23 24 rings
6 3 9 10 13 14 15 rings
6 4 6 7 8 11 12 rings

> <PUBCHEM_HEAVY_ATOM_COUNT>
25

> <PUBCHEM_ATOM_DEF_STEREO_COUNT>
0

> <PUBCHEM_ATOM_UDEF_STEREO_COUNT>
1

> <PUBCHEM_BOND_DEF_STEREO_COUNT>
0

> <PUBCHEM_BOND_UDEF_STEREO_COUNT>
0

> <PUBCHEM_ISOTOPIC_ATOM_COUNT>
0

> <PUBCHEM_COMPONENT_COUNT>
1

> <PUBCHEM_CACTVS_TAUTO_COUNT>
1

> <PUBCHEM_CONFORMER_ID>
030B960800000001

> <PUBCHEM_MMFF94_ENERGY>
53.9535

> <PUBCHEM_FEATURE_SELFOVERLAP>
35.531

> <PUBCHEM_SHAPE_FINGERPRINT>
10 15 16200433563341646249
106641 1 17418089898283474883
10670039 82 17967533493296873489
10674148 151 18410575090118511352
10730089 173 18260267447331892257
10906281 52 18201993301501492686
11089746 13 18334862680073796680
11796584 16 17240766130407334446
12035758 1 15051728677179460880
12236239 1 18413393120301862506
13668630 136 4895274827912660396
14251752 14 17676206871031892494
14251764 18 18201440251167899495
14931854 50 16515965982054356809
15183329 4 17385437735258194698
15439362 3 18189612916141759071
15475509 8 18411972590487350444
1577012 14 18410859866833276883
17349148 13 7637125887481481934
17780758 139 12751243610441318327
19958102 18 16950831583824422876
20526848 3 18413386553381444833
20621476 66 18413105065224251265
21315759 148 13973699355300859874
21315764 119 18113610176199892902
21521239 73 5328737461478265388
21756936 100 18412263900649356043
21781055 127 18342460353547370360
22122407 14 18201988920176480249
22224240 67 16415480437238260731
23198884 109 18186801340186061870
23389318 12 6988313946498908024
23522609 53 17845358991128665964
23559900 14 14996573837031174362
2838139 119 18260552199574488461
3009799 131 15140960647618213114
3014063 24 7348896568276970112
3411729 13 18339079401307977599
397830 11 13254506518749778526
4015057 19 4678531442383155882
4340502 62 15626506107667426752
437795 51 15338847503827691992
44880568 143 15791726416801032992
5104073 3 17273986731641745912
5718773 13 8574709092150514085
5911458 16 18341889705810319533
5969126 39 5906058031869692738
6328613 192 18340767040435720548
7226269 152 18334573533890090472

> <PUBCHEM_SHAPE_MULTIPOLES>
487.81
20.59
2.23
1.39
4.18
0.07
-0.26
16.47
-0.78
-2.63
-0.07
0.45
-0.43
-2.48

> <PUBCHEM_SHAPE_SELFOVERLAP>
1015.97

> <PUBCHEM_SHAPE_VOLUME>
273.2

> <PUBCHEM_COORDINATE_TYPE>
2
5
10

$$$$

