52687
  -OEChem-07051213012D

 13 13  0     0  0  0  0  0  0999 V2000
    2.3090   -1.5194    0.0000 S   0  0  0  0  0  0  0  0  0  0  0  0
    3.6750    1.5194    0.0000 O   0  0  0  0  0  0  0  0  0  0  0  0
    2.8090    0.0194    0.0000 N   0  0  0  0  0  0  0  0  0  0  0  0
    2.8090    1.0194    0.0000 N   0  0  0  0  0  0  0  0  0  0  0  0
    3.6180   -0.5684    0.0000 C   0  0  0  0  0  0  0  0  0  0  0  0
    3.3090   -1.5194    0.0000 C   0  0  0  0  0  0  0  0  0  0  0  0
    2.0000   -0.5684    0.0000 C   0  0  0  0  0  0  0  0  0  0  0  0
    4.1844   -0.8205    0.0000 H   0  0  0  0  0  0  0  0  0  0  0  0
    3.9280   -0.0314    0.0000 H   0  0  0  0  0  0  0  0  0  0  0  0
    3.2442   -2.1360    0.0000 H   0  0  0  0  0  0  0  0  0  0  0  0
    3.9155   -1.6483    0.0000 H   0  0  0  0  0  0  0  0  0  0  0  0
    1.6900   -0.0314    0.0000 H   0  0  0  0  0  0  0  0  0  0  0  0
    1.4336   -0.8205    0.0000 H   0  0  0  0  0  0  0  0  0  0  0  0
  1  6  1  0  0  0  0
  1  7  1  0  0  0  0
  2  4  2  0  0  0  0
  3  4  1  0  0  0  0
  3  5  1  0  0  0  0
  3  7  1  0  0  0  0
  5  6  1  0  0  0  0
  5  8  1  0  0  0  0
  5  9  1  0  0  0  0
  6 10  1  0  0  0  0
  6 11  1  0  0  0  0
  7 12  1  0  0  0  0
  7 13  1  0  0  0  0
M  END
> <PUBCHEM_COMPOUND_CID>
52687

> <PUBCHEM_COMPOUND_CANONICALIZED>
1

> <PUBCHEM_CACTVS_COMPLEXITY>
77.3

> <PUBCHEM_CACTVS_HBOND_ACCEPTOR>
4

> <PUBCHEM_CACTVS_HBOND_DONOR>
0

> <PUBCHEM_CACTVS_ROTATABLE_BOND>
0

> <PUBCHEM_CACTVS_SUBSKEYS>
AAADcYBDIABAAAAAAAAAAAAAAAAAAWAAAAAAAAAAAAAAAAAAAAAAHAQMAAAAAADFQASAAAIAAAgBAAAAAAAAAABAABAQAAAIAAAAAAAAAAAAAAAAAAAAAAAAAAAAAAAAAAAAAAAAAAAAAAAAAAAAAAAAAA==

> <PUBCHEM_IUPAC_OPENEYE_NAME>
3-nitrosothiazolidine

> <PUBCHEM_IUPAC_CAS_NAME>
3-nitrosothiazolidine

> <PUBCHEM_IUPAC_NAME>
3-nitroso-1,3-thiazolidine

> <PUBCHEM_IUPAC_SYSTEMATIC_NAME>
3-nitroso-1,3-thiazolidine

> <PUBCHEM_IUPAC_TRADITIONAL_NAME>
3-nitrosothiazolidine

> <PUBCHEM_IUPAC_INCHI>
InChI=1S/C3H6N2OS/c6-4-5-1-2-7-3-5/h1-3H2

> <PUBCHEM_IUPAC_INCHIKEY>
PROHBUGJUQHONA-UHFFFAOYSA-N

> <PUBCHEM_XLOGP3_AA>
0.7

> <PUBCHEM_EXACT_MASS>
118.020084

> <PUBCHEM_MOLECULAR_FORMULA>
C3H6N2OS

> <PUBCHEM_MOLECULAR_WEIGHT>
118.15754

> <PUBCHEM_OPENEYE_CAN_SMILES>
C1CSCN1N=O

> <PUBCHEM_OPENEYE_ISO_SMILES>
C1CSCN1N=O

> <PUBCHEM_CACTVS_TPSA>
58

> <PUBCHEM_MONOISOTOPIC_WEIGHT>
118.020084

> <PUBCHEM_TOTAL_CHARGE>
0

> <PUBCHEM_HEAVY_ATOM_COUNT>
7

> <PUBCHEM_ATOM_DEF_STEREO_COUNT>
0

> <PUBCHEM_ATOM_UDEF_STEREO_COUNT>
0

> <PUBCHEM_BOND_DEF_STEREO_COUNT>
0

> <PUBCHEM_BOND_UDEF_STEREO_COUNT>
0

> <PUBCHEM_ISOTOPIC_ATOM_COUNT>
0

> <PUBCHEM_COMPONENT_COUNT>
1

> <PUBCHEM_CACTVS_TAUTO_COUNT>
1

> <PUBCHEM_COORDINATE_TYPE>
1
5
255

$$$$

