439691
  -OEChem-07051212473D

 16 15  0     1  0  0  0  0  0999 V2000
    1.5342    1.4133    0.2367 O   0  0  0  0  0  0  0  0  0  0  0  0
    1.9505   -0.7150   -0.4292 O   0  0  0  0  0  0  0  0  0  0  0  0
   -0.4801   -1.6178    0.1810 N   0  0  0  0  0  0  0  0  0  0  0  0
   -0.2525   -0.1918    0.4138 C   0  0  2  0  0  0  0  0  0  0  0  0
   -1.2425    0.6482   -0.3990 C   0  0  0  0  0  0  0  0  0  0  0  0
   -2.6931    0.3461   -0.0447 C   0  0  0  0  0  0  0  0  0  0  0  0
    1.1835    0.1171    0.0414 C   0  0  0  0  0  0  0  0  0  0  0  0
   -0.3701    0.0064    1.4851 H   0  0  0  0  0  0  0  0  0  0  0  0
   -1.0546    1.7138   -0.2184 H   0  0  0  0  0  0  0  0  0  0  0  0
   -1.0896    0.4887   -1.4741 H   0  0  0  0  0  0  0  0  0  0  0  0
   -2.9719   -0.6772   -0.3141 H   0  0  0  0  0  0  0  0  0  0  0  0
   -3.3593    1.0237   -0.5886 H   0  0  0  0  0  0  0  0  0  0  0  0
   -2.8727    0.4846    1.0262 H   0  0  0  0  0  0  0  0  0  0  0  0
    0.2024   -2.1684    0.7001 H   0  0  0  0  0  0  0  0  0  0  0  0
   -0.3444   -1.8376   -0.8049 H   0  0  0  0  0  0  0  0  0  0  0  0
    2.4619    1.5859   -0.0317 H   0  0  0  0  0  0  0  0  0  0  0  0
  1  7  1  0  0  0  0
  1 16  1  0  0  0  0
  2  7  2  0  0  0  0
  3  4  1  0  0  0  0
  3 14  1  0  0  0  0
  3 15  1  0  0  0  0
  4  5  1  0  0  0  0
  4  7  1  0  0  0  0
  4  8  1  0  0  0  0
  5  6  1  0  0  0  0
  5  9  1  0  0  0  0
  5 10  1  0  0  0  0
  6 11  1  0  0  0  0
  6 12  1  0  0  0  0
  6 13  1  0  0  0  0
M  END
> <PUBCHEM_COMPOUND_CID>
439691

> <PUBCHEM_CONFORMER_RMSD>
0.4

> <PUBCHEM_CONFORMER_DIVERSEORDER>
1
6
8
7
3
4
5
2
9

> <PUBCHEM_MMFF94_PARTIAL_CHARGES>
8
1 -0.65
14 0.36
15 0.36
16 0.5
2 -0.57
3 -0.99
4 0.33
7 0.66

> <PUBCHEM_EFFECTIVE_ROTOR_COUNT>
2

> <PUBCHEM_PHARMACOPHORE_FEATURES>
6
1 1 acceptor
1 2 acceptor
1 3 cation
1 3 donor
1 6 hydrophobe
3 1 2 7 anion

> <PUBCHEM_HEAVY_ATOM_COUNT>
7

> <PUBCHEM_ATOM_DEF_STEREO_COUNT>
1

> <PUBCHEM_ATOM_UDEF_STEREO_COUNT>
0

> <PUBCHEM_BOND_DEF_STEREO_COUNT>
0

> <PUBCHEM_BOND_UDEF_STEREO_COUNT>
0

> <PUBCHEM_ISOTOPIC_ATOM_COUNT>
0

> <PUBCHEM_COMPONENT_COUNT>
1

> <PUBCHEM_CACTVS_TAUTO_COUNT>
1

> <PUBCHEM_CONFORMER_ID>
0006B58B00000001

> <PUBCHEM_MMFF94_ENERGY>
2.4661

> <PUBCHEM_FEATURE_SELFOVERLAP>
30.505

> <PUBCHEM_SHAPE_FINGERPRINT>
16714656 1 18130781278579960351
20096714 4 18412830187380571785
21040471 1 18342177734806247433
24536 1 18262811661256174480
29004967 10 8502362352213177429
5460574 1 8934994871795777237

> <PUBCHEM_SHAPE_MULTIPOLES>
127.34
2.96
1.28
0.66
1.14
0.19
0
-0.49
-0.24
-0.27
0.07
0.01
-0.01
0.2

> <PUBCHEM_SHAPE_SELFOVERLAP>
231.82

> <PUBCHEM_SHAPE_VOLUME>
81.6

> <PUBCHEM_COORDINATE_TYPE>
2
5
10

$$$$

