14118
  -OEChem-06241222422D

 28 30  0     0  0  0  0  0  0999 V2000
    4.5274    1.4148    0.0000 N   0  0  0  0  0  0  0  0  0  0  0  0
    7.3991   -1.4458    0.0000 N   0  0  0  0  0  0  0  0  0  0  0  0
    4.0274   -0.1241    0.0000 C   0  0  0  0  0  0  0  0  0  0  0  0
    3.7183    0.8270    0.0000 C   0  0  0  0  0  0  0  0  0  0  0  0
    3.3424   -0.9088    0.0000 C   0  0  0  0  0  0  0  0  0  0  0  0
    2.7029    1.0592    0.0000 C   0  0  0  0  0  0  0  0  0  0  0  0
    2.3219   -0.7001    0.0000 C   0  0  0  0  0  0  0  0  0  0  0  0
    2.0000    0.2905    0.0000 C   0  0  0  0  0  0  0  0  0  0  0  0
    5.0274   -0.1241    0.0000 C   0  0  0  0  0  0  0  0  0  0  0  0
    5.3364    0.8270    0.0000 C   0  0  0  0  0  0  0  0  0  0  0  0
    5.7123   -0.9088    0.0000 C   0  0  0  0  0  0  0  0  0  0  0  0
    6.3518    1.0592    0.0000 C   0  0  0  0  0  0  0  0  0  0  0  0
    6.7328   -0.7001    0.0000 C   0  0  0  0  0  0  0  0  0  0  0  0
    7.0547    0.2905    0.0000 C   0  0  0  0  0  0  0  0  0  0  0  0
    3.1160   -1.4860    0.0000 H   0  0  0  0  0  0  0  0  0  0  0  0
    3.8724   -1.2306    0.0000 H   0  0  0  0  0  0  0  0  0  0  0  0
    2.9426    1.6310    0.0000 H   0  0  0  0  0  0  0  0  0  0  0  0
    2.1806    1.3932    0.0000 H   0  0  0  0  0  0  0  0  0  0  0  0
    1.7081   -0.7880    0.0000 H   0  0  0  0  0  0  0  0  0  0  0  0
    2.3034   -1.3198    0.0000 H   0  0  0  0  0  0  0  0  0  0  0  0
    1.6208    0.7811    0.0000 H   0  0  0  0  0  0  0  0  0  0  0  0
    1.4518    0.0009    0.0000 H   0  0  0  0  0  0  0  0  0  0  0  0
    4.5274    2.0348    0.0000 H   0  0  0  0  0  0  0  0  0  0  0  0
    5.5139   -1.4962    0.0000 H   0  0  0  0  0  0  0  0  0  0  0  0
    6.5365    1.6510    0.0000 H   0  0  0  0  0  0  0  0  0  0  0  0
    7.6607    0.4218    0.0000 H   0  0  0  0  0  0  0  0  0  0  0  0
    8.0060   -1.3193    0.0000 H   0  0  0  0  0  0  0  0  0  0  0  0
    7.2052   -2.0348    0.0000 H   0  0  0  0  0  0  0  0  0  0  0  0
  1  4  1  0  0  0  0
  1 10  1  0  0  0  0
  1 23  1  0  0  0  0
  2 13  1  0  0  0  0
  2 27  1  0  0  0  0
  2 28  1  0  0  0  0
  3  4  2  0  0  0  0
  3  5  1  0  0  0  0
  3  9  1  0  0  0  0
  4  6  1  0  0  0  0
  5  7  1  0  0  0  0
  5 15  1  0  0  0  0
  5 16  1  0  0  0  0
  6  8  1  0  0  0  0
  6 17  1  0  0  0  0
  6 18  1  0  0  0  0
  7  8  1  0  0  0  0
  7 19  1  0  0  0  0
  7 20  1  0  0  0  0
  8 21  1  0  0  0  0
  8 22  1  0  0  0  0
  9 10  2  0  0  0  0
  9 11  1  0  0  0  0
 10 12  1  0  0  0  0
 11 13  2  0  0  0  0
 11 24  1  0  0  0  0
 12 14  2  0  0  0  0
 12 25  1  0  0  0  0
 13 14  1  0  0  0  0
 14 26  1  0  0  0  0
M  END
> <PUBCHEM_COMPOUND_CID>
14118

> <PUBCHEM_COMPOUND_CANONICALIZED>
1

> <PUBCHEM_CACTVS_COMPLEXITY>
216

> <PUBCHEM_CACTVS_HBOND_ACCEPTOR>
1

> <PUBCHEM_CACTVS_HBOND_DONOR>
2

> <PUBCHEM_CACTVS_ROTATABLE_BOND>
0

> <PUBCHEM_CACTVS_SUBSKEYS>
AAADccBzAAAAAAAAAAAAAAAAAAAAAWAAAAAwYAAAAAAAAFgB8AAAHAAQAAAADAiBHgAwwPLJkACgAyRiRACCgCAhAiAImSAwZJgIIOLAkZGEIAhgkADIyAcQgMAOgACAQAACAAAAAQCAAAQAAAAAAAAAAA==

> <PUBCHEM_IUPAC_OPENEYE_NAME>
6,7,8,9-tetrahydro-5H-carbazol-3-amine

> <PUBCHEM_IUPAC_CAS_NAME>
6,7,8,9-tetrahydro-5H-carbazol-3-amine

> <PUBCHEM_IUPAC_NAME>
6,7,8,9-tetrahydro-5H-carbazol-3-amine

> <PUBCHEM_IUPAC_SYSTEMATIC_NAME>
6,7,8,9-tetrahydro-5H-carbazol-3-amine

> <PUBCHEM_IUPAC_TRADITIONAL_NAME>
6,7,8,9-tetrahydro-5H-carbazol-3-ylamine

> <PUBCHEM_IUPAC_INCHI>
InChI=1S/C12H14N2/c13-8-5-6-12-10(7-8)9-3-1-2-4-11(9)14-12/h5-7,14H,1-4,13H2

> <PUBCHEM_IUPAC_INCHIKEY>
POYRLWQLOUUKAY-UHFFFAOYSA-N

> <PUBCHEM_XLOGP3_AA>
2.6

> <PUBCHEM_EXACT_MASS>
186.115698

> <PUBCHEM_MOLECULAR_FORMULA>
C12H14N2

> <PUBCHEM_MOLECULAR_WEIGHT>
186.25296

> <PUBCHEM_OPENEYE_CAN_SMILES>
C1CCC2=C(C1)C3=C(N2)C=CC(=C3)N

> <PUBCHEM_OPENEYE_ISO_SMILES>
C1CCC2=C(C1)C3=C(N2)C=CC(=C3)N

> <PUBCHEM_CACTVS_TPSA>
41.8

> <PUBCHEM_MONOISOTOPIC_WEIGHT>
186.115698

> <PUBCHEM_TOTAL_CHARGE>
0

> <PUBCHEM_HEAVY_ATOM_COUNT>
14

> <PUBCHEM_ATOM_DEF_STEREO_COUNT>
0

> <PUBCHEM_ATOM_UDEF_STEREO_COUNT>
0

> <PUBCHEM_BOND_DEF_STEREO_COUNT>
0

> <PUBCHEM_BOND_UDEF_STEREO_COUNT>
0

> <PUBCHEM_ISOTOPIC_ATOM_COUNT>
0

> <PUBCHEM_COMPONENT_COUNT>
1

> <PUBCHEM_CACTVS_TAUTO_COUNT>
1

> <PUBCHEM_COORDINATE_TYPE>
1
5
255

> <PUBCHEM_BONDANNOTATIONS>
1  10  8
1  4  8
10  12  8
11  13  8
12  14  8
13  14  8
3  4  8
3  9  8
9  10  8
9  11  8

$$$$

