3796
  -OEChem-06251223413D

 37 39  0     0  0  0  0  0  0999 V2000
    4.7323   -1.6431   -2.3530 Br  0  0  0  0  0  0  0  0  0  0  0  0
    5.5182    2.3515    1.6990 Br  0  0  0  0  0  0  0  0  0  0  0  0
   -3.6705    2.4437   -0.3283 O   0  0  0  0  0  0  0  0  0  0  0  0
   -5.4862    0.3450   -0.4708 O   0  0  0  0  0  0  0  0  0  0  0  0
    6.2522    0.3801   -0.5712 O   0  0  0  0  0  0  0  0  0  0  0  0
    0.8143    0.2549    0.6071 N   0  0  0  0  0  0  0  0  0  0  0  0
   -1.9914   -2.7786    0.3716 N   0  0  0  0  0  0  0  0  0  0  0  0
    0.2770   -2.0340    0.6979 N   0  0  0  0  0  0  0  0  0  0  0  0
   -1.4860   -0.4363    0.2710 C   0  0  0  0  0  0  0  0  0  0  0  0
   -2.3928   -1.5065    0.2021 C   0  0  0  0  0  0  0  0  0  0  0  0
   -0.1587   -0.7721    0.5233 C   0  0  0  0  0  0  0  0  0  0  0  0
   -1.9171    0.8897    0.0921 C   0  0  0  0  0  0  0  0  0  0  0  0
   -3.2595    1.1573   -0.1575 C   0  0  0  0  0  0  0  0  0  0  0  0
   -3.7304   -1.2099   -0.0488 C   0  0  0  0  0  0  0  0  0  0  0  0
   -4.1670    0.1061   -0.2279 C   0  0  0  0  0  0  0  0  0  0  0  0
    2.1859    0.2866    0.3099 C   0  0  0  0  0  0  0  0  0  0  0  0
    3.0391    1.1425    1.0129 C   0  0  0  0  0  0  0  0  0  0  0  0
    2.7085   -0.5377   -0.6914 C   0  0  0  0  0  0  0  0  0  0  0  0
   -0.6785   -2.9733    0.6099 C   0  0  0  0  0  0  0  0  0  0  0  0
    4.0714   -0.5063   -0.9867 C   0  0  0  0  0  0  0  0  0  0  0  0
    4.4020    1.1739    0.7176 C   0  0  0  0  0  0  0  0  0  0  0  0
    4.9181    0.3495   -0.2822 C   0  0  0  0  0  0  0  0  0  0  0  0
   -3.6555    2.9587   -1.6587 C   0  0  0  0  0  0  0  0  0  0  0  0
   -6.3255    0.5580    0.6624 C   0  0  0  0  0  0  0  0  0  0  0  0
   -1.2268    1.7282    0.1355 H   0  0  0  0  0  0  0  0  0  0  0  0
   -4.4552   -2.0205   -0.1083 H   0  0  0  0  0  0  0  0  0  0  0  0
    0.5072    1.0440    1.1692 H   0  0  0  0  0  0  0  0  0  0  0  0
    2.6330    1.7836    1.7928 H   0  0  0  0  0  0  0  0  0  0  0  0
    2.0522   -1.1973   -1.2547 H   0  0  0  0  0  0  0  0  0  0  0  0
   -0.3615   -4.0002    0.7453 H   0  0  0  0  0  0  0  0  0  0  0  0
   -2.6371    2.9534   -2.0601 H   0  0  0  0  0  0  0  0  0  0  0  0
   -4.0152    3.9909   -1.6305 H   0  0  0  0  0  0  0  0  0  0  0  0
   -4.3178    2.3746   -2.3055 H   0  0  0  0  0  0  0  0  0  0  0  0
   -6.3336   -0.3277    1.3054 H   0  0  0  0  0  0  0  0  0  0  0  0
   -7.3428    0.7407    0.3057 H   0  0  0  0  0  0  0  0  0  0  0  0
   -5.9917    1.4322    1.2305 H   0  0  0  0  0  0  0  0  0  0  0  0
    6.4272   -0.2546   -1.2873 H   0  0  0  0  0  0  0  0  0  0  0  0
  1 20  1  0  0  0  0
  2 21  1  0  0  0  0
  3 13  1  0  0  0  0
  3 23  1  0  0  0  0
  4 15  1  0  0  0  0
  4 24  1  0  0  0  0
  5 22  1  0  0  0  0
  5 37  1  0  0  0  0
  6 11  1  0  0  0  0
  6 16  1  0  0  0  0
  6 27  1  0  0  0  0
  7 10  1  0  0  0  0
  7 19  2  0  0  0  0
  8 11  2  0  0  0  0
  8 19  1  0  0  0  0
  9 10  1  0  0  0  0
  9 11  1  0  0  0  0
  9 12  2  0  0  0  0
 10 14  2  0  0  0  0
 12 13  1  0  0  0  0
 12 25  1  0  0  0  0
 13 15  2  0  0  0  0
 14 15  1  0  0  0  0
 14 26  1  0  0  0  0
 16 17  2  0  0  0  0
 16 18  1  0  0  0  0
 17 21  1  0  0  0  0
 17 28  1  0  0  0  0
 18 20  2  0  0  0  0
 18 29  1  0  0  0  0
 19 30  1  0  0  0  0
 20 22  1  0  0  0  0
 21 22  2  0  0  0  0
 23 31  1  0  0  0  0
 23 32  1  0  0  0  0
 23 33  1  0  0  0  0
 24 34  1  0  0  0  0
 24 35  1  0  0  0  0
 24 36  1  0  0  0  0
M  END
> <PUBCHEM_COMPOUND_CID>
3796

> <PUBCHEM_CONFORMER_RMSD>
0.8

> <PUBCHEM_CONFORMER_DIVERSEORDER>
2
16
8
10
5
13
15
4
12
11
3
14
9
1
7
6

> <PUBCHEM_MMFF94_PARTIAL_CHARGES>
30
1 -0.11
10 0.31
11 0.41
12 -0.15
13 0.08
14 -0.15
15 0.08
16 0.1
17 -0.15
18 -0.15
19 0.47
2 -0.11
20 0.11
21 0.11
22 0.08
23 0.28
24 0.28
25 0.15
26 0.15
27 0.4
28 0.15
29 0.15
3 -0.36
30 0.15
37 0.45
4 -0.36
5 -0.53
6 -0.6
7 -0.62
8 -0.62

> <PUBCHEM_EFFECTIVE_ROTOR_COUNT>
4

> <PUBCHEM_PHARMACOPHORE_FEATURES>
11
1 1 hydrophobe
1 2 hydrophobe
1 3 acceptor
1 4 acceptor
1 5 donor
1 6 donor
3 6 8 11 cation
3 7 8 19 cation
6 16 17 18 20 21 22 rings
6 7 8 9 10 11 19 rings
6 9 10 12 13 14 15 rings

> <PUBCHEM_HEAVY_ATOM_COUNT>
24

> <PUBCHEM_ATOM_DEF_STEREO_COUNT>
0

> <PUBCHEM_ATOM_UDEF_STEREO_COUNT>
0

> <PUBCHEM_BOND_DEF_STEREO_COUNT>
0

> <PUBCHEM_BOND_UDEF_STEREO_COUNT>
0

> <PUBCHEM_ISOTOPIC_ATOM_COUNT>
0

> <PUBCHEM_COMPONENT_COUNT>
1

> <PUBCHEM_CACTVS_TAUTO_COUNT>
8

> <PUBCHEM_CONFORMER_ID>
00000ED400000002

> <PUBCHEM_MMFF94_ENERGY>
103.3939

> <PUBCHEM_FEATURE_SELFOVERLAP>
55.994

> <PUBCHEM_SHAPE_FINGERPRINT>
10411042 1 17621038660397647811
10498660 4 18269562787295032629
10591671 39 17917982893868641239
10670039 82 17845644979820456260
10835480 77 18041563529543251760
12236239 1 16988846051508910442
12390115 104 18266170816052249433
12403259 415 18409732888969114889
12596602 18 16200142162664151832
12916748 109 18272649051945847761
13140716 1 18056475059389836449
13402501 40 18334579005752350024
13544592 145 18335975454692497126
13911987 19 16879060842189237400
14251757 17 18261108608202767968
15042514 8 18127687137492004507
15183329 4 17821721771347496402
15575132 122 17775283898202298733
17349148 13 14490187228708516902
18608769 82 18341885252271995363
200 152 16226041206612051906
20645477 56 18410854343521080571
20645477 70 17385717020102232710
21033648 29 18412832403510467241
21033650 10 17987783220583964516
21065201 7 18341330016206171738
21279426 13 18265610073506075926
21315764 268 18342468027588752300
22122407 14 15051727620912815381
221357 26 18040714800602175656
22393880 68 18336545005826328422
23366157 5 17485934339325220299
23557571 272 18411132516169373348
23559900 14 18334008381430439498
2747138 104 18200579338422873129
29717793 49 16009018493710342748
3545911 37 18408602556850935320
4015057 19 17531250539117012616
495365 180 17603877680674039466
5104073 3 18129665352046408001
5283173 99 18409450280521925936
633830 44 18115595975049803357
9709674 26 18261387794099482022
9981440 41 18131073757674691531

> <PUBCHEM_SHAPE_MULTIPOLES>
473.24
14.48
2.88
1.43
2.49
0.15
0.63
-6.5
1.83
-0.38
0
1.49
-0.13
3.87

> <PUBCHEM_SHAPE_SELFOVERLAP>
1003.616

> <PUBCHEM_SHAPE_VOLUME>
274.5

> <PUBCHEM_COORDINATE_TYPE>
2
5
10

$$$$

