440453
  -OEChem-07051212493D

 73 78  0     1  0  0  0  0  0999 V2000
    3.0789    0.8319   -0.8962 O   0  0  0  0  0  0  0  0  0  0  0  0
    4.7288    0.0623    0.6186 O   0  0  0  0  0  0  0  0  0  0  0  0
   -8.3264    0.5961    0.4395 O   0  0  0  0  0  0  0  0  0  0  0  0
    6.4200    1.7715    2.0723 O   0  0  0  0  0  0  0  0  0  0  0  0
    0.2767   -0.8940   -0.0870 C   0  0  1  0  0  0  0  0  0  0  0  0
   -0.3454    0.5127    0.0738 C   0  0  2  0  0  0  0  0  0  0  0  0
    1.7191   -0.6155    0.4303 C   0  0  2  0  0  0  0  0  0  0  0  0
   -1.7964    0.5986   -0.4078 C   0  0  1  0  0  0  0  0  0  0  0  0
    1.9948    0.8503    0.0274 C   0  0  2  0  0  0  0  0  0  0  0  0
    0.7025    1.4239   -0.5560 C   0  0  0  0  0  0  0  0  0  0  0  0
   -2.6624   -0.4312    0.3759 C   0  0  2  0  0  0  0  0  0  0  0  0
    2.8994   -1.3925   -0.1633 C   0  0  1  0  0  0  0  0  0  0  0  0
   -0.5341   -1.8514    0.7994 C   0  0  0  0  0  0  0  0  0  0  0  0
    3.9037   -0.2867   -0.5069 C   0  0  1  0  0  0  0  0  0  0  0  0
   -2.0255   -1.8482    0.4189 C   0  0  0  0  0  0  0  0  0  0  0  0
   -4.1659   -0.4125   -0.1132 C   0  0  2  0  0  0  0  0  0  0  0  0
    0.2566   -1.4024   -1.5508 C   0  0  0  0  0  0  0  0  0  0  0  0
   -2.3540    2.0161   -0.2084 C   0  0  0  0  0  0  0  0  0  0  0  0
   -4.6680    1.0290   -0.2781 C   0  0  0  0  0  0  0  0  0  0  0  0
    4.8620   -0.6236   -1.6364 C   0  0  0  0  0  0  0  0  0  0  0  0
    3.4210   -2.4693    0.7799 C   0  0  0  0  0  0  0  0  0  0  0  0
   -5.0367   -1.1362    0.9571 C   0  0  0  0  0  0  0  0  0  0  0  0
   -3.8443    2.0914   -0.3029 C   0  0  0  0  0  0  0  0  0  0  0  0
    6.0464    0.4079    0.1466 C   0  0  1  0  0  0  0  0  0  0  0  0
   -4.3236   -1.1322   -1.4743 C   0  0  0  0  0  0  0  0  0  0  0  0
    5.9868    0.3553   -1.3804 C   0  0  0  0  0  0  0  0  0  0  0  0
   -6.1602    1.2291   -0.4083 C   0  0  0  0  0  0  0  0  0  0  0  0
   -6.5428   -0.9657    0.7637 C   0  0  0  0  0  0  0  0  0  0  0  0
   -6.9283    0.5076    0.6955 C   0  0  2  0  0  0  0  0  0  0  0  0
    6.3952    1.8027    0.6570 C   0  0  0  0  0  0  0  0  0  0  0  0
    7.0224   -0.6248    0.7142 C   0  0  0  0  0  0  0  0  0  0  0  0
   -0.3612    0.7590    1.1497 H   0  0  0  0  0  0  0  0  0  0  0  0
    1.7259   -0.6696    1.5277 H   0  0  0  0  0  0  0  0  0  0  0  0
   -1.8396    0.3774   -1.4798 H   0  0  0  0  0  0  0  0  0  0  0  0
    2.3020    1.4311    0.9067 H   0  0  0  0  0  0  0  0  0  0  0  0
    0.6925    1.3899   -1.6503 H   0  0  0  0  0  0  0  0  0  0  0  0
    0.5690    2.4694   -0.2595 H   0  0  0  0  0  0  0  0  0  0  0  0
   -2.6639   -0.0844    1.4225 H   0  0  0  0  0  0  0  0  0  0  0  0
    2.6165   -1.8850   -1.0966 H   0  0  0  0  0  0  0  0  0  0  0  0
   -0.4434   -1.5607    1.8540 H   0  0  0  0  0  0  0  0  0  0  0  0
   -0.1374   -2.8711    0.7251 H   0  0  0  0  0  0  0  0  0  0  0  0
   -2.1343   -2.3491   -0.5472 H   0  0  0  0  0  0  0  0  0  0  0  0
   -2.5595   -2.4701    1.1462 H   0  0  0  0  0  0  0  0  0  0  0  0
    0.9017   -0.8091   -2.2067 H   0  0  0  0  0  0  0  0  0  0  0  0
    0.5943   -2.4438   -1.6038 H   0  0  0  0  0  0  0  0  0  0  0  0
   -0.7410   -1.3854   -1.9968 H   0  0  0  0  0  0  0  0  0  0  0  0
   -1.9200    2.6805   -0.9653 H   0  0  0  0  0  0  0  0  0  0  0  0
   -2.0582    2.4146    0.7700 H   0  0  0  0  0  0  0  0  0  0  0  0
    4.4246   -0.4950   -2.6309 H   0  0  0  0  0  0  0  0  0  0  0  0
    5.2407   -1.6477   -1.5465 H   0  0  0  0  0  0  0  0  0  0  0  0
    4.2922   -2.9745    0.3511 H   0  0  0  0  0  0  0  0  0  0  0  0
    3.7140   -2.0558    1.7505 H   0  0  0  0  0  0  0  0  0  0  0  0
    2.6489   -3.2248    0.9598 H   0  0  0  0  0  0  0  0  0  0  0  0
   -4.7813   -0.7566    1.9558 H   0  0  0  0  0  0  0  0  0  0  0  0
   -4.8129   -2.2096    0.9689 H   0  0  0  0  0  0  0  0  0  0  0  0
   -4.2612    3.0909   -0.4010 H   0  0  0  0  0  0  0  0  0  0  0  0
   -3.6468   -0.7232   -2.2315 H   0  0  0  0  0  0  0  0  0  0  0  0
   -4.1245   -2.2054   -1.3900 H   0  0  0  0  0  0  0  0  0  0  0  0
   -5.3380   -1.0433   -1.8775 H   0  0  0  0  0  0  0  0  0  0  0  0
    6.9303    0.0536   -1.8454 H   0  0  0  0  0  0  0  0  0  0  0  0
    5.7135    1.3337   -1.7953 H   0  0  0  0  0  0  0  0  0  0  0  0
   -6.4278    2.2936   -0.3875 H   0  0  0  0  0  0  0  0  0  0  0  0
   -6.4961    0.8743   -1.3909 H   0  0  0  0  0  0  0  0  0  0  0  0
   -6.8778   -1.4876   -0.1412 H   0  0  0  0  0  0  0  0  0  0  0  0
   -7.0794   -1.4470    1.5907 H   0  0  0  0  0  0  0  0  0  0  0  0
   -6.7351    0.9831    1.6650 H   0  0  0  0  0  0  0  0  0  0  0  0
    5.6455    2.5411    0.3536 H   0  0  0  0  0  0  0  0  0  0  0  0
    7.3762    2.1299    0.2988 H   0  0  0  0  0  0  0  0  0  0  0  0
    8.0565   -0.3928    0.4393 H   0  0  0  0  0  0  0  0  0  0  0  0
    6.9548   -0.6883    1.8060 H   0  0  0  0  0  0  0  0  0  0  0  0
    6.7893   -1.6301    0.3453 H   0  0  0  0  0  0  0  0  0  0  0  0
   -8.5583    1.5397    0.4034 H   0  0  0  0  0  0  0  0  0  0  0  0
    5.5391    1.4921    2.3756 H   0  0  0  0  0  0  0  0  0  0  0  0
  1  9  1  0  0  0  0
  1 14  1  0  0  0  0
  2 14  1  0  0  0  0
  2 24  1  0  0  0  0
  3 29  1  0  0  0  0
  3 72  1  0  0  0  0
  4 30  1  0  0  0  0
  4 73  1  0  0  0  0
  5  6  1  0  0  0  0
  5  7  1  0  0  0  0
  5 13  1  0  0  0  0
  5 17  1  0  0  0  0
  6  8  1  0  0  0  0
  6 10  1  0  0  0  0
  6 32  1  0  0  0  0
  7  9  1  0  0  0  0
  7 12  1  0  0  0  0
  7 33  1  0  0  0  0
  8 11  1  0  0  0  0
  8 18  1  0  0  0  0
  8 34  1  0  0  0  0
  9 10  1  0  0  0  0
  9 35  1  0  0  0  0
 10 36  1  0  0  0  0
 10 37  1  0  0  0  0
 11 15  1  0  0  0  0
 11 16  1  0  0  0  0
 11 38  1  0  0  0  0
 12 14  1  0  0  0  0
 12 21  1  0  0  0  0
 12 39  1  0  0  0  0
 13 15  1  0  0  0  0
 13 40  1  0  0  0  0
 13 41  1  0  0  0  0
 14 20  1  0  0  0  0
 15 42  1  0  0  0  0
 15 43  1  0  0  0  0
 16 19  1  0  0  0  0
 16 22  1  0  0  0  0
 16 25  1  0  0  0  0
 17 44  1  0  0  0  0
 17 45  1  0  0  0  0
 17 46  1  0  0  0  0
 18 23  1  0  0  0  0
 18 47  1  0  0  0  0
 18 48  1  0  0  0  0
 19 23  2  0  0  0  0
 19 27  1  0  0  0  0
 20 26  1  0  0  0  0
 20 49  1  0  0  0  0
 20 50  1  0  0  0  0
 21 51  1  0  0  0  0
 21 52  1  0  0  0  0
 21 53  1  0  0  0  0
 22 28  1  0  0  0  0
 22 54  1  0  0  0  0
 22 55  1  0  0  0  0
 23 56  1  0  0  0  0
 24 26  1  0  0  0  0
 24 30  1  0  0  0  0
 24 31  1  0  0  0  0
 25 57  1  0  0  0  0
 25 58  1  0  0  0  0
 25 59  1  0  0  0  0
 26 60  1  0  0  0  0
 26 61  1  0  0  0  0
 27 29  1  0  0  0  0
 27 62  1  0  0  0  0
 27 63  1  0  0  0  0
 28 29  1  0  0  0  0
 28 64  1  0  0  0  0
 28 65  1  0  0  0  0
 29 66  1  0  0  0  0
 30 67  1  0  0  0  0
 30 68  1  0  0  0  0
 31 69  1  0  0  0  0
 31 70  1  0  0  0  0
 31 71  1  0  0  0  0
M  END
> <PUBCHEM_COMPOUND_CID>
440453

> <PUBCHEM_CONFORMER_RMSD>
0.8

> <PUBCHEM_CONFORMER_DIVERSEORDER>
1

> <PUBCHEM_MMFF94_PARTIAL_CHARGES>
17
1 -0.56
14 0.56
16 0.14
18 0.14
19 -0.28
2 -0.56
23 -0.29
24 0.28
27 0.14
29 0.28
3 -0.68
30 0.28
4 -0.68
56 0.15
72 0.4
73 0.4
9 0.28

> <PUBCHEM_EFFECTIVE_ROTOR_COUNT>
3.8

> <PUBCHEM_PHARMACOPHORE_FEATURES>
12
1 1 acceptor
1 2 acceptor
1 3 acceptor
1 3 donor
1 4 acceptor
1 4 donor
5 1 7 9 12 14 rings
5 2 14 20 24 26 rings
5 5 6 7 9 10 rings
6 16 19 22 27 28 29 rings
6 5 6 8 11 13 15 rings
6 8 11 16 18 19 23 rings

> <PUBCHEM_HEAVY_ATOM_COUNT>
31

> <PUBCHEM_ATOM_DEF_STEREO_COUNT>
11

> <PUBCHEM_ATOM_UDEF_STEREO_COUNT>
0

> <PUBCHEM_BOND_DEF_STEREO_COUNT>
0

> <PUBCHEM_BOND_UDEF_STEREO_COUNT>
0

> <PUBCHEM_ISOTOPIC_ATOM_COUNT>
0

> <PUBCHEM_COMPONENT_COUNT>
1

> <PUBCHEM_CACTVS_TAUTO_COUNT>
1

> <PUBCHEM_CONFORMER_ID>
0006B88500000001

> <PUBCHEM_MMFF94_ENERGY>
111.5161

> <PUBCHEM_FEATURE_SELFOVERLAP>
61.337

> <PUBCHEM_SHAPE_FINGERPRINT>
10 15 18342460309875140232
10906281 52 18339905087400804983
11135926 11 18130798870940863943
11181472 205 16299491955324000065
11578080 2 17387426631370117090
11646440 116 18334287669462214672
11719270 70 18130788975515348082
11963148 33 18272370841245659099
12166972 35 11743838071302621158
12236239 1 17203607081835137502
12516196 113 18334010592500223241
12788726 201 18188205532741604785
12838862 33 18271538550430613341
13073987 5 18272370927196582907
13533116 47 18271246131028341882
14028597 1 17060351746444719136
14251764 18 18059856151633439387
14341114 176 18271520992124200815
14394314 77 18338230587639103481
14461889 52 18273211984893623234
14849402 71 18198900323347536268
14856354 85 17989196020238182895
15183329 4 18131627889500804853
15196674 1 18271243931994094747
16087824 20 18270399529879535061
18608769 82 18341611486951108267
19377110 9 17632581573402946736
20511986 3 18271259290633654046
21033648 29 17968673614082773216
21130935 74 18337950190487771835
21150785 3 16298109778549393661
21267235 1 18343011203274800927
21521721 280 17748826306483569528
21792934 111 18342466983890113448
22149856 69 18270384110017735337
22224240 67 18259985968329317583
23198884 109 16732698372705212987
23402539 116 18412546500928227199
23559900 14 18336552611955005209
23569917 315 17917705829692521498
24771293 8 18191034413384124876
3004659 81 17917985062748193124
3178227 256 18058996342636797457
335352 9 18343016670762868343
3383291 50 18130785608134582891
34797466 226 17676203585239486204
350125 39 18343298171973898453
3545911 37 18342174483526508492
4073 2 17704061872334024027
4093350 32 17385720305361986124
4325135 7 18272928336758146085
4340502 62 17989488528637665610
44317340 157 17821730529350146452
5104073 3 18269557302473473112
5109719 28 18337667500014185104

> <PUBCHEM_SHAPE_MULTIPOLES>
614.49
19.96
2.08
1.24
2.39
0.05
-0.14
-4.74
4.03
-0.06
0.29
-1.21
0.08
0.88

> <PUBCHEM_SHAPE_SELFOVERLAP>
1330.177

> <PUBCHEM_SHAPE_VOLUME>
337.6

> <PUBCHEM_COORDINATE_TYPE>
2
5
10

$$$$

