3622
  -OEChem-06251223333D

 45 47  0     1  0  0  0  0  0999 V2000
    0.0422    0.9786    0.9038 O   0  0  0  0  0  0  0  0  0  0  0  0
    0.7139    1.9307   -1.0866 O   0  0  0  0  0  0  0  0  0  0  0  0
    3.1068    2.5445    0.1798 O   0  0  0  0  0  0  0  0  0  0  0  0
   -3.3350   -1.1902   -0.0705 N   0  3  0  0  0  0  0  0  0  0  0  0
   -3.5764   -0.1038    0.9983 C   0  0  2  0  0  0  0  0  0  0  0  0
   -2.7909   -0.3165   -1.2200 C   0  0  1  0  0  0  0  0  0  0  0  0
   -4.2798    1.0073    0.2014 C   0  0  0  0  0  0  0  0  0  0  0  0
   -3.7696    0.8693   -1.2389 C   0  0  0  0  0  0  0  0  0  0  0  0
   -2.2252    0.3971    1.5391 C   0  0  0  0  0  0  0  0  0  0  0  0
   -1.3708    0.1656   -0.8737 C   0  0  0  0  0  0  0  0  0  0  0  0
   -1.3048    0.9540    0.4434 C   0  0  0  0  0  0  0  0  0  0  0  0
   -2.4098   -2.3245    0.3661 C   0  0  0  0  0  0  0  0  0  0  0  0
   -4.6529   -1.8831   -0.4706 C   0  0  0  0  0  0  0  0  0  0  0  0
    0.9613    1.4975    0.0318 C   0  0  0  0  0  0  0  0  0  0  0  0
    2.3499    1.4331    0.6369 C   0  0  1  0  0  0  0  0  0  0  0  0
    3.0847    0.1658    0.2746 C   0  0  0  0  0  0  0  0  0  0  0  0
    2.9637   -0.9475    1.0915 C   0  0  0  0  0  0  0  0  0  0  0  0
    3.8678    0.1372   -0.8687 C   0  0  0  0  0  0  0  0  0  0  0  0
    3.6430   -2.1188    0.7567 C   0  0  0  0  0  0  0  0  0  0  0  0
    4.5472   -1.0341   -1.2035 C   0  0  0  0  0  0  0  0  0  0  0  0
    4.4348   -2.1622   -0.3909 C   0  0  0  0  0  0  0  0  0  0  0  0
   -4.1991   -0.5236    1.7952 H   0  0  0  0  0  0  0  0  0  0  0  0
   -2.8046   -0.9019   -2.1454 H   0  0  0  0  0  0  0  0  0  0  0  0
   -4.0838    2.0045    0.6099 H   0  0  0  0  0  0  0  0  0  0  0  0
   -5.3673    0.8707    0.2268 H   0  0  0  0  0  0  0  0  0  0  0  0
   -4.6087    0.6658   -1.9143 H   0  0  0  0  0  0  0  0  0  0  0  0
   -3.3026    1.7936   -1.5960 H   0  0  0  0  0  0  0  0  0  0  0  0
   -2.4008    1.1891    2.2794 H   0  0  0  0  0  0  0  0  0  0  0  0
   -1.7155   -0.3902    2.1066 H   0  0  0  0  0  0  0  0  0  0  0  0
   -0.6655   -0.6738   -0.8689 H   0  0  0  0  0  0  0  0  0  0  0  0
   -1.0624    0.7892   -1.7189 H   0  0  0  0  0  0  0  0  0  0  0  0
   -1.6077    1.9928    0.2536 H   0  0  0  0  0  0  0  0  0  0  0  0
   -2.8797   -2.8390    1.2098 H   0  0  0  0  0  0  0  0  0  0  0  0
   -2.2855   -3.0054   -0.4814 H   0  0  0  0  0  0  0  0  0  0  0  0
   -1.4348   -1.9452    0.6707 H   0  0  0  0  0  0  0  0  0  0  0  0
   -5.0323   -2.4184    0.4051 H   0  0  0  0  0  0  0  0  0  0  0  0
   -5.3895   -1.1499   -0.8014 H   0  0  0  0  0  0  0  0  0  0  0  0
   -4.4344   -2.5801   -1.2852 H   0  0  0  0  0  0  0  0  0  0  0  0
    2.2810    1.5359    1.7265 H   0  0  0  0  0  0  0  0  0  0  0  0
    2.6878    3.3490    0.5308 H   0  0  0  0  0  0  0  0  0  0  0  0
    2.3479   -0.9240    1.9860 H   0  0  0  0  0  0  0  0  0  0  0  0
    3.9606    0.9965   -1.5263 H   0  0  0  0  0  0  0  0  0  0  0  0
    3.5547   -2.9975    1.3890 H   0  0  0  0  0  0  0  0  0  0  0  0
    5.1609   -1.0692   -2.0990 H   0  0  0  0  0  0  0  0  0  0  0  0
    4.9628   -3.0746   -0.6523 H   0  0  0  0  0  0  0  0  0  0  0  0
  1 11  1  0  0  0  0
  1 14  1  0  0  0  0
  2 14  2  0  0  0  0
  3 15  1  0  0  0  0
  3 40  1  0  0  0  0
  4  5  1  0  0  0  0
  4  6  1  0  0  0  0
  4 12  1  0  0  0  0
  4 13  1  0  0  0  0
  5  7  1  0  0  0  0
  5  9  1  0  0  0  0
  5 22  1  0  0  0  0
  6  8  1  0  0  0  0
  6 10  1  0  0  0  0
  6 23  1  0  0  0  0
  7  8  1  0  0  0  0
  7 24  1  0  0  0  0
  7 25  1  0  0  0  0
  8 26  1  0  0  0  0
  8 27  1  0  0  0  0
  9 11  1  0  0  0  0
  9 28  1  0  0  0  0
  9 29  1  0  0  0  0
 10 11  1  0  0  0  0
 10 30  1  0  0  0  0
 10 31  1  0  0  0  0
 11 32  1  0  0  0  0
 12 33  1  0  0  0  0
 12 34  1  0  0  0  0
 12 35  1  0  0  0  0
 13 36  1  0  0  0  0
 13 37  1  0  0  0  0
 13 38  1  0  0  0  0
 14 15  1  0  0  0  0
 15 16  1  0  0  0  0
 15 39  1  0  0  0  0
 16 17  2  0  0  0  0
 16 18  1  0  0  0  0
 17 19  1  0  0  0  0
 17 41  1  0  0  0  0
 18 20  2  0  0  0  0
 18 42  1  0  0  0  0
 19 21  2  0  0  0  0
 19 43  1  0  0  0  0
 20 21  1  0  0  0  0
 20 44  1  0  0  0  0
 21 45  1  0  0  0  0
M  CHG  1   4   1
M  END
> <PUBCHEM_COMPOUND_CID>
3622

> <PUBCHEM_CONFORMER_RMSD>
0.8

> <PUBCHEM_CONFORMER_DIVERSEORDER>
1
22
51
10
57
58
36
2
43
16
32
7
26
37
11
50
27
29
63
56
3
30
46
25
52
60
13
59
38
62
55
40
34
45
19
20
35
21
53
47
31
23
42
48
18
17
9
15
33
41
5
24
4
6
44
39
54
14
28
12
8
49
61

> <PUBCHEM_MMFF94_PARTIAL_CHARGES>
23
1 -0.43
11 0.28
12 0.5
13 0.5
14 0.66
15 0.48
16 -0.14
17 -0.15
18 -0.15
19 -0.15
2 -0.57
20 -0.15
21 -0.15
3 -0.68
4 -1.01
40 0.4
41 0.15
42 0.15
43 0.15
44 0.15
45 0.15
5 0.5
6 0.5

> <PUBCHEM_EFFECTIVE_ROTOR_COUNT>
5.2

> <PUBCHEM_PHARMACOPHORE_FEATURES>
6
1 2 acceptor
1 3 acceptor
1 3 donor
1 4 cation
6 16 17 18 19 20 21 rings
8 4 5 6 7 8 9 10 11 rings

> <PUBCHEM_HEAVY_ATOM_COUNT>
21

> <PUBCHEM_ATOM_DEF_STEREO_COUNT>
0

> <PUBCHEM_ATOM_UDEF_STEREO_COUNT>
3

> <PUBCHEM_BOND_DEF_STEREO_COUNT>
0

> <PUBCHEM_BOND_UDEF_STEREO_COUNT>
0

> <PUBCHEM_ISOTOPIC_ATOM_COUNT>
0

> <PUBCHEM_COMPONENT_COUNT>
1

> <PUBCHEM_CACTVS_TAUTO_COUNT>
1

> <PUBCHEM_CONFORMER_ID>
00000E2600000001

> <PUBCHEM_MMFF94_ENERGY>
70.2092

> <PUBCHEM_FEATURE_SELFOVERLAP>
30.45

> <PUBCHEM_SHAPE_FINGERPRINT>
10062212 137 17967537874210747567
10498660 4 13470688143916602278
11405975 8 18334857225344258489
11578080 2 18042425649702337496
12107183 9 18045491173834617817
12173636 292 14548748334584534903
12553582 1 18338231682517140298
12596599 1 18333445469478083770
12633257 1 18187918534194026603
128620 24 12535622773788772561
13167823 11 18333730187207382289
13224815 77 17603585205484223626
13533116 47 18189056404607467059
13583140 156 17896330107940143137
13631057 29 17684089084690749686
15188451 53 15864936316320341685
15239154 128 11815898967774240519
15239191 94 18408321103259240994
15537594 2 18270387395404141162
16752209 62 18195538209772473512
17349148 13 17530685411694312837
17492 89 18335984160243455495
17818456 19 18188480410559417041
1798214 20 18410857689575033966
1813 80 18263069063442513772
18186145 218 18343306959060118241
193927 3 18113892775793402862
20281475 54 18411136948206247056
20291156 8 18335700563684165344
20645477 70 18409733937146564708
21250096 35 18261677059940755992
21521239 73 18190770616676772327
221490 88 18340199692314053282
2215653 11 18340777017633582983
2255824 54 18336825300013950024
22646028 28 18113899351156009874
235170 7 16200145517260612742
23557571 272 14979087221182303672
23559900 14 18334301959103102056
2838139 119 9510094403657722139
3004659 81 18202002183435968386
314173 41 18410288138399167220
3323516 105 18202846547656062994
339767 52 18261683665795928314
351380 180 7565342016014864326
44062 13 18410860988310488127
46194498 28 17488740060622086813
463206 1 18200315571032562170
4921388 177 16343690024409889843
5104073 3 17967530155985673275
5161694 15 17918000506917592349
5281201 14 17917991672270364332
633830 44 16845573119162362245
7808743 9 9365901193115990610
7970288 3 18262798605047127822
960060 61 18060134353844927910
9709674 26 18341050696812348819

> <PUBCHEM_SHAPE_MULTIPOLES>
409.58
10.56
2.42
1.29
1.76
0.41
0.03
4.58
1.55
1.1
-0.07
-0.19
-0.02
-0.01

> <PUBCHEM_SHAPE_SELFOVERLAP>
865.613

> <PUBCHEM_SHAPE_VOLUME>
230.4

> <PUBCHEM_COORDINATE_TYPE>
2
5
10

$$$$

