22743
  -OEChem-07051213053D

 37 39  0     0  0  0  0  0  0999 V2000
    0.9981   -3.4964   -0.0002 N   0  0  0  0  0  0  0  0  0  0  0  0
    0.5700   -0.0133    0.0000 C   0  0  0  0  0  0  0  0  0  0  0  0
   -0.0979    1.3131    0.0001 C   0  0  0  0  0  0  0  0  0  0  0  0
    2.0531   -0.0935    0.0000 C   0  0  0  0  0  0  0  0  0  0  0  0
   -0.1714   -1.1688   -0.0007 C   0  0  0  0  0  0  0  0  0  0  0  0
   -1.6259   -1.1745   -0.0003 C   0  0  0  0  0  0  0  0  0  0  0  0
   -0.3979    1.9087   -1.2080 C   0  0  0  0  0  0  0  0  0  0  0  0
    2.7188   -0.1297    1.2081 C   0  0  0  0  0  0  0  0  0  0  0  0
   -0.3979    1.9089    1.2081 C   0  0  0  0  0  0  0  0  0  0  0  0
    2.7190   -0.1296   -1.2080 C   0  0  0  0  0  0  0  0  0  0  0  0
   -2.3230   -1.1771    1.2079 C   0  0  0  0  0  0  0  0  0  0  0  0
   -2.3238   -1.1774   -1.2081 C   0  0  0  0  0  0  0  0  0  0  0  0
   -1.0250    3.1547   -1.2082 C   0  0  0  0  0  0  0  0  0  0  0  0
    4.1117   -0.2048    1.2082 C   0  0  0  0  0  0  0  0  0  0  0  0
   -1.0251    3.1548    1.2078 C   0  0  0  0  0  0  0  0  0  0  0  0
    4.1119   -0.2048   -1.2077 C   0  0  0  0  0  0  0  0  0  0  0  0
   -1.3387    3.7777   -0.0003 C   0  0  0  0  0  0  0  0  0  0  0  0
    4.8081   -0.2424    0.0004 C   0  0  0  0  0  0  0  0  0  0  0  0
   -3.7179   -1.1830    1.2084 C   0  0  0  0  0  0  0  0  0  0  0  0
   -3.7186   -1.1831   -1.2075 C   0  0  0  0  0  0  0  0  0  0  0  0
   -4.4157   -1.1858    0.0008 C   0  0  0  0  0  0  0  0  0  0  0  0
    0.4881   -2.4538   -0.0007 C   0  0  0  0  0  0  0  0  0  0  0  0
   -0.1594    1.4331   -2.1552 H   0  0  0  0  0  0  0  0  0  0  0  0
    2.1872   -0.1022    2.1551 H   0  0  0  0  0  0  0  0  0  0  0  0
   -0.1595    1.4334    2.1553 H   0  0  0  0  0  0  0  0  0  0  0  0
    2.1876   -0.1021   -2.1552 H   0  0  0  0  0  0  0  0  0  0  0  0
   -1.7945   -1.1752    2.1584 H   0  0  0  0  0  0  0  0  0  0  0  0
   -1.7959   -1.1757   -2.1589 H   0  0  0  0  0  0  0  0  0  0  0  0
   -1.2696    3.6395   -2.1488 H   0  0  0  0  0  0  0  0  0  0  0  0
    4.6539   -0.2346    2.1488 H   0  0  0  0  0  0  0  0  0  0  0  0
   -1.2699    3.6397    2.1482 H   0  0  0  0  0  0  0  0  0  0  0  0
    4.6544   -0.2345   -2.1482 H   0  0  0  0  0  0  0  0  0  0  0  0
   -1.8274    4.7476   -0.0004 H   0  0  0  0  0  0  0  0  0  0  0  0
    5.8926   -0.3011    0.0006 H   0  0  0  0  0  0  0  0  0  0  0  0
   -4.2606   -1.1849    2.1491 H   0  0  0  0  0  0  0  0  0  0  0  0
   -4.2621   -1.1851   -2.1478 H   0  0  0  0  0  0  0  0  0  0  0  0
   -5.5017   -1.1899    0.0011 H   0  0  0  0  0  0  0  0  0  0  0  0
  1 22  3  0  0  0  0
  2  3  1  0  0  0  0
  2  4  1  0  0  0  0
  2  5  2  0  0  0  0
  3  7  2  0  0  0  0
  3  9  1  0  0  0  0
  4  8  2  0  0  0  0
  4 10  1  0  0  0  0
  5  6  1  0  0  0  0
  5 22  1  0  0  0  0
  6 11  2  0  0  0  0
  6 12  1  0  0  0  0
  7 13  1  0  0  0  0
  7 23  1  0  0  0  0
  8 14  1  0  0  0  0
  8 24  1  0  0  0  0
  9 15  2  0  0  0  0
  9 25  1  0  0  0  0
 10 16  2  0  0  0  0
 10 26  1  0  0  0  0
 11 19  1  0  0  0  0
 11 27  1  0  0  0  0
 12 20  2  0  0  0  0
 12 28  1  0  0  0  0
 13 17  2  0  0  0  0
 13 29  1  0  0  0  0
 14 18  2  0  0  0  0
 14 30  1  0  0  0  0
 15 17  1  0  0  0  0
 15 31  1  0  0  0  0
 16 18  1  0  0  0  0
 16 32  1  0  0  0  0
 17 33  1  0  0  0  0
 18 34  1  0  0  0  0
 19 21  2  0  0  0  0
 19 35  1  0  0  0  0
 20 21  1  0  0  0  0
 20 36  1  0  0  0  0
 21 37  1  0  0  0  0
M  END
> <PUBCHEM_COMPOUND_CID>
22743

> <PUBCHEM_CONFORMER_RMSD>
0.6

> <PUBCHEM_CONFORMER_DIVERSEORDER>
1

> <PUBCHEM_MMFF94_PARTIAL_CHARGES>
37
1 -0.56
10 -0.15
11 -0.15
12 -0.15
13 -0.15
14 -0.15
15 -0.15
16 -0.15
17 -0.15
18 -0.15
19 -0.15
2 -0.06
20 -0.15
21 -0.15
22 0.49
23 0.15
24 0.15
25 0.15
26 0.15
27 0.15
28 0.15
29 0.15
3 0.03
30 0.15
31 0.15
32 0.15
33 0.15
34 0.15
35 0.15
36 0.15
37 0.15
4 0.03
5 0.04
6 0.03
7 -0.15
8 -0.15
9 -0.15

> <PUBCHEM_EFFECTIVE_ROTOR_COUNT>
3

> <PUBCHEM_PHARMACOPHORE_FEATURES>
4
1 1 acceptor
6 3 7 9 13 15 17 rings
6 4 8 10 14 16 18 rings
6 6 11 12 19 20 21 rings

> <PUBCHEM_HEAVY_ATOM_COUNT>
22

> <PUBCHEM_ATOM_DEF_STEREO_COUNT>
0

> <PUBCHEM_ATOM_UDEF_STEREO_COUNT>
0

> <PUBCHEM_BOND_DEF_STEREO_COUNT>
0

> <PUBCHEM_BOND_UDEF_STEREO_COUNT>
0

> <PUBCHEM_ISOTOPIC_ATOM_COUNT>
0

> <PUBCHEM_COMPONENT_COUNT>
1

> <PUBCHEM_CACTVS_TAUTO_COUNT>
1

> <PUBCHEM_CONFORMER_ID>
000058D700000001

> <PUBCHEM_MMFF94_ENERGY>
77.652

> <PUBCHEM_FEATURE_SELFOVERLAP>
20.297

> <PUBCHEM_SHAPE_FINGERPRINT>
10165383 225 17687996002209020808
104564 63 18411417353788796553
10764073 3 15361311693791748489
11578080 2 17388568113455486403
12553582 1 18411415072918731723
12788726 201 18411410705416961756
13134695 92 18192435173669551637
13140716 1 18267302040926754907
13149001 5 17981328889143401263
133893 2 17620778088561542789
13681431 1 18122624950954289957
13911987 19 18271237206101924118
13965767 371 17246631084053213371
14081887 123 18262522618631731473
14178342 30 18194406808655849472
14181834 199 17902238810349732309
14790565 3 18338786832420204797
14955137 171 18193539109008296971
15238133 3 18271508863442421053
15848700 24 18334862666750973518
1601671 61 18410575106781454635
16752209 62 18341338863712038326
16945 1 18410855447275226727
17357779 13 18262249853943623021
1813 80 18335411323084901773
20028762 73 17827070710992834359
20510252 161 18408045117541034440
20600515 1 18190447277878398980
20739085 24 18196350573098970513
21041028 32 18339069394587741097
21285901 2 18114450223761849790
21330990 113 18335418001869953481
21756936 100 16913648300171411468
229495 10 14129607952082645680
23175994 123 18272086050816776767
23402539 116 18334859390023534910
23419403 2 17459777863595559497
23558518 356 17984985053115927962
238 59 16758891217559086589
266924 87 18338802337357261958
283562 15 18410856585694586042
3027735 51 18339361988633466027
350125 39 18121773095978597242
469060 322 18341880914122703601
484985 159 15368325560307030070
5171179 24 17969805002473354761
589210 1 17979638158045146635
68521 5 18411700997513196565
6992083 37 17823132333334342239
7164475 11 18341897445731082078
7495541 125 17701814389500502123
81228 2 18339633537898447080
9981440 41 17394501091204888042

> <PUBCHEM_SHAPE_MULTIPOLES>
447.77
7.14
3.75
1.42
3.62
3.17
0
-3.82
0
-2.38
0
-0.08
0.3
0

> <PUBCHEM_SHAPE_SELFOVERLAP>
987.475

> <PUBCHEM_SHAPE_VOLUME>
236.4

> <PUBCHEM_COORDINATE_TYPE>
2
5
10

$$$$

