59771
  -OEChem-07051213013D

 37 37  0     1  0  0  0  0  0999 V2000
    3.4205   -1.1697   -0.4739 S   0  0  1  0  0  0  0  0  0  0  0  0
   -2.7101    1.0052   -0.1763 O   0  0  0  0  0  0  0  0  0  0  0  0
    3.2386   -2.4546    0.2798 O   0  0  0  0  0  0  0  0  0  0  0  0
    4.9365   -0.6988    1.5741 O   0  0  0  0  0  0  0  0  0  0  0  0
    5.4687    0.7393   -0.1804 N   0  0  0  0  0  0  0  0  0  0  0  0
    0.7479   -0.4385   -0.4737 C   0  0  0  0  0  0  0  0  0  0  0  0
   -0.3683    0.5179   -0.0494 C   0  0  0  0  0  0  0  0  0  0  0  0
    2.1141   -0.0411    0.0735 C   0  0  0  0  0  0  0  0  0  0  0  0
   -1.7157    0.0904   -0.6158 C   0  0  0  0  0  0  0  0  0  0  0  0
    4.7543   -0.2940    0.4295 C   0  0  0  0  0  0  0  0  0  0  0  0
   -3.9823    0.5150   -0.0344 C   0  0  0  0  0  0  0  0  0  0  0  0
    5.1978    1.1691   -1.5477 C   0  0  0  0  0  0  0  0  0  0  0  0
    6.5324    1.4576    0.5075 C   0  0  0  0  0  0  0  0  0  0  0  0
   -4.4111   -0.5298   -0.8449 C   0  0  0  0  0  0  0  0  0  0  0  0
   -4.8299    1.0683    0.9182 C   0  0  0  0  0  0  0  0  0  0  0  0
   -5.7060   -1.0280   -0.7009 C   0  0  0  0  0  0  0  0  0  0  0  0
   -6.1247    0.5698    1.0622 C   0  0  0  0  0  0  0  0  0  0  0  0
   -6.5627   -0.4783    0.2526 C   0  0  0  0  0  0  0  0  0  0  0  0
    0.5014   -1.4538   -0.1375 H   0  0  0  0  0  0  0  0  0  0  0  0
    0.7914   -0.4775   -1.5698 H   0  0  0  0  0  0  0  0  0  0  0  0
   -0.1395    1.5381   -0.3816 H   0  0  0  0  0  0  0  0  0  0  0  0
   -0.4295    0.5642    1.0451 H   0  0  0  0  0  0  0  0  0  0  0  0
    2.3720    0.9664   -0.2693 H   0  0  0  0  0  0  0  0  0  0  0  0
    2.0961   -0.0367    1.1687 H   0  0  0  0  0  0  0  0  0  0  0  0
   -1.6812    0.0960   -1.7115 H   0  0  0  0  0  0  0  0  0  0  0  0
   -1.9183   -0.9291   -0.2622 H   0  0  0  0  0  0  0  0  0  0  0  0
    4.4864    0.5400   -2.0802 H   0  0  0  0  0  0  0  0  0  0  0  0
    4.8063    2.1904   -1.5142 H   0  0  0  0  0  0  0  0  0  0  0  0
    6.1387    1.1654   -2.1069 H   0  0  0  0  0  0  0  0  0  0  0  0
    6.6594    1.0870    1.5279 H   0  0  0  0  0  0  0  0  0  0  0  0
    7.4673    1.3187   -0.0426 H   0  0  0  0  0  0  0  0  0  0  0  0
    6.2774    2.5206    0.5411 H   0  0  0  0  0  0  0  0  0  0  0  0
   -3.7862   -0.9663   -1.6178 H   0  0  0  0  0  0  0  0  0  0  0  0
   -4.4926    1.8846    1.5505 H   0  0  0  0  0  0  0  0  0  0  0  0
   -6.0498   -1.8397   -1.3355 H   0  0  0  0  0  0  0  0  0  0  0  0
   -6.7919    0.9981    1.8044 H   0  0  0  0  0  0  0  0  0  0  0  0
   -7.5714   -0.8652    0.3637 H   0  0  0  0  0  0  0  0  0  0  0  0
  1  3  2  0  0  0  0
  1  8  1  0  0  0  0
  1 10  1  0  0  0  0
  2  9  1  0  0  0  0
  2 11  1  0  0  0  0
  4 10  2  0  0  0  0
  5 10  1  0  0  0  0
  5 12  1  0  0  0  0
  5 13  1  0  0  0  0
  6  7  1  0  0  0  0
  6  8  1  0  0  0  0
  6 19  1  0  0  0  0
  6 20  1  0  0  0  0
  7  9  1  0  0  0  0
  7 21  1  0  0  0  0
  7 22  1  0  0  0  0
  8 23  1  0  0  0  0
  8 24  1  0  0  0  0
  9 25  1  0  0  0  0
  9 26  1  0  0  0  0
 11 14  2  0  0  0  0
 11 15  1  0  0  0  0
 12 27  1  0  0  0  0
 12 28  1  0  0  0  0
 12 29  1  0  0  0  0
 13 30  1  0  0  0  0
 13 31  1  0  0  0  0
 13 32  1  0  0  0  0
 14 16  1  0  0  0  0
 14 33  1  0  0  0  0
 15 17  2  0  0  0  0
 15 34  1  0  0  0  0
 16 18  2  0  0  0  0
 16 35  1  0  0  0  0
 17 18  1  0  0  0  0
 17 36  1  0  0  0  0
 18 37  1  0  0  0  0
M  END
> <PUBCHEM_COMPOUND_CID>
59771

> <PUBCHEM_CONFORMER_RMSD>
0.8

> <PUBCHEM_CONFORMER_DIVERSEORDER>
1
222
205
26
134
307
399
204
217
237
461
181
31
383
159
338
474
29
401
61
331
447
116
438
347
132
149
295
39
192
212
158
88
144
330
89
115
332
436
358
322
126
64
203
445
429
225
19
100
156
242
253
80
32
344
246
446
418
256
309
35
258
404
182
33
414
434
92
423
177
380
153
171
402
473
324
10
266
65
397
226
262
274
69
314
140
208
78
7
105
4
28
194
12
378
163
17
162
281
282
36
394
272
390
375
15
137
20
41
187
228
273
460
150
320
482
370
255
484
412
146
67
184
299
104
367
398
466
21
230
63
72
337
47
229
169
157
44
108
369
147
303
365
293
457
200
236
247
433
260
286
214
68
387
120
6
231
76
124
22
334
469
244
458
188
349
306
75
60
341
478
86
285
191
279
220
472
259
481
110
9
372
325
300
178
113
261
54
30
143
444
84
90
114
252
173
207
172
5
364
363
127
189
422
288
183
164
267
421
453
154
305
40
348
38
151
13
53
321
278
85
238
407
51
161
176
227
11
476
167
131
218
301
396
195
483
296
73
74
269
96
400
125
142
94
37
145
18
356
58
430
463
213
479
190
312
449
435
141
289
480
333
82
345
233
360
186
451
91
276
215
2
128
248
268
468
239
95
317
206
351
323
318
297
264
313
155
389
98
343
294
374
477
117
304
66
280
55
87
243
454
310
219
335
420
257
450
99
327
202
391
371
34
148
81
410
119
130
379
417
419
328
62
93
376
455
211
48
277
166
79
224
199
427
160
388
23
361
424
57
254
152
24
386
350
77
174
232
284
223
315
291
459
42
403
27
45
437
250
384
52
179
290
416
135
432
241
336
475
138
326
368
123
112
185
101
471
359
431
139
298
83
240
3
97
70
59
428
362
439
71
385
425
392
25
408
292
270
234
136
56
133
467
415
221
170
107
287
216
283
319
193
411
121
452
377
355
271
8
442
102
381
302
16
316
103
382
168
209
111
275
251
180
342
50
14
486
329
235
265
46
49
43
464
462
308
456
465
249
118
393
485
165
426
339
122
109
210
245
441
354
487
129
106
395
346
197
440
198
373
201
406
175
409
443
357
196
352
353
340
311
448
405
470
366
413
263

> <PUBCHEM_MMFF94_PARTIAL_CHARGES>
21
1 0.21
10 0.73
11 0.08
12 0.3
13 0.3
14 -0.15
15 -0.15
16 -0.15
17 -0.15
18 -0.15
2 -0.36
3 -0.5
33 0.15
34 0.15
35 0.15
36 0.15
37 0.15
4 -0.57
5 -0.66
8 0.19
9 0.28

> <PUBCHEM_EFFECTIVE_ROTOR_COUNT>
8

> <PUBCHEM_PHARMACOPHORE_FEATURES>
3
1 2 acceptor
1 3 acceptor
6 11 14 15 16 17 18 rings

> <PUBCHEM_HEAVY_ATOM_COUNT>
18

> <PUBCHEM_ATOM_DEF_STEREO_COUNT>
0

> <PUBCHEM_ATOM_UDEF_STEREO_COUNT>
1

> <PUBCHEM_BOND_DEF_STEREO_COUNT>
0

> <PUBCHEM_BOND_UDEF_STEREO_COUNT>
0

> <PUBCHEM_ISOTOPIC_ATOM_COUNT>
0

> <PUBCHEM_COMPONENT_COUNT>
1

> <PUBCHEM_CACTVS_TAUTO_COUNT>
1

> <PUBCHEM_CONFORMER_ID>
0000E97B00000001

> <PUBCHEM_MMFF94_ENERGY>
39.458

> <PUBCHEM_FEATURE_SELFOVERLAP>
15.223

> <PUBCHEM_SHAPE_FINGERPRINT>
10354089 29 17749392567951780096
10763959 59 5328741846782553283
10912923 1 18335984254695332195
11315181 36 18259704481111075273
11719270 70 13686303473714485320
11724838 91 18272935986437739542
11858739 19 11600009860114292000
12516196 113 18344145886711796573
12596602 18 18187080689333380819
13533116 47 17632018654221327914
13955234 65 18339929320376877394
1420 363 16845569829359520001
14251718 22 18187082845106009781
14251732 16 18334576815418872315
14251752 14 9079125436218809535
14251764 18 18040152916828973415
146900 427 18408608050340863120
14848160 23 15841552980957280993
14933364 13 16732699441376804640
15716309 27 18412545423012793915
17834072 33 18408324375781727405
17834072 8 7060377028866781756
17844677 252 18201435951504943724
18222031 100 13183018557982816502
19377110 9 18412261757017342881
220451 1 18113616798511987559
22224240 67 18201160971357184168
22896161 15 18335985281429912167
23081809 10 17968101944770883631
23559900 14 13038610813956532567
29717793 49 9727637224303063336
300161 21 18335703862240121847
328311 84 7420945400549888173
34797466 226 17385718063515827076
4325135 7 18413108355395878286
4340502 62 17775566442541430610
5104073 3 18058172910868777560
542803 24 17530967994419027701
5758199 1 18408603630898578040
8988823 20 16128658540161766916

> <PUBCHEM_SHAPE_MULTIPOLES>
351.69
20.42
1.47
1.11
1.73
0.42
-0.01
-3.21
2.38
-1.21
0.13
-0.8
-0.07
-1.36

> <PUBCHEM_SHAPE_SELFOVERLAP>
683.998

> <PUBCHEM_SHAPE_VOLUME>
212.8

> <PUBCHEM_COORDINATE_TYPE>
2
5
10

$$$$

