17395622
  -OEChem-06241222512D

 50 53  0     0  0  0  0  0  0999 V2000
    2.0000    4.5364    0.0000 S   0  0  0  0  0  0  0  0  0  0  0  0
    3.3654   -3.4619    0.0000 O   0  0  0  0  0  0  0  0  0  0  0  0
    6.2132   -1.3928    0.0000 O   0  0  0  0  0  0  0  0  0  0  0  0
    5.4389   -0.3747    0.0000 O   0  0  0  0  0  0  0  0  0  0  0  0
    5.9345   -3.1529    0.0000 N   0  0  0  0  0  0  0  0  0  0  0  0
    4.6254   -2.2018    0.0000 N   0  0  0  0  0  0  0  0  0  0  0  0
    3.8566    0.3297    0.0000 N   0  0  0  0  0  0  0  0  0  0  0  0
    2.6810    1.9478    0.0000 N   0  0  0  0  0  0  0  0  0  0  0  0
    5.1254   -3.7407    0.0000 C   0  0  0  0  0  0  0  0  0  0  0  0
    5.9345   -4.3285    0.0000 C   0  0  0  0  0  0  0  0  0  0  0  0
    4.3164   -4.3285    0.0000 C   0  0  0  0  0  0  0  0  0  0  0  0
    5.6254   -5.2795    0.0000 C   0  0  0  0  0  0  0  0  0  0  0  0
    4.6254   -5.2795    0.0000 C   0  0  0  0  0  0  0  0  0  0  0  0
    4.3164   -3.1529    0.0000 C   0  0  0  0  0  0  0  0  0  0  0  0
    5.6254   -2.2018    0.0000 C   0  0  0  0  0  0  0  0  0  0  0  0
    4.0377   -1.3928    0.0000 C   0  0  0  0  0  0  0  0  0  0  0  0
    4.2634    1.2433    0.0000 C   0  0  0  0  0  0  0  0  0  0  0  0
    2.8621    0.2252    0.0000 C   0  0  0  0  0  0  0  0  0  0  0  0
    4.4444   -0.4793    0.0000 C   0  0  0  0  0  0  0  0  0  0  0  0
    3.6756    2.0523    0.0000 C   0  0  0  0  0  0  0  0  0  0  0  0
    2.2743    1.0342    0.0000 C   0  0  0  0  0  0  0  0  0  0  0  0
    2.0933    2.7568    0.0000 C   0  0  0  0  0  0  0  0  0  0  0  0
    2.5000    3.6703    0.0000 C   0  0  0  0  0  0  0  0  0  0  0  0
    3.4782    3.8783    0.0000 C   0  0  0  0  0  0  0  0  0  0  0  0
    3.5827    4.8728    0.0000 C   0  0  0  0  0  0  0  0  0  0  0  0
    2.6691    5.2795    0.0000 C   0  0  0  0  0  0  0  0  0  0  0  0
    4.0064   -3.7915    0.0000 H   0  0  0  0  0  0  0  0  0  0  0  0
    3.7500   -4.5806    0.0000 H   0  0  0  0  0  0  0  0  0  0  0  0
    6.5009   -4.5806    0.0000 H   0  0  0  0  0  0  0  0  0  0  0  0
    6.2445   -3.7915    0.0000 H   0  0  0  0  0  0  0  0  0  0  0  0
    4.0190   -5.4084    0.0000 H   0  0  0  0  0  0  0  0  0  0  0  0
    4.6903   -5.8961    0.0000 H   0  0  0  0  0  0  0  0  0  0  0  0
    5.5606   -5.8961    0.0000 H   0  0  0  0  0  0  0  0  0  0  0  0
    6.2319   -5.4084    0.0000 H   0  0  0  0  0  0  0  0  0  0  0  0
    6.5241   -3.3445    0.0000 H   0  0  0  0  0  0  0  0  0  0  0  0
    3.5237   -1.0461    0.0000 H   0  0  0  0  0  0  0  0  0  0  0  0
    3.6070   -1.8388    0.0000 H   0  0  0  0  0  0  0  0  0  0  0  0
    4.7774    0.8966    0.0000 H   0  0  0  0  0  0  0  0  0  0  0  0
    4.6940    1.6893    0.0000 H   0  0  0  0  0  0  0  0  0  0  0  0
    2.3048   -0.0466    0.0000 H   0  0  0  0  0  0  0  0  0  0  0  0
    3.0330   -0.3708    0.0000 H   0  0  0  0  0  0  0  0  0  0  0  0
    1.7603    1.3809    0.0000 H   0  0  0  0  0  0  0  0  0  0  0  0
    1.8436    0.5882    0.0000 H   0  0  0  0  0  0  0  0  0  0  0  0
    4.2328    2.3241    0.0000 H   0  0  0  0  0  0  0  0  0  0  0  0
    3.5047    2.6483    0.0000 H   0  0  0  0  0  0  0  0  0  0  0  0
    1.5793    3.1035    0.0000 H   0  0  0  0  0  0  0  0  0  0  0  0
    1.6626    2.3108    0.0000 H   0  0  0  0  0  0  0  0  0  0  0  0
    3.9389    3.4634    0.0000 H   0  0  0  0  0  0  0  0  0  0  0  0
    4.1196    5.1828    0.0000 H   0  0  0  0  0  0  0  0  0  0  0  0
    2.5402    5.8860    0.0000 H   0  0  0  0  0  0  0  0  0  0  0  0
  1 23  1  0  0  0  0
  1 26  1  0  0  0  0
  2 14  2  0  0  0  0
  3 15  2  0  0  0  0
  4 19  2  0  0  0  0
  5  9  1  0  0  0  0
  5 15  1  0  0  0  0
  5 35  1  0  0  0  0
  6 14  1  0  0  0  0
  6 15  1  0  0  0  0
  6 16  1  0  0  0  0
  7 17  1  0  0  0  0
  7 18  1  0  0  0  0
  7 19  1  0  0  0  0
  8 20  1  0  0  0  0
  8 21  1  0  0  0  0
  8 22  1  0  0  0  0
  9 10  1  0  0  0  0
  9 11  1  0  0  0  0
  9 14  1  0  0  0  0
 10 12  1  0  0  0  0
 10 29  1  0  0  0  0
 10 30  1  0  0  0  0
 11 13  1  0  0  0  0
 11 27  1  0  0  0  0
 11 28  1  0  0  0  0
 12 13  1  0  0  0  0
 12 33  1  0  0  0  0
 12 34  1  0  0  0  0
 13 31  1  0  0  0  0
 13 32  1  0  0  0  0
 16 19  1  0  0  0  0
 16 36  1  0  0  0  0
 16 37  1  0  0  0  0
 17 20  1  0  0  0  0
 17 38  1  0  0  0  0
 17 39  1  0  0  0  0
 18 21  1  0  0  0  0
 18 40  1  0  0  0  0
 18 41  1  0  0  0  0
 20 44  1  0  0  0  0
 20 45  1  0  0  0  0
 21 42  1  0  0  0  0
 21 43  1  0  0  0  0
 22 23  1  0  0  0  0
 22 46  1  0  0  0  0
 22 47  1  0  0  0  0
 23 24  2  0  0  0  0
 24 25  1  0  0  0  0
 24 48  1  0  0  0  0
 25 26  2  0  0  0  0
 25 49  1  0  0  0  0
 26 50  1  0  0  0  0
M  END
> <PUBCHEM_COMPOUND_CID>
17395622

> <PUBCHEM_COMPOUND_CANONICALIZED>
1

> <PUBCHEM_CACTVS_COMPLEXITY>
585

> <PUBCHEM_CACTVS_HBOND_ACCEPTOR>
5

> <PUBCHEM_CACTVS_HBOND_DONOR>
1

> <PUBCHEM_CACTVS_ROTATABLE_BOND>
4

> <PUBCHEM_CACTVS_SUBSKEYS>
AAADceB7sABAAAAAAAAAAAAAAAAAAeJEAAAsAAAAAAAAAAABgAAAHgQQAAAADIjF0ASxAYPAAAiMACFSEACDAIAgCBBIiBmIBIiIYDKgkTGUAAholyKoiAcYCAAOAAAAAAAAAAAAAAAAAAAAAAAAAAAAAA==

> <PUBCHEM_IUPAC_OPENEYE_NAME>
3-[2-oxo-2-[4-(2-thienylmethyl)piperazin-1-yl]ethyl]-1,3-diazaspiro[4.4]nonane-2,4-dione

> <PUBCHEM_IUPAC_CAS_NAME>
3-[2-oxo-2-[4-(thiophen-2-ylmethyl)-1-piperazinyl]ethyl]-1,3-diazaspiro[4.4]nonane-2,4-dione

> <PUBCHEM_IUPAC_NAME>
3-[2-oxo-2-[4-(thiophen-2-ylmethyl)piperazin-1-yl]ethyl]-1,3-diazaspiro[4.4]nonane-2,4-dione

> <PUBCHEM_IUPAC_SYSTEMATIC_NAME>
3-[2-oxidanylidene-2-[4-(thiophen-2-ylmethyl)piperazin-1-yl]ethyl]-1,3-diazaspiro[4.4]nonane-2,4-dione

> <PUBCHEM_IUPAC_TRADITIONAL_NAME>
3-[2-keto-2-[4-(2-thenyl)piperazino]ethyl]-1,3-diazaspiro[4.4]nonane-2,4-quinone

> <PUBCHEM_IUPAC_INCHI>
InChI=1S/C18H24N4O3S/c23-15(13-22-16(24)18(19-17(22)25)5-1-2-6-18)21-9-7-20(8-10-21)12-14-4-3-11-26-14/h3-4,11H,1-2,5-10,12-13H2,(H,19,25)

> <PUBCHEM_IUPAC_INCHIKEY>
RXQNSEJNWIQDMM-UHFFFAOYSA-N

> <PUBCHEM_XLOGP3_AA>
0.7

> <PUBCHEM_EXACT_MASS>
376.156912

> <PUBCHEM_MOLECULAR_FORMULA>
C18H24N4O3S

> <PUBCHEM_MOLECULAR_WEIGHT>
376.47316

> <PUBCHEM_OPENEYE_CAN_SMILES>
C1CCC2(C1)C(=O)N(C(=O)N2)CC(=O)N3CCN(CC3)CC4=CC=CS4

> <PUBCHEM_OPENEYE_ISO_SMILES>
C1CCC2(C1)C(=O)N(C(=O)N2)CC(=O)N3CCN(CC3)CC4=CC=CS4

> <PUBCHEM_CACTVS_TPSA>
101

> <PUBCHEM_MONOISOTOPIC_WEIGHT>
376.156912

> <PUBCHEM_TOTAL_CHARGE>
0

> <PUBCHEM_HEAVY_ATOM_COUNT>
26

> <PUBCHEM_ATOM_DEF_STEREO_COUNT>
0

> <PUBCHEM_ATOM_UDEF_STEREO_COUNT>
0

> <PUBCHEM_BOND_DEF_STEREO_COUNT>
0

> <PUBCHEM_BOND_UDEF_STEREO_COUNT>
0

> <PUBCHEM_ISOTOPIC_ATOM_COUNT>
0

> <PUBCHEM_COMPONENT_COUNT>
1

> <PUBCHEM_CACTVS_TAUTO_COUNT>
2

> <PUBCHEM_COORDINATE_TYPE>
1
5
255

> <PUBCHEM_BONDANNOTATIONS>
1  23  8
1  26  8
23  24  8
24  25  8
25  26  8

$$$$

