115159
  -OEChem-07051213093D

 44 46  0     1  0  0  0  0  0999 V2000
   -2.0599    1.4091   -0.0785 N   0  0  3  0  0  0  0  0  0  0  0  0
   -0.0032    0.1866   -0.2940 C   0  0  0  0  0  0  0  0  0  0  0  0
   -0.6103    0.5879   -1.6849 C   0  0  0  0  0  0  0  0  0  0  0  0
   -2.1077    0.8325   -1.4191 C   0  0  2  0  0  0  0  0  0  0  0  0
   -0.8401    1.1836    0.5669 C   0  0  0  0  0  0  0  0  0  0  0  0
   -0.3659   -1.3038   -0.0356 C   0  0  0  0  0  0  0  0  0  0  0  0
    1.5253    0.3788   -0.1833 C   0  0  0  0  0  0  0  0  0  0  0  0
   -2.7065    1.7683   -2.4597 C   0  0  0  0  0  0  0  0  0  0  0  0
   -3.2218    2.0635    0.4880 C   0  0  0  0  0  0  0  0  0  0  0  0
   -0.4477    1.7648    1.7134 C   0  0  0  0  0  0  0  0  0  0  0  0
    0.1563   -2.2978   -0.8601 C   0  0  0  0  0  0  0  0  0  0  0  0
    2.1808    0.0791    1.0105 C   0  0  0  0  0  0  0  0  0  0  0  0
   -1.2118   -1.6390    1.0192 C   0  0  0  0  0  0  0  0  0  0  0  0
    2.2492    0.8526   -1.2772 C   0  0  0  0  0  0  0  0  0  0  0  0
   -1.2911    2.7111    2.4946 C   0  0  0  0  0  0  0  0  0  0  0  0
   -0.1693   -3.6342   -0.6283 C   0  0  0  0  0  0  0  0  0  0  0  0
    3.5612    0.2530    1.1106 C   0  0  0  0  0  0  0  0  0  0  0  0
   -1.5371   -2.9755    1.2510 C   0  0  0  0  0  0  0  0  0  0  0  0
    3.6297    1.0262   -1.1773 C   0  0  0  0  0  0  0  0  0  0  0  0
   -1.0158   -3.9731    0.4273 C   0  0  0  0  0  0  0  0  0  0  0  0
    4.2857    0.7264    0.0165 C   0  0  0  0  0  0  0  0  0  0  0  0
   -0.4591   -0.1519   -2.4785 H   0  0  0  0  0  0  0  0  0  0  0  0
   -0.1847    1.5368   -2.0397 H   0  0  0  0  0  0  0  0  0  0  0  0
   -2.6597   -0.1147   -1.4012 H   0  0  0  0  0  0  0  0  0  0  0  0
   -2.5588    1.3668   -3.4678 H   0  0  0  0  0  0  0  0  0  0  0  0
   -3.7836    1.8935   -2.3116 H   0  0  0  0  0  0  0  0  0  0  0  0
   -2.2504    2.7636   -2.4181 H   0  0  0  0  0  0  0  0  0  0  0  0
   -3.4487    1.7021    1.4937 H   0  0  0  0  0  0  0  0  0  0  0  0
   -4.1194    1.8231   -0.0932 H   0  0  0  0  0  0  0  0  0  0  0  0
   -3.1220    3.1516    0.4653 H   0  0  0  0  0  0  0  0  0  0  0  0
    0.5137    1.5582    2.1614 H   0  0  0  0  0  0  0  0  0  0  0  0
    0.8190   -2.0557   -1.6862 H   0  0  0  0  0  0  0  0  0  0  0  0
    1.6474   -0.3241    1.8669 H   0  0  0  0  0  0  0  0  0  0  0  0
   -1.6366   -0.9051    1.6949 H   0  0  0  0  0  0  0  0  0  0  0  0
    1.7995    1.0762   -2.2372 H   0  0  0  0  0  0  0  0  0  0  0  0
   -2.1024    2.2050    3.0226 H   0  0  0  0  0  0  0  0  0  0  0  0
   -1.6406    3.5609    1.9060 H   0  0  0  0  0  0  0  0  0  0  0  0
   -0.6645    3.1547    3.2792 H   0  0  0  0  0  0  0  0  0  0  0  0
    0.2370   -4.4112   -1.2692 H   0  0  0  0  0  0  0  0  0  0  0  0
    4.0733    0.0117    2.0374 H   0  0  0  0  0  0  0  0  0  0  0  0
   -2.1945   -3.2402    2.0740 H   0  0  0  0  0  0  0  0  0  0  0  0
    4.1955    1.3884   -2.0308 H   0  0  0  0  0  0  0  0  0  0  0  0
   -1.2686   -5.0137    0.6081 H   0  0  0  0  0  0  0  0  0  0  0  0
    5.3610    0.8584    0.0934 H   0  0  0  0  0  0  0  0  0  0  0  0
  1  4  1  0  0  0  0
  1  5  1  0  0  0  0
  1  9  1  0  0  0  0
  2  3  1  0  0  0  0
  2  5  1  0  0  0  0
  2  6  1  0  0  0  0
  2  7  1  0  0  0  0
  3  4  1  0  0  0  0
  3 22  1  0  0  0  0
  3 23  1  0  0  0  0
  4  8  1  0  0  0  0
  4 24  1  0  0  0  0
  5 10  2  0  0  0  0
  6 11  2  0  0  0  0
  6 13  1  0  0  0  0
  7 12  2  0  0  0  0
  7 14  1  0  0  0  0
  8 25  1  0  0  0  0
  8 26  1  0  0  0  0
  8 27  1  0  0  0  0
  9 28  1  0  0  0  0
  9 29  1  0  0  0  0
  9 30  1  0  0  0  0
 10 15  1  0  0  0  0
 10 31  1  0  0  0  0
 11 16  1  0  0  0  0
 11 32  1  0  0  0  0
 12 17  1  0  0  0  0
 12 33  1  0  0  0  0
 13 18  2  0  0  0  0
 13 34  1  0  0  0  0
 14 19  2  0  0  0  0
 14 35  1  0  0  0  0
 15 36  1  0  0  0  0
 15 37  1  0  0  0  0
 15 38  1  0  0  0  0
 16 20  2  0  0  0  0
 16 39  1  0  0  0  0
 17 21  2  0  0  0  0
 17 40  1  0  0  0  0
 18 20  1  0  0  0  0
 18 41  1  0  0  0  0
 19 21  1  0  0  0  0
 19 42  1  0  0  0  0
 20 43  1  0  0  0  0
 21 44  1  0  0  0  0
M  END
> <PUBCHEM_COMPOUND_CID>
115159

> <PUBCHEM_CONFORMER_RMSD>
0.6

> <PUBCHEM_CONFORMER_DIVERSEORDER>
1
2

> <PUBCHEM_MMFF94_PARTIAL_CHARGES>
30
1 -0.84
10 -0.29
11 -0.15
12 -0.15
13 -0.15
14 -0.15
15 0.14
16 -0.15
17 -0.15
18 -0.15
19 -0.15
2 0.43
20 -0.15
21 -0.15
31 0.15
32 0.15
33 0.15
34 0.15
35 0.15
39 0.15
4 0.37
40 0.15
41 0.15
42 0.15
43 0.15
44 0.15
5 -0.04
6 -0.14
7 -0.14
9 0.37

> <PUBCHEM_EFFECTIVE_ROTOR_COUNT>
2.8

> <PUBCHEM_PHARMACOPHORE_FEATURES>
5
1 1 cation
1 15 hydrophobe
5 1 2 3 4 5 rings
6 6 11 13 16 18 20 rings
6 7 12 14 17 19 21 rings

> <PUBCHEM_HEAVY_ATOM_COUNT>
21

> <PUBCHEM_ATOM_DEF_STEREO_COUNT>
0

> <PUBCHEM_ATOM_UDEF_STEREO_COUNT>
0

> <PUBCHEM_BOND_DEF_STEREO_COUNT>
0

> <PUBCHEM_BOND_UDEF_STEREO_COUNT>
1

> <PUBCHEM_ISOTOPIC_ATOM_COUNT>
0

> <PUBCHEM_COMPONENT_COUNT>
1

> <PUBCHEM_CACTVS_TAUTO_COUNT>
1

> <PUBCHEM_CONFORMER_ID>
0001C1D700000001

> <PUBCHEM_MMFF94_ENERGY>
81.2202

> <PUBCHEM_FEATURE_SELFOVERLAP>
25.371

> <PUBCHEM_SHAPE_FINGERPRINT>
104564 63 18197492930982939306
10764073 3 15728042733622322402
11421498 54 18192172575380335173
11578080 2 6252651640785968576
11582403 64 16198496292847354021
121448 382 18265360385197019205
12173636 292 18336254721724058784
12553582 1 17692245240935550702
12592029 89 17773331233753574585
12643181 29 18267013033965557166
12714826 92 18195807358577997342
13149001 5 18046091283776628549
133893 2 17764309843816072314
13681431 1 8717385044985219238
13764800 53 18261100855823916792
14787075 74 18187081737574588465
14817 1 6798151468490447441
14863182 85 17546104971689899235
14955137 171 16381956619580581819
15309172 13 18201163268468751628
15852999 172 18340496667716945998
16752209 62 18340776927117970670
16945 1 18270961219971753355
18915476 22 17839186556109528701
19765921 60 18191036792273455673
20600515 1 17832395645562325919
20602899 9 18340775921963358646
20645476 183 18200612357445538262
21330990 113 17900222421856886562
22907989 373 18270111289041105412
23419403 2 15941791959832328067
23557571 272 18043807590195049776
266924 78 17835516403412701421
298252 57 17630632160709287444
3250762 1 17614873728326927033
427121 178 17176529473555421643
4340502 62 18267570494407084753
81228 2 18126292938818658427
9981440 41 17604735291121920290

> <PUBCHEM_SHAPE_MULTIPOLES>
427.19
4.94
4.07
2.05
5.79
4.7
0.05
-2.95
0.63
-3.69
-1.07
-0.99
-1.5
0.3

> <PUBCHEM_SHAPE_SELFOVERLAP>
918.633

> <PUBCHEM_SHAPE_VOLUME>
235.7

> <PUBCHEM_COORDINATE_TYPE>
2
5
10

$$$$

