8592
  -OEChem-06261202563D

 20 21  0     0  0  0  0  0  0999 V2000
   -1.1713   -2.0743    0.1951 O   0  0  0  0  0  0  0  0  0  0  0  0
   -3.6379   -0.1808   -0.7891 O   0  0  0  0  0  0  0  0  0  0  0  0
   -3.0739   -0.0584    0.3072 N   0  0  0  0  0  0  0  0  0  0  0  0
    0.5915   -0.4481    0.0508 C   0  0  0  0  0  0  0  0  0  0  0  0
    0.9852    0.9105    0.0067 C   0  0  0  0  0  0  0  0  0  0  0  0
   -0.7732   -0.7646    0.1510 C   0  0  0  0  0  0  0  0  0  0  0  0
    0.0028    1.9126    0.0639 C   0  0  0  0  0  0  0  0  0  0  0  0
    1.5739   -1.4500   -0.0068 C   0  0  0  0  0  0  0  0  0  0  0  0
    2.3497    1.2272   -0.0938 C   0  0  0  0  0  0  0  0  0  0  0  0
   -1.7358    0.2439    0.2073 C   0  0  0  0  0  0  0  0  0  0  0  0
   -1.3485    1.5800    0.1636 C   0  0  0  0  0  0  0  0  0  0  0  0
    2.9251   -1.1172   -0.1063 C   0  0  0  0  0  0  0  0  0  0  0  0
    3.3124    0.2189   -0.1496 C   0  0  0  0  0  0  0  0  0  0  0  0
    0.2829    2.9636    0.0315 H   0  0  0  0  0  0  0  0  0  0  0  0
    1.3289   -2.5083    0.0056 H   0  0  0  0  0  0  0  0  0  0  0  0
    2.6752    2.2649   -0.1296 H   0  0  0  0  0  0  0  0  0  0  0  0
   -2.0842    2.3804    0.2065 H   0  0  0  0  0  0  0  0  0  0  0  0
    3.6752   -1.9013   -0.1540 H   0  0  0  0  0  0  0  0  0  0  0  0
    4.3643    0.4773   -0.2281 H   0  0  0  0  0  0  0  0  0  0  0  0
   -0.5109   -2.6041    0.6693 H   0  0  0  0  0  0  0  0  0  0  0  0
  1  6  1  0  0  0  0
  1 20  1  0  0  0  0
  2  3  2  0  0  0  0
  3 10  1  0  0  0  0
  4  5  1  0  0  0  0
  4  6  1  0  0  0  0
  4  8  2  0  0  0  0
  5  7  1  0  0  0  0
  5  9  2  0  0  0  0
  6 10  2  0  0  0  0
  7 11  2  0  0  0  0
  7 14  1  0  0  0  0
  8 12  1  0  0  0  0
  8 15  1  0  0  0  0
  9 13  1  0  0  0  0
  9 16  1  0  0  0  0
 10 11  1  0  0  0  0
 11 17  1  0  0  0  0
 12 13  2  0  0  0  0
 12 18  1  0  0  0  0
 13 19  1  0  0  0  0
M  END
> <PUBCHEM_COMPOUND_CID>
8592

> <PUBCHEM_CONFORMER_RMSD>
0.4

> <PUBCHEM_CONFORMER_DIVERSEORDER>
2
1

> <PUBCHEM_MMFF94_PARTIAL_CHARGES>
18
1 -0.53
10 0.3
11 -0.15
12 -0.15
13 -0.15
14 0.15
15 0.15
16 0.15
17 0.15
18 0.15
19 0.15
2 -0.16
20 0.45
3 -0.14
6 0.08
7 -0.15
8 -0.15
9 -0.15

> <PUBCHEM_EFFECTIVE_ROTOR_COUNT>
1

> <PUBCHEM_PHARMACOPHORE_FEATURES>
3
1 1 donor
6 4 5 6 7 10 11 rings
6 4 5 8 9 12 13 rings

> <PUBCHEM_HEAVY_ATOM_COUNT>
13

> <PUBCHEM_ATOM_DEF_STEREO_COUNT>
0

> <PUBCHEM_ATOM_UDEF_STEREO_COUNT>
0

> <PUBCHEM_BOND_DEF_STEREO_COUNT>
0

> <PUBCHEM_BOND_UDEF_STEREO_COUNT>
0

> <PUBCHEM_ISOTOPIC_ATOM_COUNT>
0

> <PUBCHEM_COMPONENT_COUNT>
1

> <PUBCHEM_CACTVS_TAUTO_COUNT>
4

> <PUBCHEM_CONFORMER_ID>
0000219000000002

> <PUBCHEM_MMFF94_ENERGY>
41.9508

> <PUBCHEM_FEATURE_SELFOVERLAP>
15.249

> <PUBCHEM_SHAPE_FINGERPRINT>
10967382 1 18410854343689885450
11132069 177 18337677421208666704
11206711 2 18269550709704117116
11471102 20 18411422816944986213
12032990 46 18411691093355411843
12423570 1 11758570556188024537
12524768 44 18408876352230980854
13380535 76 18410576167295920658
13897977 150 18266178327221841968
14144814 61 18410570712539352616
14325111 11 18410571829094004640
14576447 43 18043547027065976815
14911166 2 18411981355761142924
14993402 34 18334296461333667671
16945 1 18411130329688004728
17844478 74 17989194954553173241
193761 8 17689996739154900344
20201158 50 18411981364488357210
20588541 1 18411133610868783152
21501502 16 18265610064610010448
21501925 9 18340497763192010810
2334 1 17834109745493027304
23402539 116 18334869341151205102
23402655 69 18336272314094395101
23463225 33 18412824720145582368
23552423 10 18271799185539974064
23559900 14 18191011323988056252
2748010 2 17978224963649445992
5084963 1 18115310101899630338
528886 8 18410014295410601498
53812653 166 18189337875146876880
53812654 25 18187942671878711326
7364860 26 18333730191982702832
8809292 202 18272081674076654618

> <PUBCHEM_SHAPE_MULTIPOLES>
250.81
4.82
1.89
0.65
0.84
0.04
0.02
-0.57
0.6
-0.14
-0.08
0.12
0
-0.05

> <PUBCHEM_SHAPE_SELFOVERLAP>
554.947

> <PUBCHEM_SHAPE_VOLUME>
135.2

> <PUBCHEM_COORDINATE_TYPE>
2
5
10

$$$$

