5282107
  -OEChem-07051213032D

 63 62  0     1  0  0  0  0  0999 V2000
    3.7320   -1.2500    0.0000 O   0  0  0  0  0  0  0  0  0  0  0  0
   10.6603    5.7500    0.0000 O   0  0  0  0  0  0  0  0  0  0  0  0
    2.8660   -2.7500    0.0000 O   0  0  0  0  0  0  0  0  0  0  0  0
   11.5263    4.2500    0.0000 O   0  0  0  0  0  0  0  0  0  0  0  0
    4.5981   -2.7500    0.0000 C   0  0  0  0  0  0  0  0  0  0  0  0
    4.5981   -1.7500    0.0000 C   0  0  3  0  0  0  0  0  0  0  0  0
    3.7320   -3.2500    0.0000 C   0  0  0  0  0  0  0  0  0  0  0  0
    3.7320   -4.2500    0.0000 C   0  0  0  0  0  0  0  0  0  0  0  0
    5.4641   -1.2500    0.0000 C   0  0  0  0  0  0  0  0  0  0  0  0
    8.0622    1.2500    0.0000 C   0  0  0  0  0  0  0  0  0  0  0  0
    8.9282    1.7500    0.0000 C   0  0  0  0  0  0  0  0  0  0  0  0
    2.8660   -4.7500    0.0000 C   0  0  0  0  0  0  0  0  0  0  0  0
    8.0622    0.2500    0.0000 C   0  0  0  0  0  0  0  0  0  0  0  0
    8.9282    2.7500    0.0000 C   0  0  0  0  0  0  0  0  0  0  0  0
    7.1962   -0.2500    0.0000 C   0  0  0  0  0  0  0  0  0  0  0  0
    2.8660   -5.7500    0.0000 C   0  0  0  0  0  0  0  0  0  0  0  0
    6.3301   -1.7500    0.0000 C   0  0  0  0  0  0  0  0  0  0  0  0
    9.7942    3.2500    0.0000 C   0  0  0  0  0  0  0  0  0  0  0  0
    7.1962   -1.2500    0.0000 C   0  0  0  0  0  0  0  0  0  0  0  0
    9.7942    4.2500    0.0000 C   0  0  0  0  0  0  0  0  0  0  0  0
    2.0000   -6.2500    0.0000 C   0  0  0  0  0  0  0  0  0  0  0  0
    2.8660   -1.7500    0.0000 C   0  0  0  0  0  0  0  0  0  0  0  0
   10.6603    4.7500    0.0000 C   0  0  0  0  0  0  0  0  0  0  0  0
    2.0000   -1.2500    0.0000 C   0  0  0  0  0  0  0  0  0  0  0  0
   11.5263    6.2500    0.0000 C   0  0  0  0  0  0  0  0  0  0  0  0
    4.8101   -3.3326    0.0000 H   0  0  0  0  0  0  0  0  0  0  0  0
    5.2087   -2.6423    0.0000 H   0  0  0  0  0  0  0  0  0  0  0  0
    4.5981   -1.1300    0.0000 H   0  0  0  0  0  0  0  0  0  0  0  0
    3.5200   -2.6674    0.0000 H   0  0  0  0  0  0  0  0  0  0  0  0
    3.1215   -3.3577    0.0000 H   0  0  0  0  0  0  0  0  0  0  0  0
    3.9441   -4.8326    0.0000 H   0  0  0  0  0  0  0  0  0  0  0  0
    4.3426   -4.1423    0.0000 H   0  0  0  0  0  0  0  0  0  0  0  0
    5.8626   -0.7751    0.0000 H   0  0  0  0  0  0  0  0  0  0  0  0
    5.0656   -0.7751    0.0000 H   0  0  0  0  0  0  0  0  0  0  0  0
    7.8501    1.8326    0.0000 H   0  0  0  0  0  0  0  0  0  0  0  0
    7.4516    1.1423    0.0000 H   0  0  0  0  0  0  0  0  0  0  0  0
    9.1403    1.1674    0.0000 H   0  0  0  0  0  0  0  0  0  0  0  0
    9.5388    1.8577    0.0000 H   0  0  0  0  0  0  0  0  0  0  0  0
    2.6540   -4.1674    0.0000 H   0  0  0  0  0  0  0  0  0  0  0  0
    2.2554   -4.8577    0.0000 H   0  0  0  0  0  0  0  0  0  0  0  0
    8.2742   -0.3326    0.0000 H   0  0  0  0  0  0  0  0  0  0  0  0
    8.6728    0.3577    0.0000 H   0  0  0  0  0  0  0  0  0  0  0  0
    8.7162    3.3326    0.0000 H   0  0  0  0  0  0  0  0  0  0  0  0
    8.3176    2.6423    0.0000 H   0  0  0  0  0  0  0  0  0  0  0  0
    6.9841    0.3326    0.0000 H   0  0  0  0  0  0  0  0  0  0  0  0
    6.5856   -0.3577    0.0000 H   0  0  0  0  0  0  0  0  0  0  0  0
   10.0063    2.6674    0.0000 H   0  0  0  0  0  0  0  0  0  0  0  0
   10.4048    3.3577    0.0000 H   0  0  0  0  0  0  0  0  0  0  0  0
    3.0781   -6.3326    0.0000 H   0  0  0  0  0  0  0  0  0  0  0  0
    3.4766   -5.6423    0.0000 H   0  0  0  0  0  0  0  0  0  0  0  0
    6.3301   -2.3700    0.0000 H   0  0  0  0  0  0  0  0  0  0  0  0
    7.7331   -1.5600    0.0000 H   0  0  0  0  0  0  0  0  0  0  0  0
    9.5822    4.8326    0.0000 H   0  0  0  0  0  0  0  0  0  0  0  0
    9.1836    4.1423    0.0000 H   0  0  0  0  0  0  0  0  0  0  0  0
    1.6900   -5.7131    0.0000 H   0  0  0  0  0  0  0  0  0  0  0  0
    1.4631   -6.5600    0.0000 H   0  0  0  0  0  0  0  0  0  0  0  0
    2.3100   -6.7869    0.0000 H   0  0  0  0  0  0  0  0  0  0  0  0
    2.3100   -0.7131    0.0000 H   0  0  0  0  0  0  0  0  0  0  0  0
    1.4631   -0.9400    0.0000 H   0  0  0  0  0  0  0  0  0  0  0  0
    1.6900   -1.7869    0.0000 H   0  0  0  0  0  0  0  0  0  0  0  0
   11.8363    5.7131    0.0000 H   0  0  0  0  0  0  0  0  0  0  0  0
   12.0632    6.5600    0.0000 H   0  0  0  0  0  0  0  0  0  0  0  0
   11.2163    6.7869    0.0000 H   0  0  0  0  0  0  0  0  0  0  0  0
  1  6  1  0  0  0  0
  1 22  1  0  0  0  0
  2 23  1  0  0  0  0
  2 25  1  0  0  0  0
  3 22  2  0  0  0  0
  4 23  2  0  0  0  0
  5  6  1  0  0  0  0
  5  7  1  0  0  0  0
  5 26  1  0  0  0  0
  5 27  1  0  0  0  0
  6  9  1  0  0  0  0
  6 28  1  0  0  0  0
  7  8  1  0  0  0  0
  7 29  1  0  0  0  0
  7 30  1  0  0  0  0
  8 12  1  0  0  0  0
  8 31  1  0  0  0  0
  8 32  1  0  0  0  0
  9 17  1  0  0  0  0
  9 33  1  0  0  0  0
  9 34  1  0  0  0  0
 10 11  1  0  0  0  0
 10 13  1  0  0  0  0
 10 35  1  0  0  0  0
 10 36  1  0  0  0  0
 11 14  1  0  0  0  0
 11 37  1  0  0  0  0
 11 38  1  0  0  0  0
 12 16  1  0  0  0  0
 12 39  1  0  0  0  0
 12 40  1  0  0  0  0
 13 15  1  0  0  0  0
 13 41  1  0  0  0  0
 13 42  1  0  0  0  0
 14 18  1  0  0  0  0
 14 43  1  0  0  0  0
 14 44  1  0  0  0  0
 15 19  1  0  0  0  0
 15 45  1  0  0  0  0
 15 46  1  0  0  0  0
 16 21  1  0  0  0  0
 16 49  1  0  0  0  0
 16 50  1  0  0  0  0
 17 19  2  0  0  0  0
 17 51  1  0  0  0  0
 18 20  1  0  0  0  0
 18 47  1  0  0  0  0
 18 48  1  0  0  0  0
 19 52  1  0  0  0  0
 20 23  1  0  0  0  0
 20 53  1  0  0  0  0
 20 54  1  0  0  0  0
 21 55  1  0  0  0  0
 21 56  1  0  0  0  0
 21 57  1  0  0  0  0
 22 24  1  0  0  0  0
 24 58  1  0  0  0  0
 24 59  1  0  0  0  0
 24 60  1  0  0  0  0
 25 61  1  0  0  0  0
 25 62  1  0  0  0  0
 25 63  1  0  0  0  0
M  END
> <PUBCHEM_COMPOUND_CID>
5282107

> <PUBCHEM_COMPOUND_CANONICALIZED>
1

> <PUBCHEM_CACTVS_COMPLEXITY>
363

> <PUBCHEM_CACTVS_HBOND_ACCEPTOR>
4

> <PUBCHEM_CACTVS_HBOND_DONOR>
0

> <PUBCHEM_CACTVS_ROTATABLE_BOND>
18

> <PUBCHEM_CACTVS_SUBSKEYS>
AAADcfB4OAAAAAAAAAAAAAAAAAAAAAAAAAAAAAAAAAAAAAAAAAAAGgAAAAAACBSggAICCAAABACIACDSCAAAAAAgAAAICAEAAAgAABIAAQACAAAEwAAIAAOIyKCAAAAAAAAAAAAAAAAAAAAAAAAAAAAAAA==

> <PUBCHEM_IUPAC_OPENEYE_NAME>
methyl (Z)-12-acetoxyoctadec-9-enoate

> <PUBCHEM_IUPAC_CAS_NAME>
(Z)-12-acetyloxy-9-octadecenoic acid methyl ester

> <PUBCHEM_IUPAC_NAME>
methyl (Z)-12-acetyloxyoctadec-9-enoate

> <PUBCHEM_IUPAC_SYSTEMATIC_NAME>
methyl (Z)-12-acetyloxyoctadec-9-enoate

> <PUBCHEM_IUPAC_TRADITIONAL_NAME>
(Z)-12-acetoxyoctadec-9-enoic acid methyl ester

> <PUBCHEM_IUPAC_INCHI>
InChI=1S/C21H38O4/c1-4-5-6-13-16-20(25-19(2)22)17-14-11-9-7-8-10-12-15-18-21(23)24-3/h11,14,20H,4-10,12-13,15-18H2,1-3H3/b14-11-

> <PUBCHEM_IUPAC_INCHIKEY>
CMOYPQWMTBSLJK-KAMYIIQDSA-N

> <PUBCHEM_XLOGP3_AA>
6.6

> <PUBCHEM_EXACT_MASS>
354.27701

> <PUBCHEM_MOLECULAR_FORMULA>
C21H38O4

> <PUBCHEM_MOLECULAR_WEIGHT>
354.52402

> <PUBCHEM_OPENEYE_CAN_SMILES>
CCCCCCC(CC=CCCCCCCCC(=O)OC)OC(=O)C

> <PUBCHEM_OPENEYE_ISO_SMILES>
CCCCCCC(C/C=C\CCCCCCCC(=O)OC)OC(=O)C

> <PUBCHEM_CACTVS_TPSA>
52.6

> <PUBCHEM_MONOISOTOPIC_WEIGHT>
354.27701

> <PUBCHEM_TOTAL_CHARGE>
0

> <PUBCHEM_HEAVY_ATOM_COUNT>
25

> <PUBCHEM_ATOM_DEF_STEREO_COUNT>
0

> <PUBCHEM_ATOM_UDEF_STEREO_COUNT>
1

> <PUBCHEM_BOND_DEF_STEREO_COUNT>
1

> <PUBCHEM_BOND_UDEF_STEREO_COUNT>
0

> <PUBCHEM_ISOTOPIC_ATOM_COUNT>
0

> <PUBCHEM_COMPONENT_COUNT>
1

> <PUBCHEM_CACTVS_TAUTO_COUNT>
1

> <PUBCHEM_COORDINATE_TYPE>
1
5
255

> <PUBCHEM_BONDANNOTATIONS>
6  9  3

$$$$

