17395509
  -OEChem-06241222503D

 37 39  0     0  0  0  0  0  0999 V2000
    0.5519   -1.3119    1.4089 O   0  0  0  0  0  0  0  0  0  0  0  0
   -4.7540   -0.4835   -1.4295 O   0  0  0  0  0  0  0  0  0  0  0  0
   -1.1982    0.8107   -0.9799 O   0  0  0  0  0  0  0  0  0  0  0  0
    0.8360    0.9166    0.7864 N   0  0  0  0  0  0  0  0  0  0  0  0
    2.8479    1.6419   -0.2526 N   0  0  0  0  0  0  0  0  0  0  0  0
   -2.7704    1.4968    0.5882 N   0  0  0  0  0  0  0  0  0  0  0  0
    2.5842   -0.7154    0.3899 C   0  0  0  0  0  0  0  0  0  0  0  0
    3.3351    0.3267   -0.1704 C   0  0  0  0  0  0  0  0  0  0  0  0
   -0.4790    1.3046    1.2731 C   0  0  0  0  0  0  0  0  0  0  0  0
    1.2307   -0.4179    0.9127 C   0  0  0  0  0  0  0  0  0  0  0  0
    4.6139    0.0460   -0.6642 C   0  0  0  0  0  0  0  0  0  0  0  0
    1.6636    1.8651    0.2135 C   0  0  0  0  0  0  0  0  0  0  0  0
    3.0986   -2.0145    0.4566 C   0  0  0  0  0  0  0  0  0  0  0  0
   -1.4957    1.1534    0.1616 C   0  0  0  0  0  0  0  0  0  0  0  0
    5.1312   -1.2490   -0.5997 C   0  0  0  0  0  0  0  0  0  0  0  0
   -3.9256    1.4918   -0.2805 C   0  0  0  0  0  0  0  0  0  0  0  0
    4.3745   -2.2769   -0.0401 C   0  0  0  0  0  0  0  0  0  0  0  0
    5.4545    1.1231   -1.2723 C   0  0  0  0  0  0  0  0  0  0  0  0
   -4.6484    0.1764   -0.2464 C   0  0  0  0  0  0  0  0  0  0  0  0
   -5.2535   -0.5385    0.7610 C   0  0  0  0  0  0  0  0  0  0  0  0
   -5.7636   -1.7130    0.1582 C   0  0  0  0  0  0  0  0  0  0  0  0
   -5.4338   -1.6323   -1.1747 C   0  0  0  0  0  0  0  0  0  0  0  0
   -0.4595    2.3522    1.5932 H   0  0  0  0  0  0  0  0  0  0  0  0
   -0.7726    0.6737    2.1188 H   0  0  0  0  0  0  0  0  0  0  0  0
    1.2328    2.8776    0.1710 H   0  0  0  0  0  0  0  0  0  0  0  0
    2.5243   -2.8290    0.8890 H   0  0  0  0  0  0  0  0  0  0  0  0
   -3.6099    1.7290   -1.3022 H   0  0  0  0  0  0  0  0  0  0  0  0
   -4.5965    2.2862    0.0624 H   0  0  0  0  0  0  0  0  0  0  0  0
    6.1237   -1.4736   -0.9816 H   0  0  0  0  0  0  0  0  0  0  0  0
   -2.9125    1.7580    1.5598 H   0  0  0  0  0  0  0  0  0  0  0  0
    4.7792   -3.2837    0.0090 H   0  0  0  0  0  0  0  0  0  0  0  0
    4.9517    1.5525   -2.1452 H   0  0  0  0  0  0  0  0  0  0  0  0
    5.6484    1.9146   -0.5408 H   0  0  0  0  0  0  0  0  0  0  0  0
    6.4257    0.7438   -1.6082 H   0  0  0  0  0  0  0  0  0  0  0  0
   -5.3200   -0.2511    1.8006 H   0  0  0  0  0  0  0  0  0  0  0  0
   -6.3038   -2.5177    0.6355 H   0  0  0  0  0  0  0  0  0  0  0  0
   -5.6009   -2.2751   -2.0265 H   0  0  0  0  0  0  0  0  0  0  0  0
  1 10  2  0  0  0  0
  2 19  1  0  0  0  0
  2 22  1  0  0  0  0
  3 14  2  0  0  0  0
  4  9  1  0  0  0  0
  4 10  1  0  0  0  0
  4 12  1  0  0  0  0
  5  8  1  0  0  0  0
  5 12  2  0  0  0  0
  6 14  1  0  0  0  0
  6 16  1  0  0  0  0
  6 30  1  0  0  0  0
  7  8  1  0  0  0  0
  7 10  1  0  0  0  0
  7 13  2  0  0  0  0
  8 11  2  0  0  0  0
  9 14  1  0  0  0  0
  9 23  1  0  0  0  0
  9 24  1  0  0  0  0
 11 15  1  0  0  0  0
 11 18  1  0  0  0  0
 12 25  1  0  0  0  0
 13 17  1  0  0  0  0
 13 26  1  0  0  0  0
 15 17  2  0  0  0  0
 15 29  1  0  0  0  0
 16 19  1  0  0  0  0
 16 27  1  0  0  0  0
 16 28  1  0  0  0  0
 17 31  1  0  0  0  0
 18 32  1  0  0  0  0
 18 33  1  0  0  0  0
 18 34  1  0  0  0  0
 19 20  2  0  0  0  0
 20 21  1  0  0  0  0
 20 35  1  0  0  0  0
 21 22  2  0  0  0  0
 21 36  1  0  0  0  0
 22 37  1  0  0  0  0
M  END
> <PUBCHEM_COMPOUND_CID>
17395509

> <PUBCHEM_CONFORMER_RMSD>
0.8

> <PUBCHEM_CONFORMER_DIVERSEORDER>
1
13
42
106
33
111
53
46
96
99
83
69
70
72
36
19
63
29
10
93
59
76
71
23
107
110
30
43
94
44
56
25
103
102
6
35
81
100
105
39
18
64
80
40
52
22
45
89
26
7
55
47
15
87
82
108
77
27
31
66
4
16
60
24
92
74
51
95
98
11
85
2
14
68
73
91
41
78
84
65
8
9
17
88
86
75
5
12
3
32
34
20
97
67
109
79
58
50
48
101
61
104
37
57
21
54
112
38
90
28
49
62

> <PUBCHEM_MMFF94_PARTIAL_CHARGES>
30
1 -0.57
10 0.54
11 -0.14
12 0.45
13 -0.15
14 0.57
15 -0.15
16 0.48
17 -0.15
18 0.14
19 -0.04
2 -0.28
20 -0.15
21 -0.15
22 -0.01
25 0.06
26 0.15
29 0.15
3 -0.57
30 0.37
31 0.15
35 0.15
36 0.15
37 0.15
4 -0.42
5 -0.63
6 -0.73
7 0.09
8 0.18
9 0.36

> <PUBCHEM_EFFECTIVE_ROTOR_COUNT>
5

> <PUBCHEM_PHARMACOPHORE_FEATURES>
7
1 1 acceptor
1 2 acceptor
1 3 acceptor
1 6 donor
5 2 19 20 21 22 rings
6 4 5 7 8 10 12 rings
6 7 8 11 13 15 17 rings

> <PUBCHEM_HEAVY_ATOM_COUNT>
22

> <PUBCHEM_ATOM_DEF_STEREO_COUNT>
0

> <PUBCHEM_ATOM_UDEF_STEREO_COUNT>
0

> <PUBCHEM_BOND_DEF_STEREO_COUNT>
0

> <PUBCHEM_BOND_UDEF_STEREO_COUNT>
0

> <PUBCHEM_ISOTOPIC_ATOM_COUNT>
0

> <PUBCHEM_COMPONENT_COUNT>
1

> <PUBCHEM_CACTVS_TAUTO_COUNT>
2

> <PUBCHEM_CONFORMER_ID>
01096F3500000001

> <PUBCHEM_MMFF94_ENERGY>
41.5801

> <PUBCHEM_FEATURE_SELFOVERLAP>
35.55

> <PUBCHEM_SHAPE_FINGERPRINT>
10595046 47 18411978078923025244
10928967 22 17822024085870018367
11089746 13 12103560857870579578
11796584 16 17969220203862354213
11961588 58 17131827621727382760
12236239 1 18261106404716155624
12592606 108 18262521387311142823
12596602 18 16153711986026365339
12633257 1 16660643999924438295
12670546 177 18201437020930499710
12969540 114 16056878031116445859
13103583 49 17240473694562898723
13167823 11 18408605872681745365
13675066 3 5761653707127849153
13690498 29 18411986867069483597
14123255 352 10375864191267520979
14251757 5 18337671906439841583
14251758 9 7925920278627617697
14466204 15 10159693590596508911
14528608 73 17918273159984043252
14576447 43 18409166623543280912
14767858 380 18341321211486291892
15142383 8 14851874898379752867
15188451 53 14924523948902651645
15238133 3 7493002998613680202
15348495 7 5761643811206681975
15537594 2 18259704476040986135
17834072 33 18410854373549116628
17857418 61 18334016099006648551
200 152 18408318904056845497
20028762 73 18265617757366793498
20567600 247 18261115166365043503
20715895 44 10159439621149440055
20739085 24 7060371540151805034
21054139 6 18413109489531553458
21315763 191 18186517748048859123
221357 26 18412266125589718683
22393880 68 18059022790628661237
22950370 63 18260546736349499777
235170 7 17203339931044188935
23522609 53 18045469046279731265
23559900 14 18411146801389102225
2767999 5 12535629358147808319
2838139 119 12319457667013960879
2871803 45 18202571674434229497
314194 84 18408318903993645890
329604 57 18409728460868213339
351380 3 18040716961334410719
4259306 186 18410858767638127623
439807 62 18412544306516832975
46194498 28 17489023756255353037
465052 167 18040712550160333335
5104073 3 17821731666794080025
7495541 125 17967538977811588496
8217 86 18342453691415010955
9981440 41 10159702421851285365

> <PUBCHEM_SHAPE_MULTIPOLES>
420.2
14.69
2.24
1.17
10.73
0.43
-0.06
6.27
-4.91
-0.56
0.08
0.28
0.05
-0.95

> <PUBCHEM_SHAPE_SELFOVERLAP>
911.946

> <PUBCHEM_SHAPE_VOLUME>
228.9

> <PUBCHEM_COORDINATE_TYPE>
2
5
10

$$$$

