11954195
  -OEChem-07051213073D

 80 83  0     1  0  0  0  0  0999 V2000
    6.6777    2.6457    0.2306 S   0  0  0  0  0  0  0  0  0  0  0  0
   -2.4446    2.1368   -0.9281 O   0  0  0  0  0  0  0  0  0  0  0  0
   -4.7921    2.4721   -2.3898 O   0  0  0  0  0  0  0  0  0  0  0  0
   -5.7325    2.9111    2.6359 O   0  0  0  0  0  0  0  0  0  0  0  0
    5.9426   -1.9352   -0.6734 O   0  0  0  0  0  0  0  0  0  0  0  0
    7.2986    3.6134   -0.9263 O   0  0  0  0  0  0  0  0  0  0  0  0
    7.1219    3.1236    1.5271 O   0  0  0  0  0  0  0  0  0  0  0  0
    5.2725    2.4202   -0.0549 O   0  0  0  0  0  0  0  0  0  0  0  0
    5.9869   -0.2895    0.9666 N   0  0  0  0  0  0  0  0  0  0  0  0
   -1.0685   -0.3785   -0.7712 C   0  0  1  0  0  0  0  0  0  0  0  0
   -2.5745   -0.2864   -1.0579 C   0  0  1  0  0  0  0  0  0  0  0  0
   -0.6404   -1.7550   -0.2196 C   0  0  1  0  0  0  0  0  0  0  0  0
   -3.3533   -0.5447    0.2795 C   0  0  1  0  0  0  0  0  0  0  0  0
   -4.9166   -0.4634    0.0775 C   0  0  2  0  0  0  0  0  0  0  0  0
    0.8865   -1.5173   -0.1177 C   0  0  2  0  0  0  0  0  0  0  0  0
   -5.2851    0.9237   -0.5544 C   0  0  2  0  0  0  0  0  0  0  0  0
   -1.3491   -1.9556    1.1258 C   0  0  0  0  0  0  0  0  0  0  0  0
   -2.8775   -1.8451    0.9857 C   0  0  0  0  0  0  0  0  0  0  0  0
   -2.9678    1.0581   -1.6992 C   0  0  1  0  0  0  0  0  0  0  0  0
   -0.0861   -0.1280   -1.9121 C   0  0  0  0  0  0  0  0  0  0  0  0
   -4.4878    1.1862   -1.8533 C   0  0  2  0  0  0  0  0  0  0  0  0
    1.2277   -0.7668   -1.4259 C   0  0  0  0  0  0  0  0  0  0  0  0
   -5.7033   -0.6342    1.4106 C   0  0  0  0  0  0  0  0  0  0  0  0
   -0.9578   -2.9440   -1.1603 C   0  0  0  0  0  0  0  0  0  0  0  0
   -5.1766    2.0901    0.4551 C   0  0  0  0  0  0  0  0  0  0  0  0
    1.7551   -2.7475    0.1028 C   0  0  1  0  0  0  0  0  0  0  0  0
   -5.4181   -1.6026   -0.8508 C   0  0  0  0  0  0  0  0  0  0  0  0
   -5.5406    0.5241    2.3840 C   0  0  0  0  0  0  0  0  0  0  0  0
   -5.9655    1.8338    1.7346 C   0  0  1  0  0  0  0  0  0  0  0  0
    3.2288   -2.5146   -0.2875 C   0  0  0  0  0  0  0  0  0  0  0  0
    1.6814   -3.1852    1.5701 C   0  0  0  0  0  0  0  0  0  0  0  0
    3.9146   -1.4353    0.5507 C   0  0  0  0  0  0  0  0  0  0  0  0
    5.3831   -1.2725    0.1959 C   0  0  0  0  0  0  0  0  0  0  0  0
    7.3783    0.0762    0.8313 C   0  0  0  0  0  0  0  0  0  0  0  0
    7.5823    1.1864   -0.1816 C   0  0  0  0  0  0  0  0  0  0  0  0
   -0.8410    0.3751    0.0007 H   0  0  0  0  0  0  0  0  0  0  0  0
   -2.8389   -1.0634   -1.7818 H   0  0  0  0  0  0  0  0  0  0  0  0
   -3.0695    0.2680    0.9623 H   0  0  0  0  0  0  0  0  0  0  0  0
    1.0687   -0.8057    0.7021 H   0  0  0  0  0  0  0  0  0  0  0  0
   -6.3475    0.8943   -0.8411 H   0  0  0  0  0  0  0  0  0  0  0  0
   -1.1282   -2.9365    1.5538 H   0  0  0  0  0  0  0  0  0  0  0  0
   -1.0066   -1.2084    1.8529 H   0  0  0  0  0  0  0  0  0  0  0  0
   -3.2996   -1.8951    1.9954 H   0  0  0  0  0  0  0  0  0  0  0  0
   -3.2487   -2.7253    0.4520 H   0  0  0  0  0  0  0  0  0  0  0  0
   -2.5170    1.1487   -2.6953 H   0  0  0  0  0  0  0  0  0  0  0  0
    0.0483    0.9378   -2.1197 H   0  0  0  0  0  0  0  0  0  0  0  0
   -0.4223   -0.6047   -2.8400 H   0  0  0  0  0  0  0  0  0  0  0  0
   -4.8086    0.4620   -2.6114 H   0  0  0  0  0  0  0  0  0  0  0  0
    1.5872   -1.4345   -2.2161 H   0  0  0  0  0  0  0  0  0  0  0  0
    1.9878    0.0037   -1.2631 H   0  0  0  0  0  0  0  0  0  0  0  0
   -6.7749   -0.7267    1.1823 H   0  0  0  0  0  0  0  0  0  0  0  0
   -5.4355   -1.5711    1.9107 H   0  0  0  0  0  0  0  0  0  0  0  0
   -0.3930   -2.9016   -2.0968 H   0  0  0  0  0  0  0  0  0  0  0  0
   -0.7251   -3.8995   -0.6769 H   0  0  0  0  0  0  0  0  0  0  0  0
   -2.0152   -2.9956   -1.4328 H   0  0  0  0  0  0  0  0  0  0  0  0
   -5.5397    3.0195   -0.0016 H   0  0  0  0  0  0  0  0  0  0  0  0
   -4.1369    2.2925    0.7294 H   0  0  0  0  0  0  0  0  0  0  0  0
    1.4244   -3.5849   -0.5196 H   0  0  0  0  0  0  0  0  0  0  0  0
   -4.9006   -1.6364   -1.8118 H   0  0  0  0  0  0  0  0  0  0  0  0
   -5.3006   -2.5847   -0.3810 H   0  0  0  0  0  0  0  0  0  0  0  0
   -6.4860   -1.4828   -1.0697 H   0  0  0  0  0  0  0  0  0  0  0  0
   -6.1500    0.3473    3.2789 H   0  0  0  0  0  0  0  0  0  0  0  0
   -4.5074    0.5921    2.7447 H   0  0  0  0  0  0  0  0  0  0  0  0
   -7.0397    1.8077    1.5164 H   0  0  0  0  0  0  0  0  0  0  0  0
   -1.4928    2.2058   -1.1083 H   0  0  0  0  0  0  0  0  0  0  0  0
    3.3349   -2.2897   -1.3540 H   0  0  0  0  0  0  0  0  0  0  0  0
    3.7738   -3.4595   -0.1509 H   0  0  0  0  0  0  0  0  0  0  0  0
    2.5007   -3.8698    1.8181 H   0  0  0  0  0  0  0  0  0  0  0  0
    0.7625   -3.7412    1.7667 H   0  0  0  0  0  0  0  0  0  0  0  0
    1.7263   -2.3420    2.2668 H   0  0  0  0  0  0  0  0  0  0  0  0
   -5.7556    2.5165   -2.5139 H   0  0  0  0  0  0  0  0  0  0  0  0
   -6.0291    3.7284    2.2002 H   0  0  0  0  0  0  0  0  0  0  0  0
    3.4324   -0.4619    0.4199 H   0  0  0  0  0  0  0  0  0  0  0  0
    3.8725   -1.6874    1.6162 H   0  0  0  0  0  0  0  0  0  0  0  0
    5.4328    0.2078    1.6580 H   0  0  0  0  0  0  0  0  0  0  0  0
    7.7225    0.3877    1.8231 H   0  0  0  0  0  0  0  0  0  0  0  0
    7.9542   -0.8072    0.5356 H   0  0  0  0  0  0  0  0  0  0  0  0
    8.6423    1.4562   -0.2238 H   0  0  0  0  0  0  0  0  0  0  0  0
    7.2570    0.8733   -1.1791 H   0  0  0  0  0  0  0  0  0  0  0  0
    7.0156    3.4077   -1.8483 H   0  0  0  0  0  0  0  0  0  0  0  0
  1  6  1  0  0  0  0
  1  7  2  0  0  0  0
  1  8  2  0  0  0  0
  1 35  1  0  0  0  0
  2 19  1  0  0  0  0
  2 65  1  0  0  0  0
  3 21  1  0  0  0  0
  3 71  1  0  0  0  0
  4 29  1  0  0  0  0
  4 72  1  0  0  0  0
  5 33  2  0  0  0  0
  6 80  1  0  0  0  0
  9 33  1  0  0  0  0
  9 34  1  0  0  0  0
  9 75  1  0  0  0  0
 10 11  1  0  0  0  0
 10 12  1  0  0  0  0
 10 20  1  0  0  0  0
 10 36  1  0  0  0  0
 11 13  1  0  0  0  0
 11 19  1  0  0  0  0
 11 37  1  0  0  0  0
 12 15  1  0  0  0  0
 12 17  1  0  0  0  0
 12 24  1  0  0  0  0
 13 14  1  0  0  0  0
 13 18  1  0  0  0  0
 13 38  1  0  0  0  0
 14 16  1  0  0  0  0
 14 23  1  0  0  0  0
 14 27  1  0  0  0  0
 15 22  1  0  0  0  0
 15 26  1  0  0  0  0
 15 39  1  0  0  0  0
 16 21  1  0  0  0  0
 16 25  1  0  0  0  0
 16 40  1  0  0  0  0
 17 18  1  0  0  0  0
 17 41  1  0  0  0  0
 17 42  1  0  0  0  0
 18 43  1  0  0  0  0
 18 44  1  0  0  0  0
 19 21  1  0  0  0  0
 19 45  1  0  0  0  0
 20 22  1  0  0  0  0
 20 46  1  0  0  0  0
 20 47  1  0  0  0  0
 21 48  1  0  0  0  0
 22 49  1  0  0  0  0
 22 50  1  0  0  0  0
 23 28  1  0  0  0  0
 23 51  1  0  0  0  0
 23 52  1  0  0  0  0
 24 53  1  0  0  0  0
 24 54  1  0  0  0  0
 24 55  1  0  0  0  0
 25 29  1  0  0  0  0
 25 56  1  0  0  0  0
 25 57  1  0  0  0  0
 26 30  1  0  0  0  0
 26 31  1  0  0  0  0
 26 58  1  0  0  0  0
 27 59  1  0  0  0  0
 27 60  1  0  0  0  0
 27 61  1  0  0  0  0
 28 29  1  0  0  0  0
 28 62  1  0  0  0  0
 28 63  1  0  0  0  0
 29 64  1  0  0  0  0
 30 32  1  0  0  0  0
 30 66  1  0  0  0  0
 30 67  1  0  0  0  0
 31 68  1  0  0  0  0
 31 69  1  0  0  0  0
 31 70  1  0  0  0  0
 32 33  1  0  0  0  0
 32 73  1  0  0  0  0
 32 74  1  0  0  0  0
 34 35  1  0  0  0  0
 34 76  1  0  0  0  0
 34 77  1  0  0  0  0
 35 78  1  0  0  0  0
 35 79  1  0  0  0  0
M  END
> <PUBCHEM_COMPOUND_CID>
11954195

> <PUBCHEM_CONFORMER_RMSD>
1

> <PUBCHEM_CONFORMER_DIVERSEORDER>
4
31
26
27
61
42
7
49
48
54
62
21
57
36
41
82
58
59
24
79
73
16
65
22
71
55
70
11
52
46
43
72
81
44
66
37
77
78
30
13
76
17
9
47
14
69
28
3
25
23
39
2
67
15
34
68
51
12
6
80
40
74
64
35
19
29
53
18
20
33
10
60
5
32
56
63
8
50
38
75
1
45

> <PUBCHEM_MMFF94_PARTIAL_CHARGES>
21
1 1.38
19 0.28
2 -0.68
21 0.28
29 0.28
3 -0.68
32 0.06
33 0.57
34 0.3
35 0.11
4 -0.68
5 -0.57
6 -0.68
65 0.4
7 -0.65
71 0.4
72 0.4
75 0.37
8 -0.65
80 0.5
9 -0.73

> <PUBCHEM_EFFECTIVE_ROTOR_COUNT>
10.2

> <PUBCHEM_PHARMACOPHORE_FEATURES>
17
1 2 acceptor
1 2 donor
1 3 acceptor
1 3 donor
1 31 hydrophobe
1 4 acceptor
1 4 donor
1 5 acceptor
1 6 acceptor
1 7 acceptor
1 8 acceptor
1 9 donor
4 1 6 7 8 anion
5 10 12 15 20 22 rings
6 10 11 12 13 17 18 rings
6 11 13 14 16 19 21 rings
6 14 16 23 25 28 29 rings

> <PUBCHEM_HEAVY_ATOM_COUNT>
35

> <PUBCHEM_ATOM_DEF_STEREO_COUNT>
11

> <PUBCHEM_ATOM_UDEF_STEREO_COUNT>
0

> <PUBCHEM_BOND_DEF_STEREO_COUNT>
0

> <PUBCHEM_BOND_UDEF_STEREO_COUNT>
0

> <PUBCHEM_ISOTOPIC_ATOM_COUNT>
0

> <PUBCHEM_COMPONENT_COUNT>
1

> <PUBCHEM_CACTVS_TAUTO_COUNT>
2

> <PUBCHEM_CONFORMER_ID>
00B6681300000004

> <PUBCHEM_MMFF94_ENERGY>
107.9431

> <PUBCHEM_FEATURE_SELFOVERLAP>
86.449

> <PUBCHEM_SHAPE_FINGERPRINT>
10 15 17917992780751676002
10369192 42 17967530177613886391
10554248 39 17385720353034271382
10693767 8 8935000331158315316
11007060 377 18202287996039406843
11456790 92 18130518530800182762
12013929 29 17896872343355941320
12422481 6 17561086891275495630
12677640 9 17980477854654181150
12895837 130 17676487298295162801
13782708 43 11743839153649975930
14394314 77 18261105275156289776
14849402 71 18336261245568417632
14904525 67 18114460166685590504
15183329 4 13984666970797898646
15519825 34 15984815987455457304
17686467 74 18270680858204443307
18393751 57 18341890801243342443
20691028 202 18334296427643842528
21033648 29 17845654884368370423
22122407 14 18187357723419162440
23569914 152 8573050925615527113
2838139 119 17530972375454559552
328310 630 18114180847655146937
3418910 222 17749101193724721649
3504750 166 11671798086187553175
392239 28 18271243914930081765
397830 11 18272928319341231130
4169191 19 18410857650867671876
5104073 3 17344912042708007435
5109719 28 18343300366976103374
5223283 242 18116701015387498166
5364581 5 18130786724435364237
5718773 13 10015590493612687930
6608658 132 16009020735050328267

> <PUBCHEM_SHAPE_MULTIPOLES>
678.07
21.38
3.96
2
32.8
1.37
0.27
19.09
6.66
4.29
0.54
-3.33
0.94
-0.34

> <PUBCHEM_SHAPE_SELFOVERLAP>
1397.85

> <PUBCHEM_SHAPE_VOLUME>
392.8

> <PUBCHEM_COORDINATE_TYPE>
2
5
10

$$$$

