243746
  -OEChem-07051213072D

 51 54  0     1  0  0  0  0  0999 V2000
    8.6500    1.5983    0.0000 O   0  0  0  0  0  0  0  0  0  0  0  0
    2.0000   -2.7092    0.0000 O   0  0  0  0  0  0  0  0  0  0  0  0
   10.2963    1.0603    0.0000 O   0  0  0  0  0  0  0  0  0  0  0  0
    7.3931    0.3431    0.0000 C   0  0  1  0  0  0  0  0  0  0  0  0
    7.3931   -0.6569    0.0000 C   0  0  2  0  0  0  0  0  0  0  0  0
    6.5271   -1.1569    0.0000 C   0  0  1  0  0  0  0  0  0  0  0  0
    5.6610   -0.6569    0.0000 C   0  0  2  0  0  0  0  0  0  0  0  0
    8.3393    0.6478    0.0000 C   0  0  2  0  0  0  0  0  0  0  0  0
    6.5271    0.8431    0.0000 C   0  0  0  0  0  0  0  0  0  0  0  0
    8.3393   -0.9616    0.0000 C   0  0  0  0  0  0  0  0  0  0  0  0
    5.6610    0.3431    0.0000 C   0  0  0  0  0  0  0  0  0  0  0  0
    8.9229   -0.1569    0.0000 C   0  0  0  0  0  0  0  0  0  0  0  0
    6.5431   -2.1984    0.0000 C   0  0  0  0  0  0  0  0  0  0  0  0
    4.7510   -1.1638    0.0000 C   0  0  0  0  0  0  0  0  0  0  0  0
    7.3931    1.3431    0.0000 C   0  0  0  0  0  0  0  0  0  0  0  0
    5.6451   -2.7262    0.0000 C   0  0  0  0  0  0  0  0  0  0  0  0
    4.7430   -2.2054    0.0000 C   0  0  0  0  0  0  0  0  0  0  0  0
    3.8242   -0.5997    0.0000 C   0  0  0  0  0  0  0  0  0  0  0  0
    3.8076   -2.7551    0.0000 C   0  0  0  0  0  0  0  0  0  0  0  0
    2.8763   -1.1276    0.0000 C   0  0  0  0  0  0  0  0  0  0  0  0
    2.8680   -2.2126    0.0000 C   0  0  0  0  0  0  0  0  0  0  0  0
    9.6285    1.8046    0.0000 C   0  0  0  0  0  0  0  0  0  0  0  0
    9.9391    2.7551    0.0000 C   0  0  0  0  0  0  0  0  0  0  0  0
    7.4830   -1.5021    0.0000 H   0  0  0  0  0  0  0  0  0  0  0  0
    7.2664   -1.5762    0.0000 H   0  0  0  0  0  0  0  0  0  0  0  0
    6.3972   -0.2319    0.0000 H   0  0  0  0  0  0  0  0  0  0  0  0
    7.9018    1.0872    0.0000 H   0  0  0  0  0  0  0  0  0  0  0  0
    6.9256    1.3180    0.0000 H   0  0  0  0  0  0  0  0  0  0  0  0
    6.1285    1.3180    0.0000 H   0  0  0  0  0  0  0  0  0  0  0  0
    8.0883   -1.5286    0.0000 H   0  0  0  0  0  0  0  0  0  0  0  0
    8.8767   -1.2709    0.0000 H   0  0  0  0  0  0  0  0  0  0  0  0
    5.4490    0.9257    0.0000 H   0  0  0  0  0  0  0  0  0  0  0  0
    5.0504    0.2354    0.0000 H   0  0  0  0  0  0  0  0  0  0  0  0
    9.3838   -0.5716    0.0000 H   0  0  0  0  0  0  0  0  0  0  0  0
    9.3838    0.2578    0.0000 H   0  0  0  0  0  0  0  0  0  0  0  0
    6.7612   -2.7788    0.0000 H   0  0  0  0  0  0  0  0  0  0  0  0
    7.1523   -2.0829    0.0000 H   0  0  0  0  0  0  0  0  0  0  0  0
    8.0131    1.3431    0.0000 H   0  0  0  0  0  0  0  0  0  0  0  0
    7.3931    1.9631    0.0000 H   0  0  0  0  0  0  0  0  0  0  0  0
    6.7731    1.3431    0.0000 H   0  0  0  0  0  0  0  0  0  0  0  0
    5.2478   -3.2021    0.0000 H   0  0  0  0  0  0  0  0  0  0  0  0
    6.0460   -3.1991    0.0000 H   0  0  0  0  0  0  0  0  0  0  0  0
    4.2324   -0.1330    0.0000 H   0  0  0  0  0  0  0  0  0  0  0  0
    3.4343   -0.1176    0.0000 H   0  0  0  0  0  0  0  0  0  0  0  0
    3.4103   -3.2311    0.0000 H   0  0  0  0  0  0  0  0  0  0  0  0
    4.2085   -3.2280    0.0000 H   0  0  0  0  0  0  0  0  0  0  0  0
    2.6718   -0.5423    0.0000 H   0  0  0  0  0  0  0  0  0  0  0  0
    2.2647   -1.2290    0.0000 H   0  0  0  0  0  0  0  0  0  0  0  0
   10.5285    2.5625    0.0000 H   0  0  0  0  0  0  0  0  0  0  0  0
   10.1317    3.3444    0.0000 H   0  0  0  0  0  0  0  0  0  0  0  0
    9.3498    2.9477    0.0000 H   0  0  0  0  0  0  0  0  0  0  0  0
  8  1  1  1  0  0  0
  1 22  1  0  0  0  0
  2 21  2  0  0  0  0
  3 22  2  0  0  0  0
  4  5  1  0  0  0  0
  4  8  1  0  0  0  0
  4  9  1  0  0  0  0
  4 15  1  1  0  0  0
  5  6  1  0  0  0  0
  5 10  1  0  0  0  0
  5 24  1  6  0  0  0
  6  7  1  0  0  0  0
  6 13  1  0  0  0  0
  6 25  1  1  0  0  0
  7 11  1  0  0  0  0
  7 14  1  0  0  0  0
  7 26  1  6  0  0  0
  8 12  1  0  0  0  0
  8 27  1  0  0  0  0
  9 11  1  0  0  0  0
  9 28  1  0  0  0  0
  9 29  1  0  0  0  0
 10 12  1  0  0  0  0
 10 30  1  0  0  0  0
 10 31  1  0  0  0  0
 11 32  1  0  0  0  0
 11 33  1  0  0  0  0
 12 34  1  0  0  0  0
 12 35  1  0  0  0  0
 13 16  1  0  0  0  0
 13 36  1  0  0  0  0
 13 37  1  0  0  0  0
 14 17  2  0  0  0  0
 14 18  1  0  0  0  0
 15 38  1  0  0  0  0
 15 39  1  0  0  0  0
 15 40  1  0  0  0  0
 16 17  1  0  0  0  0
 16 41  1  0  0  0  0
 16 42  1  0  0  0  0
 17 19  1  0  0  0  0
 18 20  1  0  0  0  0
 18 43  1  0  0  0  0
 18 44  1  0  0  0  0
 19 21  1  0  0  0  0
 19 45  1  0  0  0  0
 19 46  1  0  0  0  0
 20 21  1  0  0  0  0
 20 47  1  0  0  0  0
 20 48  1  0  0  0  0
 22 23  1  0  0  0  0
 23 49  1  0  0  0  0
 23 50  1  0  0  0  0
 23 51  1  0  0  0  0
M  END
> <PUBCHEM_COMPOUND_CID>
243746

> <PUBCHEM_COMPOUND_CANONICALIZED>
1

> <PUBCHEM_CACTVS_COMPLEXITY>
575

> <PUBCHEM_CACTVS_HBOND_ACCEPTOR>
3

> <PUBCHEM_CACTVS_HBOND_DONOR>
0

> <PUBCHEM_CACTVS_ROTATABLE_BOND>
2

> <PUBCHEM_CACTVS_SUBSKEYS>
AAADceB4MAAAAAAAAAAAAAAAAAAAAYAAAAAwQIAAAAAAAGDAAAAAGgAAAAAADxSggAICCAAABACIAoDQCAAAAAAgAAAACAEAAAgAABIAAAACAAAEgAAIAAOIyPCPgAAAAAAAAACAAAQAACAAAIAADAAAAA==

> <PUBCHEM_IUPAC_OPENEYE_NAME>
[(8R,9S,13S,14S,17S)-13-methyl-3-oxo-2,4,6,7,8,9,11,12,14,15,16,17-dodecahydro-1H-cyclopenta[a]phenanthren-17-yl] acetate

> <PUBCHEM_IUPAC_CAS_NAME>
acetic acid [(8R,9S,13S,14S,17S)-13-methyl-3-oxo-2,4,6,7,8,9,11,12,14,15,16,17-dodecahydro-1H-cyclopenta[a]phenanthren-17-yl] ester

> <PUBCHEM_IUPAC_NAME>
[(8R,9S,13S,14S,17S)-13-methyl-3-oxo-2,4,6,7,8,9,11,12,14,15,16,17-dodecahydro-1H-cyclopenta[a]phenanthren-17-yl] acetate

> <PUBCHEM_IUPAC_SYSTEMATIC_NAME>
[(8R,9S,13S,14S,17S)-13-methyl-3-oxidanylidene-2,4,6,7,8,9,11,12,14,15,16,17-dodecahydro-1H-cyclopenta[a]phenanthren-17-yl] ethanoate

> <PUBCHEM_IUPAC_TRADITIONAL_NAME>
acetic acid [(8R,9S,13S,14S,17S)-3-keto-13-methyl-2,4,6,7,8,9,11,12,14,15,16,17-dodecahydro-1H-cyclopenta[a]phenanthren-17-yl] ester

> <PUBCHEM_IUPAC_INCHI>
InChI=1S/C20H28O3/c1-12(21)23-19-8-7-18-17-5-3-13-11-14(22)4-6-15(13)16(17)9-10-20(18,19)2/h16-19H,3-11H2,1-2H3/t16-,17-,18+,19+,20+/m1/s1

> <PUBCHEM_IUPAC_INCHIKEY>
JKSYUQKNAOZGAO-SLHNCBLASA-N

> <PUBCHEM_XLOGP3_AA>
2.8

> <PUBCHEM_EXACT_MASS>
316.203845

> <PUBCHEM_MOLECULAR_FORMULA>
C20H28O3

> <PUBCHEM_MOLECULAR_WEIGHT>
316.43452

> <PUBCHEM_OPENEYE_CAN_SMILES>
CC(=O)OC1CCC2C1(CCC3C2CCC4=C3CCC(=O)C4)C

> <PUBCHEM_OPENEYE_ISO_SMILES>
CC(=O)O[C@H]1CC[C@@H]2[C@@]1(CC[C@H]3[C@H]2CCC4=C3CCC(=O)C4)C

> <PUBCHEM_CACTVS_TPSA>
43.4

> <PUBCHEM_MONOISOTOPIC_WEIGHT>
316.203845

> <PUBCHEM_TOTAL_CHARGE>
0

> <PUBCHEM_HEAVY_ATOM_COUNT>
23

> <PUBCHEM_ATOM_DEF_STEREO_COUNT>
5

> <PUBCHEM_ATOM_UDEF_STEREO_COUNT>
0

> <PUBCHEM_BOND_DEF_STEREO_COUNT>
0

> <PUBCHEM_BOND_UDEF_STEREO_COUNT>
0

> <PUBCHEM_ISOTOPIC_ATOM_COUNT>
0

> <PUBCHEM_COMPONENT_COUNT>
1

> <PUBCHEM_CACTVS_TAUTO_COUNT>
8

> <PUBCHEM_COORDINATE_TYPE>
1
5
255

> <PUBCHEM_BONDANNOTATIONS>
8  1  5
4  15  5
5  24  6
6  25  5
7  26  6

$$$$

