9543100
  -OEChem-07051213113D

 16 15  0     0  0  0  0  0  0999 V2000
    1.3173   -2.7241    0.7979 Cl  0  0  0  0  0  0  0  0  0  0  0  0
   -1.3197   -2.7236   -0.7972 Cl  0  0  0  0  0  0  0  0  0  0  0  0
    3.2601   -0.2822    0.1231 Cl  0  0  0  0  0  0  0  0  0  0  0  0
   -3.2604   -0.2796   -0.1243 Cl  0  0  0  0  0  0  0  0  0  0  0  0
    1.8022    2.1256   -0.2655 O   0  0  0  0  0  0  0  0  0  0  0  0
   -1.8001    2.1270    0.2654 O   0  0  0  0  0  0  0  0  0  0  0  0
    0.0728    1.2165   -1.4251 O   0  0  0  0  0  0  0  0  0  0  0  0
   -0.0720    1.2161    1.4257 O   0  0  0  0  0  0  0  0  0  0  0  0
    0.7198   -1.2314    0.1090 C   0  0  0  0  0  0  0  0  0  0  0  0
   -0.7207   -1.2310   -0.1096 C   0  0  0  0  0  0  0  0  0  0  0  0
    1.5468   -0.1970   -0.1461 C   0  0  0  0  0  0  0  0  0  0  0  0
   -1.5469   -0.1960    0.1460 C   0  0  0  0  0  0  0  0  0  0  0  0
    1.0438    1.0896   -0.6958 C   0  0  0  0  0  0  0  0  0  0  0  0
   -1.0430    1.0901    0.6964 C   0  0  0  0  0  0  0  0  0  0  0  0
    1.4799    2.9848   -0.6122 H   0  0  0  0  0  0  0  0  0  0  0  0
   -1.4770    2.9859    0.6120 H   0  0  0  0  0  0  0  0  0  0  0  0
  1  9  1  0  0  0  0
  2 10  1  0  0  0  0
  3 11  1  0  0  0  0
  4 12  1  0  0  0  0
  5 13  1  0  0  0  0
  5 15  1  0  0  0  0
  6 14  1  0  0  0  0
  6 16  1  0  0  0  0
  7 13  2  0  0  0  0
  8 14  2  0  0  0  0
  9 10  1  0  0  0  0
  9 11  2  0  0  0  0
 10 12  2  0  0  0  0
 11 13  1  0  0  0  0
 12 14  1  0  0  0  0
M  END
> <PUBCHEM_COMPOUND_CID>
9543100

> <PUBCHEM_CONFORMER_RMSD>
0.6

> <PUBCHEM_CONFORMER_DIVERSEORDER>
1
3
2

> <PUBCHEM_MMFF94_PARTIAL_CHARGES>
16
1 -0.14
10 0.14
11 0.15
12 0.15
13 0.71
14 0.71
15 0.5
16 0.5
2 -0.14
3 -0.14
4 -0.14
5 -0.65
6 -0.65
7 -0.57
8 -0.57
9 0.14

> <PUBCHEM_EFFECTIVE_ROTOR_COUNT>
3

> <PUBCHEM_PHARMACOPHORE_FEATURES>
6
1 5 acceptor
1 6 acceptor
1 7 acceptor
1 8 acceptor
3 5 7 13 anion
3 6 8 14 anion

> <PUBCHEM_HEAVY_ATOM_COUNT>
14

> <PUBCHEM_ATOM_DEF_STEREO_COUNT>
0

> <PUBCHEM_ATOM_UDEF_STEREO_COUNT>
0

> <PUBCHEM_BOND_DEF_STEREO_COUNT>
2

> <PUBCHEM_BOND_UDEF_STEREO_COUNT>
0

> <PUBCHEM_ISOTOPIC_ATOM_COUNT>
0

> <PUBCHEM_COMPONENT_COUNT>
1

> <PUBCHEM_CACTVS_TAUTO_COUNT>
1

> <PUBCHEM_CONFORMER_ID>
00919DBC00000001

> <PUBCHEM_MMFF94_ENERGY>
67.7715

> <PUBCHEM_FEATURE_SELFOVERLAP>
30.598

> <PUBCHEM_SHAPE_FINGERPRINT>
12423570 1 8900198249206975384
13024252 1 15195280980011065980
13140716 1 18266740177584443171
14713566 1 18333728005274591530
14761567 1 17261866659796222406
14817 1 8194191692673224760
14993402 34 18341888615109503558
16945 1 18410570690911704006
18185500 45 18411135814123962294
20645476 183 17557401216171254014
22344851 341 18267308629491249162
2334 1 17978228253420477286
23388829 49 18410018766255473511
23419403 2 17256310050051483299
23552423 10 18412259549641380011
23559900 14 18115303355403274584
241688 4 17837208542790412266
2748010 2 18050283966283796246
2897 32 18340768139408992279
5084963 1 18187354450290169728
528886 8 18130512915996057414

> <PUBCHEM_SHAPE_MULTIPOLES>
272.12
3.6
2.87
1.01
0
1.12
0
0.05
0
0
0
0
-0.11
-0.73

> <PUBCHEM_SHAPE_SELFOVERLAP>
530.516

> <PUBCHEM_SHAPE_VOLUME>
164.1

> <PUBCHEM_COORDINATE_TYPE>
2
5
10

$$$$

