14093
  -OEChem-06241222422D

 21 20  0     0  0  0  0  0  0999 V2000
    2.2690    5.1200    0.0000 S   0  0  0  0  0  0  0  0  0  0  0  0
    3.1350    3.6200    0.0000 S   0  5  0  0  0  0  0  0  0  0  0  0
    1.4030    3.6200    0.0000 N   0  0  0  0  0  0  0  0  0  0  0  0
    5.6719    2.7150    0.0000 N   0  3  0  0  0  0  0  0  0  0  0  0
    1.4030    2.6200    0.0000 C   0  0  0  0  0  0  0  0  0  0  0  0
    2.2690    2.1200    0.0000 C   0  0  0  0  0  0  0  0  0  0  0  0
    0.5369    2.1200    0.0000 C   0  0  0  0  0  0  0  0  0  0  0  0
    2.2690    1.1200    0.0000 C   0  0  0  0  0  0  0  0  0  0  0  0
    0.5369    1.1200    0.0000 C   0  0  0  0  0  0  0  0  0  0  0  0
    1.4030    0.6200    0.0000 C   0  0  0  0  0  0  0  0  0  0  0  0
    2.2690    4.1200    0.0000 C   0  0  0  0  0  0  0  0  0  0  0  0
    2.8059    2.4300    0.0000 H   0  0  0  0  0  0  0  0  0  0  0  0
    0.0000    2.4300    0.0000 H   0  0  0  0  0  0  0  0  0  0  0  0
    2.8059    0.8100    0.0000 H   0  0  0  0  0  0  0  0  0  0  0  0
    0.0000    0.8100    0.0000 H   0  0  0  0  0  0  0  0  0  0  0  0
    1.4030    0.0000    0.0000 H   0  0  0  0  0  0  0  0  0  0  0  0
    2.8059    5.4300    0.0000 H   0  0  0  0  0  0  0  0  0  0  0  0
    6.2089    3.0250    0.0000 H   0  0  0  0  0  0  0  0  0  0  0  0
    5.1350    2.4050    0.0000 H   0  0  0  0  0  0  0  0  0  0  0  0
    5.3619    3.2519    0.0000 H   0  0  0  0  0  0  0  0  0  0  0  0
    5.9819    2.1781    0.0000 H   0  0  0  0  0  0  0  0  0  0  0  0
  1 11  1  0  0  0  0
  1 17  1  0  0  0  0
  2 11  1  0  0  0  0
  3  5  1  0  0  0  0
  3 11  2  0  0  0  0
  4 18  1  0  0  0  0
  4 19  1  0  0  0  0
  4 20  1  0  0  0  0
  4 21  1  0  0  0  0
  5  6  2  0  0  0  0
  5  7  1  0  0  0  0
  6  8  1  0  0  0  0
  6 12  1  0  0  0  0
  7  9  2  0  0  0  0
  7 13  1  0  0  0  0
  8 10  2  0  0  0  0
  8 14  1  0  0  0  0
  9 10  1  0  0  0  0
  9 15  1  0  0  0  0
 10 16  1  0  0  0  0
M  CHG  2   2  -1   4   1
M  END
> <PUBCHEM_COMPOUND_CID>
14093

> <PUBCHEM_COMPOUND_CANONICALIZED>
1

> <PUBCHEM_CACTVS_COMPLEXITY>
128

> <PUBCHEM_CACTVS_HBOND_ACCEPTOR>
3

> <PUBCHEM_CACTVS_HBOND_DONOR>
2

> <PUBCHEM_CACTVS_ROTATABLE_BOND>
1

> <PUBCHEM_CACTVS_SUBSKEYS>
AAADccBjAABgAAAAAAAAAAAAAAAAAAAAAAAwAAAAAAAAAAABAAAAHAQQAAAACAiBEAAwwIIAAASgACRCRACCEAAgAgAIiAAAZIgIICKAkZGAIABggAAIyAcQAAAAAAAAAAAAAAAAAAAAAAAAAAAAAAAAAA==

> <PUBCHEM_IUPAC_OPENEYE_NAME>
ammonium N-phenyl-1-sulfanyl-methanimidothioate

> <PUBCHEM_IUPAC_CAS_NAME>
ammonium 1-mercapto-N-phenylmethanimidothioate

> <PUBCHEM_IUPAC_NAME>
azanium N-phenyl-1-sulfanylmethanimidothioate

> <PUBCHEM_IUPAC_SYSTEMATIC_NAME>
azanium N-phenyl-1-sulfanyl-methanimidothioate

> <PUBCHEM_IUPAC_TRADITIONAL_NAME>
ammonium 1-mercapto-N-phenyl-thioformimidate

> <PUBCHEM_IUPAC_INCHI>
InChI=1S/C7H7NS2.H3N/c9-7(10)8-6-4-2-1-3-5-6;/h1-5H,(H2,8,9,10);1H3

> <PUBCHEM_IUPAC_INCHIKEY>
JSNKIZGODRFYMM-UHFFFAOYSA-N

> <PUBCHEM_EXACT_MASS>
186.02854

> <PUBCHEM_MOLECULAR_FORMULA>
C7H10N2S2

> <PUBCHEM_MOLECULAR_WEIGHT>
186.2977

> <PUBCHEM_OPENEYE_CAN_SMILES>
C1=CC=C(C=C1)N=C(S)[S-].[NH4+]

> <PUBCHEM_OPENEYE_ISO_SMILES>
C1=CC=C(C=C1)N=C(S)[S-].[NH4+]

> <PUBCHEM_CACTVS_TPSA>
15.4

> <PUBCHEM_MONOISOTOPIC_WEIGHT>
186.02854

> <PUBCHEM_TOTAL_CHARGE>
0

> <PUBCHEM_HEAVY_ATOM_COUNT>
11

> <PUBCHEM_ATOM_DEF_STEREO_COUNT>
0

> <PUBCHEM_ATOM_UDEF_STEREO_COUNT>
0

> <PUBCHEM_BOND_DEF_STEREO_COUNT>
0

> <PUBCHEM_BOND_UDEF_STEREO_COUNT>
0

> <PUBCHEM_ISOTOPIC_ATOM_COUNT>
0

> <PUBCHEM_COMPONENT_COUNT>
2

> <PUBCHEM_CACTVS_TAUTO_COUNT>
2

> <PUBCHEM_COORDINATE_TYPE>
1
5
255

> <PUBCHEM_BONDANNOTATIONS>
5  6  8
5  7  8
6  8  8
7  9  8
8  10  8
9  10  8

$$$$

