68161
  -OEChem-07051212513D

 15 15  0     0  0  0  0  0  0999 V2000
   -1.4242   -0.0954    0.0191 N   0  0  0  0  0  0  0  0  0  0  0  0
    1.4460    0.0795    0.2805 C   0  0  0  0  0  0  0  0  0  0  0  0
    0.6635    1.2203   -0.3427 C   0  0  0  0  0  0  0  0  0  0  0  0
    0.7892   -1.2387   -0.0741 C   0  0  0  0  0  0  0  0  0  0  0  0
   -0.7617    1.1983    0.1872 C   0  0  0  0  0  0  0  0  0  0  0  0
   -0.7129   -1.1639   -0.0701 C   0  0  0  0  0  0  0  0  0  0  0  0
    1.4685    0.2011    1.3705 H   0  0  0  0  0  0  0  0  0  0  0  0
    2.4853    0.0888   -0.0654 H   0  0  0  0  0  0  0  0  0  0  0  0
    1.1358    2.1791   -0.1027 H   0  0  0  0  0  0  0  0  0  0  0  0
    0.6616    1.1207   -1.4350 H   0  0  0  0  0  0  0  0  0  0  0  0
    1.1032   -2.0266    0.6181 H   0  0  0  0  0  0  0  0  0  0  0  0
    1.0882   -1.5562   -1.0798 H   0  0  0  0  0  0  0  0  0  0  0  0
   -0.7768    1.4660    1.2503 H   0  0  0  0  0  0  0  0  0  0  0  0
   -1.3477    1.9593   -0.3398 H   0  0  0  0  0  0  0  0  0  0  0  0
   -1.2420   -2.1237   -0.1944 H   0  0  0  0  0  0  0  0  0  0  0  0
  1  5  1  0  0  0  0
  1  6  2  0  0  0  0
  2  3  1  0  0  0  0
  2  4  1  0  0  0  0
  2  7  1  0  0  0  0
  2  8  1  0  0  0  0
  3  5  1  0  0  0  0
  3  9  1  0  0  0  0
  3 10  1  0  0  0  0
  4  6  1  0  0  0  0
  4 11  1  0  0  0  0
  4 12  1  0  0  0  0
  5 13  1  0  0  0  0
  5 14  1  0  0  0  0
  6 15  1  0  0  0  0
M  END
> <PUBCHEM_COMPOUND_CID>
68161

> <PUBCHEM_CONFORMER_RMSD>
0.4

> <PUBCHEM_CONFORMER_DIVERSEORDER>
1

> <PUBCHEM_MMFF94_PARTIAL_CHARGES>
5
1 -0.7
15 0.06
4 0.06
5 0.25
6 0.33

> <PUBCHEM_EFFECTIVE_ROTOR_COUNT>
0.8

> <PUBCHEM_PHARMACOPHORE_FEATURES>
2
1 1 acceptor
6 1 2 3 4 5 6 rings

> <PUBCHEM_HEAVY_ATOM_COUNT>
6

> <PUBCHEM_ATOM_DEF_STEREO_COUNT>
0

> <PUBCHEM_ATOM_UDEF_STEREO_COUNT>
0

> <PUBCHEM_BOND_DEF_STEREO_COUNT>
0

> <PUBCHEM_BOND_UDEF_STEREO_COUNT>
0

> <PUBCHEM_ISOTOPIC_ATOM_COUNT>
0

> <PUBCHEM_COMPONENT_COUNT>
1

> <PUBCHEM_CACTVS_TAUTO_COUNT>
1

> <PUBCHEM_CONFORMER_ID>
00010A4100000001

> <PUBCHEM_MMFF94_ENERGY>
6.5654

> <PUBCHEM_FEATURE_SELFOVERLAP>
10.148

> <PUBCHEM_SHAPE_FINGERPRINT>
16714656 1 17689983961848974830
20096714 4 17979351962941166430
21015797 1 9222138930295637996
21040471 1 18194119848362427376

> <PUBCHEM_SHAPE_MULTIPOLES>
118.5
1.62
1.6
0.64
0.01
0.01
0
-0.01
0
-0.03
0.01
0.01
-0.06
0.11

> <PUBCHEM_SHAPE_SELFOVERLAP>
226.365

> <PUBCHEM_SHAPE_VOLUME>
69.1

> <PUBCHEM_COORDINATE_TYPE>
2
5
10

$$$$

