442169
  -OEChem-07051212572D

 46 48  0     1  0  0  0  0  0999 V2000
    2.0000    0.3472    0.0000 O   0  0  0  0  0  0  0  0  0  0  0  0
    2.0000    2.3472    0.0000 O   0  0  0  0  0  0  0  0  0  0  0  0
    8.9212   -2.7273    0.0000 O   0  0  0  0  0  0  0  0  0  0  0  0
    6.3981    0.8264    0.0000 N   0  0  3  0  0  0  0  0  0  0  0  0
    5.4920    0.3126    0.0000 C   0  0  1  0  0  0  0  0  0  0  0  0
    4.5981    0.8472    0.0000 C   0  0  0  0  0  0  0  0  0  0  0  0
    6.3981    1.8680    0.0000 C   0  0  0  0  0  0  0  0  0  0  0  0
    5.4920    2.3819    0.0000 C   0  0  0  0  0  0  0  0  0  0  0  0
    4.5981    1.8472    0.0000 C   0  0  0  0  0  0  0  0  0  0  0  0
    5.4804   -0.6874    0.0000 C   0  0  0  0  0  0  0  0  0  0  0  0
    3.7320    0.3472    0.0000 C   0  0  0  0  0  0  0  0  0  0  0  0
    7.2622    0.3231    0.0000 C   0  0  0  0  0  0  0  0  0  0  0  0
    3.7320    2.3472    0.0000 C   0  0  0  0  0  0  0  0  0  0  0  0
    6.3406   -1.1973    0.0000 C   0  0  0  0  0  0  0  0  0  0  0  0
    2.8660    0.8472    0.0000 C   0  0  0  0  0  0  0  0  0  0  0  0
    2.8660    1.8472    0.0000 C   0  0  0  0  0  0  0  0  0  0  0  0
    6.3291   -2.1973    0.0000 C   0  0  0  0  0  0  0  0  0  0  0  0
    7.2124   -0.7074    0.0000 C   0  0  0  0  0  0  0  0  0  0  0  0
    7.1893   -2.7072    0.0000 C   0  0  0  0  0  0  0  0  0  0  0  0
    8.0726   -1.2174    0.0000 C   0  0  0  0  0  0  0  0  0  0  0  0
    8.0610   -2.2173    0.0000 C   0  0  0  0  0  0  0  0  0  0  0  0
    2.0000   -0.6528    0.0000 C   0  0  0  0  0  0  0  0  0  0  0  0
    2.0000    3.3472    0.0000 C   0  0  0  0  0  0  0  0  0  0  0  0
    6.0259   -0.0026    0.0000 H   0  0  0  0  0  0  0  0  0  0  0  0
    7.0089    1.7620    0.0000 H   0  0  0  0  0  0  0  0  0  0  0  0
    6.6071    2.4517    0.0000 H   0  0  0  0  0  0  0  0  0  0  0  0
    5.8856    2.8609    0.0000 H   0  0  0  0  0  0  0  0  0  0  0  0
    5.0874    2.8517    0.0000 H   0  0  0  0  0  0  0  0  0  0  0  0
    4.8712   -0.5726    0.0000 H   0  0  0  0  0  0  0  0  0  0  0  0
    5.2617   -1.2675    0.0000 H   0  0  0  0  0  0  0  0  0  0  0  0
    3.7320   -0.2728    0.0000 H   0  0  0  0  0  0  0  0  0  0  0  0
    6.9501   -0.2126    0.0000 H   0  0  0  0  0  0  0  0  0  0  0  0
    7.7979    0.0110    0.0000 H   0  0  0  0  0  0  0  0  0  0  0  0
    7.5742    0.8588    0.0000 H   0  0  0  0  0  0  0  0  0  0  0  0
    3.7320    2.9672    0.0000 H   0  0  0  0  0  0  0  0  0  0  0  0
    5.7886   -2.5010    0.0000 H   0  0  0  0  0  0  0  0  0  0  0  0
    7.2196   -0.0874    0.0000 H   0  0  0  0  0  0  0  0  0  0  0  0
    7.1821   -3.3272    0.0000 H   0  0  0  0  0  0  0  0  0  0  0  0
    8.6131   -0.9136    0.0000 H   0  0  0  0  0  0  0  0  0  0  0  0
    1.3800   -0.6528    0.0000 H   0  0  0  0  0  0  0  0  0  0  0  0
    2.0000   -1.2728    0.0000 H   0  0  0  0  0  0  0  0  0  0  0  0
    2.6200   -0.6528    0.0000 H   0  0  0  0  0  0  0  0  0  0  0  0
    2.6200    3.3472    0.0000 H   0  0  0  0  0  0  0  0  0  0  0  0
    2.0000    3.9672    0.0000 H   0  0  0  0  0  0  0  0  0  0  0  0
    1.3800    3.3472    0.0000 H   0  0  0  0  0  0  0  0  0  0  0  0
    8.9140   -3.3472    0.0000 H   0  0  0  0  0  0  0  0  0  0  0  0
  1 15  1  0  0  0  0
  1 22  1  0  0  0  0
  2 16  1  0  0  0  0
  2 23  1  0  0  0  0
  3 21  1  0  0  0  0
  3 46  1  0  0  0  0
  4  5  1  0  0  0  0
  4  7  1  0  0  0  0
  4 12  1  0  0  0  0
  5  6  1  0  0  0  0
  5 10  1  6  0  0  0
  5 24  1  0  0  0  0
  6  9  1  0  0  0  0
  6 11  2  0  0  0  0
  7  8  1  0  0  0  0
  7 25  1  0  0  0  0
  7 26  1  0  0  0  0
  8  9  1  0  0  0  0
  8 27  1  0  0  0  0
  8 28  1  0  0  0  0
  9 13  2  0  0  0  0
 10 14  1  0  0  0  0
 10 29  1  0  0  0  0
 10 30  1  0  0  0  0
 11 15  1  0  0  0  0
 11 31  1  0  0  0  0
 12 32  1  0  0  0  0
 12 33  1  0  0  0  0
 12 34  1  0  0  0  0
 13 16  1  0  0  0  0
 13 35  1  0  0  0  0
 14 17  2  0  0  0  0
 14 18  1  0  0  0  0
 15 16  2  0  0  0  0
 17 19  1  0  0  0  0
 17 36  1  0  0  0  0
 18 20  2  0  0  0  0
 18 37  1  0  0  0  0
 19 21  2  0  0  0  0
 19 38  1  0  0  0  0
 20 21  1  0  0  0  0
 20 39  1  0  0  0  0
 22 40  1  0  0  0  0
 22 41  1  0  0  0  0
 22 42  1  0  0  0  0
 23 43  1  0  0  0  0
 23 44  1  0  0  0  0
 23 45  1  0  0  0  0
M  END
> <PUBCHEM_COMPOUND_CID>
442169

> <PUBCHEM_COMPOUND_CANONICALIZED>
1

> <PUBCHEM_CACTVS_COMPLEXITY>
370

> <PUBCHEM_CACTVS_HBOND_ACCEPTOR>
4

> <PUBCHEM_CACTVS_HBOND_DONOR>
1

> <PUBCHEM_CACTVS_ROTATABLE_BOND>
4

> <PUBCHEM_CACTVS_SUBSKEYS>
AAADceB6MAAAAAAAAAAAAAAAAAAAAAAAAAA8YIAAAAAAAACxQAAAHgAACAAADCzBmAYyBoMABgCAAiBCAACCCAAgIAAIiAAOjIgNJiKGsRuEcCpkwBGKuAew0PMOoAABAAAQQABAAAIAACCAAAAAAAAAAA==

> <PUBCHEM_IUPAC_OPENEYE_NAME>
4-[[(1R)-6,7-dimethoxy-2-methyl-3,4-dihydro-1H-isoquinolin-1-yl]methyl]phenol

> <PUBCHEM_IUPAC_CAS_NAME>
4-[[(1R)-6,7-dimethoxy-2-methyl-3,4-dihydro-1H-isoquinolin-1-yl]methyl]phenol

> <PUBCHEM_IUPAC_NAME>
4-[[(1R)-6,7-dimethoxy-2-methyl-3,4-dihydro-1H-isoquinolin-1-yl]methyl]phenol

> <PUBCHEM_IUPAC_SYSTEMATIC_NAME>
4-[[(1R)-6,7-dimethoxy-2-methyl-3,4-dihydro-1H-isoquinolin-1-yl]methyl]phenol

> <PUBCHEM_IUPAC_TRADITIONAL_NAME>
4-[[(1R)-6,7-dimethoxy-2-methyl-3,4-dihydro-1H-isoquinolin-1-yl]methyl]phenol

> <PUBCHEM_IUPAC_INCHI>
InChI=1S/C19H23NO3/c1-20-9-8-14-11-18(22-2)19(23-3)12-16(14)17(20)10-13-4-6-15(21)7-5-13/h4-7,11-12,17,21H,8-10H2,1-3H3/t17-/m1/s1

> <PUBCHEM_IUPAC_INCHIKEY>
ZBKFZIUKXTWQTP-QGZVFWFLSA-N

> <PUBCHEM_XLOGP3_AA>
3.4

> <PUBCHEM_EXACT_MASS>
313.167794

> <PUBCHEM_MOLECULAR_FORMULA>
C19H23NO3

> <PUBCHEM_MOLECULAR_WEIGHT>
313.39082

> <PUBCHEM_OPENEYE_CAN_SMILES>
CN1CCC2=CC(=C(C=C2C1CC3=CC=C(C=C3)O)OC)OC

> <PUBCHEM_OPENEYE_ISO_SMILES>
CN1CCC2=CC(=C(C=C2[C@H]1CC3=CC=C(C=C3)O)OC)OC

> <PUBCHEM_CACTVS_TPSA>
41.9

> <PUBCHEM_MONOISOTOPIC_WEIGHT>
313.167794

> <PUBCHEM_TOTAL_CHARGE>
0

> <PUBCHEM_HEAVY_ATOM_COUNT>
23

> <PUBCHEM_ATOM_DEF_STEREO_COUNT>
1

> <PUBCHEM_ATOM_UDEF_STEREO_COUNT>
0

> <PUBCHEM_BOND_DEF_STEREO_COUNT>
0

> <PUBCHEM_BOND_UDEF_STEREO_COUNT>
0

> <PUBCHEM_ISOTOPIC_ATOM_COUNT>
0

> <PUBCHEM_COMPONENT_COUNT>
1

> <PUBCHEM_CACTVS_TAUTO_COUNT>
2

> <PUBCHEM_COORDINATE_TYPE>
1
5
255

> <PUBCHEM_BONDANNOTATIONS>
11  15  8
13  16  8
14  17  8
14  18  8
15  16  8
17  19  8
18  20  8
19  21  8
20  21  8
5  10  6
6  11  8
6  9  8
9  13  8

$$$$

